drugbank_target|P03371 Pol polyprotein (DB03413)
 OpenBabel12092120273D

  0  0  0     0  0            999 V3000
M  V30 BEGIN CTAB
M  V30 COUNTS 18307 18510 0 0 0
M  V30 BEGIN ATOM
M  V30 1 H -0.908 1.98254 -0.117106 0
M  V30 2 N 0 1.576 0 0
M  V30 3 C 1.228 1.94848 0.695833 0
M  V30 4 C 1.643 0.874846 1.67308 0
M  V30 5 O 1 -0.146215 1.81913 0
M  V30 6 C 1.051 3.32113 1.4277 0
M  V30 7 O 0.772 4.35355 0.489647 0
M  V30 8 C 2.273 3.8382 2.21804 0
M  V30 9 H -0.507 0.642403 0.193802 0
M  V30 10 H 2.037 2.04436 -0.0511197 0
M  V30 11 H 0.192 3.23833 2.12628 0
M  V30 12 H 0.606 5.14762 1.00601 0
M  V30 13 H 2.08 4.82293 2.6851 0
M  V30 14 H 2.557 3.16527 3.04479 0
M  V30 15 H 3.163 3.95276 1.56962 0
M  V30 16 N 1.4781 -0.272755 1.55222 0
M  V30 17 C 2.4411 -1.32041 1.87344 0
M  V30 18 C 3.4411 -1.42342 0.74803 0
M  V30 19 O 4.6311 -1.41488 1.0162 0
M  V30 20 C 1.7631 -2.70173 2.07893 0
M  V30 21 H 2.9561 -1.04789 2.80997 0
M  V30 22 H 0.5091 -0.51083 1.47717 0
M  V30 23 H 1.2441 -3.02605 1.16622 0
M  V30 24 H 1.0291 -2.64082 2.89833 0
M  V30 25 H 2.5191 -3.45869 2.34017 0
M  V30 26 N 2.9562 -1.48159 -0.537278 0
M  V30 27 C 4.2022 -1.57015 -1.29297 0
M  V30 28 C 4.5572 -0.237791 -1.90925 0
M  V30 29 O 3.8502 0.758621 -1.75942 0
M  V30 30 C 4.0442 -2.63956 -2.40961 0
M  V30 31 C 3.8732 -4.07461 -1.90278 0
M  V30 32 C 2.6432 -4.74685 -1.73213 0
M  V30 33 C 4.8412 -4.93858 -1.43556 0
M  V30 34 N 2.8232 -6.02633 -1.17078 0
M  V30 35 C 4.1942 -6.11993 -0.993204 0
M  V30 36 C 6.2492 -4.80141 -1.31792 0
M  V30 37 C 4.9522 -7.17923 -0.444872 0
M  V30 38 C 6.9782 -5.86186 -0.783585 0
M  V30 39 C 6.3402 -7.03524 -0.351261 0
M  V30 40 H 2.4392 -0.629154 -0.464423 0
M  V30 41 H 5.0232 -1.85006 -0.606705 0
M  V30 42 H 3.1942 -2.378 -3.07093 0
M  V30 43 H 4.9262 -2.62539 -3.07986 0
M  V30 44 H 1.6812 -4.30902 -1.9652 0
M  V30 45 H 2.1052 -6.7085 -0.910421 0
M  V30 46 H 6.7472 -3.89772 -1.63823 0
M  V30 47 H 4.4652 -8.08022 -0.11222 0
M  V30 48 H 8.0512 -5.77624 -0.695835 0
M  V30 49 H 6.9312 -7.8418 0.055777 0
M  V30 50 N 4.4343 0.785586 -1.36625 0
M  V30 51 C 5.6623 1.57448 -1.3423 0
M  V30 52 C 6.0773 1.88649 0.0755653 0
M  V30 53 O 5.4343 1.50414 1.03354 0
M  V30 54 C 5.4853 2.89316 -2.16745 0
M  V30 55 O 5.2063 2.59459 -3.53005 0
M  V30 56 C 6.7073 3.83606 -2.22174 0
M  V30 57 H 3.9273 0.488226 -0.4603 0
M  V30 58 H 6.4713 0.974733 -1.79775 0
M  V30 59 H 4.6263 3.4575 -1.74745 0
M  V30 60 H 5.0403 3.43804 -3.96105 0
M  V30 61 H 6.5143 4.73181 -2.8426 0
M  V30 62 H 6.9913 4.21734 -1.22627 0
M  V30 63 H 7.5973 3.33104 -2.64427 0
M  V30 64 N 5.9124 1.20967 1.01018 0
M  V30 65 C 7.1594 1.02374 1.74716 0
M  V30 66 C 7.4874 -0.443375 1.89379 0
M  V30 67 O 6.7424 -1.34535 1.42123 0
M  V30 68 C 7.0414 1.65997 3.16512 0
M  V30 69 C 6.7074 3.15831 3.2181 0
M  V30 70 C 5.3694 3.56719 3.22963 0
M  V30 71 C 7.7214 4.11816 3.19464 0
M  V30 72 C 5.0494 4.92107 3.19449 0
M  V30 73 C 7.4014 5.47158 3.17491 0
M  V30 74 C 6.0654 5.87451 3.16951 0
M  V30 75 H 5.3354 0.374614 0.639332 0
M  V30 76 H 7.9824 1.50485 1.18434 0
M  V30 77 H 6.2874 1.10166 3.75993 0
M  V30 78 H 7.9844 1.49119 3.72242 0
M  V30 79 H 4.5744 2.83263 3.21652 0
M  V30 80 H 8.7584 3.81257 3.17737 0
M  V30 81 H 4.0144 5.22579 3.17366 0
M  V30 82 H 8.1884 6.21274 3.14629 0
M  V30 83 H 5.8154 6.92329 3.13983 0
M  V30 84 N 7.3905 -1.2043 1.01659 0
M  V30 85 C 8.3205 -2.25466 0.607226 0
M  V30 86 C 9.3015 -1.65853 -0.377716 0
M  V30 87 O 10.4865 -1.92409 -0.263149 0
M  V30 88 C 7.6165 -3.47256 -0.0552949 0
M  V30 89 C 6.5705 -4.19462 0.850632 0
M  V30 90 C 5.8965 -5.34673 0.0538859 0
M  V30 91 C 7.1965 -4.75603 2.15868 0
M  V30 92 H 8.8905 -2.59962 1.48526 0
M  V30 93 H 6.4365 -1.2496 0.715605 0
M  V30 94 H 8.3895 -4.19917 -0.353233 0
M  V30 95 H 7.1135 -3.11924 -0.968045 0
M  V30 96 H 5.7725 -3.48667 1.13257 0
M  V30 97 H 5.4205 -4.95585 -0.860514 0
M  V30 98 H 5.1205 -5.83913 0.657192 0
M  V30 99 H 6.6445 -6.10138 -0.237598 0
M  V30 100 H 8.0585 -5.40083 1.92311 0
M  V30 101 H 6.4555 -5.3528 2.71284 0
M  V30 102 H 7.5255 -3.94346 2.82169 0
M  V30 103 N 8.8686 -0.792821 -1.36206 0
M  V30 104 C 9.8156 -0.191653 -2.30003 0
M  V30 105 C 10.7856 0.666453 -1.52143 0
M  V30 106 O 11.9706 0.61442 -1.80636 0
M  V30 107 C 9.1106 0.664848 -3.38635 0
M  V30 108 C 8.2236 -0.212175 -4.31479 0
M  V30 109 C 7.3586 0.651022 -5.27196 0
M  V30 110 C 6.3976 -0.227247 -6.11678 0
M  V30 111 N 5.5346 0.595127 -6.99573 0
M  V30 112 H 10.3746 -0.996978 -2.80828 0
M  V30 113 H 7.9116 -0.503206 -1.38225 0
M  V30 114 H 9.8696 1.17645 -4.00269 0
M  V30 115 H 8.4996 1.43557 -2.89122 0
M  V30 116 H 7.5516 -0.841777 -3.70969 0
M  V30 117 H 8.8636 -0.888751 -4.90818 0
M  V30 118 H 8.0176 1.2283 -5.94136 0
M  V30 119 H 6.7566 1.36121 -4.68319 0
M  V30 120 H 5.7616 -0.816904 -5.43697 0
M  V30 121 H 6.9866 -0.93509 -6.72631 0
M  V30 122 H 4.9326 1.28955 -6.432 0
M  V30 123 H 4.8496 -0.0236952 -7.55996 0
M  V30 124 H 6.1176 1.15613 -7.70879 0
M  V30 125 N 10.3467 1.47872 -0.545128 0
M  V30 126 C 11.3097 2.28337 0.198717 0
M  V30 127 C 12.3097 1.36255 0.853888 0
M  V30 128 O 13.4997 1.59003 0.711606 0
M  V30 129 C 10.6317 3.15585 1.28915 0
M  V30 130 H 11.8247 2.95567 -0.507941 0
M  V30 131 H 9.3777 1.53362 -0.301616 0
M  V30 132 H 10.1127 2.53019 2.02859 0
M  V30 133 H 9.8977 3.83337 0.824309 0
M  V30 134 H 11.3877 3.76243 1.81194 0
M  V30 135 N 11.8248 0.280983 1.55075 0
M  V30 136 C 12.7578 -0.645439 2.18882 0
M  V30 137 C 13.7358 -1.14786 1.15165 0
M  V30 138 O 14.9198 -1.21975 1.43716 0
M  V30 139 C 12.0468 -1.88088 2.81674 0
M  V30 140 C 11.0928 -1.51343 3.98745 0
M  V30 141 S 11.9258 -0.586548 5.32278 0
M  V30 142 C 13.0818 -1.83024 5.98543 0
M  V30 143 H 13.3148 -0.1033 2.9712 0
M  V30 144 H 10.8478 0.0652099 1.54262 0
M  V30 145 H 12.8058 -2.58997 3.18482 0
M  V30 146 H 11.4668 -2.39417 2.03318 0
M  V30 147 H 10.6598 -2.43289 4.41392 0
M  V30 148 H 10.2618 -0.884477 3.63391 0
M  V30 149 H 12.5538 -2.77342 6.18133 0
M  V30 150 H 13.4968 -1.44668 6.93164 0
M  V30 151 H 13.9048 -1.99785 5.27964 0
M  V30 152 N 13.3029 -1.57598 0.00835791 0
M  V30 153 C 14.2349 -2.05811 -1.00868 0
M  V30 154 C 15.2479 -0.977579 -1.30182 0
M  V30 155 O 16.4369 -1.25421 -1.27011 0
M  V30 156 C 13.5369 -2.45016 -2.34137 0
M  V30 157 C 12.7099 -3.75903 -2.23643 0
M  V30 158 C 11.7689 -4.01884 -3.3967 0
M  V30 159 O 10.7949 -4.72433 -3.17483 0
M  V30 160 N 11.9969 -3.50432 -4.62793 0
M  V30 161 H 14.7619 -2.93684 -0.597458 0
M  V30 162 H 12.3229 -1.60909 -0.178852 0
M  V30 163 H 14.3149 -2.59506 -3.10546 0
M  V30 164 H 12.8849 -1.62618 -2.66972 0
M  V30 165 H 12.1049 -3.7141 -1.32091 0
M  V30 166 H 13.3929 -4.61695 -2.13812 0
M  V30 167 H 12.7909 -2.93317 -4.83716 0
M  V30 168 H 11.3479 -3.70236 -5.3644 0
M  V30 169 N 14.781 0.264519 -1.55364 0
M  V30 170 C 15.728 1.32717 -1.88825 0
M  V30 171 C 16.698 1.48675 -0.740605 0
M  V30 172 O 17.883 1.62945 -0.992657 0
M  V30 173 C 15.023 2.68089 -2.17307 0
M  V30 174 C 14.136 2.60284 -3.44785 0
M  V30 175 C 13.271 3.87892 -3.62924 0
M  V30 176 C 12.31 3.74631 -4.84064 0
M  V30 177 N 11.447 4.94092 -4.98816 0
M  V30 178 H 16.287 1.03481 -2.79456 0
M  V30 179 H 13.824 0.499757 -1.3835 0
M  V30 180 H 15.782 3.46864 -2.31821 0
M  V30 181 H 14.412 2.95509 -1.299 0
M  V30 182 H 13.464 1.73173 -3.38697 0
M  V30 183 H 14.776 2.46388 -4.33698 0
M  V30 184 H 13.93 4.75109 -3.77302 0
M  V30 185 H 12.669 4.04664 -2.7221 0
M  V30 186 H 11.674 2.85797 -4.69681 0
M  V30 187 H 12.899 3.5937 -5.76221 0
M  V30 188 H 10.845 5.11259 -4.11036 0
M  V30 189 H 10.762 4.8276 -5.81789 0
M  V30 190 H 12.03 5.82857 -5.17588 0
M  V30 191 N 16.2591 1.48442 0.529413 0
M  V30 192 C 17.4991 1.58086 1.29569 0
M  V30 193 C 17.8631 0.249302 1.90375 0
M  V30 194 O 19.0641 0.220738 2.67892 0
M  V30 195 C 17.3351 2.68793 2.35552 0
M  V30 196 S 18.8941 2.98207 3.21898 0
M  V30 197 H 15.7121 0.557922 0.440732 0
M  V30 198 H 18.3141 1.85966 0.603059 0
M  V30 199 H 17.0181 3.64102 1.89363 0
M  V30 200 H 16.5491 2.42817 3.09522 0
M  V30 201 H 18.5641 2.37548 4.35644 0
M  V30 202 N 17.7372 -0.778329 1.37039 0
M  V30 203 C 18.9622 -1.57248 1.35233 0
M  V30 204 C 19.3872 -1.87999 -0.0615568 0
M  V30 205 O 18.7452 -1.48734 -1.03672 0
M  V30 206 C 18.7932 -2.86353 2.19167 0
M  V30 207 O 17.8972 -3.80442 1.59178 0
M  V30 208 H 17.2382 -0.476569 0.462362 0
M  V30 209 H 19.7682 -0.963853 1.80474 0
M  V30 210 H 19.7782 -3.35519 2.32145 0
M  V30 211 H 18.4532 -2.63299 3.21942 0
M  V30 212 H 17.0302 -3.39067 1.55203 0
M  V30 213 N 19.2153 -1.21501 -1.00376 0
M  V30 214 C 20.1623 -0.975387 -2.09177 0
M  V30 215 C 21.1323 0.0990615 -1.65804 0
M  V30 216 O 22.3173 -0.0483147 -1.90739 0
M  V30 217 C 19.4573 -0.547507 -3.40729 0
M  V30 218 C 18.5703 -1.69153 -3.97506 0
M  V30 219 C 17.7053 -1.2127 -5.17172 0
M  V30 220 C 16.7443 -2.32897 -5.66061 0
M  V30 221 N 15.8813 -1.86138 -6.76976 0
M  V30 222 H 20.7213 -1.9068 -2.29009 0
M  V30 223 H 18.2583 -0.950257 -1.12288 0
M  V30 224 H 20.2163 -0.280667 -4.16255 0
M  V30 225 H 18.8463 0.346904 -3.20931 0
M  V30 226 H 17.8983 -2.07298 -3.18954 0
M  V30 227 H 19.2103 -2.5316 -4.29781 0
M  V30 228 H 18.3643 -0.902591 -5.99948 0
M  V30 229 H 17.1033 -0.342692 -4.86495 0
M  V30 230 H 16.1083 -2.64709 -4.81881 0
M  V30 231 H 17.3333 -3.20396 -5.98768 0
M  V30 232 H 15.2793 -1.01484 -6.48103 0
M  V30 233 H 15.1963 -2.63717 -7.08512 0
M  V30 234 H 16.4643 -1.58165 -7.63285 0
M  V30 235 N 20.6934 1.19889 -1.02296 0
M  V30 236 C 21.6404 2.22901 -0.598651 0
M  V30 237 C 22.6104 1.61588 0.384521 0
M  V30 238 O 23.7954 1.88697 0.282522 0
M  V30 239 C 20.9354 3.45063 0.0504476 0
M  V30 240 C 20.0484 4.20783 -0.978053 0
M  V30 241 C 19.1834 5.30356 -0.299338 0
M  V30 242 C 18.2224 5.97826 -1.31416 0
M  V30 243 N 17.3594 6.98975 -0.661667 0
M  V30 244 H 22.1994 2.58554 -1.48169 0
M  V30 245 H 19.7364 1.27039 -0.741584 0
M  V30 246 H 21.6944 4.14831 0.443971 0
M  V30 247 H 20.3244 3.10084 0.897097 0
M  V30 248 H 19.3764 3.50018 -1.48969 0
M  V30 249 H 20.6884 4.67109 -1.74958 0
M  V30 250 H 19.8424 6.06516 0.149347 0
M  V30 251 H 18.5814 4.85084 0.504445 0
M  V30 252 H 17.5864 5.20422 -1.77317 0
M  V30 253 H 18.8114 6.45183 -2.11933 0
M  V30 254 H 16.7574 6.55886 0.122132 0
M  V30 255 H 16.6744 7.43461 -1.37117 0
M  V30 256 H 17.9424 7.7914 -0.236785 0
M  V30 257 N 22.1715 0.800033 1.35784 0
M  V30 258 C 23.5875 0.482977 1.52117 0
M  V30 259 C 23.7875 -0.996948 1.75109 0
M  V30 260 O 22.8435 -1.78216 1.78872 0
M  V30 261 C 24.1565 1.32264 2.70049 0
M  V30 262 C 25.7045 1.31742 2.83924 0
M  V30 263 C 26.1795 2.14106 4.04874 0
M  V30 264 N 27.6705 2.11607 4.12039 0
M  V30 265 C 28.4055 2.72099 5.04727 0
M  V30 266 N 27.9015 3.41492 6.02789 0
M  V30 267 N 29.6945 2.61776 4.97423 0
M  V30 268 H 21.8455 1.75856 1.19115 0
M  V30 269 H 24.1085 0.748122 0.582252 0
M  V30 270 H 23.8145 2.37261 2.59616 0
M  V30 271 H 23.6885 0.971303 3.6448 0
M  V30 272 H 26.0755 0.275333 2.93813 0
M  V30 273 H 26.1565 1.70859 1.9037 0
M  V30 274 H 25.8005 3.18351 3.95746 0
M  V30 275 H 25.7305 1.72353 4.97596 0
M  V30 276 H 28.2215 1.61112 3.41835 0
M  V30 277 H 28.5345 3.84953 6.70098 0
M  V30 278 H 26.8795 3.45596 6.02983 0
M  V30 279 H 30.0705 2.07157 4.19766 0
M  V30 280 H 30.2435 3.0921 5.69468 0
M  V30 281 N 23.6496 -1.47581 0.552962 0
M  V30 282 C 24.5596 -2.33743 -0.200353 0
M  V30 283 C 25.5756 -1.47928 -0.916151 0
M  V30 284 O 26.7516 -1.80865 -0.885993 0
M  V30 285 C 23.8166 -3.24536 -1.21973 0
M  V30 286 C 22.8776 -4.26238 -0.511819 0
M  V30 287 C 22.1106 -5.12693 -1.48263 0
M  V30 288 O 22.3336 -5.01525 -2.71714 0
M  V30 289 O 21.2676 -5.93375 -1.00945 0
M  V30 290 H 25.0936 -2.9945 0.506304 0
M  V30 291 H 22.6786 -1.46071 0.313622 0
M  V30 292 H 24.5606 -3.80631 -1.80827 0
M  V30 293 H 23.2356 -2.61462 -1.90839 0
M  V30 294 H 22.1426 -3.73914 0.117799 0
M  V30 295 H 23.4756 -4.92014 0.135308 0
M  V30 296 N 25.1277 -0.289203 -1.54924 0
M  V30 297 C 26.0907 0.579144 -2.21762 0
M  V30 298 C 27.0907 1.07047 -1.1999 0
M  V30 299 O 28.2807 0.968384 -1.44803 0
M  V30 300 C 25.4127 1.80055 -2.8947 0
M  V30 301 H 26.6057 -0.00464908 -2.999 0
M  V30 302 H 24.1587 -0.0399306 -1.56249 0
M  V30 303 H 24.8937 2.42449 -2.15381 0
M  V30 304 H 24.6787 1.45602 -3.64064 0
M  V30 305 H 26.1687 2.41773 -3.40493 0
M  V30 306 N 26.6058 1.57591 -0.0167156 0
M  V30 307 C 28.0218 1.55946 0.339557 0
M  V30 308 C 28.2218 1.02109 1.73713 0
M  V30 309 O 27.2778 0.662303 2.43659 0
M  V30 310 C 28.5908 3.00037 0.199499 0
M  V30 311 C 30.1388 3.11805 0.273193 0
M  V30 312 C 30.6138 4.57713 0.162068 0
M  V30 313 N 32.1048 4.6268 0.219444 0
M  V30 314 C 32.8398 5.73185 0.157054 0
M  V30 315 N 32.3358 6.92786 0.0442936 0
M  V30 316 N 34.1288 5.61707 0.21014 0
M  V30 317 H 26.2798 1.90921 -0.930758 0
M  V30 318 H 28.5428 0.877674 -0.358319 0
M  V30 319 H 28.2488 3.4333 -0.76273 0
M  V30 320 H 28.1228 3.64387 0.974786 0
M  V30 321 H 30.5098 2.68433 1.22587 0
M  V30 322 H 30.5908 2.50201 -0.532256 0
M  V30 323 H 30.2348 5.01763 -0.78714 0
M  V30 324 H 30.1648 5.17283 0.986222 0
M  V30 325 H 32.6558 3.76649 0.307246 0
M  V30 326 H 32.9688 7.728 0.00304069 0
M  V30 327 H 31.3138 6.94999 0.00968457 0
M  V30 328 H 34.5048 4.6716 0.296546 0
M  V30 329 H 34.6778 6.47807 0.158054 0
M  V30 330 N 28.0839 -0.256276 1.55502 0
M  V30 331 C 29.3319 -0.983672 1.76545 0
M  V30 332 C 29.6529 -1.86206 0.578982 0
M  V30 333 O 28.9229 -1.91656 -0.405577 0
M  V30 334 H 27.5029 -0.366191 0.651086 0
M  V30 335 H 30.1649 -0.276479 1.92929 0
M  V30 336 H 29.2609 -1.61087 2.67315 0
M  V30 337 N 29.562 -1.4872 -0.521534 0
M  V30 338 C 30.787 -1.61101 -1.30618 0
M  V30 339 C 31.212 -0.274611 -1.86085 0
M  V30 340 O 30.57 0.754937 -1.64834 0
M  V30 341 C 30.618 -2.66709 -2.4269 0
M  V30 342 O 29.722 -2.24456 -3.45967 0
M  V30 343 H 29.063 -0.539921 -0.386499 0
M  V30 344 H 31.593 -1.94767 -0.626645 0
M  V30 345 H 31.603 -2.88245 -2.88754 0
M  V30 346 H 30.278 -3.63727 -2.01682 0
M  V30 347 H 28.855 -2.13168 -3.05964 0
M  V30 348 N 31.0401 0.771051 -1.3745 0
M  V30 349 C 32.4561 1.07171 -1.18265 0
M  V30 350 C 32.6561 2.01491 -0.019287 0
M  V30 351 O 31.7121 2.44244 0.640408 0
M  V30 352 C 33.0251 1.66854 -2.50161 0
M  V30 353 C 34.5731 1.79109 -2.56689 0
M  V30 354 C 35.0481 2.42205 -3.88717 0
M  V30 355 N 36.5391 2.49655 -3.90162 0
M  V30 356 C 37.2741 2.9933 -4.8907 0
M  V30 357 N 36.7701 3.49172 -5.98374 0
M  V30 358 N 38.5631 2.9821 -4.76474 0
M  V30 359 H 30.7141 0.144796 -2.11906 0
M  V30 360 H 32.9771 0.126863 -0.939473 0
M  V30 361 H 32.6831 1.05017 -3.35655 0
M  V30 362 H 32.5571 2.6614 -2.673 0
M  V30 363 H 34.9441 2.40077 -1.71601 0
M  V30 364 H 35.0251 0.785757 -2.43433 0
M  V30 365 H 34.6691 1.81875 -4.74219 0
M  V30 366 H 34.5991 3.43345 -3.99276 0
M  V30 367 H 37.0901 2.14383 -3.11205 0
M  V30 368 H 37.4031 3.8548 -6.69795 0
M  V30 369 H 35.7481 3.47275 -6.02018 0
M  V30 370 H 38.9391 2.58572 -3.90203 0
M  V30 371 H 39.1121 3.36613 -5.53711 0
M  V30 372 N 32.5182 1.22032 0.997298 0
M  V30 373 C 33.4282 1.00271 2.12092 0
M  V30 374 C 34.4442 -0.047621 1.73935 0
M  V30 375 O 35.6202 0.144136 2.00884 0
M  V30 376 C 32.6852 0.578449 3.4184 0
M  V30 377 C 31.7462 1.70189 3.94125 0
M  V30 378 C 30.9792 1.29778 5.17681 0
M  V30 379 O 31.2022 0.174676 5.70132 0
M  V30 380 O 30.1362 2.11261 5.63607 0
M  V30 381 H 33.9622 1.94398 2.3333 0
M  V30 382 H 31.5472 1.00587 1.10465 0
M  V30 383 H 33.4292 0.351998 4.19927 0
M  V30 384 H 32.1042 -0.334019 3.21972 0
M  V30 385 H 31.0112 1.98282 3.1723 0
M  V30 386 H 32.3442 2.59206 4.18417 0
M  V30 387 N 33.9963 -1.19345 1.0293 0
M  V30 388 C 34.9593 -2.20793 0.615069 0
M  V30 389 C 35.9593 -1.57553 -0.321533 0
M  V30 390 O 37.1493 -1.73862 -0.108483 0
M  V30 391 C 34.2813 -3.40754 -0.0999222 0
M  V30 392 H 35.4743 -2.58955 1.51269 0
M  V30 393 H 33.0273 -1.3303 0.820534 0
M  V30 394 H 33.7623 -3.0811 -1.01187 0
M  V30 395 H 33.5473 -3.87889 0.57309 0
M  V30 396 H 35.0373 -4.15898 -0.376645 0
M  V30 397 N 35.4744 -0.807222 -1.35358 0
M  V30 398 C 36.8854 -0.44876 -1.81226 0
M  V30 399 C 37.2364 1.02929 -1.67033 0
M  V30 400 O 36.3614 1.79991 -1.20133 0
M  V30 401 C 36.9564 -0.807774 -3.2903 0
M  V30 402 C 35.5154 -0.501901 -3.73039 0
M  V30 403 C 34.6624 -1.03304 -2.57339 0
M  V30 404 H 37.6134 -0.998808 -1.23327 0
M  V30 405 H 37.6344 -0.10554 -3.80354 0
M  V30 406 H 37.1464 -1.88357 -3.39328 0
M  V30 407 H 35.2474 0.565128 -3.68289 0
M  V30 408 H 35.3604 -1.03497 -4.67787 0
M  V30 409 H 33.7244 -0.455339 -2.50597 0
M  V30 410 H 34.5074 -2.11496 -2.70415 0
M  V30 411 N 36.9525 1.47285 -0.560781 0
M  V30 412 C 37.8625 2.33846 0.187954 0
M  V30 413 C 38.8785 1.48412 0.908293 0
M  V30 414 O 40.0545 1.81332 0.876388 0
M  V30 415 C 37.1195 3.25178 1.2025 0
M  V30 416 C 36.1805 4.26504 0.489208 0
M  V30 417 C 35.4135 5.13472 1.45542 0
M  V30 418 O 35.6365 5.02959 2.6905 0
M  V30 419 O 34.5705 5.93902 0.977963 0
M  V30 420 H 38.3965 2.99177 -0.522177 0
M  V30 421 H 35.9815 1.45903 -0.321364 0
M  V30 422 H 37.8635 3.81584 1.78805 0
M  V30 423 H 36.5385 2.6247 1.89449 0
M  V30 424 H 35.4455 3.73847 -0.137627 0
M  V30 425 H 36.7785 4.91935 -0.161399 0
M  V30 426 N 38.4306 0.297415 1.54768 0
M  V30 427 C 39.6586 -0.315623 2.04478 0
M  V30 428 C 40.0736 -1.47792 1.17486 0
M  V30 429 O 39.4306 -1.81404 0.19971 0
M  V30 430 C 39.4816 -0.7753 3.53088 0
M  V30 431 O 39.2026 0.340732 4.36773 0
M  V30 432 C 40.7036 -1.45386 4.18781 0
M  V30 433 H 37.9236 -0.0690887 0.667434 0
M  V30 434 H 40.4676 0.436003 1.99798 0
M  V30 435 H 38.6226 -1.47696 3.58141 0
M  V30 436 H 39.0366 -0.0165035 5.24497 0
M  V30 437 H 40.5106 -1.72669 5.24299 0
M  V30 438 H 40.9876 -2.39275 3.68299 0
M  V30 439 H 41.5936 -0.795475 4.17795 0
M  V30 440 N 39.9087 -1.5758 0.0250728 0
M  V30 441 C 40.8567 -2.11125 -0.97617 0
M  V30 442 C 41.8507 -1.03689 -1.33959 0
M  V30 443 O 43.0567 -1.22128 -1.3223 0
M  V30 444 H 39.4317 -0.674468 -0.332561 0
M  V30 445 H 41.4027 -2.94194 -0.499223 0
M  V30 446 C 40.1517 -2.65017 -2.2508 0
M  V30 447 H 39.4747 -3.47333 -1.9799 0
M  V30 448 H 40.9147 -3.06133 -2.93357 0
M  V30 449 C 39.3737 -1.57574 -2.97779 0
M  V30 450 O 39.9037 -0.973203 -3.89733 0
M  V30 451 N 38.1097 -1.29716 -2.60043 0
M  V30 452 H 37.6567 -1.789 -1.85345 0
M  V30 453 H 37.6147 -0.58051 -3.08994 0
M  V30 454 N 41.3868 0.248026 -1.55636 0
M  V30 455 C 42.6338 0.976224 -1.77415 0
M  V30 456 C 42.9618 1.85361 -0.589193 0
M  V30 457 O 42.2168 1.90973 0.427529 0
M  V30 458 C 42.5158 1.86819 -3.04686 0
M  V30 459 C 42.1818 1.14625 -4.36087 0
M  V30 460 C 40.8438 0.946723 -4.71795 0
M  V30 461 C 43.1958 0.634463 -5.17324 0
M  V30 462 C 40.5238 0.223091 -5.86276 0
M  V30 463 C 42.8758 -0.0756959 -6.32555 0
M  V30 464 C 41.5398 -0.286711 -6.66884 0
M  V30 465 H 40.8098 0.357226 -0.649208 0
M  V30 466 H 43.4568 0.246415 -1.89908 0
M  V30 467 H 41.7618 2.66502 -2.872 0
M  V30 468 H 43.4588 2.43329 -3.18735 0
M  V30 469 H 40.0488 1.3117 -4.08035 0
M  V30 470 H 44.2328 0.77616 -4.90193 0
M  V30 471 H 39.4888 0.0491185 -6.1138 0
M  V30 472 H 43.6628 -0.479899 -6.94745 0
M  V30 473 H 41.2898 -0.849389 -7.5544 0
M  V30 474 N 42.8649 1.48995 0.513639 0
M  V30 475 C 44.2759 1.5119 1.09537 0
M  V30 476 C 44.6269 0.290906 1.94031 0
M  V30 477 O 43.7519 -0.60049 2.07902 0
M  V30 478 C 44.3469 2.73964 1.99322 0
M  V30 479 C 42.9059 2.78978 2.52682 0
M  V30 480 C 42.0529 2.44934 1.30009 0
M  V30 481 H 45.0039 1.55875 0.298125 0
M  V30 482 H 45.0249 2.53409 2.83838 0
M  V30 483 H 44.5369 3.62813 1.37799 0
M  V30 484 H 42.6379 1.94378 3.1788 0
M  V30 485 H 42.7509 3.8083 2.90698 0
M  V30 486 H 41.1149 1.9644 1.62122 0
M  V30 487 H 41.8979 3.36043 0.702131 0
M  V30 488 N 44.343 -0.763751 1.37857 0
M  V30 489 C 45.62 -1.51244 1.24035 0
M  V30 490 C 46 -2.10472 -0.162649 0
M  V30 491 O 45.348 -1.96206 -1.17112 0
M  V30 492 C 45.558 -2.58694 2.34261 0
M  V30 493 C 46.906 -3.25878 2.72193 0
M  V30 494 O 47.93 -2.68993 2.33497 0
M  V30 495 O 46.789 -4.2874 3.38887 0
M  V30 496 H 43.883 -0.670243 0.484462 0
M  V30 497 H 46.429 -0.800031 1.49658 0
M  V30 498 H 45.201 -2.13105 3.2818 0
M  V30 499 H 44.824 -3.37527 2.10146 0
M  V30 500 N 45.8211 -1.22559 -0.990812 0
M  V30 501 C 47.0491 -1.07779 -1.76611 0
M  V30 502 C 47.4641 0.371513 -1.85109 0
M  V30 503 O 46.8211 1.25737 -1.32274 0
M  V30 504 C 46.8721 -1.68512 -3.19822 0
M  V30 505 O 46.5931 -3.07774 -3.1178 0
M  V30 506 C 48.0941 -1.59035 -4.13791 0
M  V30 507 H 45.3141 -0.377729 -0.554583 0
M  V30 508 H 47.8581 -1.62195 -1.24551 0
M  V30 509 H 46.0131 -1.18154 -3.68942 0
M  V30 510 H 46.4271 -3.37062 -4.01858 0
M  V30 511 H 47.9011 -2.0625 -5.1202 0
M  V30 512 H 48.3781 -0.547273 -4.35777 0
M  V30 513 H 48.9841 -2.08709 -3.70568 0
M  V30 514 N 47.2992 1.18797 -1.03562 0
M  V30 515 C 48.5272 1.92599 -0.755869 0
M  V30 516 C 48.9422 1.75886 0.686271 0
M  V30 517 O 48.2992 1.08517 1.46732 0
M  V30 518 C 48.3502 3.44159 -1.10619 0
M  V30 519 O 48.0712 3.60341 -2.4917 0
M  V30 520 C 49.5722 4.3507 -0.850214 0
M  V30 521 H 46.7922 0.611587 -0.276048 0
M  V30 522 H 49.3362 1.50742 -1.38192 0
M  V30 523 H 47.4912 3.83823 -0.525194 0
M  V30 524 H 47.9052 4.54128 -2.62427 0
M  V30 525 H 49.3792 5.39989 -1.14523 0
M  V30 526 H 49.8562 4.38673 0.215176 0
M  V30 527 H 50.4622 4.01097 -1.41426 0
M  V30 528 N 48.7773 0.814389 1.34928 0
M  V30 529 C 49.6873 0.231978 2.3345 0
M  V30 530 C 50.7033 -0.629139 1.62228 0
M  V30 531 O 51.8793 -0.539052 1.94052 0
M  V30 532 C 48.9443 -0.603482 3.41407 0
M  V30 533 C 48.0053 0.279037 4.28392 0
M  V30 534 C 47.2383 -0.516643 5.31193 0
M  V30 535 O 47.4613 -1.75068 5.4287 0
M  V30 536 O 46.3953 0.0965652 6.01823 0
M  V30 537 H 50.2213 1.04721 2.85074 0
M  V30 538 H 47.8063 0.576343 1.37836 0
M  V30 539 H 49.6883 -1.07908 4.0735 0
M  V30 540 H 48.3633 -1.39618 2.92042 0
M  V30 541 H 47.2703 0.801948 3.65403 0
M  V30 542 H 48.6033 1.03588 4.81176 0
M  V30 543 N 50.2554 -1.46986 0.568584 0
M  V30 544 C 51.1654 -2.33942 -0.17555 0
M  V30 545 C 52.1814 -1.48891 -0.90041 0
M  V30 546 O 53.3574 -1.81794 -0.86676 0
M  V30 547 C 50.4224 -3.25811 -1.18524 0
M  V30 548 C 49.4834 -4.26757 -0.466582 0
M  V30 549 C 48.7164 -5.14236 -1.42817 0
M  V30 550 O 48.9394 -5.04379 -2.66379 0
M  V30 551 O 47.8734 -5.94412 -0.946453 0
M  V30 552 H 51.6994 -2.98896 0.538036 0
M  V30 553 H 49.2844 -1.4573 0.329097 0
M  V30 554 H 51.1664 -3.82527 -1.76779 0
M  V30 555 H 49.8414 -2.63471 -1.88055 0
M  V30 556 H 48.7484 -3.73769 0.157451 0
M  V30 557 H 50.0814 -4.91843 0.187485 0
M  V30 558 N 51.7335 -0.305618 -1.54608 0
M  V30 559 C 52.9585 0.307562 -2.05107 0
M  V30 560 C 53.3835 1.46385 -1.18123 0
M  V30 561 O 52.7415 1.8034 -0.186324 0
M  V30 562 C 52.7895 0.73704 -3.52987 0
M  V30 563 O 51.8935 1.84134 -3.6901 0
M  V30 564 H 51.2345 0.0589143 -0.661381 0
M  V30 565 H 53.7645 -0.448807 -1.99617 0
M  V30 566 H 53.7745 1.02459 -3.94925 0
M  V30 567 H 52.4495 -0.108773 -4.15758 0
M  V30 568 H 51.0265 1.55398 -3.38978 0
M  V30 569 N 53.2116 1.57565 -0.0334293 0
M  V30 570 C 54.1746 2.09393 0.932048 0
M  V30 571 C 55.1746 1.00986 1.25134 0
M  V30 572 O 56.3646 1.27129 1.19096 0
M  V30 573 C 53.4966 2.56338 2.2473 0
M  V30 574 H 54.6896 2.95984 0.483085 0
M  V30 575 H 52.2426 1.54819 0.21468 0
M  V30 576 H 52.9776 1.7309 2.74245 0
M  V30 577 H 52.7626 3.35542 2.02865 0
M  V30 578 H 54.2526 2.96646 2.93923 0
M  V30 579 N 54.6897 -0.239769 1.55765 0
M  V30 580 C 55.6217 -1.32001 1.87372 0
M  V30 581 C 56.6347 -1.43944 0.760522 0
M  V30 582 O 57.8237 -1.45167 1.0387 0
M  V30 583 C 54.9237 -2.69779 2.05115 0
M  V30 584 C 54.0967 -2.80014 3.36022 0
M  V30 585 C 53.1557 -3.98684 3.4342 0
M  V30 586 O 52.1817 -3.87877 4.16582 0
M  V30 587 N 53.3837 -5.12176 2.73232 0
M  V30 588 H 56.1487 -1.0522 2.80622 0
M  V30 589 H 53.7097 -0.429857 1.56089 0
M  V30 590 H 55.7017 -3.47517 2.07399 0
M  V30 591 H 54.2717 -2.89237 1.18577 0
M  V30 592 H 53.4917 -1.88896 3.45994 0
M  V30 593 H 54.7797 -2.83808 4.22292 0
M  V30 594 H 54.1777 -5.2385 2.13536 0
M  V30 595 H 52.7347 -5.88022 2.81199 0
M  V30 596 N 56.1678 -1.49265 -0.50573 0
M  V30 597 C 57.0998 -1.617 -1.62437 0
M  V30 598 C 58.1128 -0.499924 -1.54934 0
M  V30 599 O 59.3018 -0.771785 -1.60953 0
M  V30 600 C 56.4018 -1.5533 -3.01207 0
M  V30 601 C 55.5748 -2.8249 -3.33943 0
M  V30 602 C 54.6338 -2.69238 -4.52103 0
M  V30 603 O 53.6598 -3.43167 -4.5412 0
M  V30 604 N 54.8618 -1.80468 -5.51735 0
M  V30 605 H 57.6268 -2.58177 -1.52199 0
M  V30 606 H 55.1878 -1.46294 -0.693511 0
M  V30 607 H 57.1798 -1.44125 -3.78167 0
M  V30 608 H 55.7498 -0.667297 -3.05395 0
M  V30 609 H 54.9698 -3.08081 -2.45926 0
M  V30 610 H 56.2578 -3.66802 -3.5261 0
M  V30 611 H 55.6558 -1.19653 -5.52901 0
M  V30 612 H 54.2128 -1.75188 -6.27816 0
M  V30 613 N 57.6459 0.756429 -1.3826 0
M  V30 614 C 58.8949 1.51082 -1.3363 0
M  V30 615 C 59.2079 1.95467 0.0720068 0
M  V30 616 O 60.4139 2.7043 0.240834 0
M  V30 617 C 58.8699 2.72893 -2.34644 0
M  V30 618 C 58.4779 2.35544 -3.81081 0
M  V30 619 C 60.2219 3.50791 -2.39052 0
M  V30 620 C 58.1289 3.53948 -4.73787 0
M  V30 621 H 57.0589 0.56727 -0.49671 0
M  V30 622 H 59.7099 0.827147 -1.638 0
M  V30 623 H 58.0919 3.43227 -1.97513 0
M  V30 624 H 59.2659 1.72894 -4.27135 0
M  V30 625 H 57.5809 1.70786 -3.79764 0
M  V30 626 H 60.1779 4.38823 -3.05513 0
M  V30 627 H 60.5209 3.91745 -1.40861 0
M  V30 628 H 61.0539 2.87467 -2.74968 0
M  V30 629 H 57.7929 3.18064 -5.73163 0
M  V30 630 H 57.3129 4.15651 -4.32428 0
M  V30 631 H 58.9919 4.20566 -4.91663 0
M  V30 632 N 59.124 1.23083 0.984299 0
M  V30 633 C 60.364 1.07226 1.74017 0
M  V30 634 C 60.728 -0.384766 1.88105 0
M  V30 635 O 61.929 -0.664411 2.60459 0
M  V30 636 C 60.2 1.77348 3.10294 0
M  V30 637 S 61.759 1.77014 4.01512 0
M  V30 638 H 58.577 0.383819 0.598502 0
M  V30 639 H 61.179 1.56158 1.17622 0
M  V30 640 H 59.883 2.82506 2.97689 0
M  V30 641 H 59.414 1.28682 3.71759 0
M  V30 642 H 61.429 0.825956 4.89277 0
M  V30 643 N 60.6021 -1.18246 1.0419 0
M  V30 644 C 61.8421 -1.89948 0.754916 0
M  V30 645 C 62.2061 -1.78608 -0.70451 0
M  V30 646 O 63.4071 -2.4503 -1.10516 0
M  V30 647 C 61.6781 -3.36305 1.20969 0
M  V30 648 S 63.2371 -4.26088 1.04854 0
M  V30 649 H 60.0551 -0.655897 0.274446 0
M  V30 650 H 62.6571 -1.42873 1.33445 0
M  V30 651 H 61.3611 -3.42089 2.26722 0
M  V30 652 H 60.8921 -3.8842 0.624004 0
M  V30 653 H 62.9071 -4.96189 -0.0332896 0
M  V30 654 N 62.0802 -0.821533 -1.34494 0
M  V30 655 C 63.3082 -0.421884 -2.02553 0
M  V30 656 C 63.7232 0.971745 -1.61872 0
M  V30 657 O 63.0802 1.62864 -0.823496 0
M  V30 658 C 63.1312 -0.51285 -3.57844 0
M  V30 659 O 62.8522 -1.85155 -3.97051 0
M  V30 660 C 64.3532 -0.107921 -4.43169 0
M  V30 661 H 61.5732 -0.169482 -0.649243 0
M  V30 662 H 64.1172 -1.1093 -1.71798 0
M  V30 663 H 62.2722 0.126474 -3.87193 0
M  V30 664 H 62.6862 -1.82482 -4.91732 0
M  V30 665 H 64.1602 -0.222657 -5.51551 0
M  V30 666 H 64.6372 0.948401 -4.28838 0
M  V30 667 H 65.2432 -0.720989 -4.19144 0
M  V30 668 N 63.5583 1.46682 -0.576371 0
M  V30 669 C 64.9743 1.57822 -0.237562 0
M  V30 670 C 65.1743 1.57237 1.26011 0
M  V30 671 O 64.2303 1.48596 2.04146 0
M  V30 672 C 65.5433 2.87499 -0.881168 0
M  V30 673 C 67.0913 3.01119 -0.85417 0
M  V30 674 C 67.5663 4.33524 -1.4772 0
M  V30 675 N 69.0573 4.40207 -1.44125 0
M  V30 676 C 69.7923 5.4126 -1.89276 0
M  V30 677 N 69.2883 6.49021 -2.42371 0
M  V30 678 N 71.0813 5.32422 -1.80231 0
M  V30 679 H 63.2323 1.45306 -1.54919 0
M  V30 680 H 65.4953 0.692733 -0.647167 0
M  V30 681 H 65.2013 2.9372 -1.93447 0
M  V30 682 H 65.0753 3.75224 -0.385592 0
M  V30 683 H 67.4623 2.94485 0.190491 0
M  V30 684 H 67.5433 2.14887 -1.3877 0
M  V30 685 H 67.1873 4.40916 -2.52103 0
M  V30 686 H 67.1173 5.1852 -0.918947 0
M  V30 687 H 69.6083 3.62931 -1.05307 0
M  V30 688 H 69.9213 7.2233 -2.74698 0
M  V30 689 H 68.2663 6.49858 -2.46393 0
M  V30 690 H 71.4573 4.47137 -1.38514 0
M  V30 691 H 71.6303 6.11034 -2.15735 0
M  V30 692 N 65.0364 0.313813 1.54444 0
M  V30 693 C 66.3134 -0.345447 1.92525 0
M  V30 694 C 66.6934 -1.70667 1.24242 0
M  V30 695 O 66.0414 -2.25273 0.382654 0
M  V30 696 C 66.2514 -0.44737 3.46121 0
M  V30 697 C 67.5994 -0.712238 4.18584 0
M  V30 698 O 68.6234 -0.530678 3.52225 0
M  V30 699 O 67.4824 -1.06183 5.36085 0
M  V30 700 H 64.5764 -0.195407 0.803583 0
M  V30 701 H 67.1224 0.362813 1.65776 0
M  V30 702 H 65.8944 0.509043 3.87975 0
M  V30 703 H 65.5174 -1.20359 3.78945 0
M  V30 704 N 66.5145 -1.57545 0.0417849 0
M  V30 705 C 67.7395 -1.97035 -0.647455 0
M  V30 706 C 68.1645 -0.918775 -1.64135 0
M  V30 707 O 67.5225 0.119006 -1.80909 0
M  V30 708 C 67.5705 -3.35609 -1.31905 0
M  V30 709 O 66.6745 -3.3287 -2.43457 0
M  V30 710 H 66.0155 -0.64211 -0.169086 0
M  V30 711 H 68.5455 -2.04318 0.107399 0
M  V30 712 H 68.5555 -3.72126 -1.67291 0
M  V30 713 H 67.2305 -4.11685 -0.590586 0
M  V30 714 H 65.8075 -3.08087 -2.10088 0
M  V30 715 N 67.9926 0.231505 -1.5589 0
M  V30 716 C 69.2176 0.978689 -1.82856 0
M  V30 717 C 69.6426 1.77559 -0.620846 0
M  V30 718 O 69.0006 1.76119 0.430305 0
M  V30 719 C 69.0486 1.87997 -3.07716 0
M  V30 720 O 68.1526 2.97393 -2.85712 0
M  V30 721 H 67.4936 0.277663 -0.603158 0
M  V30 722 H 70.0236 0.24783 -2.03093 0
M  V30 723 H 70.0336 2.2917 -3.37558 0
M  V30 724 H 68.7086 1.29417 -3.95252 0
M  V30 725 H 67.2856 2.60238 -2.67078 0
M  V30 726 N 69.4707 1.49531 0.497807 0
M  V30 727 C 70.7477 1.49682 1.25915 0
M  V30 728 C 71.1277 0.226339 2.09883 0
M  V30 729 O 70.4757 -0.791189 2.14365 0
M  V30 730 C 70.6857 2.77755 2.11313 0
M  V30 731 C 72.0337 3.27371 2.70395 0
M  V30 732 O 73.0577 2.78894 2.21578 0
M  V30 733 O 71.9167 4.11808 3.59272 0
M  V30 734 H 69.0107 0.599228 0.56996 0
M  V30 735 H 71.5567 1.61798 0.511816 0
M  V30 736 H 70.3287 3.61713 1.49264 0
M  V30 737 H 69.9517 2.68515 2.93233 0
M  V30 738 N 70.9488 -0.749086 1.3866 0
M  V30 739 C 72.1738 -1.54344 1.38538 0
M  V30 740 C 72.5988 -1.88088 -0.0216655 0
M  V30 741 O 71.9568 -1.50899 -1.00494 0
M  V30 742 C 72.0048 -2.8164 2.25192 0
M  V30 743 O 71.1088 -3.7698 1.67212 0
M  V30 744 H 70.4498 -0.466654 0.472367 0
M  V30 745 H 72.9798 -0.925355 1.82478 0
M  V30 746 H 72.9898 -3.30519 2.3921 0
M  V30 747 H 71.6648 -2.56411 3.27454 0
M  V30 748 H 70.2418 -3.35699 1.6236 0
M  V30 749 N 72.4269 -1.23603 -0.977757 0
M  V30 750 C 73.3739 -1.01954 -2.07061 0
M  V30 751 C 74.3439 0.0638697 -1.65977 0
M  V30 752 O 75.5289 -0.0887624 -1.90593 0
M  V30 753 C 72.6689 -0.619658 -3.39491 0
M  V30 754 C 71.7819 -1.77547 -3.93829 0
M  V30 755 C 70.9169 -1.32212 -5.14484 0
M  V30 756 C 69.9559 -2.44852 -5.60994 0
M  V30 757 N 69.0929 -2.00456 -6.72876 0
M  V30 758 H 73.9329 -1.95495 -2.24913 0
M  V30 759 H 71.4699 -0.973861 -1.10247 0
M  V30 760 H 73.4279 -0.368898 -4.15566 0
M  V30 761 H 72.0579 0.278752 -3.21594 0
M  V30 762 H 71.1099 -2.14016 -3.14486 0
M  V30 763 H 72.4219 -2.62219 -4.24314 0
M  V30 764 H 71.5759 -1.02965 -5.97899 0
M  V30 765 H 70.3149 -0.445808 -4.85658 0
M  V30 766 H 69.3199 -2.74871 -4.76157 0
M  V30 767 H 70.5449 -3.33024 -5.91837 0
M  V30 768 H 68.4909 -1.15208 -6.45804 0
M  V30 769 H 68.4079 -2.78687 -7.02759 0
M  V30 770 H 69.6759 -1.7432 -7.59758 0
M  V30 771 N 73.905 1.17692 -1.04816 0
M  V30 772 C 75.13 1.92327 -0.776207 0
M  V30 773 C 75.555 1.76082 0.661581 0
M  V30 774 O 74.913 1.076 1.45917 0
M  V30 775 C 74.961 3.41539 -1.15687 0
M  V30 776 O 74.065 4.11402 -0.286775 0
M  V30 777 H 73.406 0.599735 -0.284981 0
M  V30 778 H 75.936 1.49201 -1.4 0
M  V30 779 H 75.946 3.92269 -1.12202 0
M  V30 780 H 74.621 3.52684 -2.20425 0
M  V30 781 H 73.198 3.70939 -0.381903 0
M  V30 782 N 75.3831 0.828654 1.34056 0
M  V30 783 C 76.6291 0.42008 1.98402 0
M  V30 784 C 76.9621 -1.01564 1.65525 0
M  V30 785 O 76.2371 -1.70834 0.929831 0
M  V30 786 C 76.5201 0.62927 3.54559 0
M  V30 787 C 76.3731 2.11152 3.97159 0
M  V30 788 C 77.6921 0.0688756 4.40046 0
M  V30 789 H 74.8111 0.154104 0.720709 0
M  V30 790 H 77.4531 1.04228 1.5886 0
M  V30 791 H 75.6031 0.0996418 3.88372 0
M  V30 792 H 77.2751 2.70522 3.73651 0
M  V30 793 H 75.5181 2.59985 3.47261 0
M  V30 794 H 76.1891 2.20868 5.05887 0
M  V30 795 H 78.6651 0.521458 4.1282 0
M  V30 796 H 77.5411 0.245006 5.48353 0
M  V30 797 H 77.8021 -1.0266 4.30015 0
M  V30 798 N 76.8612 -1.46375 0.584142 0
M  V30 799 C 78.2722 -1.86031 0.157959 0
M  V30 800 C 78.6232 -1.48753 -1.27933 0
M  V30 801 O 77.7482 -0.903098 -1.96655 0
M  V30 802 C 78.3432 -3.37642 0.279892 0
M  V30 803 C 76.9022 -3.76289 -0.09143 0
M  V30 804 C 76.0492 -2.7039 0.615178 0
M  V30 805 H 79.0002 -1.37509 0.792274 0
M  V30 806 H 79.0212 -3.77275 -0.494364 0
M  V30 807 H 78.5332 -3.64742 1.32607 0
M  V30 808 H 76.6342 -3.54806 -1.13769 0
M  V30 809 H 76.7472 -4.78246 0.285886 0
M  V30 810 H 75.1112 -2.5464 0.0552833 0
M  V30 811 H 75.8942 -3.0033 1.66303 0
M  V30 812 N 78.3393 -0.321999 -1.54275 0
M  V30 813 C 79.7553 0.0306999 -1.5957 0
M  V30 814 C 79.9553 1.50614 -1.33857 0
M  V30 815 O 79.0113 2.2619 -1.12223 0
M  V30 816 C 80.3243 -0.386122 -2.98211 0
M  V30 817 C 81.8723 -0.336647 -3.11184 0
M  V30 818 C 82.3473 -0.728607 -4.52167 0
M  V30 819 N 83.8383 -0.681952 -4.58152 0
M  V30 820 C 84.5733 -0.957449 -5.6535 0
M  V30 821 N 84.0693 -1.3 -6.80494 0
M  V30 822 N 85.8623 -0.883113 -5.55119 0
M  V30 823 H 78.0133 -1.28332 -1.69247 0
M  V30 824 H 80.2763 -0.521716 -0.791528 0
M  V30 825 H 79.9823 -1.41404 -3.22022 0
M  V30 826 H 79.8563 0.249662 -3.76373 0
M  V30 827 H 82.2433 0.682058 -2.8711 0
M  V30 828 H 82.3243 -1.00734 -2.3513 0
M  V30 829 H 81.9683 -1.74522 -4.76974 0
M  V30 830 H 81.8983 -0.0356152 -5.26588 0
M  V30 831 H 84.3893 -0.428985 -3.75457 0
M  V30 832 H 84.7023 -1.49563 -7.58189 0
M  V30 833 H 83.0473 -1.33824 -6.81994 0
M  V30 834 H 86.2383 -0.615001 -4.64042 0
M  V30 835 H 86.4113 -1.10118 -6.38575 0
M  V30 836 N 79.8174 1.5752 -0.0501392 0
M  V30 837 C 81.0424 1.97376 0.636997 0
M  V30 838 C 81.4674 0.927466 1.63645 0
M  V30 839 O 80.8254 -0.10941 1.8097 0
M  V30 840 C 80.8734 3.36304 1.30123 0
M  V30 841 O 79.9774 3.34156 2.41689 0
M  V30 842 H 79.3184 0.642998 0.165679 0
M  V30 843 H 81.8484 2.04258 -0.118233 0
M  V30 844 H 81.8584 3.73008 1.65315 0
M  V30 845 H 80.5334 4.11993 0.568746 0
M  V30 846 H 79.1104 3.09196 2.08451 0
M  V30 847 N 81.2955 -0.223234 1.56011 0
M  V30 848 C 82.2055 -1.29766 1.95443 0
M  V30 849 C 83.2215 -1.51373 0.858028 0
M  V30 850 O 84.3975 -1.64536 1.16146 0
M  V30 851 C 81.4625 -2.62772 2.26167 0
M  V30 852 C 80.5235 -2.49482 3.49367 0
M  V30 853 C 79.7565 -3.76145 3.78616 0
M  V30 854 O 79.9795 -4.79087 3.09568 0
M  V30 855 O 78.9135 -3.73358 4.72109 0
M  V30 856 H 82.7395 -0.99309 2.87004 0
M  V30 857 H 80.3245 -0.425958 1.43199 0
M  V30 858 H 82.2065 -3.41327 2.47131 0
M  V30 859 H 80.8815 -2.92913 1.37781 0
M  V30 860 H 79.7885 -1.69133 3.33684 0
M  V30 861 H 81.1215 -2.2428 4.38131 0
M  V30 862 N 82.7736 -1.49793 -0.48987 0
M  V30 863 C 84.1896 -1.36803 -0.822022 0
M  V30 864 C 84.3896 -0.409652 -1.97292 0
M  V30 865 O 83.4456 0.154614 -2.52026 0
M  V30 866 C 84.7586 -2.77768 -1.15175 0
M  V30 867 C 86.3066 -2.86549 -1.25931 0
M  V30 868 C 86.7816 -4.28306 -1.62228 0
M  V30 869 N 88.2726 -4.31169 -1.69256 0
M  V30 870 C 89.0076 -5.37832 -1.98807 0
M  V30 871 N 88.5036 -6.54726 -2.26507 0
M  V30 872 N 90.2966 -5.25258 -2.00152 0
M  V30 873 H 82.4476 -2.10691 0.268881 0
M  V30 874 H 84.7106 -0.946241 0.057728 0
M  V30 875 H 84.4166 -3.49648 -0.379335 0
M  V30 876 H 84.2906 -3.13836 -2.09253 0
M  V30 877 H 86.6776 -2.14899 -2.02243 0
M  V30 878 H 86.7586 -2.54049 -0.298776 0
M  V30 879 H 86.4026 -5.00486 -0.864622 0
M  V30 880 H 86.3326 -4.58279 -2.594 0
M  V30 881 H 88.8236 -3.4687 -1.49965 0
M  V30 882 H 89.1366 -7.31833 -2.48276 0
M  V30 883 H 87.4816 -6.57933 -2.23939 0
M  V30 884 H 90.6726 -4.32938 -1.77996 0
M  V30 885 H 90.8456 -6.08476 -2.22848 0
M  V30 886 N 84.2517 0.741722 -1.39055 0
M  V30 887 C 85.1997 1.87702 -1.3737 0
M  V30 888 C 86.1937 1.67427 -0.257812 0
M  V30 889 O 87.3997 1.7485 -0.427489 0
M  V30 890 H 83.7747 0.617757 -0.428812 0
M  V30 891 H 85.7457 1.86239 -2.33147 0
M  V30 892 C 84.4947 3.25315 -1.22741 0
M  V30 893 H 83.8177 3.41509 -2.07873 0
M  V30 894 H 85.2577 4.04964 -1.25618 0
M  V30 895 C 83.7167 3.36838 0.0647316 0
M  V30 896 O 84.2467 3.88073 1.03741 0
M  V30 897 N 82.4527 2.90329 0.125544 0
M  V30 898 H 81.9997 2.48823 -0.666682 0
M  V30 899 H 81.9577 2.98418 0.989639 0
M  V30 900 N 85.7298 1.2412 0.971189 0
M  V30 901 C 86.6768 1.0305 2.06517 0
M  V30 902 C 87.6468 -0.0550666 1.66009 0
M  V30 903 O 88.8318 0.0988688 1.90544 0
M  V30 904 C 85.9718 0.637653 3.39158 0
M  V30 905 C 85.0848 1.79633 3.92882 0
M  V30 906 C 84.2198 1.34939 5.13775 0
M  V30 907 C 83.2588 2.47823 5.59687 0
M  V30 908 N 82.3958 2.04022 6.71803 0
M  V30 909 H 87.2358 1.96685 2.23873 0
M  V30 910 H 84.7728 0.979694 1.09729 0
M  V30 911 H 86.7308 0.390931 4.15364 0
M  V30 912 H 85.3608 -0.261693 3.21737 0
M  V30 913 H 84.4128 2.15681 3.13346 0
M  V30 914 H 85.7248 2.64466 4.22918 0
M  V30 915 H 84.8788 1.06134 5.97345 0
M  V30 916 H 83.6178 0.471557 4.85415 0
M  V30 917 H 82.6228 2.77392 4.74693 0
M  V30 918 H 83.8478 3.36158 5.90063 0
M  V30 919 H 81.7938 1.18632 6.45184 0
M  V30 920 H 81.7108 2.82409 7.01271 0
M  V30 921 H 82.9788 1.78347 7.58823 0
M  V30 922 N 87.2079 -1.17134 1.05439 0
M  V30 923 C 88.1549 -2.21235 0.657539 0
M  V30 924 C 89.1249 -1.62551 -0.341543 0
M  V30 925 O 90.3099 -1.89379 -0.232393 0
M  V30 926 C 87.4499 -3.45076 0.0410575 0
M  V30 927 C 86.5629 -4.18042 1.08927 0
M  V30 928 C 85.6979 -5.29376 0.439848 0
M  V30 929 C 84.7369 -5.94132 1.4722 0
M  V30 930 N 83.8739 -6.96975 0.846756 0
M  V30 931 H 88.7139 -2.54534 1.54972 0
M  V30 932 H 86.2509 -1.25028 0.775006 0
M  V30 933 H 88.2089 -4.15862 -0.33383 0
M  V30 934 H 86.8389 -3.12353 -0.814568 0
M  V30 935 H 85.8909 -3.45945 1.58196 0
M  V30 936 H 87.2029 -4.62306 1.87282 0
M  V30 937 H 86.3569 -6.06699 0.0115125 0
M  V30 938 H 85.0959 -4.86251 -0.375656 0
M  V30 939 H 84.1009 -5.15538 1.91052 0
M  V30 940 H 85.3259 -6.39337 2.28965 0
M  V30 941 H 83.2719 -6.5598 0.0518075 0
M  V30 942 H 83.1889 -7.39565 1.5678 0
M  V30 943 H 84.4569 -7.78239 0.443277 0
M  V30 944 N 88.686 -0.835752 -1.33615 0
M  V30 945 C 89.934 -0.429109 -1.97492 0
M  V30 946 C 90.255 1.01433 -1.66543 0
M  V30 947 O 89.525 1.70611 -0.962744 0
M  V30 948 H 88.105 -0.155686 -0.730596 0
M  V30 949 H 90.767 -1.06802 -1.63031 0
M  V30 950 H 89.863 -0.55861 -3.0706 0
M  V30 951 N 90.1641 1.46063 -0.591896 0
M  V30 952 C 91.4131 2.01547 -0.0786637 0
M  V30 953 C 91.7261 1.46796 1.29268 0
M  V30 954 O 92.9321 1.94157 1.89777 0
M  V30 955 C 91.3881 3.59787 -0.0900024 0
M  V30 956 C 90.9961 4.23534 -1.46023 0
M  V30 957 C 92.7401 4.22895 0.368806 0
M  V30 958 C 90.6471 5.73881 -1.4288 0
M  V30 959 H 89.5771 0.753564 -0.0256388 0
M  V30 960 H 92.2281 1.677 -0.744905 0
M  V30 961 H 90.6101 3.90752 0.642586 0
M  V30 962 H 91.7841 4.04167 -2.21328 0
M  V30 963 H 90.0991 3.72558 -1.85982 0
M  V30 964 H 92.6961 5.33116 0.411258 0
M  V30 965 H 93.0391 3.9247 1.38827 0
M  V30 966 H 93.5721 3.9659 -0.31001 0
M  V30 967 H 90.3111 6.0898 -2.42536 0
M  V30 968 H 89.8311 5.95486 -0.718095 0
M  V30 969 H 91.5101 6.36776 -1.14565 0
M  V30 970 N 91.6422 0.330177 1.54103 0
M  V30 971 C 92.5742 -0.566902 2.22079 0
M  V30 972 C 93.5872 -1.07462 1.22294 0
M  V30 973 O 94.7762 -0.987065 1.48726 0
M  V30 974 C 91.8762 -1.79138 2.87685 0
M  V30 975 C 91.0492 -1.42123 4.13666 0
M  V30 976 C 90.1082 -2.50394 4.62806 0
M  V30 977 O 89.1342 -2.14261 5.27334 0
M  V30 978 N 90.3362 -3.81433 4.37595 0
M  V30 979 H 93.1012 0.0151844 2.99696 0
M  V30 980 H 90.6622 0.153681 1.61169 0
M  V30 981 H 92.6542 -2.50975 3.1748 0
M  V30 982 H 91.2242 -2.28115 2.13734 0
M  V30 983 H 90.4442 -0.534201 3.90564 0
M  V30 984 H 91.7322 -1.14971 4.9564 0
M  V30 985 H 91.1302 -4.13584 3.8596 0
M  V30 986 H 89.6872 -4.4948 4.72029 0
M  V30 987 N 93.1203 -1.57491 0.0584922 0
M  V30 988 C 94.3603 -1.94851 -0.617458 0
M  V30 989 C 94.7243 -0.937165 -1.67575 0
M  V30 990 O 95.9253 -1.19795 -2.40629 0
M  V30 991 C 94.1963 -3.36955 -1.19147 0
M  V30 992 S 95.7553 -3.96277 -1.8844 0
M  V30 993 H 92.5733 -0.681539 -0.202547 0
M  V30 994 H 95.1753 -1.95073 0.129176 0
M  V30 995 H 93.8793 -4.08355 -0.409215 0
M  V30 996 H 93.4103 -3.40245 -1.97476 0
M  V30 997 H 95.4253 -3.82099 -3.16568 0
M  V30 998 N 94.5984 0.214957 -1.56127 0
M  V30 999 C 95.5304 1.29004 -1.89448 0
M  V30 1000 C 96.5434 1.42716 -0.783326 0
M  V30 1001 O 97.7324 1.43496 -1.06166 0
M  V30 1002 C 94.8324 2.66482 -2.09381 0
M  V30 1003 C 94.0054 2.74633 -3.40434 0
M  V30 1004 C 93.0644 3.9317 -3.49719 0
M  V30 1005 O 92.0904 3.812 -4.227 0
M  V30 1006 N 93.2924 5.07765 -2.81346 0
M  V30 1007 H 96.0574 1.00743 -2.82261 0
M  V30 1008 H 93.6184 0.40497 -1.56753 0
M  V30 1009 H 95.6104 3.44173 -2.12901 0
M  V30 1010 H 94.1804 2.87314 -1.23163 0
M  V30 1011 H 93.4004 1.83368 -3.48955 0
M  V30 1012 H 94.6884 2.77054 -4.26754 0
M  V30 1013 H 94.0864 5.20386 -2.21843 0
M  V30 1014 H 92.6434 5.83474 -2.90519 0
M  V30 1015 N 96.0765 1.50051 0.48192 0
M  V30 1016 C 97.3245 1.60181 1.23234 0
M  V30 1017 C 97.6455 0.299176 1.92691 0
M  V30 1018 O 96.9155 -0.682708 1.83619 0
M  V30 1019 H 95.4955 0.590232 0.457859 0
M  V30 1020 H 98.1575 1.86775 0.556881 0
M  V30 1021 H 97.2535 2.40753 1.98607 0
M  V30 1022 N 97.5546 -0.734337 1.39446 0
M  V30 1023 C 98.4646 -1.87879 1.40495 0
M  V30 1024 C 99.4806 -1.714 0.299672 0
M  V30 1025 O 100.657 -1.93991 0.541249 0
M  V30 1026 C 97.7216 -3.23477 1.24754 0
M  V30 1027 C 96.7826 -3.52344 2.45259 0
M  V30 1028 C 96.0156 -4.81473 2.30259 0
M  V30 1029 O 96.2386 -5.55237 1.30643 0
M  V30 1030 O 95.1726 -5.10254 3.19256 0
M  V30 1031 H 98.9986 -1.89949 2.36966 0
M  V30 1032 H 96.5836 -0.882243 1.20569 0
M  V30 1033 H 98.4656 -4.04509 1.18111 0
M  V30 1034 H 97.1406 -3.22176 0.313781 0
M  V30 1035 H 96.0476 -2.71396 2.57478 0
M  V30 1036 H 97.3806 -3.58426 3.37331 0
M  V30 1037 N 99.0327 -1.24633 -0.964593 0
M  V30 1038 C 100.281 -1.08573 -1.70459 0
M  V30 1039 C 100.602 0.375655 -1.91347 0
M  V30 1040 O 99.8717 1.26779 -1.49345 0
M  V30 1041 H 98.4517 -0.398784 -0.631649 0
M  V30 1042 H 101.114 -1.56601 -1.16026 0
M  V30 1043 H 100.21 -1.58623 -2.68785 0
M  V30 1044 N 100.511 1.16574 -1.06058 0
M  V30 1045 C 101.736 1.91493 -0.796562 0
M  V30 1046 C 102.161 1.76773 0.642868 0
M  V30 1047 O 101.519 1.09142 1.44768 0
M  V30 1048 C 101.567 3.40293 -1.19303 0
M  V30 1049 O 100.671 4.11074 -0.330394 0
M  V30 1050 H 100.012 0.596678 -0.291326 0
M  V30 1051 H 102.542 1.47708 -1.41575 0
M  V30 1052 H 102.552 3.91057 -1.16356 0
M  V30 1053 H 101.227 3.50326 -2.24153 0
M  V30 1054 H 99.8038 3.70513 -0.421225 0
M  V30 1055 N 101.989 0.842826 1.3317 0
M  V30 1056 C 103.214 0.453129 2.02389 0
M  V30 1057 C 103.639 -0.939105 1.6298 0
M  V30 1058 O 102.997 -1.61472 0.8244 0
M  V30 1059 C 103.045 0.586094 3.55805 0
M  V30 1060 O 102.149 -0.386029 4.10589 0
M  V30 1061 H 101.49 0.183664 0.638094 0
M  V30 1062 H 104.02 1.13875 1.69981 0
M  V30 1063 H 104.03 0.469209 4.05293 0
M  V30 1064 H 102.705 1.6014 3.83833 0
M  V30 1065 H 101.282 -0.226371 3.72212 0
M  V30 1066 N 103.467 -1.45747 0.599634 0
M  V30 1067 C 104.883 -1.57424 0.26264 0
M  V30 1068 C 105.083 -1.59222 -1.23493 0
M  V30 1069 O 104.139 -1.51825 -2.01756 0
M  V30 1070 C 105.452 -2.86061 0.926795 0
M  V30 1071 C 107 -2.99722 0.901967 0
M  V30 1072 C 107.475 -4.31119 1.54598 0
M  V30 1073 N 108.966 -4.37858 1.5111 0
M  V30 1074 C 109.701 -5.3818 1.97863 0
M  V30 1075 N 109.197 -6.45083 2.52666 0
M  V30 1076 N 110.99 -5.29487 1.88679 0
M  V30 1077 H 103.141 -1.42823 1.57211 0
M  V30 1078 H 105.404 -0.68235 0.658105 0
M  V30 1079 H 105.11 -2.90605 1.98095 0
M  V30 1080 H 104.984 -3.74563 0.445238 0
M  V30 1081 H 107.371 -2.9475 -0.143617 0
M  V30 1082 H 107.452 -2.12652 1.42171 0
M  V30 1083 H 107.096 -4.36849 2.59085 0
M  V30 1084 H 107.026 -5.16992 1.00132 0
M  V30 1085 H 109.517 -3.61209 1.11068 0
M  V30 1086 H 109.83 -7.17869 2.86155 0
M  V30 1087 H 108.175 -6.45856 2.56701 0
M  V30 1088 H 111.366 -4.44877 1.4561 0
M  V30 1089 H 111.539 -6.07524 2.25429 0
M  V30 1090 N 104.945 -0.338344 -1.53925 0
M  V30 1091 C 106.193 0.259245 -2.0043 0
M  V30 1092 C 106.514 1.51484 -1.22791 0
M  V30 1093 O 105.784 1.93037 -0.33368 0
M  V30 1094 H 104.364 0.0987845 -0.740439 0
M  V30 1095 H 107.026 -0.458302 -1.89435 0
M  V30 1096 H 106.122 0.505334 -3.07982 0
M  V30 1097 N 106.423 1.57458 -0.0668435 0
M  V30 1098 C 107.648 1.9804 0.616027 0
M  V30 1099 C 108.073 0.944771 1.62652 0
M  V30 1100 O 107.431 -0.0902094 1.81075 0
M  V30 1101 C 107.479 3.37665 1.26549 0
M  V30 1102 O 106.583 3.36701 2.38131 0
M  V30 1103 H 105.924 0.644719 0.158849 0
M  V30 1104 H 108.454 2.04121 -0.139891 0
M  V30 1105 H 108.464 3.7474 1.6135 0
M  V30 1106 H 107.139 4.12573 0.525016 0
M  V30 1107 H 105.716 3.1139 2.0516 0
M  V30 1108 N 107.901 -0.206675 1.56239 0
M  V30 1109 C 108.833 -1.27997 1.9013 0
M  V30 1110 C 109.846 -1.42299 0.790883 0
M  V30 1111 O 111.035 -1.42931 1.06925 0
M  V30 1112 C 108.135 -2.65368 2.10792 0
M  V30 1113 C 107.308 -2.72824 3.41886 0
M  V30 1114 C 106.367 -3.9131 3.51799 0
M  V30 1115 O 105.393 -3.78953 4.24716 0
M  V30 1116 N 106.595 -5.06265 2.84035 0
M  V30 1117 H 109.36 -0.992444 2.82791 0
M  V30 1118 H 106.921 -0.396652 1.56966 0
M  V30 1119 H 108.913 -3.43039 2.14724 0
M  V30 1120 H 107.483 -2.86657 1.24685 0
M  V30 1121 H 106.703 -1.81515 3.49923 0
M  V30 1122 H 107.991 -2.74786 4.28217 0
M  V30 1123 H 107.389 -5.19203 2.246 0
M  V30 1124 H 105.946 -5.81925 2.93609 0
M  V30 1125 N 109.379 -1.50304 -0.473955 0
M  V30 1126 C 110.79 -1.54042 -1.0549 0
M  V30 1127 C 111.141 -0.342248 -1.93192 0
M  V30 1128 O 110.266 0.545157 -2.09421 0
M  V30 1129 C 110.861 -2.79152 -1.91989 0
M  V30 1130 C 109.42 -2.8558 -2.45196 0
M  V30 1131 C 108.567 -2.48295 -1.2347 0
M  V30 1132 H 111.518 -1.5661 -0.256693 0
M  V30 1133 H 111.539 -2.60845 -2.7702 0
M  V30 1134 H 111.051 -3.66339 -1.28131 0
M  V30 1135 H 109.152 -2.02738 -3.12615 0
M  V30 1136 H 109.265 -3.88403 -2.80499 0
M  V30 1137 H 107.629 -2.00669 -1.56856 0
M  V30 1138 H 108.412 -3.37787 -0.612789 0
M  V30 1139 N 110.857 0.726932 -1.39834 0
M  V30 1140 C 112.105 1.4837 -1.37225 0
M  V30 1141 C 112.426 1.94979 0.0284857 0
M  V30 1142 O 111.696 1.69555 0.981213 0
M  V30 1143 H 110.276 0.55043 -0.505011 0
M  V30 1144 H 112.938 0.862468 -1.74778 0
M  V30 1145 H 112.034 2.36198 -2.04003 0
M  V30 1146 N 112.336 1.25143 0.95797 0
M  V30 1147 C 113.268 1.01023 2.05735 0
M  V30 1148 C 114.281 -0.0236902 1.62783 0
M  V30 1149 O 115.47 0.21448 1.77207 0
M  V30 1150 C 112.57 0.504595 3.35122 0
M  V30 1151 C 111.743 1.6039 4.06932 0
M  V30 1152 C 110.802 1.09922 5.14591 0
M  V30 1153 O 109.828 1.79293 5.40225 0
M  V30 1154 N 111.03 -0.0612545 5.80468 0
M  V30 1155 H 113.795 1.95683 2.26998 0
M  V30 1156 H 111.356 1.16303 1.12629 0
M  V30 1157 H 113.348 0.151516 4.04416 0
M  V30 1158 H 111.918 -0.347989 3.10657 0
M  V30 1159 H 111.138 2.12872 3.31782 0
M  V30 1160 H 112.426 2.34252 4.51667 0
M  V30 1161 H 111.824 -0.640985 5.62057 0
M  V30 1162 H 110.381 -0.355395 6.5083 0
M  V30 1163 N 113.814 -1.1601 1.06675 0
M  V30 1164 C 115.061 -1.86633 0.785781 0
M  V30 1165 C 115.389 -1.81929 -0.687896 0
M  V30 1166 O 114.644 -1.23253 -1.52011 0
M  V30 1167 C 114.943 -3.35547 1.23057 0
M  V30 1168 C 114.609 -3.60448 2.70902 0
M  V30 1169 C 113.271 -3.66954 3.11285 0
M  V30 1170 C 115.623 -3.7071 3.66365 0
M  V30 1171 C 112.951 -3.81225 4.45965 0
M  V30 1172 C 115.303 -3.86503 5.00797 0
M  V30 1173 C 113.967 -3.91252 5.40813 0
M  V30 1174 H 113.237 -0.682937 0.287538 0
M  V30 1175 H 115.884 -1.37146 1.33654 0
M  V30 1176 H 114.189 -3.87193 0.59907 0
M  V30 1177 H 115.886 -3.88583 0.990163 0
M  V30 1178 H 112.476 -3.56021 2.38636 0
M  V30 1179 H 116.66 -3.64991 3.36296 0
M  V30 1180 H 111.916 -3.83155 4.76447 0
M  V30 1181 H 116.09 -3.93385 5.74649 0
M  V30 1182 H 113.717 -4.02062 6.45174 0
M  V30 1183 N 115.292 -0.849877 -1.32721 0
M  V30 1184 C 116.538 -0.451591 -1.97708 0
M  V30 1185 C 116.871 0.989175 -1.6712 0
M  V30 1186 O 116.146 1.69334 -0.956891 0
M  V30 1187 C 116.429 -0.685598 -3.53513 0
M  V30 1188 C 116.282 -2.17444 -3.93749 0
M  V30 1189 C 117.601 -0.138874 -4.39881 0
M  V30 1190 H 114.72 -0.16555 -0.718166 0
M  V30 1191 H 117.362 -1.06742 -1.57182 0
M  V30 1192 H 115.512 -0.161416 -3.88165 0
M  V30 1193 H 117.184 -2.76433 -3.693 0
M  V30 1194 H 115.427 -2.65476 -3.43081 0
M  V30 1195 H 116.098 -2.28888 -5.02309 0
M  V30 1196 H 118.574 -0.587068 -4.11938 0
M  V30 1197 H 117.45 -0.332213 -5.47894 0
M  V30 1198 H 117.711 0.95806 -4.31594 0
M  V30 1199 N 116.77 1.45427 -0.607355 0
M  V30 1200 C 118.018 2.01841 -0.102253 0
M  V30 1201 C 118.339 1.47832 1.27164 0
M  V30 1202 O 117.609 0.672497 1.83995 0
M  V30 1203 H 116.189 0.746188 -0.0348101 0
M  V30 1204 H 118.851 1.78229 -0.7887 0
M  V30 1205 H 117.947 3.12057 -0.0518585 0
M  V30 1206 N 118.248 0.346503 1.53744 0
M  V30 1207 C 119.494 -0.249473 2.0126 0
M  V30 1208 C 119.827 -1.49965 1.23386 0
M  V30 1209 O 119.102 -1.91811 0.32229 0
M  V30 1210 C 119.385 -0.560643 3.55709 0
M  V30 1211 C 119.238 0.701836 4.44291 0
M  V30 1212 C 120.557 -1.36905 4.18264 0
M  V30 1213 H 117.676 -0.0891987 0.731582 0
M  V30 1214 H 120.318 0.467624 1.84156 0
M  V30 1215 H 118.468 -1.17156 3.70414 0
M  V30 1216 H 120.14 1.33974 4.41417 0
M  V30 1217 H 118.383 1.32612 4.13033 0
M  V30 1218 H 119.054 0.43933 5.50249 0
M  V30 1219 H 121.53 -0.852448 4.07275 0
M  V30 1220 H 120.406 -1.55553 5.26398 0
M  V30 1221 H 120.667 -2.37203 3.73078 0
M  V30 1222 N 119.726 -1.57421 0.075193 0
M  V30 1223 C 120.954 -1.97946 -0.602076 0
M  V30 1224 C 121.369 -0.953674 -1.62943 0
M  V30 1225 O 120.726 0.0592551 -1.82404 0
M  V30 1226 C 120.777 -3.38546 -1.26762 0
M  V30 1227 O 120.498 -4.37195 -0.281376 0
M  V30 1228 C 121.999 -3.93966 -2.03239 0
M  V30 1229 H 119.219 -0.650918 -0.162931 0
M  V30 1230 H 121.763 -2.03959 0.148601 0
M  V30 1231 H 119.918 -3.33609 -1.96936 0
M  V30 1232 H 120.332 -5.18975 -0.759267 0
M  V30 1233 H 121.806 -4.94555 -2.45193 0
M  V30 1234 H 122.283 -3.30693 -2.8903 0
M  V30 1235 H 122.889 -4.02315 -1.37924 0
M  V30 1236 N 121.204 0.198386 -1.56346 0
M  V30 1237 C 122.434 0.934215 -1.84271 0
M  V30 1238 C 122.842 1.77496 -0.655125 0
M  V30 1239 O 122.185 1.7961 0.385488 0
M  V30 1240 C 122.247 1.88278 -3.06254 0
M  V30 1241 C 121.911 1.22431 -4.40295 0
M  V30 1242 C 122.908 0.602839 -5.16393 0
M  V30 1243 C 120.593 1.22915 -4.87029 0
M  V30 1244 C 122.587 -0.0050083 -6.374 0
M  V30 1245 C 120.274 0.617465 -6.07973 0
M  V30 1246 C 121.272 0.00146341 -6.83 0
M  V30 1247 O 120.96 -0.600642 -8.01653 0
M  V30 1248 H 120.692 0.278245 -0.616081 0
M  V30 1249 H 123.246 0.211626 -2.04307 0
M  V30 1250 H 121.476 2.64498 -2.82095 0
M  V30 1251 H 123.165 2.48612 -3.20853 0
M  V30 1252 H 123.931 0.591265 -4.81382 0
M  V30 1253 H 119.81 1.69801 -4.28589 0
M  V30 1254 H 123.354 -0.48643 -6.95902 0
M  V30 1255 H 119.251 0.62653 -6.42452 0
M  V30 1256 H 120.019 -0.497225 -8.16988 0
M  V30 1257 N 122.682 1.50554 0.465978 0
M  V30 1258 C 123.63 1.70324 1.58406 0
M  V30 1259 C 124.624 0.569139 1.59553 0
M  V30 1260 O 125.83 0.749776 1.63641 0
M  V30 1261 H 122.205 0.537688 0.525734 0
M  V30 1262 H 124.176 2.64104 1.38894 0
M  V30 1263 C 122.925 1.81928 2.96307 0
M  V30 1264 H 122.248 2.68586 2.96144 0
M  V30 1265 H 123.688 1.99784 3.73982 0
M  V30 1266 C 122.147 0.572095 3.32007 0
M  V30 1267 O 122.677 -0.286416 4.00678 0
M  V30 1268 N 120.883 0.424606 2.87481 0
M  V30 1269 H 120.43 1.12427 2.31771 0
M  V30 1270 H 120.388 -0.408697 3.11732 0
M  V30 1271 N 124.16 -0.719506 1.40217 0
M  V30 1272 C 125.09 -1.8465 1.42922 0
M  V30 1273 C 126.071 -1.67599 0.29062 0
M  V30 1274 O 127.256 -1.87688 0.498677 0
M  V30 1275 C 124.386 -3.22565 1.28722 0
M  V30 1276 C 123.34 -3.54281 2.40144 0
M  V30 1277 C 122.666 -4.91298 2.11023 0
M  V30 1278 C 123.966 -3.55676 3.82481 0
M  V30 1279 H 125.66 -1.82644 2.37237 0
M  V30 1280 H 123.206 -0.877305 1.1419 0
M  V30 1281 H 125.159 -4.01095 1.29232 0
M  V30 1282 H 123.883 -3.25137 0.308811 0
M  V30 1283 H 122.542 -2.78088 2.38877 0
M  V30 1284 H 122.19 -4.90468 1.11582 0
M  V30 1285 H 121.89 -5.13485 2.8567 0
M  V30 1286 H 123.414 -5.72166 2.13209 0
M  V30 1287 H 124.828 -4.24254 3.85592 0
M  V30 1288 H 123.225 -3.89388 4.56614 0
M  V30 1289 H 124.295 -2.55144 4.12346 0
M  V30 1290 N 125.638 -1.25649 -0.95132 0
M  V30 1291 C 126.548 -1.08073 -2.08224 0
M  V30 1292 C 127.564 -0.0169666 -1.73992 0
M  V30 1293 O 128.74 -0.218593 -2.0021 0
M  V30 1294 C 125.805 -0.704922 -3.39458 0
M  V30 1295 C 124.866 -1.84699 -3.87537 0
M  V30 1296 C 124.099 -1.48902 -5.12508 0
M  V30 1297 O 124.322 -0.386156 -5.69091 0
M  V30 1298 O 123.256 -2.32033 -5.55378 0
M  V30 1299 H 127.082 -2.02924 -2.25954 0
M  V30 1300 H 124.667 -1.04618 -1.06656 0
M  V30 1301 H 126.549 -0.507609 -4.18332 0
M  V30 1302 H 125.224 0.214291 -3.2299 0
M  V30 1303 H 124.131 -2.09919 -3.09653 0
M  V30 1304 H 125.464 -2.74557 -4.08509 0
M  V30 1305 N 127.117 1.15442 -1.07289 0
M  V30 1306 C 128.064 2.20161 -0.692653 0
M  V30 1307 C 129.034 1.63073 0.31564 0
M  V30 1308 O 130.219 1.89725 0.202235 0
M  V30 1309 C 127.359 3.44967 -0.0959509 0
M  V30 1310 C 126.472 4.16256 -1.15564 0
M  V30 1311 C 125.607 5.28609 -0.524011 0
M  V30 1312 C 124.646 5.91715 -1.56653 0
M  V30 1313 N 123.783 6.9554 -0.957531 0
M  V30 1314 H 128.623 2.52037 -1.59002 0
M  V30 1315 H 126.16 1.2378 -0.794798 0
M  V30 1316 H 128.118 4.16341 0.267628 0
M  V30 1317 H 126.748 3.1361 0.764772 0
M  V30 1318 H 125.8 3.43385 -1.6368 0
M  V30 1319 H 127.112 4.59268 -1.94613 0
M  V30 1320 H 126.266 6.06604 -0.108032 0
M  V30 1321 H 125.005 4.86787 0.29825 0
M  V30 1322 H 124.01 5.12433 -1.9923 0
M  V30 1323 H 125.235 6.35614 -2.39107 0
M  V30 1324 H 123.181 6.55814 -0.156162 0
M  V30 1325 H 123.098 7.36977 -1.68526 0
M  V30 1326 H 124.366 7.77435 -0.567032 0
M  V30 1327 N 128.595 0.856903 1.32268 0
M  V30 1328 C 130.011 0.547061 1.49931 0
M  V30 1329 C 130.211 -0.921781 1.7918 0
M  V30 1330 O 129.267 -1.70469 1.8627 0
M  V30 1331 C 130.58 1.43599 2.64196 0
M  V30 1332 C 132.128 1.43665 2.78081 0
M  V30 1333 C 132.603 2.31085 3.95428 0
M  V30 1334 N 134.094 2.28893 4.02694 0
M  V30 1335 C 134.829 2.93262 4.92732 0
M  V30 1336 N 134.325 3.66751 5.87763 0
M  V30 1337 N 136.118 2.82638 4.85873 0
M  V30 1338 H 128.269 1.8075 1.11549 0
M  V30 1339 H 130.532 0.772144 0.549997 0
M  V30 1340 H 130.238 2.48058 2.49319 0
M  V30 1341 H 130.112 1.12502 3.60032 0
M  V30 1342 H 132.499 0.399701 2.92381 0
M  V30 1343 H 132.58 1.7878 1.82952 0
M  V30 1344 H 132.224 3.34849 3.81888 0
M  V30 1345 H 132.154 1.93302 4.89839 0
M  V30 1346 H 134.645 1.75466 3.34694 0
M  V30 1347 H 134.958 4.13027 6.53168 0
M  V30 1348 H 133.303 3.70859 5.87783 0
M  V30 1349 H 136.494 2.24774 4.10602 0
M  V30 1350 H 136.667 3.33084 5.55841 0
M  V30 1351 N 130.073 -1.45103 0.615059 0
M  V30 1352 C 131.484 -1.85654 0.197383 0
M  V30 1353 C 131.835 -1.51433 -1.24749 0
M  V30 1354 O 130.96 -0.944608 -1.94695 0
M  V30 1355 C 131.555 -3.36972 0.351448 0
M  V30 1356 C 130.114 -3.76398 -0.011593 0
M  V30 1357 C 129.261 -2.69024 0.672394 0
M  V30 1358 H 132.212 -1.35797 0.821263 0
M  V30 1359 H 132.233 -3.78239 -0.414227 0
M  V30 1360 H 131.745 -3.61847 1.40314 0
M  V30 1361 H 129.846 -3.5714 -1.06217 0
M  V30 1362 H 129.959 -4.77532 0.387265 0
M  V30 1363 H 128.323 -2.54465 0.109284 0
M  V30 1364 H 129.106 -2.96735 1.72636 0
M  V30 1365 N 131.551 -0.354651 -1.53558 0
M  V30 1366 C 132.779 0.239515 -2.05509 0
M  V30 1367 C 133.194 1.4333 -1.2289 0
M  V30 1368 O 132.551 1.80538 -0.266899 0
M  V30 1369 C 132.602 0.643719 -3.55723 0
M  V30 1370 O 132.323 -0.502602 -4.35207 0
M  V30 1371 C 133.824 1.29743 -4.23889 0
M  V30 1372 H 131.044 0.0442697 -0.669538 0
M  V30 1373 H 133.588 -0.509856 -1.98042 0
M  V30 1374 H 131.743 1.34302 -3.63376 0
M  V30 1375 H 132.157 -0.178172 -5.24197 0
M  V30 1376 H 133.631 1.53091 -5.30346 0
M  V30 1377 H 134.108 2.25441 -3.76926 0
M  V30 1378 H 134.714 0.639865 -4.20459 0
M  V30 1379 N 133.029 1.57378 -0.0835403 0
M  V30 1380 C 134.257 1.98263 0.59157 0
M  V30 1381 C 134.672 0.962302 1.62435 0
M  V30 1382 O 134.029 -0.049581 1.82433 0
M  V30 1383 C 134.08 3.39214 1.24965 0
M  V30 1384 O 133.801 4.37339 0.258186 0
M  V30 1385 C 135.302 3.95038 2.01147 0
M  V30 1386 H 132.522 0.651773 0.159477 0
M  V30 1387 H 135.066 2.03878 -0.159415 0
M  V30 1388 H 133.221 3.34649 1.95164 0
M  V30 1389 H 133.635 5.19371 0.731734 0
M  V30 1390 H 135.109 4.95848 2.42567 0
M  V30 1391 H 135.586 3.32222 2.87272 0
M  V30 1392 H 136.192 4.0304 1.35789 0
M  V30 1393 N 134.507 -0.190092 1.56449 0
M  V30 1394 C 135.756 -0.907912 1.80111 0
M  V30 1395 C 136.069 -1.84214 0.657619 0
M  V30 1396 O 137.275 -2.60094 0.778663 0
M  V30 1397 C 135.731 -1.66485 3.19078 0
M  V30 1398 C 135.339 -0.7752 4.41242 0
M  V30 1399 C 137.083 -2.37201 3.52045 0
M  V30 1400 C 134.99 -1.53129 5.71231 0
M  V30 1401 H 133.92 -0.34276 0.671589 0
M  V30 1402 H 136.571 -0.161109 1.82791 0
M  V30 1403 H 134.953 -2.45572 3.10661 0
M  V30 1404 H 136.127 -0.0226298 4.60794 0
M  V30 1405 H 134.442 -0.178627 4.16017 0
M  V30 1406 H 137.039 -2.94329 4.46402 0
M  V30 1407 H 137.382 -3.11632 2.76028 0
M  V30 1408 H 137.915 -1.65075 3.61932 0
M  V30 1409 H 134.654 -0.82967 6.50228 0
M  V30 1410 H 134.174 -2.25767 5.55688 0
M  V30 1411 H 135.853 -2.08377 6.12526 0
M  V30 1412 N 135.985 -1.50799 -0.457987 0
M  V30 1413 C 137.231 -1.62683 -1.21088 0
M  V30 1414 C 137.564 -0.332268 -1.91336 0
M  V30 1415 O 136.839 0.667043 -1.82704 0
M  V30 1416 C 137.122 -2.81615 -2.24422 0
M  V30 1417 C 136.975 -4.20989 -1.58392 0
M  V30 1418 C 138.294 -2.96085 -3.2561 0
M  V30 1419 H 135.413 -0.592087 -0.438864 0
M  V30 1420 H 138.055 -1.83225 -0.50286 0
M  V30 1421 H 136.205 -2.64231 -2.84806 0
M  V30 1422 H 137.877 -4.49994 -1.01504 0
M  V30 1423 H 136.12 -4.24641 -0.886704 0
M  V30 1424 H 136.791 -5.0016 -2.33547 0
M  V30 1425 H 139.267 -3.12042 -2.75262 0
M  V30 1426 H 138.143 -3.80902 -3.95228 0
M  V30 1427 H 138.404 -2.0726 -3.90507 0
M  V30 1428 N 137.463 0.71206 -1.40597 0
M  V30 1429 C 138.393 1.83889 -1.43899 0
M  V30 1430 C 139.374 1.67442 -0.299504 0
M  V30 1431 O 140.559 1.87421 -0.508624 0
M  V30 1432 C 137.689 3.21877 -1.30431 0
M  V30 1433 C 136.643 3.53002 -2.42019 0
M  V30 1434 C 135.969 4.90172 -2.13626 0
M  V30 1435 C 137.269 3.53643 -3.84362 0
M  V30 1436 H 138.963 1.81383 -2.38203 0
M  V30 1437 H 136.509 0.871237 -1.14654 0
M  V30 1438 H 138.462 4.00404 -1.31357 0
M  V30 1439 H 137.186 3.24968 -0.326049 0
M  V30 1440 H 135.845 2.76818 -2.40349 0
M  V30 1441 H 135.493 4.89869 -1.14182 0
M  V30 1442 H 135.193 5.11962 -2.88389 0
M  V30 1443 H 136.717 5.71028 -2.1624 0
M  V30 1444 H 138.131 4.22203 -3.87837 0
M  V30 1445 H 136.528 3.86961 -4.58673 0
M  V30 1446 H 137.598 2.52954 -4.13693 0
M  V30 1447 N 138.941 1.26152 0.944643 0
M  V30 1448 C 140.19 1.10883 1.68487 0
M  V30 1449 C 140.503 -0.348153 1.92477 0
M  V30 1450 O 141.709 -0.621459 2.64292 0
M  V30 1451 C 140.165 1.93624 3.03377 0
M  V30 1452 C 139.773 3.43875 2.87148 0
M  V30 1453 C 141.517 1.86954 3.81115 0
M  V30 1454 C 139.424 4.18875 4.1749 0
M  V30 1455 H 138.354 0.41135 0.631907 0
M  V30 1456 H 141.005 1.50433 1.05082 0
M  V30 1457 H 139.387 1.46904 3.67743 0
M  V30 1458 H 140.561 3.98338 2.31653 0
M  V30 1459 H 138.876 3.51744 2.22856 0
M  V30 1460 H 141.473 2.40275 4.77673 0
M  V30 1461 H 141.816 0.839518 4.07747 0
M  V30 1462 H 142.349 2.31477 3.23517 0
M  V30 1463 H 139.088 5.22332 3.96043 0
M  V30 1464 H 138.608 3.69193 4.72712 0
M  V30 1465 H 140.287 4.27134 4.85968 0
M  V30 1466 N 140.419 -1.14872 1.07899 0
M  V30 1467 C 141.367 -2.21857 0.698727 0
M  V30 1468 C 142.361 -1.66845 -0.293086 0
M  V30 1469 O 143.567 -1.79321 -0.156204 0
M  V30 1470 H 139.942 -0.722691 0.207899 0
M  V30 1471 H 141.913 -2.51205 1.61054 0
M  V30 1472 C 140.662 -3.47498 0.11858 0
M  V30 1473 H 139.985 -3.90154 0.872914 0
M  V30 1474 H 141.425 -4.23858 -0.109759 0
M  V30 1475 C 139.884 -3.16947 -1.1422 0
M  V30 1476 O 140.414 -3.3426 -2.22785 0
M  V30 1477 N 138.62 -2.70946 -1.05055 0
M  V30 1478 H 138.167 -2.57058 -0.167038 0
M  V30 1479 H 138.125 -2.50879 -1.89491 0
M  V30 1480 N 141.898 -0.863906 -1.31812 0
M  V30 1481 C 143.175 -0.39275 -1.91616 0
M  V30 1482 C 143.555 1.12461 -1.7865 0
M  V30 1483 O 142.903 1.95045 -1.19037 0
M  V30 1484 C 143.113 -0.867385 -3.38049 0
M  V30 1485 C 144.461 -0.889966 -4.15168 0
M  V30 1486 O 145.485 -0.812635 -3.46806 0
M  V30 1487 O 144.344 -1.00079 -5.37258 0
M  V30 1488 H 141.438 -0.116358 -0.818773 0
M  V30 1489 H 143.984 -0.951418 -1.40521 0
M  V30 1490 H 142.756 -1.91081 -3.41473 0
M  V30 1491 H 142.379 -0.286687 -3.96565 0
M  V30 1492 N 143.376 1.44774 -0.622745 0
M  V30 1493 C 144.604 2.06487 -0.130722 0
M  V30 1494 C 145.019 1.46476 1.19123 0
M  V30 1495 O 144.376 0.584502 1.72887 0
M  V30 1496 C 144.427 3.615 -0.000807207 0
M  V30 1497 O 144.148 4.19274 -1.27048 0
M  V30 1498 C 145.649 4.40229 0.520898 0
M  V30 1499 H 142.869 0.666704 -0.0758106 0
M  V30 1500 H 145.413 1.85779 -0.854774 0
M  V30 1501 H 143.568 3.81498 0.673643 0
M  V30 1502 H 143.982 5.12622 -1.1099 0
M  V30 1503 H 145.456 5.49144 0.560838 0
M  V30 1504 H 145.933 4.1108 1.54627 0
M  V30 1505 H 146.539 4.25131 -0.120018 0
M  V30 1506 N 144.854 0.36279 1.53368 0
M  V30 1507 C 146.265 -0.117022 1.86333 0
M  V30 1508 C 146.616 -1.48397 1.28347 0
M  V30 1509 O 145.741 -2.07787 0.604428 0
M  V30 1510 C 146.336 -0.21912 3.38091 0
M  V30 1511 C 144.895 -0.643184 3.70864 0
M  V30 1512 C 144.042 0.211318 2.76494 0
M  V30 1513 H 146.993 0.581687 1.47655 0
M  V30 1514 H 147.014 -1.04319 3.6592 0
M  V30 1515 H 146.526 0.775902 3.80265 0
M  V30 1516 H 144.627 -1.64654 3.34245 0
M  V30 1517 H 144.74 -0.41973 4.77258 0
M  V30 1518 H 143.104 -0.319367 2.5269 0
M  V30 1519 H 143.887 1.20383 3.21501 0
M  V30 1520 N 146.332 -1.57332 0.0918853 0
M  V30 1521 C 147.262 -2.16872 -0.865371 0
M  V30 1522 C 148.243 -1.10118 -1.29646 0
M  V30 1523 O 149.428 -1.38242 -1.36392 0
M  V30 1524 C 146.558 -2.74649 -2.12569 0
M  V30 1525 C 145.512 -3.86747 -1.83333 0
M  V30 1526 C 144.838 -4.31212 -3.16166 0
M  V30 1527 C 146.138 -5.10089 -1.1228 0
M  V30 1528 H 147.832 -2.97114 -0.369307 0
M  V30 1529 H 145.378 -1.42918 -0.176194 0
M  V30 1530 H 147.331 -3.14952 -2.7997 0
M  V30 1531 H 146.055 -1.91657 -2.64452 0
M  V30 1532 H 144.714 -3.46978 -1.18331 0
M  V30 1533 H 144.362 -3.45115 -3.6593 0
M  V30 1534 H 144.062 -5.06788 -2.97388 0
M  V30 1535 H 145.586 -4.74146 -3.84731 0
M  V30 1536 H 147 -5.47582 -1.69785 0
M  V30 1537 H 145.397 -5.91073 -1.03693 0
M  V30 1538 H 146.467 -4.84786 -0.105041 0
M  V30 1539 N 147.81 0.181792 -1.56548 0
M  V30 1540 C 148.758 1.24461 -1.965 0
M  V30 1541 C 149.752 1.464 -0.852261 0
M  V30 1542 O 150.958 1.47103 -1.03733 0
M  V30 1543 H 147.333 0.418138 -0.625031 0
M  V30 1544 H 149.304 0.880714 -2.85107 0
M  V30 1545 C 148.053 2.57891 -2.33212 0
M  V30 1546 H 147.376 2.41829 -3.18369 0
M  V30 1547 H 148.816 3.3097 -2.65019 0
M  V30 1548 C 147.275 3.15871 -1.17163 0
M  V30 1549 O 147.805 3.9913 -0.453708 0
M  V30 1550 N 146.011 2.74808 -0.944936 0
M  V30 1551 H 145.558 2.07205 -1.53049 0
M  V30 1552 H 145.516 3.13939 -0.170286 0
M  V30 1553 N 149.288 1.51039 0.449983 0
M  V30 1554 C 150.534 1.63322 1.20223 0
M  V30 1555 C 150.867 0.34241 1.91158 0
M  V30 1556 O 150.142 -0.657344 1.83055 0
M  V30 1557 C 150.425 2.82801 2.22925 0
M  V30 1558 C 150.278 4.21823 1.56157 0
M  V30 1559 C 151.597 2.97807 3.24035 0
M  V30 1560 H 148.716 0.594407 0.435718 0
M  V30 1561 H 151.358 1.83489 0.493136 0
M  V30 1562 H 149.508 2.65738 2.834 0
M  V30 1563 H 151.18 4.50526 0.991162 0
M  V30 1564 H 149.423 4.25105 0.864172 0
M  V30 1565 H 150.094 5.01391 2.30891 0
M  V30 1566 H 152.57 3.13497 2.73603 0
M  V30 1567 H 151.446 3.82992 3.93202 0
M  V30 1568 H 151.707 2.09328 3.89402 0
M  V30 1569 N 150.766 -0.704594 1.40972 0
M  V30 1570 C 151.696 -1.83124 1.44872 0
M  V30 1571 C 152.677 -1.67281 0.30838 0
M  V30 1572 O 153.862 -1.87149 0.518556 0
M  V30 1573 C 150.992 -3.21181 1.32136 0
M  V30 1574 C 149.946 -3.51714 2.43888 0
M  V30 1575 C 149.272 -4.89032 2.16222 0
M  V30 1576 C 150.572 -3.516 3.86232 0
M  V30 1577 H 152.266 -1.80117 2.39161 0
M  V30 1578 H 149.812 -0.865145 1.15114 0
M  V30 1579 H 151.765 -3.99702 1.33479 0
M  V30 1580 H 150.489 -3.24791 0.343279 0
M  V30 1581 H 149.148 -2.75539 2.41813 0
M  V30 1582 H 148.796 -4.89256 1.16778 0
M  V30 1583 H 148.496 -5.10426 2.911 0
M  V30 1584 H 150.02 -5.69873 2.19265 0
M  V30 1585 H 151.434 -4.2014 3.9007 0
M  V30 1586 H 149.831 -3.84523 4.60719 0
M  V30 1587 H 150.901 -2.50757 4.15029 0
M  V30 1588 N 152.244 -1.26651 -0.937939 0
M  V30 1589 C 153.174 -1.10993 -2.05433 0
M  V30 1590 C 154.155 -0.0142161 -1.70094 0
M  V30 1591 O 155.34 -0.186837 -1.93299 0
M  V30 1592 C 152.47 -0.745561 -3.39203 0
M  V30 1593 C 151.424 -1.79337 -3.88616 0
M  V30 1594 C 150.75 -1.28324 -5.19073 0
M  V30 1595 C 152.05 -3.19553 -4.13138 0
M  V30 1596 H 153.744 -2.0438 -2.1879 0
M  V30 1597 H 151.29 -0.984041 -1.05131 0
M  V30 1598 H 153.243 -0.622888 -4.16771 0
M  V30 1599 H 151.967 0.22401 -3.25831 0
M  V30 1600 H 150.626 -1.90477 -3.13231 0
M  V30 1601 H 150.274 -0.303414 -5.02084 0
M  V30 1602 H 149.974 -1.98369 -5.53103 0
M  V30 1603 H 151.498 -1.1733 -5.99221 0
M  V30 1604 H 152.912 -3.11471 -4.81309 0
M  V30 1605 H 151.309 -3.87218 -4.58457 0
M  V30 1606 H 152.379 -3.65368 -3.18801 0
M  V30 1607 N 153.722 1.14298 -1.08507 0
M  V30 1608 C 154.999 1.81544 -0.728088 0
M  V30 1609 C 155.379 1.95838 0.78808 0
M  V30 1610 O 154.727 1.51904 1.70697 0
M  V30 1611 C 154.937 3.17169 -1.45619 0
M  V30 1612 C 156.285 3.9265 -1.61591 0
M  V30 1613 O 157.309 3.26762 -1.41793 0
M  V30 1614 O 156.168 5.10807 -1.94263 0
M  V30 1615 H 153.262 0.78491 -0.260471 0
M  V30 1616 H 155.808 1.21307 -1.18671 0
M  V30 1617 H 154.58 3.01934 -2.489 0
M  V30 1618 H 154.203 3.851 -0.989124 0
M  V30 1619 N 155.201 0.870884 1.31352 0
M  V30 1620 C 156.429 0.49677 2.00848 0
M  V30 1621 C 156.844 -0.910998 1.65367 0
M  V30 1622 O 156.201 -1.59696 0.883374 0
M  V30 1623 C 156.252 0.645308 3.55694 0
M  V30 1624 O 155.973 1.99764 3.89905 0
M  V30 1625 C 157.474 0.272326 4.42463 0
M  V30 1626 H 154.694 0.193462 0.642506 0
M  V30 1627 H 157.238 1.1723 1.67563 0
M  V30 1628 H 155.393 0.0173176 3.87396 0
M  V30 1629 H 155.807 2.00607 4.84621 0
M  V30 1630 H 157.281 0.427208 5.50344 0
M  V30 1631 H 157.758 -0.788587 4.32062 0
M  V30 1632 H 158.364 0.876054 4.1618 0
M  V30 1633 N 156.679 -1.44442 0.630414 0
M  V30 1634 C 157.927 -2.01653 0.134351 0
M  V30 1635 C 158.248 -1.49836 -1.24796 0
M  V30 1636 O 157.518 -0.701684 -1.82902 0
M  V30 1637 H 156.098 -0.74554 0.0466769 0
M  V30 1638 H 158.76 -1.76952 0.816955 0
M  V30 1639 H 157.856 -3.11935 0.101498 0
M  V30 1640 N 158.157 -0.370918 -1.53173 0
M  V30 1641 C 159.12 0.460778 -2.24521 0
M  V30 1642 C 160.12 1.00536 -1.25496 0
M  V30 1643 O 161.31 0.890266 -1.49733 0
M  V30 1644 C 158.442 1.64457 -2.98608 0
M  V30 1645 H 159.635 -0.163613 -2.99453 0
M  V30 1646 H 157.188 -0.122699 -1.55818 0
M  V30 1647 H 157.923 2.30691 -2.2793 0
M  V30 1648 H 157.708 1.26099 -3.7127 0
M  V30 1649 H 159.198 2.23384 -3.5283 0
M  V30 1650 N 159.635 1.57281 -0.100228 0
M  V30 1651 C 160.912 1.86014 0.604812 0
M  V30 1652 C 161.292 0.998025 1.86018 0
M  V30 1653 O 160.64 0.0718184 2.28387 0
M  V30 1654 C 160.85 3.36784 0.915278 0
M  V30 1655 C 162.198 4.04957 1.27651 0
M  V30 1656 O 163.222 3.41695 1.00613 0
M  V30 1657 O 162.081 5.16593 1.7831 0
M  V30 1658 H 159.175 0.76942 0.303185 0
M  V30 1659 H 161.721 1.69176 -0.133313 0
M  V30 1660 H 160.493 3.91292 0.0248896 0
M  V30 1661 H 160.116 3.58987 1.70921 0
M  V30 1662 N 161.113 -0.173488 1.56642 0
M  V30 1663 C 162.341 -0.906095 1.86004 0
M  V30 1664 C 162.756 -1.75921 0.685355 0
M  V30 1665 O 162.113 -1.79198 -0.345578 0
M  V30 1666 C 162.164 -1.78462 3.14378 0
M  V30 1667 O 161.885 -0.965914 4.27319 0
M  V30 1668 C 163.386 -2.62707 3.57071 0
M  V30 1669 H 160.606 -0.263341 0.617165 0
M  V30 1670 H 163.15 -0.174236 2.03756 0
M  V30 1671 H 161.305 -2.46984 2.98459 0
M  V30 1672 H 161.719 -1.56655 5.00559 0
M  V30 1673 H 163.193 -3.19969 4.49804 0
M  V30 1674 H 163.67 -3.37472 2.81086 0
M  V30 1675 H 164.276 -1.99521 3.75595 0
M  V30 1676 N 162.591 -1.51276 -0.441967 0
M  V30 1677 C 163.816 -1.67799 -1.21895 0
M  V30 1678 C 164.241 -0.372864 -1.84367 0
M  V30 1679 O 163.599 0.666501 -1.68604 0
M  V30 1680 C 163.647 -2.79199 -2.28211 0
M  V30 1681 O 162.751 -2.42479 -3.33583 0
M  V30 1682 H 162.092 -0.559649 -0.357336 0
M  V30 1683 H 164.622 -1.97815 -0.522522 0
M  V30 1684 H 164.632 -3.03146 -2.73069 0
M  V30 1685 H 163.307 -3.73906 -1.82118 0
M  V30 1686 H 161.884 -2.29087 -2.94234 0
M  V30 1687 N 164.069 0.697108 -1.41344 0
M  V30 1688 C 165.315 1.4593 -1.40827 0
M  V30 1689 C 165.648 1.94193 -0.0167098 0
M  V30 1690 O 164.923 1.69425 0.955263 0
M  V30 1691 C 165.206 2.67229 -2.41373 0
M  V30 1692 C 165.059 2.24741 -3.8963 0
M  V30 1693 C 166.378 3.69423 -2.39196 0
M  V30 1694 H 163.497 0.529303 -0.512842 0
M  V30 1695 H 166.139 0.794112 -1.72609 0
M  V30 1696 H 164.289 3.23982 -2.14401 0
M  V30 1697 H 165.961 1.73327 -4.27499 0
M  V30 1698 H 164.204 1.56542 -4.0457 0
M  V30 1699 H 164.875 3.1177 -4.55525 0
M  V30 1700 H 167.351 3.2234 -2.63128 0
M  V30 1701 H 166.227 4.51907 -3.11563 0
M  V30 1702 H 166.488 4.19012 -1.41001 0
M  V30 1703 N 165.547 1.27147 0.931209 0
M  V30 1704 C 166.477 1.12081 2.04842 0
M  V30 1705 C 167.458 0.0232364 1.70084 0
M  V30 1706 O 168.643 0.197085 1.93197 0
M  V30 1707 C 165.773 0.76354 3.38803 0
M  V30 1708 C 164.727 1.81396 3.87659 0
M  V30 1709 C 164.053 1.31075 5.18385 0
M  V30 1710 C 165.353 3.21739 4.11438 0
M  V30 1711 H 167.047 2.05537 2.17703 0
M  V30 1712 H 164.593 0.989603 1.04608 0
M  V30 1713 H 166.546 0.644982 4.16435 0
M  V30 1714 H 165.27 -0.206727 3.25945 0
M  V30 1715 H 163.929 1.92136 3.12217 0
M  V30 1716 H 163.577 0.330037 5.01916 0
M  V30 1717 H 163.277 2.013 5.52044 0
M  V30 1718 H 164.801 1.20506 5.98591 0
M  V30 1719 H 166.215 3.14019 4.79651 0
M  V30 1720 H 164.612 3.89644 4.56397 0
M  V30 1721 H 165.682 3.67054 3.16859 0
M  V30 1722 N 167.025 -1.13721 1.09112 0
M  V30 1723 C 168.253 -1.88773 0.846899 0
M  V30 1724 C 168.668 -1.7896 -0.601572 0
M  V30 1725 O 168.025 -1.15394 -1.41388 0
M  V30 1726 C 168.076 -3.3849 1.26913 0
M  V30 1727 O 167.797 -3.48043 2.66079 0
M  V30 1728 C 169.298 -4.30518 1.05682 0
M  V30 1729 H 166.518 -0.59772 0.304914 0
M  V30 1730 H 169.062 -1.43977 1.45227 0
M  V30 1731 H 167.217 -3.80881 0.707723 0
M  V30 1732 H 167.631 -4.4109 2.83795 0
M  V30 1733 H 169.105 -5.3391 1.40156 0
M  V30 1734 H 169.582 -4.392 -0.00563416 0
M  V30 1735 H 170.188 -3.93893 1.60402 0
M  V30 1736 N 168.503 -0.877838 -1.30888 0
M  V30 1737 C 169.731 -0.507414 -2.00581 0
M  V30 1738 C 170.146 0.902216 -1.65848 0
M  V30 1739 O 169.503 1.59225 -0.891831 0
M  V30 1740 C 169.554 -0.664162 -3.55347 0
M  V30 1741 O 169.275 -2.01829 -3.8884 0
M  V30 1742 C 170.776 -0.295787 -4.42312 0
M  V30 1743 H 167.996 -0.196866 -0.641471 0
M  V30 1744 H 170.54 -1.18117 -1.66939 0
M  V30 1745 H 168.695 -0.0378619 -3.87381 0
M  V30 1746 H 169.109 -2.03174 -4.8355 0
M  V30 1747 H 170.583 -0.456388 -5.5011 0
M  V30 1748 H 171.06 0.765663 -4.32475 0
M  V30 1749 H 171.666 -0.898113 -4.15709 0
M  V30 1750 N 169.982 1.44106 -0.638065 0
M  V30 1751 C 170.945 2.29138 0.0531013 0
M  V30 1752 C 171.945 1.41409 0.765506 0
M  V30 1753 O 173.135 1.63206 0.609046 0
M  V30 1754 C 170.267 3.23144 1.08584 0
M  V30 1755 H 171.46 2.91739 -0.694883 0
M  V30 1756 H 169.013 1.51134 -0.398538 0
M  V30 1757 H 169.748 2.65408 1.86357 0
M  V30 1758 H 169.533 3.87804 0.578852 0
M  V30 1759 H 171.023 3.87004 1.56899 0
M  V30 1760 N 171.46 0.379036 1.52974 0
M  V30 1761 C 172.41 -0.477772 2.22938 0
M  V30 1762 C 173.394 -1.03792 1.22948 0
M  V30 1763 O 174.586 -0.965725 1.48333 0
M  V30 1764 C 171.715 -1.60994 3.03209 0
M  V30 1765 C 170.801 -1.06203 4.10587 0
M  V30 1766 N 171.192 -0.238214 5.05239 0
M  V30 1767 C 169.49 -1.33554 4.25534 0
M  V30 1768 C 170.191 0.0633235 5.81666 0
M  V30 1769 N 169.167 -0.537901 5.40932 0
M  V30 1770 H 172.969 0.158295 2.93473 0
M  V30 1771 H 170.483 0.187778 1.61311 0
M  V30 1772 H 172.48 -2.23607 3.5186 0
M  V30 1773 H 171.14 -2.24893 2.34207 0
M  V30 1774 H 172.151 0.123695 5.17752 0
M  V30 1775 H 168.828 -1.97632 3.6776 0
M  V30 1776 H 170.218 0.730161 6.67921 0
M  V30 1777 N 172.938 -1.57226 0.108567 0
M  V30 1778 C 174.168 -1.9889 -0.559142 0
M  V30 1779 C 174.576 -0.986889 -1.61422 0
M  V30 1780 O 173.919 0.0298705 -1.83676 0
M  V30 1781 C 173.981 -3.36952 -1.25315 0
M  V30 1782 C 173.645 -4.55679 -0.347248 0
M  V30 1783 C 174.642 -5.18281 0.409996 0
M  V30 1784 C 172.327 -5.0162 -0.261367 0
M  V30 1785 C 174.321 -6.25203 1.24096 0
M  V30 1786 C 172.008 -6.08405 0.573238 0
M  V30 1787 C 173.006 -6.70063 1.32304 0
M  V30 1788 O 172.694 -7.74788 2.14381 0
M  V30 1789 H 172.426 -0.658343 -0.153492 0
M  V30 1790 H 174.98 -2.04532 0.188584 0
M  V30 1791 H 173.21 -3.28032 -2.04773 0
M  V30 1792 H 174.899 -3.62974 -1.81673 0
M  V30 1793 H 175.665 -4.8371 0.353457 0
M  V30 1794 H 171.544 -4.53381 -0.834656 0
M  V30 1795 H 175.088 -6.73259 1.82669 0
M  V30 1796 H 170.985 -6.42406 0.631208 0
M  V30 1797 H 171.753 -7.91837 2.07209 0
M  V30 1798 N 174.416 0.165178 -1.56732 0
M  V30 1799 C 175.364 1.22369 -1.97809 0
M  V30 1800 C 176.358 1.45488 -0.867741 0
M  V30 1801 O 177.564 1.45995 -1.05288 0
M  V30 1802 H 173.939 0.411486 -0.629431 0
M  V30 1803 H 175.91 0.850425 -2.86025 0
M  V30 1804 C 174.659 2.55403 -2.35934 0
M  V30 1805 H 173.982 2.38438 -3.20916 0
M  V30 1806 H 175.422 3.2814 -2.68514 0
M  V30 1807 C 173.881 3.14611 -1.20506 0
M  V30 1808 O 174.411 3.98626 -0.496016 0
M  V30 1809 N 172.617 2.7379 -0.97403 0
M  V30 1810 H 172.164 2.0557 -1.55238 0
M  V30 1811 H 172.122 3.1374 -0.203573 0
M  V30 1812 N 175.894 1.51508 0.433938 0
M  V30 1813 C 177.31 1.39759 0.770682 0
M  V30 1814 C 177.51 0.482594 1.95636 0
M  V30 1815 O 176.566 -0.0609691 2.52426 0
M  V30 1816 C 177.879 2.81851 1.04787 0
M  V30 1817 C 179.427 2.91025 1.1521 0
M  V30 1818 C 179.902 4.34032 1.46219 0
M  V30 1819 N 181.393 4.37154 1.53136 0
M  V30 1820 C 182.128 5.4484 1.78709 0
M  V30 1821 N 181.624 6.62682 2.02051 0
M  V30 1822 N 183.417 5.32324 1.80519 0
M  V30 1823 H 175.568 2.09548 -0.346892 0
M  V30 1824 H 177.831 0.943446 -0.0928074 0
M  V30 1825 H 177.537 3.50815 0.249304 0
M  V30 1826 H 177.411 3.21386 1.97461 0
M  V30 1827 H 179.798 2.22257 1.94128 0
M  V30 1828 H 179.879 2.54983 0.204281 0
M  V30 1829 H 179.523 5.03351 0.678274 0
M  V30 1830 H 179.453 4.6759 2.42212 0
M  V30 1831 H 181.944 3.52197 1.36987 0
M  V30 1832 H 182.257 7.40543 2.20943 0
M  V30 1833 H 180.602 6.65791 1.99366 0
M  V30 1834 H 183.793 4.39246 1.61805 0
M  V30 1835 H 183.966 6.16328 2.00111 0
M  V30 1836 N 177.372 -0.689602 1.41712 0
M  V30 1837 C 178.302 -1.81577 1.46806 0
M  V30 1838 C 179.283 -1.66945 0.326105 0
M  V30 1839 O 180.468 -1.86588 0.538377 0
M  V30 1840 C 177.598 -3.19762 1.35535 0
M  V30 1841 C 176.552 -3.49107 2.47605 0
M  V30 1842 C 175.878 -4.86711 2.21397 0
M  V30 1843 C 177.178 -3.47483 3.89939 0
M  V30 1844 H 178.872 -1.7757 2.41058 0
M  V30 1845 H 176.418 -0.852887 1.16025 0
M  V30 1846 H 178.371 -3.98263 1.3771 0
M  V30 1847 H 177.095 -3.24409 0.377708 0
M  V30 1848 H 175.754 -2.72959 2.44722 0
M  V30 1849 H 175.402 -4.8799 1.21961 0
M  V30 1850 H 175.102 -5.0731 2.96497 0
M  V30 1851 H 176.626 -5.67515 2.25297 0
M  V30 1852 H 178.04 -4.1598 3.94505 0
M  V30 1853 H 176.437 -3.79615 4.64771 0
M  V30 1854 H 177.507 -2.46341 4.17665 0
M  V30 1855 N 178.85 -1.27639 -0.924453 0
M  V30 1856 C 179.797 -1.10644 -2.0255 0
M  V30 1857 C 180.767 -0.00658438 -1.66099 0
M  V30 1858 O 181.952 -0.16952 -1.90045 0
M  V30 1859 C 179.092 -0.76309 -3.36557 0
M  V30 1860 C 178.205 -1.94091 -3.85944 0
M  V30 1861 C 177.34 -1.53914 -5.08413 0
M  V30 1862 C 176.379 -2.68425 -5.50104 0
M  V30 1863 N 175.516 -2.28815 -6.63768 0
M  V30 1864 H 180.356 -2.04858 -2.16419 0
M  V30 1865 H 177.893 -1.01974 -1.06017 0
M  V30 1866 H 179.851 -0.544822 -4.13627 0
M  V30 1867 H 178.481 0.142102 -3.22487 0
M  V30 1868 H 177.533 -2.27162 -3.05125 0
M  V30 1869 H 178.845 -2.7998 -4.12811 0
M  V30 1870 H 177.999 -1.28231 -5.92994 0
M  V30 1871 H 176.738 -0.651391 -4.8333 0
M  V30 1872 H 175.743 -2.94819 -4.64071 0
M  V30 1873 H 176.968 -3.57826 -5.7718 0
M  V30 1874 H 174.914 -1.42495 -6.40337 0
M  V30 1875 H 174.831 -3.08242 -6.90306 0
M  V30 1876 H 176.099 -2.06387 -7.51681 0
M  V30 1877 N 180.328 1.1314 -1.09713 0
M  V30 1878 C 181.558 1.88048 -0.855656 0
M  V30 1879 C 181.966 1.79537 0.596919 0
M  V30 1880 O 181.309 1.16196 1.42282 0
M  V30 1881 C 181.371 3.38314 -1.21589 0
M  V30 1882 C 181.035 3.70605 -2.67397 0
M  V30 1883 C 182.032 3.69596 -3.65643 0
M  V30 1884 C 179.717 4.0017 -3.03593 0
M  V30 1885 C 181.711 3.977 -4.9811 0
M  V30 1886 C 179.398 4.27935 -4.36251 0
M  V30 1887 C 180.396 4.26685 -5.33318 0
M  V30 1888 O 180.084 4.53767 -6.63589 0
M  V30 1889 H 179.816 0.60208 -0.307368 0
M  V30 1890 H 182.37 1.44128 -1.46343 0
M  V30 1891 H 180.6 3.82752 -0.551177 0
M  V30 1892 H 182.289 3.94552 -0.953083 0
M  V30 1893 H 183.055 3.46826 -3.39023 0
M  V30 1894 H 178.934 4.00289 -2.2867 0
M  V30 1895 H 182.478 3.9664 -5.73866 0
M  V30 1896 H 178.375 4.50178 -4.62613 0
M  V30 1897 H 179.143 4.71422 -6.69107 0
M  V30 1898 N 181.806 0.884767 1.30421 0
M  V30 1899 C 183.222 0.57874 1.48737 0
M  V30 1900 C 183.422 -0.883567 1.81095 0
M  V30 1901 O 182.478 -1.6648 1.89844 0
M  V30 1902 C 183.791 1.49171 2.61091 0
M  V30 1903 C 185.339 1.49532 2.74971 0
M  V30 1904 C 185.814 2.39421 3.90438 0
M  V30 1905 N 187.305 2.37383 3.97748 0
M  V30 1906 C 188.04 3.03647 4.86401 0
M  V30 1907 N 187.536 3.79136 5.79852 0
M  V30 1908 N 189.329 2.9288 4.79768 0
M  V30 1909 H 181.48 1.83075 1.0769 0
M  V30 1910 H 183.743 0.783637 0.533495 0
M  V30 1911 H 183.449 2.53291 2.44001 0
M  V30 1912 H 183.323 1.20113 3.57565 0
M  V30 1913 H 185.71 0.46163 2.91467 0
M  V30 1914 H 185.791 1.8262 1.79119 0
M  V30 1915 H 185.435 3.42874 3.74699 0
M  V30 1916 H 185.365 2.03649 4.85628 0
M  V30 1917 H 187.856 1.82525 3.30897 0
M  V30 1918 H 188.169 4.26789 6.4426 0
M  V30 1919 H 186.514 3.83243 5.79784 0
M  V30 1920 H 189.705 2.33433 4.05742 0
M  V30 1921 H 189.878 3.448 5.4865 0
M  V30 1922 N 183.284 -1.43765 0.645699 0
M  V30 1923 C 184.532 -2.01499 0.155731 0
M  V30 1924 C 184.853 -1.51151 -1.232 0
M  V30 1925 O 184.123 -0.721044 -1.82148 0
M  V30 1926 H 182.703 -0.745003 0.0545817 0
M  V30 1927 H 185.365 -1.76075 0.835677 0
M  V30 1928 H 184.461 -3.1181 0.134577 0
M  V30 1929 N 184.763 -0.387143 -1.52771 0
M  V30 1930 C 186.179 -0.037007 -1.59557 0
M  V30 1931 C 186.379 1.44801 -1.40124 0
M  V30 1932 O 185.435 2.21227 -1.21716 0
M  V30 1933 C 186.748 -0.512256 -2.96305 0
M  V30 1934 C 188.296 -0.468328 -3.09476 0
M  V30 1935 C 188.771 -0.919731 -4.4867 0
M  V30 1936 N 190.262 -0.875656 -4.54848 0
M  V30 1937 C 190.997 -1.19637 -5.6078 0
M  V30 1938 N 190.493 -1.58745 -6.74368 0
M  V30 1939 N 192.286 -1.11776 -5.50874 0
M  V30 1940 H 184.437 -1.35395 -1.63652 0
M  V30 1941 H 186.7 -0.554818 -0.768688 0
M  V30 1942 H 186.406 -1.54935 -3.15734 0
M  V30 1943 H 186.28 0.089805 -3.77093 0
M  V30 1944 H 188.667 0.559671 -2.89744 0
M  V30 1945 H 188.748 -1.10616 -2.30646 0
M  V30 1946 H 188.392 -1.94595 -4.69143 0
M  V30 1947 H 188.322 -0.258927 -5.25963 0
M  V30 1948 H 190.813 -0.587843 -3.733 0
M  V30 1949 H 191.126 -1.81586 -7.51163 0
M  V30 1950 H 189.471 -1.6263 -6.75705 0
M  V30 1951 H 192.662 -0.811264 -4.61016 0
M  V30 1952 H 192.835 -1.37103 -6.3333 0
M  V30 1953 N 186.241 1.57166 -0.116904 0
M  V30 1954 C 187.188 2.15202 0.83408 0
M  V30 1955 C 188.158 1.07644 1.26499 0
M  V30 1956 O 189.343 1.35541 1.34288 0
M  V30 1957 C 186.483 2.75405 2.07957 0
M  V30 1958 C 185.596 3.97264 1.69721 0
M  V30 1959 C 184.731 4.45561 2.89221 0
M  V30 1960 C 183.77 5.59956 2.47215 0
M  V30 1961 N 182.907 6.03006 3.59622 0
M  V30 1962 H 187.747 2.96141 0.332335 0
M  V30 1963 H 185.284 1.46309 0.152349 0
M  V30 1964 H 187.242 3.08439 2.80929 0
M  V30 1965 H 185.872 1.97159 2.55594 0
M  V30 1966 H 184.924 3.70404 0.866316 0
M  V30 1967 H 186.236 4.80226 1.34849 0
M  V30 1968 H 185.39 4.80493 3.7042 0
M  V30 1969 H 184.129 3.61544 3.27318 0
M  V30 1970 H 183.134 5.2463 1.64448 0
M  V30 1971 H 184.359 6.45738 2.10238 0
M  V30 1972 H 182.305 5.21931 3.97396 0
M  V30 1973 H 182.222 6.80819 3.28667 0
M  V30 1974 H 183.49 6.42576 4.41267 0
M  V30 1975 N 187.719 -0.156864 1.56817 0
M  V30 1976 C 188.949 -0.885031 1.86684 0
M  V30 1977 C 189.357 -1.75696 0.701954 0
M  V30 1978 O 188.7 -1.80569 -0.337732 0
M  V30 1979 C 188.762 -1.80092 3.11138 0
M  V30 1980 C 188.426 -1.10714 4.43386 0
M  V30 1981 C 189.423 -0.465714 5.1781 0
M  V30 1982 C 187.108 -1.09959 4.90117 0
M  V30 1983 C 189.102 0.174002 6.37162 0
M  V30 1984 C 186.789 -0.456055 6.09396 0
M  V30 1985 C 187.787 0.179622 6.82764 0
M  V30 1986 O 187.475 0.812975 7.99779 0
M  V30 1987 H 187.207 -0.261813 0.623242 0
M  V30 1988 H 189.761 -0.157383 2.04796 0
M  V30 1989 H 187.991 -2.56926 2.89009 0
M  V30 1990 H 189.68 -2.40018 3.27332 0
M  V30 1991 H 190.446 -0.463427 4.82781 0
M  V30 1992 H 186.325 -1.58378 4.3294 0
M  V30 1993 H 189.869 0.670765 6.94368 0
M  V30 1994 H 185.766 -0.455975 6.43888 0
M  V30 1995 H 186.534 0.71366 8.15383 0
M  V30 1996 N 189.197 -1.51736 -0.425897 0
M  V30 1997 C 190.129 -1.70083 -1.53638 0
M  V30 1998 C 191.142 -0.581349 -1.52066 0
M  V30 1999 O 192.331 -0.856017 -1.56635 0
M  V30 2000 C 189.431 -1.71078 -2.9255 0
M  V30 2001 C 188.604 -2.99795 -3.185 0
M  V30 2002 C 187.663 -2.92825 -4.37196 0
M  V30 2003 O 186.689 -3.66756 -4.35291 0
M  V30 2004 N 187.891 -2.0946 -5.41393 0
M  V30 2005 H 190.656 -2.65882 -1.383 0
M  V30 2006 H 188.217 -1.49765 -0.614988 0
M  V30 2007 H 190.209 -1.63969 -3.69995 0
M  V30 2008 H 188.779 -0.828242 -3.01428 0
M  V30 2009 H 187.999 -3.20684 -2.2925 0
M  V30 2010 H 189.287 -3.84977 -3.32671 0
M  V30 2011 H 188.685 -1.48792 -5.45781 0
M  V30 2012 H 187.242 -2.08221 -6.17647 0
M  V30 2013 N 190.675 0.682077 -1.42076 0
M  V30 2014 C 191.923 1.4393 -1.41876 0
M  V30 2015 C 192.244 1.94971 -0.0335599 0
M  V30 2016 O 191.514 1.72591 0.926773 0
M  V30 2017 H 190.094 0.534085 -0.522267 0
M  V30 2018 H 192.756 0.806427 -1.77434 0
M  V30 2019 H 191.852 2.29588 -2.11414 0
M  V30 2020 N 192.153 1.28127 0.917671 0
M  V30 2021 C 193.381 1.17892 1.70026 0
M  V30 2022 C 193.796 -0.262958 1.8696 0
M  V30 2023 O 193.153 -1.17811 1.3938 0
M  V30 2024 C 193.204 1.86872 3.09453 0
M  V30 2025 O 192.925 3.25428 2.93306 0
M  V30 2026 C 194.426 1.8289 4.03815 0
M  V30 2027 H 191.646 0.40942 0.531617 0
M  V30 2028 H 194.19 1.69181 1.14883 0
M  V30 2029 H 192.345 1.39464 3.61426 0
M  V30 2030 H 192.759 3.59918 3.81523 0
M  V30 2031 H 194.233 2.35751 4.99125 0
M  V30 2032 H 194.71 0.800412 4.31845 0
M  V30 2033 H 195.316 2.29959 3.57769 0
M  V30 2034 N 193.631 -1.12557 1.10312 0
M  V30 2035 C 194.879 -1.83675 0.843091 0
M  V30 2036 C 195.2 -1.84435 -0.633131 0
M  V30 2037 O 194.47 -1.30657 -1.45964 0
M  V30 2038 H 193.05 -0.680138 0.308904 0
M  V30 2039 H 195.712 -1.36301 1.39313 0
M  V30 2040 H 194.808 -2.87908 1.2048 0
M  V30 2041 N 195.109 -0.891671 -1.2995 0
M  V30 2042 C 196.358 -0.509521 -1.95158 0
M  V30 2043 C 196.671 0.947388 -1.71125 0
M  V30 2044 O 197.877 1.43669 -2.30372 0
M  V30 2045 C 196.333 -0.860315 -3.49466 0
M  V30 2046 C 195.941 -2.33545 -3.8231 0
M  V30 2047 C 197.685 -0.547687 -4.20952 0
M  V30 2048 C 195.592 -2.62752 -5.29826 0
M  V30 2049 H 194.522 -0.18682 -0.730489 0
M  V30 2050 H 197.173 -1.08756 -1.47798 0
M  V30 2051 H 195.555 -0.211285 -3.95436 0
M  V30 2052 H 196.729 -3.02936 -3.47227 0
M  V30 2053 H 195.044 -2.61629 -3.23944 0
M  V30 2054 H 197.641 -0.742854 -5.29515 0
M  V30 2055 H 197.984 0.51332 -4.13123 0
M  V30 2056 H 198.517 -1.1542 -3.80688 0
M  V30 2057 H 195.256 -3.6762 -5.42712 0
M  V30 2058 H 194.776 -1.97977 -5.66185 0
M  V30 2059 H 196.455 -2.48601 -5.97333 0
M  V30 2060 N 196.587 1.43421 -0.653314 0
M  V30 2061 C 197.836 2.01032 -0.164076 0
M  V30 2062 C 198.149 1.52147 1.22926 0
M  V30 2063 O 199.355 2.02031 1.81371 0
M  V30 2064 C 197.811 3.59082 -0.24252 0
M  V30 2065 C 197.419 4.1696 -1.63855 0
M  V30 2066 C 199.163 4.24079 0.18911 0
M  V30 2067 C 197.07 5.67304 -1.67092 0
M  V30 2068 H 196 0.751798 -0.0575769 0
M  V30 2069 H 198.651 1.6439 -0.815362 0
M  V30 2070 H 197.033 3.93125 0.476276 0
M  V30 2071 H 198.207 3.94416 -2.38271 0
M  V30 2072 H 196.522 3.64335 -2.01616 0
M  V30 2073 H 199.119 5.34381 0.184775 0
M  V30 2074 H 199.462 3.98005 1.22056 0
M  V30 2075 H 199.995 3.94918 -0.477938 0
M  V30 2076 H 196.734 5.98145 -2.68146 0
M  V30 2077 H 196.254 5.91904 -0.970014 0
M  V30 2078 H 197.933 6.31344 -1.4147 0
M  V30 2079 N 198.065 0.39524 1.52563 0
M  V30 2080 C 199.313 -0.184678 2.01254 0
M  V30 2081 C 199.634 -1.46822 1.28329 0
M  V30 2082 O 198.904 -1.91666 0.405094 0
M  V30 2083 H 197.484 -0.0712355 0.743596 0
M  V30 2084 H 200.146 0.528293 1.87603 0
M  V30 2085 H 199.242 -0.390681 3.09645 0
M  V30 2086 N 199.544 -1.57102 0.125237 0
M  V30 2087 C 200.79 -1.95697 -0.532035 0
M  V30 2088 C 201.123 -1.009 -1.6593 0
M  V30 2089 O 200.398 -0.047347 -1.94442 0
M  V30 2090 C 200.681 -3.44181 -1.05884 0
M  V30 2091 C 200.534 -4.49752 0.0654392 0
M  V30 2092 C 201.853 -3.94655 -1.9477 0
M  V30 2093 H 198.972 -0.711571 -0.191925 0
M  V30 2094 H 201.614 -1.88923 0.20206 0
M  V30 2095 H 199.764 -3.50085 -1.68442 0
M  V30 2096 H 201.436 -4.55943 0.700982 0
M  V30 2097 H 199.679 -4.27653 0.727709 0
M  V30 2098 H 200.35 -5.50924 -0.344505 0
M  V30 2099 H 202.826 -3.91094 -1.42074 0
M  V30 2100 H 201.702 -4.99057 -2.28546 0
M  V30 2101 H 201.963 -3.35718 -2.87656 0
M  V30 2102 N 201.022 0.148545 -1.56898 0
M  V30 2103 C 202.27 0.859717 -1.82902 0
M  V30 2104 C 202.591 1.81775 -0.70588 0
M  V30 2105 O 201.861 1.93994 0.272586 0
M  V30 2106 H 200.441 0.320469 -0.674766 0
M  V30 2107 H 203.103 0.142918 -1.94375 0
M  V30 2108 H 202.199 1.4229 -2.77777 0
M  V30 2109 N 202.5 1.5196 0.417844 0
M  V30 2110 C 203.748 1.65263 1.16329 0
M  V30 2111 C 204.069 0.380634 1.91249 0
M  V30 2112 O 203.339 -0.604214 1.86349 0
M  V30 2113 H 201.919 0.60912 0.432414 0
M  V30 2114 H 204.581 1.88969 0.477162 0
M  V30 2115 H 203.677 2.4896 1.88217 0
M  V30 2116 N 203.978 -0.674533 1.42435 0
M  V30 2117 C 204.926 -1.80934 1.46169 0
M  V30 2118 C 205.92 -1.66006 0.3374 0
M  V30 2119 O 207.126 -1.72611 0.510425 0
M  V30 2120 H 203.501 -0.596594 0.457798 0
M  V30 2121 H 205.472 -1.74903 2.41767 0
M  V30 2122 C 204.221 -3.19088 1.38123 0
M  V30 2123 H 203.544 -3.31203 2.23931 0
M  V30 2124 H 204.984 -3.9851 1.44797 0
M  V30 2125 C 203.443 -3.36763 0.0960517 0
M  V30 2126 O 203.973 -3.92581 -0.851073 0
M  V30 2127 N 202.179 -2.90597 0.0131186 0
M  V30 2128 H 201.726 -2.45359 0.784639 0
M  V30 2129 H 201.684 -3.028 -0.846133 0
M  V30 2130 N 205.456 -1.28612 -0.910864 0
M  V30 2131 C 206.702 -1.16106 -1.66274 0
M  V30 2132 C 207.035 0.289113 -1.92036 0
M  V30 2133 O 206.31 1.21 -1.52281 0
M  V30 2134 C 206.593 -1.96309 -3.01885 0
M  V30 2135 C 206.446 -3.49405 -2.8326 0
M  V30 2136 C 207.765 -1.78076 -4.02463 0
M  V30 2137 H 204.884 -0.423152 -0.603417 0
M  V30 2138 H 207.526 -1.57961 -1.05586 0
M  V30 2139 H 205.676 -1.60742 -3.53687 0
M  V30 2140 H 207.348 -3.94894 -2.38446 0
M  V30 2141 H 205.591 -3.74893 -2.18261 0
M  V30 2142 H 206.262 -4.00784 -3.79574 0
M  V30 2143 H 208.738 -2.0912 -3.59733 0
M  V30 2144 H 207.614 -2.36561 -4.95308 0
M  V30 2145 H 207.875 -0.733008 -4.35981 0
M  V30 2146 N 206.934 1.1197 -1.10907 0
M  V30 2147 C 207.844 2.21433 -0.774896 0
M  V30 2148 C 208.86 1.72478 0.229657 0
M  V30 2149 O 210.036 2.01288 0.0672008 0
M  V30 2150 C 207.101 3.4602 -0.216986 0
M  V30 2151 C 206.162 4.09791 -1.27944 0
M  V30 2152 C 205.395 5.28431 -0.748055 0
M  V30 2153 O 205.618 5.68823 0.423833 0
M  V30 2154 O 204.552 5.82644 -1.51027 0
M  V30 2155 H 208.378 2.5242 -1.68873 0
M  V30 2156 H 205.963 1.20399 -0.884555 0
M  V30 2157 H 207.845 4.21304 0.090059 0
M  V30 2158 H 206.52 3.16698 0.669633 0
M  V30 2159 H 205.427 3.36265 -1.63941 0
M  V30 2160 H 206.76 4.4328 -2.13925 0
M  V30 2161 N 208.412 0.89855 1.29475 0
M  V30 2162 C 209.64 0.539261 1.99749 0
M  V30 2163 C 210.055 -0.875716 1.67262 0
M  V30 2164 O 209.412 -1.57786 0.917049 0
M  V30 2165 C 209.463 0.72061 3.54245 0
M  V30 2166 O 209.184 2.07989 3.8558 0
M  V30 2167 C 210.685 0.366118 4.41786 0
M  V30 2168 H 207.905 0.207047 0.638258 0
M  V30 2169 H 210.449 1.20758 1.65039 0
M  V30 2170 H 208.604 0.0994862 3.87272 0
M  V30 2171 H 209.018 2.10841 4.80257 0
M  V30 2172 H 210.492 0.543848 5.49314 0
M  V30 2173 H 210.969 -0.696763 4.33638 0
M  V30 2174 H 211.575 0.964135 4.14228 0
M  V30 2175 N 209.89 -1.43072 0.660911 0
M  V30 2176 C 211.137 -2.01721 0.177445 0
M  V30 2177 C 211.465 -1.5218 -1.21126 0
M  V30 2178 O 210.72 -0.708659 -1.82419 0
M  V30 2179 C 211.019 -3.57103 0.145563 0
M  V30 2180 C 210.685 -4.26021 1.47705 0
M  V30 2181 C 209.347 -4.44563 1.84165 0
M  V30 2182 C 211.699 -4.64983 2.35458 0
M  V30 2183 C 209.027 -4.99334 3.0803 0
M  V30 2184 C 211.379 -5.21127 3.58622 0
M  V30 2185 C 210.043 -5.37884 3.95268 0
M  V30 2186 H 209.313 -0.73815 0.0649317 0
M  V30 2187 H 211.96 -1.71446 0.853144 0
M  V30 2188 H 210.265 -3.86965 -0.61361 0
M  V30 2189 H 211.962 -4.00248 -0.2455 0
M  V30 2190 H 208.552 -4.11939 1.18339 0
M  V30 2191 H 212.736 -4.50343 2.08579 0
M  V30 2192 H 207.992 -5.10493 3.36462 0
M  V30 2193 H 212.166 -5.50262 4.26831 0
M  V30 2194 H 209.793 -5.80089 4.91325 0
M  V30 2195 N 211.368 -0.403325 -1.52352 0
M  V30 2196 C 212.593 0.176499 -2.06648 0
M  V30 2197 C 213.018 1.38577 -1.27193 0
M  V30 2198 O 212.376 1.7879 -0.300637 0
M  V30 2199 C 212.424 0.511061 -3.5696 0
M  V30 2200 O 211.528 1.60294 -3.79973 0
M  V30 2201 H 210.869 0.0167337 -0.663789 0
M  V30 2202 H 213.399 -0.574848 -1.96359 0
M  V30 2203 H 213.409 0.771362 -4.00642 0
M  V30 2204 H 212.084 -0.37296 -4.14224 0
M  V30 2205 H 210.661 1.33526 -3.48174 0
M  V30 2206 N 212.846 1.57033 -0.133567 0
M  V30 2207 C 214.074 2.00044 0.528195 0
M  V30 2208 C 214.489 1.01349 1.59291 0
M  V30 2209 O 213.846 0.00848369 1.82498 0
M  V30 2210 C 213.897 3.43018 1.1411 0
M  V30 2211 O 213.618 4.37939 0.11892 0
M  V30 2212 C 215.119 4.01237 1.88477 0
M  V30 2213 H 212.339 0.656517 0.138661 0
M  V30 2214 H 214.883 2.03267 -0.224196 0
M  V30 2215 H 213.038 3.40688 1.84418 0
M  V30 2216 H 213.452 5.21436 0.56613 0
M  V30 2217 H 214.926 5.03314 2.26669 0
M  V30 2218 H 215.403 3.41193 2.76558 0
M  V30 2219 H 216.009 4.07156 1.22898 0
M  V30 2220 N 214.325 -0.140222 1.56975 0
M  V30 2221 C 215.736 -0.699596 1.73097 0
M  V30 2222 C 216.087 -1.8134 0.749022 0
M  V30 2223 O 215.212 -2.16241 -0.0828503 0
M  V30 2224 C 215.807 -1.27582 3.1386 0
M  V30 2225 C 214.366 -1.78169 3.31561 0
M  V30 2226 C 213.513 -0.672855 2.69013 0
M  V30 2227 H 216.464 0.0855115 1.58469 0
M  V30 2228 H 216.485 -2.14561 3.14235 0
M  V30 2229 H 215.997 -0.464955 3.85305 0
M  V30 2230 H 214.098 -2.61801 2.65124 0
M  V30 2231 H 214.211 -1.90574 4.39566 0
M  V30 2232 H 212.575 -1.10118 2.29665 0
M  V30 2233 H 213.358 0.126679 3.43066 0
M  V30 2234 N 215.803 -1.52179 -0.40978 0
M  V30 2235 C 217.049 -1.66453 -1.15851 0
M  V30 2236 C 217.382 -0.392972 -1.90182 0
M  V30 2237 O 216.657 0.608579 -1.84734 0
M  V30 2238 C 216.94 -2.88612 -2.15349 0
M  V30 2239 C 216.793 -4.25815 -1.44918 0
M  V30 2240 C 218.112 -3.06294 -3.16026 0
M  V30 2241 H 215.231 -0.60575 -0.419805 0
M  V30 2242 H 217.873 -1.84732 -0.444314 0
M  V30 2243 H 216.023 -2.73158 -2.76255 0
M  V30 2244 H 217.695 -4.52995 -0.871365 0
M  V30 2245 H 215.938 -4.27247 -0.751159 0
M  V30 2246 H 216.609 -5.07337 -2.17516 0
M  V30 2247 H 219.085 -3.20641 -2.65195 0
M  V30 2248 H 217.961 -3.93283 -3.8291 0
M  V30 2249 H 218.222 -2.19579 -3.83715 0
M  V30 2250 N 217.281 0.66697 -1.42791 0
M  V30 2251 C 218.509 1.45505 -1.47091 0
M  V30 2252 C 218.924 1.8861 -0.0845873 0
M  V30 2253 O 218.281 1.58632 0.90234 0
M  V30 2254 C 218.332 2.69906 -2.40485 0
M  V30 2255 O 218.053 2.28608 -3.73725 0
M  V30 2256 C 219.554 3.63396 -2.53886 0
M  V30 2257 H 216.774 0.447459 -0.500022 0
M  V30 2258 H 219.318 0.818866 -1.8739 0
M  V30 2259 H 217.473 3.29696 -2.03419 0
M  V30 2260 H 217.887 3.08997 -4.23817 0
M  V30 2261 H 219.361 4.47387 -3.2334 0
M  V30 2262 H 219.838 4.09824 -1.57927 0
M  V30 2263 H 220.444 3.09495 -2.91706 0
M  V30 2264 N 218.759 1.29093 0.90403 0
M  V30 2265 C 220.008 1.16187 1.64874 0
M  V30 2266 C 220.321 -0.286742 1.93487 0
M  V30 2267 O 221.527 -0.537062 2.66135 0
M  V30 2268 C 219.983 2.03177 2.97064 0
M  V30 2269 C 219.591 3.52836 2.76062 0
M  V30 2270 C 221.335 1.98984 3.74974 0
M  V30 2271 C 219.242 4.31945 4.03952 0
M  V30 2272 H 218.172 0.431246 0.618501 0
M  V30 2273 H 220.823 1.53699 1.00243 0
M  V30 2274 H 219.205 1.5853 3.62883 0
M  V30 2275 H 220.379 4.05507 2.18863 0
M  V30 2276 H 218.694 3.58656 2.11553 0
M  V30 2277 H 221.291 2.55351 4.69787 0
M  V30 2278 H 221.634 0.968815 4.0487 0
M  V30 2279 H 222.167 2.41652 3.15989 0
M  V30 2280 H 218.906 5.34667 3.79225 0
M  V30 2281 H 218.426 3.84045 4.60727 0
M  V30 2282 H 220.105 4.42379 4.72133 0
M  V30 2283 N 220.237 -1.11381 1.11499 0
M  V30 2284 C 221.184 -2.17439 0.773887 0
M  V30 2285 C 222.154 -1.64132 -0.254899 0
M  V30 2286 O 223.339 -1.90345 -0.13168 0
M  V30 2287 C 220.479 -3.44373 0.223917 0
M  V30 2288 C 219.592 -4.1168 1.30934 0
M  V30 2289 C 218.727 -5.263 0.71984 0
M  V30 2290 C 217.766 -5.85493 1.78507 0
M  V30 2291 N 216.903 -6.91507 1.21502 0
M  V30 2292 H 221.743 -2.45962 1.68246 0
M  V30 2293 H 219.28 -1.20744 0.840191 0
M  V30 2294 H 221.238 -4.17047 -0.112921 0
M  V30 2295 H 219.868 -3.16232 -0.647851 0
M  V30 2296 H 218.92 -3.37073 1.76312 0
M  V30 2297 H 220.232 -4.51729 2.11524 0
M  V30 2298 H 219.386 -6.05785 0.333094 0
M  V30 2299 H 218.125 -4.87559 -0.117377 0
M  V30 2300 H 217.13 -5.04686 2.18111 0
M  V30 2301 H 218.355 -6.26301 2.62533 0
M  V30 2302 H 216.301 -6.54783 0.399455 0
M  V30 2303 H 216.218 -7.30214 1.95763 0
M  V30 2304 H 217.486 -7.74795 0.855181 0
M  V30 2305 N 221.715 -0.905404 -1.28997 0
M  V30 2306 C 222.662 -0.385892 -2.27551 0
M  V30 2307 C 223.632 0.535113 -1.57244 0
M  V30 2308 O 224.817 0.459119 -1.85194 0
M  V30 2309 C 221.957 0.375461 -3.43051 0
M  V30 2310 C 221.07 -0.577092 -4.28128 0
M  V30 2311 C 220.205 0.201879 -5.30816 0
M  V30 2312 C 219.244 -0.744829 -6.07551 0
M  V30 2313 N 218.381 9.42587e-05 -7.021 0
M  V30 2314 H 223.221 -1.23139 -2.71368 0
M  V30 2315 H 220.758 -0.618542 -1.33463 0
M  V30 2316 H 222.716 0.832992 -4.088 0
M  V30 2317 H 221.346 1.18537 -3.00248 0
M  V30 2318 H 220.398 -1.15315 -3.62501 0
M  V30 2319 H 221.71 -1.30152 -4.8152 0
M  V30 2320 H 220.864 0.720351 -6.02408 0
M  V30 2321 H 219.603 0.959413 -4.7817 0
M  V30 2322 H 218.608 -1.27475 -5.34818 0
M  V30 2323 H 219.833 -1.50178 -6.62286 0
M  V30 2324 H 217.779 0.739791 -6.51815 0
M  V30 2325 H 217.696 -0.664321 -7.53076 0
M  V30 2326 H 218.964 0.498644 -7.77903 0
M  V30 2327 N 223.193 1.4272 -0.668489 0
M  V30 2328 C 224.14 2.30796 0.0137489 0
M  V30 2329 C 225.11 1.4561 0.799177 0
M  V30 2330 O 226.295 1.74453 0.772702 0
M  V30 2331 C 223.435 3.31377 0.963507 0
M  V30 2332 C 222.548 4.31655 0.172569 0
M  V30 2333 C 221.683 5.19312 1.1175 0
M  V30 2334 C 220.722 6.11274 0.317886 0
M  V30 2335 N 219.859 6.91504 1.2152 0
M  V30 2336 H 224.699 2.88585 -0.743161 0
M  V30 2337 H 222.236 1.42154 -0.378226 0
M  V30 2338 H 224.194 3.88214 1.52792 0
M  V30 2339 H 222.824 2.75202 1.68712 0
M  V30 2340 H 221.876 3.76988 -0.508374 0
M  V30 2341 H 223.188 4.96779 -0.448527 0
M  V30 2342 H 222.342 5.80851 1.75206 0
M  V30 2343 H 221.081 4.5435 1.77249 0
M  V30 2344 H 220.086 5.48809 -0.329918 0
M  V30 2345 H 221.311 6.78283 -0.332917 0
M  V30 2346 H 219.257 6.29176 1.85671 0
M  V30 2347 H 219.174 7.53209 0.649036 0
M  V30 2348 H 220.442 7.57535 1.83742 0
M  V30 2349 N 224.671 0.411399 1.52136 0
M  V30 2350 C 225.919 -0.163322 2.01439 0
M  V30 2351 C 226.24 -1.45453 1.29879 0
M  V30 2352 O 225.51 -1.91225 0.4254 0
M  V30 2353 H 224.09 -0.0633447 0.744309 0
M  V30 2354 H 226.752 0.548161 1.87033 0
M  V30 2355 H 225.848 -0.357817 3.10042 0
M  V30 2356 N 226.149 -1.5696 0.141893 0
M  V30 2357 C 227.565 -1.58151 -0.21456 0
M  V30 2358 C 227.765 -1.1559 -1.65049 0
M  V30 2359 O 226.821 -0.853832 -2.37626 0
M  V30 2360 C 228.134 -3.00674 0.0395576 0
M  V30 2361 C 229.682 -3.1299 -0.0245529 0
M  V30 2362 C 230.157 -4.57554 0.202167 0
M  V30 2363 N 231.648 -4.62961 0.148919 0
M  V30 2364 C 232.383 -5.7262 0.298924 0
M  V30 2365 N 231.879 -6.90947 0.50637 0
M  V30 2366 N 233.672 -5.61601 0.236886 0
M  V30 2367 H 225.823 -1.8292 1.07953 0
M  V30 2368 H 228.086 -0.846425 0.42693 0
M  V30 2369 H 227.792 -3.36183 1.03315 0
M  V30 2370 H 227.666 -3.70981 -0.682143 0
M  V30 2371 H 230.053 -2.77326 -1.00869 0
M  V30 2372 H 230.134 -2.4518 0.729396 0
M  V30 2373 H 229.778 -4.93922 1.18338 0
M  V30 2374 H 229.708 -5.23484 -0.572044 0
M  V30 2375 H 232.199 -3.77899 -0.00697015 0
M  V30 2376 H 232.512 -7.7038 0.611076 0
M  V30 2377 H 230.857 -6.92878 0.542628 0
M  V30 2378 H 234.048 -4.68039 0.0756209 0
M  V30 2379 H 234.221 -6.47015 0.357227 0
M  V30 2380 N 227.627 0.131896 -1.57047 0
M  V30 2381 C 228.577 1.1679 -1.95816 0
M  V30 2382 C 229.561 1.37756 -0.831393 0
M  V30 2383 O 230.753 1.39065 -1.09499 0
M  V30 2384 C 227.882 2.49778 -2.35512 0
M  V30 2385 C 226.968 2.32342 -3.54793 0
M  V30 2386 N 227.359 1.8469 -4.70875 0
M  V30 2387 C 225.657 2.63043 -3.60173 0
M  V30 2388 C 226.358 1.80656 -5.52936 0
M  V30 2389 N 225.334 2.24528 -4.95064 0
M  V30 2390 H 229.136 0.791818 -2.83033 0
M  V30 2391 H 226.65 0.339791 -1.58805 0
M  V30 2392 H 228.647 3.24692 -2.61498 0
M  V30 2393 H 227.307 2.88156 -1.49654 0
M  V30 2394 H 228.318 1.54429 -4.9434 0
M  V30 2395 H 224.995 3.05193 -2.84892 0
M  V30 2396 H 226.385 1.45178 -6.56028 0
M  V30 2397 N 229.106 1.52395 0.401703 0
M  V30 2398 C 230.355 1.66044 1.14509 0
M  V30 2399 C 230.668 0.400216 1.91462 0
M  V30 2400 O 231.874 0.416632 2.68284 0
M  V30 2401 C 230.33 2.93388 2.0845 0
M  V30 2402 C 229.938 4.26545 1.36978 0
M  V30 2403 C 231.682 3.16402 2.83001 0
M  V30 2404 C 229.589 5.45007 2.29611 0
M  V30 2405 H 228.519 0.618562 0.431158 0
M  V30 2406 H 231.17 1.78886 0.40892 0
M  V30 2407 H 229.552 2.74263 2.8565 0
M  V30 2408 H 230.726 4.56179 0.650916 0
M  V30 2409 H 229.041 4.09692 0.74438 0
M  V30 2410 H 231.638 4.02085 3.52465 0
M  V30 2411 H 231.981 2.30943 3.46368 0
M  V30 2412 H 232.514 3.36034 2.12898 0
M  V30 2413 H 229.253 6.32835 1.70879 0
M  V30 2414 H 228.773 5.19702 2.9945 0
M  V30 2415 H 230.452 5.7838 2.89974 0
M  V30 2416 N 230.584 -0.659388 1.43143 0
M  V30 2417 C 231.531 -1.77249 1.47822 0
M  V30 2418 C 232.501 -1.62818 0.328558 0
M  V30 2419 O 233.686 -1.83151 0.534838 0
M  V30 2420 C 230.826 -3.15371 1.40126 0
M  V30 2421 C 229.939 -3.4098 2.65249 0
M  V30 2422 C 229.074 -4.68915 2.49584 0
M  V30 2423 C 228.113 -4.87608 3.70006 0
M  V30 2424 N 227.25 -6.06796 3.53189 0
M  V30 2425 H 232.09 -1.72584 2.42938 0
M  V30 2426 H 229.627 -0.842297 1.20598 0
M  V30 2427 H 231.585 -3.9521 1.33659 0
M  V30 2428 H 230.215 -3.19121 0.485964 0
M  V30 2429 H 229.267 -2.55282 2.8202 0
M  V30 2430 H 230.579 -3.50681 3.54717 0
M  V30 2431 H 229.733 -5.56871 2.4079 0
M  V30 2432 H 228.472 -4.61524 1.5763 0
M  V30 2433 H 227.477 -3.9809 3.79215 0
M  V30 2434 H 228.702 -4.96834 4.62961 0
M  V30 2435 H 226.648 -6.00549 2.63965 0
M  V30 2436 H 226.565 -6.17428 4.36255 0
M  V30 2437 H 227.833 -6.9739 3.48236 0
M  V30 2438 N 232.062 -1.29571 -0.897171 0
M  V30 2439 C 233.29 -1.20583 -1.68129 0
M  V30 2440 C 233.705 0.233181 -1.87354 0
M  V30 2441 O 233.062 1.15579 -1.41236 0
M  V30 2442 C 233.113 -1.91772 -3.06441 0
M  V30 2443 O 232.834 -3.30053 -2.88091 0
M  V30 2444 C 234.335 -1.89291 -4.00854 0
M  V30 2445 H 231.555 -0.417826 -0.525036 0
M  V30 2446 H 234.099 -1.70987 -1.12177 0
M  V30 2447 H 232.254 -1.45196 -3.59161 0
M  V30 2448 H 232.668 -3.65942 -3.75748 0
M  V30 2449 H 234.142 -2.43662 -4.95311 0
M  V30 2450 H 234.619 -0.869014 -4.30517 0
M  V30 2451 H 235.225 -2.35622 -3.54066 0
M  V30 2452 N 233.54 1.10788 -1.12088 0
M  V30 2453 C 234.956 1.34691 -0.856186 0
M  V30 2454 C 235.156 1.94791 0.515615 0
M  V30 2455 O 234.212 2.18524 1.26505 0
M  V30 2456 C 235.525 2.27208 -1.9697 0
M  V30 2457 C 237.073 2.40755 -2.00016 0
M  V30 2458 C 237.548 3.36598 -3.1059 0
M  V30 2459 N 239.039 3.44164 -3.10008 0
M  V30 2460 C 239.774 4.18284 -3.92206 0
M  V30 2461 N 239.27 4.95322 -4.84384 0
M  V30 2462 N 241.063 4.13865 -3.80357 0
M  V30 2463 H 233.214 0.70144 -2.00483 0
M  V30 2464 H 235.477 0.371405 -0.872217 0
M  V30 2465 H 235.183 1.90251 -2.958 0
M  V30 2466 H 235.057 3.27485 -1.87172 0
M  V30 2467 H 237.444 2.76982 -1.01808 0
M  V30 2468 H 237.525 1.40305 -2.13888 0
M  V30 2469 H 237.169 3.01096 -4.09028 0
M  V30 2470 H 237.099 4.36918 -2.93956 0
M  V30 2471 H 239.59 2.8922 -2.43228 0
M  V30 2472 H 239.903 5.49267 -5.43623 0
M  V30 2473 H 238.248 4.94459 -4.884 0
M  V30 2474 H 241.439 3.52773 -3.07683 0
M  V30 2475 H 241.612 4.71372 -4.44649 0
M  V30 2476 N 235.018 0.912232 1.28515 0
M  V30 2477 C 235.951 0.343928 2.25593 0
M  V30 2478 C 236.929 -0.550994 1.5298 0
M  V30 2479 O 238.113 -0.494991 1.81885 0
M  V30 2480 C 235.24 -0.508525 3.34861 0
M  V30 2481 C 234.286 0.320808 4.25292 0
M  V30 2482 S 235.119 1.72658 5.06902 0
M  V30 2483 C 236.275 0.881394 6.19663 0
M  V30 2484 H 236.508 1.16674 2.73449 0
M  V30 2485 H 234.041 0.713384 1.36931 0
M  V30 2486 H 235.999 -0.994539 3.9827 0
M  V30 2487 H 234.66 -1.30571 2.85675 0
M  V30 2488 H 233.853 -0.330941 5.02912 0
M  V30 2489 H 233.455 0.74042 3.66598 0
M  V30 2490 H 235.747 0.110359 6.7741 0
M  V30 2491 H 236.69 1.63009 6.89082 0
M  V30 2492 H 237.098 0.430239 5.62858 0
M  V30 2493 N 236.496 -1.42363 0.676048 0
M  V30 2494 C 237.426 -2.33497 0.0124832 0
M  V30 2495 C 238.407 -1.50748 -0.787981 0
M  V30 2496 O 239.592 -1.79346 -0.744884 0
M  V30 2497 C 236.722 -3.34377 -0.938582 0
M  V30 2498 C 235.676 -4.27289 -0.246622 0
M  V30 2499 C 235.002 -5.18386 -1.31071 0
M  V30 2500 C 236.302 -5.14916 0.875125 0
M  V30 2501 H 237.996 -2.89233 0.773593 0
M  V30 2502 H 235.542 -1.39073 0.37346 0
M  V30 2503 H 237.495 -3.97044 -1.41188 0
M  V30 2504 H 236.219 -2.76947 -1.73113 0
M  V30 2505 H 234.878 -3.66018 0.206456 0
M  V30 2506 H 234.526 -4.57282 -2.09528 0
M  V30 2507 H 234.226 -5.81378 -0.852839 0
M  V30 2508 H 235.75 -5.83929 -1.78492 0
M  V30 2509 H 237.164 -5.71262 0.482983 0
M  V30 2510 H 235.561 -5.86747 1.25887 0
M  V30 2511 H 236.631 -4.53242 1.72335 0
M  V30 2512 N 237.974 -0.419461 -1.51915 0
M  V30 2513 C 239.22 0.153166 -2.02221 0
M  V30 2514 C 239.553 1.43907 -1.30401 0
M  V30 2515 O 238.828 1.90055 -0.413438 0
M  V30 2516 C 239.111 0.390291 -3.57979 0
M  V30 2517 C 238.964 -0.913014 -4.40436 0
M  V30 2518 C 240.283 1.16794 -4.2432 0
M  V30 2519 H 237.402 0.0541924 -0.735005 0
M  V30 2520 H 240.044 -0.554955 -1.81715 0
M  V30 2521 H 238.194 0.993491 -3.75582 0
M  V30 2522 H 239.866 -1.54882 -4.34522 0
M  V30 2523 H 238.109 -1.52168 -4.06236 0
M  V30 2524 H 238.78 -0.701361 -5.47526 0
M  V30 2525 H 241.256 0.657161 -4.10878 0
M  V30 2526 H 240.132 1.3026 -5.3322 0
M  V30 2527 H 240.393 2.19132 -3.83971 0
M  V30 2528 N 239.452 1.56882 -0.150215 0
M  V30 2529 C 240.415 2.1573 0.774157 0
M  V30 2530 C 241.415 1.0999 1.17298 0
M  V30 2531 O 242.605 1.35613 1.09338 0
M  V30 2532 C 239.737 2.72302 2.05096 0
M  V30 2533 H 240.93 2.98752 0.262201 0
M  V30 2534 H 238.483 1.55985 0.099248 0
M  V30 2535 H 239.218 1.92956 2.6065 0
M  V30 2536 H 239.003 3.49665 1.77416 0
M  V30 2537 H 240.493 3.17632 2.71109 0
M  V30 2538 N 240.93 -0.123565 1.57115 0
M  V30 2539 C 242.207 -0.862196 1.75572 0
M  V30 2540 C 242.587 -1.98279 0.724475 0
M  V30 2541 O 241.935 -2.27102 -0.252407 0
M  V30 2542 C 242.145 -1.38309 3.20424 0
M  V30 2543 C 243.493 -1.83724 3.82793 0
M  V30 2544 O 244.517 -1.47999 3.23998 0
M  V30 2545 O 243.376 -2.49685 4.86127 0
M  V30 2546 H 240.47 -0.409113 0.718718 0
M  V30 2547 H 243.016 -0.107661 1.69358 0
M  V30 2548 H 241.788 -0.578889 3.86994 0
M  V30 2549 H 241.411 -2.20046 3.31158 0
M  V30 2550 N 242.408 -1.52605 -0.393616 0
M  V30 2551 C 243.657 -1.66649 -1.13627 0
M  V30 2552 C 243.97 -0.410364 -1.91247 0
M  V30 2553 O 245.176 -0.430854 -2.68059 0
M  V30 2554 C 243.632 -2.9449 -2.06891 0
M  V30 2555 C 243.24 -4.27266 -1.34714 0
M  V30 2556 C 244.984 -3.17899 -2.81319 0
M  V30 2557 C 242.891 -5.46217 -2.26717 0
M  V30 2558 H 241.821 -0.62084 -0.427871 0
M  V30 2559 H 244.472 -1.791 -0.399428 0
M  V30 2560 H 242.854 -2.75774 -2.84191 0
M  V30 2561 H 244.028 -4.56518 -0.626714 0
M  V30 2562 H 242.343 -4.10081 -0.722643 0
M  V30 2563 H 244.94 -4.03949 -3.50328 0
M  V30 2564 H 245.283 -2.32777 -3.45139 0
M  V30 2565 H 245.816 -3.37159 -2.11113 0
M  V30 2566 H 242.555 -6.33733 -1.67521 0
M  V30 2567 H 242.075 -5.21283 -2.96689 0
M  V30 2568 H 243.754 -5.7991 -2.86903 0
M  V30 2569 N 243.887 0.651787 -1.4349 0
M  V30 2570 C 245.298 1.233 -1.40193 0
M  V30 2571 C 245.649 1.9591 -0.106727 0
M  V30 2572 O 244.774 2.01316 0.793773 0
M  V30 2573 C 245.369 2.24257 -2.53957 0
M  V30 2574 C 243.928 2.77852 -2.5392 0
M  V30 2575 C 243.075 1.52517 -2.3159 0
M  V30 2576 H 246.026 0.443717 -1.52371 0
M  V30 2577 H 246.047 3.0646 -2.25528 0
M  V30 2578 H 245.559 1.71382 -3.4821 0
M  V30 2579 H 243.66 3.34786 -1.63551 0
M  V30 2580 H 243.773 3.25299 -3.51735 0
M  V30 2581 H 242.137 1.79915 -1.80285 0
M  V30 2582 H 242.92 1.01574 -3.27929 0
M  V30 2583 N 245.365 1.30045 0.890287 0
M  V30 2584 C 246.611 1.18737 1.64406 0
M  V30 2585 C 246.944 -0.258525 1.92472 0
M  V30 2586 O 246.219 -1.18562 1.54186 0
M  V30 2587 C 246.502 2.01087 2.98724 0
M  V30 2588 C 246.355 3.53867 2.77665 0
M  V30 2589 C 247.674 1.84457 3.9958 0
M  V30 2590 H 244.793 0.432698 0.596608 0
M  V30 2591 H 247.435 1.5962 1.0306 0
M  V30 2592 H 245.585 1.66349 3.51084 0
M  V30 2593 H 247.257 3.98637 2.32133 0
M  V30 2594 H 245.5 3.78318 2.12269 0
M  V30 2595 H 246.171 4.06772 3.7315 0
M  V30 2596 H 248.647 2.14817 3.56361 0
M  V30 2597 H 247.523 2.44411 4.91482 0
M  V30 2598 H 247.784 0.802276 4.3476 0
M  V30 2599 N 246.843 -1.10192 1.12674 0
M  V30 2600 C 248.071 -1.85983 0.906527 0
M  V30 2601 C 248.486 -1.80783 -0.544333 0
M  V30 2602 O 247.843 -1.19834 -1.37645 0
M  V30 2603 C 247.894 -3.34281 1.37618 0
M  V30 2604 O 247.615 -3.39401 2.77017 0
M  V30 2605 C 249.116 -4.26938 1.19325 0
M  V30 2606 H 246.336 -0.587716 0.323775 0
M  V30 2607 H 248.88 -1.39284 1.49734 0
M  V30 2608 H 247.035 -3.78436 0.828539 0
M  V30 2609 H 247.449 -4.31838 2.97684 0
M  V30 2610 H 248.923 -5.29181 1.57071 0
M  V30 2611 H 249.4 -4.38995 0.134097 0
M  V30 2612 H 250.006 -3.8859 1.72852 0
M  V30 2613 N 248.321 -0.919034 -1.28029 0
M  V30 2614 C 249.57 -0.550802 -1.94034 0
M  V30 2615 C 249.883 0.910877 -1.73096 0
M  V30 2616 O 251.089 1.3875 -2.33368 0
M  V30 2617 C 249.545 -0.934249 -3.47563 0
M  V30 2618 C 249.153 -2.41602 -3.7727 0
M  V30 2619 C 250.897 -0.636854 -4.19696 0
M  V30 2620 C 248.804 -2.73932 -5.24133 0
M  V30 2621 H 247.734 -0.202273 -0.726362 0
M  V30 2622 H 250.385 -1.11867 -1.45458 0
M  V30 2623 H 248.767 -0.295115 -3.94899 0
M  V30 2624 H 249.941 -3.10233 -3.40723 0
M  V30 2625 H 248.256 -2.68441 -3.18321 0
M  V30 2626 H 250.853 -0.855005 -5.2782 0
M  V30 2627 H 251.196 0.425575 -4.14119 0
M  V30 2628 H 251.729 -1.23469 -3.78154 0
M  V30 2629 H 248.468 -3.79049 -5.34792 0
M  V30 2630 H 247.988 -2.09942 -5.61858 0
M  V30 2631 H 249.667 -2.61215 -5.91925 0
M  V30 2632 N 249.799 1.42003 -0.683588 0
M  V30 2633 C 250.729 2.33487 -0.024866 0
M  V30 2634 C 251.71 1.51163 0.779975 0
M  V30 2635 O 252.895 1.79739 0.735362 0
M  V30 2636 C 250.025 3.3487 0.920836 0
M  V30 2637 C 248.979 4.27414 0.223958 0
M  V30 2638 C 248.305 5.19074 1.2832 0
M  V30 2639 C 249.605 5.14445 -0.90242 0
M  V30 2640 H 251.299 2.88819 -0.788921 0
M  V30 2641 H 248.845 1.38873 -0.38083 0
M  V30 2642 H 250.798 3.97787 1.39081 0
M  V30 2643 H 249.522 2.77861 1.71642 0
M  V30 2644 H 248.181 3.65904 -0.225864 0
M  V30 2645 H 247.829 4.58387 2.071 0
M  V30 2646 H 247.529 5.81822 0.821995 0
M  V30 2647 H 249.053 5.84867 1.75392 0
M  V30 2648 H 250.467 5.70998 -0.513272 0
M  V30 2649 H 248.864 5.86072 -1.28997 0
M  V30 2650 H 249.934 4.52322 -1.74737 0
M  V30 2651 N 251.277 0.427512 1.51691 0
M  V30 2652 C 252.525 -0.141948 2.01601 0
M  V30 2653 C 252.846 -1.44067 1.31414 0
M  V30 2654 O 252.116 -1.90763 0.445658 0
M  V30 2655 H 250.696 -0.0554468 0.744939 0
M  V30 2656 H 253.358 0.567968 1.86441 0
M  V30 2657 H 252.454 -0.324913 3.10404 0
M  V30 2658 N 252.755 -1.56801 0.158532 0
M  V30 2659 C 254.171 -1.5837 -0.197774 0
M  V30 2660 C 254.371 -1.17334 -1.63814 0
M  V30 2661 O 253.427 -0.878988 -2.36707 0
M  V30 2662 C 254.74 -3.00615 0.0714459 0
M  V30 2663 C 256.288 -3.12999 0.00864533 0
M  V30 2664 C 256.763 -4.57313 0.250685 0
M  V30 2665 N 258.254 -4.62777 0.198014 0
M  V30 2666 C 258.989 -5.72271 0.359642 0
M  V30 2667 N 258.485 -6.90371 0.579625 0
M  V30 2668 N 260.278 -5.61318 0.296438 0
M  V30 2669 H 252.429 -1.81765 1.09887 0
M  V30 2670 H 254.692 -0.841849 0.435884 0
M  V30 2671 H 254.398 -3.35068 1.06874 0
M  V30 2672 H 254.272 -3.71683 -0.642757 0
M  V30 2673 H 256.659 -2.7838 -0.979217 0
M  V30 2674 H 256.74 -2.44393 0.755359 0
M  V30 2675 H 256.384 -4.92639 1.2357 0
M  V30 2676 H 256.314 -5.24061 -0.516489 0
M  V30 2677 H 258.805 -3.77885 0.0331115 0
M  V30 2678 H 259.118 -7.69689 0.69275 0
M  V30 2679 H 257.463 -6.92264 0.616087 0
M  V30 2680 H 260.654 -4.67932 0.125258 0
M  V30 2681 H 260.827 -6.46599 0.425831 0
M  V30 2682 N 254.233 0.115231 -1.57178 0
M  V30 2683 C 255.51 0.852873 -1.76027 0
M  V30 2684 C 255.89 1.97892 -0.73498 0
M  V30 2685 O 255.238 2.27232 0.24036 0
M  V30 2686 C 255.448 1.36608 -3.21153 0
M  V30 2687 C 256.796 1.81692 -3.83762 0
M  V30 2688 O 257.82 1.46278 -3.24779 0
M  V30 2689 O 256.679 2.47104 -4.87444 0
M  V30 2690 H 253.773 0.405296 -0.720877 0
M  V30 2691 H 256.319 0.0986785 -1.69413 0
M  V30 2692 H 255.091 0.558357 -3.87296 0
M  V30 2693 H 254.714 2.18287 -3.3232 0
M  V30 2694 N 255.711 1.52812 0.385517 0
M  V30 2695 C 256.96 1.67249 1.12741 0
M  V30 2696 C 257.273 0.4205 1.91027 0
M  V30 2697 O 258.479 0.445064 2.67827 0
M  V30 2698 C 256.935 2.95583 2.05326 0
M  V30 2699 C 256.543 4.27974 1.32447 0
M  V30 2700 C 258.287 3.19386 2.7963 0
M  V30 2701 C 256.194 5.47412 2.23818 0
M  V30 2702 H 255.124 0.6231 0.424573 0
M  V30 2703 H 257.775 1.79309 0.389924 0
M  V30 2704 H 256.157 2.77277 2.82725 0
M  V30 2705 H 257.331 4.56844 0.602495 0
M  V30 2706 H 255.646 4.10459 0.700885 0
M  V30 2707 H 258.243 4.05801 3.48181 0
M  V30 2708 H 258.586 2.34604 3.43899 0
M  V30 2709 H 259.119 3.38274 2.09322 0
M  V30 2710 H 255.858 6.34612 1.64157 0
M  V30 2711 H 255.378 5.22849 2.93921 0
M  V30 2712 H 257.057 5.81423 2.83824 0
M  V30 2713 N 257.189 -0.644168 1.43834 0
M  V30 2714 C 258.119 -1.76814 1.52509 0
M  V30 2715 C 259.1 -1.65823 0.379052 0
M  V30 2716 O 260.285 -1.84781 0.597466 0
M  V30 2717 C 257.415 -3.15288 1.4564 0
M  V30 2718 C 256.369 -3.41053 2.58586 0
M  V30 2719 C 255.695 -4.79421 2.36769 0
M  V30 2720 C 256.995 -3.34902 4.00797 0
M  V30 2721 H 258.689 -1.69812 2.46586 0
M  V30 2722 H 256.235 -0.815542 1.1868 0
M  V30 2723 H 258.188 -3.93681 1.50311 0
M  V30 2724 H 256.912 -3.23043 0.480725 0
M  V30 2725 H 255.571 -2.65035 2.53282 0
M  V30 2726 H 255.219 -4.83863 1.37424 0
M  V30 2727 H 254.919 -4.9762 3.12487 0
M  V30 2728 H 256.443 -5.6006 2.43238 0
M  V30 2729 H 257.857 -4.03218 4.07539 0
M  V30 2730 H 256.254 -3.64637 4.76613 0
M  V30 2731 H 257.324 -2.32928 4.25291 0
M  V30 2732 N 258.668 -1.30515 -0.883378 0
M  V30 2733 C 259.6 -1.12846 -1.99496 0
M  V30 2734 C 260.613 -0.0712571 -1.62644 0
M  V30 2735 O 261.802 -0.317432 -1.75655 0
M  V30 2736 C 258.902 -0.699123 -3.3161 0
M  V30 2737 C 258.075 -1.83842 -3.96889 0
M  V30 2738 C 257.134 -1.39737 -5.07307 0
M  V30 2739 O 256.16 -2.10485 -5.28852 0
M  V30 2740 N 257.362 -0.277279 -5.79837 0
M  V30 2741 H 260.127 -2.08585 -2.15203 0
M  V30 2742 H 257.688 -1.22672 -1.05656 0
M  V30 2743 H 259.68 -0.387044 -4.02845 0
M  V30 2744 H 258.25 0.166276 -3.12157 0
M  V30 2745 H 257.47 -2.31853 -3.18807 0
M  V30 2746 H 258.758 -2.60187 -4.37241 0
M  V30 2747 H 258.156 0.3122 -5.64838 0
M  V30 2748 H 256.713 -0.0246623 -6.51795 0
M  V30 2749 N 260.146 1.09593 -1.13257 0
M  V30 2750 C 261.423 1.78293 -0.804432 0
M  V30 2751 C 261.803 1.99004 0.70431 0
M  V30 2752 O 261.151 1.59007 1.641 0
M  V30 2753 C 261.361 3.10707 -1.5894 0
M  V30 2754 C 262.709 3.85443 -1.78099 0
M  V30 2755 O 263.733 3.20454 -1.55525 0
M  V30 2756 O 262.592 5.02108 -2.15753 0
M  V30 2757 H 259.686 0.773156 -0.293528 0
M  V30 2758 H 262.232 1.16164 -1.23709 0
M  V30 2759 H 261.004 2.91106 -2.61482 0
M  V30 2760 H 260.627 3.80558 -1.15157 0
M  V30 2761 N 261.624 0.925811 1.2754 0
M  V30 2762 C 262.554 0.440748 2.29303 0
M  V30 2763 C 263.535 -0.497971 1.62648 0
M  V30 2764 O 264.72 -0.403126 1.8997 0
M  V30 2765 C 261.85 -0.309048 3.45922 0
M  V30 2766 C 260.804 0.54166 4.24559 0
M  V30 2767 C 260.13 -0.337191 5.33636 0
M  V30 2768 C 261.43 1.80516 4.90114 0
M  V30 2769 H 263.124 1.29121 2.70126 0
M  V30 2770 H 260.67 0.622323 1.29858 0
M  V30 2771 H 262.623 -0.659315 4.1621 0
M  V30 2772 H 261.347 -1.19352 3.04011 0
M  V30 2773 H 260.006 0.874609 3.56014 0
M  V30 2774 H 259.654 -1.22056 4.87966 0
M  V30 2775 H 259.354 0.228497 5.87156 0
M  V30 2776 H 260.878 -0.683072 6.06767 0
M  V30 2777 H 262.292 1.52307 5.52698 0
M  V30 2778 H 260.689 2.3142 5.53683 0
M  V30 2779 H 261.759 2.52581 4.13921 0
M  V30 2780 N 263.102 -1.41638 0.69111 0
M  V30 2781 C 264.35 -2.00902 0.219758 0
M  V30 2782 C 264.671 -1.54994 -1.18329 0
M  V30 2783 O 263.941 -0.778628 -1.79762 0
M  V30 2784 H 262.521 -0.74289 0.0782558 0
M  V30 2785 H 265.183 -1.73327 0.891271 0
M  V30 2786 H 264.279 -3.11224 0.233708 0
M  V30 2787 N 264.58 -0.43555 -1.51462 0
M  V30 2788 C 265.543 0.365137 -2.26273 0
M  V30 2789 C 266.543 0.951227 -1.29647 0
M  V30 2790 O 267.733 0.825958 -1.53374 0
M  V30 2791 C 264.865 1.51645 -3.05314 0
M  V30 2792 H 266.058 -0.290474 -2.9849 0
M  V30 2793 H 263.611 -0.188676 -1.55157 0
M  V30 2794 H 264.346 2.20816 -2.3751 0
M  V30 2795 H 264.131 1.10238 -3.76284 0
M  V30 2796 H 265.621 2.08218 -3.61987 0
M  V30 2797 N 266.058 1.56714 -0.166846 0
M  V30 2798 C 267.005 2.17746 0.765193 0
M  V30 2799 C 267.975 1.11614 1.23011 0
M  V30 2800 O 269.16 1.39745 1.29908 0
M  V30 2801 C 266.3 2.81882 1.9909 0
M  V30 2802 C 265.413 4.02462 1.56997 0
M  V30 2803 C 264.548 4.54537 2.749 0
M  V30 2804 C 263.587 5.67538 2.29275 0
M  V30 2805 N 262.724 6.14142 3.40255 0
M  V30 2806 H 267.564 2.97048 0.237952 0
M  V30 2807 H 265.101 1.4672 0.105725 0
M  V30 2808 H 267.059 3.17221 2.70974 0
M  V30 2809 H 265.689 2.05191 2.49192 0
M  V30 2810 H 264.741 3.72973 0.748037 0
M  V30 2811 H 266.053 4.84273 1.19503 0
M  V30 2812 H 265.207 4.92035 3.54946 0
M  V30 2813 H 263.946 3.71774 3.1565 0
M  V30 2814 H 262.951 5.29597 1.47674 0
M  V30 2815 H 264.176 6.52099 1.89588 0
M  V30 2816 H 262.122 5.3431 3.8059 0
M  V30 2817 H 262.039 6.9093 3.06841 0
M  V30 2818 H 263.307 6.56289 4.206 0
M  V30 2819 N 267.536 -0.106894 1.57237 0
M  V30 2820 C 268.466 -1.13148 2.04254 0
M  V30 2821 C 269.447 -1.42476 0.929224 0
M  V30 2822 O 270.632 -1.52709 1.19973 0
M  V30 2823 C 267.762 -2.4545 2.45706 0
M  V30 2824 C 266.716 -2.30558 3.60592 0
M  V30 2825 C 266.042 -3.67931 3.87983 0
M  V30 2826 C 267.342 -1.75597 4.91897 0
M  V30 2827 H 269.036 -0.740374 2.90101 0
M  V30 2828 H 266.582 -0.354696 1.39563 0
M  V30 2829 H 268.535 -3.17389 2.77205 0
M  V30 2830 H 267.259 -2.86475 1.56843 0
M  V30 2831 H 265.918 -1.61067 3.29322 0
M  V30 2832 H 265.566 -4.06462 2.96306 0
M  V30 2833 H 265.266 -3.58817 4.65322 0
M  V30 2834 H 266.79 -4.41356 4.21945 0
M  V30 2835 H 268.204 -2.37364 5.21854 0
M  V30 2836 H 266.601 -1.77272 5.73319 0
M  V30 2837 H 267.671 -0.714451 4.79608 0
M  V30 2838 N 269.014 -1.53014 -0.377408 0
M  V30 2839 C 270.26 -1.68872 -1.12294 0
M  V30 2840 C 270.593 -0.433224 -1.89306 0
M  V30 2841 O 269.868 0.569258 -1.85983 0
M  V30 2842 C 270.151 -2.93115 -2.09179 0
M  V30 2843 C 270.004 -4.28794 -1.35853 0
M  V30 2844 C 271.323 -3.12928 -3.09458 0
M  V30 2845 H 268.442 -0.614518 -0.406862 0
M  V30 2846 H 271.084 -1.85633 -0.40503 0
M  V30 2847 H 269.234 -2.78956 -2.70399 0
M  V30 2848 H 270.906 -4.54742 -0.775082 0
M  V30 2849 H 269.149 -4.28744 -0.660364 0
M  V30 2850 H 269.82 -5.11837 -2.06706 0
M  V30 2851 H 272.296 -3.26194 -2.58334 0
M  V30 2852 H 271.172 -4.01316 -3.74482 0
M  V30 2853 H 271.433 -2.27669 -3.78971 0
M  V30 2854 N 270.492 0.636531 -1.44174 0
M  V30 2855 C 271.422 1.76003 -1.53444 0
M  V30 2856 C 272.403 1.65619 -0.387841 0
M  V30 2857 O 273.588 1.84461 -0.607257 0
M  V30 2858 C 270.718 3.14511 -1.4731 0
M  V30 2859 C 269.672 3.39677 -2.60391 0
M  V30 2860 C 268.998 4.78159 -2.39308 0
M  V30 2861 C 270.298 3.32772 -4.02567 0
M  V30 2862 H 271.992 1.68501 -2.47483 0
M  V30 2863 H 269.538 0.809237 -1.19111 0
M  V30 2864 H 271.491 3.92878 -1.52397 0
M  V30 2865 H 270.215 3.22783 -0.49785 0
M  V30 2866 H 268.874 2.63688 -2.54684 0
M  V30 2867 H 268.522 4.83128 -1.39988 0
M  V30 2868 H 268.222 4.95956 -3.15122 0
M  V30 2869 H 269.746 5.58762 -2.46205 0
M  V30 2870 H 271.16 4.01051 -4.09672 0
M  V30 2871 H 269.557 3.62104 -4.7854 0
M  V30 2872 H 270.627 2.30669 -4.2652 0
M  V30 2873 N 271.97 1.30982 0.876444 0
M  V30 2874 C 272.933 1.18054 1.96459 0
M  V30 2875 C 273.933 0.109399 1.60427 0
M  V30 2876 O 275.123 0.358173 1.70478 0
M  V30 2877 C 272.255 0.810616 3.31122 0
M  V30 2878 H 273.448 2.14735 2.09354 0
M  V30 2879 H 271.001 1.145 1.06392 0
M  V30 2880 H 271.736 -0.155322 3.23928 0
M  V30 2881 H 271.521 1.58481 3.58645 0
M  V30 2882 H 273.011 0.743876 4.10921 0
M  V30 2883 N 273.449 -1.08991 1.13837 0
M  V30 2884 C 274.381 -2.15606 0.777612 0
M  V30 2885 C 275.394 -1.61533 -0.202739 0
M  V30 2886 O 276.583 -1.78491 0.0181055 0
M  V30 2887 C 273.683 -3.3864 0.132623 0
M  V30 2888 C 272.856 -4.22115 1.1462 0
M  V30 2889 C 271.915 -5.23564 0.526074 0
M  V30 2890 O 270.941 -5.56678 1.18735 0
M  V30 2891 N 272.143 -5.76266 -0.699866 0
M  V30 2892 H 274.908 -2.47159 1.69506 0
M  V30 2893 H 272.469 -1.24747 1.03198 0
M  V30 2894 H 274.461 -4.03626 -0.29459 0
M  V30 2895 H 273.031 -3.04938 -0.687849 0
M  V30 2896 H 272.251 -3.53199 1.75055 0
M  V30 2897 H 273.539 -4.74709 1.83109 0
M  V30 2898 H 272.937 -5.51585 -1.25581 0
M  V30 2899 H 271.494 -6.42963 -1.06968 0
M  V30 2900 N 274.927 -0.932562 -1.27047 0
M  V30 2901 C 275.857 -0.452902 -2.29066 0
M  V30 2902 C 276.838 0.489338 -1.62909 0
M  V30 2903 O 278.023 0.393046 -1.90181 0
M  V30 2904 C 275.153 0.290698 -3.46081 0
M  V30 2905 C 274.107 -0.564168 -4.24265 0
M  V30 2906 C 273.433 0.308886 -5.33807 0
M  V30 2907 C 274.733 -1.83112 -4.89149 0
M  V30 2908 H 276.427 -1.30552 -2.69437 0
M  V30 2909 H 273.973 -0.629201 -1.29526 0
M  V30 2910 H 275.926 0.637233 -4.16554 0
M  V30 2911 H 274.65 1.17738 -3.0464 0
M  V30 2912 H 273.309 -0.893477 -3.55545 0
M  V30 2913 H 272.957 1.19467 -4.88607 0
M  V30 2914 H 272.657 -0.259633 -5.87026 0
M  V30 2915 H 274.181 0.650884 -6.07121 0
M  V30 2916 H 275.595 -1.55236 -5.51883 0
M  V30 2917 H 273.992 -2.34353 -5.52448 0
M  V30 2918 H 275.062 -2.54772 -4.12576 0
M  V30 2919 N 276.405 1.4127 -0.698611 0
M  V30 2920 C 277.63 2.06024 -0.238512 0
M  V30 2921 C 278.055 1.5224 1.10475 0
M  V30 2922 O 277.413 0.650623 1.69223 0
M  V30 2923 C 277.461 3.59988 -0.209952 0
M  V30 2924 O 276.565 4.04282 0.814235 0
M  V30 2925 H 275.906 0.653829 -0.115775 0
M  V30 2926 H 278.436 1.8098 -0.954326 0
M  V30 2927 H 278.446 4.07979 -0.0418436 0
M  V30 2928 H 277.121 3.98503 -1.1903 0
M  V30 2929 H 275.698 3.6779 0.615234 0
M  V30 2930 N 277.883 0.443576 1.51229 0
M  V30 2931 C 278.83 -0.364716 2.279 0
M  V30 2932 C 279.8 -1.0114 1.31757 0
M  V30 2933 O 280.985 -1.02912 1.60667 0
M  V30 2934 C 278.125 -1.45644 3.12861 0
M  V30 2935 C 277.238 -0.827269 4.24005 0
M  V30 2936 C 276.373 -1.89456 4.96266 0
M  V30 2937 C 275.412 -1.24416 5.99322 0
M  V30 2938 N 274.549 -2.25309 6.64966 0
M  V30 2939 H 279.389 0.295464 2.96532 0
M  V30 2940 H 276.926 0.157554 1.46254 0
M  V30 2941 H 278.884 -2.10076 3.6045 0
M  V30 2942 H 277.514 -2.08616 2.46331 0
M  V30 2943 H 276.566 -0.0710839 3.80334 0
M  V30 2944 H 277.878 -0.312481 4.9782 0
M  V30 2945 H 277.032 -2.61535 5.47434 0
M  V30 2946 H 275.771 -2.4431 4.22095 0
M  V30 2947 H 274.776 -0.508868 5.4744 0
M  V30 2948 H 276.001 -0.702882 6.75453 0
M  V30 2949 H 273.947 -2.79231 5.93604 0
M  V30 2950 H 273.864 -1.78739 7.34567 0
M  V30 2951 H 275.132 -2.96853 7.20763 0
M  V30 2952 N 279.361 -1.56624 0.175154 0
M  V30 2953 C 280.271 -2.21741 -0.766042 0
M  V30 2954 C 281.287 -1.21023 -1.25018 0
M  V30 2955 O 282.463 -1.53697 -1.3015 0
M  V30 2956 C 279.528 -2.84839 -1.97655 0
M  V30 2957 C 278.589 -4.00769 -1.53892 0
M  V30 2958 C 277.822 -4.60849 -2.69173 0
M  V30 2959 O 278.045 -4.19823 -3.86141 0
M  V30 2960 O 276.979 -5.50655 -2.43028 0
M  V30 2961 H 280.805 -3.02738 -0.241585 0
M  V30 2962 H 278.39 -1.49305 -0.053222 0
M  V30 2963 H 280.272 -3.24834 -2.68442 0
M  V30 2964 H 278.947 -2.06836 -2.48999 0
M  V30 2965 H 277.854 -3.65436 -0.80044 0
M  V30 2966 H 279.187 -4.80376 -1.07236 0
M  V30 2967 N 280.839 0.0985539 -1.57292 0
M  V30 2968 C 282.088 0.801358 -1.85098 0
M  V30 2969 C 282.401 1.80066 -0.763902 0
M  V30 2970 O 283.607 2.55112 -0.928981 0
M  V30 2971 C 282.063 1.47599 -3.28242 0
M  V30 2972 C 281.671 0.516624 -4.45011 0
M  V30 2973 C 283.415 2.16272 -3.65276 0
M  V30 2974 C 281.322 1.19564 -5.79188 0
M  V30 2975 H 280.252 0.303022 -0.69043 0
M  V30 2976 H 282.903 0.0542623 -1.8342 0
M  V30 2977 H 281.285 2.27042 -3.2445 0
M  V30 2978 H 282.459 -0.246065 -4.60143 0
M  V30 2979 H 280.774 -0.064227 -4.1635 0
M  V30 2980 H 283.371 2.67802 -4.62803 0
M  V30 2981 H 283.714 2.95009 -2.93727 0
M  V30 2982 H 284.247 1.43693 -3.70941 0
M  V30 2983 H 280.986 0.449157 -6.53959 0
M  V30 2984 H 280.506 1.92984 -5.67906 0
M  V30 2985 H 282.185 1.7231 -6.23633 0
M  V30 2986 N 282.317 1.53212 0.369288 0
M  V30 2987 C 283.264 1.79388 1.45219 0
M  V30 2988 C 284.234 0.638059 1.53356 0
M  V30 2989 O 285.419 0.879852 1.69302 0
M  V30 2990 C 282.559 1.98623 2.82211 0
M  V30 2991 C 281.672 3.26337 2.8307 0
M  V30 2992 C 280.807 3.35779 4.11614 0
M  V30 2993 C 279.846 4.5754 4.06601 0
M  V30 2994 N 278.983 4.64155 5.26787 0
M  V30 2995 H 283.823 2.71794 1.22198 0
M  V30 2996 H 281.36 1.34642 0.592444 0
M  V30 2997 H 283.318 2.07761 3.61789 0
M  V30 2998 H 281.948 1.09558 3.03639 0
M  V30 2999 H 281 3.26171 1.95747 0
M  V30 3000 H 282.312 4.15988 2.75237 0
M  V30 3001 H 281.466 3.44208 4.99606 0
M  V30 3002 H 280.205 2.44137 4.22195 0
M  V30 3003 H 279.21 4.49215 3.16996 0
M  V30 3004 H 280.435 5.50519 3.97625 0
M  V30 3005 H 278.381 3.75413 5.3796 0
M  V30 3006 H 278.298 5.47706 5.21109 0
M  V30 3007 H 279.566 4.76863 6.16621 0
M  V30 3008 N 283.795 -0.628877 1.44509 0
M  V30 3009 C 285.042 -1.38839 1.47411 0
M  V30 3010 C 285.37 -1.94202 0.10757 0
M  V30 3011 O 284.625 -1.74243 -0.890947 0
M  V30 3012 C 284.924 -2.56995 2.48371 0
M  V30 3013 C 284.59 -2.19908 3.93639 0
M  V30 3014 C 283.252 -2.09506 4.33198 0
M  V30 3015 C 285.604 -1.9064 4.85083 0
M  V30 3016 C 282.932 -1.68028 5.62124 0
M  V30 3017 C 285.284 -1.50655 6.14399 0
M  V30 3018 C 283.948 -1.38796 6.5291 0
M  V30 3019 H 283.218 -0.508048 0.539414 0
M  V30 3020 H 285.865 -0.712913 1.77735 0
M  V30 3021 H 284.17 -3.29786 2.11538 0
M  V30 3022 H 285.867 -3.15223 2.47861 0
M  V30 3023 H 282.457 -2.28922 3.62343 0
M  V30 3024 H 286.641 -1.97585 4.55273 0
M  V30 3025 H 281.897 -1.57452 5.90778 0
M  V30 3026 H 286.071 -1.27048 6.84713 0
M  V30 3027 H 283.698 -1.06429 7.52713 0
M  V30 3028 N 285.273 -1.31445 -0.869486 0
M  V30 3029 C 286.689 -1.10113 -1.15531 0
M  V30 3030 C 286.889 0.128087 -2.01092 0
M  V30 3031 O 285.945 0.817276 -2.38908 0
M  V30 3032 C 287.258 -2.37291 -1.84698 0
M  V30 3033 C 288.806 -2.42906 -1.97397 0
M  V30 3034 C 289.281 -3.69967 -2.69979 0
M  V30 3035 N 290.772 -3.70864 -2.77514 0
M  V30 3036 C 291.507 -4.65875 -3.34287 0
M  V30 3037 N 291.003 -5.71242 -3.91988 0
M  V30 3038 N 292.796 -4.53394 -3.3225 0
M  V30 3039 H 284.947 -2.1028 -0.299347 0
M  V30 3040 H 287.21 -0.927683 -0.195214 0
M  V30 3041 H 286.916 -3.27078 -1.29278 0
M  V30 3042 H 286.79 -2.47125 -2.84972 0
M  V30 3043 H 289.177 -1.53588 -2.51982 0
M  V30 3044 H 289.258 -2.37036 -0.961643 0
M  V30 3045 H 288.902 -4.59652 -2.16062 0
M  V30 3046 H 288.832 -3.73103 -3.7162 0
M  V30 3047 H 291.323 -2.94697 -2.36563 0
M  V30 3048 H 291.636 -6.39817 -4.33421 0
M  V30 3049 H 289.981 -5.75015 -3.90362 0
M  V30 3050 H 293.172 -3.70252 -2.8641 0
M  V30 3051 H 293.345 -5.27617 -3.76197 0
M  V30 3052 N 286.751 1.08385 -1.14413 0
M  V30 3053 C 287.698 2.15311 -0.831265 0
M  V30 3054 C 288.668 1.64751 0.211292 0
M  V30 3055 O 289.853 1.90627 0.0811674 0
M  V30 3056 C 286.993 3.43658 -0.315143 0
M  V30 3057 C 286.106 4.08064 -1.41802 0
M  V30 3058 C 285.241 5.24207 -0.859126 0
M  V30 3059 C 284.28 5.80554 -1.93967 0
M  V30 3060 N 283.417 6.88042 -1.39793 0
M  V30 3061 H 288.257 2.41415 -1.74708 0
M  V30 3062 H 285.794 1.18474 -0.871909 0
M  V30 3063 H 287.752 4.172 0.00230884 0
M  V30 3064 H 286.382 3.17839 0.56378 0
M  V30 3065 H 285.434 3.3228 -1.85187 0
M  V30 3066 H 286.746 4.45962 -2.23427 0
M  V30 3067 H 285.9 6.04689 -0.49359 0
M  V30 3068 H 284.639 4.87699 -0.011932 0
M  V30 3069 H 283.644 4.98725 -2.31415 0
M  V30 3070 H 284.869 6.19121 -2.79046 0
M  V30 3071 H 282.815 6.53493 -0.572919 0
M  V30 3072 H 282.732 7.24767 -2.15054 0
M  V30 3073 H 284 7.72255 -1.0603 0
M  V30 3074 N 288.23 0.939286 1.26551 0
M  V30 3075 C 289.479 0.581601 1.93133 0
M  V30 3076 C 289.792 -0.883224 1.74524 0
M  V30 3077 O 290.998 -1.3502 2.35546 0
M  V30 3078 C 289.454 0.989425 3.46032 0
M  V30 3079 C 289.062 2.47573 3.73379 0
M  V30 3080 C 290.806 0.703544 4.18629 0
M  V30 3081 C 288.713 2.82235 5.19709 0
M  V30 3082 H 287.643 0.213803 0.723052 0
M  V30 3083 H 290.294 1.14167 1.4366 0
M  V30 3084 H 288.676 0.357902 3.94379 0
M  V30 3085 H 289.85 3.15614 3.35744 0
M  V30 3086 H 288.165 2.73471 3.1401 0
M  V30 3087 H 290.762 0.938869 5.26393 0
M  V30 3088 H 291.105 -0.359639 4.14744 0
M  V30 3089 H 291.638 1.2947 3.76141 0
M  V30 3090 H 288.377 3.87509 5.28694 0
M  V30 3091 H 287.897 2.18854 5.58447 0
M  V30 3092 H 289.576 2.70599 5.87695 0
M  V30 3093 N 289.708 -1.40897 0.706093 0
M  V30 3094 C 290.618 -2.3455 0.0482286 0
M  V30 3095 C 291.634 -1.56796 -0.754396 0
M  V30 3096 O 292.81 -1.89228 -0.689538 0
M  V30 3097 C 289.875 -3.35625 -0.869303 0
M  V30 3098 C 288.936 -4.29261 -0.0576994 0
M  V30 3099 C 288.169 -5.25508 -0.931531 0
M  V30 3100 O 288.392 -5.27472 -2.17092 0
M  V30 3101 O 287.326 -6.00727 -0.375587 0
M  V30 3102 H 291.152 -2.92407 0.820476 0
M  V30 3103 H 288.737 -1.4193 0.4665 0
M  V30 3104 H 290.619 -3.97635 -1.39514 0
M  V30 3105 H 289.294 -2.80196 -1.62086 0
M  V30 3106 H 288.201 -3.70566 0.512988 0
M  V30 3107 H 289.534 -4.87817 0.655426 0
M  V30 3108 N 291.186 -0.45159 -1.50991 0
M  V30 3109 C 292.116 0.342898 -2.30969 0
M  V30 3110 C 293.097 1.00815 -1.37005 0
M  V30 3111 O 294.282 1.00907 -1.65926 0
M  V30 3112 C 291.412 1.43637 -3.16205 0
M  V30 3113 C 290.366 0.893818 -4.18563 0
M  V30 3114 C 289.692 2.08411 -4.92411 0
M  V30 3115 C 290.992 -0.0815568 -5.22236 0
M  V30 3116 H 292.686 -0.324556 -2.97636 0
M  V30 3117 H 290.232 -0.157531 -1.43136 0
M  V30 3118 H 292.185 1.9995 -3.70942 0
M  V30 3119 H 290.909 2.13232 -2.47386 0
M  V30 3120 H 289.568 0.352798 -3.64898 0
M  V30 3121 H 289.216 2.76658 -4.20082 0
M  V30 3122 H 288.916 1.72741 -5.61636 0
M  V30 3123 H 290.44 2.65251 -5.49976 0
M  V30 3124 H 291.854 0.391742 -5.7196 0
M  V30 3125 H 290.251 -0.351551 -5.99069 0
M  V30 3126 H 291.321 -1.01374 -4.74185 0
M  V30 3127 N 292.664 1.56529 -0.183458 0
M  V30 3128 C 293.611 2.18546 0.742055 0
M  V30 3129 C 294.581 1.12912 1.2182 0
M  V30 3130 O 295.766 1.41115 1.28418 0
M  V30 3131 C 292.906 2.83977 1.96089 0
M  V30 3132 C 292.019 4.04105 1.52719 0
M  V30 3133 C 291.154 4.57427 2.70063 0
M  V30 3134 C 290.193 5.69938 2.23243 0
M  V30 3135 N 289.33 6.17717 3.33722 0
M  V30 3136 H 294.17 2.97284 0.206432 0
M  V30 3137 H 291.707 1.46823 0.0901571 0
M  V30 3138 H 293.665 3.20077 2.67594 0
M  V30 3139 H 292.295 2.07822 2.47002 0
M  V30 3140 H 291.347 3.73745 0.708436 0
M  V30 3141 H 292.659 4.85513 1.1436 0
M  V30 3142 H 291.813 4.95772 3.49708 0
M  V30 3143 H 290.552 3.75101 3.11689 0
M  V30 3144 H 289.557 5.31133 1.42048 0
M  V30 3145 H 290.782 6.54073 1.82661 0
M  V30 3146 H 288.728 5.38317 3.74902 0
M  V30 3147 H 288.645 6.94146 2.99495 0
M  V30 3148 H 289.913 6.60713 4.13616 0
M  V30 3149 N 294.142 -0.090211 1.57342 0
M  V30 3150 C 295.052 -1.12735 2.05738 0
M  V30 3151 C 296.068 -1.43557 0.983231 0
M  V30 3152 O 297.244 -1.54101 1.29672 0
M  V30 3153 C 294.309 -2.42659 2.47624 0
M  V30 3154 C 293.37 -2.18975 3.69254 0
M  V30 3155 C 292.603 -3.42704 4.09133 0
M  V30 3156 O 292.826 -4.51127 3.49057 0
M  V30 3157 O 291.76 -3.32003 5.02053 0
M  V30 3158 H 295.586 -0.746279 2.94388 0
M  V30 3159 H 293.171 -0.303064 1.46294 0
M  V30 3160 H 295.053 -3.19155 2.7517 0
M  V30 3161 H 293.728 -2.80182 1.62109 0
M  V30 3162 H 292.635 -1.40244 3.46818 0
M  V30 3163 H 293.968 -1.86342 4.55563 0
M  V30 3164 N 295.62 -1.53406 -0.361157 0
M  V30 3165 C 296.868 -1.69467 -1.10115 0
M  V30 3166 C 297.189 -0.451352 -1.89705 0
M  V30 3167 O 296.459 0.534636 -1.88463 0
M  V30 3168 H 295.039 -0.624749 -0.409508 0
M  V30 3169 H 297.701 -1.90609 -0.406699 0
M  V30 3170 H 296.797 -2.55774 -1.78847 0
M  V30 3171 N 297.098 0.621204 -1.44841 0
M  V30 3172 C 298.326 1.40752 -1.51646 0
M  V30 3173 C 298.741 1.88246 -0.144549 0
M  V30 3174 O 298.098 1.61422 0.851416 0
M  V30 3175 C 298.149 2.62119 -2.4895 0
M  V30 3176 O 297.87 2.16602 -3.80808 0
M  V30 3177 C 299.371 3.55135 -2.65319 0
M  V30 3178 H 296.591 0.431325 -0.514004 0
M  V30 3179 H 299.135 0.758835 -1.899 0
M  V30 3180 H 297.29 3.23058 -2.13805 0
M  V30 3181 H 297.704 2.95358 -4.33433 0
M  V30 3182 H 299.178 4.36874 -3.37409 0
M  V30 3183 H 299.655 4.04592 -1.70886 0
M  V30 3184 H 300.261 3.00058 -3.01405 0
M  V30 3185 N 298.576 1.31904 0.862503 0
M  V30 3186 C 299.509 1.14514 1.97388 0
M  V30 3187 C 300.487 0.0466493 1.62533 0
M  V30 3188 O 301.671 0.204484 1.87388 0
M  V30 3189 C 298.798 0.751347 3.30261 0
M  V30 3190 C 297.844 1.85395 3.84098 0
M  V30 3191 S 298.677 3.46081 4.08642 0
M  V30 3192 C 299.833 3.08655 5.44502 0
M  V30 3193 H 300.066 2.08597 2.11836 0
M  V30 3194 H 297.599 1.16475 1.01356 0
M  V30 3195 H 299.557 0.530901 4.07052 0
M  V30 3196 H 298.218 -0.170493 3.13637 0
M  V30 3197 H 297.411 1.53122 4.80177 0
M  V30 3198 H 297.013 2.02984 3.14123 0
M  V30 3199 H 299.305 2.58012 6.26447 0
M  V30 3200 H 300.248 4.03726 5.81731 0
M  V30 3201 H 300.656 2.45891 5.08132 0
M  V30 3202 N 300.054 -1.07777 1.14986 0
M  V30 3203 C 301.302 -1.79934 0.920235 0
M  V30 3204 C 301.623 -1.86955 -0.554336 0
M  V30 3205 O 300.893 -1.36731 -1.40291 0
M  V30 3206 H 299.473 -0.666424 0.337473 0
M  V30 3207 H 302.135 -1.3027 1.44968 0
M  V30 3208 H 301.231 -2.82539 1.32583 0
M  V30 3209 N 301.532 -0.945985 -1.26051 0
M  V30 3210 C 302.943 -0.638096 -1.75457 0
M  V30 3211 C 303.294 0.846672 -1.76991 0
M  V30 3212 O 302.419 1.66262 -1.38513 0
M  V30 3213 C 303.014 -1.15157 -3.18629 0
M  V30 3214 C 301.573 -0.894004 -3.65629 0
M  V30 3215 C 300.72 -1.29967 -2.44957 0
M  V30 3216 H 303.671 -1.12376 -1.1206 0
M  V30 3217 H 303.692 -0.507615 -3.77099 0
M  V30 3218 H 303.204 -2.23222 -3.1748 0
M  V30 3219 H 301.305 0.172057 -3.72203 0
M  V30 3220 H 301.418 -1.52439 -4.54202 0
M  V30 3221 H 299.782 -0.718078 -2.44368 0
M  V30 3222 H 300.565 -2.38935 -2.46505 0
M  V30 3223 N 303.011 1.40521 -0.713556 0
M  V30 3224 C 303.958 2.30723 -0.059684 0
M  V30 3225 C 304.928 1.48079 0.752448 0
M  V30 3226 O 306.113 1.76823 0.71681 0
M  V30 3227 C 303.253 3.34274 0.857594 0
M  V30 3228 C 302.366 4.31986 0.0351536 0
M  V30 3229 C 301.501 5.22605 0.951724 0
M  V30 3230 C 300.54 6.11976 0.123253 0
M  V30 3231 N 299.677 6.9502 0.99459 0
M  V30 3232 H 304.517 2.86074 -0.834596 0
M  V30 3233 H 302.054 1.40879 -0.42326 0
M  V30 3234 H 304.012 3.92879 1.40364 0
M  V30 3235 H 302.642 2.8043 1.59871 0
M  V30 3236 H 301.694 3.7518 -0.628052 0
M  V30 3237 H 303.006 4.95101 -0.606347 0
M  V30 3238 H 302.16 5.86131 1.56638 0
M  V30 3239 H 300.899 4.59759 1.62705 0
M  V30 3240 H 299.904 5.47482 -0.50435 0
M  V30 3241 H 301.129 6.76881 -0.548539 0
M  V30 3242 H 299.075 6.34764 1.6556 0
M  V30 3243 H 298.992 7.54892 0.40908 0
M  V30 3244 H 300.26 7.62997 1.59549 0
M  V30 3245 N 304.489 0.459591 1.5075 0
M  V30 3246 C 305.738 -0.100971 2.01447 0
M  V30 3247 C 306.051 -1.41816 1.34713 0
M  V30 3248 O 307.257 -2.06299 1.76502 0
M  V30 3249 C 305.713 -0.23047 3.59161 0
M  V30 3250 C 305.321 1.0776 4.34847 0
M  V30 3251 C 307.065 -0.743608 4.17936 0
M  V30 3252 C 304.972 0.91253 5.84317 0
M  V30 3253 H 303.902 -0.0415102 0.752856 0
M  V30 3254 H 306.553 0.592742 1.73663 0
M  V30 3255 H 304.935 -0.987703 3.83485 0
M  V30 3256 H 306.109 1.8449 4.22256 0
M  V30 3257 H 304.424 1.52097 3.87628 0
M  V30 3258 H 307.021 -0.883959 5.27343 0
M  V30 3259 H 307.364 -1.73196 3.78562 0
M  V30 3260 H 307.897 -0.04408 3.97776 0
M  V30 3261 H 304.636 1.87391 6.28144 0
M  V30 3262 H 304.156 0.185422 5.99513 0
M  V30 3263 H 305.835 0.574547 6.44444 0
M  V30 3264 N 305.967 -1.56429 0.191757 0
M  V30 3265 C 307.378 -1.83912 -0.321428 0
M  V30 3266 C 307.729 -1.11231 -1.61623 0
M  V30 3267 O 306.854 -0.37202 -2.13178 0
M  V30 3268 C 307.449 -3.33624 -0.589961 0
M  V30 3269 C 306.008 -3.6153 -1.04753 0
M  V30 3270 C 305.155 -2.7714 -0.0943327 0
M  V30 3271 H 308.106 -1.53161 0.415612 0
M  V30 3272 H 308.127 -3.52213 -1.43966 0
M  V30 3273 H 307.639 -3.86495 0.352588 0
M  V30 3274 H 305.74 -3.14089 -2.00447 0
M  V30 3275 H 305.853 -4.69737 -0.942549 0
M  V30 3276 H 304.217 -2.47638 -0.595589 0
M  V30 3277 H 305 -3.32799 0.842601 0
M  V30 3278 N 307.445 0.0818655 -1.57387 0
M  V30 3279 C 308.377 1.12484 -1.997 0
M  V30 3280 C 309.39 1.35564 -0.90146 0
M  V30 3281 O 310.579 1.33982 -1.17945 0
M  V30 3282 C 307.679 2.47778 -2.31213 0
M  V30 3283 C 306.852 2.44793 -3.62485 0
M  V30 3284 C 305.911 3.62117 -3.81782 0
M  V30 3285 O 304.937 3.44005 -4.53486 0
M  V30 3286 N 306.139 4.82094 -3.23367 0
M  V30 3287 H 308.904 0.764585 -2.89783 0
M  V30 3288 H 306.465 0.270664 -1.59621 0
M  V30 3289 H 308.457 3.24891 -2.41304 0
M  V30 3290 H 307.027 2.75843 -1.4707 0
M  V30 3291 H 306.247 1.53134 -3.6324 0
M  V30 3292 H 307.535 2.39889 -4.48699 0
M  V30 3293 H 306.933 4.99713 -2.65148 0
M  V30 3294 H 305.49 5.56753 -3.38923 0
M  V30 3295 N 308.923 1.53595 0.353017 0
M  V30 3296 C 310.169 1.71581 1.09232 0
M  V30 3297 C 310.524 0.468328 1.86613 0
M  V30 3298 O 309.817 -0.538911 1.83865 0
M  V30 3299 C 310.011 2.91313 2.07054 0
M  V30 3300 C 309.84 4.27585 1.39287 0
M  V30 3301 C 308.61 4.92233 1.1417 0
M  V30 3302 C 310.808 5.07656 0.824005 0
M  V30 3303 N 308.79 6.124 0.428841 0
M  V30 3304 C 310.161 6.19531 0.241195 0
M  V30 3305 C 312.216 4.92609 0.723922 0
M  V30 3306 C 310.919 7.18002 -0.431952 0
M  V30 3307 C 312.945 5.91365 0.0645334 0
M  V30 3308 C 312.307 7.02571 -0.507347 0
M  V30 3309 H 308.406 0.680987 0.384422 0
M  V30 3310 H 310.99 1.91013 0.377096 0
M  V30 3311 H 309.161 2.73398 2.75877 0
M  V30 3312 H 310.893 2.98062 2.73753 0
M  V30 3313 H 307.648 4.51612 1.42631 0
M  V30 3314 H 308.072 6.76944 0.0874131 0
M  V30 3315 H 312.714 4.06808 1.15181 0
M  V30 3316 H 310.432 8.03384 -0.871758 0
M  V30 3317 H 314.018 5.81799 -0.0121469 0
M  V30 3318 H 312.898 7.77675 -1.0095 0
M  V30 3319 N 310.401 -0.613514 1.45168 0
M  V30 3320 C 311.812 -1.19539 1.43413 0
M  V30 3321 C 312.163 -1.95558 0.158632 0
M  V30 3322 O 311.288 -2.0335 -0.740119 0
M  V30 3323 C 311.883 -2.17445 2.59813 0
M  V30 3324 C 310.442 -2.71022 2.61197 0
M  V30 3325 C 309.589 -1.46323 2.35552 0
M  V30 3326 H 312.54 -0.403163 1.53494 0
M  V30 3327 H 312.561 -3.00373 2.33574 0
M  V30 3328 H 312.073 -1.62089 3.52631 0
M  V30 3329 H 310.174 -3.30332 1.7237 0
M  V30 3330 H 310.287 -3.15859 3.60236 0
M  V30 3331 H 308.651 -1.75072 1.84992 0
M  V30 3332 H 309.434 -0.92844 3.30507 0
M  V30 3333 N 311.879 -1.3236 -0.855495 0
M  V30 3334 C 312.809 -1.23833 -1.97958 0
M  V30 3335 C 313.79 -0.122361 -1.69659 0
M  V30 3336 O 314.975 -0.30939 -1.9172 0
M  V30 3337 C 312.105 -0.959772 -3.33775 0
M  V30 3338 C 311.059 -2.03689 -3.76424 0
M  V30 3339 C 310.385 -1.61075 -5.09862 0
M  V30 3340 C 311.685 -3.4518 -3.9198 0
M  V30 3341 H 313.379 -2.1788 -2.0535 0
M  V30 3342 H 310.925 -1.04891 -0.986605 0
M  V30 3343 H 312.878 -0.886678 -4.11966 0
M  V30 3344 H 311.602 0.0163404 -3.26596 0
M  V30 3345 H 310.261 -2.10012 -3.00484 0
M  V30 3346 H 309.909 -0.622107 -4.99138 0
M  V30 3347 H 309.609 -2.33143 -5.39368 0
M  V30 3348 H 311.133 -1.55201 -5.90546 0
M  V30 3349 H 312.547 -3.4145 -4.60526 0
M  V30 3350 H 310.944 -4.1559 -4.32903 0
M  V30 3351 H 312.014 -3.84903 -2.94919 0
M  V30 3352 N 313.357 1.07166 -1.15556 0
M  V30 3353 C 314.585 1.83514 -0.955519 0
M  V30 3354 C 315 1.82163 0.49621 0
M  V30 3355 O 314.357 1.23441 1.34419 0
M  V30 3356 C 314.408 3.30515 -1.46432 0
M  V30 3357 O 314.129 3.31937 -2.85918 0
M  V30 3358 C 315.63 4.23625 -1.30603 0
M  V30 3359 H 312.85 0.578926 -0.339244 0
M  V30 3360 H 315.394 1.35265 -1.53374 0
M  V30 3361 H 313.549 3.76106 -0.928584 0
M  V30 3362 H 313.963 4.23794 -3.09029 0
M  V30 3363 H 315.437 5.24831 -1.71047 0
M  V30 3364 H 315.914 4.38485 -0.250441 0
M  V30 3365 H 316.52 3.83871 -1.83094 0
M  V30 3366 N 314.835 0.952656 1.25548 0
M  V30 3367 C 315.782 0.47008 2.25962 0
M  V30 3368 C 316.752 -0.476384 1.59122 0
M  V30 3369 O 317.937 -0.39007 1.8677 0
M  V30 3370 C 315.077 -0.247881 3.44209 0
M  V30 3371 C 314.19 0.735591 4.25691 0
M  V30 3372 C 313.325 -0.0047306 5.312 0
M  V30 3373 C 312.364 0.969805 6.04368 0
M  V30 3374 N 311.501 0.260486 7.01617 0
M  V30 3375 H 316.341 1.33126 2.66611 0
M  V30 3376 H 313.878 0.66765 1.31076 0
M  V30 3377 H 315.836 -0.680695 4.1161 0
M  V30 3378 H 314.466 -1.07312 3.0444 0
M  V30 3379 H 313.518 1.28689 3.57971 0
M  V30 3380 H 314.83 1.47934 4.76358 0
M  V30 3381 H 313.984 -0.496275 6.04667 0
M  V30 3382 H 312.723 -0.781282 4.81401 0
M  V30 3383 H 311.728 1.47237 5.29718 0
M  V30 3384 H 312.953 1.74655 6.56256 0
M  V30 3385 H 310.899 -0.497364 6.54112 0
M  V30 3386 H 310.816 0.943362 7.50091 0
M  V30 3387 H 312.084 -0.209587 7.79218 0
M  V30 3388 N 316.313 -1.40141 0.720998 0
M  V30 3389 C 317.223 -2.34486 0.0731031 0
M  V30 3390 C 318.239 -1.57587 -0.737723 0
M  V30 3391 O 319.415 -1.89949 -0.669429 0
M  V30 3392 C 316.48 -3.36528 -0.833656 0
M  V30 3393 C 315.541 -4.29298 -0.0121673 0
M  V30 3394 C 314.774 -5.26466 -0.875742 0
M  V30 3395 O 314.997 -5.29745 -2.11485 0
M  V30 3396 O 313.931 -6.01092 -0.31185 0
M  V30 3397 H 317.757 -2.9152 0.851444 0
M  V30 3398 H 315.342 -1.41427 0.481527 0
M  V30 3399 H 317.224 -3.99093 -1.35289 0
M  V30 3400 H 315.899 -2.81899 -1.59105 0
M  V30 3401 H 314.806 -3.70001 0.552262 0
M  V30 3402 H 316.139 -4.87094 0.707129 0
M  V30 3403 N 317.792 -0.46758 -1.50504 0
M  V30 3404 C 318.739 0.328413 -2.28452 0
M  V30 3405 C 319.709 0.990313 -1.33349 0
M  V30 3406 O 320.894 1.00343 -1.62284 0
M  V30 3407 C 318.034 1.40648 -3.15138 0
M  V30 3408 C 317.147 0.759709 -4.25267 0
M  V30 3409 C 316.282 1.81537 -4.99217 0
M  V30 3410 C 315.321 1.14866 -6.01226 0
M  V30 3411 N 314.458 2.14702 -6.68467 0
M  V30 3412 H 319.298 -0.342603 -2.96024 0
M  V30 3413 H 316.835 -0.180801 -1.45985 0
M  V30 3414 H 318.793 2.04315 -3.63746 0
M  V30 3415 H 317.423 2.04671 -2.49619 0
M  V30 3416 H 316.475 0.0105671 -3.80399 0
M  V30 3417 H 317.787 0.233243 -4.98254 0
M  V30 3418 H 316.941 2.52793 -5.51526 0
M  V30 3419 H 315.68 2.37564 -4.25928 0
M  V30 3420 H 314.685 0.42171 -5.4818 0
M  V30 3421 H 315.91 0.595334 -6.76485 0
M  V30 3422 H 313.856 2.69752 -5.97972 0
M  V30 3423 H 313.773 1.6703 -7.37317 0
M  V30 3424 H 315.041 2.85348 -7.25394 0
M  V30 3425 N 319.27 1.56325 -0.20005 0
M  V30 3426 C 320.2 2.22318 0.713916 0
M  V30 3427 C 321.181 1.18788 1.21752 0
M  V30 3428 O 322.366 1.47309 1.26545 0
M  V30 3429 C 319.496 2.88639 1.93144 0
M  V30 3430 C 318.45 3.98457 1.56255 0
M  V30 3431 C 317.776 4.51967 2.85709 0
M  V30 3432 C 319.076 5.16612 0.768747 0
M  V30 3433 H 320.77 2.98952 0.163755 0
M  V30 3434 H 318.316 1.43792 0.0773219 0
M  V30 3435 H 320.269 3.33491 2.57608 0
M  V30 3436 H 318.993 2.09419 2.50621 0
M  V30 3437 H 317.652 3.54305 0.941471 0
M  V30 3438 H 317.3 3.69503 3.41287 0
M  V30 3439 H 317 5.26071 2.6177 0
M  V30 3440 H 318.524 4.99523 3.51154 0
M  V30 3441 H 319.938 5.57977 1.3166 0
M  V30 3442 H 318.335 5.96812 0.627286 0
M  V30 3443 H 319.405 4.84358 -0.229168 0
M  V30 3444 N 320.748 -0.0735177 1.57428 0
M  V30 3445 C 321.658 -1.10547 2.06922 0
M  V30 3446 C 322.674 -1.42506 0.998402 0
M  V30 3447 O 323.85 -1.52717 1.31299 0
M  V30 3448 C 320.915 -2.40019 2.50184 0
M  V30 3449 C 319.976 -2.15046 3.71556 0
M  V30 3450 C 319.209 -3.38345 4.12745 0
M  V30 3451 O 319.432 -4.47399 3.53822 0
M  V30 3452 O 318.366 -3.2666 5.05546 0
M  V30 3453 H 322.192 -0.715013 2.95163 0
M  V30 3454 H 319.777 -0.287531 1.46607 0
M  V30 3455 H 321.659 -3.16218 2.78539 0
M  V30 3456 H 320.334 -2.78447 1.65072 0
M  V30 3457 H 319.241 -1.36558 3.48285 0
M  V30 3458 H 320.574 -1.81499 4.57514 0
M  V30 3459 N 322.226 -1.5378 -0.344866 0
M  V30 3460 C 323.474 -1.70625 -1.08311 0
M  V30 3461 C 323.795 -0.471447 -1.89215 0
M  V30 3462 O 323.065 0.514616 -1.8902 0
M  V30 3463 H 321.645 -0.629058 -0.402859 0
M  V30 3464 H 324.307 -1.9103 -0.386459 0
M  V30 3465 H 323.403 -2.57656 -1.76124 0
M  V30 3466 N 323.704 0.605807 -1.45491 0
M  V30 3467 C 324.667 1.69836 -1.5391 0
M  V30 3468 C 325.667 1.55261 -0.418424 0
M  V30 3469 O 326.857 1.60296 -0.681965 0
M  V30 3470 C 323.989 3.09117 -1.43734 0
M  V30 3471 H 325.182 1.63738 -2.51257 0
M  V30 3472 H 322.735 0.821689 -1.32959 0
M  V30 3473 H 323.47 3.20791 -0.475788 0
M  V30 3474 H 323.255 3.21104 -2.25021 0
M  V30 3475 H 324.745 3.88696 -1.52661 0
M  V30 3476 N 325.182 1.32811 0.848464 0
M  V30 3477 C 326.129 1.22265 1.95755 0
M  V30 3478 C 327.099 0.103413 1.65778 0
M  V30 3479 O 328.284 0.280033 1.88734 0
M  V30 3480 C 325.424 0.958014 3.31536 0
M  V30 3481 C 324.537 2.16262 3.73971 0
M  V30 3482 C 323.672 1.83295 4.98575 0
M  V30 3483 C 322.711 3.00041 5.33518 0
M  V30 3484 N 321.848 2.67125 6.49299 0
M  V30 3485 H 326.688 2.17128 2.04107 0
M  V30 3486 H 324.225 1.07982 0.998913 0
M  V30 3487 H 326.183 0.785052 4.09747 0
M  V30 3488 H 324.813 0.046159 3.22767 0
M  V30 3489 H 323.865 2.44565 2.91362 0
M  V30 3490 H 325.177 3.03572 3.95785 0
M  V30 3491 H 324.331 1.62586 5.84509 0
M  V30 3492 H 323.07 0.932078 4.7871 0
M  V30 3493 H 322.075 3.21374 4.46093 0
M  V30 3494 H 323.3 3.90869 5.55336 0
M  V30 3495 H 321.246 1.79586 6.3094 0
M  V30 3496 H 321.163 3.47965 6.71161 0
M  V30 3497 H 322.431 2.49861 7.3837 0
M  V30 3498 N 326.66 -1.06551 1.16123 0
M  V30 3499 C 327.57 -2.17484 0.879662 0
M  V30 3500 C 328.586 -1.73377 -0.147104 0
M  V30 3501 O 329.762 -2.01379 0.0289128 0
M  V30 3502 C 326.827 -3.44591 0.381829 0
M  V30 3503 C 325.888 -4.0322 1.4735 0
M  V30 3504 C 325.121 -5.24261 0.999324 0
M  V30 3505 O 325.344 -5.70198 -0.151957 0
M  V30 3506 O 324.278 -5.74775 1.78653 0
M  V30 3507 H 328.104 -2.44075 1.80724 0
M  V30 3508 H 325.689 -1.16042 0.940992 0
M  V30 3509 H 327.571 -4.21254 0.111053 0
M  V30 3510 H 326.246 -3.19532 -0.51777 0
M  V30 3511 H 325.153 -3.2806 1.79798 0
M  V30 3512 H 326.486 -4.32568 2.34831 0
M  V30 3513 N 328.138 -0.959301 -1.25041 0
M  V30 3514 C 329.366 -0.633949 -1.96948 0
M  V30 3515 C 329.781 0.794916 -1.7125 0
M  V30 3516 O 329.138 1.53231 -0.991287 0
M  V30 3517 C 329.189 -0.888805 -3.50403 0
M  V30 3518 O 328.91 -2.26149 -3.75218 0
M  V30 3519 C 330.411 -0.576482 -4.39536 0
M  V30 3520 H 327.631 -0.237263 -0.627652 0
M  V30 3521 H 330.175 -1.28495 -1.59089 0
M  V30 3522 H 328.33 -0.284145 -3.86357 0
M  V30 3523 H 328.744 -2.33514 -4.6965 0
M  V30 3524 H 330.218 -0.805314 -5.46094 0
M  V30 3525 H 330.695 0.489075 -4.36468 0
M  V30 3526 H 331.301 -1.16067 -4.09156 0
M  V30 3527 N 329.616 1.39756 -0.72842 0
M  V30 3528 C 330.862 2.00942 -0.273892 0
M  V30 3529 C 331.195 1.57656 1.13394 0
M  V30 3530 O 330.47 0.802434 1.77176 0
M  V30 3531 C 330.753 3.58211 -0.368346 0
M  V30 3532 C 330.606 4.11534 -1.81548 0
M  V30 3533 C 331.925 4.39372 0.253054 0
M  V30 3534 H 329.044 0.730047 -0.100996 0
M  V30 3535 H 331.686 1.66056 -0.923337 0
M  V30 3536 H 329.836 3.88061 0.184588 0
M  V30 3537 H 331.508 3.92431 -2.42478 0
M  V30 3538 H 329.751 3.65341 -2.33898 0
M  V30 3539 H 330.422 5.20682 -1.83288 0
M  V30 3540 H 332.898 4.15527 -0.218224 0
M  V30 3541 H 331.774 5.48677 0.156585 0
M  V30 3542 H 332.035 4.21358 1.33826 0
M  V30 3543 N 331.094 0.475555 1.50254 0
M  V30 3544 C 332.026 -0.352649 2.26471 0
M  V30 3545 C 333.039 -0.953165 1.3198 0
M  V30 3546 O 334.228 -0.840815 1.57457 0
M  V30 3547 C 331.328 -1.50902 3.0345 0
M  V30 3548 C 330.501 -1.02047 4.25329 0
M  V30 3549 C 329.56 -2.05142 4.84565 0
M  V30 3550 O 328.586 -1.63023 5.45355 0
M  V30 3551 N 329.788 -3.37987 4.71959 0
M  V30 3552 H 332.553 0.300767 2.98187 0
M  V30 3553 H 330.114 0.306598 1.5897 0
M  V30 3554 H 332.106 -2.19572 3.39956 0
M  V30 3555 H 330.676 -2.06705 2.34504 0
M  V30 3556 H 329.896 -0.159507 3.93877 0
M  V30 3557 H 331.184 -0.672061 5.04342 0
M  V30 3558 H 330.582 -3.74913 4.23623 0
M  V30 3559 H 329.139 -4.02443 5.12721 0
M  V30 3560 N 332.573 -1.56217 0.208337 0
M  V30 3561 C 333.989 -1.58919 -0.14729 0
M  V30 3562 C 334.189 -1.22486 -1.59998 0
M  V30 3563 O 333.245 -0.953849 -2.3379 0
M  V30 3564 C 334.558 -3.00236 0.167048 0
M  V30 3565 C 336.106 -3.12813 0.108219 0
M  V30 3566 C 336.581 -4.56284 0.396049 0
M  V30 3567 N 338.072 -4.61912 0.345142 0
M  V30 3568 C 338.807 -5.70837 0.541523 0
M  V30 3569 N 338.303 -6.88178 0.798968 0
M  V30 3570 N 340.096 -5.60091 0.474867 0
M  V30 3571 H 332.247 -1.78177 1.15614 0
M  V30 3572 H 334.51 -0.827555 0.462446 0
M  V30 3573 H 334.216 -3.31499 1.1748 0
M  V30 3574 H 334.09 -3.7354 -0.524184 0
M  V30 3575 H 336.477 -2.81354 -0.890157 0
M  V30 3576 H 336.558 -2.41866 0.832729 0
M  V30 3577 H 336.202 -4.88458 1.3918 0
M  V30 3578 H 336.132 -5.25439 -0.349502 0
M  V30 3579 H 338.623 -3.77589 0.153316 0
M  V30 3580 H 338.936 -7.67095 0.93727 0
M  V30 3581 H 337.281 -6.89953 0.836013 0
M  V30 3582 H 340.472 -4.67297 0.274064 0
M  V30 3583 H 340.645 -6.44917 0.631326 0
M  V30 3584 N 334.051 0.0651679 -1.57465 0
M  V30 3585 C 334.981 1.07693 -2.07182 0
M  V30 3586 C 335.962 1.39962 -0.966673 0
M  V30 3587 O 337.147 1.49475 -1.2398 0
M  V30 3588 C 334.277 2.3885 -2.52127 0
M  V30 3589 C 333.231 2.20917 -3.66579 0
M  V30 3590 C 332.557 3.57515 -3.97601 0
M  V30 3591 C 333.857 1.62493 -4.9638 0
M  V30 3592 H 335.551 0.663199 -2.91962 0
M  V30 3593 H 333.097 0.317569 -1.40455 0
M  V30 3594 H 335.05 3.09928 -2.85522 0
M  V30 3595 H 333.774 2.82215 -1.64384 0
M  V30 3596 H 332.433 1.52279 -3.33477 0
M  V30 3597 H 332.081 3.98463 -3.06979 0
M  V30 3598 H 331.781 3.46353 -4.74672 0
M  V30 3599 H 333.305 4.30013 -4.33499 0
M  V30 3600 H 334.719 2.23445 -5.27963 0
M  V30 3601 H 333.116 1.62009 -5.77818 0
M  V30 3602 H 334.186 0.587041 -4.81333 0
M  V30 3603 N 335.529 1.53961 0.336706 0
M  V30 3604 C 336.459 1.85417 1.41925 0
M  V30 3605 C 337.44 0.709856 1.5458 0
M  V30 3606 O 338.625 0.962396 1.68676 0
M  V30 3607 C 335.755 2.06985 2.78881 0
M  V30 3608 C 334.709 3.22813 2.81026 0
M  V30 3609 C 334.035 3.29727 4.20932 0
M  V30 3610 C 335.335 4.60767 2.45949 0
M  V30 3611 H 337.029 2.76079 1.15848 0
M  V30 3612 H 334.575 1.32839 0.555859 0
M  V30 3613 H 336.528 2.27575 3.54665 0
M  V30 3614 H 335.252 1.13061 3.06406 0
M  V30 3615 H 333.911 3.0209 2.07695 0
M  V30 3616 H 333.559 2.33385 4.45579 0
M  V30 3617 H 333.259 4.07566 4.23277 0
M  V30 3618 H 334.783 3.52536 4.98549 0
M  V30 3619 H 336.197 4.81325 3.11446 0
M  V30 3620 H 334.594 5.4106 2.59566 0
M  V30 3621 H 335.664 4.6391 1.41122 0
M  V30 3622 N 337.007 -0.598083 1.45811 0
M  V30 3623 C 338.232 -1.3881 1.54099 0
M  V30 3624 C 338.657 -1.8726 0.177578 0
M  V30 3625 O 338.015 -1.6069 -0.839541 0
M  V30 3626 C 338.063 -2.56217 2.53743 0
M  V30 3627 O 337.167 -3.5716 2.06182 0
M  V30 3628 H 336.508 -0.414024 0.519115 0
M  V30 3629 H 339.038 -0.726971 1.91249 0
M  V30 3630 H 339.048 -3.03337 2.72856 0
M  V30 3631 H 337.723 -2.20303 3.5276 0
M  V30 3632 H 336.3 -3.16624 1.96987 0
M  V30 3633 N 338.485 -1.33259 -0.841409 0
M  V30 3634 C 339.395 -1.25332 -1.98316 0
M  V30 3635 C 340.411 -0.164364 -1.73222 0
M  V30 3636 O 341.587 -0.387486 -1.97637 0
M  V30 3637 C 338.652 -0.990078 -3.32262 0
M  V30 3638 C 337.713 -2.16879 -3.70489 0
M  V30 3639 C 336.946 -1.91801 -4.98044 0
M  V30 3640 O 337.169 -0.867075 -5.63771 0
M  V30 3641 O 336.103 -2.78267 -5.33714 0
M  V30 3642 H 339.929 -2.21344 -2.07944 0
M  V30 3643 H 337.514 -1.1328 -0.974058 0
M  V30 3644 H 339.396 -0.860321 -4.12524 0
M  V30 3645 H 338.071 -0.0602155 -3.23644 0
M  V30 3646 H 336.978 -2.35407 -2.90748 0
M  V30 3647 H 338.311 -3.0819 -3.8377 0
M  V30 3648 N 339.963 1.05934 -1.16686 0
M  V30 3649 C 341.211 1.78447 -0.948744 0
M  V30 3650 C 341.532 1.87813 0.524523 0
M  V30 3651 O 340.802 1.38945 1.38098 0
M  V30 3652 H 339.382 0.660971 -0.348033 0
M  V30 3653 H 342.044 1.27947 -1.47022 0
M  V30 3654 H 341.14 2.80394 -1.37061 0
M  V30 3655 N 341.441 0.965919 1.2453 0
M  V30 3656 C 342.388 0.49402 2.25451 0
M  V30 3657 C 343.358 -0.45948 1.59618 0
M  V30 3658 O 344.543 -0.370238 1.87173 0
M  V30 3659 C 341.683 -0.211359 3.44452 0
M  V30 3660 C 340.796 0.7807 4.24887 0
M  V30 3661 C 339.931 0.0516105 5.31175 0
M  V30 3662 C 338.97 1.03385 6.03306 0
M  V30 3663 N 338.107 0.334887 7.01301 0
M  V30 3664 H 342.947 1.35946 2.65184 0
M  V30 3665 H 340.484 0.681515 1.3036 0
M  V30 3666 H 342.442 -0.637 4.12308 0
M  V30 3667 H 341.072 -1.04077 3.05562 0
M  V30 3668 H 340.124 1.32479 3.56586 0
M  V30 3669 H 341.436 1.52978 4.74762 0
M  V30 3670 H 340.59 -0.432114 6.05159 0
M  V30 3671 H 339.329 -0.730179 4.82203 0
M  V30 3672 H 338.334 1.52847 5.28127 0
M  V30 3673 H 339.559 1.81606 6.54367 0
M  V30 3674 H 337.505 -0.427959 6.54603 0
M  V30 3675 H 337.422 1.02287 7.49048 0
M  V30 3676 H 338.69 -0.126928 7.79397 0
M  V30 3677 N 342.919 -1.39368 0.735821 0
M  V30 3678 C 344.168 -1.99733 0.281004 0
M  V30 3679 C 344.481 -1.59055 -1.13846 0
M  V30 3680 O 345.687 -2.12262 -1.69284 0
M  V30 3681 C 344.143 -3.57057 0.451462 0
M  V30 3682 C 343.751 -4.06697 1.87886 0
M  V30 3683 C 345.495 -4.2446 0.0584616 0
M  V30 3684 C 343.402 -5.56598 1.99883 0
M  V30 3685 H 342.332 -0.747163 0.101311 0
M  V30 3686 H 344.983 -1.59357 0.909819 0
M  V30 3687 H 343.365 -3.95234 -0.246263 0
M  V30 3688 H 344.539 -3.79853 2.60861 0
M  V30 3689 H 342.854 -3.5196 2.22515 0
M  V30 3690 H 345.451 -5.34549 0.127099 0
M  V30 3691 H 345.794 -4.04444 -0.986433 0
M  V30 3692 H 346.327 -3.9146 0.707374 0
M  V30 3693 H 343.066 -5.81494 3.02564 0
M  V30 3694 H 342.586 -5.85242 1.31346 0
M  V30 3695 H 344.265 -6.22022 1.78039 0
M  V30 3696 N 344.397 -0.483516 -1.5 0
M  V30 3697 C 345.622 0.0667119 -2.07293 0
M  V30 3698 C 346.047 1.3164 -1.3436 0
M  V30 3699 O 345.405 1.76945 -0.394987 0
M  V30 3700 C 345.453 0.321126 -3.59167 0
M  V30 3701 O 344.557 1.39927 -3.87936 0
M  V30 3702 H 343.898 -0.0184758 -0.663743 0
M  V30 3703 H 346.428 -0.678125 -1.93035 0
M  V30 3704 H 346.438 0.557906 -4.04168 0
M  V30 3705 H 345.113 -0.592007 -4.11665 0
M  V30 3706 H 343.69 1.14882 -3.54763 0
M  V30 3707 N 345.875 1.56104 -0.216619 0
M  V30 3708 C 346.785 2.23694 0.706982 0
M  V30 3709 C 347.801 1.24295 1.21765 0
M  V30 3710 O 348.977 1.57094 1.2603 0
M  V30 3711 C 346.042 2.8998 1.90033 0
M  V30 3712 C 345.103 4.04708 1.43213 0
M  V30 3713 C 344.336 4.67824 2.56859 0
M  V30 3714 O 344.559 4.29913 3.74874 0
M  V30 3715 O 343.493 5.56905 2.28343 0
M  V30 3716 H 347.319 3.03272 0.161235 0
M  V30 3717 H 344.904 1.49394 0.0136177 0
M  V30 3718 H 346.786 3.31837 2.59735 0
M  V30 3719 H 345.461 2.13365 2.43428 0
M  V30 3720 H 344.368 3.6743 0.70327 0
M  V30 3721 H 345.701 4.83051 0.944615 0
M  V30 3722 N 347.353 -0.0568162 1.57498 0
M  V30 3723 C 348.316 -1.05038 2.03715 0
M  V30 3724 C 349.316 -1.30709 0.936577 0
M  V30 3725 O 350.506 -1.26178 1.20103 0
M  V30 3726 C 347.638 -2.39034 2.43055 0
M  V30 3727 H 348.831 -0.651715 2.92733 0
M  V30 3728 H 346.384 -0.302947 1.53336 0
M  V30 3729 H 347.119 -2.83703 1.57108 0
M  V30 3730 H 346.904 -2.21739 3.2338 0
M  V30 3731 H 348.394 -3.10421 2.79336 0
M  V30 3732 N 348.832 -1.54138 -0.328536 0
M  V30 3733 C 350.057 -1.76378 -1.09112 0
M  V30 3734 C 350.482 -0.508596 -1.81094 0
M  V30 3735 O 349.84 0.539598 -1.73084 0
M  V30 3736 C 349.888 -2.95358 -2.06872 0
M  V30 3737 O 348.992 -2.66556 -3.14677 0
M  V30 3738 H 348.333 -0.584614 -0.314838 0
M  V30 3739 H 350.863 -2.01146 -0.374348 0
M  V30 3740 H 350.873 -3.22566 -2.4983 0
M  V30 3741 H 349.548 -3.86385 -1.5388 0
M  V30 3742 H 348.125 -2.50282 -2.7643 0
M  V30 3743 N 350.31 0.590341 -1.46126 0
M  V30 3744 C 351.587 1.35029 -1.41515 0
M  V30 3745 C 351.967 2.10888 -0.0946472 0
M  V30 3746 O 351.315 2.08998 0.923693 0
M  V30 3747 C 351.525 2.28269 -2.63997 0
M  V30 3748 C 352.873 2.90338 -3.09821 0
M  V30 3749 O 353.897 2.38585 -2.64492 0
M  V30 3750 O 352.756 3.84321 -3.88535 0
M  V30 3751 H 349.85 0.606317 -0.562413 0
M  V30 3752 H 352.396 0.611994 -1.58281 0
M  V30 3753 H 351.168 1.71591 -3.51671 0
M  V30 3754 H 350.791 3.0945 -2.49652 0
M  V30 3755 N 351.788 1.33704 0.83433 0
M  V30 3756 C 352.736 1.24323 1.96587 0
M  V30 3757 C 353.73 0.143659 1.6879 0
M  V30 3758 O 354.936 0.30791 1.77347 0
M  V30 3759 H 351.311 0.385925 0.645419 0
M  V30 3760 H 353.282 2.19978 2.01624 0
M  V30 3761 C 352.031 1.00394 3.32891 0
M  V30 3762 H 351.354 1.84231 3.54822 0
M  V30 3763 H 352.794 0.97862 4.12552 0
M  V30 3764 C 351.253 -0.293047 3.35623 0
M  V30 3765 O 351.783 -1.29823 3.80143 0
M  V30 3766 N 349.989 -0.322174 2.88809 0
M  V30 3767 H 349.536 0.496379 2.52772 0
M  V30 3768 H 349.494 -1.18977 2.91019 0
M  V30 3769 N 353.266 -1.05314 1.17247 0
M  V30 3770 C 354.214 -2.15137 0.884238 0
M  V30 3771 C 355.208 -1.68729 -0.15063 0
M  V30 3772 O 356.414 -1.8 -0.00366673 0
M  V30 3773 H 352.789 -0.702471 0.2684 0
M  V30 3774 H 354.76 -2.36652 1.81764 0
M  V30 3775 C 353.509 -3.45243 0.412659 0
M  V30 3776 H 352.832 -3.81352 1.20043 0
M  V30 3777 H 354.272 -4.23263 0.249858 0
M  V30 3778 C 352.731 -3.25487 -0.86948 0
M  V30 3779 O 353.261 -3.51938 -1.93655 0
M  V30 3780 N 351.467 -2.78875 -0.817147 0
M  V30 3781 H 351.014 -2.57549 0.0514211 0
M  V30 3782 H 350.972 -2.66036 -1.67547 0
M  V30 3783 N 354.744 -0.972509 -1.24016 0
M  V30 3784 C 356.155 -0.67517 -1.74064 0
M  V30 3785 C 356.506 0.808939 -1.78747 0
M  V30 3786 O 355.631 1.63286 -1.42009 0
M  V30 3787 C 356.226 -1.21889 -3.16115 0
M  V30 3788 C 354.785 -0.971358 -3.6365 0
M  V30 3789 C 353.932 -1.35134 -2.42145 0
M  V30 3790 H 356.883 -1.14727 -1.09651 0
M  V30 3791 H 356.904 -0.587489 -3.75937 0
M  V30 3792 H 356.416 -2.29906 -3.12674 0
M  V30 3793 H 354.517 0.0930686 -3.72484 0
M  V30 3794 H 354.63 -1.62039 -4.50866 0
M  V30 3795 H 352.994 -0.769751 -2.4279 0
M  V30 3796 H 353.777 -2.4411 -2.41381 0
M  V30 3797 N 356.222 1.38976 -0.743202 0
M  V30 3798 C 357.452 2.04339 -0.304807 0
M  V30 3799 C 357.86 1.56162 1.06819 0
M  V30 3800 O 357.203 0.725284 1.68776 0
M  V30 3801 C 357.265 3.58716 -0.237369 0
M  V30 3802 C 356.929 4.29905 -1.55018 0
M  V30 3803 C 357.926 4.55987 -2.49744 0
M  V30 3804 C 355.611 4.68294 -1.81675 0
M  V30 3805 C 357.605 5.19478 -3.69353 0
M  V30 3806 C 355.292 5.31512 -3.0156 0
M  V30 3807 C 356.29 5.57037 -3.9522 0
M  V30 3808 O 355.978 6.18941 -5.12998 0
M  V30 3809 H 355.71 0.663439 -0.12971 0
M  V30 3810 H 358.264 1.78852 -1.01001 0
M  V30 3811 H 356.494 3.83133 0.524003 0
M  V30 3812 H 358.183 4.05543 0.170121 0
M  V30 3813 H 358.949 4.26767 -2.30423 0
M  V30 3814 H 354.828 4.47779 -1.09615 0
M  V30 3815 H 358.372 5.39318 -4.42473 0
M  V30 3816 H 354.269 5.60153 -3.20778 0
M  V30 3817 H 355.037 6.37433 -5.13441 0
M  V30 3818 N 357.7 0.491464 1.49741 0
M  V30 3819 C 358.648 -0.305837 2.30581 0
M  V30 3820 C 359.642 -0.971642 1.38764 0
M  V30 3821 O 360.848 -0.90042 1.5586 0
M  V30 3822 H 357.223 -0.117482 0.742767 0
M  V30 3823 H 359.194 0.396093 2.95759 0
M  V30 3824 C 357.943 -1.36319 3.19863 0
M  V30 3825 H 357.266 -0.860258 3.90435 0
M  V30 3826 H 358.706 -1.89323 3.79385 0
M  V30 3827 C 357.165 -2.37621 2.38826 0
M  V30 3828 O 357.695 -3.43311 2.08567 0
M  V30 3829 N 355.901 -2.09849 2.01026 0
M  V30 3830 H 355.448 -1.23922 2.25834 0
M  V30 3831 H 355.406 -2.77859 1.47112 0
M  V30 3832 N 359.178 -1.55987 0.224894 0
M  V30 3833 C 360.403 -2.03232 -0.41369 0
M  V30 3834 C 360.828 -1.10359 -1.52323 0
M  V30 3835 O 360.186 -0.092395 -1.81064 0
M  V30 3836 C 360.234 -3.48682 -0.919405 0
M  V30 3837 O 359.338 -3.58947 -2.03054 0
M  V30 3838 H 358.679 -0.657428 -0.0931903 0
M  V30 3839 H 361.209 -2.01679 0.34451 0
M  V30 3840 H 361.219 -3.8907 -1.22835 0
M  V30 3841 H 359.894 -4.15761 -0.107339 0
M  V30 3842 H 358.471 -3.30448 -1.72796 0
M  V30 3843 N 360.656 0.0484629 -1.57525 0
M  V30 3844 C 362.067 0.597486 -1.76881 0
M  V30 3845 C 362.418 1.76664 -0.853475 0
M  V30 3846 O 361.543 2.16357 -0.0433656 0
M  V30 3847 C 362.138 1.09066 -3.20765 0
M  V30 3848 C 360.697 1.58535 -3.41385 0
M  V30 3849 C 359.844 0.514868 -2.72478 0
M  V30 3850 H 362.795 -0.177758 -1.57701 0
M  V30 3851 H 362.816 1.95875 -3.2621 0
M  V30 3852 H 362.328 0.239521 -3.8736 0
M  V30 3853 H 360.429 2.45898 -2.79937 0
M  V30 3854 H 360.542 1.64622 -4.49929 0
M  V30 3855 H 358.906 0.965407 -2.35695 0
M  V30 3856 H 359.689 -0.32648 -3.41744 0
M  V30 3857 N 362.134 1.5431 0.320358 0
M  V30 3858 C 363.383 1.7188 1.05546 0
M  V30 3859 C 363.696 0.501143 1.89071 0
M  V30 3860 O 364.902 0.558258 2.65699 0
M  V30 3861 C 363.358 3.04025 1.92605 0
M  V30 3862 C 362.966 4.33207 1.14176 0
M  V30 3863 C 364.71 3.30959 2.65832 0
M  V30 3864 C 362.617 5.56412 2.00399 0
M  V30 3865 H 361.547 0.640547 0.397763 0
M  V30 3866 H 364.198 1.80802 0.313522 0
M  V30 3867 H 362.58 2.89019 2.7071 0
M  V30 3868 H 363.754 4.58989 0.40819 0
M  V30 3869 H 362.069 4.13062 0.526165 0
M  V30 3870 H 364.666 4.20203 3.30656 0
M  V30 3871 H 365.009 2.48979 3.33639 0
M  V30 3872 H 365.542 3.46847 1.94787 0
M  V30 3873 H 362.281 6.41004 1.37094 0
M  V30 3874 H 361.801 5.34844 2.7148 0
M  V30 3875 H 363.48 5.92938 2.58908 0
M  V30 3876 N 363.613 -0.582584 1.46437 0
M  V30 3877 C 364.86 -1.34079 1.51753 0
M  V30 3878 C 365.188 -1.93762 0.169299 0
M  V30 3879 O 364.443 -1.76989 -0.835062 0
M  V30 3880 C 364.742 -2.48964 2.56421 0
M  V30 3881 C 364.408 -2.07273 4.00436 0
M  V30 3882 C 363.07 -1.95618 4.39644 0
M  V30 3883 C 365.422 -1.75111 4.90903 0
M  V30 3884 C 362.75 -1.5006 5.67185 0
M  V30 3885 C 365.102 -1.31032 6.18881 0
M  V30 3886 C 363.766 -1.17954 6.56996 0
M  V30 3887 H 363.036 -0.49063 0.555304 0
M  V30 3888 H 365.683 -0.656007 1.79913 0
M  V30 3889 H 363.988 -3.22889 2.21923 0
M  V30 3890 H 365.685 -3.07178 2.57765 0
M  V30 3891 H 362.275 -2.17279 3.69443 0
M  V30 3892 H 366.459 -1.83001 4.61329 0
M  V30 3893 H 361.715 -1.38577 5.95488 0
M  V30 3894 H 365.889 -1.052 6.88408 0
M  V30 3895 H 363.516 -0.824279 7.55718 0
M  V30 3896 N 365.091 -1.34144 -0.827227 0
M  V30 3897 C 366.337 -1.26446 -1.58554 0
M  V30 3898 C 366.67 0.1664 -1.93486 0
M  V30 3899 O 365.945 1.1107 -1.59667 0
M  V30 3900 C 366.228 -2.15111 -2.8879 0
M  V30 3901 C 366.081 -3.66712 -2.60465 0
M  V30 3902 C 367.4 -2.03311 -3.90324 0
M  V30 3903 H 364.519 -0.46067 -0.575284 0
M  V30 3904 H 367.161 -1.64356 -0.953269 0
M  V30 3905 H 365.311 -1.8291 -3.42748 0
M  V30 3906 H 366.983 -4.09259 -2.1285 0
M  V30 3907 H 365.226 -3.88014 -1.93978 0
M  V30 3908 H 365.897 -4.24112 -3.53317 0
M  V30 3909 H 368.373 -2.31574 -3.45706 0
M  V30 3910 H 367.249 -2.67582 -4.79261 0
M  V30 3911 H 367.51 -1.00879 -4.30437 0
M  V30 3912 N 366.569 1.04691 -1.17803 0
M  V30 3913 C 367.818 1.77176 -0.963931 0
M  V30 3914 C 368.131 1.88888 0.508015 0
M  V30 3915 O 369.337 2.58164 0.840465 0
M  V30 3916 C 367.793 3.18518 -1.67555 0
M  V30 3917 C 367.401 3.14919 -3.18637 0
M  V30 3918 C 369.145 3.95424 -1.54402 0
M  V30 3919 C 367.052 4.51081 -3.82466 0
M  V30 3920 H 365.982 0.664116 -0.357023 0
M  V30 3921 H 368.633 1.17303 -1.4111 0
M  V30 3922 H 367.015 3.78748 -1.15613 0
M  V30 3923 H 368.189 2.64178 -3.77554 0
M  V30 3924 H 366.504 2.51512 -3.31859 0
M  V30 3925 H 369.101 4.96106 -1.99456 0
M  V30 3926 H 369.444 4.13343 -0.495329 0
M  V30 3927 H 369.977 3.41754 -2.0359 0
M  V30 3928 H 366.716 4.38368 -4.87354 0
M  V30 3929 H 366.236 5.01951 -3.28337 0
M  V30 3930 H 367.915 5.2001 -3.84965 0
M  V30 3931 N 368.047 0.979072 1.23499 0
M  V30 3932 C 368.994 0.517904 2.24914 0
M  V30 3933 C 369.964 -0.442525 1.60097 0
M  V30 3934 O 371.149 -0.350365 1.87556 0
M  V30 3935 C 368.289 -0.174813 3.44657 0
M  V30 3936 C 367.402 0.825721 4.24035 0
M  V30 3937 C 366.537 0.107946 5.3109 0
M  V30 3938 C 365.576 1.09778 6.02175 0
M  V30 3939 N 364.713 0.40925 7.00906 0
M  V30 3940 H 369.553 1.38751 2.63727 0
M  V30 3941 H 367.09 0.695303 1.2963 0
M  V30 3942 H 369.048 -0.593233 4.12961 0
M  V30 3943 H 367.678 -1.0083 3.06648 0
M  V30 3944 H 366.73 1.36253 3.55161 0
M  V30 3945 H 368.042 1.58005 4.73113 0
M  V30 3946 H 367.196 -0.367904 6.05583 0
M  V30 3947 H 365.935 -0.678994 4.8295 0
M  V30 3948 H 364.94 1.5844 5.26476 0
M  V30 3949 H 366.165 1.88536 6.52404 0
M  V30 3950 H 364.111 -0.358506 6.5502 0
M  V30 3951 H 364.028 1.10226 7.47921 0
M  V30 3952 H 365.296 -0.0442557 7.79487 0
M  V30 3953 N 369.525 -1.3858 0.750561 0
M  V30 3954 C 370.472 -2.30483 0.120835 0
M  V30 3955 C 371.442 -1.50022 -0.712923 0
M  V30 3956 O 372.627 -1.78662 -0.669676 0
M  V30 3957 C 369.767 -3.36431 -0.768666 0
M  V30 3958 C 368.88 -4.31927 0.0793922 0
M  V30 3959 C 368.015 -5.24944 -0.81283 0
M  V30 3960 C 367.054 -6.12088 0.0390447 0
M  V30 3961 N 366.191 -6.97412 -0.809969 0
M  V30 3962 H 371.031 -2.83761 0.91015 0
M  V30 3963 H 368.568 -1.39707 0.460463 0
M  V30 3964 H 370.526 -3.96462 -1.29898 0
M  V30 3965 H 369.156 -2.8457 -1.5238 0
M  V30 3966 H 368.208 -3.73382 0.727303 0
M  V30 3967 H 369.52 -4.93319 0.737401 0
M  V30 3968 H 368.674 -5.90078 -1.41042 0
M  V30 3969 H 367.413 -4.63911 -1.50458 0
M  V30 3970 H 366.418 -5.45952 0.649328 0
M  V30 3971 H 367.643 -6.75189 0.727809 0
M  V30 3972 H 365.589 -6.38931 -1.48672 0
M  V30 3973 H 365.506 -7.55712 -0.208789 0
M  V30 3974 H 366.774 -7.66959 -1.39263 0
M  V30 3975 N 371.003 -0.499398 -1.49478 0
M  V30 3976 C 372.419 -0.155261 -1.58843 0
M  V30 3977 C 372.619 1.34008 -1.50479 0
M  V30 3978 O 371.675 2.11589 -1.37791 0
M  V30 3979 C 372.988 -0.730636 -2.91689 0
M  V30 3980 C 374.536 -0.696599 -3.0515 0
M  V30 3981 C 375.011 -1.25001 -4.40612 0
M  V30 3982 N 376.502 -1.21064 -4.47099 0
M  V30 3983 C 377.237 -1.60905 -5.50361 0
M  V30 3984 N 376.733 -2.08331 -6.60735 0
M  V30 3985 N 378.526 -1.52331 -5.41065 0
M  V30 3986 H 370.677 -1.47162 -1.53158 0
M  V30 3987 H 372.94 -0.610309 -0.725415 0
M  V30 3988 H 372.646 -1.77928 -3.03372 0
M  V30 3989 H 372.52 -0.190161 -3.7672 0
M  V30 3990 H 374.907 0.343204 -2.93097 0
M  V30 3991 H 374.988 -1.2742 -2.21806 0
M  V30 3992 H 374.632 -2.28859 -4.53416 0
M  V30 3993 H 374.562 -0.64836 -5.22593 0
M  V30 3994 H 377.053 -0.863128 -3.67911 0
M  V30 3995 H 377.366 -2.36805 -7.35624 0
M  V30 3996 H 375.711 -2.12304 -6.6178 0
M  V30 3997 H 378.902 -1.151 -4.53729 0
M  V30 3998 H 379.075 -1.83704 -6.21415 0
M  V30 3999 N 372.481 1.55866 -0.233164 0
M  V30 4000 C 373.706 2.03449 0.402906 0
M  V30 4001 C 374.131 1.11166 1.51736 0
M  V30 4002 O 373.489 0.101996 1.81013 0
M  V30 4003 C 373.537 3.49165 0.9009 0
M  V30 4004 O 372.641 3.60019 2.01147 0
M  V30 4005 H 371.982 0.657913 0.0897025 0
M  V30 4006 H 374.512 2.01493 -0.355201 0
M  V30 4007 H 374.522 3.89716 1.2077 0
M  V30 4008 H 373.197 4.15813 0.0852889 0
M  V30 4009 H 371.774 3.3136 1.71042 0
M  V30 4010 N 373.959 -0.0401083 1.57549 0
M  V30 4011 C 375.207 -0.731677 1.8839 0
M  V30 4012 C 375.528 -1.76481 0.829425 0
M  V30 4013 O 374.798 -1.95411 -0.1383 0
M  V30 4014 H 373.378 -0.273225 0.695239 0
M  V30 4015 H 376.04 -0.00867725 1.94898 0
M  V30 4016 H 375.136 -1.22816 2.86919 0
M  V30 4017 N 375.437 -1.54477 -0.31217 0
M  V30 4018 C 376.384 -1.84655 -1.38461 0
M  V30 4019 C 377.354 -0.694536 -1.50882 0
M  V30 4020 O 378.539 -0.942081 -1.6592 0
M  V30 4021 C 375.679 -2.0896 -2.74645 0
M  V30 4022 C 374.792 -3.36618 -2.70763 0
M  V30 4023 C 373.927 -3.50824 -3.98868 0
M  V30 4024 C 372.966 -4.72315 -3.89339 0
M  V30 4025 N 372.103 -4.83387 -5.09197 0
M  V30 4026 H 376.943 -2.76142 -1.12026 0
M  V30 4027 H 374.48 -1.36748 -0.542065 0
M  V30 4028 H 376.438 -2.21045 -3.53829 0
M  V30 4029 H 375.068 -1.20752 -2.99364 0
M  V30 4030 H 374.12 -3.33211 -1.83506 0
M  V30 4031 H 375.432 -4.25917 -2.59608 0
M  V30 4032 H 374.586 -3.62513 -4.86486 0
M  V30 4033 H 373.325 -2.59638 -4.12843 0
M  V30 4034 H 372.33 -4.6067 -3.00105 0
M  V30 4035 H 373.555 -5.64897 -3.76919 0
M  V30 4036 H 371.501 -3.9512 -5.23657 0
M  V30 4037 H 371.418 -5.66669 -5.00422 0
M  V30 4038 H 372.686 -4.9942 -5.98498 0
M  V30 4039 N 376.915 0.57481 -1.46744 0
M  V30 4040 C 378.161 1.33251 -1.53674 0
M  V30 4041 C 378.516 1.91468 -0.189125 0
M  V30 4042 O 377.809 1.73954 0.803151 0
M  V30 4043 C 378.003 2.476 -2.57738 0
M  V30 4044 C 377.832 2.00586 -4.02487 0
M  V30 4045 C 376.602 1.85237 -4.70123 0
M  V30 4046 C 378.8 1.56078 -4.90045 0
M  V30 4047 N 376.782 1.32377 -5.99458 0
M  V30 4048 C 378.153 1.14863 -6.09267 0
M  V30 4049 C 380.208 1.43968 -4.76632 0
M  V30 4050 C 378.911 0.627435 -7.16558 0
M  V30 4051 C 380.937 0.932512 -5.84002 0
M  V30 4052 C 380.299 0.53019 -7.02402 0
M  V30 4053 H 376.398 0.480284 -0.617131 0
M  V30 4054 H 378.982 0.653592 -1.83402 0
M  V30 4055 H 377.153 3.13045 -2.29907 0
M  V30 4056 H 378.885 3.14567 -2.54616 0
M  V30 4057 H 375.64 2.07423 -4.25761 0
M  V30 4058 H 376.064 1.08085 -6.68316 0
M  V30 4059 H 380.706 1.73689 -3.85476 0
M  V30 4060 H 378.424 0.317821 -8.07475 0
M  V30 4061 H 382.01 0.842611 -5.75666 0
M  V30 4062 H 380.89 0.14381 -7.84068 0
M  V30 4063 N 378.394 1.34581 0.820102 0
M  V30 4064 C 379.81 1.14325 1.11364 0
M  V30 4065 C 380.01 -0.0533648 2.01429 0
M  V30 4066 O 379.066 -0.728044 2.41776 0
M  V30 4067 C 380.379 2.43983 1.75764 0
M  V30 4068 C 381.927 2.50065 1.88246 0
M  V30 4069 C 382.402 3.79732 2.56061 0
M  V30 4070 N 383.893 3.80908 2.63558 0
M  V30 4071 C 384.628 4.77961 3.16766 0
M  V30 4072 N 384.124 5.85397 3.70517 0
M  V30 4073 N 385.917 4.65413 3.15194 0
M  V30 4074 H 378.068 2.11246 0.221096 0
M  V30 4075 H 380.331 0.934289 0.160649 0
M  V30 4076 H 380.037 3.31651 1.1705 0
M  V30 4077 H 379.911 2.57531 2.75604 0
M  V30 4078 H 382.298 1.62834 2.46108 0
M  V30 4079 H 382.379 2.40442 0.873006 0
M  V30 4080 H 382.023 4.67354 1.98853 0
M  V30 4081 H 381.953 3.86639 3.57516 0
M  V30 4082 H 384.444 3.03274 2.25463 0
M  V30 4083 H 384.757 6.55463 4.09376 0
M  V30 4084 H 383.102 5.89107 3.68752 0
M  V30 4085 H 386.293 3.80627 2.72471 0
M  V30 4086 H 386.466 5.41216 3.56356 0
M  V30 4087 N 379.872 -1.04064 1.18357 0
M  V30 4088 C 380.802 -2.14001 0.934113 0
M  V30 4089 C 381.783 -1.69616 -0.128186 0
M  V30 4090 O 382.968 -1.94185 0.0244093 0
M  V30 4091 C 380.098 -3.44253 0.459066 0
M  V30 4092 C 379.052 -4.02261 1.46185 0
M  V30 4093 C 378.378 -5.27992 0.844322 0
M  V30 4094 C 379.678 -4.38432 2.83856 0
M  V30 4095 H 381.372 -2.35127 1.85352 0
M  V30 4096 H 378.918 -1.12998 0.892604 0
M  V30 4097 H 380.871 -4.20522 0.271907 0
M  V30 4098 H 379.595 -3.22813 -0.495912 0
M  V30 4099 H 378.254 -3.28074 1.63595 0
M  V30 4100 H 377.902 -5.02862 -0.117845 0
M  V30 4101 H 377.602 -5.67765 1.51384 0
M  V30 4102 H 379.126 -6.06938 0.667693 0
M  V30 4103 H 380.54 -5.05688 2.70098 0
M  V30 4104 H 378.937 -4.89254 3.47491 0
M  V30 4105 H 380.007 -3.4826 3.37406 0
M  V30 4106 N 381.35 -0.985608 -1.22978 0
M  V30 4107 C 382.28 -0.549649 -2.26939 0
M  V30 4108 C 383.261 0.419803 -1.64838 0
M  V30 4109 O 384.446 0.31203 -1.91677 0
M  V30 4110 C 381.576 0.143652 -3.47003 0
M  V30 4111 C 380.53 -0.743606 -4.21491 0
M  V30 4112 C 379.856 0.0822027 -5.34637 0
M  V30 4113 C 381.156 -2.03694 -4.80943 0
M  V30 4114 H 382.85 -1.41862 -2.63658 0
M  V30 4115 H 380.396 -0.683571 -1.26741 0
M  V30 4116 H 382.349 0.459985 -4.18882 0
M  V30 4117 H 381.073 1.04711 -3.09359 0
M  V30 4118 H 379.732 -1.04347 -3.51436 0
M  V30 4119 H 379.38 0.986359 -4.93234 0
M  V30 4120 H 379.08 -0.508377 -5.85397 0
M  V30 4121 H 380.604 0.392797 -6.09335 0
M  V30 4122 H 382.018 -1.78504 -5.44802 0
M  V30 4123 H 380.415 -2.57573 -5.42011 0
M  V30 4124 H 381.485 -2.72042 -4.01399 0
M  V30 4125 N 382.828 1.3818 -0.7579 0
M  V30 4126 C 383.76 2.2901 -0.0932177 0
M  V30 4127 C 384.773 1.47958 0.679136 0
M  V30 4128 O 385.962 1.70773 0.519514 0
M  V30 4129 C 383.062 3.26953 0.89192 0
M  V30 4130 C 382.235 4.37045 0.176303 0
M  V30 4131 C 381.294 5.15148 1.07281 0
M  V30 4132 O 380.32 5.66616 0.541728 0
M  V30 4133 N 381.522 5.28542 2.40049 0
M  V30 4134 H 384.287 2.86694 -0.873303 0
M  V30 4135 H 381.848 1.50007 -0.609054 0
M  V30 4136 H 383.84 3.76083 1.49479 0
M  V30 4137 H 382.41 2.70136 1.57306 0
M  V30 4138 H 381.63 3.89493 -0.607328 0
M  V30 4139 H 382.918 5.07801 -0.318718 0
M  V30 4140 H 382.316 4.88285 2.85647 0
M  V30 4141 H 380.873 5.8103 2.95376 0
M  V30 4142 N 384.306 0.507319 1.49211 0
M  V30 4143 C 385.583 -0.0982702 1.95353 0
M  V30 4144 C 385.963 -1.53516 1.449 0
M  V30 4145 O 385.311 -2.18594 0.66551 0
M  V30 4146 C 385.521 -0.00440283 3.49 0
M  V30 4147 C 386.869 -0.175147 4.24239 0
M  V30 4148 O 387.893 -0.0792891 3.56112 0
M  V30 4149 O 386.752 -0.37276 5.45227 0
M  V30 4150 H 383.846 -0.0918236 0.821887 0
M  V30 4151 H 386.392 0.570307 1.5983 0
M  V30 4152 H 385.164 0.997402 3.78375 0
M  V30 4153 H 384.787 -0.712845 3.91158 0
M  V30 4154 N 385.784 -1.5574 0.241426 0
M  V30 4155 C 386.714 -2.24133 -0.654722 0
M  V30 4156 C 387.695 -1.21974 -1.1856 0
M  V30 4157 O 388.88 -1.50612 -1.22595 0
M  V30 4158 C 386.01 -2.93659 -1.85423 0
M  V30 4159 C 384.964 -4.0246 -1.45636 0
M  V30 4160 C 384.29 -4.59383 -2.73626 0
M  V30 4161 C 385.59 -5.18468 -0.631506 0
M  V30 4162 H 387.284 -2.99281 -0.0844353 0
M  V30 4163 H 384.83 -1.43947 -0.0391707 0
M  V30 4164 H 386.783 -3.40203 -2.48676 0
M  V30 4165 H 385.507 -2.15991 -2.44981 0
M  V30 4166 H 384.166 -3.56676 -0.847202 0
M  V30 4167 H 383.814 -3.78422 -3.3137 0
M  V30 4168 H 383.514 -5.32826 -2.4773 0
M  V30 4169 H 385.038 -5.08658 -3.37786 0
M  V30 4170 H 386.452 -5.61272 -1.1682 0
M  V30 4171 H 384.849 -5.98266 -0.468831 0
M  V30 4172 H 385.919 -4.8358 0.357506 0
M  V30 4173 N 387.262 0.0317525 -1.57568 0
M  V30 4174 C 388.678 0.38735 -1.54828 0
M  V30 4175 C 388.878 1.7677 -0.967187 0
M  V30 4176 O 387.934 2.45581 -0.587063 0
M  V30 4177 C 389.247 0.291667 -2.99282 0
M  V30 4178 C 390.795 0.368946 -3.10818 0
M  V30 4179 C 391.27 0.302741 -4.56998 0
M  V30 4180 N 392.761 0.361617 -4.61786 0
M  V30 4181 C 393.496 0.333238 -5.72431 0
M  V30 4182 N 392.992 0.257308 -6.92322 0
M  V30 4183 N 394.785 0.382769 -5.60795 0
M  V30 4184 H 386.936 -0.871609 -1.93692 0
M  V30 4185 H 389.199 -0.331161 -0.888277 0
M  V30 4186 H 388.905 -0.656794 -3.45513 0
M  V30 4187 H 388.779 1.08638 -3.61217 0
M  V30 4188 H 391.166 1.30784 -2.64536 0
M  V30 4189 H 391.247 -0.455066 -2.5172 0
M  V30 4190 H 390.891 -0.632473 -5.03947 0
M  V30 4191 H 390.821 1.14482 -5.14005 0
M  V30 4192 H 393.312 0.422923 -3.75526 0
M  V30 4193 H 393.625 0.24068 -7.72425 0
M  V30 4194 H 391.97 0.223396 -6.94641 0
M  V30 4195 H 395.161 0.44006 -4.66027 0
M  V30 4196 H 395.334 0.357184 -6.47015 0
M  V30 4197 N 388.74 1.54641 0.303973 0
M  V30 4198 C 389.65 1.88439 1.39743 0
M  V30 4199 C 390.666 0.778239 1.55626 0
M  V30 4200 O 391.842 1.07442 1.70347 0
M  V30 4201 C 388.907 2.12212 2.74166 0
M  V30 4202 C 387.968 3.35936 2.67293 0
M  V30 4203 C 387.201 3.58566 3.95305 0
M  V30 4204 O 387.424 2.84263 4.9452 0
M  V30 4205 O 386.358 4.52078 3.97378 0
M  V30 4206 H 390.184 2.81458 1.14083 0
M  V30 4207 H 387.769 1.40793 0.499768 0
M  V30 4208 H 389.651 2.29067 3.53704 0
M  V30 4209 H 388.326 1.22379 2.99675 0
M  V30 4210 H 387.233 3.24448 1.86237 0
M  V30 4211 H 388.566 4.2589 2.46736 0
M  V30 4212 N 390.218 -0.567019 1.47046 0
M  V30 4213 C 391.148 -1.68482 1.61667 0
M  V30 4214 C 392.129 -1.6358 0.466418 0
M  V30 4215 O 393.314 -1.81354 0.694574 0
M  V30 4216 C 390.444 -3.07124 1.62148 0
M  V30 4217 C 389.398 -3.26867 2.76301 0
M  V30 4218 C 388.724 -4.66196 2.61849 0
M  V30 4219 C 390.024 -3.13186 4.17986 0
M  V30 4220 H 391.718 -1.56502 2.5524 0
M  V30 4221 H 389.264 -0.751486 1.22836 0
M  V30 4222 H 391.217 -3.8516 1.70968 0
M  V30 4223 H 389.941 -3.2004 0.651287 0
M  V30 4224 H 388.6 -2.51237 2.66975 0
M  V30 4225 H 388.248 -4.75898 1.62879 0
M  V30 4226 H 387.948 -4.80356 3.38425 0
M  V30 4227 H 389.472 -5.46379 2.72584 0
M  V30 4228 H 390.886 -3.81049 4.2834 0
M  V30 4229 H 389.283 -3.3886 4.95272 0
M  V30 4230 H 390.353 -2.10057 4.3704 0
M  V30 4231 N 391.696 -1.35014 -0.812953 0
M  V30 4232 C 392.644 -1.27435 -1.94585 0
M  V30 4233 C 393.638 -0.170494 -1.6854 0
M  V30 4234 O 394.844 -0.336085 -1.76835 0
M  V30 4235 H 391.219 -0.396144 -0.639198 0
M  V30 4236 H 393.19 -2.23158 -1.98098 0
M  V30 4237 C 391.939 -1.05677 -3.31252 0
M  V30 4238 H 391.262 -1.89853 -3.51846 0
M  V30 4239 H 392.702 -1.04413 -4.10943 0
M  V30 4240 C 391.161 0.239615 -3.36047 0
M  V30 4241 O 391.691 1.23759 -3.8216 0
M  V30 4242 N 389.897 0.276186 -2.89285 0
M  V30 4243 H 389.444 -0.53653 -2.51951 0
M  V30 4244 H 389.402 1.14332 -2.92875 0
M  V30 4245 N 393.175 1.03435 -1.18907 0
M  V30 4246 C 394.122 2.11591 -0.921837 0
M  V30 4247 C 395.092 1.65499 0.141226 0
M  V30 4248 O 396.277 1.908 0.000242829 0
M  V30 4249 C 393.417 3.42012 -0.460616 0
M  V30 4250 C 392.53 4.01682 -1.58982 0
M  V30 4251 C 391.665 5.20091 -1.08069 0
M  V30 4252 C 390.704 5.71805 -2.18416 0
M  V30 4253 N 389.841 6.81494 -1.68849 0
M  V30 4254 H 394.681 2.33787 -1.8479 0
M  V30 4255 H 392.218 1.1467 -0.921373 0
M  V30 4256 H 394.176 4.16834 -0.174642 0
M  V30 4257 H 392.806 3.19944 0.428467 0
M  V30 4258 H 391.858 3.24127 -1.99113 0
M  V30 4259 H 393.17 4.36084 -2.4214 0
M  V30 4260 H 392.324 6.02051 -0.749615 0
M  V30 4261 H 391.063 4.87209 -0.218771 0
M  V30 4262 H 390.068 4.88461 -2.5236 0
M  V30 4263 H 391.293 6.06728 -3.05054 0
M  V30 4264 H 389.239 6.50475 -0.849572 0
M  V30 4265 H 389.156 7.14994 -2.45601 0
M  V30 4266 H 390.424 7.67063 -1.38689 0
M  V30 4267 N 394.653 0.992116 1.22453 0
M  V30 4268 C 395.881 0.685944 1.95198 0
M  V30 4269 C 396.296 -0.749233 1.73297 0
M  V30 4270 O 395.653 -1.50549 1.03156 0
M  V30 4271 C 395.704 0.981395 3.47924 0
M  V30 4272 O 395.425 2.36018 3.6909 0
M  V30 4273 C 396.926 0.692815 4.37853 0
M  V30 4274 H 394.146 0.253821 0.621141 0
M  V30 4275 H 396.69 1.32668 1.55626 0
M  V30 4276 H 394.845 0.386481 3.85467 0
M  V30 4277 H 395.259 2.45884 4.63294 0
M  V30 4278 H 396.733 0.949818 5.43767 0
M  V30 4279 H 397.21 -0.373181 4.37612 0
M  V30 4280 H 397.816 1.26874 4.05935 0
M  V30 4281 N 396.131 -1.37776 0.765217 0
M  V30 4282 C 397.377 -2.00145 0.327072 0
M  V30 4283 C 397.71 -1.60607 -1.09175 0
M  V30 4284 O 396.985 -0.849127 -1.74986 0
M  V30 4285 C 397.268 -3.57109 0.46319 0
M  V30 4286 C 397.121 -4.06576 1.92395 0
M  V30 4287 C 398.44 -4.39888 -0.136473 0
M  V30 4288 H 395.559 -0.727113 0.120316 0
M  V30 4289 H 398.201 -1.63549 0.967039 0
M  V30 4290 H 396.351 -3.88414 -0.0816358 0
M  V30 4291 H 398.023 -3.85864 2.52798 0
M  V30 4292 H 396.266 -3.59011 2.43503 0
M  V30 4293 H 396.937 -5.15639 1.97028 0
M  V30 4294 H 399.413 -4.14803 0.328317 0
M  V30 4295 H 398.289 -5.48899 -0.0110582 0
M  V30 4296 H 398.55 -4.24758 -1.22608 0
M  V30 4297 N 397.609 -0.515225 -1.4894 0
M  V30 4298 C 398.541 0.292481 -2.27326 0
M  V30 4299 C 399.554 0.917838 -1.3446 0
M  V30 4300 O 400.743 0.798772 -1.5963 0
M  V30 4301 C 397.843 1.42803 -3.07344 0
M  V30 4302 C 397.016 0.907347 -4.27885 0
M  V30 4303 C 396.075 1.92222 -4.89834 0
M  V30 4304 O 395.101 1.48506 -5.49486 0
M  V30 4305 N 396.303 3.25355 -4.80754 0
M  V30 4306 H 399.068 -0.379721 -2.97285 0
M  V30 4307 H 396.629 -0.348638 -1.58102 0
M  V30 4308 H 398.621 2.10481 -3.45658 0
M  V30 4309 H 397.191 2.00414 -2.39902 0
M  V30 4310 H 396.411 0.0550218 -3.94162 0
M  V30 4311 H 397.699 0.538108 -5.05946 0
M  V30 4312 H 397.097 3.6355 -4.33414 0
M  V30 4313 H 395.654 3.88707 -5.23211 0
M  V30 4314 N 399.087 1.5561 -0.249682 0
M  V30 4315 C 400.333 1.99306 0.374841 0
M  V30 4316 C 400.666 1.13767 1.57387 0
M  V30 4317 O 399.941 0.201711 1.93451 0
M  V30 4318 C 400.224 3.51507 0.781986 0
M  V30 4319 C 400.077 4.4781 -0.422629 0
M  V30 4320 C 401.396 4.08884 1.62793 0
M  V30 4321 H 398.515 0.724572 0.134773 0
M  V30 4322 H 401.157 1.86719 -0.351549 0
M  V30 4323 H 399.307 3.62363 1.4009 0
M  V30 4324 H 400.979 4.48931 -1.06108 0
M  V30 4325 H 399.222 4.20518 -1.06524 0
M  V30 4326 H 399.893 5.51919 -0.0943766 0
M  V30 4327 H 402.369 4.01147 1.10547 0
M  V30 4328 H 401.245 5.1564 1.88166 0
M  V30 4329 H 401.506 3.57515 2.60068 0
M  V30 4330 N 400.565 -0.0233959 1.57583 0
M  V30 4331 C 401.813 -0.711654 1.89156 0
M  V30 4332 C 402.134 -1.75591 0.848096 0
M  V30 4333 O 401.404 -1.95547 -0.117566 0
M  V30 4334 H 399.984 -0.265835 0.698098 0
M  V30 4335 H 402.646 0.0119948 1.94896 0
M  V30 4336 H 401.742 -1.19766 2.88206 0
M  V30 4337 N 402.043 -1.548 -0.295768 0
M  V30 4338 C 403.271 -1.78327 -1.04914 0
M  V30 4339 C 403.686 -0.545316 -1.80753 0
M  V30 4340 O 403.043 0.485013 -1.75937 0
M  V30 4341 C 403.094 -2.99418 -2.02561 0
M  V30 4342 O 402.815 -4.18431 -1.29798 0
M  V30 4343 C 404.316 -3.35375 -2.89895 0
M  V30 4344 H 401.536 -0.594618 -0.310918 0
M  V30 4345 H 404.08 -2.01763 -0.333454 0
M  V30 4346 H 402.235 -2.78175 -2.69624 0
M  V30 4347 H 402.649 -4.86736 -1.95419 0
M  V30 4348 H 404.123 -4.23332 -3.54251 0
M  V30 4349 H 404.6 -2.53761 -3.58472 0
M  V30 4350 H 405.206 -3.58796 -2.28355 0
M  V30 4351 N 403.521 0.559213 -1.47345 0
M  V30 4352 C 404.431 1.69388 -1.62311 0
M  V30 4353 C 405.447 1.6648 -0.505993 0
M  V30 4354 O 406.623 1.85964 -0.773262 0
M  V30 4355 C 403.688 3.05894 -1.63185 0
M  V30 4356 C 402.749 3.19885 -2.86307 0
M  V30 4357 C 401.982 4.49879 -2.87131 0
M  V30 4358 O 402.205 5.35217 -1.97229 0
M  V30 4359 O 401.139 4.67618 -3.78968 0
M  V30 4360 H 404.965 1.59706 -2.58317 0
M  V30 4361 H 402.55 0.728989 -1.30407 0
M  V30 4362 H 404.432 3.87133 -1.66451 0
M  V30 4363 H 403.107 3.15964 -0.70345 0
M  V30 4364 H 402.014 2.38052 -2.88587 0
M  V30 4365 H 403.347 3.14718 -3.78435 0
M  V30 4366 N 404.999 1.35443 0.805782 0
M  V30 4367 C 406.248 1.28097 1.55801 0
M  V30 4368 C 406.561 -0.142428 1.95081 0
M  V30 4369 O 407.767 -0.33817 2.69386 0
M  V30 4370 C 406.223 2.24653 2.81174 0
M  V30 4371 C 405.831 3.72342 2.49129 0
M  V30 4372 C 407.575 2.2625 3.59181 0
M  V30 4373 C 405.482 4.60719 3.70799 0
M  V30 4374 H 404.412 0.475937 0.584808 0
M  V30 4375 H 407.063 1.60712 0.885661 0
M  V30 4376 H 405.445 1.85011 3.50124 0
M  V30 4377 H 406.619 4.20624 1.88181 0
M  V30 4378 H 404.934 3.73361 1.84366 0
M  V30 4379 H 407.531 2.89495 4.49552 0
M  V30 4380 H 407.874 1.26647 3.96568 0
M  V30 4381 H 408.407 2.64426 2.97193 0
M  V30 4382 H 405.146 5.61324 3.3852 0
M  V30 4383 H 404.666 4.17163 4.3097 0
M  V30 4384 H 406.345 4.76182 4.38018 0
M  V30 4385 N 406.477 -1.02803 1.19454 0
M  V30 4386 C 407.702 -1.80378 1.02364 0
M  V30 4387 C 408.127 -1.83282 -0.423007 0
M  V30 4388 O 407.485 -1.25945 -1.30413 0
M  V30 4389 C 407.533 -3.23248 1.59821 0
M  V30 4390 O 406.637 -4.04 0.828105 0
M  V30 4391 H 405.978 -0.556799 0.361761 0
M  V30 4392 H 408.508 -1.29385 1.58495 0
M  V30 4393 H 408.518 -3.73994 1.63073 0
M  V30 4394 H 407.193 -3.2045 2.65113 0
M  V30 4395 H 405.77 -3.62635 0.86891 0
M  V30 4396 N 407.956 -0.998596 -1.21925 0
M  V30 4397 C 409.372 -0.710303 -1.42923 0
M  V30 4398 C 409.572 0.716933 -1.88314 0
M  V30 4399 O 408.628 1.48712 -2.04062 0
M  V30 4400 C 409.941 -1.72072 -2.466 0
M  V30 4401 C 411.489 -1.73681 -2.60392 0
M  V30 4402 C 411.964 -2.73601 -3.67296 0
M  V30 4403 N 413.455 -2.7223 -3.7476 0
M  V30 4404 C 414.19 -3.46206 -4.57087 0
M  V30 4405 N 413.686 -4.29802 -5.43362 0
M  V30 4406 N 415.479 -3.34886 -4.51451 0
M  V30 4407 H 407.63 -1.92028 -0.9077 0
M  V30 4408 H 409.893 -0.828487 -0.460775 0
M  V30 4409 H 409.599 -2.74231 -2.20206 0
M  V30 4410 H 409.473 -1.51818 -3.45299 0
M  V30 4411 H 411.86 -0.722173 -2.86127 0
M  V30 4412 H 411.941 -1.98005 -1.61949 0
M  V30 4413 H 411.585 -3.75217 -3.42307 0
M  V30 4414 H 411.515 -2.46545 -4.65321 0
M  V30 4415 H 414.006 -2.11576 -3.1312 0
M  V30 4416 H 414.319 -4.83061 -6.03218 0
M  V30 4417 H 412.664 -4.33887 -5.42925 0
M  V30 4418 H 415.855 -2.69015 -3.83078 0
M  V30 4419 H 416.028 -3.92796 -5.15379 0
M  V30 4420 N 409.434 1.37368 -0.772513 0
M  V30 4421 C 410.682 1.99279 -0.336516 0
M  V30 4422 C 411.003 1.6163 1.09091 0
M  V30 4423 O 410.273 0.882109 1.74916 0
M  V30 4424 H 408.853 0.737063 -0.121435 0
M  V30 4425 H 411.515 1.67836 -0.990809 0
M  V30 4426 H 410.611 3.09332 -0.414763 0
M  V30 4427 N 410.912 0.523116 1.48665 0
M  V30 4428 C 411.842 -0.23231 2.32342 0
M  V30 4429 C 412.823 -0.941637 1.41659 0
M  V30 4430 O 414.008 -0.928751 1.70552 0
M  V30 4431 C 411.138 -1.28387 3.22698 0
M  V30 4432 C 410.092 -0.693098 4.22351 0
M  V30 4433 C 409.418 -1.8468 5.01794 0
M  V30 4434 C 410.718 0.33063 5.21252 0
M  V30 4435 H 412.412 0.466192 2.95748 0
M  V30 4436 H 409.958 0.225643 1.42221 0
M  V30 4437 H 411.911 -1.82024 3.80059 0
M  V30 4438 H 410.635 -2.01186 2.57278 0
M  V30 4439 H 409.294 -0.178299 3.66166 0
M  V30 4440 H 408.942 -2.56301 4.32804 0
M  V30 4441 H 408.642 -1.45747 5.69238 0
M  V30 4442 H 410.166 -2.38709 5.62006 0
M  V30 4443 H 411.58 -0.118407 5.73178 0
M  V30 4444 H 409.977 0.636974 5.9671 0
M  V30 4445 H 411.047 1.23883 4.68808 0
M  V30 4446 N 412.39 -1.55475 0.257931 0
M  V30 4447 C 413.801 -1.8511 -0.243135 0
M  V30 4448 C 414.152 -1.17986 -1.5676 0
M  V30 4449 O 413.277 -0.462102 -2.11409 0
M  V30 4450 C 413.872 -3.35826 -0.447929 0
M  V30 4451 C 412.431 -3.65647 -0.893245 0
M  V30 4452 C 411.578 -2.7729 0.0232965 0
M  V30 4453 H 414.529 -1.51261 0.480199 0
M  V30 4454 H 414.55 -3.58002 -1.28898 0
M  V30 4455 H 414.062 -3.84652 0.516196 0
M  V30 4456 H 412.163 -3.22308 -1.86945 0
M  V30 4457 H 412.276 -4.73312 -0.742469 0
M  V30 4458 H 410.64 -2.49942 -0.490021 0
M  V30 4459 H 411.423 -3.28926 0.982994 0
M  V30 4460 N 413.868 0.0150385 -1.57593 0
M  V30 4461 C 414.818 1.01943 -2.0394 0
M  V30 4462 C 415.802 1.31209 -0.931286 0
M  V30 4463 O 416.994 1.30559 -1.19513 0
M  V30 4464 C 414.123 2.31621 -2.53391 0
M  V30 4465 C 413.209 2.05384 -3.7105 0
M  V30 4466 N 413.6 1.49253 -4.83278 0
M  V30 4467 C 411.898 2.35601 -3.78693 0
M  V30 4468 C 412.599 1.39143 -5.64813 0
M  V30 4469 N 411.575 1.87187 -5.10355 0
M  V30 4470 H 415.377 0.57969 -2.88126 0
M  V30 4471 H 412.891 0.221056 -1.60888 0
M  V30 4472 H 414.888 3.044 -2.84862 0
M  V30 4473 H 413.548 2.76261 -1.70616 0
M  V30 4474 H 414.559 1.17334 -5.04433 0
M  V30 4475 H 411.236 2.8322 -3.06746 0
M  V30 4476 H 412.626 0.961153 -6.6499 0
M  V30 4477 N 415.346 1.54954 0.287554 0
M  V30 4478 C 416.757 1.65732 0.859634 0
M  V30 4479 C 417.108 0.574767 1.87592 0
M  V30 4480 O 416.233 -0.286299 2.14498 0
M  V30 4481 C 416.828 3.00438 1.56597 0
M  V30 4482 C 415.387 3.13292 2.08627 0
M  V30 4483 C 414.534 2.61473 0.923416 0
M  V30 4484 H 417.485 1.5857 0.0642338 0
M  V30 4485 H 417.506 2.92613 2.43224 0
M  V30 4486 H 417.018 3.79207 0.826053 0
M  V30 4487 H 415.119 2.39268 2.85625 0
M  V30 4488 H 415.232 4.19647 2.31157 0
M  V30 4489 H 413.596 2.18264 1.31275 0
M  V30 4490 H 414.379 3.42733 0.197241 0
M  V30 4491 N 416.824 -0.551391 1.4764 0
M  V30 4492 C 418.072 -1.30572 1.54258 0
M  V30 4493 C 418.393 -1.93877 0.208963 0
M  V30 4494 O 417.663 -1.80234 -0.767619 0
M  V30 4495 H 416.243 -0.484894 0.568231 0
M  V30 4496 H 418.905 -0.643402 1.83974 0
M  V30 4497 H 418.001 -2.09621 2.31226 0
M  V30 4498 N 418.302 -1.35869 -0.798587 0
M  V30 4499 C 419.55 -1.29332 -1.55298 0
M  V30 4500 C 419.871 0.129729 -1.94568 0
M  V30 4501 O 419.141 1.06796 -1.6423 0
M  V30 4502 H 417.721 -0.475737 -0.57592 0
M  V30 4503 H 420.383 -1.70062 -0.952093 0
M  V30 4504 H 419.479 -1.91458 -2.46476 0
M  V30 4505 N 419.78 1.02168 -1.19998 0
M  V30 4506 C 420.71 2.12488 -0.96804 0
M  V30 4507 C 421.691 1.69799 0.101185 0
M  V30 4508 O 422.876 1.94121 -0.0552993 0
M  V30 4509 C 420.006 3.43479 -0.513776 0
M  V30 4510 C 418.96 3.99884 -1.52566 0
M  V30 4511 C 418.286 5.26582 -0.928214 0
M  V30 4512 C 419.586 4.33861 -2.90795 0
M  V30 4513 H 421.28 2.32149 -1.89069 0
M  V30 4514 H 418.826 1.11564 -0.910468 0
M  V30 4515 H 420.779 4.20036 -0.338774 0
M  V30 4516 H 419.503 3.23561 0.444493 0
M  V30 4517 H 418.162 3.25429 -1.68794 0
M  V30 4518 H 417.81 5.02986 0.0378289 0
M  V30 4519 H 417.51 5.65284 -1.60397 0
M  V30 4520 H 419.034 6.05799 -0.764167 0
M  V30 4521 H 420.448 5.01327 -2.78109 0
M  V30 4522 H 418.845 4.83664 -3.55231 0
M  V30 4523 H 419.915 3.42848 -3.42904 0
M  V30 4524 N 421.258 1.00505 1.21394 0
M  V30 4525 C 422.507 0.683159 1.89778 0
M  V30 4526 C 422.82 -0.789471 1.7896 0
M  V30 4527 O 424.026 -1.22344 2.42372 0
M  V30 4528 C 422.482 1.17146 3.40301 0
M  V30 4529 C 422.09 2.67017 3.5973 0
M  V30 4530 C 423.834 0.924461 4.14311 0
M  V30 4531 C 421.741 3.09387 5.04017 0
M  V30 4532 H 420.671 0.25183 0.710702 0
M  V30 4533 H 423.322 1.21622 1.37406 0
M  V30 4534 H 421.704 0.566451 3.91928 0
M  V30 4535 H 422.878 3.32968 3.18542 0
M  V30 4536 H 421.193 2.89732 2.99073 0
M  V30 4537 H 423.79 1.21658 5.20676 0
M  V30 4538 H 424.133 -0.139286 4.16067 0
M  V30 4539 H 424.666 1.49226 3.6875 0
M  V30 4540 H 421.405 4.14989 5.07409 0
M  V30 4541 H 420.925 2.48149 5.46061 0
M  V30 4542 H 422.604 3.01371 5.72525 0
M  V30 4543 N 422.737 -1.36956 0.779787 0
M  V30 4544 C 423.684 -2.30175 0.169697 0
M  V30 4545 C 424.654 -1.51501 -0.68094 0
M  V30 4546 O 425.839 -1.80042 -0.631629 0
M  V30 4547 C 422.979 -3.37985 -0.697131 0
M  V30 4548 C 422.092 -4.31661 0.170992 0
M  V30 4549 C 421.227 -5.2655 -0.701298 0
M  V30 4550 C 420.266 -6.11867 0.168869 0
M  V30 4551 N 419.403 -6.98973 -0.661855 0
M  V30 4552 H 424.243 -2.81767 0.970135 0
M  V30 4553 H 421.78 -1.38699 0.489994 0
M  V30 4554 H 423.738 -3.99128 -1.2146 0
M  V30 4555 H 422.368 -2.87739 -1.46309 0
M  V30 4556 H 421.42 -3.71756 0.80634 0
M  V30 4557 H 422.732 -4.91644 0.841875 0
M  V30 4558 H 421.886 -5.92937 -1.28494 0
M  V30 4559 H 420.625 -4.66998 -1.40584 0
M  V30 4560 H 419.63 -5.44452 0.764986 0
M  V30 4561 H 420.855 -6.73493 0.870863 0
M  V30 4562 H 418.801 -6.41941 -1.35086 0
M  V30 4563 H 418.718 -7.55984 -0.0484447 0
M  V30 4564 H 419.986 -7.6974 -1.22963 0
M  V30 4565 N 424.215 -0.530993 -1.48385 0
M  V30 4566 C 425.455 0.000718982 -2.044 0
M  V30 4567 C 425.819 1.31485 -1.39913 0
M  V30 4568 O 427.02 1.93265 -1.86821 0
M  V30 4569 C 425.291 0.119177 -3.57201 0
M  V30 4570 S 426.85 0.600806 -4.34667 0
M  V30 4571 H 423.668 -0.0125473 -0.710889 0
M  V30 4572 H 426.27 -0.711783 -1.82082 0
M  V30 4573 H 424.974 -0.842061 -4.01668 0
M  V30 4574 H 424.505 0.856026 -3.83974 0
M  V30 4575 H 426.52 1.86514 -4.59812 0
M  V30 4576 N 425.693 1.55336 -0.266172 0
M  V30 4577 C 426.64 2.22172 0.625165 0
M  V30 4578 C 427.61 1.19211 1.15663 0
M  V30 4579 O 428.795 1.47723 1.20758 0
M  V30 4580 C 425.935 2.93972 1.8076 0
M  V30 4581 C 425.048 4.11632 1.31084 0
M  V30 4582 C 424.183 4.71099 2.45436 0
M  V30 4583 C 423.222 5.8097 1.92718 0
M  V30 4584 N 422.359 6.34538 3.00509 0
M  V30 4585 H 427.199 2.9796 0.0485582 0
M  V30 4586 H 424.736 1.47095 0.0122024 0
M  V30 4587 H 426.694 3.33811 2.50251 0
M  V30 4588 H 425.324 2.20623 2.35638 0
M  V30 4589 H 424.376 3.76975 0.509326 0
M  V30 4590 H 425.688 4.90893 0.884633 0
M  V30 4591 H 424.842 5.13612 3.22936 0
M  V30 4592 H 423.581 3.91096 2.91368 0
M  V30 4593 H 422.586 5.37916 1.13695 0
M  V30 4594 H 423.811 6.62836 1.47733 0
M  V30 4595 H 421.757 5.57433 3.45839 0
M  V30 4596 H 421.674 7.09046 2.62279 0
M  V30 4597 H 422.942 6.81709 3.78011 0
M  V30 4598 N 427.171 -0.0066808 1.57599 0
M  V30 4599 C 428.121 -1.0086 2.04478 0
M  V30 4600 C 429.105 -1.30714 0.938231 0
M  V30 4601 O 430.297 -1.29924 1.20203 0
M  V30 4602 C 427.426 -2.30273 2.54615 0
M  V30 4603 C 426.512 -2.03413 3.72134 0
M  V30 4604 N 426.903 -1.46688 4.84062 0
M  V30 4605 C 425.201 -2.33589 3.79937 0
M  V30 4606 C 425.902 -1.36146 5.65543 0
M  V30 4607 N 424.878 -1.84477 5.1134 0
M  V30 4608 H 428.68 -0.564402 2.8843 0
M  V30 4609 H 426.194 -0.212521 1.61003 0
M  V30 4610 H 428.191 -3.02885 2.86472 0
M  V30 4611 H 426.851 -2.75352 1.72079 0
M  V30 4612 H 427.862 -1.14658 5.05049 0
M  V30 4613 H 424.539 -2.81589 3.08243 0
M  V30 4614 H 425.929 -0.925873 6.6549 0
M  V30 4615 N 428.649 -1.55105 -0.279332 0
M  V30 4616 C 429.582 -1.82467 -1.37044 0
M  V30 4617 C 430.56 -0.677261 -1.47824 0
M  V30 4618 O 431.744 -0.919578 -1.64548 0
M  V30 4619 C 428.871 -1.98066 -2.7475 0
M  V30 4620 C 427.917 -3.20594 -2.81286 0
M  V30 4621 S 428.75 -4.78116 -2.41175 0
M  V30 4622 C 429.906 -4.9668 -3.80867 0
M  V30 4623 H 430.139 -2.74728 -1.1363 0
M  V30 4624 H 427.672 -1.46794 -0.478625 0
M  V30 4625 H 429.63 -2.07739 -3.54055 0
M  V30 4626 H 428.291 -1.06704 -2.9542 0
M  V30 4627 H 427.484 -3.28376 -3.82341 0
M  V30 4628 H 427.086 -3.09479 -2.09996 0
M  V30 4629 H 429.378 -4.82033 -4.76078 0
M  V30 4630 H 430.321 -5.98741 -3.78041 0
M  V30 4631 H 430.729 -4.24698 -3.71876 0
M  V30 4632 N 430.127 0.543554 -1.4793 0
M  V30 4633 C 431.355 1.32516 -1.58894 0
M  V30 4634 C 431.77 1.87215 -0.244131 0
M  V30 4635 O 431.127 1.65709 0.764652 0
M  V30 4636 C 431.178 2.48554 -2.62494 0
M  V30 4637 O 430.899 1.96112 -3.91755 0
M  V30 4638 C 432.4 3.40572 -2.8377 0
M  V30 4639 H 429.62 0.403472 -0.536145 0
M  V30 4640 H 432.164 0.657106 -1.93655 0
M  V30 4641 H 430.319 3.1127 -2.30629 0
M  V30 4642 H 430.733 2.71967 -4.4848 0
M  V30 4643 H 432.207 4.18375 -3.60093 0
M  V30 4644 H 432.684 3.94965 -1.92092 0
M  V30 4645 H 433.29 2.8366 -3.16887 0
M  V30 4646 N 431.605 1.3629 0.791371 0
M  V30 4647 C 432.851 1.30605 1.55146 0
M  V30 4648 C 433.184 -0.115042 1.93859 0
M  V30 4649 O 432.459 -1.06798 1.62556 0
M  V30 4650 C 432.742 2.22692 2.82985 0
M  V30 4651 C 432.595 3.73489 2.50651 0
M  V30 4652 C 433.914 2.13588 3.84796 0
M  V30 4653 H 431.033 0.475761 0.562868 0
M  V30 4654 H 433.675 1.66825 0.909358 0
M  V30 4655 H 431.825 1.91933 3.37778 0
M  V30 4656 H 433.497 4.14758 2.01924 0
M  V30 4657 H 431.74 3.93021 1.83622 0
M  V30 4658 H 432.411 4.3333 3.41949 0
M  V30 4659 H 434.887 2.40659 3.39445 0
M  V30 4660 H 433.763 2.80195 4.71998 0
M  V30 4661 H 434.024 1.12256 4.27611 0
M  V30 4662 N 433.083 -1.0153 1.20538 0
M  V30 4663 C 434.013 -2.11972 0.979295 0
M  V30 4664 C 434.994 -1.6985 -0.0921787 0
M  V30 4665 O 436.179 -1.94089 0.0655932 0
M  V30 4666 C 433.309 -3.43201 0.531984 0
M  V30 4667 C 432.263 -3.9907 1.54685 0
M  V30 4668 C 431.589 -5.26082 0.956127 0
M  V30 4669 C 432.889 -4.32313 2.93092 0
M  V30 4670 H 434.583 -2.31143 1.90298 0
M  V30 4671 H 432.129 -1.11079 0.916372 0
M  V30 4672 H 434.082 -4.1985 0.361044 0
M  V30 4673 H 432.806 -3.23792 -0.427327 0
M  V30 4674 H 431.465 -3.2453 1.70517 0
M  V30 4675 H 431.113 -5.02999 -0.0111538 0
M  V30 4676 H 430.813 -5.64426 1.63393 0
M  V30 4677 H 432.337 -6.05386 0.796284 0
M  V30 4678 H 433.751 -4.99845 2.80763 0
M  V30 4679 H 432.148 -4.81774 3.57791 0
M  V30 4680 H 433.218 -3.41025 3.44717 0
M  V30 4681 N 434.561 -1.01147 -1.20859 0
M  V30 4682 C 435.838 -0.613136 -1.85742 0
M  V30 4683 C 436.218 0.909004 -1.90526 0
M  V30 4684 O 435.566 1.79862 -1.40932 0
M  V30 4685 C 435.776 -1.255 -3.25654 0
M  V30 4686 C 437.124 -1.3672 -4.01986 0
M  V30 4687 O 438.148 -1.21082 -3.34989 0
M  V30 4688 O 437.007 -1.6194 -5.21956 0
M  V30 4689 H 434.101 -0.210878 -0.799662 0
M  V30 4690 H 436.647 -1.10853 -1.2849 0
M  V30 4691 H 435.419 -2.29532 -3.16908 0
M  V30 4692 H 435.042 -0.746369 -3.90532 0
M  V30 4693 N 436.039 1.36541 -0.78704 0
M  V30 4694 C 437.288 1.98552 -0.35494 0
M  V30 4695 C 437.601 1.63171 1.07864 0
M  V30 4696 O 438.807 2.18399 1.61289 0
M  V30 4697 C 437.263 3.55136 -0.583671 0
M  V30 4698 C 436.871 3.99444 -2.02851 0
M  V30 4699 C 438.615 4.2395 -0.215957 0
M  V30 4700 C 436.522 5.48796 -2.20403 0
M  V30 4701 H 435.452 0.742888 -0.128972 0
M  V30 4702 H 438.103 1.5587 -0.968337 0
M  V30 4703 H 436.485 3.95875 0.0994046 0
M  V30 4704 H 437.659 3.6991 -2.74779 0
M  V30 4705 H 435.974 3.43459 -2.35425 0
M  V30 4706 H 438.571 5.33709 -0.325405 0
M  V30 4707 H 438.914 4.07827 0.835646 0
M  V30 4708 H 439.447 3.88565 -0.852175 0
M  V30 4709 H 436.186 5.69864 -3.23937 0
M  V30 4710 H 435.706 5.79964 -1.52977 0
M  V30 4711 H 437.385 6.14986 -2.01002 0
M  V30 4712 N 437.518 0.538854 1.48102 0
M  V30 4713 C 438.766 0.00798599 2.02098 0
M  V30 4714 C 439.087 -1.33922 1.41739 0
M  V30 4715 O 438.357 -1.86932 0.585934 0
M  V30 4716 H 436.937 -3.62179e-05 0.747 0
M  V30 4717 H 439.599 0.7047 1.81714 0
M  V30 4718 H 438.695 -0.0937672 3.11959 0
M  V30 4719 N 438.996 -1.55193 0.274407 0
M  V30 4720 C 440.273 -1.91584 -0.394331 0
M  V30 4721 C 440.653 -1.19858 -1.73774 0
M  V30 4722 O 440.001 -0.3252 -2.26174 0
M  V30 4723 C 440.211 -3.4487 -0.535311 0
M  V30 4724 C 441.559 -4.16636 -0.818534 0
M  V30 4725 O 442.583 -3.5076 -0.620146 0
M  V30 4726 O 441.442 -5.33209 -1.19792 0
M  V30 4727 H 438.536 -0.798349 -0.215794 0
M  V30 4728 H 441.082 -1.66646 0.320507 0
M  V30 4729 H 439.854 -3.89145 0.410141 0
M  V30 4730 H 439.477 -3.75759 -1.29964 0
M  V30 4731 N 440.474 -0.00167713 -1.576 0
M  V30 4732 C 441.437 0.974046 -2.07473 0
M  V30 4733 C 442.437 1.27143 -0.984444 0
M  V30 4734 O 443.627 1.21633 -1.24703 0
M  V30 4735 C 440.759 2.29849 -2.51759 0
M  V30 4736 H 441.952 0.54262 -2.9495 0
M  V30 4737 H 439.505 0.245829 -1.54355 0
M  V30 4738 H 440.24 2.77677 -1.67529 0
M  V30 4739 H 440.025 2.09584 -3.31386 0
M  V30 4740 H 441.515 2.9984 -2.90664 0
M  V30 4741 N 441.952 1.55251 0.271103 0
M  V30 4742 C 443.182 1.79713 1.01916 0
M  V30 4743 C 443.59 0.571613 1.80359 0
M  V30 4744 O 442.933 -0.468853 1.77616 0
M  V30 4745 C 442.995 2.97138 2.02359 0
M  V30 4746 C 442.659 4.34104 1.42837 0
M  V30 4747 C 443.656 5.13019 0.843071 0
M  V30 4748 C 441.341 4.80765 1.455 0
M  V30 4749 C 443.335 6.36729 0.292333 0
M  V30 4750 C 441.022 6.0443 0.900402 0
M  V30 4751 C 442.02 6.8225 0.32007 0
M  V30 4752 O 441.708 8.03582 -0.226031 0
M  V30 4753 H 441.44 0.602431 0.306681 0
M  V30 4754 H 443.994 2.03097 0.306701 0
M  V30 4755 H 442.224 2.6945 2.77369 0
M  V30 4756 H 443.913 3.08907 2.63309 0
M  V30 4757 H 444.679 4.781 0.815178 0
M  V30 4758 H 440.558 4.20202 1.89609 0
M  V30 4759 H 444.102 6.97414 -0.161274 0
M  V30 4760 H 439.999 6.3883 0.925541 0
M  V30 4761 H 440.767 8.18418 -0.115572 0
M  V30 4762 N 443.43 -0.535701 1.48216 0
M  V30 4763 C 444.677 -1.29183 1.55942 0
M  V30 4764 C 445.005 -1.93125 0.230857 0
M  V30 4765 O 444.26 -1.79556 -0.778331 0
M  V30 4766 C 444.559 -2.4068 2.64212 0
M  V30 4767 C 444.225 -1.94428 4.06827 0
M  V30 4768 C 442.887 -1.81532 4.45645 0
M  V30 4769 C 445.239 -1.59405 4.96225 0
M  V30 4770 C 442.567 -1.31939 5.71672 0
M  V30 4771 C 444.919 -1.11276 6.22736 0
M  V30 4772 C 443.583 -0.969924 6.60416 0
M  V30 4773 H 442.853 -0.472715 0.570632 0
M  V30 4774 H 445.5 -0.598437 1.81909 0
M  V30 4775 H 443.805 -3.15666 2.32083 0
M  V30 4776 H 445.502 -2.98822 2.67407 0
M  V30 4777 H 442.092 -2.05415 3.76168 0
M  V30 4778 H 446.276 -1.68231 4.66917 0
M  V30 4779 H 441.532 -1.19562 5.99596 0
M  V30 4780 H 445.706 -0.832453 6.91407 0
M  V30 4781 H 443.333 -0.583436 7.57958 0
M  V30 4782 N 444.908 -1.36708 -0.784132 0
M  V30 4783 C 446.136 -1.34398 -1.57305 0
M  V30 4784 C 446.551 0.0735577 -1.88657 0
M  V30 4785 O 445.908 1.03193 -1.50524 0
M  V30 4786 C 445.959 -2.17053 -2.89085 0
M  V30 4787 O 445.68 -3.53281 -2.59083 0
M  V30 4788 C 447.181 -2.22583 -3.83369 0
M  V30 4789 H 444.401 -0.460819 -0.487736 0
M  V30 4790 H 446.945 -1.79879 -0.972819 0
M  V30 4791 H 445.1 -1.75113 -3.45564 0
M  V30 4792 H 445.514 -3.9647 -3.43383 0
M  V30 4793 H 446.988 -2.84763 -4.72878 0
M  V30 4794 H 447.465 -1.23075 -4.21603 0
M  V30 4795 H 448.071 -2.64781 -3.32823 0
M  V30 4796 N 446.386 1.0089 -1.21074 0
M  V30 4797 C 447.635 1.74019 -1.01981 0
M  V30 4798 C 447.948 1.90408 0.447665 0
M  V30 4799 O 449.154 2.60707 0.757906 0
M  V30 4800 C 447.61 3.13026 -1.77603 0
M  V30 4801 C 447.218 3.04623 -3.28495 0
M  V30 4802 C 448.962 3.90312 -1.66904 0
M  V30 4803 C 446.869 4.38685 -3.96623 0
M  V30 4804 H 445.799 0.652422 -0.377971 0
M  V30 4805 H 448.45 1.12755 -1.44771 0
M  V30 4806 H 446.832 3.74878 -1.27604 0
M  V30 4807 H 448.006 2.52032 -3.85767 0
M  V30 4808 H 446.321 2.40827 -3.39693 0
M  V30 4809 H 448.918 4.8951 -2.15138 0
M  V30 4810 H 449.261 4.11558 -0.62658 0
M  V30 4811 H 449.794 3.35104 -2.14359 0
M  V30 4812 H 446.533 4.22641 -5.01054 0
M  V30 4813 H 446.053 4.91252 -3.4414 0
M  V30 4814 H 447.732 5.075 -4.01314 0
M  V30 4815 N 447.864 1.01787 1.20321 0
M  V30 4816 C 449.275 0.739307 1.71438 0
M  V30 4817 C 449.626 -0.742041 1.81627 0
M  V30 4818 O 448.751 -1.57903 1.47971 0
M  V30 4819 C 449.346 1.33538 3.11373 0
M  V30 4820 C 447.905 1.10566 3.59795 0
M  V30 4821 C 447.052 1.44028 2.36962 0
M  V30 4822 H 450.003 1.18718 1.05317 0
M  V30 4823 H 450.024 0.726611 3.73498 0
M  V30 4824 H 449.536 2.41352 3.03926 0
M  V30 4825 H 447.637 0.0452405 3.72573 0
M  V30 4826 H 447.75 1.78661 4.44542 0
M  V30 4827 H 446.114 0.85933 2.39766 0
M  V30 4828 H 446.897 2.52901 2.32155 0
M  V30 4829 N 449.342 -1.36122 0.79427 0
M  V30 4830 C 450.272 -2.32551 0.210328 0
M  V30 4831 C 451.253 -1.56884 -0.657386 0
M  V30 4832 O 452.438 -1.85014 -0.590207 0
M  V30 4833 C 449.568 -3.41128 -0.651819 0
M  V30 4834 C 448.522 -4.27842 0.116395 0
M  V30 4835 C 447.848 -5.2763 -0.86666 0
M  V30 4836 C 449.148 -5.05647 1.30837 0
M  V30 4837 H 450.842 -2.81636 1.01594 0
M  V30 4838 H 448.388 -1.35407 0.489981 0
M  V30 4839 H 450.341 -4.07581 -1.07031 0
M  V30 4840 H 449.065 -2.90622 -1.49019 0
M  V30 4841 H 447.724 -3.62952 0.515915 0
M  V30 4842 H 447.372 -4.73395 -1.70019 0
M  V30 4843 H 447.072 -5.86514 -0.35705 0
M  V30 4844 H 448.596 -5.96955 -1.28361 0
M  V30 4845 H 450.01 -5.65113 0.965393 0
M  V30 4846 H 448.407 -5.73967 1.75161 0
M  V30 4847 H 449.477 -4.37006 2.10128 0
M  V30 4848 N 450.82 -0.546701 -1.47814 0
M  V30 4849 C 452.097 0.0464413 -1.95545 0
M  V30 4850 C 452.477 1.4962 -1.48919 0
M  V30 4851 O 451.825 2.16752 -0.723232 0
M  V30 4852 C 452.035 -0.0881298 -3.48889 0
M  V30 4853 C 453.383 0.0626059 -4.24554 0
M  V30 4854 O 454.407 -0.0151555 -3.56197 0
M  V30 4855 O 453.266 0.228071 -5.46024 0
M  V30 4856 H 450.36 0.0700004 -0.824032 0
M  V30 4857 H 452.906 -0.612482 -1.58262 0
M  V30 4858 H 451.678 -1.09737 -3.75597 0
M  V30 4859 H 451.301 0.608886 -3.9291 0
M  V30 4860 N 452.299 1.55045 -0.282633 0
M  V30 4861 C 453.71 1.85473 0.213655 0
M  V30 4862 C 454.061 1.20465 1.54863 0
M  V30 4863 O 453.186 0.495676 2.10647 0
M  V30 4864 C 453.781 3.36496 0.394445 0
M  V30 4865 C 452.34 3.67022 0.834961 0
M  V30 4866 C 451.487 2.77218 -0.0674081 0
M  V30 4867 H 454.438 1.50478 -0.504202 0
M  V30 4868 H 454.459 3.60007 1.23186 0
M  V30 4869 H 453.971 3.83782 -0.577326 0
M  V30 4870 H 452.072 3.25241 1.81794 0
M  V30 4871 H 452.185 4.74433 0.667075 0
M  V30 4872 H 450.549 2.5069 0.450196 0
M  V30 4873 H 451.332 3.2732 -1.0352 0
M  V30 4874 N 453.777 0.010035 1.57597 0
M  V30 4875 C 454.687 -0.994226 2.12491 0
M  V30 4876 C 455.703 -1.37013 1.07254 0
M  V30 4877 O 456.879 -1.45542 1.3921 0
M  V30 4878 C 453.944 -2.2642 2.62555 0
M  V30 4879 C 453.005 -1.95049 3.82432 0
M  V30 4880 C 452.238 -3.15991 4.30099 0
M  V30 4881 O 452.461 -4.28015 3.7704 0
M  V30 4882 O 451.395 -2.99403 5.22151 0
M  V30 4883 H 455.221 -0.557549 2.98538 0
M  V30 4884 H 452.806 -0.209413 1.47925 0
M  V30 4885 H 454.688 -3.01009 2.9491 0
M  V30 4886 H 453.363 -2.69306 1.796 0
M  V30 4887 H 452.27 -1.17904 3.55034 0
M  V30 4888 H 453.603 -1.56992 4.66491 0
M  V30 4889 N 455.255 -1.55392 -0.262866 0
M  V30 4890 C 456.502 -1.76476 -0.993109 0
M  V30 4891 C 456.83 -0.571479 -1.85915 0
M  V30 4892 O 456.085 0.445733 -1.90556 0
M  V30 4893 C 456.384 -3.02889 -1.89718 0
M  V30 4894 C 456.05 -4.34974 -1.18781 0
M  V30 4895 C 454.712 -4.7087 -0.991699 0
M  V30 4896 C 457.064 -5.16695 -0.683798 0
M  V30 4897 C 454.392 -5.86036 -0.279024 0
M  V30 4898 C 456.744 -6.32598 0.0153327 0
M  V30 4899 C 455.408 -6.67127 0.223062 0
M  V30 4900 H 454.678 -0.64577 -0.363404 0
M  V30 4901 H 457.325 -1.89664 -0.264525 0
M  V30 4902 H 455.63 -2.84644 -2.6923 0
M  V30 4903 H 457.327 -3.16399 -2.46359 0
M  V30 4904 H 453.917 -4.06765 -1.35058 0
M  V30 4905 H 458.101 -4.8943 -0.8229 0
M  V30 4906 H 453.357 -6.11306 -0.107456 0
M  V30 4907 H 457.531 -6.95171 0.413584 0
M  V30 4908 H 455.158 -7.56216 0.777265 0
M  V30 4909 N 456.733 0.527833 -1.48498 0
M  V30 4910 C 458.149 0.856571 -1.34666 0
M  V30 4911 C 458.349 1.98271 -0.35931 0
M  V30 4912 O 457.405 2.51551 0.218703 0
M  V30 4913 C 458.718 1.22207 -2.74747 0
M  V30 4914 C 460.266 1.33183 -2.83251 0
M  V30 4915 C 460.741 1.73075 -4.24039 0
M  V30 4916 N 462.232 1.80174 -4.26722 0
M  V30 4917 C 462.967 2.1243 -5.32598 0
M  V30 4918 N 462.463 2.43096 -6.4875 0
M  V30 4919 N 464.256 2.13454 -5.19994 0
M  V30 4920 H 456.407 -0.215174 -2.11307 0
M  V30 4921 H 458.67 -0.0336281 -0.947403 0
M  V30 4922 H 458.376 0.468195 -3.4857 0
M  V30 4923 H 458.25 2.17173 -3.08409 0
M  V30 4924 H 460.637 2.07647 -2.09683 0
M  V30 4925 H 460.718 0.363333 -2.53206 0
M  V30 4926 H 460.362 0.991712 -4.98124 0
M  V30 4927 H 460.292 2.70979 -4.51529 0
M  V30 4928 H 462.783 1.58744 -3.42942 0
M  V30 4929 H 463.096 2.6682 -7.25277 0
M  V30 4930 H 461.441 2.40611 -6.52021 0
M  V30 4931 H 464.632 1.88956 -4.28268 0
M  V30 4932 H 464.805 2.38261 -6.02608 0
M  V30 4933 N 458.211 1.37122 0.776871 0
M  V30 4934 C 459.622 1.28667 1.35284 0
M  V30 4935 C 459.973 -0.0680035 1.96082 0
M  V30 4936 O 459.098 -0.969743 1.93455 0
M  V30 4937 C 459.693 2.32997 2.45963 0
M  V30 4938 C 458.252 2.28191 2.99342 0
M  V30 4939 C 457.399 2.17101 1.72517 0
M  V30 4940 H 460.35 1.47819 0.577527 0
M  V30 4941 H 460.371 1.97366 3.2531 0
M  V30 4942 H 459.883 3.3158 2.01684 0
M  V30 4943 H 457.984 1.33115 3.4801 0
M  V30 4944 H 458.097 3.21397 3.55304 0
M  V30 4945 H 456.461 1.63562 1.95242 0
M  V30 4946 H 457.244 3.17591 1.30348 0
M  V30 4947 N 459.689 -1.00246 1.21608 0
M  V30 4948 C 460.919 -1.77373 1.05935 0
M  V30 4949 C 461.327 -1.85059 -0.393686 0
M  V30 4950 O 460.67 -1.31289 -1.28487 0
M  V30 4951 C 460.732 -3.22705 1.58435 0
M  V30 4952 C 460.396 -3.38591 3.06929 0
M  V30 4953 C 461.393 -3.2667 4.04454 0
M  V30 4954 C 459.078 -3.6395 3.46187 0
M  V30 4955 C 461.072 -3.39877 5.39224 0
M  V30 4956 C 458.759 -3.768 4.81108 0
M  V30 4957 C 459.757 -3.6477 5.77436 0
M  V30 4958 O 459.445 -3.77206 7.09909 0
M  V30 4959 H 459.177 -0.56419 0.372378 0
M  V30 4960 H 461.731 -1.26971 1.61454 0
M  V30 4961 H 459.961 -3.74255 0.973147 0
M  V30 4962 H 461.65 -3.81515 1.38568 0
M  V30 4963 H 462.416 -3.06999 3.75468 0
M  V30 4964 H 458.295 -3.72395 2.71741 0
M  V30 4965 H 461.839 -3.30404 6.14393 0
M  V30 4966 H 457.736 -3.95975 5.09779 0
M  V30 4967 H 458.504 -3.94138 7.17355 0
M  V30 4968 N 461.167 -1.02423 -1.1978 0
M  V30 4969 C 462.395 -0.737456 -1.93311 0
M  V30 4970 C 462.81 0.703023 -1.75223 0
M  V30 4971 O 462.167 1.47761 -1.07112 0
M  V30 4972 C 462.218 -1.0733 -3.45199 0
M  V30 4973 O 461.939 -2.4572 -3.62702 0
M  V30 4974 C 463.44 -0.80866 -4.35862 0
M  V30 4975 H 460.66 -0.2702 -0.614193 0
M  V30 4976 H 463.204 -1.36747 -1.52054 0
M  V30 4977 H 461.359 -0.488545 -3.84307 0
M  V30 4978 H 461.773 -2.58081 -4.56612 0
M  V30 4979 H 463.247 -1.09365 -5.41057 0
M  V30 4980 H 463.724 0.257025 -4.38447 0
M  V30 4981 H 464.33 -1.37592 -4.02428 0
M  V30 4982 N 462.645 1.35699 -0.801477 0
M  V30 4983 C 463.608 2.28199 -0.213994 0
M  V30 4984 C 464.608 1.49359 0.595691 0
M  V30 4985 O 465.798 1.69186 0.414921 0
M  V30 4986 C 462.93 3.33587 0.702297 0
M  V30 4987 H 464.123 2.81666 -1.02976 0
M  V30 4988 H 461.676 1.45467 -0.571759 0
M  V30 4989 H 462.411 2.85297 1.54195 0
M  V30 4990 H 462.196 3.91906 0.123484 0
M  V30 4991 H 463.686 4.02638 1.10783 0
M  V30 4992 N 464.123 0.554532 1.47522 0
M  V30 4993 C 465.37 0.029479 2.02479 0
M  V30 4994 C 465.698 -1.31929 1.42916 0
M  V30 4995 O 464.953 -1.87112 0.573385 0
M  V30 4996 C 465.252 -0.115927 3.57212 0
M  V30 4997 C 464.918 1.16161 4.3568 0
M  V30 4998 C 463.58 1.51168 4.56839 0
M  V30 4999 C 465.932 2.0083 4.80954 0
M  V30 5000 C 463.26 2.70696 5.2052 0
M  V30 5001 C 465.612 3.19559 5.45953 0
M  V30 5002 C 464.276 3.54882 5.65345 0
M  V30 5003 H 463.546 0.0107871 0.740921 0
M  V30 5004 H 466.193 0.725506 1.77225 0
M  V30 5005 H 464.498 -0.894902 3.81443 0
M  V30 5006 H 466.195 -0.53749 3.97381 0
M  V30 5007 H 462.785 0.879026 4.19489 0
M  V30 5008 H 466.969 1.75093 4.64388 0
M  V30 5009 H 462.225 2.98236 5.33728 0
M  V30 5010 H 466.399 3.85456 5.79997 0
M  V30 5011 H 464.026 4.47596 6.1446 0
M  V30 5012 N 465.601 -1.54893 0.290851 0
M  V30 5013 C 466.829 -2.04343 -0.324288 0
M  V30 5014 C 467.244 -1.16859 -1.48289 0
M  V30 5015 O 466.601 -0.192018 -1.81487 0
M  V30 5016 C 466.652 -3.52756 -0.79026 0
M  V30 5017 O 466.373 -4.36913 0.322213 0
M  V30 5018 C 467.874 -4.18161 -1.4716 0
M  V30 5019 H 465.094 -0.667135 -0.0719173 0
M  V30 5020 H 467.638 -1.99981 0.427529 0
M  V30 5021 H 465.793 -3.57511 -1.49213 0
M  V30 5022 H 466.207 -5.24486 -0.0387372 0
M  V30 5023 H 467.681 -5.23562 -1.7489 0
M  V30 5024 H 468.158 -3.67282 -2.40834 0
M  V30 5025 H 468.764 -4.17454 -0.813178 0
M  V30 5026 N 467.08 -0.0183926 -1.57589 0
M  V30 5027 C 468.329 0.66185 -1.90532 0
M  V30 5028 C 468.642 1.73904 -0.895366 0
M  V30 5029 O 469.848 2.47518 -1.11566 0
M  V30 5030 C 468.304 1.22844 -3.38286 0
M  V30 5031 C 467.912 0.185103 -4.47617 0
M  V30 5032 C 469.656 1.88581 -3.80312 0
M  V30 5033 C 467.563 0.762723 -5.86461 0
M  V30 5034 H 466.493 0.250972 -0.711006 0
M  V30 5035 H 469.144 -0.0819435 -1.83317 0
M  V30 5036 H 467.526 2.0235 -3.40398 0
M  V30 5037 H 468.7 -0.58671 -4.5705 0
M  V30 5038 H 467.015 -0.372889 -4.14727 0
M  V30 5039 H 469.612 2.32735 -4.81392 0
M  V30 5040 H 469.955 2.72408 -3.14801 0
M  V30 5041 H 470.488 1.15782 -3.80578 0
M  V30 5042 H 467.227 -0.0371713 -6.55489 0
M  V30 5043 H 466.747 1.50327 -5.80656 0
M  V30 5044 H 468.426 1.25576 -6.34697 0
M  V30 5045 N 468.558 1.5553 0.254621 0
M  V30 5046 C 469.969 1.67518 0.824286 0
M  V30 5047 C 470.32 0.614429 1.86331 0
M  V30 5048 O 469.445 -0.240736 2.15057 0
M  V30 5049 C 470.04 3.03692 1.50189 0
M  V30 5050 C 468.599 3.17646 2.01935 0
M  V30 5051 C 467.746 2.63373 0.867746 0
M  V30 5052 H 470.697 1.58671 0.0305843 0
M  V30 5053 H 470.718 2.97706 2.36962 0
M  V30 5054 H 470.23 3.80874 0.745431 0
M  V30 5055 H 468.331 2.45273 2.80485 0
M  V30 5056 H 468.444 4.24455 2.22204 0
M  V30 5057 H 466.808 2.20999 1.26616 0
M  V30 5058 H 467.591 3.43074 0.124498 0
M  V30 5059 N 470.036 -0.519951 1.48776 0
M  V30 5060 C 471.261 -1.30447 1.6124 0
M  V30 5061 C 471.686 -1.86055 0.276591 0
M  V30 5062 O 471.044 -1.64915 -0.753183 0
M  V30 5063 C 471.092 -2.42406 2.66967 0
M  V30 5064 O 470.196 -3.45728 2.24824 0
M  V30 5065 H 469.537 -0.385924 0.540332 0
M  V30 5066 H 472.067 -0.624572 1.94834 0
M  V30 5067 H 472.077 -2.88447 2.88552 0
M  V30 5068 H 470.752 -2.01294 3.63941 0
M  V30 5069 H 469.329 -3.05737 2.13494 0
M  V30 5070 N 471.514 -1.37532 -0.769588 0
M  V30 5071 C 472.763 -1.32183 -1.5235 0
M  V30 5072 C 473.076 0.0906555 -1.9539 0
M  V30 5073 O 474.282 0.266628 -2.70188 0
M  V30 5074 C 472.738 -2.32029 -2.75119 0
M  V30 5075 C 472.346 -3.78816 -2.3917 0
M  V30 5076 C 474.09 -2.35694 -3.53056 0
M  V30 5077 C 471.997 -4.70388 -3.58453 0
M  V30 5078 H 470.927 -0.491275 -0.571984 0
M  V30 5079 H 473.578 -1.63004 -0.842739 0
M  V30 5080 H 471.96 -1.94229 -3.45096 0
M  V30 5081 H 473.134 -4.25466 -1.76962 0
M  V30 5082 H 471.449 -3.78117 -1.74402 0
M  V30 5083 H 474.046 -3.01312 -4.41718 0
M  V30 5084 H 474.389 -1.37117 -3.93071 0
M  V30 5085 H 474.922 -2.72212 -2.90078 0
M  V30 5086 H 471.661 -5.70102 -3.23518 0
M  V30 5087 H 471.181 -4.28442 -4.19758 0
M  V30 5088 H 472.86 -4.87628 -4.25239 0
M  V30 5089 N 472.992 0.995999 -1.22138 0
M  V30 5090 C 473.94 2.10673 -0.985876 0
M  V30 5091 C 474.934 1.69255 0.0699553 0
M  V30 5092 O 476.14 1.79812 -0.0822176 0
M  V30 5093 H 472.515 0.688865 -0.30161 0
M  V30 5094 H 474.486 2.27711 -1.92848 0
M  V30 5095 C 473.235 3.42881 -0.576909 0
M  V30 5096 H 472.558 3.75191 -1.38101 0
M  V30 5097 H 473.998 4.21589 -0.451518 0
M  V30 5098 C 472.457 3.29265 0.713196 0
M  V30 5099 O 472.987 3.60777 1.76643 0
M  V30 5100 N 471.193 2.82456 0.683162 0
M  V30 5101 H 470.74 2.5701 -0.174242 0
M  V30 5102 H 470.698 2.73727 1.54663 0
M  V30 5103 N 474.47 1.03057 1.19235 0
M  V30 5104 C 475.42 0.583386 2.2041 0
M  V30 5105 C 476.404 -0.368776 1.56617 0
M  V30 5106 O 477.596 -0.189471 1.75983 0
M  V30 5107 C 474.725 -0.0626534 3.43243 0
M  V30 5108 C 473.811 0.91205 4.14177 0
M  V30 5109 N 474.202 2.07514 4.61272 0
M  V30 5110 C 472.5 0.735859 4.39888 0
M  V30 5111 C 473.201 2.69003 5.15764 0
M  V30 5112 N 472.177 1.96954 5.06666 0
M  V30 5113 H 475.979 1.46988 2.54503 0
M  V30 5114 H 473.493 0.897785 1.35328 0
M  V30 5115 H 475.49 -0.400653 4.1497 0
M  V30 5116 H 474.15 -0.944813 3.1065 0
M  V30 5117 H 475.161 2.45448 4.56043 0
M  V30 5118 H 471.838 -0.0970656 4.17387 0
M  V30 5119 H 473.228 3.67514 5.6248 0
M  V30 5120 N 475.948 -1.35272 0.808662 0
M  V30 5121 C 476.88 -2.28507 0.178149 0
M  V30 5122 C 477.893 -1.50377 -0.623754 0
M  V30 5123 O 479.082 -1.72583 -0.455774 0
M  V30 5124 C 476.182 -3.30038 -0.769959 0
M  V30 5125 C 475.355 -4.37398 -0.0139749 0
M  V30 5126 C 474.414 -5.18775 -0.880875 0
M  V30 5127 O 473.44 -5.68236 -0.331059 0
M  V30 5128 N 474.642 -5.37087 -2.20267 0
M  V30 5129 H 477.407 -2.83255 0.979106 0
M  V30 5130 H 474.968 -1.47643 0.664308 0
M  V30 5131 H 476.96 -3.81371 -1.35418 0
M  V30 5132 H 475.53 -2.75789 -1.47171 0
M  V30 5133 H 474.75 -3.86971 0.751468 0
M  V30 5134 H 476.038 -5.06268 0.506965 0
M  V30 5135 H 475.436 -4.9855 -2.67328 0
M  V30 5136 H 473.993 -5.91593 -2.73608 0
M  V30 5137 N 477.426 -0.562348 -1.47226 0
M  V30 5138 C 478.336 0.185466 -2.33866 0
M  V30 5139 C 479.352 0.906713 -1.48508 0
M  V30 5140 O 480.528 0.874458 -1.81425 0
M  V30 5141 C 477.593 1.19904 -3.25306 0
M  V30 5142 C 476.654 0.484669 -4.26555 0
M  V30 5143 C 475.887 1.44996 -5.13626 0
M  V30 5144 O 476.11 2.68515 -5.03245 0
M  V30 5145 O 475.044 0.971642 -5.94006 0
M  V30 5146 H 478.87 -0.525361 -2.99121 0
M  V30 5147 H 476.455 -0.322916 -1.45868 0
M  V30 5148 H 478.337 1.78399 -3.81774 0
M  V30 5149 H 477.012 1.8917 -2.62672 0
M  V30 5150 H 475.919 -0.141605 -3.73832 0
M  V30 5151 H 477.252 -0.166634 -4.91918 0
M  V30 5152 N 478.904 1.54736 -0.299062 0
M  V30 5153 C 480.315 1.8569 0.193971 0
M  V30 5154 C 480.666 1.22101 1.53577 0
M  V30 5155 O 479.791 0.51799 2.10109 0
M  V30 5156 C 480.386 3.36895 0.358733 0
M  V30 5157 C 478.945 3.67887 0.795986 0
M  V30 5158 C 478.092 2.77131 -0.096807 0
M  V30 5159 H 481.043 1.49934 -0.520134 0
M  V30 5160 H 481.064 3.61294 1.19361 0
M  V30 5161 H 480.576 3.83148 -0.617998 0
M  V30 5162 H 478.677 3.27151 1.78334 0
M  V30 5163 H 478.79 4.75114 0.616718 0
M  V30 5164 H 477.154 2.51153 0.423581 0
M  V30 5165 H 477.937 3.26204 -1.06986 0
M  V30 5166 N 480.382 0.0267497 1.57577 0
M  V30 5167 C 481.659 -0.690926 1.82991 0
M  V30 5168 C 482.039 -1.90471 0.910164 0
M  V30 5169 O 481.387 -2.28474 -0.0347985 0
M  V30 5170 C 481.597 -1.07139 3.32148 0
M  V30 5171 C 482.945 -1.46402 3.98562 0
M  V30 5172 O 483.969 -1.16443 3.36629 0
M  V30 5173 O 482.828 -2.02214 5.07712 0
M  V30 5174 H 479.922 -0.338747 0.75444 0
M  V30 5175 H 482.468 0.0542506 1.69613 0
M  V30 5176 H 481.24 -0.207394 3.9075 0
M  V30 5177 H 480.863 -1.87481 3.50623 0
M  V30 5178 N 481.861 -1.55662 -0.24637 0
M  V30 5179 C 482.808 -1.90361 -1.30504 0
M  V30 5180 C 483.778 -0.757905 -1.47801 0
M  V30 5181 O 484.963 -1.01161 -1.61775 0
M  V30 5182 C 482.103 -2.2042 -2.65535 0
M  V30 5183 C 481.216 -3.47799 -2.56242 0
M  V30 5184 C 480.351 -3.67426 -3.8363 0
M  V30 5185 C 479.39 -4.88403 -3.68956 0
M  V30 5186 N 478.527 -5.04548 -4.88237 0
M  V30 5187 H 483.367 -2.80645 -1.00213 0
M  V30 5188 H 480.904 -1.38924 -0.483577 0
M  V30 5189 H 482.862 -2.35853 -3.44135 0
M  V30 5190 H 481.492 -1.3334 -2.93973 0
M  V30 5191 H 480.544 -3.40694 -1.69208 0
M  V30 5192 H 481.856 -4.36544 -2.4131 0
M  V30 5193 H 481.01 -3.82821 -4.70673 0
M  V30 5194 H 479.749 -2.76914 -4.01459 0
M  V30 5195 H 478.754 -4.72984 -2.80296 0
M  V30 5196 H 479.979 -5.80375 -3.52621 0
M  V30 5197 H 477.925 -4.16974 -5.06427 0
M  V30 5198 H 477.842 -5.87384 -4.75937 0
M  V30 5199 H 479.11 -5.24355 -5.76777 0
M  V30 5200 N 483.339 0.512053 -1.4905 0
M  V30 5201 C 484.755 0.84224 -1.35567 0
M  V30 5202 C 484.955 1.97878 -0.380319 0
M  V30 5203 O 484.011 2.51769 0.19201 0
M  V30 5204 C 485.324 1.19286 -2.76028 0
M  V30 5205 C 486.872 1.30171 -2.84648 0
M  V30 5206 C 487.347 1.68568 -4.25851 0
M  V30 5207 N 488.838 1.75638 -4.28609 0
M  V30 5208 C 489.573 2.06769 -5.34821 0
M  V30 5209 N 489.069 2.36201 -6.51292 0
M  V30 5210 N 490.862 2.07927 -5.22229 0
M  V30 5211 H 483.013 -0.237574 -2.11067 0
M  V30 5212 H 485.276 -0.0436747 -0.946993 0
M  V30 5213 H 484.982 0.431199 -3.49047 0
M  V30 5214 H 484.856 2.13889 -3.10695 0
M  V30 5215 H 487.243 2.05411 -2.11873 0
M  V30 5216 H 487.324 0.336457 -2.53578 0
M  V30 5217 H 486.968 0.938824 -4.99148 0
M  V30 5218 H 486.898 2.66174 -4.54377 0
M  V30 5219 H 489.389 1.55097 -3.44606 0
M  V30 5220 H 489.702 2.59112 -7.28066 0
M  V30 5221 H 488.047 2.33681 -6.54536 0
M  V30 5222 H 491.238 1.84403 -4.30248 0
M  V30 5223 H 491.411 2.31856 -6.05101 0
M  V30 5224 N 484.817 1.37938 0.762283 0
M  V30 5225 C 486.047 1.36685 1.54922 0
M  V30 5226 C 486.455 -0.0474099 1.89141 0
M  V30 5227 O 485.798 -1.02213 1.52638 0
M  V30 5228 C 485.86 2.14963 2.88152 0
M  V30 5229 C 485.524 3.6385 2.76518 0
M  V30 5230 C 486.521 4.57531 2.46904 0
M  V30 5231 C 484.206 4.07095 2.94243 0
M  V30 5232 C 486.2 5.92436 2.35156 0
M  V30 5233 C 483.887 5.42083 2.82116 0
M  V30 5234 C 484.885 6.34567 2.52614 0
M  V30 5235 O 484.573 7.67073 2.40529 0
M  V30 5236 H 484.305 0.469586 0.486276 0
M  V30 5237 H 486.859 1.82012 0.951876 0
M  V30 5238 H 485.089 1.6434 3.50042 0
M  V30 5239 H 486.778 2.06224 3.49609 0
M  V30 5240 H 487.544 4.25428 2.32886 0
M  V30 5241 H 483.423 3.35462 3.16206 0
M  V30 5242 H 486.967 6.64591 2.12049 0
M  V30 5243 H 482.864 5.73785 2.95704 0
M  V30 5244 H 483.632 7.77499 2.55807 0
M  V30 5245 N 486.295 -0.989507 1.22664 0
M  V30 5246 C 487.541 -1.7321 1.05481 0
M  V30 5247 C 487.874 -1.89852 -0.408635 0
M  V30 5248 O 487.149 -1.44416 -1.30285 0
M  V30 5249 C 487.432 -3.1357 1.77047 0
M  V30 5250 C 487.285 -3.04555 3.31008 0
M  V30 5251 C 488.604 -4.12812 1.5256 0
M  V30 5252 H 485.723 -0.628697 0.384589 0
M  V30 5253 H 488.365 -1.15258 1.51049 0
M  V30 5254 H 486.515 -3.63046 1.3831 0
M  V30 5255 H 488.187 -2.62674 3.7921 0
M  V30 5256 H 486.43 -2.41278 3.6051 0
M  V30 5257 H 487.101 -4.03894 3.76263 0
M  V30 5258 H 489.577 -3.72106 1.86215 0
M  V30 5259 H 488.453 -5.09132 2.05124 0
M  V30 5260 H 488.714 -4.39711 0.458936 0
M  V30 5261 N 487.773 -1.03688 -1.18687 0
M  V30 5262 C 489.019 -0.74888 -1.89112 0
M  V30 5263 C 489.374 0.715345 -1.78607 0
M  V30 5264 O 488.667 1.51498 -1.17299 0
M  V30 5265 C 488.861 -1.14477 -3.3857 0
M  V30 5266 C 488.69 -2.64594 -3.63621 0
M  V30 5267 C 487.46 -3.31685 -3.812 0
M  V30 5268 C 489.658 -3.62811 -3.64517 0
M  V30 5269 N 487.64 -4.70822 -3.93955 0
M  V30 5270 C 489.011 -4.87603 -3.8294 0
M  V30 5271 C 491.066 -3.56495 -3.47585 0
M  V30 5272 C 489.769 -6.0684 -3.86184 0
M  V30 5273 C 491.795 -4.75155 -3.52111 0
M  V30 5274 C 491.157 -5.98765 -3.71026 0
M  V30 5275 H 487.256 -0.32603 -0.710794 0
M  V30 5276 H 489.84 -1.3258 -1.42586 0
M  V30 5277 H 488.011 -0.595974 -3.838 0
M  V30 5278 H 489.743 -0.808187 -3.96548 0
M  V30 5279 H 486.498 -2.82091 -3.80423 0
M  V30 5280 H 486.922 -5.43122 -4.04163 0
M  V30 5281 H 491.564 -2.61907 -3.31911 0
M  V30 5282 H 489.282 -7.01788 -4.00648 0
M  V30 5283 H 492.868 -4.71905 -3.40289 0
M  V30 5284 H 491.748 -6.89047 -3.74412 0
M  V30 5285 N 489.251 1.34841 -0.815825 0
M  V30 5286 C 490.198 2.29644 -0.230664 0
M  V30 5287 C 491.168 1.53253 0.640533 0
M  V30 5288 O 492.353 1.81653 0.583672 0
M  V30 5289 C 489.493 3.39715 0.607275 0
M  V30 5290 C 488.606 4.31056 -0.28538 0
M  V30 5291 C 487.741 5.28225 0.561446 0
M  V30 5292 C 486.78 6.11204 -0.331035 0
M  V30 5293 N 485.917 7.00483 0.476302 0
M  V30 5294 H 490.757 2.79095 -1.0445 0
M  V30 5295 H 488.294 1.37351 -0.526595 0
M  V30 5296 H 490.252 4.02208 1.10835 0
M  V30 5297 H 488.882 2.91517 1.38629 0
M  V30 5298 H 487.934 3.69487 -0.904621 0
M  V30 5299 H 489.246 4.89239 -0.97193 0
M  V30 5300 H 488.4 5.96135 1.12728 0
M  V30 5301 H 487.139 4.70562 1.28153 0
M  V30 5302 H 486.144 5.42232 -0.909069 0
M  V30 5303 H 487.369 6.70947 -1.04912 0
M  V30 5304 H 485.315 6.45296 1.18019 0
M  V30 5305 H 485.232 7.55847 -0.152008 0
M  V30 5306 H 486.5 7.7273 1.02512 0
M  V30 5307 N 490.729 0.570148 1.46925 0
M  V30 5308 C 491.969 0.0534743 2.0433 0
M  V30 5309 C 492.333 -1.27729 1.4335 0
M  V30 5310 O 493.534 -1.88244 1.91879 0
M  V30 5311 C 491.805 -0.0244296 3.57392 0
M  V30 5312 S 493.364 -0.485351 4.36108 0
M  V30 5313 H 490.182 0.0313908 0.710307 0
M  V30 5314 H 492.784 0.759808 1.80131 0
M  V30 5315 H 491.488 0.948261 3.99295 0
M  V30 5316 H 491.019 -0.753922 3.86108 0
M  V30 5317 H 493.034 -1.74258 4.64595 0
M  V30 5318 N 492.207 -1.54576 0.307264 0
M  V30 5319 C 493.137 -2.26708 -0.55907 0
M  V30 5320 C 494.118 -1.26893 -1.1328 0
M  V30 5321 O 495.303 -1.55677 -1.16097 0
M  V30 5322 C 492.433 -3.01259 -1.72801 0
M  V30 5323 C 491.387 -4.08275 -1.28435 0
M  V30 5324 C 490.713 -4.70575 -2.53895 0
M  V30 5325 C 492.013 -5.2068 -0.411038 0
M  V30 5326 H 493.707 -2.9937 0.042576 0
M  V30 5327 H 491.253 -1.43983 0.0219173 0
M  V30 5328 H 493.206 -3.50444 -2.34023 0
M  V30 5329 H 491.93 -2.26187 -2.356 0
M  V30 5330 H 490.589 -3.59949 -0.695161 0
M  V30 5331 H 490.237 -3.92136 -3.15021 0
M  V30 5332 H 489.937 -5.42854 -2.24908 0
M  V30 5333 H 491.461 -5.22527 -3.15908 0
M  V30 5334 H 492.875 -5.65721 -0.929097 0
M  V30 5335 H 491.272 -5.99716 -0.214664 0
M  V30 5336 H 492.342 -4.81629 0.562287 0
M  V30 5337 N 493.685 -0.035106 -1.57561 0
M  V30 5338 C 495.096 0.502885 -1.798 0
M  V30 5339 C 495.447 1.71892 -0.945921 0
M  V30 5340 O 494.572 2.15822 -0.157991 0
M  V30 5341 C 495.167 0.919097 -3.26095 0
M  V30 5342 C 493.726 1.40216 -3.49308 0
M  V30 5343 C 492.873 0.369709 -2.74824 0
M  V30 5344 H 495.824 -0.261102 -1.56537 0
M  V30 5345 H 495.845 1.78308 -3.36135 0
M  V30 5346 H 495.357 0.0338526 -3.88085 0
M  V30 5347 H 493.458 2.30714 -2.92578 0
M  V30 5348 H 493.571 1.40541 -4.58023 0
M  V30 5349 H 491.935 0.839113 -2.40481 0
M  V30 5350 H 492.718 -0.507173 -3.39533 0
M  V30 5351 N 495.163 1.55791 0.238111 0
M  V30 5352 C 496.095 1.87513 1.31802 0
M  V30 5353 C 497.108 0.762053 1.43863 0
M  V30 5354 O 498.297 1.04024 1.45056 0
M  V30 5355 C 495.397 2.05402 2.69561 0
M  V30 5356 C 494.57 3.3632 2.79656 0
M  V30 5357 C 493.629 3.43844 3.98319 0
M  V30 5358 O 492.655 4.16994 3.87433 0
M  V30 5359 N 493.857 2.73777 5.11885 0
M  V30 5360 H 496.622 2.80734 1.04922 0
M  V30 5361 H 494.183 1.56135 0.428196 0
M  V30 5362 H 496.175 2.07769 3.47296 0
M  V30 5363 H 494.745 1.18884 2.89111 0
M  V30 5364 H 493.965 3.46195 1.88528 0
M  V30 5365 H 495.253 4.22594 2.83358 0
M  V30 5366 H 494.651 2.14094 5.23622 0
M  V30 5367 H 493.208 2.81825 5.87723 0
M  V30 5368 N 496.642 -0.504142 1.49319 0
M  V30 5369 C 497.89 -1.25598 1.58334 0
M  V30 5370 C 498.211 -1.93114 0.270538 0
M  V30 5371 O 497.481 -1.82585 -0.709891 0
M  V30 5372 H 496.061 -0.466571 0.58337 0
M  V30 5373 H 498.723 -0.584547 1.85928 0
M  V30 5374 H 497.819 -2.02159 2.37778 0
M  V30 5375 N 498.12 -1.38341 -0.754957 0
M  V30 5376 C 499.367 -1.34473 -1.51404 0
M  V30 5377 C 499.695 0.0656458 -1.94389 0
M  V30 5378 O 498.95 1.04244 -1.65625 0
M  V30 5379 C 499.249 -2.2452 -2.78075 0
M  V30 5380 C 498.915 -3.72512 -2.54059 0
M  V30 5381 C 497.577 -4.1284 -2.47218 0
M  V30 5382 C 499.929 -4.66197 -2.33044 0
M  V30 5383 C 497.257 -5.44945 -2.17376 0
M  V30 5384 C 499.609 -5.98558 -2.04723 0
M  V30 5385 C 498.273 -6.37972 -1.96337 0
M  V30 5386 H 497.543 -0.492072 -0.554027 0
M  V30 5387 H 500.19 -1.70687 -0.868223 0
M  V30 5388 H 498.495 -1.81357 -3.473 0
M  V30 5389 H 500.192 -2.18832 -3.36026 0
M  V30 5390 H 496.782 -3.40538 -2.60253 0
M  V30 5391 H 500.966 -4.35888 -2.37309 0
M  V30 5392 H 496.222 -5.74426 -2.09391 0
M  V30 5393 H 500.396 -6.70693 -1.87465 0
M  V30 5394 H 498.023 -7.40258 -1.72978 0
M  V30 5395 N 499.598 0.982988 -1.23187 0
M  V30 5396 C 500.844 1.72648 -1.06398 0
M  V30 5397 C 501.177 1.90066 0.398561 0
M  V30 5398 O 500.452 1.45105 1.29518 0
M  V30 5399 C 500.735 3.12627 -1.78707 0
M  V30 5400 C 500.588 3.02795 -3.32618 0
M  V30 5401 C 501.907 4.11997 -1.54747 0
M  V30 5402 H 499.026 0.626649 -0.387918 0
M  V30 5403 H 501.668 1.14455 -1.51658 0
M  V30 5404 H 499.818 3.62308 -1.40234 0
M  V30 5405 H 501.49 2.60659 -3.80598 0
M  V30 5406 H 499.733 2.39362 -3.61785 0
M  V30 5407 H 500.404 4.01893 -3.78399 0
M  V30 5408 H 502.88 3.71114 -1.88186 0
M  V30 5409 H 501.756 5.08037 -2.07821 0
M  V30 5410 H 502.017 4.39462 -0.482249 0
M  V30 5411 N 501.076 1.04316 1.18135 0
M  V30 5412 C 502.006 0.657299 2.24058 0
M  V30 5413 C 502.987 -0.340678 1.66654 0
M  V30 5414 O 504.172 -0.220223 1.92947 0
M  V30 5415 C 501.302 0.0220715 3.47293 0
M  V30 5416 C 500.256 0.943857 4.17463 0
M  V30 5417 C 499.582 0.172973 5.3442 0
M  V30 5418 C 500.882 2.26409 4.70677 0
M  V30 5419 H 502.576 1.5428 2.56589 0
M  V30 5420 H 500.122 0.743263 1.23335 0
M  V30 5421 H 502.075 -0.259607 4.206 0
M  V30 5422 H 500.799 -0.898323 3.14003 0
M  V30 5423 H 499.458 1.20996 3.46057 0
M  V30 5424 H 499.106 -0.749907 4.97379 0
M  V30 5425 H 498.806 0.787098 5.82304 0
M  V30 5426 H 500.33 -0.101628 6.10515 0
M  V30 5427 H 501.744 2.04294 5.35665 0
M  V30 5428 H 500.141 2.8314 5.29105 0
M  V30 5429 H 501.211 2.90883 3.87962 0
M  V30 5430 N 502.554 -1.34406 0.822964 0
M  V30 5431 C 503.779 -2.0304 0.423034 0
M  V30 5432 C 504.204 -1.61568 -0.963196 0
M  V30 5433 O 503.562 -0.800339 -1.62678 0
M  V30 5434 C 503.61 -3.56636 0.53321 0
M  V30 5435 O 502.714 -4.09971 -0.446939 0
M  V30 5436 H 502.055 -0.64075 0.174171 0
M  V30 5437 H 504.585 -1.71653 1.11339 0
M  V30 5438 H 504.595 -4.05945 0.408991 0
M  V30 5439 H 503.27 -3.86168 1.54425 0
M  V30 5440 H 501.847 -3.71835 -0.281601 0
M  V30 5441 N 504.032 -0.577932 -1.46621 0
M  V30 5442 C 505.443 -0.150071 -1.86096 0
M  V30 5443 C 505.794 1.28563 -1.48209 0
M  V30 5444 O 504.919 1.97036 -0.894754 0
M  V30 5445 C 505.514 -0.265576 -3.37758 0
M  V30 5446 C 504.073 0.10738 -3.76247 0
M  V30 5447 C 503.22 -0.603711 -2.70649 0
M  V30 5448 H 506.171 -0.786438 -1.37844 0
M  V30 5449 H 506.192 0.510352 -3.77062 0
M  V30 5450 H 505.704 -1.3106 -3.65301 0
M  V30 5451 H 503.805 1.15272 -3.54321 0
M  V30 5452 H 503.918 -0.26561 -4.78363 0
M  V30 5453 H 502.282 -0.0444884 -2.54661 0
M  V30 5454 H 503.065 -1.65029 -3.01032 0
M  V30 5455 N 505.51 1.54411 -0.315457 0
M  V30 5456 C 506.74 2.04536 0.291315 0
M  V30 5457 C 507.148 1.19162 1.4696 0
M  V30 5458 O 506.491 0.213199 1.82459 0
M  V30 5459 C 506.553 3.5056 0.796725 0
M  V30 5460 C 506.217 4.5627 -0.258178 0
M  V30 5461 C 507.214 5.08312 -1.09153 0
M  V30 5462 C 504.899 5.00672 -0.404036 0
M  V30 5463 C 506.893 6.03312 -2.05655 0
M  V30 5464 C 504.58 5.95488 -1.37248 0
M  V30 5465 C 505.578 6.46693 -2.19721 0
M  V30 5466 O 505.266 7.39648 -3.14921 0
M  V30 5467 H 504.998 0.672856 0.0651165 0
M  V30 5468 H 507.552 2.00244 -0.457308 0
M  V30 5469 H 505.782 3.52223 1.59612 0
M  V30 5470 H 507.471 3.83804 1.32096 0
M  V30 5471 H 508.237 4.74793 -0.98979 0
M  V30 5472 H 504.116 4.60436 0.22799 0
M  V30 5473 H 507.66 6.43203 -2.70067 0
M  V30 5474 H 503.557 6.28424 -1.47489 0
M  V30 5475 H 504.325 7.57496 -3.10067 0
M  V30 5476 N 506.988 0.0434614 1.5754 0
M  V30 5477 C 508.237 -0.631454 1.91561 0
M  V30 5478 C 508.55 -1.72457 0.92292 0
M  V30 5479 O 509.756 -2.45712 1.15489 0
M  V30 5480 C 508.212 -1.17447 3.40197 0
M  V30 5481 C 507.82 -0.113867 4.47855 0
M  V30 5482 C 509.564 -1.82507 3.83264 0
M  V30 5483 C 507.471 -0.669326 5.876 0
M  V30 5484 H 506.401 -0.239629 0.714908 0
M  V30 5485 H 509.052 0.111097 1.83163 0
M  V30 5486 H 507.434 -1.96909 3.43574 0
M  V30 5487 H 508.608 0.659348 4.56058 0
M  V30 5488 H 506.923 0.438821 4.14081 0
M  V30 5489 H 509.52 -2.25047 4.85034 0
M  V30 5490 H 509.863 -2.67365 3.19095 0
M  V30 5491 H 510.396 -1.09712 3.82372 0
M  V30 5492 H 507.135 0.141449 6.55347 0
M  V30 5493 H 506.655 -1.4107 5.82974 0
M  V30 5494 H 508.334 -1.15463 6.36614 0
M  V30 5495 N 508.466 -1.55915 -0.229846 0
M  V30 5496 C 509.696 -1.82352 -0.971152 0
M  V30 5497 C 510.104 -0.619231 -1.7878 0
M  V30 5498 O 509.447 0.421597 -1.78797 0
M  V30 5499 C 509.509 -3.02399 -1.9441 0
M  V30 5500 C 509.173 -4.37739 -1.31277 0
M  V30 5501 C 510.17 -5.15074 -0.706757 0
M  V30 5502 C 507.855 -4.84454 -1.32702 0
M  V30 5503 C 509.849 -6.37281 -0.123413 0
M  V30 5504 C 507.536 -6.06605 -0.739831 0
M  V30 5505 C 508.534 -6.82858 -0.139071 0
M  V30 5506 O 508.222 -8.027 0.439007 0
M  V30 5507 H 507.954 -0.61035 -0.290601 0
M  V30 5508 H 510.508 -2.03839 -0.252746 0
M  V30 5509 H 508.738 -2.76709 -2.70128 0
M  V30 5510 H 510.427 -3.15779 -2.55026 0
M  V30 5511 H 511.193 -4.80093 -0.688131 0
M  V30 5512 H 507.072 -4.25081 -1.78402 0
M  V30 5513 H 510.616 -6.96741 0.346124 0
M  V30 5514 H 506.513 -6.4106 -0.755841 0
M  V30 5515 H 507.281 -8.17824 0.332521 0
M  V30 5516 N 509.944 0.496216 -1.49584 0
M  V30 5517 C 510.876 1.61404 -1.62731 0
M  V30 5518 C 511.889 1.54613 -0.50978 0
M  V30 5519 O 513.078 1.60458 -0.782017 0
M  V30 5520 C 510.178 3.00212 -1.57245 0
M  V30 5521 C 509.351 3.32138 -2.84611 0
M  V30 5522 C 508.41 4.5038 -2.72112 0
M  V30 5523 O 507.436 4.51926 -3.46051 0
M  V30 5524 N 508.638 5.50575 -1.83977 0
M  V30 5525 H 511.403 1.50552 -2.59141 0
M  V30 5526 H 508.964 0.684182 -1.46733 0
M  V30 5527 H 510.956 3.77241 -1.4653 0
M  V30 5528 H 509.526 3.04964 -0.686729 0
M  V30 5529 H 508.746 2.4396 -3.09641 0
M  V30 5530 H 510.034 3.50268 -3.69039 0
M  V30 5531 H 509.432 5.52128 -1.23171 0
M  V30 5532 H 507.989 6.26687 -1.79182 0
M  V30 5533 N 511.423 1.38739 0.74761 0
M  V30 5534 C 512.37 1.36449 1.86146 0
M  V30 5535 C 513.34 0.226098 1.64554 0
M  V30 5536 O 514.525 0.41926 1.86137 0
M  V30 5537 C 511.665 1.2013 3.23516 0
M  V30 5538 C 510.778 2.43407 3.56899 0
M  V30 5539 C 509.913 2.19773 4.83605 0
M  V30 5540 C 508.952 3.3879 5.09792 0
M  V30 5541 N 508.089 3.14553 6.27695 0
M  V30 5542 H 512.929 2.3167 1.87438 0
M  V30 5543 H 510.466 1.15094 0.916063 0
M  V30 5544 H 512.424 1.08683 4.02795 0
M  V30 5545 H 511.054 0.285453 3.21535 0
M  V30 5546 H 510.106 2.65504 2.72418 0
M  V30 5547 H 511.418 3.32094 3.72176 0
M  V30 5548 H 510.572 2.05496 5.70838 0
M  V30 5549 H 509.311 1.28461 4.70478 0
M  V30 5550 H 508.316 3.53579 4.21025 0
M  V30 5551 H 509.541 4.30986 5.24812 0
M  V30 5552 H 507.487 2.25893 6.1588 0
M  V30 5553 H 507.404 3.96791 6.435 0
M  V30 5554 H 508.672 3.03943 7.17801 0
M  V30 5555 N 512.901 -0.976442 1.23707 0
M  V30 5556 C 514.129 -1.75341 1.09833 0
M  V30 5557 C 514.544 -1.8553 -0.349885 0
M  V30 5558 O 513.901 -1.33732 -1.24185 0
M  V30 5559 C 513.952 -3.17833 1.72233 0
M  V30 5560 O 513.673 -3.08167 3.11391 0
M  V30 5561 C 515.174 -4.11906 1.63853 0
M  V30 5562 H 512.394 -0.550137 0.384175 0
M  V30 5563 H 514.938 -1.2265 1.63638 0
M  V30 5564 H 513.093 -3.67538 1.22452 0
M  V30 5565 H 513.507 -3.97897 3.41729 0
M  V30 5566 H 514.981 -5.09579 2.12211 0
M  V30 5567 H 515.458 -4.35109 0.598092 0
M  V30 5568 H 516.064 -3.68107 2.13019 0
M  V30 5569 N 514.379 -1.04941 -1.1758 0
M  V30 5570 C 515.309 -0.669172 -2.23706 0
M  V30 5571 C 516.29 0.331835 -1.66832 0
M  V30 5572 O 517.475 0.209988 -1.93061 0
M  V30 5573 C 514.605 -0.0404889 -3.47276 0
M  V30 5574 C 513.559 -0.965983 -4.16957 0
M  V30 5575 C 512.885 -0.201312 -5.34321 0
M  V30 5576 C 514.185 -2.28902 -4.69469 0
M  V30 5577 H 515.879 -1.55639 -2.55767 0
M  V30 5578 H 513.425 -0.749793 -1.22939 0
M  V30 5579 H 515.378 0.237298 -4.20731 0
M  V30 5580 H 514.102 0.881658 -3.14475 0
M  V30 5581 H 512.761 -1.22829 -3.45411 0
M  V30 5582 H 512.409 0.723519 -4.97769 0
M  V30 5583 H 512.109 -0.817968 -5.81879 0
M  V30 5584 H 513.633 0.0692499 -6.10561 0
M  V30 5585 H 515.047 -2.07132 -5.34574 0
M  V30 5586 H 513.444 -2.85942 -5.27596 0
M  V30 5587 H 514.514 -2.92937 -3.86414 0
M  V30 5588 N 515.857 1.33968 -0.830081 0
M  V30 5589 C 516.789 2.28194 -0.21448 0
M  V30 5590 C 517.802 1.5135 0.599752 0
M  V30 5591 O 518.991 1.73286 0.42826 0
M  V30 5592 C 516.091 3.31221 0.717356 0
M  V30 5593 C 515.264 4.37365 -0.055613 0
M  V30 5594 C 514.323 5.2011 0.798231 0
M  V30 5595 O 513.349 5.68691 0.240616 0
M  V30 5596 N 514.551 5.40523 2.11695 0
M  V30 5597 H 517.316 2.81662 -1.02405 0
M  V30 5598 H 514.877 1.46568 -0.687713 0
M  V30 5599 H 516.869 3.83477 1.29334 0
M  V30 5600 H 515.439 2.78095 1.42765 0
M  V30 5601 H 514.659 3.85727 -0.812936 0
M  V30 5602 H 515.947 5.05397 -0.587444 0
M  V30 5603 H 515.345 5.0274 2.59363 0
M  V30 5604 H 513.902 5.95871 2.64162 0
M  V30 5605 N 517.335 0.585699 1.46312 0
M  V30 5606 C 518.245 -0.148236 2.34131 0
M  V30 5607 C 519.261 -0.882972 1.49932 0
M  V30 5608 O 520.437 -0.845484 1.82794 0
M  V30 5609 C 517.502 -1.14714 3.27172 0
M  V30 5610 C 516.563 -0.416746 4.27272 0
M  V30 5611 C 515.796 -1.36806 5.15868 0
M  V30 5612 O 516.019 -2.60475 5.07454 0
M  V30 5613 O 514.953 -0.877018 5.95476 0
M  V30 5614 H 518.779 0.572882 2.98248 0
M  V30 5615 H 516.364 0.346082 1.45336 0
M  V30 5616 H 518.246 -1.72303 3.84564 0
M  V30 5617 H 516.921 -1.84967 2.65648 0
M  V30 5618 H 515.828 0.201061 3.73559 0
M  V30 5619 H 517.161 0.244872 4.9159 0
M  V30 5620 N 518.813 -1.54241 0.323641 0
M  V30 5621 C 520.062 -1.9975 -0.279806 0
M  V30 5622 C 520.375 -1.2156 -1.5324 0
M  V30 5623 O 521.581 -1.57447 -2.21185 0
M  V30 5624 C 520.037 -3.55686 -0.549115 0
M  V30 5625 C 519.645 -4.4271 0.686432 0
M  V30 5626 C 521.389 -4.09663 -1.11251 0
M  V30 5627 C 519.296 -5.90119 0.389022 0
M  V30 5628 H 518.226 -0.746177 -0.10833 0
M  V30 5629 H 520.877 -1.78248 0.435877 0
M  V30 5630 H 519.259 -3.73176 -1.32499 0
M  V30 5631 H 520.433 -4.36996 1.46188 0
M  V30 5632 H 518.748 -3.99623 1.17005 0
M  V30 5633 H 521.345 -5.17386 -1.34965 0
M  V30 5634 H 521.688 -3.61651 -2.06191 0
M  V30 5635 H 522.221 -3.95806 -0.39782 0
M  V30 5636 H 518.96 -6.42326 1.30759 0
M  V30 5637 H 518.48 -5.98785 -0.348722 0
M  V30 5638 H 520.159 -6.47 -0.0011164 0
M  V30 5639 N 520.291 -0.0518155 -1.57515 0
M  V30 5640 C 521.221 0.920283 -2.146 0
M  V30 5641 C 522.202 1.32406 -1.06783 0
M  V30 5642 O 523.387 1.39866 -1.34726 0
M  V30 5643 C 520.517 2.1949 -2.6915 0
M  V30 5644 C 519.471 1.93116 -3.81956 0
M  V30 5645 C 518.797 3.27037 -4.23026 0
M  V30 5646 C 520.097 1.25225 -5.07066 0
M  V30 5647 H 521.791 0.444801 -2.96077 0
M  V30 5648 H 519.337 0.212508 -1.42423 0
M  V30 5649 H 521.29 2.87894 -3.07725 0
M  V30 5650 H 520.014 2.69244 -1.84865 0
M  V30 5651 H 518.673 1.27123 -3.43854 0
M  V30 5652 H 518.321 3.74595 -3.3569 0
M  V30 5653 H 518.021 3.10189 -4.99056 0
M  V30 5654 H 519.545 3.96673 -4.64202 0
M  V30 5655 H 520.959 1.83666 -5.43083 0
M  V30 5656 H 519.356 1.18702 -5.88243 0
M  V30 5657 H 520.426 0.228382 -4.84362 0
M  V30 5658 N 521.769 1.56035 0.221574 0
M  V30 5659 C 522.701 1.889 1.29805 0
M  V30 5660 C 523.714 0.777269 1.43047 0
M  V30 5661 O 524.903 1.05557 1.43945 0
M  V30 5662 C 522.003 2.0825 2.67367 0
M  V30 5663 C 521.176 3.39267 2.76073 0
M  V30 5664 C 520.235 3.48049 3.94649 0
M  V30 5665 O 519.261 4.2108 3.82988 0
M  V30 5666 N 520.463 2.79191 5.08953 0
M  V30 5667 H 523.228 2.81831 1.01938 0
M  V30 5668 H 520.789 1.5658 0.411612 0
M  V30 5669 H 522.781 2.11441 3.45072 0
M  V30 5670 H 521.351 1.21944 2.87834 0
M  V30 5671 H 520.571 3.48175 1.84846 0
M  V30 5672 H 521.859 4.25575 2.7886 0
M  V30 5673 H 521.257 2.19635 5.21322 0
M  V30 5674 H 519.814 2.88043 5.84701 0
M  V30 5675 N 523.247 -0.488276 1.49845 0
M  V30 5676 C 524.658 -1.06955 1.53028 0
M  V30 5677 C 525.009 -1.9351 0.323797 0
M  V30 5678 O 524.134 -2.08891 -0.565116 0
M  V30 5679 C 524.729 -1.94643 2.77307 0
M  V30 5680 C 523.288 -2.4791 2.83227 0
M  V30 5681 C 522.435 -1.25833 2.47106 0
M  V30 5682 H 525.386 -0.271626 1.56358 0
M  V30 5683 H 525.407 -2.79496 2.5819 0
M  V30 5684 H 524.919 -1.31621 3.65099 0
M  V30 5685 H 523.02 -3.14535 1.99745 0
M  V30 5686 H 523.133 -2.84193 3.85709 0
M  V30 5687 H 521.497 -1.58764 1.99163 0
M  V30 5688 H 522.28 -0.644993 3.37186 0
M  V30 5689 N 524.725 -1.39134 -0.740242 0
M  V30 5690 C 525.972 -1.36071 -1.49969 0
M  V30 5691 C 526.3 0.0450245 -1.94448 0
M  V30 5692 O 525.555 1.02482 -1.66721 0
M  V30 5693 C 525.854 -2.27457 -2.75678 0
M  V30 5694 C 525.52 -3.75185 -2.50094 0
M  V30 5695 C 524.182 -4.15439 -2.42825 0
M  V30 5696 C 526.534 -4.68643 -2.28086 0
M  V30 5697 C 523.862 -5.4722 -2.11584 0
M  V30 5698 C 526.214 -6.00695 -1.98363 0
M  V30 5699 C 524.878 -6.40018 -1.8956 0
M  V30 5700 H 524.148 -0.497921 -0.548777 0
M  V30 5701 H 526.795 -1.71599 -0.85007 0
M  V30 5702 H 525.1 -1.8503 -3.45356 0
M  V30 5703 H 526.797 -2.22384 -3.33686 0
M  V30 5704 H 523.387 -3.43279 -2.56627 0
M  V30 5705 H 527.571 -4.3838 -2.32672 0
M  V30 5706 H 522.827 -5.76615 -2.03287 0
M  V30 5707 H 527.001 -6.72644 -1.80341 0
M  V30 5708 H 524.628 -7.42051 -1.65117 0
M  V30 5709 N 526.204 0.969867 -1.24223 0
M  V30 5710 C 527.62 1.23809 -1.00716 0
M  V30 5711 C 527.82 1.99469 0.285358 0
M  V30 5712 O 526.876 2.31764 1.00207 0
M  V30 5713 C 528.189 2.02734 -2.2208 0
M  V30 5714 C 529.737 2.15834 -2.26681 0
M  V30 5715 C 530.212 2.98154 -3.47661 0
M  V30 5716 N 531.703 3.05737 -3.47964 0
M  V30 5717 C 532.438 3.69785 -4.38231 0
M  V30 5718 N 531.934 4.35569 -5.3875 0
M  V30 5719 N 533.727 3.66775 -4.25949 0
M  V30 5720 H 525.878 0.463294 -2.07286 0
M  V30 5721 H 528.141 0.267348 -0.909521 0
M  V30 5722 H 527.847 1.54524 -3.15935 0
M  V30 5723 H 527.721 3.0347 -2.24021 0
M  V30 5724 H 530.108 2.63248 -1.33359 0
M  V30 5725 H 530.189 1.14453 -2.28767 0
M  V30 5726 H 529.833 2.51435 -4.41297 0
M  V30 5727 H 529.763 3.99729 -3.42818 0
M  V30 5728 H 532.254 2.58941 -2.75242 0
M  V30 5729 H 532.567 4.82251 -6.03866 0
M  V30 5730 H 530.912 4.34244 -5.42639 0
M  V30 5731 H 534.103 3.14558 -3.46657 0
M  V30 5732 H 534.276 4.16407 -4.96497 0
M  V30 5733 N 527.682 1.05563 1.17022 0
M  V30 5734 C 528.592 0.670758 2.24807 0
M  V30 5735 C 529.608 -0.309865 1.71219 0
M  V30 5736 O 530.784 -0.161025 2.00755 0
M  V30 5737 C 527.849 0.055337 3.46656 0
M  V30 5738 C 526.91 1.08688 4.15314 0
M  V30 5739 C 526.143 0.500736 5.31346 0
M  V30 5740 O 526.366 -0.688718 5.66227 0
M  V30 5741 O 525.3 1.23683 5.89055 0
M  V30 5742 H 529.126 1.56914 2.60023 0
M  V30 5743 H 526.711 0.827428 1.24395 0
M  V30 5744 H 528.593 -0.286492 4.20425 0
M  V30 5745 H 527.268 -0.816638 3.13229 0
M  V30 5746 H 526.175 1.48077 3.43546 0
M  V30 5747 H 527.508 1.93014 4.52777 0
M  V30 5748 N 529.16 -1.33526 0.837174 0
M  V30 5749 C 530.576 -1.50727 0.524743 0
M  V30 5750 C 530.776 -1.77792 -0.948279 0
M  V30 5751 O 529.832 -1.83719 -1.73216 0
M  V30 5752 C 531.145 -2.66299 1.39661 0
M  V30 5753 C 532.693 -2.80183 1.39521 0
M  V30 5754 C 533.168 -3.98815 2.25189 0
M  V30 5755 N 534.659 -4.06047 2.2289 0
M  V30 5756 C 535.394 -4.97032 2.85915 0
M  V30 5757 N 534.89 -5.93143 3.57985 0
M  V30 5758 N 536.683 -4.90015 2.75394 0
M  V30 5759 H 528.834 -1.1422 1.79074 0
M  V30 5760 H 531.097 -0.561399 0.763894 0
M  V30 5761 H 530.803 -2.52974 2.4433 0
M  V30 5762 H 530.677 -3.61663 1.07145 0
M  V30 5763 H 533.064 -2.92942 0.356253 0
M  V30 5764 H 533.145 -1.85586 1.76044 0
M  V30 5765 H 532.789 -3.86817 3.29143 0
M  V30 5766 H 532.719 -4.92654 1.86009 0
M  V30 5767 H 535.21 -3.37262 1.70478 0
M  V30 5768 H 535.523 -6.59227 4.03286 0
M  V30 5769 H 533.868 -5.93223 3.62093 0
M  V30 5770 H 537.059 -4.13894 2.18654 0
M  V30 5771 H 537.232 -5.60724 3.24796 0
M  V30 5772 N 530.638 -0.59345 -1.46 0
M  V30 5773 C 531.868 -0.0889642 -2.06408 0
M  V30 5774 C 532.276 1.22597 -1.44106 0
M  V30 5775 O 531.619 1.75448 -0.544398 0
M  V30 5776 C 531.681 0.139902 -3.59228 0
M  V30 5777 C 531.345 -1.09107 -4.43784 0
M  V30 5778 C 532.342 -2.00577 -4.79651 0
M  V30 5779 C 530.027 -1.31593 -4.84756 0
M  V30 5780 C 532.021 -3.12873 -5.55328 0
M  V30 5781 C 529.708 -2.44192 -5.60191 0
M  V30 5782 C 530.706 -3.34661 -5.95392 0
M  V30 5783 O 530.394 -4.45302 -6.69299 0
M  V30 5784 H 530.126 -0.0594613 -0.67338 0
M  V30 5785 H 532.68 -0.817 -1.88452 0
M  V30 5786 H 530.91 0.922672 -3.75531 0
M  V30 5787 H 532.599 0.594228 -4.01527 0
M  V30 5788 H 533.365 -1.84425 -4.48567 0
M  V30 5789 H 529.244 -0.620801 -4.56801 0
M  V30 5790 H 532.788 -3.83511 -5.82722 0
M  V30 5791 H 528.685 -2.60303 -5.90688 0
M  V30 5792 H 529.453 -4.43805 -6.87735 0
M  V30 5793 N 532.116 1.54067 -0.331816 0
M  V30 5794 C 533.527 1.86059 0.15454 0
M  V30 5795 C 533.878 1.25331 1.50952 0
M  V30 5796 O 533.003 0.562441 2.08963 0
M  V30 5797 C 533.598 3.37581 0.287192 0
M  V30 5798 C 532.157 3.69493 0.717773 0
M  V30 5799 C 531.304 2.76863 -0.155569 0
M  V30 5800 H 534.255 1.48797 -0.55182 0
M  V30 5801 H 534.276 3.63744 1.11671 0
M  V30 5802 H 533.788 3.81751 -0.699131 0
M  V30 5803 H 531.889 3.3086 1.71354 0
M  V30 5804 H 532.002 4.76315 0.5158 0
M  V30 5805 H 530.366 2.51995 0.370213 0
M  V30 5806 H 531.149 3.23861 -1.13881 0
M  V30 5807 N 533.594 0.0601682 1.57485 0
M  V30 5808 C 534.504 -0.926121 2.15546 0
M  V30 5809 C 535.52 -1.33532 1.11558 0
M  V30 5810 O 536.696 -1.4104 1.4377 0
M  V30 5811 C 533.761 -2.17952 2.69625 0
M  V30 5812 C 532.822 -1.82783 3.88444 0
M  V30 5813 C 532.055 -3.02148 4.39935 0
M  V30 5814 O 532.278 -4.15803 3.90466 0
M  V30 5815 O 531.212 -2.82639 5.31412 0
M  V30 5816 H 535.038 -0.462289 3.00161 0
M  V30 5817 H 532.623 -0.162246 1.48516 0
M  V30 5818 H 534.505 -2.91474 3.04337 0
M  V30 5819 H 533.18 -2.63456 1.88077 0
M  V30 5820 H 532.087 -1.06549 3.58606 0
M  V30 5821 H 533.42 -1.42072 4.7125 0
M  V30 5822 N 535.072 -1.5615 -0.213296 0
M  V30 5823 C 536.318 -1.79812 -0.937849 0
M  V30 5824 C 536.651 -0.631201 -1.83656 0
M  V30 5825 O 535.926 0.369165 -1.90964 0
M  V30 5826 C 536.209 -3.13613 -1.76972 0
M  V30 5827 C 536.062 -4.40766 -0.89695 0
M  V30 5828 C 537.381 -3.43931 -2.7459 0
M  V30 5829 H 534.5 -0.654138 -0.339518 0
M  V30 5830 H 537.142 -1.88877 -0.20623 0
M  V30 5831 H 535.292 -3.06015 -2.39347 0
M  V30 5832 H 536.964 -4.60392 -0.289306 0
M  V30 5833 H 535.207 -4.33326 -0.202756 0
M  V30 5834 H 535.878 -5.30843 -1.51358 0
M  V30 5835 H 538.354 -3.5171 -2.22349 0
M  V30 5836 H 537.23 -4.38706 -3.29891 0
M  V30 5837 H 537.491 -2.6651 -3.52739 0
M  V30 5838 N 536.55 0.480323 -1.50102 0
M  V30 5839 C 537.482 1.59669 -1.64433 0
M  V30 5840 C 538.495 1.54063 -0.52615 0
M  V30 5841 O 539.684 1.59619 -0.798992 0
M  V30 5842 C 536.784 2.98527 -1.6042 0
M  V30 5843 C 535.957 3.291 -2.88117 0
M  V30 5844 C 535.016 4.47468 -2.76873 0
M  V30 5845 O 534.042 4.4823 -3.50825 0
M  V30 5846 N 535.244 5.48593 -1.89806 0
M  V30 5847 H 538.009 1.47795 -2.60723 0
M  V30 5848 H 535.57 0.66858 -1.4745 0
M  V30 5849 H 537.562 3.75666 -1.50523 0
M  V30 5850 H 536.132 3.04218 -0.719036 0
M  V30 5851 H 535.352 2.40662 -3.12211 0
M  V30 5852 H 536.64 3.46334 -3.72734 0
M  V30 5853 H 536.038 5.50791 -1.2902 0
M  V30 5854 H 534.595 6.24752 -1.85819 0
M  V30 5855 N 538.028 1.39524 0.732853 0
M  V30 5856 C 538.958 1.41153 1.86005 0
M  V30 5857 C 539.939 0.274614 1.67869 0
M  V30 5858 O 541.124 0.480745 1.88155 0
M  V30 5859 C 538.254 1.25638 3.23778 0
M  V30 5860 C 537.208 2.36752 3.56556 0
M  V30 5861 C 536.534 2.06326 4.93289 0
M  V30 5862 C 537.834 3.79069 3.5931 0
M  V30 5863 H 539.528 2.35484 1.84899 0
M  V30 5864 H 537.074 1.13348 0.888162 0
M  V30 5865 H 539.027 1.25398 4.0231 0
M  V30 5866 H 537.751 0.277772 3.25417 0
M  V30 5867 H 536.41 2.36213 2.80355 0
M  V30 5868 H 536.058 1.06897 4.9151 0
M  V30 5869 H 535.758 2.80757 5.16187 0
M  V30 5870 H 537.282 2.07739 5.74175 0
M  V30 5871 H 538.696 3.81526 4.27914 0
M  V30 5872 H 537.093 4.52878 3.93728 0
M  V30 5873 H 538.163 4.09893 2.59068 0
M  V30 5874 N 539.506 -0.963266 1.24736 0
M  V30 5875 C 540.736 -1.73913 1.11524 0
M  V30 5876 C 541.144 -1.86218 -0.334612 0
M  V30 5877 O 540.487 -1.3531 -1.24245 0
M  V30 5878 C 540.549 -3.17501 1.68622 0
M  V30 5879 C 540.213 -3.28655 3.17546 0
M  V30 5880 C 541.21 -3.13637 4.14642 0
M  V30 5881 C 538.895 -3.52753 3.5759 0
M  V30 5882 C 540.889 -3.2255 5.49764 0
M  V30 5883 C 538.576 -3.61303 4.92852 0
M  V30 5884 C 539.574 -3.46214 5.88748 0
M  V30 5885 O 539.262 -3.5443 7.2155 0
M  V30 5886 H 538.994 -0.552057 0.390139 0
M  V30 5887 H 541.548 -1.2177 1.65412 0
M  V30 5888 H 539.778 -3.70969 1.09172 0
M  V30 5889 H 541.467 -3.76914 1.50635 0
M  V30 5890 H 542.233 -2.94899 3.85045 0
M  V30 5891 H 538.112 -3.63561 2.83451 0
M  V30 5892 H 541.656 -3.1069 6.24594 0
M  V30 5893 H 537.553 -3.79556 5.22118 0
M  V30 5894 H 538.321 -3.71116 7.29531 0
M  V30 5895 N 540.985 -1.06182 -1.16461 0
M  V30 5896 C 541.917 -0.629584 -2.20383 0
M  V30 5897 C 542.93 0.311834 -1.59786 0
M  V30 5898 O 544.119 0.103 -1.78203 0
M  V30 5899 C 541.219 0.0973695 -3.3876 0
M  V30 5900 C 540.392 -0.857252 -4.28917 0
M  V30 5901 C 539.451 -0.169749 -5.25926 0
M  V30 5902 O 538.477 -0.807044 -5.6345 0
M  V30 5903 N 539.679 1.08911 -5.70192 0
M  V30 5904 H 542.444 -1.52352 -2.58087 0
M  V30 5905 H 540.005 -0.944993 -1.31459 0
M  V30 5906 H 541.997 0.567676 -4.00699 0
M  V30 5907 H 540.567 0.893093 -2.99571 0
M  V30 5908 H 539.787 -1.50696 -3.64259 0
M  V30 5909 H 541.075 -1.50489 -4.86035 0
M  V30 5910 H 540.473 1.62703 -5.41797 0
M  V30 5911 H 539.03 1.50331 -6.34227 0
M  V30 5912 N 542.463 1.3308 -0.844243 0
M  V30 5913 C 543.693 2.01515 -0.455541 0
M  V30 5914 C 544.101 1.63655 0.949406 0
M  V30 5915 O 543.444 0.84848 1.62931 0
M  V30 5916 C 543.506 3.55967 -0.502801 0
M  V30 5917 C 543.17 4.17222 -1.86481 0
M  V30 5918 C 544.167 4.36205 -2.8288 0
M  V30 5919 C 541.852 4.53528 -2.15911 0
M  V30 5920 C 543.846 4.90649 -4.06869 0
M  V30 5921 C 541.533 5.07679 -3.40155 0
M  V30 5922 C 542.531 5.26186 -4.35451 0
M  V30 5923 O 542.219 5.79183 -5.57496 0
M  V30 5924 H 541.951 0.65199 -0.178565 0
M  V30 5925 H 544.505 1.70867 -1.1399 0
M  V30 5926 H 542.735 3.85965 0.23836 0
M  V30 5927 H 544.424 4.05688 -0.131169 0
M  V30 5928 H 545.19 4.085 -2.61444 0
M  V30 5929 H 541.069 4.38414 -1.42528 0
M  V30 5930 H 544.613 5.0501 -4.81259 0
M  V30 5931 H 540.51 5.34815 -3.61446 0
M  V30 5932 H 541.278 5.97591 -5.5931 0
M  V30 5933 N 543.941 0.601185 1.45683 0
M  V30 5934 C 544.874 -0.17013 2.27565 0
M  V30 5935 C 545.852 -0.879661 1.36751 0
M  V30 5936 O 547.036 -0.889827 1.66176 0
M  V30 5937 C 544.163 -1.24568 3.14961 0
M  V30 5938 C 543.209 -0.639978 4.21671 0
M  V30 5939 S 544.042 0.547275 5.32696 0
M  V30 5940 C 545.198 -0.529019 6.2366 0
M  V30 5941 H 545.431 0.524583 2.92635 0
M  V30 5942 H 542.964 0.388537 1.49431 0
M  V30 5943 H 544.922 -1.86138 3.65873 0
M  V30 5944 H 543.583 -1.91243 2.49169 0
M  V30 5945 H 542.776 -1.44903 4.8272 0
M  V30 5946 H 542.378 -0.0995558 3.73867 0
M  V30 5947 H 544.67 -1.40981 6.62669 0
M  V30 5948 H 545.613 0.0451599 7.08086 0
M  V30 5949 H 546.021 -0.84147 5.58193 0
M  V30 5950 N 545.419 -1.53889 0.339982 0
M  V30 5951 C 546.696 -1.93084 -0.312719 0
M  V30 5952 C 547.076 -1.2712 -1.68534 0
M  V30 5953 O 546.424 -0.420835 -2.24591 0
M  V30 5954 C 546.634 -3.4683 -0.388558 0
M  V30 5955 C 547.982 -4.19732 -0.641088 0
M  V30 5956 O 549.006 -3.53075 -0.470818 0
M  V30 5957 O 547.865 -5.3781 -0.970685 0
M  V30 5958 H 544.959 -0.806784 -0.18174 0
M  V30 5959 H 547.505 -1.65137 0.390898 0
M  V30 5960 H 546.277 -3.87055 0.574821 0
M  V30 5961 H 545.9 -3.80933 -1.1391 0
M  V30 5962 N 546.897 -0.0685191 -1.57451 0
M  V30 5963 C 548.174 0.642167 -1.84758 0
M  V30 5964 C 548.554 1.87991 -0.960344 0
M  V30 5965 O 547.902 2.28485 -0.0257894 0
M  V30 5966 C 548.112 0.982946 -3.34872 0
M  V30 5967 C 549.46 1.35784 -4.02303 0
M  V30 5968 O 550.484 1.07477 -3.39598 0
M  V30 5969 O 549.343 1.88681 -5.12895 0
M  V30 5970 H 546.437 0.318625 -0.763156 0
M  V30 5971 H 548.983 -0.0992015 -1.6941 0
M  V30 5972 H 547.755 0.10372 -3.91163 0
M  V30 5973 H 547.378 1.78119 -3.55471 0
M  V30 5974 N 548.375 1.56261 0.205012 0
M  V30 5975 C 549.305 1.96779 1.257 0
M  V30 5976 C 550.286 0.838309 1.48008 0
M  V30 5977 O 551.471 1.10189 1.59913 0
M  V30 5978 C 548.601 2.29876 2.60335 0
M  V30 5979 C 547.555 3.45469 2.52656 0
M  V30 5980 C 546.881 3.64215 3.91473 0
M  V30 5981 C 548.181 4.79954 2.06014 0
M  V30 5982 H 549.875 2.84904 0.920338 0
M  V30 5983 H 547.421 1.37072 0.441277 0
M  V30 5984 H 549.374 2.56814 3.34102 0
M  V30 5985 H 548.098 1.38622 2.95722 0
M  V30 5986 H 546.757 3.18605 1.81345 0
M  V30 5987 H 546.405 2.70309 4.24196 0
M  V30 5988 H 546.105 4.41973 3.87213 0
M  V30 5989 H 547.629 3.93519 4.66878 0
M  V30 5990 H 549.043 5.05989 2.69533 0
M  V30 5991 H 547.44 5.61111 2.12777 0
M  V30 5992 H 548.51 4.74201 1.01297 0
M  V30 5993 N 549.853 -0.472356 1.50355 0
M  V30 5994 C 551.1 -1.22453 1.61281 0
M  V30 5995 C 551.428 -1.91972 0.31256 0
M  V30 5996 O 550.683 -1.82696 -0.701475 0
M  V30 5997 C 550.982 -2.29257 2.74182 0
M  V30 5998 C 550.648 -1.76999 4.14708 0
M  V30 5999 C 549.31 -1.62467 4.52944 0
M  V30 6000 C 551.662 -1.38215 5.0254 0
M  V30 6001 C 548.99 -1.07574 5.76754 0
M  V30 6002 C 551.342 -0.847638 6.26895 0
M  V30 6003 C 550.006 -0.688946 6.63935 0
M  V30 6004 H 549.276 -0.448087 0.590168 0
M  V30 6005 H 551.923 -0.520744 1.84284 0
M  V30 6006 H 550.228 -3.05538 2.45263 0
M  V30 6007 H 551.925 -2.87212 2.7984 0
M  V30 6008 H 548.515 -1.89276 3.84542 0
M  V30 6009 H 552.699 -1.48276 4.73633 0
M  V30 6010 H 547.955 -0.940237 6.04127 0
M  V30 6011 H 552.129 -0.538455 6.94315 0
M  V30 6012 H 549.756 -0.261435 7.5975 0
M  V30 6013 N 551.331 -1.39911 -0.725443 0
M  V30 6014 C 552.577 -1.37858 -1.48738 0
M  V30 6015 C 552.91 0.0224187 -1.94187 0
M  V30 6016 O 552.185 0.989204 -1.67466 0
M  V30 6017 C 552.468 -2.3594 -2.72038 0
M  V30 6018 C 552.321 -3.85023 -2.32546 0
M  V30 6019 C 553.64 -2.31704 -3.74167 0
M  V30 6020 H 550.759 -0.502074 -0.539528 0
M  V30 6021 H 553.401 -1.70974 -0.828728 0
M  V30 6022 H 551.551 -2.0783 -3.28236 0
M  V30 6023 H 553.223 -4.2392 -1.81905 0
M  V30 6024 H 551.466 -4.01334 -1.64661 0
M  V30 6025 H 552.137 -4.49152 -3.20884 0
M  V30 6026 H 554.613 -2.5658 -3.27576 0
M  V30 6027 H 553.489 -3.02395 -4.58092 0
M  V30 6028 H 553.75 -1.3253 -4.21768 0
M  V30 6029 N 552.809 0.956637 -1.25245 0
M  V30 6030 C 554.057 1.69764 -1.09657 0
M  V30 6031 C 554.378 1.91583 0.363464 0
M  V30 6032 O 553.648 1.50149 1.25825 0
M  V30 6033 H 552.228 0.629097 -0.402798 0
M  V30 6034 H 554.89 1.15026 -1.57337 0
M  V30 6035 H 553.986 2.67769 -1.60331 0
M  V30 6036 N 554.287 1.06798 1.15896 0
M  V30 6037 C 555.512 0.808739 1.90982 0
M  V30 6038 C 555.937 -0.6316 1.77179 0
M  V30 6039 O 555.295 -1.4407 1.10061 0
M  V30 6040 C 555.343 1.21468 3.39526 0
M  V30 6041 O 554.447 0.356562 4.10856 0
M  V30 6042 H 553.788 0.29512 0.594811 0
M  V30 6043 H 556.318 1.42513 1.46804 0
M  V30 6044 H 556.328 1.18844 3.90308 0
M  V30 6045 H 555.003 2.26379 3.48891 0
M  V30 6046 H 553.58 0.444808 3.70238 0
M  V30 6047 N 555.766 -1.3263 0.851289 0
M  V30 6048 C 556.714 -2.30882 0.282202 0
M  V30 6049 C 557.708 -1.58697 -0.592589 0
M  V30 6050 O 558.914 -1.73461 -0.480768 0
M  V30 6051 H 555.289 -0.748492 0.0725487 0
M  V30 6052 H 557.26 -2.76374 1.12516 0
M  V30 6053 C 556.009 -3.43828 -0.517449 0
M  V30 6054 H 555.332 -3.99532 0.146392 0
M  V30 6055 H 556.772 -4.1474 -0.88128 0
M  V30 6056 C 555.231 -2.90786 -1.70133 0
M  V30 6057 O 555.761 -2.88 -2.80034 0
M  V30 6058 N 553.967 -2.4723 -1.52728 0
M  V30 6059 H 553.514 -2.49695 -0.633257 0
M  V30 6060 H 553.472 -2.12094 -2.32085 0
M  V30 6061 N 557.244 -0.608902 -1.45362 0
M  V30 6062 C 558.492 -0.104401 -2.0183 0
M  V30 6063 C 558.813 1.27007 -1.47967 0
M  V30 6064 O 558.083 1.83924 -0.674455 0
M  V30 6065 H 556.663 -0.0356042 -0.746151 0
M  V30 6066 H 559.325 -0.790596 -1.78145 0
M  V30 6067 H 558.421 -0.0551793 -3.12051 0
M  V30 6068 N 558.722 1.53707 -0.348139 0
M  V30 6069 C 559.947 2.05877 0.250883 0
M  V30 6070 C 560.372 1.22115 1.43072 0
M  V30 6071 O 559.73 0.235986 1.79758 0
M  V30 6072 C 559.778 3.54886 0.639416 0
M  V30 6073 O 558.882 3.73948 1.73888 0
M  V30 6074 H 558.223 0.662754 0.040653 0
M  V30 6075 H 560.753 1.98303 -0.503685 0
M  V30 6076 H 560.763 3.97601 0.915295 0
M  V30 6077 H 559.438 4.153 -0.223386 0
M  V30 6078 H 558.015 3.43134 1.45991 0
M  V30 6079 N 560.2 0.0768682 1.57412 0
M  V30 6080 C 561.147 -0.888577 2.13009 0
M  V30 6081 C 562.117 -1.29198 1.0439 0
M  V30 6082 O 563.302 -1.37694 1.3208 0
M  V30 6083 C 560.442 -2.14899 2.70023 0
M  V30 6084 C 559.555 -1.79777 3.92816 0
M  V30 6085 C 558.69 -3.00467 4.38056 0
M  V30 6086 C 557.729 -2.61385 5.53484 0
M  V30 6087 N 556.866 -3.74851 5.93659 0
M  V30 6088 H 561.706 -0.407593 2.95199 0
M  V30 6089 H 559.243 -0.189534 1.45874 0
M  V30 6090 H 561.201 -2.88688 3.0119 0
M  V30 6091 H 559.831 -2.60529 1.9059 0
M  V30 6092 H 558.883 -0.960301 3.68079 0
M  V30 6093 H 560.195 -1.47027 4.76639 0
M  V30 6094 H 559.349 -3.82529 4.7091 0
M  V30 6095 H 558.088 -3.36413 3.53097 0
M  V30 6096 H 557.093 -1.77746 5.20275 0
M  V30 6097 H 558.318 -2.26603 6.40178 0
M  V30 6098 H 556.264 -4.1055 5.11649 0
M  V30 6099 H 556.181 -3.45887 6.72234 0
M  V30 6100 H 557.449 -4.57477 6.31138 0
M  V30 6101 N 561.678 -1.56367 -0.196722 0
M  V30 6102 C 562.625 -1.94417 -1.24382 0
M  V30 6103 C 563.595 -0.804543 -1.45315 0
M  V30 6104 O 564.78 -1.06256 -1.58475 0
M  V30 6105 C 561.92 -2.28757 -2.58388 0
M  V30 6106 C 561.033 -3.55775 -2.45047 0
M  V30 6107 C 560.168 -3.79445 -3.71746 0
M  V30 6108 C 559.207 -4.99894 -3.53231 0
M  V30 6109 N 558.344 -5.19826 -4.71938 0
M  V30 6110 H 563.184 -2.83691 -0.912338 0
M  V30 6111 H 560.721 -1.40392 -0.439135 0
M  V30 6112 H 562.679 -2.46682 -3.36457 0
M  V30 6113 H 561.309 -1.42625 -2.89582 0
M  V30 6114 H 560.361 -3.45905 -1.58284 0
M  V30 6115 H 561.673 -4.44 -2.27299 0
M  V30 6116 H 560.827 -3.97601 -4.58256 0
M  V30 6117 H 559.566 -2.89546 -3.92446 0
M  V30 6118 H 558.571 -4.81662 -2.65107 0
M  V30 6119 H 559.796 -5.913 -3.33978 0
M  V30 6120 H 557.742 -4.32875 -4.92905 0
M  V30 6121 H 557.659 -6.02228 -4.57009 0
M  V30 6122 H 558.927 -5.42439 -5.59803 0
M  V30 6123 N 563.156 0.464375 -1.50603 0
M  V30 6124 C 564.088 1.57916 -1.66118 0
M  V30 6125 C 565.101 1.53497 -0.54246 0
M  V30 6126 O 566.29 1.58763 -0.815877 0
M  V30 6127 C 563.39 2.96809 -1.63577 0
M  V30 6128 C 562.563 3.26026 -2.91592 0
M  V30 6129 C 561.622 4.44506 -2.81604 0
M  V30 6130 O 560.648 4.44484 -3.55559 0
M  V30 6131 N 561.85 5.46549 -1.95614 0
M  V30 6132 H 564.615 1.45022 -2.62276 0
M  V30 6133 H 562.176 0.652903 -1.48151 0
M  V30 6134 H 564.168 3.74048 -1.54499 0
M  V30 6135 H 562.738 3.03438 -0.751262 0
M  V30 6136 H 561.958 2.37337 -3.14746 0
M  V30 6137 H 563.246 3.42361 -3.76386 0
M  V30 6138 H 562.644 5.49391 -1.34854 0
M  V30 6139 H 561.201 6.22746 -1.92435 0
M  V30 6140 N 564.634 1.40294 0.718013 0
M  V30 6141 C 565.584 1.36847 1.82365 0
M  V30 6142 C 566.568 0.246424 1.59002 0
M  V30 6143 O 567.76 0.485336 1.70216 0
M  V30 6144 C 564.889 1.23105 3.20469 0
M  V30 6145 C 563.975 2.4008 3.49603 0
M  V30 6146 N 564.366 3.65562 3.49568 0
M  V30 6147 C 562.664 2.33407 3.80049 0
M  V30 6148 C 563.365 4.43015 3.76978 0
M  V30 6149 N 562.341 3.72823 3.95606 0
M  V30 6150 H 566.143 2.31811 1.80668 0
M  V30 6151 H 563.657 1.34031 0.91703 0
M  V30 6152 H 565.654 1.18718 3.9964 0
M  V30 6153 H 564.314 0.291056 3.23393 0
M  V30 6154 H 565.325 3.98756 3.30476 0
M  V30 6155 H 562.002 1.47762 3.90478 0
M  V30 6156 H 563.392 5.51859 3.83276 0
M  V30 6157 N 566.112 -0.949982 1.2575 0
M  V30 6158 C 567.059 -2.04738 1.06541 0
M  V30 6159 C 568.029 -1.66078 -0.0268818 0
M  V30 6160 O 569.214 -1.90348 0.131196 0
M  V30 6161 C 566.354 -3.38027 0.695127 0
M  V30 6162 C 565.467 -3.89776 1.86276 0
M  V30 6163 C 564.602 -5.11411 1.4364 0
M  V30 6164 C 563.641 -5.554 2.57287 0
M  V30 6165 N 562.778 -6.68244 2.15395 0
M  V30 6166 H 567.618 -2.20502 2.00457 0
M  V30 6167 H 565.155 -1.0805 0.998178 0
M  V30 6168 H 567.113 -4.14641 0.461375 0
M  V30 6169 H 565.743 -3.22135 -0.207046 0
M  V30 6170 H 564.795 -3.0964 2.20969 0
M  V30 6171 H 566.107 -4.18368 2.71606 0
M  V30 6172 H 565.261 -5.95457 1.16257 0
M  V30 6173 H 564 -4.84545 0.553879 0
M  V30 6174 H 563.005 -4.69916 2.85409 0
M  V30 6175 H 564.23 -5.84272 3.46125 0
M  V30 6176 H 562.176 -6.43078 1.29565 0
M  V30 6177 H 562.093 -6.96377 2.94272 0
M  V30 6178 H 563.361 -7.55687 1.91201 0
M  V30 6179 N 567.59 -1.07411 -1.15328 0
M  V30 6180 C 568.5 -0.706438 -2.23711 0
M  V30 6181 C 569.516 0.282586 -1.7169 0
M  V30 6182 O 570.692 0.129066 -2.00986 0
M  V30 6183 C 567.757 -0.11048 -3.46524 0
M  V30 6184 C 566.818 -1.15282 -4.13532 0
M  V30 6185 C 566.051 -0.585205 -5.30482 0
M  V30 6186 O 566.274 0.598549 -5.67251 0
M  V30 6187 O 565.208 -1.33039 -5.87013 0
M  V30 6188 H 569.034 -1.61031 -2.57493 0
M  V30 6189 H 566.619 -0.847113 -1.23062 0
M  V30 6190 H 568.501 0.21957 -4.20828 0
M  V30 6191 H 567.176 0.766703 -3.14489 0
M  V30 6192 H 566.083 -1.53523 -3.41147 0
M  V30 6193 H 567.416 -2.00192 -4.49649 0
M  V30 6194 N 569.068 1.32177 -0.85831 0
M  V30 6195 C 569.998 2.31282 -0.321041 0
M  V30 6196 C 570.979 1.59841 0.581786 0
M  V30 6197 O 572.164 1.87619 0.501262 0
M  V30 6198 C 569.294 3.4385 0.48832 0
M  V30 6199 C 568.248 4.26799 -0.320391 0
M  V30 6200 C 567.574 5.31164 0.613934 0
M  V30 6201 C 568.874 4.98829 -1.54813 0
M  V30 6202 H 570.568 2.76469 -1.14915 0
M  V30 6203 H 568.114 1.32916 -0.554028 0
M  V30 6204 H 570.067 4.12224 0.874626 0
M  V30 6205 H 568.791 2.97401 1.34983 0
M  V30 6206 H 567.45 3.60077 -0.688497 0
M  V30 6207 H 567.098 4.80967 1.47239 0
M  V30 6208 H 566.798 5.8755 0.0768097 0
M  V30 6209 H 568.322 6.024 0.997336 0
M  V30 6210 H 569.736 5.59864 -1.23392 0
M  V30 6211 H 568.133 5.64957 -2.02346 0
M  V30 6212 H 569.203 4.26483 -2.30739 0
M  V30 6213 N 570.547 0.616602 1.45037 0
M  V30 6214 C 571.796 0.112861 2.01384 0
M  V30 6215 C 572.109 -1.26758 1.48969 0
M  V30 6216 O 573.315 -1.86454 1.9735 0
M  V30 6217 C 571.771 0.151057 3.59583 0
M  V30 6218 C 571.379 1.53191 4.20995 0
M  V30 6219 C 573.123 -0.296974 4.2346 0
M  V30 6220 C 571.03 1.526 5.71373 0
M  V30 6221 H 569.96 0.0384254 0.75302 0
M  V30 6222 H 572.611 0.773262 1.66412 0
M  V30 6223 H 570.993 -0.57617 3.91786 0
M  V30 6224 H 572.167 2.28156 4.00352 0
M  V30 6225 H 570.482 1.92279 3.69348 0
M  V30 6226 H 573.079 -0.320712 5.33737 0
M  V30 6227 H 573.422 -1.32145 3.9477 0
M  V30 6228 H 573.955 0.377279 3.96007 0
M  V30 6229 H 570.694 2.52837 6.04776 0
M  V30 6230 H 570.214 0.819064 5.94181 0
M  V30 6231 H 571.893 1.25357 6.3474 0
M  V30 6232 N 572.025 -1.5352 0.356285 0
M  V30 6233 C 573.274 -2.00298 -0.237373 0
M  V30 6234 C 573.587 -1.24784 -1.50627 0
M  V30 6235 O 574.793 -1.62103 -2.17795 0
M  V30 6236 C 573.249 -3.56771 -0.473545 0
M  V30 6237 C 572.857 -4.41154 0.780183 0
M  V30 6238 C 574.601 -4.1193 -1.02537 0
M  V30 6239 C 572.508 -5.89161 0.514108 0
M  V30 6240 H 571.438 -0.748307 -0.092478 0
M  V30 6241 H 574.089 -1.77283 0.473588 0
M  V30 6242 H 572.471 -3.75902 -1.24553 0
M  V30 6243 H 573.645 -4.33797 1.55425 0
M  V30 6244 H 571.96 -3.97052 1.25455 0
M  V30 6245 H 574.557 -5.20133 -1.2396 0
M  V30 6246 H 574.9 -3.65943 -1.98473 0
M  V30 6247 H 575.433 -3.96561 -0.313775 0
M  V30 6248 H 572.172 -6.39408 1.44355 0
M  V30 6249 H 571.692 -5.9939 -0.221632 0
M  V30 6250 H 573.371 -6.46857 0.136122 0
M  V30 6251 N 573.503 -0.0852151 -1.57369 0
M  V30 6252 C 574.413 0.891712 -2.16992 0
M  V30 6253 C 575.429 1.3174 -1.13669 0
M  V30 6254 O 576.605 1.38735 -1.45995 0
M  V30 6255 C 573.67 2.13635 -2.73059 0
M  V30 6256 C 572.731 1.7658 -3.91303 0
M  V30 6257 C 571.964 2.95111 -4.44686 0
M  V30 6258 O 572.187 4.09539 -3.97032 0
M  V30 6259 O 571.121 2.74149 -5.35841 0
M  V30 6260 H 574.947 0.414477 -3.00858 0
M  V30 6261 H 572.532 0.138598 -1.48756 0
M  V30 6262 H 574.414 2.86595 -3.08935 0
M  V30 6263 H 573.089 2.6043 -1.92244 0
M  V30 6264 H 571.996 1.00831 -3.60255 0
M  V30 6265 H 573.329 1.34557 -4.7345 0
M  V30 6266 N 574.981 1.5647 0.188427 0
M  V30 6267 C 575.911 1.98101 1.23606 0
M  V30 6268 C 576.892 0.853961 1.47111 0
M  V30 6269 O 578.077 1.11879 1.58735 0
M  V30 6270 C 575.207 2.32624 2.57882 0
M  V30 6271 C 574.161 3.48129 2.48978 0
M  V30 6272 C 573.487 3.68347 3.87588 0
M  V30 6273 C 574.787 4.82112 2.00911 0
M  V30 6274 H 576.481 2.85864 0.890068 0
M  V30 6275 H 574.027 1.37532 0.426714 0
M  V30 6276 H 575.98 2.60343 3.3136 0
M  V30 6277 H 574.704 1.41751 2.94235 0
M  V30 6278 H 573.363 3.20511 1.77956 0
M  V30 6279 H 573.011 2.74793 4.21305 0
M  V30 6280 H 572.711 4.46055 3.82503 0
M  V30 6281 H 574.235 3.98449 4.62678 0
M  V30 6282 H 575.649 5.08819 2.64151 0
M  V30 6283 H 574.046 5.63337 2.06814 0
M  V30 6284 H 575.116 4.75249 0.96262 0
M  V30 6285 N 576.459 -0.456382 1.50847 0
M  V30 6286 C 577.875 -0.791345 1.386 0
M  V30 6287 C 578.075 -1.9633 0.453498 0
M  V30 6288 O 577.131 -2.52308 -0.0984353 0
M  V30 6289 C 578.444 -1.08959 2.80265 0
M  V30 6290 C 579.992 -1.19517 2.89283 0
M  V30 6291 C 580.467 -1.52647 4.31814 0
M  V30 6292 N 581.958 -1.59609 4.34832 0
M  V30 6293 C 582.693 -1.86777 5.42127 0
M  V30 6294 N 582.189 -2.11866 6.59609 0
M  V30 6295 N 583.982 -1.88402 5.29586 0
M  V30 6296 H 576.133 0.315746 2.1004 0
M  V30 6297 H 578.396 0.0787916 0.94472 0
M  V30 6298 H 578.102 -0.301355 3.50407 0
M  V30 6299 H 577.976 -2.02211 3.18419 0
M  V30 6300 H 580.363 -1.97406 2.19351 0
M  V30 6301 H 580.444 -0.242111 2.54652 0
M  V30 6302 H 580.088 -0.752922 5.02288 0
M  V30 6303 H 580.018 -2.49127 4.63943 0
M  V30 6304 H 582.509 -1.42201 3.50125 0
M  V30 6305 H 582.822 -2.31912 7.37182 0
M  V30 6306 H 581.167 -2.09228 6.62758 0
M  V30 6307 H 584.358 -1.68307 4.36795 0
M  V30 6308 H 584.531 -2.09238 6.13289 0
M  V30 6309 N 577.937 -1.40673 -0.710563 0
M  V30 6310 C 578.9 -1.4108 -1.80635 0
M  V30 6311 C 579.9 -0.303783 -1.57904 0
M  V30 6312 O 581.09 -0.562937 -1.64853 0
M  V30 6313 C 578.222 -1.20748 -3.18799 0
M  V30 6314 H 579.415 -2.38612 -1.81671 0
M  V30 6315 H 576.968 -1.26595 -0.916704 0
M  V30 6316 H 577.703 -0.239964 -3.23411 0
M  V30 6317 H 577.488 -2.00941 -3.36698 0
M  V30 6318 H 578.978 -1.23833 -3.98817 0
M  V30 6319 N 579.415 0.9433 -1.26252 0
M  V30 6320 C 580.664 1.68369 -1.11062 0
M  V30 6321 C 580.977 1.92514 0.346104 0
M  V30 6322 O 582.183 2.64358 0.618646 0
M  V30 6323 C 580.639 3.03171 -1.93946 0
M  V30 6324 C 580.247 2.86782 -3.4418 0
M  V30 6325 C 581.991 3.80916 -1.87359 0
M  V30 6326 C 579.898 4.17044 -4.19319 0
M  V30 6327 H 578.828 0.631469 -0.412023 0
M  V30 6328 H 581.479 1.04922 -1.50544 0
M  V30 6329 H 579.861 3.67587 -1.47296 0
M  V30 6330 H 581.035 2.31229 -3.98585 0
M  V30 6331 H 579.35 2.22482 -3.51981 0
M  V30 6332 H 581.947 4.77417 -2.40784 0
M  V30 6333 H 582.29 4.07658 -0.843857 0
M  V30 6334 H 582.823 3.2327 -2.31821 0
M  V30 6335 H 579.562 3.95487 -5.22753 0
M  V30 6336 H 579.082 4.72319 -3.69696 0
M  V30 6337 H 580.761 4.85513 -4.27651 0
M  V30 6338 N 580.893 1.08022 1.14757 0
M  V30 6339 C 581.823 0.728248 2.21853 0
M  V30 6340 C 582.804 -0.287486 1.67653 0
M  V30 6341 O 583.989 -0.158727 1.9355 0
M  V30 6342 C 581.119 0.132549 3.47047 0
M  V30 6343 C 580.073 1.07619 4.14249 0
M  V30 6344 C 579.399 0.342907 5.33599 0
M  V30 6345 C 580.699 2.41268 4.63235 0
M  V30 6346 H 582.393 1.62365 2.51551 0
M  V30 6347 H 579.939 0.782125 1.20908 0
M  V30 6348 H 581.892 -0.125665 4.21213 0
M  V30 6349 H 580.616 -0.797971 3.16702 0
M  V30 6350 H 579.275 1.31944 3.42033 0
M  V30 6351 H 578.923 -0.59129 4.99513 0
M  V30 6352 H 578.623 0.971955 5.79506 0
M  V30 6353 H 580.147 0.0926538 6.1053 0
M  V30 6354 H 581.561 2.21232 5.28894 0
M  V30 6355 H 579.958 2.9983 5.19829 0
M  V30 6356 H 581.028 3.03079 3.78512 0
M  V30 6357 N 582.371 -1.3172 0.865308 0
M  V30 6358 C 583.303 -2.27545 0.274906 0
M  V30 6359 C 584.316 -1.52887 -0.559413 0
M  V30 6360 O 585.505 -1.74361 -0.382166 0
M  V30 6361 C 582.605 -3.33006 -0.629286 0
M  V30 6362 C 581.778 -4.37063 0.171553 0
M  V30 6363 C 580.837 -5.22044 -0.660052 0
M  V30 6364 O 579.863 -5.69129 -0.0897527 0
M  V30 6365 N 581.065 -5.45946 -1.97289 0
M  V30 6366 H 583.83 -2.78848 1.09836 0
M  V30 6367 H 581.391 -1.44693 0.726331 0
M  V30 6368 H 583.383 -3.86772 -1.19121 0
M  V30 6369 H 581.953 -2.81782 -1.35342 0
M  V30 6370 H 581.173 -3.83436 0.914919 0
M  V30 6371 H 582.461 -5.03662 0.721235 0
M  V30 6372 H 581.859 -5.0944 -2.45942 0
M  V30 6373 H 580.416 -6.02665 -2.4827 0
M  V30 6374 N 583.85 -0.624285 -1.44708 0
M  V30 6375 C 584.797 0.0847135 -2.30644 0
M  V30 6376 C 585.767 0.843575 -1.43084 0
M  V30 6377 O 586.952 0.825982 -1.71995 0
M  V30 6378 C 584.091 1.06495 -3.28257 0
M  V30 6379 C 583.205 0.305224 -4.3092 0
M  V30 6380 C 582.34 1.27667 -5.1563 0
M  V30 6381 C 581.379 0.505706 -6.10007 0
M  V30 6382 N 580.516 1.42727 -6.8744 0
M  V30 6383 H 585.356 -0.654068 -2.90733 0
M  V30 6384 H 582.893 -0.334334 -1.4325 0
M  V30 6385 H 584.851 1.64658 -3.83332 0
M  V30 6386 H 583.481 1.77094 -2.69884 0
M  V30 6387 H 582.533 -0.392207 -3.78373 0
M  V30 6388 H 583.845 -0.295553 -4.97924 0
M  V30 6389 H 582.999 1.92984 -5.75189 0
M  V30 6390 H 581.738 1.91137 -4.48685 0
M  V30 6391 H 580.743 -0.160999 -5.49564 0
M  V30 6392 H 581.968 -0.124183 -6.78986 0
M  V30 6393 H 579.913 2.04931 -6.23169 0
M  V30 6394 H 579.831 0.880345 -7.50857 0
M  V30 6395 H 581.099 2.0695 -7.51526 0
M  V30 6396 N 585.328 1.53329 -0.364422 0
M  V30 6397 C 586.576 2.00842 0.225189 0
M  V30 6398 C 586.897 1.25345 1.49378 0
M  V30 6399 O 586.167 0.366396 1.92443 0
M  V30 6400 H 584.747 0.742009 0.0862027 0
M  V30 6401 H 587.409 1.8863 -0.490389 0
M  V30 6402 H 586.505 3.08795 0.452987 0
M  V30 6403 N 586.806 0.0935595 1.57322 0
M  V30 6404 C 588.053 -0.570509 1.94297 0
M  V30 6405 C 588.381 -1.68286 0.97519 0
M  V30 6406 O 587.636 -1.95699 -0.00548655 0
M  V30 6407 C 587.935 -1.16692 3.37813 0
M  V30 6408 C 587.601 -0.178509 4.50547 0
M  V30 6409 C 586.263 0.0933475 4.81109 0
M  V30 6410 C 588.615 0.496472 5.1883 0
M  V30 6411 C 585.943 1.0469 5.77284 0
M  V30 6412 C 588.295 1.43849 6.16028 0
M  V30 6413 C 586.959 1.71859 6.44997 0
M  V30 6414 H 586.229 -0.208764 0.710984 0
M  V30 6415 H 588.876 0.169066 1.90752 0
M  V30 6416 H 587.181 -1.98271 3.37929 0
M  V30 6417 H 588.878 -1.6884 3.63722 0
M  V30 6418 H 585.468 -0.400584 4.26724 0
M  V30 6419 H 589.652 0.299584 4.95395 0
M  V30 6420 H 584.908 1.27094 5.98044 0
M  V30 6421 H 589.082 1.96734 6.68034 0
M  V30 6422 H 586.709 2.45906 7.19329 0
M  V30 6423 N 588.284 -1.56567 -0.180126 0
M  V30 6424 C 589.194 -1.98947 -1.24327 0
M  V30 6425 C 590.21 -0.899446 -1.4895 0
M  V30 6426 O 591.386 -1.20639 -1.61271 0
M  V30 6427 C 588.451 -2.33328 -2.56435 0
M  V30 6428 C 587.512 -3.56114 -2.39752 0
M  V30 6429 C 586.745 -3.88845 -3.65561 0
M  V30 6430 O 586.968 -3.22662 -4.70368 0
M  V30 6431 O 585.902 -4.82226 -3.60197 0
M  V30 6432 H 589.728 -2.89634 -0.913565 0
M  V30 6433 H 587.313 -1.44319 -0.386306 0
M  V30 6434 H 589.195 -2.5645 -3.34382 0
M  V30 6435 H 587.87 -1.45806 -2.89002 0
M  V30 6436 H 586.777 -3.38221 -1.59866 0
M  V30 6437 H 588.11 -4.4415 -2.12113 0
M  V30 6438 N 589.762 0.448376 -1.51087 0
M  V30 6439 C 590.99 1.22143 -1.66999 0
M  V30 6440 C 591.405 1.85283 -0.362699 0
M  V30 6441 O 590.762 1.70236 0.65772 0
M  V30 6442 C 590.813 2.31357 -2.7777 0
M  V30 6443 O 590.534 1.70801 -4.03434 0
M  V30 6444 C 592.035 3.21836 -3.04855 0
M  V30 6445 H 589.255 0.368558 -0.560719 0
M  V30 6446 H 591.799 0.532618 -1.97442 0
M  V30 6447 H 589.954 2.95973 -2.49958 0
M  V30 6448 H 590.368 2.42895 -4.64868 0
M  V30 6449 H 591.842 3.94627 -3.85971 0
M  V30 6450 H 592.319 3.81949 -2.16821 0
M  V30 6451 H 592.925 2.62933 -3.34285 0
M  V30 6452 N 591.24 1.41047 0.703093 0
M  V30 6453 C 592.651 1.35657 1.28274 0
M  V30 6454 C 593.002 0.0360309 1.96167 0
M  V30 6455 O 592.127 -0.865833 1.98324 0
M  V30 6456 C 592.722 2.45707 2.33267 0
M  V30 6457 C 591.281 2.43738 2.86825 0
M  V30 6458 C 590.428 2.25941 1.60767 0
M  V30 6459 H 593.379 1.50672 0.49836 0
M  V30 6460 H 593.4 2.14333 3.14391 0
M  V30 6461 H 592.912 3.41805 1.83824 0
M  V30 6462 H 591.013 1.51375 3.40465 0
M  V30 6463 H 591.126 3.39779 3.37768 0
M  V30 6464 H 589.49 1.73681 1.86298 0
M  V30 6465 H 590.273 3.24054 1.1333 0
M  V30 6466 N 592.718 -0.936591 1.26751 0
M  V30 6467 C 593.995 -1.66094 1.03306 0
M  V30 6468 C 594.375 -2.06568 -0.435058 0
M  V30 6469 O 593.723 -1.79305 -1.41641 0
M  V30 6470 C 593.933 -2.86969 1.98619 0
M  V30 6471 C 595.281 -3.58516 2.27489 0
M  V30 6472 O 596.305 -2.97082 1.96522 0
M  V30 6473 O 595.164 -4.69181 2.80235 0
M  V30 6474 H 592.258 -0.727568 0.393158 0
M  V30 6475 H 594.804 -0.987914 1.3798 0
M  V30 6476 H 593.576 -2.53985 2.9767 0
M  V30 6477 H 593.199 -3.61996 1.64454 0
M  V30 6478 N 594.196 -1.08629 -1.14182 0
M  V30 6479 C 595.473 -0.73002 -1.81466 0
M  V30 6480 C 595.853 0.785996 -1.95922 0
M  V30 6481 O 595.201 1.70535 -1.52086 0
M  V30 6482 C 595.411 -1.45957 -3.17014 0
M  V30 6483 C 596.759 -1.62008 -3.92477 0
M  V30 6484 O 597.783 -1.42141 -3.26611 0
M  V30 6485 O 596.642 -1.94806 -5.106 0
M  V30 6486 H 593.736 -0.261307 -0.784632 0
M  V30 6487 H 596.282 -1.188 -1.2118 0
M  V30 6488 H 595.054 -2.49221 -3.01669 0
M  V30 6489 H 594.677 -0.993222 -3.84995 0
M  V30 6490 N 595.674 1.31259 -0.872281 0
M  V30 6491 C 596.621 2.28459 -0.327857 0
M  V30 6492 C 597.591 1.55831 0.574957 0
M  V30 6493 O 598.776 1.83965 0.506101 0
M  V30 6494 C 595.916 3.41985 0.462644 0
M  V30 6495 C 595.029 4.29458 -0.467949 0
M  V30 6496 C 594.164 5.30131 0.336903 0
M  V30 6497 C 593.203 6.0925 -0.58997 0
M  V30 6498 N 592.34 7.01872 0.178775 0
M  V30 6499 H 597.18 2.74414 -1.16193 0
M  V30 6500 H 594.717 1.34994 -0.584376 0
M  V30 6501 H 596.675 4.06547 0.936759 0
M  V30 6502 H 595.305 2.97134 1.2614 0
M  V30 6503 H 594.357 3.65318 -1.06052 0
M  V30 6504 H 595.669 4.84677 -1.17856 0
M  V30 6505 H 594.823 6.0038 0.873427 0
M  V30 6506 H 593.562 4.75573 1.08079 0
M  V30 6507 H 592.567 5.37889 -1.13823 0
M  V30 6508 H 593.792 6.65894 -1.33275 0
M  V30 6509 H 591.738 6.49721 0.905435 0
M  V30 6510 H 591.655 7.54522 -0.472452 0
M  V30 6511 H 592.923 7.76382 0.696454 0
M  V30 6512 N 597.152 0.631951 1.44375 0
M  V30 6513 C 598.082 -0.0593243 2.33425 0
M  V30 6514 C 599.063 -0.833964 1.48253 0
M  V30 6515 O 600.248 -0.799682 1.76971 0
M  V30 6516 C 597.378 -1.04096 3.31333 0
M  V30 6517 C 596.332 -0.377899 4.26328 0
M  V30 6518 C 595.658 -1.4695 5.14111 0
M  V30 6519 C 596.958 0.716371 5.17364 0
M  V30 6520 H 598.652 0.684287 2.91475 0
M  V30 6521 H 596.198 0.330518 1.40156 0
M  V30 6522 H 598.151 -1.53331 3.92514 0
M  V30 6523 H 596.875 -1.81547 2.71493 0
M  V30 6524 H 595.534 0.0938054 3.6648 0
M  V30 6525 H 595.182 -2.2349 4.50623 0
M  V30 6526 H 594.882 -1.03121 5.78481 0
M  V30 6527 H 596.406 -1.96363 5.78164 0
M  V30 6528 H 597.82 0.307089 5.72477 0
M  V30 6529 H 596.217 1.07784 5.90341 0
M  V30 6530 H 597.287 1.58316 4.58327 0
M  V30 6531 N 598.631 -1.53133 0.372548 0
M  V30 6532 C 599.563 -2.23557 -0.505444 0
M  V30 6533 C 600.576 -1.25211 -1.04049 0
M  V30 6534 O 601.765 -1.51391 -0.945675 0
M  V30 6535 C 598.865 -2.92516 -1.71136 0
M  V30 6536 C 598.038 -4.17428 -1.30661 0
M  V30 6537 C 597.097 -4.69535 -2.37536 0
M  V30 6538 O 596.123 -5.33042 -1.99637 0
M  V30 6539 N 597.325 -4.47947 -3.6922 0
M  V30 6540 H 600.09 -2.9954 0.0978259 0
M  V30 6541 H 597.651 -1.60684 0.198068 0
M  V30 6542 H 599.643 -3.24281 -2.42124 0
M  V30 6543 H 598.213 -2.19944 -2.22134 0
M  V30 6544 H 597.433 -3.91888 -0.426292 0
M  V30 6545 H 598.721 -4.98622 -1.01259 0
M  V30 6546 H 598.119 -3.97219 -4.02783 0
M  V30 6547 H 596.676 -4.84245 -4.36292 0
M  V30 6548 N 600.109 -0.101901 -1.5727 0
M  V30 6549 C 601.019 0.868647 -2.17926 0
M  V30 6550 C 602.035 1.30527 -1.1506 0
M  V30 6551 O 603.211 1.37178 -1.47459 0
M  V30 6552 C 600.276 2.10727 -2.75309 0
M  V30 6553 C 599.337 1.7242 -3.93154 0
M  V30 6554 C 598.57 2.90377 -4.47791 0
M  V30 6555 O 598.793 4.05305 -4.01353 0
M  V30 6556 O 597.727 2.6845 -5.38719 0
M  V30 6557 H 601.553 0.382544 -3.01281 0
M  V30 6558 H 599.138 0.122812 -1.48894 0
M  V30 6559 H 601.02 2.83303 -3.11958 0
M  V30 6560 H 599.695 2.58376 -1.94996 0
M  V30 6561 H 598.602 0.970039 -3.61305 0
M  V30 6562 H 599.935 1.29528 -4.74851 0
M  V30 6563 N 601.587 1.56661 0.17182 0
M  V30 6564 C 602.833 1.82235 0.889845 0
M  V30 6565 C 603.166 0.679673 1.81918 0
M  V30 6566 O 602.441 -0.318404 1.91876 0
M  V30 6567 C 602.724 3.18195 1.68595 0
M  V30 6568 C 602.577 4.42989 0.779773 0
M  V30 6569 C 603.896 3.5109 2.65375 0
M  V30 6570 H 601.015 0.66291 0.322056 0
M  V30 6571 H 603.657 1.89358 0.15608 0
M  V30 6572 H 601.807 3.12253 2.3115 0
M  V30 6573 H 603.479 4.60997 0.16714 0
M  V30 6574 H 601.722 4.33711 0.0877964 0
M  V30 6575 H 602.393 5.3467 1.3723 0
M  V30 6576 H 604.869 3.57482 2.12946 0
M  V30 6577 H 603.745 4.47298 3.18144 0
M  V30 6578 H 604.006 2.75768 3.45549 0
M  V30 6579 N 603.065 -0.440357 1.51323 0
M  V30 6580 C 604.476 -1.02032 1.56353 0
M  V30 6581 C 604.827 -1.92382 0.385197 0
M  V30 6582 O 603.952 -2.10583 -0.498373 0
M  V30 6583 C 604.547 -1.85723 2.83359 0
M  V30 6584 C 603.106 -2.38774 2.90971 0
M  V30 6585 C 602.253 -1.17908 2.50984 0
M  V30 6586 H 605.204 -0.221744 1.57143 0
M  V30 6587 H 605.225 -2.71141 2.66951 0
M  V30 6588 H 604.737 -1.19939 3.69102 0
M  V30 6589 H 602.838 -3.08021 2.09651 0
M  V30 6590 H 602.951 -2.71778 3.94555 0
M  V30 6591 H 601.315 -1.52347 2.04114 0
M  V30 6592 H 602.098 -0.537393 3.39068 0
M  V30 6593 N 604.543 -1.41418 -0.695603 0
M  V30 6594 C 605.954 -1.36335 -1.27552 0
M  V30 6595 C 606.305 -0.0464336 -1.96145 0
M  V30 6596 O 605.43 0.855304 -1.9878 0
M  V30 6597 C 606.025 -2.46941 -2.3196 0
M  V30 6598 C 604.584 -2.45256 -2.85529 0
M  V30 6599 C 603.731 -2.2679 -1.59566 0
M  V30 6600 H 606.682 -1.50934 -0.490362 0
M  V30 6601 H 606.703 -2.15997 -3.1325 0
M  V30 6602 H 606.215 -3.42775 -1.82008 0
M  V30 6603 H 604.316 -1.53179 -3.39657 0
M  V30 6604 H 604.429 -3.41565 -3.35961 0
M  V30 6605 H 602.793 -1.74667 -1.85374 0
M  V30 6606 H 603.576 -3.24651 -1.1161 0
M  V30 6607 N 606.021 0.929856 -1.27246 0
M  V30 6608 C 607.251 1.70895 -1.16096 0
M  V30 6609 C 607.659 1.87039 0.285122 0
M  V30 6610 O 607.002 1.38557 1.20614 0
M  V30 6611 C 607.064 3.12919 -1.7698 0
M  V30 6612 C 606.728 3.2012 -3.26148 0
M  V30 6613 C 607.725 3.02533 -4.22812 0
M  V30 6614 C 605.41 3.43148 -3.66817 0
M  V30 6615 C 607.404 3.07861 -5.58122 0
M  V30 6616 C 605.091 3.48109 -5.02258 0
M  V30 6617 C 606.089 3.30483 -5.97721 0
M  V30 6618 O 605.777 3.35175 -7.30694 0
M  V30 6619 H 605.509 0.54152 -0.404639 0
M  V30 6620 H 608.063 1.17342 -1.68582 0
M  V30 6621 H 606.293 3.67945 -1.18969 0
M  V30 6622 H 607.982 3.72787 -1.60576 0
M  V30 6623 H 608.748 2.84586 -3.92728 0
M  V30 6624 H 604.627 3.55918 -2.9299 0
M  V30 6625 H 608.171 2.94021 -6.32612 0
M  V30 6626 H 604.068 3.65579 -5.31998 0
M  V30 6627 H 604.836 3.51644 -7.39114 0
M  V30 6628 N 607.499 1.09233 1.13605 0
M  V30 6629 C 608.724 0.849067 1.89224 0
M  V30 6630 C 609.149 -0.593875 1.78479 0
M  V30 6631 O 608.507 -1.41703 1.13092 0
M  V30 6632 C 608.555 1.28642 3.36873 0
M  V30 6633 O 607.659 0.44363 4.10007 0
M  V30 6634 H 607 0.30767 0.588417 0
M  V30 6635 H 609.53 1.45595 1.43748 0
M  V30 6636 H 609.54 1.27096 3.87699 0
M  V30 6637 H 608.215 2.33729 3.44011 0
M  V30 6638 H 606.792 0.523241 3.69211 0
M  V30 6639 N 608.977 -1.30795 0.87923 0
M  V30 6640 C 610.223 -1.97035 0.50487 0
M  V30 6641 C 610.578 -1.68182 -0.934484 0
M  V30 6642 O 609.871 -0.972953 -1.65058 0
M  V30 6643 C 610.065 -3.50287 0.709476 0
M  V30 6644 C 609.894 -3.94035 2.16717 0
M  V30 6645 C 608.664 -4.1992 2.81061 0
M  V30 6646 C 610.862 -4.07288 3.1404 0
M  V30 6647 N 608.844 -4.50088 4.17486 0
M  V30 6648 C 610.215 -4.41273 4.35521 0
M  V30 6649 C 612.27 -3.89696 3.09906 0
M  V30 6650 C 610.973 -4.59501 5.534 0
M  V30 6651 C 612.999 -4.09122 4.27052 0
M  V30 6652 C 612.361 -4.43447 5.47297 0
M  V30 6653 H 608.46 -0.746181 0.233962 0
M  V30 6654 H 611.044 -1.5814 1.13577 0
M  V30 6655 H 609.215 -3.8825 0.108108 0
M  V30 6656 H 610.947 -4.03567 0.302585 0
M  V30 6657 H 607.702 -4.12906 2.3196 0
M  V30 6658 H 608.126 -4.69316 4.87926 0
M  V30 6659 H 612.768 -3.62239 2.18043 0
M  V30 6660 H 610.486 -4.85802 6.45773 0
M  V30 6661 H 614.072 -3.96985 4.25316 0
M  V30 6662 H 612.952 -4.58171 6.36435 0
M  V30 6663 N 610.455 -0.639598 -1.44038 0
M  V30 6664 C 611.385 0.0469443 -2.33453 0
M  V30 6665 C 612.366 0.82609 -1.48694 0
M  V30 6666 O 613.551 0.790285 -1.77393 0
M  V30 6667 C 610.681 1.02338 -3.3188 0
M  V30 6668 C 609.635 0.355284 -4.26523 0
M  V30 6669 C 608.961 1.44221 -5.14883 0
M  V30 6670 C 610.261 -0.743798 -5.16977 0
M  V30 6671 H 611.955 -0.699735 -2.91108 0
M  V30 6672 H 609.501 -0.337946 -1.39978 0
M  V30 6673 H 611.454 1.51247 -3.93322 0
M  V30 6674 H 610.178 1.80105 -2.72451 0
M  V30 6675 H 608.837 -0.113239 -3.66425 0
M  V30 6676 H 608.485 2.21097 -4.51802 0
M  V30 6677 H 608.185 1.00052 -5.79019 0
M  V30 6678 H 609.709 1.93295 -5.79197 0
M  V30 6679 H 611.123 -0.337444 -5.72306 0
M  V30 6680 H 609.52 -1.10914 -5.89761 0
M  V30 6681 H 610.59 -1.60745 -4.57481 0
M  V30 6682 N 611.933 1.52934 -0.380664 0
M  V30 6683 C 613.181 2.01069 0.203874 0
M  V30 6684 C 613.502 1.26922 1.4804 0
M  V30 6685 O 612.772 0.386787 1.92044 0
M  V30 6686 H 611.352 0.742882 0.0783279 0
M  V30 6687 H 614.014 1.88099 -0.510368 0
M  V30 6688 H 613.11 3.09258 0.42021 0
M  V30 6689 N 613.412 0.11024 1.57214 0
M  V30 6690 C 614.642 -0.557025 1.98949 0
M  V30 6691 C 615.05 -1.61317 0.988606 0
M  V30 6692 O 614.393 -1.83679 -0.0279159 0
M  V30 6693 C 614.455 -1.24956 3.37085 0
M  V30 6694 C 614.119 -0.342398 4.55716 0
M  V30 6695 C 615.116 0.415511 5.18237 0
M  V30 6696 C 612.801 -0.256029 5.01647 0
M  V30 6697 C 614.795 1.24761 6.25071 0
M  V30 6698 C 612.482 0.579713 6.08344 0
M  V30 6699 C 613.48 1.33017 6.69922 0
M  V30 6700 O 613.168 2.15205 7.74559 0
M  V30 6701 H 612.9 -0.152792 0.658506 0
M  V30 6702 H 615.454 0.19076 2.04512 0
M  V30 6703 H 613.684 -2.04424 3.2825 0
M  V30 6704 H 615.373 -1.81286 3.63167 0
M  V30 6705 H 616.139 0.358605 4.83672 0
M  V30 6706 H 612.018 -0.829831 4.5347 0
M  V30 6707 H 615.562 1.83386 6.73064 0
M  V30 6708 H 611.459 0.638044 6.42339 0
M  V30 6709 H 612.227 2.08052 7.91617 0
M  V30 6710 N 614.89 -1.56749 -0.16351 0
M  V30 6711 C 615.822 -1.93587 -1.22705 0
M  V30 6712 C 616.835 -0.829824 -1.40063 0
M  V30 6713 O 618.024 -1.10826 -1.39928 0
M  V30 6714 C 615.124 -2.1803 -2.59454 0
M  V30 6715 C 614.297 -3.4928 -2.63292 0
M  V30 6716 C 613.356 -3.62457 -3.8146 0
M  V30 6717 O 612.382 -4.35004 -3.67096 0
M  V30 6718 N 613.584 -2.97888 -4.9824 0
M  V30 6719 H 616.349 -2.8542 -0.914081 0
M  V30 6720 H 613.91 -1.58 -0.353214 0
M  V30 6721 H 615.902 -2.24102 -3.36987 0
M  V30 6722 H 614.472 -1.32543 -2.8311 0
M  V30 6723 H 613.692 -3.54795 -1.71796 0
M  V30 6724 H 614.98 -4.35632 -2.62873 0
M  V30 6725 H 614.378 -2.38833 -5.12811 0
M  V30 6726 H 612.935 -3.09545 -5.73607 0
M  V30 6727 N 616.368 0.432326 -1.51554 0
M  V30 6728 C 617.298 1.53242 -1.76179 0
M  V30 6729 C 618.279 1.58717 -0.611801 0
M  V30 6730 O 619.464 1.74364 -0.855033 0
M  V30 6731 C 616.594 2.91278 -1.89141 0
M  V30 6732 C 615.548 3.00663 -3.04608 0
M  V30 6733 C 614.874 4.40728 -3.02759 0
M  V30 6734 C 616.174 2.74281 -4.44485 0
M  V30 6735 H 617.868 1.32886 -2.68294 0
M  V30 6736 H 615.414 0.637841 -1.29103 0
M  V30 6737 H 617.367 3.68203 -2.04951 0
M  V30 6738 H 616.091 3.12877 -0.936785 0
M  V30 6739 H 614.75 2.26179 -2.88511 0
M  V30 6740 H 614.398 4.59301 -2.05065 0
M  V30 6741 H 614.098 4.47936 -3.80299 0
M  V30 6742 H 615.622 5.19619 -3.20669 0
M  V30 6743 H 617.036 3.40936 -4.60907 0
M  V30 6744 H 615.433 2.92893 -5.23769 0
M  V30 6745 H 616.503 1.69856 -4.54177 0
M  V30 6746 N 617.846 1.41785 0.688094 0
M  V30 6747 C 619.086 1.43018 1.46032 0
M  V30 6748 C 619.45 0.0402632 1.91958 0
M  V30 6749 O 620.651 -0.0726425 2.68702 0
M  V30 6750 C 618.922 2.4151 2.63453 0
M  V30 6751 S 620.481 2.61335 3.5249 0
M  V30 6752 H 617.299 0.506546 0.498931 0
M  V30 6753 H 619.901 1.78283 0.80221 0
M  V30 6754 H 618.605 3.41286 2.27929 0
M  V30 6755 H 618.136 2.07624 3.34149 0
M  V30 6756 H 620.151 1.88637 4.58945 0
M  V30 6757 N 619.324 -0.923095 1.27737 0
M  V30 6758 C 620.735 -1.48626 1.12993 0
M  V30 6759 C 621.086 -1.94142 -0.283439 0
M  V30 6760 O 620.211 -1.81605 -1.17681 0
M  V30 6761 C 620.806 -2.70117 2.04505 0
M  V30 6762 C 619.365 -3.22642 1.93853 0
M  V30 6763 C 618.512 -1.95368 1.96791 0
M  V30 6764 H 621.463 -0.736737 1.40563 0
M  V30 6765 H 621.484 -3.4506 1.60356 0
M  V30 6766 H 620.996 -2.36959 3.07363 0
M  V30 6767 H 619.097 -3.60549 0.939968 0
M  V30 6768 H 619.21 -3.88525 2.80331 0
M  V30 6769 H 617.574 -2.12061 1.41076 0
M  V30 6770 H 618.357 -1.64517 3.01312 0
M  V30 6771 N 620.802 -1.09834 -1.13024 0
M  V30 6772 C 621.712 -0.753731 -2.22162 0
M  V30 6773 C 622.728 0.246105 -1.72251 0
M  V30 6774 O 623.904 0.0864051 -2.01215 0
M  V30 6775 C 620.969 -0.183958 -3.46212 0
M  V30 6776 C 620.03 -1.24028 -4.10993 0
M  V30 6777 C 619.263 -0.697597 -5.29121 0
M  V30 6778 O 619.486 0.478092 -5.68393 0
M  V30 6779 O 618.42 -1.4546 -5.84059 0
M  V30 6780 H 622.246 -1.66456 -2.5402 0
M  V30 6781 H 619.831 -0.873026 -1.21238 0
M  V30 6782 H 621.713 0.130257 -4.21199 0
M  V30 6783 H 620.388 0.699823 -3.16045 0
M  V30 6784 H 619.295 -1.60725 -3.37814 0
M  V30 6785 H 620.628 -2.09685 -4.45301 0
M  V30 6786 N 622.28 1.30327 -0.886154 0
M  V30 6787 C 623.228 2.30052 -0.343317 0
M  V30 6788 C 624.222 1.60212 0.550305 0
M  V30 6789 O 625.428 1.74674 0.434609 0
M  V30 6790 H 621.803 0.746306 -0.0923681 0
M  V30 6791 H 623.774 2.73294 -1.19804 0
M  V30 6792 C 622.523 3.45079 0.426107 0
M  V30 6793 H 621.846 3.99003 -0.25227 0
M  V30 6794 H 623.286 4.16931 0.771009 0
M  V30 6795 C 621.745 2.95195 1.62363 0
M  V30 6796 O 622.275 2.95323 2.723 0
M  V30 6797 N 620.481 2.51192 1.4612 0
M  V30 6798 H 620.028 2.51286 0.566832 0
M  V30 6799 H 619.986 2.18173 2.2638 0
M  V30 6800 N 623.758 0.647228 1.43697 0
M  V30 6801 C 625.004 0.167001 2.02713 0
M  V30 6802 C 625.359 -1.20351 1.50111 0
M  V30 6803 O 624.652 -1.79047 0.682113 0
M  V30 6804 C 624.846 0.111481 3.57226 0
M  V30 6805 C 624.675 1.47507 4.2482 0
M  V30 6806 C 623.445 2.06594 4.61137 0
M  V30 6807 C 625.643 2.41224 4.54219 0
M  V30 6808 N 623.625 3.3602 5.13774 0
M  V30 6809 C 624.996 3.55278 5.08112 0
M  V30 6810 C 627.051 2.40102 4.36183 0
M  V30 6811 C 625.754 4.68426 5.45866 0
M  V30 6812 C 627.78 3.52326 4.74995 0
M  V30 6813 C 627.142 4.65104 5.29015 0
M  V30 6814 H 623.241 0.105402 0.774864 0
M  V30 6815 H 625.825 0.854229 1.7496 0
M  V30 6816 H 623.996 -0.545073 3.84556 0
M  V30 6817 H 625.728 -0.379063 4.02921 0
M  V30 6818 H 622.483 1.59366 4.45981 0
M  V30 6819 H 622.907 4.02233 5.44552 0
M  V30 6820 H 627.549 1.54151 3.93697 0
M  V30 6821 H 625.267 5.55074 5.87298 0
M  V30 6822 H 628.853 3.52652 4.6274 0
M  V30 6823 H 627.733 5.50506 5.58492 0
M  V30 6824 N 625.236 -1.5273 0.388769 0
M  V30 6825 C 626.183 -2.26437 -0.446639 0
M  V30 6826 C 627.153 -1.28025 -1.05824 0
M  V30 6827 O 628.338 -1.56852 -1.08637 0
M  V30 6828 C 625.478 -3.07407 -1.56828 0
M  V30 6829 C 624.591 -4.20747 -0.979589 0
M  V30 6830 C 623.726 -4.89113 -2.07224 0
M  V30 6831 C 622.765 -5.94447 -1.45942 0
M  V30 6832 N 621.902 -6.56411 -2.49135 0
M  V30 6833 H 626.742 -2.97404 0.18837 0
M  V30 6834 H 624.279 -1.46727 0.104725 0
M  V30 6835 H 626.237 -3.52642 -2.22934 0
M  V30 6836 H 624.867 -2.3865 -2.17361 0
M  V30 6837 H 623.919 -3.7983 -0.208151 0
M  V30 6838 H 625.231 -4.9637 -0.491747 0
M  V30 6839 H 624.385 -5.3765 -2.81101 0
M  V30 6840 H 623.124 -4.13013 -2.59368 0
M  V30 6841 H 622.129 -5.4525 -0.705894 0
M  V30 6842 H 623.354 -6.7248 -0.945932 0
M  V30 6843 H 621.3 -5.83152 -3.00449 0
M  V30 6844 H 621.217 -7.27645 -2.05105 0
M  V30 6845 H 622.485 -7.09592 -3.22644 0
M  V30 6846 N 626.714 -0.118576 -1.57153 0
M  V30 6847 C 627.96 0.540326 -1.95469 0
M  V30 6848 C 628.293 1.66356 -1.00196 0
M  V30 6849 O 627.568 1.94461 -0.039104 0
M  V30 6850 C 627.851 1.07342 -3.43729 0
M  V30 6851 C 627.704 -0.0463732 -4.49776 0
M  V30 6852 C 629.023 1.96442 -3.93826 0
M  V30 6853 H 626.142 0.19494 -0.710751 0
M  V30 6854 H 628.784 -0.19405 -1.89006 0
M  V30 6855 H 626.934 1.69925 -3.49368 0
M  V30 6856 H 628.606 -0.681648 -4.56236 0
M  V30 6857 H 626.849 -0.709574 -4.27957 0
M  V30 6858 H 627.52 0.367856 -5.50773 0
M  V30 6859 H 629.996 1.43731 -3.90488 0
M  V30 6860 H 628.872 2.3066 -4.98084 0
M  V30 6861 H 629.133 2.89077 -3.34495 0
M  V30 6862 N 628.193 1.56834 0.155195 0
M  V30 6863 C 629.125 1.94235 1.21677 0
M  V30 6864 C 630.138 0.83724 1.39621 0
M  V30 6865 O 631.327 1.11567 1.39338 0
M  V30 6866 C 628.427 2.19402 2.58294 0
M  V30 6867 C 627.6 3.50671 2.61436 0
M  V30 6868 C 626.659 3.64475 3.79532 0
M  V30 6869 O 625.685 4.36945 3.64784 0
M  V30 6870 N 626.887 3.00526 4.96653 0
M  V30 6871 H 629.652 2.85901 0.898932 0
M  V30 6872 H 627.213 1.58185 0.34483 0
M  V30 6873 H 629.205 2.25886 3.35794 0
M  V30 6874 H 627.775 1.34042 2.82403 0
M  V30 6875 H 626.995 3.55702 1.69912 0
M  V30 6876 H 628.283 4.3702 2.60559 0
M  V30 6877 H 627.681 2.41549 5.11538 0
M  V30 6878 H 626.238 3.12583 5.71958 0
M  V30 6879 N 629.671 -0.424282 1.51781 0
M  V30 6880 C 630.618 -1.51591 1.74037 0
M  V30 6881 C 631.588 -1.55556 0.582358 0
M  V30 6882 O 632.773 -1.72364 0.818245 0
M  V30 6883 C 629.913 -2.89188 1.8832 0
M  V30 6884 C 629.026 -2.9465 3.1592 0
M  V30 6885 C 628.161 -4.23452 3.20721 0
M  V30 6886 C 627.2 -4.22831 4.42584 0
M  V30 6887 N 626.337 -5.43178 4.44862 0
M  V30 6888 H 631.177 -1.31917 2.67212 0
M  V30 6889 H 628.714 -0.640599 1.32419 0
M  V30 6890 H 630.672 -3.69044 1.94583 0
M  V30 6891 H 629.302 -3.07392 0.985402 0
M  V30 6892 H 628.354 -2.07378 3.18902 0
M  V30 6893 H 629.666 -2.90055 4.05795 0
M  V30 6894 H 628.82 -5.1169 3.25973 0
M  V30 6895 H 627.559 -4.30722 2.28757 0
M  V30 6896 H 626.564 -3.32984 4.37495 0
M  V30 6897 H 627.789 -4.17213 5.35826 0
M  V30 6898 H 625.735 -5.51145 3.55775 0
M  V30 6899 H 625.652 -5.40515 5.28563 0
M  V30 6900 H 626.92 -6.33412 4.54324 0
M  V30 6901 N 631.149 -1.42148 -0.680565 0
M  V30 6902 C 632.082 -1.39602 -1.80517 0
M  V30 6903 C 633.06 -0.261098 -1.6049 0
M  V30 6904 O 634.244 -0.450404 -1.8304 0
M  V30 6905 C 631.371 -1.18134 -3.1743 0
M  V30 6906 C 630.417 -2.34543 -3.56219 0
M  V30 6907 S 631.25 -3.97063 -3.59306 0
M  V30 6908 C 632.406 -3.77926 -4.98921 0
M  V30 6909 H 632.639 -2.3477 -1.82402 0
M  V30 6910 H 630.172 -1.28851 -0.850691 0
M  V30 6911 H 632.13 -1.06434 -3.96462 0
M  V30 6912 H 630.791 -0.245611 -3.13138 0
M  V30 6913 H 629.984 -2.15255 -4.55721 0
M  V30 6914 H 629.586 -2.42728 -2.84533 0
M  V30 6915 H 631.878 -3.3856 -5.86842 0
M  V30 6916 H 632.821 -4.77084 -5.23256 0
M  V30 6917 H 633.229 -3.10904 -4.71167 0
M  V30 6918 N 632.627 0.916307 -1.28225 0
M  V30 6919 C 633.559 2.02303 -1.07732 0
M  V30 6920 C 634.572 1.62773 -0.0298421 0
M  V30 6921 O 635.761 1.76406 -0.272626 0
M  V30 6922 C 632.861 3.33282 -0.614504 0
M  V30 6923 C 632.034 4.01439 -1.73682 0
M  V30 6924 C 631.093 5.10698 -1.26781 0
M  V30 6925 O 630.119 5.34038 -1.96958 0
M  V30 6926 N 631.321 5.80355 -0.129624 0
M  V30 6927 H 634.086 2.20442 -2.03041 0
M  V30 6928 H 631.647 1.08744 -1.19943 0
M  V30 6929 H 633.639 4.03699 -0.284397 0
M  V30 6930 H 632.209 3.11633 0.245664 0
M  V30 6931 H 631.429 3.24604 -2.23665 0
M  V30 6932 H 632.717 4.43721 -2.48976 0
M  V30 6933 H 632.115 5.6386 0.455847 0
M  V30 6934 H 630.672 6.51647 0.141224 0
M  V30 6935 N 634.105 1.10431 1.1244 0
M  V30 6936 C 635.035 0.775143 2.20258 0
M  V30 6937 C 636.016 -0.25186 1.68225 0
M  V30 6938 O 637.201 -0.117637 1.93843 0
M  V30 6939 C 634.331 0.206133 3.46688 0
M  V30 6940 C 633.285 1.16382 4.11873 0
M  V30 6941 C 632.611 0.456014 5.32752 0
M  V30 6942 C 633.911 2.5104 4.58013 0
M  V30 6943 H 635.605 1.67665 2.4805 0
M  V30 6944 H 633.151 0.807595 1.19222 0
M  V30 6945 H 635.104 -0.036291 4.21384 0
M  V30 6946 H 633.828 -0.730614 3.18323 0
M  V30 6947 H 632.487 1.39169 3.39157 0
M  V30 6948 H 632.135 -0.485203 5.00654 0
M  V30 6949 H 631.835 1.09466 5.77314 0
M  V30 6950 H 633.359 0.222135 6.10196 0
M  V30 6951 H 634.773 2.32401 5.24083 0
M  V30 6952 H 633.17 3.10789 5.13352 0
M  V30 6953 H 634.24 3.11039 3.71998 0
M  V30 6954 N 635.583 -1.29855 0.893053 0
M  V30 6955 C 636.86 -1.90694 0.435336 0
M  V30 6956 C 637.24 -1.8111 -1.08454 0
M  V30 6957 O 636.588 -1.23352 -1.92345 0
M  V30 6958 C 636.798 -3.36033 0.942472 0
M  V30 6959 C 638.146 -4.13083 0.982226 0
M  V30 6960 O 639.17 -3.4491 0.889686 0
M  V30 6961 O 638.029 -5.34896 1.12022 0
M  V30 6962 H 635.123 -0.815978 0.134567 0
M  V30 6963 H 637.669 -1.38367 0.982484 0
M  V30 6964 H 636.441 -3.37132 1.9864 0
M  V30 6965 H 636.064 -3.95828 0.374952 0
M  V30 6966 N 637.061 -0.65484 -1.43351 0
M  V30 6967 C 637.994 0.0855537 -2.2804 0
M  V30 6968 C 638.972 0.828301 -1.39921 0
M  V30 6969 O 640.156 0.827539 -1.69364 0
M  V30 6970 C 637.283 1.12792 -3.19368 0
M  V30 6971 C 636.329 0.483037 -4.23756 0
M  V30 6972 S 637.162 -0.744605 -5.30298 0
M  V30 6973 C 638.318 0.297187 -6.25194 0
M  V30 6974 H 638.551 -0.632831 -2.90487 0
M  V30 6975 H 636.084 -0.44373 -1.47886 0
M  V30 6976 H 638.042 1.7243 -3.72529 0
M  V30 6977 H 636.703 1.81863 -2.56095 0
M  V30 6978 H 635.896 1.26888 -4.87766 0
M  V30 6979 H 635.498 -0.0392713 -3.73979 0
M  V30 6980 H 637.79 1.1629 -6.67445 0
M  V30 6981 H 638.733 -0.30793 -7.0743 0
M  V30 6982 H 639.141 0.633721 -5.60932 0
M  V30 6983 N 638.539 1.52521 -0.396863 0
M  V30 6984 C 639.785 2.01971 0.183169 0
M  V30 6985 C 640.118 1.2825 1.45827 0
M  V30 6986 O 639.393 0.385179 1.90648 0
M  V30 6987 C 639.676 3.5736 0.443391 0
M  V30 6988 C 639.529 4.41743 -0.84753 0
M  V30 6989 C 640.848 4.22539 1.2308 0
M  V30 6990 H 637.967 0.734119 0.0650976 0
M  V30 6991 H 640.609 1.82519 -0.527918 0
M  V30 6992 H 638.759 3.74066 1.04914 0
M  V30 6993 H 640.431 4.36773 -1.48414 0
M  V30 6994 H 638.674 4.0845 -1.4612 0
M  V30 6995 H 639.345 5.48507 -0.620003 0
M  V30 6996 H 641.821 4.09857 0.718084 0
M  V30 6997 H 640.697 5.31227 1.38162 0
M  V30 6998 H 640.958 3.80675 2.24808 0
M  V30 6999 N 640.017 0.126909 1.57088 0
M  V30 7000 C 640.964 -0.82036 2.15728 0
M  V30 7001 C 641.934 -1.25811 1.08447 0
M  V30 7002 O 643.119 -1.33422 1.36393 0
M  V30 7003 C 640.259 -2.06199 2.76724 0
M  V30 7004 C 639.372 -1.67188 3.98337 0
M  V30 7005 C 638.507 -2.86378 4.47393 0
M  V30 7006 C 637.546 -2.43644 5.61519 0
M  V30 7007 N 636.683 -3.55775 6.05284 0
M  V30 7008 H 641.523 -0.313472 2.96347 0
M  V30 7009 H 639.06 -0.14303 1.46403 0
M  V30 7010 H 641.018 -2.78959 3.10222 0
M  V30 7011 H 639.648 -2.54333 1.98782 0
M  V30 7012 H 638.7 -0.842714 3.70948 0
M  V30 7013 H 640.012 -1.31789 4.81075 0
M  V30 7014 H 639.166 -3.67353 4.82842 0
M  V30 7015 H 637.905 -3.25009 3.63621 0
M  V30 7016 H 636.91 -1.61104 5.25667 0
M  V30 7017 H 638.135 -2.06122 6.47063 0
M  V30 7018 H 636.081 -3.94065 5.24451 0
M  V30 7019 H 635.998 -3.24325 6.82898 0
M  V30 7020 H 637.266 -4.37166 6.45373 0
M  V30 7021 N 641.495 -1.56914 -0.146875 0
M  V30 7022 C 642.443 -1.99224 -1.20053 0
M  V30 7023 C 643.437 -0.884661 -1.44465 0
M  V30 7024 O 644.643 -1.06984 -1.44756 0
M  V30 7025 H 641.018 -0.634191 -0.404112 0
M  V30 7026 H 642.989 -2.86998 -0.816987 0
M  V30 7027 C 641.738 -2.38899 -2.52632 0
M  V30 7028 H 641.061 -3.23677 -2.34677 0
M  V30 7029 H 642.501 -2.72326 -3.24984 0
M  V30 7030 C 640.96 -1.2417 -3.13183 0
M  V30 7031 O 641.49 -0.542503 -3.9802 0
M  V30 7032 N 639.696 -1.00592 -2.72635 0
M  V30 7033 H 639.243 -1.57627 -2.03744 0
M  V30 7034 H 639.201 -0.240174 -3.13481 0
M  V30 7035 N 642.974 0.416227 -1.52004 0
M  V30 7036 C 644.385 0.995319 -1.57957 0
M  V30 7037 C 644.736 1.91744 -0.415754 0
M  V30 7038 O 643.861 2.11349 0.464808 0
M  V30 7039 C 644.456 1.81191 -2.86278 0
M  V30 7040 C 643.015 2.34115 -2.94732 0
M  V30 7041 C 642.162 1.139 -2.52828 0
M  V30 7042 H 645.113 0.196716 -1.57476 0
M  V30 7043 H 645.134 2.66859 -2.71231 0
M  V30 7044 H 644.646 1.14051 -3.70963 0
M  V30 7045 H 642.747 3.04647 -2.14525 0
M  V30 7046 H 642.86 2.65466 -3.98829 0
M  V30 7047 H 641.224 1.49081 -2.06511 0
M  V30 7048 H 642.007 0.483383 -3.3988 0
M  V30 7049 N 644.452 1.42507 0.673017 0
M  V30 7050 C 645.68 1.46473 1.46128 0
M  V30 7051 C 646.095 0.0765912 1.88645 0
M  V30 7052 O 645.452 -0.909057 1.58248 0
M  V30 7053 C 645.503 2.39339 2.70923 0
M  V30 7054 O 645.224 3.72752 2.3019 0
M  V30 7055 C 646.725 2.52343 3.64469 0
M  V30 7056 H 643.945 0.49812 0.449575 0
M  V30 7057 H 646.489 1.87041 0.826802 0
M  V30 7058 H 644.644 2.02019 3.30556 0
M  V30 7059 H 645.058 4.22503 3.10791 0
M  V30 7060 H 646.532 3.2144 4.48754 0
M  V30 7061 H 647.009 1.56189 4.1049 0
M  V30 7062 H 647.615 2.90392 3.10729 0
M  V30 7063 N 645.93 -0.909495 1.28709 0
M  V30 7064 C 646.86 -2.0291 1.15542 0
M  V30 7065 C 647.841 -1.7002 0.0521017 0
M  V30 7066 O 649.026 -1.92835 0.229849 0
M  V30 7067 C 646.156 -3.37458 0.820935 0
M  V30 7068 C 645.11 -3.84524 1.87949 0
M  V30 7069 C 644.436 -5.16086 1.39854 0
M  V30 7070 C 645.736 -4.05918 3.28676 0
M  V30 7071 H 647.43 -2.14183 2.09203 0
M  V30 7072 H 644.976 -1.02913 1.00722 0
M  V30 7073 H 646.929 -4.1528 0.715571 0
M  V30 7074 H 645.653 -3.26249 -0.151374 0
M  V30 7075 H 644.312 -3.08911 1.97408 0
M  V30 7076 H 643.96 -5.01284 0.41518 0
M  V30 7077 H 643.66 -5.48547 2.1064 0
M  V30 7078 H 645.184 -5.96459 1.30649 0
M  V30 7079 H 646.598 -4.74252 3.22115 0
M  V30 7080 H 644.995 -4.49717 3.97334 0
M  V30 7081 H 646.065 -3.10583 3.72379 0
M  V30 7082 N 647.408 -1.11026 -1.11852 0
M  V30 7083 C 648.356 -0.759643 -2.19846 0
M  V30 7084 C 649.35 0.246964 -1.6759 0
M  V30 7085 O 650.556 0.106693 -1.79684 0
M  V30 7086 H 646.931 -0.22775 -0.716683 0
M  V30 7087 H 648.902 -1.6792 -2.46669 0
M  V30 7088 C 647.651 -0.214364 -3.47039 0
M  V30 7089 H 646.974 -0.980175 -3.87599 0
M  V30 7090 H 648.414 -0.00717047 -4.23999 0
M  V30 7091 C 646.873 1.05436 -3.19976 0
M  V30 7092 O 647.403 2.13483 -3.40276 0
M  V30 7093 N 645.609 0.975436 -2.7374 0
M  V30 7094 H 645.156 0.0960853 -2.57421 0
M  V30 7095 H 645.114 1.82501 -2.5601 0
M  V30 7096 N 648.886 1.2938 -0.899927 0
M  V30 7097 C 650.163 1.9046 -0.445443 0
M  V30 7098 C 650.543 1.81683 1.07492 0
M  V30 7099 O 649.891 1.24371 1.91688 0
M  V30 7100 C 650.101 3.35529 -0.960279 0
M  V30 7101 C 651.449 4.12556 -1.00412 0
M  V30 7102 O 652.473 3.44434 -0.907965 0
M  V30 7103 O 651.332 5.34294 -1.14857 0
M  V30 7104 H 648.426 0.815253 -0.138893 0
M  V30 7105 H 650.972 1.37844 -0.989808 0
M  V30 7106 H 649.744 3.36074 -2.00425 0
M  V30 7107 H 649.367 3.95624 -0.395939 0
M  V30 7108 N 650.364 0.662433 1.43002 0
M  V30 7109 C 651.61 0.179857 2.02001 0
M  V30 7110 C 651.943 -1.20625 1.52195 0
M  V30 7111 O 651.218 -1.80726 0.718911 0
M  V30 7112 C 651.501 0.200845 3.59539 0
M  V30 7113 C 651.354 1.62153 4.19555 0
M  V30 7114 C 652.673 -0.457738 4.37713 0
M  V30 7115 H 649.792 0.0668305 0.733964 0
M  V30 7116 H 652.434 0.84487 1.70182 0
M  V30 7117 H 650.584 -0.365411 3.86778 0
M  V30 7118 H 652.256 2.23908 4.03315 0
M  V30 7119 H 650.499 2.16601 3.75854 0
M  V30 7120 H 651.17 1.58799 5.28665 0
M  V30 7121 H 653.646 0.0241495 4.16093 0
M  V30 7122 H 652.522 -0.412363 5.47349 0
M  V30 7123 H 652.783 -1.53336 4.14657 0
M  V30 7124 N 651.842 -1.52309 0.404946 0
M  V30 7125 C 652.774 -2.24579 -0.45791 0
M  V30 7126 C 653.787 -1.2739 -1.01369 0
M  V30 7127 O 654.976 -1.53363 -0.91335 0
M  V30 7128 C 652.076 -2.9608 -1.64893 0
M  V30 7129 C 651.249 -4.20106 -1.21777 0
M  V30 7130 C 650.308 -4.74468 -2.27523 0
M  V30 7131 O 649.334 -5.37157 -1.88285 0
M  V30 7132 N 650.536 -4.55678 -3.59635 0
M  V30 7133 H 653.301 -2.99265 0.161341 0
M  V30 7134 H 650.862 -1.60228 0.232107 0
M  V30 7135 H 652.854 -3.29344 -2.35191 0
M  V30 7136 H 651.424 -2.24606 -2.17419 0
M  V30 7137 H 650.644 -3.92704 -0.343071 0
M  V30 7138 H 651.932 -5.00658 -0.906596 0
M  V30 7139 H 651.33 -4.05673 -3.94266 0
M  V30 7140 H 649.887 -4.9339 -4.25922 0
M  V30 7141 N 653.32 -0.135238 -1.57019 0
M  V30 7142 C 654.267 0.808908 -2.1616 0
M  V30 7143 C 655.237 1.25234 -1.09113 0
M  V30 7144 O 656.422 1.32697 -1.37099 0
M  V30 7145 C 653.562 2.04729 -2.77813 0
M  V30 7146 C 652.675 1.65074 -3.99218 0
M  V30 7147 C 651.81 2.84002 -4.48906 0
M  V30 7148 C 650.849 2.40663 -5.62803 0
M  V30 7149 N 649.986 3.5256 -6.07162 0
M  V30 7150 H 654.826 0.297751 -2.96509 0
M  V30 7151 H 652.363 0.135264 -1.46477 0
M  V30 7152 H 654.321 2.7731 -3.11697 0
M  V30 7153 H 652.951 2.53275 -2.00128 0
M  V30 7154 H 652.003 0.823029 -3.7139 0
M  V30 7155 H 653.315 1.29236 -4.81767 0
M  V30 7156 H 652.469 3.64788 -4.84783 0
M  V30 7157 H 651.208 3.23076 -3.65339 0
M  V30 7158 H 650.213 1.58314 -5.26514 0
M  V30 7159 H 651.438 2.02687 -6.48147 0
M  V30 7160 H 649.384 3.91278 -5.26534 0
M  V30 7161 H 649.301 3.20699 -6.84608 0
M  V30 7162 H 650.569 4.33738 -6.47682 0
M  V30 7163 N 654.798 1.5699 0.138552 0
M  V30 7164 C 655.728 2.01933 1.17241 0
M  V30 7165 C 656.709 0.90033 1.44319 0
M  V30 7166 O 657.894 1.16872 1.55095 0
M  V30 7167 C 655.024 2.40711 2.50351 0
M  V30 7168 C 653.978 3.55874 2.37776 0
M  V30 7169 C 653.304 3.80491 3.75674 0
M  V30 7170 C 654.604 4.8826 1.85472 0
M  V30 7171 H 656.298 2.88551 0.798672 0
M  V30 7172 H 653.844 1.3882 0.382743 0
M  V30 7173 H 655.797 2.70754 3.22909 0
M  V30 7174 H 654.521 1.5104 2.89576 0
M  V30 7175 H 653.18 3.2601 1.67669 0
M  V30 7176 H 652.828 2.88057 4.12349 0
M  V30 7177 H 652.528 4.57998 3.68119 0
M  V30 7178 H 654.052 4.12967 4.49767 0
M  V30 7179 H 655.466 5.16965 2.4783 0
M  V30 7180 H 653.863 5.69631 1.88787 0
M  V30 7181 H 654.933 4.78071 0.810935 0
M  V30 7182 N 656.276 -0.40816 1.52223 0
M  V30 7183 C 657.209 -1.51834 1.70357 0
M  V30 7184 C 658.187 -1.52973 0.551171 0
M  V30 7185 O 659.371 -1.71667 0.778642 0
M  V30 7186 C 656.498 -2.90362 1.74378 0
M  V30 7187 C 655.544 -3.0713 2.95928 0
M  V30 7188 S 656.377 -2.80342 4.56255 0
M  V30 7189 C 657.533 -4.21098 4.63063 0
M  V30 7190 H 657.766 -1.36223 2.64255 0
M  V30 7191 H 655.299 -0.599798 1.42274 0
M  V30 7192 H 657.257 -3.70199 1.77379 0
M  V30 7193 H 655.918 -3.03314 0.816063 0
M  V30 7194 H 655.111 -4.08482 2.95226 0
M  V30 7195 H 654.713 -2.3516 2.90819 0
M  V30 7196 H 657.005 -5.14749 4.40499 0
M  V30 7197 H 657.948 -4.26823 5.65002 0
M  V30 7198 H 658.356 -4.06114 3.92086 0
M  V30 7199 N 657.755 -1.42862 -0.66545 0
M  V30 7200 C 659.003 -1.43546 -1.42264 0
M  V30 7201 C 659.324 -0.0563116 -1.94919 0
M  V30 7202 O 658.594 0.906568 -1.73661 0
M  V30 7203 H 657.174 -0.528464 -0.527953 0
M  V30 7204 H 659.836 -1.78363 -0.785665 0
M  V30 7205 H 658.932 -2.14079 -2.27105 0
M  V30 7206 N 659.233 0.902656 -1.29189 0
M  V30 7207 C 660.181 2.0278 -1.13943 0
M  V30 7208 C 661.175 1.69308 -0.055787 0
M  V30 7209 O 662.381 1.78707 -0.215371 0
M  V30 7210 H 658.756 0.664595 -0.351877 0
M  V30 7211 H 660.727 2.12778 -2.09208 0
M  V30 7212 C 659.476 3.37657 -0.82966 0
M  V30 7213 H 658.799 3.63913 -1.65551 0
M  V30 7214 H 660.239 4.17078 -0.762998 0
M  V30 7215 C 658.698 3.33648 0.466991 0
M  V30 7216 O 659.228 3.72886 1.49395 0
M  V30 7217 N 657.434 2.86745 0.471761 0
M  V30 7218 H 656.981 2.55009 -0.364406 0
M  V30 7219 H 656.939 2.84446 1.33933 0
M  V30 7220 N 660.711 1.11618 1.11262 0
M  V30 7221 C 661.96 0.860934 1.82403 0
M  V30 7222 C 662.273 -0.615303 1.8567 0
M  V30 7223 O 663.479 -0.986861 2.52929 0
M  V30 7224 C 661.935 1.49048 3.27586 0
M  V30 7225 C 661.543 3.00089 3.32642 0
M  V30 7226 C 663.287 1.31515 4.03614 0
M  V30 7227 C 661.194 3.56019 4.72234 0
M  V30 7228 H 660.124 0.318423 0.683464 0
M  V30 7229 H 662.775 1.34165 1.25188 0
M  V30 7230 H 661.157 0.937434 3.84744 0
M  V30 7231 H 662.331 3.61813 2.85356 0
M  V30 7232 H 660.646 3.16919 2.70096 0
M  V30 7233 H 663.243 1.70732 5.0671 0
M  V30 7234 H 663.586 0.257917 4.155 0
M  V30 7235 H 664.119 1.83694 3.52848 0
M  V30 7236 H 660.858 4.61463 4.65545 0
M  V30 7237 H 660.378 2.99066 5.19923 0
M  V30 7238 H 662.057 3.54568 5.41193 0
M  V30 7239 N 662.189 -1.289 0.906776 0
M  V30 7240 C 663.417 -1.99401 0.551969 0
M  V30 7241 C 663.832 -1.67816 -0.865048 0
M  V30 7242 O 663.189 -0.927078 -1.57199 0
M  V30 7243 C 663.24 -3.53779 0.743152 0
M  V30 7244 O 662.961 -3.84248 2.1044 0
M  V30 7245 C 664.462 -4.41543 0.39424 0
M  V30 7246 H 661.682 -0.636926 0.211106 0
M  V30 7247 H 664.226 -1.64266 1.21807 0
M  V30 7248 H 662.381 -3.87201 0.124143 0
M  V30 7249 H 662.795 -4.78904 2.13895 0
M  V30 7250 H 664.269 -5.48957 0.578814 0
M  V30 7251 H 664.746 -4.34073 -0.669137 0
M  V30 7252 H 665.352 -4.13605 0.990491 0
M  V30 7253 N 663.667 -0.670007 -1.42649 0
M  V30 7254 C 664.913 -0.19923 -2.02422 0
M  V30 7255 C 665.268 1.17947 -1.52007 0
M  V30 7256 O 664.561 1.77939 -0.710512 0
M  V30 7257 C 664.755 -0.168298 -3.57004 0
M  V30 7258 C 664.584 -1.54246 -4.22419 0
M  V30 7259 C 663.354 -2.13904 -4.57792 0
M  V30 7260 C 665.552 -2.4842 -4.50324 0
M  V30 7261 N 663.534 -3.44151 -5.08364 0
M  V30 7262 C 664.905 -3.63317 -5.02395 0
M  V30 7263 C 666.96 -2.47011 -4.32308 0
M  V30 7264 C 665.663 -4.77051 -5.38345 0
M  V30 7265 C 667.689 -3.59838 -4.6933 0
M  V30 7266 C 667.051 -4.73462 -5.21549 0
M  V30 7267 H 663.15 -0.117717 -0.773089 0
M  V30 7268 H 665.734 -0.881955 -1.73579 0
M  V30 7269 H 663.905 0.483824 -3.85375 0
M  V30 7270 H 665.637 0.314914 -4.03473 0
M  V30 7271 H 662.392 -1.66441 -4.4339 0
M  V30 7272 H 662.816 -4.10846 -5.38084 0
M  V30 7273 H 667.458 -1.60394 -3.91195 0
M  V30 7274 H 665.176 -5.64347 -5.78393 0
M  V30 7275 H 668.762 -3.59969 -4.57071 0
M  V30 7276 H 667.642 -5.59321 -5.49663 0
M  V30 7277 N 665.145 1.52092 -0.413018 0
M  V30 7278 C 666.078 2.23613 0.455234 0
M  V30 7279 C 667.056 1.2459 1.04481 0
M  V30 7280 O 668.24 1.53653 1.09193 0
M  V30 7281 C 665.367 2.96775 1.63224 0
M  V30 7282 C 664.413 4.10261 1.16568 0
M  V30 7283 S 665.246 5.35348 0.127633 0
M  V30 7284 C 666.402 6.1204 1.30987 0
M  V30 7285 H 666.635 2.96911 -0.152042 0
M  V30 7286 H 664.168 1.53134 -0.197343 0
M  V30 7287 H 666.126 3.39532 2.30713 0
M  V30 7288 H 664.787 2.23113 2.21087 0
M  V30 7289 H 663.98 4.6064 2.04515 0
M  V30 7290 H 663.582 3.6964 0.569386 0
M  V30 7291 H 665.874 6.39651 2.23276 0
M  V30 7292 H 666.817 7.03022 0.846533 0
M  V30 7293 H 667.225 5.43161 1.53743 0
M  V30 7294 N 666.623 0.143563 1.56945 0
M  V30 7295 C 667.848 -0.518701 2.00809 0
M  V30 7296 C 668.273 -1.5785 1.02298 0
M  V30 7297 O 667.631 -1.813 -0.0017839 0
M  V30 7298 C 667.679 -1.09929 3.43436 0
M  V30 7299 O 666.783 -2.21425 3.47915 0
M  V30 7300 H 666.124 -0.127215 0.6517 0
M  V30 7301 H 668.654 0.239283 2.03196 0
M  V30 7302 H 668.664 -1.4288 3.82164 0
M  V30 7303 H 667.339 -0.323162 4.14643 0
M  V30 7304 H 665.916 -1.89728 3.21026 0
M  V30 7305 N 668.101 -1.57061 -0.130224 0
M  V30 7306 C 669.326 -1.88802 -0.858409 0
M  V30 7307 C 669.751 -0.734353 -1.73173 0
M  V30 7308 O 669.109 0.315529 -1.78533 0
M  V30 7309 C 669.157 -3.19228 -1.67708 0
M  V30 7310 O 668.261 -3.04343 -2.78297 0
M  V30 7311 H 667.602 -0.619849 -0.238083 0
M  V30 7312 H 670.132 -2.04271 -0.115995 0
M  V30 7313 H 670.142 -3.51669 -2.06864 0
M  V30 7314 H 668.817 -4.02793 -1.0359 0
M  V30 7315 H 667.394 -2.83346 -2.42425 0
M  V30 7316 N 669.579 0.400081 -1.52437 0
M  V30 7317 C 670.827 1.14392 -1.6661 0
M  V30 7318 C 671.148 1.90792 -0.402927 0
M  V30 7319 O 670.418 1.87042 0.582425 0
M  V30 7320 H 668.998 0.425275 -0.614125 0
M  V30 7321 H 671.66 0.455076 -1.89513 0
M  V30 7322 H 670.756 1.85298 -2.51139 0
M  V30 7323 N 671.057 1.43213 0.657864 0
M  V30 7324 C 672.303 1.44798 1.41991 0
M  V30 7325 C 672.636 0.070256 1.94073 0
M  V30 7326 O 671.911 -0.908177 1.71995 0
M  V30 7327 C 672.194 2.4865 2.60471 0
M  V30 7328 C 672.047 3.95679 2.13911 0
M  V30 7329 C 673.366 2.49292 3.62686 0
M  V30 7330 H 670.485 0.527244 0.514959 0
M  V30 7331 H 673.127 1.74733 0.74621 0
M  V30 7332 H 671.277 2.23254 3.17946 0
M  V30 7333 H 672.949 4.32116 1.61472 0
M  V30 7334 H 671.192 4.08733 1.45325 0
M  V30 7335 H 671.863 4.6395 2.99089 0
M  V30 7336 H 674.339 2.71917 3.14961 0
M  V30 7337 H 673.215 3.23907 4.43143 0
M  V30 7338 H 673.476 1.52502 4.14964 0
M  V30 7339 N 672.536 -0.895792 1.29666 0
M  V30 7340 C 673.947 -1.46195 1.1612 0
M  V30 7341 C 674.298 -1.94699 -0.242195 0
M  V30 7342 O 673.423 -1.8406 -1.13802 0
M  V30 7343 C 674.018 -2.65718 2.10189 0
M  V30 7344 C 672.577 -3.18458 2.00653 0
M  V30 7345 C 671.724 -1.91149 2.00891 0
M  V30 7346 H 674.675 -0.706756 1.42094 0
M  V30 7347 H 674.696 -3.4158 1.6764 0
M  V30 7348 H 674.208 -2.30386 3.12321 0
M  V30 7349 H 672.309 -3.58474 1.01623 0
M  V30 7350 H 672.422 -3.82491 2.88509 0
M  V30 7351 H 670.786 -2.09021 1.45542 0
M  V30 7352 H 671.569 -1.58089 3.04734 0
M  V30 7353 N 674.014 -1.12206 -1.10668 0
M  V30 7354 C 675.262 -0.874144 -1.82217 0
M  V30 7355 C 675.583 0.601736 -1.85484 0
M  V30 7356 O 674.853 1.43725 -1.33116 0
M  V30 7357 H 673.433 -0.320404 -0.674797 0
M  V30 7358 H 676.095 -1.41606 -1.33917 0
M  V30 7359 H 675.191 -1.25349 -2.85822 0
M  V30 7360 N 675.492 1.28418 -0.913599 0
M  V30 7361 C 676.422 2.29713 -0.418847 0
M  V30 7362 C 677.403 1.62165 0.513469 0
M  V30 7363 O 678.588 1.89576 0.421235 0
M  V30 7364 C 675.718 3.45612 0.342042 0
M  V30 7365 C 674.672 4.25056 -0.501123 0
M  V30 7366 C 673.998 5.3329 0.388097 0
M  V30 7367 C 675.298 4.91814 -1.75831 0
M  V30 7368 H 676.992 2.71346 -1.26538 0
M  V30 7369 H 674.538 1.30446 -0.609903 0
M  V30 7370 H 676.491 4.15562 0.699 0
M  V30 7371 H 675.215 3.02858 1.22248 0
M  V30 7372 H 673.874 3.56833 -0.840598 0
M  V30 7373 H 673.522 4.8678 1.26707 0
M  V30 7374 H 673.222 5.87347 -0.172459 0
M  V30 7375 H 674.746 6.06088 0.74094 0
M  V30 7376 H 676.16 5.54126 -1.47026 0
M  V30 7377 H 674.557 5.55866 -2.26126 0
M  V30 7378 H 675.627 4.16313 -2.4862 0
M  V30 7379 N 676.97 0.677563 1.42291 0
M  V30 7380 C 678.198 0.209459 2.05837 0
M  V30 7381 C 678.613 -1.13444 1.50917 0
M  V30 7382 O 677.97 -1.70529 0.65008 0
M  V30 7383 C 678.021 0.138819 3.61233 0
M  V30 7384 O 677.742 1.42962 4.14118 0
M  V30 7385 C 679.243 -0.352449 4.41897 0
M  V30 7386 H 676.463 0.101209 0.663323 0
M  V30 7387 H 679.007 0.925077 1.8238 0
M  V30 7388 H 677.162 -0.527505 3.83792 0
M  V30 7389 H 677.576 1.3048 5.08011 0
M  V30 7390 H 679.05 -0.350778 5.50884 0
M  V30 7391 H 679.527 -1.3882 4.16684 0
M  V30 7392 H 680.133 0.282236 4.24362 0
M  V30 7393 N 678.448 -1.51871 0.421078 0
M  V30 7394 C 679.694 -2.02237 -0.151014 0
M  V30 7395 C 680.027 -1.30554 -1.43768 0
M  V30 7396 O 679.302 -0.41546 -1.90011 0
M  V30 7397 C 679.585 -3.5802 -0.386482 0
M  V30 7398 C 679.438 -4.40339 0.9177 0
M  V30 7399 C 680.757 -4.24444 -1.16342 0
M  V30 7400 H 677.876 -0.735062 -0.0534102 0
M  V30 7401 H 680.518 -1.81656 0.556888 0
M  V30 7402 H 678.668 -3.75688 -0.989494 0
M  V30 7403 H 680.34 -4.34357 1.55344 0
M  V30 7404 H 678.583 -4.06073 1.526 0
M  V30 7405 H 679.254 -5.47451 0.707187 0
M  V30 7406 H 681.73 -4.10948 -0.652788 0
M  V30 7407 H 680.606 -5.33358 -1.29693 0
M  V30 7408 H 680.867 -3.84204 -2.18724 0
M  V30 7409 N 679.926 -0.151884 -1.56866 0
M  V30 7410 C 680.873 0.785936 -2.17006 0
M  V30 7411 C 681.843 1.2407 -1.10435 0
M  V30 7412 O 683.028 1.31235 -1.38499 0
M  V30 7413 C 680.168 2.01771 -2.79969 0
M  V30 7414 C 679.281 1.6083 -4.00946 0
M  V30 7415 C 678.416 2.79224 -4.51893 0
M  V30 7416 C 677.455 2.3468 -5.65324 0
M  V30 7417 N 676.592 3.461 -6.10867 0
M  V30 7418 H 681.432 0.266286 -2.96808 0
M  V30 7419 H 678.969 0.11972 -1.46612 0
M  V30 7420 H 680.927 2.73989 -3.14621 0
M  V30 7421 H 679.557 2.51139 -2.02803 0
M  V30 7422 H 678.609 0.783592 -3.72242 0
M  V30 7423 H 679.921 1.24119 -4.83111 0
M  V30 7424 H 679.075 3.59625 -4.88625 0
M  V30 7425 H 677.814 3.19183 -3.68746 0
M  V30 7426 H 676.819 1.52721 -5.28163 0
M  V30 7427 H 678.044 1.95801 -6.5026 0
M  V30 7428 H 675.99 3.85671 -5.30654 0
M  V30 7429 H 675.907 3.1342 -6.87971 0
M  V30 7430 H 677.175 4.26844 -6.52246 0
M  V30 7431 N 681.404 1.57128 0.121893 0
M  V30 7432 C 682.354 1.96556 1.15541 0
M  V30 7433 C 683.338 0.840147 1.37224 0
M  V30 7434 O 684.53 1.10382 1.38365 0
M  V30 7435 C 681.659 2.37097 2.48274 0
M  V30 7436 C 680.745 3.56265 2.30078 0
M  V30 7437 N 681.136 4.72041 1.81688 0
M  V30 7438 C 679.434 3.61841 2.60744 0
M  V30 7439 C 680.135 5.54075 1.77132 0
M  V30 7440 N 679.111 4.96483 2.21371 0
M  V30 7441 H 682.913 2.83531 0.77378 0
M  V30 7442 H 680.427 1.59019 0.329672 0
M  V30 7443 H 682.424 2.6356 3.2302 0
M  V30 7444 H 681.084 1.51486 2.87197 0
M  V30 7445 H 682.095 4.95313 1.51278 0
M  V30 7446 H 678.772 2.8683 3.03373 0
M  V30 7447 H 680.162 6.56939 1.40998 0
M  V30 7448 N 682.882 -0.391992 1.52647 0
M  V30 7449 C 684.131 -1.13449 1.6677 0
M  V30 7450 C 684.444 -1.91203 0.412399 0
M  V30 7451 O 685.65 -2.68013 0.433707 0
M  V30 7452 C 684.106 -2.06577 2.9471 0
M  V30 7453 C 683.714 -1.3426 4.27409 0
M  V30 7454 C 685.458 -2.80981 3.18198 0
M  V30 7455 C 683.365 -2.26136 5.46458 0
M  V30 7456 H 682.295 -0.427211 0.621295 0
M  V30 7457 H 684.946 -0.397522 1.79142 0
M  V30 7458 H 683.328 -2.83898 2.76076 0
M  V30 7459 H 684.502 -0.621856 4.56585 0
M  V30 7460 H 682.817 -0.718279 4.10158 0
M  V30 7461 H 685.414 -3.49898 4.04321 0
M  V30 7462 H 685.757 -3.44891 2.33144 0
M  V30 7463 H 686.29 -2.10754 3.37383 0
M  V30 7464 H 683.029 -1.66846 6.33911 0
M  V30 7465 H 682.549 -2.96134 5.21598 0
M  V30 7466 H 684.228 -2.86286 5.80215 0
M  V30 7467 N 684.36 -1.4356 -0.65026 0
M  V30 7468 C 685.323 -1.48615 -1.74489 0
M  V30 7469 C 686.323 -0.370483 -1.56474 0
M  V30 7470 O 687.513 -0.632351 -1.62317 0
M  V30 7471 C 684.645 -1.34161 -3.13391 0
M  V30 7472 H 685.838 -2.46103 -1.71387 0
M  V30 7473 H 683.391 -1.30369 -0.862186 0
M  V30 7474 H 684.126 -0.376918 -3.22102 0
M  V30 7475 H 683.911 -2.1504 -3.27872 0
M  V30 7476 H 685.401 -1.40637 -3.93206 0
M  V30 7477 N 685.838 0.888903 -1.30139 0
M  V30 7478 C 686.801 1.97576 -1.16174 0
M  V30 7479 C 687.801 1.60525 -0.094086 0
M  V30 7480 O 688.991 1.70812 -0.341889 0
M  V30 7481 C 686.123 3.3188 -0.778983 0
M  V30 7482 H 687.316 2.11393 -2.12728 0
M  V30 7483 H 684.869 1.0748 -1.1348 0
M  V30 7484 H 685.604 3.23765 0.186225 0
M  V30 7485 H 685.389 3.60141 -1.55051 0
M  V30 7486 H 686.879 4.11612 -0.704631 0
M  V30 7487 N 687.317 1.12792 1.10072 0
M  V30 7488 C 688.545 0.908506 1.85886 0
M  V30 7489 C 688.96 -0.542408 1.80841 0
M  V30 7490 O 688.317 -1.37517 1.1998 0
M  V30 7491 C 688.368 1.37973 3.34134 0
M  V30 7492 O 688.089 2.77378 3.39106 0
M  V30 7493 C 689.59 1.1978 4.26811 0
M  V30 7494 H 686.81 0.3244 0.587372 0
M  V30 7495 H 689.354 1.49882 1.39125 0
M  V30 7496 H 687.509 0.832566 3.78348 0
M  V30 7497 H 687.923 2.98144 4.31521 0
M  V30 7498 H 689.397 1.57635 5.29014 0
M  V30 7499 H 689.874 0.138768 4.38981 0
M  V30 7500 H 690.48 1.73266 3.88406 0
M  V30 7501 N 688.795 -1.27931 0.920396 0
M  V30 7502 C 690.023 -1.98805 0.573087 0
M  V30 7503 C 690.438 -1.68724 -0.847201 0
M  V30 7504 O 689.795 -0.943699 -1.56207 0
M  V30 7505 C 689.846 -3.52971 0.780633 0
M  V30 7506 O 689.567 -3.81994 2.14504 0
M  V30 7507 C 691.068 -4.411 0.44105 0
M  V30 7508 H 688.288 -0.634651 0.21785 0
M  V30 7509 H 690.832 -1.62965 1.23542 0
M  V30 7510 H 688.987 -3.87048 0.165204 0
M  V30 7511 H 689.401 -4.76609 2.18962 0
M  V30 7512 H 690.875 -5.48312 0.637006 0
M  V30 7513 H 691.352 -4.34758 -0.62306 0
M  V30 7514 H 691.958 -4.12532 1.0343 0
M  V30 7515 N 690.273 -0.685099 -1.4193 0
M  V30 7516 C 691.22 -0.0131869 -2.30796 0
M  V30 7517 C 692.19 0.782129 -1.46533 0
M  V30 7518 O 693.375 0.75229 -1.75343 0
M  V30 7519 C 690.515 0.924768 -3.32479 0
M  V30 7520 C 689.628 0.122181 -4.31827 0
M  V30 7521 C 688.763 1.05682 -5.20581 0
M  V30 7522 C 687.802 0.246526 -6.11603 0
M  V30 7523 N 686.939 1.13442 -6.92875 0
M  V30 7524 H 691.779 -0.776789 -2.87698 0
M  V30 7525 H 689.316 -0.394791 -1.41703 0
M  V30 7526 H 691.274 1.48251 -3.89971 0
M  V30 7527 H 689.904 1.65488 -2.77152 0
M  V30 7528 H 688.956 -0.552335 -3.76369 0
M  V30 7529 H 690.268 -0.506473 -4.96222 0
M  V30 7530 H 689.422 1.68415 -5.82856 0
M  V30 7531 H 688.161 1.71935 -4.56388 0
M  V30 7532 H 687.166 -0.393944 -5.48387 0
M  V30 7533 H 688.391 -0.412053 -6.77849 0
M  V30 7534 H 686.337 1.78316 -6.313 0
M  V30 7535 H 686.254 0.561089 -7.53915 0
M  V30 7536 H 687.522 1.74889 -7.59628 0
M  V30 7537 N 691.751 1.51645 -0.429126 0
M  V30 7538 C 692.999 2.01616 0.139802 0
M  V30 7539 C 693.32 1.31568 1.43927 0
M  V30 7540 O 692.59 0.447688 1.90716 0
M  V30 7541 H 691.17 0.744998 0.054654 0
M  V30 7542 H 693.832 1.8638 -0.569952 0
M  V30 7543 H 692.928 3.10439 0.321609 0
M  V30 7544 N 693.229 0.160201 1.56784 0
M  V30 7545 C 694.469 -0.490179 1.98435 0
M  V30 7546 C 694.833 -1.61164 1.04355 0
M  V30 7547 O 696.034 -2.3238 1.35103 0
M  V30 7548 C 694.305 -0.971106 3.43954 0
M  V30 7549 S 695.864 -1.62423 4.07632 0
M  V30 7550 H 692.682 -0.158056 0.693209 0
M  V30 7551 H 695.284 0.255036 1.93829 0
M  V30 7552 H 693.988 -0.144323 4.10146 0
M  V30 7553 H 693.519 -1.75063 3.52302 0
M  V30 7554 H 695.534 -2.91199 4.01768 0
M  V30 7555 N 694.707 -1.5719 -0.113559 0
M  V30 7556 C 695.637 -2.03772 -1.14013 0
M  V30 7557 C 696.618 -0.923176 -1.42869 0
M  V30 7558 O 697.803 -1.19325 -1.53216 0
M  V30 7559 C 694.933 -2.44663 -2.4649 0
M  V30 7560 C 693.887 -3.59612 -2.32085 0
M  V30 7561 C 693.213 -3.8642 -3.69573 0
M  V30 7562 C 694.513 -4.91149 -1.7768 0
M  V30 7563 H 696.207 -2.89785 -0.752665 0
M  V30 7564 H 693.753 -1.39412 -0.360609 0
M  V30 7565 H 695.706 -2.75857 -3.18561 0
M  V30 7566 H 694.43 -1.55628 -2.87137 0
M  V30 7567 H 693.089 -3.28636 -1.62461 0
M  V30 7568 H 692.737 -2.94581 -4.07715 0
M  V30 7569 H 692.437 -4.63797 -3.60786 0
M  V30 7570 H 693.961 -4.2007 -4.4314 0
M  V30 7571 H 695.375 -5.20843 -2.39574 0
M  V30 7572 H 693.772 -5.72562 -1.79701 0
M  V30 7573 H 694.842 -4.79301 -0.734776 0
M  V30 7574 N 696.185 0.383891 -1.52853 0
M  V30 7575 C 697.095 1.49343 -1.80925 0
M  V30 7576 C 698.111 1.59458 -0.696348 0
M  V30 7577 O 699.287 1.75698 -0.984481 0
M  V30 7578 C 696.352 2.84819 -1.97684 0
M  V30 7579 C 695.413 2.84382 -3.21598 0
M  V30 7580 C 694.646 4.13397 -3.37548 0
M  V30 7581 O 694.869 5.08619 -2.58192 0
M  V30 7582 O 693.803 4.20325 -4.30826 0
M  V30 7583 H 697.629 1.2855 -2.75152 0
M  V30 7584 H 695.214 0.572229 -1.38007 0
M  V30 7585 H 697.096 3.65125 -2.10385 0
M  V30 7586 H 695.771 3.05627 -1.06647 0
M  V30 7587 H 694.678 2.0284 -3.14336 0
M  V30 7588 H 696.011 2.68526 -4.12498 0
M  V30 7589 N 697.663 1.43903 0.642637 0
M  V30 7590 C 698.593 1.52697 1.76652 0
M  V30 7591 C 699.574 0.380816 1.65782 0
M  V30 7592 O 700.759 0.599432 1.84717 0
M  V30 7593 C 697.889 1.45975 3.15133 0
M  V30 7594 C 696.843 2.58949 3.40778 0
M  V30 7595 C 696.169 2.37279 4.79169 0
M  V30 7596 C 697.469 4.01153 3.34475 0
M  V30 7597 H 699.163 2.46766 1.69549 0
M  V30 7598 H 696.709 1.18767 0.814279 0
M  V30 7599 H 698.662 1.5073 3.93521 0
M  V30 7600 H 697.386 0.484162 3.22991 0
M  V30 7601 H 696.045 2.53564 2.64765 0
M  V30 7602 H 695.693 1.37939 4.83717 0
M  V30 7603 H 695.393 3.13016 4.97287 0
M  V30 7604 H 696.917 2.43834 5.59801 0
M  V30 7605 H 698.331 4.07968 4.02784 0
M  V30 7606 H 696.728 4.77001 3.64129 0
M  V30 7607 H 697.798 4.25539 2.32475 0
M  V30 7608 N 699.141 -0.881989 1.30609 0
M  V30 7609 C 700.089 -2.00942 1.17155 0
M  V30 7610 C 701.083 -1.69198 0.0827154 0
M  V30 7611 O 702.289 -1.78342 0.243775 0
M  V30 7612 H 698.664 -0.658913 0.362406 0
M  V30 7613 H 700.635 -2.09423 2.12567 0
M  V30 7614 C 699.384 -3.36294 0.883273 0
M  V30 7615 H 698.707 -3.61233 1.7132 0
M  V30 7616 H 700.147 -4.15812 0.829255 0
M  V30 7617 C 698.606 -3.34348 -0.413851 0
M  V30 7618 O 699.136 -3.75216 -1.43444 0
M  V30 7619 N 697.342 -2.87459 -0.426082 0
M  V30 7620 H 696.889 -2.54397 0.40493 0
M  V30 7621 H 696.847 -2.8654 -1.29391 0
M  V30 7622 N 700.619 -1.13374 -1.09472 0
M  V30 7623 C 701.551 -0.768466 -2.15933 0
M  V30 7624 C 702.564 0.209585 -1.61445 0
M  V30 7625 O 703.753 -0.010539 -1.78497 0
M  V30 7626 C 700.853 -0.118266 -3.38694 0
M  V30 7627 C 700.026 -1.12829 -4.22597 0
M  V30 7628 C 699.085 -0.503875 -5.23782 0
M  V30 7629 O 698.111 -1.16374 -5.57177 0
M  V30 7630 N 699.313 0.724288 -5.75964 0
M  V30 7631 H 702.078 -1.68457 -2.47876 0
M  V30 7632 H 699.639 -1.02668 -1.25183 0
M  V30 7633 H 701.631 0.311698 -4.03498 0
M  V30 7634 H 700.201 0.700769 -3.04644 0
M  V30 7635 H 699.421 -1.73556 -3.53938 0
M  V30 7636 H 700.709 -1.81095 -4.75481 0
M  V30 7637 H 700.107 1.27918 -5.51048 0
M  V30 7638 H 698.664 1.09692 -6.42504 0
M  V30 7639 N 702.098 1.27442 -0.927168 0
M  V30 7640 C 703.045 2.26863 -0.424459 0
M  V30 7641 C 704.015 1.5813 0.508346 0
M  V30 7642 O 705.2 1.85946 0.42762 0
M  V30 7643 C 702.34 3.43639 0.31718 0
M  V30 7644 C 701.453 4.27087 -0.649675 0
M  V30 7645 C 700.588 5.31082 0.111753 0
M  V30 7646 C 699.627 6.062 -0.847843 0
M  V30 7647 N 698.764 7.01999 -0.119074 0
M  V30 7648 H 703.604 2.69239 -1.27728 0
M  V30 7649 H 701.141 1.32394 -0.641106 0
M  V30 7650 H 703.099 4.10155 0.763486 0
M  V30 7651 H 701.729 3.02217 1.13424 0
M  V30 7652 H 700.781 3.60491 -1.21451 0
M  V30 7653 H 702.093 4.79242 -1.38307 0
M  V30 7654 H 701.247 6.03544 0.618 0
M  V30 7655 H 699.986 4.7973 0.878114 0
M  V30 7656 H 698.991 5.32577 -1.36534 0
M  V30 7657 H 700.216 6.59642 -1.61398 0
M  V30 7658 H 698.162 6.52977 0.629051 0
M  V30 7659 H 698.079 7.5184 -0.792046 0
M  V30 7660 H 699.347 7.78638 0.366537 0
M  V30 7661 N 703.576 0.692616 1.41565 0
M  V30 7662 C 704.822 0.222664 2.01574 0
M  V30 7663 C 705.155 -1.1737 1.54719 0
M  V30 7664 O 704.43 -1.79161 0.757084 0
M  V30 7665 C 704.713 0.277064 3.59033 0
M  V30 7666 C 704.566 1.71016 4.16021 0
M  V30 7667 C 705.885 -0.36479 4.38586 0
M  V30 7668 H 703.004 0.0823839 0.732381 0
M  V30 7669 H 705.646 0.880778 1.68352 0
M  V30 7670 H 703.796 -0.283288 3.87466 0
M  V30 7671 H 705.468 2.32413 3.98475 0
M  V30 7672 H 703.711 2.24525 3.71175 0
M  V30 7673 H 704.382 1.69978 5.25178 0
M  V30 7674 H 706.858 0.112404 4.15948 0
M  V30 7675 H 705.734 -0.296169 5.481 0
M  V30 7676 H 705.995 -1.44506 4.17816 0
M  V30 7677 N 705.054 -1.51416 0.437162 0
M  V30 7678 C 706.303 -2.01275 -0.130865 0
M  V30 7679 C 706.616 -1.32593 -1.438 0
M  V30 7680 O 707.822 -1.7342 -2.08897 0
M  V30 7681 C 706.278 -3.5878 -0.283763 0
M  V30 7682 C 705.886 -4.36399 1.01293 0
M  V30 7683 C 707.63 -4.16786 -0.805569 0
M  V30 7684 C 705.537 -5.85608 0.825687 0
M  V30 7685 H 704.467 -0.752157 -0.0526818 0
M  V30 7686 H 707.118 -1.74524 0.566896 0
M  V30 7687 H 705.5 -3.81976 -1.04452 0
M  V30 7688 H 706.674 -4.24948 1.78201 0
M  V30 7689 H 704.989 -3.89843 1.46326 0
M  V30 7690 H 707.586 -5.25972 -0.962146 0
M  V30 7691 H 707.929 -3.75949 -1.78796 0
M  V30 7692 H 708.462 -3.97666 -0.103125 0
M  V30 7693 H 705.201 -6.30857 1.78045 0
M  V30 7694 H 704.721 -5.99723 0.0964029 0
M  V30 7695 H 706.4 -6.45226 0.478815 0
M  V30 7696 N 706.532 -0.168513 -1.56696 0
M  V30 7697 C 707.778 0.471368 -1.97863 0
M  V30 7698 C 708.133 1.61049 -1.05267 0
M  V30 7699 O 707.426 1.9138 -0.0917908 0
M  V30 7700 C 707.62 1.00441 -3.42996 0
M  V30 7701 C 707.449 -0.081524 -4.49626 0
M  V30 7702 C 706.219 -0.530242 -5.0251 0
M  V30 7703 C 708.417 -0.880897 -5.067 0
M  V30 7704 N 706.399 -1.59678 -5.9277 0
M  V30 7705 C 707.77 -1.79742 -5.93374 0
M  V30 7706 C 709.825 -0.92629 -4.89208 0
M  V30 7707 C 708.528 -2.7555 -6.64428 0
M  V30 7708 C 710.554 -1.8723 -5.6098 0
M  V30 7709 C 709.916 -2.77631 -6.4738 0
M  V30 7710 H 706.015 0.140671 -0.769244 0
M  V30 7711 H 708.599 -0.268084 -1.92846 0
M  V30 7712 H 706.77 1.71339 -3.48565 0
M  V30 7713 H 708.502 1.61269 -3.7118 0
M  V30 7714 H 705.257 -0.12847 -4.73426 0
M  V30 7715 H 705.681 -2.13045 -6.42605 0
M  V30 7716 H 710.323 -0.241412 -4.2211 0
M  V30 7717 H 708.041 -3.45027 -7.30741 0
M  V30 7718 H 711.627 -1.91349 -5.49433 0
M  V30 7719 H 710.507 -3.4964 -7.01941 0
M  V30 7720 N 708.01 1.57248 0.105221 0
M  V30 7721 C 709.238 1.89768 0.82437 0
M  V30 7722 C 709.653 0.761192 1.72775 0
M  V30 7723 O 709.01 -0.267342 1.80531 0
M  V30 7724 C 709.061 3.2184 1.64625 0
M  V30 7725 O 708.782 4.31115 0.779217 0
M  V30 7726 C 710.283 3.68155 2.46935 0
M  V30 7727 H 707.503 0.628031 0.236259 0
M  V30 7728 H 710.047 2.04321 0.085485 0
M  V30 7729 H 708.202 3.08915 2.33775 0
M  V30 7730 H 708.616 5.06897 1.34745 0
M  V30 7731 H 710.09 4.6329 3.00111 0
M  V30 7732 H 710.567 2.95492 3.24932 0
M  V30 7733 H 711.173 3.83914 1.83002 0
M  V30 7734 N 709.488 -0.375779 1.53054 0
M  V30 7735 C 710.398 -1.48381 1.81715 0
M  V30 7736 C 711.414 -1.59087 0.704795 0
M  V30 7737 O 712.59 -1.75174 0.993785 0
M  V30 7738 C 709.655 -2.83767 1.99192 0
M  V30 7739 C 708.716 -2.82673 3.23102 0
M  V30 7740 C 707.949 -4.11601 3.39736 0
M  V30 7741 O 708.172 -5.07243 2.60885 0
M  V30 7742 O 707.106 -4.18034 4.33049 0
M  V30 7743 H 710.932 -1.27089 2.7583 0
M  V30 7744 H 708.517 -0.564902 1.38308 0
M  V30 7745 H 710.399 -3.64004 2.12318 0
M  V30 7746 H 709.074 -3.05057 1.08267 0
M  V30 7747 H 707.981 -2.0117 3.15407 0
M  V30 7748 H 709.314 -2.66335 4.13916 0
M  V30 7749 N 710.966 -1.44241 -0.634997 0
M  V30 7750 C 711.876 -1.53293 -1.77591 0
M  V30 7751 C 712.892 -0.418831 -1.68884 0
M  V30 7752 O 714.068 -0.675619 -1.8973 0
M  V30 7753 C 711.133 -1.47075 -3.13958 0
M  V30 7754 C 710.194 -2.69304 -3.34326 0
M  V30 7755 C 709.427 -2.63374 -4.64187 0
M  V30 7756 O 709.65 -1.69161 -5.44739 0
M  V30 7757 O 708.584 -3.54166 -4.86673 0
M  V30 7758 H 712.41 -2.49673 -1.72908 0
M  V30 7759 H 709.995 -1.26445 -0.795745 0
M  V30 7760 H 711.877 -1.46117 -3.95257 0
M  V30 7761 H 710.552 -0.538373 -3.19192 0
M  V30 7762 H 709.459 -2.75831 -2.52721 0
M  V30 7763 H 710.792 -3.61576 -3.33951 0
M  V30 7764 N 712.444 0.87505 -1.31075 0
M  V30 7765 C 713.407 1.96333 -1.18263 0
M  V30 7766 C 714.407 1.60416 -0.111106 0
M  V30 7767 O 715.597 1.7044 -0.359987 0
M  V30 7768 C 712.729 3.31036 -0.81414 0
M  V30 7769 H 713.922 2.09125 -2.14958 0
M  V30 7770 H 711.475 1.06271 -1.14614 0
M  V30 7771 H 712.21 3.23944 0.151875 0
M  V30 7772 H 711.995 3.58476 -1.58862 0
M  V30 7773 H 713.485 4.10842 -0.748249 0
M  V30 7774 N 713.922 1.13953 1.08869 0
M  V30 7775 C 714.854 0.779906 2.15523 0
M  V30 7776 C 715.867 -0.20102 1.61554 0
M  V30 7777 O 717.056 0.0200049 1.78489 0
M  V30 7778 C 714.156 0.136226 3.38626 0
M  V30 7779 C 713.329 1.15069 4.21993 0
M  V30 7780 C 712.388 0.531645 5.23507 0
M  V30 7781 O 711.414 1.19327 5.56552 0
M  V30 7782 N 712.616 -0.693734 5.7634 0
M  V30 7783 H 715.381 1.69769 2.46979 0
M  V30 7784 H 712.942 1.03331 1.24637 0
M  V30 7785 H 714.934 -0.290295 4.03658 0
M  V30 7786 H 713.504 -0.684603 3.05011 0
M  V30 7787 H 712.724 1.75431 3.53012 0
M  V30 7788 H 714.012 1.83614 4.74514 0
M  V30 7789 H 713.41 -1.24994 5.51718 0
M  V30 7790 H 711.967 -1.06283 6.43076 0
M  V30 7791 N 715.4 -1.26948 0.933913 0
M  V30 7792 C 716.347 -2.26635 0.436484 0
M  V30 7793 C 717.317 -1.58397 -0.499953 0
M  V30 7794 O 718.502 -1.86171 -0.417753 0
M  V30 7795 C 715.642 -3.43803 -0.298951 0
M  V30 7796 C 714.755 -4.26736 0.672316 0
M  V30 7797 C 713.89 -5.31134 -0.0835872 0
M  V30 7798 C 712.929 -6.05742 0.879979 0
M  V30 7799 N 712.066 -7.01926 0.156301 0
M  V30 7800 H 716.906 -2.68558 1.29154 0
M  V30 7801 H 714.443 -1.32052 0.648118 0
M  V30 7802 H 716.401 -4.10554 -0.741723 0
M  V30 7803 H 715.031 -3.02814 -1.1182 0
M  V30 7804 H 714.083 -3.59842 1.23361 0
M  V30 7805 H 715.395 -4.78502 1.40846 0
M  V30 7806 H 714.549 -6.03863 -0.585984 0
M  V30 7807 H 713.288 -4.80188 -0.852661 0
M  V30 7808 H 712.293 -5.31846 1.39357 0
M  V30 7809 H 713.518 -6.58777 1.64894 0
M  V30 7810 H 711.464 -6.53301 -0.594413 0
M  V30 7811 H 711.381 -7.51409 0.831906 0
M  V30 7812 H 712.649 -7.78821 -0.325239 0
M  V30 7813 N 716.879 -0.700114 -1.41195 0
M  V30 7814 C 717.789 -0.0382854 -2.34569 0
M  V30 7815 C 718.805 0.761036 -1.56474 0
M  V30 7816 O 719.981 0.697553 -1.88934 0
M  V30 7817 C 717.046 0.883522 -3.35253 0
M  V30 7818 C 716.107 0.0758957 -4.29233 0
M  V30 7819 C 715.34 0.9538 -5.25108 0
M  V30 7820 O 715.563 2.19326 -5.26547 0
M  V30 7821 O 714.497 0.401049 -6.00562 0
M  V30 7822 H 718.323 -0.808073 -2.92752 0
M  V30 7823 H 715.908 -0.460479 -1.42127 0
M  V30 7824 H 717.79 1.41199 -3.9704 0
M  V30 7825 H 716.465 1.63272 -2.79506 0
M  V30 7826 H 715.372 -0.497274 -3.7078 0
M  V30 7827 H 716.705 -0.634741 -4.8809 0
M  V30 7828 N 718.357 1.51182 -0.445186 0
M  V30 7829 C 719.287 2.30821 0.352686 0
M  V30 7830 C 720.268 1.36576 1.01395 0
M  V30 7831 O 721.453 1.65497 1.01609 0
M  V30 7832 C 718.583 3.15593 1.44976 0
M  V30 7833 C 717.537 4.1818 0.911553 0
M  V30 7834 C 716.863 4.91523 2.10497 0
M  V30 7835 C 718.163 5.22266 -0.059418 0
M  V30 7836 H 719.857 2.97771 -0.311936 0
M  V30 7837 H 717.403 1.43201 -0.151461 0
M  V30 7838 H 719.356 3.70091 2.01521 0
M  V30 7839 H 718.08 2.4648 2.14278 0
M  V30 7840 H 716.739 3.64746 0.368264 0
M  V30 7841 H 716.387 4.18906 2.78437 0
M  V30 7842 H 716.087 5.60898 1.7512 0
M  V30 7843 H 717.611 5.48847 2.6758 0
M  V30 7844 H 719.025 5.71789 0.415985 0
M  V30 7845 H 717.422 5.99213 -0.326152 0
M  V30 7846 H 718.492 4.7461 -0.993631 0
M  V30 7847 N 719.835 0.176821 1.56605 0
M  V30 7848 C 720.745 -0.763682 2.21822 0
M  V30 7849 C 721.761 -1.24889 1.21156 0
M  V30 7850 O 722.937 -1.29987 1.53836 0
M  V30 7851 C 720.002 -1.97352 2.8505 0
M  V30 7852 C 719.063 -1.53466 4.00932 0
M  V30 7853 C 718.296 -2.68682 4.61135 0
M  V30 7854 O 718.519 -3.85694 4.20234 0
M  V30 7855 O 717.453 -2.42442 5.50913 0
M  V30 7856 H 721.279 -0.238363 3.02763 0
M  V30 7857 H 718.864 -0.0516331 1.49311 0
M  V30 7858 H 720.746 -2.68096 3.25119 0
M  V30 7859 H 719.421 -2.48779 2.07101 0
M  V30 7860 H 718.328 -0.796551 3.65521 0
M  V30 7861 H 719.661 -1.06724 4.8049 0
M  V30 7862 N 721.313 -1.57302 -0.09688 0
M  V30 7863 C 722.223 -2.05258 -1.13606 0
M  V30 7864 C 723.239 -0.977137 -1.43972 0
M  V30 7865 O 724.415 -1.29018 -1.54649 0
M  V30 7866 C 721.48 -2.46593 -2.43706 0
M  V30 7867 C 720.541 -3.68322 -2.20538 0
M  V30 7868 C 719.774 -4.07676 -3.44435 0
M  V30 7869 O 719.997 -3.47141 -4.52603 0
M  V30 7870 O 718.931 -5.00641 -3.34129 0
M  V30 7871 H 722.757 -2.94069 -0.758752 0
M  V30 7872 H 720.342 -1.46164 -0.309263 0
M  V30 7873 H 722.224 -2.73814 -3.20318 0
M  V30 7874 H 720.899 -1.6092 -2.80867 0
M  V30 7875 H 719.806 -3.4622 -1.41713 0
M  V30 7876 H 721.139 -4.54769 -1.88271 0
M  V30 7877 N 722.791 0.367657 -1.53252 0
M  V30 7878 C 723.739 1.47061 -1.8021 0
M  V30 7879 C 724.733 1.55539 -0.671112 0
M  V30 7880 O 725.939 1.58451 -0.854014 0
M  V30 7881 H 722.314 0.489868 -0.570555 0
M  V30 7882 H 724.285 1.21527 -2.72532 0
M  V30 7883 C 723.034 2.83924 -2.00706 0
M  V30 7884 H 722.357 2.78158 -2.87172 0
M  V30 7885 H 723.797 3.60281 -2.23547 0
M  V30 7886 C 722.256 3.27613 -0.785568 0
M  V30 7887 O 722.786 4.01691 0.0267459 0
M  V30 7888 N 720.992 2.84134 -0.609597 0
M  V30 7889 H 720.539 2.24017 -1.27178 0
M  V30 7890 H 720.497 3.13723 0.206281 0
M  V30 7891 N 724.269 1.44576 0.627338 0
M  V30 7892 C 725.217 1.52039 1.76031 0
M  V30 7893 C 726.211 0.391796 1.64807 0
M  V30 7894 O 727.417 0.5669 1.7084 0
M  V30 7895 H 723.792 0.477165 0.581221 0
M  V30 7896 H 725.763 2.47387 1.6686 0
M  V30 7897 C 724.512 1.48539 3.14375 0
M  V30 7898 H 723.835 2.34699 3.23661 0
M  V30 7899 H 725.275 1.57821 3.93534 0
M  V30 7900 C 723.734 0.20672 3.36265 0
M  V30 7901 O 724.264 -0.72154 3.95167 0
M  V30 7902 N 722.47 0.108654 2.90397 0
M  V30 7903 H 722.017 0.864884 2.42647 0
M  V30 7904 H 721.975 -0.746121 3.05418 0
M  V30 7905 N 725.747 -0.868086 1.31537 0
M  V30 7906 C 726.657 -2.00801 1.21311 0
M  V30 7907 C 727.673 -1.73518 0.129431 0
M  V30 7908 O 728.849 -1.98378 0.347588 0
M  V30 7909 C 725.914 -3.3419 0.922935 0
M  V30 7910 C 724.975 -3.74783 2.0937 0
M  V30 7911 C 724.208 -5.01807 1.81728 0
M  V30 7912 O 724.431 -5.65404 0.753313 0
M  V30 7913 O 723.365 -5.39213 2.67457 0
M  V30 7914 H 727.191 -2.12361 2.17109 0
M  V30 7915 H 724.776 -0.996684 1.11295 0
M  V30 7916 H 726.658 -4.14174 0.777033 0
M  V30 7917 H 725.333 -3.237 -0.00500301 0
M  V30 7918 H 724.24 -2.95432 2.29501 0
M  V30 7919 H 725.573 -3.89902 3.00396 0
M  V30 7920 N 727.225 -1.14528 -1.08264 0
M  V30 7921 C 728.172 -0.833556 -2.15222 0
M  V30 7922 C 729.142 0.209539 -1.64773 0
M  V30 7923 O 730.327 0.0791388 -1.90636 0
M  V30 7924 C 727.467 -0.318799 -3.43624 0
M  V30 7925 C 726.58 -1.42237 -4.07913 0
M  V30 7926 C 725.715 -0.864704 -5.24115 0
M  V30 7927 C 724.754 -1.94585 -5.80347 0
M  V30 7928 N 723.891 -1.40525 -6.87893 0
M  V30 7929 H 728.731 -1.74965 -2.41228 0
M  V30 7930 H 726.268 -0.873169 -1.18381 0
M  V30 7931 H 728.226 -0.00213088 -4.172 0
M  V30 7932 H 726.856 0.560397 -3.17898 0
M  V30 7933 H 725.908 -1.8554 -3.32083 0
M  V30 7934 H 727.22 -2.23901 -4.45724 0
M  V30 7935 H 726.374 -0.500025 -6.04636 0
M  V30 7936 H 725.113 -0.0171219 -4.87697 0
M  V30 7937 H 724.118 -2.31946 -4.98479 0
M  V30 7938 H 725.343 -2.79704 -6.18823 0
M  V30 7939 H 723.289 -0.579873 -6.53432 0
M  V30 7940 H 723.206 -2.15825 -7.24538 0
M  V30 7941 H 724.474 -1.06852 -7.72142 0
M  V30 7942 N 728.703 1.26451 -0.940633 0
M  V30 7943 C 729.952 1.93071 -0.583656 0
M  V30 7944 C 730.265 1.74618 0.881366 0
M  V30 7945 O 731.471 2.35689 1.34769 0
M  V30 7946 C 729.927 3.45927 -0.993106 0
M  V30 7947 C 729.535 3.73115 -2.4797 0
M  V30 7948 C 731.279 4.18554 -0.707998 0
M  V30 7949 C 729.186 5.19408 -2.82788 0
M  V30 7950 H 728.116 0.722824 -0.214572 0
M  V30 7951 H 730.767 1.43538 -1.1432 0
M  V30 7952 H 729.149 3.94341 -0.362099 0
M  V30 7953 H 730.323 3.35408 -3.15971 0
M  V30 7954 H 728.638 3.13719 -2.73805 0
M  V30 7955 H 731.235 5.26293 -0.94447 0
M  V30 7956 H 731.578 4.14782 0.355225 0
M  V30 7957 H 732.111 3.76003 -1.2987 0
M  V30 7958 H 728.85 5.28281 -3.88071 0
M  V30 7959 H 728.37 5.58214 -2.19449 0
M  V30 7960 H 730.049 5.87407 -2.71224 0
M  V30 7961 N 730.181 0.707592 1.40822 0
M  V30 7962 C 731.128 0.0499029 2.30746 0
M  V30 7963 C 732.098 -0.758718 1.47759 0
M  V30 7964 O 733.283 -0.724299 1.76518 0
M  V30 7965 C 730.423 -0.871756 3.33908 0
M  V30 7966 C 729.536 -0.0534655 4.31967 0
M  V30 7967 C 728.671 -0.973869 5.22197 0
M  V30 7968 C 727.71 -0.149194 6.11918 0
M  V30 7969 N 726.847 -1.02404 6.94592 0
M  V30 7970 H 731.687 0.822461 2.86426 0
M  V30 7971 H 729.224 0.417285 1.41057 0
M  V30 7972 H 731.182 -1.42028 3.9228 0
M  V30 7973 H 729.812 -1.61058 2.7975 0
M  V30 7974 H 728.864 0.612142 3.75442 0
M  V30 7975 H 730.176 0.585354 4.95353 0
M  V30 7976 H 729.33 -1.59121 5.85462 0
M  V30 7977 H 728.069 -1.64652 4.59065 0
M  V30 7978 H 727.074 0.481137 5.47691 0
M  V30 7979 H 728.299 0.519841 6.77107 0
M  V30 7980 H 726.245 -1.6825 6.34057 0
M  V30 7981 H 726.162 -0.441076 7.54712 0
M  V30 7982 H 727.43 -1.62782 7.62314 0
M  V30 7983 N 731.66 -1.50943 0.453197 0
M  V30 7984 C 732.608 -2.29728 -0.364419 0
M  V30 7985 C 733.602 -1.36246 -1.00664 0
M  V30 7986 O 734.808 -1.53518 -0.939794 0
M  V30 7987 H 731.183 -0.739536 -0.136347 0
M  V30 7988 H 733.154 -2.96672 0.320696 0
M  V30 7989 C 731.903 -3.1629 -1.44415 0
M  V30 7990 H 731.226 -3.88119 -0.959343 0
M  V30 7991 H 732.666 -3.74444 -1.98917 0
M  V30 7992 C 731.125 -2.32702 -2.43622 0
M  V30 7993 O 731.655 -1.99763 -3.48508 0
M  V30 7994 N 729.861 -1.95621 -2.14897 0
M  V30 7995 H 729.408 -2.22607 -1.29629 0
M  V30 7996 H 729.366 -1.39993 -2.81513 0
M  V30 7997 N 733.138 -0.185124 -1.56509 0
M  V30 7998 C 734.101 0.72591 -2.17401 0
M  V30 7999 C 735.101 1.14819 -1.12575 0
M  V30 8000 O 736.291 1.0629 -1.38015 0
M  V30 8001 C 733.423 1.98979 -2.76803 0
M  V30 8002 H 734.616 0.195588 -2.99262 0
M  V30 8003 H 732.169 0.0644772 -1.56167 0
M  V30 8004 H 732.904 2.56287 -1.98714 0
M  V30 8005 H 732.689 1.69583 -3.53531 0
M  V30 8006 H 734.179 2.63966 -3.23592 0
M  V30 8007 N 734.616 1.57351 0.0885366 0
M  V30 8008 C 735.548 1.99221 1.13329 0
M  V30 8009 C 736.561 0.895705 1.35945 0
M  V30 8010 O 737.75 1.17376 1.34481 0
M  V30 8011 C 734.85 2.3016 2.48756 0
M  V30 8012 C 734.023 3.61444 2.46327 0
M  V30 8013 C 733.082 3.80244 3.63732 0
M  V30 8014 O 732.108 4.52024 3.45924 0
M  V30 8015 N 733.31 3.2132 4.8346 0
M  V30 8016 H 736.075 2.89456 0.776862 0
M  V30 8017 H 733.636 1.59505 0.277428 0
M  V30 8018 H 735.628 2.39925 3.25911 0
M  V30 8019 H 734.198 1.459 2.76464 0
M  V30 8020 H 733.418 3.62588 1.54673 0
M  V30 8021 H 734.706 4.47678 2.41789 0
M  V30 8022 H 734.104 2.63028 5.00832 0
M  V30 8023 H 732.661 3.3656 5.58185 0
M  V30 8024 N 736.094 -0.359525 1.53444 0
M  V30 8025 C 737.342 -1.09935 1.69584 0
M  V30 8026 C 737.663 -1.89656 0.453371 0
M  V30 8027 O 736.933 -1.8852 -0.53263 0
M  V30 8028 H 735.513 -0.408843 0.625185 0
M  V30 8029 H 738.175 -0.40467 1.90653 0
M  V30 8030 H 737.271 -1.78575 2.55964 0
M  V30 8031 N 737.572 -1.44907 -0.619662 0
M  V30 8032 C 738.502 -1.55488 -1.742 0
M  V30 8033 C 739.483 -0.407143 -1.65156 0
M  V30 8034 O 740.668 -0.628743 -1.8374 0
M  V30 8035 C 737.798 -1.5097 -3.1277 0
M  V30 8036 C 736.752 -2.64337 -3.36615 0
M  V30 8037 C 736.078 -2.44872 -4.75333 0
M  V30 8038 C 737.378 -4.06423 -3.28051 0
M  V30 8039 H 739.072 -2.49432 -1.65602 0
M  V30 8040 H 736.618 -1.20047 -0.795281 0
M  V30 8041 H 738.571 -1.56971 -3.91073 0
M  V30 8042 H 737.295 -0.535486 -3.2218 0
M  V30 8043 H 735.954 -2.57744 -2.60698 0
M  V30 8044 H 735.602 -1.45617 -4.81461 0
M  V30 8045 H 735.302 -3.20888 -4.92244 0
M  V30 8046 H 736.826 -2.52709 -5.55851 0
M  V30 8047 H 738.24 -4.14324 -3.96243 0
M  V30 8048 H 736.637 -4.82733 -3.56495 0
M  V30 8049 H 737.707 -4.29183 -2.25676 0
M  V30 8050 N 739.05 0.861098 -1.31996 0
M  V30 8051 C 739.982 1.97551 -1.16216 0
M  V30 8052 C 740.995 1.625 -0.0988527 0
M  V30 8053 O 742.184 1.75091 -0.3472 0
M  V30 8054 C 739.284 3.30376 -0.755307 0
M  V30 8055 C 738.457 3.93711 -1.90552 0
M  V30 8056 C 737.516 5.04862 -1.48328 0
M  V30 8057 O 736.542 5.25204 -2.19431 0
M  V30 8058 N 737.744 5.79283 -0.375656 0
M  V30 8059 H 740.509 2.11632 -2.12208 0
M  V30 8060 H 738.07 1.03559 -1.24448 0
M  V30 8061 H 740.062 4.0213 -0.455364 0
M  V30 8062 H 738.632 3.12395 0.113269 0
M  V30 8063 H 737.852 3.14825 -2.37231 0
M  V30 8064 H 739.14 4.32762 -2.67571 0
M  V30 8065 H 738.538 5.65286 0.216284 0
M  V30 8066 H 737.095 6.5166 -0.135289 0
M  V30 8067 N 740.528 1.15101 1.07655 0
M  V30 8068 C 741.758 0.946357 1.83651 0
M  V30 8069 C 742.166 -0.508641 1.82235 0
M  V30 8070 O 741.509 -1.36445 1.22997 0
M  V30 8071 C 741.571 1.37945 3.31981 0
M  V30 8072 C 741.235 2.85155 3.57122 0
M  V30 8073 C 742.232 3.83234 3.51323 0
M  V30 8074 C 739.917 3.2275 3.84887 0
M  V30 8075 C 741.911 5.16914 3.72932 0
M  V30 8076 C 739.598 4.56604 4.06148 0
M  V30 8077 C 740.596 5.53495 4.00165 0
M  V30 8078 O 740.284 6.84931 4.20861 0
M  V30 8079 H 740.016 0.336368 0.586372 0
M  V30 8080 H 742.57 1.53198 1.36819 0
M  V30 8081 H 740.8 0.737205 3.79608 0
M  V30 8082 H 742.489 1.14439 3.89434 0
M  V30 8083 H 743.255 3.55535 3.29878 0
M  V30 8084 H 739.134 2.47921 3.88659 0
M  V30 8085 H 742.678 5.92529 3.68178 0
M  V30 8086 H 738.575 4.84019 4.27078 0
M  V30 8087 H 739.343 6.91304 4.38226 0
M  V30 8088 N 742.006 -1.2595 0.947325 0
M  V30 8089 C 743.236 -1.97258 0.614235 0
M  V30 8090 C 743.644 -1.70682 -0.816355 0
M  V30 8091 O 742.987 -0.97527 -1.55673 0
M  V30 8092 C 743.049 -3.50845 0.784081 0
M  V30 8093 C 742.713 -4.01084 2.19045 0
M  V30 8094 C 743.71 -4.12347 3.16648 0
M  V30 8095 C 741.395 -4.34936 2.51268 0
M  V30 8096 C 743.389 -4.56766 4.44572 0
M  V30 8097 C 741.076 -4.79043 3.79422 0
M  V30 8098 C 742.074 -4.89919 4.75887 0
M  V30 8099 O 741.762 -5.3305 6.01758 0
M  V30 8100 H 741.494 -0.635738 0.22981 0
M  V30 8101 H 744.048 -1.61268 1.27207 0
M  V30 8102 H 742.278 -3.86638 0.069101 0
M  V30 8103 H 743.967 -4.03363 0.453135 0
M  V30 8104 H 744.733 -3.86432 2.93079 0
M  V30 8105 H 740.612 -4.25702 1.76916 0
M  V30 8106 H 744.156 -4.6517 5.19868 0
M  V30 8107 H 740.053 -5.04402 4.02802 0
M  V30 8108 H 740.821 -5.51255 6.05029 0
M  V30 8109 N 743.484 -0.715051 -1.40445 0
M  V30 8110 C 744.432 -0.0509974 -2.32544 0
M  V30 8111 C 745.426 0.747602 -1.52011 0
M  V30 8112 O 746.632 0.651031 -1.67814 0
M  V30 8113 H 743.007 0.00231113 -0.751996 0
M  V30 8114 H 744.978 -0.84449 -2.86201 0
M  V30 8115 C 743.727 0.857101 -3.3697 0
M  V30 8116 H 743.05 0.252 -3.99005 0
M  V30 8117 H 744.49 1.28971 -4.03909 0
M  V30 8118 C 742.949 1.98231 -2.72408 0
M  V30 8119 O 743.479 3.07309 -2.58697 0
M  V30 8120 N 741.685 1.76577 -2.308 0
M  V30 8121 H 741.232 0.878641 -2.42152 0
M  V30 8122 H 741.19 2.52043 -1.87941 0
M  V30 8123 N 744.962 1.50701 -0.461195 0
M  V30 8124 C 746.373 1.867 -0.00370227 0
M  V30 8125 C 746.724 1.37673 1.39787 0
M  V30 8126 O 745.849 0.737515 2.03445 0
M  V30 8127 C 746.444 3.388 5.75786e-05 0
M  V30 8128 C 745.003 3.74247 0.402044 0
M  V30 8129 C 744.15 2.74549 -0.389652 0
M  V30 8130 H 747.101 1.43585 -0.675942 0
M  V30 8131 H 747.122 3.719 0.804414 0
M  V30 8132 H 746.634 3.74452 -1.02015 0
M  V30 8133 H 744.735 3.44192 1.42697 0
M  V30 8134 H 744.848 4.78973 0.110265 0
M  V30 8135 H 743.212 2.54226 0.155314 0
M  V30 8136 H 743.995 3.13044 -1.40919 0
M  V30 8137 N 746.441 0.193421 1.56409 0
M  V30 8138 C 747.351 -0.740112 2.2262 0
M  V30 8139 C 748.367 -1.23597 1.22474 0
M  V30 8140 O 749.543 -1.28348 1.55206 0
M  V30 8141 C 746.608 -1.94317 2.87127 0
M  V30 8142 C 745.669 -1.49205 4.02538 0
M  V30 8143 C 744.902 -2.63776 4.63959 0
M  V30 8144 O 745.125 -3.81215 4.24301 0
M  V30 8145 O 744.059 -2.36585 5.53454 0
M  V30 8146 H 747.885 -0.206238 3.02999 0
M  V30 8147 H 745.47 -0.0357938 1.49357 0
M  V30 8148 H 747.352 -2.64633 3.27944 0
M  V30 8149 H 746.027 -2.46568 2.09728 0
M  V30 8150 H 744.934 -0.757738 3.66346 0
M  V30 8151 H 746.267 -1.01622 4.81595 0
M  V30 8152 N 747.919 -1.57396 -0.0801906 0
M  V30 8153 C 748.829 -2.06451 -1.11423 0
M  V30 8154 C 749.845 -0.992352 -1.42928 0
M  V30 8155 O 751.021 -1.30651 -1.53272 0
M  V30 8156 C 748.086 -2.49164 -2.41077 0
M  V30 8157 C 747.147 -3.70641 -2.16619 0
M  V30 8158 C 746.38 -4.11307 -3.40092 0
M  V30 8159 O 746.603 -3.51922 -4.48895 0
M  V30 8160 O 745.537 -5.04157 -3.288 0
M  V30 8161 H 749.363 -2.94857 -0.727519 0
M  V30 8162 H 746.948 -1.46484 -0.293743 0
M  V30 8163 H 748.83 -2.77196 -3.17396 0
M  V30 8164 H 747.505 -1.6389 -2.79145 0
M  V30 8165 H 746.412 -3.47703 -1.38033 0
M  V30 8166 H 747.745 -4.5674 -1.83437 0
M  V30 8167 N 749.397 0.351382 -1.53633 0
M  V30 8168 C 750.307 1.45471 -1.84052 0
M  V30 8169 C 751.323 1.57945 -0.730015 0
M  V30 8170 O 752.499 1.73571 -1.02153 0
M  V30 8171 C 749.564 2.80562 -2.03681 0
M  V30 8172 C 748.625 2.77497 -3.27558 0
M  V30 8173 C 747.858 4.06144 -3.46241 0
M  V30 8174 O 748.081 5.03028 -2.68922 0
M  V30 8175 O 747.015 4.11092 -4.39645 0
M  V30 8176 H 750.841 1.22684 -2.77817 0
M  V30 8177 H 748.426 0.542827 -1.3919 0
M  V30 8178 H 750.308 3.6058 -2.18082 0
M  V30 8179 H 748.983 3.03296 -1.13106 0
M  V30 8180 H 747.89 1.96126 -3.18568 0
M  V30 8181 H 749.223 2.59716 -4.18101 0
M  V30 8182 N 750.875 1.45233 0.611969 0
M  V30 8183 C 751.808 1.48056 1.73651 0
M  V30 8184 C 752.786 0.337373 1.59061 0
M  V30 8185 O 753.97 0.537222 1.80683 0
M  V30 8186 C 751.097 1.33144 3.11433 0
M  V30 8187 C 750.143 2.51272 3.44623 0
M  V30 8188 S 750.976 4.13754 3.39953 0
M  V30 8189 C 752.132 4.013 4.80322 0
M  V30 8190 H 752.365 2.43205 1.70993 0
M  V30 8191 H 749.898 1.32763 0.788246 0
M  V30 8192 H 751.856 1.25228 3.90932 0
M  V30 8193 H 750.517 0.394734 3.1161 0
M  V30 8194 H 749.71 2.36753 4.44932 0
M  V30 8195 H 749.312 2.56027 2.72629 0
M  V30 8196 H 751.604 3.66174 5.7002 0
M  V30 8197 H 752.547 5.01506 4.99897 0
M  V30 8198 H 752.955 3.3303 4.55797 0
M  V30 8199 N 752.353 -0.854086 1.3245 0
M  V30 8200 C 753.283 -1.97827 1.24044 0
M  V30 8201 C 754.264 -1.69646 0.124166 0
M  V30 8202 O 755.449 -1.91687 0.31143 0
M  V30 8203 C 752.579 -3.33673 0.963324 0
M  V30 8204 C 751.533 -3.76207 2.04089 0
M  V30 8205 C 750.859 -5.0969 1.61618 0
M  V30 8206 C 752.159 -3.91612 3.45597 0
M  V30 8207 H 753.853 -2.05118 2.18099 0
M  V30 8208 H 751.399 -0.985489 1.04996 0
M  V30 8209 H 753.352 -4.11871 0.891061 0
M  V30 8210 H 752.076 -3.26597 -0.0128649 0
M  V30 8211 H 750.735 -3.0026 2.10332 0
M  V30 8212 H 750.383 -4.99072 0.627418 0
M  V30 8213 H 750.083 -5.3912 2.33717 0
M  V30 8214 H 751.607 -5.90381 1.55829 0
M  V30 8215 H 753.021 -4.60163 3.4194 0
M  V30 8216 H 751.418 -4.3246 4.16051 0
M  V30 8217 H 752.488 -2.9451 3.85217 0
M  V30 8218 N 753.831 -1.1567 -1.07043 0
M  V30 8219 C 755.071 -0.944089 -1.81291 0
M  V30 8220 C 755.435 0.519305 -1.84844 0
M  V30 8221 O 756.636 0.850357 -2.54995 0
M  V30 8222 C 754.907 -1.54528 -3.22267 0
M  V30 8223 S 756.466 -1.47623 -4.13223 0
M  V30 8224 H 753.284 -0.339696 -0.624602 0
M  V30 8225 H 755.886 -1.47277 -1.28568 0
M  V30 8226 H 754.59 -2.60321 -3.17271 0
M  V30 8227 H 754.121 -1.0156 -3.80065 0
M  V30 8228 H 756.136 -0.471261 -4.93957 0
M  V30 8229 N 755.309 1.25446 -0.953992 0
M  V30 8230 C 756.219 2.29632 -0.480264 0
M  V30 8231 C 757.235 1.68025 0.452071 0
M  V30 8232 O 758.411 1.98703 0.328472 0
M  V30 8233 C 755.476 3.45903 0.234974 0
M  V30 8234 C 754.537 4.22953 -0.735495 0
M  V30 8235 C 753.77 5.33672 -0.0542957 0
M  V30 8236 O 753.993 5.58477 1.16018 0
M  V30 8237 O 752.927 5.9734 -0.739509 0
M  V30 8238 H 756.753 2.72242 -1.34602 0
M  V30 8239 H 754.338 1.30883 -0.720419 0
M  V30 8240 H 756.22 4.16552 0.637341 0
M  V30 8241 H 754.895 3.05296 1.07592 0
M  V30 8242 H 753.802 3.54734 -1.18806 0
M  V30 8243 H 755.135 4.67341 -1.54444 0
M  V30 8244 N 756.787 0.722489 1.40064 0
M  V30 8245 C 758.033 0.265371 2.01056 0
M  V30 8246 C 758.366 -1.14062 1.57174 0
M  V30 8247 O 757.641 -1.77514 0.794916 0
M  V30 8248 C 757.924 0.353157 3.58364 0
M  V30 8249 C 757.777 1.79802 4.123 0
M  V30 8250 C 759.096 -0.271677 4.39261 0
M  V30 8251 H 756.215 0.0979002 0.730469 0
M  V30 8252 H 758.857 0.916289 1.66446 0
M  V30 8253 H 757.007 -0.201037 3.87979 0
M  V30 8254 H 758.679 2.40813 3.93455 0
M  V30 8255 H 756.922 2.32348 3.66329 0
M  V30 8256 H 757.593 1.81079 5.21454 0
M  V30 8257 H 760.069 0.200607 4.15616 0
M  V30 8258 H 758.945 -0.179843 5.48605 0
M  V30 8259 H 759.206 -1.35611 4.20787 0
M  V30 8260 N 758.265 -1.50454 0.469181 0
M  V30 8261 C 759.175 -2.32248 -0.331349 0
M  V30 8262 C 760.191 -1.42548 -0.997807 0
M  V30 8263 O 761.367 -1.75602 -0.9862 0
M  V30 8264 C 758.432 -3.17171 -1.40012 0
M  V30 8265 C 757.493 -4.2269 -0.750463 0
M  V30 8266 C 756.726 -5.03554 -1.76831 0
M  V30 8267 O 756.949 -4.85469 -2.99459 0
M  V30 8268 O 755.883 -5.86767 -1.3412 0
M  V30 8269 H 759.709 -3.01821 0.337279 0
M  V30 8270 H 757.294 -1.47602 0.231066 0
M  V30 8271 H 759.176 -3.69871 -2.01924 0
M  V30 8272 H 757.851 -2.50328 -2.05226 0
M  V30 8273 H 756.758 -3.73986 -0.0924446 0
M  V30 8274 H 758.091 -4.91997 -0.14131 0
M  V30 8275 N 759.743 -0.201713 -1.56304 0
M  V30 8276 C 760.992 0.435557 -1.96941 0
M  V30 8277 C 761.305 1.62299 -1.09172 0
M  V30 8278 O 762.511 2.32849 -1.3962 0
M  V30 8279 C 760.967 0.826298 -3.50286 0
M  V30 8280 C 760.575 -0.337216 -4.46729 0
M  V30 8281 C 762.319 1.43028 -3.99679 0
M  V30 8282 C 760.226 0.0748539 -5.91353 0
M  V30 8283 H 759.156 0.1665 -0.735387 0
M  V30 8284 H 761.807 -0.294781 -1.81117 0
M  V30 8285 H 760.189 1.61349 -3.61639 0
M  V30 8286 H 761.363 -1.11476 -4.47113 0
M  V30 8287 H 759.678 -0.853126 -4.07567 0
M  V30 8288 H 762.275 1.75115 -5.05212 0
M  V30 8289 H 762.618 2.33911 -3.44371 0
M  V30 8290 H 763.151 0.706924 -3.91468 0
M  V30 8291 H 759.89 -0.799957 -6.506 0
M  V30 8292 H 759.41 0.817122 -5.94208 0
M  V30 8293 H 761.089 0.508389 -6.45 0
M  V30 8294 N 761.222 1.57436 0.0718424 0
M  V30 8295 C 762.45 1.91474 0.783932 0
M  V30 8296 C 762.865 0.797669 1.71122 0
M  V30 8297 O 762.222 -0.228989 1.81058 0
M  V30 8298 C 762.273 3.25259 1.57761 0
M  V30 8299 O 761.994 4.3267 0.687596 0
M  V30 8300 C 763.495 3.7331 2.3907 0
M  V30 8301 H 760.715 0.632901 0.222885 0
M  V30 8302 H 763.259 2.04457 0.0421262 0
M  V30 8303 H 761.414 3.13804 2.27169 0
M  V30 8304 H 761.828 5.09641 1.23962 0
M  V30 8305 H 763.302 4.69551 2.90216 0
M  V30 8306 H 763.779 3.02318 3.18591 0
M  V30 8307 H 764.385 3.8771 1.74818 0
M  V30 8308 N 762.7 -0.34323 1.53817 0
M  V30 8309 C 763.647 -1.42153 1.81827 0
M  V30 8310 C 764.617 -1.52251 0.663996 0
M  V30 8311 O 765.802 -1.67784 0.908461 0
M  V30 8312 C 762.942 -2.78799 2.03384 0
M  V30 8313 C 762.055 -2.7749 3.31094 0
M  V30 8314 C 761.19 -4.05856 3.42717 0
M  V30 8315 C 760.229 -3.98776 4.64375 0
M  V30 8316 N 759.366 -5.18833 4.73029 0
M  V30 8317 H 764.206 -1.17567 2.73829 0
M  V30 8318 H 761.743 -0.569506 1.35628 0
M  V30 8319 H 763.701 -3.58211 2.13872 0
M  V30 8320 H 762.331 -3.01736 1.14696 0
M  V30 8321 H 761.383 -1.90182 3.29446 0
M  V30 8322 H 762.695 -2.68137 4.206 0
M  V30 8323 H 761.849 -4.93691 3.52638 0
M  V30 8324 H 760.588 -4.1799 2.51267 0
M  V30 8325 H 759.593 -3.09325 4.5453 0
M  V30 8326 H 760.818 -3.88224 5.57189 0
M  V30 8327 H 758.764 -5.31511 3.84489 0
M  V30 8328 H 758.681 -5.11737 5.56472 0
M  V30 8329 H 759.949 -6.08439 4.87261 0
M  V30 8330 N 764.178 -1.45556 -0.604258 0
M  V30 8331 C 765.126 -1.5482 -1.7359 0
M  V30 8332 C 766.12 -0.417966 -1.64163 0
M  V30 8333 O 767.326 -0.594007 -1.69916 0
M  V30 8334 H 763.701 -0.486352 -0.573556 0
M  V30 8335 H 765.672 -2.5001 -1.62903 0
M  V30 8336 C 764.421 -1.53521 -3.11972 0
M  V30 8337 H 763.744 -2.39818 -3.19886 0
M  V30 8338 H 765.184 -1.64061 -3.90973 0
M  V30 8339 C 763.643 -0.260191 -3.35894 0
M  V30 8340 O 764.173 0.658582 -3.96265 0
M  V30 8341 N 762.379 -0.154839 -2.90187 0
M  V30 8342 H 761.926 -0.903378 -2.4124 0
M  V30 8343 H 761.884 0.697437 -3.06567 0
M  V30 8344 N 765.656 0.84705 -1.32902 0
M  V30 8345 C 766.886 1.63166 -1.26729 0
M  V30 8346 C 767.294 1.88474 0.165595 0
M  V30 8347 O 766.637 1.45947 1.11558 0
M  V30 8348 C 766.699 3.0103 -1.96522 0
M  V30 8349 C 766.363 2.9873 -3.45846 0
M  V30 8350 C 767.36 2.75032 -4.41196 0
M  V30 8351 C 765.045 3.19125 -3.87898 0
M  V30 8352 C 767.039 2.71743 -5.76571 0
M  V30 8353 C 764.726 3.15462 -5.2338 0
M  V30 8354 C 765.724 2.91801 -6.17528 0
M  V30 8355 O 765.412 2.88027 -7.5053 0
M  V30 8356 H 765.144 0.51469 -0.438258 0
M  V30 8357 H 767.698 1.06383 -1.75704 0
M  V30 8358 H 765.928 3.59634 -1.42128 0
M  V30 8359 H 767.617 3.61821 -1.83958 0
M  V30 8360 H 768.383 2.59034 -4.10032 0
M  V30 8361 H 764.262 3.36565 -3.15032 0
M  V30 8362 H 767.806 2.53194 -6.5003 0
M  V30 8363 H 763.703 3.31006 -5.54171 0
M  V30 8364 H 764.471 3.03927 -7.59981 0
M  V30 8365 N 767.134 1.16236 1.06428 0
M  V30 8366 C 768.044 0.881976 2.1739 0
M  V30 8367 C 769.06 -0.145259 1.73393 0
M  V30 8368 O 770.236 0.0310558 2.01376 0
M  V30 8369 C 767.301 0.385496 3.4455 0
M  V30 8370 C 766.362 1.47779 4.03063 0
M  V30 8371 C 765.595 1.0049 5.24154 0
M  V30 8372 O 765.818 -0.145889 5.70213 0
M  V30 8373 O 764.752 1.79265 5.74585 0
M  V30 8374 H 768.578 1.80983 2.43883 0
M  V30 8375 H 766.163 0.942226 1.15942 0
M  V30 8376 H 768.045 0.115536 4.21242 0
M  V30 8377 H 766.72 -0.514369 3.19587 0
M  V30 8378 H 765.627 1.80147 3.27869 0
M  V30 8379 H 766.96 2.35291 4.32318 0
M  V30 8380 N 768.612 -1.24939 0.960631 0
M  V30 8381 C 769.575 -2.239 0.49006 0
M  V30 8382 C 770.575 -1.55497 -0.409535 0
M  V30 8383 O 771.765 -1.72978 -0.205984 0
M  V30 8384 C 768.897 -3.39654 -0.291193 0
M  V30 8385 H 770.09 -2.67044 1.36482 0
M  V30 8386 H 767.643 -1.37429 0.744505 0
M  V30 8387 H 768.378 -3.01939 -1.18336 0
M  V30 8388 H 768.163 -3.90496 0.354276 0
M  V30 8389 H 769.653 -4.13125 -0.609693 0
M  V30 8390 N 770.09 -0.729906 -1.39679 0
M  V30 8391 C 771.318 -0.285709 -2.04918 0
M  V30 8392 C 771.733 1.07765 -1.55023 0
M  V30 8393 O 771.09 1.67999 -0.712923 0
M  V30 8394 C 771.141 -0.272793 -3.60469 0
M  V30 8395 O 770.862 -1.58233 -4.08527 0
M  V30 8396 C 772.363 0.188199 -4.429 0
M  V30 8397 H 769.583 -0.125758 -0.65911 0
M  V30 8398 H 772.127 -0.992129 -1.78821 0
M  V30 8399 H 770.282 0.384699 -3.85485 0
M  V30 8400 H 770.696 -1.49245 -5.02818 0
M  V30 8401 H 772.17 0.14608 -5.51807 0
M  V30 8402 H 772.647 1.2326 -4.21549 0
M  V30 8403 H 773.253 -0.439541 -4.23023 0
M  V30 8404 N 771.568 1.50203 -0.477153 0
M  V30 8405 C 772.798 2.0647 0.0731427 0
M  V30 8406 C 773.206 1.3405 1.33518 0
M  V30 8407 O 772.549 0.405164 1.79176 0
M  V30 8408 C 772.611 3.57025 0.421121 0
M  V30 8409 C 772.275 4.50973 -0.739765 0
M  V30 8410 C 773.272 4.939 -1.62353 0
M  V30 8411 C 770.957 4.93581 -0.93181 0
M  V30 8412 C 772.951 5.78149 -2.6837 0
M  V30 8413 C 770.638 5.77612 -1.99519 0
M  V30 8414 C 771.636 6.19798 -2.86949 0
M  V30 8415 O 771.324 7.02152 -3.91456 0
M  V30 8416 H 771.056 0.675969 -0.00648243 0
M  V30 8417 H 773.61 1.94278 -0.66673 0
M  V30 8418 H 771.84 3.67141 1.21426 0
M  V30 8419 H 773.529 3.95632 0.907213 0
M  V30 8420 H 774.295 4.61646 -1.48687 0
M  V30 8421 H 770.174 4.60262 -0.260739 0
M  V30 8422 H 773.718 6.10997 -3.36643 0
M  V30 8423 H 769.615 6.09279 -2.13189 0
M  V30 8424 H 770.383 7.20414 -3.88518 0
M  V30 8425 N 773.046 0.209999 1.56195 0
M  V30 8426 C 774.292 -0.425442 1.98287 0
M  V30 8427 C 774.625 -1.60232 1.09724 0
M  V30 8428 O 773.9 -1.93902 0.152414 0
M  V30 8429 C 774.183 -0.871189 3.49403 0
M  V30 8430 C 774.036 0.308527 4.48741 0
M  V30 8431 C 775.355 -1.73146 4.04609 0
M  V30 8432 H 772.474 -0.153169 0.720908 0
M  V30 8433 H 775.116 0.303916 1.87554 0
M  V30 8434 H 773.266 -1.49266 3.58681 0
M  V30 8435 H 774.938 0.946487 4.51486 0
M  V30 8436 H 773.181 0.957878 4.23092 0
M  V30 8437 H 773.852 -0.0461143 5.51981 0
M  V30 8438 H 776.328 -1.2072 3.98203 0
M  V30 8439 H 775.204 -2.01228 5.10684 0
M  V30 8440 H 775.465 -2.69083 3.5078 0
M  V30 8441 N 774.524 -1.57472 -0.0634922 0
M  V30 8442 C 775.773 -1.86837 -0.759928 0
M  V30 8443 C 776.086 -0.803823 -1.7832 0
M  V30 8444 O 777.292 -0.985578 -2.52979 0
M  V30 8445 C 775.748 -3.31448 -1.4025 0
M  V30 8446 C 775.356 -4.46052 -0.417368 0
M  V30 8447 C 777.1 -3.70003 -2.08082 0
M  V30 8448 C 775.007 -5.81707 -1.06633 0
M  V30 8449 H 773.937 -0.697009 -0.287567 0
M  V30 8450 H 776.588 -1.83495 -0.0133914 0
M  V30 8451 H 774.97 -3.29427 -2.19759 0
M  V30 8452 H 776.144 -4.5948 0.348503 0
M  V30 8453 H 774.459 -4.16104 0.156955 0
M  V30 8454 H 777.056 -4.68653 -2.57426 0
M  V30 8455 H 777.399 -3.00226 -2.88393 0
M  V30 8456 H 777.932 -3.7405 -1.35394 0
M  V30 8457 H 774.671 -6.54798 -0.303374 0
M  V30 8458 H 774.191 -5.72064 -1.80286 0
M  V30 8459 H 775.87 -6.27317 -1.58376 0
M  V30 8460 N 776.003 0.335068 -1.53997 0
M  V30 8461 C 776.95 1.41187 -1.82579 0
M  V30 8462 C 777.92 1.51897 -0.672061 0
M  V30 8463 O 779.105 1.673 -0.917346 0
M  V30 8464 C 776.245 2.77717 -2.0486 0
M  V30 8465 C 775.358 2.7573 -3.32561 0
M  V30 8466 C 774.493 4.04032 -3.44864 0
M  V30 8467 C 773.532 3.96308 -4.66483 0
M  V30 8468 N 772.669 5.16317 -4.75774 0
M  V30 8469 H 777.509 1.16113 -2.74448 0
M  V30 8470 H 775.046 0.562305 -1.35928 0
M  V30 8471 H 777.004 3.57071 -2.15768 0
M  V30 8472 H 775.634 3.01124 -1.16294 0
M  V30 8473 H 774.686 1.88432 -3.3045 0
M  V30 8474 H 775.998 2.65902 -4.22016 0
M  V30 8475 H 775.152 4.91814 -3.55251 0
M  V30 8476 H 773.891 4.16652 -2.53481 0
M  V30 8477 H 772.896 3.06911 -4.56164 0
M  V30 8478 H 774.121 3.85263 -5.5924 0
M  V30 8479 H 772.067 5.29464 -3.87303 0
M  V30 8480 H 771.984 5.08779 -5.59178 0
M  V30 8481 H 773.252 6.05846 -4.9048 0
M  V30 8482 N 777.481 1.45874 0.596531 0
M  V30 8483 C 778.413 1.51408 1.7207 0
M  V30 8484 C 779.426 0.403738 1.57714 0
M  V30 8485 O 780.615 0.671384 1.65393 0
M  V30 8486 C 777.715 1.3652 3.10186 0
M  V30 8487 C 776.888 2.61428 3.50677 0
M  V30 8488 C 775.947 2.40937 4.67799 0
M  V30 8489 O 774.973 3.14602 4.74357 0
M  V30 8490 N 776.175 1.4621 5.61785 0
M  V30 8491 H 778.94 2.48333 1.67782 0
M  V30 8492 H 776.501 1.41755 0.782129 0
M  V30 8493 H 778.493 1.20606 3.86311 0
M  V30 8494 H 777.063 0.478302 3.08919 0
M  V30 8495 H 776.283 2.92381 2.644 0
M  V30 8496 H 777.571 3.44432 3.74491 0
M  V30 8497 H 776.969 0.854382 5.59211 0
M  V30 8498 H 775.526 1.36264 6.37397 0
M  V30 8499 N 778.959 -0.83999 1.33349 0
M  V30 8500 C 780.184 -1.63249 1.27924 0
M  V30 8501 C 780.609 -1.87523 -0.147193 0
M  V30 8502 O 779.967 -1.43853 -1.10345 0
M  V30 8503 C 780.015 -2.96046 2.05886 0
M  V30 8504 O 779.119 -3.87303 1.4167 0
M  V30 8505 H 778.46 -0.49715 0.440157 0
M  V30 8506 H 780.99 -1.04512 1.75893 0
M  V30 8507 H 781 -3.45752 2.16609 0
M  V30 8508 H 779.675 -2.77701 3.09605 0
M  V30 8509 H 778.252 -3.45789 1.39585 0
M  V30 8510 N 780.437 -1.16799 -1.0581 0
M  V30 8511 C 781.369 -0.836774 -2.13379 0
M  V30 8512 C 782.382 0.158116 -1.6203 0
M  V30 8513 O 783.571 -0.0673211 -1.78373 0
M  V30 8514 C 780.671 -0.225959 -3.38146 0
M  V30 8515 C 779.844 -1.26217 -4.18794 0
M  V30 8516 C 778.903 -0.670257 -5.21914 0
M  V30 8517 O 777.929 -1.34042 -5.53192 0
M  V30 8518 N 779.131 0.540683 -5.77977 0
M  V30 8519 H 781.896 -1.76257 -2.42391 0
M  V30 8520 H 779.457 -1.06599 -1.21853 0
M  V30 8521 H 781.449 0.18317 -4.04285 0
M  V30 8522 H 780.019 0.603494 -3.06719 0
M  V30 8523 H 779.239 -1.84729 -3.48237 0
M  V30 8524 H 780.527 -1.9613 -4.69479 0
M  V30 8525 H 779.925 1.10322 -5.54838 0
M  V30 8526 H 778.482 0.891958 -6.45668 0
M  V30 8527 N 781.915 1.24427 -0.967243 0
M  V30 8528 C 783.163 1.92107 -0.627638 0
M  V30 8529 C 783.484 1.75991 0.83978 0
M  V30 8530 O 782.754 1.13118 1.59941 0
M  V30 8531 H 781.334 0.710986 -0.229145 0
M  V30 8532 H 783.996 1.51331 -1.22821 0
M  V30 8533 H 783.092 2.99791 -0.867844 0
M  V30 8534 N 783.393 0.737304 1.3929 0
M  V30 8535 C 784.642 0.283129 1.99703 0
M  V30 8536 C 784.955 -1.13677 1.59176 0
M  V30 8537 O 786.161 -1.69058 2.12442 0
M  V30 8538 C 784.617 0.455262 3.57009 0
M  V30 8539 C 784.225 1.88319 4.06497 0
M  V30 8540 C 785.969 0.0629786 4.24453 0
M  V30 8541 C 783.876 2.00475 5.56385 0
M  V30 8542 H 782.806 0.102106 0.747054 0
M  V30 8543 H 785.457 0.911515 1.5926 0
M  V30 8544 H 783.839 -0.242057 3.9526 0
M  V30 8545 H 785.013 2.61265 3.79575 0
M  V30 8546 H 783.328 2.2289 3.51723 0
M  V30 8547 H 785.925 0.132787 5.34535 0
M  V30 8548 H 786.268 -0.982128 4.04549 0
M  V30 8549 H 786.801 0.71154 3.91385 0
M  V30 8550 H 783.54 3.03182 5.81172 0
M  V30 8551 H 783.06 1.31969 5.85102 0
M  V30 8552 H 784.739 1.787 6.21832 0
M  V30 8553 N 784.871 -1.49948 0.485112 0
M  V30 8554 C 785.801 -2.31675 -0.291364 0
M  V30 8555 C 786.782 -1.39216 -0.977383 0
M  V30 8556 O 787.967 -1.68133 -0.971855 0
M  V30 8557 C 785.097 -3.19326 -1.36558 0
M  V30 8558 C 784.051 -4.2045 -0.800359 0
M  V30 8559 C 783.377 -4.96931 -1.97391 0
M  V30 8560 C 784.677 -5.21925 0.197867 0
M  V30 8561 H 786.371 -2.96839 0.390775 0
M  V30 8562 H 783.917 -1.42749 0.189375 0
M  V30 8563 H 785.87 -3.75304 -1.91638 0
M  V30 8564 H 784.594 -2.52074 -2.07668 0
M  V30 8565 H 783.253 -3.65594 -0.271428 0
M  V30 8566 H 782.901 -4.26141 -2.67232 0
M  V30 8567 H 782.601 -5.65344 -1.60187 0
M  V30 8568 H 784.125 -5.55749 -2.52935 0
M  V30 8569 H 785.539 -5.72691 -0.264239 0
M  V30 8570 H 783.936 -5.98138 0.484908 0
M  V30 8571 H 785.006 -4.71809 1.11912 0
M  V30 8572 N 786.349 -0.21828 -1.56081 0
M  V30 8573 C 787.595 0.408181 -1.99262 0
M  V30 8574 C 787.95 1.57618 -1.10337 0
M  V30 8575 O 787.243 1.90991 -0.15263 0
M  V30 8576 C 787.437 0.894782 -3.46018 0
M  V30 8577 C 787.266 -0.224528 -4.49139 0
M  V30 8578 C 786.036 -0.689843 -5.00569 0
M  V30 8579 C 788.234 -1.04165 -5.03641 0
M  V30 8580 N 786.216 -1.78455 -5.8739 0
M  V30 8581 C 787.587 -1.98529 -5.87355 0
M  V30 8582 C 789.642 -1.08146 -4.86013 0
M  V30 8583 C 788.345 -2.96549 -6.55325 0
M  V30 8584 C 790.371 -2.04982 -5.5474 0
M  V30 8585 C 789.733 -2.98086 -6.38219 0
M  V30 8586 H 785.832 0.116127 -0.77333 0
M  V30 8587 H 788.416 -0.3293 -1.91895 0
M  V30 8588 H 786.587 1.60163 -3.53839 0
M  V30 8589 H 788.319 1.49379 -3.76122 0
M  V30 8590 H 785.074 -0.279021 -4.72777 0
M  V30 8591 H 785.498 -2.33381 -6.35502 0
M  V30 8592 H 790.14 -0.375581 -4.21129 0
M  V30 8593 H 787.858 -3.68101 -7.19394 0
M  V30 8594 H 791.444 -2.08732 -5.43067 0
M  V30 8595 H 790.324 -3.71794 -6.90463 0
M  V30 8596 N 787.827 1.57504 0.0551401 0
M  V30 8597 C 788.79 2.03826 1.04821 0
M  V30 8598 C 789.79 0.937968 1.30609 0
M  V30 8599 O 790.98 1.20237 1.2605 0
M  V30 8600 C 788.112 2.43309 2.38775 0
M  V30 8601 H 789.305 2.92802 0.6486 0
M  V30 8602 H 786.858 1.53368 0.301315 0
M  V30 8603 H 787.593 1.5741 2.83536 0
M  V30 8604 H 787.378 3.23615 2.21395 0
M  V30 8605 H 788.868 2.79666 3.10124 0
M  V30 8606 N 789.305 -0.326896 1.54172 0
M  V30 8607 C 790.553 -1.06313 1.71878 0
M  V30 8608 C 790.874 -1.88652 0.493498 0
M  V30 8609 O 790.144 -1.89608 -0.492522 0
M  V30 8610 H 788.724 -0.39549 0.633716 0
M  V30 8611 H 791.386 -0.364139 1.91468 0
M  V30 8612 H 790.482 -1.73105 2.59694 0
M  V30 8613 N 790.784 -1.46188 -0.588786 0
M  V30 8614 C 791.731 -1.56292 -1.69828 0
M  V30 8615 C 792.701 -0.407581 -1.61022 0
M  V30 8616 O 793.886 -0.623532 -1.80324 0
M  V30 8617 C 791.026 -1.55341 -3.08161 0
M  V30 8618 C 790.139 -2.81564 -3.27636 0
M  V30 8619 C 789.274 -2.72158 -4.56183 0
M  V30 8620 C 788.313 -3.93348 -4.68981 0
M  V30 8621 N 787.45 -3.82365 -5.88848 0
M  V30 8622 H 792.29 -2.51066 -1.6053 0
M  V30 8623 H 789.827 -1.24562 -0.782474 0
M  V30 8624 H 791.785 -1.52776 -3.88221 0
M  V30 8625 H 790.415 -0.641034 -3.16371 0
M  V30 8626 H 789.467 -2.94136 -2.41223 0
M  V30 8627 H 790.779 -3.714 -3.32962 0
M  V30 8628 H 789.933 -2.67665 -5.44464 0
M  V30 8629 H 788.672 -1.79953 -4.53286 0
M  V30 8630 H 787.677 -3.98181 -3.7912 0
M  V30 8631 H 788.902 -4.86643 -4.73662 0
M  V30 8632 H 786.848 -2.92942 -5.86959 0
M  V30 8633 H 786.765 -4.65851 -5.95415 0
M  V30 8634 H 788.033 -3.81836 -6.79575 0
M  V30 8635 N 792.262 0.832906 -1.33792 0
M  V30 8636 C 793.209 1.94314 -1.24541 0
M  V30 8637 C 794.179 1.65646 -0.122753 0
M  V30 8638 O 795.364 1.88394 -0.30204 0
M  V30 8639 C 792.504 3.30395 -0.996641 0
M  V30 8640 C 791.617 3.71422 -2.20612 0
M  V30 8641 C 790.752 4.96401 -1.89101 0
M  V30 8642 C 789.791 5.2998 -3.06247 0
M  V30 8643 N 788.928 6.46137 -2.74685 0
M  V30 8644 H 793.768 2.01559 -2.19495 0
M  V30 8645 H 791.305 0.986243 -1.09141 0
M  V30 8646 H 793.263 4.08803 -0.832817 0
M  V30 8647 H 791.893 3.22691 -0.0838242 0
M  V30 8648 H 790.945 2.88488 -2.47949 0
M  V30 8649 H 792.257 3.92215 -3.0817 0
M  V30 8650 H 791.411 5.82572 -1.69396 0
M  V30 8651 H 790.15 4.7759 -0.987882 0
M  V30 8652 H 789.155 4.42312 -3.26559 0
M  V30 8653 H 790.38 5.50737 -3.97323 0
M  V30 8654 H 788.326 6.28801 -1.86938 0
M  V30 8655 H 788.243 6.67054 -3.55774 0
M  V30 8656 H 789.511 7.35403 -2.58461 0
M  V30 8657 N 793.74 1.17359 1.05189 0
M  V30 8658 C 794.989 0.956412 1.77583 0
M  V30 8659 C 795.302 -0.516018 1.88671 0
M  V30 8660 O 796.508 -0.851401 2.57805 0
M  V30 8661 C 794.964 1.66203 3.19225 0
M  V30 8662 C 794.572 3.17299 3.16267 0
M  V30 8663 C 796.316 1.52725 3.96075 0
M  V30 8664 C 794.223 3.8055 4.52698 0
M  V30 8665 H 793.153 0.354204 0.665624 0
M  V30 8666 H 795.804 1.40612 1.17901 0
M  V30 8667 H 794.186 1.14006 3.79234 0
M  V30 8668 H 795.36 3.76431 2.65776 0
M  V30 8669 H 793.675 3.3079 2.52917 0
M  V30 8670 H 796.272 1.97351 4.96947 0
M  V30 8671 H 796.615 0.477803 4.13549 0
M  V30 8672 H 797.148 2.02139 3.42614 0
M  V30 8673 H 793.887 4.85492 4.4043 0
M  V30 8674 H 793.407 3.26206 5.03339 0
M  V30 8675 H 795.086 3.82757 5.21638 0
M  V30 8676 N 795.218 -1.23913 0.973828 0
M  V30 8677 C 796.151 -2.23647 0.45355 0
M  V30 8678 C 797.129 -1.55485 -0.475724 0
M  V30 8679 O 798.313 -1.84083 -0.405689 0
M  V30 8680 C 795.44 -3.36942 -0.344594 0
M  V30 8681 C 794.486 -4.23221 0.527859 0
M  V30 8682 S 795.319 -4.97877 1.97177 0
M  V30 8683 C 796.475 -6.14627 1.18258 0
M  V30 8684 H 796.708 -2.67433 1.29873 0
M  V30 8685 H 794.241 -1.33289 0.779322 0
M  V30 8686 H 796.199 -4.02647 -0.799103 0
M  V30 8687 H 794.86 -2.91703 -1.16482 0
M  V30 8688 H 794.053 -5.03928 -0.0852555 0
M  V30 8689 H 793.655 -3.6255 0.918344 0
M  V30 8690 H 795.947 -6.76066 0.440629 0
M  V30 8691 H 796.89 -6.80311 1.96425 0
M  V30 8692 H 797.298 -5.6009 0.704256 0
M  V30 8693 N 796.696 -0.74468 -1.38897 0
M  V30 8694 C 797.643 -0.111064 -2.30533 0
M  V30 8695 C 798.613 0.719276 -1.49719 0
M  V30 8696 O 799.798 0.677244 -1.78376 0
M  V30 8697 C 796.938 0.78292 -3.36102 0
M  V30 8698 C 796.051 -0.0610817 -4.31957 0
M  V30 8699 C 795.186 0.835075 -5.24595 0
M  V30 8700 C 794.225 -0.0130974 -6.12099 0
M  V30 8701 N 793.362 0.839525 -6.97063 0
M  V30 8702 H 798.202 -0.898113 -2.84144 0
M  V30 8703 H 795.739 -0.454537 -1.39901 0
M  V30 8704 H 797.697 1.31578 -3.95908 0
M  V30 8705 H 796.327 1.53585 -2.83922 0
M  V30 8706 H 795.379 -0.711469 -3.73687 0
M  V30 8707 H 796.691 -0.716482 -4.93627 0
M  V30 8708 H 795.845 1.43542 -5.89475 0
M  V30 8709 H 794.584 1.52423 -4.63269 0
M  V30 8710 H 793.589 -0.626179 -5.46223 0
M  V30 8711 H 794.814 -0.699181 -6.75491 0
M  V30 8712 H 792.76 1.5138 -6.38295 0
M  V30 8713 H 792.677 0.240823 -7.55616 0
M  V30 8714 H 793.945 1.42513 -7.66362 0
M  V30 8715 N 798.174 1.49689 -0.493057 0
M  V30 8716 C 799.137 2.27502 0.278485 0
M  V30 8717 C 800.137 1.33184 0.901037 0
M  V30 8718 O 801.327 1.56415 0.766801 0
M  V30 8719 C 798.459 3.10881 1.39878 0
M  V30 8720 H 799.652 2.97163 -0.404219 0
M  V30 8721 H 797.205 1.54324 -0.247774 0
M  V30 8722 H 797.94 2.45767 2.11587 0
M  V30 8723 H 797.725 3.80219 0.957924 0
M  V30 8724 H 799.215 3.69673 1.94247 0
M  V30 8725 N 799.652 0.226554 1.55963 0
M  V30 8726 C 800.6 -0.697922 2.21882 0
M  V30 8727 C 801.594 -1.19586 1.19981 0
M  V30 8728 O 802.8 -1.15511 1.38048 0
M  V30 8729 H 799.175 -0.243501 0.711485 0
M  V30 8730 H 801.146 -0.118576 2.98164 0
M  V30 8731 C 799.895 -1.89309 2.91646 0
M  V30 8732 H 799.218 -1.51906 3.69817 0
M  V30 8733 H 800.658 -2.51762 3.41162 0
M  V30 8734 C 799.117 -2.75162 1.94391 0
M  V30 8735 O 799.647 -3.74071 1.46402 0
M  V30 8736 N 797.853 -2.41302 1.61932 0
M  V30 8737 H 797.4 -1.60923 2.01151 0
M  V30 8738 H 797.358 -2.99023 0.971219 0
M  V30 8739 N 801.13 -1.57531 -0.0467866 0
M  V30 8740 C 802.077 -2.05387 -1.05285 0
M  V30 8741 C 803.047 -0.939385 -1.36985 0
M  V30 8742 O 804.232 -1.20877 -1.47626 0
M  V30 8743 C 801.372 -2.52343 -2.35408 0
M  V30 8744 C 800.485 -3.77512 -2.10022 0
M  V30 8745 C 799.62 -4.1315 -3.33887 0
M  V30 8746 C 798.659 -5.31286 -3.03976 0
M  V30 8747 N 797.796 -5.62441 -4.20243 0
M  V30 8748 H 802.636 -2.91095 -0.637788 0
M  V30 8749 H 800.173 -1.43939 -0.303322 0
M  V30 8750 H 802.131 -2.77628 -3.11413 0
M  V30 8751 H 800.761 -1.69577 -2.7467 0
M  V30 8752 H 799.813 -3.59417 -1.24594 0
M  V30 8753 H 801.125 -4.63644 -1.83945 0
M  V30 8754 H 800.279 -4.39469 -4.18273 0
M  V30 8755 H 799.018 -3.25634 -3.63062 0
M  V30 8756 H 798.023 -5.04738 -2.17991 0
M  V30 8757 H 799.248 -6.20441 -2.76098 0
M  V30 8758 H 797.194 -4.77885 -4.49402 0
M  V30 8759 H 797.111 -6.43046 -3.97528 0
M  V30 8760 H 798.379 -5.93327 -5.05553 0
M  V30 8761 N 802.608 0.318715 -1.54344 0
M  V30 8762 C 803.856 1.054 -1.72439 0
M  V30 8763 C 804.177 1.88388 -0.503495 0
M  V30 8764 O 803.447 1.89866 0.48246 0
M  V30 8765 H 802.027 0.392124 -0.635805 0
M  V30 8766 H 804.689 0.35398 -1.91659 0
M  V30 8767 H 803.785 1.71726 -2.60608 0
M  V30 8768 N 804.086 1.46499 0.581025 0
M  V30 8769 C 805.332 1.53108 1.33901 0
M  V30 8770 C 805.687 0.181007 1.91547 0
M  V30 8771 O 804.98 -0.810518 1.73612 0
M  V30 8772 C 805.174 2.56686 2.48691 0
M  V30 8773 C 805.003 4.01633 2.0229 0
M  V30 8774 C 803.773 4.69333 1.87228 0
M  V30 8775 C 805.971 4.89379 1.58154 0
M  V30 8776 N 803.953 5.98891 1.34917 0
M  V30 8777 C 805.324 6.08775 1.17445 0
M  V30 8778 C 807.379 4.76017 1.45987 0
M  V30 8779 C 806.082 7.16286 0.657805 0
M  V30 8780 C 808.108 5.83601 0.95726 0
M  V30 8781 C 807.47 7.02171 0.55996 0
M  V30 8782 H 803.569 0.61509 0.482896 0
M  V30 8783 H 806.153 1.83123 0.661361 0
M  V30 8784 H 804.324 2.28578 3.14017 0
M  V30 8785 H 806.056 2.5328 3.15644 0
M  V30 8786 H 802.811 4.24878 2.09226 0
M  V30 8787 H 803.235 6.67852 1.10917 0
M  V30 8788 H 807.877 3.84736 1.75322 0
M  V30 8789 H 805.595 8.07333 0.352047 0
M  V30 8790 H 809.181 5.75304 0.867007 0
M  V30 8791 H 808.061 7.84 0.177046 0
M  V30 8792 N 805.565 -0.825799 1.34232 0
M  V30 8793 C 806.79 -1.61883 1.29648 0
M  V30 8794 C 807.215 -1.87669 -0.127295 0
M  V30 8795 O 806.573 -1.45016 -1.08813 0
M  V30 8796 C 806.621 -2.93846 2.09014 0
M  V30 8797 O 805.725 -3.85778 1.4577 0
M  V30 8798 H 805.066 -0.492454 0.445405 0
M  V30 8799 H 807.596 -1.02641 1.76992 0
M  V30 8800 H 807.606 -3.43435 2.20264 0
M  V30 8801 H 806.281 -2.74401 3.12533 0
M  V30 8802 H 804.858 -3.4429 1.43245 0
M  V30 8803 N 807.043 -1.17915 -1.04565 0
M  V30 8804 C 808.271 -0.99616 -1.8134 0
M  V30 8805 C 808.686 0.455509 -1.83223 0
M  V30 8806 O 808.043 1.31636 -1.26405 0
M  V30 8807 C 808.094 -1.53758 -3.27171 0
M  V30 8808 O 807.815 -2.93241 -3.25486 0
M  V30 8809 C 809.316 -1.40007 -4.2061 0
M  V30 8810 H 806.536 -0.352055 -0.571225 0
M  V30 8811 H 809.08 -1.56349 -1.31815 0
M  V30 8812 H 807.235 -1.01213 -3.73945 0
M  V30 8813 H 807.649 -3.18392 -4.16805 0
M  V30 8814 H 809.123 -1.82695 -5.2089 0
M  V30 8815 H 809.6 -0.348054 -4.37819 0
M  V30 8816 H 810.206 -1.916 -3.79697 0
M  V30 8817 N 808.521 1.23394 -0.980386 0
M  V30 8818 C 809.767 1.92094 -0.650223 0
M  V30 8819 C 810.1 1.76309 0.814173 0
M  V30 8820 O 809.375 1.12406 1.5873 0
M  V30 8821 C 809.658 3.44713 -1.04139 0
M  V30 8822 C 809.511 3.69606 -2.56342 0
M  V30 8823 C 810.83 4.36191 -0.585296 0
M  V30 8824 H 807.949 0.697618 -0.237695 0
M  V30 8825 H 810.591 1.45517 -1.22167 0
M  V30 8826 H 808.741 3.84513 -0.55515 0
M  V30 8827 H 810.413 3.39288 -3.1254 0
M  V30 8828 H 808.656 3.14318 -2.98976 0
M  V30 8829 H 809.327 4.76441 -2.78762 0
M  V30 8830 H 811.803 4.03836 -1.00276 0
M  V30 8831 H 810.679 5.41679 -0.887428 0
M  V30 8832 H 810.94 4.39097 0.51438 0
M  V30 8833 N 809.999 0.752036 1.385 0
M  V30 8834 C 810.946 0.123288 2.3047 0
M  V30 8835 C 811.916 -0.711326 1.50098 0
M  V30 8836 O 813.101 -0.667775 1.78733 0
M  V30 8837 C 810.241 -0.765085 3.36512 0
M  V30 8838 C 809.354 0.0839885 4.31918 0
M  V30 8839 C 808.489 -0.807243 5.25031 0
M  V30 8840 C 807.528 0.0455583 6.12083 0
M  V30 8841 N 806.665 -0.802547 6.97498 0
M  V30 8842 H 811.505 0.913169 2.83664 0
M  V30 8843 H 809.042 0.46195 1.39658 0
M  V30 8844 H 811 -1.29476 3.966 0
M  V30 8845 H 809.63 -1.52077 2.84732 0
M  V30 8846 H 808.682 0.731276 3.73305 0
M  V30 8847 H 809.994 0.74265 4.9324 0
M  V30 8848 H 809.148 -1.40414 5.90228 0
M  V30 8849 H 807.887 -1.49964 4.64071 0
M  V30 8850 H 806.892 0.655137 5.45883 0
M  V30 8851 H 808.117 0.734994 6.75111 0
M  V30 8852 H 806.063 -1.47992 6.39089 0
M  V30 8853 H 805.98 -0.200747 7.55733 0
M  V30 8854 H 807.248 -1.38447 7.67107 0
M  V30 8855 N 811.477 -1.49425 0.500989 0
M  V30 8856 C 812.425 -2.30771 -0.291149 0
M  V30 8857 C 813.419 -1.3938 -0.962787 0
M  V30 8858 O 814.625 -1.56431 -0.890477 0
M  V30 8859 H 811 -0.743499 -0.11275 0
M  V30 8860 H 812.971 -2.95501 0.414917 0
M  V30 8861 C 811.72 -3.20725 -1.34279 0
M  V30 8862 H 811.043 -3.90975 -0.83538 0
M  V30 8863 H 812.483 -3.80583 -1.86903 0
M  V30 8864 C 810.942 -2.40334 -2.36095 0
M  V30 8865 O 811.472 -2.10749 -3.41976 0
M  V30 8866 N 809.678 -2.02359 -2.08565 0
M  V30 8867 H 809.225 -2.26619 -1.22482 0
M  V30 8868 H 809.183 -1.48878 -2.76916 0
M  V30 8869 N 812.955 -0.234822 -1.55841 0
M  V30 8870 C 813.885 0.664217 -2.23854 0
M  V30 8871 C 814.866 1.19076 -1.2147 0
M  V30 8872 O 816.051 1.23232 -1.50091 0
M  V30 8873 C 813.181 1.86666 -2.9287 0
M  V30 8874 C 812.135 1.47341 -4.01839 0
M  V30 8875 C 811.461 2.75571 -4.58219 0
M  V30 8876 C 812.761 0.653479 -5.18196 0
M  V30 8877 H 814.455 0.0971213 -2.99242 0
M  V30 8878 H 812.001 0.0452724 -1.43929 0
M  V30 8879 H 813.954 2.50116 -3.39146 0
M  V30 8880 H 812.678 2.45894 -2.1495 0
M  V30 8881 H 811.337 0.862314 -3.56314 0
M  V30 8882 H 810.985 3.32971 -3.77014 0
M  V30 8883 H 810.685 2.49987 -5.31771 0
M  V30 8884 H 812.209 3.39939 -5.07221 0
M  V30 8885 H 813.623 1.19198 -5.60771 0
M  V30 8886 H 812.02 0.494188 -5.98062 0
M  V30 8887 H 813.09 -0.337004 -4.83728 0
M  V30 8888 N 814.433 1.57553 0.0384317 0
M  V30 8889 C 815.366 2.01307 1.07475 0
M  V30 8890 C 816.344 0.895717 1.35704 0
M  V30 8891 O 817.528 1.16079 1.48519 0
M  V30 8892 C 814.655 2.37817 2.41165 0
M  V30 8893 C 813.701 3.599 2.28855 0
M  V30 8894 S 814.534 5.09418 1.65086 0
M  V30 8895 C 815.69 5.49162 3.00286 0
M  V30 8896 H 815.923 2.88892 0.702034 0
M  V30 8897 H 813.456 1.52394 0.248103 0
M  V30 8898 H 815.414 2.59524 3.18053 0
M  V30 8899 H 814.075 1.507 2.75587 0
M  V30 8900 H 813.268 3.83071 3.27525 0
M  V30 8901 H 812.87 3.37996 1.60109 0
M  V30 8902 H 815.162 5.49274 3.96617 0
M  V30 8903 H 816.105 6.49586 2.81858 0
M  V30 8904 H 816.513 4.76653 3.02427 0
M  V30 8905 N 815.911 -0.310526 1.54511 0
M  V30 8906 C 816.841 -1.38757 1.878 0
M  V30 8907 C 817.822 -1.53353 0.735991 0
M  V30 8908 O 819.007 -1.67018 0.990887 0
M  V30 8909 C 816.137 -2.75327 2.11689 0
M  V30 8910 C 815.091 -2.75506 3.27537 0
M  V30 8911 C 814.417 -4.15275 3.36824 0
M  V30 8912 C 815.717 -2.38093 4.64875 0
M  V30 8913 H 817.411 -1.11146 2.78005 0
M  V30 8914 H 814.957 -0.533232 1.33763 0
M  V30 8915 H 816.91 -3.50752 2.33562 0
M  V30 8916 H 815.634 -3.04443 1.18245 0
M  V30 8917 H 814.293 -2.02538 3.05572 0
M  V30 8918 H 813.941 -4.41553 2.40915 0
M  V30 8919 H 813.641 -4.16299 4.14692 0
M  V30 8920 H 815.165 -4.92493 3.60947 0
M  V30 8921 H 816.579 -3.03232 4.86542 0
M  V30 8922 H 814.976 -2.50345 5.45387 0
M  V30 8923 H 816.046 -1.33227 4.66239 0
M  V30 8924 N 817.389 -1.46805 -0.573248 0
M  V30 8925 C 818.319 -1.60951 -1.69165 0
M  V30 8926 C 819.3 -0.45948 -1.63777 0
M  V30 8927 O 820.485 -0.68688 -1.81647 0
M  V30 8928 C 817.615 -1.60844 -3.07809 0
M  V30 8929 C 816.569 -2.74913 -3.28035 0
M  V30 8930 C 815.895 -2.59871 -4.67302 0
M  V30 8931 C 817.195 -4.16654 -3.14955 0
M  V30 8932 H 818.889 -2.54574 -1.57582 0
M  V30 8933 H 816.435 -1.22516 -0.756686 0
M  V30 8934 H 818.388 -1.69334 -3.85881 0
M  V30 8935 H 817.112 -0.637714 -3.20314 0
M  V30 8936 H 815.771 -2.65908 -2.52366 0
M  V30 8937 H 815.419 -1.60861 -4.76585 0
M  V30 8938 H 815.119 -3.36386 -4.81786 0
M  V30 8939 H 816.643 -2.70265 -5.4753 0
M  V30 8940 H 818.057 -4.26721 -3.82861 0
M  V30 8941 H 816.454 -4.93831 -3.40956 0
M  V30 8942 H 817.524 -4.36146 -2.11908 0
M  V30 8943 N 818.867 0.818669 -1.34668 0
M  V30 8944 C 819.797 1.94468 -1.29245 0
M  V30 8945 C 820.778 1.69257 -0.169101 0
M  V30 8946 O 821.963 1.90794 -0.362143 0
M  V30 8947 C 819.093 3.31001 -1.05145 0
M  V30 8948 C 818.047 3.70663 -2.13992 0
M  V30 8949 C 817.373 5.05226 -1.75074 0
M  V30 8950 C 818.673 3.82312 -3.55858 0
M  V30 8951 H 820.367 1.99263 -2.2346 0
M  V30 8952 H 817.913 0.957304 -1.07572 0
M  V30 8953 H 819.866 4.09364 -0.999949 0
M  V30 8954 H 818.59 3.26517 -0.0737312 0
M  V30 8955 H 817.249 2.94578 -2.18219 0
M  V30 8956 H 816.897 4.97233 -0.759518 0
M  V30 8957 H 816.597 5.32734 -2.47928 0
M  V30 8958 H 818.121 5.86042 -1.71427 0
M  V30 8959 H 819.535 4.50935 -3.5402 0
M  V30 8960 H 817.932 4.21278 -4.2737 0
M  V30 8961 H 819.002 2.84193 -3.9289 0
M  V30 8962 N 820.346 1.18468 1.03938 0
M  V30 8963 C 821.278 0.870615 2.12021 0
M  V30 8964 C 822.291 -0.132318 1.62261 0
M  V30 8965 O 823.48 0.0956901 1.78243 0
M  V30 8966 C 820.58 0.279727 3.37744 0
M  V30 8967 C 819.753 1.32863 4.16733 0
M  V30 8968 C 818.812 0.753204 5.20781 0
M  V30 8969 O 817.838 1.42825 5.5099 0
M  V30 8970 N 819.04 -0.448664 5.78764 0
M  V30 8971 H 821.805 1.80091 2.39556 0
M  V30 8972 H 819.366 1.08524 1.20142 0
M  V30 8973 H 821.358 -0.118829 4.04526 0
M  V30 8974 H 819.928 -0.554621 3.07641 0
M  V30 8975 H 819.148 1.90245 3.45254 0
M  V30 8976 H 820.436 2.03574 4.66299 0
M  V30 8977 H 819.834 -1.01481 5.56523 0
M  V30 8978 H 818.391 -0.789125 6.47005 0
M  V30 8979 N 821.824 -1.22873 0.986916 0
M  V30 8980 C 822.774 -2.2237 0.503547 0
M  V30 8981 C 823.758 -1.55186 -0.424998 0
M  V30 8982 O 824.95 -1.75186 -0.252791 0
M  V30 8983 C 822.079 -3.42794 -0.186355 0
M  V30 8984 C 821.165 -4.17196 0.762143 0
M  V30 8985 N 821.556 -4.68453 1.9075 0
M  V30 8986 C 819.854 -4.42255 0.576797 0
M  V30 8987 C 820.555 -5.25126 2.50235 0
M  V30 8988 N 819.531 -5.13437 1.7856 0
M  V30 8989 H 823.333 -2.59636 1.37718 0
M  V30 8990 H 820.847 -1.38476 0.848415 0
M  V30 8991 H 822.844 -4.13256 -0.549993 0
M  V30 8992 H 821.504 -3.07042 -1.05619 0
M  V30 8993 H 822.515 -4.64595 2.28848 0
M  V30 8994 H 819.192 -4.16766 -0.247474 0
M  V30 8995 H 820.582 -5.75363 3.46997 0
M  V30 8996 N 823.302 -0.75937 -1.38099 0
M  V30 8997 C 824.548 -0.318584 -2.00282 0
M  V30 8998 C 824.881 1.09854 -1.60143 0
M  V30 8999 O 824.156 1.75344 -0.841702 0
M  V30 9000 C 824.439 -0.448047 -3.57302 0
M  V30 9001 C 824.292 -1.9067 -4.07388 0
M  V30 9002 C 825.611 0.155119 -4.39827 0
M  V30 9003 H 822.73 -0.117233 -0.727616 0
M  V30 9004 H 825.372 -0.960097 -1.63958 0
M  V30 9005 H 823.522 0.0981003 -3.88376 0
M  V30 9006 H 825.194 -2.5116 -3.86932 0
M  V30 9007 H 823.437 -2.41979 -3.6004 0
M  V30 9008 H 824.108 -1.94841 -5.1647 0
M  V30 9009 H 826.584 -0.31073 -4.14938 0
M  V30 9010 H 825.46 0.0343264 -5.48889 0
M  V30 9011 H 825.721 1.24407 -4.24235 0
M  V30 9012 N 824.78 1.49157 -0.508906 0
M  V30 9013 C 825.743 2.27784 0.25434 0
M  V30 9014 C 826.743 1.34132 0.88686 0
M  V30 9015 O 827.933 1.5722 0.750168 0
M  V30 9016 C 825.065 3.12347 1.36573 0
M  V30 9017 H 826.258 2.96718 -0.435714 0
M  V30 9018 H 823.811 1.54052 -0.264128 0
M  V30 9019 H 824.546 2.47997 2.08969 0
M  V30 9020 H 824.331 3.81213 0.917543 0
M  V30 9021 H 825.821 3.71712 1.90315 0
M  V30 9022 N 826.258 0.243083 1.55714 0
M  V30 9023 C 827.486 -0.386971 2.03249 0
M  V30 9024 C 827.901 -1.51812 1.12243 0
M  V30 9025 O 827.258 -1.81992 0.136119 0
M  V30 9026 C 827.309 -0.898361 3.5016 0
M  V30 9027 O 827.03 0.187708 4.37698 0
M  V30 9028 C 828.531 -1.59949 4.13438 0
M  V30 9029 H 825.751 -0.0923981 0.664608 0
M  V30 9030 H 828.295 0.365832 2.01201 0
M  V30 9031 H 826.45 -1.60136 3.52754 0
M  V30 9032 H 826.864 -0.200001 5.24119 0
M  V30 9033 H 828.338 -1.90907 5.17937 0
M  V30 9034 H 828.815 -2.52014 3.59702 0
M  V30 9035 H 829.421 -0.941163 4.14756 0
M  V30 9036 N 827.736 -1.57571 -0.0300757 0
M  V30 9037 C 828.646 -2.09892 -1.04798 0
M  V30 9038 C 829.662 -1.03732 -1.39698 0
M  V30 9039 O 830.838 -1.35461 -1.49038 0
M  V30 9040 C 827.903 -2.56707 -2.33028 0
M  V30 9041 C 826.964 -3.77345 -2.04718 0
M  V30 9042 C 826.197 -4.21918 -3.26834 0
M  V30 9043 O 826.42 -3.66025 -4.37472 0
M  V30 9044 O 825.354 -5.14362 -3.12594 0
M  V30 9045 H 829.18 -2.97023 -0.633344 0
M  V30 9046 H 826.765 -1.47344 -0.246991 0
M  V30 9047 H 828.647 -2.87154 -3.08417 0
M  V30 9048 H 827.322 -1.72688 -2.73789 0
M  V30 9049 H 826.229 -3.51919 -1.26901 0
M  V30 9050 H 827.562 -4.62345 -1.68813 0
M  V30 9051 N 829.214 0.302327 -1.54673 0
M  V30 9052 C 830.439 1.06103 -1.78205 0
M  V30 9053 C 830.864 1.80204 -0.53926 0
M  V30 9054 O 830.222 1.73975 0.510142 0
M  V30 9055 C 830.27 2.01829 -2.98827 0
M  V30 9056 O 829.374 3.10108 -2.71858 0
M  V30 9057 H 828.715 0.30487 -0.589873 0
M  V30 9058 H 831.245 0.340153 -2.01753 0
M  V30 9059 H 831.255 2.44319 -3.2676 0
M  V30 9060 H 829.93 1.473 -3.88942 0
M  V30 9061 H 828.507 2.72142 -2.54937 0
M  V30 9062 N 830.692 1.47107 0.565454 0
M  V30 9063 C 831.941 1.5257 1.31929 0
M  V30 9064 C 832.254 0.189092 1.94684 0
M  V30 9065 O 833.46 0.121657 2.71227 0
M  V30 9066 C 831.916 2.68914 2.39193 0
M  V30 9067 C 831.524 4.09069 1.82665 0
M  V30 9068 C 833.268 2.83663 3.1581 0
M  V30 9069 C 831.175 5.16726 2.87661 0
M  V30 9070 H 830.105 0.567869 0.496025 0
M  V30 9071 H 832.756 1.73361 0.60151 0
M  V30 9072 H 831.138 2.41486 3.13848 0
M  V30 9073 H 832.312 4.46364 1.14438 0
M  V30 9074 H 830.627 3.99135 1.1866 0
M  V30 9075 H 833.224 3.61261 3.94201 0
M  V30 9076 H 833.567 1.91804 3.69482 0
M  V30 9077 H 834.1 3.10821 2.48265 0
M  V30 9078 H 830.839 6.10433 2.38854 0
M  V30 9079 H 830.359 4.83957 3.54324 0
M  V30 9080 H 832.038 5.43319 3.51303 0
M  V30 9081 N 832.17 -0.811516 1.35101 0
M  V30 9082 C 833.398 -1.59981 1.31201 0
M  V30 9083 C 833.813 -1.8847 -0.111552 0
M  V30 9084 O 833.17 -1.48414 -1.06205 0
M  V30 9085 C 833.221 -2.934 2.11184 0
M  V30 9086 O 832.942 -2.66148 3.4799 0
M  V30 9087 C 834.443 -3.87776 2.14813 0
M  V30 9088 H 831.663 -0.496921 0.450899 0
M  V30 9089 H 834.207 -1.00886 1.77883 0
M  V30 9090 H 832.362 -3.49022 1.68115 0
M  V30 9091 H 832.776 -3.51301 3.89471 0
M  V30 9092 H 834.25 -4.7852 2.75178 0
M  V30 9093 H 834.727 -4.23997 1.14556 0
M  V30 9094 H 835.333 -3.3809 2.58022 0
M  V30 9095 N 833.648 -1.19017 -1.03309 0
M  V30 9096 C 835.064 -0.941483 -1.28873 0
M  V30 9097 C 835.264 0.388587 -1.97718 0
M  V30 9098 O 834.32 1.12111 -2.26246 0
M  V30 9099 C 835.633 -2.11249 -2.13996 0
M  V30 9100 C 837.181 -2.15164 -2.27318 0
M  V30 9101 C 837.656 -3.31704 -3.15811 0
M  V30 9102 N 839.147 -3.31613 -3.23399 0
M  V30 9103 C 839.882 -4.18431 -3.9205 0
M  V30 9104 N 839.378 -5.15397 -4.62966 0
M  V30 9105 N 841.171 -4.06321 -3.88406 0
M  V30 9106 H 833.322 -2.04599 -0.570343 0
M  V30 9107 H 835.585 -0.894406 -0.314232 0
M  V30 9108 H 835.291 -3.07482 -1.70727 0
M  V30 9109 H 835.165 -2.07955 -3.14697 0
M  V30 9110 H 837.552 -1.19504 -2.6982 0
M  V30 9111 H 837.633 -2.22513 -1.26182 0
M  V30 9112 H 837.277 -4.2764 -2.74019 0
M  V30 9113 H 837.207 -3.21592 -4.16997 0
M  V30 9114 H 839.698 -2.6142 -2.72888 0
M  V30 9115 H 840.011 -5.78 -5.12968 0
M  V30 9116 H 838.356 -5.19349 -4.61846 0
M  V30 9117 H 841.547 -3.29849 -3.3214 0
M  V30 9118 H 841.72 -4.74196 -4.41635 0
M  V30 9119 N 835.127 1.22348 -0.993418 0
M  V30 9120 C 836.373 1.91393 -0.67056 0
M  V30 9121 C 836.706 1.77163 0.795428 0
M  V30 9122 O 835.981 1.14084 1.57528 0
M  V30 9123 C 836.264 3.43589 -1.0779 0
M  V30 9124 C 836.117 3.66867 -2.60248 0
M  V30 9125 C 837.436 4.35545 -0.631527 0
M  V30 9126 H 834.555 0.695057 -0.24508 0
M  V30 9127 H 837.197 1.44213 -1.23703 0
M  V30 9128 H 835.347 3.83903 -0.595902 0
M  V30 9129 H 837.019 3.35954 -3.16121 0
M  V30 9130 H 835.262 3.1113 -3.02293 0
M  V30 9131 H 835.933 4.73457 -2.838 0
M  V30 9132 H 838.409 4.0275 -1.04554 0
M  V30 9133 H 837.285 5.40707 -0.944831 0
M  V30 9134 H 837.546 4.39618 0.467779 0
M  V30 9135 N 836.605 0.766683 1.37694 0
M  V30 9136 C 837.853 0.328065 1.9942 0
M  V30 9137 C 838.174 -1.09775 1.61166 0
M  V30 9138 O 837.444 -1.75288 0.874686 0
M  V30 9139 H 836.024 0.11831 0.737572 0
M  V30 9140 H 838.686 0.983686 1.68255 0
M  V30 9141 H 837.782 0.401647 3.09505 0
M  V30 9142 N 838.083 -1.48885 0.516809 0
M  V30 9143 C 839.03 -2.29408 -0.253125 0
M  V30 9144 C 840 -1.36533 -0.945935 0
M  V30 9145 O 841.185 -1.65495 -0.949527 0
M  V30 9146 C 838.325 -3.19592 -1.30211 0
M  V30 9147 C 837.438 -4.27535 -0.61948 0
M  V30 9148 C 836.573 -5.04916 -1.65026 0
M  V30 9149 C 835.612 -6.04677 -0.950368 0
M  V30 9150 N 834.749 -6.75164 -1.92608 0
M  V30 9151 H 839.589 -2.94738 0.439744 0
M  V30 9152 H 837.126 -1.45311 0.2287 0
M  V30 9153 H 839.084 -3.70267 -1.92245 0
M  V30 9154 H 837.714 -2.56213 -1.96353 0
M  V30 9155 H 836.766 -3.80228 0.114505 0
M  V30 9156 H 838.078 -4.98752 -0.0693016 0
M  V30 9157 H 837.232 -5.59539 -2.34523 0
M  V30 9158 H 835.971 -4.33508 -2.23432 0
M  V30 9159 H 834.976 -5.4927 -0.241252 0
M  V30 9160 H 836.201 -6.78077 -0.372599 0
M  V30 9161 H 834.147 -6.06517 -2.49946 0
M  V30 9162 H 834.064 -7.4241 -1.42699 0
M  V30 9163 H 835.332 -7.34384 -2.61345 0
M  V30 9164 N 839.561 -0.251338 -1.55583 0
M  V30 9165 C 840.801 0.373651 -2.00956 0
M  V30 9166 C 841.165 1.54806 -1.13574 0
M  V30 9167 O 842.366 2.24108 -1.48422 0
M  V30 9168 C 840.637 0.768919 -3.49031 0
M  V30 9169 S 842.196 1.38381 -4.16409 0
M  V30 9170 H 839.014 0.117371 -0.701245 0
M  V30 9171 H 841.616 -0.367611 -1.92013 0
M  V30 9172 H 840.32 -0.0950492 -4.1029 0
M  V30 9173 H 839.851 1.54225 -3.61909 0
M  V30 9174 H 841.866 2.6728 -4.18062 0
M  V30 9175 N 841.039 1.57585 0.0217189 0
M  V30 9176 C 842.45 1.7787 0.567377 0
M  V30 9177 C 842.801 0.883337 1.7519 0
M  V30 9178 O 841.926 0.0800819 2.16252 0
M  V30 9179 C 842.521 3.2257 1.03606 0
M  V30 9180 C 841.08 3.44026 1.52718 0
M  V30 9181 C 840.227 2.73313 0.468545 0
M  V30 9182 H 843.178 1.57377 -0.2045 0
M  V30 9183 H 843.199 3.29488 1.9031 0
M  V30 9184 H 842.711 3.87711 0.173739 0
M  V30 9185 H 840.812 2.8407 2.41111 0
M  V30 9186 H 840.925 4.52659 1.56962 0
M  V30 9187 H 839.289 2.37299 0.925263 0
M  V30 9188 H 840.072 3.41141 -0.384438 0
M  V30 9189 N 842.517 -0.29412 1.54831 0
M  V30 9190 C 843.745 -1.04724 1.78439 0
M  V30 9191 C 844.16 -1.80695 0.547239 0
M  V30 9192 O 843.517 -1.75989 -0.483141 0
M  V30 9193 C 843.568 -2.02242 2.99634 0
M  V30 9194 O 843.289 -1.29352 4.18568 0
M  V30 9195 C 844.79 -2.89537 3.35683 0
M  V30 9196 H 842.01 -0.310285 0.594949 0
M  V30 9197 H 844.554 -0.331306 2.01798 0
M  V30 9198 H 842.709 -2.69328 2.78462 0
M  V30 9199 H 843.123 -1.94901 4.86943 0
M  V30 9200 H 844.597 -3.538 4.23709 0
M  V30 9201 H 845.074 -3.58201 2.54143 0
M  V30 9202 H 845.68 -2.27973 3.59038 0
M  V30 9203 N 843.995 -1.47404 -0.557645 0
M  V30 9204 C 845.242 -1.54007 -1.31484 0
M  V30 9205 C 845.57 -0.202162 -1.93447 0
M  V30 9206 O 844.825 0.804901 -1.78381 0
M  V30 9207 C 845.124 -2.6061 -2.44575 0
M  V30 9208 C 844.79 -4.03896 -2.00446 0
M  V30 9209 C 843.452 -4.42901 -1.88127 0
M  V30 9210 C 845.804 -4.93804 -1.66754 0
M  V30 9211 C 843.132 -5.6965 -1.40411 0
M  V30 9212 C 845.484 -6.21016 -1.20509 0
M  V30 9213 C 844.148 -6.58903 -1.06786 0
M  V30 9214 H 843.418 -0.563552 -0.481134 0
M  V30 9215 H 846.065 -1.81001 -0.625375 0
M  V30 9216 H 844.37 -2.27371 -3.19076 0
M  V30 9217 H 846.067 -2.62941 -3.02759 0
M  V30 9218 H 842.657 -3.73077 -2.10977 0
M  V30 9219 H 846.841 -4.64369 -1.75144 0
M  V30 9220 H 842.097 -5.97755 -1.2845 0
M  V30 9221 H 846.271 -6.90095 -0.935001 0
M  V30 9222 H 843.898 -7.57008 -0.695891 0
M  V30 9223 N 845.473 0.80434 -1.35529 0
M  V30 9224 C 846.42 1.91629 -1.28635 0
M  V30 9225 C 847.39 1.65348 -0.157862 0
M  V30 9226 O 848.575 1.87711 -0.341934 0
M  V30 9227 C 845.715 3.28207 -1.0665 0
M  V30 9228 C 844.828 3.66659 -2.28441 0
M  V30 9229 C 843.963 4.92279 -1.99588 0
M  V30 9230 C 843.002 5.23365 -3.1742 0
M  V30 9231 N 842.139 6.40165 -2.88328 0
M  V30 9232 H 846.979 1.96858 -2.23721 0
M  V30 9233 H 844.516 0.962871 -1.11208 0
M  V30 9234 H 846.474 4.06945 -0.919343 0
M  V30 9235 H 845.104 3.22441 -0.152253 0
M  V30 9236 H 844.156 2.83164 -2.54013 0
M  V30 9237 H 845.468 3.8559 -3.1642 0
M  V30 9238 H 844.622 5.78847 -1.81715 0
M  V30 9239 H 843.361 4.75387 -1.08896 0
M  V30 9240 H 842.366 4.35285 -3.35867 0
M  V30 9241 H 843.591 5.42185 -4.08916 0
M  V30 9242 H 841.537 6.24694 -2.00233 0
M  V30 9243 H 841.454 6.59357 -3.69843 0
M  V30 9244 H 842.722 7.29755 -2.74002 0
M  V30 9245 N 846.951 1.19563 1.02676 0
M  V30 9246 C 848.197 1.00105 1.76371 0
M  V30 9247 C 848.53 -0.466823 1.88506 0
M  V30 9248 O 847.805 -1.34665 1.40341 0
M  V30 9249 C 848.088 1.67321 3.18866 0
M  V30 9250 C 847.941 3.21486 3.1459 0
M  V30 9251 C 849.26 1.39794 4.17308 0
M  V30 9252 H 846.379 0.365075 0.640226 0
M  V30 9253 H 849.021 1.47433 1.19848 0
M  V30 9254 H 847.171 1.27081 3.67128 0
M  V30 9255 H 848.843 3.70953 2.7421 0
M  V30 9256 H 847.086 3.5292 2.52249 0
M  V30 9257 H 847.757 3.63665 4.15273 0
M  V30 9258 H 850.233 1.74685 3.77657 0
M  V30 9259 H 849.109 1.89371 5.15199 0
M  V30 9260 H 849.37 0.323505 4.40915 0
M  V30 9261 N 848.429 -1.21819 0.999893 0
M  V30 9262 C 849.84 -1.72517 0.713775 0
M  V30 9263 C 850.191 -1.80505 -0.768922 0
M  V30 9264 O 849.316 -1.45611 -1.60083 0
M  V30 9265 C 849.911 -3.13321 1.28901 0
M  V30 9266 C 848.47 -3.61396 1.05212 0
M  V30 9267 C 847.617 -2.39074 1.40494 0
M  V30 9268 H 850.568 -1.07068 1.17141 0
M  V30 9269 H 850.589 -3.74535 0.671084 0
M  V30 9270 H 850.101 -3.07475 2.36814 0
M  V30 9271 H 848.202 -3.72599 -0.0100732 0
M  V30 9272 H 848.315 -4.47145 1.72042 0
M  V30 9273 H 846.679 -2.41015 0.823642 0
M  V30 9274 H 847.462 -2.35884 2.49427 0
M  V30 9275 N 849.908 -0.773975 -1.37286 0
M  V30 9276 C 851.155 -0.339306 -1.99637 0
M  V30 9277 C 851.483 1.08478 -1.61439 0
M  V30 9278 O 850.738 1.7612 -0.853252 0
M  V30 9279 C 851.037 -0.432651 -3.54772 0
M  V30 9280 C 850.703 -1.81531 -4.12744 0
M  V30 9281 C 849.365 -2.19366 -4.2829 0
M  V30 9282 C 851.717 -2.72137 -4.44512 0
M  V30 9283 C 849.045 -3.47239 -4.72908 0
M  V30 9284 C 851.397 -3.99421 -4.90556 0
M  V30 9285 C 850.061 -4.37298 -5.04308 0
M  V30 9286 H 849.331 -0.124161 -0.730524 0
M  V30 9287 H 851.978 -0.988432 -1.64019 0
M  V30 9288 H 850.283 0.30001 -3.9065 0
M  V30 9289 H 851.98 -0.0776 -4.00925 0
M  V30 9290 H 848.57 -1.51126 -4.01072 0
M  V30 9291 H 852.754 -2.44165 -4.32084 0
M  V30 9292 H 848.01 -3.76477 -4.81742 0
M  V30 9293 H 852.184 -4.69756 -5.14104 0
M  V30 9294 H 849.811 -5.36442 -5.38641 0
M  V30 9295 N 851.386 1.48609 -0.524698 0
M  V30 9296 C 852.614 2.06899 0.00742946 0
M  V30 9297 C 853.029 1.38196 1.28637 0
M  V30 9298 O 852.386 0.467771 1.76403 0
M  V30 9299 C 852.437 3.60699 0.240548 0
M  V30 9300 O 852.158 4.26821 -0.987715 0
M  V30 9301 C 853.659 4.35769 0.813652 0
M  V30 9302 H 850.879 0.670278 -0.0311294 0
M  V30 9303 H 853.423 1.91071 -0.728832 0
M  V30 9304 H 851.578 3.76149 0.926845 0
M  V30 9305 H 851.992 5.18889 -0.765175 0
M  V30 9306 H 853.466 5.44174 0.926219 0
M  V30 9307 H 853.943 3.9984 1.81728 0
M  V30 9308 H 854.549 4.24983 0.164086 0
M  V30 9309 N 852.864 0.259585 1.55447 0
M  V30 9310 C 853.811 -0.634578 2.21905 0
M  V30 9311 C 854.781 -1.16168 1.18719 0
M  V30 9312 O 855.966 -1.21383 1.4721 0
M  V30 9313 C 853.106 -1.82005 2.93203 0
M  V30 9314 C 852.219 -1.32828 4.11073 0
M  V30 9315 C 851.354 -2.47431 4.70055 0
M  V30 9316 C 850.393 -1.95179 5.80148 0
M  V30 9317 N 849.53 -3.03197 6.33258 0
M  V30 9318 H 854.37 -0.0611886 2.97937 0
M  V30 9319 H 851.907 -0.0184378 1.47088 0
M  V30 9320 H 853.865 -2.51664 3.32748 0
M  V30 9321 H 852.495 -2.36571 2.19622 0
M  V30 9322 H 851.547 -0.525301 3.76756 0
M  V30 9323 H 852.859 -0.905435 4.90513 0
M  V30 9324 H 852.013 -3.25111 5.12238 0
M  V30 9325 H 850.752 -2.93023 3.89857 0
M  V30 9326 H 849.757 -1.15974 5.37429 0
M  V30 9327 H 850.982 -1.50541 6.62204 0
M  V30 9328 H 848.928 -3.48199 5.55961 0
M  V30 9329 H 848.845 -2.65282 7.07928 0
M  V30 9330 H 850.113 -3.80898 6.80101 0
M  V30 9331 N 854.342 -1.57594 -0.0133615 0
M  V30 9332 C 855.252 -2.10991 -1.02566 0
M  V30 9333 C 856.268 -1.05208 -1.3859 0
M  V30 9334 O 857.444 -1.37034 -1.47593 0
M  V30 9335 C 854.509 -2.59165 -2.30292 0
M  V30 9336 C 853.57 -3.79495 -2.00704 0
M  V30 9337 C 852.803 -4.25361 -3.22341 0
M  V30 9338 O 853.026 -3.70645 -4.33565 0
M  V30 9339 O 851.96 -5.17649 -3.07121 0
M  V30 9340 H 855.786 -2.97678 -0.601806 0
M  V30 9341 H 853.371 -1.47598 -0.23135 0
M  V30 9342 H 855.253 -2.90409 -3.05354 0
M  V30 9343 H 853.928 -1.75582 -2.71942 0
M  V30 9344 H 852.835 -3.53245 -1.23161 0
M  V30 9345 H 854.168 -4.64109 -1.639 0
M  V30 9346 N 855.82 0.285905 -1.54985 0
M  V30 9347 C 856.752 1.37505 -1.83371 0
M  V30 9348 C 857.765 1.46138 -0.717454 0
M  V30 9349 O 858.954 1.48186 -0.995142 0
M  V30 9350 C 856.054 2.7575 -1.97016 0
M  V30 9351 C 855.227 2.89866 -3.27561 0
M  V30 9352 C 854.286 4.08704 -3.31433 0
M  V30 9353 O 853.312 4.00073 -4.04883 0
M  V30 9354 N 854.514 5.20062 -2.57907 0
M  V30 9355 H 857.279 1.13505 -2.77375 0
M  V30 9356 H 854.84 0.476006 -1.54744 0
M  V30 9357 H 856.832 3.5352 -1.96991 0
M  V30 9358 H 855.402 2.9263 -1.09938 0
M  V30 9359 H 854.622 1.99085 -3.40234 0
M  V30 9360 H 855.91 2.96219 -4.13681 0
M  V30 9361 H 855.308 5.29958 -1.97891 0
M  V30 9362 H 853.865 5.96111 -2.63619 0
M  V30 9363 N 857.298 1.47698 0.54982 0
M  V30 9364 C 858.544 1.54931 1.30859 0
M  V30 9365 C 858.877 0.214021 1.93017 0
M  V30 9366 O 858.152 -0.778093 1.78258 0
M  V30 9367 C 858.435 2.67286 2.41309 0
M  V30 9368 C 858.288 4.10457 1.83971 0
M  V30 9369 C 859.607 2.75509 3.43195 0
M  V30 9370 H 856.726 0.56399 0.474431 0
M  V30 9371 H 859.368 1.79787 0.614541 0
M  V30 9372 H 857.518 2.46224 3.0051 0
M  V30 9373 H 859.19 4.42903 1.28974 0
M  V30 9374 H 857.433 4.18387 1.14606 0
M  V30 9375 H 858.104 4.84857 2.63851 0
M  V30 9376 H 860.58 2.94531 2.93923 0
M  V30 9377 H 859.456 3.55886 4.17895 0
M  V30 9378 H 859.717 1.82863 4.02509 0
M  V30 9379 N 858.776 -0.797141 1.35954 0
M  V30 9380 C 859.709 -1.91567 1.24005 0
M  V30 9381 C 860.687 -1.62112 0.125868 0
M  V30 9382 O 861.871 -1.86167 0.295638 0
M  V30 9383 C 858.998 -3.26204 0.911535 0
M  V30 9384 C 858.044 -3.74598 2.03909 0
M  V30 9385 S 858.877 -3.91276 3.656 0
M  V30 9386 C 860.033 -5.288 3.34846 0
M  V30 9387 H 860.266 -2.0141 2.18681 0
M  V30 9388 H 857.799 -0.955542 1.2128 0
M  V30 9389 H 859.757 -4.03979 0.728805 0
M  V30 9390 H 858.418 -3.14095 -0.0173159 0
M  V30 9391 H 857.611 -4.72137 1.7636 0
M  V30 9392 H 857.213 -3.03849 2.18064 0
M  V30 9393 H 859.505 -6.13117 2.8826 0
M  V30 9394 H 860.448 -5.61347 4.31619 0
M  V30 9395 H 860.856 -4.95534 2.70382 0
M  V30 9396 N 860.254 -1.20106 -1.0204 0
M  V30 9397 C 861.5 -1.02042 -1.75951 0
M  V30 9398 C 861.855 0.443229 -1.87225 0
M  V30 9399 O 861.148 1.32477 -1.38421 0
M  V30 9400 C 861.342 -1.63308 -3.17908 0
M  V30 9401 C 861.171 -3.15478 -3.20474 0
M  V30 9402 C 859.941 -3.84432 -3.27933 0
M  V30 9403 C 862.139 -4.12747 -3.06829 0
M  V30 9404 N 860.121 -5.23925 -3.19963 0
M  V30 9405 C 861.492 -5.38892 -3.06586 0
M  V30 9406 C 863.547 -4.03996 -2.91018 0
M  V30 9407 C 862.25 -6.57296 -2.92154 0
M  V30 9408 C 864.276 -5.22019 -2.77938 0
M  V30 9409 C 863.638 -6.47067 -2.78358 0
M  V30 9410 H 859.737 -0.427602 -0.654737 0
M  V30 9411 H 862.321 -1.52216 -1.21402 0
M  V30 9412 H 860.492 -1.15723 -3.7076 0
M  V30 9413 H 862.224 -1.38597 -3.80227 0
M  V30 9414 H 858.979 -3.35269 -3.34502 0
M  V30 9415 H 859.403 -5.9694 -3.19362 0
M  V30 9416 H 864.045 -3.0813 -2.8951 0
M  V30 9417 H 861.763 -7.5334 -2.92412 0
M  V30 9418 H 865.349 -5.17057 -2.66728 0
M  V30 9419 H 864.229 -7.36857 -2.6835 0
M  V30 9420 N 861.732 1.21287 -1.00634 0
M  V30 9421 C 862.642 2.27388 -0.577226 0
M  V30 9422 C 863.658 1.69791 0.380399 0
M  V30 9423 O 864.834 1.99918 0.2439 0
M  V30 9424 C 861.899 3.46588 0.0880532 0
M  V30 9425 C 860.96 4.19453 -0.914222 0
M  V30 9426 C 860.193 5.32962 -0.280596 0
M  V30 9427 O 860.416 5.62895 0.922265 0
M  V30 9428 O 859.35 5.93666 -0.992196 0
M  V30 9429 H 863.176 2.66289 -1.46028 0
M  V30 9430 H 860.761 1.2771 -0.775283 0
M  V30 9431 H 862.643 4.18881 0.460094 0
M  V30 9432 H 861.318 3.09585 0.945461 0
M  V30 9433 H 860.225 3.49376 -1.33744 0
M  V30 9434 H 861.558 4.6037 -1.74126 0
M  V30 9435 N 863.21 0.781244 1.36873 0
M  V30 9436 C 864.143 0.120106 2.27884 0
M  V30 9437 C 865.121 -0.698961 1.4681 0
M  V30 9438 O 866.305 -0.671694 1.76126 0
M  V30 9439 C 863.432 -0.835804 3.28226 0
M  V30 9440 C 862.478 -0.0995527 4.26384 0
M  V30 9441 S 863.311 1.21903 5.2144 0
M  V30 9442 C 864.467 0.266904 6.25331 0
M  V30 9443 H 864.7 0.891796 2.83609 0
M  V30 9444 H 862.233 0.575075 1.43291 0
M  V30 9445 H 864.191 -1.3819 3.86541 0
M  V30 9446 H 862.852 -1.58068 2.71428 0
M  V30 9447 H 862.045 -0.82457 4.97209 0
M  V30 9448 H 861.647 0.375818 3.72107 0
M  V30 9449 H 863.939 -0.55725 6.75204 0
M  V30 9450 H 864.882 0.943603 7.01785 0
M  V30 9451 H 865.29 -0.126121 5.64359 0
M  V30 9452 N 864.689 -1.48329 0.532571 0
M  V30 9453 C 865.621 -2.27652 -0.265931 0
M  V30 9454 C 866.634 -1.35522 -0.902083 0
M  V30 9455 O 867.823 -1.60552 -0.780088 0
M  V30 9456 C 864.923 -3.0899 -1.39207 0
M  V30 9457 C 864.096 -4.28915 -0.857349 0
M  V30 9458 C 863.155 -4.92044 -1.86493 0
M  V30 9459 O 862.181 -5.51181 -1.42084 0
M  V30 9460 N 863.383 -4.84518 -3.19723 0
M  V30 9461 H 866.148 -2.96821 0.414389 0
M  V30 9462 H 863.709 -1.57684 0.367066 0
M  V30 9463 H 865.701 -3.48091 -2.06433 0
M  V30 9464 H 864.271 -2.42224 -1.97601 0
M  V30 9465 H 863.491 -3.94199 -0.00901765 0
M  V30 9466 H 864.779 -5.0654 -0.479025 0
M  V30 9467 H 864.177 -4.37628 -3.58467 0
M  V30 9468 H 862.734 -5.27712 -3.82575 0
M  V30 9469 N 866.167 -0.267825 -1.55308 0
M  V30 9470 C 867.114 0.6228 -2.22238 0
M  V30 9471 C 868.084 1.15536 -1.19334 0
M  V30 9472 O 869.269 1.206 -1.47852 0
M  V30 9473 C 866.409 1.80447 -2.94164 0
M  V30 9474 C 865.522 1.30646 -4.11771 0
M  V30 9475 C 864.657 2.44935 -4.7136 0
M  V30 9476 C 863.696 1.92099 -5.81175 0
M  V30 9477 N 862.833 2.99834 -6.34857 0
M  V30 9478 H 867.673 0.0453874 -2.97965 0
M  V30 9479 H 865.21 0.0106371 -1.47096 0
M  V30 9480 H 867.168 2.49896 -3.34078 0
M  V30 9481 H 865.798 2.35403 -2.20874 0
M  V30 9482 H 864.85 0.505314 -3.77029 0
M  V30 9483 H 866.162 0.879409 -4.90987 0
M  V30 9484 H 865.316 3.2239 -5.13955 0
M  V30 9485 H 864.055 2.90951 -3.91406 0
M  V30 9486 H 863.06 1.13122 -5.38037 0
M  V30 9487 H 864.285 1.47027 -6.62993 0
M  V30 9488 H 862.231 3.45246 -5.578 0
M  V30 9489 H 862.148 2.61524 -7.09324 0
M  V30 9490 H 863.416 3.77286 -6.82111 0
M  V30 9491 N 867.645 1.57599 0.00500368 0
M  V30 9492 C 868.893 1.89973 0.68953 0
M  V30 9493 C 869.214 0.868531 1.7459 0
M  V30 9494 O 868.484 -0.0947367 1.95671 0
M  V30 9495 H 867.064 0.701153 0.25767 0
M  V30 9496 H 869.726 1.94869 -0.0347392 0
M  V30 9497 H 868.822 2.89584 1.16394 0
M  V30 9498 N 869.123 -0.277682 1.55134 0
M  V30 9499 C 870.369 -1.00733 1.76704 0
M  V30 9500 C 870.724 -1.84107 0.55879 0
M  V30 9501 O 870.017 -1.86275 -0.448591 0
M  V30 9502 C 870.211 -1.92599 3.01065 0
M  V30 9503 C 870.04 -1.18266 4.3387 0
M  V30 9504 C 868.81 -0.900254 4.97216 0
M  V30 9505 C 871.008 -0.575419 5.11071 0
M  V30 9506 N 868.99 -0.129637 6.13763 0
M  V30 9507 C 870.361 0.0612637 6.1997 0
M  V30 9508 C 872.416 -0.482794 4.95554 0
M  V30 9509 C 871.119 0.781637 7.15041 0
M  V30 9510 C 873.145 0.223977 5.90976 0
M  V30 9511 C 872.507 0.849416 6.9926 0
M  V30 9512 H 868.606 -0.35075 0.698927 0
M  V30 9513 H 871.19 -0.283482 1.92625 0
M  V30 9514 H 869.361 -2.62214 2.86528 0
M  V30 9515 H 871.093 -2.5889 3.1106 0
M  V30 9516 H 867.848 -1.20434 4.58031 0
M  V30 9517 H 868.272 0.242865 6.76564 0
M  V30 9518 H 872.914 -0.952023 4.11942 0
M  V30 9519 H 870.632 1.26256 7.98176 0
M  V30 9520 H 874.218 0.2959 5.81047 0
M  V30 9521 H 873.098 1.3876 7.71826 0
M  V30 9522 N 870.601 -1.47988 -0.541979 0
M  V30 9523 C 871.831 -1.58804 -1.32155 0
M  V30 9524 C 872.239 -0.242893 -1.87634 0
M  V30 9525 O 871.582 0.776239 -1.66494 0
M  V30 9526 C 871.644 -2.56567 -2.51821 0
M  V30 9527 C 871.308 -4.01915 -2.17517 0
M  V30 9528 C 872.305 -4.89954 -1.73901 0
M  V30 9529 C 869.99 -4.47365 -2.28408 0
M  V30 9530 C 871.984 -6.21467 -1.41625 0
M  V30 9531 C 869.671 -5.78902 -1.95745 0
M  V30 9532 C 870.669 -6.65775 -1.52423 0
M  V30 9533 O 870.357 -7.94866 -1.20183 0
M  V30 9534 H 870.089 -0.538536 -0.408601 0
M  V30 9535 H 872.643 -1.94446 -0.661818 0
M  V30 9536 H 870.873 -2.16023 -3.20735 0
M  V30 9537 H 872.562 -2.57347 -3.13891 0
M  V30 9538 H 873.328 -4.56082 -1.64966 0
M  V30 9539 H 869.207 -3.79942 -2.61084 0
M  V30 9540 H 872.751 -6.8923 -1.07738 0
M  V30 9541 H 868.648 -6.12311 -2.04316 0
M  V30 9542 H 869.416 -8.07509 -1.33683 0
M  V30 9543 N 872.079 0.78992 -1.36375 0
M  V30 9544 C 873.309 1.57644 -1.33536 0
M  V30 9545 C 873.717 1.89007 0.0855075 0
M  V30 9546 O 873.06 1.50547 1.05267 0
M  V30 9547 C 873.122 2.92424 -2.09113 0
M  V30 9548 C 872.786 2.83793 -3.58205 0
M  V30 9549 C 873.783 2.56072 -4.52464 0
M  V30 9550 C 871.468 3.02386 -4.01084 0
M  V30 9551 C 873.462 2.47044 -5.87578 0
M  V30 9552 C 871.149 2.9298 -5.36289 0
M  V30 9553 C 872.147 2.65347 -6.29349 0
M  V30 9554 O 871.835 2.55935 -7.62071 0
M  V30 9555 H 871.567 0.495639 -0.459694 0
M  V30 9556 H 874.121 0.988354 -1.80058 0
M  V30 9557 H 872.351 3.53282 -1.57254 0
M  V30 9558 H 874.04 3.53693 -1.99139 0
M  V30 9559 H 874.806 2.4141 -4.2065 0
M  V30 9560 H 870.685 3.229 -3.29023 0
M  V30 9561 H 874.229 2.25396 -6.60184 0
M  V30 9562 H 870.126 3.07204 -5.67711 0
M  V30 9563 H 870.894 2.7142 -7.72187 0
M  V30 9564 N 873.557 1.20646 1.01402 0
M  V30 9565 C 874.782 1.04462 1.79172 0
M  V30 9566 C 875.207 -0.401588 1.83763 0
M  V30 9567 O 874.565 -1.28934 1.27459 0
M  V30 9568 C 874.613 1.63583 3.21361 0
M  V30 9569 O 873.717 0.875198 4.03006 0
M  V30 9570 H 873.058 0.368235 0.552539 0
M  V30 9571 H 875.588 1.59994 1.27526 0
M  V30 9572 H 875.598 1.67426 3.72065 0
M  V30 9573 H 874.273 2.68835 3.17334 0
M  V30 9574 H 872.85 0.911172 3.61597 0
M  V30 9575 N 875.035 -1.20752 1.01276 0
M  V30 9576 C 876.281 -1.90582 0.710627 0
M  V30 9577 C 876.636 -1.7713 -0.751184 0
M  V30 9578 O 875.929 -1.14223 -1.5383 0
M  V30 9579 C 876.123 -3.40808 1.07633 0
M  V30 9580 C 875.952 -3.68878 2.57214 0
M  V30 9581 C 874.722 -3.87805 3.23937 0
M  V30 9582 C 876.92 -3.71753 3.55393 0
M  V30 9583 N 874.902 -4.0336 4.62789 0
M  V30 9584 C 876.273 -3.92686 4.79789 0
M  V30 9585 C 878.328 -3.54697 3.4942 0
M  V30 9586 C 877.031 -3.98332 5.98936 0
M  V30 9587 C 879.057 -3.61612 4.67964 0
M  V30 9588 C 878.419 -3.83014 5.91168 0
M  V30 9589 H 874.518 -0.717219 0.311643 0
M  V30 9590 H 877.102 -1.45228 1.2968 0
M  V30 9591 H 875.273 -3.84923 0.518527 0
M  V30 9592 H 877.005 -3.98096 0.728128 0
M  V30 9593 H 873.76 -3.86029 2.74369 0
M  V30 9594 H 874.184 -4.15023 5.34869 0
M  V30 9595 H 878.826 -3.3712 2.55166 0
M  V30 9596 H 876.544 -4.14706 6.93574 0
M  V30 9597 H 880.13 -3.49728 4.64954 0
M  V30 9598 H 879.01 -3.88219 6.81363 0
M  V30 9599 N 876.513 -0.788492 -1.36457 0
M  V30 9600 C 877.443 -0.200468 -2.32638 0
M  V30 9601 C 878.424 0.664031 -1.56603 0
M  V30 9602 O 879.609 0.598045 -1.84762 0
M  V30 9603 C 876.739 0.666274 -3.40849 0
M  V30 9604 C 875.693 -0.0982574 -4.27887 0
M  V30 9605 C 875.019 0.889018 -5.27258 0
M  V30 9606 C 876.319 -1.28692 -5.06197 0
M  V30 9607 H 878.013 -1.00399 -2.82065 0
M  V30 9608 H 875.559 -0.484237 -1.35614 0
M  V30 9609 H 877.512 1.08757 -4.07124 0
M  V30 9610 H 876.236 1.50249 -2.89987 0
M  V30 9611 H 874.895 -0.500525 -3.63167 0
M  V30 9612 H 874.543 1.72024 -4.7267 0
M  V30 9613 H 874.243 0.381909 -5.86358 0
M  V30 9614 H 875.767 1.30891 -5.96406 0
M  V30 9615 H 877.181 -0.941429 -5.65517 0
M  V30 9616 H 875.578 -1.72726 -5.74705 0
M  V30 9617 H 876.648 -2.08273 -4.37893 0
M  V30 9618 N 877.991 1.48044 -0.54043 0
M  V30 9619 C 879.402 1.86418 -0.102662 0
M  V30 9620 C 879.753 1.4489 1.32293 0
M  V30 9621 O 878.878 0.844319 1.99249 0
M  V30 9622 C 879.473 3.38324 -0.179533 0
M  V30 9623 C 878.032 3.75852 0.203098 0
M  V30 9624 C 877.179 2.72097 -0.534637 0
M  V30 9625 H 880.13 1.398 -0.751103 0
M  V30 9626 H 880.151 3.75641 0.606147 0
M  V30 9627 H 879.663 3.68518 -1.21721 0
M  V30 9628 H 877.764 3.51272 1.24252 0
M  V30 9629 H 877.877 4.78884 -0.143784 0
M  V30 9630 H 876.241 2.54692 0.0203358 0
M  V30 9631 H 877.024 3.05135 -1.57314 0
M  V30 9632 N 879.47 0.276058 1.55163 0
M  V30 9633 C 880.38 -0.621066 2.2623 0
M  V30 9634 C 881.396 -1.16931 1.28853 0
M  V30 9635 O 882.572 -1.1994 1.61791 0
M  V30 9636 C 879.637 -1.78824 2.97023 0
M  V30 9637 C 878.698 -1.27657 4.09881 0
M  V30 9638 C 877.931 -2.38812 4.77289 0
M  V30 9639 O 878.154 -3.58188 4.43912 0
M  V30 9640 O 877.088 -2.06915 5.65217 0
M  V30 9641 H 880.914 -0.0453346 3.03666 0
M  V30 9642 H 878.499 0.0434275 1.49337 0
M  V30 9643 H 880.381 -2.46877 3.41511 0
M  V30 9644 H 879.056 -2.35104 2.22503 0
M  V30 9645 H 877.963 -0.56248 3.69847 0
M  V30 9646 H 879.296 -0.759509 4.86305 0
M  V30 9647 N 880.948 -1.576 0.00335426 0
M  V30 9648 C 882.197 -1.89892 -0.680001 0
M  V30 9649 C 882.51 -0.878731 -1.7475 0
M  V30 9650 O 883.716 -1.09199 -2.48572 0
M  V30 9651 C 882.172 -3.37098 -1.26066 0
M  V30 9652 C 881.78 -4.4742 -0.227807 0
M  V30 9653 C 883.524 -3.78495 -1.92202 0
M  V30 9654 C 881.431 -5.85706 -0.81865 0
M  V30 9655 H 880.361 -0.708578 -0.257746 0
M  V30 9656 H 883.012 -1.83387 0.0644472 0
M  V30 9657 H 881.394 -3.38451 -2.05589 0
M  V30 9658 H 882.568 -4.57589 0.54307 0
M  V30 9659 H 880.883 -4.15064 0.333297 0
M  V30 9660 H 883.48 -4.7915 -2.37318 0
M  V30 9661 H 883.823 -3.12187 -2.75399 0
M  V30 9662 H 884.356 -3.79456 -1.19408 0
M  V30 9663 H 881.095 -6.55495 -0.0253787 0
M  V30 9664 H 880.615 -5.79196 -1.55861 0
M  V30 9665 H 882.294 -6.33469 -1.31627 0
M  V30 9666 N 882.426 0.269451 -1.5528 0
M  V30 9667 C 883.672 1.00206 -1.76314 0
M  V30 9668 C 884.005 1.85812 -0.564581 0
M  V30 9669 O 883.28 1.89509 0.437769 0
M  V30 9670 C 883.563 1.88163 -3.07029 0
M  V30 9671 C 883.416 1.05527 -4.37246 0
M  V30 9672 C 884.735 2.8681 -3.33808 0
M  V30 9673 H 881.854 0.36288 -0.641473 0
M  V30 9674 H 884.496 0.274188 -1.88011 0
M  V30 9675 H 882.646 2.50224 -2.97187 0
M  V30 9676 H 884.318 0.455094 -4.5905 0
M  V30 9677 H 882.561 0.358842 -4.32313 0
M  V30 9678 H 883.232 1.70397 -5.25042 0
M  V30 9679 H 885.708 2.34884 -3.43466 0
M  V30 9680 H 884.584 3.45492 -4.26528 0
M  V30 9681 H 884.845 3.62118 -2.5362 0
M  V30 9682 N 883.904 1.48273 0.534124 0
M  V30 9683 C 885.134 1.59503 1.31311 0
M  V30 9684 C 885.542 0.25284 1.87503 0
M  V30 9685 O 884.885 -0.767399 1.66903 0
M  V30 9686 C 884.947 2.57899 2.50456 0
M  V30 9687 C 884.611 4.03063 2.15382 0
M  V30 9688 C 885.608 4.90869 1.713 0
M  V30 9689 C 883.293 4.4857 2.26032 0
M  V30 9690 C 885.287 6.22209 1.38328 0
M  V30 9691 C 882.974 5.79932 1.92672 0
M  V30 9692 C 883.972 6.66574 1.4889 0
M  V30 9693 O 883.66 7.95492 1.15966 0
M  V30 9694 H 883.392 0.540695 0.405739 0
M  V30 9695 H 885.946 1.94794 0.651497 0
M  V30 9696 H 884.176 2.1772 3.19585 0
M  V30 9697 H 885.865 2.59008 3.12522 0
M  V30 9698 H 886.631 4.56951 1.62545 0
M  V30 9699 H 882.51 3.81321 2.59066 0
M  V30 9700 H 886.054 6.89792 1.04082 0
M  V30 9701 H 881.951 6.13386 2.01066 0
M  V30 9702 H 882.719 8.08207 1.29399 0
M  V30 9703 N 885.382 -0.782676 1.36792 0
M  V30 9704 C 886.61 -1.57162 1.34565 0
M  V30 9705 C 887.025 -1.88664 -0.0715501 0
M  V30 9706 O 886.382 -1.50633 -1.03033 0
M  V30 9707 C 886.433 -2.88854 2.1736 0
M  V30 9708 O 886.154 -2.58707 3.53557 0
M  V30 9709 C 887.655 -3.83132 2.2299 0
M  V30 9710 H 884.875 -0.487245 0.461338 0
M  V30 9711 H 887.419 -0.970905 1.79982 0
M  V30 9712 H 885.574 -3.45377 1.7548 0
M  V30 9713 H 885.988 -3.42961 3.96835 0
M  V30 9714 H 887.462 -4.72575 2.85266 0
M  V30 9715 H 887.939 -4.21472 1.23524 0
M  V30 9716 H 888.545 -3.32541 2.65135 0
M  V30 9717 N 886.86 -1.21182 -1.00761 0
M  V30 9718 C 887.81 -0.936247 -2.0789 0
M  V30 9719 C 888.794 0.107482 -1.60541 0
M  V30 9720 O 889.986 -0.1011 -1.76711 0
M  V30 9721 C 887.115 -0.499949 -3.3964 0
M  V30 9722 C 886.201 -1.5776 -3.93666 0
M  V30 9723 N 886.592 -2.80208 -4.2109 0
M  V30 9724 C 884.89 -1.44586 -4.21913 0
M  V30 9725 C 885.591 -3.49787 -4.64784 0
M  V30 9726 N 884.567 -2.7722 -4.676 0
M  V30 9727 H 888.369 -1.86659 -2.27015 0
M  V30 9728 H 885.883 -1.10716 -1.1881 0
M  V30 9729 H 887.88 -0.283897 -4.15932 0
M  V30 9730 H 886.54 0.423659 -3.21924 0
M  V30 9731 H 887.551 -3.16776 -4.09724 0
M  V30 9732 H 884.228 -0.587346 -4.13348 0
M  V30 9733 H 885.618 -4.54615 -4.94747 0
M  V30 9734 N 888.338 1.20213 -1.01915 0
M  V30 9735 C 889.27 2.2251 -0.549725 0
M  V30 9736 C 890.283 1.58558 0.369235 0
M  V30 9737 O 891.472 1.77715 0.167176 0
M  V30 9738 C 888.572 3.38189 0.219432 0
M  V30 9739 C 887.745 4.31729 -0.702066 0
M  V30 9740 C 886.804 5.26196 0.0199624 0
M  V30 9741 O 885.83 5.65993 -0.60339 0
M  V30 9742 N 887.032 5.65895 1.29397 0
M  V30 9743 H 889.797 2.63412 -1.42948 0
M  V30 9744 H 887.358 1.3478 -0.896987 0
M  V30 9745 H 889.35 3.98392 0.711763 0
M  V30 9746 H 887.92 2.96156 1.00051 0
M  V30 9747 H 887.14 3.69455 -1.37466 0
M  V30 9748 H 888.428 4.91145 -1.3287 0
M  V30 9749 H 887.826 5.35579 1.8213 0
M  V30 9750 H 886.383 6.28395 1.73098 0
M  V30 9751 N 889.816 0.795718 1.36037 0
M  V30 9752 C 891.062 0.371574 1.99367 0
M  V30 9753 C 891.395 -1.0557 1.62999 0
M  V30 9754 O 890.67 -1.73051 0.887895 0
M  V30 9755 C 890.953 0.542622 3.55988 0
M  V30 9756 C 890.806 2.01404 4.0219 0
M  V30 9757 C 892.125 -0.0384527 4.40083 0
M  V30 9758 H 889.244 0.136483 0.724252 0
M  V30 9759 H 891.886 1.00323 1.61355 0
M  V30 9760 H 890.036 0.0049053 3.885 0
M  V30 9761 H 891.708 2.6133 3.80137 0
M  V30 9762 H 889.951 2.51439 3.53498 0
M  V30 9763 H 890.622 2.08466 5.11122 0
M  V30 9764 H 893.098 0.420634 4.13968 0
M  V30 9765 H 891.974 0.111214 5.48787 0
M  V30 9766 H 892.235 -1.13116 4.27384 0
M  V30 9767 N 891.294 -1.47756 0.548274 0
M  V30 9768 C 892.54 -2.02789 0.0209265 0
M  V30 9769 C 892.873 -1.42268 -1.32187 0
M  V30 9770 O 892.148 -0.575001 -1.85806 0
M  V30 9771 C 892.431 -3.60007 -0.0816674 0
M  V30 9772 C 892.284 -4.30977 1.28759 0
M  V30 9773 C 893.603 -4.32777 -0.799515 0
M  V30 9774 H 890.722 -0.736944 0.00907884 0
M  V30 9775 H 893.364 -1.76282 0.708839 0
M  V30 9776 H 891.514 -3.82722 -0.667537 0
M  V30 9777 H 893.186 -4.19629 1.91597 0
M  V30 9778 H 891.429 -3.9168 1.86466 0
M  V30 9779 H 892.1 -5.39488 1.16861 0
M  V30 9780 H 894.576 -4.15001 -0.30216 0
M  V30 9781 H 893.452 -5.42431 -0.840239 0
M  V30 9782 H 893.713 -4.01358 -1.85375 0
M  V30 9783 N 892.772 -0.284283 -1.55015 0
M  V30 9784 C 893.722 0.613913 -2.19579 0
M  V30 9785 C 894.706 1.11153 -1.16335 0
M  V30 9786 O 895.898 1.05508 -1.42116 0
M  V30 9787 C 893.027 1.79329 -2.92739 0
M  V30 9788 C 892.113 1.31242 -4.03282 0
M  V30 9789 N 892.504 0.548344 -5.02819 0
M  V30 9790 C 890.802 1.5946 -4.1652 0
M  V30 9791 C 891.503 0.294358 -5.80955 0
M  V30 9792 N 890.479 0.869406 -5.36603 0
M  V30 9793 H 894.281 0.0224088 -2.93891 0
M  V30 9794 H 891.795 -0.0882619 -1.6216 0
M  V30 9795 H 893.792 2.44814 -3.37449 0
M  V30 9796 H 892.452 2.38865 -2.1994 0
M  V30 9797 H 893.463 0.194812 -5.17533 0
M  V30 9798 H 890.14 2.19866 -3.54916 0
M  V30 9799 H 891.53 -0.318195 -6.71146 0
M  V30 9800 N 894.251 1.57596 -0.0117121 0
M  V30 9801 C 895.528 1.82323 0.708356 0
M  V30 9802 C 895.908 0.891947 1.91331 0
M  V30 9803 O 895.256 -0.0565984 2.2843 0
M  V30 9804 C 895.466 3.31111 1.10303 0
M  V30 9805 C 896.814 3.97147 1.50199 0
M  V30 9806 O 897.838 3.35503 1.1965 0
M  V30 9807 O 896.697 5.0576 2.07049 0
M  V30 9808 H 893.791 0.751173 0.345931 0
M  V30 9809 H 896.337 1.69657 -0.0380632 0
M  V30 9810 H 895.109 3.90534 0.24467 0
M  V30 9811 H 894.732 3.48818 1.90818 0
M  V30 9812 N 895.729 -0.261212 1.5542 0
M  V30 9813 C 897.006 -1.01321 1.67312 0
M  V30 9814 C 897.386 -2.0388 0.547356 0
M  V30 9815 O 896.734 -2.24003 -0.451083 0
M  V30 9816 C 896.944 -1.65943 3.07024 0
M  V30 9817 C 898.292 -2.16666 3.65159 0
M  V30 9818 O 899.316 -1.75909 3.09733 0
M  V30 9819 O 898.175 -2.91455 4.62294 0
M  V30 9820 H 895.269 -0.470714 0.679968 0
M  V30 9821 H 897.815 -0.256133 1.67756 0
M  V30 9822 H 896.587 -0.916868 3.80407 0
M  V30 9823 H 896.21 -2.48308 3.1053 0
M  V30 9824 N 897.207 -1.48554 -0.526253 0
M  V30 9825 C 898.453 -1.57972 -1.28127 0
M  V30 9826 C 898.808 -0.251973 -1.90743 0
M  V30 9827 O 898.101 0.745524 -1.76501 0
M  V30 9828 C 898.295 -2.65739 -2.38993 0
M  V30 9829 C 898.124 -4.08864 -1.87244 0
M  V30 9830 C 896.894 -4.75959 -1.6968 0
M  V30 9831 C 899.092 -4.94912 -1.39882 0
M  V30 9832 N 897.074 -6.03486 -1.12596 0
M  V30 9833 C 898.445 -6.12714 -0.947696 0
M  V30 9834 C 900.5 -4.81107 -1.2822 0
M  V30 9835 C 899.203 -7.18234 -0.391507 0
M  V30 9836 C 901.229 -5.86752 -0.740001 0
M  V30 9837 C 900.591 -7.03765 -0.298968 0
M  V30 9838 H 896.69 -0.632588 -0.459735 0
M  V30 9839 H 899.274 -1.85452 -0.59294 0
M  V30 9840 H 897.445 -2.40075 -3.05317 0
M  V30 9841 H 899.177 -2.64821 -3.06026 0
M  V30 9842 H 895.932 -4.32351 -1.93312 0
M  V30 9843 H 896.356 -6.71509 -0.860541 0
M  V30 9844 H 900.998 -3.90978 -1.60922 0
M  V30 9845 H 898.716 -8.08083 -0.0521685 0
M  V30 9846 H 902.302 -5.78125 -0.652889 0
M  V30 9847 H 901.182 -7.84117 0.114052 0
M  V30 9848 N 898.685 0.775411 -1.37205 0
M  V30 9849 C 900.101 1.07546 -1.17924 0
M  V30 9850 C 900.301 2.01496 -0.0128897 0
M  V30 9851 O 899.357 2.44039 0.64816 0
M  V30 9852 C 900.67 1.67647 -2.49629 0
M  V30 9853 C 902.218 1.79923 -2.56119 0
M  V30 9854 C 902.693 2.43438 -3.87946 0
M  V30 9855 N 904.184 2.50893 -3.89368 0
M  V30 9856 C 904.919 3.00881 -4.88117 0
M  V30 9857 N 904.415 3.5107 -5.97262 0
M  V30 9858 N 906.208 2.99722 -4.75524 0
M  V30 9859 H 898.359 0.151524 -2.11859 0
M  V30 9860 H 900.622 0.129845 -0.939066 0
M  V30 9861 H 900.328 1.06082 -3.3532 0
M  V30 9862 H 900.202 2.66988 -2.66453 0
M  V30 9863 H 902.589 2.40621 -1.70838 0
M  V30 9864 H 902.67 0.793482 -2.43182 0
M  V30 9865 H 902.314 1.8338 -4.73639 0
M  V30 9866 H 902.244 3.44611 -3.98184 0
M  V30 9867 H 904.735 2.1537 -3.10522 0
M  V30 9868 H 905.048 3.87604 -6.68568 0
M  V30 9869 H 903.393 3.49184 -6.00912 0
M  V30 9870 H 906.584 2.5981 -3.8938 0
M  V30 9871 H 906.757 3.38369 -5.52639 0
M  V30 9872 N 900.163 1.21714 1.00117 0
M  V30 9873 C 901.096 0.923113 2.08696 0
M  V30 9874 C 902.074 -0.130827 1.62073 0
M  V30 9875 O 903.258 -0.00103064 1.885 0
M  V30 9876 C 900.385 0.386807 3.36484 0
M  V30 9877 C 899.431 1.42414 4.0202 0
M  V30 9878 S 900.264 2.99466 4.43937 0
M  V30 9879 C 901.42 2.47452 5.74907 0
M  V30 9880 H 901.653 1.84258 2.33315 0
M  V30 9881 H 899.186 1.0473 1.1345 0
M  V30 9882 H 901.144 0.0839547 4.10414 0
M  V30 9883 H 899.805 -0.511413 3.09909 0
M  V30 9884 H 898.998 0.998593 4.94008 0
M  V30 9885 H 898.6 1.67527 3.34381 0
M  V30 9886 H 900.892 1.88177 6.50842 0
M  V30 9887 H 901.835 3.37898 6.22279 0
M  V30 9888 H 902.243 1.89027 5.31911 0
M  V30 9889 N 901.641 -1.19671 1.02551 0
M  V30 9890 C 902.588 -2.22773 0.603394 0
M  V30 9891 C 903.558 -1.61669 -0.381081 0
M  V30 9892 O 904.743 -1.88756 -0.278505 0
M  V30 9893 C 901.883 -3.45073 -0.0431034 0
M  V30 9894 C 900.996 -4.20574 0.987006 0
M  V30 9895 C 900.131 -5.30291 0.310626 0
M  V30 9896 C 899.17 -5.97545 1.32688 0
M  V30 9897 N 898.307 -6.98833 0.676542 0
M  V30 9898 H 903.147 -2.58238 1.48719 0
M  V30 9899 H 900.684 -1.26881 0.744286 0
M  V30 9900 H 902.642 -4.14925 -0.435141 0
M  V30 9901 H 901.272 -3.10274 -0.890495 0
M  V30 9902 H 900.324 -3.497 1.49713 0
M  V30 9903 H 901.636 -4.66736 1.75952 0
M  V30 9904 H 900.79 -6.06547 -0.136438 0
M  V30 9905 H 899.529 -4.8519 -0.49412 0
M  V30 9906 H 898.534 -5.20043 1.78424 0
M  V30 9907 H 899.759 -6.4473 2.13306 0
M  V30 9908 H 897.705 -6.55911 -0.108172 0
M  V30 9909 H 897.622 -7.43168 1.38699 0
M  V30 9910 H 898.89 -7.79088 0.253367 0
M  V30 9911 N 903.119 -0.802921 -1.35613 0
M  V30 9912 C 904.049 -0.225131 -2.32412 0
M  V30 9913 C 905.03 0.647383 -1.57299 0
M  V30 9914 O 906.215 0.578414 -1.85386 0
M  V30 9915 C 903.345 0.630085 -3.41537 0
M  V30 9916 C 902.299 -0.143635 -4.27759 0
M  V30 9917 C 901.625 0.833046 -5.28171 0
M  V30 9918 C 902.925 -1.34054 -5.04804 0
M  V30 9919 H 904.619 -1.03385 -2.80984 0
M  V30 9920 H 902.165 -0.498593 -1.35093 0
M  V30 9921 H 904.118 1.04433 -4.08254 0
M  V30 9922 H 902.842 1.47165 -2.91565 0
M  V30 9923 H 901.501 -0.539015 -3.62616 0
M  V30 9924 H 901.149 1.67001 -4.74468 0
M  V30 9925 H 900.849 0.319697 -5.8673 0
M  V30 9926 H 902.373 1.24558 -5.97761 0
M  V30 9927 H 903.787 -1.00136 -5.64487 0
M  V30 9928 H 902.184 -1.78812 -5.72841 0
M  V30 9929 H 903.254 -2.12906 -4.35659 0
M  V30 9930 N 904.597 1.47463 -0.556102 0
M  V30 9931 C 905.843 2.02775 -0.0316806 0
M  V30 9932 C 906.176 1.42967 1.3143 0
M  V30 9933 O 905.451 0.584847 1.85499 0
M  V30 9934 C 905.734 3.60046 0.0625742 0
M  V30 9935 C 905.587 4.30288 -1.31043 0
M  V30 9936 C 906.906 4.33195 0.776553 0
M  V30 9937 H 904.025 0.736886 -0.0129869 0
M  V30 9938 H 906.667 1.75904 -0.718177 0
M  V30 9939 H 904.817 3.83071 0.647231 0
M  V30 9940 H 906.489 4.18607 -1.9382 0
M  V30 9941 H 904.732 3.90685 -1.8854 0
M  V30 9942 H 905.403 5.38861 -1.1972 0
M  V30 9943 H 907.879 4.15156 0.280147 0
M  V30 9944 H 906.755 5.42869 0.81146 0
M  V30 9945 H 907.016 4.02336 1.83244 0
M  V30 9946 N 906.075 0.2925 1.54862 0
M  V30 9947 C 906.985 -0.597036 2.26876 0
M  V30 9948 C 908.001 -1.15558 1.30086 0
M  V30 9949 O 909.177 -1.18217 1.63054 0
M  V30 9950 C 906.242 -1.75664 2.98903 0
M  V30 9951 C 905.303 -1.23303 4.11212 0
M  V30 9952 C 904.536 -2.33736 4.79795 0
M  V30 9953 O 904.759 -3.53459 4.47686 0
M  V30 9954 O 903.693 -2.00908 5.67379 0
M  V30 9955 H 907.519 -0.0131242 3.03697 0
M  V30 9956 H 905.104 0.0592642 1.49282 0
M  V30 9957 H 906.986 -2.43241 3.4411 0
M  V30 9958 H 905.661 -2.32731 2.24984 0
M  V30 9959 H 904.568 -0.523222 3.70423 0
M  V30 9960 H 905.901 -0.707887 4.87083 0
M  V30 9961 N 907.553 -1.57587 0.0200696 0
M  V30 9962 C 908.463 -2.13119 -0.980676 0
M  V30 9963 C 909.479 -1.08124 -1.36328 0
M  V30 9964 O 910.655 -1.40134 -1.44653 0
M  V30 9965 C 907.72 -2.63991 -2.24743 0
M  V30 9966 C 906.781 -3.83667 -1.9261 0
M  V30 9967 C 906.014 -4.32103 -3.13246 0
M  V30 9968 O 906.237 -3.79758 -4.25606 0
M  V30 9969 O 905.171 -5.24047 -2.96072 0
M  V30 9970 H 908.997 -2.98887 -0.538528 0
M  V30 9971 H 906.582 -1.48055 -0.19999 0
M  V30 9972 H 908.464 -2.9682 -2.99125 0
M  V30 9973 H 907.139 -1.81311 -2.68157 0
M  V30 9974 H 906.046 -3.55778 -1.15641 0
M  V30 9975 H 907.379 -4.67482 -1.54019 0
M  V30 9976 N 909.032 0.252966 -1.55557 0
M  V30 9977 C 910.443 0.822503 -1.67606 0
M  V30 9978 C 910.794 1.86265 -0.616411 0
M  V30 9979 O 909.919 2.15082 0.238447 0
M  V30 9980 C 910.514 1.49866 -3.03852 0
M  V30 9981 C 909.073 2.01597 -3.17861 0
M  V30 9982 C 908.22 0.864943 -2.63465 0
M  V30 9983 H 911.171 0.0288958 -1.58674 0
M  V30 9984 H 911.192 2.36646 -2.97958 0
M  V30 9985 H 910.704 0.741378 -3.80953 0
M  V30 9986 H 908.805 2.80224 -2.45571 0
M  V30 9987 H 908.918 2.21752 -4.24692 0
M  V30 9988 H 907.282 1.2638 -2.21134 0
M  V30 9989 H 908.065 0.120847 -3.43087 0
M  V30 9990 N 910.51 1.48831 0.518367 0
M  V30 9991 C 911.738 1.6112 1.298 0
M  V30 9992 C 912.153 0.275872 1.86774 0
M  V30 9993 O 911.51 -0.736416 1.66983 0
M  V30 9994 C 911.561 2.66675 2.44063 0
M  V30 9995 O 911.282 3.95027 1.89434 0
M  V30 9996 C 912.783 2.8951 3.35706 0
M  V30 9997 H 910.003 0.542916 0.394314 0
M  V30 9998 H 912.547 1.94743 0.624142 0
M  V30 9999 H 910.702 2.35879 3.07311 0
M  V30 10000 H 911.116 4.53031 2.64316 0
M  V30 10001 H 912.59 3.67142 4.12202 0
M  V30 10002 H 913.067 1.98768 3.91648 0
M  V30 10003 H 913.673 3.21656 2.7824 0
M  V30 10004 N 911.988 -0.768124 1.37614 0
M  V30 10005 C 913.213 -1.56239 1.36397 0
M  V30 10006 C 913.638 -1.8804 -0.0475839 0
M  V30 10007 O 912.996 -1.495 -1.02564 0
M  V30 10008 C 913.044 -2.84716 2.21289 0
M  V30 10009 O 912.148 -3.79249 1.62001 0
M  V30 10010 H 911.489 -0.473119 0.465891 0
M  V30 10011 H 914.019 -0.950415 1.81186 0
M  V30 10012 H 914.029 -3.33784 2.34632 0
M  V30 10013 H 912.704 -2.60899 3.2389 0
M  V30 10014 H 911.281 -3.37904 1.57719 0
M  V30 10015 N 913.466 -1.22244 -0.994698 0
M  V30 10016 C 914.714 -1.04384 -1.73056 0
M  V30 10017 C 915.035 0.422204 -1.90374 0
M  V30 10018 O 914.305 1.30383 -1.46209 0
M  V30 10019 H 912.885 -0.383263 -0.641185 0
M  V30 10020 H 915.547 -1.53725 -1.1981 0
M  V30 10021 H 914.643 -1.52021 -2.72573 0
M  V30 10022 N 914.944 1.19125 -1.03184 0
M  V30 10023 C 916.193 1.8821 -0.725264 0
M  V30 10024 C 916.506 1.80674 0.749411 0
M  V30 10025 O 917.712 2.45037 1.16915 0
M  V30 10026 C 916.168 3.37607 -1.24697 0
M  V30 10027 C 915.776 3.53693 -2.74964 0
M  V30 10028 C 917.52 4.12149 -1.01652 0
M  V30 10029 C 915.427 4.97001 -3.20538 0
M  V30 10030 H 914.357 0.704916 -0.267599 0
M  V30 10031 H 917.008 1.34663 -1.24652 0
M  V30 10032 H 915.39 3.90569 -0.653614 0
M  V30 10033 H 916.564 3.11046 -3.39981 0
M  V30 10034 H 914.879 2.92544 -2.96322 0
M  V30 10035 H 917.476 5.17837 -1.33226 0
M  V30 10036 H 917.819 4.16274 0.0465712 0
M  V30 10037 H 918.352 3.65334 -1.57403 0
M  V30 10038 H 915.091 4.9804 -4.26189 0
M  V30 10039 H 914.611 5.40398 -2.60251 0
M  V30 10040 H 916.29 5.65669 -3.14049 0
M  V30 10041 N 916.422 0.810101 1.35185 0
M  V30 10042 C 917.65 0.404696 2.02903 0
M  V30 10043 C 918.065 -0.985434 1.61042 0
M  V30 10044 O 917.422 -1.63557 0.809658 0
M  V30 10045 C 917.473 0.482493 3.58266 0
M  V30 10046 O 917.194 1.81782 3.98606 0
M  V30 10047 C 918.695 0.070345 4.43244 0
M  V30 10048 H 915.915 0.163972 0.650657 0
M  V30 10049 H 918.459 1.0947 1.72733 0
M  V30 10050 H 916.614 -0.159296 3.87072 0
M  V30 10051 H 917.028 1.78306 4.93262 0
M  V30 10052 H 918.502 0.175888 5.5172 0
M  V30 10053 H 918.979 -0.984724 4.28018 0
M  V30 10054 H 919.585 0.685427 4.1974 0
M  V30 10055 N 917.9 -1.47166 0.563914 0
M  V30 10056 C 919.149 -2.0166 0.0401871 0
M  V30 10057 C 919.462 -1.44303 -1.32046 0
M  V30 10058 O 920.668 -1.905 -1.93448 0
M  V30 10059 C 919.124 -3.59894 0.0213257 0
M  V30 10060 C 918.732 -4.26244 1.37914 0
M  V30 10061 C 920.476 -4.22114 -0.449442 0
M  V30 10062 C 918.383 -5.76503 1.31902 0
M  V30 10063 H 917.313 -0.753916 0.0112534 0
M  V30 10064 H 919.964 -1.69091 0.712766 0
M  V30 10065 H 918.346 -3.89454 -0.717038 0
M  V30 10066 H 919.52 -4.08317 2.13574 0
M  V30 10067 H 917.835 -3.76039 1.78839 0
M  V30 10068 H 920.432 -5.32234 -0.51292 0
M  V30 10069 H 920.775 -3.89749 -1.46291 0
M  V30 10070 H 921.308 -3.9711 0.23427 0
M  V30 10071 H 918.047 -6.13498 2.3087 0
M  V30 10072 H 917.567 -5.96748 0.604324 0
M  V30 10073 H 919.246 -6.38846 1.02392 0
M  V30 10074 N 919.378 -0.300708 -1.54705 0
M  V30 10075 C 920.608 0.310819 -2.04249 0
M  V30 10076 C 921.016 1.4809 -1.17754 0
M  V30 10077 O 920.359 1.82654 -0.195779 0
M  V30 10078 C 920.421 0.83014 -3.49784 0
M  V30 10079 C 920.085 -0.214628 -4.56496 0
M  V30 10080 C 921.082 -1.04298 -5.09331 0
M  V30 10081 C 918.767 -0.356242 -5.01035 0
M  V30 10082 C 920.761 -1.99889 -6.05246 0
M  V30 10083 C 918.448 -1.3156 -5.96771 0
M  V30 10084 C 919.446 -2.1354 -6.4876 0
M  V30 10085 O 919.134 -3.07849 -7.4262 0
M  V30 10086 H 918.866 0.0715341 -0.672204 0
M  V30 10087 H 921.42 -0.438179 -2.00672 0
M  V30 10088 H 919.65 1.62966 -3.50684 0
M  V30 10089 H 921.339 1.35752 -3.82526 0
M  V30 10090 H 922.105 -0.944439 -4.75716 0
M  V30 10091 H 917.984 0.271916 -4.60197 0
M  V30 10092 H 921.528 -2.63917 -6.45751 0
M  V30 10093 H 917.425 -1.41486 -6.29803 0
M  V30 10094 H 918.193 -3.02824 -7.60421 0
M  V30 10095 N 920.856 1.57574 -0.0284266 0
M  V30 10096 C 922.084 1.96071 0.660575 0
M  V30 10097 C 922.499 0.904881 1.65703 0
M  V30 10098 O 921.856 -0.113379 1.82147 0
M  V30 10099 C 921.907 3.34634 1.36756 0
M  V30 10100 O 921.628 4.36167 0.411041 0
M  V30 10101 C 923.129 3.87758 2.14845 0
M  V30 10102 H 920.349 0.645794 0.182183 0
M  V30 10103 H 922.893 2.04311 -0.0879858 0
M  V30 10104 H 921.048 3.27616 2.06753 0
M  V30 10105 H 921.462 5.16493 0.913 0
M  V30 10106 H 922.936 4.87058 2.59767 0
M  V30 10107 H 923.413 3.21967 2.9872 0
M  V30 10108 H 924.019 3.98043 1.49807 0
M  V30 10109 N 922.334 -0.244713 1.55689 0
M  V30 10110 C 923.611 -0.995407 1.68378 0
M  V30 10111 C 923.991 -2.03288 0.568949 0
M  V30 10112 O 923.339 -2.24469 -0.427299 0
M  V30 10113 C 923.549 -1.62678 3.08767 0
M  V30 10114 C 924.897 -2.1278 3.67437 0
M  V30 10115 O 925.921 -1.72614 3.11581 0
M  V30 10116 O 924.78 -2.86536 4.65359 0
M  V30 10117 H 921.874 -0.463476 0.684923 0
M  V30 10118 H 924.42 -0.238326 1.68018 0
M  V30 10119 H 923.192 -0.876469 3.81358 0
M  V30 10120 H 922.815 -2.45 3.13146 0
M  V30 10121 N 923.813 -1.49104 -0.510467 0
M  V30 10122 C 925.061 -1.578 -1.26268 0
M  V30 10123 C 925.382 -0.262349 -1.93227 0
M  V30 10124 O 924.652 0.717624 -1.82283 0
M  V30 10125 H 923.232 -0.581387 -0.46904 0
M  V30 10126 H 925.894 -1.85678 -0.592423 0
M  V30 10127 H 924.99 -2.36919 -2.03165 0
M  V30 10128 N 925.291 0.760815 -1.38019 0
M  V30 10129 C 926.539 1.51673 -1.33566 0
M  V30 10130 C 926.86 1.94852 0.076024 0
M  V30 10131 O 926.13 1.67112 1.02227 0
M  V30 10132 H 924.71 0.562581 -0.491438 0
M  V30 10133 H 927.372 0.904832 -1.72623 0
M  V30 10134 H 926.468 2.41102 -1.98182 0
M  V30 10135 N 926.769 1.22769 0.988202 0
M  V30 10136 C 927.716 1.00195 2.07917 0
M  V30 10137 C 928.686 -0.0779391 1.65917 0
M  V30 10138 O 929.871 0.0726005 1.90662 0
M  V30 10139 C 927.011 0.590853 3.40004 0
M  V30 10140 C 926.124 1.74202 3.9532 0
M  V30 10141 C 925.259 1.27846 5.15586 0
M  V30 10142 C 924.298 2.40087 5.63049 0
M  V30 10143 N 923.435 1.94744 6.74551 0
M  V30 10144 H 928.275 1.93581 2.26562 0
M  V30 10145 H 925.812 0.96448 1.11068 0
M  V30 10146 H 927.77 0.333653 4.15864 0
M  V30 10147 H 926.4 -0.306007 3.21346 0
M  V30 10148 H 925.452 2.11342 3.16289 0
M  V30 10149 H 926.764 2.58612 4.26522 0
M  V30 10150 H 925.918 0.978919 5.9875 0
M  V30 10151 H 924.657 0.404617 4.86019 0
M  V30 10152 H 923.662 2.70824 4.78471 0
M  V30 10153 H 924.887 3.27995 5.9464 0
M  V30 10154 H 922.833 1.09729 6.46758 0
M  V30 10155 H 922.75 2.72718 7.05096 0
M  V30 10156 H 924.018 1.67873 7.61209 0
M  V30 10157 N 928.247 -1.18576 1.03814 0
M  V30 10158 C 929.179 -2.21607 0.585055 0
M  V30 10159 C 930.192 -1.59125 -0.343963 0
M  V30 10160 O 931.381 -1.77959 -0.138882 0
M  V30 10161 C 928.481 -3.38495 -0.165602 0
M  V30 10162 C 927.654 -4.30557 0.770662 0
M  V30 10163 C 926.713 -5.26161 0.0637534 0
M  V30 10164 O 925.739 -5.64961 0.693359 0
M  V30 10165 N 926.941 -5.67882 -1.20377 0
M  V30 10166 H 929.706 -2.61104 1.47121 0
M  V30 10167 H 927.267 -1.33336 0.918316 0
M  V30 10168 H 929.259 -3.99474 -0.648292 0
M  V30 10169 H 927.829 -2.97711 -0.953268 0
M  V30 10170 H 927.049 -3.67221 1.43326 0
M  V30 10171 H 928.337 -4.88969 1.40667 0
M  V30 10172 H 927.735 -5.38409 -1.73586 0
M  V30 10173 H 926.292 -6.31069 -1.63079 0
M  V30 10174 N 929.725 -0.817259 -1.34754 0
M  V30 10175 C 930.673 -0.223352 -2.31525 0
M  V30 10176 C 931.667 0.632785 -1.57137 0
M  V30 10177 O 932.873 0.524757 -1.72181 0
M  V30 10178 H 929.248 -0.0534765 -0.750096 0
M  V30 10179 H 931.219 -1.05446 -2.79148 0
M  V30 10180 C 929.968 0.604784 -3.424 0
M  V30 10181 H 929.291 -0.0446664 -3.99775 0
M  V30 10182 H 930.731 0.986543 -4.12363 0
M  V30 10183 C 929.19 1.77478 -2.86362 0
M  V30 10184 O 929.72 2.87273 -2.8078 0
M  V30 10185 N 927.926 1.58971 -2.43263 0
M  V30 10186 H 927.473 0.696598 -2.48003 0
M  V30 10187 H 927.431 2.37408 -2.06119 0
M  V30 10188 N 931.203 1.46865 -0.571711 0
M  V30 10189 C 932.451 2.0203 -0.0530022 0
M  V30 10190 C 932.772 1.44687 1.30731 0
M  V30 10191 O 932.042 0.627429 1.85581 0
M  V30 10192 H 930.622 0.746815 -0.0166035 0
M  V30 10193 H 933.284 1.80099 -0.745003 0
M  V30 10194 H 932.38 3.12091 0.0242538 0
M  V30 10195 N 932.681 0.308908 1.54543 0
M  V30 10196 C 933.591 -0.572939 2.27496 0
M  V30 10197 C 934.607 -1.14171 1.31305 0
M  V30 10198 O 935.783 -1.16481 1.64299 0
M  V30 10199 C 932.848 -1.72483 3.0075 0
M  V30 10200 C 931.909 -1.18934 4.12496 0
M  V30 10201 C 931.142 -2.28634 4.82247 0
M  V30 10202 O 931.365 -3.48691 4.5141 0
M  V30 10203 O 930.299 -1.94879 5.69478 0
M  V30 10204 H 934.125 0.0190877 3.03694 0
M  V30 10205 H 931.71 0.0750943 1.49211 0
M  V30 10206 H 933.592 -2.39578 3.46671 0
M  V30 10207 H 932.267 -2.30332 2.2744 0
M  V30 10208 H 931.174 -0.483904 3.70957 0
M  V30 10209 H 932.507 -0.656185 4.87806 0
M  V30 10210 N 934.159 -1.57557 0.0367827 0
M  V30 10211 C 935.407 -1.91735 -0.63892 0
M  V30 10212 C 935.728 -0.914515 -1.72226 0
M  V30 10213 O 934.998 0.0428248 -1.95853 0
M  V30 10214 H 933.578 -0.707738 -0.23899 0
M  V30 10215 H 936.24 -1.94708 0.0863931 0
M  V30 10216 H 935.336 -2.92568 -1.08676 0
M  V30 10217 N 935.637 0.236453 -1.55816 0
M  V30 10218 C 936.886 0.960981 -1.77336 0
M  V30 10219 C 937.199 1.86085 -0.602641 0
M  V30 10220 O 938.405 2.62291 -0.701106 0
M  V30 10221 C 936.861 1.75884 -3.13995 0
M  V30 10222 C 936.469 0.905849 -4.38746 0
M  V30 10223 C 938.213 2.47548 -3.44848 0
M  V30 10224 C 936.12 1.7002 -5.66434 0
M  V30 10225 H 935.05 0.362547 -0.661117 0
M  V30 10226 H 937.701 0.215303 -1.82233 0
M  V30 10227 H 936.083 2.54687 -3.03234 0
M  V30 10228 H 937.257 0.159415 -4.60524 0
M  V30 10229 H 935.572 0.30205 -4.15303 0
M  V30 10230 H 938.169 3.07452 -4.37467 0
M  V30 10231 H 938.512 3.19689 -2.66655 0
M  V30 10232 H 939.045 1.75747 -3.56872 0
M  V30 10233 H 935.784 1.02234 -6.47479 0
M  V30 10234 H 935.304 2.42164 -5.48741 0
M  V30 10235 H 936.983 2.26469 -6.0607 0
M  V30 10236 N 937.115 1.49373 0.502552 0
M  V30 10237 C 938.078 1.65413 1.58654 0
M  V30 10238 C 939.078 0.526003 1.51953 0
M  V30 10239 O 940.268 0.792421 1.55133 0
M  V30 10240 C 937.4 1.65005 2.98306 0
M  V30 10241 H 938.593 2.62095 1.45762 0
M  V30 10242 H 936.146 1.38381 0.726672 0
M  V30 10243 H 936.881 0.699014 3.16677 0
M  V30 10244 H 936.666 2.46931 3.04578 0
M  V30 10245 H 938.156 1.79477 3.77065 0
M  V30 10246 N 938.594 -0.753485 1.38421 0
M  V30 10247 C 939.557 -1.84888 1.35459 0
M  V30 10248 C 940.557 -1.58764 0.255083 0
M  V30 10249 O 941.747 -1.66507 0.511978 0
M  V30 10250 C 938.879 -3.22361 1.10888 0
M  V30 10251 H 940.072 -1.88922 2.32913 0
M  V30 10252 H 937.625 -0.955199 1.23716 0
M  V30 10253 H 938.36 -3.23996 0.1404 0
M  V30 10254 H 938.145 -3.42717 1.90492 0
M  V30 10255 H 939.635 -4.02437 1.1151 0
M  V30 10256 N 940.072 -1.23292 -0.981677 0
M  V30 10257 C 941.302 -1.0893 -1.7555 0
M  V30 10258 C 941.71 0.362219 -1.857 0
M  V30 10259 O 941.053 1.2624 -1.33451 0
M  V30 10260 C 941.115 -1.6389 -3.19969 0
M  V30 10261 C 940.779 -3.12632 -3.33332 0
M  V30 10262 C 941.776 -4.0994 -3.19758 0
M  V30 10263 C 939.461 -3.52314 -3.58022 0
M  V30 10264 C 941.455 -5.44915 -3.30676 0
M  V30 10265 C 939.142 -4.87434 -3.6858 0
M  V30 10266 C 940.14 -5.83544 -3.54916 0
M  V30 10267 O 939.828 -7.16209 -3.65102 0
M  V30 10268 H 939.56 -0.381901 -0.557788 0
M  V30 10269 H 942.114 -1.63586 -1.24213 0
M  V30 10270 H 940.344 -1.03653 -3.72549 0
M  V30 10271 H 942.033 -1.45023 -3.79108 0
M  V30 10272 H 942.799 -3.80625 -3.00582 0
M  V30 10273 H 938.678 -2.78022 -3.67729 0
M  V30 10274 H 942.222 -6.19913 -3.19928 0
M  V30 10275 H 938.119 -5.16426 -3.87265 0
M  V30 10276 H 938.887 -7.23941 -3.81905 0
M  V30 10277 N 941.55 1.18024 -1.04442 0
M  V30 10278 C 942.796 1.88377 -0.751133 0
M  V30 10279 C 943.129 1.80377 0.719571 0
M  V30 10280 O 942.404 1.20662 1.52548 0
M  V30 10281 C 942.687 3.38708 -1.22265 0
M  V30 10282 C 942.54 3.55499 -2.75574 0
M  V30 10283 C 943.859 4.32475 -0.815688 0
M  V30 10284 H 940.978 0.684037 -0.27434 0
M  V30 10285 H 943.62 1.38837 -1.29709 0
M  V30 10286 H 941.77 3.8103 -0.758192 0
M  V30 10287 H 943.442 3.22244 -3.30086 0
M  V30 10288 H 941.685 2.98028 -3.15217 0
M  V30 10289 H 942.356 4.60994 -3.03625 0
M  V30 10290 H 944.832 3.97953 -1.21542 0
M  V30 10291 H 943.708 5.36213 -1.17331 0
M  V30 10292 H 943.969 4.41207 0.280901 0
M  V30 10293 N 943.028 0.824394 1.34319 0
M  V30 10294 C 944.256 0.426194 2.02463 0
M  V30 10295 C 944.671 -0.968298 1.62078 0
M  V30 10296 O 944.028 -1.62689 0.82696 0
M  V30 10297 C 944.079 0.520465 3.57734 0
M  V30 10298 O 943.8 1.86 3.96656 0
M  V30 10299 C 945.301 0.117353 4.43145 0
M  V30 10300 H 942.521 0.170864 0.648881 0
M  V30 10301 H 945.065 1.11296 1.71562 0
M  V30 10302 H 943.22 -0.118233 3.8722 0
M  V30 10303 H 943.634 1.83528 4.91343 0
M  V30 10304 H 945.108 0.234395 5.51502 0
M  V30 10305 H 945.585 -0.939271 4.29039 0
M  V30 10306 H 946.191 0.729908 4.1899 0
M  V30 10307 N 944.506 -1.46559 0.579492 0
M  V30 10308 C 945.731 -2.0729 0.0674595 0
M  V30 10309 C 946.156 -1.4259 -1.22677 0
M  V30 10310 O 945.514 -0.50857 -1.74021 0
M  V30 10311 C 945.562 -3.60492 -0.0882227 0
M  V30 10312 O 944.666 -3.96172 -1.14551 0
M  V30 10313 H 944.007 -0.661159 0.0613536 0
M  V30 10314 H 946.537 -1.88247 0.801519 0
M  V30 10315 H 946.547 -4.06929 -0.295411 0
M  V30 10316 H 945.222 -4.06976 0.856943 0
M  V30 10317 H 943.799 -3.61448 -0.917033 0
M  V30 10318 N 945.984 -0.3171 -1.54377 0
M  V30 10319 C 946.932 0.567371 -2.25574 0
M  V30 10320 C 947.926 1.12387 -1.2675 0
M  V30 10321 O 949.132 1.07266 -1.44548 0
M  V30 10322 H 945.507 0.201605 -0.724472 0
M  V30 10323 H 947.478 -0.0554644 -2.98348 0
M  V30 10324 C 946.227 1.71984 -3.02187 0
M  V30 10325 H 945.55 1.30086 -3.78044 0
M  V30 10326 H 946.99 2.31443 -3.5526 0
M  V30 10327 C 945.449 2.6336 -2.10103 0
M  V30 10328 O 945.979 3.64899 -1.67962 0
M  V30 10329 N 944.185 2.3145 -1.75725 0
M  V30 10330 H 943.732 1.48921 -2.10191 0
M  V30 10331 H 943.69 2.92852 -1.14391 0
M  V30 10332 N 947.462 1.57535 -0.0451378 0
M  V30 10333 C 948.71 1.92071 0.628743 0
M  V30 10334 C 949.031 0.923635 1.71738 0
M  V30 10335 O 948.301 -0.0324376 1.95873 0
M  V30 10336 H 946.881 0.708995 0.235233 0
M  V30 10337 H 949.543 1.9466 -0.0967177 0
M  V30 10338 H 948.639 2.9314 1.07123 0
M  V30 10339 N 948.94 -0.228186 1.55939 0
M  V30 10340 C 950.356 -0.577583 1.48782 0
M  V30 10341 C 950.556 -1.87461 0.738972 0
M  V30 10342 O 949.612 -2.50988 0.275929 0
M  V30 10343 C 950.925 -0.662961 2.93301 0
M  V30 10344 C 952.473 -0.754035 3.03782 0
M  V30 10345 C 952.948 -0.870815 4.49645 0
M  V30 10346 N 954.439 -0.935208 4.53661 0
M  V30 10347 C 955.174 -1.04516 5.63794 0
M  V30 10348 N 954.67 -1.11948 6.83696 0
M  V30 10349 N 956.463 -1.07978 5.51631 0
M  V30 10350 H 948.614 0.623018 2.03057 0
M  V30 10351 H 950.877 0.217692 0.922667 0
M  V30 10352 H 950.583 0.220375 3.51009 0
M  V30 10353 H 950.457 -1.52876 3.44831 0
M  V30 10354 H 952.844 -1.62782 2.46143 0
M  V30 10355 H 952.925 0.137301 2.55431 0
M  V30 10356 H 952.569 -0.0015186 5.079 0
M  V30 10357 H 952.499 -1.77747 4.95695 0
M  V30 10358 H 954.99 -0.88836 3.6731 0
M  V30 10359 H 955.303 -1.20297 7.6338 0
M  V30 10360 H 953.648 -1.08873 6.8642 0
M  V30 10361 H 956.839 -1.01833 4.56889 0
M  V30 10362 H 957.012 -1.16202 6.37496 0
M  V30 10363 N 950.418 -1.49637 -0.494624 0
M  V30 10364 C 951.646 -1.63164 -1.2722 0
M  V30 10365 C 952.061 -0.305552 -1.86311 0
M  V30 10366 O 951.418 0.709758 -1.68133 0
M  V30 10367 C 951.469 -2.70524 -2.39789 0
M  V30 10368 O 951.19 -3.97991 -1.83126 0
M  V30 10369 C 952.691 -2.94814 -3.31058 0
M  V30 10370 H 949.911 -0.54912 -0.385627 0
M  V30 10371 H 952.455 -1.95711 -0.593081 0
M  V30 10372 H 950.61 -2.40738 -3.03519 0
M  V30 10373 H 951.024 -4.57179 -2.57075 0
M  V30 10374 H 952.498 -3.73653 -4.06309 0
M  V30 10375 H 952.975 -2.04974 -3.88436 0
M  V30 10376 H 953.581 -3.26042 -2.73088 0
M  V30 10377 N 951.896 0.746133 -1.38819 0
M  V30 10378 C 952.843 1.86001 -1.36647 0
M  V30 10379 C 953.813 1.6453 -0.227849 0
M  V30 10380 O 954.998 1.86092 -0.421241 0
M  V30 10381 C 952.138 3.23388 -1.20474 0
M  V30 10382 C 951.251 3.5664 -2.43786 0
M  V30 10383 C 950.386 4.8337 -2.20287 0
M  V30 10384 C 949.425 5.09431 -3.39332 0
M  V30 10385 N 948.562 6.2736 -3.1522 0
M  V30 10386 H 953.402 1.87192 -2.31869 0
M  V30 10387 H 950.939 0.914838 -1.15192 0
M  V30 10388 H 952.897 4.02679 -1.09112 0
M  V30 10389 H 951.527 3.21505 -0.288874 0
M  V30 10390 H 950.579 2.72135 -2.65794 0
M  V30 10391 H 951.891 3.71823 -3.3249 0
M  V30 10392 H 951.045 5.70619 -2.06103 0
M  V30 10393 H 949.784 4.70341 -1.28961 0
M  V30 10394 H 948.789 4.20648 -3.54027 0
M  V30 10395 H 950.014 5.24354 -4.31544 0
M  V30 10396 H 947.96 6.15639 -2.26549 0
M  V30 10397 H 947.877 6.43078 -3.97476 0
M  V30 10398 H 949.145 7.17477 -3.04707 0
M  V30 10399 N 953.375 1.23811 0.975125 0
M  V30 10400 C 954.307 0.981779 2.07108 0
M  V30 10401 C 955.32 -0.0461211 1.62735 0
M  V30 10402 O 956.509 0.190039 1.77486 0
M  V30 10403 C 953.609 0.458364 3.35786 0
M  V30 10404 C 952.782 1.54767 4.09104 0
M  V30 10405 C 951.841 1.0282 5.16057 0
M  V30 10406 O 950.867 1.71831 5.42644 0
M  V30 10407 N 952.069 -0.141243 5.80328 0
M  V30 10408 H 954.834 1.92537 2.29673 0
M  V30 10409 H 952.395 1.1474 1.14221 0
M  V30 10410 H 954.387 0.0957686 4.04587 0
M  V30 10411 H 952.957 -0.390768 3.10148 0
M  V30 10412 H 952.177 2.08279 3.34684 0
M  V30 10413 H 953.465 2.28006 4.54853 0
M  V30 10414 H 952.863 -0.718382 5.6112 0
M  V30 10415 H 951.42 -0.445052 6.50279 0
M  V30 10416 N 954.853 -1.17469 1.05066 0
M  V30 10417 C 955.8 -2.21443 0.650512 0
M  V30 10418 C 956.77 -1.62441 -0.346702 0
M  V30 10419 O 957.955 -1.89305 -0.238404 0
M  V30 10420 C 955.095 -3.45087 0.0301014 0
M  V30 10421 C 954.208 -4.18385 1.07599 0
M  V30 10422 C 953.343 -5.29513 0.423038 0
M  V30 10423 C 952.382 -5.94596 1.45333 0
M  V30 10424 N 951.519 -6.97241 0.824623 0
M  V30 10425 H 956.359 -2.55025 1.54163 0
M  V30 10426 H 953.896 -1.25274 0.771032 0
M  V30 10427 H 955.854 -4.15754 -0.347032 0
M  V30 10428 H 954.484 -3.12093 -0.824481 0
M  V30 10429 H 953.536 -3.46446 1.57097 0
M  V30 10430 H 954.848 -4.62899 1.85813 0
M  V30 10431 H 954.002 -6.067 -0.00774975 0
M  V30 10432 H 952.741 -4.86129 -0.391092 0
M  V30 10433 H 951.746 -5.16142 1.89415 0
M  V30 10434 H 952.971 -6.40061 2.26934 0
M  V30 10435 H 950.917 -6.55993 0.0309804 0
M  V30 10436 H 950.834 -7.40059 1.54432 0
M  V30 10437 H 952.102 -7.78375 0.418567 0
M  V30 10438 N 956.331 -0.831506 -1.3388 0
M  V30 10439 C 957.747 -0.518349 -1.50948 0
M  V30 10440 C 957.947 0.955807 -1.77388 0
M  V30 10441 O 957.003 1.73993 -1.82983 0
M  V30 10442 C 958.316 -1.38531 -2.66889 0
M  V30 10443 C 959.864 -1.38332 -2.80772 0
M  V30 10444 C 960.339 -2.23497 -3.99766 0
M  V30 10445 N 961.83 -2.21167 -4.06988 0
M  V30 10446 C 962.565 -2.83805 -4.98239 0
M  V30 10447 N 962.061 -3.55468 -5.94655 0
M  V30 10448 N 963.854 -2.73314 -4.91178 0
M  V30 10449 H 956.005 -1.78588 -1.14978 0
M  V30 10450 H 958.268 -0.761508 -0.564633 0
M  V30 10451 H 957.974 -2.43255 -2.54007 0
M  V30 10452 H 957.848 -1.05611 -3.62114 0
M  V30 10453 H 960.235 -0.343832 -2.9309 0
M  V30 10454 H 960.316 -1.75256 -1.86331 0
M  V30 10455 H 959.96 -3.27501 -3.88208 0
M  V30 10456 H 959.89 -1.83919 -4.93438 0
M  V30 10457 H 962.381 -1.69046 -3.37982 0
M  V30 10458 H 962.694 -4.00487 -6.60931 0
M  V30 10459 H 961.039 -3.59575 -5.94753 0
M  V30 10460 H 964.23 -2.16897 -4.14817 0
M  V30 10461 H 964.403 -3.22416 -5.62096 0
M  V30 10462 N 957.809 1.4625 -0.587256 0
M  V30 10463 C 958.739 2.33132 0.131076 0
M  V30 10464 C 959.72 1.45619 0.879158 0
M  V30 10465 O 960.905 1.74428 0.853723 0
M  V30 10466 C 958.035 3.27975 1.14236 0
M  V30 10467 C 956.989 4.24965 0.508819 0
M  V30 10468 C 956.315 5.09349 1.62689 0
M  V30 10469 C 957.615 5.19322 -0.55694 0
M  V30 10470 H 959.309 2.93442 -0.594333 0
M  V30 10471 H 956.855 1.41106 -0.287263 0
M  V30 10472 H 958.808 3.87614 1.65328 0
M  V30 10473 H 957.532 2.65781 1.8981 0
M  V30 10474 H 956.191 3.66595 0.0189337 0
M  V30 10475 H 955.839 4.43537 2.37242 0
M  V30 10476 H 955.539 5.75036 1.20861 0
M  V30 10477 H 957.063 5.71852 2.14049 0
M  V30 10478 H 958.477 5.73151 -0.130903 0
M  V30 10479 H 956.874 5.93376 -0.895801 0
M  V30 10480 H 957.944 4.62979 -1.44148 0
M  V30 10481 N 959.287 0.325282 1.54207 0
M  V30 10482 C 960.535 -0.276229 2.00203 0
M  V30 10483 C 960.856 -1.52519 1.21503 0
M  V30 10484 O 960.126 -1.93313 0.317302 0
M  V30 10485 H 958.706 -0.105059 0.739575 0
M  V30 10486 H 961.368 0.442225 1.89817 0
M  V30 10487 H 960.464 -0.531427 3.07542 0
M  V30 10488 N 960.765 -1.57509 0.0534917 0
M  V30 10489 C 962.176 -1.80374 -0.481867 0
M  V30 10490 C 962.527 -0.965917 -1.70776 0
M  V30 10491 O 961.652 -0.183167 -2.15623 0
M  V30 10492 C 962.247 -3.27146 -0.880978 0
M  V30 10493 C 960.806 -3.50921 -1.3613 0
M  V30 10494 C 959.953 -2.75237 -0.337611 0
M  V30 10495 H 962.904 -1.56222 0.279353 0
M  V30 10496 H 962.925 -3.38193 -1.74373 0
M  V30 10497 H 962.437 -3.88098 0.011441 0
M  V30 10498 H 960.538 -2.95251 -2.27283 0
M  V30 10499 H 960.651 -4.59632 -1.35186 0
M  V30 10500 H 959.015 -2.41444 -0.810991 0
M  V30 10501 H 959.798 -3.38918 0.546763 0
M  V30 10502 N 962.243 0.219913 -1.56058 0
M  V30 10503 C 963.489 0.945463 -1.79412 0
M  V30 10504 C 963.822 1.83922 -0.62341 0
M  V30 10505 O 963.097 1.90806 0.377256 0
M  V30 10506 C 963.38 1.783 -3.1286 0
M  V30 10507 C 963.233 0.915626 -4.40382 0
M  V30 10508 C 964.552 2.76045 -3.42764 0
M  V30 10509 H 961.671 0.342288 -0.652693 0
M  V30 10510 H 964.313 0.214235 -1.88788 0
M  V30 10511 H 962.463 2.40642 -3.04998 0
M  V30 10512 H 964.135 0.30882 -4.60265 0
M  V30 10513 H 962.378 0.221124 -4.33236 0
M  V30 10514 H 963.049 1.53607 -5.30197 0
M  V30 10515 H 965.525 2.23838 -3.50764 0
M  V30 10516 H 964.401 3.31748 -4.37304 0
M  V30 10517 H 964.662 3.53866 -2.65012 0
M  V30 10518 N 963.721 1.49897 0.486681 0
M  V30 10519 C 964.949 1.63837 1.26353 0
M  V30 10520 C 965.364 0.315428 1.86146 0
M  V30 10521 O 964.721 -0.700831 1.68507 0
M  V30 10522 C 964.772 2.71792 2.38351 0
M  V30 10523 O 964.493 3.98956 1.81013 0
M  V30 10524 C 965.994 2.96566 3.2949 0
M  V30 10525 H 963.214 0.551158 0.382709 0
M  V30 10526 H 965.758 1.96023 0.582694 0
M  V30 10527 H 963.913 2.42344 3.02238 0
M  V30 10528 H 964.327 4.58536 2.54647 0
M  V30 10529 H 965.801 3.75803 4.04322 0
M  V30 10530 H 966.278 2.07031 3.87343 0
M  V30 10531 H 966.884 3.27485 2.71355 0
M  V30 10532 N 965.199 -0.738761 1.39212 0
M  V30 10533 C 966.149 -1.84376 1.34125 0
M  V30 10534 C 967.133 -1.5935 0.222793 0
M  V30 10535 O 968.325 -1.70918 0.460014 0
M  V30 10536 C 965.454 -3.22261 1.18334 0
M  V30 10537 C 964.54 -3.53129 2.34864 0
M  V30 10538 N 964.931 -3.54957 3.60332 0
M  V30 10539 C 963.229 -3.83472 2.27739 0
M  V30 10540 C 963.93 -3.83513 4.3737 0
M  V30 10541 N 962.906 -4.01097 3.66909 0
M  V30 10542 H 966.708 -1.84089 2.29104 0
M  V30 10543 H 964.222 -0.936826 1.32655 0
M  V30 10544 H 966.219 -4.01358 1.12772 0
M  V30 10545 H 964.879 -3.23789 0.243016 0
M  V30 10546 H 965.89 -3.36359 3.93806 0
M  V30 10547 H 962.567 -3.92628 1.41949 0
M  V30 10548 H 963.957 -3.91427 5.46109 0
M  V30 10549 N 966.677 -1.24326 -0.968545 0
M  V30 10550 C 967.609 -0.992749 -2.06584 0
M  V30 10551 C 968.622 0.0374902 -1.62757 0
M  V30 10552 O 969.811 -0.199448 -1.77382 0
M  V30 10553 C 966.911 -0.476165 -3.35538 0
M  V30 10554 C 966.084 -1.56934 -4.08277 0
M  V30 10555 C 965.143 -1.05555 -5.15504 0
M  V30 10556 O 964.169 -1.74707 -5.41725 0
M  V30 10557 N 965.371 0.110465 -5.80395 0
M  V30 10558 H 968.136 -1.93752 -2.28649 0
M  V30 10559 H 965.697 -1.15344 -1.13611 0
M  V30 10560 H 967.689 -0.117223 -4.0453 0
M  V30 10561 H 966.259 0.374315 -3.10351 0
M  V30 10562 H 965.479 -2.10051 -3.33575 0
M  V30 10563 H 966.767 -2.30415 -4.53637 0
M  V30 10564 H 966.165 0.688614 -5.61493 0
M  V30 10565 H 964.722 0.41056 -6.50506 0
M  V30 10566 N 968.156 1.1691 -1.05688 0
M  V30 10567 C 969.402 1.8757 -0.771071 0
M  V30 10568 C 969.735 1.8113 0.700399 0
M  V30 10569 O 969.01 1.22273 1.5126 0
M  V30 10570 C 969.293 3.37392 -1.25851 0
M  V30 10571 C 969.146 3.52556 -2.79329 0
M  V30 10572 C 970.465 4.31585 -0.861512 0
M  V30 10573 H 967.584 0.681089 -0.281579 0
M  V30 10574 H 970.226 1.37453 -1.31174 0
M  V30 10575 H 968.376 3.80204 -0.798563 0
M  V30 10576 H 970.048 3.18725 -3.33485 0
M  V30 10577 H 968.291 2.94668 -3.1836 0
M  V30 10578 H 968.962 4.57748 -3.08498 0
M  V30 10579 H 971.438 3.96642 -1.25756 0
M  V30 10580 H 970.314 5.34939 -1.23012 0
M  V30 10581 H 970.575 4.4148 0.234089 0
M  V30 10582 N 969.634 0.838594 1.33437 0
M  V30 10583 C 970.597 0.276843 2.27522 0
M  V30 10584 C 971.597 -0.554275 1.50945 0
M  V30 10585 O 972.787 -0.368107 1.70266 0
M  V30 10586 C 969.919 -0.610036 3.35397 0
M  V30 10587 H 971.112 1.10705 2.78719 0
M  V30 10588 H 968.665 0.611657 1.43835 0
M  V30 10589 H 969.4 -1.46269 2.89441 0
M  V30 10590 H 969.185 -0.0153615 3.92097 0
M  V30 10591 H 970.675 -0.996368 4.05539 0
M  V30 10592 N 971.112 -1.45937 0.595003 0
M  V30 10593 C 972.022 -2.34221 -0.133325 0
M  V30 10594 C 973.038 -1.50491 -0.873407 0
M  V30 10595 O 974.214 -1.83328 -0.833828 0
M  V30 10596 C 971.279 -3.27896 -1.12628 0
M  V30 10597 C 970.34 -4.27529 -0.389532 0
M  V30 10598 C 969.573 -5.16729 -1.33519 0
M  V30 10599 O 969.796 -5.09102 -2.57238 0
M  V30 10600 O 968.73 -5.96023 -0.839084 0
M  V30 10601 H 972.556 -2.97877 0.591861 0
M  V30 10602 H 970.141 -1.45113 0.355329 0
M  V30 10603 H 972.023 -3.85654 -1.69851 0
M  V30 10604 H 970.698 -2.6682 -1.83272 0
M  V30 10605 H 969.605 -3.73424 0.224843 0
M  V30 10606 H 970.938 -4.91425 0.276169 0
M  V30 10607 N 972.59 -0.333456 -1.54032 0
M  V30 10608 C 974.006 0.0188405 -1.59589 0
M  V30 10609 C 974.206 1.49615 -1.34972 0
M  V30 10610 O 973.262 2.2535 -1.13901 0
M  V30 10611 C 974.575 -0.408273 -2.97915 0
M  V30 10612 C 976.123 -0.359763 -3.10926 0
M  V30 10613 C 976.598 -0.76219 -4.51613 0
M  V30 10614 N 978.089 -0.715981 -4.57633 0
M  V30 10615 C 978.824 -0.999436 -5.64623 0
M  V30 10616 N 978.32 -1.35053 -6.79509 0
M  V30 10617 N 980.113 -0.924343 -5.54448 0
M  V30 10618 H 972.264 -1.29587 -1.68289 0
M  V30 10619 H 974.527 -0.527584 -0.787629 0
M  V30 10620 H 974.233 -1.43793 -3.20962 0
M  V30 10621 H 974.107 0.221685 -3.76548 0
M  V30 10622 H 976.494 0.660703 -2.87609 0
M  V30 10623 H 976.575 -1.02479 -2.34375 0
M  V30 10624 H 976.219 -1.78062 -4.75664 0
M  V30 10625 H 976.149 -0.0747478 -5.26547 0
M  V30 10626 H 978.64 -0.456875 -3.75128 0
M  V30 10627 H 978.953 -1.55194 -7.57057 0
M  V30 10628 H 977.298 -1.38889 -6.80981 0
M  V30 10629 H 980.489 -0.649469 -4.63573 0
M  V30 10630 H 980.662 -1.1486 -6.37739 0
M  V30 10631 N 974.068 1.57479 -0.061844 0
M  V30 10632 C 975.001 2.07734 0.94455 0
M  V30 10633 C 975.979 0.980207 1.29733 0
M  V30 10634 O 977.163 1.2529 1.40836 0
M  V30 10635 C 974.29 2.52673 2.25553 0
M  V30 10636 C 973.336 3.73725 2.05503 0
M  V30 10637 S 974.169 5.18886 1.32354 0
M  V30 10638 C 975.325 5.67148 2.64753 0
M  V30 10639 H 975.558 2.92772 0.516888 0
M  V30 10640 H 973.091 1.53663 0.150684 0
M  V30 10641 H 975.049 2.79226 3.00904 0
M  V30 10642 H 973.71 1.67921 2.65445 0
M  V30 10643 H 972.903 4.03125 3.025 0
M  V30 10644 H 972.505 3.47494 1.3829 0
M  V30 10645 H 974.797 5.73385 3.60882 0
M  V30 10646 H 975.74 6.66196 2.39976 0
M  V30 10647 H 976.148 4.94921 2.71502 0
M  V30 10648 N 975.546 -0.211634 1.56173 0
M  V30 10649 C 976.509 -1.24588 1.92381 0
M  V30 10650 C 977.509 -1.39297 0.803311 0
M  V30 10651 O 978.699 -1.37392 1.07094 0
M  V30 10652 C 975.831 -2.61807 2.18335 0
M  V30 10653 H 977.024 -0.936814 2.84893 0
M  V30 10654 H 974.577 -0.452471 1.49607 0
M  V30 10655 H 975.312 -2.97795 1.28407 0
M  V30 10656 H 975.097 -2.52506 2.99972 0
M  V30 10657 H 976.587 -3.3642 2.4741 0
M  V30 10658 N 977.024 -1.50153 -0.478725 0
M  V30 10659 C 978.273 -1.60002 -1.22809 0
M  V30 10660 C 978.586 -0.302277 -1.9325 0
M  V30 10661 O 979.792 -0.279583 -2.70057 0
M  V30 10662 C 978.248 -2.82402 -2.23108 0
M  V30 10663 C 977.856 -4.19023 -1.58505 0
M  V30 10664 C 979.6 -3.01593 -2.98734 0
M  V30 10665 C 977.507 -5.32618 -2.57045 0
M  V30 10666 H 976.437 -0.595822 -0.462073 0
M  V30 10667 H 979.088 -1.76573 -0.499412 0
M  V30 10668 H 977.47 -2.59373 -2.99235 0
M  V30 10669 H 978.644 -4.52277 -0.882187 0
M  V30 10670 H 976.959 -4.05374 -0.951877 0
M  V30 10671 H 979.556 -3.8363 -3.72468 0
M  V30 10672 H 979.899 -2.1302 -3.57671 0
M  V30 10673 H 980.432 -3.24766 -2.29721 0
M  V30 10674 H 977.171 -6.23321 -2.02858 0
M  V30 10675 H 976.691 -5.03792 -3.25505 0
M  V30 10676 H 978.37 -5.62877 -3.19028 0
M  V30 10677 N 978.502 0.731368 -1.39602 0
M  V30 10678 C 979.434 1.85575 -1.34516 0
M  V30 10679 C 980.447 1.60818 -0.253287 0
M  V30 10680 O 981.636 1.70984 -0.512505 0
M  V30 10681 C 978.736 3.21673 -1.06676 0
M  V30 10682 C 977.909 3.73757 -2.27211 0
M  V30 10683 C 976.968 4.88426 -1.95773 0
M  V30 10684 O 975.994 5.01898 -2.68491 0
M  V30 10685 N 977.196 5.73065 -0.926083 0
M  V30 10686 H 979.961 1.90442 -2.31413 0
M  V30 10687 H 977.522 0.912258 -1.33752 0
M  V30 10688 H 979.514 3.95959 -0.836577 0
M  V30 10689 H 978.084 3.12052 -0.185003 0
M  V30 10690 H 977.304 2.90781 -2.66158 0
M  V30 10691 H 978.592 4.05289 -3.07601 0
M  V30 10692 H 977.99 5.64774 -0.323497 0
M  V30 10693 H 976.547 6.47403 -0.755795 0
M  V30 10694 N 979.98 1.24838 0.961938 0
M  V30 10695 C 980.913 0.989041 2.05653 0
M  V30 10696 C 981.891 -0.079199 1.62407 0
M  V30 10697 O 983.075 0.0589397 1.88408 0
M  V30 10698 C 980.202 0.493661 3.35083 0
M  V30 10699 C 979.248 1.55132 3.97286 0
M  V30 10700 S 980.081 3.13438 4.34185 0
M  V30 10701 C 981.237 2.65617 5.66744 0
M  V30 10702 H 981.47 1.91588 2.27335 0
M  V30 10703 H 979.003 1.08287 1.10061 0
M  V30 10704 H 980.961 0.214482 4.09939 0
M  V30 10705 H 979.622 -0.412559 3.11379 0
M  V30 10706 H 978.815 1.15525 4.90581 0
M  V30 10707 H 978.417 1.78081 3.28882 0
M  V30 10708 H 980.709 2.08788 6.44526 0
M  V30 10709 H 981.652 3.57524 6.11214 0
M  V30 10710 H 982.06 2.05853 5.25628 0
M  V30 10711 N 981.458 -1.16348 1.06306 0
M  V30 10712 C 982.421 -2.18941 0.678053 0
M  V30 10713 C 983.421 -1.58409 -0.276277 0
M  V30 10714 O 984.611 -1.74101 -0.0586435 0
M  V30 10715 C 981.743 -3.409 -0.00228684 0
M  V30 10716 H 982.936 -2.54516 1.58624 0
M  V30 10717 H 980.489 -1.30625 0.858298 0
M  V30 10718 H 981.224 -3.10881 -0.923212 0
M  V30 10719 H 981.009 -3.86089 0.683949 0
M  V30 10720 H 982.499 -4.16806 -0.257374 0
M  V30 10721 N 982.937 -0.845659 -1.3299 0
M  V30 10722 C 983.867 -0.298957 -2.31578 0
M  V30 10723 C 984.848 0.597012 -1.59279 0
M  V30 10724 O 986.033 0.519142 -1.87132 0
M  V30 10725 C 983.163 0.521109 -3.43368 0
M  V30 10726 C 982.117 -0.279651 -4.27085 0
M  V30 10727 C 981.443 0.664591 -5.30554 0
M  V30 10728 C 982.743 -1.50046 -5.00283 0
M  V30 10729 H 984.437 -1.12272 -2.77552 0
M  V30 10730 H 981.983 -0.54132 -1.33438 0
M  V30 10731 H 983.936 0.913921 -4.1137 0
M  V30 10732 H 982.66 1.37815 -2.96099 0
M  V30 10733 H 981.319 -0.654106 -3.60717 0
M  V30 10734 H 980.967 1.51822 -4.79541 0
M  V30 10735 H 980.667 0.132871 -5.8745 0
M  V30 10736 H 982.191 1.05477 -6.01421 0
M  V30 10737 H 983.605 -1.18044 -5.61016 0
M  V30 10738 H 982.002 -1.96946 -5.66862 0
M  V30 10739 H 983.072 -2.26659 -4.28665 0
M  V30 10740 N 984.415 1.45619 -0.602734 0
M  V30 10741 C 985.325 2.34288 0.120902 0
M  V30 10742 C 986.341 1.50952 0.865414 0
M  V30 10743 O 987.517 1.83768 0.824094 0
M  V30 10744 C 984.582 3.28489 1.10888 0
M  V30 10745 C 983.643 4.2773 0.366853 0
M  V30 10746 C 982.876 5.17429 1.30776 0
M  V30 10747 O 983.099 5.10459 2.54535 0
M  V30 10748 O 982.033 5.96459 0.807464 0
M  V30 10749 H 985.859 2.97559 -0.60765 0
M  V30 10750 H 983.444 1.44922 -0.363019 0
M  V30 10751 H 985.326 3.86549 1.67803 0
M  V30 10752 H 984.001 2.67789 1.81854 0
M  V30 10753 H 982.908 3.73299 -0.244643 0
M  V30 10754 H 984.241 4.91271 -0.302226 0
M  V30 10755 N 985.893 0.34162 1.53853 0
M  V30 10756 C 987.17 -0.310664 1.93117 0
M  V30 10757 C 987.55 -1.68398 1.273 0
M  V30 10758 O 986.898 -2.24546 0.423225 0
M  V30 10759 C 987.108 -0.384867 3.46871 0
M  V30 10760 C 988.456 -0.636621 4.198 0
M  V30 10761 O 989.48 -0.467061 3.53125 0
M  V30 10762 O 988.339 -0.964962 5.37913 0
M  V30 10763 H 985.433 -0.180881 0.806977 0
M  V30 10764 H 987.979 0.392656 1.65095 0
M  V30 10765 H 986.751 0.57894 3.86994 0
M  V30 10766 H 986.374 -1.13505 3.81054 0
M  V30 10767 N 987.371 -1.57444 0.0701946 0
M  V30 10768 C 988.599 -1.97754 -0.608358 0
M  V30 10769 C 989.014 -0.948496 -1.63245 0
M  V30 10770 O 988.371 0.065046 -1.82384 0
M  V30 10771 C 988.422 -3.38142 -1.27836 0
M  V30 10772 O 988.143 -4.37104 -0.295255 0
M  V30 10773 C 989.644 -3.93318 -2.04489 0
M  V30 10774 H 986.864 -0.650398 -0.164997 0
M  V30 10775 H 989.408 -2.04006 0.142124 0
M  V30 10776 H 987.563 -3.32982 -1.97994 0
M  V30 10777 H 987.977 -5.18732 -0.77574 0
M  V30 10778 H 989.451 -4.93774 -2.46762 0
M  V30 10779 H 989.928 -3.29774 -2.90079 0
M  V30 10780 H 990.534 -4.01875 -1.39201 0
M  V30 10781 N 988.849 0.203349 -1.56283 0
M  V30 10782 C 990.265 0.55384 -1.49682 0
M  V30 10783 C 990.465 1.86261 -0.768701 0
M  V30 10784 O 989.521 2.50517 -0.315824 0
M  V30 10785 C 990.834 0.616216 -2.94318 0
M  V30 10786 C 992.382 0.705611 -3.04943 0
M  V30 10787 C 992.857 0.79917 -4.50974 0
M  V30 10788 N 994.348 0.862916 -4.55091 0
M  V30 10789 C 995.083 0.955334 -5.65386 0
M  V30 10790 N 994.579 1.01057 -6.8539 0
M  V30 10791 N 996.372 0.991884 -5.53279 0
M  V30 10792 H 988.523 -0.655244 -2.0204 0
M  V30 10793 H 990.786 -0.232344 -0.919087 0
M  V30 10794 H 990.492 -0.27619 -3.50614 0
M  V30 10795 H 990.366 1.47371 -3.4722 0
M  V30 10796 H 992.753 1.58845 -2.48701 0
M  V30 10797 H 992.834 -0.177921 -2.5518 0
M  V30 10798 H 992.478 -0.0792841 -5.07838 0
M  V30 10799 H 992.408 1.69838 -4.9846 0
M  V30 10800 H 994.899 0.829812 -3.68677 0
M  V30 10801 H 995.212 1.08137 -7.65197 0
M  V30 10802 H 993.557 0.979384 -6.88065 0
M  V30 10803 H 996.748 0.945514 -4.58451 0
M  V30 10804 H 996.921 1.06045 -6.39264 0
M  V30 10805 N 990.327 1.50405 0.470755 0
M  V30 10806 C 991.604 1.51929 1.23195 0
M  V30 10807 C 991.984 0.264159 2.09441 0
M  V30 10808 O 991.332 -0.752395 2.15757 0
M  V30 10809 C 991.542 2.81521 2.06269 0
M  V30 10810 C 992.89 3.32195 2.64446 0
M  V30 10811 O 993.914 2.82845 2.16511 0
M  V30 10812 O 992.773 4.18221 3.51786 0
M  V30 10813 H 989.867 0.609411 0.559059 0
M  V30 10814 H 992.413 1.62695 0.482549 0
M  V30 10815 H 991.185 3.64346 1.42715 0
M  V30 10816 H 990.808 2.7376 2.88342 0
M  V30 10817 N 991.805 -0.723954 1.39988 0
M  V30 10818 C 992.752 -1.83803 1.39589 0
M  V30 10819 C 993.722 -1.64146 0.253996 0
M  V30 10820 O 994.907 -1.85398 0.450793 0
M  V30 10821 C 992.047 -3.21431 1.25604 0
M  V30 10822 C 991.16 -3.52717 2.49429 0
M  V30 10823 C 990.295 -4.79805 2.27949 0
M  V30 10824 C 989.334 -5.03968 3.47394 0
M  V30 10825 N 988.471 -6.22266 3.25161 0
M  V30 10826 H 993.311 -1.83479 2.34818 0
M  V30 10827 H 990.848 -0.896396 1.16633 0
M  V30 10828 H 992.806 -4.00892 1.15504 0
M  V30 10829 H 991.436 -3.21005 0.339986 0
M  V30 10830 H 990.488 -2.67872 2.7009 0
M  V30 10831 H 991.8 -3.66486 3.38363 0
M  V30 10832 H 990.954 -5.67268 2.15155 0
M  V30 10833 H 989.693 -4.68229 1.36428 0
M  V30 10834 H 988.698 -4.14963 3.60674 0
M  V30 10835 H 989.923 -5.17422 4.39831 0
M  V30 10836 H 987.869 -6.11957 2.36314 0
M  V30 10837 H 987.786 -6.36673 4.07656 0
M  V30 10838 H 989.054 -7.12539 3.16083 0
M  V30 10839 N 993.283 -1.25346 -0.955304 0
M  V30 10840 C 994.215 -1.0146 -2.0552 0
M  V30 10841 C 995.228 0.0202256 -1.62787 0
M  V30 10842 O 996.417 -0.218251 -1.77161 0
M  V30 10843 C 993.517 -0.511727 -3.35014 0
M  V30 10844 C 992.69 -1.61256 -4.0659 0
M  V30 10845 C 991.749 -1.11017 -5.14356 0
M  V30 10846 O 990.775 -1.80443 -5.39842 0
M  V30 10847 N 991.977 0.0489001 -5.80479 0
M  V30 10848 H 994.742 -1.96166 -2.26581 0
M  V30 10849 H 992.303 -1.16543 -1.12381 0
M  V30 10850 H 994.295 -0.160123 -4.04383 0
M  V30 10851 H 992.865 0.341377 -3.1073 0
M  V30 10852 H 992.085 -2.13577 -3.31328 0
M  V30 10853 H 993.373 -2.35213 -4.51168 0
M  V30 10854 H 992.771 0.629021 -5.62192 0
M  V30 10855 H 991.328 0.341542 -6.50905 0
M  V30 10856 N 994.761 1.15782 -1.06922 0
M  V30 10857 C 996.007 1.86741 -0.790922 0
M  V30 10858 C 996.34 1.81863 0.681149 0
M  V30 10859 O 995.615 1.23871 1.49954 0
M  V30 10860 C 995.898 3.36038 -1.29422 0
M  V30 10861 C 995.751 3.49573 -2.83052 0
M  V30 10862 C 997.07 4.30647 -0.907239 0
M  V30 10863 H 994.189 0.678064 -0.288787 0
M  V30 10864 H 996.831 1.36054 -1.32624 0
M  V30 10865 H 994.981 3.79336 -0.838843 0
M  V30 10866 H 996.653 3.1517 -3.36847 0
M  V30 10867 H 994.896 2.91275 -3.21467 0
M  V30 10868 H 995.567 4.5445 -3.13335 0
M  V30 10869 H 998.043 3.95286 -1.29956 0
M  V30 10870 H 996.919 5.33604 -1.28679 0
M  V30 10871 H 997.18 4.41703 0.187251 0
M  V30 10872 N 996.239 0.8527 1.3254 0
M  V30 10873 C 997.187 0.284659 2.30852 0
M  V30 10874 C 998.181 -0.5909 1.5876 0
M  V30 10875 O 999.387 -0.478922 1.73512 0
M  V30 10876 H 995.762 0.0733452 0.748415 0
M  V30 10877 H 997.733 1.1281 2.76254 0
M  V30 10878 C 996.482 -0.51379 3.43883 0
M  V30 10879 H 995.805 0.150644 3.99516 0
M  V30 10880 H 997.245 -0.876866 4.14834 0
M  V30 10881 C 995.704 -1.69823 2.90967 0
M  V30 10882 O 996.234 -2.79727 2.88298 0
M  V30 10883 N 994.44 -1.52465 2.47392 0
M  V30 10884 H 993.987 -0.630599 2.49762 0
M  V30 10885 H 993.945 -2.31859 2.12341 0
M  V30 10886 N 997.718 -1.45297 0.610449 0
M  V30 10887 C 998.967 -2.0143 0.104323 0
M  V30 10888 C 999.28 -1.48431 -1.27388 0
M  V30 10889 O 1000.49 -1.96558 -1.87289 0
M  V30 10890 C 998.942 -3.59644 0.135812 0
M  V30 10891 C 998.55 -4.2164 1.51405 0
M  V30 10892 C 1000.29 -4.2333 -0.314922 0
M  V30 10893 C 998.201 -5.72015 1.50176 0
M  V30 10894 H 997.131 -0.753176 0.035233 0
M  V30 10895 H 999.782 -1.66738 0.7662 0
M  V30 10896 H 998.164 -3.91538 -0.592773 0
M  V30 10897 H 999.338 -4.01315 2.26457 0
M  V30 10898 H 997.653 -3.70159 1.90712 0
M  V30 10899 H 1000.25 -5.33597 -0.343335 0
M  V30 10900 H 1000.59 -3.94206 -1.33817 0
M  V30 10901 H 1001.13 -3.96163 0.360489 0
M  V30 10902 H 997.865 -6.05842 2.50271 0
M  V30 10903 H 997.385 -5.94523 0.793869 0
M  V30 10904 H 999.064 -6.35266 1.22665 0
M  V30 10905 N 999.196 -0.349774 -1.5367 0
M  V30 10906 C 1000.44 0.245189 -2.01312 0
M  V30 10907 C 1000.77 1.49702 -1.23705 0
M  V30 10908 O 1000.05 1.91742 -0.326371 0
M  V30 10909 C 1000.33 0.553071 -3.55827 0
M  V30 10910 C 1000.19 -0.71129 -4.4414 0
M  V30 10911 C 1001.5 1.36015 -4.18555 0
M  V30 10912 H 998.624 0.0876415 -0.73177 0
M  V30 10913 H 1001.27 -0.471543 -1.84056 0
M  V30 10914 H 999.416 1.16367 -3.70663 0
M  V30 10915 H 1001.09 -1.34913 -4.41131 0
M  V30 10916 H 999.331 -1.33491 -4.1275 0
M  V30 10917 H 1000 -0.45104 -5.50154 0
M  V30 10918 H 1002.48 0.843778 -4.07455 0
M  V30 10919 H 1001.35 1.54432 -5.26728 0
M  V30 10920 H 1001.61 2.36408 -3.73582 0
M  V30 10921 N 1000.67 1.57404 -0.0785433 0
M  V30 10922 C 1001.9 1.98074 0.597862 0
M  V30 10923 C 1002.32 0.95714 1.6274 0
M  V30 10924 O 1001.67 -0.0553728 1.82416 0
M  V30 10925 C 1001.72 3.38815 1.26041 0
M  V30 10926 O 1001.45 4.37254 0.27207 0
M  V30 10927 C 1002.95 3.94397 2.024 0
M  V30 10928 H 1000.17 0.651263 0.161546 0
M  V30 10929 H 1002.71 2.03927 -0.152941 0
M  V30 10930 H 1000.87 3.34028 1.96225 0
M  V30 10931 H 1001.28 5.19136 0.74822 0
M  V30 10932 H 1002.75 4.95075 2.4414 0
M  V30 10933 H 1003.23 3.31308 2.88326 0
M  V30 10934 H 1003.84 4.02607 1.37068 0
M  V30 10935 N 1002.15 -0.195058 1.56388 0
M  V30 10936 C 1003.43 -0.941335 1.71459 0
M  V30 10937 C 1003.81 -2.01375 0.633336 0
M  V30 10938 O 1003.16 -2.25715 -0.35567 0
M  V30 10939 C 1003.37 -1.52772 3.13786 0
M  V30 10940 C 1004.71 -2.00983 3.7402 0
M  V30 10941 O 1005.74 -1.62614 3.16915 0
M  V30 10942 O 1004.6 -2.71586 4.7424 0
M  V30 10943 H 1001.69 -0.441451 0.699321 0
M  V30 10944 H 1004.24 -0.184752 1.68691 0
M  V30 10945 H 1003.01 -0.754699 3.83953 0
M  V30 10946 H 1002.63 -2.34914 3.20782 0
M  V30 10947 N 1003.63 -1.50653 -0.462772 0
M  V30 10948 C 1004.85 -1.66103 -1.24196 0
M  V30 10949 C 1005.28 -0.347421 -1.84864 0
M  V30 10950 O 1004.64 0.689673 -1.6767 0
M  V30 10951 C 1004.69 -2.76027 -2.32037 0
M  V30 10952 O 1003.79 -2.37859 -3.36893 0
M  V30 10953 H 1003.13 -0.554672 -0.365014 0
M  V30 10954 H 1005.66 -1.97076 -0.549734 0
M  V30 10955 H 1005.67 -2.99354 -2.77221 0
M  V30 10956 H 1004.35 -3.71361 -1.87253 0
M  V30 10957 H 1002.92 -2.2501 -2.97363 0
M  V30 10958 N 1005.11 0.71652 -1.4037 0
M  V30 10959 C 1006.34 1.50344 -1.41704 0
M  V30 10960 C 1006.75 1.89194 -0.0148011 0
M  V30 10961 O 1006.09 1.55916 0.971391 0
M  V30 10962 C 1006.15 2.80928 -2.2432 0
M  V30 10963 C 1005.82 2.64406 -3.72744 0
M  V30 10964 C 1006.81 2.31727 -4.65401 0
M  V30 10965 C 1004.5 2.807 -4.16549 0
M  V30 10966 C 1006.49 2.15551 -5.99847 0
M  V30 10967 C 1004.18 2.64141 -5.51065 0
M  V30 10968 C 1005.18 2.31614 -6.42529 0
M  V30 10969 O 1004.86 2.15179 -7.74566 0
M  V30 10970 H 1004.6 0.470574 -0.48532 0
M  V30 10971 H 1007.15 0.89152 -1.85043 0
M  V30 10972 H 1005.38 3.4445 -1.75759 0
M  V30 10973 H 1007.07 3.4264 -2.17607 0
M  V30 10974 H 1007.84 2.18773 -4.32855 0
M  V30 10975 H 1003.71 3.05005 -3.45677 0
M  V30 10976 H 1007.26 1.90084 -6.71203 0
M  V30 10977 H 1003.16 2.76679 -5.83197 0
M  V30 10978 H 1003.92 2.30106 -7.85489 0
M  V30 10979 N 1006.59 1.25851 0.948643 0
M  V30 10980 C 1007.82 1.13546 1.726 0
M  V30 10981 C 1008.22 -0.312857 1.86595 0
M  V30 10982 O 1007.57 -1.22657 1.36751 0
M  V30 10983 C 1007.63 1.72315 3.15512 0
M  V30 10984 C 1007.29 3.2136 3.24926 0
M  V30 10985 C 1008.29 4.18274 3.08777 0
M  V30 10986 C 1005.98 3.61683 3.48555 0
M  V30 10987 C 1007.97 5.53491 3.16112 0
M  V30 10988 C 1005.66 4.97035 3.55526 0
M  V30 10989 C 1006.65 5.92749 3.3932 0
M  V30 10990 O 1006.34 7.25637 3.45985 0
M  V30 10991 H 1006.07 0.396555 0.547467 0
M  V30 10992 H 1008.63 1.66822 1.19832 0
M  V30 10993 H 1006.86 1.13494 3.6967 0
M  V30 10994 H 1008.55 1.55024 3.7513 0
M  V30 10995 H 1009.31 3.88461 2.90385 0
M  V30 10996 H 1005.19 2.87674 3.60229 0
M  V30 10997 H 1008.74 6.28177 3.0338 0
M  V30 10998 H 1004.63 5.26512 3.73437 0
M  V30 10999 H 1005.4 7.33812 3.62577 0
M  V30 11000 N 1008.06 -1.15214 1.07534 0
M  V30 11001 C 1009.3 -1.87708 0.809009 0
M  V30 11002 C 1009.67 -1.80552 -0.653066 0
M  V30 11003 O 1010.87 -2.48095 -1.03452 0
M  V30 11004 C 1009.14 -3.32703 1.30552 0
M  V30 11005 S 1010.7 -4.2291 1.17015 0
M  V30 11006 H 1007.52 -0.647767 0.293118 0
M  V30 11007 H 1010.12 -1.38992 1.37482 0
M  V30 11008 H 1008.82 -3.35456 2.36427 0
M  V30 11009 H 1008.35 -3.86473 0.734995 0
M  V30 11010 H 1010.37 -4.96081 0.108836 0
M  V30 11011 N 1009.54 -0.859717 -1.32086 0
M  V30 11012 C 1010.79 -0.475565 -1.97762 0
M  V30 11013 C 1011.14 0.959348 -1.66776 0
M  V30 11014 O 1010.44 1.66484 -0.948343 0
M  V30 11015 C 1010.63 -0.657397 -3.51302 0
M  V30 11016 C 1010.46 -2.10843 -3.97209 0
M  V30 11017 C 1009.23 -2.74796 -4.24046 0
M  V30 11018 C 1011.43 -3.07959 -4.11905 0
M  V30 11019 N 1009.41 -4.10758 -4.56236 0
M  V30 11020 C 1010.78 -4.28922 -4.4769 0
M  V30 11021 C 1012.84 -3.04086 -3.94254 0
M  V30 11022 C 1011.54 -5.46518 -4.67665 0
M  V30 11023 C 1013.56 -4.20931 -4.15416 0
M  V30 11024 C 1012.93 -5.40654 -4.51522 0
M  V30 11025 H 1009.03 -0.222859 -0.749572 0
M  V30 11026 H 1011.61 -1.11217 -1.59809 0
M  V30 11027 H 1009.78 -0.0504597 -3.88367 0
M  V30 11028 H 1011.51 -0.242642 -4.03972 0
M  V30 11029 H 1008.27 -2.25805 -4.16304 0
M  V30 11030 H 1008.69 -4.80905 -4.76507 0
M  V30 11031 H 1013.33 -2.12641 -3.65436 0
M  V30 11032 H 1011.05 -6.3849 -4.95335 0
M  V30 11033 H 1014.64 -4.19376 -4.03255 0
M  V30 11034 H 1013.52 -6.29563 -4.67568 0
M  V30 11035 N 1011.02 1.44971 -0.618145 0
M  V30 11036 C 1011.97 2.30606 0.09449 0
M  V30 11037 C 1012.94 1.42725 0.849633 0
M  V30 11038 O 1014.12 1.71643 0.833266 0
M  V30 11039 C 1011.26 3.27803 1.07886 0
M  V30 11040 C 1010.38 4.30787 0.323488 0
M  V30 11041 C 1009.51 5.15085 1.29851 0
M  V30 11042 C 1008.55 6.09788 0.531561 0
M  V30 11043 N 1007.69 6.86829 1.4564 0
M  V30 11044 H 1012.53 2.91008 -0.641738 0
M  V30 11045 H 1010.06 1.43391 -0.328259 0
M  V30 11046 H 1012.02 3.82631 1.66281 0
M  V30 11047 H 1010.65 2.69131 1.78237 0
M  V30 11048 H 1009.7 3.78536 -0.376164 0
M  V30 11049 H 1011.02 4.98044 -0.274443 0
M  V30 11050 H 1010.17 5.74365 1.95421 0
M  V30 11051 H 1008.91 4.4787 1.93037 0
M  V30 11052 H 1007.91 5.49628 -0.137702 0
M  V30 11053 H 1009.14 6.79033 -0.0953993 0
M  V30 11054 H 1007.08 6.22295 2.07571 0
M  V30 11055 H 1007 7.50477 0.912167 0
M  V30 11056 H 1008.27 7.50642 2.10134 0
M  V30 11057 N 1012.5 0.357919 1.53482 0
M  V30 11058 C 1013.45 -0.507364 2.26999 0
M  V30 11059 C 1014.44 -1.08987 1.29685 0
M  V30 11060 O 1015.65 -1.03396 1.47341 0
M  V30 11061 H 1012.02 -0.182326 0.729562 0
M  V30 11062 H 1013.99 0.134547 2.98097 0
M  V30 11063 C 1012.74 -1.63911 3.06641 0
M  V30 11064 H 1012.06 -1.20017 3.81361 0
M  V30 11065 H 1013.5 -2.21943 3.61272 0
M  V30 11066 C 1011.96 -2.57697 2.17011 0
M  V30 11067 O 1012.49 -3.60318 1.77578 0
M  V30 11068 N 1010.7 -2.2671 1.818 0
M  V30 11069 H 1010.25 -1.43296 2.14065 0
M  V30 11070 H 1010.2 -2.89716 1.22115 0
M  V30 11071 N 1013.98 -1.5736 0.0868897 0
M  V30 11072 C 1015.23 -1.93229 -0.578387 0
M  V30 11073 C 1015.54 -0.970127 -1.69847 0
M  V30 11074 O 1016.74 -1.22222 -2.42434 0
M  V30 11075 C 1015.2 -3.43307 -1.0802 0
M  V30 11076 C 1014.81 -4.47999 0.00968135 0
M  V30 11077 C 1016.55 -3.88151 -1.71868 0
M  V30 11078 C 1014.46 -5.89223 -0.507029 0
M  V30 11079 H 1013.39 -0.721245 -0.219823 0
M  V30 11080 H 1016.04 -1.82787 0.161566 0
M  V30 11081 H 1014.42 -3.48873 -1.87359 0
M  V30 11082 H 1015.6 -4.54067 0.784865 0
M  V30 11083 H 1013.91 -4.12714 0.552845 0
M  V30 11084 H 1016.51 -4.91056 -2.11585 0
M  V30 11085 H 1016.85 -3.26347 -2.58464 0
M  V30 11086 H 1017.38 -3.85252 -0.991259 0
M  V30 11087 H 1014.12 -6.54708 0.322121 0
M  V30 11088 H 1013.64 -5.86643 -1.2494 0
M  V30 11089 H 1015.32 -6.39556 -0.978628 0
M  V30 11090 N 1015.45 0.186762 -1.56489 0
M  V30 11091 C 1016.68 0.921832 -1.85229 0
M  V30 11092 C 1017.1 1.76496 -0.670416 0
M  V30 11093 O 1016.45 1.78899 0.360758 0
M  V30 11094 C 1016.51 1.81121 -3.12854 0
M  V30 11095 O 1016.23 1.00211 -4.26485 0
M  V30 11096 C 1017.73 2.65725 -3.54831 0
M  V30 11097 H 1014.95 0.268563 -0.61491 0
M  V30 11098 H 1017.49 0.191505 -2.03601 0
M  V30 11099 H 1015.65 2.49506 -2.96354 0
M  V30 11100 H 1016.06 1.60893 -4.99213 0
M  V30 11101 H 1017.53 3.23771 -4.47075 0
M  V30 11102 H 1018.01 3.39843 -2.78215 0
M  V30 11103 H 1018.62 2.02698 -3.7389 0
M  V30 11104 N 1016.93 1.50896 0.454776 0
M  V30 11105 C 1017.84 1.73762 1.5762 0
M  V30 11106 C 1018.86 0.621206 1.62533 0
M  V30 11107 O 1020.03 0.901449 1.801 0
M  V30 11108 C 1017.1 1.84183 2.9373 0
M  V30 11109 C 1016.16 3.07982 2.99075 0
M  V30 11110 C 1015.39 3.17896 4.28693 0
M  V30 11111 O 1015.62 2.34184 5.20109 0
M  V30 11112 O 1014.55 4.10749 4.39964 0
M  V30 11113 H 1018.38 2.68856 1.41245 0
M  V30 11114 H 1015.96 1.35187 0.635984 0
M  V30 11115 H 1017.84 1.93123 3.74542 0
M  V30 11116 H 1016.52 0.922742 3.10269 0
M  V30 11117 H 1015.43 3.04531 2.17282 0
M  V30 11118 H 1016.76 3.99523 2.87476 0
M  V30 11119 N 1018.41 -0.709066 1.40748 0
M  V30 11120 C 1019.66 -1.46611 1.39103 0
M  V30 11121 C 1019.98 -1.95 -0.00365366 0
M  V30 11122 O 1019.25 -1.70791 -0.959541 0
M  V30 11123 H 1017.83 -0.543954 0.511979 0
M  V30 11124 H 1020.49 -0.840141 1.75863 0
M  V30 11125 H 1019.59 -2.33581 2.06994 0
M  V30 11126 N 1019.89 -1.26353 -0.941956 0
M  V30 11127 C 1020.82 -1.10341 -2.05784 0
M  V30 11128 C 1021.8 -0.00881565 -1.70098 0
M  V30 11129 O 1022.99 -0.180699 -1.93357 0
M  V30 11130 C 1020.12 -0.734788 -3.39438 0
M  V30 11131 C 1019.07 -1.78103 -3.89183 0
M  V30 11132 C 1018.4 -1.26675 -5.19478 0
M  V30 11133 C 1019.7 -3.1824 -4.14151 0
M  V30 11134 H 1021.39 -2.03684 -2.19438 0
M  V30 11135 H 1018.94 -0.980698 -1.05443 0
M  V30 11136 H 1020.89 -0.609653 -4.16967 0
M  V30 11137 H 1019.61 0.234354 -3.25758 0
M  V30 11138 H 1018.27 -1.89482 -3.13835 0
M  V30 11139 H 1017.92 -0.287472 -5.02178 0
M  V30 11140 H 1017.62 -1.96612 -5.53731 0
M  V30 11141 H 1019.14 -1.15427 -5.99591 0
M  V30 11142 H 1020.56 -3.09942 -4.82296 0
M  V30 11143 H 1018.95 -3.8576 -4.59684 0
M  V30 11144 H 1020.02 -3.64354 -3.19959 0
M  V30 11145 N 1021.37 1.14642 -1.08144 0
M  V30 11146 C 1022.62 1.8525 -0.807885 0
M  V30 11147 C 1022.94 1.83194 0.668213 0
M  V30 11148 O 1022.21 1.27848 1.48431 0
M  V30 11149 H 1020.79 0.685909 -0.295868 0
M  V30 11150 H 1023.45 1.38935 -1.36686 0
M  V30 11151 H 1022.54 2.90155 -1.14964 0
M  V30 11152 N 1022.85 0.866709 1.31628 0
M  V30 11153 C 1023.78 0.335762 2.31073 0
M  V30 11154 C 1024.76 -0.571597 1.60209 0
M  V30 11155 O 1025.94 -0.489306 1.87935 0
M  V30 11156 C 1023.07 -0.466416 3.44154 0
M  V30 11157 C 1022.03 0.347561 4.26586 0
M  V30 11158 C 1021.35 -0.5801 5.31544 0
M  V30 11159 C 1022.65 1.57986 4.97833 0
M  V30 11160 H 1024.35 1.16673 2.75731 0
M  V30 11161 H 1021.89 0.56248 1.3256 0
M  V30 11162 H 1023.84 -0.84836 4.12772 0
M  V30 11163 H 1022.57 -1.33086 2.98254 0
M  V30 11164 H 1021.23 0.71141 3.59631 0
M  V30 11165 H 1020.88 -1.44174 4.81895 0
M  V30 11166 H 1020.58 -0.0393965 5.87587 0
M  V30 11167 H 1022.1 -0.958958 6.03023 0
M  V30 11168 H 1023.51 1.26954 5.59067 0
M  V30 11169 H 1021.91 2.05939 5.63657 0
M  V30 11170 H 1022.98 2.3345 4.25005 0
M  V30 11171 N 1024.32 -1.44642 0.625825 0
M  V30 11172 C 1025.23 -2.34451 -0.0836134 0
M  V30 11173 C 1026.25 -1.5231 -0.841289 0
M  V30 11174 O 1027.43 -1.85056 -0.794754 0
M  V30 11175 C 1024.49 -3.30211 -1.05648 0
M  V30 11176 C 1023.55 -4.28259 -0.298759 0
M  V30 11177 C 1022.78 -5.19444 -1.22528 0
M  V30 11178 O 1023.01 -5.14444 -2.46382 0
M  V30 11179 O 1021.94 -5.97668 -0.71247 0
M  V30 11180 H 1025.77 -2.96555 0.654912 0
M  V30 11181 H 1023.35 -1.44327 0.386029 0
M  V30 11182 H 1025.23 -3.8917 -1.61632 0
M  V30 11183 H 1023.91 -2.70648 -1.77571 0
M  V30 11184 H 1022.82 -3.72863 0.304001 0
M  V30 11185 H 1024.15 -4.90728 0.380345 0
M  V30 11186 N 1025.8 -0.366053 -1.5329 0
M  V30 11187 C 1027.05 0.223051 -2.00865 0
M  V30 11188 C 1027.37 1.49244 -1.25504 0
M  V30 11189 O 1026.64 1.92404 -0.368444 0
M  V30 11190 H 1025.22 0.085413 -0.742101 0
M  V30 11191 H 1027.88 -0.492396 -1.88578 0
M  V30 11192 H 1026.98 0.449701 -3.08843 0
M  V30 11193 N 1027.28 1.57312 -0.0952337 0
M  V30 11194 C 1028.69 1.81589 0.433875 0
M  V30 11195 C 1029.04 1.01086 1.68155 0
M  V30 11196 O 1028.17 0.240272 2.15062 0
M  V30 11197 C 1028.76 3.29366 0.793931 0
M  V30 11198 C 1027.32 3.54407 1.26778 0
M  V30 11199 C 1026.47 2.76035 0.264518 0
M  V30 11200 H 1029.42 1.55426 -0.320675 0
M  V30 11201 H 1029.44 3.42697 1.65345 0
M  V30 11202 H 1028.95 3.87932 -0.114334 0
M  V30 11203 H 1027.05 3.01173 2.19376 0
M  V30 11204 H 1027.17 4.63055 1.22952 0
M  V30 11205 H 1025.53 2.43509 0.746691 0
M  V30 11206 H 1026.31 3.37349 -0.636429 0
M  V30 11207 N 1028.76 -0.17846 1.56586 0
M  V30 11208 C 1029.69 -1.24547 1.92408 0
M  V30 11209 C 1030.7 -1.40849 0.816421 0
M  V30 11210 O 1031.89 -1.40979 1.09486 0
M  V30 11211 C 1028.99 -2.61523 2.15544 0
M  V30 11212 C 1028.16 -2.66613 3.46751 0
M  V30 11213 C 1027.22 -3.84901 3.588 0
M  V30 11214 O 1026.25 -3.71231 4.31482 0
M  V30 11215 N 1027.45 -5.0106 2.9312 0
M  V30 11216 H 1030.22 -0.941275 2.84535 0
M  V30 11217 H 1027.78 -0.368275 1.57656 0
M  V30 11218 H 1029.77 -3.3911 2.20876 0
M  V30 11219 H 1028.34 -2.84362 1.29835 0
M  V30 11220 H 1027.56 -1.75174 3.5314 0
M  V30 11221 H 1028.85 -2.67018 4.33104 0
M  V30 11222 H 1028.25 -5.15067 2.33928 0
M  V30 11223 H 1026.8 -5.76535 3.04057 0
M  V30 11224 N 1030.24 -1.51135 -0.446768 0
M  V30 11225 C 1031.18 -1.72328 -1.56224 0
M  V30 11226 C 1032.18 -0.589411 -1.58815 0
M  V30 11227 O 1033.38 -0.770554 -1.62673 0
M  V30 11228 H 1029.76 -0.544339 -0.518844 0
M  V30 11229 H 1031.73 -2.65851 -1.3552 0
M  V30 11230 C 1030.48 -1.85686 -2.93966 0
M  V30 11231 H 1029.8 -2.72336 -2.927 0
M  V30 11232 H 1031.24 -2.0453 -3.71407 0
M  V30 11233 C 1029.7 -0.614328 -3.31252 0
M  V30 11234 O 1030.23 0.235369 -4.0101 0
M  V30 11235 N 1028.44 -0.461181 -2.86917 0
M  V30 11236 H 1027.98 -1.15369 -2.30321 0
M  V30 11237 H 1027.94 0.368966 -3.12227 0
M  V30 11238 N 1031.71 0.701592 -1.41122 0
M  V30 11239 C 1033.12 1.28129 -1.35793 0
M  V30 11240 C 1033.48 1.96163 -0.0381185 0
M  V30 11241 O 1032.6 1.98416 0.863723 0
M  V30 11242 C 1033.2 2.33005 -2.45955 0
M  V30 11243 C 1031.75 2.86566 -2.44043 0
M  V30 11244 C 1030.9 1.60526 -2.26112 0
M  V30 11245 H 1033.85 0.496756 -1.50725 0
M  V30 11246 H 1033.87 3.14163 -2.14667 0
M  V30 11247 H 1033.39 1.8346 -3.42 0
M  V30 11248 H 1031.49 3.40304 -1.51737 0
M  V30 11249 H 1031.6 3.37406 -3.40138 0
M  V30 11250 H 1029.96 1.86113 -1.7388 0
M  V30 11251 H 1030.75 1.12985 -3.24175 0
M  V30 11252 N 1033.19 1.2685 0.935242 0
M  V30 11253 C 1034.44 1.13921 1.68504 0
M  V30 11254 C 1034.79 -0.313201 1.89834 0
M  V30 11255 O 1034.09 -1.22626 1.47219 0
M  V30 11256 C 1034.28 1.8482 3.05903 0
M  V30 11257 C 1034.11 3.36806 2.9798 0
M  V30 11258 C 1032.88 4.06109 3.00672 0
M  V30 11259 C 1035.08 4.32904 2.77667 0
M  V30 11260 N 1033.06 5.44722 2.83111 0
M  V30 11261 C 1034.43 5.58732 2.68735 0
M  V30 11262 C 1036.48 4.23084 2.62496 0
M  V30 11263 C 1035.19 6.75861 2.4618 0
M  V30 11264 C 1037.21 5.39926 2.41317 0
M  V30 11265 C 1036.58 6.64706 2.33121 0
M  V30 11266 H 1032.67 0.471689 0.623725 0
M  V30 11267 H 1035.26 1.60217 1.10628 0
M  V30 11268 H 1033.43 1.40989 3.61907 0
M  V30 11269 H 1035.16 1.64461 3.69777 0
M  V30 11270 H 1031.92 3.57516 3.10611 0
M  V30 11271 H 1032.34 6.17522 2.77481 0
M  V30 11272 H 1036.98 3.27341 2.67596 0
M  V30 11273 H 1034.7 7.71694 2.39821 0
M  V30 11274 H 1038.29 5.34203 2.30475 0
M  V30 11275 H 1037.17 7.53592 2.16952 0
M  V30 11276 N 1034.67 -1.14067 1.0875 0
M  V30 11277 C 1035.92 -1.85677 0.830392 0
M  V30 11278 C 1036.27 -1.81549 -0.637016 0
M  V30 11279 O 1035.56 -1.23774 -1.46255 0
M  V30 11280 C 1035.76 -3.33273 1.29089 0
M  V30 11281 C 1035.59 -3.51774 2.80153 0
M  V30 11282 C 1034.36 -3.66419 3.47944 0
M  V30 11283 C 1036.56 -3.48399 3.78316 0
M  V30 11284 N 1034.54 -3.73112 4.87504 0
M  V30 11285 C 1035.91 -3.61378 5.03791 0
M  V30 11286 C 1037.96 -3.31758 3.7127 0
M  V30 11287 C 1036.67 -3.59435 6.23056 0
M  V30 11288 C 1038.69 -3.31119 4.90014 0
M  V30 11289 C 1038.05 -3.44643 6.1433 0
M  V30 11290 H 1034.15 -0.695948 0.356625 0
M  V30 11291 H 1036.74 -1.36687 1.38654 0
M  V30 11292 H 1034.91 -3.80846 0.762274 0
M  V30 11293 H 1036.64 -3.92659 0.979828 0
M  V30 11294 H 1033.4 -3.67799 2.98364 0
M  V30 11295 H 1033.82 -3.80167 5.6018 0
M  V30 11296 H 1038.46 -3.2021 2.76089 0
M  V30 11297 H 1036.18 -3.69758 7.18544 0
M  V30 11298 H 1039.77 -3.1945 4.86254 0
M  V30 11299 H 1038.65 -3.44101 7.04673 0
M  V30 11300 N 1036.15 -0.873678 -1.31166 0
M  V30 11301 C 1037.56 -0.53852 -1.78765 0
M  V30 11302 C 1037.91 0.944765 -1.71955 0
M  V30 11303 O 1037.04 1.73781 -1.28954 0
M  V30 11304 C 1037.63 -0.970749 -3.24595 0
M  V30 11305 C 1036.19 -0.687189 -3.70074 0
M  V30 11306 C 1035.34 -1.16001 -2.51871 0
M  V30 11307 H 1038.29 -1.05903 -1.18196 0
M  V30 11308 H 1038.31 -0.294966 -3.79355 0
M  V30 11309 H 1037.82 -2.05034 -3.29519 0
M  V30 11310 H 1035.92 0.380881 -3.70648 0
M  V30 11311 H 1036.03 -1.26682 -4.62048 0
M  V30 11312 H 1034.4 -0.579663 -2.48016 0
M  V30 11313 H 1035.18 -2.2471 -2.59539 0
M  V30 11314 N 1037.63 1.44308 -0.633487 0
M  V30 11315 C 1038.88 2.01239 -0.136356 0
M  V30 11316 C 1039.19 1.50438 1.25011 0
M  V30 11317 O 1040.39 1.99513 1.84138 0
M  V30 11318 C 1038.85 3.59382 -0.193011 0
M  V30 11319 C 1038.46 4.19178 -1.58093 0
M  V30 11320 C 1040.2 4.23778 0.247534 0
M  V30 11321 C 1038.11 5.69553 -1.59258 0
M  V30 11322 H 1037.04 0.752521 -0.0472109 0
M  V30 11323 H 1039.69 1.65498 -0.79263 0
M  V30 11324 H 1038.07 3.92432 0.530408 0
M  V30 11325 H 1039.25 3.97662 -2.32813 0
M  V30 11326 H 1037.56 3.67079 -1.96576 0
M  V30 11327 H 1040.16 5.34075 0.258401 0
M  V30 11328 H 1040.5 3.96285 1.27529 0
M  V30 11329 H 1041.03 3.9554 -0.423469 0
M  V30 11330 H 1037.77 6.01784 -2.59878 0
M  V30 11331 H 1037.29 5.93185 -0.888352 0
M  V30 11332 H 1038.97 6.33234 -1.32756 0
M  V30 11333 N 1039.1 0.374177 1.53094 0
M  V30 11334 C 1040.35 -0.213981 2.00562 0
M  V30 11335 C 1040.67 -1.4916 1.26533 0
M  V30 11336 O 1041.87 -2.15889 1.64634 0
M  V30 11337 C 1040.33 -0.431876 3.57299 0
M  V30 11338 C 1039.94 0.831615 4.40214 0
M  V30 11339 C 1041.68 -0.977222 4.13099 0
M  V30 11340 C 1039.59 0.582831 5.88521 0
M  V30 11341 H 1038.52 -0.0837386 0.749336 0
M  V30 11342 H 1041.17 0.494245 1.76719 0
M  V30 11343 H 1039.55 -1.20158 3.7733 0
M  V30 11344 H 1040.72 1.60477 4.31953 0
M  V30 11345 H 1039.04 1.30081 3.9556 0
M  V30 11346 H 1041.64 -1.17881 5.21544 0
M  V30 11347 H 1041.98 -1.94189 3.68234 0
M  V30 11348 H 1042.51 -0.267473 3.969 0
M  V30 11349 H 1039.25 1.51807 6.37679 0
M  V30 11350 H 1038.77 -0.151666 5.99608 0
M  V30 11351 H 1040.45 0.211604 6.46654 0
M  V30 11352 N 1040.58 -1.57259 0.103575 0
M  V30 11353 C 1041.51 -2.1153 -0.882472 0
M  V30 11354 C 1042.53 -1.05446 -1.24036 0
M  V30 11355 O 1043.72 -1.32867 -1.192 0
M  V30 11356 C 1040.82 -2.58717 -2.18903 0
M  V30 11357 C 1039.99 -3.8873 -2.00519 0
M  V30 11358 C 1039.05 -4.21675 -3.14764 0
M  V30 11359 O 1038.07 -4.90755 -2.88355 0
M  V30 11360 N 1039.28 -3.77757 -4.40772 0
M  V30 11361 H 1042.04 -2.96758 -0.418901 0
M  V30 11362 H 1039.6 -1.61696 -0.0812921 0
M  V30 11363 H 1041.59 -2.77797 -2.94297 0
M  V30 11364 H 1040.16 -1.78454 -2.56657 0
M  V30 11365 H 1039.38 -3.78714 -1.09406 0
M  V30 11366 H 1040.67 -4.73771 -1.85522 0
M  V30 11367 H 1040.07 -3.22011 -4.65108 0
M  V30 11368 H 1038.63 -4.01975 -5.13088 0
M  V30 11369 N 1042.06 0.170153 -1.56679 0
M  V30 11370 C 1043.01 1.22997 -1.9742 0
M  V30 11371 C 1044 1.45762 -0.863117 0
M  V30 11372 O 1045.21 1.46328 -1.04824 0
M  V30 11373 H 1041.58 0.413482 -0.628122 0
M  V30 11374 H 1043.55 0.859502 -2.85754 0
M  V30 11375 C 1042.3 2.5615 -2.35122 0
M  V30 11376 H 1041.63 2.39456 -3.20158 0
M  V30 11377 H 1043.07 3.28991 -2.67471 0
M  V30 11378 C 1041.53 3.14992 -1.19507 0
M  V30 11379 O 1042.06 3.98781 -0.483357 0
M  V30 11380 N 1040.26 2.74098 -0.965332 0
M  V30 11381 H 1039.81 2.06062 -1.54585 0
M  V30 11382 H 1039.77 3.13803 -0.193611 0
M  V30 11383 N 1043.54 1.5137 0.438746 0
M  V30 11384 C 1044.79 1.63202 1.18524 0
M  V30 11385 C 1045.1 0.353408 1.92381 0
M  V30 11386 O 1046.31 0.351086 2.6922 0
M  V30 11387 C 1044.76 2.88218 2.15542 0
M  V30 11388 C 1044.37 4.23078 1.47339 0
M  V30 11389 C 1046.11 3.09407 2.90633 0
M  V30 11390 C 1044.02 5.39246 2.42833 0
M  V30 11391 H 1042.95 0.607864 0.446114 0
M  V30 11392 H 1045.6 1.77835 0.452421 0
M  V30 11393 H 1043.98 2.67216 2.92253 0
M  V30 11394 H 1045.16 4.54457 0.761964 0
M  V30 11395 H 1043.47 4.07755 0.844065 0
M  V30 11396 H 1046.07 3.9337 3.62165 0
M  V30 11397 H 1046.41 2.22428 3.51897 0
M  V30 11398 H 1046.95 3.30743 2.21029 0
M  V30 11399 H 1043.69 6.2848 1.8626 0
M  V30 11400 H 1043.21 5.12245 3.12034 0
M  V30 11401 H 1044.88 5.71137 3.03992 0
M  V30 11402 N 1045.02 -0.694098 1.41492 0
M  V30 11403 C 1046.43 -1.00487 1.23994 0
M  V30 11404 C 1046.63 -2.01078 0.130346 0
M  V30 11405 O 1045.69 -2.47403 -0.504775 0
M  V30 11406 C 1047 -1.52808 2.58979 0
M  V30 11407 C 1048.55 -1.64684 2.66173 0
M  V30 11408 C 1049.02 -2.20406 4.01479 0
M  V30 11409 N 1050.52 -2.27765 4.03333 0
M  V30 11410 C 1051.25 -2.7191 5.04829 0
M  V30 11411 N 1050.75 -3.1565 6.16714 0
M  V30 11412 N 1052.54 -2.71487 4.9219 0
M  V30 11413 H 1044.69 -0.027746 2.12382 0
M  V30 11414 H 1046.95 -0.0748741 0.945039 0
M  V30 11415 H 1046.66 -0.863519 3.40934 0
M  V30 11416 H 1046.53 -2.50998 2.81566 0
M  V30 11417 H 1048.92 -2.30251 1.84576 0
M  V30 11418 H 1049 -0.65035 2.47395 0
M  V30 11419 H 1048.65 -1.55454 4.83525 0
M  V30 11420 H 1048.58 -3.2081 4.17599 0
M  V30 11421 H 1051.07 -1.96899 3.22551 0
M  V30 11422 H 1051.38 -3.47966 6.90029 0
M  V30 11423 H 1049.72 -3.13555 6.20248 0
M  V30 11424 H 1052.92 -2.36666 4.03865 0
M  V30 11425 H 1053.09 -3.05573 5.71427 0
M  V30 11426 N 1046.49 -1.27344 -0.928501 0
M  V30 11427 C 1047.4 -1.11812 -2.06241 0
M  V30 11428 C 1048.42 -0.048347 -1.73933 0
M  V30 11429 O 1049.6 -0.25467 -1.99783 0
M  V30 11430 C 1046.66 -0.766036 -3.38131 0
M  V30 11431 C 1045.72 -1.91659 -3.84142 0
M  V30 11432 C 1044.96 -1.58121 -5.09738 0
M  V30 11433 O 1045.18 -0.488742 -5.68302 0
M  V30 11434 O 1044.11 -2.42013 -5.51102 0
M  V30 11435 H 1047.94 -2.06967 -2.22258 0
M  V30 11436 H 1045.52 -1.06524 -1.04752 0
M  V30 11437 H 1047.41 -0.582982 -4.17348 0
M  V30 11438 H 1046.08 0.155998 -3.23324 0
M  V30 11439 H 1044.99 -2.1547 -3.05816 0
M  V30 11440 H 1046.32 -2.8188 -4.0349 0
M  V30 11441 N 1047.97 1.13488 -1.09353 0
M  V30 11442 C 1048.92 2.18876 -0.732251 0
M  V30 11443 C 1049.89 1.63616 0.286175 0
M  V30 11444 O 1051.07 1.90059 0.167981 0
M  V30 11445 C 1048.21 3.44737 -0.158157 0
M  V30 11446 C 1047.33 4.14104 -1.23053 0
M  V30 11447 C 1046.46 5.27578 -0.619272 0
M  V30 11448 C 1045.5 5.88793 -1.67301 0
M  V30 11449 N 1044.64 6.937 -1.08283 0
M  V30 11450 H 1049.48 2.49128 -1.63522 0
M  V30 11451 H 1047.02 1.22326 -0.816995 0
M  V30 11452 H 1048.97 4.16756 0.192488 0
M  V30 11453 H 1047.6 3.14938 0.708082 0
M  V30 11454 H 1046.66 3.40376 -1.69847 0
M  V30 11455 H 1047.97 4.55683 -2.02865 0
M  V30 11456 H 1047.12 6.0631 -0.217428 0
M  V30 11457 H 1045.86 4.87246 0.210399 0
M  V30 11458 H 1044.87 5.08756 -2.0844 0
M  V30 11459 H 1046.09 6.31197 -2.50533 0
M  V30 11460 H 1044.04 6.55426 -0.274426 0
M  V30 11461 H 1043.95 7.33817 -1.81792 0
M  V30 11462 H 1045.22 7.76286 -0.707167 0
M  V30 11463 N 1049.45 0.880621 1.30701 0
M  V30 11464 C 1050.36 0.348034 2.32004 0
M  V30 11465 C 1051.38 -0.547508 1.65162 0
M  V30 11466 O 1052.55 -0.441673 1.96497 0
M  V30 11467 C 1049.62 -0.432585 3.43991 0
M  V30 11468 C 1048.68 0.492189 4.26469 0
M  V30 11469 C 1047.91 -0.25127 5.33108 0
M  V30 11470 O 1048.14 -1.47795 5.5092 0
M  V30 11471 O 1047.07 0.396376 6.00593 0
M  V30 11472 H 1050.9 1.18798 2.79501 0
M  V30 11473 H 1048.48 0.64432 1.34792 0
M  V30 11474 H 1050.36 -0.874733 4.12221 0
M  V30 11475 H 1049.04 -1.2489 2.98637 0
M  V30 11476 H 1047.94 0.983058 3.60953 0
M  V30 11477 H 1049.28 1.27439 4.75416 0
M  V30 11478 N 1050.93 -1.4397 0.641131 0
M  V30 11479 C 1052.18 -2.01163 0.147026 0
M  V30 11480 C 1052.49 -1.51099 -1.24211 0
M  V30 11481 O 1053.7 -2.00487 -1.83078 0
M  V30 11482 C 1052.15 -3.59275 0.212068 0
M  V30 11483 C 1051.76 -4.18334 1.60314 0
M  V30 11484 C 1053.51 -4.23903 -0.225057 0
M  V30 11485 C 1051.41 -5.68701 1.62276 0
M  V30 11486 H 1050.34 -0.75226 0.051201 0
M  V30 11487 H 1052.99 -1.65075 0.801396 0
M  V30 11488 H 1051.38 -3.92708 -0.509589 0
M  V30 11489 H 1052.55 -3.96422 2.34918 0
M  V30 11490 H 1050.86 -3.66031 1.9852 0
M  V30 11491 H 1053.46 -5.34205 -0.230074 0
M  V30 11492 H 1053.8 -3.96956 -1.25426 0
M  V30 11493 H 1054.34 -3.95309 0.44444 0
M  V30 11494 H 1051.08 -6.00397 2.63066 0
M  V30 11495 H 1050.6 -5.92705 0.919797 0
M  V30 11496 H 1052.28 -6.32521 1.36112 0
M  V30 11497 N 1052.41 -0.382291 -1.52893 0
M  V30 11498 C 1053.65 0.202433 -2.01787 0
M  V30 11499 C 1053.99 1.47044 -1.26853 0
M  V30 11500 O 1053.26 1.91007 -0.366969 0
M  V30 11501 C 1053.54 0.477471 -3.5692 0
M  V30 11502 C 1053.4 -0.805339 -4.42532 0
M  V30 11503 C 1054.72 1.27106 -4.21346 0
M  V30 11504 H 1051.84 0.0720998 -0.733465 0
M  V30 11505 H 1054.48 -0.510478 -1.83014 0
M  V30 11506 H 1052.63 1.08478 -3.73048 0
M  V30 11507 H 1054.3 -1.4424 -4.3817 0
M  V30 11508 H 1052.54 -1.42216 -4.09826 0
M  V30 11509 H 1053.21 -0.567635 -5.49074 0
M  V30 11510 H 1055.69 0.757161 -4.09153 0
M  V30 11511 H 1054.57 1.43225 -5.29885 0
M  V30 11512 H 1054.83 2.28431 -3.78513 0
M  V30 11513 N 1053.89 1.57202 -0.111913 0
M  V30 11514 C 1055.12 1.99008 0.554907 0
M  V30 11515 C 1055.52 0.990323 1.61212 0
M  V30 11516 O 1054.87 -0.0259612 1.83682 0
M  V30 11517 C 1054.93 3.37218 1.24598 0
M  V30 11518 C 1054.59 4.55752 0.337549 0
M  V30 11519 C 1055.59 5.18192 -0.421026 0
M  V30 11520 C 1053.27 5.01674 0.25069 0
M  V30 11521 C 1055.27 6.24938 -1.25426 0
M  V30 11522 C 1052.96 6.08282 -0.586186 0
M  V30 11523 C 1053.95 6.6978 -1.3373 0
M  V30 11524 O 1053.64 7.7433 -2.16029 0
M  V30 11525 H 1053.37 0.658669 0.152091 0
M  V30 11526 H 1055.93 2.04492 -0.192937 0
M  V30 11527 H 1054.16 3.28467 2.04074 0
M  V30 11528 H 1055.85 3.63359 1.809 0
M  V30 11529 H 1056.61 4.83634 -0.363752 0
M  V30 11530 H 1052.49 4.53558 0.825005 0
M  V30 11531 H 1056.04 6.72869 -1.84102 0
M  V30 11532 H 1051.93 6.42271 -0.64488 0
M  V30 11533 H 1052.7 7.91395 -2.08894 0
M  V30 11534 N 1055.36 -0.161842 1.56767 0
M  V30 11535 C 1056.61 -0.876925 1.82527 0
M  V30 11536 C 1056.94 -1.81831 0.690492 0
M  V30 11537 O 1056.19 -1.9304 -0.32159 0
M  V30 11538 C 1056.49 -1.69736 3.14522 0
M  V30 11539 C 1056.16 -0.904075 4.41743 0
M  V30 11540 C 1054.82 -0.685168 4.76297 0
M  V30 11541 C 1057.17 -0.348282 5.20035 0
M  V30 11542 C 1054.5 0.10048 5.86614 0
M  V30 11543 C 1056.85 0.424327 6.31175 0
M  V30 11544 C 1055.52 0.653948 6.64289 0
M  V30 11545 H 1054.79 -0.320889 0.667915 0
M  V30 11546 H 1057.43 -0.141338 1.90978 0
M  V30 11547 H 1055.74 -2.50262 3.01456 0
M  V30 11548 H 1057.44 -2.25386 3.31666 0
M  V30 11549 H 1054.03 -1.08474 4.14646 0
M  V30 11550 H 1058.21 -0.504721 4.93727 0
M  V30 11551 H 1053.47 0.288029 6.10721 0
M  V30 11552 H 1057.64 0.862203 6.91042 0
M  V30 11553 H 1055.27 1.26459 7.49608 0
M  V30 11554 N 1056.84 -1.516 -0.430713 0
M  V30 11555 C 1057.8 -1.72794 -1.50582 0
M  V30 11556 C 1058.8 -0.597903 -1.49271 0
M  V30 11557 O 1059.99 -0.865535 -1.51176 0
M  V30 11558 C 1057.13 -1.79049 -2.90093 0
M  V30 11559 H 1058.32 -2.68751 -1.33091 0
M  V30 11560 H 1055.87 -1.4169 -0.659822 0
M  V30 11561 H 1056.61 -0.849309 -3.12981 0
M  V30 11562 H 1056.39 -2.61181 -2.92449 0
M  V30 11563 H 1057.88 -1.97262 -3.68072 0
M  V30 11564 N 1058.32 0.686584 -1.41858 0
M  V30 11565 C 1059.57 1.44738 -1.42908 0
M  V30 11566 C 1059.92 1.92357 -0.0404705 0
M  V30 11567 O 1059.21 1.67221 0.935287 0
M  V30 11568 C 1059.41 2.66793 -2.37816 0
M  V30 11569 C 1059.24 2.31114 -3.85767 0
M  V30 11570 C 1058.01 2.21043 -4.54388 0
M  V30 11571 C 1060.2 1.93512 -4.76505 0
M  V30 11572 N 1058.19 1.78344 -5.87424 0
M  V30 11573 C 1059.56 1.61642 -5.98558 0
M  V30 11574 C 1061.61 1.80401 -4.64069 0
M  V30 11575 C 1060.32 1.17977 -7.09559 0
M  V30 11576 C 1062.34 1.38141 -5.7504 0
M  V30 11577 C 1061.7 1.07186 -6.96197 0
M  V30 11578 H 1057.8 0.526577 -0.578136 0
M  V30 11579 H 1060.39 0.793483 -1.77797 0
M  V30 11580 H 1058.56 3.29889 -2.05007 0
M  V30 11581 H 1060.29 3.33318 -2.29524 0
M  V30 11582 H 1057.04 2.39731 -4.08443 0
M  V30 11583 H 1057.47 1.59451 -6.57955 0
M  V30 11584 H 1062.11 2.02983 -3.70888 0
M  V30 11585 H 1059.83 0.941397 -8.02598 0
M  V30 11586 H 1063.41 1.28533 -5.67425 0
M  V30 11587 H 1062.29 0.749804 -7.80607 0
M  V30 11588 N 1059.8 1.27835 0.921735 0
M  V30 11589 C 1061.04 1.14692 1.67253 0
M  V30 11590 C 1061.38 -0.305384 1.91784 0
M  V30 11591 O 1060.65 -1.22286 1.51249 0
M  V30 11592 C 1060.93 1.93743 3.03539 0
M  V30 11593 C 1060.79 3.46991 2.86212 0
M  V30 11594 C 1062.11 1.74658 4.03959 0
M  V30 11595 H 1059.23 0.418021 0.606983 0
M  V30 11596 H 1061.87 1.5706 1.06922 0
M  V30 11597 H 1060.02 1.57738 3.55037 0
M  V30 11598 H 1061.69 3.92858 2.41785 0
M  V30 11599 H 1059.93 3.73029 2.21432 0
M  V30 11600 H 1060.6 3.97551 3.82958 0
M  V30 11601 H 1063.08 2.06063 3.61493 0
M  V30 11602 H 1061.96 2.32353 4.97296 0
M  V30 11603 H 1062.22 0.696019 4.36587 0
M  V30 11604 N 1061.28 -1.12907 1.09954 0
M  V30 11605 C 1062.69 -1.65847 0.857417 0
M  V30 11606 C 1063.04 -1.86372 -0.613176 0
M  V30 11607 O 1062.16 -1.58654 -1.47166 0
M  V30 11608 C 1062.76 -3.01269 1.54991 0
M  V30 11609 C 1061.32 -3.51179 1.35462 0
M  V30 11610 C 1060.46 -2.26307 1.60251 0
M  V30 11611 H 1063.41 -0.96755 1.25794 0
M  V30 11612 H 1063.44 -3.675 0.986091 0
M  V30 11613 H 1062.95 -2.86299 2.6202 0
M  V30 11614 H 1061.05 -3.71343 0.305742 0
M  V30 11615 H 1061.16 -4.30955 2.09318 0
M  V30 11616 H 1059.53 -2.33167 1.02494 0
M  V30 11617 H 1060.31 -2.13896 2.68521 0
M  V30 11618 N 1062.75 -0.88754 -1.30232 0
M  V30 11619 C 1064 -0.506277 -1.95656 0
M  V30 11620 C 1064.32 0.948191 -1.70395 0
M  V30 11621 O 1063.59 1.66701 -1.02895 0
M  V30 11622 H 1062.17 -0.184235 -0.723924 0
M  V30 11623 H 1064.83 -1.13118 -1.58715 0
M  V30 11624 H 1063.93 -0.678673 -3.04632 0
M  V30 11625 N 1064.23 1.43628 -0.648757 0
M  V30 11626 C 1065.18 2.27899 0.0677939 0
M  V30 11627 C 1066.17 1.39653 0.799115 0
M  V30 11628 O 1067.36 1.6332 0.682317 0
M  V30 11629 C 1064.49 3.27276 1.0366 0
M  V30 11630 C 1063.57 4.23009 0.303982 0
M  V30 11631 N 1063.96 5.01248 -0.677056 0
M  V30 11632 C 1062.26 4.42645 0.546041 0
M  V30 11633 C 1062.96 5.70982 -1.11151 0
M  V30 11634 N 1061.94 5.41762 -0.446669 0
M  V30 11635 H 1065.74 2.85804 -0.685073 0
M  V30 11636 H 1063.26 1.55277 -0.475674 0
M  V30 11637 H 1065.25 3.86423 1.5647 0
M  V30 11638 H 1063.91 2.70932 1.78958 0
M  V30 11639 H 1064.92 5.07028 -1.0556 0
M  V30 11640 H 1061.6 3.97377 1.28053 0
M  V30 11641 H 1062.99 6.43794 -1.923 0
M  V30 11642 N 1065.71 0.390394 1.52688 0
M  V30 11643 C 1066.66 -0.444229 2.26485 0
M  V30 11644 C 1067.63 -1.05688 1.28138 0
M  V30 11645 O 1068.81 -1.0847 1.56968 0
M  V30 11646 C 1065.95 -1.56501 3.07574 0
M  V30 11647 C 1065.07 -0.975111 4.20851 0
M  V30 11648 C 1064.2 -2.06704 4.89333 0
M  V30 11649 C 1063.24 -1.45309 5.94602 0
M  V30 11650 N 1062.38 -2.48437 6.56676 0
M  V30 11651 H 1067.22 0.191535 2.97384 0
M  V30 11652 H 1064.75 0.106287 1.46716 0
M  V30 11653 H 1066.71 -2.22558 3.52879 0
M  V30 11654 H 1065.34 -2.17107 2.38881 0
M  V30 11655 H 1064.39 -0.204109 3.79852 0
M  V30 11656 H 1065.71 -0.486465 4.96422 0
M  V30 11657 H 1064.86 -2.80528 5.37949 0
M  V30 11658 H 1063.6 -2.58928 4.13289 0
M  V30 11659 H 1062.6 -0.700091 5.45324 0
M  V30 11660 H 1063.83 -0.938775 6.7258 0
M  V30 11661 H 1061.77 -2.99829 5.83471 0
M  V30 11662 H 1061.69 -2.04331 7.27863 0
M  V30 11663 H 1062.96 -3.21888 7.09935 0
M  V30 11664 N 1067.19 -1.57141 0.120249 0
M  V30 11665 C 1068.44 -1.94852 -0.536387 0
M  V30 11666 C 1068.76 -1.00452 -1.67136 0
M  V30 11667 O 1068.03 -0.061053 -1.95805 0
M  V30 11668 H 1066.61 -0.719411 -0.201138 0
M  V30 11669 H 1069.27 -1.93977 0.189482 0
M  V30 11670 H 1068.37 -2.97917 -0.930145 0
M  V30 11671 N 1068.67 0.153526 -1.5685 0
M  V30 11672 C 1069.92 0.865628 -1.82181 0
M  V30 11673 C 1070.23 1.82629 -0.700434 0
M  V30 11674 O 1071.43 2.58206 -0.839155 0
M  V30 11675 C 1069.89 1.58993 -3.22877 0
M  V30 11676 C 1069.5 0.672006 -4.42931 0
M  V30 11677 C 1071.24 2.2892 -3.57486 0
M  V30 11678 C 1069.15 1.39755 -5.7465 0
M  V30 11679 H 1068.08 0.326993 -0.679406 0
M  V30 11680 H 1070.73 0.118403 -1.83118 0
M  V30 11681 H 1069.11 2.38255 -3.16308 0
M  V30 11682 H 1070.29 -0.0849226 -4.60722 0
M  V30 11683 H 1068.6 0.0814825 -4.1632 0
M  V30 11684 H 1071.2 2.8383 -4.5315 0
M  V30 11685 H 1071.54 3.05105 -2.83226 0
M  V30 11686 H 1072.07 1.56583 -3.65686 0
M  V30 11687 H 1068.81 0.677686 -6.51987 0
M  V30 11688 H 1068.33 2.12736 -5.60806 0
M  V30 11689 H 1070.01 1.94024 -6.17223 0
M  V30 11690 N 1070.14 1.51827 0.422667 0
M  V30 11691 C 1071.37 1.68803 1.19117 0
M  V30 11692 C 1071.78 0.391228 1.85111 0
M  V30 11693 O 1071.13 -0.64148 1.72136 0
M  V30 11694 C 1071.19 2.75767 2.30636 0
M  V30 11695 C 1070.85 4.17929 1.8489 0
M  V30 11696 C 1071.85 5.02223 1.34416 0
M  V30 11697 C 1069.53 4.641 1.92136 0
M  V30 11698 C 1071.53 6.30756 0.917925 0
M  V30 11699 C 1069.21 5.92626 1.49123 0
M  V30 11700 C 1070.21 6.75782 0.990352 0
M  V30 11701 O 1069.9 8.01902 0.566386 0
M  V30 11702 H 1069.63 0.569303 0.364514 0
M  V30 11703 H 1072.19 1.9909 0.505208 0
M  V30 11704 H 1070.42 2.40827 3.02555 0
M  V30 11705 H 1072.11 2.81476 2.92448 0
M  V30 11706 H 1072.87 4.67749 1.28202 0
M  V30 11707 H 1068.75 3.99488 2.30066 0
M  V30 11708 H 1072.29 6.95612 0.52628 0
M  V30 11709 H 1068.19 6.26611 1.55012 0
M  V30 11710 H 1068.96 8.15579 0.690918 0
M  V30 11711 N 1071.62 -0.679052 1.4222 0
M  V30 11712 C 1072.87 -1.43627 1.42182 0
M  V30 11713 C 1073.19 -1.94964 0.0377095 0
M  V30 11714 O 1072.46 -1.72788 -0.923098 0
M  V30 11715 H 1071.04 -0.532972 0.523402 0
M  V30 11716 H 1073.7 -0.802649 1.77605 0
M  V30 11717 H 1072.8 -2.29137 2.11902 0
M  V30 11718 N 1073.1 -1.28322 -0.914942 0
M  V30 11719 C 1074.05 -1.12003 -2.03858 0
M  V30 11720 C 1075.04 -0.0396287 -1.69354 0
M  V30 11721 O 1076.25 -0.198309 -1.78904 0
M  V30 11722 H 1072.62 -0.34552 -0.667922 0
M  V30 11723 H 1074.59 -2.07168 -2.14765 0
M  V30 11724 C 1073.34 -0.797402 -3.38433 0
M  V30 11725 H 1072.67 -1.62071 -3.65476 0
M  V30 11726 H 1074.11 -0.723165 -4.17787 0
M  V30 11727 C 1072.57 0.498807 -3.33187 0
M  V30 11728 O 1073.1 1.52946 -3.71444 0
M  V30 11729 N 1071.3 0.499101 -2.86282 0
M  V30 11730 H 1070.85 -0.340056 -2.55346 0
M  V30 11731 H 1070.81 1.36641 -2.83155 0
M  V30 11732 N 1074.58 1.12322 -1.10551 0
M  V30 11733 C 1075.51 2.17819 -0.713263 0
M  V30 11734 C 1076.52 1.6086 0.250604 0
M  V30 11735 O 1077.71 1.78466 0.0348909 0
M  V30 11736 C 1074.81 3.38885 -0.0320325 0
M  V30 11737 C 1073.99 4.25332 -1.02038 0
M  V30 11738 C 1073.04 5.24895 -0.370412 0
M  V30 11739 O 1072.07 5.59958 -1.02157 0
M  V30 11740 N 1073.27 5.73934 0.870633 0
M  V30 11741 H 1076.04 2.52083 -1.62094 0
M  V30 11742 H 1073.6 1.27755 -0.994492 0
M  V30 11743 H 1075.59 4.02574 0.414285 0
M  V30 11744 H 1074.16 3.02762 0.778072 0
M  V30 11745 H 1073.38 3.5824 -1.64492 0
M  V30 11746 H 1074.67 4.79936 -1.68936 0
M  V30 11747 H 1074.07 5.47614 1.419 0
M  V30 11748 H 1072.62 6.39504 1.26008 0
M  V30 11749 N 1076.06 0.894434 1.2976 0
M  V30 11750 C 1076.99 0.3847 2.30309 0
M  V30 11751 C 1077.97 -0.537486 1.61385 0
M  V30 11752 O 1079.15 -0.449332 1.8893 0
M  V30 11753 C 1076.28 -0.393311 3.45066 0
M  V30 11754 C 1075.24 0.437968 4.25753 0
M  V30 11755 C 1074.56 -0.467221 5.32655 0
M  V30 11756 C 1075.86 1.6851 4.9437 0
M  V30 11757 H 1077.56 1.22496 2.73194 0
M  V30 11758 H 1075.1 0.590471 1.31337 0
M  V30 11759 H 1077.06 -0.760614 4.14479 0
M  V30 11760 H 1075.78 -1.2673 3.0101 0
M  V30 11761 H 1074.44 0.787533 3.58041 0
M  V30 11762 H 1074.09 -1.33919 4.84845 0
M  V30 11763 H 1073.79 0.0852482 5.87538 0
M  V30 11764 H 1075.31 -0.830833 6.04921 0
M  V30 11765 H 1076.72 1.38784 5.56248 0
M  V30 11766 H 1075.12 2.17849 5.59162 0
M  V30 11767 H 1076.19 2.42412 4.19958 0
M  V30 11768 N 1077.53 -1.43282 0.656365 0
M  V30 11769 C 1078.5 -2.29188 -0.0239173 0
M  V30 11770 C 1079.5 -1.42373 -0.747436 0
M  V30 11771 O 1080.69 -1.63969 -0.588213 0
M  V30 11772 C 1077.82 -3.24501 -1.0446 0
M  V30 11773 H 1079.01 -2.9083 0.731978 0
M  V30 11774 H 1076.57 -1.50614 0.417752 0
M  V30 11775 H 1077.3 -2.6776 -1.82962 0
M  V30 11776 H 1077.09 -3.88509 -0.52942 0
M  V30 11777 H 1078.58 -3.88971 -1.51958 0
M  V30 11778 N 1079.01 -0.398486 -1.52479 0
M  V30 11779 C 1080.29 0.238776 -1.94137 0
M  V30 11780 C 1080.67 1.63558 -1.33462 0
M  V30 11781 O 1080.02 2.22821 -0.506272 0
M  V30 11782 C 1080.23 0.255863 -3.48061 0
M  V30 11783 C 1081.58 0.480376 -4.21874 0
M  V30 11784 O 1082.6 0.335679 -3.54615 0
M  V30 11785 O 1081.46 0.764654 -5.41124 0
M  V30 11786 H 1078.55 0.150806 -0.813134 0
M  V30 11787 H 1081.1 -0.453659 -1.63524 0
M  V30 11788 H 1079.87 -0.722171 -3.84578 0
M  V30 11789 H 1079.49 0.99284 -3.85004 0
M  V30 11790 N 1080.49 1.57075 -0.12858 0
M  V30 11791 C 1081.4 2.19369 0.831533 0
M  V30 11792 C 1082.42 1.17258 1.28555 0
M  V30 11793 O 1083.59 1.49766 1.34656 0
M  V30 11794 C 1080.66 2.78846 2.06024 0
M  V30 11795 C 1079.72 3.96024 1.65722 0
M  V30 11796 C 1078.95 4.52655 2.82735 0
M  V30 11797 O 1079.18 4.08175 3.98434 0
M  V30 11798 O 1078.11 5.43198 2.59268 0
M  V30 11799 H 1081.94 3.01887 0.331352 0
M  V30 11800 H 1079.52 1.49081 0.0975226 0
M  V30 11801 H 1081.4 3.16721 2.77967 0
M  V30 11802 H 1080.08 1.99353 2.5503 0
M  V30 11803 H 1078.98 3.62899 0.908574 0
M  V30 11804 H 1080.32 4.76981 1.21449 0
M  V30 11805 N 1081.97 -0.145205 1.5693 0
M  V30 11806 C 1082.93 -1.16316 1.97492 0
M  V30 11807 C 1083.93 -1.35764 0.861668 0
M  V30 11808 O 1085.12 -1.32726 1.12825 0
M  V30 11809 C 1082.25 -2.52311 2.29242 0
M  V30 11810 H 1083.45 -0.815138 2.8861 0
M  V30 11811 H 1081 -0.38861 1.51392 0
M  V30 11812 H 1081.74 -2.92081 1.40922 0
M  V30 11813 H 1081.52 -2.39555 3.10412 0
M  V30 11814 H 1083.01 -3.25624 2.61456 0
M  V30 11815 N 1083.45 -1.52049 -0.414609 0
M  V30 11816 C 1084.41 -1.74382 -1.4874 0
M  V30 11817 C 1085.41 -0.613701 -1.48628 0
M  V30 11818 O 1086.6 -0.88152 -1.50249 0
M  V30 11819 C 1083.73 -1.82116 -2.88178 0
M  V30 11820 H 1084.93 -2.70147 -1.30233 0
M  V30 11821 H 1082.48 -1.42382 -0.644756 0
M  V30 11822 H 1083.21 -0.882457 -3.12063 0
M  V30 11823 H 1083 -2.64268 -2.89663 0
M  V30 11824 H 1084.49 -2.01155 -3.65959 0
M  V30 11825 N 1084.93 0.6715 -1.42579 0
M  V30 11826 C 1085.87 1.78496 -1.46314 0
M  V30 11827 C 1086.84 1.63091 -0.314743 0
M  V30 11828 O 1088.03 1.83597 -0.519292 0
M  V30 11829 C 1085.17 3.16548 -1.37447 0
M  V30 11830 C 1084.28 3.43216 -2.62348 0
M  V30 11831 C 1083.42 4.71014 -2.456 0
M  V30 11832 C 1082.45 4.90728 -3.65859 0
M  V30 11833 N 1081.59 6.09769 -3.48032 0
M  V30 11834 H 1086.43 1.74638 -2.41466 0
M  V30 11835 H 1083.97 0.852491 -1.19879 0
M  V30 11836 H 1085.93 3.96329 -1.30303 0
M  V30 11837 H 1084.56 3.19522 -0.458891 0
M  V30 11838 H 1083.61 2.57664 -2.79846 0
M  V30 11839 H 1084.92 3.53675 -3.51732 0
M  V30 11840 H 1084.07 5.58892 -2.3606 0
M  V30 11841 H 1082.81 4.62843 -1.53712 0
M  V30 11842 H 1081.82 4.01291 -3.75827 0
M  V30 11843 H 1083.04 5.00741 -4.58732 0
M  V30 11844 H 1080.99 6.02765 -2.58864 0
M  V30 11845 H 1080.91 6.21104 -4.31005 0
M  V30 11846 H 1082.17 7.00317 -3.42311 0
M  V30 11847 N 1086.4 1.28806 0.908124 0
M  V30 11848 C 1087.65 1.15663 1.65242 0
M  V30 11849 C 1087.97 -0.292883 1.93395 0
M  V30 11850 O 1089.17 -0.545509 2.65963 0
M  V30 11851 C 1087.63 2.02233 2.97707 0
M  V30 11852 C 1087.24 3.51958 2.77181 0
M  V30 11853 C 1088.98 1.97792 3.75604 0
M  V30 11854 C 1086.89 4.3066 4.05322 0
M  V30 11855 H 1085.82 0.42928 0.619867 0
M  V30 11856 H 1088.47 1.5338 1.00731 0
M  V30 11857 H 1086.85 1.57377 3.63385 0
M  V30 11858 H 1088.02 4.0481 2.20149 0
M  V30 11859 H 1086.34 3.57983 2.12691 0
M  V30 11860 H 1088.94 2.53858 4.70596 0
M  V30 11861 H 1089.28 0.955956 4.05175 0
M  V30 11862 H 1089.81 2.40648 3.16755 0
M  V30 11863 H 1086.55 5.3346 3.8092 0
M  V30 11864 H 1086.07 3.8258 4.61944 0
M  V30 11865 H 1087.75 4.40878 4.73535 0
M  V30 11866 N 1087.88 -1.11734 1.11145 0
M  V30 11867 C 1088.83 -2.17683 0.766979 0
M  V30 11868 C 1089.8 -1.64051 -0.260108 0
M  V30 11869 O 1090.98 -1.90302 -0.137723 0
M  V30 11870 C 1088.12 -3.44442 0.212982 0
M  V30 11871 C 1087.24 -4.12094 1.29626 0
M  V30 11872 C 1086.37 -5.26526 0.703127 0
M  V30 11873 C 1085.41 -5.86057 1.76647 0
M  V30 11874 N 1084.55 -6.91889 1.19306 0
M  V30 11875 H 1089.39 -2.46495 1.67465 0
M  V30 11876 H 1086.92 -1.21011 0.836353 0
M  V30 11877 H 1088.88 -4.17009 -0.126162 0
M  V30 11878 H 1087.51 -3.16025 -0.657888 0
M  V30 11879 H 1086.56 -3.37631 1.75241 0
M  V30 11880 H 1087.88 -4.52398 2.10089 0
M  V30 11881 H 1087.03 -6.05888 0.313859 0
M  V30 11882 H 1085.77 -4.87519 -0.132856 0
M  V30 11883 H 1084.77 -5.05375 2.16508 0
M  V30 11884 H 1086 -6.27132 2.60543 0
M  V30 11885 H 1083.95 -6.54906 0.378664 0
M  V30 11886 H 1083.86 -7.30832 1.93443 0
M  V30 11887 H 1085.13 -7.75062 0.830578 0
M  V30 11888 N 1089.36 -0.901303 -1.29284 0
M  V30 11889 C 1090.27 -0.3849 -2.31421 0
M  V30 11890 C 1091.29 0.521163 -1.66012 0
M  V30 11891 O 1092.46 0.410356 -1.97175 0
M  V30 11892 C 1089.53 0.377804 -3.44635 0
M  V30 11893 C 1088.59 -0.559974 -4.25632 0
M  V30 11894 C 1087.82 0.166425 -5.3344 0
M  V30 11895 O 1088.04 1.39012 -5.53202 0
M  V30 11896 O 1086.98 -0.491875 -5.99887 0
M  V30 11897 H 1090.8 -1.2323 -2.77575 0
M  V30 11898 H 1088.39 -0.665683 -1.3375 0
M  V30 11899 H 1090.27 0.809041 -4.13561 0
M  V30 11900 H 1088.95 1.20124 -3.00586 0
M  V30 11901 H 1087.85 -1.04036 -3.59343 0
M  V30 11902 H 1089.19 -1.34987 -4.73328 0
M  V30 11903 N 1090.84 1.42931 -0.663954 0
M  V30 11904 C 1091.75 2.3459 0.0214234 0
M  V30 11905 C 1092.76 1.54487 0.800611 0
M  V30 11906 O 1093.94 1.87098 0.74541 0
M  V30 11907 C 1091 3.32896 0.968556 0
M  V30 11908 C 1090.07 4.28901 0.185108 0
M  V30 11909 C 1089.3 5.2251 1.08713 0
M  V30 11910 O 1089.52 5.20795 2.32655 0
M  V30 11911 O 1088.46 5.99347 0.553758 0
M  V30 11912 H 1092.28 2.94714 -0.733308 0
M  V30 11913 H 1089.87 1.43252 -0.424159 0
M  V30 11914 H 1091.75 3.93318 1.51257 0
M  V30 11915 H 1090.42 2.75261 1.70333 0
M  V30 11916 H 1089.33 3.71926 -0.402752 0
M  V30 11917 H 1090.66 4.89547 -0.510319 0
M  V30 11918 N 1092.32 0.406567 1.52266 0
M  V30 11919 C 1093.56 -0.171391 2.00971 0
M  V30 11920 C 1093.88 -1.46443 1.29668 0
M  V30 11921 O 1095.08 -2.12348 1.69176 0
M  V30 11922 C 1093.54 -0.35599 3.58135 0
M  V30 11923 C 1093.15 0.924803 4.38351 0
M  V30 11924 C 1094.89 -0.889378 4.15079 0
M  V30 11925 C 1092.8 0.707534 5.87152 0
M  V30 11926 H 1091.73 -0.0678253 0.750943 0
M  V30 11927 H 1094.38 0.531619 1.7563 0
M  V30 11928 H 1092.76 -1.12127 3.79794 0
M  V30 11929 H 1093.94 1.69603 4.28452 0
M  V30 11930 H 1092.25 1.38442 3.92712 0
M  V30 11931 H 1094.85 -1.06792 5.23927 0
M  V30 11932 H 1095.19 -1.86334 3.7227 0
M  V30 11933 H 1095.72 -0.183224 3.97378 0
M  V30 11934 H 1092.46 1.65299 6.34316 0
M  V30 11935 H 1091.98 -0.024446 5.99795 0
M  V30 11936 H 1093.66 0.348721 6.4606 0
M  V30 11937 N 1093.79 -1.57004 0.136909 0
M  V30 11938 C 1094.73 -2.12004 -0.844362 0
M  V30 11939 C 1095.71 -1.04099 -1.24909 0
M  V30 11940 O 1096.89 -1.31866 -1.34698 0
M  V30 11941 C 1094.02 -2.63147 -2.13241 0
M  V30 11942 C 1093.06 -3.83105 -1.87438 0
M  V30 11943 S 1093.9 -5.2461 -1.07447 0
M  V30 11944 C 1095.05 -5.79134 -2.37392 0
M  V30 11945 H 1095.28 -2.94905 -0.376614 0
M  V30 11946 H 1092.82 -1.54207 -0.0771977 0
M  V30 11947 H 1094.78 -2.93264 -2.87239 0
M  V30 11948 H 1093.44 -1.80395 -2.57131 0
M  V30 11949 H 1092.63 -4.17099 -2.82922 0
M  V30 11950 H 1092.23 -3.53696 -1.21553 0
M  V30 11951 H 1094.52 -5.8995 -3.33114 0
M  V30 11952 H 1095.47 -6.76887 -2.07918 0
M  V30 11953 H 1095.87 -5.07311 -2.47579 0
M  V30 11954 N 1095.27 0.136881 -1.57004 0
M  V30 11955 C 1096.2 1.17026 -2.02057 0
M  V30 11956 C 1097.18 1.44223 -0.901866 0
M  V30 11957 O 1098.37 1.54971 -1.17037 0
M  V30 11958 C 1095.5 2.50095 -2.40977 0
M  V30 11959 C 1094.45 2.37398 -3.56127 0
M  V30 11960 C 1093.78 3.75268 -3.80891 0
M  V30 11961 C 1095.08 1.84952 -4.88457 0
M  V30 11962 H 1096.77 0.795601 -2.88636 0
M  V30 11963 H 1094.32 0.381266 -1.38861 0
M  V30 11964 H 1096.27 3.22621 -2.71097 0
M  V30 11965 H 1095 2.89416 -1.51348 0
M  V30 11966 H 1093.65 1.67322 -3.26188 0
M  V30 11967 H 1093.3 4.12043 -2.88496 0
M  V30 11968 H 1093 3.67631 -4.5839 0
M  V30 11969 H 1094.53 4.49327 -4.13446 0
M  V30 11970 H 1095.94 2.4728 -5.17229 0
M  V30 11971 H 1094.34 1.88181 -5.69832 0
M  V30 11972 H 1095.41 0.805848 -4.78157 0
M  V30 11973 N 1096.75 1.52266 0.40654 0
M  V30 11974 C 1097.71 1.75168 1.47814 0
M  V30 11975 C 1098.71 0.621575 1.48301 0
M  V30 11976 O 1099.9 0.889476 1.4978 0
M  V30 11977 C 1097.04 1.83642 2.87208 0
M  V30 11978 H 1098.23 2.70834 1.28798 0
M  V30 11979 H 1095.78 1.42722 0.637196 0
M  V30 11980 H 1096.52 0.898994 3.1159 0
M  V30 11981 H 1096.3 2.65801 2.88257 0
M  V30 11982 H 1097.79 2.03093 3.64888 0
M  V30 11983 N 1098.23 -0.663929 1.42933 0
M  V30 11984 C 1099.46 -1.44981 1.47187 0
M  V30 11985 C 1099.87 -1.89009 0.0850091 0
M  V30 11986 O 1099.21 -1.59413 -0.912855 0
M  V30 11987 C 1099.27 -2.72409 2.34592 0
M  V30 11988 C 1098.94 -2.5039 3.82301 0
M  V30 11989 C 1099.93 -2.14295 4.73681 0
M  V30 11990 C 1097.62 -2.65047 4.2668 0
M  V30 11991 C 1099.61 -1.93139 6.07434 0
M  V30 11992 C 1097.3 -2.43506 5.60489 0
M  V30 11993 C 1098.3 -2.07607 6.50683 0
M  V30 11994 O 1097.98 -1.86284 7.82019 0
M  V30 11995 H 1097.72 -0.452238 0.502451 0
M  V30 11996 H 1100.27 -0.822228 1.88225 0
M  V30 11997 H 1098.5 -3.37689 1.88422 0
M  V30 11998 H 1100.19 -3.34327 2.30174 0
M  V30 11999 H 1100.96 -2.02557 4.40676 0
M  V30 12000 H 1096.83 -2.91966 3.56759 0
M  V30 12001 H 1100.38 -1.65042 6.77796 0
M  V30 12002 H 1096.28 -2.54844 5.93064 0
M  V30 12003 H 1097.04 -2.00795 7.93488 0
M  V30 12004 N 1099.71 -1.29285 -0.901281 0
M  V30 12005 C 1100.64 -1.10086 -2.01032 0
M  V30 12006 C 1101.65 -0.0488364 -1.62727 0
M  V30 12007 O 1102.84 -0.293194 -1.76076 0
M  V30 12008 C 1099.94 -0.653357 -3.32542 0
M  V30 12009 C 1099.11 -1.78355 -3.99385 0
M  V30 12010 C 1098.17 -1.32733 -5.09184 0
M  V30 12011 O 1097.2 -2.03177 -5.31703 0
M  V30 12012 N 1098.4 -0.197345 -5.80164 0
M  V30 12013 H 1101.17 -2.056 -2.18057 0
M  V30 12014 H 1098.73 -1.21204 -1.07337 0
M  V30 12015 H 1100.72 -0.331491 -4.0334 0
M  V30 12016 H 1099.29 0.209278 -3.11899 0
M  V30 12017 H 1098.51 -2.27438 -3.21972 0
M  V30 12018 H 1099.8 -2.54137 -4.40785 0
M  V30 12019 H 1099.19 0.390011 -5.64354 0
M  V30 12020 H 1097.75 0.0651642 -6.51767 0
M  V30 12021 N 1101.18 1.11143 -1.11736 0
M  V30 12022 C 1102.43 1.82586 -0.866412 0
M  V30 12023 C 1102.75 1.85227 0.609593 0
M  V30 12024 O 1102.02 1.32505 1.44288 0
M  V30 12025 H 1100.6 0.676149 -0.31754 0
M  V30 12026 H 1103.27 1.34516 -1.41037 0
M  V30 12027 H 1102.36 2.8635 -1.24136 0
M  V30 12028 N 1102.66 0.908147 1.28804 0
M  V30 12029 C 1103.89 0.55409 1.99343 0
M  V30 12030 C 1104.31 -0.863262 1.67908 0
M  V30 12031 O 1103.66 -1.571 0.92875 0
M  V30 12032 C 1103.71 0.746916 3.537 0
M  V30 12033 O 1103.43 2.10849 3.84024 0
M  V30 12034 C 1104.94 0.398939 4.41501 0
M  V30 12035 H 1102.16 0.211784 0.636701 0
M  V30 12036 H 1104.7 1.21981 1.64137 0
M  V30 12037 H 1102.85 0.128264 3.87188 0
M  V30 12038 H 1103.27 2.14404 4.78676 0
M  V30 12039 H 1104.74 0.584656 5.48895 0
M  V30 12040 H 1105.22 -0.664517 4.34144 0
M  V30 12041 H 1105.83 0.994892 4.135 0
M  V30 12042 N 1104.14 -1.42577 0.671525 0
M  V30 12043 C 1105.07 -2.2915 -0.0477361 0
M  V30 12044 C 1106.09 -1.43503 -0.768805 0
M  V30 12045 O 1107.27 -1.67256 -0.623509 0
M  V30 12046 C 1104.37 -3.20851 -1.09122 0
M  V30 12047 C 1103.55 -4.35134 -0.44463 0
M  V30 12048 C 1102.61 -5.07579 -1.38745 0
M  V30 12049 O 1101.63 -5.62215 -0.889015 0
M  V30 12050 N 1102.83 -5.12786 -2.72086 0
M  V30 12051 H 1105.6 -2.9152 0.695415 0
M  V30 12052 H 1103.16 -1.53467 0.515689 0
M  V30 12053 H 1105.15 -3.66183 -1.72315 0
M  V30 12054 H 1103.72 -2.59956 -1.73614 0
M  V30 12055 H 1102.94 -3.9249 0.36675 0
M  V30 12056 H 1104.23 -5.088 0.00595927 0
M  V30 12057 H 1103.63 -4.69802 -3.15123 0
M  V30 12058 H 1102.19 -5.61774 -3.30535 0
M  V30 12059 N 1105.62 -0.414636 -1.52048 0
M  V30 12060 C 1106.87 0.16073 -2.01059 0
M  V30 12061 C 1107.18 1.45753 -1.30443 0
M  V30 12062 O 1108.39 2.11448 -1.703 0
M  V30 12063 C 1106.84 0.336993 -3.58319 0
M  V30 12064 C 1106.45 -0.948037 -4.37854 0
M  V30 12065 C 1108.19 0.867353 -4.15545 0
M  V30 12066 C 1106.1 -0.738662 -5.86769 0
M  V30 12067 H 1105.03 0.0638419 -0.751292 0
M  V30 12068 H 1107.68 -0.540925 -1.75346 0
M  V30 12069 H 1106.06 1.10111 -3.80383 0
M  V30 12070 H 1107.24 -1.71873 -4.27547 0
M  V30 12071 H 1105.55 -1.40522 -3.91972 0
M  V30 12072 H 1108.15 1.04012 -5.24486 0
M  V30 12073 H 1108.49 1.84358 -3.73253 0
M  V30 12074 H 1109.03 0.162148 -3.97469 0
M  V30 12075 H 1105.77 -1.6866 -6.3343 0
M  V30 12076 H 1105.29 -0.00736294 -5.998 0
M  V30 12077 H 1106.96 -0.382978 -6.45866 0
M  V30 12078 N 1107.1 1.56929 -0.145233 0
M  V30 12079 C 1108.04 2.16671 0.795128 0
M  V30 12080 C 1109.01 1.09908 1.24537 0
M  V30 12081 O 1110.2 1.37941 1.31821 0
M  V30 12082 C 1107.34 2.79111 2.02956 0
M  V30 12083 C 1106.45 4.00261 1.62528 0
M  V30 12084 C 1105.59 4.50705 2.81137 0
M  V30 12085 C 1104.63 5.64324 2.37075 0
M  V30 12086 N 1103.76 6.09395 3.48687 0
M  V30 12087 H 1108.6 2.96692 0.278865 0
M  V30 12088 H 1106.14 1.4656 0.125934 0
M  V30 12089 H 1108.1 3.13456 2.7532 0
M  V30 12090 H 1106.73 2.01737 2.51996 0
M  V30 12091 H 1105.78 3.71906 0.799365 0
M  V30 12092 H 1107.09 4.8258 1.26166 0
M  V30 12093 H 1106.25 4.87096 3.61693 0
M  V30 12094 H 1104.98 3.67389 3.20744 0
M  V30 12095 H 1103.99 5.27511 1.54958 0
M  V30 12096 H 1105.21 6.49425 1.98556 0
M  V30 12097 H 1103.16 5.29014 3.87917 0
M  V30 12098 H 1103.08 6.86636 3.16333 0
M  V30 12099 H 1104.35 6.50431 4.29605 0
M  V30 12100 N 1108.58 -0.128553 1.57075 0
M  V30 12101 C 1109.49 -1.17718 2.02927 0
M  V30 12102 C 1110.5 -1.45912 0.947932 0
M  V30 12103 O 1111.68 -1.57217 1.25876 0
M  V30 12104 C 1108.74 -2.48625 2.41633 0
M  V30 12105 C 1107.8 -2.27914 3.63804 0
M  V30 12106 C 1107.04 -3.52579 4.00654 0
M  V30 12107 O 1107.26 -4.59505 3.37952 0
M  V30 12108 O 1106.19 -3.44147 4.93808 0
M  V30 12109 H 1110.02 -0.817846 2.92481 0
M  V30 12110 H 1107.6 -0.338649 1.45511 0
M  V30 12111 H 1109.49 -3.2577 2.67305 0
M  V30 12112 H 1108.16 -2.84052 1.55229 0
M  V30 12113 H 1107.07 -1.4866 3.43294 0
M  V30 12114 H 1108.4 -1.97395 4.50883 0
M  V30 12115 N 1110.05 -1.5248 -0.398459 0
M  V30 12116 C 1111 -1.76585 -1.48615 0
M  V30 12117 C 1111.97 -0.608677 -1.54546 0
M  V30 12118 O 1113.16 -0.847383 -1.7095 0
M  V30 12119 C 1110.3 -1.93201 -2.8595 0
M  V30 12120 C 1109.41 -3.20875 -2.89246 0
M  V30 12121 C 1108.54 -3.27862 -4.17947 0
M  V30 12122 C 1107.58 -4.49697 -4.15258 0
M  V30 12123 N 1106.72 -4.54017 -5.35549 0
M  V30 12124 H 1111.56 -2.69412 -1.27362 0
M  V30 12125 H 1109.1 -1.33487 -0.618031 0
M  V30 12126 H 1111.05 -2.00819 -3.65688 0
M  V30 12127 H 1109.68 -1.03743 -3.05675 0
M  V30 12128 H 1108.74 -3.22376 -2.01935 0
M  V30 12129 H 1110.05 -4.1066 -2.83125 0
M  V30 12130 H 1109.2 -3.34611 -5.06083 0
M  V30 12131 H 1107.94 -2.36035 -4.26777 0
M  V30 12132 H 1106.95 -4.43083 -3.25511 0
M  V30 12133 H 1108.17 -5.42831 -4.08059 0
M  V30 12134 H 1106.12 -3.65078 -5.45027 0
M  V30 12135 H 1106.03 -5.37661 -5.31466 0
M  V30 12136 H 1107.3 -4.65009 -6.25609 0
M  V30 12137 N 1111.53 0.65634 -1.43283 0
M  V30 12138 C 1112.95 0.971645 -1.26614 0
M  V30 12139 C 1113.15 2.00662 -0.183612 0
M  V30 12140 O 1112.2 2.48654 0.439003 0
M  V30 12141 C 1113.52 1.45888 -2.6294 0
M  V30 12142 C 1115.06 1.57569 -2.70446 0
M  V30 12143 C 1115.54 2.09684 -4.07181 0
M  V30 12144 N 1117.03 2.16991 -4.0923 0
M  V30 12145 C 1117.77 2.5843 -5.11861 0
M  V30 12146 N 1117.26 2.99188 -6.24867 0
M  V30 12147 N 1119.05 2.58342 -4.99215 0
M  V30 12148 H 1111.21 -0.028573 -2.12381 0
M  V30 12149 H 1113.47 0.0497918 -0.946691 0
M  V30 12150 H 1113.17 0.772823 -3.43104 0
M  V30 12151 H 1113.05 2.43445 -2.88122 0
M  V30 12152 H 1115.44 2.25277 -1.90616 0
M  V30 12153 H 1115.52 0.584529 -2.49032 0
M  V30 12154 H 1115.16 1.42579 -4.87477 0
M  V30 12155 H 1115.09 3.09625 -4.25958 0
M  V30 12156 H 1117.58 1.88278 -3.27658 0
M  V30 12157 H 1117.89 3.29549 -6.99012 0
M  V30 12158 H 1116.24 2.97 -6.28344 0
M  V30 12159 H 1119.43 2.25875 -4.09998 0
M  V30 12160 H 1119.6 2.90316 -5.79328 0
M  V30 12161 N 1113.01 1.29761 0.894412 0
M  V30 12162 C 1114.29 1.08711 1.62608 0
M  V30 12163 C 1114.67 -0.366907 2.07887 0
M  V30 12164 O 1114.01 -1.35669 1.83865 0
M  V30 12165 C 1114.22 2.07947 2.80284 0
M  V30 12166 C 1115.57 2.39153 3.50843 0
M  V30 12167 O 1116.6 2.06183 2.9046 0
M  V30 12168 O 1115.46 2.95509 4.59713 0
M  V30 12169 H 1112.55 0.416866 0.714249 0
M  V30 12170 H 1115.1 1.41153 0.942015 0
M  V30 12171 H 1113.87 3.05859 2.44061 0
M  V30 12172 H 1113.49 1.76266 3.56393 0
M  V30 12173 N 1114.49 -1.10549 1.12324 0
M  V30 12174 C 1115.4 -2.20428 0.803032 0
M  V30 12175 C 1116.41 -1.72756 -0.207674 0
M  V30 12176 O 1117.59 -2.01357 -0.0415623 0
M  V30 12177 C 1114.65 -3.45716 0.261032 0
M  V30 12178 C 1113.72 -4.08129 1.33152 0
M  V30 12179 C 1112.95 -5.27436 0.815288 0
M  V30 12180 O 1113.17 -5.69317 -0.351361 0
M  V30 12181 O 1112.11 -5.80674 1.58434 0
M  V30 12182 H 1115.93 -2.50249 1.72073 0
M  V30 12183 H 1113.52 -1.19263 0.899815 0
M  V30 12184 H 1115.4 -4.21384 -0.0364007 0
M  V30 12185 H 1114.07 -3.17525 -0.629249 0
M  V30 12186 H 1112.98 -3.3415 1.6821 0
M  V30 12187 H 1114.31 -4.4052 2.19552 0
M  V30 12188 N 1115.97 -0.914965 -1.28321 0
M  V30 12189 C 1117.24 -0.46764 -1.89928 0
M  V30 12190 C 1117.62 1.05364 -1.82925 0
M  V30 12191 O 1116.97 1.90223 -1.26599 0
M  V30 12192 C 1117.18 -0.999372 -3.34385 0
M  V30 12193 C 1118.53 -1.0522 -4.11356 0
M  V30 12194 O 1119.55 -0.9481 -3.4335 0
M  V30 12195 O 1118.41 -1.21085 -5.32917 0
M  V30 12196 H 1115.51 -0.148398 -0.813577 0
M  V30 12197 H 1118.05 -1.00583 -1.36679 0
M  V30 12198 H 1116.82 -2.04333 -3.33712 0
M  V30 12199 H 1116.45 -0.442083 -3.95135 0
M  V30 12200 N 1117.44 1.42219 -0.679077 0
M  V30 12201 C 1118.41 2.29197 -0.0125475 0
M  V30 12202 C 1119.41 1.43544 0.724691 0
M  V30 12203 O 1120.6 1.64884 0.562052 0
M  V30 12204 C 1117.73 3.26122 0.992846 0
M  V30 12205 H 1118.92 2.89629 -0.778154 0
M  V30 12206 H 1116.47 1.4993 -0.44166 0
M  V30 12207 H 1117.21 2.70637 1.78679 0
M  V30 12208 H 1116.99 3.89302 0.467544 0
M  V30 12209 H 1118.48 3.91339 1.45751 0
M  V30 12210 N 1118.92 0.422693 1.51826 0
M  V30 12211 C 1120.17 -0.148348 2.01555 0
M  V30 12212 C 1120.49 -1.44483 1.30956 0
M  V30 12213 O 1119.76 -1.90904 0.439599 0
M  V30 12214 H 1118.34 -0.0578116 0.74476 0
M  V30 12215 H 1121 0.562046 1.8662 0
M  V30 12216 H 1120.1 -0.334766 3.10299 0
M  V30 12217 N 1120.4 -1.5685 0.153553 0
M  V30 12218 C 1121.65 -1.96334 -0.495915 0
M  V30 12219 C 1121.97 -1.03873 -1.64441 0
M  V30 12220 O 1121.23 -0.069231 -1.95578 0
M  V30 12221 C 1121.53 -3.42022 -1.0371 0
M  V30 12222 C 1121.19 -4.509 -0.00637049 0
M  V30 12223 C 1119.86 -4.80402 0.276956 0
M  V30 12224 C 1122.21 -5.16556 0.694187 0
M  V30 12225 C 1119.54 -5.72866 1.26653 0
M  V30 12226 C 1121.89 -6.10087 1.67263 0
M  V30 12227 C 1120.55 -6.37965 1.96359 0
M  V30 12228 H 1119.82 -0.718436 -0.181468 0
M  V30 12229 H 1122.47 -1.89968 0.241768 0
M  V30 12230 H 1120.77 -3.45252 -1.85225 0
M  V30 12231 H 1122.47 -3.69903 -1.54831 0
M  V30 12232 H 1119.06 -4.27942 -0.237378 0
M  V30 12233 H 1123.25 -4.9389 0.488496 0
M  V30 12234 H 1118.5 -5.92756 1.49833 0
M  V30 12235 H 1122.68 -6.60036 2.22094 0
M  V30 12236 H 1120.3 -7.09416 2.73189 0
M  V30 12237 N 1121.88 0.120221 -1.57141 0
M  V30 12238 C 1123.15 0.858458 -1.75755 0
M  V30 12239 C 1123.53 1.98124 -0.728693 0
M  V30 12240 O 1122.88 2.27155 0.247573 0
M  V30 12241 C 1123.09 1.37627 -3.20718 0
M  V30 12242 C 1124.44 1.82909 -3.83183 0
M  V30 12243 O 1125.46 1.47309 -3.24312 0
M  V30 12244 O 1124.32 2.4865 -4.86657 0
M  V30 12245 H 1121.42 0.407583 -0.719587 0
M  V30 12246 H 1123.96 0.104057 -1.69381 0
M  V30 12247 H 1122.74 0.570651 -3.87117 0
M  V30 12248 H 1122.36 2.19341 -3.31625 0
M  V30 12249 N 1123.36 1.52689 0.390367 0
M  V30 12250 C 1124.29 1.80338 1.48325 0
M  V30 12251 C 1125.27 0.655338 1.56969 0
M  V30 12252 O 1126.45 0.902792 1.7194 0
M  V30 12253 C 1123.58 1.97101 2.85952 0
M  V30 12254 C 1122.54 3.12783 2.92148 0
M  V30 12255 C 1121.86 3.14798 4.32211 0
M  V30 12256 C 1123.16 4.5188 2.61919 0
M  V30 12257 H 1124.86 2.71857 1.25437 0
M  V30 12258 H 1122.4 1.30813 0.601995 0
M  V30 12259 H 1124.36 2.15027 3.62411 0
M  V30 12260 H 1123.08 1.02271 3.10174 0
M  V30 12261 H 1121.74 2.94638 2.18137 0
M  V30 12262 H 1121.39 2.17653 4.53471 0
M  V30 12263 H 1121.09 3.92507 4.37278 0
M  V30 12264 H 1122.61 3.34877 5.10578 0
M  V30 12265 H 1124.02 4.70134 3.28096 0
M  V30 12266 H 1122.42 5.31647 2.78337 0
M  V30 12267 H 1123.49 4.58689 1.57266 0
M  V30 12268 N 1124.83 -0.648732 1.43629 0
M  V30 12269 C 1126.07 -1.42032 1.46991 0
M  V30 12270 C 1126.44 -1.91774 0.0931841 0
M  V30 12271 O 1127.64 -2.688 0.00148504 0
M  V30 12272 C 1125.91 -2.56693 2.48684 0
M  V30 12273 S 1127.47 -3.45149 2.70956 0
M  V30 12274 H 1124.29 -0.484772 0.520113 0
M  V30 12275 H 1126.89 -0.75274 1.80427 0
M  V30 12276 H 1125.59 -2.18431 3.47442 0
M  V30 12277 H 1125.12 -3.28296 2.1676 0
M  V30 12278 H 1127.14 -4.53569 2.01221 0
M  V30 12279 N 1126.31 -1.30234 -0.887518 0
M  V30 12280 C 1127.56 -1.19086 -1.64153 0
M  V30 12281 C 1127.89 0.254428 -1.92526 0
M  V30 12282 O 1127.17 1.18233 -1.54438 0
M  V30 12283 C 1127.45 -2.01723 -2.98295 0
M  V30 12284 C 1127.3 -3.54458 -2.76911 0
M  V30 12285 C 1128.62 -1.85307 -3.99186 0
M  V30 12286 H 1125.74 -0.433967 -0.595686 0
M  V30 12287 H 1128.38 -1.59839 -1.0272 0
M  V30 12288 H 1126.53 -1.67096 -3.5073 0
M  V30 12289 H 1128.2 -3.99131 -2.31284 0
M  V30 12290 H 1126.45 -3.78768 -2.11464 0
M  V30 12291 H 1127.12 -4.07565 -3.72283 0
M  V30 12292 H 1129.59 -2.15575 -3.55903 0
M  V30 12293 H 1128.47 -2.45456 -4.90961 0
M  V30 12294 H 1128.73 -0.811528 -4.34588 0
M  V30 12295 N 1127.79 1.09952 -1.12909 0
M  V30 12296 C 1129.2 1.63516 -0.901087 0
M  V30 12297 C 1129.55 1.87932 0.563547 0
M  V30 12298 O 1128.68 1.625 1.42908 0
M  V30 12299 C 1129.27 2.97054 -1.62924 0
M  V30 12300 C 1127.83 3.47464 -1.44725 0
M  V30 12301 C 1126.98 2.21979 -1.66194 0
M  V30 12302 H 1129.93 0.933858 -1.28315 0
M  V30 12303 H 1129.95 3.64757 -1.08318 0
M  V30 12304 H 1129.46 2.79251 -2.69519 0
M  V30 12305 H 1127.56 3.70402 -0.40409 0
M  V30 12306 H 1127.68 4.25254 -2.20671 0
M  V30 12307 H 1126.04 2.30368 -1.0864 0
M  V30 12308 H 1126.82 2.06702 -2.74097 0
M  V30 12309 N 1129.27 0.921757 1.27833 0
M  V30 12310 C 1130.5 0.574368 1.98455 0
M  V30 12311 C 1130.91 -0.850577 1.69002 0
M  V30 12312 O 1130.25 -1.57607 0.943708 0
M  V30 12313 C 1130.31 0.713235 3.52354 0
M  V30 12314 C 1129.98 2.1092 4.05415 0
M  V30 12315 C 1130.97 3.08276 4.18643 0
M  V30 12316 C 1128.66 2.42454 4.3991 0
M  V30 12317 C 1130.65 4.35279 4.6563 0
M  V30 12318 C 1128.34 3.69694 4.8659 0
M  V30 12319 C 1129.34 4.6592 4.99407 0
M  V30 12320 O 1129.02 5.90896 5.45066 0
M  V30 12321 H 1128.76 0.216955 0.640239 0
M  V30 12322 H 1131.31 1.23932 1.63798 0
M  V30 12323 H 1129.54 -0.00881115 3.86699 0
M  V30 12324 H 1131.23 0.371776 4.04194 0
M  V30 12325 H 1132 2.85234 3.92258 0
M  V30 12326 H 1127.87 1.68303 4.2918 0
M  V30 12327 H 1131.42 5.10391 4.75549 0
M  V30 12328 H 1127.32 3.92557 5.12415 0
M  V30 12329 H 1128.08 5.938 5.63333 0
M  V30 12330 N 1130.75 -1.41857 0.686609 0
M  V30 12331 C 1132.02 -1.95082 0.142228 0
M  V30 12332 C 1132.4 -1.62646 -1.34572 0
M  V30 12333 O 1131.75 -0.928757 -2.08773 0
M  V30 12334 C 1131.96 -3.46415 0.423955 0
M  V30 12335 C 1133.31 -4.23181 0.346842 0
M  V30 12336 O 1134.33 -3.54393 0.358363 0
M  V30 12337 O 1133.19 -5.4568 0.299211 0
M  V30 12338 H 1130.29 -0.826943 0.00974 0
M  V30 12339 H 1132.83 -1.51622 0.762153 0
M  V30 12340 H 1131.6 -3.63273 1.45424 0
M  V30 12341 H 1131.23 -3.96949 -0.227391 0
M  V30 12342 N 1132.22 -0.430739 -1.51599 0
M  V30 12343 C 1133.47 0.139396 -2.01218 0
M  V30 12344 C 1133.79 1.44361 -1.31982 0
M  V30 12345 O 1134.99 2.0963 -1.72533 0
M  V30 12346 C 1133.45 0.298969 -3.58656 0
M  V30 12347 C 1133.06 -0.994424 -4.36824 0
M  V30 12348 C 1134.8 0.82323 -4.16441 0
M  V30 12349 C 1132.71 -0.800855 -5.85952 0
M  V30 12350 H 1131.64 0.0558698 -0.751927 0
M  V30 12351 H 1134.29 -0.559493 -1.74762 0
M  V30 12352 H 1132.67 1.06071 -3.8153 0
M  V30 12353 H 1133.84 -1.76398 -4.257 0
M  V30 12354 H 1132.16 -1.44672 -3.9046 0
M  V30 12355 H 1134.76 0.984434 -5.2556 0
M  V30 12356 H 1135.1 1.80388 -3.75188 0
M  V30 12357 H 1135.63 0.119982 -3.97619 0
M  V30 12358 H 1132.37 -1.75369 -6.31606 0
M  V30 12359 H 1131.89 -0.0709793 -5.99758 0
M  V30 12360 H 1133.57 -0.451459 -6.45423 0
M  V30 12361 N 1133.7 1.56767 -0.161869 0
M  V30 12362 C 1134.64 2.13321 0.810527 0
M  V30 12363 C 1135.61 1.06073 1.23237 0
M  V30 12364 O 1136.8 1.33993 1.32583 0
M  V30 12365 C 1133.92 2.66506 2.09027 0
M  V30 12366 C 1132.97 3.86038 1.8132 0
M  V30 12367 S 1133.8 5.26253 0.990873 0
M  V30 12368 C 1134.96 5.82837 2.28149 0
M  V30 12369 H 1135.19 2.95467 0.32965 0
M  V30 12370 H 1132.73 1.5431 0.052655 0
M  V30 12371 H 1134.68 2.97797 2.82537 0
M  V30 12372 H 1133.34 1.84463 2.54229 0
M  V30 12373 H 1132.54 4.21547 2.7625 0
M  V30 12374 H 1132.14 3.55585 1.1591 0
M  V30 12375 H 1134.43 5.95175 3.23686 0
M  V30 12376 H 1135.37 6.80109 1.97123 0
M  V30 12377 H 1135.78 5.11186 2.39477 0
M  V30 12378 N 1135.18 -0.111886 1.57202 0
M  V30 12379 C 1136.43 -0.817022 1.84412 0
M  V30 12380 C 1136.74 -1.80708 0.748608 0
M  V30 12381 O 1137.95 -2.55891 0.907319 0
M  V30 12382 C 1136.4 -1.50376 3.26979 0
M  V30 12383 C 1136.01 -0.554334 4.44557 0
M  V30 12384 C 1137.76 -2.19361 3.63429 0
M  V30 12385 C 1135.66 -1.24471 5.78153 0
M  V30 12386 H 1134.59 -0.308864 0.687836 0
M  V30 12387 H 1137.24 -0.0698109 1.83367 0
M  V30 12388 H 1135.63 -2.29785 3.22514 0
M  V30 12389 H 1136.8 0.207045 4.60335 0
M  V30 12390 H 1135.12 0.0289261 4.1639 0
M  V30 12391 H 1137.71 -2.71716 4.60515 0
M  V30 12392 H 1138.06 -2.97488 2.91215 0
M  V30 12393 H 1138.59 -1.46833 3.69709 0
M  V30 12394 H 1135.33 -0.504584 6.53555 0
M  V30 12395 H 1134.85 -1.97792 5.66249 0
M  V30 12396 H 1136.53 -1.77591 6.2215 0
M  V30 12397 N 1136.66 -1.52894 -0.382264 0
M  V30 12398 C 1138.07 -1.60135 -0.959887 0
M  V30 12399 C 1138.42 -0.458363 -1.90771 0
M  V30 12400 O 1137.55 0.417614 -2.12332 0
M  V30 12401 C 1138.14 -2.90243 -1.74769 0
M  V30 12402 C 1136.7 -2.99874 -2.27491 0
M  V30 12403 C 1135.85 -2.55302 -1.0824 0
M  V30 12404 H 1138.8 -1.57875 -0.161589 0
M  V30 12405 H 1138.82 -2.77108 -2.60751 0
M  V30 12406 H 1138.33 -3.73412 -1.0576 0
M  V30 12407 H 1136.43 -2.21258 -2.99793 0
M  V30 12408 H 1136.54 -4.04643 -2.56516 0
M  V30 12409 H 1134.91 -2.09781 -1.44444 0
M  V30 12410 H 1135.69 -3.40872 -0.407553 0
M  V30 12411 N 1138.14 0.641106 -1.43971 0
M  V30 12412 C 1139.38 1.40291 -1.46445 0
M  V30 12413 C 1139.72 1.93978 -0.0929004 0
M  V30 12414 O 1138.99 1.73043 0.888043 0
M  V30 12415 C 1139.27 2.57551 -2.51673 0
M  V30 12416 C 1139.13 2.09279 -3.98149 0
M  V30 12417 C 1140.45 3.59752 -2.53508 0
M  V30 12418 H 1137.57 0.508771 -0.533218 0
M  V30 12419 H 1140.21 0.725767 -1.75592 0
M  V30 12420 H 1138.36 3.15319 -2.2695 0
M  V30 12421 H 1140.03 1.56418 -4.33971 0
M  V30 12422 H 1138.27 1.40545 -4.10402 0
M  V30 12423 H 1138.94 2.93655 -4.67409 0
M  V30 12424 H 1141.42 3.11766 -2.75574 0
M  V30 12425 H 1140.3 4.39332 -3.29057 0
M  V30 12426 H 1140.56 4.13156 -1.57335 0
M  V30 12427 N 1139.62 1.30703 0.880598 0
M  V30 12428 C 1140.84 1.22843 1.67106 0
M  V30 12429 C 1141.27 -0.204788 1.86982 0
M  V30 12430 O 1140.62 -1.14716 1.40392 0
M  V30 12431 C 1140.67 1.96685 3.02237 0
M  V30 12432 O 1139.78 1.29693 3.91476 0
M  V30 12433 H 1139.12 0.424661 0.51045 0
M  V30 12434 H 1141.65 1.72596 1.09871 0
M  V30 12435 H 1141.66 2.05874 3.52249 0
M  V30 12436 H 1140.33 3.00919 2.8709 0
M  V30 12437 H 1138.91 1.28886 3.49918 0
M  V30 12438 N 1141.09 -1.09351 1.1349 0
M  V30 12439 C 1142.37 -1.78121 0.808225 0
M  V30 12440 C 1142.75 -1.99154 -0.700072 0
M  V30 12441 O 1142.1 -1.59356 -1.63762 0
M  V30 12442 C 1142.31 -3.10368 1.59601 0
M  V30 12443 C 1143.66 -3.85063 1.78919 0
M  V30 12444 O 1144.68 -3.20122 1.56206 0
M  V30 12445 O 1143.54 -5.01648 2.16821 0
M  V30 12446 H 1140.63 -0.77253 0.295173 0
M  V30 12447 H 1143.18 -1.15901 1.23956 0
M  V30 12448 H 1141.95 -2.90549 2.62101 0
M  V30 12449 H 1141.57 -3.80312 1.15967 0
M  V30 12450 N 1142.57 -0.928524 -1.27343 0
M  V30 12451 C 1143.8 -0.585734 -1.98436 0
M  V30 12452 C 1144.21 0.83644 -1.69261 0
M  V30 12453 O 1143.57 1.55603 -0.953626 0
M  V30 12454 C 1143.62 -0.803092 -3.52467 0
M  V30 12455 O 1143.34 -2.16932 -3.80621 0
M  V30 12456 C 1144.84 -0.469127 -4.40811 0
M  V30 12457 H 1142.06 -0.221887 -0.633251 0
M  V30 12458 H 1144.61 -1.24577 -1.62175 0
M  V30 12459 H 1142.76 -0.189846 -3.86935 0
M  V30 12460 H 1143.18 -2.21992 -4.75205 0
M  V30 12461 H 1144.65 -0.671906 -5.47895 0
M  V30 12462 H 1145.13 0.595365 -4.35146 0
M  V30 12463 H 1145.73 -1.06055 -4.11865 0
M  V30 12464 N 1144.05 1.41491 -0.694123 0
M  V30 12465 C 1145 2.30783 -0.0278824 0
M  V30 12466 C 1145.97 1.47028 0.772783 0
M  V30 12467 O 1147.15 1.75819 0.74111 0
M  V30 12468 C 1144.29 3.33061 0.903579 0
M  V30 12469 C 1143.4 4.31896 0.0946823 0
M  V30 12470 C 1142.54 5.21243 1.02365 0
M  V30 12471 C 1141.58 6.11748 0.207578 0
M  V30 12472 N 1140.72 6.93583 1.09028 0
M  V30 12473 H 1145.56 2.87197 -0.795092 0
M  V30 12474 H 1143.09 1.41449 -0.403806 0
M  V30 12475 H 1145.05 3.90907 1.45765 0
M  V30 12476 H 1143.68 2.782 1.6372 0
M  V30 12477 H 1142.73 3.76009 -0.576289 0
M  V30 12478 H 1144.04 4.95889 -0.538059 0
M  V30 12479 H 1143.2 5.83917 1.647 0
M  V30 12480 H 1141.94 4.57473 1.69025 0
M  V30 12481 H 1140.94 5.48125 -0.428854 0
M  V30 12482 H 1142.17 6.77573 -0.455206 0
M  V30 12483 H 1140.11 6.32422 1.74292 0
M  V30 12484 H 1140.03 7.54257 0.513073 0
M  V30 12485 H 1141.3 7.60726 1.70048 0
M  V30 12486 N 1145.53 0.438773 1.51369 0
M  V30 12487 C 1146.78 -0.128723 2.01289 0
M  V30 12488 C 1147.09 -1.43659 1.32745 0
M  V30 12489 O 1148.3 -2.08712 1.73642 0
M  V30 12490 C 1146.75 -0.279945 3.5881 0
M  V30 12491 C 1146.36 1.01758 4.3629 0
M  V30 12492 C 1148.1 -0.801133 4.16872 0
M  V30 12493 C 1146.01 0.831918 5.85519 0
M  V30 12494 H 1144.94 -0.0518814 0.752213 0
M  V30 12495 H 1147.59 0.568753 1.74463 0
M  V30 12496 H 1145.97 -1.04046 3.82087 0
M  V30 12497 H 1147.15 1.78653 4.24758 0
M  V30 12498 H 1145.46 1.46741 3.89687 0
M  V30 12499 H 1148.06 -0.956548 5.26074 0
M  V30 12500 H 1148.4 -1.78396 3.76139 0
M  V30 12501 H 1148.94 -0.0988934 3.97677 0
M  V30 12502 H 1145.67 1.78716 6.30667 0
M  V30 12503 H 1145.19 0.102785 5.99712 0
M  V30 12504 H 1146.87 0.485681 6.45174 0
M  V30 12505 N 1147.01 -1.56678 0.170181 0
M  V30 12506 C 1148.25 -1.96024 -0.475147 0
M  V30 12507 C 1148.57 -1.0588 -1.64465 0
M  V30 12508 O 1149.77 -1.34901 -2.35614 0
M  V30 12509 C 1148.23 -3.4855 -0.896704 0
M  V30 12510 C 1147.84 -4.47318 0.247142 0
M  V30 12511 C 1149.58 -3.96716 -1.51052 0
M  V30 12512 C 1147.49 -5.91082 -0.193982 0
M  V30 12513 H 1146.42 -0.731883 -0.181282 0
M  V30 12514 H 1149.07 -1.81674 0.25823 0
M  V30 12515 H 1147.45 -3.58314 -1.68603 0
M  V30 12516 H 1148.63 -4.49268 1.02445 0
M  V30 12517 H 1146.94 -4.09203 0.770839 0
M  V30 12518 H 1149.54 -5.01581 -1.85258 0
M  V30 12519 H 1149.88 -3.39588 -2.40802 0
M  V30 12520 H 1150.41 -3.89965 -0.785652 0
M  V30 12521 H 1147.15 -6.5208 0.668714 0
M  V30 12522 H 1146.67 -5.92441 -0.936675 0
M  V30 12523 H 1148.35 -6.43844 -0.638237 0
M  V30 12524 N 1148.48 0.103547 -1.57259 0
M  V30 12525 C 1149.89 0.659006 -1.74683 0
M  V30 12526 C 1150.25 1.79542 -0.791142 0
M  V30 12527 O 1149.37 2.16376 0.0323585 0
M  V30 12528 C 1149.97 1.20222 -3.16752 0
M  V30 12529 C 1148.52 1.70382 -3.35629 0
M  V30 12530 C 1147.67 0.609886 -2.7051 0
M  V30 12531 H 1150.62 -0.122474 -1.58227 0
M  V30 12532 H 1150.64 2.07169 -3.19157 0
M  V30 12533 H 1150.16 0.374901 -3.86285 0
M  V30 12534 H 1148.26 2.55542 -2.71162 0
M  V30 12535 H 1148.37 1.80263 -4.43894 0
M  V30 12536 H 1146.73 1.04728 -2.32173 0
M  V30 12537 H 1147.52 -0.206713 -3.42677 0
M  V30 12538 N 1149.96 1.53094 0.37415 0
M  V30 12539 C 1151.19 1.72758 1.13852 0
M  V30 12540 C 1151.6 0.452638 1.83294 0
M  V30 12541 O 1150.96 -0.573906 1.73241 0
M  V30 12542 C 1151.01 2.88724 2.17534 0
M  V30 12543 O 1150.73 4.11284 1.5092 0
M  V30 12544 C 1152.23 3.2019 3.06584 0
M  V30 12545 H 1149.45 0.578028 0.340771 0
M  V30 12546 H 1152 1.99805 0.435683 0
M  V30 12547 H 1150.15 2.64096 2.83429 0
M  V30 12548 H 1150.57 4.76162 2.19932 0
M  V30 12549 H 1152.04 4.04759 3.75332 0
M  V30 12550 H 1152.52 2.35193 3.70919 0
M  V30 12551 H 1153.12 3.46712 2.46315 0
M  V30 12552 N 1151.44 -0.633461 1.44309 0
M  V30 12553 C 1152.72 -1.3917 1.37444 0
M  V30 12554 C 1153.1 -2.11076 0.0319994 0
M  V30 12555 O 1152.44 -2.06164 -0.98533 0
M  V30 12556 C 1152.65 -2.36005 2.57104 0
M  V30 12557 C 1154 -2.99407 3.01065 0
M  V30 12558 O 1155.03 -2.46331 2.57292 0
M  V30 12559 O 1153.89 -3.95686 3.76954 0
M  V30 12560 H 1150.98 -0.622746 0.544166 0
M  V30 12561 H 1153.53 -0.658712 1.56394 0
M  V30 12562 H 1152.3 -1.81955 3.46422 0
M  V30 12563 H 1151.92 -3.16725 2.40356 0
M  V30 12564 N 1152.92 -1.31168 -0.873655 0
M  V30 12565 C 1154.16 -1.20821 -1.62881 0
M  V30 12566 C 1154.5 0.233994 -1.92785 0
M  V30 12567 O 1153.77 1.16588 -1.55684 0
M  V30 12568 C 1154.06 -2.04875 -2.96139 0
M  V30 12569 C 1153.91 -3.57375 -2.73136 0
M  V30 12570 C 1155.23 -1.8953 -3.97198 0
M  V30 12571 H 1152.35 -0.44026 -0.59105 0
M  V30 12572 H 1154.99 -1.6092 -1.01019 0
M  V30 12573 H 1153.14 -1.70806 -3.48938 0
M  V30 12574 H 1154.81 -4.01561 -2.27038 0
M  V30 12575 H 1153.05 -3.8099 -2.07434 0
M  V30 12576 H 1153.72 -4.1149 -3.6794 0
M  V30 12577 H 1156.2 -2.19337 -3.53596 0
M  V30 12578 H 1155.08 -2.5065 -4.8833 0
M  V30 12579 H 1155.34 -0.857576 -4.33703 0
M  V30 12580 N 1154.4 1.08748 -1.14068 0
M  V30 12581 C 1155.34 2.15573 -0.824425 0
M  V30 12582 C 1156.31 1.64683 0.216522 0
M  V30 12583 O 1157.5 1.90601 0.0872193 0
M  V30 12584 C 1154.64 3.43756 -0.30423 0
M  V30 12585 C 1153.75 4.08512 -1.40506 0
M  V30 12586 C 1152.89 5.24477 -0.842479 0
M  V30 12587 C 1151.93 5.81167 -1.92123 0
M  V30 12588 N 1151.06 6.88483 -1.37608 0
M  V30 12589 H 1155.9 2.41968 -1.73941 0
M  V30 12590 H 1153.44 1.18751 -0.868143 0
M  V30 12591 H 1155.4 4.17197 0.0155546 0
M  V30 12592 H 1154.03 3.17658 0.573868 0
M  V30 12593 H 1153.08 3.32866 -1.84131 0
M  V30 12594 H 1154.39 4.46669 -2.2201 0
M  V30 12595 H 1153.55 6.04842 -0.474389 0
M  V30 12596 H 1152.28 4.877 0.00355212 0
M  V30 12597 H 1151.29 4.99458 -2.29831 0
M  V30 12598 H 1152.51 6.20003 -2.77079 0
M  V30 12599 H 1150.46 6.53672 -0.552168 0
M  V30 12600 H 1150.38 7.25446 -2.12752 0
M  V30 12601 H 1151.65 7.72588 -1.03578 0
M  V30 12602 N 1155.87 0.935264 1.26849 0
M  V30 12603 C 1157.12 0.575467 1.93317 0
M  V30 12604 C 1157.44 -0.88876 1.74242 0
M  V30 12605 O 1158.64 -1.35767 2.35116 0
M  V30 12606 C 1157.1 0.978433 3.46345 0
M  V30 12607 C 1156.71 2.46386 3.74163 0
M  V30 12608 C 1158.45 0.690249 4.18851 0
M  V30 12609 C 1156.36 2.80584 5.20602 0
M  V30 12610 H 1155.29 0.211506 0.723727 0
M  V30 12611 H 1157.94 1.1371 1.44022 0
M  V30 12612 H 1156.32 0.345379 3.94491 0
M  V30 12613 H 1157.49 3.14547 3.36745 0
M  V30 12614 H 1155.81 2.72473 3.14877 0
M  V30 12615 H 1158.41 0.922151 5.26688 0
M  V30 12616 H 1158.75 -0.372805 4.14627 0
M  V30 12617 H 1159.28 1.28275 3.76551 0
M  V30 12618 H 1156.02 3.85828 5.29921 0
M  V30 12619 H 1155.54 2.1708 5.59139 0
M  V30 12620 H 1157.22 2.68732 5.88551 0
M  V30 12621 N 1157.35 -1.41121 0.701616 0
M  V30 12622 C 1158.28 -2.292 0.000880842 0
M  V30 12623 C 1159.3 -1.45102 -0.738192 0
M  V30 12624 O 1160.49 -1.68541 -0.587891 0
M  V30 12625 C 1157.59 -3.23094 -1.02292 0
M  V30 12626 C 1156.76 -4.35979 -0.352231 0
M  V30 12627 C 1155.82 -5.10408 -1.27947 0
M  V30 12628 O 1154.84 -5.63974 -0.769561 0
M  V30 12629 N 1156.05 -5.18442 -2.61147 0
M  V30 12630 H 1158.81 -2.8998 0.757094 0
M  V30 12631 H 1156.37 -1.52339 0.548126 0
M  V30 12632 H 1158.36 -3.69755 -1.64509 0
M  V30 12633 H 1156.93 -2.6358 -1.68061 0
M  V30 12634 H 1156.15 -3.91624 0.44992 0
M  V30 12635 H 1157.44 -5.08673 0.113882 0
M  V30 12636 H 1156.84 -4.76381 -3.05087 0
M  V30 12637 H 1155.4 -5.68659 -3.18544 0
M  V30 12638 N 1158.83 -0.446794 -1.51134 0
M  V30 12639 C 1160.08 0.116666 -2.02464 0
M  V30 12640 C 1160.41 1.41532 -1.32975 0
M  V30 12641 O 1159.68 1.89278 -0.447651 0
M  V30 12642 C 1159.97 0.325659 -3.58624 0
M  V30 12643 C 1159.82 -0.992307 -4.38718 0
M  V30 12644 C 1161.14 1.09121 -4.26357 0
M  V30 12645 H 1158.26 0.0409262 -0.735863 0
M  V30 12646 H 1160.9 -0.587641 -1.80684 0
M  V30 12647 H 1159.05 0.925585 -3.77313 0
M  V30 12648 H 1160.72 -1.62694 -4.31658 0
M  V30 12649 H 1158.97 -1.5947 -4.03425 0
M  V30 12650 H 1159.64 -0.800005 -5.46172 0
M  V30 12651 H 1162.11 0.582944 -4.11996 0
M  V30 12652 H 1160.99 1.20621 -5.35483 0
M  V30 12653 H 1161.25 2.12171 -3.87861 0
M  V30 12654 N 1160.31 1.56586 -0.178487 0
M  V30 12655 C 1161.72 1.83633 0.337009 0
M  V30 12656 C 1162.07 1.09857 1.6256 0
M  V30 12657 O 1161.2 0.353933 2.13486 0
M  V30 12658 C 1161.79 3.33112 0.618225 0
M  V30 12659 C 1160.35 3.60629 1.07814 0
M  V30 12660 C 1159.5 2.7705 0.117825 0
M  V30 12661 H 1162.45 1.53508 -0.402612 0
M  V30 12662 H 1162.47 3.5098 1.46947 0
M  V30 12663 H 1161.98 3.8678 -0.319808 0
M  V30 12664 H 1160.08 3.12378 2.03103 0
M  V30 12665 H 1160.19 4.68921 0.982339 0
M  V30 12666 H 1158.56 2.47125 0.616563 0
M  V30 12667 H 1159.34 3.33501 -0.814356 0
M  V30 12668 N 1161.79 -0.095206 1.57312 0
M  V30 12669 C 1163.2 -0.649733 1.7503 0
M  V30 12670 C 1163.55 -1.7912 0.800652 0
M  V30 12671 O 1162.67 -2.1639 -0.0208831 0
M  V30 12672 C 1163.27 -1.18541 3.17386 0
M  V30 12673 C 1161.83 -1.686 3.36528 0
M  V30 12674 C 1160.97 -0.595531 2.7083 0
M  V30 12675 H 1163.93 0.130863 1.5816 0
M  V30 12676 H 1163.95 -2.05473 3.20252 0
M  V30 12677 H 1163.46 -0.35441 3.86478 0
M  V30 12678 H 1161.56 -2.541 2.72514 0
M  V30 12679 H 1161.67 -1.77907 4.44844 0
M  V30 12680 H 1160.04 -1.03495 2.32725 0
M  V30 12681 H 1160.82 0.224883 3.42563 0
M  V30 12682 N 1163.26 -1.53291 -0.366026 0
M  V30 12683 C 1164.21 -1.80367 -1.4687 0
M  V30 12684 C 1165.21 -0.672767 -1.55468 0
M  V30 12685 O 1166.41 -0.8557 -1.5836 0
M  V30 12686 H 1162.79 -0.571076 -0.48926 0
M  V30 12687 H 1164.76 -2.72661 -1.21237 0
M  V30 12688 C 1163.51 -2.01008 -2.8371 0
M  V30 12689 H 1162.83 -2.87468 -2.77853 0
M  V30 12690 H 1164.27 -2.2393 -3.60043 0
M  V30 12691 C 1162.73 -0.789054 -3.27529 0
M  V30 12692 O 1163.26 0.0224712 -4.01694 0
M  V30 12693 N 1161.47 -0.612621 -2.84069 0
M  V30 12694 H 1161.01 -1.27416 -2.23881 0
M  V30 12695 H 1160.97 0.202943 -3.13744 0
M  V30 12696 N 1164.74 0.6258 -1.44643 0
M  V30 12697 C 1165.97 1.41726 -1.51422 0
M  V30 12698 C 1166.39 1.87565 -0.14181 0
M  V30 12699 O 1165.75 1.59059 0.870054 0
M  V30 12700 C 1165.8 2.61012 -2.48807 0
M  V30 12701 O 1164.9 3.61029 -1.99328 0
M  V30 12702 H 1164.24 0.423855 -0.511119 0
M  V30 12703 H 1166.77 0.763336 -1.89827 0
M  V30 12704 H 1166.78 3.08489 -2.67018 0
M  V30 12705 H 1165.46 2.26995 -3.48491 0
M  V30 12706 H 1164.04 3.20325 -1.90909 0
M  V30 12707 N 1166.22 1.31629 0.866686 0
M  V30 12708 C 1167.47 1.21503 1.61998 0
M  V30 12709 C 1167.8 -0.226044 1.93182 0
M  V30 12710 O 1167.05 -1.17573 1.56445 0
M  V30 12711 C 1167.35 2.00775 2.95676 0
M  V30 12712 C 1167.02 3.50245 2.83971 0
M  V30 12713 C 1165.68 3.91 2.80485 0
M  V30 12714 C 1168.03 4.45347 2.70769 0
M  V30 12715 C 1165.36 5.25119 2.61661 0
M  V30 12716 C 1167.71 5.79595 2.53481 0
M  V30 12717 C 1166.37 6.19567 2.48381 0
M  V30 12718 H 1165.64 0.44461 0.592792 0
M  V30 12719 H 1168.29 1.62929 1.00629 0
M  V30 12720 H 1166.6 1.52039 3.61097 0
M  V30 12721 H 1168.29 1.90318 3.52959 0
M  V30 12722 H 1164.88 3.17869 2.87502 0
M  V30 12723 H 1169.07 4.14789 2.72514 0
M  V30 12724 H 1164.32 5.5516 2.5614 0
M  V30 12725 H 1168.5 6.5291 2.42243 0
M  V30 12726 H 1166.12 7.23434 2.33554 0
M  V30 12727 N 1167.7 -1.08142 1.14644 0
M  V30 12728 C 1168.95 -1.80225 0.914517 0
M  V30 12729 C 1169.27 -1.86778 -0.560269 0
M  V30 12730 O 1168.54 -1.36284 -1.40724 0
M  V30 12731 H 1167.12 -0.667492 0.335356 0
M  V30 12732 H 1169.78 -1.30729 1.44554 0
M  V30 12733 H 1168.88 -2.82958 1.31685 0
M  V30 12734 N 1169.18 -0.941978 -1.26351 0
M  V30 12735 C 1170.42 -0.600372 -1.94338 0
M  V30 12736 C 1170.78 0.851343 -1.7254 0
M  V30 12737 O 1170.07 1.60116 -1.0523 0
M  V30 12738 C 1170.27 -0.879481 -3.4641 0
M  V30 12739 C 1170.09 -2.35678 -3.82996 0
M  V30 12740 C 1168.86 -3.01208 -4.05712 0
M  V30 12741 C 1171.06 -3.33531 -3.91486 0
M  V30 12742 N 1169.04 -4.38942 -4.29189 0
M  V30 12743 C 1170.42 -4.56525 -4.19506 0
M  V30 12744 C 1172.47 -3.28544 -3.74117 0
M  V30 12745 C 1171.17 -5.75153 -4.31962 0
M  V30 12746 C 1173.2 -4.46498 -3.87806 0
M  V30 12747 C 1172.56 -5.68275 -4.16225 0
M  V30 12748 H 1168.66 -0.270078 -0.733881 0
M  V30 12749 H 1171.24 -1.21155 -1.52413 0
M  V30 12750 H 1169.42 -0.297345 -3.8726 0
M  V30 12751 H 1171.15 -0.499062 -4.01611 0
M  V30 12752 H 1167.9 -2.51823 -4.01101 0
M  V30 12753 H 1168.33 -5.10236 -4.44959 0
M  V30 12754 H 1172.97 -2.35451 -3.51173 0
M  V30 12755 H 1170.69 -6.68699 -4.53727 0
M  V30 12756 H 1174.27 -4.44173 -3.75768 0
M  V30 12757 H 1173.15 -6.58024 -4.26584 0
M  V30 12758 N 1170.66 1.40747 -0.709091 0
M  V30 12759 C 1171.9 2.013 -0.246174 0
M  V30 12760 C 1172.23 1.56078 1.15556 0
M  V30 12761 O 1171.51 0.777941 1.78265 0
M  V30 12762 C 1171.79 3.58685 -0.318945 0
M  V30 12763 C 1171.65 4.13997 -1.75859 0
M  V30 12764 C 1172.96 4.38981 0.31358 0
M  V30 12765 H 1170.08 0.73137 -0.0909255 0
M  V30 12766 H 1172.73 1.67312 -0.900365 0
M  V30 12767 H 1170.88 3.8777 0.23805 0
M  V30 12768 H 1172.55 3.95735 -2.37047 0
M  V30 12769 H 1170.79 3.6853 -2.28841 0
M  V30 12770 H 1171.46 5.23158 -1.76095 0
M  V30 12771 H 1173.94 4.15789 -0.160939 0
M  V30 12772 H 1172.81 5.48409 0.232184 0
M  V30 12773 H 1173.07 4.19474 1.39621 0
M  V30 12774 N 1172.13 0.454803 1.50895 0
M  V30 12775 C 1173.36 -0.103936 2.06639 0
M  V30 12776 C 1173.78 -1.34943 1.32044 0
M  V30 12777 O 1173.13 -1.78393 0.384972 0
M  V30 12778 C 1173.18 -0.408546 3.59184 0
M  V30 12779 O 1172.91 0.787535 4.30963 0
M  V30 12780 C 1174.41 -1.01605 4.31499 0
M  V30 12781 H 1171.63 -0.000171839 0.671 0
M  V30 12782 H 1174.17 0.638907 1.94263 0
M  V30 12783 H 1172.33 -1.1013 3.71416 0
M  V30 12784 H 1172.74 0.52229 5.21893 0
M  V30 12785 H 1174.21 -1.17906 5.39261 0
M  V30 12786 H 1174.69 -2.00182 3.90927 0
M  V30 12787 H 1175.3 -0.362155 4.23755 0
M  V30 12788 N 1173.61 -1.56489 0.186789 0
M  V30 12789 C 1174.86 -1.96952 -0.453261 0
M  V30 12790 C 1175.18 -1.07451 -1.62725 0
M  V30 12791 O 1174.45 -0.144046 -1.9537 0
M  V30 12792 H 1173.03 -0.727295 -0.170445 0
M  V30 12793 H 1175.69 -1.92999 0.271584 0
M  V30 12794 H 1174.79 -3.01594 -0.802951 0
M  V30 12795 N 1175.09 0.086862 -1.5736 0
M  V30 12796 C 1176.04 1.10478 -2.02641 0
M  V30 12797 C 1177.01 1.39331 -0.904219 0
M  V30 12798 O 1178.19 1.50654 -1.17081 0
M  V30 12799 C 1175.33 2.41754 -2.4627 0
M  V30 12800 C 1174.44 2.19561 -3.72044 0
M  V30 12801 C 1173.58 3.44294 -4.04519 0
M  V30 12802 C 1172.62 3.17399 -5.23378 0
M  V30 12803 N 1171.76 4.3442 -5.51564 0
M  V30 12804 H 1176.6 0.711663 -2.89378 0
M  V30 12805 H 1174.13 0.339856 -1.4312 0
M  V30 12806 H 1176.09 3.18378 -2.69613 0
M  V30 12807 H 1174.72 2.78896 -1.62532 0
M  V30 12808 H 1173.77 1.337 -3.5613 0
M  V30 12809 H 1175.08 1.95685 -4.58812 0
M  V30 12810 H 1174.24 4.29321 -4.28682 0
M  V30 12811 H 1172.98 3.71232 -3.16289 0
M  V30 12812 H 1171.98 2.30765 -4.99026 0
M  V30 12813 H 1173.21 2.91799 -6.13213 0
M  V30 12814 H 1171.15 4.61418 -4.66293 0
M  V30 12815 H 1171.07 4.13764 -6.3272 0
M  V30 12816 H 1172.34 5.20489 -5.80269 0
M  V30 12817 N 1176.57 1.53483 0.357892 0
M  V30 12818 C 1177.79 1.74264 1.12458 0
M  V30 12819 C 1178.22 0.473944 1.82031 0
M  V30 12820 O 1177.58 -0.57253 1.72023 0
M  V30 12821 C 1177.62 2.91356 2.12471 0
M  V30 12822 O 1176.73 2.60502 3.19707 0
M  V30 12823 H 1176.07 0.578499 0.325937 0
M  V30 12824 H 1178.6 2.00395 0.412666 0
M  V30 12825 H 1178.61 3.1774 2.5594 0
M  V30 12826 H 1177.28 3.83378 1.61226 0
M  V30 12827 H 1175.86 2.44961 2.81156 0
M  V30 12828 N 1178.05 -0.61812 1.44973 0
M  V30 12829 C 1179.27 -1.40921 1.52171 0
M  V30 12830 C 1179.7 -1.87487 0.151755 0
M  V30 12831 O 1179.05 -1.59518 -0.861606 0
M  V30 12832 C 1179.1 -2.59689 2.50188 0
M  V30 12833 O 1178.21 -3.59967 2.0124 0
M  V30 12834 H 1177.55 -0.421138 0.51336 0
M  V30 12835 H 1180.08 -0.753258 1.90229 0
M  V30 12836 H 1180.09 -3.07069 2.6865 0
M  V30 12837 H 1178.76 -2.25144 3.4969 0
M  V30 12838 H 1177.34 -3.19308 1.92605 0
M  V30 12839 N 1179.52 -1.32087 -0.859693 0
M  V30 12840 C 1180.46 -1.14934 -1.97143 0
M  V30 12841 C 1181.43 -0.0501084 -1.62523 0
M  V30 12842 O 1182.62 -0.208472 -1.87344 0
M  V30 12843 C 1179.75 -0.758374 -3.30101 0
M  V30 12844 C 1178.79 -1.86212 -3.83702 0
M  V30 12845 S 1179.62 -3.46949 -4.07905 0
M  V30 12846 C 1180.78 -3.09813 -5.43844 0
M  V30 12847 H 1181.01 -2.09047 -2.11392 0
M  V30 12848 H 1178.55 -1.1669 -1.01108 0
M  V30 12849 H 1180.5 -0.539563 -4.06939 0
M  V30 12850 H 1179.17 0.163817 -3.13673 0
M  V30 12851 H 1178.36 -1.54144 -4.7985 0
M  V30 12852 H 1177.96 -2.03652 -3.13691 0
M  V30 12853 H 1180.25 -2.59345 -6.25897 0
M  V30 12854 H 1181.2 -4.04963 -5.8087 0
M  V30 12855 H 1181.6 -2.46971 -5.07607 0
M  V30 12856 N 1181 1.07532 -1.15215 0
M  V30 12857 C 1181.96 2.1286 -0.84989 0
M  V30 12858 C 1182.96 1.60103 0.149524 0
M  V30 12859 O 1184.15 1.74017 -0.0798918 0
M  V30 12860 C 1181.29 3.3984 -0.268617 0
M  V30 12861 H 1182.48 2.41106 -1.78347 0
M  V30 12862 H 1180.03 1.23392 -0.959386 0
M  V30 12863 H 1180.77 3.17235 0.67325 0
M  V30 12864 H 1180.55 3.79433 -0.988592 0
M  V30 12865 H 1182.04 4.17533 -0.0746554 0
M  V30 12866 N 1182.48 0.948665 1.2585 0
M  V30 12867 C 1183.43 0.462904 2.2611 0
M  V30 12868 C 1184.4 -0.481433 1.5897 0
M  V30 12869 O 1185.58 -0.395997 1.86645 0
M  V30 12870 C 1182.72 -0.258808 3.44128 0
M  V30 12871 C 1181.84 0.722072 4.25923 0
M  V30 12872 C 1180.97 -0.0215958 5.31196 0
M  V30 12873 C 1180.01 0.950612 6.04673 0
M  V30 12874 N 1179.15 0.238209 7.01696 0
M  V30 12875 H 1183.99 1.32279 2.67032 0
M  V30 12876 H 1181.52 0.663485 1.31287 0
M  V30 12877 H 1183.48 -0.693759 4.11391 0
M  V30 12878 H 1182.11 -1.08278 3.04098 0
M  V30 12879 H 1181.16 1.27552 3.58378 0
M  V30 12880 H 1182.48 1.46421 4.76825 0
M  V30 12881 H 1181.63 -0.51547 6.04506 0
M  V30 12882 H 1180.37 -0.796563 4.81151 0
M  V30 12883 H 1179.37 1.45554 5.30183 0
M  V30 12884 H 1180.6 1.72571 6.56808 0
M  V30 12885 H 1178.54 -0.518129 6.53951 0
M  V30 12886 H 1178.46 0.919542 7.50387 0
M  V30 12887 H 1179.73 -0.234325 7.79148 0
M  V30 12888 N 1183.96 -1.40369 0.716545 0
M  V30 12889 C 1184.89 -2.29186 0.0251905 0
M  V30 12890 C 1185.9 -1.45877 -0.722761 0
M  V30 12891 O 1187.09 -1.69155 -0.569982 0
M  V30 12892 C 1184.19 -3.24161 -0.988589 0
M  V30 12893 C 1183.37 -4.36329 -0.30597 0
M  V30 12894 C 1182.42 -5.11736 -1.22527 0
M  V30 12895 O 1181.45 -5.64758 -0.7097 0
M  V30 12896 N 1182.65 -5.21183 -2.55634 0
M  V30 12897 H 1185.42 -2.8916 0.787808 0
M  V30 12898 H 1182.98 -1.51749 0.564253 0
M  V30 12899 H 1184.97 -3.71479 -1.60578 0
M  V30 12900 H 1183.54 -2.65347 -1.65256 0
M  V30 12901 H 1182.76 -3.91125 0.491432 0
M  V30 12902 H 1184.05 -5.08523 0.167827 0
M  V30 12903 H 1183.45 -4.7959 -3.00017 0
M  V30 12904 H 1182 -5.72005 -3.12495 0
M  V30 12905 N 1185.44 -0.462799 -1.50652 0
M  V30 12906 C 1186.68 0.0948568 -2.01877 0
M  V30 12907 C 1187.01 1.4096 -1.34741 0
M  V30 12908 O 1186.28 1.89671 -0.49006 0
M  V30 12909 H 1184.86 0.0380453 -0.746031 0
M  V30 12910 H 1187.52 -0.611327 -1.85064 0
M  V30 12911 H 1186.61 0.252378 -3.11078 0
M  V30 12912 N 1186.91 1.56388 -0.195085 0
M  V30 12913 C 1187.84 2.22091 0.720971 0
M  V30 12914 C 1188.83 1.184 1.22128 0
M  V30 12915 O 1190.01 1.46907 1.27012 0
M  V30 12916 C 1187.14 2.88025 1.94059 0
M  V30 12917 C 1186.09 3.97959 1.5752 0
M  V30 12918 C 1185.42 4.51058 2.87143 0
M  V30 12919 C 1186.72 5.16365 0.785145 0
M  V30 12920 H 1188.41 2.98898 0.173245 0
M  V30 12921 H 1185.96 1.43767 0.0818868 0
M  V30 12922 H 1187.91 3.32671 2.58666 0
M  V30 12923 H 1186.64 2.08623 2.51285 0
M  V30 12924 H 1185.3 3.54004 0.952715 0
M  V30 12925 H 1184.94 3.68418 3.42458 0
M  V30 12926 H 1184.64 5.25237 2.63439 0
M  V30 12927 H 1186.17 4.98406 3.52738 0
M  V30 12928 H 1187.58 5.57556 1.33431 0
M  V30 12929 H 1185.98 5.9661 0.646231 0
M  V30 12930 H 1187.05 4.84428 -0.213789 0
M  V30 12931 N 1188.39 -0.0785156 1.57404 0
M  V30 12932 C 1189.32 -1.09446 2.06262 0
M  V30 12933 C 1190.3 -1.40777 0.954772 0
M  V30 12934 O 1191.49 -1.5052 1.22708 0
M  V30 12935 C 1188.62 -2.40979 2.50093 0
M  V30 12936 C 1187.57 -2.24017 3.64692 0
M  V30 12937 C 1186.9 -3.60873 3.94556 0
M  V30 12938 C 1188.2 -1.66696 4.94985 0
M  V30 12939 H 1189.89 -0.687928 2.9139 0
M  V30 12940 H 1187.44 -0.329466 1.4018 0
M  V30 12941 H 1189.39 -3.12337 2.82884 0
M  V30 12942 H 1188.12 -2.83599 1.61985 0
M  V30 12943 H 1186.77 -1.55101 3.32174 0
M  V30 12944 H 1186.42 -4.01051 3.0359 0
M  V30 12945 H 1186.12 -3.50365 4.71718 0
M  V30 12946 H 1187.65 -4.33673 4.29837 0
M  V30 12947 H 1189.06 -2.27913 5.2605 0
M  V30 12948 H 1187.46 -1.66902 5.76423 0
M  V30 12949 H 1188.53 -0.627827 4.80818 0
M  V30 12950 N 1189.87 -1.5367 -0.349747 0
M  V30 12951 C 1191.12 -1.69835 -1.08807 0
M  V30 12952 C 1191.43 -0.46497 -1.89993 0
M  V30 12953 O 1192.64 -0.507452 -2.66716 0
M  V30 12954 C 1191.09 -3.00294 -1.98372 0
M  V30 12955 C 1190.7 -4.30949 -1.22422 0
M  V30 12956 C 1192.45 -3.25826 -2.72099 0
M  V30 12957 C 1190.35 -5.52486 -2.1098 0
M  V30 12958 H 1189.28 -0.63284 -0.409915 0
M  V30 12959 H 1191.93 -1.80171 -0.347968 0
M  V30 12960 H 1190.32 -2.838 -2.76176 0
M  V30 12961 H 1191.49 -4.58126 -0.495707 0
M  V30 12962 H 1189.81 -4.11983 -0.604896 0
M  V30 12963 H 1192.4 -4.13817 -3.38615 0
M  V30 12964 H 1192.75 -2.42566 -3.3833 0
M  V30 12965 H 1193.28 -3.43067 -2.0137 0
M  V30 12966 H 1190.02 -6.38271 -1.49301 0
M  V30 12967 H 1189.54 -5.29566 -2.81638 0
M  V30 12968 H 1191.22 -5.87889 -2.70176 0
M  V30 12969 N 1191.35 0.610423 -1.45298 0
M  V30 12970 C 1192.3 1.74245 -1.54083 0
M  V30 12971 C 1193.29 1.64338 -0.411003 0
M  V30 12972 O 1194.5 1.70167 -0.586799 0
M  V30 12973 H 1190.87 0.575612 -0.483916 0
M  V30 12974 H 1192.84 1.63961 -2.49318 0
M  V30 12975 C 1191.59 3.1262 -1.52198 0
M  V30 12976 H 1190.91 3.209 -2.3846 0
M  V30 12977 H 1192.35 3.91665 -1.62403 0
M  V30 12978 C 1190.81 3.36001 -0.24595 0
M  V30 12979 O 1191.34 3.95982 0.675374 0
M  V30 12980 N 1189.55 2.9025 -0.142537 0
M  V30 12981 H 1189.1 2.41621 -0.893143 0
M  V30 12982 H 1189.05 3.06268 0.710427 0
M  V30 12983 N 1192.83 1.32541 0.852676 0
M  V30 12984 C 1194.07 1.22971 1.60383 0
M  V30 12985 C 1194.4 -0.208009 1.93887 0
M  V30 12986 O 1193.67 -1.13326 1.59794 0
M  V30 12987 H 1192.25 0.452149 0.594618 0
M  V30 12988 H 1194.91 1.66089 1.01983 0
M  V30 12989 H 1194 1.81373 2.53989 0
M  V30 12990 N 1194.3 -1.0692 1.15784 0
M  V30 12991 C 1195.55 -1.79245 0.933581 0
M  V30 12992 C 1195.87 -1.87362 -0.540427 0
M  V30 12993 O 1195.14 -1.37769 -1.39271 0
M  V30 12994 H 1193.72 -0.663898 0.342416 0
M  V30 12995 H 1196.39 -1.29189 1.45932 0
M  V30 12996 H 1195.48 -2.81546 1.34679 0
M  V30 12997 N 1195.78 -0.955326 -1.25345 0
M  V30 12998 C 1197.03 -0.606149 -1.92377 0
M  V30 12999 C 1197.34 0.860927 -1.75634 0
M  V30 13000 O 1198.55 1.3201 -2.37246 0
M  V30 13001 C 1197.01 -1.03341 -3.44744 0
M  V30 13002 C 1196.61 -2.52308 -3.70196 0
M  V30 13003 C 1198.36 -0.756797 -4.17699 0
M  V30 13004 C 1196.27 -2.88831 -5.16072 0
M  V30 13005 H 1195.2 -0.222994 -0.720271 0
M  V30 13006 H 1197.85 -1.15987 -1.42194 0
M  V30 13007 H 1196.23 -0.408096 -3.93892 0
M  V30 13008 H 1197.4 -3.19864 -3.31698 0
M  V30 13009 H 1195.72 -2.77448 -3.10502 0
M  V30 13010 H 1198.31 -1.00583 -5.25154 0
M  V30 13011 H 1198.66 0.306794 -4.15168 0
M  V30 13012 H 1199.19 -1.34249 -3.74462 0
M  V30 13013 H 1195.93 -3.9421 -5.23716 0
M  V30 13014 H 1195.45 -2.25948 -5.55614 0
M  V30 13015 H 1197.13 -2.78061 -5.84201 0
M  V30 13016 N 1197.26 1.39987 -0.723979 0
M  V30 13017 C 1198.51 1.99964 -0.26406 0
M  V30 13018 C 1198.82 1.58084 1.1519 0
M  V30 13019 O 1200.03 2.10819 1.71077 0
M  V30 13020 C 1198.49 3.57427 -0.421174 0
M  V30 13021 C 1198.09 4.08276 -1.84432 0
M  V30 13022 C 1199.84 4.24494 -0.0224734 0
M  V30 13023 C 1197.74 5.58272 -1.95157 0
M  V30 13024 H 1196.67 0.747995 -0.0949728 0
M  V30 13025 H 1199.33 1.60122 -0.896276 0
M  V30 13026 H 1197.71 3.95011 0.279762 0
M  V30 13027 H 1198.88 3.82051 -2.57631 0
M  V30 13028 H 1197.2 3.53834 -2.19523 0
M  V30 13029 H 1199.79 5.34637 -0.0817744 0
M  V30 13030 H 1200.14 4.03593 1.02069 0
M  V30 13031 H 1200.67 3.92046 -0.67416 0
M  V30 13032 H 1197.41 5.84038 -2.97623 0
M  V30 13033 H 1196.93 5.86335 -1.2638 0
M  V30 13034 H 1198.61 6.23509 -1.72759 0
M  V30 13035 N 1198.74 0.470782 1.50404 0
M  V30 13036 C 1200.02 -0.145879 1.95055 0
M  V30 13037 C 1200.4 -1.57004 1.41114 0
M  V30 13038 O 1199.74 -2.20152 0.612006 0
M  V30 13039 C 1199.95 -0.0895071 3.48885 0
M  V30 13040 C 1201.3 -0.278548 4.23685 0
M  V30 13041 O 1202.33 -0.166105 3.55812 0
M  V30 13042 O 1201.19 -0.505606 5.44156 0
M  V30 13043 H 1198.28 -0.111838 0.819403 0
M  V30 13044 H 1200.83 0.531162 1.61173 0
M  V30 13045 H 1199.6 0.904836 3.80695 0
M  V30 13046 H 1199.22 -0.808019 3.89303 0
M  V30 13047 N 1200.22 -1.56282 0.203376 0
M  V30 13048 C 1201.13 -2.23086 -0.725922 0
M  V30 13049 C 1202.14 -1.23258 -1.22814 0
M  V30 13050 O 1203.32 -1.5602 -1.27357 0
M  V30 13051 C 1200.38 -2.88358 -1.92485 0
M  V30 13052 C 1199.45 -4.03479 -1.46639 0
M  V30 13053 C 1198.68 -4.65629 -2.60816 0
M  V30 13054 O 1198.9 -4.2672 -3.78506 0
M  V30 13055 O 1197.84 -5.54949 -2.33056 0
M  V30 13056 H 1201.66 -3.03124 -0.18694 0
M  V30 13057 H 1199.25 -1.49377 -0.0262829 0
M  V30 13058 H 1201.13 -3.29623 -2.62539 0
M  V30 13059 H 1199.8 -2.11294 -2.45228 0
M  V30 13060 H 1198.71 -3.66821 -0.734396 0
M  V30 13061 H 1200.04 -4.82232 -0.985535 0
M  V30 13062 N 1201.7 0.070167 -1.57444 0
M  V30 13063 C 1202.94 0.767495 -1.8696 0
M  V30 13064 C 1203.26 1.78032 -0.795595 0
M  V30 13065 O 1202.53 1.95112 0.175566 0
M  V30 13066 H 1201.11 0.286443 -0.689898 0
M  V30 13067 H 1203.78 0.0458692 -1.94846 0
M  V30 13068 H 1202.87 1.28269 -2.84523 0
M  V30 13069 N 1203.17 1.53854 0.341593 0
M  V30 13070 C 1204.4 1.7488 1.10002 0
M  V30 13071 C 1204.81 0.488802 1.82777 0
M  V30 13072 O 1204.15 -0.549333 1.75294 0
M  V30 13073 C 1204.22 2.87604 2.15694 0
M  V30 13074 C 1203.88 4.27142 1.62477 0
M  V30 13075 C 1204.88 5.08642 1.07606 0
M  V30 13076 C 1202.56 4.73633 1.67265 0
M  V30 13077 C 1204.56 6.34735 0.582284 0
M  V30 13078 C 1202.24 5.99697 1.175 0
M  V30 13079 C 1203.24 6.80081 0.630742 0
M  V30 13080 O 1202.93 8.03777 0.140519 0
M  V30 13081 H 1202.66 0.587824 0.333824 0
M  V30 13082 H 1205.22 2.01488 0.398965 0
M  V30 13083 H 1203.45 2.56526 2.89364 0
M  V30 13084 H 1205.13 2.96583 2.77117 0
M  V30 13085 H 1205.9 4.73887 1.03227 0
M  V30 13086 H 1201.78 4.11121 2.08567 0
M  V30 13087 H 1205.32 6.97424 0.156811 0
M  V30 13088 H 1201.22 6.33947 1.21579 0
M  V30 13089 H 1201.99 8.18094 0.257626 0
M  V30 13090 N 1204.65 -0.602709 1.4562 0
M  V30 13091 C 1205.88 -1.3881 1.53426 0
M  V30 13092 C 1206.29 -1.88046 0.16851 0
M  V30 13093 O 1205.65 -1.62493 -0.830791 0
M  V30 13094 C 1205.7 -2.58927 2.52268 0
M  V30 13095 O 1205.42 -2.11735 3.83536 0
M  V30 13096 C 1206.92 -3.51728 2.69819 0
M  V30 13097 H 1204.14 -0.424744 0.519455 0
M  V30 13098 H 1206.69 -0.73459 1.90851 0
M  V30 13099 H 1204.84 -3.20309 2.17902 0
M  V30 13100 H 1205.26 -2.89814 4.37159 0
M  V30 13101 H 1206.73 -4.32542 3.42945 0
M  V30 13102 H 1207.21 -4.02383 1.76024 0
M  V30 13103 H 1207.81 -2.96196 3.05202 0
M  V30 13104 N 1206.13 -1.32992 -0.845635 0
M  V30 13105 C 1207.38 -1.2382 -1.59728 0
M  V30 13106 C 1207.7 0.197724 -1.93995 0
M  V30 13107 O 1206.97 1.12477 -1.60392 0
M  V30 13108 H 1205.55 -0.455296 -0.592212 0
M  V30 13109 H 1208.21 -1.66627 -1.01101 0
M  V30 13110 H 1207.31 -1.82717 -2.53023 0
M  V30 13111 N 1207.61 1.06304 -1.1635 0
M  V30 13112 C 1208.52 2.17296 -0.884289 0
M  V30 13113 C 1209.53 1.73408 0.143414 0
M  V30 13114 O 1210.71 2.01373 -0.0331987 0
M  V30 13115 C 1207.77 3.44509 -0.389163 0
M  V30 13116 C 1206.84 4.02906 -1.48208 0
M  V30 13117 C 1206.07 5.24047 -1.01048 0
M  V30 13118 O 1206.29 5.70229 0.139821 0
M  V30 13119 O 1205.23 5.74394 -1.79876 0
M  V30 13120 H 1209.05 2.4369 -1.81243 0
M  V30 13121 H 1206.64 1.15841 -0.943459 0
M  V30 13122 H 1208.52 4.21229 -0.120018 0
M  V30 13123 H 1207.19 3.19642 0.510968 0
M  V30 13124 H 1206.1 3.27677 -1.80496 0
M  V30 13125 H 1207.43 4.32068 -2.35751 0
M  V30 13126 N 1209.09 0.96196 1.24836 0
M  V30 13127 C 1210.33 0.616342 1.92052 0
M  V30 13128 C 1210.65 -0.851601 1.76088 0
M  V30 13129 O 1211.85 -1.3075 2.37943 0
M  V30 13130 C 1210.31 1.05168 3.44191 0
M  V30 13131 C 1209.92 2.54268 3.68852 0
M  V30 13132 C 1211.66 0.778938 4.17292 0
M  V30 13133 C 1209.57 2.91564 5.14533 0
M  V30 13134 H 1208.5 0.22681 0.719078 0
M  V30 13135 H 1211.15 1.1674 1.41577 0
M  V30 13136 H 1209.53 0.428979 3.9367 0
M  V30 13137 H 1210.71 3.21619 3.29997 0
M  V30 13138 H 1209.02 2.79091 3.09026 0
M  V30 13139 H 1211.62 1.03366 5.24614 0
M  V30 13140 H 1211.96 -0.284772 4.15325 0
M  V30 13141 H 1212.49 1.36233 3.73745 0
M  V30 13142 H 1209.23 3.96982 5.21618 0
M  V30 13143 H 1208.75 2.28892 5.54408 0
M  V30 13144 H 1210.43 2.81155 5.82718 0
M  V30 13145 N 1210.56 -1.39601 0.731392 0
M  V30 13146 C 1211.5 -2.29147 0.0494974 0
M  V30 13147 C 1212.51 -1.46635 -0.707248 0
M  V30 13148 O 1213.7 -1.6975 -0.552008 0
M  V30 13149 C 1210.8 -3.25191 -0.954152 0
M  V30 13150 C 1209.97 -4.36629 -0.259674 0
M  V30 13151 C 1209.03 -5.13007 -1.17092 0
M  V30 13152 O 1208.06 -5.65479 -0.64976 0
M  V30 13153 N 1209.26 -5.23865 -2.50092 0
M  V30 13154 H 1212.02 -2.88308 0.818433 0
M  V30 13155 H 1209.58 -1.51142 0.580316 0
M  V30 13156 H 1211.58 -3.73161 -1.56629 0
M  V30 13157 H 1210.15 -2.67085 -1.62432 0
M  V30 13158 H 1209.37 -3.90582 0.532888 0
M  V30 13159 H 1210.65 -5.08317 0.221753 0
M  V30 13160 H 1210.05 -4.82745 -2.94913 0
M  V30 13161 H 1208.61 -5.75288 -3.0641 0
M  V30 13162 N 1212.04 -0.478751 -1.50152 0
M  V30 13163 C 1213.29 0.073694 -2.02666 0
M  V30 13164 C 1213.62 1.38679 -1.35947 0
M  V30 13165 O 1212.9 1.88286 -0.4877 0
M  V30 13166 C 1213.18 0.249516 -3.59235 0
M  V30 13167 C 1213.03 -1.08514 -4.36514 0
M  V30 13168 C 1214.35 1.00053 -4.28576 0
M  V30 13169 H 1211.47 0.0253082 -0.736565 0
M  V30 13170 H 1214.11 -0.625834 -1.79397 0
M  V30 13171 H 1212.26 0.845343 -3.79192 0
M  V30 13172 H 1213.93 -1.71814 -4.28109 0
M  V30 13173 H 1212.18 -1.67992 -3.99952 0
M  V30 13174 H 1212.85 -0.915676 -5.44352 0
M  V30 13175 H 1215.32 0.495422 -4.1314 0
M  V30 13176 H 1214.2 1.09236 -5.37921 0
M  V30 13177 H 1214.46 2.03896 -3.92274 0
M  V30 13178 N 1213.52 1.56172 -0.211661 0
M  V30 13179 C 1214.77 1.97214 0.423008 0
M  V30 13180 C 1215.08 1.10203 1.616 0
M  V30 13181 O 1216.29 1.411 2.31955 0
M  V30 13182 C 1214.74 3.50805 0.803977 0
M  V30 13183 C 1214.35 4.46505 -0.365654 0
M  V30 13184 C 1216.1 4.00582 1.4048 0
M  V30 13185 C 1214 5.91388 0.0371986 0
M  V30 13186 H 1212.93 0.736432 0.161814 0
M  V30 13187 H 1215.58 1.80925 -0.306307 0
M  V30 13188 H 1213.97 3.62659 1.59043 0
M  V30 13189 H 1215.14 4.46394 -1.14321 0
M  V30 13190 H 1213.46 4.07015 -0.879061 0
M  V30 13191 H 1216.05 5.06317 1.71894 0
M  V30 13192 H 1216.4 3.45853 2.31713 0
M  V30 13193 H 1216.93 3.9191 0.681984 0
M  V30 13194 H 1213.67 6.50078 -0.841367 0
M  V30 13195 H 1213.19 5.94716 0.77927 0
M  V30 13196 H 1214.87 6.4531 0.467309 0
M  V30 13197 N 1215 -0.0618163 1.57479 0
M  V30 13198 C 1216.24 -0.764296 1.89573 0
M  V30 13199 C 1216.6 -1.74235 0.806605 0
M  V30 13200 O 1217.8 -2.49067 1.0109 0
M  V30 13201 C 1216.07 -1.44503 3.26885 0
M  V30 13202 S 1217.63 -2.1812 3.80748 0
M  V30 13203 H 1214.45 -0.253946 0.664103 0
M  V30 13204 H 1217.05 -0.0200064 1.9549 0
M  V30 13205 H 1215.76 -0.719525 4.04043 0
M  V30 13206 H 1215.29 -2.22855 3.2419 0
M  V30 13207 H 1217.3 -3.44793 3.56837 0
M  V30 13208 N 1216.48 -1.54033 -0.333429 0
M  V30 13209 C 1217.7 -1.75716 -1.09232 0
M  V30 13210 C 1218.12 -0.501076 -1.82029 0
M  V30 13211 O 1217.48 0.527772 -1.74702 0
M  V30 13212 C 1217.53 -2.9439 -2.09802 0
M  V30 13213 O 1217.25 -4.15141 -1.39963 0
M  V30 13214 C 1218.75 -3.28206 -2.97987 0
M  V30 13215 H 1215.97 -0.586859 -0.325326 0
M  V30 13216 H 1218.51 -2.0089 -0.382555 0
M  V30 13217 H 1216.67 -2.71518 -2.76327 0
M  V30 13218 H 1217.08 -4.81826 -2.0723 0
M  V30 13219 H 1218.56 -4.14568 -3.64469 0
M  V30 13220 H 1219.03 -2.44944 -3.64553 0
M  V30 13221 H 1219.64 -3.5312 -2.37036 0
M  V30 13222 N 1217.95 0.594978 -1.45938 0
M  V30 13223 C 1218.9 1.726 -1.55923 0
M  V30 13224 C 1219.9 1.63893 -0.428411 0
M  V30 13225 O 1221.1 1.69535 -0.604815 0
M  V30 13226 H 1217.48 0.570447 -0.489994 0
M  V30 13227 H 1219.45 1.61308 -2.51043 0
M  V30 13228 C 1218.2 3.10988 -1.55505 0
M  V30 13229 H 1217.52 3.18353 -2.4185 0
M  V30 13230 H 1218.96 3.8992 -1.66548 0
M  V30 13231 C 1217.42 3.35721 -0.281573 0
M  V30 13232 O 1217.95 3.96676 0.633336 0
M  V30 13233 N 1216.16 2.90083 -0.173314 0
M  V30 13234 H 1215.7 2.4066 -0.91872 0
M  V30 13235 H 1215.66 3.07005 0.677903 0
M  V30 13236 N 1219.43 1.33438 0.838571 0
M  V30 13237 C 1220.68 1.24259 1.58879 0
M  V30 13238 C 1220.99 -0.189957 1.94675 0
M  V30 13239 O 1222.2 -0.40376 2.68481 0
M  V30 13240 C 1220.66 2.1773 2.86569 0
M  V30 13241 C 1220.26 3.66156 2.58135 0
M  V30 13242 C 1222.01 2.17424 3.64591 0
M  V30 13243 C 1219.92 4.5154 3.81923 0
M  V30 13244 H 1218.85 0.461534 0.59624 0
M  V30 13245 H 1221.5 1.58504 0.924588 0
M  V30 13246 H 1219.88 1.76418 3.54532 0
M  V30 13247 H 1221.05 4.1591 1.98382 0
M  V30 13248 H 1219.37 3.68754 1.93416 0
M  V30 13249 H 1221.96 2.78446 4.56478 0
M  V30 13250 H 1222.31 1.16939 3.99539 0
M  V30 13251 H 1222.84 2.571 3.03553 0
M  V30 13252 H 1219.58 5.52902 3.52107 0
M  V30 13253 H 1219.1 4.06529 4.41015 0
M  V30 13254 H 1220.78 4.65359 4.495 0
M  V30 13255 N 1220.91 -1.05686 1.16912 0
M  V30 13256 C 1222.16 -1.78244 0.95254 0
M  V30 13257 C 1222.48 -1.87924 -0.520525 0
M  V30 13258 O 1221.75 -1.39239 -1.37802 0
M  V30 13259 H 1220.33 -0.660228 0.349439 0
M  V30 13260 H 1222.99 -1.27634 1.47294 0
M  V30 13261 H 1222.09 -2.80102 1.37657 0
M  V30 13262 N 1222.39 -0.968567 -1.24324 0
M  V30 13263 C 1223.34 -0.498817 -2.25345 0
M  V30 13264 C 1224.31 0.456082 -1.59716 0
M  V30 13265 O 1225.49 0.366254 -1.87252 0
M  V30 13266 C 1222.63 0.204027 -3.44496 0
M  V30 13267 C 1221.74 -0.789741 -4.2472 0
M  V30 13268 C 1220.88 -0.0629156 -5.31163 0
M  V30 13269 C 1219.92 -1.04669 -6.03084 0
M  V30 13270 N 1219.05 -0.349812 -7.01228 0
M  V30 13271 H 1223.89 -1.36511 -2.64894 0
M  V30 13272 H 1221.43 -0.684288 -1.30215 0
M  V30 13273 H 1223.39 0.628223 -4.12443 0
M  V30 13274 H 1222.02 1.03426 -3.05782 0
M  V30 13275 H 1221.07 -1.33237 -3.56303 0
M  V30 13276 H 1222.38 -1.53988 -4.74436 0
M  V30 13277 H 1221.54 0.419233 -6.0525 0
M  V30 13278 H 1220.28 0.719915 -4.82357 0
M  V30 13279 H 1219.28 -1.53971 -5.278 0
M  V30 13280 H 1220.51 -1.82998 -6.53979 0
M  V30 13281 H 1218.45 0.414026 -6.54692 0
M  V30 13282 H 1218.37 -1.03881 -7.48829 0
M  V30 13283 H 1219.64 0.11034 -7.79422 0
M  V30 13284 N 1223.87 1.39211 -0.738786 0
M  V30 13285 C 1225.09 2.05256 -0.297421 0
M  V30 13286 C 1225.52 1.55341 1.06069 0
M  V30 13287 O 1224.87 0.698823 1.67291 0
M  V30 13288 C 1224.92 3.59239 -0.312969 0
M  V30 13289 O 1224.03 4.06448 0.698112 0
M  V30 13290 H 1223.37 0.650245 -0.134454 0
M  V30 13291 H 1225.9 1.78173 -1.00577 0
M  V30 13292 H 1225.91 4.07691 -0.158675 0
M  V30 13293 H 1224.58 3.94931 -1.30394 0
M  V30 13294 H 1223.16 3.69401 0.509643 0
M  V30 13295 N 1225.34 0.486708 1.49896 0
M  V30 13296 C 1226.29 -0.313156 2.30482 0
M  V30 13297 C 1227.29 -0.976043 1.38455 0
M  V30 13298 O 1228.49 -0.905364 1.55574 0
M  V30 13299 H 1224.87 -0.119839 0.74239 0
M  V30 13300 H 1226.84 0.386701 2.95884 0
M  V30 13301 C 1225.59 -1.37334 3.19429 0
M  V30 13302 H 1224.91 -0.87265 3.9016 0
M  V30 13303 H 1226.35 -1.90526 3.78782 0
M  V30 13304 C 1224.81 -2.38378 2.38071 0
M  V30 13305 O 1225.34 -3.43972 2.07476 0
M  V30 13306 N 1223.55 -2.10486 2.00359 0
M  V30 13307 H 1223.09 -1.24638 2.2544 0
M  V30 13308 H 1223.05 -2.78324 1.46229 0
M  V30 13309 N 1226.82 -1.56058 0.219941 0
M  V30 13310 C 1228.07 -1.97436 -0.412543 0
M  V30 13311 C 1228.39 -1.11058 -1.61014 0
M  V30 13312 O 1229.59 -1.42328 -2.31203 0
M  V30 13313 C 1228.05 -3.51227 -0.785362 0
M  V30 13314 C 1227.66 -4.46305 0.389328 0
M  V30 13315 C 1229.4 -4.01321 -1.38354 0
M  V30 13316 C 1227.31 -5.914 -0.00583531 0
M  V30 13317 H 1226.24 -0.73728 -0.157906 0
M  V30 13318 H 1228.89 -1.8076 0.315898 0
M  V30 13319 H 1227.27 -3.63497 -1.57118 0
M  V30 13320 H 1228.44 -4.45781 1.16686 0
M  V30 13321 H 1226.76 -4.06543 0.900633 0
M  V30 13322 H 1229.36 -5.07221 -1.69207 0
M  V30 13323 H 1229.7 -3.47077 -2.29876 0
M  V30 13324 H 1230.23 -3.92267 -0.66119 0
M  V30 13325 H 1226.97 -6.49623 0.87583 0
M  V30 13326 H 1226.49 -5.95121 -0.74772 0
M  V30 13327 H 1228.17 -6.45549 -0.43308 0
M  V30 13328 N 1228.3 0.053464 -1.57509 0
M  V30 13329 C 1229.25 1.06155 -2.04939 0
M  V30 13330 C 1230.22 1.37382 -0.93357 0
M  V30 13331 O 1231.4 1.48137 -1.2025 0
M  V30 13332 C 1228.54 2.36476 -2.51343 0
M  V30 13333 C 1227.66 2.1162 -3.76618 0
M  V30 13334 C 1226.79 3.35636 -4.11731 0
M  V30 13335 C 1225.83 3.06226 -5.29993 0
M  V30 13336 N 1224.97 4.22623 -5.60655 0
M  V30 13337 H 1229.81 0.650122 -2.90822 0
M  V30 13338 H 1227.34 0.309421 -1.43809 0
M  V30 13339 H 1229.3 3.12588 -2.76306 0
M  V30 13340 H 1227.93 2.75386 -1.68411 0
M  V30 13341 H 1226.98 1.26116 -3.58886 0
M  V30 13342 H 1228.3 1.85909 -4.6286 0
M  V30 13343 H 1227.45 4.20132 -4.37692 0
M  V30 13344 H 1226.19 3.64439 -3.24092 0
M  V30 13345 H 1225.19 2.20128 -5.03809 0
M  V30 13346 H 1226.42 2.78726 -6.19265 0
M  V30 13347 H 1224.37 4.51424 -4.75976 0
M  V30 13348 H 1224.28 4.0025 -6.41355 0
M  V30 13349 H 1225.55 5.08063 -5.91178 0
M  V30 13350 N 1229.78 1.54207 0.325255 0
M  V30 13351 C 1230.71 1.86467 1.40543 0
M  V30 13352 C 1231.69 0.721324 1.54048 0
M  V30 13353 O 1232.88 0.974905 1.67956 0
M  V30 13354 C 1230.01 2.09052 2.77335 0
M  V30 13355 C 1228.96 3.24893 2.78619 0
M  V30 13356 C 1228.29 3.32846 4.1847 0
M  V30 13357 C 1229.59 4.62582 2.42518 0
M  V30 13358 H 1231.28 2.76932 1.13794 0
M  V30 13359 H 1228.83 1.33248 0.545971 0
M  V30 13360 H 1230.78 2.30204 3.52964 0
M  V30 13361 H 1229.5 1.15335 3.05558 0
M  V30 13362 H 1228.16 3.03625 2.05444 0
M  V30 13363 H 1227.81 2.3669 4.43832 0
M  V30 13364 H 1227.51 4.10701 4.20237 0
M  V30 13365 H 1229.03 3.56231 4.95915 0
M  V30 13366 H 1230.45 4.83627 3.07861 0
M  V30 13367 H 1228.84 5.42974 2.55538 0
M  V30 13368 H 1229.91 4.64946 1.3767 0
M  V30 13369 N 1231.26 -0.58723 1.46251 0
M  V30 13370 C 1232.51 -1.34179 1.50595 0
M  V30 13371 C 1232.82 -1.94943 0.160171 0
M  V30 13372 O 1234.03 -2.71378 0.0813797 0
M  V30 13373 C 1232.48 -2.43159 2.65333 0
M  V30 13374 C 1232.09 -1.88718 4.06312 0
M  V30 13375 C 1233.83 -3.19986 2.78943 0
M  V30 13376 C 1231.74 -2.953 5.12398 0
M  V30 13377 H 1230.67 -0.504401 0.560442 0
M  V30 13378 H 1233.32 -0.627179 1.72449 0
M  V30 13379 H 1231.7 -3.17398 2.368 0
M  V30 13380 H 1232.88 -1.21051 4.44616 0
M  V30 13381 H 1231.19 -1.24572 3.97329 0
M  V30 13382 H 1233.79 -3.9952 3.5537 0
M  V30 13383 H 1234.13 -3.72288 1.86298 0
M  V30 13384 H 1234.67 -2.52852 3.07101 0
M  V30 13385 H 1231.4 -2.4789 6.0682 0
M  V30 13386 H 1230.92 -3.61469 4.78644 0
M  V30 13387 H 1232.6 -3.5933 5.38044 0
M  V30 13388 N 1232.74 -1.33881 -0.831482 0
M  V30 13389 C 1233.65 -1.26802 -1.97379 0
M  V30 13390 C 1234.66 -0.177233 -1.73095 0
M  V30 13391 O 1235.84 -0.402163 -1.97344 0
M  V30 13392 C 1232.9 -1.01474 -3.31517 0
M  V30 13393 C 1231.96 -2.19626 -3.68867 0
M  V30 13394 C 1231.2 -1.95497 -4.96605 0
M  V30 13395 O 1231.42 -0.908948 -5.63111 0
M  V30 13396 O 1230.35 -2.82226 -5.31632 0
M  V30 13397 H 1234.18 -2.22883 -2.06293 0
M  V30 13398 H 1231.76 -1.14001 -0.965613 0
M  V30 13399 H 1233.65 -0.890954 -4.11874 0
M  V30 13400 H 1232.32 -0.0842656 -3.2359 0
M  V30 13401 H 1231.23 -2.37561 -2.88991 0
M  V30 13402 H 1232.56 -3.11034 -3.81469 0
M  V30 13403 N 1234.21 1.05064 -1.1747 0
M  V30 13404 C 1235.46 1.77737 -0.961979 0
M  V30 13405 C 1235.78 1.88198 0.510551 0
M  V30 13406 O 1235.05 1.39968 1.37062 0
M  V30 13407 H 1233.63 0.658366 -0.352935 0
M  V30 13408 H 1236.29 1.26851 -1.47969 0
M  V30 13409 H 1235.39 2.79368 -1.39141 0
M  V30 13410 N 1235.69 0.975146 1.23809 0
M  V30 13411 C 1236.62 0.469151 2.24347 0
M  V30 13412 C 1237.64 -0.426156 1.57123 0
M  V30 13413 O 1238.83 -0.231136 1.76997 0
M  V30 13414 C 1235.93 -0.34121 3.37178 0
M  V30 13415 C 1235.1 0.545968 4.33979 0
M  V30 13416 C 1234.16 -0.209648 5.25782 0
M  V30 13417 O 1233.18 0.398953 5.678 0
M  V30 13418 N 1234.39 -1.49713 5.60862 0
M  V30 13419 H 1237.15 1.33359 2.68394 0
M  V30 13420 H 1234.71 0.847814 1.37927 0
M  V30 13421 H 1236.7 -0.854924 3.95567 0
M  V30 13422 H 1235.27 -1.10663 2.92357 0
M  V30 13423 H 1234.49 1.24057 3.7417 0
M  V30 13424 H 1235.78 1.15077 4.95615 0
M  V30 13425 H 1235.18 -2.0132 5.28665 0
M  V30 13426 H 1233.74 -1.95639 6.21746 0
M  V30 13427 N 1237.17 -1.38817 0.746158 0
M  V30 13428 C 1238.12 -2.30521 0.113517 0
M  V30 13429 C 1239.09 -1.49795 -0.717682 0
M  V30 13430 O 1240.27 -1.78448 -0.675345 0
M  V30 13431 C 1237.41 -3.36185 -0.779343 0
M  V30 13432 C 1236.52 -4.3195 0.0656784 0
M  V30 13433 C 1235.66 -5.24684 -0.829492 0
M  V30 13434 C 1234.7 -6.12097 0.0196112 0
M  V30 13435 N 1233.84 -6.97152 -0.832107 0
M  V30 13436 H 1238.68 -2.84048 0.901136 0
M  V30 13437 H 1236.21 -1.39853 0.456025 0
M  V30 13438 H 1238.17 -3.96048 -1.31156 0
M  V30 13439 H 1236.8 -2.84085 -1.53282 0
M  V30 13440 H 1235.85 -3.73611 0.715445 0
M  V30 13441 H 1237.16 -4.93551 0.721735 0
M  V30 13442 H 1236.32 -5.89627 -1.42915 0
M  V30 13443 H 1235.06 -4.63431 -1.5193 0
M  V30 13444 H 1234.06 -5.46156 0.631991 0
M  V30 13445 H 1235.29 -6.75416 0.706369 0
M  V30 13446 H 1233.23 -6.38456 -1.507 0
M  V30 13447 H 1233.15 -7.55642 -0.232782 0
M  V30 13448 H 1234.42 -7.66513 -1.41697 0
M  V30 13449 N 1238.65 -0.49465 -1.49636 0
M  V30 13450 C 1239.89 0.0521172 -2.02433 0
M  V30 13451 C 1240.22 1.37579 -1.37485 0
M  V30 13452 O 1239.48 1.8927 -0.497538 0
M  V30 13453 C 1239.78 0.259743 -3.56455 0
M  V30 13454 C 1239.44 -0.985143 -4.40007 0
M  V30 13455 C 1238.1 -1.3264 -4.62558 0
M  V30 13456 C 1240.46 -1.81291 -4.88654 0
M  V30 13457 C 1237.78 -2.49506 -5.31003 0
M  V30 13458 C 1240.14 -2.97305 -5.58384 0
M  V30 13459 C 1238.8 -3.31818 -5.79183 0
M  V30 13460 H 1238.07 0.0190711 -0.740755 0
M  V30 13461 H 1240.72 -0.653519 -1.80004 0
M  V30 13462 H 1239.02 1.04785 -3.77528 0
M  V30 13463 H 1240.72 0.697146 -3.94893 0
M  V30 13464 H 1237.31 -0.709313 -4.2269 0
M  V30 13465 H 1241.49 -1.56242 -4.71065 0
M  V30 13466 H 1236.75 -2.76491 -5.4531 0
M  V30 13467 H 1240.92 -3.61777 -5.95055 0
M  V30 13468 H 1238.55 -4.22478 -6.31994 0
M  V30 13469 N 1240.13 1.55939 -0.228214 0
M  V30 13470 C 1241.09 2.1932 0.665681 0
M  V30 13471 C 1242.09 1.15699 1.11671 0
M  V30 13472 O 1243.28 1.40893 1.02444 0
M  V30 13473 C 1240.41 2.82185 1.9127 0
M  V30 13474 H 1241.6 2.99687 0.112986 0
M  V30 13475 H 1239.16 1.56285 0.0213865 0
M  V30 13476 H 1239.89 2.05706 2.5071 0
M  V30 13477 H 1239.68 3.58073 1.5977 0
M  V30 13478 H 1241.17 3.30748 2.54942 0
M  V30 13479 N 1241.6 -0.0451101 1.57535 0
M  V30 13480 C 1242.54 -1.07792 2.02271 0
M  V30 13481 C 1243.55 -1.33423 0.932854 0
M  V30 13482 O 1244.74 -1.31193 1.2104 0
M  V30 13483 C 1241.84 -2.42314 2.36933 0
M  V30 13484 C 1241.01 -2.36266 3.68099 0
M  V30 13485 C 1240.07 -3.53108 3.9013 0
M  V30 13486 O 1239.1 -3.33327 4.61391 0
M  V30 13487 N 1240.3 -4.74415 3.3453 0
M  V30 13488 H 1243.06 -0.696744 2.91489 0
M  V30 13489 H 1240.62 -0.233336 1.6021 0
M  V30 13490 H 1242.62 -3.19171 2.48821 0
M  V30 13491 H 1241.19 -2.72335 1.53468 0
M  V30 13492 H 1240.41 -1.44615 3.66715 0
M  V30 13493 H 1241.69 -2.29351 4.54175 0
M  V30 13494 H 1241.09 -4.93388 2.76739 0
M  V30 13495 H 1239.65 -5.48692 3.51825 0
M  V30 13496 N 1243.08 -1.54377 -0.317073 0
M  V30 13497 C 1244.01 -1.8721 -1.39552 0
M  V30 13498 C 1244.99 -0.729483 -1.53664 0
M  V30 13499 O 1246.18 -0.983799 -1.67437 0
M  V30 13500 C 1243.31 -2.1052 -2.76222 0
M  V30 13501 C 1242.26 -3.26366 -2.76892 0
M  V30 13502 C 1241.59 -3.35061 -4.16699 0
M  V30 13503 C 1242.89 -4.63862 -2.40061 0
M  V30 13504 H 1244.58 -2.77532 -1.12323 0
M  V30 13505 H 1242.13 -1.33536 -0.538897 0
M  V30 13506 H 1244.08 -2.32073 -3.51739 0
M  V30 13507 H 1242.81 -1.16953 -3.04942 0
M  V30 13508 H 1241.46 -3.0471 -2.03831 0
M  V30 13509 H 1241.11 -2.39041 -4.4257 0
M  V30 13510 H 1240.81 -4.12923 -4.18053 0
M  V30 13511 H 1242.34 -3.58856 -4.94019 0
M  V30 13512 H 1243.75 -4.85252 -3.05292 0
M  V30 13513 H 1242.15 -5.44321 -2.52655 0
M  V30 13514 H 1243.22 -4.6567 -1.35202 0
M  V30 13515 N 1244.56 0.579466 -1.4656 0
M  V30 13516 C 1245.81 1.33379 -1.51304 0
M  V30 13517 C 1246.12 1.94855 -0.170507 0
M  V30 13518 O 1247.33 2.71331 -0.0957704 0
M  V30 13519 C 1245.78 2.41748 -2.66619 0
M  V30 13520 C 1245.39 1.8656 -4.07307 0
M  V30 13521 C 1247.14 3.18502 -2.80636 0
M  V30 13522 C 1245.04 2.92578 -5.13957 0
M  V30 13523 H 1243.97 0.501422 -0.56311 0
M  V30 13524 H 1246.62 0.618025 -1.72779 0
M  V30 13525 H 1245.01 3.16138 -2.3848 0
M  V30 13526 H 1246.18 1.18692 -4.45252 0
M  V30 13527 H 1244.5 1.22464 -3.97984 0
M  V30 13528 H 1247.09 3.9763 -3.57483 0
M  V30 13529 H 1247.44 3.71295 -1.8827 0
M  V30 13530 H 1247.97 2.51219 -3.08437 0
M  V30 13531 H 1244.71 2.44668 -6.08126 0
M  V30 13532 H 1244.23 3.58926 -4.80554 0
M  V30 13533 H 1245.91 3.56471 -5.39942 0
M  V30 13534 N 1246.04 1.3432 0.824371 0
M  V30 13535 C 1247.29 1.25938 1.57552 0
M  V30 13536 C 1247.6 -0.169298 1.94866 0
M  V30 13537 O 1248.81 -0.375262 2.68894 0
M  V30 13538 C 1247.26 2.20757 2.84244 0
M  V30 13539 C 1246.87 3.68873 2.54237 0
M  V30 13540 C 1248.61 2.21279 3.62265 0
M  V30 13541 C 1246.52 4.55566 3.77113 0
M  V30 13542 H 1245.45 0.467832 0.591311 0
M  V30 13543 H 1248.1 1.59476 0.907724 0
M  V30 13544 H 1246.48 1.80168 3.52641 0
M  V30 13545 H 1247.66 4.17991 1.93959 0
M  V30 13546 H 1245.97 3.70784 1.89494 0
M  V30 13547 H 1248.57 2.83272 4.53499 0
M  V30 13548 H 1248.91 1.2117 3.98276 0
M  V30 13549 H 1249.45 2.60305 3.00809 0
M  V30 13550 H 1246.19 5.56605 3.46223 0
M  V30 13551 H 1245.71 4.11184 4.36678 0
M  V30 13552 H 1247.38 4.701 4.44539 0
M  V30 13553 N 1247.52 -1.0444 1.18026 0
M  V30 13554 C 1248.45 -2.14297 0.927314 0
M  V30 13555 C 1249.43 -1.69575 -0.13357 0
M  V30 13556 O 1250.61 -1.94191 0.0182439 0
M  V30 13557 C 1247.74 -3.44397 0.448134 0
M  V30 13558 C 1246.7 -4.02723 1.44907 0
M  V30 13559 C 1246.02 -5.28257 0.827555 0
M  V30 13560 C 1247.32 -4.39331 2.82463 0
M  V30 13561 H 1249.02 -2.35715 1.84605 0
M  V30 13562 H 1246.56 -1.13281 0.889012 0
M  V30 13563 H 1248.52 -4.20606 0.258554 0
M  V30 13564 H 1247.24 -3.22654 -0.506159 0
M  V30 13565 H 1245.9 -3.28591 1.62552 0
M  V30 13566 H 1245.55 -5.02822 -0.13381 0
M  V30 13567 H 1245.25 -5.68242 1.49581 0
M  V30 13568 H 1246.77 -6.07147 0.64842 0
M  V30 13569 H 1248.18 -5.06543 2.68491 0
M  V30 13570 H 1246.58 -4.90355 3.45936 0
M  V30 13571 H 1247.65 -3.4933 3.36299 0
M  V30 13572 N 1248.99 -0.981699 -1.2329 0
M  V30 13573 C 1249.93 -0.481042 -2.24095 0
M  V30 13574 C 1250.94 0.417818 -1.57347 0
M  V30 13575 O 1252.13 0.221746 -1.77117 0
M  V30 13576 C 1249.23 0.323324 -3.37354 0
M  V30 13577 C 1248.4 -0.568975 -4.33684 0
M  V30 13578 C 1247.46 0.181761 -5.25886 0
M  V30 13579 O 1246.49 -0.429059 -5.67581 0
M  V30 13580 N 1247.69 1.46737 -5.61648 0
M  V30 13581 H 1250.45 -1.34781 -2.67683 0
M  V30 13582 H 1248.01 -0.855117 -1.37475 0
M  V30 13583 H 1250.01 0.833934 -3.96015 0
M  V30 13584 H 1248.58 1.09111 -2.9294 0
M  V30 13585 H 1247.8 -1.2604 -3.73507 0
M  V30 13586 H 1249.08 -1.17704 -4.94998 0
M  V30 13587 H 1248.48 1.98513 -5.29725 0
M  V30 13588 H 1247.04 1.92339 -6.22775 0
M  V30 13589 N 1250.47 1.3842 -0.753509 0
M  V30 13590 C 1251.42 2.27774 -0.101443 0
M  V30 13591 C 1252.41 1.45196 0.693322 0
M  V30 13592 O 1253.6 1.67931 0.55929 0
M  V30 13593 C 1250.73 3.34064 0.790977 0
M  V30 13594 C 1249.81 4.24099 -0.010633 0
M  V30 13595 N 1250.2 4.94845 -1.047 0
M  V30 13596 C 1248.5 4.45476 0.216193 0
M  V30 13597 C 1249.2 5.61164 -1.53199 0
M  V30 13598 N 1248.18 5.36956 -0.847304 0
M  V30 13599 H 1251.98 2.79935 -0.895188 0
M  V30 13600 H 1249.5 1.51321 -0.589545 0
M  V30 13601 H 1251.49 3.96965 1.27375 0
M  V30 13602 H 1250.15 2.83461 1.58367 0
M  V30 13603 H 1251.16 4.97801 -1.42879 0
M  V30 13604 H 1247.84 4.05781 0.982238 0
M  V30 13605 H 1249.23 6.27756 -2.39525 0
M  V30 13606 N 1251.95 0.502579 1.49372 0
M  V30 13607 C 1252.9 -0.294292 2.26093 0
M  V30 13608 C 1253.88 -0.934147 1.31006 0
M  V30 13609 O 1255.08 -0.841486 1.55718 0
M  V30 13610 C 1252.21 -1.3572 3.15333 0
M  V30 13611 C 1251.29 -0.723506 4.17883 0
M  V30 13612 N 1251.68 0.174787 5.05498 0
M  V30 13613 C 1249.98 -0.983906 4.35012 0
M  V30 13614 C 1250.68 0.537673 5.7921 0
M  V30 13615 N 1249.66 -0.0947799 5.43517 0
M  V30 13616 H 1253.46 0.397202 2.91204 0
M  V30 13617 H 1250.97 0.31876 1.59241 0
M  V30 13618 H 1252.97 -1.94154 3.6893 0
M  V30 13619 H 1251.63 -2.05036 2.51775 0
M  V30 13620 H 1252.64 0.545699 5.15017 0
M  V30 13621 H 1249.32 -1.66969 3.82658 0
M  V30 13622 H 1250.71 1.27266 6.59737 0
M  V30 13623 N 1253.43 -1.55816 0.23648 0
M  V30 13624 C 1254.65 -2.03534 -0.398575 0
M  V30 13625 C 1255.08 -1.11488 -1.51499 0
M  V30 13626 O 1254.44 -0.105848 -1.80991 0
M  V30 13627 C 1254.48 -3.49356 -0.893467 0
M  V30 13628 O 1253.59 -3.60446 -2.00381 0
M  V30 13629 H 1252.93 -0.658102 -0.0883021 0
M  V30 13630 H 1255.46 -2.01417 0.359488 0
M  V30 13631 H 1255.47 -3.89972 -1.19941 0
M  V30 13632 H 1254.14 -4.1583 -0.0764388 0
M  V30 13633 H 1252.72 -3.31723 -1.70336 0
M  V30 13634 N 1254.91 0.036755 -1.57557 0
M  V30 13635 C 1255.85 1.05823 -2.07133 0
M  V30 13636 C 1256.85 1.37923 -0.983546 0
M  V30 13637 O 1258.05 1.36918 -1.16848 0
M  V30 13638 H 1254.43 0.358761 -0.660905 0
M  V30 13639 H 1256.4 0.614232 -2.9201 0
M  V30 13640 C 1255.15 2.35302 -2.55985 0
M  V30 13641 H 1254.47 2.11461 -3.393 0
M  V30 13642 H 1255.91 3.05139 -2.94391 0
M  V30 13643 C 1254.37 3.0373 -1.45773 0
M  V30 13644 O 1254.9 3.9325 -0.819587 0
M  V30 13645 N 1253.11 2.64931 -1.19416 0
M  V30 13646 H 1252.65 1.92219 -1.71492 0
M  V30 13647 H 1252.61 3.11033 -0.458865 0
M  V30 13648 N 1256.39 1.54543 0.308881 0
M  V30 13649 C 1257.61 1.77753 1.06857 0
M  V30 13650 C 1258.04 0.531616 1.80431 0
M  V30 13651 O 1257.39 -0.517513 1.73757 0
M  V30 13652 C 1257.44 2.97968 2.03094 0
M  V30 13653 O 1256.55 2.70541 3.11257 0
M  V30 13654 H 1255.89 0.588576 0.307368 0
M  V30 13655 H 1258.42 2.01607 0.348703 0
M  V30 13656 H 1258.43 3.25722 2.45702 0
M  V30 13657 H 1257.1 3.88314 1.48948 0
M  V30 13658 H 1255.68 2.53781 2.7322 0
M  V30 13659 N 1257.86 -0.571685 1.46866 0
M  V30 13660 C 1259.28 -0.896172 1.32064 0
M  V30 13661 C 1259.48 -1.9925 0.300291 0
M  V30 13662 O 1258.54 -2.50791 -0.293284 0
M  V30 13663 C 1259.85 -1.3031 2.70998 0
M  V30 13664 C 1261.4 -1.41533 2.79173 0
M  V30 13665 C 1261.87 -1.85587 4.18714 0
M  V30 13666 N 1263.36 -1.92762 4.21185 0
M  V30 13667 C 1264.1 -2.28148 5.26057 0
M  V30 13668 N 1263.59 -2.62248 6.41247 0
M  V30 13669 N 1265.39 -2.28797 5.13428 0
M  V30 13670 H 1257.54 0.152349 2.11853 0
M  V30 13671 H 1259.8 0.00548777 0.947984 0
M  V30 13672 H 1259.51 -0.571469 3.47026 0
M  V30 13673 H 1259.38 -2.26233 3.01826 0
M  V30 13674 H 1261.77 -2.1378 2.03426 0
M  V30 13675 H 1261.85 -0.438342 2.52016 0
M  V30 13676 H 1261.49 -1.13915 4.9496 0
M  V30 13677 H 1261.42 -2.84264 4.43285 0
M  V30 13678 H 1263.91 -1.68854 3.38078 0
M  V30 13679 H 1264.23 -2.88234 7.17036 0
M  V30 13680 H 1262.57 -2.59861 6.44591 0
M  V30 13681 H 1265.76 -2.01587 4.22469 0
M  V30 13682 H 1265.94 -2.56045 5.95269 0
M  V30 13683 N 1259.34 -1.34755 -0.817236 0
M  V30 13684 C 1260.27 -1.22648 -1.93624 0
M  V30 13685 C 1261.29 -0.152226 -1.62087 0
M  V30 13686 O 1262.48 -0.404578 -1.73855 0
M  V30 13687 C 1259.58 -0.863519 -3.27714 0
M  V30 13688 C 1258.75 -2.03394 -3.87233 0
M  V30 13689 C 1257.81 -1.64846 -4.99712 0
M  V30 13690 O 1256.83 -2.3658 -5.17705 0
M  V30 13691 N 1258.04 -0.565909 -5.77735 0
M  V30 13692 H 1260.8 -2.19051 -2.0454 0
M  V30 13693 H 1258.36 -1.27785 -0.994113 0
M  V30 13694 H 1260.35 -0.58733 -4.00415 0
M  V30 13695 H 1258.92 0.0104987 -3.12598 0
M  V30 13696 H 1258.14 -2.47454 -3.06856 0
M  V30 13697 H 1259.43 -2.81655 -4.23731 0
M  V30 13698 H 1258.83 0.030313 -5.65692 0
M  V30 13699 H 1257.39 -0.349467 -6.50862 0
M  V30 13700 N 1260.82 1.03812 -1.18578 0
M  V30 13701 C 1262.23 1.58509 -0.986496 0
M  V30 13702 C 1262.58 1.90655 0.463136 0
M  V30 13703 O 1261.71 1.69847 1.34093 0
M  V30 13704 C 1262.3 2.88 -1.78441 0
M  V30 13705 C 1260.86 3.39304 -1.6294 0
M  V30 13706 C 1260.01 2.12857 -1.77727 0
M  V30 13707 H 1262.96 0.864528 -1.33085 0
M  V30 13708 H 1262.98 3.58502 -1.27501 0
M  V30 13709 H 1262.49 2.64572 -2.83942 0
M  V30 13710 H 1260.59 3.6774 -0.599864 0
M  V30 13711 H 1260.71 4.12959 -2.42902 0
M  V30 13712 H 1259.07 2.24285 -1.20699 0
M  V30 13713 H 1259.85 1.91882 -2.84669 0
M  V30 13714 N 1262.3 0.988223 1.22768 0
M  V30 13715 C 1263.54 0.672085 1.91975 0
M  V30 13716 C 1263.9 -0.786719 1.7558 0
M  V30 13717 O 1263.19 -1.561 1.111 0
M  V30 13718 C 1263.39 1.00744 3.42907 0
M  V30 13719 C 1263.21 2.4973 3.73985 0
M  V30 13720 C 1261.98 3.16058 3.94253 0
M  V30 13721 C 1264.18 3.47831 3.78838 0
M  V30 13722 N 1262.16 4.54568 4.12603 0
M  V30 13723 C 1263.54 4.7178 4.02273 0
M  V30 13724 C 1265.59 3.42203 3.61665 0
M  V30 13725 C 1264.29 5.90789 4.10318 0
M  V30 13726 C 1266.32 4.60584 3.70967 0
M  V30 13727 C 1265.68 5.83331 3.94847 0
M  V30 13728 H 1261.78 0.297129 0.723352 0
M  V30 13729 H 1264.36 1.26728 1.47811 0
M  V30 13730 H 1262.54 0.440869 3.8589 0
M  V30 13731 H 1264.27 0.647774 3.99482 0
M  V30 13732 H 1261.02 2.66536 3.91479 0
M  V30 13733 H 1261.45 5.26399 4.25715 0
M  V30 13734 H 1266.09 2.48323 3.42193 0
M  V30 13735 H 1263.81 6.85078 4.28596 0
M  V30 13736 H 1267.39 4.57813 3.59024 0
M  V30 13737 H 1266.27 6.73403 4.01868 0
M  V30 13738 N 1263.78 -1.38018 0.760839 0
M  V30 13739 C 1265.05 -1.94054 0.245437 0
M  V30 13740 C 1265.43 -1.6955 -1.25761 0
M  V30 13741 O 1264.78 -1.03812 -2.03557 0
M  V30 13742 C 1264.99 -3.43681 0.606986 0
M  V30 13743 C 1266.34 -4.20748 0.570673 0
M  V30 13744 O 1267.36 -3.51995 0.545715 0
M  V30 13745 O 1266.22 -5.43327 0.588043 0
M  V30 13746 H 1263.32 -0.825264 0.0535607 0
M  V30 13747 H 1265.86 -1.47369 0.841453 0
M  V30 13748 H 1264.63 -3.55054 1.64476 0
M  V30 13749 H 1264.26 -3.97597 -0.0166576 0
M  V30 13750 N 1265.25 -0.510493 -1.49103 0
M  V30 13751 C 1266.16 0.267176 -2.33074 0
M  V30 13752 C 1267.18 0.958117 -1.45245 0
M  V30 13753 O 1268.36 0.937399 -1.78255 0
M  V30 13754 C 1265.42 1.31212 -3.20911 0
M  V30 13755 C 1264.48 0.633613 -4.24598 0
M  V30 13756 C 1263.71 1.62878 -5.08239 0
M  V30 13757 O 1263.94 2.85958 -4.93543 0
M  V30 13758 O 1262.87 1.17887 -5.90242 0
M  V30 13759 H 1266.7 -0.420384 -3.00776 0
M  V30 13760 H 1264.28 -0.271683 -1.46909 0
M  V30 13761 H 1266.16 1.91647 -3.75299 0
M  V30 13762 H 1264.84 1.98244 -2.55892 0
M  V30 13763 H 1263.75 -0.0107246 -3.74098 0
M  V30 13764 H 1265.08 0.0055777 -4.922 0
M  V30 13765 N 1266.73 1.55688 -0.24474 0
M  V30 13766 C 1267.68 2.22682 0.67198 0
M  V30 13767 C 1268.67 1.21369 1.18178 0
M  V30 13768 O 1269.88 1.39387 1.13892 0
M  V30 13769 H 1266.25 0.714279 0.235181 0
M  V30 13770 H 1268.23 2.98282 0.0837704 0
M  V30 13771 C 1266.97 2.93835 1.85893 0
M  V30 13772 H 1266.3 3.71565 1.4758 0
M  V30 13773 H 1267.74 3.44077 2.47764 0
M  V30 13774 C 1266.2 1.97589 2.72874 0
M  V30 13775 O 1266.73 1.50758 3.72337 0
M  V30 13776 N 1264.93 1.64737 2.39395 0
M  V30 13777 H 1264.48 2.03015 1.58564 0
M  V30 13778 H 1264.44 1.00605 2.97869 0
M  V30 13779 N 1268.21 -0.0283989 1.57574 0
M  V30 13780 C 1269.16 -1.02881 2.06601 0
M  V30 13781 C 1270.13 -1.35879 0.955308 0
M  V30 13782 O 1271.31 -1.46205 1.22592 0
M  V30 13783 C 1268.45 -2.32447 2.55073 0
M  V30 13784 C 1267.56 -2.05602 3.79937 0
M  V30 13785 C 1266.7 -3.29043 4.17018 0
M  V30 13786 C 1265.74 -2.97755 5.34797 0
M  V30 13787 N 1264.88 -4.1365 5.67308 0
M  V30 13788 H 1269.72 -0.603772 2.91819 0
M  V30 13789 H 1267.25 -0.286503 1.44283 0
M  V30 13790 H 1269.21 -3.08152 2.81244 0
M  V30 13791 H 1267.84 -2.72672 1.72771 0
M  V30 13792 H 1266.89 -1.2039 3.60847 0
M  V30 13793 H 1268.2 -1.78522 4.65759 0
M  V30 13794 H 1267.36 -4.13115 4.4432 0
M  V30 13795 H 1266.1 -3.59237 3.29849 0
M  V30 13796 H 1265.1 -2.12085 5.07247 0
M  V30 13797 H 1266.33 -2.68839 6.23621 0
M  V30 13798 H 1264.27 -4.43794 4.83097 0
M  V30 13799 H 1264.19 -3.89996 6.47641 0
M  V30 13800 H 1265.46 -4.98594 5.99186 0
M  V30 13801 N 1269.69 -1.54705 -0.300681 0
M  V30 13802 C 1270.94 -1.73211 -1.03349 0
M  V30 13803 C 1271.25 -0.52518 -1.88418 0
M  V30 13804 O 1272.46 -0.592049 -2.64966 0
M  V30 13805 C 1270.91 -3.06453 -1.88717 0
M  V30 13806 C 1270.52 -4.34625 -1.0865 0
M  V30 13807 C 1272.26 -3.34317 -2.61595 0
M  V30 13808 C 1270.17 -5.58919 -1.93297 0
M  V30 13809 H 1269.1 -0.64556 -0.389574 0
M  V30 13810 H 1271.75 -1.81186 -0.290472 0
M  V30 13811 H 1270.13 -2.92443 -2.67008 0
M  V30 13812 H 1271.31 -4.59471 -0.349707 0
M  V30 13813 H 1269.62 -4.13699 -0.473521 0
M  V30 13814 H 1272.22 -4.2438 -3.25278 0
M  V30 13815 H 1272.56 -2.53207 -3.30442 0
M  V30 13816 H 1273.1 -3.493 -1.90354 0
M  V30 13817 H 1269.83 -6.42697 -1.2892 0
M  V30 13818 H 1269.35 -5.38258 -2.64647 0
M  V30 13819 H 1271.03 -5.96187 -2.51336 0
M  V30 13820 N 1271.17 0.563888 -1.47167 0
M  V30 13821 C 1272.39 1.35176 -1.57297 0
M  V30 13822 C 1272.82 1.86794 -0.221235 0
M  V30 13823 O 1272.17 1.62606 0.801809 0
M  V30 13824 C 1272.22 2.50225 -2.59654 0
M  V30 13825 O 1271.33 3.5225 -2.14461 0
M  V30 13826 H 1270.67 0.401795 -0.528637 0
M  V30 13827 H 1273.2 0.682137 -1.92894 0
M  V30 13828 H 1273.21 2.96886 -2.79862 0
M  V30 13829 H 1271.88 2.1201 -3.57805 0
M  V30 13830 H 1270.46 3.1194 -2.04323 0
M  V30 13831 N 1272.64 1.35187 0.810078 0
M  V30 13832 C 1273.58 1.23673 1.92971 0
M  V30 13833 C 1274.59 0.160819 1.62004 0
M  V30 13834 O 1275.78 0.413793 1.73638 0
M  V30 13835 C 1272.88 0.880887 3.27252 0
M  V30 13836 C 1272.05 2.05444 3.86149 0
M  V30 13837 C 1271.11 1.67494 4.98831 0
M  V30 13838 O 1270.14 2.39322 5.16443 0
M  V30 13839 N 1271.34 0.596539 5.77427 0
M  V30 13840 H 1274.1 2.20133 2.03376 0
M  V30 13841 H 1271.66 1.2831 0.987322 0
M  V30 13842 H 1273.66 0.608556 4.00098 0
M  V30 13843 H 1272.23 0.00607926 3.12599 0
M  V30 13844 H 1271.45 2.49077 3.05539 0
M  V30 13845 H 1272.73 2.83898 4.22231 0
M  V30 13846 H 1272.13 -0.000312591 5.657 0
M  V30 13847 H 1270.69 0.383979 6.50668 0
M  V30 13848 N 1274.12 -1.03182 1.19127 0
M  V30 13849 C 1275.54 -1.28773 0.942854 0
M  V30 13850 C 1275.74 -1.97759 -0.386483 0
M  V30 13851 O 1274.79 -2.26365 -1.1187 0
M  V30 13852 C 1276.11 -2.13771 2.11476 0
M  V30 13853 C 1277.66 -2.27089 2.15406 0
M  V30 13854 C 1278.13 -3.15458 3.32039 0
M  V30 13855 N 1279.62 -3.23046 3.31957 0
M  V30 13856 C 1280.36 -3.91604 4.18848 0
M  V30 13857 N 1279.85 -4.62418 5.15889 0
M  V30 13858 N 1281.65 -3.87974 4.06734 0
M  V30 13859 H 1273.8 -0.568165 2.0466 0
M  V30 13860 H 1276.06 -0.31328 0.89474 0
M  V30 13861 H 1275.77 -1.704 3.07663 0
M  V30 13862 H 1275.64 -3.14476 2.0829 0
M  V30 13863 H 1278.03 -2.69693 1.19791 0
M  V30 13864 H 1278.11 -1.25945 2.22647 0
M  V30 13865 H 1277.75 -2.73564 4.27931 0
M  V30 13866 H 1277.68 -4.16654 3.22035 0
M  V30 13867 H 1280.17 -2.7261 2.6171 0
M  V30 13868 H 1280.49 -5.12353 5.78545 0
M  V30 13869 H 1278.83 -4.61293 5.1984 0
M  V30 13870 H 1282.02 -3.31789 3.30202 0
M  V30 13871 H 1282.19 -4.4113 4.74666 0
M  V30 13872 N 1275.6 -0.99472 -1.22242 0
M  V30 13873 C 1276.85 -0.670275 -1.90661 0
M  V30 13874 C 1277.17 0.800369 -1.77818 0
M  V30 13875 O 1276.44 1.57381 -1.16653 0
M  V30 13876 H 1275.02 -0.244925 -0.705706 0
M  V30 13877 H 1277.68 -1.26162 -1.48557 0
M  V30 13878 H 1276.78 -0.934408 -2.97784 0
M  V30 13879 N 1277.08 1.37613 -0.768148 0
M  V30 13880 C 1278.36 1.93921 -0.255724 0
M  V30 13881 C 1278.74 1.70215 1.2486 0
M  V30 13882 O 1278.08 1.0489 2.03003 0
M  V30 13883 C 1278.29 3.43354 -0.625204 0
M  V30 13884 C 1279.64 4.20439 -0.592978 0
M  V30 13885 O 1280.67 3.51701 -0.564375 0
M  V30 13886 O 1279.52 5.43008 -0.616849 0
M  V30 13887 H 1276.62 0.824968 -0.0579366 0
M  V30 13888 H 1279.16 1.46921 -0.849257 0
M  V30 13889 H 1277.94 3.54177 -1.66356 0
M  V30 13890 H 1277.56 3.976 -0.00442816 0
M  V30 13891 N 1278.56 0.518393 1.4883 0
M  V30 13892 C 1279.5 -0.250684 2.29435 0
M  V30 13893 C 1280.47 -0.944481 1.36634 0
M  V30 13894 O 1281.66 -0.947766 1.65596 0
M  V30 13895 C 1278.8 -1.29871 3.1973 0
M  V30 13896 C 1277.91 -0.61493 4.27601 0
M  V30 13897 C 1277.05 -1.64489 5.05091 0
M  V30 13898 C 1276.09 -0.943932 6.04778 0
M  V30 13899 N 1275.22 -1.91889 6.75369 0
M  V30 13900 H 1280.06 0.44288 2.94691 0
M  V30 13901 H 1277.6 0.230246 1.45287 0
M  V30 13902 H 1279.56 -1.91851 3.70471 0
M  V30 13903 H 1278.19 -1.96081 2.56422 0
M  V30 13904 H 1277.24 0.118552 3.80215 0
M  V30 13905 H 1278.55 -0.063994 4.98759 0
M  V30 13906 H 1277.71 -2.33928 5.59788 0
M  V30 13907 H 1276.44 -2.2297 4.33746 0
M  V30 13908 H 1275.45 -0.235407 5.49296 0
M  V30 13909 H 1276.67 -0.365383 6.78116 0
M  V30 13910 H 1274.62 -2.493 6.06783 0
M  V30 13911 H 1274.54 -1.41909 7.42562 0
M  V30 13912 H 1275.81 -2.60563 7.34661 0
M  V30 13913 N 1280.03 -1.55556 0.252993 0
M  V30 13914 C 1281.28 -1.98697 -0.369319 0
M  V30 13915 C 1281.6 -1.14256 -1.58021 0
M  V30 13916 O 1280.87 -0.226779 -1.94583 0
M  V30 13917 H 1279.45 -0.733869 -0.139444 0
M  V30 13918 H 1282.12 -1.91673 0.353197 0
M  V30 13919 H 1281.21 -3.04728 -0.674312 0
M  V30 13920 N 1281.51 0.0200419 -1.57587 0
M  V30 13921 C 1282.76 0.709027 -1.89681 0
M  V30 13922 C 1283.09 1.74876 -0.851396 0
M  V30 13923 O 1282.34 1.95151 0.146483 0
M  V30 13924 C 1282.64 1.40729 -3.28527 0
M  V30 13925 C 1282.31 0.502686 -4.48089 0
M  V30 13926 C 1280.97 0.253558 -4.80532 0
M  V30 13927 C 1283.32 -0.121338 -5.21059 0
M  V30 13928 C 1280.65 -0.628221 -5.83327 0
M  V30 13929 C 1283 -0.990873 -6.24792 0
M  V30 13930 C 1281.67 -1.24937 -6.55703 0
M  V30 13931 H 1280.94 0.259451 -0.694094 0
M  V30 13932 H 1283.58 -0.03118 -1.91475 0
M  V30 13933 H 1281.89 2.22105 -3.22764 0
M  V30 13934 H 1283.58 1.94609 -3.50611 0
M  V30 13935 H 1280.17 0.707018 -4.22728 0
M  V30 13936 H 1284.36 0.0581516 -4.96266 0
M  V30 13937 H 1279.61 -0.836712 -6.05648 0
M  V30 13938 H 1283.79 -1.48087 -6.80473 0
M  V30 13939 H 1281.42 -1.93436 -7.35178 0
M  V30 13940 N 1282.99 1.54862 0.292472 0
M  V30 13941 C 1284.24 1.74203 1.02458 0
M  V30 13942 C 1284.56 0.535398 1.87506 0
M  V30 13943 O 1283.83 -0.450164 1.90658 0
M  V30 13944 H 1282.41 0.642369 0.381276 0
M  V30 13945 H 1285.07 1.92232 0.321398 0
M  V30 13946 H 1284.17 2.63486 1.67277 0
M  V30 13947 N 1284.47 -0.556076 1.47464 0
M  V30 13948 C 1285.69 -1.3434 1.58011 0
M  V30 13949 C 1286.12 -1.86674 0.231138 0
M  V30 13950 O 1285.48 -1.63029 -0.793174 0
M  V30 13951 C 1285.52 -2.48844 2.60977 0
M  V30 13952 O 1284.63 -3.51108 2.16326 0
M  V30 13953 H 1283.97 -0.398986 0.53076 0
M  V30 13954 H 1286.5 -0.671898 1.93253 0
M  V30 13955 H 1286.51 -2.95398 2.81432 0
M  V30 13956 H 1285.18 -2.10109 3.58925 0
M  V30 13957 H 1283.76 -3.10852 2.05975 0
M  V30 13958 N 1285.95 -1.35615 -0.802897 0
M  V30 13959 C 1287.18 -1.32217 -1.59142 0
M  V30 13960 C 1287.59 0.0995496 -1.88537 0
M  V30 13961 O 1286.95 1.05258 -1.49087 0
M  V30 13962 C 1287 -2.13048 -2.92049 0
M  V30 13963 O 1286.72 -3.49677 -2.63927 0
M  V30 13964 C 1288.22 -2.17278 -3.864 0
M  V30 13965 H 1285.44 -0.454054 -0.49404 0
M  V30 13966 H 1287.98 -1.78521 -0.997516 0
M  V30 13967 H 1286.14 -1.70334 -3.47944 0
M  V30 13968 H 1286.55 -3.917 -3.48814 0
M  V30 13969 H 1288.03 -2.7822 -4.76758 0
M  V30 13970 H 1288.5 -1.17253 -4.23259 0
M  V30 13971 H 1289.11 -2.6017 -3.3644 0
M  V30 13972 N 1287.43 1.02549 -1.19673 0
M  V30 13973 C 1288.67 1.75656 -0.999463 0
M  V30 13974 C 1288.99 1.89238 0.470517 0
M  V30 13975 O 1288.26 1.42843 1.34062 0
M  V30 13976 H 1286.84 0.650732 -0.366821 0
M  V30 13977 H 1289.51 1.23684 -1.50627 0
M  V30 13978 H 1288.6 2.76353 -1.45035 0
M  V30 13979 N 1288.9 1.00119 1.21713 0
M  V30 13980 C 1290.15 0.682733 1.90962 0
M  V30 13981 C 1290.48 -0.784131 1.77665 0
M  V30 13982 O 1289.76 -1.56799 1.15084 0
M  V30 13983 C 1290.04 1.09975 3.42896 0
M  V30 13984 C 1289.89 2.62578 3.65202 0
M  V30 13985 C 1291.21 0.659247 4.35134 0
M  V30 13986 H 1288.33 0.249501 0.693483 0
M  V30 13987 H 1290.97 1.24619 1.43423 0
M  V30 13988 H 1289.12 0.620334 3.83515 0
M  V30 13989 H 1290.8 3.18254 3.33934 0
M  V30 13990 H 1289.04 3.04268 3.09198 0
M  V30 13991 H 1289.71 2.86809 4.7164 0
M  V30 13992 H 1292.19 1.07116 4.02076 0
M  V30 13993 H 1291.06 0.979241 5.40095 0
M  V30 13994 H 1291.32 -0.439777 4.39907 0
M  V30 13995 N 1290.38 -1.37203 0.775435 0
M  V30 13996 C 1291.63 -1.99601 0.341431 0
M  V30 13997 C 1291.96 -1.61555 -1.08306 0
M  V30 13998 O 1291.21 -0.855126 -1.76029 0
M  V30 13999 C 1291.51 -3.54725 0.436426 0
M  V30 14000 C 1291.18 -4.1255 1.8197 0
M  V30 14001 C 1289.84 -4.28056 2.19822 0
M  V30 14002 C 1292.19 -4.44222 2.7261 0
M  V30 14003 C 1289.52 -4.72538 3.47742 0
M  V30 14004 C 1291.87 -4.90131 3.99943 0
M  V30 14005 C 1290.53 -5.03842 4.37835 0
M  V30 14006 H 1289.8 -0.730391 0.124938 0
M  V30 14007 H 1292.45 -1.63914 0.990177 0
M  V30 14008 H 1290.76 -3.90681 -0.295852 0
M  V30 14009 H 1292.45 -4.00916 0.0818664 0
M  V30 14010 H 1289.04 -4.00911 1.51553 0
M  V30 14011 H 1293.23 -4.31824 2.44625 0
M  V30 14012 H 1288.48 -4.81341 3.76989 0
M  V30 14013 H 1292.66 -5.13604 4.70302 0
M  V30 14014 H 1290.28 -5.3807 5.37015 0
M  V30 14015 N 1291.86 -0.526279 -1.48553 0
M  V30 14016 C 1293.11 0.00107127 -2.034 0
M  V30 14017 C 1293.46 1.32343 -1.39654 0
M  V30 14018 O 1292.75 1.84071 -0.531835 0
M  V30 14019 C 1292.95 0.184075 -3.56926 0
M  V30 14020 C 1292.78 -1.11899 -4.35556 0
M  V30 14021 C 1291.55 -1.67784 -4.76631 0
M  V30 14022 C 1293.74 -2.02868 -4.72598 0
M  V30 14023 N 1291.73 -2.92418 -5.39783 0
M  V30 14024 C 1293.1 -3.12078 -5.35731 0
M  V30 14025 C 1295.15 -2.03239 -4.54531 0
M  V30 14026 C 1293.86 -4.21719 -5.82705 0
M  V30 14027 C 1295.88 -3.11872 -5.02484 0
M  V30 14028 C 1295.24 -4.19801 -5.65638 0
M  V30 14029 H 1291.34 -0.0410153 -0.780924 0
M  V30 14030 H 1293.93 -0.706739 -1.8142 0
M  V30 14031 H 1292.1 0.860966 -3.78737 0
M  V30 14032 H 1293.83 0.710699 -3.98411 0
M  V30 14033 H 1290.58 -1.2197 -4.57625 0
M  V30 14034 H 1291.01 -3.55862 -5.75927 0
M  V30 14035 H 1295.65 -1.21092 -4.05088 0
M  V30 14036 H 1293.37 -5.04647 -6.31155 0
M  V30 14037 H 1296.95 -3.1321 -4.90297 0
M  V30 14038 H 1295.83 -5.02475 -6.0207 0
M  V30 14039 N 1293.34 1.5542 -0.261239 0
M  V30 14040 C 1294.58 1.99579 0.36002 0
M  V30 14041 C 1294.92 1.14933 1.56538 0
M  V30 14042 O 1294.19 0.216082 1.93296 0
M  V30 14043 C 1294.47 3.52078 0.755842 0
M  V30 14044 C 1294.33 4.47484 -0.455896 0
M  V30 14045 C 1295.65 4.10083 1.5975 0
M  V30 14046 H 1292.77 0.725554 0.129385 0
M  V30 14047 H 1295.41 1.86453 -0.365415 0
M  V30 14048 H 1293.56 3.63394 1.37393 0
M  V30 14049 H 1295.23 4.4813 -1.09441 0
M  V30 14050 H 1293.47 4.19714 -1.09646 0
M  V30 14051 H 1294.14 5.51834 -0.13539 0
M  V30 14052 H 1296.62 4.01957 1.07562 0
M  V30 14053 H 1295.5 5.17024 1.84329 0
M  V30 14054 H 1295.76 3.59438 2.57404 0
M  V30 14055 N 1294.82 -0.0116844 1.57596 0
M  V30 14056 C 1295.73 -1.02342 2.111 0
M  V30 14057 C 1296.74 -1.38478 1.05355 0
M  V30 14058 O 1297.92 -1.47447 1.37191 0
M  V30 14059 C 1294.98 -2.30016 2.5941 0
M  V30 14060 C 1294.04 -2.003 3.79708 0
M  V30 14061 C 1293.28 -3.21888 4.25704 0
M  V30 14062 O 1293.5 -4.33171 3.71106 0
M  V30 14063 O 1292.43 -3.0657 5.17975 0
M  V30 14064 H 1296.26 -0.598637 2.97742 0
M  V30 14065 H 1293.84 -0.229779 1.47622 0
M  V30 14066 H 1295.73 -3.05044 2.90733 0
M  V30 14067 H 1294.4 -2.71755 1.75871 0
M  V30 14068 H 1293.31 -1.22785 3.53376 0
M  V30 14069 H 1294.64 -1.63406 4.64284 0
M  V30 14070 N 1296.29 -1.55015 -0.284256 0
M  V30 14071 C 1297.24 -1.87898 -1.37102 0
M  V30 14072 C 1298.24 -0.754231 -1.51683 0
M  V30 14073 O 1299.44 -0.93844 -1.53601 0
M  V30 14074 H 1295.82 -0.596208 -0.458301 0
M  V30 14075 H 1297.79 -2.78704 -1.06613 0
M  V30 14076 C 1296.54 -2.15764 -2.72656 0
M  V30 14077 H 1295.86 -3.01792 -2.62224 0
M  V30 14078 H 1297.3 -2.42701 -3.47667 0
M  V30 14079 C 1295.76 -0.961561 -3.22886 0
M  V30 14080 O 1296.29 -0.190489 -4.01248 0
M  V30 14081 N 1294.49 -0.762338 -2.80422 0
M  V30 14082 H 1294.04 -1.39104 -2.16813 0
M  V30 14083 H 1294 0.0363482 -3.14379 0
M  V30 14084 N 1297.77 0.548248 -1.47757 0
M  V30 14085 C 1299.02 1.30139 -1.54099 0
M  V30 14086 C 1299.33 1.9445 -0.2118 0
M  V30 14087 O 1300.54 2.71067 -0.153302 0
M  V30 14088 C 1299 2.36039 -2.71687 0
M  V30 14089 C 1298.6 1.77879 -4.11173 0
M  V30 14090 C 1300.35 3.12478 -2.87329 0
M  V30 14091 C 1298.25 2.81611 -5.20047 0
M  V30 14092 H 1297.18 0.489364 -0.573619 0
M  V30 14093 H 1299.84 0.581237 -1.74051 0
M  V30 14094 H 1298.22 3.11008 -2.45132 0
M  V30 14095 H 1299.39 1.09221 -4.47669 0
M  V30 14096 H 1297.71 1.13994 -4.00493 0
M  V30 14097 H 1300.3 3.89958 -3.65837 0
M  V30 14098 H 1300.65 3.67218 -1.96103 0
M  V30 14099 H 1301.18 2.4462 -3.13697 0
M  V30 14100 H 1297.92 2.31714 -6.13179 0
M  V30 14101 H 1297.44 3.48652 -4.88059 0
M  V30 14102 H 1299.12 3.44938 -5.47382 0
M  V30 14103 N 1299.25 1.36039 0.795694 0
M  V30 14104 C 1300.18 1.25713 1.91648 0
M  V30 14105 C 1301.19 0.177993 1.61824 0
M  V30 14106 O 1302.38 0.432186 1.73189 0
M  V30 14107 C 1299.48 0.915546 3.26299 0
M  V30 14108 C 1298.66 2.09528 3.83949 0
M  V30 14109 C 1297.72 1.72775 4.97026 0
M  V30 14110 O 1296.74 2.44786 5.13876 0
M  V30 14111 N 1297.94 0.65775 5.76762 0
M  V30 14112 H 1300.71 2.22277 2.01029 0
M  V30 14113 H 1298.27 1.2935 0.973657 0
M  V30 14114 H 1300.26 0.650958 3.9943 0
M  V30 14115 H 1298.83 0.0392343 3.12575 0
M  V30 14116 H 1298.05 2.52304 3.0288 0
M  V30 14117 H 1299.34 2.88361 4.19196 0
M  V30 14118 H 1298.74 0.0596875 5.65669 0
M  V30 14119 H 1297.29 0.45297 6.50224 0
M  V30 14120 N 1300.73 -1.01913 1.20215 0
M  V30 14121 C 1301.64 -2.13864 0.964328 0
M  V30 14122 C 1302.65 -1.73821 -0.0789556 0
M  V30 14123 O 1303.83 -2.01111 0.107914 0
M  V30 14124 C 1300.9 -3.42827 0.516757 0
M  V30 14125 C 1299.96 -3.97127 1.63059 0
M  V30 14126 C 1299.19 -5.19935 1.20428 0
M  V30 14127 O 1299.41 -5.70355 0.0719119 0
M  V30 14128 O 1298.35 -5.67322 2.01071 0
M  V30 14129 H 1302.17 -2.36795 1.90162 0
M  V30 14130 H 1299.76 -1.1226 0.985803 0
M  V30 14131 H 1301.64 -4.20493 0.276272 0
M  V30 14132 H 1300.31 -3.21318 -0.391983 0
M  V30 14133 H 1299.22 -3.20752 1.92533 0
M  V30 14134 H 1300.55 -4.2302 2.51624 0
M  V30 14135 N 1302.21 -1.00763 -1.2118 0
M  V30 14136 C 1303.17 -0.575183 -2.21865 0
M  V30 14137 C 1304.17 0.349871 -1.56948 0
M  V30 14138 O 1305.36 0.139795 -1.73638 0
M  V30 14139 C 1302.49 0.161308 -3.40518 0
M  V30 14140 H 1303.68 -1.46578 -2.61639 0
M  V30 14141 H 1301.24 -0.79643 -1.34487 0
M  V30 14142 H 1301.97 1.06723 -3.06236 0
M  V30 14143 H 1301.76 -0.503101 -3.88859 0
M  V30 14144 H 1303.25 0.451527 -4.15152 0
M  V30 14145 N 1303.68 1.3679 -0.7827 0
M  V30 14146 C 1304.62 2.28805 -0.13451 0
M  V30 14147 C 1305.63 1.49159 0.652338 0
M  V30 14148 O 1306.82 1.71682 0.488626 0
M  V30 14149 C 1303.92 3.28508 0.832802 0
M  V30 14150 C 1303.09 4.37291 0.0974435 0
M  V30 14151 C 1302.15 5.16999 0.979715 0
M  V30 14152 O 1301.18 5.67501 0.439439 0
M  V30 14153 N 1302.38 5.32786 2.30477 0
M  V30 14154 H 1305.14 2.85072 -0.924873 0
M  V30 14155 H 1302.7 1.48884 -0.636012 0
M  V30 14156 H 1304.7 3.78718 1.42671 0
M  V30 14157 H 1303.27 2.7293 1.52408 0
M  V30 14158 H 1302.49 3.88335 -0.677483 0
M  V30 14159 H 1303.77 5.07143 -0.410259 0
M  V30 14160 H 1303.17 4.93358 2.76793 0
M  V30 14161 H 1301.73 5.86264 2.84848 0
M  V30 14162 N 1305.16 0.53415 1.48272 0
M  V30 14163 C 1306.44 -0.0630181 1.95498 0
M  V30 14164 C 1306.82 -1.50877 1.47646 0
M  V30 14165 O 1306.17 -2.17358 0.704829 0
M  V30 14166 C 1306.38 0.0585475 3.48951 0
M  V30 14167 C 1307.73 -0.0985978 4.24486 0
M  V30 14168 O 1308.75 -0.0150438 3.56197 0
M  V30 14169 O 1307.61 -0.274356 5.45811 0
M  V30 14170 H 1304.7 -0.0769841 0.823409 0
M  V30 14171 H 1307.25 0.599043 1.58775 0
M  V30 14172 H 1306.02 1.06549 3.76514 0
M  V30 14173 H 1305.64 -0.642175 3.9238 0
M  V30 14174 N 1306.64 -1.55279 0.269478 0
M  V30 14175 C 1307.55 -2.25965 -0.63065 0
M  V30 14176 C 1308.57 -1.28357 -1.17476 0
M  V30 14177 O 1309.74 -1.61281 -1.20625 0
M  V30 14178 C 1306.81 -2.96263 -1.80081 0
M  V30 14179 C 1305.87 -4.09336 -1.29394 0
M  V30 14180 C 1305.1 -4.76272 -2.40833 0
M  V30 14181 O 1305.32 -4.42389 -3.60066 0
M  V30 14182 O 1304.26 -5.64334 -2.09309 0
M  V30 14183 H 1308.08 -3.03644 -0.0582069 0
M  V30 14184 H 1305.67 -1.49354 0.0370966 0
M  V30 14185 H 1307.55 -3.40461 -2.48322 0
M  V30 14186 H 1306.23 -2.21505 -2.36045 0
M  V30 14187 H 1305.13 -3.69605 -0.578154 0
M  V30 14188 H 1306.47 -4.85978 -0.780117 0
M  V30 14189 N 1308.12 0.00332656 -1.576 0
M  V30 14190 C 1309.07 1.00425 -2.04692 0
M  V30 14191 C 1310.05 1.30514 -0.941011 0
M  V30 14192 O 1311.24 1.29667 -1.2048 0
M  V30 14193 C 1308.37 2.29731 -2.55105 0
M  V30 14194 C 1307.46 2.02621 -3.72566 0
M  V30 14195 N 1307.85 1.45657 -4.84373 0
M  V30 14196 C 1306.15 2.3278 -3.80433 0
M  V30 14197 C 1306.85 1.34942 -5.65832 0
M  V30 14198 N 1305.83 1.83389 -5.11732 0
M  V30 14199 H 1309.63 0.558262 -2.88549 0
M  V30 14200 H 1307.14 0.209094 -1.61048 0
M  V30 14201 H 1309.14 3.02274 -2.87116 0
M  V30 14202 H 1307.8 2.74985 -1.72665 0
M  V30 14203 H 1308.81 1.13582 -5.05291 0
M  V30 14204 H 1305.49 2.80932 -3.08842 0
M  V30 14205 H 1306.88 0.911707 -6.65686 0
M  V30 14206 N 1309.6 1.55164 0.276031 0
M  V30 14207 C 1310.51 1.90928 1.36321 0
M  V30 14208 C 1311.52 0.806183 1.54197 0
M  V30 14209 O 1312.7 1.10497 1.68382 0
M  V30 14210 C 1309.76 2.17123 2.70293 0
M  V30 14211 C 1308.82 3.40703 2.6119 0
M  V30 14212 C 1308.06 3.65638 3.88773 0
M  V30 14213 O 1308.28 2.93137 4.89313 0
M  V30 14214 O 1307.21 4.59172 3.89159 0
M  V30 14215 H 1311.04 2.8347 1.08988 0
M  V30 14216 H 1308.63 1.41672 0.474292 0
M  V30 14217 H 1310.51 2.3541 3.49514 0
M  V30 14218 H 1309.18 1.27765 2.97419 0
M  V30 14219 H 1308.09 3.27754 1.80355 0
M  V30 14220 H 1309.42 4.30271 2.39014 0
M  V30 14221 N 1311.07 -0.540404 1.48045 0
M  V30 14222 C 1312.02 -1.66695 1.62221 0
M  V30 14223 C 1313.02 -1.6219 0.488943 0
M  V30 14224 O 1314.22 -1.67173 0.66732 0
M  V30 14225 H 1310.6 -0.551868 0.510828 0
M  V30 14226 H 1312.57 -1.51879 2.56856 0
M  V30 14227 C 1311.32 -3.05002 1.6694 0
M  V30 14228 H 1310.64 -3.09157 2.53499 0
M  V30 14229 H 1312.08 -3.8347 1.80904 0
M  V30 14230 C 1310.54 -3.34445 0.40598 0
M  V30 14231 O 1311.07 -3.98753 -0.485676 0
M  V30 14232 N 1309.28 -2.8924 0.280857 0
M  V30 14233 H 1308.82 -2.37085 1.00741 0
M  V30 14234 H 1308.78 -3.09309 -0.563493 0
M  V30 14235 N 1312.55 -1.36459 -0.788468 0
M  V30 14236 C 1313.8 -1.31942 -1.54799 0
M  V30 14237 C 1314.15 0.100282 -1.92138 0
M  V30 14238 O 1313.45 1.05505 -1.59935 0
M  V30 14239 C 1313.64 -2.17672 -2.83467 0
M  V30 14240 C 1313.47 -3.67836 -2.58702 0
M  V30 14241 C 1312.24 -4.37009 -2.53675 0
M  V30 14242 C 1314.44 -4.61081 -2.27835 0
M  V30 14243 N 1312.42 -5.72811 -2.20817 0
M  V30 14244 C 1313.79 -5.85137 -2.04973 0
M  V30 14245 C 1315.85 -4.49636 -2.13849 0
M  V30 14246 C 1314.55 -6.99034 -1.69541 0
M  V30 14247 C 1316.57 -5.63401 -1.79816 0
M  V30 14248 C 1315.94 -6.86497 -1.57803 0
M  V30 14249 H 1312.04 -0.538087 -0.567438 0
M  V30 14250 H 1314.62 -1.7152 -0.921358 0
M  V30 14251 H 1312.79 -1.80338 -3.43995 0
M  V30 14252 H 1314.52 -2.04539 -3.49208 0
M  V30 14253 H 1311.28 -3.89822 -2.68953 0
M  V30 14254 H 1311.7 -6.44535 -2.07132 0
M  V30 14255 H 1316.34 -3.55054 -2.29558 0
M  V30 14256 H 1314.06 -7.93567 -1.52571 0
M  V30 14257 H 1317.65 -5.56508 -1.69677 0
M  V30 14258 H 1316.53 -7.73036 -1.31855 0
M  V30 14259 N 1314.03 1.01274 -1.20754 0
M  V30 14260 C 1314.98 2.08285 -0.927426 0
M  V30 14261 C 1315.96 1.60494 0.114286 0
M  V30 14262 O 1317.16 1.76752 -0.0936086 0
M  V30 14263 C 1314.29 3.39849 -0.485546 0
M  V30 14264 C 1313.37 3.94331 -1.5609 0
M  V30 14265 N 1313.76 4.22274 -2.78421 0
M  V30 14266 C 1312.06 4.22522 -1.42797 0
M  V30 14267 C 1312.76 4.66262 -3.47813 0
M  V30 14268 N 1311.74 4.68771 -2.75235 0
M  V30 14269 H 1315.54 2.27804 -1.85695 0
M  V30 14270 H 1313.05 1.19278 -1.10211 0
M  V30 14271 H 1315.05 4.16049 -0.266263 0
M  V30 14272 H 1313.71 3.21742 0.437301 0
M  V30 14273 H 1314.72 4.11063 -3.15036 0
M  V30 14274 H 1311.4 4.13593 -0.569819 0
M  V30 14275 H 1312.79 4.9667 -4.52513 0
M  V30 14276 N 1315.51 1.01404 1.20644 0
M  V30 14277 C 1316.74 0.72104 1.93929 0
M  V30 14278 C 1317.15 -0.717853 1.7462 0
M  V30 14279 O 1316.51 -1.48664 1.05855 0
M  V30 14280 C 1316.56 1.04399 3.46097 0
M  V30 14281 O 1316.28 2.42637 3.64773 0
M  V30 14282 C 1317.78 0.771678 4.36532 0
M  V30 14283 H 1315 0.264983 0.616462 0
M  V30 14284 H 1317.55 1.35453 1.53208 0
M  V30 14285 H 1315.7 0.455946 3.84708 0
M  V30 14286 H 1316.12 2.54201 4.58783 0
M  V30 14287 H 1317.59 1.04774 5.41965 0
M  V30 14288 H 1318.07 -0.294188 4.38214 0
M  V30 14289 H 1318.67 1.34176 4.0358 0
M  V30 14290 N 1316.99 -1.36373 0.789944 0
M  V30 14291 C 1318.21 -2.04011 0.373396 0
M  V30 14292 C 1318.64 -1.59171 -1.00231 0
M  V30 14293 O 1318 -0.760431 -1.64582 0
M  V30 14294 C 1318.04 -3.5783 0.446083 0
M  V30 14295 O 1317.15 -4.08759 -0.54678 0
M  V30 14296 H 1316.49 -0.644807 0.158495 0
M  V30 14297 H 1319.02 -1.74317 1.0712 0
M  V30 14298 H 1319.03 -4.06822 0.309877 0
M  V30 14299 H 1317.7 -3.89819 1.44962 0
M  V30 14300 H 1316.28 -3.71038 -0.372192 0
M  V30 14301 N 1318.47 -0.542005 -1.47987 0
M  V30 14302 C 1319.88 -0.104646 -1.86406 0
M  V30 14303 C 1320.23 1.32139 -1.4503 0
M  V30 14304 O 1319.35 1.99159 -0.846439 0
M  V30 14305 C 1319.95 -0.183133 -3.38305 0
M  V30 14306 C 1318.51 0.199098 -3.75873 0
M  V30 14307 C 1317.65 -0.537532 -2.7204 0
M  V30 14308 H 1320.6 -0.75259 -1.3972 0
M  V30 14309 H 1320.63 0.602149 -3.75705 0
M  V30 14310 H 1320.14 -1.22113 -3.68389 0
M  V30 14311 H 1318.24 1.23878 -3.51404 0
M  V30 14312 H 1318.35 -0.14888 -4.78869 0
M  V30 14313 H 1316.72 0.0176255 -2.54694 0
M  V30 14314 H 1317.5 -1.57639 -3.04967 0
M  V30 14315 N 1319.94 1.55134 -0.277709 0
M  V30 14316 C 1320.89 2.2263 0.608637 0
M  V30 14317 C 1321.86 1.20067 1.14774 0
M  V30 14318 O 1323.05 1.48617 1.19657 0
M  V30 14319 C 1320.19 2.95308 1.78571 0
M  V30 14320 C 1319.3 4.12595 1.28021 0
M  V30 14321 C 1318.43 4.7291 2.41929 0
M  V30 14322 C 1317.47 5.82386 1.88395 0
M  V30 14323 N 1316.61 6.36754 2.95786 0
M  V30 14324 H 1321.45 2.97988 0.0264138 0
M  V30 14325 H 1318.99 1.471 0.00127068 0
M  V30 14326 H 1320.94 3.35662 2.47764 0
M  V30 14327 H 1319.57 2.22368 2.33992 0
M  V30 14328 H 1318.63 3.77343 0.481297 0
M  V30 14329 H 1319.94 4.91537 0.848128 0
M  V30 14330 H 1319.09 5.15997 3.1911 0
M  V30 14331 H 1317.83 3.93251 2.88453 0
M  V30 14332 H 1316.84 5.38746 1.09694 0
M  V30 14333 H 1318.06 6.63916 1.42803 0
M  V30 14334 H 1316.01 5.59987 3.41687 0
M  V30 14335 H 1315.92 7.10975 2.57002 0
M  V30 14336 H 1317.19 6.845 3.72935 0
M  V30 14337 N 1321.42 0.00503138 1.57599 0
M  V30 14338 C 1322.67 -0.677979 1.89964 0
M  V30 14339 C 1322.98 -1.74657 0.88059 0
M  V30 14340 O 1324.19 -2.48455 1.09463 0
M  V30 14341 C 1322.65 -1.25708 3.37232 0
M  V30 14342 C 1322.25 -0.223045 4.47444 0
M  V30 14343 C 1324 -1.91799 3.787 0
M  V30 14344 C 1321.9 -0.812416 5.85793 0
M  V30 14345 H 1320.83 -0.256991 0.708852 0
M  V30 14346 H 1323.49 0.0663988 1.8338 0
M  V30 14347 H 1321.87 -2.05228 3.3867 0
M  V30 14348 H 1323.04 0.54794 4.57531 0
M  V30 14349 H 1321.36 0.337714 4.15028 0
M  V30 14350 H 1323.95 -2.36808 4.79402 0
M  V30 14351 H 1324.3 -2.75067 3.1248 0
M  V30 14352 H 1324.83 -1.19004 3.79583 0
M  V30 14353 H 1321.57 -0.0184031 6.55497 0
M  V30 14354 H 1321.09 -1.55244 5.79361 0
M  V30 14355 H 1322.77 -1.30952 6.33609 0
M  V30 14356 N 1322.9 -1.55308 -0.267798 0
M  V30 14357 C 1323.83 -1.91555 -1.33525 0
M  V30 14358 C 1324.81 -0.778001 -1.51265 0
M  V30 14359 O 1326 -1.03657 -1.64222 0
M  V30 14360 C 1323.13 -2.19201 -2.69385 0
M  V30 14361 C 1322.08 -3.3501 -2.66369 0
M  V30 14362 C 1321.41 -3.48148 -4.05829 0
M  V30 14363 C 1322.71 -4.71265 -2.25182 0
M  V30 14364 H 1324.4 -2.80965 -1.03437 0
M  V30 14365 H 1321.95 -1.35183 -0.496141 0
M  V30 14366 H 1323.9 -2.43146 -3.44177 0
M  V30 14367 H 1322.62 -1.26596 -3.01067 0
M  V30 14368 H 1321.28 -3.11041 -1.94034 0
M  V30 14369 H 1320.93 -2.53 -4.34741 0
M  V30 14370 H 1320.63 -4.26014 -4.04704 0
M  V30 14371 H 1322.15 -3.74391 -4.82352 0
M  V30 14372 H 1323.57 -4.94719 -2.89699 0
M  V30 14373 H 1321.96 -5.52084 -2.3521 0
M  V30 14374 H 1323.03 -4.69735 -1.20319 0
M  V30 14375 N 1324.38 0.532545 -1.4833 0
M  V30 14376 C 1325.34 1.61955 -1.62183 0
M  V30 14377 C 1326.34 1.52982 -0.495281 0
M  V30 14378 O 1327.53 1.56698 -0.761005 0
M  V30 14379 C 1324.66 3.0157 -1.58961 0
M  V30 14380 H 1325.86 1.51013 -2.59105 0
M  V30 14381 H 1323.41 0.754405 -1.36888 0
M  V30 14382 H 1324.14 3.18021 -0.635069 0
M  V30 14383 H 1323.93 3.09491 -2.40744 0
M  V30 14384 H 1325.42 3.80604 -1.71843 0
M  V30 14385 N 1325.86 1.36875 0.78122 0
M  V30 14386 C 1327.27 1.17467 1.08044 0
M  V30 14387 C 1327.47 0.00434799 2.015 0
M  V30 14388 O 1326.53 -0.658499 2.43762 0
M  V30 14389 C 1327.84 2.48917 1.68704 0
M  V30 14390 C 1329.39 2.55354 1.81007 0
M  V30 14391 C 1329.86 3.8691 2.45081 0
M  V30 14392 N 1331.35 3.88301 2.52541 0
M  V30 14393 C 1332.09 4.86837 3.02947 0
M  V30 14394 N 1331.59 5.95768 3.53598 0
M  V30 14395 N 1333.38 4.74249 3.01735 0
M  V30 14396 H 1325.53 2.11793 0.160503 0
M  V30 14397 H 1327.79 0.938507 0.133825 0
M  V30 14398 H 1327.5 3.34867 1.07503 0
M  V30 14399 H 1327.37 2.65319 2.68115 0
M  V30 14400 H 1329.76 1.69816 2.41343 0
M  V30 14401 H 1329.84 2.42843 0.803783 0
M  V30 14402 H 1329.48 4.72858 1.85386 0
M  V30 14403 H 1329.41 3.9672 3.46296 0
M  V30 14404 H 1331.91 3.09607 2.16684 0
M  V30 14405 H 1332.22 6.66918 3.90435 0
M  V30 14406 H 1330.56 5.99426 3.51728 0
M  V30 14407 H 1333.75 3.88275 2.61458 0
M  V30 14408 H 1333.93 5.512 3.40709 0
M  V30 14409 N 1327.33 -1.00632 1.21289 0
M  V30 14410 C 1328.28 -2.11502 0.96798 0
M  V30 14411 C 1329.28 -1.6919 -0.0843024 0
M  V30 14412 O 1330.48 -1.79875 0.06697 0
M  V30 14413 H 1326.86 -0.691398 0.295759 0
M  V30 14414 H 1328.83 -2.29337 1.90911 0
M  V30 14415 C 1327.58 -3.43357 0.547818 0
M  V30 14416 H 1326.9 -3.76348 1.34915 0
M  V30 14417 H 1328.34 -4.21957 0.415759 0
M  V30 14418 C 1326.8 -3.28648 -0.741086 0
M  V30 14419 O 1327.33 -3.59267 -1.79695 0
M  V30 14420 N 1325.53 -2.81866 -0.707084 0
M  V30 14421 H 1325.08 -2.57149 0.152447 0
M  V30 14422 H 1325.04 -2.72406 -1.56979 0
M  V30 14423 N 1328.81 -1.02043 -1.20104 0
M  V30 14424 C 1330.04 -0.730255 -1.93264 0
M  V30 14425 C 1330.45 0.71359 -1.75227 0
M  V30 14426 O 1329.79 1.49609 -1.06597 0
M  V30 14427 C 1329.85 -0.990978 -3.45572 0
M  V30 14428 C 1329.52 -2.4247 -3.87373 0
M  V30 14429 C 1330.52 -3.40569 -3.92822 0
M  V30 14430 C 1328.2 -2.76645 -4.19253 0
M  V30 14431 C 1330.19 -4.70904 -4.29568 0
M  V30 14432 C 1327.88 -4.07192 -4.55673 0
M  V30 14433 C 1328.88 -5.04132 -4.60804 0
M  V30 14434 O 1328.57 -6.32341 -4.96386 0
M  V30 14435 H 1328.3 -0.267146 -0.620974 0
M  V30 14436 H 1330.85 -1.36557 -1.53432 0
M  V30 14437 H 1329.08 -0.298508 -3.85546 0
M  V30 14438 H 1330.77 -0.691793 -3.99961 0
M  V30 14439 H 1331.54 -3.15503 -3.68352 0
M  V30 14440 H 1327.42 -2.01876 -4.14448 0
M  V30 14441 H 1330.96 -5.46566 -4.33487 0
M  V30 14442 H 1326.86 -4.32035 -4.796 0
M  V30 14443 H 1327.63 -6.36687 -5.14365 0
M  V30 14444 N 1330.29 1.35952 -0.797165 0
M  V30 14445 C 1331.24 2.29941 -0.198995 0
M  V30 14446 C 1332.21 1.52355 0.661592 0
M  V30 14447 O 1333.39 1.80832 0.60865 0
M  V30 14448 C 1330.53 3.38846 0.654033 0
M  V30 14449 C 1329.65 4.31409 -0.225949 0
M  V30 14450 C 1328.78 5.27401 0.634188 0
M  V30 14451 C 1327.82 6.11602 -0.246773 0
M  V30 14452 N 1326.96 6.9976 0.57279 0
M  V30 14453 H 1331.8 2.80508 -1.00594 0
M  V30 14454 H 1329.33 1.38064 -0.507617 0
M  V30 14455 H 1331.29 4.00643 1.16367 0
M  V30 14456 H 1329.92 2.89578 1.42633 0
M  V30 14457 H 1328.97 3.70699 -0.853616 0
M  V30 14458 H 1330.29 4.90532 -0.904416 0
M  V30 14459 H 1329.44 5.94525 1.20933 0
M  V30 14460 H 1328.18 4.68751 1.34625 0
M  V30 14461 H 1327.18 5.43434 -0.834258 0
M  V30 14462 H 1328.41 6.72329 -0.956559 0
M  V30 14463 H 1326.35 6.43609 1.26901 0
M  V30 14464 H 1326.27 7.55985 -0.0478303 0
M  V30 14465 H 1327.54 7.71244 1.13151 0
M  V30 14466 N 1331.77 0.549846 1.47697 0
M  V30 14467 C 1333.02 0.0209424 2.01689 0
M  V30 14468 C 1333.33 -1.33417 1.43036 0
M  V30 14469 O 1334.54 -1.95257 1.88646 0
M  V30 14470 C 1332.99 -0.0130171 3.59898 0
M  V30 14471 C 1332.6 1.3384 4.2754 0
M  V30 14472 C 1334.34 -0.489701 4.21666 0
M  V30 14473 C 1332.25 1.26395 5.77735 0
M  V30 14474 H 1331.18 0.00405885 0.753989 0
M  V30 14475 H 1333.83 0.696599 1.69764 0
M  V30 14476 H 1332.21 -0.754168 3.88752 0
M  V30 14477 H 1333.39 2.09668 4.10336 0
M  V30 14478 H 1331.7 1.75242 3.77729 0
M  V30 14479 H 1334.3 -0.563684 5.31721 0
M  V30 14480 H 1334.64 -1.50004 3.88336 0
M  V30 14481 H 1335.18 0.196366 3.97315 0
M  V30 14482 H 1331.92 2.25005 6.15673 0
M  V30 14483 H 1331.44 0.547353 5.97297 0
M  V30 14484 H 1333.11 0.962918 6.39794 0
M  V30 14485 N 1333.25 -1.54984 0.285932 0
M  V30 14486 C 1334.66 -1.85519 -0.209707 0
M  V30 14487 C 1335.01 -1.20794 -1.54606 0
M  V30 14488 O 1334.13 -0.500159 -2.10541 0
M  V30 14489 C 1334.73 -3.36579 -0.387283 0
M  V30 14490 C 1333.29 -3.67199 -0.827148 0
M  V30 14491 C 1332.43 -2.77203 0.073308 0
M  V30 14492 H 1335.39 -1.5037 0.507404 0
M  V30 14493 H 1335.41 -3.60269 -1.2242 0
M  V30 14494 H 1334.92 -3.83658 0.585493 0
M  V30 14495 H 1333.02 -3.25627 -1.81101 0
M  V30 14496 H 1333.13 -4.74574 -0.656976 0
M  V30 14497 H 1331.5 -2.50785 -0.444859 0
M  V30 14498 H 1332.28 -3.27099 1.04216 0
M  V30 14499 N 1334.72 -0.0133892 -1.57594 0
M  V30 14500 C 1335.65 0.972341 -2.12292 0
M  V30 14501 C 1336.64 1.34971 -1.03522 0
M  V30 14502 O 1337.82 1.4311 -1.31275 0
M  V30 14503 C 1334.95 2.25988 -2.63717 0
M  V30 14504 C 1333.9 2.02373 -3.77133 0
M  V30 14505 C 1333.23 3.37256 -4.14925 0
M  V30 14506 C 1334.53 1.37553 -5.03861 0
M  V30 14507 H 1336.22 0.516869 -2.94905 0
M  V30 14508 H 1333.77 0.247176 -1.41863 0
M  V30 14509 H 1335.72 2.95313 -3.00613 0
M  V30 14510 H 1334.45 2.73672 -1.78244 0
M  V30 14511 H 1333.11 1.3547 -3.40651 0
M  V30 14512 H 1332.75 3.82669 -3.26456 0
M  V30 14513 H 1332.45 3.22267 -4.91343 0
M  V30 14514 H 1333.98 4.07875 -4.5439 0
M  V30 14515 H 1335.39 1.96855 -5.38443 0
M  V30 14516 H 1333.79 1.33011 -5.85174 0
M  V30 14517 H 1334.86 0.346429 -4.83661 0
M  V30 14518 N 1336.2 1.55448 0.259558 0
M  V30 14519 C 1337.43 1.80727 1.00723 0
M  V30 14520 C 1337.85 0.587354 1.79431 0
M  V30 14521 O 1337.2 -0.443819 1.77021 0
M  V30 14522 C 1337.25 3.04064 1.95517 0
M  V30 14523 O 1336.97 4.21346 1.19996 0
M  V30 14524 C 1338.48 3.42049 2.81988 0
M  V30 14525 H 1335.7 0.601713 0.296956 0
M  V30 14526 H 1338.24 2.02486 0.286273 0
M  V30 14527 H 1336.39 2.84392 2.63058 0
M  V30 14528 H 1336.81 4.91164 1.84006 0
M  V30 14529 H 1338.28 4.31485 3.44274 0
M  V30 14530 H 1338.76 2.62059 3.52451 0
M  V30 14531 H 1339.37 3.64027 2.19918 0
M  V30 14532 N 1337.68 -0.524672 1.4861 0
M  V30 14533 C 1338.93 -1.28211 1.5713 0
M  V30 14534 C 1339.26 -1.92626 0.246751 0
M  V30 14535 O 1338.53 -1.79553 -0.747725 0
M  V30 14536 C 1338.82 -2.36737 2.71344 0
M  V30 14537 C 1338.67 -1.76978 4.1352 0
M  V30 14538 C 1339.99 -3.3847 2.81294 0
M  V30 14539 H 1337.11 -0.46479 0.571961 0
M  V30 14540 H 1339.75 -0.583937 1.80804 0
M  V30 14541 H 1337.9 -2.96287 2.51289 0
M  V30 14542 H 1339.57 -1.21438 4.45029 0
M  V30 14543 H 1337.82 -1.07488 4.20272 0
M  V30 14544 H 1338.49 -2.55583 4.89266 0
M  V30 14545 H 1340.96 -2.88882 2.99477 0
M  V30 14546 H 1339.84 -4.11795 3.62928 0
M  V30 14547 H 1340.1 -3.99347 1.89669 0
M  V30 14548 N 1339.16 -1.37287 -0.77395 0
M  V30 14549 C 1340.12 -1.32699 -1.86878 0
M  V30 14550 C 1341.12 -0.231486 -1.59125 0
M  V30 14551 O 1342.31 -0.487203 -1.67248 0
M  V30 14552 C 1339.44 -1.0609 -3.23972 0
M  V30 14553 H 1340.64 -2.30083 -1.92359 0
M  V30 14554 H 1338.19 -1.22284 -0.973459 0
M  V30 14555 H 1338.92 -0.0922868 -3.24169 0
M  V30 14556 H 1338.71 -1.85383 -3.45508 0
M  V30 14557 H 1340.2 -1.05524 -4.04048 0
M  V30 14558 N 1340.64 0.999871 -1.21821 0
M  V30 14559 C 1341.58 2.08864 -0.98206 0
M  V30 14560 C 1342.55 1.65835 0.0937677 0
M  V30 14561 O 1343.74 1.90722 -0.0544038 0
M  V30 14562 C 1340.88 3.40553 -0.558382 0
M  V30 14563 C 1339.99 3.96964 -1.70422 0
M  V30 14564 C 1339.13 5.16782 -1.2292 0
M  V30 14565 C 1338.17 5.65315 -2.34703 0
M  V30 14566 N 1337.3 6.76379 -1.88299 0
M  V30 14567 H 1342.14 2.28399 -1.9141 0
M  V30 14568 H 1339.68 1.11984 -0.953837 0
M  V30 14569 H 1341.64 4.16163 -0.293955 0
M  V30 14570 H 1340.27 3.2104 0.336656 0
M  V30 14571 H 1339.32 3.18291 -2.08315 0
M  V30 14572 H 1340.63 4.2897 -2.54531 0
M  V30 14573 H 1339.79 5.99657 -0.92174 0
M  V30 14574 H 1338.52 4.86383 -0.358222 0
M  V30 14575 H 1337.53 4.81033 -2.66246 0
M  V30 14576 H 1338.75 5.97742 -3.22306 0
M  V30 14577 H 1336.7 6.47775 -1.03552 0
M  V30 14578 H 1336.62 7.07666 -2.65978 0
M  V30 14579 H 1337.89 7.62776 -1.60601 0
M  V30 14580 N 1342.11 1.02678 1.19562 0
M  V30 14581 C 1343.05 0.563882 2.22155 0
M  V30 14582 C 1344.06 -0.359132 1.58789 0
M  V30 14583 O 1345.25 -0.155857 1.77818 0
M  V30 14584 C 1342.35 -0.197894 3.38322 0
M  V30 14585 C 1341.52 0.729542 4.31273 0
M  V30 14586 C 1340.58 0.013543 5.26198 0
M  V30 14587 O 1339.61 0.639417 5.65597 0
M  V30 14588 N 1340.81 -1.25791 5.66707 0
M  V30 14589 H 1343.57 1.44623 2.62496 0
M  V30 14590 H 1341.13 0.90555 1.34207 0
M  V30 14591 H 1343.13 -0.686381 3.98837 0
M  V30 14592 H 1341.7 -0.981632 2.96787 0
M  V30 14593 H 1340.92 1.39816 3.68572 0
M  V30 14594 H 1342.2 1.35994 4.90289 0
M  V30 14595 H 1341.6 -1.78716 5.36728 0
M  V30 14596 H 1340.16 -1.69093 6.29485 0
M  V30 14597 N 1343.59 -1.35528 0.804364 0
M  V30 14598 C 1344.84 -1.98084 0.380196 0
M  V30 14599 C 1345.15 -1.64531 -1.05778 0
M  V30 14600 O 1346.36 -2.20435 -1.58495 0
M  V30 14601 C 1344.82 -3.54364 0.628848 0
M  V30 14602 C 1344.42 -3.96828 2.07921 0
M  V30 14603 C 1346.17 -4.23641 0.269927 0
M  V30 14604 C 1344.08 -5.45944 2.27374 0
M  V30 14605 H 1343.01 -0.741185 0.138422 0
M  V30 14606 H 1345.66 -1.54624 0.988107 0
M  V30 14607 H 1344.04 -3.9597 -0.0489837 0
M  V30 14608 H 1345.21 -3.6638 2.79467 0
M  V30 14609 H 1343.53 -3.40433 2.39779 0
M  V30 14610 H 1346.12 -5.33251 0.393344 0
M  V30 14611 H 1346.47 -4.08858 -0.783644 0
M  V30 14612 H 1347 -3.87448 0.901588 0
M  V30 14613 H 1343.74 -5.65693 3.31168 0
M  V30 14614 H 1343.26 -5.77969 1.6035 0
M  V30 14615 H 1344.94 -6.12376 2.08817 0
M  V30 14616 N 1345.07 -0.557671 -1.47404 0
M  V30 14617 C 1346.3 -0.0386599 -2.06864 0
M  V30 14618 C 1346.71 1.25527 -1.41027 0
M  V30 14619 O 1346.07 1.75318 -0.506949 0
M  V30 14620 C 1346.12 0.160141 -3.61145 0
M  V30 14621 O 1345.84 -1.08255 -4.24515 0
M  V30 14622 C 1347.34 0.716381 -4.37473 0
M  V30 14623 H 1344.56 -0.0460523 -0.669418 0
M  V30 14624 H 1347.11 -0.771214 -1.894 0
M  V30 14625 H 1345.26 0.842826 -3.78121 0
M  V30 14626 H 1345.68 -0.88057 -5.17055 0
M  V30 14627 H 1347.15 0.804773 -5.46102 0
M  V30 14628 H 1347.63 1.72776 -4.03788 0
M  V30 14629 H 1348.23 0.0693787 -4.25243 0
M  V30 14630 N 1346.55 1.54831 -0.294147 0
M  V30 14631 C 1347.48 2.20696 0.61854 0
M  V30 14632 C 1348.49 1.19754 1.10285 0
M  V30 14633 O 1349.68 1.46383 1.02148 0
M  V30 14634 C 1346.78 2.83429 1.85798 0
M  V30 14635 C 1345.96 4.10239 1.51731 0
M  V30 14636 C 1345.02 4.56841 2.61119 0
M  V30 14637 O 1344.04 5.22194 2.26501 0
M  V30 14638 N 1345.24 4.2858 3.91534 0
M  V30 14639 H 1348.01 2.9965 0.054714 0
M  V30 14640 H 1345.57 1.61484 -0.116052 0
M  V30 14641 H 1347.56 3.11541 2.5831 0
M  V30 14642 H 1346.13 2.08356 2.33038 0
M  V30 14643 H 1345.35 3.89212 0.625142 0
M  V30 14644 H 1346.64 4.92824 1.26499 0
M  V30 14645 H 1346.04 3.7621 4.22472 0
M  V30 14646 H 1344.59 4.61418 4.60366 0
M  V30 14647 N 1348.03 0.0217466 1.57585 0
M  V30 14648 C 1348.94 -0.978407 2.13224 0
M  V30 14649 C 1349.95 -1.36212 1.08269 0
M  V30 14650 O 1351.13 -1.44504 1.40288 0
M  V30 14651 C 1348.19 -2.24462 2.6423 0
M  V30 14652 C 1347.26 -1.92201 3.83871 0
M  V30 14653 C 1346.49 -3.12786 4.32436 0
M  V30 14654 O 1346.71 -4.25201 3.8021 0
M  V30 14655 O 1345.65 -2.95514 5.24362 0
M  V30 14656 H 1349.47 -0.535347 2.98944 0
M  V30 14657 H 1347.06 -0.198414 1.48077 0
M  V30 14658 H 1348.94 -2.98809 2.97138 0
M  V30 14659 H 1347.61 -2.67964 1.81596 0
M  V30 14660 H 1346.52 -1.15262 3.55901 0
M  V30 14661 H 1347.85 -1.53521 4.67645 0
M  V30 14662 N 1349.51 -1.55583 -0.251311 0
M  V30 14663 C 1350.75 -1.7897 -0.987372 0
M  V30 14664 C 1351.11 -0.590559 -1.82692 0
M  V30 14665 O 1352.31 -0.703109 -2.59441 0
M  V30 14666 C 1350.58 -3.07069 -1.82876 0
M  V30 14667 S 1352.14 -3.51659 -2.62452 0
M  V30 14668 H 1348.96 -0.628624 -0.332194 0
M  V30 14669 H 1351.56 -1.93821 -0.255653 0
M  V30 14670 H 1350.26 -3.92415 -1.20161 0
M  V30 14671 H 1349.8 -2.94943 -2.60331 0
M  V30 14672 H 1351.81 -3.12644 -3.85316 0
M  V30 14673 N 1350.98 0.516783 -1.48886 0
M  V30 14674 C 1352.39 1.09856 -1.50959 0
M  V30 14675 C 1352.75 1.94092 -0.28681 0
M  V30 14676 O 1351.87 2.07774 0.604877 0
M  V30 14677 C 1352.47 1.999 -2.73542 0
M  V30 14678 C 1351.02 2.5327 -2.78444 0
M  V30 14679 C 1350.17 1.30526 -2.44659 0
M  V30 14680 H 1353.12 0.301415 -1.55811 0
M  V30 14681 H 1353.14 2.84373 -2.52809 0
M  V30 14682 H 1352.66 1.38564 -3.62521 0
M  V30 14683 H 1350.76 3.1829 -1.93707 0
M  V30 14684 H 1350.87 2.91502 -3.80215 0
M  V30 14685 H 1349.23 1.62536 -1.96097 0
M  V30 14686 H 1350.02 0.709223 -3.35894 0
M  V30 14687 N 1352.46 1.37696 0.766659 0
M  V30 14688 C 1353.41 1.30383 1.87041 0
M  V30 14689 C 1354.4 0.190643 1.59767 0
M  V30 14690 O 1355.59 0.425485 1.7181 0
M  V30 14691 C 1352.72 1.11817 3.2458 0
M  V30 14692 C 1351.8 2.27701 3.57789 0
M  V30 14693 N 1352.19 3.53108 3.62144 0
M  V30 14694 C 1350.49 2.19967 3.87983 0
M  V30 14695 C 1351.19 4.29555 3.92247 0
M  V30 14696 N 1350.17 3.58754 4.08408 0
M  V30 14697 H 1353.97 2.25348 1.88668 0
M  V30 14698 H 1351.48 1.30741 0.963362 0
M  V30 14699 H 1353.48 1.04663 4.03548 0
M  V30 14700 H 1352.14 0.177731 3.24213 0
M  V30 14701 H 1353.15 3.86949 3.44225 0
M  V30 14702 H 1349.83 1.34009 3.95408 0
M  V30 14703 H 1351.22 5.38112 4.0235 0
M  V30 14704 N 1353.94 -0.993397 1.22349 0
M  V30 14705 C 1355.18 -1.74807 1.05933 0
M  V30 14706 C 1355.54 -1.87815 -0.398702 0
M  V30 14707 O 1356.74 -2.5996 -0.683703 0
M  V30 14708 C 1355.02 -3.11601 1.75042 0
M  V30 14709 S 1356.57 -4.02813 1.74032 0
M  V30 14710 H 1353.39 -0.601331 0.379371 0
M  V30 14711 H 1355.99 -1.18777 1.55282 0
M  V30 14712 H 1354.7 -2.99775 2.80291 0
M  V30 14713 H 1354.23 -3.72703 1.25922 0
M  V30 14714 H 1356.24 -4.89876 0.789658 0
M  V30 14715 N 1355.42 -1.03311 -1.19015 0
M  V30 14716 C 1356.65 -0.751802 -1.92758 0
M  V30 14717 C 1357.06 0.689982 -1.7574 0
M  V30 14718 O 1356.42 1.46961 -1.08207 0
M  V30 14719 C 1356.47 -1.09892 -3.44392 0
M  V30 14720 O 1356.19 -2.48409 -3.60866 0
M  V30 14721 C 1357.69 -0.841029 -4.35249 0
M  V30 14722 H 1354.91 -0.274757 -0.612168 0
M  V30 14723 H 1357.45 -1.37873 -1.51034 0
M  V30 14724 H 1355.61 -0.517092 -3.83933 0
M  V30 14725 H 1356.02 -2.61468 -4.54681 0
M  V30 14726 H 1357.5 -1.13383 -5.4023 0
M  V30 14727 H 1357.97 0.224434 -4.38626 0
M  V30 14728 H 1358.58 -1.40579 -4.01395 0
M  V30 14729 N 1356.9 1.35099 -0.81154 0
M  V30 14730 C 1357.84 2.29717 -0.223372 0
M  V30 14731 C 1358.81 1.53049 0.645396 0
M  V30 14732 O 1360 1.81467 0.589436 0
M  V30 14733 C 1357.14 3.3952 0.618057 0
M  V30 14734 C 1356.25 4.31145 -0.271693 0
M  V30 14735 C 1355.39 5.28044 0.578214 0
M  V30 14736 C 1354.42 6.11306 -0.311628 0
M  V30 14737 N 1353.56 7.00328 0.498539 0
M  V30 14738 H 1358.4 2.79426 -1.03563 0
M  V30 14739 H 1355.94 1.37518 -0.522231 0
M  V30 14740 H 1357.9 4.01854 1.12111 0
M  V30 14741 H 1356.53 2.91075 1.39554 0
M  V30 14742 H 1355.58 3.69773 -0.892885 0
M  V30 14743 H 1356.89 4.89545 -0.956392 0
M  V30 14744 H 1356.04 5.95774 1.1462 0
M  V30 14745 H 1354.78 4.70152 1.29646 0
M  V30 14746 H 1353.79 5.42518 -0.891849 0
M  V30 14747 H 1355.01 6.71277 -1.02781 0
M  V30 14748 H 1352.96 6.44919 1.20067 0
M  V30 14749 H 1352.88 7.55892 -0.12801 0
M  V30 14750 H 1354.14 7.72401 1.04965 0
M  V30 14751 N 1358.37 0.56548 1.47106 0
M  V30 14752 C 1359.31 -0.215154 2.28188 0
M  V30 14753 C 1360.32 -0.871671 1.37498 0
M  V30 14754 O 1361.51 -0.744131 1.6225 0
M  V30 14755 C 1358.61 -1.32289 3.12014 0
M  V30 14756 C 1357.78 -0.761594 4.30719 0
M  V30 14757 C 1356.84 -1.75486 4.96076 0
M  V30 14758 O 1355.87 -1.29771 5.5421 0
M  V30 14759 N 1357.07 -3.0885 4.9152 0
M  V30 14760 H 1359.83 0.480405 2.95825 0
M  V30 14761 H 1357.39 0.402099 1.56827 0
M  V30 14762 H 1359.39 -1.98628 3.52603 0
M  V30 14763 H 1357.96 -1.92156 2.46566 0
M  V30 14764 H 1357.18 0.078794 3.94121 0
M  V30 14765 H 1358.46 -0.366072 5.07481 0
M  V30 14766 H 1357.86 -3.4863 4.45504 0
M  V30 14767 H 1356.42 -3.70725 5.36103 0
M  V30 14768 N 1359.85 -1.54672 0.302354 0
M  V30 14769 C 1361.1 -1.99771 -0.305919 0
M  V30 14770 C 1361.42 -1.19225 -1.54306 0
M  V30 14771 O 1360.69 -0.288569 -1.93763 0
M  V30 14772 H 1359.27 -0.737934 -0.116026 0
M  V30 14773 H 1361.93 -1.90452 0.413997 0
M  V30 14774 H 1361.03 -3.06719 -0.577024 0
M  V30 14775 N 1361.33 -0.0301034 -1.57571 0
M  V30 14776 C 1362.56 0.662045 -1.9655 0
M  V30 14777 C 1362.98 1.64811 -0.906581 0
M  V30 14778 O 1362.34 1.80816 0.132415 0
M  V30 14779 C 1362.39 1.34389 -3.34622 0
M  V30 14780 O 1361.49 2.45919 -3.31056 0
M  V30 14781 H 1360.83 0.173842 -0.640839 0
M  V30 14782 H 1363.36 -0.092248 -2.04392 0
M  V30 14783 H 1363.37 1.70045 -3.70875 0
M  V30 14784 H 1362.05 0.621092 -4.11236 0
M  V30 14785 H 1360.62 2.12367 -3.06521 0
M  V30 14786 N 1362.81 1.55714 0.243056 0
M  V30 14787 C 1364.06 1.77375 0.968638 0
M  V30 14788 C 1364.38 0.594781 1.85708 0
M  V30 14789 O 1363.65 -0.38928 1.91993 0
M  V30 14790 H 1362.23 0.654174 0.360646 0
M  V30 14791 H 1364.89 1.93157 0.260079 0
M  V30 14792 H 1363.99 2.68674 1.5881 0
M  V30 14793 N 1364.29 -0.50888 1.49158 0
M  V30 14794 C 1365.7 -1.09054 1.51539 0
M  V30 14795 C 1366.05 -1.93938 0.297099 0
M  V30 14796 O 1365.17 -2.08092 -0.593849 0
M  V30 14797 C 1365.77 -1.98447 2.74599 0
M  V30 14798 C 1364.33 -2.5179 2.79783 0
M  V30 14799 C 1363.47 -1.29227 2.45348 0
M  V30 14800 H 1366.43 -0.293148 1.55969 0
M  V30 14801 H 1366.45 -2.83028 2.54314 0
M  V30 14802 H 1365.96 -1.3664 3.63251 0
M  V30 14803 H 1364.06 -3.17258 1.95392 0
M  V30 14804 H 1364.17 -2.89481 3.81756 0
M  V30 14805 H 1362.54 -1.61494 1.96957 0
M  V30 14806 H 1363.32 -0.6914 3.36266 0
M  V30 14807 N 1365.76 -1.381 -0.759346 0
M  V30 14808 C 1366.73 -1.34674 -1.8546 0
M  V30 14809 C 1367.73 -0.248351 -1.58871 0
M  V30 14810 O 1368.92 -0.504915 -1.66722 0
M  V30 14811 C 1366.05 -1.0952 -3.22828 0
M  V30 14812 H 1367.24 -2.3211 -1.89908 0
M  V30 14813 H 1364.8 -1.2331 -0.960435 0
M  V30 14814 H 1365.53 -0.126664 -3.24053 0
M  V30 14815 H 1365.32 -1.89037 -3.43522 0
M  V30 14816 H 1366.81 -1.09804 -4.02906 0
M  V30 14817 N 1367.24 0.986894 -1.22875 0
M  V30 14818 C 1368.49 1.72388 -1.05484 0
M  V30 14819 C 1368.81 1.90639 0.410074 0
M  V30 14820 O 1368.08 1.47036 1.2945 0
M  V30 14821 H 1366.66 0.638732 -0.387337 0
M  V30 14822 H 1369.32 1.18829 -1.54485 0
M  V30 14823 H 1368.42 2.71599 -1.53754 0
M  V30 14824 N 1368.72 1.0394 1.18466 0
M  V30 14825 C 1369.96 0.750905 1.90107 0
M  V30 14826 C 1370.32 -0.708278 1.78458 0
M  V30 14827 O 1371.53 -1.11033 2.44796 0
M  V30 14828 C 1369.8 1.20259 3.3656 0
M  V30 14829 S 1371.36 1.03954 4.26308 0
M  V30 14830 H 1368.17 0.273061 0.656475 0
M  V30 14831 H 1370.78 1.33143 1.43154 0
M  V30 14832 H 1369.48 2.26 3.42567 0
M  V30 14833 H 1369.01 0.615804 3.8855 0
M  V30 14834 H 1371.03 -0.0437629 4.96181 0
M  V30 14835 N 1370.2 -1.34667 0.818693 0
M  V30 14836 C 1371.44 -1.98708 0.405359 0
M  V30 14837 C 1371.78 -1.64767 -1.02788 0
M  V30 14838 O 1371.05 -0.91714 -1.71519 0
M  V30 14839 C 1371.34 -3.55016 0.602966 0
M  V30 14840 C 1371.19 -3.98713 2.08201 0
M  V30 14841 C 1372.51 -4.40085 0.0362489 0
M  V30 14842 H 1369.63 -0.721831 0.148756 0
M  V30 14843 H 1372.27 -1.59628 1.03047 0
M  V30 14844 H 1370.42 -3.88435 0.0708453 0
M  V30 14845 H 1372.09 -3.75647 2.67745 0
M  V30 14846 H 1370.33 -3.49179 2.57403 0
M  V30 14847 H 1371 -5.0751 2.17111 0
M  V30 14848 H 1373.48 -4.13195 0.490837 0
M  V30 14849 H 1372.36 -5.4852 0.204344 0
M  V30 14850 H 1372.62 -4.29243 -1.05845 0
M  V30 14851 N 1371.68 -0.573274 -1.46804 0
M  V30 14852 C 1372.61 0.213527 -2.27199 0
M  V30 14853 C 1373.59 0.905598 -1.35047 0
M  V30 14854 O 1374.77 0.921377 -1.64447 0
M  V30 14855 C 1371.9 1.30556 -3.12527 0
M  V30 14856 C 1370.94 0.720331 -4.20373 0
M  V30 14857 S 1371.78 -0.445518 -5.33644 0
M  V30 14858 C 1372.93 0.64794 -6.22537 0
M  V30 14859 H 1373.17 -0.468642 -2.93583 0
M  V30 14860 H 1370.7 -0.359949 -1.50146 0
M  V30 14861 H 1372.66 1.93086 -3.62254 0
M  V30 14862 H 1371.32 1.95963 -2.45474 0
M  V30 14863 H 1370.51 1.54089 -4.79867 0
M  V30 14864 H 1370.11 0.170885 -3.73609 0
M  V30 14865 H 1372.41 1.53602 -6.59858 0
M  V30 14866 H 1373.35 0.0899764 -7.08043 0
M  V30 14867 H 1373.76 0.94784 -5.56486 0
M  V30 14868 N 1373.15 1.5451 -0.310553 0
M  V30 14869 C 1374.57 1.59543 0.0425296 0
M  V30 14870 C 1374.77 1.32737 1.51602 0
M  V30 14871 O 1373.83 1.10543 2.27016 0
M  V30 14872 C 1375.14 2.98489 -0.364002 0
M  V30 14873 C 1376.69 3.11425 -0.313566 0
M  V30 14874 C 1377.16 4.52695 -0.695064 0
M  V30 14875 N 1378.65 4.58645 -0.647966 0
M  V30 14876 C 1379.39 5.66044 -0.915508 0
M  V30 14877 N 1378.88 6.81439 -1.24951 0
M  V30 14878 N 1380.68 5.55759 -0.841933 0
M  V30 14879 H 1372.83 1.70194 -1.27074 0
M  V30 14880 H 1375.09 0.795374 -0.515833 0
M  V30 14881 H 1374.8 3.23061 -1.39012 0
M  V30 14882 H 1374.67 3.76177 0.27756 0
M  V30 14883 H 1377.06 2.86596 0.703326 0
M  V30 14884 H 1377.14 2.35871 -0.989883 0
M  V30 14885 H 1376.78 4.78255 -1.70981 0
M  V30 14886 H 1376.71 5.266 0.00342684 0
M  V30 14887 H 1379.2 3.75765 -0.401137 0
M  V30 14888 H 1379.52 7.59277 -1.43938 0
M  V30 14889 H 1377.86 6.82968 -1.28764 0
M  V30 14890 H 1381.05 4.64486 -0.58058 0
M  V30 14891 H 1381.23 6.39374 -1.0538 0
M  V30 14892 N 1374.63 0.0384594 1.57553 0
M  V30 14893 C 1375.86 -0.651613 1.96898 0
M  V30 14894 C 1376.28 -1.64328 0.915308 0
M  V30 14895 O 1375.64 -1.80883 -0.122824 0
M  V30 14896 C 1375.69 -1.32613 3.3533 0
M  V30 14897 O 1374.79 -2.44159 3.32355 0
M  V30 14898 H 1374.13 -0.170441 0.641752 0
M  V30 14899 H 1376.66 0.103086 2.0434 0
M  V30 14900 H 1376.67 -1.68076 3.71772 0
M  V30 14901 H 1375.35 -0.599275 4.1156 0
M  V30 14902 H 1373.93 -2.10738 3.07642 0
M  V30 14903 N 1376.11 -1.55841 -0.234795 0
M  V30 14904 C 1377.52 -1.68555 -0.802886 0
M  V30 14905 C 1377.87 -0.638107 -1.85533 0
M  V30 14906 O 1377 0.21333 -2.15346 0
M  V30 14907 C 1377.59 -3.0558 -1.46309 0
M  V30 14908 C 1376.15 -3.20192 -1.97874 0
M  V30 14909 C 1375.3 -2.64457 -0.834136 0
M  V30 14910 H 1378.25 -1.58697 -0.0103759 0
M  V30 14911 H 1378.27 -3.007 -2.33152 0
M  V30 14912 H 1377.78 -3.81792 -0.696868 0
M  V30 14913 H 1375.88 -2.48825 -2.77339 0
M  V30 14914 H 1376 -4.27251 -2.1678 0
M  V30 14915 H 1374.36 -2.22593 -1.23791 0
M  V30 14916 H 1375.14 -3.43205 -0.0807988 0
M  V30 14917 N 1377.59 0.500963 -1.49426 0
M  V30 14918 C 1378.54 1.62335 -1.66584 0
M  V30 14919 C 1379.53 1.60837 -0.531773 0
M  V30 14920 O 1380.74 1.65345 -0.711408 0
M  V30 14921 H 1377.11 0.538131 -0.52528 0
M  V30 14922 H 1379.08 1.45016 -2.60793 0
M  V30 14923 C 1377.83 3.00469 -1.74968 0
M  V30 14924 H 1377.16 3.02328 -2.61607 0
M  V30 14925 H 1378.6 3.78539 -1.91008 0
M  V30 14926 C 1377.05 3.33251 -0.49451 0
M  V30 14927 O 1377.58 3.99901 0.379783 0
M  V30 14928 N 1375.79 2.88393 -0.357445 0
M  V30 14929 H 1375.34 2.3433 -1.06991 0
M  V30 14930 H 1375.3 3.10694 0.481287 0
M  V30 14931 N 1379.07 1.38501 0.752011 0
M  V30 14932 C 1380.02 1.32359 1.85648 0
M  V30 14933 C 1381 0.207578 1.59555 0
M  V30 14934 O 1382.19 0.443683 1.71349 0
M  V30 14935 C 1379.32 1.15253 3.23375 0
M  V30 14936 C 1378.41 2.31483 3.55354 0
M  V30 14937 N 1378.8 3.56929 3.58379 0
M  V30 14938 C 1377.1 2.2407 3.85628 0
M  V30 14939 C 1377.8 4.33691 3.87669 0
M  V30 14940 N 1376.77 3.63065 4.04579 0
M  V30 14941 H 1380.58 2.27336 1.86267 0
M  V30 14942 H 1378.09 1.31755 0.949441 0
M  V30 14943 H 1380.09 1.08937 4.02416 0
M  V30 14944 H 1378.75 0.212108 3.24006 0
M  V30 14945 H 1379.76 3.90578 3.40101 0
M  V30 14946 H 1376.44 1.38196 3.93965 0
M  V30 14947 H 1377.83 5.42349 3.9662 0
M  V30 14948 N 1380.55 -0.980364 1.23396 0
M  V30 14949 C 1381.79 -1.72501 1.07772 0
M  V30 14950 C 1382.15 -1.88581 -0.381434 0
M  V30 14951 O 1381.44 -1.42702 -1.27854 0
M  V30 14952 C 1381.63 -3.12367 1.73671 0
M  V30 14953 C 1381.46 -3.09928 3.25844 0
M  V30 14954 C 1380.23 -3.15117 3.95006 0
M  V30 14955 C 1382.43 -2.93093 4.22612 0
M  V30 14956 N 1380.41 -3.02564 5.34161 0
M  V30 14957 C 1381.78 -2.88703 5.48681 0
M  V30 14958 C 1383.84 -2.77578 4.13346 0
M  V30 14959 C 1382.54 -2.70386 6.66546 0
M  V30 14960 C 1384.57 -2.60625 5.30875 0
M  V30 14961 C 1383.93 -2.56933 6.55869 0
M  V30 14962 H 1380.03 -0.640325 0.448897 0
M  V30 14963 H 1382.61 -1.16332 1.56125 0
M  V30 14964 H 1380.78 -3.66754 1.27851 0
M  V30 14965 H 1382.52 -3.75465 1.51023 0
M  V30 14966 H 1379.27 -3.23298 3.46086 0
M  V30 14967 H 1379.69 -2.99563 6.07117 0
M  V30 14968 H 1384.34 -2.79223 3.17481 0
M  V30 14969 H 1382.05 -2.67486 7.62546 0
M  V30 14970 H 1385.64 -2.49584 5.25547 0
M  V30 14971 H 1384.52 -2.43979 7.45281 0
M  V30 14972 N 1382.02 -1.04567 -1.17913 0
M  V30 14973 C 1382.96 -0.599154 -2.2123 0
M  V30 14974 C 1383.97 0.333824 -1.59341 0
M  V30 14975 O 1385.16 0.127548 -1.78044 0
M  V30 14976 C 1382.26 0.144045 -3.38594 0
M  V30 14977 C 1381.43 -0.798061 -4.30058 0
M  V30 14978 C 1380.49 -0.0972548 -5.2611 0
M  V30 14979 O 1379.52 -0.729318 -5.64508 0
M  V30 14980 N 1380.72 1.16759 -5.68637 0
M  V30 14981 H 1383.48 -1.48781 -2.60162 0
M  V30 14982 H 1381.04 -0.926787 -1.32749 0
M  V30 14983 H 1383.04 0.622843 -3.99878 0
M  V30 14984 H 1381.61 0.934292 -2.98311 0
M  V30 14985 H 1380.83 -1.45662 -3.66301 0
M  V30 14986 H 1382.11 -1.43777 -4.88063 0
M  V30 14987 H 1381.51 1.70155 -5.39503 0
M  V30 14988 H 1380.07 1.59057 -6.32095 0
M  V30 14989 N 1383.5 1.34231 -0.825823 0
M  V30 14990 C 1384.46 2.27776 -0.25512 0
M  V30 14991 C 1385.46 1.50409 0.568654 0
M  V30 14992 O 1386.65 1.69907 0.384337 0
M  V30 14993 C 1383.79 3.348 0.642013 0
M  V30 14994 H 1384.98 2.79763 -1.0804 0
M  V30 14995 H 1382.53 1.44412 -0.597904 0
M  V30 14996 H 1383.27 2.88032 1.49024 0
M  V30 14997 H 1383.05 3.92064 0.0527756 0
M  V30 14998 H 1384.54 4.0457 1.03502 0
M  V30 14999 N 1384.98 0.581051 1.46498 0
M  V30 15000 C 1386.26 -0.000789846 1.956 0
M  V30 15001 C 1386.64 -1.46104 1.52371 0
M  V30 15002 O 1385.98 -2.15005 0.773623 0
M  V30 15003 C 1386.19 0.169534 3.48588 0
M  V30 15004 C 1387.54 0.036499 4.24584 0
M  V30 15005 O 1388.57 0.0982852 3.56064 0
M  V30 15006 O 1387.43 -0.100571 5.46407 0
M  V30 15007 H 1384.52 -0.050749 0.825441 0
M  V30 15008 H 1387.07 0.649252 1.56789 0
M  V30 15009 H 1385.84 1.18473 3.72934 0
M  V30 15010 H 1385.46 -0.517017 3.94224 0
M  V30 15011 N 1386.46 -1.54343 0.318742 0
M  V30 15012 C 1387.7 -2.0239 -0.285929 0
M  V30 15013 C 1388.06 -1.20197 -1.49722 0
M  V30 15014 O 1389.26 -1.58025 -2.17443 0
M  V30 15015 C 1387.53 -3.52044 -0.616446 0
M  V30 15016 S 1389.09 -4.22031 -1.20146 0
M  V30 15017 H 1385.91 -0.705685 -0.0867722 0
M  V30 15018 H 1388.51 -1.90233 0.450744 0
M  V30 15019 H 1387.22 -4.09489 0.273339 0
M  V30 15020 H 1386.75 -3.68272 -1.38344 0
M  V30 15021 H 1388.76 -4.29287 -2.48851 0
M  V30 15022 N 1387.94 -0.0468143 -1.5753 0
M  V30 15023 C 1389.16 0.637648 -1.96829 0
M  V30 15024 C 1389.58 1.64635 -0.924158 0
M  V30 15025 O 1388.94 1.82267 0.0921139 0
M  V30 15026 C 1388.99 1.32842 -3.36207 0
M  V30 15027 O 1388.71 0.360111 -4.36617 0
M  V30 15028 C 1390.21 2.10305 -3.90239 0
M  V30 15029 H 1387.43 0.174634 -0.647876 0
M  V30 15030 H 1389.97 -0.111824 -2.04194 0
M  V30 15031 H 1388.13 2.02915 -3.30006 0
M  V30 15032 H 1388.54 0.852661 -5.17523 0
M  V30 15033 H 1390.02 2.54065 -4.90056 0
M  V30 15034 H 1390.49 2.94942 -3.25432 0
M  V30 15035 H 1391.1 1.45152 -3.99764 0
M  V30 15036 N 1389.41 1.55964 0.226527 0
M  V30 15037 C 1390.36 1.88403 1.28406 0
M  V30 15038 C 1391.35 0.746656 1.42527 0
M  V30 15039 O 1392.54 1.00898 1.45425 0
M  V30 15040 C 1389.67 2.19992 2.63549 0
M  V30 15041 C 1388.76 3.40109 2.5335 0
M  V30 15042 N 1389.15 4.58858 2.12798 0
M  V30 15043 C 1387.44 3.43625 2.8432 0
M  V30 15044 C 1388.15 5.41013 2.13729 0
M  V30 15045 N 1387.12 4.80596 2.54025 0
M  V30 15046 H 1390.92 2.77732 0.961352 0
M  V30 15047 H 1388.44 1.56463 0.435104 0
M  V30 15048 H 1390.43 2.41405 3.39896 0
M  V30 15049 H 1389.09 1.31973 2.9667 0
M  V30 15050 H 1390.11 4.84108 1.8401 0
M  V30 15051 H 1386.78 2.65935 3.21846 0
M  V30 15052 H 1388.17 6.4606 1.84543 0
M  V30 15053 N 1390.89 -0.493031 1.4969 0
M  V30 15054 C 1391.82 -1.60215 1.69863 0
M  V30 15055 C 1392.8 -1.61053 0.547362 0
M  V30 15056 O 1393.99 -1.77667 0.784093 0
M  V30 15057 C 1391.12 -2.98662 1.77252 0
M  V30 15058 C 1390.07 -3.1269 2.92248 0
M  V30 15059 C 1389.4 -4.52567 2.84758 0
M  V30 15060 C 1390.7 -2.91965 4.33074 0
M  V30 15061 H 1392.39 -1.43587 2.62723 0
M  V30 15062 H 1389.94 -0.689334 1.26429 0
M  V30 15063 H 1391.89 -3.7616 1.89951 0
M  V30 15064 H 1390.62 -3.16397 0.809976 0
M  V30 15065 H 1389.27 -2.37619 2.79164 0
M  V30 15066 H 1388.92 -4.6719 1.86394 0
M  V30 15067 H 1388.62 -4.62893 3.61944 0
M  V30 15068 H 1390.15 -5.32116 2.99475 0
M  V30 15069 H 1391.56 -3.59228 4.46798 0
M  V30 15070 H 1389.96 -3.13756 5.11544 0
M  V30 15071 H 1391.03 -1.88015 4.46966 0
M  V30 15072 N 1392.37 -1.38898 -0.744656 0
M  V30 15073 C 1393.65 -1.2611 -1.49518 0
M  V30 15074 C 1394.03 0.133592 -2.10677 0
M  V30 15075 O 1393.38 1.14394 -1.97804 0
M  V30 15076 C 1393.59 -2.37809 -2.55437 0
M  V30 15077 C 1394.93 -2.76664 -3.22091 0
M  V30 15078 O 1395.96 -2.37187 -2.65746 0
M  V30 15079 O 1394.82 -3.44771 -4.24023 0
M  V30 15080 H 1391.91 -0.493664 -0.663494 0
M  V30 15081 H 1394.46 -1.50748 -0.779304 0
M  V30 15082 H 1393.23 -3.31089 -2.08556 0
M  V30 15083 H 1392.85 -2.14783 -3.34595 0
M  V30 15084 N 1393.85 0.973806 -1.23914 0
M  V30 15085 C 1394.8 2.08861 -1.02372 0
M  V30 15086 C 1395.79 1.69354 0.039415 0
M  V30 15087 O 1397 1.79635 -0.114637 0
M  V30 15088 H 1393.37 0.683313 -0.313986 0
M  V30 15089 H 1395.34 2.24195 -1.96924 0
M  V30 15090 C 1394.09 3.41784 -0.638661 0
M  V30 15091 H 1393.41 3.72639 -1.44846 0
M  V30 15092 H 1394.85 4.20706 -0.527487 0
M  V30 15093 C 1393.31 3.30497 0.65369 0
M  V30 15094 O 1393.84 3.63905 1.70107 0
M  V30 15095 N 1392.05 2.83642 0.632104 0
M  V30 15096 H 1391.6 2.56654 -0.220571 0
M  V30 15097 H 1391.55 2.76472 1.49701 0
M  V30 15098 N 1395.33 1.05191 1.17357 0
M  V30 15099 C 1396.27 0.652868 2.21374 0
M  V30 15100 C 1397.24 -0.344974 1.62478 0
M  V30 15101 O 1398.43 -0.23639 1.8933 0
M  V30 15102 C 1395.57 0.0337737 3.45083 0
M  V30 15103 C 1394.68 1.08045 4.18271 0
M  V30 15104 C 1393.82 0.428673 5.29468 0
M  V30 15105 C 1392.86 1.45966 5.94441 0
M  V30 15106 N 1391.99 0.832042 6.97152 0
M  V30 15107 H 1396.83 1.54434 2.54861 0
M  V30 15108 H 1394.37 0.772365 1.25192 0
M  V30 15109 H 1396.33 -0.342607 4.15791 0
M  V30 15110 H 1394.96 -0.821159 3.12181 0
M  V30 15111 H 1394.01 1.57466 3.46278 0
M  V30 15112 H 1395.32 1.86305 4.62701 0
M  V30 15113 H 1394.48 -0.00129344 6.067 0
M  V30 15114 H 1393.21 -0.385919 4.86171 0
M  V30 15115 H 1392.22 1.89964 5.1594 0
M  V30 15116 H 1393.44 2.27615 6.39819 0
M  V30 15117 H 1391.39 0.0379612 6.55989 0
M  V30 15118 H 1391.31 1.55219 7.39894 0
M  V30 15119 H 1392.58 0.42685 7.7833 0
M  V30 15120 N 1396.8 -1.33791 0.83293 0
M  V30 15121 C 1398.05 -1.97233 0.422127 0
M  V30 15122 C 1398.37 -1.66738 -1.02264 0
M  V30 15123 O 1399.57 -2.23747 -1.53783 0
M  V30 15124 C 1398.03 -3.5295 0.703872 0
M  V30 15125 C 1397.64 -3.92329 2.16292 0
M  V30 15126 C 1399.38 -4.22973 0.359727 0
M  V30 15127 C 1397.29 -5.40999 2.38903 0
M  V30 15128 H 1396.22 -0.738082 0.154112 0
M  V30 15129 H 1398.87 -1.52494 1.02068 0
M  V30 15130 H 1397.25 -3.95985 0.0350184 0
M  V30 15131 H 1398.42 -3.6037 2.87176 0
M  V30 15132 H 1396.74 -3.35271 2.46947 0
M  V30 15133 H 1399.34 -5.32297 0.506366 0
M  V30 15134 H 1399.68 -4.10428 -0.696743 0
M  V30 15135 H 1400.21 -3.85449 0.983568 0
M  V30 15136 H 1396.95 -5.58541 3.43093 0
M  V30 15137 H 1396.47 -5.74438 1.72573 0
M  V30 15138 H 1398.15 -6.07809 2.2176 0
M  V30 15139 N 1398.28 -0.588812 -1.46187 0
M  V30 15140 C 1399.53 -0.0744093 -2.01563 0
M  V30 15141 C 1399.84 1.29578 -1.46523 0
M  V30 15142 O 1401.05 1.90186 -1.93756 0
M  V30 15143 C 1399.51 -0.082408 -3.59806 0
M  V30 15144 C 1399.11 -1.45129 -4.23842 0
M  V30 15145 C 1400.86 0.377732 -4.22816 0
M  V30 15146 C 1398.77 -1.41668 -5.74181 0
M  V30 15147 H 1397.7 -0.0240481 -0.753616 0
M  V30 15148 H 1400.35 -0.741364 -1.67857 0
M  V30 15149 H 1398.73 0.650832 -3.90615 0
M  V30 15150 H 1399.9 -2.20474 -4.04633 0
M  V30 15151 H 1398.22 -1.85196 -3.7295 0
M  V30 15152 H 1400.81 0.42251 -5.33028 0
M  V30 15153 H 1401.16 1.39655 -3.92176 0
M  V30 15154 H 1401.69 -0.301638 -3.96655 0
M  V30 15155 H 1398.43 -2.4125 -6.09491 0
M  V30 15156 H 1397.95 -0.705524 -5.95636 0
M  V30 15157 H 1399.63 -1.13221 -6.37016 0
M  V30 15158 N 1399.76 1.54172 -0.326923 0
M  V30 15159 C 1400.69 2.27402 0.530154 0
M  V30 15160 C 1401.67 1.28325 1.11655 0
M  V30 15161 O 1402.86 1.57142 1.14105 0
M  V30 15162 C 1399.99 3.03435 1.68951 0
M  V30 15163 C 1398.94 4.09877 1.23226 0
M  V30 15164 C 1398.27 4.7377 2.47882 0
M  V30 15165 C 1399.57 5.21161 0.344698 0
M  V30 15166 H 1401.26 2.99291 -0.0806959 0
M  V30 15167 H 1398.81 1.43944 -0.0402511 0
M  V30 15168 H 1400.76 3.53396 2.29541 0
M  V30 15169 H 1399.48 2.29169 2.327 0
M  V30 15170 H 1398.14 3.60805 0.649267 0
M  V30 15171 H 1397.79 3.96116 3.10002 0
M  V30 15172 H 1397.49 5.45674 2.17977 0
M  V30 15173 H 1399.01 5.26507 3.09229 0
M  V30 15174 H 1400.43 5.66859 0.856979 0
M  V30 15175 H 1398.83 5.99941 0.138276 0
M  V30 15176 H 1399.9 4.80874 -0.623575 0
M  V30 15177 N 1401.24 0.0551678 1.57503 0
M  V30 15178 C 1402.19 -0.927586 2.08278 0
M  V30 15179 C 1403.17 -1.26931 0.988802 0
M  V30 15180 O 1404.36 -1.25107 1.25209 0
M  V30 15181 C 1401.49 -2.20105 2.63456 0
M  V30 15182 C 1400.58 -1.88654 3.7983 0
M  V30 15183 N 1400.97 -1.2758 4.89446 0
M  V30 15184 C 1399.27 -2.185 3.8881 0
M  V30 15185 C 1399.97 -1.13848 5.7045 0
M  V30 15186 N 1398.95 -1.6427 5.18186 0
M  V30 15187 H 1402.75 -0.450784 2.90422 0
M  V30 15188 H 1400.26 -0.149178 1.61713 0
M  V30 15189 H 1402.26 -2.9141 2.98137 0
M  V30 15190 H 1400.92 -2.68388 1.82752 0
M  V30 15191 H 1401.93 -0.947506 5.09159 0
M  V30 15192 H 1398.61 -2.69276 3.19056 0
M  V30 15193 H 1400 -0.664014 6.68611 0
M  V30 15194 N 1402.72 -1.56081 -0.218252 0
M  V30 15195 C 1403.96 -1.79247 -0.942157 0
M  V30 15196 C 1404.29 -0.624492 -1.84202 0
M  V30 15197 O 1403.55 0.390973 -1.91755 0
M  V30 15198 C 1403.85 -3.08199 -1.80965 0
M  V30 15199 C 1403.51 -4.38197 -1.06274 0
M  V30 15200 C 1402.17 -4.73517 -0.856432 0
M  V30 15201 C 1404.53 -5.18441 -0.535532 0
M  V30 15202 C 1401.85 -5.86595 -0.111065 0
M  V30 15203 C 1404.21 -6.32295 0.196507 0
M  V30 15204 C 1402.87 -6.66215 0.414041 0
M  V30 15205 H 1402.14 -0.655913 -0.34476 0
M  V30 15206 H 1404.79 -1.90344 -0.210095 0
M  V30 15207 H 1403.09 -2.92238 -2.60967 0
M  V30 15208 H 1404.79 -3.23325 -2.37196 0
M  V30 15209 H 1401.38 -4.10466 -1.23352 0
M  V30 15210 H 1405.56 -4.91586 -0.682386 0
M  V30 15211 H 1400.82 -6.11363 0.0676711 0
M  V30 15212 H 1404.99 -6.93701 0.612516 0
M  V30 15213 H 1402.62 -7.5368 0.993532 0
M  V30 15214 N 1404.2 0.485086 -1.49949 0
M  V30 15215 C 1405.44 1.23999 -1.60474 0
M  V30 15216 C 1405.77 1.91904 -0.297736 0
M  V30 15217 O 1405.05 1.81472 0.699857 0
M  V30 15218 C 1405.33 2.2946 -2.77525 0
M  V30 15219 C 1405.19 1.65952 -4.18067 0
M  V30 15220 C 1406.5 3.30893 -2.90169 0
M  V30 15221 H 1403.62 0.449462 -0.584083 0
M  V30 15222 H 1406.27 0.535795 -1.82289 0
M  V30 15223 H 1404.42 2.89521 -2.59056 0
M  V30 15224 H 1406.09 1.09596 -4.48092 0
M  V30 15225 H 1404.33 0.963079 -4.22974 0
M  V30 15226 H 1405 2.42521 -4.9587 0
M  V30 15227 H 1407.48 2.8084 -3.07031 0
M  V30 15228 H 1406.35 4.02027 -3.73718 0
M  V30 15229 H 1406.61 3.94178 -2.0019 0
M  V30 15230 N 1405.67 1.39291 0.737279 0
M  V30 15231 C 1406.58 1.40098 1.88175 0
M  V30 15232 C 1407.6 0.296053 1.71463 0
M  V30 15233 O 1408.78 0.537153 1.94105 0
M  V30 15234 C 1405.84 1.24071 3.2374 0
M  V30 15235 C 1404.9 2.44515 3.52861 0
M  V30 15236 C 1404.13 2.29243 4.81958 0
M  V30 15237 O 1404.36 1.2947 5.55512 0
M  V30 15238 O 1403.29 3.18178 5.10927 0
M  V30 15239 H 1407.12 2.36565 1.90449 0
M  V30 15240 H 1404.7 1.20382 0.884786 0
M  V30 15241 H 1406.58 1.17257 4.04758 0
M  V30 15242 H 1405.26 0.30698 3.22241 0
M  V30 15243 H 1404.17 2.56905 2.71939 0
M  V30 15244 H 1405.5 3.36573 3.59137 0
M  V30 15245 N 1407.15 -0.967221 1.24429 0
M  V30 15246 C 1408.38 -1.75053 1.11226 0
M  V30 15247 C 1408.8 -1.85162 -0.331139 0
M  V30 15248 O 1408.16 -1.32288 -1.23974 0
M  V30 15249 C 1408.21 -3.14882 1.75733 0
M  V30 15250 O 1407.31 -3.99371 1.02842 0
M  V30 15251 H 1406.65 -0.538078 0.389061 0
M  V30 15252 H 1409.18 -1.21325 1.64746 0
M  V30 15253 H 1409.19 -3.65402 1.81509 0
M  V30 15254 H 1407.87 -3.06839 2.80754 0
M  V30 15255 H 1406.44 -3.57854 1.04856 0
M  V30 15256 N 1408.63 -1.05812 -1.16797 0
M  V30 15257 C 1409.58 -0.658636 -2.2308 0
M  V30 15258 C 1410.57 0.323104 -1.6629 0
M  V30 15259 O 1411.78 0.188492 -1.7901 0
M  V30 15260 H 1408.15 -0.194843 -0.72632 0
M  V30 15261 H 1410.12 -1.56501 -2.54067 0
M  V30 15262 C 1408.87 -0.0559428 -3.47655 0
M  V30 15263 H 1408.2 -0.802468 -3.91664 0
M  V30 15264 H 1409.64 0.186118 -4.23591 0
M  V30 15265 C 1408.09 1.19913 -3.14837 0
M  V30 15266 O 1408.62 2.28772 -3.30191 0
M  V30 15267 N 1406.83 1.09921 -2.69009 0
M  V30 15268 H 1406.38 0.213331 -2.56715 0
M  V30 15269 H 1406.34 1.93981 -2.47424 0
M  V30 15270 N 1410.11 1.33347 -0.840014 0
M  V30 15271 C 1411.33 2.02485 -0.448856 0
M  V30 15272 C 1411.76 1.62781 0.942543 0
M  V30 15273 O 1411.12 0.82099 1.61646 0
M  V30 15274 C 1411.16 3.55928 -0.578582 0
M  V30 15275 O 1410.27 4.10507 0.394695 0
M  V30 15276 H 1409.61 0.63848 -0.182317 0
M  V30 15277 H 1412.14 1.70221 -1.13516 0
M  V30 15278 H 1412.15 4.05391 -0.460653 0
M  V30 15279 H 1410.82 3.8417 -1.5933 0
M  V30 15280 H 1409.4 3.72164 0.234227 0
M  V30 15281 N 1411.59 0.596556 1.45873 0
M  V30 15282 C 1412.83 0.0872856 2.01911 0
M  V30 15283 C 1413.15 -1.28257 1.46885 0
M  V30 15284 O 1412.42 -1.84489 0.658837 0
M  V30 15285 H 1411 0.0292769 0.746426 0
M  V30 15286 H 1413.67 0.775464 1.78809 0
M  V30 15287 H 1412.76 0.0287213 3.12087 0
M  V30 15288 N 1413.06 -1.53996 0.335095 0
M  V30 15289 C 1414.29 -2.0489 -0.265245 0
M  V30 15290 C 1414.7 -1.21024 -1.4543 0
M  V30 15291 O 1414.04 -0.236417 -1.82172 0
M  V30 15292 C 1414.11 -3.51546 -0.752018 0
M  V30 15293 C 1413.77 -4.55904 0.316261 0
M  V30 15294 C 1414.77 -5.06881 1.15617 0
M  V30 15295 C 1412.45 -5.00117 0.467762 0
M  V30 15296 C 1414.45 -6.00644 2.13321 0
M  V30 15297 C 1412.13 -5.93692 1.4482 0
M  V30 15298 C 1413.13 -6.43842 2.27938 0
M  V30 15299 O 1412.82 -7.35578 3.24315 0
M  V30 15300 H 1412.55 -0.673631 -0.0565427 0
M  V30 15301 H 1415.11 -1.99646 0.482771 0
M  V30 15302 H 1413.34 -3.54227 -1.55114 0
M  V30 15303 H 1415.02 -3.85455 -1.27197 0
M  V30 15304 H 1415.79 -4.73494 1.05017 0
M  V30 15305 H 1411.67 -4.60689 -0.169338 0
M  V30 15306 H 1415.21 -6.39711 2.78236 0
M  V30 15307 H 1411.11 -6.26495 1.5548 0
M  V30 15308 H 1411.88 -7.53487 3.19688 0
M  V30 15309 N 1414.54 -0.0635198 -1.57472 0
M  V30 15310 C 1415.79 0.607008 -1.92349 0
M  V30 15311 C 1416.1 1.71268 -0.944806 0
M  V30 15312 O 1417.31 2.44221 -1.18609 0
M  V30 15313 C 1415.77 1.13105 -3.41666 0
M  V30 15314 C 1415.37 0.0568256 -4.47964 0
M  V30 15315 C 1417.12 1.77611 -3.85557 0
M  V30 15316 C 1415.02 0.594443 -5.88405 0
M  V30 15317 H 1413.95 0.230506 -0.717902 0
M  V30 15318 H 1416.61 -0.134413 -1.83007 0
M  V30 15319 H 1414.99 1.92517 -3.46054 0
M  V30 15320 H 1416.16 -0.717371 -4.55182 0
M  V30 15321 H 1414.48 -0.491517 -4.13489 0
M  V30 15322 H 1417.07 2.18852 -4.87861 0
M  V30 15323 H 1417.42 2.6328 -3.22474 0
M  V30 15324 H 1417.95 1.04834 -3.83738 0
M  V30 15325 H 1414.69 -0.224893 -6.55114 0
M  V30 15326 H 1414.21 1.33635 -5.84724 0
M  V30 15327 H 1415.89 1.07346 -6.38033 0
M  V30 15328 N 1416.02 1.56195 0.209972 0
M  V30 15329 C 1416.97 1.89755 1.26401 0
M  V30 15330 C 1417.95 0.761731 1.41727 0
M  V30 15331 O 1419.15 1.02435 1.44347 0
M  V30 15332 C 1416.27 2.22775 2.61201 0
M  V30 15333 C 1415.36 3.42777 2.49729 0
M  V30 15334 N 1415.75 4.61089 2.0792 0
M  V30 15335 C 1414.05 3.46621 2.8066 0
M  V30 15336 C 1414.75 5.43249 2.07979 0
M  V30 15337 N 1413.73 4.83263 2.48913 0
M  V30 15338 H 1417.53 2.78736 0.93184 0
M  V30 15339 H 1415.04 1.56915 0.418485 0
M  V30 15340 H 1417.04 2.44997 3.37316 0
M  V30 15341 H 1415.7 1.35112 2.95254 0
M  V30 15342 H 1416.71 4.86033 1.78865 0
M  V30 15343 H 1413.39 2.69334 3.19007 0
M  V30 15344 H 1414.78 6.47981 1.77681 0
M  V30 15345 N 1417.5 -0.477127 1.50204 0
M  V30 15346 C 1418.46 -1.55824 1.68082 0
M  V30 15347 C 1419.46 -1.51039 0.551719 0
M  V30 15348 O 1420.65 -1.53766 0.818638 0
M  V30 15349 C 1417.78 -2.95462 1.70044 0
M  V30 15350 H 1418.98 -1.41292 2.64531 0
M  V30 15351 H 1416.53 -0.70308 1.39594 0
M  V30 15352 H 1417.26 -3.15445 0.752663 0
M  V30 15353 H 1417.05 -3.00343 2.52065 0
M  V30 15354 H 1418.54 -3.73964 1.85851 0
M  V30 15355 N 1418.98 -1.3968 -0.729882 0
M  V30 15356 C 1420.2 -1.40467 -1.5191 0
M  V30 15357 C 1420.62 -0.000529943 -1.888 0
M  V30 15358 O 1419.98 0.972072 -1.54457 0
M  V30 15359 C 1420.03 -2.2823 -2.80345 0
M  V30 15360 O 1419.75 -3.63176 -2.4502 0
M  V30 15361 C 1421.25 -2.37455 -3.74339 0
M  V30 15362 H 1418.47 -0.479604 -0.469277 0
M  V30 15363 H 1421.01 -1.83558 -0.901484 0
M  V30 15364 H 1419.17 -1.88538 -3.38426 0
M  V30 15365 H 1419.58 -4.0964 -3.2756 0
M  V30 15366 H 1421.06 -3.031 -4.6134 0
M  V30 15367 H 1421.53 -1.39525 -4.16449 0
M  V30 15368 H 1422.14 -2.77638 -3.22176 0
M  V30 15369 N 1420.45 0.960609 -1.2494 0
M  V30 15370 C 1421.38 2.074 -1.07274 0
M  V30 15371 C 1422.37 1.70092 0.0164365 0
M  V30 15372 O 1423.55 1.93604 -0.151975 0
M  V30 15373 C 1420.68 3.40491 -0.684317 0
M  V30 15374 C 1419.63 3.91784 -1.72306 0
M  V30 15375 C 1418.96 5.21301 -1.18949 0
M  V30 15376 C 1420.26 4.18829 -3.12056 0
M  V30 15377 H 1421.95 2.22438 -2.00404 0
M  V30 15378 H 1419.5 1.06888 -0.964937 0
M  V30 15379 H 1421.45 4.17826 -0.547686 0
M  V30 15380 H 1420.18 3.25374 0.282687 0
M  V30 15381 H 1418.84 3.16613 -1.84802 0
M  V30 15382 H 1418.48 5.02549 -0.212892 0
M  V30 15383 H 1418.18 5.56588 -1.8837 0
M  V30 15384 H 1419.71 6.01238 -1.06513 0
M  V30 15385 H 1421.12 4.86844 -3.02748 0
M  V30 15386 H 1419.52 4.6536 -3.78894 0
M  V30 15387 H 1420.59 3.25333 -3.59564 0
M  V30 15388 N 1421.93 1.0643 1.16234 0
M  V30 15389 C 1422.86 0.697605 2.22836 0
M  V30 15390 C 1423.84 -0.310563 1.67241 0
M  V30 15391 O 1425.03 -0.185385 1.93313 0
M  V30 15392 C 1422.16 0.0847097 3.47197 0
M  V30 15393 C 1421.11 1.019 4.15693 0
M  V30 15394 C 1420.44 0.269339 5.34021 0
M  V30 15395 C 1421.74 2.34861 4.66516 0
M  V30 15396 H 1423.43 1.58883 2.53765 0
M  V30 15397 H 1420.98 0.765388 1.21975 0
M  V30 15398 H 1422.93 -0.1837 4.20999 0
M  V30 15399 H 1421.66 -0.84154 3.15572 0
M  V30 15400 H 1420.31 1.27218 3.43818 0
M  V30 15401 H 1419.96 -0.660072 4.9865 0
M  V30 15402 H 1419.66 0.892001 5.8079 0
M  V30 15403 H 1421.19 0.00850775 6.10599 0
M  V30 15404 H 1422.6 2.13922 5.31893 0
M  V30 15405 H 1421 2.92637 5.23912 0
M  V30 15406 H 1422.07 2.97834 3.82653 0
M  V30 15407 N 1423.41 -1.329 0.847073 0
M  V30 15408 C 1424.64 -2.02244 0.459588 0
M  V30 15409 C 1425.06 -1.63279 -0.933897 0
M  V30 15410 O 1424.42 -0.829551 -1.61208 0
M  V30 15411 C 1424.47 -3.55616 0.59745 0
M  V30 15412 O 1423.57 -4.1071 -0.372919 0
M  V30 15413 H 1422.91 -0.637504 0.1857 0
M  V30 15414 H 1425.44 -1.69617 1.14417 0
M  V30 15415 H 1425.45 -4.05141 0.482145 0
M  V30 15416 H 1424.13 -3.8332 1.61365 0
M  V30 15417 H 1422.7 -3.72283 -0.214487 0
M  V30 15418 N 1424.89 -0.604284 -1.45555 0
M  V30 15419 C 1425.84 0.116491 -2.30506 0
M  V30 15420 C 1426.81 0.863214 -1.41908 0
M  V30 15421 O 1427.99 0.849606 -1.7084 0
M  V30 15422 C 1425.13 1.11009 -3.26758 0
M  V30 15423 C 1424.24 0.36458 -4.30459 0
M  V30 15424 C 1423.38 1.34761 -5.13822 0
M  V30 15425 C 1422.42 0.589724 -6.09253 0
M  V30 15426 N 1421.55 1.52187 -6.85408 0
M  V30 15427 H 1426.39 -0.61394 -2.91607 0
M  V30 15428 H 1423.93 -0.314561 -1.43697 0
M  V30 15429 H 1425.89 1.69925 -3.81027 0
M  V30 15430 H 1424.52 1.80797 -2.67418 0
M  V30 15431 H 1423.57 -0.340026 -3.78877 0
M  V30 15432 H 1424.88 -0.226906 -4.98284 0
M  V30 15433 H 1424.04 2.00893 -5.72474 0
M  V30 15434 H 1422.78 1.97302 -4.46008 0
M  V30 15435 H 1421.78 -0.0852486 -5.49734 0
M  V30 15436 H 1423.01 -0.0306001 -6.79093 0
M  V30 15437 H 1420.95 2.13499 -6.20286 0
M  V30 15438 H 1420.87 0.983737 -7.49572 0
M  V30 15439 H 1422.14 2.17287 -7.48603 0
M  V30 15440 N 1426.37 1.53816 -0.343257 0
M  V30 15441 C 1427.28 2.28716 0.522121 0
M  V30 15442 C 1428.29 1.33815 1.11218 0
M  V30 15443 O 1429.47 1.66853 1.12793 0
M  V30 15444 C 1426.53 3.04517 1.65741 0
M  V30 15445 C 1425.59 4.15043 1.09716 0
M  V30 15446 C 1424.83 4.8722 2.17835 0
M  V30 15447 O 1425.05 4.59065 3.38549 0
M  V30 15448 O 1423.98 5.73678 1.82145 0
M  V30 15449 H 1427.81 3.03576 -0.086732 0
M  V30 15450 H 1425.4 1.49007 -0.108313 0
M  V30 15451 H 1427.28 3.51921 2.31796 0
M  V30 15452 H 1425.95 2.32514 2.25208 0
M  V30 15453 H 1424.86 3.71943 0.401152 0
M  V30 15454 H 1426.19 4.89147 0.547362 0
M  V30 15455 N 1427.84 0.0718701 1.57436 0
M  V30 15456 C 1428.79 -0.913026 2.13931 0
M  V30 15457 C 1429.79 -1.3082 1.07622 0
M  V30 15458 O 1430.99 -1.28544 1.26002 0
M  V30 15459 H 1427.37 -0.31238 0.684049 0
M  V30 15460 H 1429.34 -0.411613 2.95547 0
M  V30 15461 C 1428.09 -2.17109 2.71586 0
M  V30 15462 H 1427.41 -1.87585 3.53061 0
M  V30 15463 H 1428.85 -2.84134 3.14712 0
M  V30 15464 C 1427.31 -2.92967 1.6635 0
M  V30 15465 O 1427.84 -3.8667 1.08854 0
M  V30 15466 N 1426.05 -2.56075 1.37383 0
M  V30 15467 H 1425.59 -1.79949 1.84326 0
M  V30 15468 H 1425.55 -3.07134 0.672039 0
M  V30 15469 N 1429.32 -1.56304 -0.201686 0
M  V30 15470 C 1430.29 -1.93171 -1.2336 0
M  V30 15471 C 1431.29 -0.812164 -1.38782 0
M  V30 15472 O 1432.48 -1.07967 -1.36707 0
M  V30 15473 C 1429.61 -2.19997 -2.60411 0
M  V30 15474 H 1430.8 -2.85483 -0.918654 0
M  V30 15475 H 1428.35 -1.49893 -0.442935 0
M  V30 15476 H 1429.09 -1.30301 -2.96972 0
M  V30 15477 H 1428.87 -3.01574 -2.5059 0
M  V30 15478 H 1430.36 -2.49547 -3.34838 0
M  V30 15479 N 1430.8 0.469154 -1.50455 0
M  V30 15480 C 1431.73 1.57493 -1.7239 0
M  V30 15481 C 1432.71 1.60161 -0.572915 0
M  V30 15482 O 1433.9 1.76397 -0.812259 0
M  V30 15483 C 1431.03 2.95804 -1.81981 0
M  V30 15484 C 1429.98 3.08001 -2.97185 0
M  V30 15485 C 1429.31 4.4798 -2.91922 0
M  V30 15486 C 1430.61 2.85039 -4.37665 0
M  V30 15487 H 1432.3 1.39389 -2.64974 0
M  V30 15488 H 1429.85 0.669133 -1.27509 0
M  V30 15489 H 1431.8 3.73091 -1.95911 0
M  V30 15490 H 1430.52 3.15068 -0.86021 0
M  V30 15491 H 1429.18 2.33148 -2.82909 0
M  V30 15492 H 1428.83 4.64165 -1.93803 0
M  V30 15493 H 1428.53 4.57076 -3.69263 0
M  V30 15494 H 1430.05 5.27284 -3.07903 0
M  V30 15495 H 1431.47 3.52074 -4.52456 0
M  V30 15496 H 1429.87 3.05578 -5.16471 0
M  V30 15497 H 1430.94 1.8088 -4.499 0
M  V30 15498 N 1432.28 1.40065 0.722464 0
M  V30 15499 C 1433.52 1.39414 1.49476 0
M  V30 15500 C 1433.88 -0.00655879 1.91999 0
M  V30 15501 O 1435.08 -0.138145 2.68445 0
M  V30 15502 C 1433.35 2.35014 2.69264 0
M  V30 15503 S 1434.91 2.52662 3.58758 0
M  V30 15504 H 1431.73 0.494229 0.511135 0
M  V30 15505 H 1434.33 1.76274 0.845447 0
M  V30 15506 H 1433.04 3.35627 2.36184 0
M  V30 15507 H 1432.57 1.99414 3.39113 0
M  V30 15508 H 1434.58 1.77389 4.63409 0
M  V30 15509 N 1433.76 -0.95397 1.25448 0
M  V30 15510 C 1434.99 -1.73331 1.12977 0
M  V30 15511 C 1435.4 -1.86131 -0.316364 0
M  V30 15512 O 1434.76 -1.35951 -1.21753 0
M  V30 15513 C 1434.81 -3.14675 1.77938 0
M  V30 15514 O 1434.53 -3.025 3.16899 0
M  V30 15515 C 1436.03 -4.08884 1.71256 0
M  V30 15516 H 1433.25 -0.543118 0.394036 0
M  V30 15517 H 1435.79 -1.19678 1.65823 0
M  V30 15518 H 1433.95 -3.6527 1.29062 0
M  V30 15519 H 1434.36 -3.91668 3.4885 0
M  V30 15520 H 1435.84 -5.05668 2.21368 0
M  V30 15521 H 1436.31 -4.33959 0.676476 0
M  V30 15522 H 1436.92 -3.64205 2.19624 0
M  V30 15523 N 1435.24 -1.07045 -1.15668 0
M  V30 15524 C 1436.46 -0.812802 -1.9081 0
M  V30 15525 C 1436.89 0.627827 -1.77313 0
M  V30 15526 O 1436.24 1.43836 -1.10368 0
M  V30 15527 C 1436.29 -1.2219 -3.39267 0
M  V30 15528 O 1435.4 -0.365305 -4.10779 0
M  V30 15529 H 1434.74 -0.296385 -0.594182 0
M  V30 15530 H 1437.27 -1.42825 -1.465 0
M  V30 15531 H 1437.28 -1.19674 -3.90054 0
M  V30 15532 H 1435.95 -2.27121 -3.48409 0
M  V30 15533 H 1434.53 -0.452687 -3.70142 0
M  V30 15534 N 1436.71 1.32449 -0.85411 0
M  V30 15535 C 1437.64 2.31383 -0.313697 0
M  V30 15536 C 1438.62 1.59656 0.586858 0
M  V30 15537 O 1439.81 1.87459 0.507216 0
M  V30 15538 C 1436.94 3.43693 0.499235 0
M  V30 15539 C 1435.89 4.26899 -0.306839 0
M  V30 15540 C 1435.22 5.30966 0.630795 0
M  V30 15541 C 1436.52 4.99318 -1.53229 0
M  V30 15542 H 1438.21 2.76832 -1.14037 0
M  V30 15543 H 1435.76 1.33091 -0.549805 0
M  V30 15544 H 1437.71 4.11944 0.887709 0
M  V30 15545 H 1436.44 2.96971 1.35926 0
M  V30 15546 H 1435.1 3.60294 -0.677061 0
M  V30 15547 H 1434.74 4.80498 1.48765 0
M  V30 15548 H 1434.44 5.87522 0.0954635 0
M  V30 15549 H 1435.97 6.0208 1.01646 0
M  V30 15550 H 1437.38 5.60253 -1.21614 0
M  V30 15551 H 1435.78 5.65596 -2.00552 0
M  V30 15552 H 1436.85 4.27213 -2.29383 0
M  V30 15553 N 1438.19 0.611994 1.45232 0
M  V30 15554 C 1439.15 -0.0943825 2.29006 0
M  V30 15555 C 1440.15 -0.790863 1.40007 0
M  V30 15556 O 1441.34 -0.638356 1.62082 0
M  V30 15557 C 1438.48 -1.1439 3.21135 0
M  V30 15558 H 1439.67 0.6422 2.92943 0
M  V30 15559 H 1437.22 0.37124 1.51827 0
M  V30 15560 H 1437.96 -1.9111 2.62007 0
M  V30 15561 H 1437.74 -0.648638 3.86698 0
M  V30 15562 H 1439.23 -1.63848 3.84114 0
M  V30 15563 N 1439.67 -1.53632 0.351409 0
M  V30 15564 C 1440.92 -2.00222 -0.243731 0
M  V30 15565 C 1441.23 -1.24305 -1.51022 0
M  V30 15566 O 1442.44 -1.61411 -2.18309 0
M  V30 15567 C 1440.89 -3.56619 -0.48487 0
M  V30 15568 C 1440.5 -4.414 0.766173 0
M  V30 15569 C 1442.25 -4.11603 -1.03844 0
M  V30 15570 C 1440.15 -5.89321 0.4954 0
M  V30 15571 H 1439.08 -0.74801 -0.0948534 0
M  V30 15572 H 1441.73 -1.77433 0.467957 0
M  V30 15573 H 1440.12 -3.75505 -1.25746 0
M  V30 15574 H 1441.29 -4.34288 1.54047 0
M  V30 15575 H 1439.6 -3.97448 1.24194 0
M  V30 15576 H 1442.2 -5.19736 -1.25611 0
M  V30 15577 H 1442.54 -3.65311 -1.99634 0
M  V30 15578 H 1443.08 -3.96459 -0.326363 0
M  V30 15579 H 1439.82 -6.39863 1.42324 0
M  V30 15580 H 1439.34 -5.99317 -0.240662 0
M  V30 15581 H 1441.02 -6.46897 0.115584 0
M  V30 15582 N 1441.15 -0.0802183 -1.57396 0
M  V30 15583 C 1442.08 0.881426 -2.16225 0
M  V30 15584 C 1443.06 1.30459 -1.09154 0
M  V30 15585 O 1444.24 1.37413 -1.37227 0
M  V30 15586 C 1441.37 2.14599 -2.73065 0
M  V30 15587 C 1440.33 1.86195 -3.85377 0
M  V30 15588 C 1439.65 3.19354 -4.28856 0
M  V30 15589 C 1440.95 1.16059 -5.09242 0
M  V30 15590 H 1442.65 0.391325 -2.96832 0
M  V30 15591 H 1440.19 0.186785 -1.42783 0
M  V30 15592 H 1442.15 2.82297 -3.12868 0
M  V30 15593 H 1440.87 2.65866 -1.89691 0
M  V30 15594 H 1439.53 1.209 -3.46091 0
M  V30 15595 H 1439.18 3.68479 -3.42392 0
M  V30 15596 H 1438.88 3.01137 -5.04569 0
M  V30 15597 H 1440.4 3.88235 -4.71281 0
M  V30 15598 H 1441.82 1.7384 -5.46308 0
M  V30 15599 H 1440.21 1.08072 -5.90288 0
M  V30 15600 H 1441.28 0.14098 -4.84695 0
M  V30 15601 N 1442.63 1.56409 0.193394 0
M  V30 15602 C 1443.54 1.97886 1.26009 0
M  V30 15603 C 1444.55 0.886786 1.49707 0
M  V30 15604 O 1445.73 1.19267 1.62288 0
M  V30 15605 C 1442.79 2.31145 2.58404 0
M  V30 15606 C 1441.85 3.54069 2.42763 0
M  V30 15607 C 1441.09 3.85732 3.68845 0
M  V30 15608 O 1441.31 3.18662 4.73086 0
M  V30 15609 O 1440.24 4.79155 3.64272 0
M  V30 15610 H 1444.07 2.88849 0.938087 0
M  V30 15611 H 1441.65 1.43987 0.398528 0
M  V30 15612 H 1443.54 2.53606 3.36544 0
M  V30 15613 H 1442.21 1.4335 2.90228 0
M  V30 15614 H 1441.12 3.36854 1.62728 0
M  V30 15615 H 1442.45 4.42335 2.15871 0
M  V30 15616 N 1444.1 -0.461169 1.50702 0
M  V30 15617 C 1445.35 -1.21137 1.63393 0
M  V30 15618 C 1445.7 -1.89467 0.334664 0
M  V30 15619 O 1445 -1.79575 -0.668083 0
M  V30 15620 C 1445.19 -2.27213 2.75879 0
M  V30 15621 C 1445.02 -1.69291 4.16618 0
M  V30 15622 C 1443.79 -1.48827 4.82886 0
M  V30 15623 C 1445.99 -1.18233 5.00525 0
M  V30 15624 N 1443.97 -0.862524 6.07811 0
M  V30 15625 C 1445.34 -0.680412 6.16255 0
M  V30 15626 C 1447.4 -1.07182 4.86227 0
M  V30 15627 C 1446.1 -0.0788727 7.19257 0
M  V30 15628 C 1448.13 -0.484201 5.89415 0
M  V30 15629 C 1447.49 0.00728753 7.044 0
M  V30 15630 H 1443.59 -0.431797 0.651978 0
M  V30 15631 H 1446.17 -0.511751 1.87854 0
M  V30 15632 H 1444.34 -2.94591 2.53122 0
M  V30 15633 H 1446.07 -2.94223 2.77875 0
M  V30 15634 H 1442.83 -1.74332 4.40347 0
M  V30 15635 H 1443.25 -0.567778 6.74615 0
M  V30 15636 H 1447.89 -1.43771 3.97605 0
M  V30 15637 H 1445.61 0.299208 8.07546 0
M  V30 15638 H 1449.2 -0.400923 5.80417 0
M  V30 15639 H 1448.08 0.454852 7.8288 0
M  V30 15640 N 1445.58 -1.40446 -0.715026 0
M  V30 15641 C 1446.54 -1.40506 -1.81082 0
M  V30 15642 C 1447.54 -0.298768 -1.58 0
M  V30 15643 O 1448.73 -0.5577 -1.65031 0
M  V30 15644 C 1445.87 -1.19735 -3.19181 0
M  V30 15645 H 1447.06 -2.38034 -1.82427 0
M  V30 15646 H 1444.61 -1.26303 -0.920718 0
M  V30 15647 H 1445.35 -0.229695 -3.23486 0
M  V30 15648 H 1445.13 -1.99871 -3.37334 0
M  V30 15649 H 1446.62 -1.22566 -3.99208 0
M  V30 15650 N 1447.06 0.947303 -1.25952 0
M  V30 15651 C 1448.48 1.21972 -1.02932 0
M  V30 15652 C 1448.68 1.99951 0.249333 0
M  V30 15653 O 1447.73 2.33534 0.960108 0
M  V30 15654 C 1449.04 1.98695 -2.257 0
M  V30 15655 C 1450.59 2.11711 -2.30538 0
M  V30 15656 C 1451.07 2.91835 -3.52982 0
M  V30 15657 N 1452.56 2.99411 -3.53422 0
M  V30 15658 C 1453.29 3.6182 -4.4483 0
M  V30 15659 N 1452.79 4.25781 -5.46519 0
M  V30 15660 N 1454.58 3.59033 -4.32495 0
M  V30 15661 H 1446.73 0.42583 -2.08088 0
M  V30 15662 H 1449 0.250899 -0.914196 0
M  V30 15663 H 1448.7 1.48801 -3.18671 0
M  V30 15664 H 1448.58 2.9938 -2.29459 0
M  V30 15665 H 1450.96 2.608 -1.38085 0
M  V30 15666 H 1451.04 1.10308 -2.30794 0
M  V30 15667 H 1450.69 2.43435 -4.4576 0
M  V30 15668 H 1450.62 3.9348 -3.49973 0
M  V30 15669 H 1453.11 2.53934 -2.79868 0
M  V30 15670 H 1453.42 4.71281 -6.12466 0
M  V30 15671 H 1451.77 4.24386 -5.50383 0
M  V30 15672 H 1454.96 3.08254 -3.52274 0
M  V30 15673 H 1455.13 4.07384 -5.03927 0
M  V30 15674 N 1448.54 1.07657 1.15099 0
M  V30 15675 C 1449.47 0.721201 2.22083 0
M  V30 15676 C 1450.45 -0.292808 1.67561 0
M  V30 15677 O 1451.63 -0.164872 1.93499 0
M  V30 15678 C 1448.76 0.12153 3.47087 0
M  V30 15679 C 1447.72 1.06303 4.14588 0
M  V30 15680 C 1447.04 0.325964 5.33706 0
M  V30 15681 C 1448.34 2.39796 4.63999 0
M  V30 15682 H 1450.04 1.61566 2.52065 0
M  V30 15683 H 1447.58 0.778282 1.21156 0
M  V30 15684 H 1449.54 -0.139037 4.21171 0
M  V30 15685 H 1448.26 -0.808022 3.16447 0
M  V30 15686 H 1446.92 1.30858 3.4245 0
M  V30 15687 H 1446.57 -0.607147 4.99322 0
M  V30 15688 H 1446.27 0.953552 5.79811 0
M  V30 15689 H 1447.79 0.0732695 6.10556 0
M  V30 15690 H 1449.21 2.19552 5.29594 0
M  V30 15691 H 1447.6 2.98178 5.20778 0
M  V30 15692 H 1448.67 3.01876 3.79472 0
M  V30 15693 N 1450.02 -1.31994 0.861122 0
M  V30 15694 C 1451.26 -1.97025 0.467678 0
M  V30 15695 C 1451.59 -1.68116 -0.978129 0
M  V30 15696 O 1450.85 -0.965342 -1.70234 0
M  V30 15697 C 1451.15 -3.51232 0.661135 0
M  V30 15698 C 1450.81 -4.00142 2.07839 0
M  V30 15699 C 1449.47 -4.1321 2.466 0
M  V30 15700 C 1451.83 -4.25986 3.00309 0
M  V30 15701 C 1449.15 -4.49467 3.7709 0
M  V30 15702 C 1451.51 -4.63704 4.30304 0
M  V30 15703 C 1450.17 -4.74978 4.68991 0
M  V30 15704 H 1449.44 -0.720967 0.171136 0
M  V30 15705 H 1452.09 -1.57285 1.09242 0
M  V30 15706 H 1450.39 -3.91772 -0.0467947 0
M  V30 15707 H 1452.09 -3.99584 0.336669 0
M  V30 15708 H 1448.68 -3.90461 1.76743 0
M  V30 15709 H 1452.86 -4.15393 2.71592 0
M  V30 15710 H 1448.12 -4.56391 4.06838 0
M  V30 15711 H 1452.29 -4.82654 5.02014 0
M  V30 15712 H 1449.92 -5.02828 5.70147 0
M  V30 15713 N 1451.49 -0.619688 -1.44906 0
M  V30 15714 C 1452.72 -0.124598 -2.07025 0
M  V30 15715 C 1453.14 1.18698 -1.45919 0
M  V30 15716 O 1452.5 1.72552 -0.556366 0
M  V30 15717 C 1452.55 -0.0112238 -3.60598 0
M  V30 15718 O 1451.65 1.03582 -3.9918 0
M  V30 15719 H 1451 -0.0795631 -0.659216 0
M  V30 15720 H 1453.53 -0.853127 -1.85965 0
M  V30 15721 H 1453.54 0.183079 -4.07589 0
M  V30 15722 H 1452.21 -0.968849 -4.04458 0
M  V30 15723 H 1450.79 0.817008 -3.6384 0
M  V30 15724 N 1452.97 1.53444 -0.359552 0
M  V30 15725 C 1454.38 1.86308 0.120955 0
M  V30 15726 C 1454.73 1.28033 1.48667 0
M  V30 15727 O 1453.86 0.600041 2.07915 0
M  V30 15728 C 1454.45 3.38044 0.226255 0
M  V30 15729 C 1453.01 3.70727 0.65101 0
M  V30 15730 C 1452.16 2.76538 -0.205482 0
M  V30 15731 H 1455.11 1.47778 -0.578569 0
M  V30 15732 H 1455.13 3.65699 1.05092 0
M  V30 15733 H 1454.64 3.80428 -0.767874 0
M  V30 15734 H 1452.75 3.33897 1.65359 0
M  V30 15735 H 1452.86 4.77168 0.429802 0
M  V30 15736 H 1451.22 2.52622 0.3247 0
M  V30 15737 H 1452.01 3.21754 -1.19704 0
M  V30 15738 N 1454.45 0.0885642 1.57351 0
M  V30 15739 C 1455.4 -0.872723 2.13664 0
M  V30 15740 C 1456.37 -1.28418 1.05347 0
M  V30 15741 O 1457.55 -1.36709 1.33099 0
M  V30 15742 C 1454.69 -2.12886 2.71613 0
M  V30 15743 C 1453.81 -1.76852 3.94141 0
M  V30 15744 C 1452.94 -2.97203 4.40277 0
M  V30 15745 C 1451.98 -2.57265 5.55411 0
M  V30 15746 N 1451.12 -3.70429 5.96428 0
M  V30 15747 H 1455.96 -0.385644 2.95494 0
M  V30 15748 H 1453.49 -0.178688 1.46011 0
M  V30 15749 H 1455.45 -2.86441 3.03327 0
M  V30 15750 H 1454.08 -2.59105 1.92521 0
M  V30 15751 H 1453.13 -0.932921 3.68783 0
M  V30 15752 H 1454.45 -1.43481 4.77718 0
M  V30 15753 H 1453.6 -3.79019 4.7374 0
M  V30 15754 H 1452.34 -3.3378 3.55587 0
M  V30 15755 H 1451.34 -1.73875 5.21582 0
M  V30 15756 H 1452.57 -2.21839 6.41844 0
M  V30 15757 H 1450.51 -4.06737 5.14686 0
M  V30 15758 H 1450.43 -3.40881 6.74786 0
M  V30 15759 H 1451.7 -4.52774 6.3452 0
M  V30 15760 N 1455.93 -1.56509 -0.185096 0
M  V30 15761 C 1457.15 -1.85683 -0.923941 0
M  V30 15762 C 1457.58 -0.673315 -1.75636 0
M  V30 15763 O 1456.94 0.3778 -1.7732 0
M  V30 15764 C 1456.98 -3.13165 -1.78774 0
M  V30 15765 O 1456.09 -2.9442 -2.88775 0
M  V30 15766 H 1455.43 -0.611139 -0.259624 0
M  V30 15767 H 1457.96 -2.0374 -0.187393 0
M  V30 15768 H 1457.97 -3.44216 -2.19042 0
M  V30 15769 H 1456.64 -3.98922 -1.17619 0
M  V30 15770 H 1455.22 -2.7469 -2.5219 0
M  V30 15771 N 1457.41 0.45317 -1.50944 0
M  V30 15772 C 1458.34 1.55655 -1.74051 0
M  V30 15773 C 1459.32 1.59545 -0.58987 0
M  V30 15774 O 1460.5 1.75526 -0.830922 0
M  V30 15775 C 1457.63 2.93857 -1.85109 0
M  V30 15776 C 1456.59 3.04832 -3.00435 0
M  V30 15777 C 1455.91 4.44858 -2.96657 0
M  V30 15778 C 1457.21 2.80381 -4.40663 0
M  V30 15779 H 1458.91 1.36571 -2.66437 0
M  V30 15780 H 1456.45 0.655572 -1.28212 0
M  V30 15781 H 1458.41 3.70992 -1.99857 0
M  V30 15782 H 1457.13 3.14138 -0.893579 0
M  V30 15783 H 1455.79 2.30134 -2.85366 0
M  V30 15784 H 1455.44 4.62083 -1.98716 0
M  V30 15785 H 1455.14 4.53134 -3.7409 0
M  V30 15786 H 1456.66 5.23989 -3.13478 0
M  V30 15787 H 1458.07 3.47255 -4.56165 0
M  V30 15788 H 1456.47 3.00083 -5.19683 0
M  V30 15789 H 1457.54 1.76099 -4.51793 0
M  V30 15790 N 1458.88 1.40823 0.707568 0
M  V30 15791 C 1459.83 1.38198 1.81343 0
M  V30 15792 C 1460.82 0.258234 1.58814 0
M  V30 15793 O 1462.01 0.497972 1.69851 0
M  V30 15794 C 1459.14 1.25483 3.19545 0
M  V30 15795 C 1458.23 2.42672 3.47809 0
M  V30 15796 N 1458.62 3.6815 3.46842 0
M  V30 15797 C 1456.91 2.36225 3.78304 0
M  V30 15798 C 1457.62 4.45805 3.73675 0
M  V30 15799 N 1456.59 3.75753 3.92824 0
M  V30 15800 H 1460.39 2.33147 1.7894 0
M  V30 15801 H 1457.91 1.34709 0.907044 0
M  V30 15802 H 1459.9 1.21684 3.98746 0
M  V30 15803 H 1458.56 0.315081 3.23168 0
M  V30 15804 H 1459.58 4.01201 3.27503 0
M  V30 15805 H 1456.25 1.50659 3.89369 0
M  V30 15806 H 1457.64 5.54692 3.79165 0
M  V30 15807 N 1460.36 -0.94061 1.26453 0
M  V30 15808 C 1461.59 -1.72123 1.1481 0
M  V30 15809 C 1462.01 -1.86456 -0.296604 0
M  V30 15810 O 1461.36 -1.37234 -1.20304 0
M  V30 15811 C 1461.41 -3.1277 1.81266 0
M  V30 15812 O 1461.13 -2.99122 3.2009 0
M  V30 15813 C 1462.64 -4.07045 1.75584 0
M  V30 15814 H 1459.86 -0.538908 0.399774 0
M  V30 15815 H 1462.4 -1.17913 1.67083 0
M  V30 15816 H 1460.55 -3.6388 1.32928 0
M  V30 15817 H 1460.97 -3.87946 3.52984 0
M  V30 15818 H 1462.44 -5.03292 2.26719 0
M  V30 15819 H 1462.92 -4.33217 0.722466 0
M  V30 15820 H 1463.53 -3.61855 2.23475 0
M  V30 15821 N 1461.84 -1.08266 -1.14527 0
M  V30 15822 C 1463.12 -0.724254 -1.81697 0
M  V30 15823 C 1463.5 0.792212 -1.95671 0
M  V30 15824 O 1462.85 1.71017 -1.51543 0
M  V30 15825 C 1463.06 -1.44949 -3.17475 0
M  V30 15826 C 1464.4 -1.60761 -3.9299 0
M  V30 15827 O 1465.43 -1.41103 -3.2706 0
M  V30 15828 O 1464.29 -1.93184 -5.11216 0
M  V30 15829 H 1461.38 -0.258814 -0.785458 0
M  V30 15830 H 1463.93 -1.18414 -1.21557 0
M  V30 15831 H 1462.7 -2.48262 -3.02459 0
M  V30 15832 H 1462.32 -0.980993 -3.85308 0
M  V30 15833 N 1463.32 1.31536 -0.86811 0
M  V30 15834 C 1464.27 2.30504 -0.311581 0
M  V30 15835 C 1465.26 1.59439 0.572332 0
M  V30 15836 O 1466.47 1.74059 0.458639 0
M  V30 15837 H 1462.84 0.747508 -0.0820745 0
M  V30 15838 H 1464.81 2.74919 -1.16026 0
M  V30 15839 C 1463.56 3.44459 0.473622 0
M  V30 15840 H 1462.89 3.99313 -0.197259 0
M  V30 15841 H 1464.33 4.15829 0.828393 0
M  V30 15842 C 1462.78 2.92929 1.66416 0
M  V30 15843 O 1463.31 2.91543 2.76344 0
M  V30 15844 N 1461.52 2.49154 1.49568 0
M  V30 15845 H 1461.07 2.50481 0.601408 0
M  V30 15846 H 1461.03 2.15032 2.29366 0
M  V30 15847 N 1464.8 0.627364 1.44575 0
M  V30 15848 C 1466.05 0.130094 2.01681 0
M  V30 15849 C 1466.37 -1.25112 1.49572 0
M  V30 15850 O 1465.64 -1.8305 0.697822 0
M  V30 15851 H 1464.22 0.0451032 0.745637 0
M  V30 15852 H 1466.88 0.813218 1.77124 0
M  V30 15853 H 1465.97 0.0949131 3.11956 0
M  V30 15854 N 1466.28 -1.53251 0.367684 0
M  V30 15855 C 1467.5 -2.05705 -0.222047 0
M  V30 15856 C 1467.92 -1.24104 -1.4228 0
M  V30 15857 O 1467.28 -0.282228 -1.80305 0
M  V30 15858 C 1467.33 -3.56257 -0.613475 0
M  V30 15859 O 1467.05 -4.34765 0.539558 0
M  V30 15860 C 1468.55 -4.24976 -1.26137 0
M  V30 15861 H 1465.77 -0.66989 -0.0385799 0
M  V30 15862 H 1468.31 -1.97602 0.526663 0
M  V30 15863 H 1466.47 -3.64503 -1.3121 0
M  V30 15864 H 1466.88 -5.24027 0.222699 0
M  V30 15865 H 1468.36 -5.31628 -1.4858 0
M  V30 15866 H 1468.83 -3.78828 -2.2223 0
M  V30 15867 H 1469.44 -4.20987 -0.604121 0
M  V30 15868 N 1467.75 -0.0969077 -1.57302 0
M  V30 15869 C 1468.7 0.878876 -2.15357 0
M  V30 15870 C 1469.7 1.29091 -1.0969 0
M  V30 15871 O 1470.9 1.26523 -1.28031 0
M  V30 15872 H 1467.28 0.301458 -0.688932 0
M  V30 15873 H 1469.25 0.364542 -2.96165 0
M  V30 15874 C 1468 2.12761 -2.75006 0
M  V30 15875 H 1467.32 1.81944 -3.56 0
M  V30 15876 H 1468.76 2.79092 -3.19193 0
M  V30 15877 C 1467.22 2.90283 -1.70989 0
M  V30 15878 O 1467.75 3.84889 -1.14992 0
M  V30 15879 N 1465.95 2.53857 -1.41439 0
M  V30 15880 H 1465.5 1.76993 -1.87166 0
M  V30 15881 H 1465.46 3.06025 -0.720816 0
M  V30 15882 N 1469.23 1.56605 0.176793 0
M  V30 15883 C 1470.48 1.81682 0.894302 0
M  V30 15884 C 1470.81 0.67311 1.82481 0
M  V30 15885 O 1470.06 -0.339995 1.92724 0
M  V30 15886 C 1470.36 3.12888 1.7273 0
M  V30 15887 C 1470.03 4.40861 0.946186 0
M  V30 15888 C 1468.69 4.75622 0.730586 0
M  V30 15889 C 1471.04 5.19679 0.397889 0
M  V30 15890 C 1468.37 5.86683 -0.0444995 0
M  V30 15891 C 1470.72 6.31551 -0.36408 0
M  V30 15892 C 1469.38 6.64883 -0.59053 0
M  V30 15893 H 1468.65 0.664823 0.327248 0
M  V30 15894 H 1471.3 1.90834 0.159555 0
M  V30 15895 H 1469.61 2.99055 2.53128 0
M  V30 15896 H 1471.3 3.295 2.2854 0
M  V30 15897 H 1467.89 4.13592 1.12426 0
M  V30 15898 H 1472.08 4.93223 0.55181 0
M  V30 15899 H 1467.33 6.10968 -0.229739 0
M  V30 15900 H 1471.51 6.91833 -0.796223 0
M  V30 15901 H 1469.13 7.50781 -1.19301 0
M  V30 15902 N 1470.71 -0.445159 1.51182 0
M  V30 15903 C 1471.96 -1.19701 1.63705 0
M  V30 15904 C 1472.29 -1.91047 0.348511 0
M  V30 15905 O 1471.56 -1.83264 -0.651497 0
M  V30 15906 C 1471.85 -2.22021 2.83511 0
M  V30 15907 C 1471.7 -1.54809 4.2232 0
M  V30 15908 C 1473.02 -3.23083 2.9884 0
M  V30 15909 H 1470.14 -0.433818 0.595795 0
M  V30 15910 H 1472.78 -0.487276 1.83645 0
M  V30 15911 H 1470.93 -2.82551 2.66641 0
M  V30 15912 H 1472.6 -0.976774 4.5084 0
M  V30 15913 H 1470.84 -0.850596 4.25379 0
M  V30 15914 H 1471.52 -2.29289 5.02126 0
M  V30 15915 H 1473.99 -2.72601 3.14369 0
M  V30 15916 H 1472.87 -3.91978 3.84246 0
M  V30 15917 H 1473.13 -3.88732 2.1057 0
M  V30 15918 N 1472.19 -1.41197 -0.700089 0
M  V30 15919 C 1473.15 -1.42419 -1.79582 0
M  V30 15920 C 1474.15 -0.31551 -1.57674 0
M  V30 15921 O 1475.34 -0.575173 -1.64431 0
M  V30 15922 C 1472.47 -1.23114 -3.17893 0
M  V30 15923 H 1473.67 -2.39956 -1.79892 0
M  V30 15924 H 1471.22 -1.27273 -0.907271 0
M  V30 15925 H 1471.95 -0.263992 -3.23224 0
M  V30 15926 H 1471.74 -2.03437 -3.35195 0
M  V30 15927 H 1473.23 -1.26793 -3.97886 0
M  V30 15928 N 1473.67 0.933891 -1.2695 0
M  V30 15929 C 1474.58 2.06713 -1.10936 0
M  V30 15930 C 1475.59 1.73952 -0.0409734 0
M  V30 15931 O 1476.77 1.9989 -0.246199 0
M  V30 15932 C 1473.83 3.38453 -0.751696 0
M  V30 15933 C 1472.89 3.84951 -1.90029 0
M  V30 15934 C 1472.13 5.10404 -1.55959 0
M  V30 15935 O 1472.35 5.68504 -0.464646 0
M  V30 15936 O 1471.28 5.52123 -2.39675 0
M  V30 15937 H 1475.11 2.23133 -2.06023 0
M  V30 15938 H 1472.69 1.05202 -1.06079 0
M  V30 15939 H 1474.58 4.17591 -0.565285 0
M  V30 15940 H 1473.25 3.23255 0.169703 0
M  V30 15941 H 1472.16 3.06727 -2.14172 0
M  V30 15942 H 1473.49 4.04681 -2.80167 0
M  V30 15943 N 1475.14 1.08871 1.13951 0
M  V30 15944 C 1476.55 0.841552 1.66658 0
M  V30 15945 C 1476.91 -0.630932 1.85779 0
M  V30 15946 O 1476.03 -1.48673 1.57243 0
M  V30 15947 C 1476.63 1.52109 3.02735 0
M  V30 15948 C 1475.18 1.32105 3.52456 0
M  V30 15949 C 1474.33 1.58084 2.27826 0
M  V30 15950 H 1477.28 1.24865 0.97951 0
M  V30 15951 H 1477.3 0.950978 3.68425 0
M  V30 15952 H 1476.82 2.59276 2.88786 0
M  V30 15953 H 1474.92 0.270294 3.71618 0
M  V30 15954 H 1475.03 2.05197 4.32933 0
M  V30 15955 H 1473.39 1.00264 2.34135 0
M  V30 15956 H 1474.18 2.66467 2.16449 0
M  V30 15957 N 1476.62 -1.31073 0.875073 0
M  V30 15958 C 1477.87 -1.96809 0.489273 0
M  V30 15959 C 1478.2 -1.68979 -0.957073 0
M  V30 15960 O 1477.48 -0.989061 -1.67475 0
M  V30 15961 C 1477.76 -3.52139 0.752998 0
M  V30 15962 C 1477.61 -3.89524 2.24925 0
M  V30 15963 C 1478.93 -4.39535 0.222871 0
M  V30 15964 H 1476.05 -0.714873 0.179238 0
M  V30 15965 H 1478.69 -1.55114 1.09725 0
M  V30 15966 H 1476.84 -3.87785 0.23553 0
M  V30 15967 H 1478.51 -3.63953 2.83436 0
M  V30 15968 H 1476.76 -3.37948 2.71981 0
M  V30 15969 H 1477.43 -4.97845 2.38441 0
M  V30 15970 H 1479.9 -4.10741 0.665645 0
M  V30 15971 H 1478.78 -5.47159 0.436806 0
M  V30 15972 H 1479.04 -4.33346 -0.875445 0
M  V30 15973 N 1478.1 -0.635022 -1.4424 0
M  V30 15974 C 1479.35 -0.141276 -2.02307 0
M  V30 15975 C 1479.68 1.23508 -1.49865 0
M  V30 15976 O 1478.95 1.82065 -0.684291 0
M  V30 15977 C 1479.24 -0.132196 -3.59857 0
M  V30 15978 C 1479.09 -1.54117 -4.22573 0
M  V30 15979 C 1480.41 0.541186 -4.3676 0
M  V30 15980 H 1477.53 -0.0528117 -0.735105 0
M  V30 15981 H 1480.17 -0.812239 -1.71763 0
M  V30 15982 H 1478.32 0.439156 -3.8601 0
M  V30 15983 H 1479.99 -2.16171 -4.07514 0
M  V30 15984 H 1478.24 -2.09389 -3.79919 0
M  V30 15985 H 1478.91 -1.48682 -5.31599 0
M  V30 15986 H 1481.38 0.0552603 -4.16063 0
M  V30 15987 H 1480.26 0.516742 -5.46462 0
M  V30 15988 H 1480.52 1.61222 -4.11655 0
M  V30 15989 N 1479.58 1.53054 -0.375806 0
M  V30 15990 C 1480.53 2.27576 0.480838 0
M  V30 15991 C 1481.52 1.30948 1.07466 0
M  V30 15992 O 1482.73 1.48538 1.01669 0
M  V30 15993 H 1479.1 0.731641 0.173799 0
M  V30 15994 H 1481.07 2.97919 -0.169327 0
M  V30 15995 C 1479.82 3.08533 1.60321 0
M  V30 15996 H 1479.14 3.82735 1.15558 0
M  V30 15997 H 1480.58 3.63837 2.17712 0
M  V30 15998 C 1479.04 2.20004 2.55147 0
M  V30 15999 O 1479.57 1.81771 3.58221 0
M  V30 16000 N 1477.78 1.84433 2.24573 0
M  V30 16001 H 1477.33 2.15723 1.40788 0
M  V30 16002 H 1477.28 1.25488 2.88271 0
M  V30 16003 N 1481.06 0.105248 1.57248 0
M  V30 16004 C 1481.99 -0.846915 2.176 0
M  V30 16005 C 1482.97 -1.28706 1.11216 0
M  V30 16006 O 1484.15 -1.35213 1.39396 0
M  V30 16007 C 1481.28 -2.10228 2.76445 0
M  V30 16008 C 1480.24 -1.80041 3.8829 0
M  V30 16009 C 1479.56 -3.12491 4.33882 0
M  V30 16010 C 1480.86 -1.07943 5.11024 0
M  V30 16011 H 1482.56 -0.344052 2.97417 0
M  V30 16012 H 1480.1 -0.164045 1.43063 0
M  V30 16013 H 1482.06 -2.77284 3.17319 0
M  V30 16014 H 1480.78 -2.62815 1.93897 0
M  V30 16015 H 1479.44 -1.15379 3.4797 0
M  V30 16016 H 1479.09 -3.62985 3.48211 0
M  V30 16017 H 1478.79 -2.93072 5.09296 0
M  V30 16018 H 1480.31 -3.80688 4.77398 0
M  V30 16019 H 1481.72 -1.65127 5.49004 0
M  V30 16020 H 1480.12 -0.986674 5.91933 0
M  V30 16021 H 1481.19 -0.0638511 4.84858 0
M  V30 16022 N 1482.53 -1.56697 -0.168486 0
M  V30 16023 C 1483.46 -1.99659 -1.21073 0
M  V30 16024 C 1484.45 -0.872625 -1.46011 0
M  V30 16025 O 1485.63 -1.13891 -1.57297 0
M  V30 16026 C 1482.76 -2.35889 -2.54899 0
M  V30 16027 C 1481.71 -3.51272 -2.44524 0
M  V30 16028 C 1481.04 -3.73253 -3.82866 0
M  V30 16029 C 1482.34 -4.84631 -1.94756 0
M  V30 16030 H 1484.03 -2.86974 -0.853593 0
M  V30 16031 H 1481.58 -1.38065 -0.409165 0
M  V30 16032 H 1483.53 -2.64542 -3.28017 0
M  V30 16033 H 1482.26 -1.45486 -2.92406 0
M  V30 16034 H 1480.92 -3.22751 -1.7386 0
M  V30 16035 H 1480.56 -2.80136 -4.17772 0
M  V30 16036 H 1480.26 -4.5089 -3.76792 0
M  V30 16037 H 1481.79 -4.04309 -4.57566 0
M  V30 16038 H 1483.2 -5.12142 -2.5765 0
M  V30 16039 H 1481.6 -5.65925 -1.99623 0
M  V30 16040 H 1482.67 -4.76436 -0.902021 0
M  V30 16041 N 1484.01 0.437135 -1.51416 0
M  V30 16042 C 1484.96 1.53061 -1.72745 0
M  V30 16043 C 1485.93 1.56045 -0.569149 0
M  V30 16044 O 1487.11 1.73052 -0.803602 0
M  V30 16045 C 1484.25 2.90774 -1.85861 0
M  V30 16046 C 1483.37 2.97318 -3.1341 0
M  V30 16047 C 1482.5 4.26156 -3.1712 0
M  V30 16048 C 1481.54 4.26568 -4.38983 0
M  V30 16049 N 1480.68 5.4693 -4.40241 0
M  V30 16050 H 1485.52 1.34177 -2.66084 0
M  V30 16051 H 1483.06 0.651803 -1.31871 0
M  V30 16052 H 1485.01 3.7068 -1.91447 0
M  V30 16053 H 1483.64 3.08216 -0.959306 0
M  V30 16054 H 1482.7 2.10074 -3.17132 0
M  V30 16055 H 1484.01 2.93485 -4.03321 0
M  V30 16056 H 1483.16 5.14435 -3.21623 0
M  V30 16057 H 1481.9 4.32646 -2.25098 0
M  V30 16058 H 1480.91 3.36681 -4.34656 0
M  V30 16059 H 1482.13 4.21741 -5.3227 0
M  V30 16060 H 1480.08 5.54141 -3.51089 0
M  V30 16061 H 1479.99 5.44977 -5.23962 0
M  V30 16062 H 1481.26 6.37241 -4.48937 0
M  V30 16063 N 1485.49 1.41566 0.692592 0
M  V30 16064 C 1486.74 1.41083 1.45265 0
M  V30 16065 C 1487.07 0.0209998 1.94489 0
M  V30 16066 O 1486.32 -0.96764 1.70104 0
M  V30 16067 C 1486.62 2.36683 2.67799 0
M  V30 16068 C 1486.29 3.83458 2.37215 0
M  V30 16069 C 1484.95 4.23441 2.28585 0
M  V30 16070 C 1487.3 4.76114 2.12048 0
M  V30 16071 C 1484.63 5.54086 1.92888 0
M  V30 16072 C 1486.98 6.07082 1.7786 0
M  V30 16073 C 1485.64 6.46083 1.67727 0
M  V30 16074 H 1484.91 0.51626 0.531561 0
M  V30 16075 H 1487.56 1.74385 0.791337 0
M  V30 16076 H 1485.87 1.96645 3.38877 0
M  V30 16077 H 1487.56 2.33581 3.25946 0
M  V30 16078 H 1484.15 3.51792 2.44828 0
M  V30 16079 H 1488.34 4.46025 2.17659 0
M  V30 16080 H 1483.59 5.83182 1.83599 0
M  V30 16081 H 1487.77 6.78378 1.57407 0
M  V30 16082 H 1485.39 7.47228 1.39836 0
M  V30 16083 N 1486.97 -0.927146 1.27443 0
M  V30 16084 C 1487.9 -2.04483 1.12735 0
M  V30 16085 C 1488.88 -1.70076 0.0286662 0
M  V30 16086 O 1490.06 -1.93133 0.203252 0
M  V30 16087 C 1487.19 -3.38557 0.774352 0
M  V30 16088 C 1486.15 -3.87078 1.82632 0
M  V30 16089 C 1485.47 -5.17964 1.32729 0
M  V30 16090 C 1486.77 -4.10409 3.23051 0
M  V30 16091 H 1488.47 -2.17046 2.06231 0
M  V30 16092 H 1486.01 -1.04292 0.992937 0
M  V30 16093 H 1487.97 -4.16227 0.658273 0
M  V30 16094 H 1486.69 -3.26009 -0.196321 0
M  V30 16095 H 1485.35 -3.11602 1.93132 0
M  V30 16096 H 1485 -5.01808 0.346059 0
M  V30 16097 H 1484.7 -5.51398 2.03061 0
M  V30 16098 H 1486.22 -5.98203 1.22416 0
M  V30 16099 H 1487.64 -4.78646 3.15549 0
M  V30 16100 H 1486.03 -4.5515 3.91099 0
M  V30 16101 H 1487.1 -3.15685 3.68064 0
M  V30 16102 N 1488.45 -1.09474 -1.13372 0
M  V30 16103 C 1489.39 -0.73458 -2.18798 0
M  V30 16104 C 1490.36 0.284433 -1.63647 0
M  V30 16105 O 1491.55 0.165958 -1.90077 0
M  V30 16106 C 1488.69 -0.161826 -3.4472 0
M  V30 16107 C 1487.8 -1.23494 -4.13973 0
M  V30 16108 C 1486.94 -0.624886 -5.27512 0
M  V30 16109 C 1485.98 -1.67927 -5.88614 0
M  V30 16110 N 1485.11 -1.09021 -6.93584 0
M  V30 16111 H 1489.95 -1.63787 -2.48954 0
M  V30 16112 H 1487.49 -0.818297 -1.22239 0
M  V30 16113 H 1489.45 0.188053 -4.16776 0
M  V30 16114 H 1488.08 0.70473 -3.15013 0
M  V30 16115 H 1487.13 -1.70209 -3.40196 0
M  V30 16116 H 1488.44 -2.0335 -4.55467 0
M  V30 16117 H 1487.6 -0.22388 -6.06287 0
M  V30 16118 H 1486.33 0.205214 -4.87268 0
M  V30 16119 H 1485.34 -2.08982 -5.08534 0
M  V30 16120 H 1486.56 -2.51204 -6.3093 0
M  V30 16121 H 1484.51 -0.281401 -6.55396 0
M  V30 16122 H 1484.43 -1.82573 -7.33623 0
M  V30 16123 H 1485.7 -0.715428 -7.7621 0
M  V30 16124 N 1489.92 1.30607 -0.882012 0
M  V30 16125 C 1491.17 1.95531 -0.495038 0
M  V30 16126 C 1491.49 1.70418 0.96005 0
M  V30 16127 O 1492.69 2.29301 1.45373 0
M  V30 16128 C 1491.15 3.50094 -0.834382 0
M  V30 16129 C 1490.76 3.84031 -2.30704 0
M  V30 16130 C 1492.5 4.21347 -0.516463 0
M  V30 16131 C 1490.41 5.31759 -2.58817 0
M  V30 16132 H 1489.34 0.731854 -0.181399 0
M  V30 16133 H 1491.99 1.486 -1.07658 0
M  V30 16134 H 1490.37 3.95582 -0.181961 0
M  V30 16135 H 1491.54 3.49463 -3.00353 0
M  V30 16136 H 1489.86 3.25874 -2.5922 0
M  V30 16137 H 1492.46 5.30051 -0.703576 0
M  V30 16138 H 1492.8 4.12731 0.543935 0
M  V30 16139 H 1493.33 3.81533 -1.12595 0
M  V30 16140 H 1490.07 5.45422 -3.63586 0
M  V30 16141 H 1489.59 5.67637 -1.93774 0
M  V30 16142 H 1491.27 5.9916 -2.44165 0
M  V30 16143 N 1491.4 0.642663 1.43901 0
M  V30 16144 C 1492.37 -0.0457858 2.29154 0
M  V30 16145 C 1493.37 -0.760988 1.41653 0
M  V30 16146 O 1494.56 -0.603832 1.634 0
M  V30 16147 C 1491.69 -1.07552 3.23489 0
M  V30 16148 H 1492.88 0.704193 2.91515 0
M  V30 16149 H 1490.43 0.403361 1.51006 0
M  V30 16150 H 1491.17 -1.85509 2.66002 0
M  V30 16151 H 1490.95 -0.566468 3.87987 0
M  V30 16152 H 1492.44 -1.55663 3.87503 0
M  V30 16153 N 1492.88 -1.52852 0.383918 0
M  V30 16154 C 1493.83 -2.23089 -0.470652 0
M  V30 16155 C 1494.82 -1.23278 -1.03399 0
M  V30 16156 O 1496.01 -1.48641 -0.960985 0
M  V30 16157 C 1493.14 -3.03721 -1.60025 0
M  V30 16158 C 1492.22 -4.10924 -1.04892 0
M  V30 16159 N 1492.61 -5.05312 -0.222083 0
M  V30 16160 C 1490.91 -4.25958 -1.32195 0
M  V30 16161 C 1491.61 -5.81642 0.0818929 0
M  V30 16162 N 1490.59 -5.41101 -0.520629 0
M  V30 16163 H 1494.39 -2.93421 0.167663 0
M  V30 16164 H 1491.9 -1.6125 0.192927 0
M  V30 16165 H 1493.9 -3.52572 -2.22482 0
M  V30 16166 H 1492.56 -2.34924 -2.24145 0
M  V30 16167 H 1493.57 -5.1771 0.140223 0
M  V30 16168 H 1490.25 -3.68389 -1.96457 0
M  V30 16169 H 1491.64 -6.67684 0.751481 0
M  V30 16170 N 1494.36 -0.113586 -1.5719 0
M  V30 16171 C 1495.59 0.553592 -1.99356 0
M  V30 16172 C 1496 1.60567 -0.993154 0
M  V30 16173 O 1495.36 1.82494 0.0147252 0
M  V30 16174 C 1495.41 1.18462 -3.41539 0
M  V30 16175 O 1495.13 0.174602 -4.37752 0
M  V30 16176 C 1496.63 1.93564 -3.98808 0
M  V30 16177 H 1493.85 0.146998 -0.6547 0
M  V30 16178 H 1496.4 -0.198329 -2.03536 0
M  V30 16179 H 1494.55 1.88736 -3.38316 0
M  V30 16180 H 1494.97 0.632395 -5.20674 0
M  V30 16181 H 1496.44 2.33051 -5.00391 0
M  V30 16182 H 1496.92 2.80874 -3.37648 0
M  V30 16183 H 1497.52 1.28066 -4.0556 0
M  V30 16184 N 1495.84 1.56784 0.160173 0
M  V30 16185 C 1497.07 1.86767 0.89026 0
M  V30 16186 C 1497.48 0.700276 1.75333 0
M  V30 16187 O 1496.84 -0.330342 1.79485 0
M  V30 16188 C 1496.89 3.15883 1.75784 0
M  V30 16189 O 1496.61 4.28124 0.929575 0
M  V30 16190 C 1498.11 3.5929 2.59664 0
M  V30 16191 H 1495.33 0.61938 0.258088 0
M  V30 16192 H 1497.87 2.03897 0.156919 0
M  V30 16193 H 1496.03 3.00546 2.4444 0
M  V30 16194 H 1496.44 5.01872 1.52397 0
M  V30 16195 H 1497.92 4.52506 3.16136 0
M  V30 16196 H 1498.39 2.83943 3.35072 0
M  V30 16197 H 1499 3.77277 1.96323 0
M  V30 16198 N 1497.32 -0.429099 1.51646 0
M  V30 16199 C 1498.56 -1.17551 1.64396 0
M  V30 16200 C 1498.88 -1.91526 0.366444 0
M  V30 16201 O 1498.15 -1.85896 -0.618013 0
M  V30 16202 H 1496.73 -0.436918 0.605898 0
M  V30 16203 H 1499.4 -0.491159 1.8861 0
M  V30 16204 H 1498.49 -1.90057 2.47557 0
M  V30 16205 N 1498.79 -1.41931 -0.685074 0
M  V30 16206 C 1500.04 -1.41147 -1.44085 0
M  V30 16207 C 1500.36 -0.0275793 -1.95581 0
M  V30 16208 O 1501.56 0.102873 -2.71305 0
M  V30 16209 C 1500.02 -2.4823 -2.60596 0
M  V30 16210 C 1499.63 -3.92576 -2.15842 0
M  V30 16211 C 1501.37 -2.56597 -3.38169 0
M  V30 16212 C 1499.28 -4.91189 -3.29374 0
M  V30 16213 H 1498.21 -0.52494 -0.541252 0
M  V30 16214 H 1500.86 -1.67798 -0.7427 0
M  V30 16215 H 1499.24 -2.14727 -3.32729 0
M  V30 16216 H 1500.41 -4.35381 -1.50929 0
M  V30 16217 H 1498.73 -3.87965 -1.51235 0
M  V30 16218 H 1501.33 -3.27453 -4.22704 0
M  V30 16219 H 1501.67 -1.60618 -3.84067 0
M  V30 16220 H 1502.2 -2.89244 -2.73099 0
M  V30 16221 H 1498.94 -5.88609 -2.88477 0
M  V30 16222 H 1498.46 -4.53024 -3.93102 0
M  V30 16223 H 1500.14 -5.12433 -3.94996 0
M  V30 16224 N 1500.27 0.920374 -1.27933 0
M  V30 16225 C 1501.68 1.48385 -1.13309 0
M  V30 16226 C 1502.03 1.94202 0.279307 0
M  V30 16227 O 1501.16 1.81855 1.17294 0
M  V30 16228 C 1501.75 2.69681 -2.05079 0
M  V30 16229 C 1500.31 3.22229 -1.94539 0
M  V30 16230 C 1499.46 1.94948 -1.97207 0
M  V30 16231 H 1502.41 0.733744 -1.40719 0
M  V30 16232 H 1502.43 3.44717 -1.6109 0
M  V30 16233 H 1501.94 2.36304 -3.07867 0
M  V30 16234 H 1500.04 3.60348 -0.94764 0
M  V30 16235 H 1500.16 3.87927 -2.81157 0
M  V30 16236 H 1498.52 2.1176 -1.41527 0
M  V30 16237 H 1499.3 1.63875 -3.01662 0
M  V30 16238 N 1501.75 1.10074 1.1279 0
M  V30 16239 C 1502.98 0.861655 1.87774 0
M  V30 16240 C 1503.39 -0.591184 1.79727 0
M  V30 16241 O 1502.73 -1.4191 1.1665 0
M  V30 16242 C 1502.79 1.22668 3.37924 0
M  V30 16243 C 1502.46 2.68579 3.69749 0
M  V30 16244 C 1503.45 3.66821 3.68427 0
M  V30 16245 C 1501.14 3.04869 3.99199 0
M  V30 16246 C 1503.13 4.99377 3.96108 0
M  V30 16247 C 1500.82 4.37615 4.2654 0
M  V30 16248 C 1501.82 5.34678 4.24981 0
M  V30 16249 O 1501.51 6.65034 4.51647 0
M  V30 16250 H 1501.24 0.309289 0.601096 0
M  V30 16251 H 1503.79 1.46802 1.43661 0
M  V30 16252 H 1502.02 0.563393 3.82574 0
M  V30 16253 H 1503.71 0.965675 3.94246 0
M  V30 16254 H 1504.48 3.40128 3.45742 0
M  V30 16255 H 1500.36 2.29947 3.99557 0
M  V30 16256 H 1503.9 5.7513 3.94806 0
M  V30 16257 H 1499.8 4.64047 4.48698 0
M  V30 16258 H 1500.56 6.70608 4.69283 0
M  V30 16259 N 1503.23 -1.30138 0.888926 0
M  V30 16260 C 1504.18 -2.25598 0.33005 0
M  V30 16261 C 1505.16 -1.51434 -0.543751 0
M  V30 16262 O 1506.35 -1.72706 -0.387529 0
M  V30 16263 C 1503.48 -3.40326 -0.450925 0
M  V30 16264 C 1502.57 -4.21841 0.437187 0
M  V30 16265 N 1502.96 -4.81803 1.53947 0
M  V30 16266 C 1501.26 -4.45391 0.233015 0
M  V30 16267 C 1501.96 -5.42907 2.0887 0
M  V30 16268 N 1500.93 -5.25709 1.38314 0
M  V30 16269 H 1504.74 -2.6951 1.17224 0
M  V30 16270 H 1502.25 -1.44623 0.738771 0
M  V30 16271 H 1504.25 -4.07764 -0.867971 0
M  V30 16272 H 1502.91 -2.97953 -1.2905 0
M  V30 16273 H 1503.92 -4.80904 1.92229 0
M  V30 16274 H 1500.6 -4.13603 -0.569074 0
M  V30 16275 H 1501.99 -6.00478 3.01457 0
M  V30 16276 N 1504.71 -0.650285 -1.43559 0
M  V30 16277 C 1506.12 -0.24263 -1.85117 0
M  V30 16278 C 1506.47 1.21017 -1.54432 0
M  V30 16279 O 1505.59 1.92332 -0.991839 0
M  V30 16280 C 1506.19 -0.433575 -3.36014 0
M  V30 16281 C 1504.75 -0.0802635 -3.76314 0
M  V30 16282 C 1503.89 -0.737844 -2.67303 0
M  V30 16283 H 1506.84 -0.854158 -1.33753 0
M  V30 16284 H 1506.87 0.321801 -3.79137 0
M  V30 16285 H 1506.38 -1.49102 -3.58316 0
M  V30 16286 H 1504.48 0.974703 -3.59625 0
M  V30 16287 H 1504.59 -0.503683 -4.76445 0
M  V30 16288 H 1502.96 -0.171349 -2.54123 0
M  V30 16289 H 1503.74 -1.79826 -2.92434 0
M  V30 16290 N 1506.18 1.52647 -0.392018 0
M  V30 16291 C 1507.09 2.30261 0.449093 0
M  V30 16292 C 1508.11 1.37286 1.06905 0
M  V30 16293 O 1509.29 1.70357 1.07427 0
M  V30 16294 C 1506.35 3.09636 1.55969 0
M  V30 16295 C 1505.41 4.18324 0.964566 0
M  V30 16296 C 1504.64 4.93904 2.02224 0
M  V30 16297 O 1504.87 4.69603 3.23773 0
M  V30 16298 O 1503.8 5.79183 1.63802 0
M  V30 16299 H 1507.63 3.03147 -0.183269 0
M  V30 16300 H 1505.21 1.48587 -0.155664 0
M  V30 16301 H 1507.09 3.59118 2.20482 0
M  V30 16302 H 1505.77 2.39561 2.17697 0
M  V30 16303 H 1504.68 3.73031 0.282618 0
M  V30 16304 H 1506.01 4.90641 0.391466 0
M  V30 16305 N 1507.66 0.121921 1.57128 0
M  V30 16306 C 1508.89 -0.546325 2.00075 0
M  V30 16307 C 1509.31 -1.59245 1.00113 0
M  V30 16308 O 1508.67 -1.8128 -0.0267687 0
M  V30 16309 C 1508.72 -1.14651 3.41888 0
M  V30 16310 O 1507.82 -2.26199 3.4483 0
M  V30 16311 H 1507.16 -0.136184 0.649885 0
M  V30 16312 H 1509.69 0.211257 2.03506 0
M  V30 16313 H 1509.7 -1.48133 3.80159 0
M  V30 16314 H 1508.38 -0.380273 4.14158 0
M  V30 16315 H 1506.96 -1.94134 3.18381 0
M  V30 16316 N 1509.14 -1.56867 -0.151857 0
M  V30 16317 C 1510.07 -1.94494 -1.21263 0
M  V30 16318 C 1511.09 -0.84021 -1.39443 0
M  V30 16319 O 1512.27 -1.11863 -1.391 0
M  V30 16320 C 1509.37 -2.19952 -2.57826 0
M  V30 16321 C 1508.55 -3.51227 -2.60689 0
M  V30 16322 C 1507.61 -3.65282 -3.78756 0
M  V30 16323 O 1506.63 -4.3772 -3.63854 0
M  V30 16324 N 1507.83 -3.01582 -4.96012 0
M  V30 16325 H 1510.6 -2.86092 -0.892845 0
M  V30 16326 H 1508.16 -1.58258 -0.341463 0
M  V30 16327 H 1510.15 -2.266 -3.35312 0
M  V30 16328 H 1508.72 -1.34643 -2.82117 0
M  V30 16329 H 1507.94 -3.56062 -1.69155 0
M  V30 16330 H 1509.23 -4.37574 -2.59628 0
M  V30 16331 H 1508.63 -2.42637 -5.11022 0
M  V30 16332 H 1507.19 -3.13799 -5.71291 0
M  V30 16333 N 1510.62 0.421051 -1.51871 0
M  V30 16334 C 1511.87 1.16677 -1.65018 0
M  V30 16335 C 1512.19 1.91329 -0.376596 0
M  V30 16336 O 1511.46 1.86221 0.608146 0
M  V30 16337 H 1510.04 0.433698 -0.608206 0
M  V30 16338 H 1512.7 0.48115 -1.88868 0
M  V30 16339 H 1511.8 1.88742 -2.48562 0
M  V30 16340 N 1512.1 1.42293 0.677538 0
M  V30 16341 C 1513.35 1.41909 1.43334 0
M  V30 16342 C 1513.66 0.037951 1.95563 0
M  V30 16343 O 1514.86 -0.0884836 2.71356 0
M  V30 16344 C 1513.32 2.49608 2.59275 0
M  V30 16345 C 1512.93 3.93716 2.13757 0
M  V30 16346 C 1514.67 2.58387 3.36803 0
M  V30 16347 C 1512.58 4.92929 3.26764 0
M  V30 16348 H 1511.51 0.527803 0.538461 0
M  V30 16349 H 1514.16 1.6819 0.733791 0
M  V30 16350 H 1512.54 2.16488 3.31585 0
M  V30 16351 H 1513.72 4.36176 1.48618 0
M  V30 16352 H 1512.03 3.88762 1.49175 0
M  V30 16353 H 1514.63 3.29691 4.20961 0
M  V30 16354 H 1514.97 1.62653 3.8321 0
M  V30 16355 H 1515.5 2.90688 2.71561 0
M  V30 16356 H 1512.24 5.90131 2.85352 0
M  V30 16357 H 1511.76 4.55103 3.90694 0
M  V30 16358 H 1513.44 5.1452 3.92273 0
M  V30 16359 N 1513.57 -0.913576 1.28419 0
M  V30 16360 C 1514.82 -1.66519 1.15755 0
M  V30 16361 C 1515.15 -1.91974 -0.293166 0
M  V30 16362 O 1514.43 -1.52025 -1.21321 0
M  V30 16363 C 1514.71 -3.02299 1.95672 0
M  V30 16364 C 1514.56 -2.83996 3.48807 0
M  V30 16365 C 1515.88 -4.02838 1.77226 0
M  V30 16366 H 1513 -0.604309 0.421877 0
M  V30 16367 H 1515.64 -1.05919 1.57737 0
M  V30 16368 H 1513.79 -3.54025 1.59995 0
M  V30 16369 H 1515.47 -2.39279 3.9439 0
M  V30 16370 H 1513.71 -2.19052 3.74431 0
M  V30 16371 H 1514.38 -3.80419 3.99982 0
M  V30 16372 H 1516.86 -3.60174 2.0836 0
M  V30 16373 H 1515.73 -4.95806 2.35515 0
M  V30 16374 H 1515.99 -4.36135 0.723804 0
M  V30 16375 N 1515.05 -1.1067 -1.12204 0
M  V30 16376 C 1515.96 -0.770221 -2.21596 0
M  V30 16377 C 1516.98 0.233297 -1.72429 0
M  V30 16378 O 1518.15 0.0714493 -2.01273 0
M  V30 16379 C 1515.22 -0.209682 -3.46065 0
M  V30 16380 C 1514.28 -1.27079 -4.1006 0
M  V30 16381 C 1513.51 -0.736899 -5.28588 0
M  V30 16382 O 1513.74 0.435838 -5.68732 0
M  V30 16383 O 1512.67 -1.49797 -5.82962 0
M  V30 16384 H 1516.5 -1.6834 -2.52776 0
M  V30 16385 H 1514.08 -0.882012 -1.20586 0
M  V30 16386 H 1515.96 0.0989516 -4.21284 0
M  V30 16387 H 1514.64 0.676316 -3.16556 0
M  V30 16388 H 1513.55 -1.63231 -3.3661 0
M  V30 16389 H 1514.88 -2.12989 -4.4373 0
M  V30 16390 N 1516.53 1.29665 -0.895815 0
M  V30 16391 C 1517.95 1.4824 -0.591355 0
M  V30 16392 C 1518.15 1.81839 0.86815 0
M  V30 16393 O 1517.2 1.91251 1.64861 0
M  V30 16394 C 1518.52 2.59814 -1.51384 0
M  V30 16395 C 1520.06 2.73691 -1.51862 0
M  V30 16396 C 1520.54 3.8839 -2.42729 0
M  V30 16397 N 1522.03 3.95717 -2.40754 0
M  V30 16398 C 1522.76 4.83804 -3.07769 0
M  V30 16399 N 1522.26 5.7661 -3.84048 0
M  V30 16400 N 1524.05 4.77263 -2.96946 0
M  V30 16401 H 1516.2 1.06131 -1.83984 0
M  V30 16402 H 1518.47 0.526819 -0.788141 0
M  V30 16403 H 1518.17 2.4184 -2.55355 0
M  V30 16404 H 1518.05 3.56532 -1.23147 0
M  V30 16405 H 1520.43 2.91064 -0.486375 0
M  V30 16406 H 1520.52 1.77561 -1.84135 0
M  V30 16407 H 1520.16 3.71773 -3.46045 0
M  V30 16408 H 1520.09 4.8388 -2.07767 0
M  V30 16409 H 1522.58 3.29334 -1.8533 0
M  V30 16410 H 1522.89 6.40611 -4.32247 0
M  V30 16411 H 1521.24 5.76507 -3.88155 0
M  V30 16412 H 1524.43 4.03744 -2.36871 0
M  V30 16413 H 1524.6 5.45701 -3.49448 0
M  V30 16414 N 1518.01 0.657889 1.43212 0
M  V30 16415 C 1518.97 -0.0214783 2.2919 0
M  V30 16416 C 1519.97 -0.745921 1.42452 0
M  V30 16417 O 1521.16 -0.586468 1.64031 0
M  V30 16418 C 1518.29 -1.04115 3.24612 0
M  V30 16419 H 1519.49 0.735072 2.90752 0
M  V30 16420 H 1517.04 0.419354 1.50569 0
M  V30 16421 H 1517.77 -1.82677 2.67954 0
M  V30 16422 H 1517.56 -0.525285 3.88566 0
M  V30 16423 H 1519.05 -1.51544 3.89132 0
M  V30 16424 N 1519.49 -1.52437 0.400108 0
M  V30 16425 C 1520.43 -2.28312 -0.444572 0
M  V30 16426 C 1521.43 -1.32641 -1.0537 0
M  V30 16427 O 1522.63 -1.50136 -0.99293 0
M  V30 16428 H 1519.01 -0.734313 -0.162137 0
M  V30 16429 H 1520.98 -2.97612 0.216702 0
M  V30 16430 C 1519.73 -3.11044 -1.55393 0
M  V30 16431 H 1519.05 -3.84525 -1.09455 0
M  V30 16432 H 1520.49 -3.67255 -2.11896 0
M  V30 16433 C 1518.95 -2.24035 -2.51614 0
M  V30 16434 O 1519.48 -1.87447 -3.55284 0
M  V30 16435 N 1517.69 -1.87982 -2.2161 0
M  V30 16436 H 1517.23 -2.17936 -1.37338 0
M  V30 16437 H 1517.19 -1.30058 -2.86238 0
M  V30 16438 N 1520.96 -0.130252 -1.57061 0
M  V30 16439 C 1522.38 0.226279 -1.57988 0
M  V30 16440 C 1522.58 1.65902 -1.14363 0
M  V30 16441 O 1521.64 2.38252 -0.836191 0
M  V30 16442 C 1522.95 -0.0172647 -3.00695 0
M  V30 16443 C 1524.5 0.0477572 -3.12964 0
M  V30 16444 C 1524.97 -0.168238 -4.57691 0
M  V30 16445 N 1526.46 -0.114591 -4.63058 0
M  V30 16446 C 1527.2 -0.256462 -5.72826 0
M  V30 16447 N 1526.69 -0.455129 -6.91303 0
M  V30 16448 N 1528.49 -0.195243 -5.61761 0
M  V30 16449 H 1520.64 -1.06594 -1.83716 0
M  V30 16450 H 1522.9 -0.420643 -0.849567 0
M  V30 16451 H 1522.61 -1.00819 -3.3694 0
M  V30 16452 H 1522.48 0.709629 -3.70465 0
M  V30 16453 H 1524.87 1.02922 -2.7657 0
M  V30 16454 H 1524.95 -0.711198 -2.45714 0
M  V30 16455 H 1524.59 -1.14673 -4.94785 0
M  V30 16456 H 1524.52 0.610839 -5.23045 0
M  V30 16457 H 1527.01 0.0349873 -3.77884 0
M  V30 16458 H 1527.33 -0.553943 -7.70812 0
M  V30 16459 H 1525.67 -0.491244 -6.93262 0
M  V30 16460 H 1528.86 -0.0409186 -4.68082 0
M  V30 16461 H 1529.04 -0.309248 -6.47262 0
M  V30 16462 N 1522.44 1.56945 0.143535 0
M  V30 16463 C 1523.67 1.87701 0.870401 0
M  V30 16464 C 1524.09 0.718833 1.7458 0
M  V30 16465 O 1523.44 -0.311286 1.79826 0
M  V30 16466 C 1523.49 3.1773 1.72424 0
M  V30 16467 O 1523.22 4.29086 0.884115 0
M  V30 16468 C 1524.72 3.62024 2.55839 0
M  V30 16469 H 1521.94 0.622083 0.251504 0
M  V30 16470 H 1524.48 2.04052 0.135285 0
M  V30 16471 H 1522.64 3.03122 2.41238 0
M  V30 16472 H 1523.05 5.0346 1.47065 0
M  V30 16473 H 1524.52 4.55834 3.11319 0
M  V30 16474 H 1525 2.87481 3.32041 0
M  V30 16475 H 1525.61 3.79338 1.9231 0
M  V30 16476 N 1523.92 -0.412991 1.52093 0
M  V30 16477 C 1524.85 -1.50986 1.78117 0
M  V30 16478 C 1525.83 -1.57925 0.631963 0
M  V30 16479 O 1527.02 -1.73261 0.877168 0
M  V30 16480 C 1524.15 -2.88846 1.92835 0
M  V30 16481 C 1523.1 -2.96759 3.08412 0
M  V30 16482 C 1522.43 -4.36837 3.08347 0
M  V30 16483 C 1523.73 -2.68599 4.47942 0
M  V30 16484 H 1525.42 -1.29459 2.69964 0
M  V30 16485 H 1522.97 -0.621348 1.29905 0
M  V30 16486 H 1524.92 -3.65563 2.09623 0
M  V30 16487 H 1523.64 -3.11658 0.976553 0
M  V30 16488 H 1522.3 -2.22487 2.91368 0
M  V30 16489 H 1521.95 -4.56652 2.10897 0
M  V30 16490 H 1521.65 -4.43056 3.85973 0
M  V30 16491 H 1523.18 -5.15493 3.2726 0
M  V30 16492 H 1524.59 -3.35039 4.65212 0
M  V30 16493 H 1522.99 -2.86199 5.27456 0
M  V30 16494 H 1524.06 -1.64058 4.56304 0
M  V30 16495 N 1525.4 -1.4265 -0.669982 0
M  V30 16496 C 1526.35 -1.46504 -1.7834 0
M  V30 16497 C 1527.32 -0.316478 -1.63057 0
M  V30 16498 O 1528.5 -0.521245 -1.83542 0
M  V30 16499 C 1525.64 -1.37784 -3.16401 0
M  V30 16500 C 1524.75 -2.62714 -3.42937 0
M  V30 16501 C 1523.89 -2.46101 -4.70752 0
M  V30 16502 C 1522.93 -3.66381 -4.90338 0
M  V30 16503 N 1522.07 -3.48681 -6.09398 0
M  V30 16504 H 1526.91 -2.41651 -1.74381 0
M  V30 16505 H 1524.44 -1.1997 -0.851215 0
M  V30 16506 H 1526.4 -1.30725 -3.9619 0
M  V30 16507 H 1525.03 -0.462291 -3.19473 0
M  V30 16508 H 1524.08 -2.8012 -2.57366 0
M  V30 16509 H 1525.39 -3.52108 -3.53301 0
M  V30 16510 H 1524.55 -2.36655 -5.58641 0
M  V30 16511 H 1523.29 -1.54204 -4.6268 0
M  V30 16512 H 1522.29 -3.76254 -4.00891 0
M  V30 16513 H 1523.52 -4.59265 -5.00253 0
M  V30 16514 H 1521.46 -2.59505 -6.02489 0
M  V30 16515 H 1521.38 -4.31666 -6.20645 0
M  V30 16516 H 1522.65 -3.43056 -6.99952 0
M  V30 16517 N 1526.88 0.906753 -1.28902 0
M  V30 16518 C 1527.79 2.04313 -1.15296 0
M  V30 16519 C 1528.8 1.73826 -0.0778619 0
M  V30 16520 O 1529.98 1.99322 -0.288543 0
M  V30 16521 C 1527.04 3.36782 -0.823317 0
M  V30 16522 C 1526.11 3.80834 -1.98152 0
M  V30 16523 C 1525.34 5.06981 -1.66751 0
M  V30 16524 O 1525.56 5.67391 -0.58513 0
M  V30 16525 O 1524.5 5.46915 -2.51332 0
M  V30 16526 H 1528.32 2.18713 -2.10709 0
M  V30 16527 H 1525.91 1.02928 -1.08287 0
M  V30 16528 H 1527.79 4.16298 -0.653735 0
M  V30 16529 H 1526.46 3.23542 0.101097 0
M  V30 16530 H 1525.37 3.02115 -2.2063 0
M  V30 16531 H 1526.7 3.98648 -2.88688 0
M  V30 16532 N 1528.36 1.11264 1.11616 0
M  V30 16533 C 1529.3 0.769295 2.17602 0
M  V30 16534 C 1530.27 -0.258362 1.64078 0
M  V30 16535 O 1531.46 -0.135698 1.90317 0
M  V30 16536 C 1528.6 0.216647 3.44419 0
M  V30 16537 C 1527.71 1.30064 4.11955 0
M  V30 16538 C 1526.85 0.708729 5.26451 0
M  V30 16539 C 1525.88 1.7727 5.85868 0
M  V30 16540 N 1525.02 1.20042 6.91762 0
M  V30 16541 H 1529.86 1.67727 2.46316 0
M  V30 16542 H 1527.4 0.83764 1.20921 0
M  V30 16543 H 1529.36 -0.121724 4.17022 0
M  V30 16544 H 1527.99 -0.654525 3.16095 0
M  V30 16545 H 1527.04 1.756 3.37445 0
M  V30 16546 H 1528.35 2.1057 4.52174 0
M  V30 16547 H 1527.5 0.320307 6.05854 0
M  V30 16548 H 1526.24 -0.127668 4.87533 0
M  V30 16549 H 1525.25 2.17046 5.05145 0
M  V30 16550 H 1526.47 2.6121 6.26854 0
M  V30 16551 H 1524.42 0.385633 6.54866 0
M  V30 16552 H 1524.34 1.94221 7.30626 0
M  V30 16553 H 1525.6 0.838825 7.74974 0
M  V30 16554 N 1529.83 -1.29188 0.902679 0
M  V30 16555 C 1531.08 -1.94718 0.526082 0
M  V30 16556 C 1531.4 -1.71924 -0.932816 0
M  V30 16557 O 1532.6 -2.31585 -1.41707 0
M  V30 16558 C 1531.06 -3.48723 0.889974 0
M  V30 16559 C 1530.67 -3.80312 2.36784 0
M  V30 16560 C 1532.41 -4.20472 0.58343 0
M  V30 16561 C 1530.32 -5.27574 2.67244 0
M  V30 16562 H 1529.25 -0.728875 0.193019 0
M  V30 16563 H 1531.9 -1.46869 1.10008 0
M  V30 16564 H 1530.28 -3.95242 0.244872 0
M  V30 16565 H 1531.45 -3.44641 3.05875 0
M  V30 16566 H 1529.77 -3.21709 2.64371 0
M  V30 16567 H 1532.37 -5.28864 0.787813 0
M  V30 16568 H 1532.71 -4.13544 -0.478204 0
M  V30 16569 H 1533.24 -3.79693 1.1865 0
M  V30 16570 H 1529.98 -5.39569 3.72217 0
M  V30 16571 H 1529.5 -5.64482 2.0278 0
M  V30 16572 H 1531.18 -5.95199 2.53666 0
M  V30 16573 N 1531.31 -0.665475 -1.42861 0
M  V30 16574 C 1532.24 0.0574495 -2.29128 0
M  V30 16575 C 1533.26 0.774881 -1.43176 0
M  V30 16576 O 1534.45 0.630593 -1.6699 0
M  V30 16577 C 1531.55 1.10481 -3.20386 0
M  V30 16578 C 1530.72 0.463071 -4.34942 0
M  V30 16579 C 1529.78 1.40896 -5.06986 0
M  V30 16580 O 1528.8 0.912839 -5.61833 0
M  V30 16581 N 1530.01 2.74257 -5.11628 0
M  V30 16582 H 1532.77 -0.683051 -2.91812 0
M  V30 16583 H 1530.33 -0.509179 -1.53685 0
M  V30 16584 H 1532.32 1.73866 -3.65449 0
M  V30 16585 H 1530.89 1.74715 -2.59217 0
M  V30 16586 H 1530.11 -0.350109 -3.92642 0
M  V30 16587 H 1531.4 0.0156092 -5.08798 0
M  V30 16588 H 1530.8 3.17112 -4.68462 0
M  V30 16589 H 1529.36 3.32913 -5.60368 0
M  V30 16590 N 1532.79 1.52222 -0.408187 0
M  V30 16591 C 1534.01 2.06703 0.169901 0
M  V30 16592 C 1534.44 1.27635 1.3817 0
M  V30 16593 O 1533.8 0.306343 1.78693 0
M  V30 16594 C 1533.85 3.57121 0.499663 0
M  V30 16595 O 1532.95 3.80483 1.5908 0
M  V30 16596 H 1532.29 0.663839 0.0146145 0
M  V30 16597 H 1534.82 1.96174 -0.581113 0
M  V30 16598 H 1534.83 4.00886 0.758567 0
M  V30 16599 H 1533.51 4.14103 -0.386182 0
M  V30 16600 H 1532.08 3.48599 1.32413 0
M  V30 16601 N 1534.27 0.138579 1.5699 0
M  V30 16602 C 1535.22 -0.815878 2.12902 0
M  V30 16603 C 1536.2 -1.21511 1.0547 0
M  V30 16604 O 1537.39 -1.18294 1.31665 0
M  V30 16605 C 1534.52 -2.0583 2.74752 0
M  V30 16606 C 1533.61 -1.68255 3.89296 0
M  V30 16607 N 1534 -1.01456 4.9552 0
M  V30 16608 C 1532.3 -1.97583 3.99846 0
M  V30 16609 C 1533 -0.834498 5.75683 0
M  V30 16610 N 1531.97 -1.36571 5.26165 0
M  V30 16611 H 1535.78 -0.296204 2.92404 0
M  V30 16612 H 1533.29 -0.0632473 1.62277 0
M  V30 16613 H 1535.29 -2.75197 3.13165 0
M  V30 16614 H 1533.95 -2.58323 1.96721 0
M  V30 16615 H 1534.96 -0.67628 5.13466 0
M  V30 16616 H 1531.64 -2.51985 3.32881 0
M  V30 16617 H 1533.03 -0.308664 6.71191 0
M  V30 16618 N 1535.75 -1.57019 -0.13521 0
M  V30 16619 C 1537.16 -1.51949 -0.48824 0
M  V30 16620 C 1537.36 -0.848955 -1.82743 0
M  V30 16621 O 1536.42 -0.424441 -2.48907 0
M  V30 16622 C 1537.73 -2.96719 -0.487673 0
M  V30 16623 C 1539.28 -3.07722 -0.572365 0
M  V30 16624 C 1539.75 -4.54022 -0.602347 0
M  V30 16625 N 1541.24 -4.58413 -0.664242 0
M  V30 16626 C 1541.98 -5.69005 -0.70862 0
M  V30 16627 N 1541.48 -6.89135 -0.711626 0
M  V30 16628 N 1543.27 -5.57069 -0.750399 0
M  V30 16629 H 1535.42 -1.99001 0.742465 0
M  V30 16630 H 1537.68 -0.908116 0.272083 0
M  V30 16631 H 1537.39 -3.49082 0.428363 0
M  V30 16632 H 1537.26 -3.53299 -1.32136 0
M  V30 16633 H 1539.65 -2.55372 -1.47882 0
M  V30 16634 H 1539.73 -2.54166 0.288696 0
M  V30 16635 H 1539.37 -5.07013 0.3 0
M  V30 16636 H 1539.3 -5.05373 -1.48006 0
M  V30 16637 H 1541.8 -3.71936 -0.668739 0
M  V30 16638 H 1542.11 -7.69175 -0.747663 0
M  V30 16639 H 1540.45 -6.91672 -0.679311 0
M  V30 16640 H 1543.64 -4.62129 -0.745301 0
M  V30 16641 H 1543.82 -6.4327 -0.781518 0
M  V30 16642 N 1537.22 0.404919 -1.52309 0
M  V30 16643 C 1538.5 1.16473 -1.57142 0
M  V30 16644 C 1538.88 2.08094 -0.354967 0
M  V30 16645 O 1538.23 2.18825 0.65788 0
M  V30 16646 C 1538.44 1.93834 -2.90223 0
M  V30 16647 C 1539.79 2.49754 -3.43378 0
M  V30 16648 O 1540.81 2.04009 -2.91991 0
M  V30 16649 O 1539.67 3.33271 -4.3312 0
M  V30 16650 H 1536.76 0.532036 -0.633141 0
M  V30 16651 H 1539.31 0.411359 -1.64639 0
M  V30 16652 H 1538.08 1.2674 -3.70206 0
M  V30 16653 H 1537.71 2.76167 -2.86038 0
M  V30 16654 N 1538.7 1.43003 0.662408 0
M  V30 16655 C 1539.65 1.47701 1.79686 0
M  V30 16656 C 1540.64 0.351491 1.65713 0
M  V30 16657 O 1541.85 0.525071 1.72171 0
M  V30 16658 H 1538.23 0.46285 0.592684 0
M  V30 16659 H 1540.2 2.43245 1.72843 0
M  V30 16660 C 1538.95 1.40828 3.17904 0
M  V30 16661 H 1538.27 2.26736 3.29288 0
M  V30 16662 H 1539.71 1.48177 3.97265 0
M  V30 16663 C 1538.17 0.124659 3.36669 0
M  V30 16664 O 1538.7 -0.81769 3.9329 0
M  V30 16665 N 1536.9 0.0378063 2.90575 0
M  V30 16666 H 1536.45 0.805456 2.44684 0
M  V30 16667 H 1536.41 -0.820377 3.03508 0
M  V30 16668 N 1540.18 -0.899904 1.29381 0
M  V30 16669 C 1541.41 -1.68383 1.20227 0
M  V30 16670 C 1541.82 -1.87305 -0.237135 0
M  V30 16671 O 1541.18 -1.40992 -1.15877 0
M  V30 16672 C 1541.23 -3.06845 1.91124 0
M  V30 16673 O 1540.95 -2.88787 3.29444 0
M  V30 16674 C 1542.45 -4.01253 1.88444 0
M  V30 16675 H 1539.67 -0.525917 0.416717 0
M  V30 16676 H 1542.22 -1.12537 1.7075 0
M  V30 16677 H 1540.37 -3.59467 1.44438 0
M  V30 16678 H 1540.79 -3.7652 3.65148 0
M  V30 16679 H 1542.26 -4.95824 2.42616 0
M  V30 16680 H 1542.74 -4.30699 0.859925 0
M  V30 16681 H 1543.34 -3.54562 2.34874 0
M  V30 16682 N 1541.66 -1.11854 -1.11024 0
M  V30 16683 C 1542.59 -0.738635 -2.16972 0
M  V30 16684 C 1543.6 0.231814 -1.61141 0
M  V30 16685 O 1544.79 0.0140607 -1.78494 0
M  V30 16686 C 1541.89 -0.0715797 -3.38824 0
M  V30 16687 C 1541.07 -1.06995 -4.24112 0
M  V30 16688 C 1540.12 -0.431644 -5.24427 0
M  V30 16689 O 1539.15 -1.08685 -5.58727 0
M  V30 16690 N 1540.35 0.803593 -5.74911 0
M  V30 16691 H 1543.12 -1.65025 -2.50174 0
M  V30 16692 H 1540.68 -1.00933 -1.26586 0
M  V30 16693 H 1542.67 0.367274 -4.0303 0
M  V30 16694 H 1541.24 0.742686 -3.03649 0
M  V30 16695 H 1540.46 -1.68662 -3.56296 0
M  V30 16696 H 1541.75 -1.74525 -4.77931 0
M  V30 16697 H 1541.15 1.355 -5.49232 0
M  V30 16698 H 1539.7 1.18536 -6.40931 0
M  V30 16699 N 1543.14 1.28707 -0.909517 0
M  V30 16700 C 1544.36 1.99283 -0.556211 0
M  V30 16701 C 1544.78 1.68 0.861475 0
M  V30 16702 O 1544.14 0.930421 1.57001 0
M  V30 16703 C 1544.19 3.5362 -0.75068 0
M  V30 16704 O 1543.91 3.83799 -2.11258 0
M  V30 16705 C 1545.41 4.41459 -0.403637 0
M  V30 16706 H 1542.63 0.636476 -0.212462 0
M  V30 16707 H 1545.17 1.64007 -1.22156 0
M  V30 16708 H 1543.33 3.87174 -0.132384 0
M  V30 16709 H 1543.74 4.78448 -2.14913 0
M  V30 16710 H 1545.22 5.48833 -0.590496 0
M  V30 16711 H 1545.69 4.34214 0.659897 0
M  V30 16712 H 1546.3 4.13394 -0.999292 0
M  V30 16713 N 1544.61 0.673042 1.42506 0
M  V30 16714 C 1545.54 0.00755467 2.33499 0
M  V30 16715 C 1546.53 -0.791161 1.50581 0
M  V30 16716 O 1547.71 -0.748668 1.79189 0
M  V30 16717 C 1544.84 -0.945638 3.34178 0
M  V30 16718 C 1543.79 -0.25564 4.27236 0
M  V30 16719 C 1543.12 -1.32165 5.18109 0
M  V30 16720 C 1544.42 0.864254 5.151 0
M  V30 16721 H 1546.11 0.767487 2.89396 0
M  V30 16722 H 1543.66 0.370524 1.39151 0
M  V30 16723 H 1545.61 -1.42026 3.96745 0
M  V30 16724 H 1544.34 -1.73697 2.76581 0
M  V30 16725 H 1543 0.19873 3.66061 0
M  V30 16726 H 1542.64 -2.10492 4.56839 0
M  V30 16727 H 1542.34 -0.865109 5.81197 0
M  V30 16728 H 1543.87 -1.79724 5.83551 0
M  V30 16729 H 1545.28 0.470924 5.71363 0
M  V30 16730 H 1543.68 1.24648 5.87012 0
M  V30 16731 H 1544.75 1.71378 4.53605 0
M  V30 16732 N 1546.09 -1.52004 0.416254 0
M  V30 16733 C 1547 -2.30947 -0.412403 0
M  V30 16734 C 1548.02 -1.38969 -1.04707 0
M  V30 16735 O 1549.19 -1.72044 -1.04703 0
M  V30 16736 C 1546.26 -3.12078 -1.51024 0
M  V30 16737 C 1545.32 -4.19805 -0.897892 0
M  V30 16738 C 1544.55 -4.97059 -1.94341 0
M  V30 16739 O 1544.78 -4.74695 -3.16261 0
M  V30 16740 O 1543.71 -5.81715 -1.54567 0
M  V30 16741 H 1547.54 -3.02817 0.231473 0
M  V30 16742 H 1545.12 -1.4832 0.179283 0
M  V30 16743 H 1547 -3.6258 -2.14741 0
M  V30 16744 H 1545.68 -2.42995 -2.13858 0
M  V30 16745 H 1544.59 -3.73433 -0.223236 0
M  V30 16746 H 1545.92 -4.91201 -0.31336 0
M  V30 16747 N 1547.57 -0.146903 -1.56914 0
M  V30 16748 C 1548.53 0.778709 -2.15566 0
M  V30 16749 C 1549.53 1.1753 -1.09742 0
M  V30 16750 O 1550.72 1.09624 -1.35382 0
M  V30 16751 C 1547.86 2.0567 -2.71869 0
M  V30 16752 H 1549.05 0.268506 -2.98696 0
M  V30 16753 H 1546.6 0.10254 -1.55963 0
M  V30 16754 H 1547.34 2.61057 -1.92405 0
M  V30 16755 H 1547.12 1.78154 -3.4929 0
M  V30 16756 H 1548.61 2.71779 -3.17059 0
M  V30 16757 N 1549.05 1.57088 0.126881 0
M  V30 16758 C 1550.01 1.98836 1.14003 0
M  V30 16759 C 1551.01 0.877454 1.34749 0
M  V30 16760 O 1552.2 1.14366 1.314 0
M  V30 16761 C 1549.33 2.32171 2.49618 0
M  V30 16762 H 1550.53 2.89541 0.7814 0
M  V30 16763 H 1548.08 1.51835 0.370915 0
M  V30 16764 H 1548.81 1.44321 2.90417 0
M  V30 16765 H 1548.6 3.13187 2.35916 0
M  V30 16766 H 1550.09 2.65238 3.2255 0
M  V30 16767 N 1550.53 -0.396836 1.52522 0
M  V30 16768 C 1551.46 -1.49088 1.79708 0
M  V30 16769 C 1552.44 -1.57246 0.648678 0
M  V30 16770 O 1553.62 -1.72321 0.895495 0
M  V30 16771 C 1550.75 -2.86785 1.95887 0
M  V30 16772 C 1549.71 -2.93472 3.11542 0
M  V30 16773 C 1549.03 -4.33542 3.12963 0
M  V30 16774 C 1550.33 -2.63832 4.50766 0
M  V30 16775 H 1552.03 -1.26588 2.71322 0
M  V30 16776 H 1549.57 -0.607535 1.30557 0
M  V30 16777 H 1551.53 -3.63319 2.13489 0
M  V30 16778 H 1550.25 -3.10605 1.00955 0
M  V30 16779 H 1548.91 -2.19384 2.93711 0
M  V30 16780 H 1548.56 -4.5439 2.15729 0
M  V30 16781 H 1548.26 -4.38938 3.9065 0
M  V30 16782 H 1549.78 -5.11993 3.32709 0
M  V30 16783 H 1551.19 -3.30086 4.68739 0
M  V30 16784 H 1549.59 -2.80589 5.30462 0
M  V30 16785 H 1550.66 -1.59209 4.58018 0
M  V30 16786 N 1552.01 -1.43353 -0.654814 0
M  V30 16787 C 1552.94 -1.44353 -1.7803 0
M  V30 16788 C 1553.95 -0.339872 -1.59213 0
M  V30 16789 O 1555.14 -0.604207 -1.67963 0
M  V30 16790 C 1552.24 -1.23913 -3.15434 0
M  V30 16791 C 1551.41 -2.47088 -3.60924 0
M  V30 16792 C 1550.47 -2.21896 -4.77126 0
M  V30 16793 O 1549.5 -2.95236 -4.86646 0
M  V30 16794 N 1550.7 -1.23459 -5.6722 0
M  V30 16795 H 1553.46 -2.41372 -1.77651 0
M  V30 16796 H 1551.03 -1.38488 -0.838603 0
M  V30 16797 H 1553.02 -1.04945 -3.90856 0
M  V30 16798 H 1551.59 -0.35346 -3.10595 0
M  V30 16799 H 1550.81 -2.81492 -2.75964 0
M  V30 16800 H 1552.1 -3.29066 -3.88064 0
M  V30 16801 H 1551.49 -0.6284 -5.62199 0
M  V30 16802 H 1550.05 -1.10474 -6.4237 0
M  V30 16803 N 1553.48 0.89303 -1.29857 0
M  V30 16804 C 1554.41 2.01422 -1.18117 0
M  V30 16805 C 1555.39 1.6994 -0.0737487 0
M  V30 16806 O 1556.58 1.92527 -0.254387 0
M  V30 16807 C 1553.71 3.36385 -0.863842 0
M  V30 16808 C 1552.66 3.821 -1.92831 0
M  V30 16809 C 1551.99 5.14263 -1.46415 0
M  V30 16810 C 1553.29 4.01699 -3.33819 0
M  V30 16811 H 1554.98 2.11502 -2.11913 0
M  V30 16812 H 1552.53 1.01622 -1.02024 0
M  V30 16813 H 1554.48 4.14335 -0.768397 0
M  V30 16814 H 1553.21 3.26415 0.109816 0
M  V30 16815 H 1551.87 3.06372 -2.01325 0
M  V30 16816 H 1551.51 5.00714 -0.478983 0
M  V30 16817 H 1551.21 5.45821 -2.17609 0
M  V30 16818 H 1552.74 5.94747 -1.38234 0
M  V30 16819 H 1554.15 4.70111 -3.28129 0
M  V30 16820 H 1552.55 4.44621 -4.03029 0
M  V30 16821 H 1553.62 3.05816 -3.76304 0
M  V30 16822 N 1554.96 1.12442 1.10429 0
M  V30 16823 C 1555.92 0.795443 2.14954 0
M  V30 16824 C 1556.92 -0.19022 1.59671 0
M  V30 16825 O 1558.11 0.0355797 1.74164 0
M  V30 16826 C 1555.25 0.182043 3.40414 0
M  V30 16827 H 1556.44 1.72153 2.45567 0
M  V30 16828 H 1553.99 0.927672 1.25793 0
M  V30 16829 H 1554.73 -0.753766 3.15419 0
M  V30 16830 H 1554.51 0.891708 3.81826 0
M  V30 16831 H 1556 -0.0316286 4.17588 0
M  V30 16832 N 1556.44 -1.28223 0.91633 0
M  V30 16833 C 1557.37 -2.29623 0.423735 0
M  V30 16834 C 1558.35 -1.62274 -0.510016 0
M  V30 16835 O 1559.54 -1.89666 -0.4172 0
M  V30 16836 C 1556.67 -3.45684 -0.334686 0
M  V30 16837 C 1555.62 -4.24949 0.510169 0
M  V30 16838 C 1554.95 -5.33371 -0.376745 0
M  V30 16839 C 1556.25 -4.91438 1.76877 0
M  V30 16840 H 1557.94 -2.71076 1.27115 0
M  V30 16841 H 1555.49 -1.30316 0.612678 0
M  V30 16842 H 1557.44 -4.1571 -0.690154 0
M  V30 16843 H 1556.16 -3.03118 -1.21603 0
M  V30 16844 H 1554.82 -3.56653 0.848191 0
M  V30 16845 H 1554.47 -4.87048 -1.25671 0
M  V30 16846 H 1554.17 -5.87309 0.18496 0
M  V30 16847 H 1555.69 -6.06244 -0.728039 0
M  V30 16848 H 1557.11 -5.53812 1.48205 0
M  V30 16849 H 1555.5 -5.55384 2.27308 0
M  V30 16850 H 1556.57 -4.15783 2.49505 0
M  V30 16851 N 1557.92 -0.68059 -1.42147 0
M  V30 16852 C 1559.17 -0.202445 -2.00681 0
M  V30 16853 C 1559.48 1.19997 -1.54467 0
M  V30 16854 O 1560.69 1.77479 -2.05459 0
M  V30 16855 C 1559.14 -0.311064 -3.58553 0
M  V30 16856 C 1558.75 -1.7179 -4.13754 0
M  V30 16857 C 1560.49 0.108072 -4.24362 0
M  V30 16858 C 1558.4 -1.77897 -5.64009 0
M  V30 16859 H 1557.33 -0.0719266 -0.750561 0
M  V30 16860 H 1559.98 -0.846614 -1.62803 0
M  V30 16861 H 1558.36 0.401098 -3.93963 0
M  V30 16862 H 1559.54 -2.45761 -3.89793 0
M  V30 16863 H 1557.85 -2.08539 -3.60417 0
M  V30 16864 H 1560.45 0.0826684 -5.34636 0
M  V30 16865 H 1560.79 1.14431 -4.00264 0
M  V30 16866 H 1561.33 -0.553285 -3.93933 0
M  V30 16867 H 1558.06 -2.79523 -5.92914 0
M  V30 16868 H 1557.58 -1.0829 -5.89944 0
M  V30 16869 H 1559.26 -1.53504 -6.28527 0
M  V30 16870 N 1559.4 1.51781 -0.424309 0
M  V30 16871 C 1560.62 2.06387 0.145548 0
M  V30 16872 C 1561.04 1.29299 1.37576 0
M  V30 16873 O 1560.4 0.348952 1.79133 0
M  V30 16874 C 1560.45 3.58288 0.48083 0
M  V30 16875 O 1560.17 4.32463 -0.700546 0
M  V30 16876 C 1561.67 4.29364 1.10278 0
M  V30 16877 H 1558.89 0.67086 0.0136908 0
M  V30 16878 H 1561.43 1.95511 -0.599639 0
M  V30 16879 H 1559.59 3.69122 1.17591 0
M  V30 16880 H 1560 5.22839 -0.417035 0
M  V30 16881 H 1561.48 5.36776 1.28747 0
M  V30 16882 H 1561.95 3.86815 2.08017 0
M  V30 16883 H 1562.56 4.2294 0.447458 0
M  V30 16884 N 1560.87 0.155222 1.56834 0
M  V30 16885 C 1562.11 -0.496476 1.98279 0
M  V30 16886 C 1562.48 -1.61495 1.03843 0
M  V30 16887 O 1563.68 -2.32808 1.34365 0
M  V30 16888 C 1561.95 -0.982022 3.43644 0
M  V30 16889 S 1563.51 -1.63717 4.07115 0
M  V30 16890 H 1560.33 -0.160256 0.692704 0
M  V30 16891 H 1562.93 0.248881 1.93909 0
M  V30 16892 H 1561.63 -0.157344 4.10098 0
M  V30 16893 H 1561.16 -1.7618 3.51744 0
M  V30 16894 H 1563.18 -2.92473 4.00841 0
M  V30 16895 N 1562.35 -1.57153 -0.118549 0
M  V30 16896 C 1563.3 -2.01357 -1.1644 0
M  V30 16897 C 1564.29 -0.910574 -1.42846 0
M  V30 16898 O 1565.5 -1.09578 -1.42803 0
M  V30 16899 H 1561.87 -0.641376 -0.392607 0
M  V30 16900 H 1563.85 -2.88425 -0.765087 0
M  V30 16901 C 1562.59 -2.43416 -2.48282 0
M  V30 16902 H 1561.92 -3.27857 -2.288 0
M  V30 16903 H 1563.36 -2.78143 -3.20019 0
M  V30 16904 C 1561.82 -1.29799 -3.10892 0
M  V30 16905 O 1562.35 -0.614207 -3.96977 0
M  V30 16906 N 1560.55 -1.05493 -2.70776 0
M  V30 16907 H 1560.1 -1.61276 -2.00868 0
M  V30 16908 H 1560.06 -0.296678 -3.12997 0
M  V30 16909 N 1563.83 0.388742 -1.5273 0
M  V30 16910 C 1564.78 1.47488 -1.77527 0
M  V30 16911 C 1565.75 1.54155 -0.618505 0
M  V30 16912 O 1566.93 1.70407 -0.858251 0
M  V30 16913 C 1564.07 2.84714 -1.95018 0
M  V30 16914 C 1563.18 2.87197 -3.2271 0
M  V30 16915 C 1562.32 4.15851 -3.30517 0
M  V30 16916 C 1561.36 4.12386 -4.52332 0
M  V30 16917 N 1560.5 5.32647 -4.57418 0
M  V30 16918 H 1565.34 1.25644 -2.70218 0
M  V30 16919 H 1562.87 0.609519 -1.33878 0
M  V30 16920 H 1564.83 3.64402 -2.03143 0
M  V30 16921 H 1563.46 3.05008 -1.05688 0
M  V30 16922 H 1562.51 1.99879 -3.23655 0
M  V30 16923 H 1563.82 2.80505 -4.12454 0
M  V30 16924 H 1562.98 5.03943 -3.37827 0
M  V30 16925 H 1561.72 4.25265 -2.38748 0
M  V30 16926 H 1560.72 3.22683 -4.45147 0
M  V30 16927 H 1561.95 4.04594 -5.45418 0
M  V30 16928 H 1559.89 5.42691 -3.68541 0
M  V30 16929 H 1559.81 5.28032 -5.41035 0
M  V30 16930 H 1561.08 6.22636 -4.68983 0
M  V30 16931 N 1565.31 1.43698 0.647203 0
M  V30 16932 C 1566.56 1.45346 1.40425 0
M  V30 16933 C 1566.88 0.081129 1.94831 0
M  V30 16934 O 1566.15 -0.884379 1.74801 0
M  V30 16935 H 1564.73 0.535145 0.521181 0
M  V30 16936 H 1567.39 1.79349 0.762887 0
M  V30 16937 H 1566.48 2.16954 2.2436 0
M  V30 16938 N 1566.79 -0.886131 1.30328 0
M  V30 16939 C 1568.2 -1.16922 1.08634 0
M  V30 16940 C 1568.4 -2.00913 -0.15365 0
M  V30 16941 O 1567.46 -2.37849 -0.847592 0
M  V30 16942 C 1568.77 -1.87701 2.34923 0
M  V30 16943 C 1570.32 -2.0047 2.40376 0
M  V30 16944 C 1570.79 -2.74662 3.66504 0
M  V30 16945 N 1572.29 -2.82208 3.67305 0
M  V30 16946 C 1573.02 -3.40185 4.61586 0
M  V30 16947 N 1572.52 -3.99221 5.66211 0
M  V30 16948 N 1574.31 -3.37989 4.49132 0
M  V30 16949 H 1566.46 -0.326064 2.09882 0
M  V30 16950 H 1568.72 -0.206996 0.925125 0
M  V30 16951 H 1568.43 -1.33427 3.25408 0
M  V30 16952 H 1568.3 -2.88092 2.43481 0
M  V30 16953 H 1570.69 -2.53914 1.50371 0
M  V30 16954 H 1570.77 -0.991709 2.35794 0
M  V30 16955 H 1570.42 -2.2189 4.56867 0
M  V30 16956 H 1570.35 -3.76335 3.68347 0
M  V30 16957 H 1572.84 -2.40292 2.91665 0
M  V30 16958 H 1573.15 -4.41522 6.34254 0
M  V30 16959 H 1571.49 -3.97643 5.70004 0
M  V30 16960 H 1574.69 -2.91096 3.6658 0
M  V30 16961 H 1574.86 -3.82877 5.2279 0
M  V30 16962 N 1568.26 -1.13026 -1.09832 0
M  V30 16963 C 1569.17 -0.817051 -2.19912 0
M  V30 16964 C 1570.19 0.19667 -1.72885 0
M  V30 16965 O 1571.37 0.0287402 -2.01379 0
M  V30 16966 C 1568.43 -0.28304 -3.45543 0
M  V30 16967 C 1567.49 -1.35748 -4.07273 0
M  V30 16968 C 1566.73 -0.848855 -5.26906 0
M  V30 16969 O 1566.95 0.315104 -5.69529 0
M  V30 16970 O 1565.88 -1.62128 -5.79653 0
M  V30 16971 H 1569.71 -1.73663 -2.49148 0
M  V30 16972 H 1567.29 -0.907391 -1.18688 0
M  V30 16973 H 1569.18 0.00956876 -4.21399 0
M  V30 16974 H 1567.85 0.609018 -3.17919 0
M  V30 16975 H 1566.76 -1.70334 -3.33072 0
M  V30 16976 H 1568.09 -2.22353 -4.39113 0
M  V30 16977 N 1569.74 1.27735 -0.923117 0
M  V30 16978 C 1570.97 1.9922 -0.57672 0
M  V30 16979 C 1571.39 1.68446 0.837113 0
M  V30 16980 O 1570.75 0.922129 1.56098 0
M  V30 16981 C 1570.8 3.51528 -0.803768 0
M  V30 16982 O 1569.9 4.12186 0.132829 0
M  V30 16983 H 1569.24 0.625593 -0.222553 0
M  V30 16984 H 1571.77 1.62657 -1.24112 0
M  V30 16985 H 1571.78 4.01641 -0.717534 0
M  V30 16986 H 1570.46 3.7326 -1.83439 0
M  V30 16987 H 1569.04 3.729 -0.00292957 0
M  V30 16988 N 1571.22 0.688118 1.41784 0
M  V30 16989 C 1572.15 -0.0323076 2.28177 0
M  V30 16990 C 1573.13 -0.795419 1.41816 0
M  V30 16991 O 1574.32 -0.787785 1.71249 0
M  V30 16992 C 1571.44 -1.05308 3.21913 0
M  V30 16993 C 1570.49 -0.384003 4.24768 0
M  V30 16994 S 1571.32 0.86817 5.28416 0
M  V30 16995 C 1572.48 -0.151191 6.25717 0
M  V30 16996 H 1572.71 0.700456 2.88931 0
M  V30 16997 H 1570.24 0.478125 1.46811 0
M  V30 16998 H 1572.2 -1.63689 3.76452 0
M  V30 16999 H 1570.86 -1.75837 2.6027 0
M  V30 17000 H 1570.06 -1.15469 4.90594 0
M  V30 17001 H 1569.66 0.126545 3.73786 0
M  V30 17002 H 1571.95 -1.0068 6.69977 0
M  V30 17003 H 1572.89 0.472955 7.06519 0
M  V30 17004 H 1573.3 -0.502631 5.62258 0
M  V30 17005 N 1572.7 -1.51554 0.432352 0
M  V30 17006 C 1573.95 -2.01645 -0.135511 0
M  V30 17007 C 1574.27 -1.31874 -1.43647 0
M  V30 17008 O 1573.54 -0.451746 -1.9062 0
M  V30 17009 H 1572.12 -0.745113 -0.0530683 0
M  V30 17010 H 1574.78 -1.86258 0.573917 0
M  V30 17011 H 1573.88 -3.10506 -0.315001 0
M  V30 17012 N 1574.18 -0.163538 -1.56749 0
M  V30 17013 C 1575.42 0.482449 -1.96257 0
M  V30 17014 C 1575.75 1.64302 -1.05023 0
M  V30 17015 O 1575.02 1.95562 -0.115027 0
M  V30 17016 H 1573.6 0.181222 -0.724684 0
M  V30 17017 H 1576.26 -0.242903 -1.9338 0
M  V30 17018 H 1575.35 0.847634 -3.00369 0
M  V30 17019 N 1575.65 1.57214 0.110213 0
M  V30 17020 C 1576.59 1.97641 1.16064 0
M  V30 17021 C 1577.6 0.876886 1.37166 0
M  V30 17022 O 1578.79 1.15512 1.36086 0
M  V30 17023 C 1575.89 2.2671 2.51904 0
M  V30 17024 C 1575.06 3.58015 2.51285 0
M  V30 17025 C 1574.12 3.75195 3.68938 0
M  V30 17026 O 1573.15 4.47214 3.5212 0
M  V30 17027 N 1574.35 3.14627 4.87842 0
M  V30 17028 H 1577.11 2.88358 0.816679 0
M  V30 17029 H 1574.67 1.59108 0.299383 0
M  V30 17030 H 1576.67 2.35411 3.29187 0
M  V30 17031 H 1575.24 1.42076 2.78448 0
M  V30 17032 H 1574.46 3.60422 1.59655 0
M  V30 17033 H 1575.74 4.44303 2.47936 0
M  V30 17034 H 1575.14 2.56101 5.0441 0
M  V30 17035 H 1573.7 3.28836 5.6277 0
M  V30 17036 N 1577.13 -0.380637 1.52934 0
M  V30 17037 C 1578.36 -1.14583 1.72274 0
M  V30 17038 C 1578.78 -1.83484 0.444864 0
M  V30 17039 O 1578.13 -1.72997 -0.581245 0
M  V30 17040 C 1578.18 -2.18756 2.87799 0
M  V30 17041 O 1577.9 -1.52662 4.10641 0
M  V30 17042 C 1579.41 -3.07938 3.18887 0
M  V30 17043 H 1576.63 -0.343218 0.576578 0
M  V30 17044 H 1579.17 -0.444149 1.99619 0
M  V30 17045 H 1577.32 -2.84546 2.62892 0
M  V30 17046 H 1577.74 -2.21949 4.75225 0
M  V30 17047 H 1579.21 -3.77045 4.03164 0
M  V30 17048 H 1579.69 -3.71913 2.33618 0
M  V30 17049 H 1580.3 -2.47783 3.45664 0
M  V30 17050 N 1578.61 -1.44039 -0.639573 0
M  V30 17051 C 1580.02 -1.41236 -1.22104 0
M  V30 17052 C 1580.37 -0.123367 -1.95812 0
M  V30 17053 O 1579.5 0.776641 -2.01983 0
M  V30 17054 C 1580.09 -2.55853 -2.22092 0
M  V30 17055 C 1578.65 -2.56271 -2.75685 0
M  V30 17056 C 1577.8 -2.32877 -1.50544 0
M  V30 17057 H 1580.75 -1.52742 -0.430756 0
M  V30 17058 H 1580.77 -2.28123 -3.04533 0
M  V30 17059 H 1580.28 -3.49653 -1.68417 0
M  V30 17060 H 1578.38 -1.66389 -3.33385 0
M  V30 17061 H 1578.5 -3.54486 -3.22299 0
M  V30 17062 H 1576.86 -1.81807 -1.78377 0
M  V30 17063 H 1577.64 -3.2878 -0.987845 0
M  V30 17064 N 1580.09 0.879207 -1.30796 0
M  V30 17065 C 1581.33 1.63392 -1.21139 0
M  V30 17066 C 1581.69 1.91016 0.230372 0
M  V30 17067 O 1580.98 1.52411 1.1611 0
M  V30 17068 C 1581.18 2.97578 -1.97945 0
M  V30 17069 C 1581.01 2.83055 -3.49442 0
M  V30 17070 C 1579.78 2.82731 -4.18797 0
M  V30 17071 C 1581.97 2.58583 -4.44566 0
M  V30 17072 N 1579.96 2.5916 -5.56515 0
M  V30 17073 C 1581.33 2.44189 -5.69887 0
M  V30 17074 C 1583.38 2.43854 -4.34096 0
M  V30 17075 C 1582.08 2.16563 -6.85925 0
M  V30 17076 C 1584.11 2.17615 -5.49907 0
M  V30 17077 C 1583.47 2.04002 -6.74213 0
M  V30 17078 H 1579.57 0.602628 -0.498361 0
M  V30 17079 H 1582.16 1.03557 -1.64876 0
M  V30 17080 H 1580.33 3.55435 -1.56591 0
M  V30 17081 H 1582.06 3.62277 -1.80382 0
M  V30 17082 H 1578.81 2.94774 -3.70682 0
M  V30 17083 H 1579.24 2.50371 -6.29002 0
M  V30 17084 H 1583.88 2.53111 -3.38666 0
M  V30 17085 H 1581.6 2.06044 -7.81391 0
M  V30 17086 H 1585.18 2.07032 -5.43718 0
M  V30 17087 H 1584.06 1.83983 -7.62312 0
M  V30 17088 N 1581.57 1.13606 1.09231 0
M  V30 17089 C 1582.48 0.828702 2.19476 0
M  V30 17090 C 1583.49 -0.187499 1.72987 0
M  V30 17091 O 1584.67 -0.0180602 2.01392 0
M  V30 17092 C 1581.73 0.301361 3.45388 0
M  V30 17093 C 1580.8 1.37906 4.06547 0
M  V30 17094 C 1580.03 0.876786 5.26449 0
M  V30 17095 O 1580.25 -0.284896 5.69688 0
M  V30 17096 O 1579.19 1.652 5.78785 0
M  V30 17097 H 1583.01 1.74982 2.48223 0
M  V30 17098 H 1580.6 0.913673 1.18205 0
M  V30 17099 H 1582.48 0.0127792 4.21398 0
M  V30 17100 H 1581.15 -0.592149 3.18238 0
M  V30 17101 H 1580.06 1.72098 3.32164 0
M  V30 17102 H 1581.39 2.24678 4.37927 0
M  V30 17103 N 1583.05 -1.27244 0.929878 0
M  V30 17104 C 1584.29 -1.94557 0.572306 0
M  V30 17105 C 1584.62 -1.72886 -0.884542 0
M  V30 17106 O 1583.9 -1.0592 -1.63129 0
M  V30 17107 C 1584.18 -3.48629 0.901675 0
M  V30 17108 C 1584.04 -3.79633 2.41244 0
M  V30 17109 C 1585.35 -4.38195 0.409093 0
M  V30 17110 H 1582.47 -0.706627 0.209397 0
M  V30 17111 H 1585.12 -1.50321 1.16205 0
M  V30 17112 H 1583.27 -3.86437 0.399791 0
M  V30 17113 H 1584.94 -3.51604 2.98618 0
M  V30 17114 H 1583.18 -3.26108 2.8607 0
M  V30 17115 H 1583.85 -4.87284 2.59342 0
M  V30 17116 H 1586.33 -4.07548 0.839256 0
M  V30 17117 H 1585.2 -5.44814 0.668482 0
M  V30 17118 H 1585.46 -4.36669 -0.690861 0
M  V30 17119 N 1584.52 -0.695628 -1.41417 0
M  V30 17120 C 1585.77 -0.226618 -2.01228 0
M  V30 17121 C 1586.1 1.17376 -1.5509 0
M  V30 17122 O 1585.35 1.80635 -0.752964 0
M  V30 17123 C 1585.65 -0.232664 -3.56642 0
M  V30 17124 C 1585.32 -1.58057 -4.2229 0
M  V30 17125 C 1583.98 -1.94959 -4.39937 0
M  V30 17126 C 1586.33 -2.46735 -4.59098 0
M  V30 17127 C 1583.66 -3.20123 -4.91669 0
M  V30 17128 C 1586.01 -3.71232 -5.1222 0
M  V30 17129 C 1584.68 -4.08277 -5.28078 0
M  V30 17130 H 1583.95 -0.0829255 -0.736345 0
M  V30 17131 H 1586.59 -0.894729 -1.69313 0
M  V30 17132 H 1584.9 0.518995 -3.88347 0
M  V30 17133 H 1586.6 0.147754 -4.00728 0
M  V30 17134 H 1583.19 -1.28356 -4.08929 0
M  V30 17135 H 1587.37 -2.19506 -4.45119 0
M  V30 17136 H 1582.63 -3.48819 -5.02131 0
M  V30 17137 H 1586.8 -4.40132 -5.39682 0
M  V30 17138 H 1584.43 -5.05335 -5.67927 0
M  V30 17139 N 1586 1.51322 -0.440383 0
M  V30 17140 C 1587.25 2.01302 0.126581 0
M  V30 17141 C 1587.56 1.32898 1.43518 0
M  V30 17142 O 1588.77 1.73864 2.08527 0
M  V30 17143 C 1587.23 3.58839 0.276126 0
M  V30 17144 C 1586.83 4.36182 -1.02222 0
M  V30 17145 C 1588.58 4.16957 0.796697 0
M  V30 17146 C 1586.48 5.85431 -0.838148 0
M  V30 17147 H 1585.41 0.752268 0.0510809 0
M  V30 17148 H 1588.07 1.74403 -0.570609 0
M  V30 17149 H 1586.45 3.82198 1.03639 0
M  V30 17150 H 1587.62 4.24568 -1.79105 0
M  V30 17151 H 1585.94 3.89531 -1.47155 0
M  V30 17152 H 1588.53 5.26176 0.95095 0
M  V30 17153 H 1588.88 3.76329 1.77996 0
M  V30 17154 H 1589.41 3.97687 0.0946613 0
M  V30 17155 H 1586.15 6.30476 -1.79387 0
M  V30 17156 H 1585.67 5.99701 -0.109167 0
M  V30 17157 H 1587.35 6.45122 -0.492547 0
M  V30 17158 N 1587.48 0.171848 1.5666 0
M  V30 17159 C 1588.71 -0.479221 2.01274 0
M  V30 17160 C 1589.12 -1.56771 1.05206 0
M  V30 17161 O 1588.48 -1.82423 0.0530164 0
M  V30 17162 C 1588.53 -1.05705 3.457 0
M  V30 17163 O 1588.25 -0.0120133 4.38098 0
M  V30 17164 C 1589.75 -1.78629 4.05717 0
M  V30 17165 H 1586.97 -0.122598 0.659705 0
M  V30 17166 H 1589.52 0.273733 2.0266 0
M  V30 17167 H 1587.67 -1.7605 3.45087 0
M  V30 17168 H 1588.09 -0.438714 5.22662 0
M  V30 17169 H 1589.56 -2.14319 5.08696 0
M  V30 17170 H 1590.04 -2.68149 3.4784 0
M  V30 17171 H 1590.64 -1.12925 4.10034 0
M  V30 17172 N 1588.96 -1.5727 -0.101874 0
M  V30 17173 C 1589.91 -2.0258 -1.14297 0
M  V30 17174 C 1590.9 -0.925674 -1.41872 0
M  V30 17175 O 1592.11 -1.11086 -1.41633 0
M  V30 17176 H 1588.48 -0.645504 -0.385782 0
M  V30 17177 H 1590.45 -2.8922 -0.734453 0
M  V30 17178 C 1589.2 -2.46036 -2.45686 0
M  V30 17179 H 1588.52 -3.30266 -2.2531 0
M  V30 17180 H 1589.96 -2.81522 -3.17051 0
M  V30 17181 C 1588.42 -1.33089 -3.09498 0
M  V30 17182 O 1588.95 -0.656277 -3.96303 0
M  V30 17183 N 1587.16 -1.08359 -2.69642 0
M  V30 17184 H 1586.71 -1.63397 -1.99146 0
M  V30 17185 H 1586.66 -0.329859 -3.12665 0
M  V30 17186 N 1590.44 0.372521 -1.53134 0
M  V30 17187 C 1591.37 1.4759 -1.75357 0
M  V30 17188 C 1592.38 1.49938 -0.634223 0
M  V30 17189 O 1593.57 1.53543 -0.910322 0
M  V30 17190 C 1590.67 2.86382 -1.81214 0
M  V30 17191 C 1589.84 3.0781 -3.1076 0
M  V30 17192 C 1588.9 4.26677 -3.07949 0
M  V30 17193 O 1587.93 4.22186 -3.81769 0
M  V30 17194 N 1589.13 5.33729 -2.28283 0
M  V30 17195 H 1591.89 1.28908 -2.7056 0
M  V30 17196 H 1589.46 0.562186 -1.51826 0
M  V30 17197 H 1591.45 3.64029 -1.7682 0
M  V30 17198 H 1590.02 2.98344 -0.933249 0
M  V30 17199 H 1589.24 2.17884 -3.28512 0
M  V30 17200 H 1590.53 3.18991 -3.96386 0
M  V30 17201 H 1589.92 5.40238 -1.67806 0
M  V30 17202 H 1588.48 6.09979 -2.29714 0
M  V30 17203 N 1591.91 1.44376 0.631925 0
M  V30 17204 C 1592.88 1.50825 1.72582 0
M  V30 17205 C 1593.88 0.390379 1.55989 0
M  V30 17206 O 1595.07 0.65297 1.61499 0
M  V30 17207 C 1592.2 1.38141 3.11657 0
M  V30 17208 H 1593.39 2.48265 1.68239 0
M  V30 17209 H 1590.94 1.31456 0.845514 0
M  V30 17210 H 1591.68 0.417905 3.21596 0
M  V30 17211 H 1591.46 2.19198 3.25107 0
M  V30 17212 H 1592.95 1.45633 3.91383 0
M  V30 17213 N 1593.39 -0.872258 1.31261 0
M  V30 17214 C 1594.32 -1.9853 1.14537 0
M  V30 17215 C 1595.34 -1.62578 0.0850723 0
M  V30 17216 O 1596.53 -1.75379 0.332343 0
M  V30 17217 C 1593.63 -3.31005 0.72727 0
M  V30 17218 C 1592.8 -3.95313 1.87208 0
M  V30 17219 C 1591.86 -5.06101 1.44042 0
M  V30 17220 O 1590.88 -5.27045 2.1497 0
M  V30 17221 N 1592.09 -5.79581 0.32653 0
M  V30 17222 H 1594.85 -2.13423 2.10406 0
M  V30 17223 H 1592.41 -1.0461 1.23565 0
M  V30 17224 H 1594.4 -4.02502 0.421255 0
M  V30 17225 H 1592.97 -3.12287 -0.13975 0
M  V30 17226 H 1592.19 -3.16825 2.34553 0
M  V30 17227 H 1593.48 -4.35015 2.63893 0
M  V30 17228 H 1592.88 -5.65083 -0.264202 0
M  V30 17229 H 1591.44 -6.51751 0.0800358 0
M  V30 17230 N 1594.87 -1.14184 -1.08627 0
M  V30 17231 C 1596.12 -0.91001 -1.81236 0
M  V30 17232 C 1596.45 0.562134 -1.85886 0
M  V30 17233 O 1595.72 1.41631 -1.33307 0
M  V30 17234 C 1596.01 -1.50879 -3.26967 0
M  V30 17235 C 1595.86 -3.05063 -3.3054 0
M  V30 17236 C 1597.18 -1.18379 -4.2388 0
M  V30 17237 H 1594.3 -0.332025 -0.657973 0
M  V30 17238 H 1596.94 -1.41144 -1.27194 0
M  V30 17239 H 1595.09 -1.08236 -3.73118 0
M  V30 17240 H 1596.76 -3.5652 -2.9273 0
M  V30 17241 H 1595 -3.39628 -2.6988 0
M  V30 17242 H 1595.68 -3.42064 -4.33239 0
M  V30 17243 H 1598.15 -1.55242 -3.86056 0
M  V30 17244 H 1597.03 -1.62911 -5.24167 0
M  V30 17245 H 1597.29 -0.0987385 -4.4199 0
M  V30 17246 N 1596.35 1.26749 -0.936613 0
M  V30 17247 C 1597.6 1.93255 -0.577524 0
M  V30 17248 C 1597.91 1.74337 0.886905 0
M  V30 17249 O 1599.12 2.3526 1.35517 0
M  V30 17250 C 1597.57 3.4624 -0.982119 0
M  V30 17251 C 1597.18 3.739 -2.46784 0
M  V30 17252 C 1598.92 4.18777 -0.694706 0
M  V30 17253 C 1596.83 5.20303 -2.81138 0
M  V30 17254 H 1595.76 0.723502 -0.212276 0
M  V30 17255 H 1598.41 1.43901 -1.13863 0
M  V30 17256 H 1596.79 3.94454 -0.349577 0
M  V30 17257 H 1597.97 3.3641 -3.14905 0
M  V30 17258 H 1596.28 3.14587 -2.72808 0
M  V30 17259 H 1598.88 5.2659 -0.927756 0
M  V30 17260 H 1599.22 4.14667 0.368392 0
M  V30 17261 H 1599.76 3.76414 -1.28676 0
M  V30 17262 H 1596.5 5.29511 -3.86392 0
M  V30 17263 H 1596.02 5.58907 -2.17675 0
M  V30 17264 H 1597.69 5.88265 -2.69358 0
M  V30 17265 N 1597.83 0.703118 1.41046 0
M  V30 17266 C 1598.78 0.0192623 2.27992 0
M  V30 17267 C 1599.76 -0.745216 1.42602 0
M  V30 17268 O 1600.95 -0.619468 1.65806 0
M  V30 17269 C 1598.08 -0.910896 3.30995 0
M  V30 17270 C 1597.17 -0.142265 4.23861 0
M  V30 17271 N 1597.56 0.867928 4.98298 0
M  V30 17272 C 1595.86 -0.376651 4.44407 0
M  V30 17273 C 1596.56 1.32869 5.66322 0
M  V30 17274 N 1595.53 0.653176 5.39662 0
M  V30 17275 H 1599.34 0.793687 2.8298 0
M  V30 17276 H 1596.85 0.534609 1.53348 0
M  V30 17277 H 1598.85 -1.41603 3.92115 0
M  V30 17278 H 1597.51 -1.68483 2.77567 0
M  V30 17279 H 1598.52 1.2484 5.02628 0
M  V30 17280 H 1595.19 -1.12789 4.01976 0
M  V30 17281 H 1596.58 2.16738 6.35983 0
M  V30 17282 N 1599.3 -1.51086 0.448402 0
M  V30 17283 C 1600.21 -2.3177 -0.363323 0
M  V30 17284 C 1601.23 -1.41159 -1.01736 0
M  V30 17285 O 1602.41 -1.74226 -1.01031 0
M  V30 17286 C 1599.47 -3.15211 -1.4437 0
M  V30 17287 C 1598.53 -4.21615 -0.808643 0
M  V30 17288 C 1597.77 -5.01069 -1.83754 0
M  V30 17289 O 1597.99 -4.81296 -3.06121 0
M  V30 17290 O 1596.92 -5.84863 -1.42193 0
M  V30 17291 H 1600.75 -3.02257 0.295653 0
M  V30 17292 H 1598.33 -1.47907 0.210703 0
M  V30 17293 H 1600.22 -3.67053 -2.07002 0
M  V30 17294 H 1598.89 -2.47476 -2.08656 0
M  V30 17295 H 1597.8 -3.73823 -0.143975 0
M  V30 17296 H 1599.13 -4.91756 -0.209098 0
M  V30 17297 N 1600.78 -0.180154 -1.56567 0
M  V30 17298 C 1601.73 0.746666 -2.18389 0
M  V30 17299 C 1602.7 1.22058 -1.12655 0
M  V30 17300 O 1603.88 1.28716 -1.40843 0
M  V30 17301 C 1601.02 1.96688 -2.83563 0
M  V30 17302 C 1600.14 1.53572 -4.03782 0
M  V30 17303 C 1599.27 2.71028 -4.56856 0
M  V30 17304 C 1598.31 2.24445 -5.69465 0
M  V30 17305 N 1597.45 3.35026 -6.17011 0
M  V30 17306 H 1602.29 0.212707 -2.9724 0
M  V30 17307 H 1599.83 0.093256 -1.46804 0
M  V30 17308 H 1601.78 2.68269 -3.19511 0
M  V30 17309 H 1600.41 2.4744 -2.073 0
M  V30 17310 H 1599.47 0.716323 -3.73595 0
M  V30 17311 H 1600.78 1.15385 -4.85271 0
M  V30 17312 H 1599.93 3.50753 -4.95032 0
M  V30 17313 H 1598.67 3.1248 -3.74443 0
M  V30 17314 H 1597.68 1.43169 -5.30832 0
M  V30 17315 H 1598.9 1.84041 -6.53686 0
M  V30 17316 H 1596.85 3.76037 -5.37524 0
M  V30 17317 H 1596.76 3.0096 -6.93512 0
M  V30 17318 H 1598.03 4.15009 -6.59839 0
M  V30 17319 N 1602.26 1.57322 0.0935319 0
M  V30 17320 C 1603.19 2.05208 1.11409 0
M  V30 17321 C 1604.17 0.941295 1.41681 0
M  V30 17322 O 1605.36 1.21266 1.51684 0
M  V30 17323 C 1602.49 2.47782 2.43354 0
M  V30 17324 C 1601.44 3.62538 2.27486 0
M  V30 17325 C 1600.77 3.91095 3.64622 0
M  V30 17326 C 1602.07 4.93371 1.71412 0
M  V30 17327 H 1603.76 2.9072 0.715702 0
M  V30 17328 H 1601.31 1.3986 0.342827 0
M  V30 17329 H 1603.26 2.79891 3.15022 0
M  V30 17330 H 1601.98 1.59272 2.85132 0
M  V30 17331 H 1600.64 3.30679 1.58263 0
M  V30 17332 H 1600.29 2.99749 4.0393 0
M  V30 17333 H 1599.99 4.68353 3.5485 0
M  V30 17334 H 1601.51 4.25679 4.37755 0
M  V30 17335 H 1602.93 5.23851 2.32922 0
M  V30 17336 H 1601.33 5.74804 1.72395 0
M  V30 17337 H 1602.4 4.80197 0.67368 0
M  V30 17338 N 1603.74 -0.364395 1.53329 0
M  V30 17339 C 1604.67 -1.45243 1.8283 0
M  V30 17340 C 1605.65 -1.55834 0.681886 0
M  V30 17341 O 1606.83 -1.70383 0.931845 0
M  V30 17342 C 1603.96 -2.82565 2.01926 0
M  V30 17343 C 1602.92 -2.86797 3.17697 0
M  V30 17344 C 1602.24 -4.26806 3.22089 0
M  V30 17345 C 1603.54 -2.54212 4.56261 0
M  V30 17346 H 1605.24 -1.20804 2.73946 0
M  V30 17347 H 1602.78 -0.579705 1.31816 0
M  V30 17348 H 1604.74 -3.58709 2.21147 0
M  V30 17349 H 1603.46 -3.08394 1.07521 0
M  V30 17350 H 1602.12 -2.13105 2.98298 0
M  V30 17351 H 1601.77 -4.49712 2.25318 0
M  V30 17352 H 1601.47 -4.30553 3.99873 0
M  V30 17353 H 1602.99 -5.04821 3.43495 0
M  V30 17354 H 1604.41 -3.20069 4.75635 0
M  V30 17355 H 1602.8 -2.69273 5.36295 0
M  V30 17356 H 1603.87 -1.49458 4.61292 0
M  V30 17357 N 1605.22 -1.44709 -0.62426 0
M  V30 17358 C 1606.15 -1.54934 -1.74693 0
M  V30 17359 C 1607.13 -0.401897 -1.65284 0
M  V30 17360 O 1608.31 -0.622906 -1.83939 0
M  V30 17361 C 1605.44 -1.49976 -3.13248 0
M  V30 17362 C 1604.4 -2.63267 -3.37453 0
M  V30 17363 C 1603.72 -2.43362 -4.76108 0
M  V30 17364 C 1605.02 -4.0538 -3.2934 0
M  V30 17365 H 1606.72 -2.48905 -1.66393 0
M  V30 17366 H 1604.26 -1.19794 -0.799088 0
M  V30 17367 H 1606.22 -1.55729 -3.91569 0
M  V30 17368 H 1604.94 -0.525254 -3.22349 0
M  V30 17369 H 1603.6 -2.56915 -2.61515 0
M  V30 17370 H 1603.25 -1.44088 -4.81921 0
M  V30 17371 H 1602.95 -3.19324 -4.93261 0
M  V30 17372 H 1604.47 -2.50943 -5.56651 0
M  V30 17373 H 1605.88 -4.13064 -3.97556 0
M  V30 17374 H 1604.28 -4.81599 -3.58025 0
M  V30 17375 H 1605.35 -4.28465 -2.27038 0
M  V30 17376 N 1606.69 0.865285 -1.31722 0
M  V30 17377 C 1607.63 1.97919 -1.15588 0
M  V30 17378 C 1608.64 1.6253 -0.0936929 0
M  V30 17379 O 1609.83 1.752 -0.341639 0
M  V30 17380 C 1606.93 3.30614 -0.744814 0
M  V30 17381 C 1606.1 3.94314 -1.89301 0
M  V30 17382 C 1605.16 5.0533 -1.46724 0
M  V30 17383 O 1604.19 5.25898 -2.17762 0
M  V30 17384 N 1605.39 5.794 -0.357262 0
M  V30 17385 H 1608.15 2.12304 -2.11535 0
M  V30 17386 H 1605.71 1.03953 -1.24118 0
M  V30 17387 H 1607.71 4.02273 -0.442594 0
M  V30 17388 H 1606.28 3.12357 0.123186 0
M  V30 17389 H 1605.5 3.15577 -2.3623 0
M  V30 17390 H 1606.78 4.33609 -2.66196 0
M  V30 17391 H 1606.18 5.65215 0.23423 0
M  V30 17392 H 1604.74 6.51699 -0.114599 0
M  V30 17393 N 1608.17 1.14759 1.0802 0
M  V30 17394 C 1609.1 0.795901 2.14937 0
M  V30 17395 C 1610.12 -0.189008 1.61699 0
M  V30 17396 O 1611.31 0.0332689 1.78469 0
M  V30 17397 C 1608.41 0.161388 3.38516 0
M  V30 17398 C 1607.58 1.18202 4.21126 0
M  V30 17399 C 1606.64 0.570535 5.23098 0
M  V30 17400 O 1605.66 1.2346 5.55649 0
M  V30 17401 N 1606.87 -0.650883 5.76839 0
M  V30 17402 H 1609.63 1.716 2.4571 0
M  V30 17403 H 1607.19 1.04254 1.23866 0
M  V30 17404 H 1609.18 -0.260289 4.03862 0
M  V30 17405 H 1607.75 -0.661917 3.05512 0
M  V30 17406 H 1606.97 1.78049 3.51699 0
M  V30 17407 H 1608.26 1.87135 4.73136 0
M  V30 17408 H 1607.66 -1.2089 5.52632 0
M  V30 17409 H 1606.22 -1.01501 6.43848 0
M  V30 17410 N 1609.65 -1.26251 0.943322 0
M  V30 17411 C 1610.61 -2.24554 0.459158 0
M  V30 17412 C 1611.61 -1.54918 -0.430926 0
M  V30 17413 O 1612.8 -1.72678 -0.229803 0
M  V30 17414 C 1609.94 -3.39221 -0.337973 0
M  V30 17415 H 1611.13 -2.689 1.32789 0
M  V30 17416 H 1608.68 -1.38442 0.725495 0
M  V30 17417 H 1609.42 -3.00279 -1.22486 0
M  V30 17418 H 1609.2 -3.90947 0.300428 0
M  V30 17419 H 1610.69 -4.12246 -0.666568 0
M  V30 17420 N 1611.13 -0.710588 -1.40671 0
M  V30 17421 C 1612.06 -0.0154749 -2.29195 0
M  V30 17422 C 1613.07 0.728938 -1.45569 0
M  V30 17423 O 1614.26 0.577147 -1.68912 0
M  V30 17424 C 1611.36 1.00232 -3.23739 0
M  V30 17425 C 1610.54 0.324464 -4.36195 0
M  V30 17426 C 1609.6 1.24695 -5.11212 0
M  V30 17427 O 1608.62 0.733634 -5.64452 0
M  V30 17428 N 1609.82 2.57841 -5.20094 0
M  V30 17429 H 1612.59 -0.775543 -2.89492 0
M  V30 17430 H 1610.15 -0.557815 -1.51987 0
M  V30 17431 H 1612.14 1.62151 -3.70795 0
M  V30 17432 H 1610.71 1.66379 -2.64644 0
M  V30 17433 H 1609.93 -0.474847 -3.9133 0
M  V30 17434 H 1611.22 -0.146269 -5.0859 0
M  V30 17435 H 1610.62 3.02047 -4.78314 0
M  V30 17436 H 1609.17 3.14917 -5.70676 0
M  V30 17437 N 1612.61 1.50847 -0.456408 0
M  V30 17438 C 1613.83 2.07139 0.104054 0
M  V30 17439 C 1614.26 1.31966 1.34039 0
M  V30 17440 O 1613.62 0.363038 1.77628 0
M  V30 17441 C 1613.66 3.5853 0.385794 0
M  V30 17442 O 1612.77 3.85351 1.46895 0
M  V30 17443 H 1612.11 0.663968 -0.00651246 0
M  V30 17444 H 1614.64 1.94226 -0.64323 0
M  V30 17445 H 1614.65 4.03097 0.630644 0
M  V30 17446 H 1613.32 4.12665 -0.51773 0
M  V30 17447 H 1611.9 3.52635 1.21256 0
M  V30 17448 N 1614.09 0.188454 1.56469 0
M  V30 17449 C 1615.31 -0.460975 2.02212 0
M  V30 17450 C 1615.74 -1.54856 1.06777 0
M  V30 17451 O 1615.09 -1.81231 0.0501425 0
M  V30 17452 C 1615.14 -1.00047 3.46443 0
M  V30 17453 O 1614.25 -2.1137 3.54114 0
M  V30 17454 H 1613.59 -0.108497 0.655076 0
M  V30 17455 H 1616.12 0.297381 2.02427 0
M  V30 17456 H 1616.13 -1.31876 3.86099 0
M  V30 17457 H 1614.8 -0.204273 4.15398 0
M  V30 17458 H 1613.38 -1.80456 3.26328 0
M  V30 17459 N 1615.56 -1.5737 -0.0851874 0
M  V30 17460 C 1616.51 -2.02758 -1.10262 0
M  V30 17461 C 1617.48 -0.905702 -1.39235 0
M  V30 17462 O 1618.67 -1.17241 -1.50529 0
M  V30 17463 C 1615.81 -2.46528 -2.41492 0
M  V30 17464 C 1614.92 -3.72278 -2.19165 0
M  V30 17465 C 1614.05 -4.04885 -3.43863 0
M  V30 17466 C 1613.09 -5.23715 -3.16842 0
M  V30 17467 N 1612.23 -5.52026 -4.33833 0
M  V30 17468 H 1617.07 -2.89453 -0.708583 0
M  V30 17469 H 1614.61 -1.43156 -0.338332 0
M  V30 17470 H 1616.56 -2.69952 -3.18091 0
M  V30 17471 H 1615.19 -1.62829 -2.78723 0
M  V30 17472 H 1614.25 -3.56272 -1.33321 0
M  V30 17473 H 1615.56 -4.5902 -1.95197 0
M  V30 17474 H 1614.71 -4.29138 -4.28865 0
M  V30 17475 H 1613.45 -3.16683 -3.70895 0
M  V30 17476 H 1612.46 -4.99272 -2.30234 0
M  V30 17477 H 1613.68 -6.13523 -2.91146 0
M  V30 17478 H 1611.63 -4.66784 -4.60922 0
M  V30 17479 H 1611.54 -6.3316 -4.13091 0
M  V30 17480 H 1612.81 -5.80822 -5.19871 0
M  V30 17481 N 1617.04 0.356258 -1.53521 0
M  V30 17482 C 1617.99 1.43689 -1.80616 0
M  V30 17483 C 1618.96 1.52808 -0.651064 0
M  V30 17484 O 1620.14 1.68549 -0.894203 0
M  V30 17485 C 1617.28 2.80513 -2.01013 0
M  V30 17486 C 1616.4 2.80287 -3.2873 0
M  V30 17487 C 1615.53 4.08747 -3.39263 0
M  V30 17488 C 1614.57 4.02699 -4.60977 0
M  V30 17489 N 1613.71 5.22825 -4.68614 0
M  V30 17490 H 1618.55 1.19884 -2.72822 0
M  V30 17491 H 1616.08 0.580984 -1.35141 0
M  V30 17492 H 1618.04 3.60011 -2.10827 0
M  V30 17493 H 1616.67 3.02698 -1.12134 0
M  V30 17494 H 1615.72 1.92968 -3.27822 0
M  V30 17495 H 1617.04 2.71693 -4.18311 0
M  V30 17496 H 1616.19 4.96663 -3.4844 0
M  V30 17497 H 1614.93 4.20106 -2.47715 0
M  V30 17498 H 1613.93 3.13168 -4.51892 0
M  V30 17499 H 1615.16 3.92934 -5.53877 0
M  V30 17500 H 1613.11 5.34752 -3.79969 0
M  V30 17501 H 1613.02 5.16437 -5.52113 0
M  V30 17502 H 1614.29 6.12548 -4.82085 0
M  V30 17503 N 1618.52 1.45038 0.616577 0
M  V30 17504 C 1619.77 1.48585 1.37582 0
M  V30 17505 C 1620.09 0.124065 1.94104 0
M  V30 17506 O 1619.35 -0.876112 1.74994 0
M  V30 17507 C 1619.65 2.50545 2.54876 0
M  V30 17508 C 1619.31 3.95493 2.16555 0
M  V30 17509 C 1617.98 4.34963 2.05818 0
M  V30 17510 C 1620.33 4.86685 1.86512 0
M  V30 17511 C 1617.66 5.63531 1.63246 0
M  V30 17512 C 1620.01 6.15657 1.4543 0
M  V30 17513 C 1618.67 6.54066 1.33244 0
M  V30 17514 H 1617.94 0.543711 0.503447 0
M  V30 17515 H 1620.59 1.78334 0.697787 0
M  V30 17516 H 1618.89 2.14332 3.27977 0
M  V30 17517 H 1620.59 2.50531 3.13106 0
M  V30 17518 H 1617.18 3.64275 2.25836 0
M  V30 17519 H 1621.37 4.56936 1.9371 0
M  V30 17520 H 1616.62 5.92094 1.52427 0
M  V30 17521 H 1620.8 6.85768 1.21226 0
M  V30 17522 H 1618.42 7.5359 1.0003 0
M  V30 17523 N 1620 -0.858287 1.32179 0
M  V30 17524 C 1621.24 -1.6261 1.23844 0
M  V30 17525 C 1621.6 -1.9098 -0.197628 0
M  V30 17526 O 1622.8 -2.65737 -0.40465 0
M  V30 17527 C 1621.07 -2.91319 2.07047 0
M  V30 17528 S 1622.63 -3.82125 2.15699 0
M  V30 17529 H 1619.45 -0.557789 0.4409 0
M  V30 17530 H 1622.05 -1.0167 1.66983 0
M  V30 17531 H 1620.76 -2.68417 3.10452 0
M  V30 17532 H 1620.29 -3.57277 1.64671 0
M  V30 17533 H 1622.3 -4.78764 1.30384 0
M  V30 17534 N 1621.48 -1.1533 -1.07409 0
M  V30 17535 C 1622.72 -0.927807 -1.79994 0
M  V30 17536 C 1623.05 0.545092 -1.86706 0
M  V30 17537 O 1622.31 1.4202 -1.34643 0
M  V30 17538 C 1622.6 -1.48646 -3.25022 0
M  V30 17539 C 1622.27 -2.97974 -3.38411 0
M  V30 17540 C 1620.93 -3.3874 -3.41773 0
M  V30 17541 C 1623.28 -3.93946 -3.41257 0
M  V30 17542 C 1620.61 -4.7412 -3.45582 0
M  V30 17543 C 1622.96 -5.29197 -3.46603 0
M  V30 17544 C 1621.63 -5.6946 -3.48241 0
M  V30 17545 H 1620.9 -0.339509 -0.658646 0
M  V30 17546 H 1623.55 -1.43863 -1.26395 0
M  V30 17547 H 1621.85 -0.89681 -3.81398 0
M  V30 17548 H 1623.55 -1.28781 -3.79759 0
M  V30 17549 H 1620.14 -2.65463 -3.36493 0
M  V30 17550 H 1624.32 -3.63525 -3.37881 0
M  V30 17551 H 1619.58 -5.04661 -3.45149 0
M  V30 17552 H 1623.75 -6.03359 -3.47751 0
M  V30 17553 H 1621.38 -6.74345 -3.50946 0
M  V30 17554 N 1622.95 1.25748 -0.950004 0
M  V30 17555 C 1624.18 1.97127 -0.618432 0
M  V30 17556 C 1624.59 1.70855 0.81272 0
M  V30 17557 O 1623.93 0.978581 1.55465 0
M  V30 17558 C 1624 3.50678 -0.791546 0
M  V30 17559 C 1623.66 4.00617 -2.19899 0
M  V30 17560 C 1624.66 4.11672 -3.17525 0
M  V30 17561 C 1622.34 4.34401 -2.52193 0
M  V30 17562 C 1624.34 4.55818 -4.45543 0
M  V30 17563 C 1622.02 4.78234 -3.80441 0
M  V30 17564 C 1623.02 4.88905 -4.76929 0
M  V30 17565 O 1622.71 5.31768 -6.02891 0
M  V30 17566 H 1622.44 0.635248 -0.231163 0
M  V30 17567 H 1625 1.60997 -1.2755 0
M  V30 17568 H 1623.23 3.86623 -0.0773298 0
M  V30 17569 H 1624.91 4.03265 -0.461719 0
M  V30 17570 H 1625.68 3.85807 -2.93901 0
M  V30 17571 H 1621.56 4.25324 -1.77821 0
M  V30 17572 H 1625.1 4.64062 -5.20857 0
M  V30 17573 H 1621 5.03543 -4.03874 0
M  V30 17574 H 1621.77 5.49966 -6.06201 0
M  V30 17575 N 1624.43 0.718038 1.40292 0
M  V30 17576 C 1625.38 0.0670495 2.30703 0
M  V30 17577 C 1626.35 -0.747716 1.48319 0
M  V30 17578 O 1627.53 -0.711161 1.77051 0
M  V30 17579 C 1624.67 -0.846918 3.34546 0
M  V30 17580 C 1623.79 -0.0213622 4.31995 0
M  V30 17581 C 1622.92 -0.935035 5.22906 0
M  V30 17582 C 1621.96 -0.103715 6.12012 0
M  V30 17583 N 1621.1 -0.972397 6.95334 0
M  V30 17584 H 1625.94 0.843724 2.85806 0
M  V30 17585 H 1623.47 0.427756 1.40743 0
M  V30 17586 H 1625.43 -1.39109 3.93325 0
M  V30 17587 H 1624.06 -1.58975 2.80939 0
M  V30 17588 H 1623.11 0.640026 3.74977 0
M  V30 17589 H 1624.43 0.62215 4.94905 0
M  V30 17590 H 1623.58 -1.54766 5.86628 0
M  V30 17591 H 1622.32 -1.61236 4.60276 0
M  V30 17592 H 1621.32 0.521826 5.47318 0
M  V30 17593 H 1622.55 0.570146 6.76702 0
M  V30 17594 H 1620.5 -1.63533 6.3529 0
M  V30 17595 H 1620.41 -0.384977 7.55019 0
M  V30 17596 H 1621.68 -1.57112 7.63503 0
M  V30 17597 N 1625.91 -1.50602 0.464402 0
M  V30 17598 C 1627.16 -2.01478 -0.0945398 0
M  V30 17599 C 1627.47 -1.35165 -1.41386 0
M  V30 17600 O 1628.68 -1.7716 -2.05735 0
M  V30 17601 C 1627.13 -3.59233 -0.219003 0
M  V30 17602 C 1626.74 -4.345 1.09148 0
M  V30 17603 C 1628.49 -4.18172 -0.730262 0
M  V30 17604 C 1626.39 -5.84023 0.931179 0
M  V30 17605 H 1625.32 -0.752985 -0.0391065 0
M  V30 17606 H 1627.97 -1.73473 0.598283 0
M  V30 17607 H 1626.36 -3.83798 -0.975455 0
M  V30 17608 H 1627.53 -4.21665 1.85837 0
M  V30 17609 H 1625.85 -3.8714 1.53334 0
M  V30 17610 H 1628.44 -5.27622 -0.867119 0
M  V30 17611 H 1628.79 -3.79113 -1.71986 0
M  V30 17612 H 1629.32 -3.97788 -0.0313808 0
M  V30 17613 H 1626.06 -6.27543 1.89395 0
M  V30 17614 H 1625.58 -5.99451 0.20456 0
M  V30 17615 H 1627.26 -6.44257 0.595118 0
M  V30 17616 N 1627.39 -0.19675 -1.56367 0
M  V30 17617 C 1628.8 0.315555 -1.84014 0
M  V30 17618 C 1629.15 1.61267 -1.11747 0
M  V30 17619 O 1628.28 2.13058 -0.378824 0
M  V30 17620 C 1628.87 0.579307 -3.33811 0
M  V30 17621 C 1627.43 1.03598 -3.61862 0
M  V30 17622 C 1626.58 0.0854845 -2.77168 0
M  V30 17623 H 1629.53 -0.4205 -1.53028 0
M  V30 17624 H 1629.55 1.42841 -3.52671 0
M  V30 17625 H 1629.06 -0.364925 -3.86381 0
M  V30 17626 H 1627.16 1.99443 -3.14727 0
M  V30 17627 H 1627.27 0.927547 -4.70035 0
M  V30 17628 H 1625.64 0.58768 -2.47827 0
M  V30 17629 H 1626.42 -0.853221 -3.32528 0
M  V30 17630 N 1628.87 1.57413 0.0768405 0
M  V30 17631 C 1630.11 1.86633 0.775414 0
M  V30 17632 C 1630.44 0.788041 1.78367 0
M  V30 17633 O 1629.71 -0.183835 1.95036 0
M  V30 17634 H 1628.29 0.688678 0.289365 0
M  V30 17635 H 1630.95 1.94825 0.0541285 0
M  V30 17636 H 1630.04 2.83977 1.29474 0
M  V30 17637 N 1630.34 -0.348112 1.53707 0
M  V30 17638 C 1631.25 -1.45079 1.84361 0
M  V30 17639 C 1632.27 -1.5779 0.733375 0
M  V30 17640 O 1633.45 -1.73353 1.02522 0
M  V30 17641 C 1630.51 -2.80127 2.04278 0
M  V30 17642 C 1629.57 -2.76799 3.28148 0
M  V30 17643 C 1628.81 -4.05406 3.47105 0
M  V30 17644 O 1629.03 -5.02454 2.69992 0
M  V30 17645 O 1627.96 -4.10155 4.40519 0
M  V30 17646 H 1631.79 -1.22093 2.78077 0
M  V30 17647 H 1629.37 -0.539863 1.39305 0
M  V30 17648 H 1631.26 -3.60115 2.18849 0
M  V30 17649 H 1629.93 -3.03055 1.13751 0
M  V30 17650 H 1628.84 -1.95448 3.18984 0
M  V30 17651 H 1630.17 -2.58826 4.18653 0
M  V30 17652 N 1631.82 -1.45363 -0.608876 0
M  V30 17653 C 1632.77 -1.50362 -1.71392 0
M  V30 17654 C 1633.76 -0.367024 -1.56658 0
M  V30 17655 O 1634.95 -0.613796 -1.66017 0
M  V30 17656 C 1632.08 -1.47197 -3.10142 0
M  V30 17657 C 1631.16 -2.66055 -3.30266 0
M  V30 17658 N 1631.55 -3.91168 -3.20657 0
M  V30 17659 C 1629.85 -2.61724 -3.61132 0
M  V30 17660 C 1630.55 -4.70487 -3.42077 0
M  V30 17661 N 1629.53 -4.01921 -3.66006 0
M  V30 17662 H 1633.33 -2.4492 -1.62454 0
M  V30 17663 H 1630.85 -1.40637 -0.812091 0
M  V30 17664 H 1632.84 -1.48864 -3.89416 0
M  V30 17665 H 1631.5 -0.536956 -3.20229 0
M  V30 17666 H 1632.51 -4.22809 -2.99087 0
M  V30 17667 H 1629.19 -1.77124 -3.78065 0
M  V30 17668 H 1630.58 -5.79495 -3.40052 0
M  V30 17669 N 1633.3 0.851265 -1.32632 0
M  V30 17670 C 1634.58 1.58945 -1.13999 0
M  V30 17671 C 1634.96 2.08981 0.29836 0
M  V30 17672 O 1634.31 1.88226 1.2955 0
M  V30 17673 C 1634.52 2.73296 -2.17049 0
M  V30 17674 C 1635.86 3.42791 -2.50559 0
M  V30 17675 O 1636.89 2.83524 -2.15621 0
M  V30 17676 O 1635.75 4.49749 -3.10464 0
M  V30 17677 H 1632.84 0.700157 -0.440124 0
M  V30 17678 H 1635.39 0.895098 -1.44174 0
M  V30 17679 H 1634.16 2.33873 -3.13718 0
M  V30 17680 H 1633.78 3.50405 -1.87888 0
M  V30 17681 N 1634.78 1.15898 1.06796 0
M  V30 17682 C 1636.02 0.94871 1.7992 0
M  V30 17683 C 1636.38 -0.518297 1.85287 0
M  V30 17684 O 1635.67 -1.37946 1.32972 0
M  V30 17685 C 1635.87 1.50368 3.24229 0
M  V30 17686 C 1635.7 3.02311 3.32923 0
M  V30 17687 C 1634.47 3.70908 3.43155 0
M  V30 17688 C 1636.66 4.00051 3.23209 0
M  V30 17689 N 1634.65 5.10609 3.4081 0
M  V30 17690 C 1636.02 5.26103 3.28048 0
M  V30 17691 C 1638.07 3.91944 3.07058 0
M  V30 17692 C 1636.77 6.44993 3.18397 0
M  V30 17693 C 1638.8 5.10398 2.98743 0
M  V30 17694 C 1638.16 6.35328 3.042 0
M  V30 17695 H 1634.26 0.400877 0.671433 0
M  V30 17696 H 1636.85 1.47202 1.27436 0
M  V30 17697 H 1635.02 1.00693 3.75121 0
M  V30 17698 H 1636.75 1.23166 3.85502 0
M  V30 17699 H 1633.5 3.21521 3.47737 0
M  V30 17700 H 1633.93 5.83589 3.43151 0
M  V30 17701 H 1638.57 2.96216 3.01688 0
M  V30 17702 H 1636.29 7.40948 3.22524 0
M  V30 17703 H 1639.87 5.05891 2.87342 0
M  V30 17704 H 1638.75 7.25448 2.97818 0
M  V30 17705 N 1636.26 -1.25243 0.956659 0
M  V30 17706 C 1637.2 -2.25811 0.477292 0
M  V30 17707 C 1638.17 -1.59273 -0.471301 0
M  V30 17708 O 1639.36 -1.86894 -0.384105 0
M  V30 17709 C 1636.5 -3.44286 -0.236891 0
M  V30 17710 C 1635.61 -4.25454 0.749177 0
M  V30 17711 C 1634.75 -5.31199 0.012228 0
M  V30 17712 C 1633.79 -6.04056 0.989094 0
M  V30 17713 N 1632.92 -7.0153 0.282883 0
M  V30 17714 H 1637.76 -2.66185 1.33977 0
M  V30 17715 H 1635.3 -1.30862 0.671832 0
M  V30 17716 H 1637.26 -4.11825 -0.66755 0
M  V30 17717 H 1635.89 -3.04781 -1.06339 0
M  V30 17718 H 1634.94 -3.57558 1.29831 0
M  V30 17719 H 1636.25 -4.75883 1.49454 0
M  V30 17720 H 1635.41 -6.04822 -0.476968 0
M  V30 17721 H 1634.14 -4.81648 -0.76591 0
M  V30 17722 H 1633.15 -5.29245 1.48927 0
M  V30 17723 H 1634.37 -6.55695 1.76749 0
M  V30 17724 H 1632.32 -6.54267 -0.476479 0
M  V30 17725 H 1632.24 -7.49786 0.967304 0
M  V30 17726 H 1633.51 -7.79281 -0.184709 0
M  V30 17727 N 1637.73 -0.725468 -1.3991 0
M  V30 17728 C 1638.98 -0.268719 -2.00306 0
M  V30 17729 C 1639.3 1.14511 -1.57836 0
M  V30 17730 O 1638.57 1.77808 -0.822263 0
M  V30 17731 H 1637.15 -0.0963614 -0.740759 0
M  V30 17732 H 1639.82 -0.933303 -1.71101 0
M  V30 17733 H 1638.91 -0.309587 -3.10561 0
M  V30 17734 N 1639.21 1.50354 -0.472382 0
M  V30 17735 C 1640.62 1.86692 -0.0175768 0
M  V30 17736 C 1640.97 1.38708 1.3876 0
M  V30 17737 O 1640.1 0.752614 2.02891 0
M  V30 17738 C 1640.69 3.38791 -0.0251205 0
M  V30 17739 C 1639.25 3.74535 0.37422 0
M  V30 17740 C 1638.4 2.74252 -0.410045 0
M  V30 17741 H 1641.35 1.43079 -0.686593 0
M  V30 17742 H 1641.37 3.72487 0.776754 0
M  V30 17743 H 1640.88 3.73684 -1.04795 0
M  V30 17744 H 1638.99 3.45243 1.40135 0
M  V30 17745 H 1639.1 4.79042 0.0746666 0
M  V30 17746 H 1637.46 2.54334 0.136417 0
M  V30 17747 H 1638.25 3.11989 -1.43241 0
M  V30 17748 N 1640.69 0.205039 1.56261 0
M  V30 17749 C 1641.92 -0.43642 2.02245 0
M  V30 17750 C 1642.33 -1.54504 1.08508 0
M  V30 17751 O 1641.69 -1.82269 0.0916991 0
M  V30 17752 C 1641.74 -0.983483 3.47865 0
M  V30 17753 O 1641.46 0.0809166 4.38025 0
M  V30 17754 C 1642.96 -1.69983 4.09415 0
M  V30 17755 H 1640.18 -0.108577 0.662157 0
M  V30 17756 H 1642.73 0.316659 2.02033 0
M  V30 17757 H 1640.88 -1.6869 3.48744 0
M  V30 17758 H 1641.3 -0.327751 5.23475 0
M  V30 17759 H 1642.77 -2.03481 5.13127 0
M  V30 17760 H 1643.25 -2.60711 3.5345 0
M  V30 17761 H 1643.85 -1.04202 4.12337 0
M  V30 17762 N 1642.17 -1.57451 -0.0684915 0
M  V30 17763 C 1643.59 -1.53883 -0.423354 0
M  V30 17764 C 1643.79 -0.925698 -1.78978 0
M  V30 17765 O 1642.84 -0.529629 -2.46883 0
M  V30 17766 C 1644.15 -2.98521 -0.361386 0
M  V30 17767 C 1645.7 -3.09873 -0.441334 0
M  V30 17768 C 1646.18 -4.56168 -0.409239 0
M  V30 17769 N 1647.67 -4.60817 -0.469216 0
M  V30 17770 C 1648.4 -5.71498 -0.466648 0
M  V30 17771 N 1647.9 -6.91534 -0.4187 0
M  V30 17772 N 1649.69 -5.5975 -0.513452 0
M  V30 17773 H 1641.84 -1.95672 0.8262 0
M  V30 17774 H 1644.11 -0.895759 0.310354 0
M  V30 17775 H 1643.81 -3.46951 0.576035 0
M  V30 17776 H 1643.69 -3.58585 -1.17032 0
M  V30 17777 H 1646.07 -2.61414 -1.36918 0
M  V30 17778 H 1646.15 -2.52712 0.396237 0
M  V30 17779 H 1645.8 -5.05285 0.514772 0
M  V30 17780 H 1645.73 -5.11195 -1.26439 0
M  V30 17781 H 1648.22 -3.74438 -0.510387 0
M  V30 17782 H 1648.53 -7.71654 -0.420757 0
M  V30 17783 H 1646.88 -6.93931 -0.385338 0
M  V30 17784 H 1650.07 -4.64874 -0.548626 0
M  V30 17785 H 1650.24 -6.46006 -0.507982 0
M  V30 17786 N 1643.65 0.339955 -1.5389 0
M  V30 17787 C 1644.89 1.08139 -1.71563 0
M  V30 17788 C 1645.23 1.88193 -0.479292 0
M  V30 17789 O 1644.5 1.87317 0.523702 0
M  V30 17790 C 1644.78 2.01963 -2.98132 0
M  V30 17791 C 1644.64 1.25349 -4.31981 0
M  V30 17792 C 1645.96 3.01729 -3.20387 0
M  V30 17793 H 1643.08 0.391744 -0.624264 0
M  V30 17794 H 1645.72 0.359609 -1.86566 0
M  V30 17795 H 1643.87 2.63511 -2.85472 0
M  V30 17796 H 1645.54 0.66388 -4.56498 0
M  V30 17797 H 1643.78 0.555541 -4.30228 0
M  V30 17798 H 1644.45 1.94154 -5.16728 0
M  V30 17799 H 1646.93 2.50297 -3.32401 0
M  V30 17800 H 1645.81 3.64577 -4.10335 0
M  V30 17801 H 1646.07 3.73303 -2.36849 0
M  V30 17802 N 1645.13 1.45684 0.601159 0
M  V30 17803 C 1646.06 1.57694 1.72206 0
M  V30 17804 C 1647.04 0.428141 1.64624 0
M  V30 17805 O 1648.22 0.65209 1.82925 0
M  V30 17806 C 1645.35 1.54941 3.10822 0
M  V30 17807 C 1644.31 2.68603 3.33222 0
M  V30 17808 C 1643.63 2.50906 4.72176 0
M  V30 17809 C 1644.93 4.10568 3.22849 0
M  V30 17810 H 1646.63 2.51521 1.62412 0
M  V30 17811 H 1644.17 1.2105 0.779929 0
M  V30 17812 H 1646.12 1.61939 3.89042 0
M  V30 17813 H 1644.85 0.576471 3.21472 0
M  V30 17814 H 1643.51 2.61043 2.57394 0
M  V30 17815 H 1643.16 1.51736 4.79568 0
M  V30 17816 H 1642.86 3.27131 4.88118 0
M  V30 17817 H 1644.38 2.59767 5.52588 0
M  V30 17818 H 1645.79 4.19336 3.90935 0
M  V30 17819 H 1644.19 4.87234 3.50318 0
M  V30 17820 H 1645.26 4.32022 2.20192 0
M  V30 17821 N 1646.6 -0.84422 1.33082 0
M  V30 17822 C 1647.85 -1.60123 1.25429 0
M  V30 17823 C 1648.2 -1.91559 -0.179646 0
M  V30 17824 O 1647.5 -1.55436 -1.12028 0
M  V30 17825 C 1647.69 -2.92225 2.05765 0
M  V30 17826 C 1647.52 -2.73691 3.56824 0
M  V30 17827 C 1646.29 -2.71528 4.26146 0
M  V30 17828 C 1648.49 -2.46706 4.51266 0
M  V30 17829 N 1646.47 -2.44314 5.63191 0
M  V30 17830 C 1647.84 -2.28994 5.76161 0
M  V30 17831 C 1649.9 -2.32259 4.40409 0
M  V30 17832 C 1648.6 -1.98301 6.91425 0
M  V30 17833 C 1650.63 -2.02959 5.55483 0
M  V30 17834 C 1649.99 -1.86055 6.79384 0
M  V30 17835 H 1646.09 -0.589203 0.514163 0
M  V30 17836 H 1648.67 -0.991494 1.67563 0
M  V30 17837 H 1646.84 -3.51158 1.65959 0
M  V30 17838 H 1648.57 -3.57367 1.89924 0
M  V30 17839 H 1645.33 -2.84843 3.78367 0
M  V30 17840 H 1645.75 -2.33606 6.35419 0
M  V30 17841 H 1650.39 -2.44043 3.45258 0
M  V30 17842 H 1648.11 -1.85254 7.86579 0
M  V30 17843 H 1651.7 -1.92543 5.49016 0
M  V30 17844 H 1650.58 -1.63707 7.66922 0
M  V30 17845 N 1648.08 -1.16463 -1.0618 0
M  V30 17846 C 1649.03 -0.87224 -2.13683 0
M  V30 17847 C 1650 0.179784 -1.65124 0
M  V30 17848 O 1651.18 0.0447406 -1.90748 0
M  V30 17849 C 1648.32 -0.380728 -3.42993 0
M  V30 17850 C 1647.44 -1.49571 -4.05281 0
M  V30 17851 C 1646.57 -0.959099 -5.2247 0
M  V30 17852 C 1645.61 -2.05021 -5.76743 0
M  V30 17853 N 1644.75 -1.5291 -6.85247 0
M  V30 17854 H 1649.59 -1.79288 -2.38033 0
M  V30 17855 H 1647.12 -0.894379 -1.16787 0
M  V30 17856 H 1649.08 -0.0773816 -4.17128 0
M  V30 17857 H 1647.71 0.502966 -3.18857 0
M  V30 17858 H 1646.76 -1.915 -3.28682 0
M  V30 17859 H 1648.08 -2.31904 -4.41613 0
M  V30 17860 H 1647.23 -0.609003 -6.03636 0
M  V30 17861 H 1645.97 -0.105086 -4.87587 0
M  V30 17862 H 1644.97 -2.40899 -4.94214 0
M  V30 17863 H 1646.2 -2.90821 -6.13678 0
M  V30 17864 H 1644.15 -0.697639 -6.5228 0
M  V30 17865 H 1644.06 -2.28859 -7.20527 0
M  V30 17866 H 1645.33 -1.20762 -7.70089 0
M  V30 17867 N 1649.56 1.24734 -0.963288 0
M  V30 17868 C 1650.81 1.92305 -0.621536 0
M  V30 17869 C 1651.13 1.75723 0.845363 0
M  V30 17870 O 1650.4 1.1261 1.60299 0
M  V30 17871 H 1648.98 0.71171 -0.226886 0
M  V30 17872 H 1651.64 1.5172 -1.2234 0
M  V30 17873 H 1650.74 3.00065 -0.858322 0
M  V30 17874 N 1651.04 0.732878 1.39523 0
M  V30 17875 C 1652.31 0.20629 1.94509 0
M  V30 17876 C 1652.69 -1.29152 1.66982 0
M  V30 17877 O 1652.04 -2.05607 0.996895 0
M  V30 17878 C 1652.25 0.537619 3.44834 0
M  V30 17879 C 1653.6 0.485787 4.21812 0
M  V30 17880 O 1654.62 0.474686 3.53023 0
M  V30 17881 O 1653.48 0.478457 5.44402 0
M  V30 17882 H 1650.58 0.0369228 0.826175 0
M  V30 17883 H 1653.12 0.811591 1.49035 0
M  V30 17884 H 1651.9 1.57289 3.58296 0
M  V30 17885 H 1651.52 -0.0967601 3.97482 0
M  V30 17886 N 1652.52 -1.50101 0.480349 0
M  V30 17887 C 1653.76 -2.01974 -0.0712904 0
M  V30 17888 C 1654.08 -1.36377 -1.39378 0
M  V30 17889 O 1653.35 -0.512162 -1.89087 0
M  V30 17890 H 1651.93 -0.746424 -0.0293362 0
M  V30 17891 H 1654.6 -1.84338 0.632883 0
M  V30 17892 H 1653.69 -3.11351 -0.216057 0
M  V30 17893 N 1653.99 -0.213323 -1.5615 0
M  V30 17894 C 1654.96 0.686579 -2.18675 0
M  V30 17895 C 1655.96 1.1277 -1.14628 0
M  V30 17896 O 1657.15 1.03783 -1.39909 0
M  V30 17897 C 1654.28 1.93954 -2.80347 0
M  V30 17898 H 1655.47 0.141578 -2.99566 0
M  V30 17899 H 1653.02 0.0362987 -1.56258 0
M  V30 17900 H 1653.76 2.52661 -2.03304 0
M  V30 17901 H 1653.54 1.63179 -3.56532 0
M  V30 17902 H 1655.03 2.58087 -3.283 0
M  V30 17903 N 1655.47 1.57485 0.0601405 0
M  V30 17904 C 1656.72 1.88094 0.758192 0
M  V30 17905 C 1657.05 0.807138 1.76632 0
M  V30 17906 O 1656.33 -0.181347 1.93653 0
M  V30 17907 C 1656.61 3.29363 1.45574 0
M  V30 17908 C 1656.46 4.47408 0.463233 0
M  V30 17909 C 1657.78 3.69048 2.39773 0
M  V30 17910 H 1654.9 0.684106 0.274169 0
M  V30 17911 H 1657.54 1.89988 0.0212215 0
M  V30 17912 H 1655.69 3.27879 2.08393 0
M  V30 17913 H 1657.36 4.6102 -0.160641 0
M  V30 17914 H 1655.61 4.3324 -0.220408 0
M  V30 17915 H 1656.28 5.43065 0.989164 0
M  V30 17916 H 1658.75 3.71701 1.87024 0
M  V30 17917 H 1657.63 4.68761 2.85577 0
M  V30 17918 H 1657.89 2.9961 3.25094 0
M  V30 17919 N 1656.95 -0.331789 1.54068 0
M  V30 17920 C 1658.2 -1.07228 1.72134 0
M  V30 17921 C 1658.53 -1.87936 0.489265 0
M  V30 17922 O 1657.8 -1.87592 -0.513761 0
M  V30 17923 C 1658.09 -2.00379 2.99199 0
M  V30 17924 C 1657.94 -1.23056 4.3264 0
M  V30 17925 C 1659.26 -3.00026 3.21982 0
M  V30 17926 H 1656.38 -0.388428 0.626333 0
M  V30 17927 H 1659.02 -0.34971 1.86754 0
M  V30 17928 H 1657.17 -2.61993 2.86865 0
M  V30 17929 H 1658.84 -0.639661 4.56844 0
M  V30 17930 H 1657.09 -0.532717 4.30517 0
M  V30 17931 H 1657.76 -1.91411 5.17751 0
M  V30 17932 H 1660.23 -2.48531 3.33724 0
M  V30 17933 H 1659.11 -3.62395 4.12263 0
M  V30 17934 H 1659.37 -3.72041 2.38826 0
M  V30 17935 N 1658.43 -1.46001 -0.593424 0
M  V30 17936 C 1659.67 -1.50978 -1.35401 0
M  V30 17937 C 1660.01 -0.156626 -1.93567 0
M  V30 17938 O 1659.28 0.83067 -1.7587 0
M  V30 17939 C 1659.57 -2.60005 -2.49137 0
M  V30 17940 C 1659.42 -4.04814 -1.96075 0
M  V30 17941 C 1660.74 -2.65199 -3.51223 0
M  V30 17942 H 1657.86 -0.549657 -0.490965 0
M  V30 17943 H 1660.5 -1.77883 -0.667644 0
M  V30 17944 H 1658.65 -2.37194 -3.07687 0
M  V30 17945 H 1660.32 -4.38879 -1.42066 0
M  V30 17946 H 1658.56 -4.148 -1.26976 0
M  V30 17947 H 1659.23 -4.76811 -2.78128 0
M  V30 17948 H 1661.71 -2.85675 -3.02537 0
M  V30 17949 H 1660.59 -3.43323 -4.28276 0
M  V30 17950 H 1660.85 -1.70833 -4.0776 0
M  V30 17951 N 1659.91 0.83715 -1.33527 0
M  V30 17952 C 1660.85 1.96849 -1.23908 0
M  V30 17953 C 1661.85 1.6882 -0.140096 0
M  V30 17954 O 1663.05 1.77411 -0.304166 0
M  V30 17955 H 1659.43 0.646232 -0.384562 0
M  V30 17956 H 1661.4 2.02087 -2.19552 0
M  V30 17957 C 1660.15 3.33102 -0.996907 0
M  V30 17958 H 1659.47 3.5521 -1.83482 0
M  V30 17959 H 1660.91 4.12757 -0.96991 0
M  V30 17960 C 1659.37 3.3556 0.30013 0
M  V30 17961 O 1659.9 3.79868 1.30626 0
M  V30 17962 N 1658.11 2.8874 0.328269 0
M  V30 17963 H 1657.65 2.52877 -0.491043 0
M  V30 17964 H 1657.61 2.90767 1.19591 0
M  V30 17965 N 1661.38 1.17024 1.05561 0
M  V30 17966 C 1662.66 0.86635 1.75367 0
M  V30 17967 C 1663.04 -0.634217 2.01348 0
M  V30 17968 O 1662.39 -1.58434 1.64654 0
M  V30 17969 C 1662.6 1.69719 3.04953 0
M  V30 17970 C 1663.95 1.91482 3.78972 0
M  V30 17971 O 1664.97 1.66647 3.14813 0
M  V30 17972 O 1663.83 2.33197 4.94248 0
M  V30 17973 H 1660.92 0.320412 0.762407 0
M  V30 17974 H 1663.47 1.277 1.11763 0
M  V30 17975 H 1662.24 2.71512 2.81775 0
M  V30 17976 H 1661.87 1.28408 3.76294 0
M  V30 17977 N 1662.86 -1.24221 0.969889 0
M  V30 17978 C 1663.77 -2.29001 0.509467 0
M  V30 17979 C 1664.79 -1.68587 -0.430637 0
M  V30 17980 O 1665.96 -1.99106 -0.303142 0
M  V30 17981 C 1663.03 -3.46174 -0.190906 0
M  V30 17982 C 1662.09 -4.21982 0.789296 0
M  V30 17983 C 1661.32 -5.3356 0.122252 0
M  V30 17984 O 1661.55 -5.59909 -1.08896 0
M  V30 17985 O 1660.48 -5.9635 0.815517 0
M  V30 17986 H 1664.31 -2.70506 1.38058 0
M  V30 17987 H 1661.89 -1.29955 0.737028 0
M  V30 17988 H 1663.77 -4.1733 -0.584244 0
M  V30 17989 H 1662.45 -3.06642 -1.03695 0
M  V30 17990 H 1661.36 -3.53192 1.23313 0
M  V30 17991 H 1662.69 -4.65337 1.60382 0
M  V30 17992 N 1664.34 -0.740267 -1.39132 0
M  V30 17993 C 1665.59 -0.289949 -2.00009 0
M  V30 17994 C 1665.91 1.12831 -1.59042 0
M  V30 17995 O 1665.18 1.76926 -0.841076 0
M  V30 17996 H 1663.76 -0.104213 -0.739695 0
M  V30 17997 H 1666.42 -0.951398 -1.70101 0
M  V30 17998 H 1665.52 -0.342509 -3.10215 0
M  V30 17999 N 1665.82 1.49844 -0.488302 0
M  V30 18000 C 1666.77 2.28883 0.296859 0
M  V30 18001 C 1667.74 1.34703 0.971818 0
M  V30 18002 O 1668.92 1.63653 0.980937 0
M  V30 18003 C 1666.06 3.17049 1.36286 0
M  V30 18004 C 1665.17 4.26275 0.700956 0
M  V30 18005 C 1664.31 5.01674 1.74632 0
M  V30 18006 C 1663.35 6.02753 1.06559 0
M  V30 18007 N 1662.48 6.71366 2.05457 0
M  V30 18008 H 1667.32 2.95523 -0.383417 0
M  V30 18009 H 1664.86 1.45721 -0.200928 0
M  V30 18010 H 1666.82 3.66531 1.99276 0
M  V30 18011 H 1665.45 2.52419 2.01207 0
M  V30 18012 H 1664.5 3.80377 -0.0419236 0
M  V30 18013 H 1665.81 4.98529 0.164469 0
M  V30 18014 H 1664.97 5.54961 2.45159 0
M  V30 18015 H 1663.71 4.29166 2.31664 0
M  V30 18016 H 1662.71 5.4871 0.346029 0
M  V30 18017 H 1663.94 6.77243 0.501932 0
M  V30 18018 H 1661.88 6.01637 2.61475 0
M  V30 18019 H 1661.8 7.39552 1.56841 0
M  V30 18020 H 1663.07 7.29262 2.75312 0
M  V30 18021 N 1667.3 0.221601 1.56034 0
M  V30 18022 C 1668.54 -0.409277 1.97912 0
M  V30 18023 C 1668.87 -1.60291 1.11049 0
M  V30 18024 O 1668.14 -1.95 0.187529 0
M  V30 18025 H 1666.72 -0.154201 0.730911 0
M  V30 18026 H 1669.38 0.314508 1.92346 0
M  V30 18027 H 1668.47 -0.73557 3.03308 0
M  V30 18028 N 1668.77 -1.57515 -0.0517878 0
M  V30 18029 C 1670.02 -1.87396 -0.746022 0
M  V30 18030 C 1670.34 -0.817053 -1.77718 0
M  V30 18031 O 1671.54 -1.00435 -2.5224 0
M  V30 18032 C 1670 -3.32481 -1.37783 0
M  V30 18033 C 1669.61 -4.46349 -0.384208 0
M  V30 18034 C 1671.35 -3.71539 -2.05327 0
M  V30 18035 C 1669.26 -5.82484 -1.02307 0
M  V30 18036 H 1668.19 -0.699127 -0.282379 0
M  V30 18037 H 1670.84 -1.835 0.000245524 0
M  V30 18038 H 1669.22 -3.31051 -2.17304 0
M  V30 18039 H 1670.39 -4.59209 0.382639 0
M  V30 18040 H 1668.71 -4.15976 0.187873 0
M  V30 18041 H 1671.31 -4.70553 -2.53936 0
M  V30 18042 H 1671.65 -3.02361 -2.86153 0
M  V30 18043 H 1672.18 -3.75046 -1.32611 0
M  V30 18044 H 1668.92 -6.55005 -0.254704 0
M  V30 18045 H 1668.44 -5.73388 -1.7603 0
M  V30 18046 H 1670.12 -6.28476 -1.5371 0
M  V30 18047 N 1670.25 0.323614 -1.54242 0
M  V30 18048 C 1671.5 1.05909 -1.71657 0
M  V30 18049 C 1671.82 1.89177 -0.497151 0
M  V30 18050 O 1673.02 2.65816 -0.552649 0
M  V30 18051 C 1671.48 1.93246 -3.03618 0
M  V30 18052 C 1671.09 1.1509 -4.32965 0
M  V30 18053 C 1672.83 2.6653 -3.30397 0
M  V30 18054 C 1670.74 2.01573 -5.55988 0
M  V30 18055 H 1669.67 0.399114 -0.639706 0
M  V30 18056 H 1672.32 0.317338 -1.80735 0
M  V30 18057 H 1670.7 2.71319 -2.88447 0
M  V30 18058 H 1671.87 0.417877 -4.58901 0
M  V30 18059 H 1670.19 0.534882 -4.1295 0
M  V30 18060 H 1672.79 3.31542 -4.19504 0
M  V30 18061 H 1673.13 3.34164 -2.48274 0
M  V30 18062 H 1673.66 1.95518 -3.46435 0
M  V30 18063 H 1670.4 1.38446 -6.40713 0
M  V30 18064 H 1669.92 2.72609 -5.3427 0
M  V30 18065 H 1671.6 2.60159 -5.9239 0
M  V30 18066 N 1671.73 1.46313 0.585673 0
M  V30 18067 C 1672.69 1.56239 1.67696 0
M  V30 18068 C 1673.69 0.439808 1.54668 0
M  V30 18069 O 1674.88 0.704019 1.5934 0
M  V30 18070 C 1672.02 1.47986 3.07104 0
M  V30 18071 H 1673.21 2.53492 1.60255 0
M  V30 18072 H 1670.76 1.3408 0.803264 0
M  V30 18073 H 1671.5 0.520007 3.20104 0
M  V30 18074 H 1671.28 2.2943 3.17969 0
M  V30 18075 H 1672.77 1.5801 3.86552 0
M  V30 18076 N 1673.21 -0.830057 1.33969 0
M  V30 18077 C 1674.46 -1.58821 1.26111 0
M  V30 18078 C 1674.79 -1.9345 -0.170484 0
M  V30 18079 O 1674.06 -1.59433 -1.11407 0
M  V30 18080 C 1674.35 -2.89243 2.14501 0
M  V30 18081 C 1674.2 -2.61239 3.66162 0
M  V30 18082 C 1675.52 -3.90752 2.02487 0
M  V30 18083 H 1672.64 -0.576255 0.459455 0
M  V30 18084 H 1675.28 -0.956736 1.64154 0
M  V30 18085 H 1673.43 -3.43133 1.82186 0
M  V30 18086 H 1675.1 -2.13713 4.08809 0
M  V30 18087 H 1673.34 -1.94796 3.87604 0
M  V30 18088 H 1674.02 -3.54212 4.23365 0
M  V30 18089 H 1676.49 -3.46194 2.30844 0
M  V30 18090 H 1675.37 -4.79825 2.6657 0
M  V30 18091 H 1675.63 -4.30649 0.999704 0
M  V30 18092 N 1674.69 -1.17582 -1.04939 0
M  V30 18093 C 1676.1 -0.971326 -1.59443 0
M  V30 18094 C 1676.45 0.481308 -1.90205 0
M  V30 18095 O 1675.57 1.35708 -1.6856 0
M  V30 18096 C 1676.17 -1.75685 -2.8969 0
M  V30 18097 C 1674.73 -1.59695 -3.40844 0
M  V30 18098 C 1673.88 -1.75688 -2.14544 0
M  V30 18099 H 1676.83 -1.32254 -0.877188 0
M  V30 18100 H 1676.85 -1.24074 -3.59703 0
M  V30 18101 H 1676.36 -2.81405 -2.67269 0
M  V30 18102 H 1674.46 -0.564746 -3.68295 0
M  V30 18103 H 1674.57 -2.38951 -4.15258 0
M  V30 18104 H 1672.94 -1.18553 -2.25427 0
M  V30 18105 H 1673.72 -2.82825 -1.94589 0
M  V30 18106 N 1676.17 1.23705 -0.976463 0
M  V30 18107 C 1677.1 2.2734 -0.532809 0
M  V30 18108 C 1678.08 1.64523 0.432012 0
M  V30 18109 O 1679.26 1.9144 0.326233 0
M  V30 18110 C 1676.39 3.46887 0.169374 0
M  V30 18111 C 1675.35 4.22031 -0.712336 0
M  V30 18112 C 1674.67 5.34561 0.121838 0
M  V30 18113 C 1675.97 4.8244 -2.00123 0
M  V30 18114 H 1677.67 2.64702 -1.39904 0
M  V30 18115 H 1675.21 1.27244 -0.674156 0
M  V30 18116 H 1677.16 4.18529 0.491028 0
M  V30 18117 H 1675.89 3.08574 1.07002 0
M  V30 18118 H 1674.55 3.522 -1.01739 0
M  V30 18119 H 1674.2 4.92489 1.0229 0
M  V30 18120 H 1673.9 5.85758 -0.464962 0
M  V30 18121 H 1675.42 6.09027 0.437963 0
M  V30 18122 H 1676.83 5.46111 -1.7446 0
M  V30 18123 H 1675.23 5.43906 -2.53548 0
M  V30 18124 H 1676.3 4.03405 -2.69059 0
M  V30 18125 N 1677.64 0.747635 1.38738 0
M  V30 18126 C 1678.87 0.311781 2.04537 0
M  V30 18127 C 1679.29 -1.05782 1.56383 0
M  V30 18128 O 1678.64 -1.67077 0.734259 0
M  V30 18129 C 1678.69 0.318675 3.60093 0
M  V30 18130 O 1678.42 1.63423 4.06478 0
M  V30 18131 C 1679.92 -0.131782 4.43104 0
M  V30 18132 H 1677.14 0.134141 0.657455 0
M  V30 18133 H 1679.68 1.01482 1.77543 0
M  V30 18134 H 1677.84 -0.335578 3.85944 0
M  V30 18135 H 1678.25 1.55636 5.00877 0
M  V30 18136 H 1679.72 -0.0757978 5.51948 0
M  V30 18137 H 1680.2 -1.17881 4.23085 0
M  V30 18138 H 1680.81 0.493375 4.22429 0
M  V30 18139 N 1679.12 -1.49583 0.496242 0
M  V30 18140 C 1680.54 -1.58875 0.151907 0
M  V30 18141 C 1680.74 -1.50196 -1.34326 0
M  V30 18142 O 1679.79 -1.37344 -2.11879 0
M  V30 18143 C 1681.11 -2.91842 0.724478 0
M  V30 18144 C 1682.65 -3.05296 0.690157 0
M  V30 18145 C 1683.13 -4.40875 1.24071 0
M  V30 18146 N 1684.62 -4.47354 1.2012 0
M  V30 18147 C 1685.36 -5.50699 1.59743 0
M  V30 18148 N 1684.85 -6.61173 2.06936 0
M  V30 18149 N 1686.64 -5.41386 1.51189 0
M  V30 18150 H 1678.8 -1.53468 1.46838 0
M  V30 18151 H 1681.06 -0.726702 0.608776 0
M  V30 18152 H 1680.76 -3.03747 1.77287 0
M  V30 18153 H 1680.64 -3.7676 0.182209 0
M  V30 18154 H 1683.03 -2.93024 -0.34939 0
M  V30 18155 H 1683.11 -2.22074 1.26952 0
M  V30 18156 H 1682.75 -4.53898 2.27901 0
M  V30 18157 H 1682.68 -5.22729 0.637328 0
M  V30 18158 H 1685.17 -3.68092 0.855361 0
M  V30 18159 H 1685.48 -7.36122 2.35252 0
M  V30 18160 H 1683.83 -6.62226 2.10906 0
M  V30 18161 H 1687.02 -4.53971 1.14142 0
M  V30 18162 H 1687.19 -6.21802 1.82392 0
M  V30 18163 N 1680.6 -0.229873 -1.55915 0
M  V30 18164 C 1681.83 0.404189 -2.02914 0
M  V30 18165 C 1682.24 1.52758 -1.10952 0
M  V30 18166 O 1681.6 1.82101 -0.120685 0
M  V30 18167 C 1681.65 0.928016 -3.49385 0
M  V30 18168 O 1681.37 -0.150592 -4.37841 0
M  V30 18169 C 1682.87 1.63448 -4.12067 0
M  V30 18170 H 1680.09 0.0980294 -0.663801 0
M  V30 18171 H 1682.64 -0.34876 -2.01504 0
M  V30 18172 H 1680.79 1.63121 -3.51384 0
M  V30 18173 H 1681.21 0.244429 -5.2393 0
M  V30 18174 H 1682.68 1.95292 -5.16299 0
M  V30 18175 H 1683.16 2.55055 -3.57553 0
M  V30 18176 H 1683.76 0.976292 -4.13943 0
M  V30 18177 N 1682.08 1.5754 0.0434337 0
M  V30 18178 C 1683.02 2.0561 1.04848 0
M  V30 18179 C 1683.99 0.942299 1.36784 0
M  V30 18180 O 1685.18 1.21191 1.47368 0
M  V30 18181 C 1682.32 2.52844 2.3487 0
M  V30 18182 C 1681.43 3.77958 2.09218 0
M  V30 18183 C 1680.57 4.13859 3.33007 0
M  V30 18184 C 1679.61 5.31932 3.02845 0
M  V30 18185 N 1678.74 5.63335 4.19045 0
M  V30 18186 H 1683.58 2.9123 0.631591 0
M  V30 18187 H 1681.12 1.44003 0.300258 0
M  V30 18188 H 1683.08 2.78291 3.10822 0
M  V30 18189 H 1681.71 1.70161 2.74308 0
M  V30 18190 H 1680.76 3.59681 1.23828 0
M  V30 18191 H 1682.07 4.64034 1.82958 0
M  V30 18192 H 1681.23 4.40358 4.17336 0
M  V30 18193 H 1679.97 3.26406 3.62368 0
M  V30 18194 H 1678.97 5.052 2.16916 0
M  V30 18195 H 1680.2 6.21027 2.74777 0
M  V30 18196 H 1678.14 4.7884 4.48384 0
M  V30 18197 H 1678.06 6.4389 3.96158 0
M  V30 18198 H 1679.33 5.94402 5.04289 0
M  V30 18199 N 1683.56 -0.31543 1.54411 0
M  V30 18200 C 1684.49 -1.39353 1.87358 0
M  V30 18201 C 1685.47 -1.53586 0.731118 0
M  V30 18202 O 1686.65 -1.67332 0.98558 0
M  V30 18203 C 1683.78 -2.75998 2.10814 0
M  V30 18204 C 1682.74 -2.76545 3.2666 0
M  V30 18205 C 1682.06 -4.16343 3.35504 0
M  V30 18206 C 1683.36 -2.39567 4.64117 0
M  V30 18207 H 1685.06 -1.12028 2.77651 0
M  V30 18208 H 1682.6 -0.537476 1.33593 0
M  V30 18209 H 1684.55 -3.51491 2.32447 0
M  V30 18210 H 1683.28 -3.04817 1.17278 0
M  V30 18211 H 1681.94 -2.03507 3.04927 0
M  V30 18212 H 1681.59 -4.42316 2.39512 0
M  V30 18213 H 1681.29 -4.17613 4.13368 0
M  V30 18214 H 1682.81 -4.93637 3.59381 0
M  V30 18215 H 1684.22 -3.04775 4.85577 0
M  V30 18216 H 1682.62 -2.52075 5.4459 0
M  V30 18217 H 1683.69 -1.34707 4.65813 0
M  V30 18218 N 1685.03 -1.46622 -0.577906 0
M  V30 18219 C 1685.96 -1.60413 -1.69676 0
M  V30 18220 C 1686.95 -0.454277 -1.63922 0
M  V30 18221 O 1688.13 -0.68111 -1.81864 0
M  V30 18222 C 1685.26 -1.59866 -3.08318 0
M  V30 18223 C 1684.21 -2.7387 -3.28906 0
M  V30 18224 C 1683.54 -2.58386 -4.68125 0
M  V30 18225 C 1684.84 -4.15652 -3.16276 0
M  V30 18226 H 1686.53 -2.54073 -1.5839 0
M  V30 18227 H 1684.08 -1.22275 -0.760572 0
M  V30 18228 H 1686.03 -1.68108 -3.86417 0
M  V30 18229 H 1684.76 -0.627541 -3.20514 0
M  V30 18230 H 1683.42 -2.65105 -2.53209 0
M  V30 18231 H 1683.06 -1.59347 -4.77093 0
M  V30 18232 H 1682.76 -3.34855 -4.82852 0
M  V30 18233 H 1684.29 -2.68525 -5.48385 0
M  V30 18234 H 1685.7 -4.25503 -3.84214 0
M  V30 18235 H 1684.1 -4.92746 -3.42523 0
M  V30 18236 H 1685.17 -4.35471 -2.13291 0
M  V30 18237 N 1686.51 0.822941 -1.34408 0
M  V30 18238 C 1687.76 1.57418 -1.26105 0
M  V30 18239 C 1688.07 1.94884 0.167225 0
M  V30 18240 O 1689.28 2.68934 0.3724 0
M  V30 18241 C 1687.74 2.84008 -2.21059 0
M  V30 18242 C 1687.34 2.53844 -3.69144 0
M  V30 18243 C 1689.09 3.62029 -2.21664 0
M  V30 18244 C 1687 3.76628 -4.55967 0
M  V30 18245 H 1685.93 0.590813 -0.468461 0
M  V30 18246 H 1688.58 0.906027 -1.59573 0
M  V30 18247 H 1686.96 3.52449 -1.80543 0
M  V30 18248 H 1688.13 1.93515 -4.18197 0
M  V30 18249 H 1686.45 1.89099 -3.70986 0
M  V30 18250 H 1689.04 4.53197 -2.83754 0
M  V30 18251 H 1689.39 3.98147 -1.21593 0
M  V30 18252 H 1689.92 3.00532 -2.60625 0
M  V30 18253 H 1686.66 3.45631 -5.56974 0
M  V30 18254 H 1686.18 4.3624 -4.11648 0
M  V30 18255 H 1687.86 4.44038 -4.70573 0
M  V30 18256 N 1687.99 1.18137 1.04314 0
M  V30 18257 C 1688.94 0.906125 2.12269 0
M  V30 18258 C 1689.91 -0.153492 1.65389 0
M  V30 18259 O 1691.09 -0.0143887 1.90795 0
M  V30 18260 C 1688.23 0.435247 3.42344 0
M  V30 18261 C 1687.35 1.56 4.0285 0
M  V30 18262 C 1686.48 1.0421 5.20878 0
M  V30 18263 C 1685.52 2.14171 5.73409 0
M  V30 18264 N 1684.66 1.63792 6.82727 0
M  V30 18265 H 1689.5 1.83052 2.35151 0
M  V30 18266 H 1687.03 0.912846 1.1535 0
M  V30 18267 H 1688.99 0.143733 4.16952 0
M  V30 18268 H 1687.62 -0.452175 3.19617 0
M  V30 18269 H 1686.67 1.96705 3.25594 0
M  V30 18270 H 1687.99 2.389 4.37868 0
M  V30 18271 H 1687.14 0.704959 6.0259 0
M  V30 18272 H 1685.88 0.182643 4.87358 0
M  V30 18273 H 1684.88 2.48732 4.90319 0
M  V30 18274 H 1686.11 3.00547 6.08973 0
M  V30 18275 H 1684.05 0.801323 6.51087 0
M  V30 18276 H 1683.97 2.40293 7.16795 0
M  V30 18277 H 1685.24 1.32998 7.6807 0
M  V30 18278 N 1689.47 -1.23186 0.98301 0
M  V30 18279 C 1690.88 -1.73484 0.689933 0
M  V30 18280 C 1691.23 -1.79428 -0.793724 0
M  V30 18281 O 1690.36 -1.43391 -1.62074 0
M  V30 18282 C 1690.95 -3.15068 1.24571 0
M  V30 18283 C 1689.51 -3.62812 1.00222 0
M  V30 18284 C 1688.66 -2.40988 1.37186 0
M  V30 18285 H 1691.61 -1.08672 1.15655 0
M  V30 18286 H 1691.63 -3.75425 0.619406 0
M  V30 18287 H 1691.14 -3.10709 2.32554 0
M  V30 18288 H 1689.24 -3.72549 -0.0614202 0
M  V30 18289 H 1689.35 -4.49473 1.65863 0
M  V30 18290 H 1687.72 -2.42127 0.79035 0
M  V30 18291 H 1688.5 -2.39299 2.46152 0
M  V30 18292 N 1690.95 -0.754982 -1.38339 0
M  V30 18293 C 1691.89 -0.117579 -2.32303 0
M  V30 18294 C 1692.89 0.703759 -1.5409 0
M  V30 18295 O 1694.09 0.602701 -1.6961 0
M  V30 18296 H 1690.47 -0.0192276 -0.751754 0
M  V30 18297 H 1692.44 -0.926113 -2.83665 0
M  V30 18298 C 1691.19 0.760239 -3.39287 0
M  V30 18299 H 1690.51 0.137619 -3.99563 0
M  V30 18300 H 1691.95 1.17349 -4.07437 0
M  V30 18301 C 1690.41 1.90347 -2.77974 0
M  V30 18302 O 1690.94 2.99773 -2.67393 0
M  V30 18303 N 1689.15 1.69895 -2.35763 0
M  V30 18304 H 1688.69 0.808926 -2.44569 0
M  V30 18305 H 1688.65 2.46557 -1.95082 0
M  V30 18306 O 1692.46 1.48027 -0.645779 0
M  V30 18307 H 1693.15 1.92961 -0.169016 0
M  V30 END ATOM
M  V30 BEGIN BOND
M  V30 END BOND
M  V30 END CTAB
M  END
$$$$
