drugbank_target|P03355 Gag-Pol polyprotein (DB07499; DB08331)
 OpenBabel12092120443D

  0  0  0     0  0            999 V3000
M  V30 BEGIN CTAB
M  V30 COUNTS 27538 27917 0 0 0
M  V30 BEGIN ATOM
M  V30 1 H -0.908 1.98254 -0.117106 0
M  V30 2 N 0 1.576 0 0
M  V30 3 C 0.933 2.03868 1.02534 0
M  V30 4 C 1.911 0.928543 1.3348 0
M  V30 5 O 3.095 1.19667 1.45644 0
M  V30 6 C 0.222 2.43627 2.35294 0
M  V30 7 C -0.732 3.65373 2.2001 0
M  V30 8 S 0.101 5.13292 1.52614 0
M  V30 9 C 1.257 5.56322 2.86805 0
M  V30 10 H 1.49 2.90518 0.631377 0
M  V30 11 H -0.977 1.52953 0.210867 0
M  V30 12 H 0.981 2.67203 3.11629 0
M  V30 13 H -0.358 1.57376 2.7183 0
M  V30 14 H -1.165 3.90944 3.18086 0
M  V30 15 H -1.563 3.418 1.51819 0
M  V30 16 H 0.729 5.58782 3.83104 0
M  V30 17 H 1.672 6.56266 2.65933 0
M  V30 18 H 2.08 4.83886 2.90714 0
M  V30 19 N 1.4781 -0.272755 1.55222 0
M  V30 20 C 2.7261 -1.00234 1.75492 0
M  V30 21 C 3.0471 -1.8681 0.5592 0
M  V30 22 O 2.3171 -1.91215 -0.425882 0
M  V30 23 H 0.8971 -0.373076 0.647166 0
M  V30 24 H 3.5591 -0.296926 1.92625 0
M  V30 25 H 2.6551 -1.63913 2.65592 0
M  V30 26 N 2.9562 -1.48159 -0.537278 0
M  V30 27 C 3.8882 -1.58218 -1.65831 0
M  V30 28 C 4.9012 -0.466948 -1.5596 0
M  V30 29 O 6.0902 -0.73747 -1.62553 0
M  V30 30 C 3.1902 -1.48906 -3.04434 0
M  V30 31 C 2.3632 -2.75343 -3.3986 0
M  V30 32 C 1.4222 -2.59588 -4.57712 0
M  V30 33 O 0.4482 -3.33457 -4.61297 0
M  V30 34 N 1.6502 -1.68724 -5.55439 0
M  V30 35 H 4.4152 -2.54891 -1.57641 0
M  V30 36 H 1.9762 -1.4479 -0.724386 0
M  V30 37 H 3.9682 -1.36072 -3.81139 0
M  V30 38 H 2.5382 -0.602368 -3.06741 0
M  V30 39 H 1.7582 -3.02795 -2.52406 0
M  V30 40 H 3.0462 -3.5924 -3.60311 0
M  V30 41 H 2.4442 -1.07898 -5.55315 0
M  V30 42 H 1.0012 -1.61832 -6.3139 0
M  V30 43 N 4.4343 0.785586 -1.36625 0
M  V30 44 C 5.6623 1.57448 -1.3423 0
M  V30 45 C 6.0773 1.88649 0.0755653 0
M  V30 46 O 5.4343 1.50414 1.03354 0
M  V30 47 C 5.4853 2.89316 -2.16745 0
M  V30 48 O 5.2063 2.59459 -3.53005 0
M  V30 49 C 6.7073 3.83606 -2.22174 0
M  V30 50 H 3.9273 0.488226 -0.4603 0
M  V30 51 H 6.4713 0.974733 -1.79775 0
M  V30 52 H 4.6263 3.4575 -1.74745 0
M  V30 53 H 5.0403 3.43804 -3.96105 0
M  V30 54 H 6.5143 4.73181 -2.8426 0
M  V30 55 H 6.9913 4.21734 -1.22627 0
M  V30 56 H 7.5973 3.33104 -2.64427 0
M  V30 57 N 5.9124 1.20967 1.01018 0
M  V30 58 C 7.1584 1.02526 1.74975 0
M  V30 59 C 7.4914 -0.4408 1.89131 0
M  V30 60 O 6.7664 -1.32718 1.42184 0
M  V30 61 C 7.0494 1.71699 3.1653 0
M  V30 62 C 6.9024 3.25791 3.10129 0
M  V30 63 C 8.2214 1.45531 4.15342 0
M  V30 64 H 5.3404 0.373863 0.635134 0
M  V30 65 H 7.9824 1.49071 1.17805 0
M  V30 66 H 6.1324 1.32128 3.65341 0
M  V30 67 H 7.8044 3.74697 2.69072 0
M  V30 68 H 6.0474 3.56363 2.47362 0
M  V30 69 H 6.7184 3.69353 4.10222 0
M  V30 70 H 9.1944 1.79872 3.75213 0
M  V30 71 H 8.0704 1.96453 5.1254 0
M  V30 72 H 8.3314 0.384237 4.40427 0
M  V30 73 N 7.3905 -1.2043 1.01659 0
M  V30 74 C 8.6185 -1.93777 0.725132 0
M  V30 75 C 9.0335 -1.74772 -0.714166 0
M  V30 76 O 8.3905 -1.06169 -1.4844 0
M  V30 77 C 8.4415 -3.45876 1.05129 0
M  V30 78 O 8.1625 -3.6426 2.43406 0
M  V30 79 C 9.6635 -4.36368 0.780891 0
M  V30 80 H 6.8835 -0.615901 0.266284 0
M  V30 81 H 9.4275 -1.52922 1.35776 0
M  V30 82 H 7.5825 -3.8461 0.464065 0
M  V30 83 H 7.9965 -4.58246 2.55169 0
M  V30 84 H 9.4705 -5.41743 1.05918 0
M  V30 85 H 9.9475 -4.38275 -0.284937 0
M  V30 86 H 10.5535 -4.03296 1.35027 0
M  V30 87 N 8.8686 -0.792821 -1.36206 0
M  V30 88 C 10.0966 -0.378825 -2.03402 0
M  V30 89 C 10.5116 1.00586 -1.59774 0
M  V30 90 O 9.8686 1.64574 -0.788764 0
M  V30 91 C 9.9196 -0.43683 -3.58851 0
M  V30 92 O 9.6406 -1.76691 -4.00889 0
M  V30 93 C 11.1416 -0.0138943 -4.43298 0
M  V30 94 H 8.3616 -0.155673 -0.652692 0
M  V30 95 H 10.9056 -1.07261 -1.74113 0
M  V30 96 H 9.0606 0.208575 -3.86838 0
M  V30 97 H 9.4746 -1.72011 -4.95492 0
M  V30 98 H 10.9486 -0.105615 -5.51899 0
M  V30 99 H 11.4256 1.03915 -4.2673 0
M  V30 100 H 12.0316 -0.63192 -4.20579 0
M  V30 101 N 10.3467 1.47872 -0.545128 0
M  V30 102 C 11.7577 1.86384 -0.108581 0
M  V30 103 C 12.1087 1.45309 1.31832 0
M  V30 104 O 11.2337 0.850641 1.9898 0
M  V30 105 C 11.8287 3.38265 -0.190274 0
M  V30 106 C 10.3877 3.75914 0.191164 0
M  V30 107 C 9.5347 2.71926 -0.543273 0
M  V30 108 H 12.4857 1.39561 -0.755537 0
M  V30 109 H 12.5067 3.75831 0.594217 0
M  V30 110 H 12.0187 3.6813 -1.2289 0
M  V30 111 H 10.1197 3.51665 1.23136 0
M  V30 112 H 10.2327 4.78836 -0.158987 0
M  V30 113 H 8.5967 2.54697 0.0122495 0
M  V30 114 H 9.3797 3.04634 -1.58282 0
M  V30 115 N 11.8248 0.280983 1.55075 0
M  V30 116 C 12.7548 -0.597469 2.25727 0
M  V30 117 C 13.7358 -1.15417 1.24952 0
M  V30 118 O 14.9208 -1.18722 1.53684 0
M  V30 119 C 12.0508 -1.7789 2.98283 0
M  V30 120 C 11.0048 -1.35347 4.06036 0
M  V30 121 C 10.3308 -2.61846 4.66198 0
M  V30 122 C 11.6308 -0.499354 5.19907 0
M  V30 123 H 13.3248 -0.00824265 2.99399 0
M  V30 124 H 10.8708 -0.0025244 1.44 0
M  V30 125 H 12.8238 -2.39937 3.46422 0
M  V30 126 H 11.5478 -2.39405 2.22155 0
M  V30 127 H 10.2068 -0.756156 3.58717 0
M  V30 128 H 9.8548 -3.21632 3.86732 0
M  V30 129 H 9.5548 -2.3409 5.38958 0
M  V30 130 H 11.0788 -3.24732 5.1709 0
M  V30 131 H 12.4928 -1.02498 5.64063 0
M  V30 132 H 10.8898 -0.316424 5.99265 0
M  V30 133 H 11.9598 0.480459 4.82514 0
M  V30 134 N 13.3029 -1.57598 0.00835791 0
M  V30 135 C 14.5279 -1.95617 -0.689103 0
M  V30 136 C 14.9529 -0.883753 -1.66046 0
M  V30 137 O 14.3109 0.157352 -1.80616 0
M  V30 138 C 14.3589 -3.32736 -1.38994 0
M  V30 139 O 13.4629 -3.27631 -2.50463 0
M  V30 140 H 12.8039 -0.638379 -0.182668 0
M  V30 141 H 15.3339 -2.045 0.064036 0
M  V30 142 H 15.3439 -3.68494 -1.75147 0
M  V30 143 H 14.0189 -4.1034 -0.677778 0
M  V30 144 H 12.5959 -3.03561 -2.16576 0
M  V30 145 N 14.781 0.264519 -1.55364 0
M  V30 146 C 15.711 1.33121 -1.91836 0
M  V30 147 C 16.692 1.51101 -0.781192 0
M  V30 148 O 17.877 1.64003 -1.04003 0
M  V30 149 C 15.007 2.68921 -2.19769 0
M  V30 150 C 13.961 2.65661 -3.35571 0
M  V30 151 C 13.287 4.05093 -3.49004 0
M  V30 152 C 14.587 2.24187 -4.71739 0
M  V30 153 H 16.281 1.02844 -2.81182 0
M  V30 154 H 13.827 0.493286 -1.35287 0
M  V30 155 H 15.78 3.43663 -2.43872 0
M  V30 156 H 14.504 3.00799 -1.27231 0
M  V30 157 H 13.163 1.93377 -3.1145 0
M  V30 158 H 12.811 4.34206 -2.53917 0
M  V30 159 H 12.511 4.03804 -4.26868 0
M  V30 160 H 14.035 4.81561 -3.75408 0
M  V30 161 H 15.449 2.88654 -4.9533 0
M  V30 162 H 13.846 2.34044 -5.52579 0
M  V30 163 H 14.916 1.19327 -4.69988 0
M  V30 164 N 16.2591 1.48442 0.529413 0
M  V30 165 C 17.4871 1.60151 1.30994 0
M  V30 166 C 17.9021 0.261985 1.86973 0
M  V30 167 O 17.2591 -0.748805 1.66431 0
M  V30 168 C 17.3101 2.64854 2.46038 0
M  V30 169 O 17.0311 3.93608 1.92365 0
M  V30 170 C 18.5321 2.87007 3.37849 0
M  V30 171 H 15.7521 0.539971 0.398338 0
M  V30 172 H 18.2961 1.94273 0.638597 0
M  V30 173 H 16.4511 2.33589 3.09055 0
M  V30 174 H 16.8651 4.51055 2.67675 0
M  V30 175 H 18.3391 3.64068 4.14919 0
M  V30 176 H 18.8161 1.95852 3.93114 0
M  V30 177 H 19.4221 3.19579 2.80623 0
M  V30 178 N 17.7372 -0.778329 1.37039 0
M  V30 179 C 18.6672 -1.90546 1.34962 0
M  V30 180 C 19.6482 -1.68681 0.219274 0
M  V30 181 O 20.8332 -1.89634 0.418624 0
M  V30 182 C 17.9632 -3.27734 1.14925 0
M  V30 183 C 16.9172 -3.64147 2.24902 0
M  V30 184 C 16.2432 -4.99806 1.89996 0
M  V30 185 C 17.5432 -3.71579 3.67051 0
M  V30 186 H 19.2372 -1.92541 2.29277 0
M  V30 187 H 16.7832 -0.924948 1.10366 0
M  V30 188 H 18.7362 -4.06215 1.12104 0
M  V30 189 H 17.4602 -3.26154 0.170631 0
M  V30 190 H 16.1192 -2.8797 2.26868 0
M  V30 191 H 15.7672 -4.94759 0.906796 0
M  V30 192 H 15.4672 -5.25139 2.63634 0
M  V30 193 H 16.9912 -5.80694 1.88749 0
M  V30 194 H 18.4052 -4.40227 3.67251 0
M  V30 195 H 16.8022 -4.08405 4.39688 0
M  V30 196 H 17.8722 -2.72404 4.01154 0
M  V30 197 N 19.2153 -1.21501 -1.00376 0
M  V30 198 C 20.4633 -1.03095 -1.73827 0
M  V30 199 C 20.7843 0.436341 -1.90055 0
M  V30 200 O 20.0543 1.31466 -1.45236 0
M  V30 201 H 18.6343 -0.378487 -0.644016 0
M  V30 202 H 21.2963 -1.52831 -1.20949 0
M  V30 203 H 20.3923 -1.49991 -2.73695 0
M  V30 204 N 20.6934 1.19889 -1.02296 0
M  V30 205 C 21.6434 2.20777 -0.56934 0
M  V30 206 C 22.6274 1.56379 0.378741 0
M  V30 207 O 23.8194 1.75859 0.200673 0
M  V30 208 C 20.9484 3.43196 0.0845077 0
M  V30 209 C 20.0344 4.14749 -0.88566 0
M  V30 210 N 20.4254 4.62584 -2.04573 0
M  V30 211 C 18.7234 4.40347 -0.707835 0
M  V30 212 C 19.4244 5.17466 -2.65714 0
M  V30 213 N 18.4004 5.0791 -1.93723 0
M  V30 214 H 22.2024 2.55434 -1.45365 0
M  V30 215 H 19.7164 1.35897 -0.88915 0
M  V30 216 H 21.7134 4.14707 0.427067 0
M  V30 217 H 20.3734 3.10042 0.964574 0
M  V30 218 H 21.3844 4.57597 -2.4254 0
M  V30 219 H 18.0614 4.17317 0.12364 0
M  V30 220 H 19.4514 5.64808 -3.63925 0
M  V30 221 N 22.1715 0.800033 1.35784 0
M  V30 222 C 23.4175 0.38701 1.99684 0
M  V30 223 C 23.7725 -1.03268 1.62338 0
M  V30 224 O 23.0655 -1.70543 0.87325 0
M  V30 225 C 23.2595 0.500276 3.53881 0
M  V30 226 C 23.0885 1.92942 4.06206 0
M  V30 227 C 21.8585 2.55637 4.35865 0
M  V30 228 C 24.0565 2.89307 4.25213 0
M  V30 229 N 22.0385 3.9003 4.74078 0
M  V30 230 C 23.4095 4.08556 4.66349 0
M  V30 231 C 25.4645 2.86225 4.07406 0
M  V30 232 C 24.1675 5.25146 4.91543 0
M  V30 233 C 26.1935 4.02011 4.33752 0
M  V30 234 C 25.5555 5.20007 4.75155 0
M  V30 235 H 21.6545 0.189252 0.758754 0
M  V30 236 H 24.2385 1.03988 1.64604 0
M  V30 237 H 22.4095 -0.122568 3.88207 0
M  V30 238 H 24.1415 0.0624733 4.04652 0
M  V30 239 H 20.8965 2.07039 4.25948 0
M  V30 240 H 21.3205 4.59205 4.97454 0
M  V30 241 H 25.9625 1.96154 3.74544 0
M  V30 242 H 23.6805 6.15794 5.23281 0
M  V30 243 H 27.2665 4.00999 4.21534 0
M  V30 244 H 26.1465 6.08113 4.95145 0
M  V30 245 N 23.6496 -1.47581 0.552962 0
M  V30 246 C 24.5966 -2.29957 -0.197108 0
M  V30 247 C 25.5666 -1.38799 -0.912359 0
M  V30 248 O 26.7516 -1.67761 -0.908888 0
M  V30 249 C 23.8916 -3.22672 -1.22379 0
M  V30 250 C 23.0046 -4.28919 -0.515038 0
M  V30 251 C 22.1396 -5.0879 -1.52664 0
M  V30 252 C 21.1786 -6.06815 -0.802631 0
M  V30 253 N 20.3156 -6.7966 -1.76086 0
M  V30 254 H 25.1556 -2.93578 0.511486 0
M  V30 255 H 22.6926 -1.4471 0.264067 0
M  V30 256 H 24.6506 -3.74845 -1.83159 0
M  V30 257 H 23.2806 -2.60925 -1.90047 0
M  V30 258 H 22.3326 -3.79835 0.207192 0
M  V30 259 H 23.6446 -4.98773 0.0523425 0
M  V30 260 H 22.7986 -5.65091 -2.20809 0
M  V30 261 H 21.5376 -4.38828 -2.12794 0
M  V30 262 H 20.5426 -5.49695 -0.107238 0
M  V30 263 H 21.7676 -6.78784 -0.207135 0
M  V30 264 H 19.7136 -6.12432 -2.35081 0
M  V30 265 H 19.6306 -7.45669 -1.24552 0
M  V30 266 H 20.8986 -7.40538 -2.43359 0
M  V30 267 N 25.1277 -0.289203 -1.54924 0
M  V30 268 C 26.4047 0.376032 -1.91951 0
M  V30 269 C 26.7847 1.72622 -1.21511 0
M  V30 270 O 26.1327 2.25853 -0.346767 0
M  V30 271 C 26.3427 0.502378 -3.45365 0
M  V30 272 C 27.6907 0.778741 -4.17398 0
M  V30 273 O 28.7147 0.586647 -3.51336 0
M  V30 274 O 27.5737 1.14698 -5.34328 0
M  V30 275 H 24.6677 0.208167 -0.800372 0
M  V30 276 H 27.2137 -0.336394 -1.66332 0
M  V30 277 H 25.9857 -0.447255 -3.88736 0
M  V30 278 H 25.6087 1.26373 -3.76982 0
M  V30 279 N 26.6058 1.57591 -0.0167156 0
M  V30 280 C 27.8518 1.91567 0.665582 0
M  V30 281 C 28.1848 0.892298 1.72487 0
M  V30 282 O 27.4598 -0.0867127 1.94307 0
M  V30 283 C 27.7428 3.36069 1.29342 0
M  V30 284 C 27.5958 4.49135 0.244541 0
M  V30 285 C 28.9148 3.803 2.21495 0
M  V30 286 H 26.0338 0.69666 0.240488 0
M  V30 287 H 28.6758 1.89866 -0.0714356 0
M  V30 288 H 26.8258 3.3765 1.92158 0
M  V30 289 H 28.4978 4.59689 -0.385228 0
M  V30 290 H 26.7408 4.3165 -0.431379 0
M  V30 291 H 27.4118 5.47242 0.723207 0
M  V30 292 H 29.8878 3.80377 1.68678 0
M  V30 293 H 28.7638 4.82127 2.62382 0
M  V30 294 H 29.0248 3.15104 3.101 0
M  V30 295 N 28.0839 -0.256276 1.55502 0
M  V30 296 C 28.9939 -1.33882 1.92647 0
M  V30 297 C 30.0099 -1.53159 0.825727 0
M  V30 298 O 31.1859 -1.66963 1.12629 0
M  V30 299 C 28.2509 -2.6751 2.20543 0
M  V30 300 C 27.3119 -2.56836 3.43997 0
M  V30 301 C 26.5449 -3.84092 3.70553 0
M  V30 302 O 26.7679 -4.85545 2.99336 0
M  V30 303 O 25.7019 -3.83288 4.64084 0
M  V30 304 H 29.5279 -1.05374 2.84833 0
M  V30 305 H 27.1129 -0.456237 1.42263 0
M  V30 306 H 28.9949 -3.46492 2.39835 0
M  V30 307 H 27.6699 -2.9577 1.31536 0
M  V30 308 H 26.5769 -1.76172 3.30021 0
M  V30 309 H 27.9099 -2.33523 4.33275 0
M  V30 310 N 29.562 -1.4872 -0.521534 0
M  V30 311 C 30.978 -1.35028 -0.850855 0
M  V30 312 C 31.178 -0.367712 -1.98116 0
M  V30 313 O 30.234 0.208037 -2.51642 0
M  V30 314 C 31.547 -2.75263 -1.21041 0
M  V30 315 C 33.095 -2.83813 -1.31981 0
M  V30 316 C 33.57 -4.24769 -1.71276 0
M  V30 317 N 35.061 -4.27482 -1.78363 0
M  V30 318 C 35.796 -5.33494 -2.1017 0
M  V30 319 N 35.292 -6.49775 -2.40343 0
M  V30 320 N 37.085 -5.20894 -2.11248 0
M  V30 321 H 29.236 -2.11214 0.22413 0
M  V30 322 H 31.499 -0.947252 0.0376439 0
M  V30 323 H 31.205 -3.48765 -0.453415 0
M  V30 324 H 31.079 -3.09327 -2.15863 0
M  V30 325 H 33.466 -2.10561 -2.06756 0
M  V30 326 H 33.547 -2.53358 -0.352596 0
M  V30 327 H 33.191 -4.9854 -0.970588 0
M  V30 328 H 33.121 -4.52673 -2.69062 0
M  V30 329 H 35.612 -3.43611 -1.57288 0
M  V30 330 H 35.925 -7.26402 -2.63743 0
M  V30 331 H 34.27 -6.53035 -2.37844 0
M  V30 332 H 37.461 -4.29065 -1.87139 0
M  V30 333 H 37.634 -6.03612 -2.35704 0
M  V30 334 N 31.0401 0.771051 -1.3745 0
M  V30 335 C 32.2891 1.52491 -1.3202 0
M  V30 336 C 32.6021 1.9538 0.0927347 0
M  V30 337 O 33.8081 2.70159 0.269503 0
M  V30 338 C 32.2641 2.75366 -2.31736 0
M  V30 339 C 31.8721 2.39573 -3.78562 0
M  V30 340 C 33.6161 3.53307 -2.35318 0
M  V30 341 C 31.5231 3.58954 -4.70007 0
M  V30 342 H 30.4531 0.572506 -0.490666 0
M  V30 343 H 33.1041 0.844474 -1.62914 0
M  V30 344 H 31.4861 3.45303 -1.93861 0
M  V30 345 H 32.6601 1.77415 -4.25277 0
M  V30 346 H 30.9751 1.74805 -3.77932 0
M  V30 347 H 33.5721 4.42039 -3.00842 0
M  V30 348 H 33.9151 3.93217 -1.36698 0
M  V30 349 H 34.4481 2.90367 -2.71904 0
M  V30 350 H 31.1871 3.24125 -5.69757 0
M  V30 351 H 30.7071 4.20214 -4.27996 0
M  V30 352 H 32.3861 4.25758 -4.87175 0
M  V30 353 N 32.5182 1.22032 0.997298 0
M  V30 354 C 33.4812 0.987909 2.06816 0
M  V30 355 C 34.4812 -0.0440084 1.6074 0
M  V30 356 O 35.6712 0.194053 1.73116 0
M  V30 357 C 32.8032 0.49132 3.37341 0
M  V30 358 H 33.9962 1.93803 2.28868 0
M  V30 359 H 31.5492 1.03838 1.16822 0
M  V30 360 H 32.2842 -0.463364 3.20973 0
M  V30 361 H 32.0692 1.23575 3.72118 0
M  V30 362 H 33.5592 0.348824 4.16141 0
M  V30 363 N 33.9963 -1.19345 1.0293 0
M  V30 364 C 34.9463 -2.20472 0.58104 0
M  V30 365 C 35.9303 -1.56578 -0.370442 0
M  V30 366 O 37.1223 -1.75963 -0.191344 0
M  V30 367 C 34.2513 -3.43236 -0.066306 0
M  V30 368 C 33.3373 -4.14274 0.907642 0
M  V30 369 N 33.7283 -4.61492 2.07023 0
M  V30 370 C 32.0263 -4.39966 0.731177 0
M  V30 371 C 32.7273 -5.1605 2.68454 0
M  V30 372 N 31.7033 -5.06875 1.96414 0
M  V30 373 H 35.5053 -2.54659 1.46717 0
M  V30 374 H 33.0193 -1.35423 0.896345 0
M  V30 375 H 35.0163 -4.14927 -0.405068 0
M  V30 376 H 33.6763 -3.10549 -0.948118 0
M  V30 377 H 34.6873 -4.56304 2.44963 0
M  V30 378 H 31.3643 -4.17377 -0.101507 0
M  V30 379 H 32.7543 -5.6287 3.66915 0
M  V30 380 N 35.4744 -0.807222 -1.35358 0
M  V30 381 C 36.4224 -0.20614 -2.31685 0
M  V30 382 C 37.4164 0.644445 -1.56663 0
M  V30 383 O 38.6224 0.537538 -1.71786 0
M  V30 384 H 34.9974 -0.0479006 -0.750473 0
M  V30 385 H 36.9684 -1.03369 -2.79924 0
M  V30 386 C 35.7174 0.630212 -3.41941 0
M  V30 387 H 35.0404 -0.0149558 -3.99797 0
M  V30 388 H 36.4804 1.01716 -4.11619 0
M  V30 389 C 34.9394 1.79601 -2.85035 0
M  V30 390 O 35.4694 2.89351 -2.78637 0
M  V30 391 N 33.6754 1.60774 -2.42074 0
M  V30 392 H 33.2224 0.715009 -2.47478 0
M  V30 393 H 33.1804 2.38933 -2.04349 0
M  V30 394 N 36.9525 1.47285 -0.560781 0
M  V30 395 C 37.8845 2.28118 0.222438 0
M  V30 396 C 38.8975 1.37219 0.876056 0
M  V30 397 O 40.0865 1.62011 0.749307 0
M  V30 398 C 37.1865 3.1159 1.33285 0
M  V30 399 C 36.3595 4.30473 0.77534 0
M  V30 400 C 35.4185 4.95513 1.77069 0
M  V30 401 O 34.4445 5.53792 1.31539 0
M  V30 402 N 35.6465 4.90531 3.10418 0
M  V30 403 H 38.4115 2.95976 -0.470958 0
M  V30 404 H 35.9725 1.56955 -0.39709 0
M  V30 405 H 37.9645 3.51967 1.99752 0
M  V30 406 H 36.5345 2.45951 1.92943 0
M  V30 407 H 35.7545 3.94144 -0.0662113 0
M  V30 408 H 37.0425 5.07362 0.382272 0
M  V30 409 H 36.4405 4.44389 3.5005 0
M  V30 410 H 34.9975 5.34917 3.72434 0
M  V30 411 N 38.4306 0.297415 1.54768 0
M  V30 412 C 39.6556 -0.318435 2.04941 0
M  V30 413 C 40.0806 -1.4701 1.17345 0
M  V30 414 O 39.4386 -1.80436 0.176758 0
M  V30 415 C 39.4866 -0.755749 3.52592 0
M  V30 416 O 38.5906 -1.86088 3.68028 0
M  V30 417 H 37.9316 -0.062421 0.661059 0
M  V30 418 H 40.4616 0.438215 1.99852 0
M  V30 419 H 40.4716 -1.04552 3.94376 0
M  V30 420 H 39.1466 0.0867233 4.1581 0
M  V30 421 H 37.7236 -1.57193 3.38149 0
M  V30 422 N 39.9087 -1.5758 0.0250728 0
M  V30 423 C 41.1547 -1.91917 -0.655413 0
M  V30 424 C 41.4877 -0.901433 -1.72011 0
M  V30 425 O 40.7627 0.0764069 -1.9435 0
M  V30 426 C 41.0457 -3.36751 -1.27558 0
M  V30 427 C 40.8987 -4.49258 -0.220719 0
M  V30 428 C 42.2177 -3.81469 -2.19475 0
M  V30 429 H 39.3367 -0.697925 -0.23679 0
M  V30 430 H 41.9787 -1.89825 0.0815036 0
M  V30 431 H 40.1287 -3.38664 -1.90365 0
M  V30 432 H 41.8007 -4.59478 0.409601 0
M  V30 433 H 40.0437 -4.31415 0.454264 0
M  V30 434 H 40.7147 -5.47618 -0.694175 0
M  V30 435 H 43.1907 -3.81266 -1.66659 0
M  V30 436 H 42.0667 -4.83512 -2.59822 0
M  V30 437 H 42.3277 -3.16744 -3.08424 0
M  V30 438 N 41.3868 0.248026 -1.55636 0
M  V30 439 C 42.6638 0.998988 -1.68165 0
M  V30 440 C 43.0438 2.03409 -0.564621 0
M  V30 441 O 42.3918 2.24378 0.432076 0
M  V30 442 C 42.6018 1.63334 -3.0842 0
M  V30 443 C 43.9498 2.13562 -3.66983 0
M  V30 444 O 44.9738 1.73277 -3.11213 0
M  V30 445 O 43.8328 2.87526 -4.64749 0
M  V30 446 H 40.9268 0.464933 -0.683935 0
M  V30 447 H 43.4728 0.241902 -1.67967 0
M  V30 448 H 42.2448 0.884583 -3.8117 0
M  V30 449 H 41.8678 2.45666 -3.12624 0
M  V30 450 N 42.8649 1.48995 0.513639 0
M  V30 451 C 44.1109 1.58076 1.27042 0
M  V30 452 C 44.4439 0.261026 1.92438 0
M  V30 453 O 43.7189 -0.734393 1.80103 0
M  V30 454 C 44.0019 2.73091 2.34719 0
M  V30 455 C 43.8549 4.14821 1.73907 0
M  V30 456 C 45.1739 2.83796 3.36375 0
M  V30 457 H 42.2929 0.575391 0.460536 0
M  V30 458 H 44.9349 1.81232 0.570516 0
M  V30 459 H 43.0849 2.53479 2.94416 0
M  V30 460 H 44.7569 4.45917 1.18135 0
M  V30 461 H 42.9999 4.21058 1.0437 0
M  V30 462 H 43.6709 4.91147 2.51949 0
M  V30 463 H 46.1469 3.01611 2.86653 0
M  V30 464 H 45.0229 3.65971 4.09093 0
M  V30 465 H 45.2839 1.92624 3.9793 0
M  V30 466 N 44.343 -0.763751 1.37857 0
M  V30 467 C 45.29 -1.87726 1.34267 0
M  V30 468 C 46.26 -1.64807 0.206879 0
M  V30 469 O 47.445 -1.86613 0.397508 0
M  V30 470 C 44.585 -3.24896 1.16346 0
M  V30 471 C 43.698 -3.59716 2.39225 0
M  V30 472 C 42.833 -4.86137 2.14114 0
M  V30 473 C 41.872 -5.13711 3.32817 0
M  V30 474 N 41.009 -6.31323 3.07206 0
M  V30 475 H 45.849 -1.90129 2.29466 0
M  V30 476 H 43.386 -0.929433 1.14017 0
M  V30 477 H 45.344 -4.04036 1.03975 0
M  V30 478 H 43.974 -3.21847 0.247909 0
M  V30 479 H 43.026 -2.75498 2.62307 0
M  V30 480 H 44.338 -3.76027 3.27728 0
M  V30 481 H 43.492 -5.73198 1.9882 0
M  V30 482 H 42.231 -4.71945 1.22961 0
M  V30 483 H 41.236 -4.25123 3.48641 0
M  V30 484 H 42.461 -5.29807 4.24832 0
M  V30 485 H 40.407 -6.18474 2.1869 0
M  V30 486 H 40.324 -6.48087 3.89254 0
M  V30 487 H 41.592 -7.213 2.95546 0
M  V30 488 N 45.8211 -1.22559 -0.990812 0
M  V30 489 C 46.7681 -0.997519 -2.0813 0
M  V30 490 C 47.7381 0.0814702 -1.659 0
M  V30 491 O 48.9231 -0.0685424 -1.90677 0
M  V30 492 C 46.0631 -0.583615 -3.40129 0
M  V30 493 C 45.1761 -1.7336 -3.9569 0
M  V30 494 C 44.3111 -1.26748 -5.15857 0
M  V30 495 C 43.3501 -2.38888 -5.63559 0
M  V30 496 N 42.4871 -1.93308 -6.74964 0
M  V30 497 H 47.3271 -1.93099 -2.26973 0
M  V30 498 H 44.8641 -0.962114 -1.11273 0
M  V30 499 H 46.8221 -0.324801 -4.15934 0
M  V30 500 H 45.4521 0.312845 -3.2128 0
M  V30 501 H 44.5041 -2.10669 -3.16738 0
M  V30 502 H 45.8161 -2.57704 -4.27071 0
M  V30 503 H 44.9701 -0.966173 -5.98957 0
M  V30 504 H 43.7091 -0.394272 -4.86104 0
M  V30 505 H 42.7141 -2.69805 -4.79046 0
M  V30 506 H 43.9391 -3.26728 -5.95336 0
M  V30 507 H 41.8851 -1.08352 -6.4699 0
M  V30 508 H 41.8021 -2.71217 -7.05675 0
M  V30 509 H 43.0701 -1.66252 -7.61564 0
M  V30 510 N 47.2992 1.18797 -1.03562 0
M  V30 511 C 48.7152 1.40671 -0.753917 0
M  V30 512 C 48.9152 1.9043 0.658686 0
M  V30 513 O 47.9712 2.08538 1.42366 0
M  V30 514 C 49.2842 2.41192 -1.79574 0
M  V30 515 C 50.8322 2.54928 -1.81606 0
M  V30 516 C 51.3072 3.58709 -2.84766 0
M  V30 517 N 52.7982 3.66212 -2.83625 0
M  V30 518 C 53.5332 4.46225 -3.60098 0
M  V30 519 N 53.0292 5.29888 -4.46308 0
M  V30 520 N 54.8222 4.40939 -3.4861 0
M  V30 521 H 46.9732 0.848221 -1.94728 0
M  V30 522 H 49.2362 0.435081 -0.842264 0
M  V30 523 H 48.9422 2.11669 -2.80872 0
M  V30 524 H 48.8162 3.40467 -1.62365 0
M  V30 525 H 51.2032 2.83771 -0.809817 0
M  V30 526 H 51.2842 1.55784 -2.02891 0
M  V30 527 H 50.9282 3.30607 -3.85566 0
M  V30 528 H 50.8582 4.57519 -2.60737 0
M  V30 529 H 53.3492 3.06466 -2.21105 0
M  V30 530 H 53.6622 5.88078 -5.01382 0
M  V30 531 H 52.0072 5.29326 -4.50377 0
M  V30 532 H 55.1982 3.74624 -2.80668 0
M  V30 533 H 55.3712 5.03056 -4.08459 0
M  V30 534 N 48.7773 0.814389 1.34928 0
M  V30 535 C 50.1933 0.499084 1.51596 0
M  V30 536 C 50.3933 -0.978319 1.76157 0
M  V30 537 O 49.4493 -1.76309 1.80752 0
M  V30 538 C 50.7623 1.35121 2.68631 0
M  V30 539 C 52.3103 1.34746 2.82511 0
M  V30 540 C 52.7853 2.18388 4.0258 0
M  V30 541 N 54.2763 2.15966 4.09772 0
M  V30 542 C 55.0113 2.77437 5.01813 0
M  V30 543 N 54.5073 3.47866 5.99134 0
M  V30 544 N 56.3003 2.67037 4.94619 0
M  V30 545 H 48.4513 1.7711 1.17243 0
M  V30 546 H 50.7143 0.754256 0.574284 0
M  V30 547 H 50.4203 2.40001 2.57085 0
M  V30 548 H 50.2943 1.00991 3.63429 0
M  V30 549 H 52.6813 0.30648 2.93504 0
M  V30 550 H 52.7623 1.72869 1.88547 0
M  V30 551 H 52.4063 3.2253 3.92347 0
M  V30 552 H 52.3363 1.77621 4.9574 0
M  V30 553 H 54.8273 1.64729 3.40107 0
M  V30 554 H 55.1403 3.92038 6.65977 0
M  V30 555 H 53.4853 3.51972 5.99284 0
M  V30 556 H 56.6763 2.11597 4.17546 0
M  V30 557 H 56.8493 3.15232 5.66156 0
M  V30 558 N 50.2554 -1.46986 0.568584 0
M  V30 559 C 51.5014 -2.0332 0.0571487 0
M  V30 560 C 51.8564 -1.43384 -1.28291 0
M  V30 561 O 51.1494 -0.584304 -1.82473 0
M  V30 562 C 51.3434 -3.57306 -0.081836 0
M  V30 563 C 51.1724 -4.32174 1.24321 0
M  V30 564 C 49.9424 -4.71633 1.81358 0
M  V30 565 C 52.1404 -4.66598 2.16312 0
M  V30 566 N 50.1224 -5.31191 3.07748 0
M  V30 567 C 51.4934 -5.26578 3.27285 0
M  V30 568 C 53.5484 -4.48527 2.16166 0
M  V30 569 C 52.2514 -5.70395 4.38226 0
M  V30 570 C 54.2774 -4.93351 3.26127 0
M  V30 571 C 53.6394 -5.5339 4.3582 0
M  V30 572 H 49.7384 -0.77943 0.063351 0
M  V30 573 H 52.3224 -1.79323 0.758378 0
M  V30 574 H 50.4934 -3.81046 -0.752207 0
M  V30 575 H 52.2254 -4.00282 -0.59637 0
M  V30 576 H 48.9804 -4.53946 1.35019 0
M  V30 577 H 49.4044 -5.65505 3.72201 0
M  V30 578 H 54.0464 -4.01456 1.32638 0
M  V30 579 H 51.7644 -6.16452 5.22506 0
M  V30 580 H 55.3504 -4.81131 3.27115 0
M  V30 581 H 54.2304 -5.87441 5.19503 0
M  V30 582 N 51.7335 -0.305618 -1.54608 0
M  V30 583 C 52.9795 0.302746 -2.00528 0
M  V30 584 C 53.3125 1.53184 -1.19367 0
M  V30 585 O 52.5875 1.92598 -0.271321 0
M  V30 586 C 52.8705 0.654756 -3.54097 0
M  V30 587 C 52.7235 -0.583793 -4.45995 0
M  V30 588 C 54.0425 1.47947 -4.14487 0
M  V30 589 H 51.1615 0.108564 -0.72896 0
M  V30 590 H 53.8035 -0.418634 -1.85331 0
M  V30 591 H 51.9535 1.26935 -3.67178 0
M  V30 592 H 53.6255 -1.22224 -4.44814 0
M  V30 593 H 51.8685 -1.21615 -4.16404 0
M  V30 594 H 52.5395 -0.293287 -5.5122 0
M  V30 595 H 55.0155 0.96013 -4.04871 0
M  V30 596 H 53.8915 1.69454 -5.22088 0
M  V30 597 H 54.1525 2.47011 -3.66658 0
M  V30 598 N 53.2116 1.57565 -0.0334293 0
M  V30 599 C 54.4396 1.9628 0.654347 0
M  V30 600 C 54.8546 0.910138 1.65414 0
M  V30 601 O 54.2116 -0.107595 1.82183 0
M  V30 602 C 54.2626 3.35067 1.35693 0
M  V30 603 O 53.9836 4.36296 0.397191 0
M  V30 604 C 55.4846 3.88439 2.13613 0
M  V30 605 H 52.7046 0.646369 0.180132 0
M  V30 606 H 55.2486 2.04282 -0.0944721 0
M  V30 607 H 53.4036 3.2827 2.05712 0
M  V30 608 H 53.8176 5.1678 0.896597 0
M  V30 609 H 55.2916 4.8788 2.58219 0
M  V30 610 H 55.7686 3.22914 2.97696 0
M  V30 611 H 56.3746 3.98516 1.48543 0
M  V30 612 N 54.6897 -0.239769 1.55765 0
M  V30 613 C 55.9367 -0.966801 1.7793 0
M  V30 614 C 56.2647 -1.85046 0.599015 0
M  V30 615 O 55.5197 -1.91197 -0.417395 0
M  V30 616 C 55.8187 -1.852 3.05672 0
M  V30 617 C 55.4847 -1.1231 4.36689 0
M  V30 618 C 54.1467 -0.921689 4.72291 0
M  V30 619 C 56.4987 -0.607019 5.17653 0
M  V30 620 C 53.8267 -0.191996 5.86386 0
M  V30 621 C 56.1787 0.109241 6.32506 0
M  V30 622 C 54.8427 0.322073 6.66723 0
M  V30 623 H 54.1127 -0.353778 0.651093 0
M  V30 624 H 56.7597 -0.23634 1.90036 0
M  V30 625 H 55.0647 -2.64975 2.8861 0
M  V30 626 H 56.7617 -2.41635 3.20021 0
M  V30 627 H 53.3517 -1.29004 4.08725 0
M  V30 628 H 57.5357 -0.750153 4.90598 0
M  V30 629 H 52.7917 -0.0166949 6.11398 0
M  V30 630 H 56.9657 0.516737 6.9448 0
M  V30 631 H 54.5927 0.88944 7.54979 0
M  V30 632 N 56.1678 -1.49265 -0.50573 0
M  V30 633 C 57.4078 -1.60128 -1.27038 0
M  V30 634 C 57.7718 -0.279557 -1.89954 0
M  V30 635 O 58.9728 -0.263329 -2.67507 0
M  V30 636 C 57.2438 -2.72507 -2.31246 0
M  V30 637 S 58.8028 -3.0329 -3.17113 0
M  V30 638 H 55.6208 -0.564863 -0.4318 0
M  V30 639 H 58.2228 -1.86902 -0.573397 0
M  V30 640 H 56.9268 -3.67068 -1.83546 0
M  V30 641 H 56.4578 -2.4771 -3.05619 0
M  V30 642 H 58.4728 -2.44448 -4.31809 0
M  V30 643 N 57.6459 0.756429 -1.3826 0
M  V30 644 C 58.8709 1.55077 -1.37717 0
M  V30 645 C 59.2959 1.88073 0.03164 0
M  V30 646 O 58.6539 1.50364 1.01293 0
M  V30 647 C 58.7019 2.8283 -2.23695 0
M  V30 648 O 57.8059 3.77862 -1.6521 0
M  V30 649 H 57.1469 0.469152 -0.469885 0
M  V30 650 H 59.6769 0.935019 -1.81985 0
M  V30 651 H 59.6869 3.31783 -2.37453 0
M  V30 652 H 58.3619 2.58144 -3.2609 0
M  V30 653 H 56.9389 3.36555 -1.60578 0
M  V30 654 N 59.124 1.23083 0.984299 0
M  V30 655 C 60.087 1.00979 2.05757 0
M  V30 656 C 61.087 -0.0269573 1.60777 0
M  V30 657 O 62.277 0.212403 1.729 0
M  V30 658 C 59.409 0.527072 3.36801 0
M  V30 659 H 60.602 1.9622 2.26799 0
M  V30 660 H 58.155 1.05072 1.15714 0
M  V30 661 H 58.89 -0.429294 3.21446 0
M  V30 662 H 58.675 1.27515 3.70786 0
M  V30 663 H 60.165 0.392942 4.15747 0
M  V30 664 N 60.6021 -1.18246 1.0419 0
M  V30 665 C 61.5121 -2.25574 0.644476 0
M  V30 666 C 62.5281 -1.70845 -0.329826 0
M  V30 667 O 63.7041 -2.00554 -0.184443 0
M  V30 668 C 60.7691 -3.46697 0.014877 0
M  V30 669 C 59.8301 -4.16554 1.03834 0
M  V30 670 C 59.0631 -5.31894 0.438692 0
M  V30 671 O 59.2861 -5.65385 -0.754752 0
M  V30 672 O 58.2201 -5.90459 1.168 0
M  V30 673 H 62.0461 -2.61836 1.53869 0
M  V30 674 H 59.6311 -1.25352 0.812854 0
M  V30 675 H 61.5131 -4.20062 -0.335538 0
M  V30 676 H 60.1881 -3.12255 -0.853138 0
M  V30 677 H 59.0951 -3.45251 1.44057 0
M  V30 678 H 60.4281 -4.54998 1.87716 0
M  V30 679 N 62.0802 -0.821533 -1.34494 0
M  V30 680 C 63.3262 -0.418729 -1.99043 0
M  V30 681 C 63.6812 1.00672 -1.6396 0
M  V30 682 O 62.9742 1.69132 -0.900271 0
M  V30 683 C 63.1682 -0.556512 -3.53041 0
M  V30 684 C 62.9972 -1.9938 -4.03085 0
M  V30 685 C 61.7672 -2.62539 -4.31742 0
M  V30 686 C 63.9652 -2.96035 -4.20556 0
M  V30 687 N 61.9472 -3.97523 -4.67813 0
M  V30 688 C 63.3182 -4.15924 -4.59791 0
M  V30 689 C 65.3732 -2.9267 -4.02801 0
M  V30 690 C 64.0762 -5.32899 -4.83126 0
M  V30 691 C 66.1022 -4.08861 -4.27302 0
M  V30 692 C 65.4642 -5.275 -4.66822 0
M  V30 693 H 61.5632 -0.201299 -0.755647 0
M  V30 694 H 64.1472 -1.06594 -1.62929 0
M  V30 695 H 62.3182 0.0607924 -3.88352 0
M  V30 696 H 64.0502 -0.126842 -4.04501 0
M  V30 697 H 60.8052 -2.13789 -4.22601 0
M  V30 698 H 61.2292 -4.67061 -4.90085 0
M  V30 699 H 65.8712 -2.02088 -3.71376 0
M  V30 700 H 63.5892 -6.24041 -5.13418 0
M  V30 701 H 67.1752 -4.07654 -4.15101 0
M  V30 702 H 66.0552 -6.15913 -4.85408 0
M  V30 703 N 63.5583 1.46682 -0.576371 0
M  V30 704 C 64.9693 1.86112 -0.148091 0
M  V30 705 C 65.3203 1.48073 1.2872 0
M  V30 706 O 64.4453 0.892656 1.97131 0
M  V30 707 C 65.0403 3.37786 -0.261982 0
M  V30 708 C 63.5993 3.76235 0.111384 0
M  V30 709 C 62.7463 2.70713 -0.60083 0
M  V30 710 H 65.6973 1.37927 -0.78497 0
M  V30 711 H 65.7183 3.77007 0.514364 0
M  V30 712 H 65.2303 3.6544 -1.30671 0
M  V30 713 H 63.3313 3.54198 1.15649 0
M  V30 714 H 63.4443 4.78391 -0.26052 0
M  V30 715 H 61.8083 2.54666 -0.0417783 0
M  V30 716 H 62.5913 3.01208 -1.64708 0
M  V30 717 N 65.0364 0.313813 1.54444 0
M  V30 718 C 66.2644 -0.293918 2.04802 0
M  V30 719 C 66.6794 -1.46537 1.19047 0
M  V30 720 O 66.0364 -1.81182 0.218939 0
M  V30 721 C 66.0874 -0.737806 3.53891 0
M  V30 722 O 65.8084 0.387038 4.36387 0
M  V30 723 C 67.3094 -1.40936 4.203 0
M  V30 724 H 64.5294 -0.0620057 0.668129 0
M  V30 725 H 67.0734 0.457169 1.99324 0
M  V30 726 H 65.2284 -1.43889 3.59687 0
M  V30 727 H 65.6424 0.0391274 5.24485 0
M  V30 728 H 67.1164 -1.67099 5.26101 0
M  V30 729 H 67.5934 -2.35355 3.70816 0
M  V30 730 H 68.1994 -0.751117 4.18615 0
M  V30 731 N 66.5145 -1.57545 0.0417849 0
M  V30 732 C 67.7615 -1.92317 -0.634082 0
M  V30 733 C 68.0895 -0.919334 -1.71402 0
M  V30 734 O 67.3445 0.0698253 -1.95575 0
M  V30 735 C 67.6435 -3.33794 -1.27735 0
M  V30 736 C 67.3095 -4.49716 -0.326543 0
M  V30 737 C 65.9715 -4.81156 -0.0648814 0
M  V30 738 C 68.3235 -5.20182 0.325623 0
M  V30 739 C 65.6515 -5.80414 0.856539 0
M  V30 740 C 68.0035 -6.20424 1.23518 0
M  V30 741 C 66.6675 -6.50298 1.5056 0
M  V30 742 H 65.9375 -0.703736 -0.232027 0
M  V30 743 H 68.5845 -1.91205 0.106259 0
M  V30 744 H 66.8895 -3.31228 -2.09274 0
M  V30 745 H 68.5865 -3.57975 -1.80707 0
M  V30 746 H 65.1765 -4.25176 -0.540665 0
M  V30 747 H 69.3605 -4.96112 0.136546 0
M  V30 748 H 64.6165 -6.019 1.07363 0
M  V30 749 H 68.7905 -6.74141 1.74664 0
M  V30 750 H 66.4175 -7.27025 2.22123 0
M  V30 751 N 67.9926 0.231505 -1.5589 0
M  V30 752 C 68.9406 1.30649 -1.92441 0
M  V30 753 C 69.9346 1.49037 -0.805254 0
M  V30 754 O 71.1406 1.50329 -0.990007 0
M  V30 755 H 67.5156 0.437812 -0.611412 0
M  V30 756 H 69.4866 0.970973 -2.82161 0
M  V30 757 C 68.2356 2.65179 -2.24889 0
M  V30 758 H 67.5586 2.51835 -3.10514 0
M  V30 759 H 68.9986 3.39234 -2.54355 0
M  V30 760 C 67.4576 3.19439 -1.07054 0
M  V30 761 O 67.9876 4.00371 -0.326499 0
M  V30 762 N 66.1936 2.77675 -0.85703 0
M  V30 763 H 65.7406 2.11969 -1.46379 0
M  V30 764 H 65.6986 3.14321 -0.0703223 0
M  V30 765 N 69.4707 1.49531 0.497807 0
M  V30 766 C 70.7167 1.59415 1.25358 0
M  V30 767 C 71.0497 0.281422 1.9215 0
M  V30 768 O 70.3247 -0.715249 1.80871 0
M  V30 769 C 70.6077 2.75566 2.3181 0
M  V30 770 C 70.4607 4.16642 1.69498 0
M  V30 771 C 71.7797 2.87347 3.33346 0
M  V30 772 H 68.8987 0.580244 0.454408 0
M  V30 773 H 71.5407 1.81827 0.551262 0
M  V30 774 H 69.6907 2.56587 2.91711 0
M  V30 775 H 71.3627 4.47145 1.13399 0
M  V30 776 H 69.6057 4.22141 0.998978 0
M  V30 777 H 70.2767 4.93792 2.46725 0
M  V30 778 H 72.7527 3.04634 2.83438 0
M  V30 779 H 71.6287 3.70289 4.05188 0
M  V30 780 H 71.8897 1.96834 3.95865 0
M  V30 781 N 70.9488 -0.749086 1.3866 0
M  V30 782 C 72.1968 -1.50535 1.34847 0
M  V30 783 C 72.5178 -1.94909 -0.0595016 0
M  V30 784 O 71.7878 -1.67973 -1.00806 0
M  V30 785 H 70.3678 -0.558395 0.49619 0
M  V30 786 H 73.0298 -0.890165 1.73384 0
M  V30 787 H 72.1258 -2.39413 2.00219 0
M  V30 788 N 72.4269 -1.23603 -0.977757 0
M  V30 789 C 73.6729 -1.08136 -1.72274 0
M  V30 790 C 74.0279 0.377453 -1.88661 0
M  V30 791 O 73.3209 1.27552 -1.42972 0
M  V30 792 C 73.5149 -1.7433 -3.11999 0
M  V30 793 C 73.3439 -3.26498 -3.0924 0
M  V30 794 C 72.1139 -3.9567 -3.14282 0
M  V30 795 C 74.3119 -4.2323 -2.92201 0
M  V30 796 N 72.2939 -5.34799 -3.01436 0
M  V30 797 C 73.6649 -5.49289 -2.87544 0
M  V30 798 C 75.7199 -4.13931 -2.76705 0
M  V30 799 C 74.4229 -6.67116 -2.68978 0
M  V30 800 C 76.4489 -5.31424 -2.59504 0
M  V30 801 C 75.8109 -6.5641 -2.55548 0
M  V30 802 H 71.9099 -0.450247 -0.639376 0
M  V30 803 H 74.4939 -1.5637 -1.16002 0
M  V30 804 H 72.6649 -1.28624 -3.66484 0
M  V30 805 H 74.3969 -1.51815 -3.75146 0
M  V30 806 H 71.1519 -3.46767 -3.22567 0
M  V30 807 H 71.5759 -6.07748 -2.98281 0
M  V30 808 H 76.2179 -3.1807 -2.78552 0
M  V30 809 H 73.9359 -7.63109 -2.65876 0
M  V30 810 H 77.5219 -5.26072 -2.48474 0
M  V30 811 H 76.4019 -7.45795 -2.42405 0
M  V30 812 N 73.905 1.17692 -1.04816 0
M  V30 813 C 75.316 1.69501 -0.782698 0
M  V30 814 C 75.667 1.83456 0.695577 0
M  V30 815 O 74.792 1.51942 1.54086 0
M  V30 816 C 75.387 3.07874 -1.41419 0
M  V30 817 C 73.946 3.56864 -1.19686 0
M  V30 818 C 73.093 2.3322 -1.50012 0
M  V30 819 H 76.044 1.02262 -1.2136 0
M  V30 820 H 76.065 3.71528 -0.821428 0
M  V30 821 H 75.577 2.97685 -2.49009 0
M  V30 822 H 73.678 3.72337 -0.140043 0
M  V30 823 H 73.791 4.39851 -1.89916 0
M  V30 824 H 72.155 2.37501 -0.920071 0
M  V30 825 H 72.938 2.25644 -2.58727 0
M  V30 826 N 75.3831 0.828654 1.34056 0
M  V30 827 C 76.7991 0.515135 1.51058 0
M  V30 828 C 76.9991 -0.959581 1.77184 0
M  V30 829 O 76.0551 -1.74382 1.82612 0
M  V30 830 C 77.3681 1.37963 2.67183 0
M  V30 831 C 78.9161 1.37735 2.81066 0
M  V30 832 C 79.3911 2.22645 4.00241 0
M  V30 833 N 80.8821 2.203 4.07458 0
M  V30 834 C 81.6171 2.82744 4.98842 0
M  V30 835 N 81.1131 3.54201 5.9541 0
M  V30 836 N 82.9061 2.72268 4.91759 0
M  V30 837 H 75.0571 1.78343 1.15358 0
M  V30 838 H 77.3201 0.760304 0.566252 0
M  V30 839 H 77.0261 2.42714 2.54525 0
M  V30 840 H 76.9001 1.0484 3.62338 0
M  V30 841 H 79.2871 0.337593 2.93163 0
M  V30 842 H 79.3681 1.74859 1.86703 0
M  V30 843 H 79.0121 3.26674 3.88905 0
M  V30 844 H 78.9421 1.82869 4.93829 0
M  V30 845 H 81.4331 1.68327 3.38341 0
M  V30 846 H 81.7461 3.9908 6.61782 0
M  V30 847 H 80.0911 3.58308 5.95517 0
M  V30 848 H 83.2821 2.16014 4.15278 0
M  V30 849 H 83.4551 3.21219 5.62781 0
M  V30 850 N 76.8612 -1.46375 0.584142 0
M  V30 851 C 78.1382 -1.956 0.0033388 0
M  V30 852 C 78.5182 -1.52679 -1.45782 0
M  V30 853 O 77.8662 -0.77816 -2.14842 0
M  V30 854 C 78.0762 -3.48551 0.176891 0
M  V30 855 C 79.4242 -4.24576 0.0454609 0
M  V30 856 O 80.4482 -3.56043 0.105801 0
M  V30 857 O 79.3072 -5.46427 -0.0890376 0
M  V30 858 H 76.4012 -0.825547 -0.0490066 0
M  V30 859 H 78.9472 -1.56652 0.65256 0
M  V30 860 H 77.7192 -3.72683 1.1926 0
M  V30 861 H 77.3422 -3.94332 -0.508695 0
M  V30 862 N 78.3393 -0.321999 -1.54275 0
M  V30 863 C 79.5873 0.280489 -2.00144 0
M  V30 864 C 79.9083 1.52777 -1.21178 0
M  V30 865 O 79.1783 1.9338 -0.313187 0
M  V30 866 H 77.7583 0.106632 -0.73935 0
M  V30 867 H 80.4203 -0.438184 -1.8991 0
M  V30 868 H 79.5163 0.537972 -3.07428 0
M  V30 869 N 79.8174 1.5752 -0.0501392 0
M  V30 870 C 81.0454 1.96963 0.633492 0
M  V30 871 C 81.4604 0.927631 1.6444 0
M  V30 872 O 80.8174 -0.0882665 1.82286 0
M  V30 873 C 80.8684 3.36487 1.32132 0
M  V30 874 O 80.5894 4.36693 0.350894 0
M  V30 875 C 82.0904 3.90682 2.09481 0
M  V30 876 H 79.3104 0.648244 0.173266 0
M  V30 877 H 81.8544 2.0417 -0.116134 0
M  V30 878 H 80.0094 3.30434 2.02218 0
M  V30 879 H 80.4234 5.17702 0.841735 0
M  V30 880 H 81.8974 4.90591 2.5303 0
M  V30 881 H 82.3744 3.26053 2.94255 0
M  V30 882 H 82.9804 4.00069 1.44307 0
M  V30 883 N 81.2955 -0.223234 1.56011 0
M  V30 884 C 82.5425 -0.947875 1.78946 0
M  V30 885 C 82.8705 -1.844 0.618608 0
M  V30 886 O 82.1255 -1.91629 -0.397093 0
M  V30 887 C 82.4245 -1.81948 3.0762 0
M  V30 888 C 82.0905 -1.07672 4.37856 0
M  V30 889 C 80.7525 -0.871544 4.73242 0
M  V30 890 C 83.1045 -0.552081 5.18268 0
M  V30 891 C 80.4325 -0.129791 5.86556 0
M  V30 892 C 82.7845 0.17632 6.32354 0
M  V30 893 C 81.4485 0.39277 6.66343 0
M  V30 894 H 80.7185 -0.346852 0.654809 0
M  V30 895 H 83.3655 -0.216171 1.90276 0
M  V30 896 H 81.6705 -2.61899 2.91404 0
M  V30 897 H 83.3675 -2.38227 3.22566 0
M  V30 898 H 79.9575 -1.24662 4.1007 0
M  V30 899 H 84.1415 -0.698076 4.91366 0
M  V30 900 H 79.3975 0.048153 6.11381 0
M  V30 901 H 83.5715 0.590367 6.93893 0
M  V30 902 H 81.1985 0.969466 7.53993 0
M  V30 903 N 82.7736 -1.49793 -0.48987 0
M  V30 904 C 83.7216 -1.67783 -1.61095 0
M  V30 905 C 84.7156 -0.543683 -1.60438 0
M  V30 906 O 85.9216 -0.723647 -1.64813 0
M  V30 907 H 82.2966 -0.529255 -0.534222 0
M  V30 908 H 84.2676 -2.61861 -1.43078 0
M  V30 909 C 83.0166 -1.77191 -2.99164 0
M  V30 910 H 82.3396 -2.63841 -3.0038 0
M  V30 911 H 83.7796 -1.93809 -3.77113 0
M  V30 912 C 82.2386 -0.519203 -3.32875 0
M  V30 913 O 82.7686 0.350124 -4.00171 0
M  V30 914 N 80.9746 -0.378816 -2.8812 0
M  V30 915 H 80.5216 -1.08725 -2.33531 0
M  V30 916 H 80.4796 0.458239 -3.11043 0
M  V30 917 N 84.2517 0.741722 -1.39055 0
M  V30 918 C 85.6677 1.04638 -1.20512 0
M  V30 919 C 85.8677 2.01405 -0.0620218 0
M  V30 920 O 84.9237 2.45547 0.588457 0
M  V30 921 C 86.2367 1.6151 -2.53643 0
M  V30 922 C 87.7847 1.73623 -2.6043 0
M  V30 923 C 88.2597 2.33906 -3.93767 0
M  V30 924 N 89.7507 2.41323 -3.9537 0
M  V30 925 C 90.4857 2.88888 -4.95309 0
M  V30 926 N 89.9817 3.36401 -6.05645 0
M  V30 927 N 91.7747 2.88037 -4.82692 0
M  V30 928 H 83.9257 0.0998155 -2.12165 0
M  V30 929 H 86.1887 0.106907 -0.941953 0
M  V30 930 H 85.8947 0.978739 -3.37807 0
M  V30 931 H 85.7687 2.60411 -2.72885 0
M  V30 932 H 88.1557 2.36384 -1.76655 0
M  V30 933 H 88.2367 0.733945 -2.45045 0
M  V30 934 H 87.8807 1.71776 -4.7797 0
M  V30 935 H 87.8107 3.34799 -4.06469 0
M  V30 936 H 90.3017 2.07734 -3.15682 0
M  V30 937 H 90.6147 3.71186 -6.77821 0
M  V30 938 H 88.9597 3.34427 -6.09248 0
M  V30 939 H 92.1507 2.50237 -3.95599 0
M  V30 940 H 92.3237 3.24792 -5.60726 0
M  V30 941 N 85.7298 1.2412 0.971189 0
M  V30 942 C 87.0068 0.986867 1.6888 0
M  V30 943 C 87.3868 -0.491857 2.0529 0
M  V30 944 O 86.7348 -1.46531 1.75331 0
M  V30 945 C 86.9448 1.9063 2.92338 0
M  V30 946 C 88.2928 2.17515 3.64654 0
M  V30 947 O 89.3168 1.88254 3.02388 0
M  V30 948 O 88.1758 2.6719 4.7673 0
M  V30 949 H 85.2698 0.372944 0.738134 0
M  V30 950 H 87.8158 1.35203 1.02559 0
M  V30 951 H 86.5878 2.90552 2.62097 0
M  V30 952 H 86.2108 1.54408 3.66393 0
M  V30 953 N 87.2079 -1.17134 1.05439 0
M  V30 954 C 88.1379 -2.2342 0.678649 0
M  V30 955 C 89.1189 -1.66971 -0.32476 0
M  V30 956 O 90.3039 -1.93149 -0.201802 0
M  V30 957 C 87.4339 -3.47256 0.0552099 0
M  V30 958 C 86.3879 -4.16543 0.98365 0
M  V30 959 C 85.7139 -5.34231 0.223961 0
M  V30 960 C 87.0139 -4.68495 2.3089 0
M  V30 961 H 88.7079 -2.55105 1.56722 0
M  V30 962 H 86.2539 -1.2262 0.754998 0
M  V30 963 H 88.2069 -4.20828 -0.21946 0
M  V30 964 H 86.9309 -3.14846 -0.868319 0
M  V30 965 H 85.5899 -3.44887 1.24293 0
M  V30 966 H 85.2379 -4.98071 -0.702412 0
M  V30 967 H 84.9379 -5.81527 0.842627 0
M  V30 968 H 86.4619 -6.10585 -0.0433671 0
M  V30 969 H 87.8759 -5.33691 2.09396 0
M  V30 970 H 86.2729 -5.26379 2.88176 0
M  V30 971 H 87.3429 -3.85169 2.94572 0
M  V30 972 N 88.686 -0.835752 -1.33615 0
M  V30 973 C 89.935 -0.426289 -1.97144 0
M  V30 974 C 90.248 1.01912 -1.66953 0
M  V30 975 O 91.454 1.53311 -2.24072 0
M  V30 976 C 89.91 -0.711321 -3.52801 0
M  V30 977 C 89.518 -2.1712 -3.91871 0
M  V30 978 C 91.262 -0.368654 -4.22896 0
M  V30 979 C 89.169 -2.40044 -5.40493 0
M  V30 980 H 88.099 -0.15567 -0.737755 0
M  V30 981 H 90.75 -1.0239 -1.52278 0
M  V30 982 H 89.132 -0.0433766 -3.95976 0
M  V30 983 H 90.306 -2.87936 -3.59763 0
M  V30 984 H 88.621 -2.47654 -3.34749 0
M  V30 985 H 91.218 -0.517601 -5.32189 0
M  V30 986 H 91.561 0.688078 -4.10574 0
M  V30 987 H 92.094 -0.991702 -3.8524 0
M  V30 988 H 88.833 -3.44271 -5.57815 0
M  V30 989 H 88.353 -1.73785 -5.74072 0
M  V30 990 H 90.032 -2.23042 -6.0734 0
M  V30 991 N 90.1641 1.46063 -0.591896 0
M  V30 992 C 91.3921 2.06717 -0.0868936 0
M  V30 993 C 91.8071 1.43916 1.22203 0
M  V30 994 O 91.1641 0.547698 1.74088 0
M  V30 995 C 91.2151 3.6142 0.0758725 0
M  V30 996 O 90.9361 4.21874 -1.18126 0
M  V30 997 C 92.4371 4.39025 0.61416 0
M  V30 998 H 89.6571 0.668162 -0.0616518 0
M  V30 999 H 92.2011 1.8755 -0.815175 0
M  V30 1000 H 90.3561 3.79983 0.754413 0
M  V30 1001 H 90.7701 5.14861 -1.00092 0
M  V30 1002 H 92.2441 5.4783 0.677193 0
M  V30 1003 H 92.7211 4.07708 1.63312 0
M  V30 1004 H 93.3271 4.2529 -0.0298142 0
M  V30 1005 N 91.6422 0.330177 1.54103 0
M  V30 1006 C 92.5742 -0.566902 2.22079 0
M  V30 1007 C 93.5872 -1.07462 1.22294 0
M  V30 1008 O 94.7762 -0.987065 1.48726 0
M  V30 1009 C 91.8762 -1.79138 2.87685 0
M  V30 1010 C 91.0492 -1.42123 4.13666 0
M  V30 1011 C 90.1082 -2.50394 4.62806 0
M  V30 1012 O 89.1342 -2.14261 5.27334 0
M  V30 1013 N 90.3362 -3.81433 4.37595 0
M  V30 1014 H 93.1012 0.0151844 2.99696 0
M  V30 1015 H 90.6622 0.153681 1.61169 0
M  V30 1016 H 92.6542 -2.50975 3.1748 0
M  V30 1017 H 91.2242 -2.28115 2.13734 0
M  V30 1018 H 90.4442 -0.534201 3.90564 0
M  V30 1019 H 91.7322 -1.14971 4.9564 0
M  V30 1020 H 91.1302 -4.13584 3.8596 0
M  V30 1021 H 89.6872 -4.4948 4.72029 0
M  V30 1022 N 93.1203 -1.57491 0.0584922 0
M  V30 1023 C 94.3663 -1.93264 -0.614558 0
M  V30 1024 C 94.6993 -0.937717 -1.7006 0
M  V30 1025 O 93.9743 0.0351652 -1.94468 0
M  V30 1026 C 94.2573 -3.3938 -1.20386 0
M  V30 1027 C 94.1103 -4.49625 -0.125375 0
M  V30 1028 C 95.4293 -3.86039 -2.11334 0
M  V30 1029 H 92.5483 -0.702791 -0.221933 0
M  V30 1030 H 95.1903 -1.8961 0.12175 0
M  V30 1031 H 93.3403 -3.42626 -1.83139 0
M  V30 1032 H 95.0123 -4.58506 0.506971 0
M  V30 1033 H 93.2553 -4.30354 0.545672 0
M  V30 1034 H 93.9263 -5.48967 -0.577861 0
M  V30 1035 H 96.4023 -3.84716 -1.58534 0
M  V30 1036 H 95.2783 -4.88914 -2.49507 0
M  V30 1037 H 95.5393 -3.23215 -3.01636 0
M  V30 1038 N 94.5984 0.214957 -1.56127 0
M  V30 1039 C 95.5454 1.26642 -1.92952 0
M  V30 1040 C 96.5154 1.46244 -0.78753 0
M  V30 1041 O 97.7004 1.59704 -1.04399 0
M  V30 1042 C 94.8404 2.6104 -2.25726 0
M  V30 1043 C 93.9534 2.49183 -3.52891 0
M  V30 1044 C 93.0884 3.76149 -3.7508 0
M  V30 1045 C 92.1274 3.59041 -4.95738 0
M  V30 1046 N 91.2644 4.77972 -5.14283 0
M  V30 1047 H 96.1044 0.945384 -2.82607 0
M  V30 1048 H 93.6414 0.455489 -1.3987 0
M  V30 1049 H 95.5994 3.39313 -2.42739 0
M  V30 1050 H 94.2294 2.91227 -1.39236 0
M  V30 1051 H 93.2814 1.6231 -3.44034 0
M  V30 1052 H 94.5934 2.32466 -4.41318 0
M  V30 1053 H 93.7474 4.62865 -3.92226 0
M  V30 1054 H 92.4864 3.95799 -2.84947 0
M  V30 1055 H 91.4914 2.7071 -4.78535 0
M  V30 1056 H 92.7164 3.40856 -5.87362 0
M  V30 1057 H 90.6624 4.97923 -4.27093 0
M  V30 1058 H 90.5794 4.64006 -5.96853 0
M  V30 1059 H 91.8474 5.66096 -5.35869 0
M  V30 1060 N 96.0765 1.50051 0.48192 0
M  V30 1061 C 97.3255 1.59741 1.23149 0
M  V30 1062 C 97.6385 0.298163 1.93314 0
M  V30 1063 O 98.8445 0.273835 2.70116 0
M  V30 1064 C 97.3005 2.81926 2.23708 0
M  V30 1065 C 96.9085 4.18685 1.59396 0
M  V30 1066 C 98.6525 3.00956 2.99375 0
M  V30 1067 C 96.5595 5.3207 2.58178 0
M  V30 1068 H 95.4895 0.594838 0.46334 0
M  V30 1069 H 98.1405 1.76467 0.503169 0
M  V30 1070 H 96.5225 2.58736 2.99786 0
M  V30 1071 H 97.6965 4.52088 0.891811 0
M  V30 1072 H 96.0115 4.05171 0.960503 0
M  V30 1073 H 98.6085 3.82836 3.73283 0
M  V30 1074 H 98.9515 2.12258 3.58123 0
M  V30 1075 H 99.4845 3.24277 2.30411 0
M  V30 1076 H 96.2235 6.22888 2.04184 0
M  V30 1077 H 95.7435 5.03098 3.26577 0
M  V30 1078 H 97.4225 5.62196 3.20225 0
M  V30 1079 N 97.5546 -0.734337 1.39446 0
M  V30 1080 C 98.5016 -1.84835 1.38219 0
M  V30 1081 C 99.4716 -1.64331 0.24179 0
M  V30 1082 O 100.657 -1.85728 0.437002 0
M  V30 1083 C 97.7966 -3.22355 1.23212 0
M  V30 1084 C 96.9096 -3.5456 2.46801 0
M  V30 1085 C 96.0446 -4.81485 2.24377 0
M  V30 1086 C 95.0836 -5.06536 3.43639 0
M  V30 1087 N 94.2206 -6.24665 3.20528 0
M  V30 1088 H 99.0606 -1.85219 2.33448 0
M  V30 1089 H 96.5976 -0.905039 1.15963 0
M  V30 1090 H 98.5556 -4.0174 1.12522 0
M  V30 1091 H 97.1856 -3.21248 0.316121 0
M  V30 1092 H 96.2376 -2.69872 2.68092 0
M  V30 1093 H 97.5496 -3.6899 3.3563 0
M  V30 1094 H 96.7036 -5.68852 2.10933 0
M  V30 1095 H 95.4426 -4.6923 1.32944 0
M  V30 1096 H 94.4476 -4.17632 3.5758 0
M  V30 1097 H 95.6726 -5.20676 4.35974 0
M  V30 1098 H 93.6186 -6.13696 2.3176 0
M  V30 1099 H 93.5356 -6.39685 4.02913 0
M  V30 1100 H 94.8036 -7.14868 3.10779 0
M  V30 1101 N 99.0327 -1.24633 -0.964593 0
M  V30 1102 C 100.279 -1.08949 -1.71049 0
M  V30 1103 C 100.612 0.370302 -1.90637 0
M  V30 1104 O 99.8867 1.27349 -1.47011 0
M  V30 1105 C 100.17 -1.83329 -3.0994 0
M  V30 1106 C 100.023 -3.37077 -2.97824 0
M  V30 1107 C 101.342 -1.60846 -4.09654 0
M  V30 1108 H 98.4607 -0.397178 -0.620821 0
M  V30 1109 H 101.103 -1.5334 -1.12191 0
M  V30 1110 H 99.2527 -1.45597 -3.60186 0
M  V30 1111 H 100.925 -3.84425 -2.5498 0
M  V30 1112 H 99.1677 -3.65298 -2.33965 0
M  V30 1113 H 99.8387 -3.84324 -3.96231 0
M  V30 1114 H 102.315 -1.93674 -3.68279 0
M  V30 1115 H 101.191 -2.1534 -5.04896 0
M  V30 1116 H 101.452 -0.547434 -4.38698 0
M  V30 1117 N 100.511 1.16574 -1.06058 0
M  V30 1118 C 101.758 1.87047 -0.775873 0
M  V30 1119 C 102.086 1.81562 0.697534 0
M  V30 1120 O 101.341 1.22445 1.52662 0
M  V30 1121 C 101.64 3.36195 -1.21275 0
M  V30 1122 C 101.306 3.6188 -2.68986 0
M  V30 1123 C 99.9678 3.68599 -3.09335 0
M  V30 1124 C 102.32 3.72648 -3.64394 0
M  V30 1125 C 99.6478 3.83584 -4.43937 0
M  V30 1126 C 102 3.89154 -4.98741 0
M  V30 1127 C 100.664 3.94114 -5.3873 0
M  V30 1128 H 99.9338 0.684452 -0.283912 0
M  V30 1129 H 102.581 1.37853 -1.32925 0
M  V30 1130 H 100.886 3.87505 -0.578528 0
M  V30 1131 H 102.583 3.89103 -0.969542 0
M  V30 1132 H 99.1728 3.57281 -2.36744 0
M  V30 1133 H 103.357 3.66769 -3.34356 0
M  V30 1134 H 98.6128 3.85677 -4.74409 0
M  V30 1135 H 102.787 3.96427 -5.72554 0
M  V30 1136 H 100.414 4.05478 -6.43033 0
M  V30 1137 N 101.989 0.842826 1.3317 0
M  V30 1138 C 103.214 0.453129 2.02389 0
M  V30 1139 C 103.639 -0.939105 1.6298 0
M  V30 1140 O 102.997 -1.61472 0.8244 0
M  V30 1141 C 103.045 0.586094 3.55805 0
M  V30 1142 O 102.149 -0.386029 4.10589 0
M  V30 1143 H 101.49 0.183664 0.638094 0
M  V30 1144 H 104.02 1.13875 1.69981 0
M  V30 1145 H 104.03 0.469209 4.05293 0
M  V30 1146 H 102.705 1.6014 3.83833 0
M  V30 1147 H 101.282 -0.226371 3.72212 0
M  V30 1148 N 103.467 -1.45747 0.599634 0
M  V30 1149 C 104.878 -1.85853 0.177681 0
M  V30 1150 C 105.229 -1.50102 -1.26348 0
M  V30 1151 O 104.354 -0.923905 -1.95686 0
M  V30 1152 C 104.949 -3.37326 0.315688 0
M  V30 1153 C 103.508 -3.76365 -0.0515144 0
M  V30 1154 C 102.655 -2.69722 0.643822 0
M  V30 1155 H 105.606 -1.36661 0.806814 0
M  V30 1156 H 105.627 -3.77778 -0.454321 0
M  V30 1157 H 105.139 -3.63315 1.36468 0
M  V30 1158 H 103.24 -3.55993 -1.09999 0
M  V30 1159 H 103.353 -4.77916 0.336594 0
M  V30 1160 H 101.717 -2.54567 0.0822881 0
M  V30 1161 H 102.5 -2.98549 1.6948 0
M  V30 1162 N 104.945 -0.338344 -1.53925 0
M  V30 1163 C 106.193 0.259245 -2.0043 0
M  V30 1164 C 106.514 1.51484 -1.22791 0
M  V30 1165 O 105.784 1.93037 -0.33368 0
M  V30 1166 H 104.364 0.0987845 -0.740439 0
M  V30 1167 H 107.026 -0.458302 -1.89435 0
M  V30 1168 H 106.122 0.505334 -3.07982 0
M  V30 1169 N 106.423 1.57458 -0.0668435 0
M  V30 1170 C 107.834 1.80776 0.466558 0
M  V30 1171 C 108.185 0.980361 1.69951 0
M  V30 1172 O 107.31 0.201441 2.1546 0
M  V30 1173 C 107.905 3.27881 0.85321 0
M  V30 1174 C 106.464 3.52062 1.3315 0
M  V30 1175 C 105.611 2.75513 0.314264 0
M  V30 1176 H 108.562 1.5598 -0.292588 0
M  V30 1177 H 108.583 3.39659 1.715 0
M  V30 1178 H 108.095 3.88075 -0.0443439 0
M  V30 1179 H 106.196 2.97167 2.24772 0
M  V30 1180 H 106.309 4.60762 1.31285 0
M  V30 1181 H 104.673 2.42123 0.790492 0
M  V30 1182 H 105.456 3.38442 -0.575477 0
M  V30 1183 N 107.901 -0.206675 1.56239 0
M  V30 1184 C 108.851 -1.26 1.90021 0
M  V30 1185 C 109.835 -1.41566 0.764721 0
M  V30 1186 O 111.027 -1.44131 1.02739 0
M  V30 1187 C 108.156 -2.6073 2.23326 0
M  V30 1188 C 107.242 -2.49005 3.43304 0
M  V30 1189 N 107.633 -2.06946 4.61527 0
M  V30 1190 C 105.931 -2.79927 3.47213 0
M  V30 1191 C 106.632 -2.06832 5.43687 0
M  V30 1192 N 105.608 -2.47892 4.83788 0
M  V30 1193 H 109.41 -0.925955 2.78932 0
M  V30 1194 H 106.924 -0.415172 1.57003 0
M  V30 1195 H 108.921 -3.36798 2.45708 0
M  V30 1196 H 107.581 -2.94968 1.35735 0
M  V30 1197 H 108.592 -1.77839 4.86409 0
M  V30 1198 H 105.269 -3.18438 2.70006 0
M  V30 1199 H 106.659 -1.76312 6.48354 0
M  V30 1200 N 109.379 -1.50304 -0.473955 0
M  V30 1201 C 110.627 -1.60832 -1.22382 0
M  V30 1202 C 110.948 -0.30939 -1.9253 0
M  V30 1203 O 110.218 0.67296 -1.83978 0
M  V30 1204 H 108.798 -0.592652 -0.454723 0
M  V30 1205 H 111.46 -1.87068 -0.546968 0
M  V30 1206 H 110.556 -2.41803 -1.97327 0
M  V30 1207 N 110.857 0.726932 -1.39834 0
M  V30 1208 C 111.807 1.83232 -1.35683 0
M  V30 1209 C 112.791 1.59155 -0.236295 0
M  V30 1210 O 113.983 1.70522 -0.474488 0
M  V30 1211 C 111.112 3.21246 -1.21062 0
M  V30 1212 C 110.198 3.51125 -2.37849 0
M  V30 1213 N 110.589 3.51889 -3.63329 0
M  V30 1214 C 108.887 3.81527 -2.30982 0
M  V30 1215 C 109.588 3.79791 -4.40606 0
M  V30 1216 N 108.564 3.97971 -3.70297 0
M  V30 1217 H 112.366 1.8214 -2.30656 0
M  V30 1218 H 109.88 0.925545 -1.33444 0
M  V30 1219 H 111.877 4.00387 -1.16171 0
M  V30 1220 H 110.537 3.23572 -0.270458 0
M  V30 1221 H 111.548 3.33008 -3.96643 0
M  V30 1222 H 108.225 3.91411 -1.45272 0
M  V30 1223 H 109.615 3.86783 -5.49408 0
M  V30 1224 N 112.336 1.25143 0.95797 0
M  V30 1225 C 113.747 1.08851 1.51685 0
M  V30 1226 C 114.098 -0.33687 1.93286 0
M  V30 1227 O 113.223 -1.22644 1.7829 0
M  V30 1228 C 113.818 1.96978 2.75654 0
M  V30 1229 C 112.377 1.84881 3.27866 0
M  V30 1230 C 111.524 1.91329 2.0072 0
M  V30 1231 H 114.475 1.38478 0.77522 0
M  V30 1232 H 114.496 1.5078 3.4935 0
M  V30 1233 H 114.008 3.00712 2.45345 0
M  V30 1234 H 112.109 0.840182 3.63004 0
M  V30 1235 H 112.222 2.6951 3.96107 0
M  V30 1236 H 110.586 1.35174 2.15871 0
M  V30 1237 H 111.369 2.96661 1.72764 0
M  V30 1238 N 113.814 -1.1601 1.06675 0
M  V30 1239 C 115.091 -1.82679 0.699114 0
M  V30 1240 C 115.471 -1.94559 -0.819137 0
M  V30 1241 O 114.819 -1.49169 -1.73092 0
M  V30 1242 C 115.029 -3.19445 1.40555 0
M  V30 1243 C 116.377 -3.95171 1.55323 0
M  V30 1244 O 117.401 -3.28976 1.36577 0
M  V30 1245 O 116.26 -5.13833 1.86112 0
M  V30 1246 H 113.354 -0.788954 0.247951 0
M  V30 1247 H 115.9 -1.23179 1.16726 0
M  V30 1248 H 114.672 -3.05856 2.44065 0
M  V30 1249 H 114.295 -3.86625 0.927733 0
M  V30 1250 N 115.292 -0.849877 -1.32721 0
M  V30 1251 C 116.224 -0.248332 -2.27851 0
M  V30 1252 C 117.237 0.577218 -1.52224 0
M  V30 1253 O 118.426 0.402489 -1.73903 0
M  V30 1254 C 115.526 0.668107 -3.32249 0
M  V30 1255 C 114.699 -0.120534 -4.37234 0
M  V30 1256 C 113.758 0.720932 -5.21238 0
M  V30 1257 O 112.784 0.156166 -5.68986 0
M  V30 1258 N 113.986 2.03647 -5.43607 0
M  V30 1259 H 116.751 -1.06575 -2.80111 0
M  V30 1260 H 114.312 -0.709395 -1.45531 0
M  V30 1261 H 116.304 1.23627 -3.85355 0
M  V30 1262 H 114.874 1.38621 -2.80184 0
M  V30 1263 H 114.094 -0.870108 -3.84477 0
M  V30 1264 H 115.382 -0.662406 -5.0447 0
M  V30 1265 H 114.78 2.51871 -5.06535 0
M  V30 1266 H 113.337 2.55287 -5.99727 0
M  V30 1267 N 116.77 1.45427 -0.607355 0
M  V30 1268 C 118.016 2.0254 -0.102607 0
M  V30 1269 C 118.349 1.47478 1.26348 0
M  V30 1270 O 117.624 0.64939 1.83339 0
M  V30 1271 C 117.907 3.60044 -0.0634347 0
M  V30 1272 C 117.76 4.2544 -1.46017 0
M  V30 1273 C 119.079 4.35646 0.624514 0
M  V30 1274 H 116.198 0.73598 -0.0387607 0
M  V30 1275 H 118.84 1.73284 -0.779282 0
M  V30 1276 H 116.99 3.85101 0.512808 0
M  V30 1277 H 118.662 4.11569 -2.08347 0
M  V30 1278 H 116.905 3.83849 -2.02094 0
M  V30 1279 H 117.576 5.34342 -1.385 0
M  V30 1280 H 120.052 4.15882 0.134723 0
M  V30 1281 H 118.928 5.45376 0.621028 0
M  V30 1282 H 119.189 4.08501 1.69055 0
M  V30 1283 N 118.248 0.346503 1.53744 0
M  V30 1284 C 119.659 -0.136779 1.86198 0
M  V30 1285 C 120.01 -1.49749 1.26766 0
M  V30 1286 O 119.135 -2.08417 0.582355 0
M  V30 1287 C 119.73 -0.254966 3.37839 0
M  V30 1288 C 118.289 -0.682482 3.70161 0
M  V30 1289 C 117.436 0.181981 2.76702 0
M  V30 1290 H 120.387 0.565994 1.48264 0
M  V30 1291 H 120.408 -1.08195 3.64793 0
M  V30 1292 H 119.92 0.735526 3.81066 0
M  V30 1293 H 118.021 -1.68189 3.3248 0
M  V30 1294 H 118.134 -0.470326 4.76786 0
M  V30 1295 H 116.498 -0.34615 2.52337 0
M  V30 1296 H 117.281 1.16966 3.2276 0
M  V30 1297 N 119.726 -1.57421 0.075193 0
M  V30 1298 C 120.956 -1.97659 -0.601203 0
M  V30 1299 C 121.364 -0.952427 -1.63479 0
M  V30 1300 O 120.707 0.0688241 -1.83571 0
M  V30 1301 C 120.769 -3.34218 -1.32434 0
M  V30 1302 C 120.433 -4.5484 -0.443826 0
M  V30 1303 C 121.43 -5.19034 0.299969 0
M  V30 1304 C 119.115 -5.00952 -0.367709 0
M  V30 1305 C 121.109 -6.27695 1.10807 0
M  V30 1306 C 118.796 -6.09484 0.444058 0
M  V30 1307 C 119.794 -6.72719 1.18061 0
M  V30 1308 O 119.482 -7.79161 1.97898 0
M  V30 1309 H 119.214 -0.65494 -0.167422 0
M  V30 1310 H 121.768 -2.04886 0.145157 0
M  V30 1311 H 119.998 -3.23615 -2.11685 0
M  V30 1312 H 121.687 -3.59038 -1.89331 0
M  V30 1313 H 122.453 -4.84351 0.250776 0
M  V30 1314 H 118.332 -4.51509 -0.930638 0
M  V30 1315 H 121.876 -6.76982 1.68347 0
M  V30 1316 H 117.773 -6.43601 0.494803 0
M  V30 1317 H 118.541 -7.96055 1.90367 0
M  V30 1318 N 121.204 0.198386 -1.56346 0
M  V30 1319 C 122.453 0.917451 -1.79627 0
M  V30 1320 C 122.766 1.8456 -0.64784 0
M  V30 1321 O 123.972 2.60504 -0.764859 0
M  V30 1322 C 122.428 1.68175 -3.18191 0
M  V30 1323 C 122.036 0.798589 -4.40825 0
M  V30 1324 C 123.78 2.39065 -3.50782 0
M  V30 1325 C 121.687 1.56157 -5.70411 0
M  V30 1326 H 120.617 0.346317 -0.669762 0
M  V30 1327 H 123.268 0.170801 -1.82703 0
M  V30 1328 H 121.65 2.47216 -3.09354 0
M  V30 1329 H 122.824 0.0470665 -4.60776 0
M  V30 1330 H 121.139 0.200686 -4.15916 0
M  V30 1331 H 123.736 2.96692 -4.44835 0
M  V30 1332 H 124.079 3.13091 -2.74371 0
M  V30 1333 H 124.612 1.66993 -3.61052 0
M  V30 1334 H 121.351 0.864142 -6.49779 0
M  V30 1335 H 120.871 2.2871 -5.54483 0
M  V30 1336 H 122.55 2.11622 -6.11412 0
M  V30 1337 N 122.682 1.50554 0.465978 0
M  V30 1338 C 123.928 1.62038 1.21949 0
M  V30 1339 C 124.261 0.322116 1.9151 0
M  V30 1340 O 123.536 -0.676723 1.82348 0
M  V30 1341 C 123.819 2.80421 2.25912 0
M  V30 1342 C 123.672 4.20144 1.60622 0
M  V30 1343 C 124.991 2.94354 3.27176 0
M  V30 1344 H 122.11 0.589752 0.441998 0
M  V30 1345 H 124.752 1.82956 0.51257 0
M  V30 1346 H 122.902 2.62717 2.86203 0
M  V30 1347 H 124.574 4.49449 1.03889 0
M  V30 1348 H 122.817 4.24165 0.909211 0
M  V30 1349 H 123.488 4.98914 2.36196 0
M  V30 1350 H 125.964 3.10578 2.76913 0
M  V30 1351 H 124.84 3.788 3.97242 0
M  V30 1352 H 125.101 2.05186 3.916 0
M  V30 1353 N 124.16 -0.719506 1.40217 0
M  V30 1354 C 125.388 -1.50864 1.41589 0
M  V30 1355 C 125.803 -1.88794 0.0145275 0
M  V30 1356 O 125.16 -1.55174 -0.960594 0
M  V30 1357 C 125.211 -2.78646 2.30302 0
M  V30 1358 O 124.932 -2.42321 3.64983 0
M  V30 1359 C 126.433 -3.72569 2.40224 0
M  V30 1360 H 123.653 -0.465709 0.48307 0
M  V30 1361 H 126.197 -0.88785 1.84221 0
M  V30 1362 H 124.352 -3.37019 1.91042 0
M  V30 1363 H 124.766 -3.24514 4.12057 0
M  V30 1364 H 126.24 -4.5908 3.06512 0
M  V30 1365 H 126.717 -4.15403 1.42608 0
M  V30 1366 H 127.323 -3.20109 2.80019 0
M  V30 1367 N 125.638 -1.25649 -0.95132 0
M  V30 1368 C 126.884 -1.11766 -1.69941 0
M  V30 1369 C 127.239 0.33735 -1.89419 0
M  V30 1370 O 126.532 1.24491 -1.45645 0
M  V30 1371 C 126.726 -1.80909 -3.08231 0
M  V30 1372 C 126.555 -3.32984 -3.02245 0
M  V30 1373 C 125.325 -4.02247 -3.05819 0
M  V30 1374 C 127.523 -4.29332 -2.83157 0
M  V30 1375 N 125.505 -5.41072 -2.90024 0
M  V30 1376 C 126.876 -5.55265 -2.75828 0
M  V30 1377 C 128.931 -4.19707 -2.67863 0
M  V30 1378 C 127.634 -6.72671 -2.54767 0
M  V30 1379 C 129.66 -5.36809 -2.48173 0
M  V30 1380 C 129.022 -6.61683 -2.41567 0
M  V30 1381 H 125.121 -0.463708 -0.629682 0
M  V30 1382 H 127.705 -1.58796 -1.12659 0
M  V30 1383 H 125.876 -1.36369 -3.63673 0
M  V30 1384 H 127.608 -1.59739 -3.71841 0
M  V30 1385 H 124.363 -3.53531 -3.15139 0
M  V30 1386 H 124.787 -6.13938 -2.85323 0
M  V30 1387 H 129.429 -3.23907 -2.71743 0
M  V30 1388 H 127.147 -7.68577 -2.49629 0
M  V30 1389 H 130.733 -5.31224 -2.37259 0
M  V30 1390 H 129.613 -7.50768 -2.26531 0
M  V30 1391 N 127.117 1.15442 -1.07289 0
M  V30 1392 C 128.027 2.23786 -0.704057 0
M  V30 1393 C 129.043 1.7166 0.284413 0
M  V30 1394 O 130.219 2.00972 0.131205 0
M  V30 1395 C 127.284 3.46535 -0.106792 0
M  V30 1396 C 126.345 4.13654 -1.14842 0
M  V30 1397 C 125.578 5.30544 -0.57956 0
M  V30 1398 O 125.801 5.67187 0.604585 0
M  V30 1399 O 124.735 5.87154 -1.32414 0
M  V30 1400 H 128.561 2.57664 -1.60757 0
M  V30 1401 H 126.146 1.23152 -0.845803 0
M  V30 1402 H 128.028 4.20804 0.224048 0
M  V30 1403 H 126.703 3.14407 0.770049 0
M  V30 1404 H 125.61 3.4131 -1.5316 0
M  V30 1405 H 126.943 4.49861 -1.99714 0
M  V30 1406 N 128.595 0.856903 1.32268 0
M  V30 1407 C 129.558 0.308171 2.27119 0
M  V30 1408 C 130.558 -0.533421 1.51695 0
M  V30 1409 O 131.748 -0.344607 1.70757 0
M  V30 1410 C 128.88 -0.563757 3.36206 0
M  V30 1411 H 130.073 1.14535 2.77167 0
M  V30 1412 H 127.626 0.631421 1.42978 0
M  V30 1413 H 128.361 -1.42266 2.91429 0
M  V30 1414 H 128.146 0.0386749 3.92081 0
M  V30 1415 H 129.636 -0.940386 4.06874 0
M  V30 1416 N 130.073 -1.45103 0.615059 0
M  V30 1417 C 131.003 -2.33339 -0.0865619 0
M  V30 1418 C 131.984 -1.4727 -0.851209 0
M  V30 1419 O 133.169 -1.76026 -0.820281 0
M  V30 1420 C 130.299 -3.30095 -1.07956 0
M  V30 1421 C 129.253 -4.25858 -0.427628 0
M  V30 1422 C 128.579 -5.12361 -1.5294 0
M  V30 1423 C 129.879 -5.18165 0.655944 0
M  V30 1424 H 131.573 -2.92254 0.650224 0
M  V30 1425 H 129.119 -1.40532 0.314138 0
M  V30 1426 H 131.072 -3.90698 -1.57901 0
M  V30 1427 H 129.796 -2.69355 -1.84703 0
M  V30 1428 H 128.455 -3.66564 0.0510292 0
M  V30 1429 H 128.103 -4.47984 -2.28734 0
M  V30 1430 H 127.803 -5.77238 -1.09865 0
M  V30 1431 H 129.327 -5.75833 -2.03098 0
M  V30 1432 H 130.741 -5.72796 0.240257 0
M  V30 1433 H 129.138 -5.91559 1.00888 0
M  V30 1434 H 130.208 -4.60144 1.52957 0
M  V30 1435 N 131.551 -0.354651 -1.53558 0
M  V30 1436 C 132.514 0.484566 -2.24019 0
M  V30 1437 C 133.514 1.01861 -1.24422 0
M  V30 1438 O 134.704 0.906097 -1.4878 0
M  V30 1439 C 131.836 1.67615 -2.96847 0
M  V30 1440 H 133.029 -0.131843 -2.9961 0
M  V30 1441 H 130.582 -0.106165 -1.55939 0
M  V30 1442 H 131.317 2.33095 -2.25471 0
M  V30 1443 H 131.102 1.30029 -3.69912 0
M  V30 1444 H 132.592 2.27114 -3.50441 0
M  V30 1445 N 133.029 1.57378 -0.0835403 0
M  V30 1446 C 134.276 1.9393 0.58287 0
M  V30 1447 C 134.604 0.964455 1.68904 0
M  V30 1448 O 133.859 -0.0179474 1.95692 0
M  V30 1449 C 134.158 3.37063 1.1884 0
M  V30 1450 C 133.824 4.50424 0.207194 0
M  V30 1451 C 132.486 4.81159 -0.0627115 0
M  V30 1452 C 134.838 5.19136 -0.463426 0
M  V30 1453 C 132.166 5.77939 -1.01012 0
M  V30 1454 C 134.518 6.16931 -1.39924 0
M  V30 1455 C 133.182 6.46078 -1.67749 0
M  V30 1456 H 132.452 0.70964 0.213287 0
M  V30 1457 H 135.099 1.90856 -0.156916 0
M  V30 1458 H 133.404 3.3666 2.00418 0
M  V30 1459 H 135.101 3.6264 1.71153 0
M  V30 1460 H 131.691 4.2646 0.427747 0
M  V30 1461 H 135.875 4.95576 -0.268034 0
M  V30 1462 H 131.131 5.98842 -1.23283 0
M  V30 1463 H 135.305 6.69273 -1.92476 0
M  V30 1464 H 132.932 7.2088 -2.41321 0
M  V30 1465 N 134.507 -0.190092 1.56449 0
M  V30 1466 C 135.784 -0.935886 1.71757 0
M  V30 1467 C 136.164 -2.01173 0.639726 0
M  V30 1468 O 135.512 -2.25827 -0.348502 0
M  V30 1469 C 135.722 -1.51775 3.1427 0
M  V30 1470 C 137.07 -1.99794 3.74656 0
M  V30 1471 O 138.094 -1.61607 3.1743 0
M  V30 1472 O 136.953 -2.70079 4.751 0
M  V30 1473 H 134.047 -0.439229 0.700719 0
M  V30 1474 H 136.593 -0.179395 1.68749 0
M  V30 1475 H 135.365 -0.742505 3.84191 0
M  V30 1476 H 134.988 -2.33894 3.21527 0
M  V30 1477 N 135.985 -1.50799 -0.457987 0
M  V30 1478 C 137.396 -1.55152 -1.0385 0
M  V30 1479 C 137.747 -0.362719 -1.92818 0
M  V30 1480 O 136.872 0.522915 -2.09987 0
M  V30 1481 C 137.467 -2.81173 -1.89017 0
M  V30 1482 C 136.026 -2.88164 -2.42154 0
M  V30 1483 C 135.173 -2.49591 -1.20829 0
M  V30 1484 H 138.124 -1.56874 -0.240068 0
M  V30 1485 H 138.145 -2.63769 -2.74238 0
M  V30 1486 H 137.657 -3.67677 -1.24238 0
M  V30 1487 H 135.758 -2.06042 -3.10447 0
M  V30 1488 H 135.871 -3.91356 -2.76364 0
M  V30 1489 H 134.235 -2.02322 -1.54719 0
M  V30 1490 H 135.018 -3.38418 -0.576927 0
M  V30 1491 N 137.463 0.71206 -1.40597 0
M  V30 1492 C 138.874 1.29135 -1.34837 0
M  V30 1493 C 139.225 1.96186 -0.0235395 0
M  V30 1494 O 138.35 1.97768 0.878444 0
M  V30 1495 C 138.945 2.34827 -2.44217 0
M  V30 1496 C 137.504 2.88371 -2.41907 0
M  V30 1497 C 136.651 1.62202 -2.24913 0
M  V30 1498 H 139.602 0.507944 -1.50352 0
M  V30 1499 H 139.623 3.15749 -2.12327 0
M  V30 1500 H 139.135 1.85996 -3.40627 0
M  V30 1501 H 137.236 3.41422 -1.49204 0
M  V30 1502 H 137.349 3.39925 -3.37621 0
M  V30 1503 H 135.713 1.874 -1.72492 0
M  V30 1504 H 136.496 1.15391 -3.23326 0
M  V30 1505 N 138.941 1.26152 0.944643 0
M  V30 1506 C 140.352 1.10454 1.50522 0
M  V30 1507 C 140.703 -0.31635 1.93633 0
M  V30 1508 O 139.828 -1.20746 1.79581 0
M  V30 1509 C 140.423 1.99891 2.73549 0
M  V30 1510 C 138.982 1.88348 3.25886 0
M  V30 1511 C 138.129 1.93447 1.9868 0
M  V30 1512 H 141.08 1.39292 0.760489 0
M  V30 1513 H 141.101 1.54477 3.47732 0
M  V30 1514 H 140.613 3.03297 2.42141 0
M  V30 1515 H 138.714 0.878636 3.62092 0
M  V30 1516 H 138.827 2.73696 3.93227 0
M  V30 1517 H 137.191 1.37456 2.14425 0
M  V30 1518 H 137.974 2.98476 1.69607 0
M  V30 1519 N 140.419 -1.14872 1.07899 0
M  V30 1520 C 141.665 -1.86289 0.81657 0
M  V30 1521 C 142.02 -1.8107 -0.65049 0
M  V30 1522 O 141.313 -1.22684 -1.47171 0
M  V30 1523 C 141.507 -3.34223 1.26609 0
M  V30 1524 C 141.336 -3.53846 2.77531 0
M  V30 1525 C 140.106 -3.68995 3.45212 0
M  V30 1526 C 142.304 -3.51201 3.75716 0
M  V30 1527 N 140.286 -3.76725 4.84718 0
M  V30 1528 C 141.657 -3.65112 5.01092 0
M  V30 1529 C 143.712 -3.34507 3.68794 0
M  V30 1530 C 142.415 -3.64056 6.20368 0
M  V30 1531 C 144.441 -3.34752 4.8754 0
M  V30 1532 C 143.803 -3.49199 6.11751 0
M  V30 1533 H 139.902 -0.698579 0.351443 0
M  V30 1534 H 142.486 -1.37713 1.37634 0
M  V30 1535 H 140.657 -3.81402 0.73395 0
M  V30 1536 H 142.389 -3.93377 0.95062 0
M  V30 1537 H 139.144 -3.70006 2.95622 0
M  V30 1538 H 139.568 -3.8432 5.5734 0
M  V30 1539 H 144.21 -3.22253 2.73702 0
M  V30 1540 H 141.928 -3.75087 7.15776 0
M  V30 1541 H 145.514 -3.23055 4.83866 0
M  V30 1542 H 144.394 -3.49328 7.02097 0
M  V30 1543 N 141.898 -0.863906 -1.31812 0
M  V30 1544 C 143.144 -0.472535 -1.97218 0
M  V30 1545 C 143.477 0.971394 -1.68159 0
M  V30 1546 O 142.752 1.68309 -0.974798 0
M  V30 1547 C 143.035 -0.723054 -3.52766 0
M  V30 1548 C 142.888 -2.21608 -3.91421 0
M  V30 1549 C 144.207 -0.185522 -4.39709 0
M  V30 1550 H 141.326 -0.173158 -0.71637 0
M  V30 1551 H 143.968 -1.08403 -1.56041 0
M  V30 1552 H 142.118 -0.202577 -3.87971 0
M  V30 1553 H 143.79 -2.80334 -3.66347 0
M  V30 1554 H 142.033 -2.691 -3.40246 0
M  V30 1555 H 142.704 -2.34203 -4.99853 0
M  V30 1556 H 145.18 -0.630726 -4.11292 0
M  V30 1557 H 144.056 -0.390306 -5.47511 0
M  V30 1558 H 144.317 0.912229 -4.32586 0
M  V30 1559 N 143.376 1.44774 -0.622745 0
M  V30 1560 C 144.323 2.30635 0.0871679 0
M  V30 1561 C 145.293 1.42994 0.845097 0
M  V30 1562 O 146.478 1.71907 0.827812 0
M  V30 1563 C 143.618 3.28144 1.06844 0
M  V30 1564 C 142.731 4.30888 0.309809 0
M  V30 1565 C 141.866 5.15494 1.28215 0
M  V30 1566 C 140.905 6.09953 0.512198 0
M  V30 1567 N 140.042 6.87287 1.43458 0
M  V30 1568 H 144.882 2.90803 -0.650974 0
M  V30 1569 H 142.419 1.43286 -0.33281 0
M  V30 1570 H 144.377 3.83157 1.65066 0
M  V30 1571 H 143.007 2.69695 1.77382 0
M  V30 1572 H 142.059 3.78414 -0.388181 0
M  V30 1573 H 143.371 4.97955 -0.290254 0
M  V30 1574 H 142.525 5.74983 1.93596 0
M  V30 1575 H 141.264 4.48481 1.91614 0
M  V30 1576 H 140.269 5.49581 -0.155151 0
M  V30 1577 H 141.494 6.78999 -0.116958 0
M  V30 1578 H 139.44 6.2295 2.05594 0
M  V30 1579 H 139.357 7.50763 0.888335 0
M  V30 1580 H 140.625 7.51306 2.07749 0
M  V30 1581 N 144.854 0.36279 1.53368 0
M  V30 1582 C 146.265 -0.117022 1.86333 0
M  V30 1583 C 146.616 -1.48397 1.28347 0
M  V30 1584 O 145.741 -2.07787 0.604428 0
M  V30 1585 C 146.336 -0.21912 3.38091 0
M  V30 1586 C 144.895 -0.643184 3.70864 0
M  V30 1587 C 144.042 0.211318 2.76494 0
M  V30 1588 H 146.993 0.581687 1.47655 0
M  V30 1589 H 147.014 -1.04319 3.6592 0
M  V30 1590 H 146.526 0.775902 3.80265 0
M  V30 1591 H 144.627 -1.64654 3.34245 0
M  V30 1592 H 144.74 -0.41973 4.77258 0
M  V30 1593 H 143.104 -0.319367 2.5269 0
M  V30 1594 H 143.887 1.20383 3.21501 0
M  V30 1595 N 146.332 -1.57332 0.0918853 0
M  V30 1596 C 147.579 -1.94236 -0.572577 0
M  V30 1597 C 147.907 -0.973398 -1.6839 0
M  V30 1598 O 147.162 0.00756912 -1.95699 0
M  V30 1599 C 147.461 -3.37689 -1.17051 0
M  V30 1600 C 147.127 -4.50527 -0.183304 0
M  V30 1601 C 145.789 -4.81119 0.0882276 0
M  V30 1602 C 148.141 -5.18883 0.49095 0
M  V30 1603 C 145.469 -5.77395 1.04076 0
M  V30 1604 C 147.821 -6.1618 1.43193 0
M  V30 1605 C 146.485 -6.45179 1.71173 0
M  V30 1606 H 145.755 -0.710762 -0.209521 0
M  V30 1607 H 148.402 -1.9077 0.167036 0
M  V30 1608 H 146.707 -3.37718 -1.9863 0
M  V30 1609 H 148.404 -3.63543 -1.69227 0
M  V30 1610 H 144.994 -4.26681 -0.405124 0
M  V30 1611 H 149.178 -4.95427 0.294312 0
M  V30 1612 H 144.434 -5.98179 1.26457 0
M  V30 1613 H 148.608 -6.68243 1.96023 0
M  V30 1614 H 146.235 -7.1959 2.4514 0
M  V30 1615 N 147.81 0.181792 -1.56548 0
M  V30 1616 C 149.056 0.901431 -1.81665 0
M  V30 1617 C 149.389 1.82347 -0.668075 0
M  V30 1618 O 148.664 1.91669 0.330615 0
M  V30 1619 C 148.947 1.70618 -3.17115 0
M  V30 1620 C 148.8 0.807964 -4.42484 0
M  V30 1621 C 150.119 2.67605 -3.49393 0
M  V30 1622 H 147.238 0.32627 -0.660846 0
M  V30 1623 H 149.88 0.168134 -1.89255 0
M  V30 1624 H 148.03 2.33133 -3.10775 0
M  V30 1625 H 149.702 0.19649 -4.60881 0
M  V30 1626 H 147.945 0.115411 -4.33646 0
M  V30 1627 H 148.616 1.40632 -5.33785 0
M  V30 1628 H 151.092 2.15218 -3.56118 0
M  V30 1629 H 149.968 3.20985 -4.45264 0
M  V30 1630 H 150.229 3.47298 -2.73563 0
M  V30 1631 N 149.288 1.51039 0.449983 0
M  V30 1632 C 150.238 1.67824 1.54335 0
M  V30 1633 C 151.222 0.5324 1.51836 0
M  V30 1634 O 152.414 0.787762 1.58503 0
M  V30 1635 C 149.543 1.7951 2.92628 0
M  V30 1636 C 148.629 2.99838 2.9993 0
M  V30 1637 N 149.02 4.23207 2.77001 0
M  V30 1638 C 147.318 2.98832 3.31082 0
M  V30 1639 C 148.019 5.04361 2.89818 0
M  V30 1640 N 146.995 4.38746 3.2094 0
M  V30 1641 H 150.797 2.60884 1.35339 0
M  V30 1642 H 148.311 1.48513 0.657085 0
M  V30 1643 H 150.308 1.89642 3.7127 0
M  V30 1644 H 148.968 0.876227 3.12654 0
M  V30 1645 H 149.979 4.5236 2.52172 0
M  V30 1646 H 146.656 2.16527 3.56963 0
M  V30 1647 H 148.046 6.12528 2.76151 0
M  V30 1648 N 150.766 -0.704594 1.40972 0
M  V30 1649 C 152.177 -1.28418 1.3552 0
M  V30 1650 C 152.528 -1.96171 0.0339434 0
M  V30 1651 O 151.653 -1.98231 -0.867944 0
M  V30 1652 C 152.248 -2.33528 2.45459 0
M  V30 1653 C 150.807 -2.87085 2.43433 0
M  V30 1654 C 149.954 -1.61007 2.2577 0
M  V30 1655 H 152.905 -0.499963 1.50619 0
M  V30 1656 H 152.926 -3.14619 2.13998 0
M  V30 1657 H 152.438 -1.84187 3.41609 0
M  V30 1658 H 150.539 -3.40626 1.51013 0
M  V30 1659 H 150.652 -3.3813 3.39419 0
M  V30 1660 H 149.016 -1.86482 1.73483 0
M  V30 1661 H 149.799 -1.13675 3.23933 0
M  V30 1662 N 152.244 -1.26651 -0.937939 0
M  V30 1663 C 153.191 -1.0849 -2.03712 0
M  V30 1664 C 154.161 0.011033 -1.66096 0
M  V30 1665 O 155.346 -0.149353 -1.90215 0
M  V30 1666 C 152.486 -0.72735 -3.37348 0
M  V30 1667 C 151.599 -1.89986 -3.87981 0
M  V30 1668 C 150.734 -1.48513 -5.10017 0
M  V30 1669 C 149.773 -2.62575 -5.5292 0
M  V30 1670 N 148.91 -2.21762 -6.66158 0
M  V30 1671 H 153.75 -2.02551 -2.18579 0
M  V30 1672 H 151.287 -1.00844 -1.07093 0
M  V30 1673 H 153.245 -0.50092 -4.14182 0
M  V30 1674 H 151.875 0.176298 -3.22318 0
M  V30 1675 H 150.927 -2.23913 -3.07518 0
M  V30 1676 H 152.239 -2.75586 -4.15757 0
M  V30 1677 H 151.393 -1.21934 -5.94321 0
M  V30 1678 H 150.132 -0.60009 -4.83994 0
M  V30 1679 H 149.137 -2.8988 -4.67172 0
M  V30 1680 H 150.362 -3.51685 -5.80943 0
M  V30 1681 H 148.308 -1.35696 -6.41812 0
M  V30 1682 H 148.225 -3.00903 -6.93537 0
M  V30 1683 H 149.493 -1.98403 -7.53828 0
M  V30 1684 N 153.722 1.14298 -1.08507 0
M  V30 1685 C 155.133 1.66926 -0.836227 0
M  V30 1686 C 155.484 1.85576 0.63686 0
M  V30 1687 O 154.609 1.56767 1.49175 0
M  V30 1688 C 155.204 3.03219 -1.51142 0
M  V30 1689 C 153.763 3.52876 -1.30979 0
M  V30 1690 C 152.91 2.2833 -1.57356 0
M  V30 1691 H 155.861 0.983491 -1.24552 0
M  V30 1692 H 155.882 3.68726 -0.939211 0
M  V30 1693 H 155.394 2.89612 -2.58353 0
M  V30 1694 H 153.495 3.71703 -0.258429 0
M  V30 1695 H 153.608 4.33586 -2.03814 0
M  V30 1696 H 151.972 2.34454 -0.995164 0
M  V30 1697 H 152.755 2.17298 -2.65775 0
M  V30 1698 N 155.201 0.870884 1.31352 0
M  V30 1699 C 156.612 0.534714 1.78879 0
M  V30 1700 C 156.963 -0.948423 1.71754 0
M  V30 1701 O 156.088 -1.74055 1.28584 0
M  V30 1702 C 156.683 0.963839 3.24801 0
M  V30 1703 C 155.242 0.679311 3.70219 0
M  V30 1704 C 154.389 1.15465 2.52117 0
M  V30 1705 H 157.34 1.05651 1.18421 0
M  V30 1706 H 157.361 0.286892 3.79417 0
M  V30 1707 H 156.873 2.04332 3.29955 0
M  V30 1708 H 154.974 -0.388769 3.70566 0
M  V30 1709 H 155.087 1.25698 4.62317 0
M  V30 1710 H 153.451 0.574383 2.48139 0
M  V30 1711 H 154.234 2.24157 2.60016 0
M  V30 1712 N 156.679 -1.44442 0.630414 0
M  V30 1713 C 158.09 -1.85434 0.217063 0
M  V30 1714 C 158.441 -1.52748 -1.23136 0
M  V30 1715 O 157.566 -0.965205 -1.93682 0
M  V30 1716 C 158.161 -3.36581 0.387168 0
M  V30 1717 C 156.72 -3.76389 0.0283297 0
M  V30 1718 C 155.867 -2.68296 0.700889 0
M  V30 1719 H 158.818 -1.34919 0.83562 0
M  V30 1720 H 158.839 -3.78657 -0.374086 0
M  V30 1721 H 158.351 -3.60339 1.44144 0
M  V30 1722 H 156.452 -3.58246 -1.02423 0
M  V30 1723 H 156.565 -4.77095 0.437892 0
M  V30 1724 H 154.929 -2.54335 0.136267 0
M  V30 1725 H 155.712 -2.94887 1.75774 0
M  V30 1726 N 158.157 -0.370918 -1.53173 0
M  V30 1727 C 159.568 0.107139 -1.86392 0
M  V30 1728 C 159.919 1.47714 -1.29132 0
M  V30 1729 O 159.044 2.07464 -0.615439 0
M  V30 1730 C 159.639 0.201187 -3.38202 0
M  V30 1731 C 158.198 0.623507 -3.712 0
M  V30 1732 C 157.345 -0.225978 -2.76378 0
M  V30 1733 H 160.296 -0.58951 -1.47345 0
M  V30 1734 H 160.317 1.02377 -3.66468 0
M  V30 1735 H 159.829 -0.796058 -3.79848 0
M  V30 1736 H 157.93 1.62879 -3.35114 0
M  V30 1737 H 158.043 0.394414 -4.77474 0
M  V30 1738 H 156.407 0.305962 -2.52856 0
M  V30 1739 H 157.19 -1.22086 -3.20858 0
M  V30 1740 N 159.635 1.57281 -0.100228 0
M  V30 1741 C 160.565 2.17328 0.853857 0
M  V30 1742 C 161.546 1.10804 1.2906 0
M  V30 1743 O 162.731 1.38963 1.35657 0
M  V30 1744 C 159.861 2.75772 2.11109 0
M  V30 1745 C 158.815 3.87713 1.81279 0
M  V30 1746 C 158.141 4.32882 3.13874 0
M  V30 1747 C 159.441 5.10677 1.09574 0
M  V30 1748 H 161.135 2.97305 0.353545 0
M  V30 1749 H 158.681 1.43009 0.168612 0
M  V30 1750 H 160.634 3.16433 2.78296 0
M  V30 1751 H 159.358 1.93057 2.63432 0
M  V30 1752 H 158.017 3.476 1.16489 0
M  V30 1753 H 157.665 3.47051 3.64095 0
M  V30 1754 H 157.365 5.08358 2.94696 0
M  V30 1755 H 158.889 4.7618 3.82211 0
M  V30 1756 H 160.303 5.48474 1.66879 0
M  V30 1757 H 158.7 5.91615 1.00557 0
M  V30 1758 H 159.77 4.84835 0.0793299 0
M  V30 1759 N 161.113 -0.173488 1.56642 0
M  V30 1760 C 162.524 -0.736155 1.71574 0
M  V30 1761 C 162.875 -1.82888 0.710389 0
M  V30 1762 O 162 -2.16017 -0.1287 0
M  V30 1763 C 162.595 -1.34211 3.11083 0
M  V30 1764 C 161.154 -1.85162 3.27707 0
M  V30 1765 C 160.301 -0.729765 2.67525 0
M  V30 1766 H 163.252 0.0518786 1.58615 0
M  V30 1767 H 163.273 -2.21178 3.09613 0
M  V30 1768 H 162.785 -0.546579 3.84232 0
M  V30 1769 H 160.886 -2.67366 2.59512 0
M  V30 1770 H 160.999 -1.99855 4.35425 0
M  V30 1771 H 159.363 -1.14965 2.27278 0
M  V30 1772 H 160.146 0.0538806 3.43258 0
M  V30 1773 N 162.591 -1.51276 -0.441967 0
M  V30 1774 C 164.002 -1.56244 -1.02199 0
M  V30 1775 C 164.353 -0.383149 -1.92422 0
M  V30 1776 O 163.478 0.500613 -2.1053 0
M  V30 1777 C 164.073 -2.83162 -1.86024 0
M  V30 1778 C 162.632 -2.90716 -2.39084 0
M  V30 1779 C 161.779 -2.50858 -1.18175 0
M  V30 1780 H 164.73 -1.5712 -0.223416 0
M  V30 1781 H 164.751 -2.66663 -2.71425 0
M  V30 1782 H 164.263 -3.68974 -1.20331 0
M  V30 1783 H 162.364 -2.09323 -3.08244 0
M  V30 1784 H 162.477 -3.94266 -2.72198 0
M  V30 1785 H 160.841 -2.03951 -1.52565 0
M  V30 1786 H 161.624 -3.3901 -0.541001 0
M  V30 1787 N 164.069 0.697108 -1.41344 0
M  V30 1788 C 165.294 1.49096 -1.44171 0
M  V30 1789 C 165.719 1.88038 -0.0481568 0
M  V30 1790 O 165.077 1.54525 0.948243 0
M  V30 1791 C 165.125 2.73088 -2.3549 0
M  V30 1792 O 164.229 3.70514 -1.81088 0
M  V30 1793 H 163.57 0.448801 -0.489361 0
M  V30 1794 H 166.1 0.856992 -1.85787 0
M  V30 1795 H 166.11 3.21413 -2.51312 0
M  V30 1796 H 164.785 2.44081 -3.36745 0
M  V30 1797 H 163.362 3.29441 -1.74708 0
M  V30 1798 N 165.547 1.27147 0.931209 0
M  V30 1799 C 166.51 1.09615 2.01289 0
M  V30 1800 C 167.51 0.0412581 1.60747 0
M  V30 1801 O 168.7 0.285545 1.71844 0
M  V30 1802 C 165.832 0.669447 3.34262 0
M  V30 1803 H 167.025 2.05662 2.18273 0
M  V30 1804 H 164.578 1.09885 1.11153 0
M  V30 1805 H 165.313 -0.292572 3.22978 0
M  V30 1806 H 165.098 1.43127 3.65044 0
M  V30 1807 H 166.588 0.568921 4.13706 0
M  V30 1808 N 167.025 -1.13721 1.09112 0
M  V30 1809 C 168.436 -1.6648 0.845068 0
M  V30 1810 C 168.787 -1.85911 -0.62701 0
M  V30 1811 O 167.912 -1.57556 -1.48341 0
M  V30 1812 C 168.507 -3.02413 1.52748 0
M  V30 1813 C 167.066 -3.52176 1.32849 0
M  V30 1814 C 166.213 -2.27492 1.58564 0
M  V30 1815 H 169.164 -0.976872 1.25072 0
M  V30 1816 H 169.185 -3.68223 0.958752 0
M  V30 1817 H 168.697 -2.88238 2.59885 0
M  V30 1818 H 166.798 -3.7156 0.278137 0
M  V30 1819 H 166.911 -4.32499 2.0611 0
M  V30 1820 H 165.275 -2.33923 1.00758 0
M  V30 1821 H 166.058 -2.15886 2.66924 0
M  V30 1822 N 168.503 -0.877838 -1.30888 0
M  V30 1823 C 169.728 -0.506629 -2.01117 0
M  V30 1824 C 170.153 0.895564 -1.65412 0
M  V30 1825 O 169.511 1.5923 -0.866922 0
M  V30 1826 C 169.559 -0.680223 -3.54126 0
M  V30 1827 O 168.663 0.277033 -4.11468 0
M  V30 1828 H 168.004 -0.200518 -0.633 0
M  V30 1829 H 170.534 -1.18342 -1.66902 0
M  V30 1830 H 170.544 -0.5765 -4.03907 0
M  V30 1831 H 169.219 -1.70261 -3.79452 0
M  V30 1832 H 167.796 0.127606 -3.72682 0
M  V30 1833 N 169.982 1.44106 -0.638065 0
M  V30 1834 C 170.912 2.33448 0.0494287 0
M  V30 1835 C 171.893 1.48606 0.827672 0
M  V30 1836 O 173.078 1.77308 0.792173 0
M  V30 1837 C 170.208 3.31771 1.02691 0
M  V30 1838 C 169.162 4.26485 0.359823 0
M  V30 1839 C 168.488 5.14729 1.44769 0
M  V30 1840 C 169.788 5.17056 -0.738296 0
M  V30 1841 H 171.482 2.91183 -0.696636 0
M  V30 1842 H 169.028 1.40014 -0.336456 0
M  V30 1843 H 170.981 3.93161 1.51666 0
M  V30 1844 H 169.705 2.7226 1.80395 0
M  V30 1845 H 168.364 3.66437 -0.10934 0
M  V30 1846 H 168.012 4.51566 2.21578 0
M  V30 1847 H 167.712 5.78913 1.00668 0
M  V30 1848 H 169.236 5.78991 1.93911 0
M  V30 1849 H 170.65 5.72342 -0.331354 0
M  V30 1850 H 169.047 5.89879 -1.10286 0
M  V30 1851 H 170.117 4.57652 -1.60258 0
M  V30 1852 N 171.46 0.379036 1.52974 0
M  V30 1853 C 172.871 -0.0972525 1.86447 0
M  V30 1854 C 173.222 -1.47027 1.29914 0
M  V30 1855 O 172.347 -2.07135 0.626433 0
M  V30 1856 C 172.942 -0.183248 3.38304 0
M  V30 1857 C 171.501 -0.603812 3.71525 0
M  V30 1858 C 170.648 0.240632 2.76254 0
M  V30 1859 H 173.599 0.597316 1.4703 0
M  V30 1860 H 173.62 -1.00432 3.67006 0
M  V30 1861 H 173.132 0.816191 3.79421 0
M  V30 1862 H 171.233 -1.61099 3.35973 0
M  V30 1863 H 171.346 -0.369086 4.77676 0
M  V30 1864 H 169.71 -0.292548 2.53014 0
M  V30 1865 H 170.493 1.23786 3.20206 0
M  V30 1866 N 172.938 -1.57226 0.108567 0
M  V30 1867 C 173.868 -2.17778 -0.84232 0
M  V30 1868 C 174.849 -1.11487 -1.2847 0
M  V30 1869 O 176.034 -1.39681 -1.34918 0
M  V30 1870 C 173.164 -2.76888 -2.09644 0
M  V30 1871 C 172.118 -3.88669 -1.79221 0
M  V30 1872 C 171.444 -4.34541 -3.11574 0
M  V30 1873 C 172.744 -5.11251 -1.06864 0
M  V30 1874 H 174.438 -2.97489 -0.337774 0
M  V30 1875 H 171.984 -1.43097 -0.161025 0
M  V30 1876 H 173.937 -3.17904 -2.76614 0
M  V30 1877 H 172.661 -1.94451 -2.62405 0
M  V30 1878 H 171.32 -3.48213 -1.14644 0
M  V30 1879 H 170.968 -3.48977 -3.62249 0
M  V30 1880 H 170.668 -5.09914 -2.91996 0
M  V30 1881 H 172.192 -4.782 -3.7968 0
M  V30 1882 H 173.606 -5.49352 -1.63968 0
M  V30 1883 H 172.003 -5.9214 -0.974178 0
M  V30 1884 H 173.073 -4.8487 -0.0536168 0
M  V30 1885 N 174.416 0.165178 -1.56732 0
M  V30 1886 C 175.326 1.22423 -2.00125 0
M  V30 1887 C 176.342 1.48084 -0.913619 0
M  V30 1888 O 177.518 1.60112 -1.22172 0
M  V30 1889 C 174.583 2.54197 -2.35764 0
M  V30 1890 C 173.644 2.36343 -3.58386 0
M  V30 1891 C 172.877 3.61834 -3.92316 0
M  V30 1892 O 173.1 4.67267 -3.27135 0
M  V30 1893 O 172.034 3.55579 -4.85641 0
M  V30 1894 H 175.86 0.885886 -2.90492 0
M  V30 1895 H 173.445 0.372518 -1.44681 0
M  V30 1896 H 175.327 3.3192 -2.59629 0
M  V30 1897 H 174.002 2.87598 -1.48557 0
M  V30 1898 H 172.909 1.56632 -3.39731 0
M  V30 1899 H 174.242 2.07865 -4.46154 0
M  V30 1900 N 175.894 1.51508 0.433938 0
M  V30 1901 C 177.305 1.56784 1.01369 0
M  V30 1902 C 177.656 0.393349 1.92217 0
M  V30 1903 O 176.781 -0.489441 2.10792 0
M  V30 1904 C 177.376 2.84144 1.8452 0
M  V30 1905 C 175.935 2.9198 2.37539 0
M  V30 1906 C 175.082 2.51482 1.16843 0
M  V30 1907 H 178.033 1.57236 0.215081 0
M  V30 1908 H 178.054 2.68098 2.70007 0
M  V30 1909 H 177.566 3.69607 1.18373 0
M  V30 1910 H 175.667 2.10955 3.0713 0
M  V30 1911 H 175.78 3.95704 2.70103 0
M  V30 1912 H 174.144 2.04758 1.51481 0
M  V30 1913 H 174.927 3.39293 0.523015 0
M  V30 1914 N 177.372 -0.689602 1.41712 0
M  V30 1915 C 178.783 -1.26973 1.36875 0
M  V30 1916 C 179.134 -1.96124 0.054748 0
M  V30 1917 O 178.259 -1.99141 -0.84687 0
M  V30 1918 C 178.854 -2.30912 2.47922 0
M  V30 1919 C 177.413 -2.84486 2.46464 0
M  V30 1920 C 176.56 -1.58603 2.27465 0
M  V30 1921 H 179.511 -0.48396 1.51141 0
M  V30 1922 H 179.532 -3.12331 2.17323 0
M  V30 1923 H 179.044 -1.80554 3.43543 0
M  V30 1924 H 177.145 -3.39005 1.54617 0
M  V30 1925 H 177.258 -3.34511 3.42986 0
M  V30 1926 H 175.622 -1.84632 1.75451 0
M  V30 1927 H 176.405 -1.10233 3.25121 0
M  V30 1928 N 178.85 -1.27639 -0.924453 0
M  V30 1929 C 180.266 -1.05113 -1.20097 0
M  V30 1930 C 180.466 0.213262 -2.00368 0
M  V30 1931 O 179.522 0.91787 -2.35226 0
M  V30 1932 C 180.835 -2.29244 -1.94596 0
M  V30 1933 C 182.383 -2.34315 -2.07522 0
M  V30 1934 C 182.858 -3.58183 -2.85427 0
M  V30 1935 N 184.349 -3.5876 -2.92994 0
M  V30 1936 C 185.084 -4.51277 -3.53746 0
M  V30 1937 N 184.58 -5.54102 -4.15863 0
M  V30 1938 N 186.373 -4.38894 -3.51181 0
M  V30 1939 H 178.524 -2.08821 -0.388264 0
M  V30 1940 H 180.787 -0.918568 -0.234385 0
M  V30 1941 H 180.493 -3.21301 -1.43034 0
M  V30 1942 H 180.367 -2.34816 -2.95197 0
M  V30 1943 H 182.754 -1.42762 -2.58269 0
M  V30 1944 H 182.835 -2.32744 -1.06131 0
M  V30 1945 H 182.479 -4.50074 -2.35363 0
M  V30 1946 H 182.409 -3.57006 -3.8711 0
M  V30 1947 H 184.9 -2.84398 -2.4885 0
M  V30 1948 H 185.213 -6.20859 -4.60168 0
M  V30 1949 H 183.558 -5.57941 -4.144 0
M  V30 1950 H 186.749 -3.57772 -3.01856 0
M  V30 1951 H 186.922 -5.11186 -3.98237 0
M  V30 1952 N 180.328 1.1314 -1.09713 0
M  V30 1953 C 181.553 1.88862 -0.857081 0
M  V30 1954 C 181.978 1.78729 0.586304 0
M  V30 1955 O 181.336 1.13692 1.41222 0
M  V30 1956 C 181.384 3.36325 -1.30069 0
M  V30 1957 O 180.488 4.09815 -0.461007 0
M  V30 1958 H 179.829 0.587108 -0.310162 0
M  V30 1959 H 182.359 1.43129 -1.46203 0
M  V30 1960 H 182.369 3.87157 -1.28738 0
M  V30 1961 H 181.044 3.43017 -2.35185 0
M  V30 1962 H 179.621 3.68986 -0.538888 0
M  V30 1963 N 181.806 0.884767 1.30421 0
M  V30 1964 C 183.034 0.518044 2.0031 0
M  V30 1965 C 183.449 -0.893408 1.66324 0
M  V30 1966 O 182.806 -1.5875 0.900262 0
M  V30 1967 C 182.857 0.682997 3.54989 0
M  V30 1968 O 182.578 2.03888 3.87764 0
M  V30 1969 C 184.079 0.31924 4.42149 0
M  V30 1970 H 181.299 0.200265 0.640418 0
M  V30 1971 H 183.843 1.19001 1.6631 0
M  V30 1972 H 181.998 0.0584052 3.87356 0
M  V30 1973 H 182.412 2.05735 4.82466 0
M  V30 1974 H 183.886 0.485555 5.4986 0
M  V30 1975 H 184.363 -0.742717 4.32875 0
M  V30 1976 H 184.969 0.920147 4.15227 0
M  V30 1977 N 183.284 -1.43765 0.645699 0
M  V30 1978 C 184.695 -1.85193 0.236719 0
M  V30 1979 C 185.046 -1.54045 -1.21509 0
M  V30 1980 O 184.171 -0.985694 -1.92647 0
M  V30 1981 C 184.766 -3.36151 0.422845 0
M  V30 1982 C 183.325 -3.76338 0.0682492 0
M  V30 1983 C 182.472 -2.67538 0.729306 0
M  V30 1984 H 185.423 -1.34025 0.849883 0
M  V30 1985 H 185.444 -3.79032 -0.333904 0
M  V30 1986 H 184.956 -3.5879 1.47958 0
M  V30 1987 H 183.057 -3.59312 -0.986179 0
M  V30 1988 H 183.17 -4.76603 0.488469 0
M  V30 1989 H 181.534 -2.54176 0.163235 0
M  V30 1990 H 182.317 -2.93006 1.78892 0
M  V30 1991 N 184.763 -0.387143 -1.52771 0
M  V30 1992 C 186.174 0.0873634 -1.86495 0
M  V30 1993 C 186.525 1.46336 -1.30691 0
M  V30 1994 O 185.65 2.068 -0.637409 0
M  V30 1995 C 186.245 0.165305 -3.38396 0
M  V30 1996 C 184.804 0.584101 -3.7184 0
M  V30 1997 C 183.951 -0.255279 -2.76122 0
M  V30 1998 H 186.902 -0.605104 -1.46711 0
M  V30 1999 H 186.923 0.984848 -3.67534 0
M  V30 2000 H 186.435 -0.836301 -3.78982 0
M  V30 2001 H 184.536 1.59315 -3.36823 0
M  V30 2002 H 184.649 0.343749 -4.77865 0
M  V30 2003 H 183.013 0.279126 -2.53166 0
M  V30 2004 H 183.796 -1.25482 -3.19545 0
M  V30 2005 N 186.241 1.57166 -0.116904 0
M  V30 2006 C 187.657 1.5779 0.239693 0
M  V30 2007 C 187.857 1.1295 1.66867 0
M  V30 2008 O 186.913 0.81592 2.38954 0
M  V30 2009 C 188.226 3.00699 0.00828202 0
M  V30 2010 C 189.774 3.12912 0.0743438 0
M  V30 2011 C 190.249 4.57817 -0.129348 0
M  V30 2012 N 191.74 4.63139 -0.075247 0
M  V30 2013 C 192.475 5.73023 -0.207788 0
M  V30 2014 N 191.971 6.91665 -0.396382 0
M  V30 2015 N 193.764 5.61906 -0.14751 0
M  V30 2016 H 185.915 1.84615 -1.05029 0
M  V30 2017 H 188.178 0.85311 -0.41341 0
M  V30 2018 H 187.884 3.37784 -0.979531 0
M  V30 2019 H 187.758 3.69848 0.741077 0
M  V30 2020 H 190.145 2.75686 1.05268 0
M  V30 2021 H 190.226 2.4631 -0.690297 0
M  V30 2022 H 189.87 4.95742 -1.10465 0
M  V30 2023 H 189.8 5.22507 0.655253 0
M  V30 2024 H 192.291 3.7784 0.0670898 0
M  V30 2025 H 192.604 7.71255 -0.488437 0
M  V30 2026 H 190.949 6.93654 -0.432329 0
M  V30 2027 H 194.14 4.681 -0.00115036 0
M  V30 2028 H 194.313 6.47501 -0.254247 0
M  V30 2029 N 187.719 -0.156864 1.56817 0
M  V30 2030 C 188.944 -0.890331 1.87318 0
M  V30 2031 C 189.369 -1.74394 0.704855 0
M  V30 2032 O 188.727 -1.77972 -0.345786 0
M  V30 2033 C 188.775 -1.73102 3.16336 0
M  V30 2034 O 187.879 -2.83422 2.99576 0
M  V30 2035 H 187.22 -0.24857 0.615718 0
M  V30 2036 H 189.75 -0.150649 2.04045 0
M  V30 2037 H 189.76 -2.12803 3.48107 0
M  V30 2038 H 188.435 -1.10412 4.00976 0
M  V30 2039 H 187.012 -2.47199 2.7919 0
M  V30 2040 N 189.197 -1.51736 -0.425897 0
M  V30 2041 C 190.422 -1.69082 -1.20108 0
M  V30 2042 C 190.847 -0.392398 -1.83962 0
M  V30 2043 O 190.205 0.64858 -1.69302 0
M  V30 2044 C 190.253 -2.81604 -2.25237 0
M  V30 2045 O 189.357 -2.46004 -3.30992 0
M  V30 2046 H 188.698 -0.563408 -0.35138 0
M  V30 2047 H 191.228 -1.98358 -0.501512 0
M  V30 2048 H 191.238 -3.06025 -2.69838 0
M  V30 2049 H 189.913 -3.75817 -1.78142 0
M  V30 2050 H 188.49 -2.32195 -2.91787 0
M  V30 2051 N 190.675 0.682077 -1.42076 0
M  V30 2052 C 191.605 1.80796 -1.47767 0
M  V30 2053 C 192.586 1.6677 -0.334954 0
M  V30 2054 O 193.771 1.863 -0.548264 0
M  V30 2055 C 190.901 3.19038 -1.37229 0
M  V30 2056 C 189.855 3.47789 -2.49453 0
M  V30 2057 C 189.181 4.8553 -2.23975 0
M  V30 2058 C 190.481 3.45411 -3.91776 0
M  V30 2059 H 192.175 1.7629 -2.41997 0
M  V30 2060 H 189.721 0.846721 -1.16476 0
M  V30 2061 H 191.674 3.97528 -1.39821 0
M  V30 2062 H 190.398 3.24204 -0.394907 0
M  V30 2063 H 189.057 2.71657 -2.46166 0
M  V30 2064 H 188.705 4.87337 -1.24547 0
M  V30 2065 H 188.405 5.0573 -2.99184 0
M  V30 2066 H 189.929 5.66312 -2.28304 0
M  V30 2067 H 191.343 4.13882 -3.96705 0
M  V30 2068 H 189.74 3.77145 -4.66778 0
M  V30 2069 H 190.81 2.44122 -4.18966 0
M  V30 2070 N 192.153 1.28127 0.917671 0
M  V30 2071 C 193.383 1.17722 1.6978 0
M  V30 2072 C 193.791 -0.267261 1.87303 0
M  V30 2073 O 193.134 -1.19286 1.39702 0
M  V30 2074 C 193.196 1.79958 3.11216 0
M  V30 2075 C 192.86 3.29187 3.16993 0
M  V30 2076 C 193.857 4.25679 2.98485 0
M  V30 2077 C 191.542 3.70075 3.39632 0
M  V30 2078 C 193.536 5.61035 3.02521 0
M  V30 2079 C 191.223 5.05557 3.433 0
M  V30 2080 C 192.221 6.00847 3.24764 0
M  V30 2081 O 191.909 7.33859 3.28187 0
M  V30 2082 H 191.641 0.409788 0.537634 0
M  V30 2083 H 194.195 1.69694 1.15728 0
M  V30 2084 H 192.425 1.22475 3.66793 0
M  V30 2085 H 194.114 1.64125 3.71238 0
M  V30 2086 H 194.88 3.95426 2.80826 0
M  V30 2087 H 190.759 2.96373 3.53106 0
M  V30 2088 H 194.303 6.35388 2.87971 0
M  V30 2089 H 190.2 5.35462 3.60486 0
M  V30 2090 H 190.968 7.42436 3.44575 0
M  V30 2091 N 193.631 -1.12557 1.10312 0
M  V30 2092 C 195.042 -1.65574 0.862678 0
M  V30 2093 C 195.393 -1.86566 -0.607256 0
M  V30 2094 O 194.518 -1.59121 -1.46662 0
M  V30 2095 C 195.113 -3.00776 1.55947 0
M  V30 2096 C 193.672 -3.50748 1.36576 0
M  V30 2097 C 192.819 -2.25797 1.60968 0
M  V30 2098 H 195.77 -0.963552 1.26101 0
M  V30 2099 H 195.791 -3.67185 0.997753 0
M  V30 2100 H 195.303 -2.85465 2.62928 0
M  V30 2101 H 193.404 -3.71245 0.317531 0
M  V30 2102 H 193.517 -4.30289 2.10686 0
M  V30 2103 H 191.881 -2.32841 1.03234 0
M  V30 2104 H 192.664 -2.13043 2.69198 0
M  V30 2105 N 195.109 -0.891671 -1.2995 0
M  V30 2106 C 196.072 -0.36828 -2.26222 0
M  V30 2107 C 197.072 0.493014 -1.53056 0
M  V30 2108 O 198.262 0.299213 -1.71611 0
M  V30 2109 C 195.394 0.47442 -3.37583 0
M  V30 2110 H 196.587 -1.21844 -2.74033 0
M  V30 2111 H 194.14 -0.669107 -1.41254 0
M  V30 2112 H 194.875 1.34489 -2.95099 0
M  V30 2113 H 194.66 -0.142615 -3.91841 0
M  V30 2114 H 196.15 0.83218 -4.09224 0
M  V30 2115 N 196.587 1.43421 -0.653314 0
M  V30 2116 C 197.517 2.33487 0.0246656 0
M  V30 2117 C 198.498 1.49475 0.811863 0
M  V30 2118 O 199.683 1.78139 0.773322 0
M  V30 2119 C 196.813 3.32841 0.99166 0
M  V30 2120 C 195.767 4.26842 0.314568 0
M  V30 2121 C 195.093 5.16236 1.39302 0
M  V30 2122 C 196.393 5.16243 -0.793095 0
M  V30 2123 H 198.087 2.90427 -0.727481 0
M  V30 2124 H 195.633 1.39649 -0.351287 0
M  V30 2125 H 197.586 3.94747 1.47487 0
M  V30 2126 H 196.31 2.74158 1.77497 0
M  V30 2127 H 194.969 3.663 -0.148199 0
M  V30 2128 H 194.617 4.53891 2.16776 0
M  V30 2129 H 194.317 5.79948 0.945223 0
M  V30 2130 H 195.841 5.81015 1.87759 0
M  V30 2131 H 197.255 5.71958 -0.392039 0
M  V30 2132 H 195.652 5.88676 -1.16536 0
M  V30 2133 H 196.722 4.55927 -1.65103 0
M  V30 2134 N 198.065 0.39524 1.52563 0
M  V30 2135 C 199.293 -0.184943 2.06072 0
M  V30 2136 C 199.708 -1.40021 1.26647 0
M  V30 2137 O 199.065 -1.79767 0.314672 0
M  V30 2138 C 199.116 -0.549179 3.57304 0
M  V30 2139 O 198.837 0.617813 4.33722 0
M  V30 2140 C 200.338 -1.18459 4.2718 0
M  V30 2141 H 197.558 -0.0265025 0.670476 0
M  V30 2142 H 200.102 0.562184 1.96621 0
M  V30 2143 H 198.257 -1.2462 3.66809 0
M  V30 2144 H 198.671 0.317091 5.23541 0
M  V30 2145 H 200.145 -1.38976 5.34219 0
M  V30 2146 H 200.622 -2.15368 3.82771 0
M  V30 2147 H 201.228 -0.528163 4.22008 0
M  V30 2148 N 199.544 -1.57102 0.125237 0
M  V30 2149 C 200.955 -1.82384 -0.399142 0
M  V30 2150 C 201.306 -1.04276 -1.66195 0
M  V30 2151 O 200.431 -0.281269 -2.14564 0
M  V30 2152 C 201.026 -3.30821 -0.730932 0
M  V30 2153 C 199.585 -3.56762 -1.19992 0
M  V30 2154 C 198.732 -2.7649 -0.211792 0
M  V30 2155 H 201.683 -1.54786 0.350277 0
M  V30 2156 H 201.704 -3.4579 -1.58775 0
M  V30 2157 H 201.216 -3.87643 0.188345 0
M  V30 2158 H 199.317 -3.05305 -2.13588 0
M  V30 2159 H 199.43 -4.65317 -1.14093 0
M  V30 2160 H 197.794 -2.4489 -0.700085 0
M  V30 2161 H 198.577 -3.36073 0.700691 0
M  V30 2162 N 201.022 0.148545 -1.56898 0
M  V30 2163 C 202.247 0.880385 -1.87787 0
M  V30 2164 C 202.672 1.74018 -0.714093 0
M  V30 2165 O 202.03 1.78153 0.336343 0
M  V30 2166 C 202.078 1.71422 -3.17249 0
M  V30 2167 O 201.182 2.8183 -3.01074 0
M  V30 2168 H 200.523 0.245301 -0.617028 0
M  V30 2169 H 203.053 0.139826 -2.04122 0
M  V30 2170 H 203.063 2.10954 -3.49231 0
M  V30 2171 H 201.738 1.08284 -4.01556 0
M  V30 2172 H 200.315 2.45715 -2.80497 0
M  V30 2173 N 202.5 1.5196 0.417844 0
M  V30 2174 C 203.43 1.77634 1.51554 0
M  V30 2175 C 204.411 0.626918 1.58126 0
M  V30 2176 O 205.596 0.871632 1.7354 0
M  V30 2177 C 202.726 1.91911 2.8946 0
M  V30 2178 C 201.68 3.07463 2.97743 0
M  V30 2179 C 201.006 3.06951 4.37819 0
M  V30 2180 C 202.306 4.47082 2.70027 0
M  V30 2181 H 204 2.6955 1.3032 0
M  V30 2182 H 201.546 1.29706 0.625492 0
M  V30 2183 H 203.499 2.08455 3.6623 0
M  V30 2184 H 202.223 0.966598 3.11969 0
M  V30 2185 H 200.882 2.90656 2.23416 0
M  V30 2186 H 200.53 2.09438 4.57323 0
M  V30 2187 H 200.23 3.84556 4.44286 0
M  V30 2188 H 201.754 3.25613 5.16535 0
M  V30 2189 H 203.168 4.6414 3.36522 0
M  V30 2190 H 201.565 5.2654 2.87881 0
M  V30 2191 H 202.635 4.55777 1.65514 0
M  V30 2192 N 203.978 -0.674533 1.42435 0
M  V30 2193 C 205.226 -1.43175 1.42637 0
M  V30 2194 C 205.547 -1.94951 0.0438992 0
M  V30 2195 O 204.817 -1.7308 -0.917607 0
M  V30 2196 H 203.397 -0.531307 0.525092 0
M  V30 2197 H 206.059 -0.797006 1.77859 0
M  V30 2198 H 205.155 -2.28463 2.12629 0
M  V30 2199 N 205.456 -1.28612 -0.910864 0
M  V30 2200 C 206.419 -1.12803 -1.9952 0
M  V30 2201 C 207.419 -0.0668264 -1.60661 0
M  V30 2202 O 208.609 -0.312847 -1.71368 0
M  V30 2203 C 205.741 -0.72254 -3.33155 0
M  V30 2204 H 206.934 -2.09109 -2.14973 0
M  V30 2205 H 204.487 -1.11639 -1.09391 0
M  V30 2206 H 205.222 0.241152 -3.23402 0
M  V30 2207 H 205.007 -1.48916 -3.62721 0
M  V30 2208 H 206.497 -0.634666 -4.12749 0
M  V30 2209 N 206.934 1.1197 -1.10907 0
M  V30 2210 C 207.881 2.17846 -0.762345 0
M  V30 2211 C 208.851 1.63995 0.263599 0
M  V30 2212 O 210.036 1.90273 0.141773 0
M  V30 2213 C 207.176 3.44487 -0.205651 0
M  V30 2214 C 206.289 4.12369 -1.28748 0
M  V30 2215 C 205.424 5.26674 -0.691919 0
M  V30 2216 C 204.463 5.86431 -1.75399 0
M  V30 2217 N 203.6 6.92142 -1.17833 0
M  V30 2218 H 208.44 2.46851 -1.6694 0
M  V30 2219 H 205.977 1.21188 -0.833776 0
M  V30 2220 H 207.935 4.16981 0.135037 0
M  V30 2221 H 206.565 3.15884 0.664613 0
M  V30 2222 H 205.617 3.38003 -1.74522 0
M  V30 2223 H 206.929 4.52844 -2.09125 0
M  V30 2224 H 206.083 6.05953 -0.300963 0
M  V30 2225 H 204.822 4.8749 0.143232 0
M  V30 2226 H 203.827 5.05835 -2.15432 0
M  V30 2227 H 205.052 6.27685 -2.59208 0
M  V30 2228 H 202.998 6.54985 -0.364725 0
M  V30 2229 H 202.915 7.31242 -1.91887 0
M  V30 2230 H 204.183 7.75237 -0.81408 0
M  V30 2231 N 208.412 0.89855 1.29475 0
M  V30 2232 C 209.823 0.572537 1.77705 0
M  V30 2233 C 210.174 -0.911778 1.73727 0
M  V30 2234 O 209.299 -1.71288 1.32247 0
M  V30 2235 C 209.894 1.03252 3.22683 0
M  V30 2236 C 208.453 0.757687 3.68695 0
M  V30 2237 C 207.6 1.20787 2.49612 0
M  V30 2238 H 210.551 1.08139 1.16153 0
M  V30 2239 H 210.572 0.367307 3.78723 0
M  V30 2240 H 210.084 2.11285 3.25546 0
M  V30 2241 H 208.185 -0.310079 3.71308 0
M  V30 2242 H 208.298 1.35476 4.59547 0
M  V30 2243 H 206.662 0.626888 2.46865 0
M  V30 2244 H 207.445 2.29622 2.55203 0
M  V30 2245 N 209.89 -1.43072 0.660911 0
M  V30 2246 C 210.837 -2.30785 -0.0259884 0
M  V30 2247 C 211.807 -1.45184 -0.806888 0
M  V30 2248 O 212.992 -1.74041 -0.781943 0
M  V30 2249 C 210.132 -3.30861 -0.981067 0
M  V30 2250 C 209.245 -4.31558 -0.195458 0
M  V30 2251 C 208.38 -5.18712 -1.14503 0
M  V30 2252 C 207.419 -6.11097 -0.350299 0
M  V30 2253 N 206.556 -6.90849 -1.25186 0
M  V30 2254 H 211.396 -2.88975 0.727846 0
M  V30 2255 H 208.933 -1.42353 0.370682 0
M  V30 2256 H 210.891 -3.87399 -1.54849 0
M  V30 2257 H 209.521 -2.74304 -1.70169 0
M  V30 2258 H 208.573 -3.77252 0.488374 0
M  V30 2259 H 209.885 -4.9701 0.422176 0
M  V30 2260 H 209.039 -5.79914 -1.78284 0
M  V30 2261 H 207.778 -4.53404 -1.79656 0
M  V30 2262 H 206.783 -5.48976 0.300808 0
M  V30 2263 H 208.008 -6.7845 0.296941 0
M  V30 2264 H 205.954 -6.28182 -1.89005 0
M  V30 2265 H 205.871 -7.52854 -0.688971 0
M  V30 2266 H 207.139 -7.5655 -1.87757 0
M  V30 2267 N 211.368 -0.403325 -1.52352 0
M  V30 2268 C 212.779 0.0675782 -1.86578 0
M  V30 2269 C 213.13 1.44941 -1.32236 0
M  V30 2270 O 212.255 2.06112 -0.659307 0
M  V30 2271 C 212.85 0.129404 -3.38553 0
M  V30 2272 C 211.409 0.544629 -3.72439 0
M  V30 2273 C 210.556 -0.284551 -2.75836 0
M  V30 2274 H 213.507 -0.620631 -1.46061 0
M  V30 2275 H 213.528 0.94581 -3.68558 0
M  V30 2276 H 213.04 -0.87645 -3.78074 0
M  V30 2277 H 211.141 1.55734 -3.38493 0
M  V30 2278 H 211.254 0.293046 -4.78203 0
M  V30 2279 H 209.618 0.252258 -2.53448 0
M  V30 2280 H 210.401 -1.28865 -3.18196 0
M  V30 2281 N 212.846 1.57033 -0.133567 0
M  V30 2282 C 213.778 2.13176 0.841944 0
M  V30 2283 C 214.791 1.07794 1.22001 0
M  V30 2284 O 215.98 1.35117 1.16643 0
M  V30 2285 C 213.08 2.62847 2.13926 0
M  V30 2286 C 212.253 3.92486 1.93064 0
M  V30 2287 C 211.312 4.27605 3.0666 0
M  V30 2288 O 210.338 4.96168 2.78937 0
M  V30 2289 N 211.54 3.861 4.33483 0
M  V30 2290 H 214.305 2.97503 0.362192 0
M  V30 2291 H 211.866 1.61821 0.05042 0
M  V30 2292 H 213.858 2.83363 2.88942 0
M  V30 2293 H 212.428 1.83319 2.53205 0
M  V30 2294 H 211.648 3.80732 1.02159 0
M  V30 2295 H 212.936 4.77225 1.76447 0
M  V30 2296 H 212.334 3.30828 4.58878 0
M  V30 2297 H 210.891 4.11694 5.05323 0
M  V30 2298 N 214.325 -0.140222 1.56975 0
M  V30 2299 C 215.571 -0.852949 1.83991 0
M  V30 2300 C 215.904 -1.80512 0.716187 0
M  V30 2301 O 215.179 -1.92479 -0.279681 0
M  V30 2302 C 215.462 -1.6215 3.21527 0
M  V30 2303 C 215.315 -0.690363 4.4447 0
M  V30 2304 C 216.634 -2.58247 3.56366 0
M  V30 2305 H 213.753 -0.308634 0.669264 0
M  V30 2306 H 216.395 -0.117898 1.89634 0
M  V30 2307 H 214.545 -2.24812 3.16847 0
M  V30 2308 H 216.217 -0.0742264 4.6124 0
M  V30 2309 H 214.46 -0.000396433 4.338 0
M  V30 2310 H 215.131 -1.2643 5.37326 0
M  V30 2311 H 217.607 -2.05701 3.61699 0
M  V30 2312 H 216.483 -3.09067 4.53617 0
M  V30 2313 H 216.744 -3.39923 2.82674 0
M  V30 2314 N 215.803 -1.52179 -0.40978 0
M  V30 2315 C 216.733 -1.78435 -1.5061 0
M  V30 2316 C 217.714 -0.635295 -1.57791 0
M  V30 2317 O 218.899 -0.880823 -1.73076 0
M  V30 2318 C 216.029 -1.93444 -2.88439 0
M  V30 2319 C 214.983 -3.09038 -2.96108 0
M  V30 2320 C 214.309 -3.09268 -4.36185 0
M  V30 2321 C 215.609 -4.48508 -2.67652 0
M  V30 2322 H 217.303 -2.70237 -1.28889 0
M  V30 2323 H 214.849 -1.30036 -0.618605 0
M  V30 2324 H 216.802 -2.10394 -3.65119 0
M  V30 2325 H 215.526 -0.983129 -3.11452 0
M  V30 2326 H 214.185 -2.91837 -2.21872 0
M  V30 2327 H 213.833 -2.11861 -4.56206 0
M  V30 2328 H 213.533 -3.86907 -4.42241 0
M  V30 2329 H 215.057 -3.28348 -5.14801 0
M  V30 2330 H 216.471 -4.65918 -3.34056 0
M  V30 2331 H 214.868 -5.28059 -2.85085 0
M  V30 2332 H 215.938 -4.56649 -1.63095 0
M  V30 2333 N 217.281 0.66697 -1.42791 0
M  V30 2334 C 218.506 1.46004 -1.47301 0
M  V30 2335 C 218.931 1.87894 -0.0880317 0
M  V30 2336 O 218.289 1.56502 0.915253 0
M  V30 2337 C 218.337 2.68031 -2.41229 0
M  V30 2338 O 217.441 3.6659 -1.88906 0
M  V30 2339 H 216.782 0.43832 -0.49877 0
M  V30 2340 H 219.312 0.817391 -1.87563 0
M  V30 2341 H 219.322 3.1601 -2.58073 0
M  V30 2342 H 217.997 2.36883 -3.41847 0
M  V30 2343 H 216.574 3.25661 -1.81656 0
M  V30 2344 N 218.759 1.29093 0.90403 0
M  V30 2345 C 220.036 1.075 1.63411 0
M  V30 2346 C 220.416 -0.382346 2.07609 0
M  V30 2347 O 219.764 -1.37031 1.82851 0
M  V30 2348 C 219.974 2.05858 2.81822 0
M  V30 2349 C 221.322 2.36539 3.52611 0
M  V30 2350 O 222.346 2.04019 2.91984 0
M  V30 2351 O 221.205 2.92085 4.61897 0
M  V30 2352 H 218.299 0.411547 0.717327 0
M  V30 2353 H 220.845 1.40449 0.952479 0
M  V30 2354 H 219.617 3.04037 2.46327 0
M  V30 2355 H 219.24 1.73613 3.57693 0
M  V30 2356 N 220.237 -1.11381 1.11499 0
M  V30 2357 C 221.462 -1.87475 0.887019 0
M  V30 2358 C 221.887 -1.79639 -0.557796 0
M  V30 2359 O 221.245 -1.15924 -1.39396 0
M  V30 2360 C 221.293 -3.34213 1.35403 0
M  V30 2361 O 220.397 -4.0903 0.526146 0
M  V30 2362 H 219.738 -0.582099 0.319463 0
M  V30 2363 H 222.268 -1.40785 1.48461 0
M  V30 2364 H 222.278 -3.8506 1.34881 0
M  V30 2365 H 220.953 -3.39232 2.40612 0
M  V30 2366 H 219.53 -3.68082 0.597522 0
M  V30 2367 N 221.715 -0.905404 -1.28997 0
M  V30 2368 C 222.963 -0.533192 -1.9494 0
M  V30 2369 C 223.284 0.924618 -1.71685 0
M  V30 2370 O 222.554 1.65268 -1.05183 0
M  V30 2371 H 221.134 -0.194194 -0.721317 0
M  V30 2372 H 223.796 -1.15294 -1.57141 0
M  V30 2373 H 222.892 -0.72059 -3.03667 0
M  V30 2374 N 223.193 1.4272 -0.668489 0
M  V30 2375 C 224.441 2.01226 -0.187769 0
M  V30 2376 C 224.762 1.53092 1.2078 0
M  V30 2377 O 224.032 0.74993 1.80977 0
M  V30 2378 H 222.612 0.744041 -0.0664272 0
M  V30 2379 H 225.274 1.74723 -0.863583 0
M  V30 2380 H 224.37 3.11556 -0.184166 0
M  V30 2381 N 224.671 0.411399 1.52136 0
M  V30 2382 C 226.082 -0.0576826 1.86611 0
M  V30 2383 C 226.433 -1.44238 1.33003 0
M  V30 2384 O 225.558 -2.05759 0.670228 0
M  V30 2385 C 226.153 -0.111448 3.38617 0
M  V30 2386 C 224.712 -0.52487 3.72723 0
M  V30 2387 C 223.859 0.299176 2.75681 0
M  V30 2388 H 226.81 0.628368 1.4573 0
M  V30 2389 H 226.831 -0.926252 3.69054 0
M  V30 2390 H 226.343 0.896488 3.77604 0
M  V30 2391 H 224.444 -1.53936 3.39315 0
M  V30 2392 H 224.557 -0.267681 4.78352 0
M  V30 2393 H 222.921 -0.238814 2.53578 0
M  V30 2394 H 223.704 1.3055 3.17508 0
M  V30 2395 N 226.149 -1.5696 0.141893 0
M  V30 2396 C 227.079 -2.19516 -0.795936 0
M  V30 2397 C 228.06 -1.14187 -1.26077 0
M  V30 2398 O 229.245 -1.42511 -1.31925 0
M  V30 2399 C 226.375 -2.81272 -2.03723 0
M  V30 2400 C 225.329 -3.92384 -1.70936 0
M  V30 2401 C 224.655 -4.41052 -3.02287 0
M  V30 2402 C 225.955 -5.13403 -0.959954 0
M  V30 2403 H 227.649 -2.98138 -0.274596 0
M  V30 2404 H 225.195 -1.43406 -0.130636 0
M  V30 2405 H 227.148 -3.237 -2.69808 0
M  V30 2406 H 225.872 -1.99973 -2.58221 0
M  V30 2407 H 224.531 -3.50566 -1.07232 0
M  V30 2408 H 224.179 -3.56582 -3.54765 0
M  V30 2409 H 223.879 -5.15993 -2.81114 0
M  V30 2410 H 225.403 -4.86146 -3.69451 0
M  V30 2411 H 226.817 -5.52706 -1.52279 0
M  V30 2412 H 225.214 -5.94073 -0.848357 0
M  V30 2413 H 226.284 -4.84875 0.0492434 0
M  V30 2414 N 227.627 0.131896 -1.57047 0
M  V30 2415 C 228.876 0.84044 -1.83356 0
M  V30 2416 C 229.189 1.81646 -0.725535 0
M  V30 2417 O 230.395 2.57025 -0.874659 0
M  V30 2418 C 228.851 1.54528 -3.25037 0
M  V30 2419 C 228.459 0.610902 -4.43815 0
M  V30 2420 C 230.203 2.23972 -3.60606 0
M  V30 2421 C 228.11 1.31823 -5.76521 0
M  V30 2422 H 227.04 0.317599 -0.683847 0
M  V30 2423 H 229.691 0.0931561 -1.83263 0
M  V30 2424 H 228.073 2.33873 -3.19561 0
M  V30 2425 H 229.247 -0.148407 -4.60561 0
M  V30 2426 H 227.562 0.0241016 -4.16393 0
M  V30 2427 H 230.159 2.77558 -4.57018 0
M  V30 2428 H 230.502 3.01173 -2.87403 0
M  V30 2429 H 231.035 1.51529 -3.6781 0
M  V30 2430 H 227.774 0.587771 -6.52859 0
M  V30 2431 H 227.294 2.04987 -5.63685 0
M  V30 2432 H 228.973 1.855 -6.19838 0
M  V30 2433 N 229.106 1.52395 0.401703 0
M  V30 2434 C 230.383 1.57387 1.16141 0
M  V30 2435 C 230.763 0.359359 2.08019 0
M  V30 2436 O 230.111 -0.65326 2.18963 0
M  V30 2437 C 230.321 2.90631 1.93221 0
M  V30 2438 C 231.669 3.43904 2.49028 0
M  V30 2439 O 232.693 2.92421 2.03393 0
M  V30 2440 O 231.552 4.33823 3.32356 0
M  V30 2441 H 228.646 0.634262 0.530698 0
M  V30 2442 H 231.192 1.64725 0.407883 0
M  V30 2443 H 229.964 3.70473 1.25958 0
M  V30 2444 H 229.587 2.8662 2.75563 0
M  V30 2445 N 230.584 -0.659388 1.43143 0
M  V30 2446 C 231.514 -1.78422 1.50625 0
M  V30 2447 C 232.495 -1.66216 0.361443 0
M  V30 2448 O 233.68 -1.85404 0.577834 0
M  V30 2449 C 230.81 -3.16815 1.42287 0
M  V30 2450 C 229.764 -3.43777 2.54954 0
M  V30 2451 C 229.09 -4.81905 2.31671 0
M  V30 2452 C 230.39 -3.39134 3.97222 0
M  V30 2453 H 232.084 -1.72417 2.44771 0
M  V30 2454 H 229.63 -0.828084 1.17808 0
M  V30 2455 H 231.583 -3.95253 1.46127 0
M  V30 2456 H 230.307 -3.23534 0.446435 0
M  V30 2457 H 228.966 -2.67707 2.50457 0
M  V30 2458 H 228.614 -4.85294 1.32284 0
M  V30 2459 H 228.314 -5.00906 3.07192 0
M  V30 2460 H 229.838 -5.62609 2.37284 0
M  V30 2461 H 231.252 -4.07518 4.03239 0
M  V30 2462 H 229.649 -3.69671 4.72719 0
M  V30 2463 H 230.719 -2.37426 4.22797 0
M  V30 2464 N 232.062 -1.29571 -0.897171 0
M  V30 2465 C 232.992 -1.17473 -2.01798 0
M  V30 2466 C 233.973 -0.068323 -1.69963 0
M  V30 2467 O 235.158 -0.248239 -1.92607 0
M  V30 2468 C 232.288 -0.853099 -3.36659 0
M  V30 2469 C 231.242 -1.9161 -3.82713 0
M  V30 2470 C 230.568 -1.44773 -5.14728 0
M  V30 2471 C 231.868 -3.32535 -4.02763 0
M  V30 2472 H 233.562 -2.11237 -2.12177 0
M  V30 2473 H 231.108 -1.01699 -1.01948 0
M  V30 2474 H 233.061 -0.755165 -4.14578 0
M  V30 2475 H 231.785 0.120236 -3.26379 0
M  V30 2476 H 230.444 -2.00346 -3.07013 0
M  V30 2477 H 230.092 -0.462995 -5.00865 0
M  V30 2478 H 229.792 -2.15865 -5.46513 0
M  V30 2479 H 231.316 -1.36334 -5.95185 0
M  V30 2480 H 232.73 -3.26626 -4.71156 0
M  V30 2481 H 231.127 -4.01607 -4.45905 0
M  V30 2482 H 232.197 -3.75326 -3.07016 0
M  V30 2483 N 233.54 1.10788 -1.12088 0
M  V30 2484 C 234.768 1.86461 -0.896651 0
M  V30 2485 C 235.183 1.80492 0.553912 0
M  V30 2486 O 234.54 1.19102 1.38278 0
M  V30 2487 C 234.591 3.35006 -1.35843 0
M  V30 2488 O 234.312 3.40866 -2.75213 0
M  V30 2489 C 235.813 4.27565 -1.1706 0
M  V30 2490 H 233.033 0.589425 -0.320654 0
M  V30 2491 H 235.577 1.40076 -1.48993 0
M  V30 2492 H 233.732 3.7887 -0.808458 0
M  V30 2493 H 234.146 4.33411 -2.9539 0
M  V30 2494 H 235.62 5.30007 -1.54263 0
M  V30 2495 H 236.097 4.3906 -0.110814 0
M  V30 2496 H 236.703 3.89501 -1.70789 0
M  V30 2497 N 235.018 0.912232 1.28515 0
M  V30 2498 C 235.928 0.404506 2.31086 0
M  V30 2499 C 236.944 -0.50707 1.66448 0
M  V30 2500 O 238.12 -0.393624 1.97516 0
M  V30 2501 C 235.185 -0.348572 3.44943 0
M  V30 2502 C 234.246 0.59604 4.25142 0
M  V30 2503 C 233.479 -0.121194 5.33562 0
M  V30 2504 O 233.702 -1.34317 5.5436 0
M  V30 2505 O 232.636 0.542716 5.99448 0
M  V30 2506 H 236.462 1.25579 2.76521 0
M  V30 2507 H 234.047 0.676998 1.33181 0
M  V30 2508 H 235.929 -0.77395 4.14232 0
M  V30 2509 H 234.604 -1.17571 3.01594 0
M  V30 2510 H 233.511 1.07079 3.58448 0
M  V30 2511 H 234.844 1.38995 4.72167 0
M  V30 2512 N 236.496 -1.42363 0.676048 0
M  V30 2513 C 237.773 -1.95183 0.127726 0
M  V30 2514 C 238.153 -1.61641 -1.35777 0
M  V30 2515 O 237.501 -0.913216 -2.09458 0
M  V30 2516 C 237.711 -3.46721 0.398199 0
M  V30 2517 C 239.059 -4.23427 0.315383 0
M  V30 2518 O 240.083 -3.54649 0.332016 0
M  V30 2519 O 238.942 -5.45888 0.25865 0
M  V30 2520 H 236.036 -0.826992 0.00359427 0
M  V30 2521 H 238.582 -1.52184 0.750864 0
M  V30 2522 H 237.354 -3.64344 1.4272 0
M  V30 2523 H 236.977 -3.96769 -0.256885 0
M  V30 2524 N 237.974 -0.419461 -1.51915 0
M  V30 2525 C 239.385 0.0477853 -1.86639 0
M  V30 2526 C 239.736 1.43531 -1.33766 0
M  V30 2527 O 238.861 2.05401 -0.68113 0
M  V30 2528 C 239.456 0.0934885 -3.38671 0
M  V30 2529 C 238.015 0.505097 -3.72996 0
M  V30 2530 C 237.162 -0.313792 -2.75519 0
M  V30 2531 H 240.113 -0.636088 -1.45395 0
M  V30 2532 H 240.134 0.906667 -3.6954 0
M  V30 2533 H 239.646 -0.916501 -3.77123 0
M  V30 2534 H 237.747 1.52135 -3.40126 0
M  V30 2535 H 237.86 0.242309 -4.78487 0
M  V30 2536 H 236.224 0.225363 -2.53701 0
M  V30 2537 H 237.007 -1.32232 -3.16812 0
M  V30 2538 N 239.452 1.56882 -0.150215 0
M  V30 2539 C 240.863 1.82995 0.370076 0
M  V30 2540 C 241.214 1.06907 1.64515 0
M  V30 2541 O 240.339 0.315369 2.1409 0
M  V30 2542 C 240.934 3.31942 0.678208 0
M  V30 2543 C 239.493 3.58625 1.14301 0
M  V30 2544 C 238.64 2.76792 0.167778 0
M  V30 2545 H 241.591 1.54209 -0.374858 0
M  V30 2546 H 241.612 3.48272 1.53254 0
M  V30 2547 H 241.124 3.87294 -0.249991 0
M  V30 2548 H 239.225 3.08664 2.08704 0
M  V30 2549 H 239.338 4.67073 1.06676 0
M  V30 2550 H 237.702 2.45972 0.661037 0
M  V30 2551 H 238.485 3.34916 -0.754069 0
M  V30 2552 N 240.93 -0.123565 1.57115 0
M  V30 2553 C 242.341 -0.681198 1.73829 0
M  V30 2554 C 242.692 -1.80535 0.768214 0
M  V30 2555 O 241.817 -2.16317 -0.0599103 0
M  V30 2556 C 242.412 -1.24246 3.15196 0
M  V30 2557 C 240.971 -1.74643 3.33432 0
M  V30 2558 C 240.118 -0.644284 2.69711 0
M  V30 2559 H 243.069 0.102315 1.5837 0
M  V30 2560 H 243.09 -2.11216 3.16493 0
M  V30 2561 H 242.602 -0.424062 3.85776 0
M  V30 2562 H 240.703 -2.58974 2.67886 0
M  V30 2563 H 240.816 -1.85902 4.41562 0
M  V30 2564 H 239.18 -1.07676 2.3082 0
M  V30 2565 H 239.963 0.163058 3.42913 0
M  V30 2566 N 242.408 -1.52605 -0.393616 0
M  V30 2567 C 243.638 -1.71046 -1.15874 0
M  V30 2568 C 244.046 -0.426483 -1.84331 0
M  V30 2569 O 243.389 0.608513 -1.73329 0
M  V30 2570 C 243.451 -2.80118 -2.25332 0
M  V30 2571 C 243.115 -4.21381 -1.76881 0
M  V30 2572 C 244.112 -5.04697 -1.24808 0
M  V30 2573 C 241.797 -4.67683 -1.83244 0
M  V30 2574 C 243.791 -6.32393 -0.797387 0
M  V30 2575 C 241.478 -5.95364 -1.37787 0
M  V30 2576 C 242.476 -6.77549 -0.861208 0
M  V30 2577 O 242.164 -8.02837 -0.413252 0
M  V30 2578 H 241.896 -0.576155 -0.353583 0
M  V30 2579 H 244.45 -2.00018 -0.467123 0
M  V30 2580 H 242.68 -2.46557 -2.97904 0
M  V30 2581 H 244.369 -2.87006 -2.87023 0
M  V30 2582 H 245.135 -4.70111 -1.19252 0
M  V30 2583 H 241.014 -4.03805 -2.22401 0
M  V30 2584 H 244.558 -6.9649 -0.393437 0
M  V30 2585 H 240.455 -6.29455 -1.43026 0
M  V30 2586 H 241.223 -8.16749 -0.53515 0
M  V30 2587 N 243.887 0.651787 -1.4349 0
M  V30 2588 C 245.303 0.96762 -1.26922 0
M  V30 2589 C 245.503 2.00602 -0.189982 0
M  V30 2590 O 244.559 2.48793 0.431107 0
M  V30 2591 C 245.872 1.45052 -2.63401 0
M  V30 2592 C 247.42 1.5671 -2.70945 0
M  V30 2593 C 247.895 2.0839 -4.07845 0
M  V30 2594 N 249.386 2.1569 -4.09917 0
M  V30 2595 C 250.121 2.56804 -5.12679 0
M  V30 2596 N 249.617 2.97203 -6.25813 0
M  V30 2597 N 251.41 2.56756 -5.00033 0
M  V30 2598 H 243.561 -0.0353158 -2.12371 0
M  V30 2599 H 245.824 0.0467858 -0.946845 0
M  V30 2600 H 245.53 0.761926 -3.43348 0
M  V30 2601 H 245.404 2.42529 -2.88894 0
M  V30 2602 H 247.791 2.2467 -1.9133 0
M  V30 2603 H 247.872 0.57662 -2.49216 0
M  V30 2604 H 247.516 1.41031 -4.87927 0
M  V30 2605 H 247.446 3.08271 -4.26938 0
M  V30 2606 H 249.937 1.87237 -3.28254 0
M  V30 2607 H 250.25 3.27328 -7.00055 0
M  V30 2608 H 248.595 2.95004 -6.29283 0
M  V30 2609 H 251.786 2.24572 -4.10713 0
M  V30 2610 H 251.959 2.88475 -5.80247 0
M  V30 2611 N 245.365 1.30045 0.890287 0
M  V30 2612 C 246.642 1.09227 1.62262 0
M  V30 2613 C 247.022 -0.360305 2.08002 0
M  V30 2614 O 246.37 -1.35084 1.84295 0
M  V30 2615 C 246.58 2.08835 2.79623 0
M  V30 2616 C 247.928 2.40266 3.50082 0
M  V30 2617 O 248.952 2.07104 2.89804 0
M  V30 2618 O 247.811 2.96967 4.58773 0
M  V30 2619 H 244.905 0.419132 0.712922 0
M  V30 2620 H 247.451 1.41451 0.937529 0
M  V30 2621 H 246.223 3.06633 2.43089 0
M  V30 2622 H 245.846 1.77397 3.55832 0
M  V30 2623 N 246.843 -1.10192 1.12674 0
M  V30 2624 C 248.254 -1.63707 0.897604 0
M  V30 2625 C 248.605 -1.87812 -0.567546 0
M  V30 2626 O 247.73 -1.62196 -1.43253 0
M  V30 2627 C 248.325 -2.974 1.62292 0
M  V30 2628 C 246.884 -3.47772 1.43986 0
M  V30 2629 C 246.031 -2.22332 1.65722 0
M  V30 2630 H 248.982 -0.936587 1.28116 0
M  V30 2631 H 249.003 -3.64986 1.07541 0
M  V30 2632 H 248.515 -2.79824 2.68924 0
M  V30 2633 H 246.616 -3.70487 0.396206 0
M  V30 2634 H 246.729 -4.25723 2.19765 0
M  V30 2635 H 245.093 -2.30599 1.08149 0
M  V30 2636 H 245.876 -2.07285 2.73657 0
M  V30 2637 N 248.321 -0.919034 -1.28029 0
M  V30 2638 C 249.737 -0.617972 -1.4715 0
M  V30 2639 C 249.937 0.835242 -1.83374 0
M  V30 2640 O 248.993 1.61388 -1.94191 0
M  V30 2641 C 250.306 -1.56041 -2.57044 0
M  V30 2642 C 251.854 -1.56769 -2.7091 0
M  V30 2643 C 252.329 -2.49688 -3.83953 0
M  V30 2644 N 253.82 -2.47845 -3.91314 0
M  V30 2645 C 254.555 -3.16437 -4.78179 0
M  V30 2646 N 254.051 -3.94376 -5.69596 0
M  V30 2647 N 255.844 -3.05498 -4.71834 0
M  V30 2648 H 247.995 -1.85866 -1.02798 0
M  V30 2649 H 250.258 -0.797506 -0.512531 0
M  V30 2650 H 249.964 -2.59671 -2.372 0
M  V30 2651 H 249.838 -1.29551 -3.54255 0
M  V30 2652 H 252.225 -0.538745 -2.90141 0
M  V30 2653 H 252.306 -1.87305 -1.74214 0
M  V30 2654 H 251.95 -3.52688 -3.65477 0
M  V30 2655 H 251.88 -2.16453 -4.80058 0
M  V30 2656 H 254.371 -1.91234 -3.25941 0
M  V30 2657 H 254.684 -4.43721 -6.32718 0
M  V30 2658 H 253.029 -3.98481 -5.69419 0
M  V30 2659 H 256.22 -2.44108 -3.99411 0
M  V30 2660 H 256.393 -3.59225 -5.39316 0
M  V30 2661 N 249.799 1.42003 -0.683588 0
M  V30 2662 C 251.21 1.84501 -0.285736 0
M  V30 2663 C 251.561 1.57213 1.17382 0
M  V30 2664 O 250.686 1.03642 1.89966 0
M  V30 2665 C 251.281 3.34912 -0.511821 0
M  V30 2666 C 249.84 3.76025 -0.168005 0
M  V30 2667 C 248.987 2.6551 -0.799983 0
M  V30 2668 H 251.938 1.31724 -0.885119 0
M  V30 2669 H 251.959 3.79784 0.233292 0
M  V30 2670 H 251.471 3.54741 -1.57418 0
M  V30 2671 H 249.572 3.61801 0.890567 0
M  V30 2672 H 249.685 4.75141 -0.614661 0
M  V30 2673 H 248.049 2.53654 -0.230568 0
M  V30 2674 H 248.832 2.8816 -1.86597 0
M  V30 2675 N 251.277 0.427512 1.51691 0
M  V30 2676 C 252.688 -0.0378867 1.86662 0
M  V30 2677 C 253.039 -1.42819 1.34525 0
M  V30 2678 O 252.164 -2.05037 0.692014 0
M  V30 2679 C 252.759 -0.0755266 3.38716 0
M  V30 2680 C 251.318 -0.485309 3.73258 0
M  V30 2681 C 250.465 0.328399 2.75349 0
M  V30 2682 H 253.416 0.64379 1.45055 0
M  V30 2683 H 253.437 -0.887056 3.70016 0
M  V30 2684 H 252.949 0.936487 3.76632 0
M  V30 2685 H 251.05 -1.50329 3.40928 0
M  V30 2686 H 251.163 -0.21693 4.78609 0
M  V30 2687 H 249.527 -0.211905 2.53817 0
M  V30 2688 H 250.31 1.3391 3.16106 0
M  V30 2689 N 252.755 -1.56801 0.158532 0
M  V30 2690 C 254.166 -1.83189 -0.360366 0
M  V30 2691 C 254.517 -1.07778 -1.63946 0
M  V30 2692 O 253.642 -0.326718 -2.13919 0
M  V30 2693 C 254.237 -3.32297 -0.660595 0
M  V30 2694 C 252.796 -3.59227 -1.12398 0
M  V30 2695 C 251.943 -2.76877 -0.153097 0
M  V30 2696 H 254.894 -1.54008 0.383031 0
M  V30 2697 H 254.915 -3.4908 -1.51405 0
M  V30 2698 H 254.427 -3.87156 0.270527 0
M  V30 2699 H 252.528 -3.09766 -2.07064 0
M  V30 2700 H 252.641 -4.67632 -1.04197 0
M  V30 2701 H 251.005 -2.46319 -0.647983 0
M  V30 2702 H 251.788 -3.34511 0.77182 0
M  V30 2703 N 254.233 0.115231 -1.57178 0
M  V30 2704 C 255.458 0.840354 -1.89612 0
M  V30 2705 C 255.883 1.72464 -0.750845 0
M  V30 2706 O 255.241 1.78826 0.298478 0
M  V30 2707 C 255.289 1.64654 -3.20814 0
M  V30 2708 O 254.393 2.7538 -3.06985 0
M  V30 2709 H 253.734 0.232158 -0.622092 0
M  V30 2710 H 256.264 0.0964977 -2.04372 0
M  V30 2711 H 256.274 2.03499 -3.53627 0
M  V30 2712 H 254.949 0.997416 -4.03763 0
M  V30 2713 H 253.526 2.3971 -2.85646 0
M  V30 2714 N 255.711 1.52812 0.385517 0
M  V30 2715 C 256.988 1.5861 1.14465 0
M  V30 2716 C 257.368 0.381402 2.07626 0
M  V30 2717 O 256.716 -0.629999 2.19643 0
M  V30 2718 C 256.926 2.92664 1.90128 0
M  V30 2719 C 258.274 3.46526 2.45367 0
M  V30 2720 O 259.298 2.94562 2.0028 0
M  V30 2721 O 258.157 4.37323 3.27736 0
M  V30 2722 H 255.251 0.639855 0.523941 0
M  V30 2723 H 257.797 1.65149 0.390389 0
M  V30 2724 H 256.569 3.71788 1.22022 0
M  V30 2725 H 256.192 2.89527 2.72507 0
M  V30 2726 N 257.189 -0.644168 1.43834 0
M  V30 2727 C 258.605 -0.960875 1.27434 0
M  V30 2728 C 258.805 -2.00499 0.200618 0
M  V30 2729 O 257.861 -2.49018 -0.417906 0
M  V30 2730 C 259.174 -1.43653 2.64167 0
M  V30 2731 C 260.722 -1.55271 2.71772 0
M  V30 2732 C 261.197 -2.06224 4.08944 0
M  V30 2733 N 262.688 -2.13513 4.11055 0
M  V30 2734 C 263.423 -2.54081 5.14033 0
M  V30 2735 N 262.919 -2.9388 6.27381 0
M  V30 2736 N 264.712 -2.54101 5.01387 0
M  V30 2737 H 256.863 0.0465779 2.12349 0
M  V30 2738 H 259.126 -0.0417638 0.94708 0
M  V30 2739 H 258.832 -0.743706 3.43747 0
M  V30 2740 H 258.706 -2.40993 2.90176 0
M  V30 2741 H 261.093 -2.23653 1.92519 0
M  V30 2742 H 261.174 -0.563395 2.49519 0
M  V30 2743 H 260.818 -1.38441 4.88668 0
M  V30 2744 H 260.748 -3.06003 4.28567 0
M  V30 2745 H 263.239 -1.85493 3.29242 0
M  V30 2746 H 263.552 -3.2361 7.01781 0
M  V30 2747 H 261.897 -2.91663 6.30839 0
M  V30 2748 H 265.088 -2.22391 4.11898 0
M  V30 2749 H 265.261 -2.85394 5.81768 0
M  V30 2750 N 258.668 -1.30515 -0.883378 0
M  V30 2751 C 259.945 -1.10086 -1.6168 0
M  V30 2752 C 260.325 0.349269 -2.08191 0
M  V30 2753 O 259.673 1.34105 -1.85008 0
M  V30 2754 C 259.883 -2.10315 -2.78511 0
M  V30 2755 C 261.231 -2.42119 -3.48803 0
M  V30 2756 O 262.255 -2.08638 -2.88702 0
M  V30 2757 O 261.114 -2.99396 -4.57192 0
M  V30 2758 H 258.208 -0.422907 -0.710689 0
M  V30 2759 H 260.754 -1.41947 -0.930015 0
M  V30 2760 H 259.526 -3.07917 -2.41459 0
M  V30 2761 H 259.149 -1.79282 -3.54886 0
M  V30 2762 N 260.146 1.09593 -1.13257 0
M  V30 2763 C 261.394 1.81375 -0.891492 0
M  V30 2764 C 261.715 1.86049 0.584009 0
M  V30 2765 O 260.985 1.34481 1.42449 0
M  V30 2766 H 259.565 0.671708 -0.326828 0
M  V30 2767 H 262.227 1.3256 -1.42877 0
M  V30 2768 H 261.323 2.84612 -1.28071 0
M  V30 2769 N 261.624 0.925811 1.2754 0
M  V30 2770 C 262.572 0.413897 2.28888 0
M  V30 2771 C 263.566 -0.500779 1.61829 0
M  V30 2772 O 264.772 -0.38069 1.75928 0
M  V30 2773 H 261.147 0.115274 0.743112 0
M  V30 2774 H 263.118 1.28151 2.69481 0
M  V30 2775 C 261.867 -0.319792 3.46226 0
M  V30 2776 H 261.19 0.374846 3.98039 0
M  V30 2777 H 262.63 -0.642435 4.19105 0
M  V30 2778 C 261.089 -1.53209 3.00048 0
M  V30 2779 O 261.619 -2.6309 3.03557 0
M  V30 2780 N 259.825 -1.38326 2.55566 0
M  V30 2781 H 259.372 -0.489292 2.5291 0
M  V30 2782 H 259.33 -2.19564 2.25031 0
M  V30 2783 N 263.102 -1.41638 0.69111 0
M  V30 2784 C 264.35 -2.00902 0.219758 0
M  V30 2785 C 264.671 -1.54994 -1.18329 0
M  V30 2786 O 263.941 -0.778628 -1.79762 0
M  V30 2787 H 262.521 -0.74289 0.0782558 0
M  V30 2788 H 265.183 -1.73327 0.891271 0
M  V30 2789 H 264.279 -3.11224 0.233708 0
M  V30 2790 N 264.58 -0.43555 -1.51462 0
M  V30 2791 C 265.828 0.131254 -2.01673 0
M  V30 2792 C 266.149 1.43368 -1.32177 0
M  V30 2793 O 265.419 1.90524 -0.455769 0
M  V30 2794 H 263.999 0.0514954 -0.745223 0
M  V30 2795 H 266.661 -0.577847 -1.86137 0
M  V30 2796 H 265.757 0.308446 -3.10572 0
M  V30 2797 N 266.058 1.56714 -0.166846 0
M  V30 2798 C 266.968 2.21331 0.777791 0
M  V30 2799 C 267.984 1.20358 1.25658 0
M  V30 2800 O 269.16 1.53005 1.30964 0
M  V30 2801 C 266.225 2.83787 1.99163 0
M  V30 2802 C 265.286 3.99947 1.56016 0
M  V30 2803 C 264.519 4.59415 2.71613 0
M  V30 2804 O 264.742 4.17769 3.88362 0
M  V30 2805 O 263.676 5.49359 2.45945 0
M  V30 2806 H 267.502 3.02605 0.257636 0
M  V30 2807 H 265.087 1.49275 0.0611393 0
M  V30 2808 H 266.969 3.23405 2.70161 0
M  V30 2809 H 265.644 2.05513 2.50092 0
M  V30 2810 H 264.551 3.65007 0.819809 0
M  V30 2811 H 265.884 4.79801 1.09782 0
M  V30 2812 N 267.536 -0.106894 1.57237 0
M  V30 2813 C 268.499 -1.11466 2.0027 0
M  V30 2814 C 269.499 -1.33623 0.894519 0
M  V30 2815 O 270.689 -1.29935 1.16028 0
M  V30 2816 C 267.821 -2.46646 2.35327 0
M  V30 2817 H 269.014 -0.744516 2.90512 0
M  V30 2818 H 266.567 -0.351576 1.52295 0
M  V30 2819 H 267.302 -2.88558 1.48003 0
M  V30 2820 H 267.087 -2.31915 3.16161 0
M  V30 2821 H 268.577 -3.19151 2.69318 0
M  V30 2822 N 269.014 -1.53014 -0.377408 0
M  V30 2823 C 270.242 -1.72515 -1.14219 0
M  V30 2824 C 270.657 -0.448735 -1.8339 0
M  V30 2825 O 270.014 0.577592 -1.73119 0
M  V30 2826 C 270.065 -2.8826 -2.18148 0
M  V30 2827 O 269.786 -4.10962 -1.51795 0
M  V30 2828 C 271.287 -3.19536 -3.07264 0
M  V30 2829 H 268.507 -0.577301 -0.342001 0
M  V30 2830 H 271.051 -1.99712 -0.439935 0
M  V30 2831 H 269.206 -2.63492 -2.83991 0
M  V30 2832 H 269.62 -4.75693 -2.20945 0
M  V30 2833 H 271.094 -4.03959 -3.76193 0
M  V30 2834 H 271.571 -2.34403 -3.71419 0
M  V30 2835 H 272.177 -3.46186 -2.47053 0
M  V30 2836 N 270.492 0.636531 -1.44174 0
M  V30 2837 C 271.903 1.21806 -1.41493 0
M  V30 2838 C 272.254 1.95785 -0.1275 0
M  V30 2839 O 271.379 2.02147 0.772376 0
M  V30 2840 C 271.974 2.21551 -2.56321 0
M  V30 2841 C 270.533 2.75143 -2.56853 0
M  V30 2842 C 269.68 1.50052 -2.33195 0
M  V30 2843 H 272.631 0.427531 -1.52833 0
M  V30 2844 H 272.652 3.0405 -2.28765 0
M  V30 2845 H 272.164 1.67679 -3.50008 0
M  V30 2846 H 270.265 3.33033 -1.67093 0
M  V30 2847 H 270.378 3.2155 -3.55165 0
M  V30 2848 H 268.742 1.77993 -1.82183 0
M  V30 2849 H 269.525 0.980903 -3.28988 0
M  V30 2850 N 271.97 1.30982 0.876444 0
M  V30 2851 C 272.933 1.18054 1.96459 0
M  V30 2852 C 273.933 0.109399 1.60427 0
M  V30 2853 O 275.123 0.358173 1.70478 0
M  V30 2854 C 272.255 0.810616 3.31122 0
M  V30 2855 H 273.448 2.14735 2.09354 0
M  V30 2856 H 271.001 1.145 1.06392 0
M  V30 2857 H 271.736 -0.155322 3.23928 0
M  V30 2858 H 271.521 1.58481 3.58645 0
M  V30 2859 H 273.011 0.743876 4.10921 0
M  V30 2860 N 273.449 -1.08991 1.13837 0
M  V30 2861 C 274.697 -1.80899 0.901098 0
M  V30 2862 C 275.018 -1.86356 -0.574134 0
M  V30 2863 O 274.288 -1.35235 -1.41733 0
M  V30 2864 H 272.868 -0.669966 0.330386 0
M  V30 2865 H 275.53 -1.318 1.43578 0
M  V30 2866 H 274.626 -2.83929 1.29578 0
M  V30 2867 N 274.927 -0.932562 -1.27047 0
M  V30 2868 C 275.837 -0.441219 -2.30414 0
M  V30 2869 C 276.853 0.480525 -1.67233 0
M  V30 2870 O 278.029 0.362151 -1.98117 0
M  V30 2871 C 275.094 0.293651 -3.45454 0
M  V30 2872 C 274.155 -0.663601 -4.2414 0
M  V30 2873 C 273.388 0.0362932 -5.33688 0
M  V30 2874 O 273.611 1.2548 -5.56427 0
M  V30 2875 O 272.545 -0.638015 -5.98509 0
M  V30 2876 H 276.371 -1.29962 -2.74488 0
M  V30 2877 H 273.956 -0.6981 -1.32087 0
M  V30 2878 H 275.838 0.707951 -4.15411 0
M  V30 2879 H 274.513 1.12758 -3.03426 0
M  V30 2880 H 273.42 -1.12768 -3.56699 0
M  V30 2881 H 274.753 -1.46489 -4.69896 0
M  V30 2882 N 276.405 1.4127 -0.698611 0
M  V30 2883 C 277.368 2.29158 -0.044132 0
M  V30 2884 C 278.368 1.44529 0.704841 0
M  V30 2885 O 279.558 1.65643 0.539276 0
M  V30 2886 C 276.69 3.27459 0.947809 0
M  V30 2887 H 277.883 2.88529 -0.817994 0
M  V30 2888 H 275.436 1.49307 -0.46228 0
M  V30 2889 H 276.171 2.73073 1.74933 0
M  V30 2890 H 275.956 3.8991 0.41385 0
M  V30 2891 H 277.446 3.93311 1.40344 0
M  V30 2892 N 277.883 0.443576 1.51229 0
M  V30 2893 C 279.294 -0.0180867 1.86691 0
M  V30 2894 C 279.645 -1.41384 1.36033 0
M  V30 2895 O 278.77 -2.04291 0.713722 0
M  V30 2896 C 279.365 -0.039597 3.38777 0
M  V30 2897 C 277.924 -0.445692 3.73752 0
M  V30 2898 C 277.071 0.357584 2.74985 0
M  V30 2899 H 280.022 0.659138 1.44364 0
M  V30 2900 H 280.043 -0.847761 3.70936 0
M  V30 2901 H 279.555 0.976382 3.75617 0
M  V30 2902 H 277.656 -1.46704 3.42503 0
M  V30 2903 H 277.769 -0.166155 4.78812 0
M  V30 2904 H 276.133 -0.184973 2.54027 0
M  V30 2905 H 276.916 1.37256 3.14668 0
M  V30 2906 N 279.361 -1.56624 0.175154 0
M  V30 2907 C 280.638 -1.88688 -0.515373 0
M  V30 2908 C 281.018 -1.08564 -1.81044 0
M  V30 2909 O 280.366 -0.180703 -2.27784 0
M  V30 2910 C 280.576 -3.40768 -0.753552 0
M  V30 2911 C 281.924 -4.10587 -1.08184 0
M  V30 2912 O 282.948 -3.46106 -0.841961 0
M  V30 2913 O 281.807 -5.24512 -1.53459 0
M  V30 2914 H 278.901 -0.78301 -0.26613 0
M  V30 2915 H 281.447 -1.68347 0.213877 0
M  V30 2916 H 280.219 -3.90965 0.161829 0
M  V30 2917 H 279.842 -3.66733 -1.53598 0
M  V30 2918 N 280.839 0.0985539 -1.57292 0
M  V30 2919 C 282.25 0.653457 -1.74891 0
M  V30 2920 C 282.601 1.7929 -0.796838 0
M  V30 2921 O 281.726 2.16385 0.0254886 0
M  V30 2922 C 282.321 1.19216 -3.17133 0
M  V30 2923 C 280.88 1.69316 -3.36168 0
M  V30 2924 C 280.027 0.601294 -2.70702 0
M  V30 2925 H 282.978 -0.127497 -1.58187 0
M  V30 2926 H 282.999 2.06154 -3.19814 0
M  V30 2927 H 282.511 0.362635 -3.86402 0
M  V30 2928 H 280.612 2.5468 -2.71972 0
M  V30 2929 H 280.725 1.78853 -4.44464 0
M  V30 2930 H 279.089 1.0399 -2.32504 0
M  V30 2931 H 279.872 -0.217592 -3.4261 0
M  V30 2932 N 282.317 1.53212 0.369288 0
M  V30 2933 C 283.542 1.73423 1.1375 0
M  V30 2934 C 283.967 0.460404 1.82378 0
M  V30 2935 O 283.325 -0.585298 1.71592 0
M  V30 2936 C 283.373 2.89769 2.1463 0
M  V30 2937 O 282.477 2.58119 3.21634 0
M  V30 2938 H 281.818 0.576061 0.330227 0
M  V30 2939 H 284.348 2.00083 0.427547 0
M  V30 2940 H 284.358 3.15829 2.58294 0
M  V30 2941 H 283.033 3.8217 1.64071 0
M  V30 2942 H 281.61 2.42864 2.82969 0
M  V30 2943 N 283.795 -0.628877 1.44509 0
M  V30 2944 C 285.206 -1.21054 1.42137 0
M  V30 2945 C 285.557 -1.95715 0.137881 0
M  V30 2946 O 284.682 -2.02554 -0.761645 0
M  V30 2947 C 285.277 -2.20189 2.57493 0
M  V30 2948 C 283.836 -2.73777 2.58308 0
M  V30 2949 C 282.983 -1.48813 2.33987 0
M  V30 2950 H 285.934 -0.41942 1.53057 0
M  V30 2951 H 285.955 -3.02833 2.30375 0
M  V30 2952 H 285.467 -1.6582 3.50892 0
M  V30 2953 H 283.568 -3.32142 1.68856 0
M  V30 2954 H 283.681 -3.19662 3.56865 0
M  V30 2955 H 282.045 -1.77024 1.83124 0
M  V30 2956 H 282.828 -0.963442 3.29504 0
M  V30 2957 N 285.273 -1.31445 -0.869486 0
M  V30 2958 C 286.206 -1.13465 -1.97992 0
M  V30 2959 C 287.184 -0.0380291 -1.62556 0
M  V30 2960 O 288.368 -0.194544 -1.87493 0
M  V30 2961 C 285.495 -0.733822 -3.30655 0
M  V30 2962 C 284.541 -1.83356 -3.85075 0
M  V30 2963 S 285.374 -3.43909 -4.10472 0
M  V30 2964 C 286.53 -3.05763 -5.46132 0
M  V30 2965 H 286.763 -2.07471 -2.1294 0
M  V30 2966 H 284.296 -1.15936 -1.01972 0
M  V30 2967 H 286.254 -0.509306 -4.07328 0
M  V30 2968 H 284.915 0.187123 -3.13542 0
M  V30 2969 H 284.108 -1.50574 -4.80982 0
M  V30 2970 H 283.71 -2.01315 -3.15195 0
M  V30 2971 H 286.002 -2.54686 -6.27807 0
M  V30 2972 H 286.945 -4.00635 -5.83864 0
M  V30 2973 H 287.353 -2.43192 -5.09429 0
M  V30 2974 N 286.751 1.08385 -1.14413 0
M  V30 2975 C 287.714 2.13486 -0.834048 0
M  V30 2976 C 288.714 1.59988 0.161418 0
M  V30 2977 O 289.904 1.74071 -0.0669575 0
M  V30 2978 C 287.036 3.4003 -0.243354 0
M  V30 2979 H 288.229 2.42425 -1.7655 0
M  V30 2980 H 285.782 1.24101 -0.950189 0
M  V30 2981 H 286.517 3.16726 0.696807 0
M  V30 2982 H 286.302 3.80157 -0.960367 0
M  V30 2983 H 287.792 4.17577 -0.0436242 0
M  V30 2984 N 288.23 0.939286 1.26551 0
M  V30 2985 C 289.455 0.602008 1.98471 0
M  V30 2986 C 289.88 -0.815624 1.69497 0
M  V30 2987 O 289.238 -1.54912 0.941905 0
M  V30 2988 C 289.286 0.848407 3.50477 0
M  V30 2989 O 288.39 -0.0804009 4.12322 0
M  V30 2990 H 287.731 0.23049 0.622712 0
M  V30 2991 H 290.261 1.2617 1.61066 0
M  V30 2992 H 290.271 0.768553 4.00696 0
M  V30 2993 H 288.946 1.88171 3.70897 0
M  V30 2994 H 287.523 0.0503508 3.72866 0
M  V30 2995 N 289.708 -1.40897 0.706093 0
M  V30 2996 C 291.124 -1.55042 0.37869 0
M  V30 2997 C 291.324 -1.67944 -1.11342 0
M  V30 2998 O 290.38 -1.66372 -1.89938 0
M  V30 2999 C 291.693 -2.78398 1.13643 0
M  V30 3000 C 293.241 -2.92206 1.12181 0
M  V30 3001 C 293.716 -4.18463 1.86152 0
M  V30 3002 N 295.207 -4.25443 1.83173 0
M  V30 3003 C 295.942 -5.2202 2.37239 0
M  V30 3004 N 295.438 -6.24563 2.99821 0
M  V30 3005 N 297.231 -5.14033 2.27435 0
M  V30 3006 H 289.382 -1.30769 1.67372 0
M  V30 3007 H 291.645 -0.631653 0.706907 0
M  V30 3008 H 291.351 -2.7511 2.19106 0
M  V30 3009 H 291.225 -3.70228 0.721853 0
M  V30 3010 H 293.612 -2.95004 0.0754171 0
M  V30 3011 H 293.693 -2.01521 1.57554 0
M  V30 3012 H 293.337 -4.16427 2.90776 0
M  V30 3013 H 293.267 -5.08141 1.38206 0
M  V30 3014 H 295.758 -3.51976 1.37556 0
M  V30 3015 H 296.071 -6.94665 3.38616 0
M  V30 3016 H 294.416 -6.25035 3.03902 0
M  V30 3017 H 297.607 -4.3285 1.78208 0
M  V30 3018 H 297.78 -5.89129 2.69873 0
M  V30 3019 N 291.186 -0.45159 -1.50991 0
M  V30 3020 C 292.116 0.342898 -2.30969 0
M  V30 3021 C 293.097 1.00815 -1.37005 0
M  V30 3022 O 294.282 1.00907 -1.65926 0
M  V30 3023 C 291.412 1.43637 -3.16205 0
M  V30 3024 C 290.366 0.893818 -4.18563 0
M  V30 3025 C 289.692 2.08411 -4.92411 0
M  V30 3026 C 290.992 -0.0815568 -5.22236 0
M  V30 3027 H 292.686 -0.324556 -2.97636 0
M  V30 3028 H 290.232 -0.157531 -1.43136 0
M  V30 3029 H 292.185 1.9995 -3.70942 0
M  V30 3030 H 290.909 2.13232 -2.47386 0
M  V30 3031 H 289.568 0.352798 -3.64898 0
M  V30 3032 H 289.216 2.76658 -4.20082 0
M  V30 3033 H 288.916 1.72741 -5.61636 0
M  V30 3034 H 290.44 2.65251 -5.49976 0
M  V30 3035 H 291.854 0.391742 -5.7196 0
M  V30 3036 H 290.251 -0.351551 -5.99069 0
M  V30 3037 H 291.321 -1.01374 -4.74185 0
M  V30 3038 N 292.664 1.56529 -0.183458 0
M  V30 3039 C 294.08 1.58664 0.172554 0
M  V30 3040 C 294.28 1.19925 1.61926 0
M  V30 3041 O 293.336 0.916534 2.35278 0
M  V30 3042 C 294.649 3.00463 -0.119262 0
M  V30 3043 C 296.197 3.12945 -0.0584396 0
M  V30 3044 C 296.672 4.56857 -0.323408 0
M  V30 3045 N 298.163 4.62403 -0.271612 0
M  V30 3046 C 298.898 5.71626 -0.450639 0
M  V30 3047 N 298.394 6.89362 -0.689384 0
M  V30 3048 N 300.187 5.60775 -0.385701 0
M  V30 3049 H 292.338 1.79994 -1.12765 0
M  V30 3050 H 294.601 0.834808 -0.449222 0
M  V30 3051 H 294.307 3.33326 -1.12192 0
M  V30 3052 H 294.181 3.72659 0.583544 0
M  V30 3053 H 296.568 2.79902 0.934805 0
M  V30 3054 H 296.649 2.4316 -0.794144 0
M  V30 3055 H 296.293 4.9061 -1.31392 0
M  V30 3056 H 296.223 5.24816 0.43305 0
M  V30 3057 H 298.714 3.77785 -0.0932256 0
M  V30 3058 H 299.027 7.68489 -0.815113 0
M  V30 3059 H 297.372 6.91196 -0.726142 0
M  V30 3060 H 300.563 4.67674 -0.199687 0
M  V30 3061 H 300.736 6.4584 -0.528646 0
M  V30 3062 N 294.142 -0.090211 1.57342 0
M  V30 3063 C 295.39 -0.791241 1.85967 0
M  V30 3064 C 295.711 -1.7903 0.772859 0
M  V30 3065 O 294.981 -1.94872 -0.200398 0
M  V30 3066 H 293.561 -0.295205 0.686195 0
M  V30 3067 H 296.223 -0.0706782 1.94772 0
M  V30 3068 H 295.319 -1.31882 2.82867 0
M  V30 3069 N 295.62 -1.53406 -0.361157 0
M  V30 3070 C 297.036 -1.43277 -0.703124 0
M  V30 3071 C 297.236 -0.575384 -1.9311 0
M  V30 3072 O 296.292 -0.0595362 -2.5243 0
M  V30 3073 C 297.605 -2.8653 -0.9122 0
M  V30 3074 C 299.153 -2.96191 -1.01193 0
M  V30 3075 C 299.628 -4.40514 -1.25345 0
M  V30 3076 N 301.119 -4.43962 -1.32105 0
M  V30 3077 C 301.854 -5.52746 -1.5251 0
M  V30 3078 N 301.35 -6.71567 -1.70203 0
M  V30 3079 N 303.143 -5.40331 -1.54916 0
M  V30 3080 H 295.294 -2.07654 0.446475 0
M  V30 3081 H 297.557 -0.937944 0.137715 0
M  V30 3082 H 297.263 -3.51605 -0.0816414 0
M  V30 3083 H 297.137 -3.30441 -1.81903 0
M  V30 3084 H 299.524 -2.31266 -1.83303 0
M  V30 3085 H 299.605 -2.55667 -0.0823929 0
M  V30 3086 H 299.249 -5.06014 -0.437346 0
M  V30 3087 H 299.179 -4.78614 -2.19627 0
M  V30 3088 H 301.67 -3.58332 -1.20028 0
M  V30 3089 H 301.983 -7.50241 -1.85359 0
M  V30 3090 H 300.328 -6.74545 -1.67373 0
M  V30 3091 H 303.519 -4.46465 -1.40663 0
M  V30 3092 H 303.692 -6.25173 -1.70477 0
M  V30 3093 N 297.098 0.621204 -1.44841 0
M  V30 3094 C 298.514 0.94048 -1.28946 0
M  V30 3095 C 298.714 2.00154 -0.23249 0
M  V30 3096 O 297.77 2.49651 0.378237 0
M  V30 3097 C 299.083 1.39433 -2.66419 0
M  V30 3098 C 300.631 1.50927 -2.74208 0
M  V30 3099 C 301.106 1.99692 -4.12174 0
M  V30 3100 N 302.597 2.06947 -4.144 0
M  V30 3101 C 303.332 2.45871 -5.1801 0
M  V30 3102 N 302.828 2.83862 -6.31977 0
M  V30 3103 N 304.621 2.46092 -5.05366 0
M  V30 3104 H 296.772 -0.0803548 -2.12248 0
M  V30 3105 H 299.035 0.0266913 -0.947624 0
M  V30 3106 H 298.741 0.688925 -3.44887 0
M  V30 3107 H 298.615 2.36347 -2.93973 0
M  V30 3108 H 301.002 2.20561 -1.96053 0
M  V30 3109 H 301.083 0.523627 -2.50383 0
M  V30 3110 H 300.727 1.30649 -4.90809 0
M  V30 3111 H 300.657 2.99146 -4.33381 0
M  V30 3112 H 303.148 1.80232 -3.32152 0
M  V30 3113 H 303.461 3.12405 -7.0684 0
M  V30 3114 H 301.806 2.8159 -6.35399 0
M  V30 3115 H 304.997 2.1581 -4.15384 0
M  V30 3116 H 305.17 2.76102 -5.86235 0
M  V30 3117 N 298.576 1.31904 0.862503 0
M  V30 3118 C 299.486 1.22161 2.00285 0
M  V30 3119 C 300.502 0.136785 1.73462 0
M  V30 3120 O 301.678 0.355994 1.98229 0
M  V30 3121 C 298.743 0.937093 3.33796 0
M  V30 3122 C 297.804 2.10957 3.73893 0
M  V30 3123 C 297.037 1.83853 5.01033 0
M  V30 3124 O 297.26 0.777274 5.65079 0
M  V30 3125 O 296.194 2.69741 5.38074 0
M  V30 3126 H 300.02 2.18008 2.11439 0
M  V30 3127 H 297.605 1.11716 0.991957 0
M  V30 3128 H 299.487 0.794583 4.13841 0
M  V30 3129 H 298.162 0.00871894 3.23699 0
M  V30 3130 H 297.069 2.30752 2.94456 0
M  V30 3131 H 298.402 3.02046 3.88625 0
M  V30 3132 N 300.054 -1.07777 1.14986 0
M  V30 3133 C 301.465 -1.61766 0.932127 0
M  V30 3134 C 301.816 -1.88974 -0.527581 0
M  V30 3135 O 300.941 -1.65198 -1.39781 0
M  V30 3136 C 301.536 -2.93891 1.68563 0
M  V30 3137 C 300.095 -3.44639 1.5133 0
M  V30 3138 C 299.242 -2.18767 1.704 0
M  V30 3139 H 302.193 -0.909201 1.30074 0
M  V30 3140 H 302.214 -3.62623 1.15259 0
M  V30 3141 H 301.726 -2.74057 2.74799 0
M  V30 3142 H 299.827 -3.69564 0.474702 0
M  V30 3143 H 299.94 -4.20966 2.28746 0
M  V30 3144 H 298.304 -2.28253 1.13016 0
M  V30 3145 H 299.087 -2.01433 2.77992 0
M  V30 3146 N 301.532 -0.945985 -1.26051 0
M  V30 3147 C 302.943 -0.638096 -1.75457 0
M  V30 3148 C 303.294 0.846672 -1.76991 0
M  V30 3149 O 302.419 1.66262 -1.38513 0
M  V30 3150 C 303.014 -1.15157 -3.18629 0
M  V30 3151 C 301.573 -0.894004 -3.65629 0
M  V30 3152 C 300.72 -1.29967 -2.44957 0
M  V30 3153 H 303.671 -1.12376 -1.1206 0
M  V30 3154 H 303.692 -0.507615 -3.77099 0
M  V30 3155 H 303.204 -2.23222 -3.1748 0
M  V30 3156 H 301.305 0.172057 -3.72203 0
M  V30 3157 H 301.418 -1.52439 -4.54202 0
M  V30 3158 H 299.782 -0.718078 -2.44368 0
M  V30 3159 H 300.565 -2.38935 -2.46505 0
M  V30 3160 N 303.011 1.40521 -0.713556 0
M  V30 3161 C 304.257 2.01221 -0.252564 0
M  V30 3162 C 304.59 1.56444 1.1506 0
M  V30 3163 O 303.865 0.783597 1.78017 0
M  V30 3164 C 304.148 3.58582 -0.330332 0
M  V30 3165 C 304.001 4.13437 -1.77173 0
M  V30 3166 C 305.32 4.39079 0.299641 0
M  V30 3167 H 302.439 0.731077 -0.0932471 0
M  V30 3168 H 305.081 1.67026 -0.905673 0
M  V30 3169 H 303.231 3.87844 0.225737 0
M  V30 3170 H 304.903 3.9498 -2.38303 0
M  V30 3171 H 303.146 3.67801 -2.3001 0
M  V30 3172 H 303.817 5.22597 -1.77755 0
M  V30 3173 H 306.293 4.15735 -0.174139 0
M  V30 3174 H 305.169 5.4848 0.214771 0
M  V30 3175 H 305.43 4.19915 1.38288 0
M  V30 3176 N 304.489 0.459591 1.5075 0
M  V30 3177 C 305.452 -0.329093 2.26825 0
M  V30 3178 C 306.452 -0.930481 1.31144 0
M  V30 3179 O 307.642 -0.801453 1.54669 0
M  V30 3180 C 304.774 -1.46768 3.07688 0
M  V30 3181 H 305.967 0.337924 2.9799 0
M  V30 3182 H 303.52 0.213336 1.54837 0
M  V30 3183 H 304.255 -2.17009 2.40993 0
M  V30 3184 H 304.04 -1.04238 3.77991 0
M  V30 3185 H 305.53 -2.02433 3.65254 0
M  V30 3186 N 305.967 -1.56429 0.191757 0
M  V30 3187 C 307.244 -1.89224 -0.495332 0
M  V30 3188 C 307.624 -1.10478 -1.79883 0
M  V30 3189 O 306.972 -0.204852 -2.2758 0
M  V30 3190 C 307.182 -3.41548 -0.717367 0
M  V30 3191 C 308.53 -4.11711 -1.03823 0
M  V30 3192 O 309.554 -3.4698 -0.805204 0
M  V30 3193 O 308.413 -5.2611 -1.47887 0
M  V30 3194 H 305.507 -0.785788 -0.25781 0
M  V30 3195 H 308.053 -1.68111 0.231721 0
M  V30 3196 H 306.825 -3.90772 0.203287 0
M  V30 3197 H 306.448 -3.68342 -1.497 0
M  V30 3198 N 307.445 0.0818655 -1.57387 0
M  V30 3199 C 308.67 0.799946 -1.91352 0
M  V30 3200 C 309.095 1.70833 -0.787258 0
M  V30 3201 O 308.453 1.79419 0.26048 0
M  V30 3202 C 308.501 1.57812 -3.24234 0
M  V30 3203 O 307.605 2.68806 -3.12757 0
M  V30 3204 H 306.946 0.21891 -0.626877 0
M  V30 3205 H 309.476 0.0531256 -2.04531 0
M  V30 3206 H 309.486 1.95952 -3.57864 0
M  V30 3207 H 308.161 0.911548 -4.05788 0
M  V30 3208 H 306.738 2.33597 -2.90666 0
M  V30 3209 N 308.923 1.53595 0.353017 0
M  V30 3210 C 310.151 1.74311 1.1146 0
M  V30 3211 C 310.566 0.477854 1.82653 0
M  V30 3212 O 309.923 -0.549977 1.74016 0
M  V30 3213 C 309.974 2.91694 2.13534 0
M  V30 3214 O 309.695 4.13325 1.45238 0
M  V30 3215 C 311.196 3.24384 3.02142 0
M  V30 3216 H 308.416 0.582669 0.332773 0
M  V30 3217 H 310.96 2.00386 0.408107 0
M  V30 3218 H 309.115 2.67977 2.79763 0
M  V30 3219 H 309.529 4.79148 2.13349 0
M  V30 3220 H 311.003 4.09893 3.69718 0
M  V30 3221 H 311.48 2.40282 3.67643 0
M  V30 3222 H 312.086 3.50073 2.41514 0
M  V30 3223 N 310.401 -0.613514 1.45168 0
M  V30 3224 C 311.629 -1.39946 1.5239 0
M  V30 3225 C 312.044 -1.88167 0.154531 0
M  V30 3226 O 311.401 -1.61872 -0.842843 0
M  V30 3227 C 311.452 -2.60795 2.50337 0
M  V30 3228 O 311.173 -2.1458 3.81952 0
M  V30 3229 C 312.674 -3.53723 2.67198 0
M  V30 3230 H 309.894 -0.428593 0.516284 0
M  V30 3231 H 312.438 -0.748753 1.903 0
M  V30 3232 H 310.593 -3.21919 2.15515 0
M  V30 3233 H 311.007 -2.93055 4.34993 0
M  V30 3234 H 312.481 -4.35079 3.39721 0
M  V30 3235 H 312.958 -4.0368 1.73029 0
M  V30 3236 H 313.564 -2.98456 3.02992 0
M  V30 3237 N 311.879 -1.3236 -0.855495 0
M  V30 3238 C 313.104 -1.2601 -1.64731 0
M  V30 3239 C 313.529 0.169068 -1.87339 0
M  V30 3240 O 312.887 1.12016 -1.42556 0
M  V30 3241 C 312.935 -2.02417 -2.98429 0
M  V30 3242 O 312.039 -1.3714 -3.8893 0
M  V30 3243 H 311.38 -0.434325 -0.502253 0
M  V30 3244 H 313.91 -1.74661 -1.06558 0
M  V30 3245 H 313.92 -2.12559 -3.48257 0
M  V30 3246 H 312.595 -3.06343 -2.81295 0
M  V30 3247 H 311.172 -1.3554 -3.47395 0
M  V30 3248 N 313.357 1.07166 -1.15556 0
M  V30 3249 C 314.289 2.14341 -0.811815 0
M  V30 3250 C 315.302 1.61835 0.177015 0
M  V30 3251 O 316.491 1.78439 -0.0464996 0
M  V30 3252 C 313.591 3.38387 -0.186481 0
M  V30 3253 C 312.764 4.20238 -1.21321 0
M  V30 3254 C 311.823 5.2266 -0.609302 0
M  V30 3255 O 310.849 5.54719 -1.27576 0
M  V30 3256 N 312.051 5.77306 0.608099 0
M  V30 3257 H 314.816 2.44431 -1.73417 0
M  V30 3258 H 312.377 1.23089 -1.0517 0
M  V30 3259 H 314.369 4.04044 0.230339 0
M  V30 3260 H 312.939 3.05994 0.639249 0
M  V30 3261 H 312.159 3.50369 -1.80652 0
M  V30 3262 H 313.447 4.71736 -1.90638 0
M  V30 3263 H 312.845 5.53513 1.1679 0
M  V30 3264 H 311.402 6.44583 0.96725 0
M  V30 3265 N 314.835 0.952656 1.25548 0
M  V30 3266 C 315.798 0.475794 2.24207 0
M  V30 3267 C 316.798 -0.419428 1.55234 0
M  V30 3268 O 317.988 -0.216994 1.72843 0
M  V30 3269 C 315.12 -0.312814 3.39462 0
M  V30 3270 H 316.313 1.34779 2.67908 0
M  V30 3271 H 313.866 0.735739 1.37901 0
M  V30 3272 H 314.601 -1.20257 3.01179 0
M  V30 3273 H 314.386 0.329404 3.90714 0
M  V30 3274 H 315.876 -0.635986 4.12729 0
M  V30 3275 N 316.313 -1.40141 0.720998 0
M  V30 3276 C 317.56 -2.00787 0.262842 0
M  V30 3277 C 317.888 -1.5718 -1.14563 0
M  V30 3278 O 317.143 -0.785391 -1.79249 0
M  V30 3279 C 317.442 -3.56165 0.296892 0
M  V30 3280 C 317.108 -4.19373 1.65641 0
M  V30 3281 C 315.77 -4.36352 2.02855 0
M  V30 3282 C 318.122 -4.54578 2.54968 0
M  V30 3283 C 315.45 -4.8582 3.28931 0
M  V30 3284 C 317.802 -5.05447 3.80402 0
M  V30 3285 C 316.466 -5.20635 4.17726 0
M  V30 3286 H 315.736 -0.734731 0.0961807 0
M  V30 3287 H 318.383 -1.67673 0.925093 0
M  V30 3288 H 316.688 -3.8922 -0.448932 0
M  V30 3289 H 318.385 -4.00929 -0.0755208 0
M  V30 3290 H 314.975 -4.06549 1.35704 0
M  V30 3291 H 319.159 -4.41091 2.27491 0
M  V30 3292 H 314.415 -4.95764 3.57811 0
M  V30 3293 H 318.589 -5.31663 4.49786 0
M  V30 3294 H 316.216 -5.58728 5.15487 0
M  V30 3295 N 317.792 -0.46758 -1.50504 0
M  V30 3296 C 319.203 -0.0116166 -1.86696 0
M  V30 3297 C 319.554 1.39202 -1.38265 0
M  V30 3298 O 318.679 2.0313 -0.746132 0
M  V30 3299 C 319.274 -0.0143044 -3.38797 0
M  V30 3300 C 317.833 0.386175 -3.74414 0
M  V30 3301 C 316.98 -0.401287 -2.74381 0
M  V30 3302 H 319.931 -0.682022 -1.43297 0
M  V30 3303 H 319.952 0.788641 -3.72237 0
M  V30 3304 H 319.464 -1.03602 -3.74016 0
M  V30 3305 H 317.565 1.41237 -3.44794 0
M  V30 3306 H 317.678 0.0899596 -4.79016 0
M  V30 3307 H 316.042 0.144536 -2.5429 0
M  V30 3308 H 316.825 -1.42244 -3.12444 0
M  V30 3309 N 319.27 1.56325 -0.20005 0
M  V30 3310 C 320.2 2.22318 0.713916 0
M  V30 3311 C 321.181 1.18788 1.21752 0
M  V30 3312 O 322.366 1.47309 1.26545 0
M  V30 3313 C 319.496 2.88639 1.93144 0
M  V30 3314 C 318.45 3.98457 1.56255 0
M  V30 3315 C 317.776 4.51967 2.85709 0
M  V30 3316 C 319.076 5.16612 0.768747 0
M  V30 3317 H 320.77 2.98952 0.163755 0
M  V30 3318 H 318.316 1.43792 0.0773219 0
M  V30 3319 H 320.269 3.33491 2.57608 0
M  V30 3320 H 318.993 2.09419 2.50621 0
M  V30 3321 H 317.652 3.54305 0.941471 0
M  V30 3322 H 317.3 3.69503 3.41287 0
M  V30 3323 H 317 5.26071 2.6177 0
M  V30 3324 H 318.524 4.99523 3.51154 0
M  V30 3325 H 319.938 5.57977 1.3166 0
M  V30 3326 H 318.335 5.96812 0.627286 0
M  V30 3327 H 319.405 4.84358 -0.229168 0
M  V30 3328 N 320.748 -0.0735177 1.57428 0
M  V30 3329 C 322.164 -0.428264 1.53747 0
M  V30 3330 C 322.364 -1.79272 0.91998 0
M  V30 3331 O 321.42 -2.47051 0.521745 0
M  V30 3332 C 322.733 -0.370914 2.98404 0
M  V30 3333 C 324.281 -0.451224 3.0973 0
M  V30 3334 C 324.756 -0.4238 4.56035 0
M  V30 3335 N 326.247 -0.483925 4.60665 0
M  V30 3336 C 326.982 -0.484891 5.71346 0
M  V30 3337 N 326.478 -0.440775 6.91396 0
M  V30 3338 N 328.271 -0.531319 5.59583 0
M  V30 3339 H 320.422 0.819949 1.95935 0
M  V30 3340 H 322.685 0.307493 0.896745 0
M  V30 3341 H 322.391 0.564956 3.47133 0
M  V30 3342 H 322.265 -1.18176 3.5821 0
M  V30 3343 H 324.652 -1.37752 2.60976 0
M  V30 3344 H 324.733 0.388167 2.52838 0
M  V30 3345 H 324.377 0.498638 5.05446 0
M  V30 3346 H 324.307 -1.2807 5.10789 0
M  V30 3347 H 326.798 -0.522338 3.74273 0
M  V30 3348 H 327.111 -0.44539 7.71515 0
M  V30 3349 H 325.456 -0.40749 6.93804 0
M  V30 3350 H 328.647 -0.563464 4.64696 0
M  V30 3351 H 328.82 -0.528603 6.4584 0
M  V30 3352 N 322.226 -1.5378 -0.344866 0
M  V30 3353 C 323.189 -1.80981 -1.40637 0
M  V30 3354 C 324.189 -0.680816 -1.45676 0
M  V30 3355 O 325.379 -0.949095 -1.46075 0
M  V30 3356 C 322.511 -1.95063 -2.79577 0
M  V30 3357 H 323.704 -2.75803 -1.17783 0
M  V30 3358 H 321.257 -1.45173 -0.579181 0
M  V30 3359 H 321.992 -1.02379 -3.07716 0
M  V30 3360 H 321.777 -2.77198 -2.77315 0
M  V30 3361 H 323.267 -2.17629 -3.56409 0
M  V30 3362 N 323.704 0.605807 -1.45491 0
M  V30 3363 C 324.952 1.36207 -1.49305 0
M  V30 3364 C 325.273 1.94519 -0.136863 0
M  V30 3365 O 324.543 1.77261 0.833983 0
M  V30 3366 H 323.123 0.50565 -0.549843 0
M  V30 3367 H 325.785 0.711239 -1.81459 0
M  V30 3368 H 324.881 2.18058 -2.23287 0
M  V30 3369 N 325.182 1.32811 0.848464 0
M  V30 3370 C 326.43 1.23479 1.59991 0
M  V30 3371 C 326.751 -0.201853 1.93952 0
M  V30 3372 O 326.021 -1.12818 1.60153 0
M  V30 3373 H 324.601 0.454034 0.593179 0
M  V30 3374 H 327.263 1.66412 1.01455 0
M  V30 3375 H 326.359 1.82178 2.53412 0
M  V30 3376 N 326.66 -1.06551 1.16123 0
M  V30 3377 C 327.608 -2.16063 0.861371 0
M  V30 3378 C 328.602 -1.6856 -0.168517 0
M  V30 3379 O 329.808 -1.79986 -0.0227579 0
M  V30 3380 H 326.183 -0.705278 0.260934 0
M  V30 3381 H 328.154 -2.38567 1.79244 0
M  V30 3382 C 326.903 -3.45661 0.376018 0
M  V30 3383 H 326.226 -3.82604 1.15992 0
M  V30 3384 H 327.666 -4.23504 0.204951 0
M  V30 3385 C 326.125 -3.24546 -0.903954 0
M  V30 3386 O 326.655 -3.49865 -1.97377 0
M  V30 3387 N 324.861 -2.77992 -0.846679 0
M  V30 3388 H 324.408 -2.57589 0.0241017 0
M  V30 3389 H 324.366 -2.64244 -1.70359 0
M  V30 3390 N 328.138 -0.959301 -1.25041 0
M  V30 3391 C 329.386 -0.615393 -1.92503 0
M  V30 3392 C 329.707 0.850969 -1.75452 0
M  V30 3393 O 328.977 1.60658 -1.12098 0
M  V30 3394 H 327.557 -0.224613 -0.712431 0
M  V30 3395 H 330.219 -1.21855 -1.5211 0
M  V30 3396 H 329.315 -0.848738 -3.00338 0
M  V30 3397 N 329.616 1.39756 -0.72842 0
M  V30 3398 C 330.548 2.29157 -0.0446202 0
M  V30 3399 C 331.561 1.46484 0.710367 0
M  V30 3400 O 332.75 1.69632 0.55562 0
M  V30 3401 C 329.85 3.24987 0.961071 0
M  V30 3402 C 329.023 4.36572 0.268967 0
M  V30 3403 C 328.082 5.12756 1.18184 0
M  V30 3404 O 327.108 5.6534 0.661794 0
M  V30 3405 N 328.31 5.23331 2.51206 0
M  V30 3406 H 331.075 2.88482 -0.812295 0
M  V30 3407 H 328.636 1.51265 -0.577098 0
M  V30 3408 H 330.628 3.72827 1.57423 0
M  V30 3409 H 329.198 2.66739 1.63 0
M  V30 3410 H 328.418 3.90694 -0.524574 0
M  V30 3411 H 329.706 5.08363 -0.210934 0
M  V30 3412 H 329.104 4.82116 2.9594 0
M  V30 3413 H 327.661 5.74634 3.07634 0
M  V30 3414 N 331.094 0.475555 1.50254 0
M  V30 3415 C 332.024 -0.30611 2.31485 0
M  V30 3416 C 333.005 -0.986228 1.38591 0
M  V30 3417 O 334.19 -0.982541 1.67511 0
M  V30 3418 C 331.32 -1.38588 3.1845 0
M  V30 3419 C 330.274 -0.827115 4.19932 0
M  V30 3420 C 329.6 -2.00551 4.95665 0
M  V30 3421 C 330.9 0.16463 5.2204 0
M  V30 3422 H 332.594 0.371866 2.97082 0
M  V30 3423 H 330.14 0.180282 1.42867 0
M  V30 3424 H 332.093 -1.94023 3.74076 0
M  V30 3425 H 330.817 -2.09269 2.50747 0
M  V30 3426 H 329.476 -0.294702 3.65414 0
M  V30 3427 H 329.124 -2.6994 4.2443 0
M  V30 3428 H 328.824 -1.63784 5.64313 0
M  V30 3429 H 330.348 -2.56468 5.54127 0
M  V30 3430 H 331.762 -0.300699 5.72511 0
M  V30 3431 H 330.159 0.446813 5.98434 0
M  V30 3432 H 331.229 1.08905 4.72512 0
M  V30 3433 N 332.573 -1.56217 0.208337 0
M  V30 3434 C 333.505 -2.1695 -0.739276 0
M  V30 3435 C 334.518 -1.13492 -1.1672 0
M  V30 3436 O 335.707 -1.40529 -1.10063 0
M  V30 3437 C 332.807 -2.72755 -2.01142 0
M  V30 3438 C 331.98 -4.0125 -1.74118 0
M  V30 3439 C 331.039 -4.41749 -2.85909 0
M  V30 3440 O 330.065 -5.08912 -2.54946 0
M  V30 3441 N 331.267 -4.06342 -4.14568 0
M  V30 3442 H 334.032 -2.98893 -0.219837 0
M  V30 3443 H 331.593 -1.61878 0.0268445 0
M  V30 3444 H 333.585 -2.96826 -2.75094 0
M  V30 3445 H 332.155 -1.95191 -2.4417 0
M  V30 3446 H 331.375 -3.85173 -0.838775 0
M  V30 3447 H 332.663 -4.851 -1.53477 0
M  V30 3448 H 332.061 -3.52345 -4.42571 0
M  V30 3449 H 330.618 -4.35335 -4.85105 0
M  V30 3450 N 334.051 0.0651679 -1.57465 0
M  V30 3451 C 335.281 0.774683 -1.91526 0
M  V30 3452 C 335.689 1.71305 -0.803196 0
M  V30 3453 O 335.032 1.82231 0.231881 0
M  V30 3454 C 335.094 1.61645 -3.21109 0
M  V30 3455 C 334.758 0.846753 -4.49087 0
M  V30 3456 C 335.755 0.163024 -5.19644 0
M  V30 3457 C 333.44 0.811966 -4.95694 0
M  V30 3458 C 335.434 -0.54519 -6.35064 0
M  V30 3459 C 333.121 0.0999836 -6.11018 0
M  V30 3460 C 334.119 -0.577388 -6.80555 0
M  V30 3461 O 333.807 -1.27789 -7.93678 0
M  V30 3462 H 333.539 0.225031 -0.637446 0
M  V30 3463 H 336.093 0.0377134 -2.05365 0
M  V30 3464 H 334.323 2.39638 -3.03497 0
M  V30 3465 H 336.012 2.20525 -3.40769 0
M  V30 3466 H 336.778 0.181163 -4.84662 0
M  V30 3467 H 332.657 1.32867 -4.41438 0
M  V30 3468 H 336.201 -1.07446 -6.89276 0
M  V30 3469 H 332.098 0.0797945 -6.45451 0
M  V30 3470 H 332.866 -1.18784 -8.09835 0
M  V30 3471 N 335.529 1.53961 0.336706 0
M  V30 3472 C 336.775 1.7273 1.07406 0
M  V30 3473 C 337.13 0.488095 1.86106 0
M  V30 3474 O 336.423 -0.519379 1.84426 0
M  V30 3475 C 336.617 2.93493 2.03953 0
M  V30 3476 C 336.446 4.29039 1.34744 0
M  V30 3477 C 335.216 4.93416 1.08942 0
M  V30 3478 C 337.414 5.08501 0.770115 0
M  V30 3479 N 335.396 6.12821 0.363864 0
M  V30 3480 C 336.767 6.19752 0.175472 0
M  V30 3481 C 338.822 4.93349 0.671633 0
M  V30 3482 C 337.525 7.17503 -0.508081 0
M  V30 3483 C 339.551 5.914 0.0018076 0
M  V30 3484 C 338.913 7.01993 -0.581835 0
M  V30 3485 H 335.012 0.685026 0.377177 0
M  V30 3486 H 337.596 1.91403 0.356815 0
M  V30 3487 H 335.767 2.76308 2.72962 0
M  V30 3488 H 337.499 3.00949 2.70577 0
M  V30 3489 H 334.254 4.53099 1.37833 0
M  V30 3490 H 334.678 6.76998 0.0156092 0
M  V30 3491 H 339.32 4.08007 1.1086 0
M  V30 3492 H 337.038 8.02414 -0.956918 0
M  V30 3493 H 340.624 5.81753 -0.0738538 0
M  V30 3494 H 339.504 7.76561 -1.09192 0
M  V30 3495 N 337.007 -0.598083 1.45811 0
M  V30 3496 C 338.418 -1.18011 1.44673 0
M  V30 3497 C 338.769 -1.95378 0.179364 0
M  V30 3498 O 337.894 -2.04124 -0.718509 0
M  V30 3499 C 338.489 -2.14677 2.62105 0
M  V30 3500 C 337.048 -2.68236 2.64057 0
M  V30 3501 C 336.195 -1.43816 2.37091 0
M  V30 3502 H 339.146 -0.38686 1.53913 0
M  V30 3503 H 339.167 -2.97878 2.36746 0
M  V30 3504 H 338.679 -1.5834 3.5433 0
M  V30 3505 H 336.78 -3.28486 1.75864 0
M  V30 3506 H 336.893 -3.12021 3.63566 0
M  V30 3507 H 335.257 -1.731 1.86838 0
M  V30 3508 H 336.04 -0.893333 3.31473 0
M  V30 3509 N 338.485 -1.33259 -0.841409 0
M  V30 3510 C 339.732 -1.24572 -1.5965 0
M  V30 3511 C 340.06 0.189137 -1.93578 0
M  V30 3512 O 339.315 1.14566 -1.5866 0
M  V30 3513 C 339.614 -2.06381 -2.9179 0
M  V30 3514 C 339.28 -3.556 -2.77235 0
M  V30 3515 C 337.942 -3.96282 -2.72973 0
M  V30 3516 C 340.294 -4.50433 -2.62221 0
M  V30 3517 C 337.622 -5.30017 -2.51592 0
M  V30 3518 C 339.974 -5.84327 -2.42374 0
M  V30 3519 C 338.638 -6.24194 -2.36512 0
M  V30 3520 H 337.908 -0.455842 -0.5842 0
M  V30 3521 H 340.555 -1.6482 -0.975016 0
M  V30 3522 H 338.86 -1.58903 -3.5813 0
M  V30 3523 H 340.557 -1.97019 -3.49263 0
M  V30 3524 H 337.147 -3.23298 -2.81384 0
M  V30 3525 H 341.331 -4.19914 -2.64549 0
M  V30 3526 H 336.587 -5.59947 -2.45499 0
M  V30 3527 H 340.761 -6.57414 -2.29739 0
M  V30 3528 H 338.388 -7.27759 -2.19706 0
M  V30 3529 N 339.963 1.05934 -1.16686 0
M  V30 3530 C 341.188 1.83029 -0.975455 0
M  V30 3531 C 341.613 1.82096 0.471452 0
M  V30 3532 O 340.971 1.22443 1.33706 0
M  V30 3533 C 341.019 3.27372 -1.51195 0
M  V30 3534 O 340.123 4.06054 -0.720701 0
M  V30 3535 H 339.464 0.566194 -0.346872 0
M  V30 3536 H 341.994 1.33541 -1.55009 0
M  V30 3537 H 342.004 3.78186 -1.53099 0
M  V30 3538 H 340.679 3.27366 -2.56523 0
M  V30 3539 H 339.256 3.64812 -0.772458 0
M  V30 3540 N 341.441 0.965919 1.2453 0
M  V30 3541 C 342.666 0.643971 1.97149 0
M  V30 3542 C 343.091 -0.779487 1.71189 0
M  V30 3543 O 342.449 -1.5288 0.974553 0
M  V30 3544 C 342.497 0.922557 3.48599 0
M  V30 3545 O 341.601 0.00707672 4.12399 0
M  V30 3546 H 340.942 0.243647 0.617683 0
M  V30 3547 H 343.472 1.29558 1.58353 0
M  V30 3548 H 343.482 0.853373 3.98976 0
M  V30 3549 H 342.157 1.95996 3.66822 0
M  V30 3550 H 340.734 0.12943 3.72675 0
M  V30 3551 N 342.919 -1.39368 0.735821 0
M  V30 3552 C 344.144 -2.05319 0.293052 0
M  V30 3553 C 344.569 -1.55115 -1.064 0
M  V30 3554 O 343.927 -0.695261 -1.67439 0
M  V30 3555 C 343.975 -3.59305 0.305323 0
M  V30 3556 O 343.079 -4.06299 -0.706761 0
M  V30 3557 H 342.42 -0.650529 0.13307 0
M  V30 3558 H 344.95 -1.78386 1.00197 0
M  V30 3559 H 344.96 -4.07724 0.149997 0
M  V30 3560 H 343.635 -3.95207 1.29553 0
M  V30 3561 H 342.212 -3.69292 -0.517504 0
M  V30 3562 N 344.397 -0.483516 -1.5 0
M  V30 3563 C 345.674 0.129337 -1.95172 0
M  V30 3564 C 346.054 1.55802 -1.4244 0
M  V30 3565 O 345.402 2.19625 -0.630649 0
M  V30 3566 C 345.612 0.0599251 -3.48949 0
M  V30 3567 C 346.96 0.242617 -4.23906 0
M  V30 3568 O 347.984 0.135933 -3.55941 0
M  V30 3569 O 346.843 0.459454 -5.44565 0
M  V30 3570 H 343.937 0.104887 -0.820322 0
M  V30 3571 H 346.483 -0.544807 -1.60717 0
M  V30 3572 H 345.255 -0.937079 -3.79914 0
M  V30 3573 H 344.878 0.774984 -3.89974 0
M  V30 3574 N 345.875 1.56104 -0.216619 0
M  V30 3575 C 346.805 2.23063 0.690296 0
M  V30 3576 C 347.786 1.20072 1.20485 0
M  V30 3577 O 348.971 1.48643 1.24976 0
M  V30 3578 C 346.101 2.90672 1.90072 0
M  V30 3579 C 345.055 4.00092 1.5202 0
M  V30 3580 C 344.381 4.54972 2.80899 0
M  V30 3581 C 345.681 5.17398 0.71391 0
M  V30 3582 H 347.375 2.99109 0.132038 0
M  V30 3583 H 344.921 1.43866 0.0620664 0
M  V30 3584 H 346.874 3.36204 2.54057 0
M  V30 3585 H 345.598 2.12066 2.48386 0
M  V30 3586 H 344.257 3.55283 0.903839 0
M  V30 3587 H 343.905 3.73102 3.37348 0
M  V30 3588 H 343.605 5.28817 2.56176 0
M  V30 3589 H 345.129 5.0322 3.45836 0
M  V30 3590 H 346.543 5.59342 1.25735 0
M  V30 3591 H 344.94 5.97444 0.563951 0
M  V30 3592 H 346.01 4.84088 -0.280527 0
M  V30 3593 N 347.353 -0.0568162 1.57498 0
M  V30 3594 C 348.583 -0.764515 1.91934 0
M  V30 3595 C 348.991 -1.70877 0.81227 0
M  V30 3596 O 348.334 -1.82351 -0.222213 0
M  V30 3597 C 348.396 -1.5994 3.21962 0
M  V30 3598 C 348.06 -0.822925 4.4953 0
M  V30 3599 C 349.057 -0.135464 5.19723 0
M  V30 3600 C 346.742 -0.785666 4.96117 0
M  V30 3601 C 348.736 0.578861 6.34766 0
M  V30 3602 C 346.423 -0.0675784 6.11063 0
M  V30 3603 C 347.421 0.613471 6.80239 0
M  V30 3604 O 347.109 1.31996 7.92989 0
M  V30 3605 H 346.841 -0.221647 0.63863 0
M  V30 3606 H 349.395 -0.0268218 2.05382 0
M  V30 3607 H 347.625 -2.38026 3.04763 0
M  V30 3608 H 349.314 -2.18715 3.41934 0
M  V30 3609 H 350.08 -0.155458 4.84751 0
M  V30 3610 H 345.959 -1.30524 4.42136 0
M  V30 3611 H 349.503 1.111 6.88696 0
M  V30 3612 H 345.4 -0.0455636 6.45484 0
M  V30 3613 H 346.168 1.23077 8.09194 0
M  V30 3614 N 348.832 -1.54138 -0.328536 0
M  V30 3615 C 349.78 -1.83894 -1.42428 0
M  V30 3616 C 350.774 -0.710478 -1.53781 0
M  V30 3617 O 351.98 -0.894062 -1.56226 0
M  V30 3618 H 348.355 -0.582837 -0.475189 0
M  V30 3619 H 350.326 -2.75537 -1.14552 0
M  V30 3620 C 349.075 -2.07866 -2.78724 0
M  V30 3621 H 348.398 -2.94158 -2.7076 0
M  V30 3622 H 349.838 -2.32644 -3.54476 0
M  V30 3623 C 348.297 -0.868689 -3.25508 0
M  V30 3624 O 348.827 -0.0754908 -4.01629 0
M  V30 3625 N 347.033 -0.681711 -2.82491 0
M  V30 3626 H 346.58 -1.32838 -2.20708 0
M  V30 3627 H 346.538 0.126374 -3.14146 0
M  V30 3628 N 350.31 0.590341 -1.46126 0
M  V30 3629 C 351.556 1.34874 -1.52252 0
M  V30 3630 C 351.911 1.91658 -0.168807 0
M  V30 3631 O 351.204 1.73093 0.821556 0
M  V30 3632 C 351.398 2.5032 -2.55097 0
M  V30 3633 C 351.227 2.04843 -4.00337 0
M  V30 3634 C 349.997 1.90213 -4.68132 0
M  V30 3635 C 352.195 1.61267 -4.88362 0
M  V30 3636 N 350.177 1.38727 -5.9802 0
M  V30 3637 C 351.548 1.21319 -6.08015 0
M  V30 3638 C 353.603 1.49015 -4.75078 0
M  V30 3639 C 352.306 0.7034 -7.15852 0
M  V30 3640 C 354.332 0.994401 -5.8298 0
M  V30 3641 C 353.694 0.604659 -7.018 0
M  V30 3642 H 349.793 0.486803 -0.612002 0
M  V30 3643 H 352.377 0.673007 -1.82698 0
M  V30 3644 H 350.548 3.15466 -2.26574 0
M  V30 3645 H 352.28 3.1725 -2.51266 0
M  V30 3646 H 349.035 2.11927 -4.23537 0
M  V30 3647 H 349.459 1.15168 -6.67132 0
M  V30 3648 H 354.101 1.77768 -3.83612 0
M  V30 3649 H 351.819 0.403446 -8.07092 0
M  V30 3650 H 355.405 0.903621 -5.7474 0
M  V30 3651 H 354.285 0.226963 -7.83871 0
M  V30 3652 N 351.788 1.33704 0.83433 0
M  V30 3653 C 352.735 1.24335 1.94447 0
M  V30 3654 C 353.705 0.120991 1.65659 0
M  V30 3655 O 354.89 0.300035 1.88426 0
M  V30 3656 C 352.03 0.993124 3.30501 0
M  V30 3657 C 351.143 2.20217 3.71657 0
M  V30 3658 C 350.278 1.88572 4.96602 0
M  V30 3659 C 349.317 3.05683 5.30306 0
M  V30 3660 N 348.454 2.73997 6.46429 0
M  V30 3661 H 353.294 2.1928 2.01792 0
M  V30 3662 H 350.831 1.09035 0.987404 0
M  V30 3663 H 352.789 0.828467 4.08892 0
M  V30 3664 H 351.419 0.0803902 3.227 0
M  V30 3665 H 350.471 2.47642 2.88752 0
M  V30 3666 H 351.783 3.07752 3.92543 0
M  V30 3667 H 350.937 1.68776 5.82752 0
M  V30 3668 H 349.676 0.982799 4.77695 0
M  V30 3669 H 348.681 3.26088 4.42659 0
M  V30 3670 H 349.906 3.96737 5.51159 0
M  V30 3671 H 347.852 1.86268 6.28999 0
M  V30 3672 H 347.769 3.55064 6.67432 0
M  V30 3673 H 349.037 2.57679 7.35678 0
M  V30 3674 N 353.266 -1.05314 1.17247 0
M  V30 3675 C 354.214 -2.15137 0.884238 0
M  V30 3676 C 355.208 -1.68729 -0.15063 0
M  V30 3677 O 356.414 -1.8 -0.00366673 0
M  V30 3678 H 352.789 -0.702471 0.2684 0
M  V30 3679 H 354.76 -2.36652 1.81764 0
M  V30 3680 C 353.509 -3.45243 0.412659 0
M  V30 3681 H 352.832 -3.81352 1.20043 0
M  V30 3682 H 354.272 -4.23263 0.249858 0
M  V30 3683 C 352.731 -3.25487 -0.86948 0
M  V30 3684 O 353.261 -3.51938 -1.93655 0
M  V30 3685 N 351.467 -2.78875 -0.817147 0
M  V30 3686 H 351.014 -2.57549 0.0514211 0
M  V30 3687 H 350.972 -2.66036 -1.67547 0
M  V30 3688 N 354.744 -0.972509 -1.24016 0
M  V30 3689 C 355.692 -0.498562 -2.27194 0
M  V30 3690 C 356.686 0.440372 -1.63576 0
M  V30 3691 O 357.892 0.315133 -1.7722 0
M  V30 3692 H 354.267 -0.142775 -0.738322 0
M  V30 3693 H 356.238 -1.38065 -2.64539 0
M  V30 3694 C 354.987 0.191072 -3.47175 0
M  V30 3695 H 354.31 -0.522318 -3.96373 0
M  V30 3696 H 355.75 0.486445 -4.212 0
M  V30 3697 C 354.209 1.41967 -3.05527 0
M  V30 3698 O 354.739 2.51642 -3.13112 0
M  V30 3699 N 352.945 1.28746 -2.60524 0
M  V30 3700 H 352.492 0.395089 -2.54552 0
M  V30 3701 H 352.45 2.11061 -2.33025 0
M  V30 3702 N 356.222 1.38976 -0.743202 0
M  V30 3703 C 357.17 2.32394 -0.0978389 0
M  V30 3704 C 358.164 1.53486 0.716824 0
M  V30 3705 O 359.37 1.69092 0.617088 0
M  V30 3706 H 355.745 0.75189 -0.0128402 0
M  V30 3707 H 357.716 2.84441 -0.901981 0
M  V30 3708 C 356.465 3.38629 0.789036 0
M  V30 3709 H 355.788 3.99432 0.171559 0
M  V30 3710 H 357.228 4.06426 1.20807 0
M  V30 3711 C 355.687 2.76347 1.92702 0
M  V30 3712 O 356.217 2.64836 3.02034 0
M  V30 3713 N 354.423 2.34311 1.71891 0
M  V30 3714 H 353.97 2.43873 0.829675 0
M  V30 3715 H 353.928 1.9298 2.48205 0
M  V30 3716 N 357.7 0.491464 1.49741 0
M  V30 3717 C 359.111 0.0413169 1.86654 0
M  V30 3718 C 359.462 -1.36985 1.40462 0
M  V30 3719 O 358.587 -2.01917 0.778354 0
M  V30 3720 C 359.182 0.0682023 3.38731 0
M  V30 3721 C 357.741 -0.32656 3.74981 0
M  V30 3722 C 356.888 0.444888 2.73708 0
M  V30 3723 H 359.839 0.704733 1.42194 0
M  V30 3724 H 359.86 -0.729322 3.73445 0
M  V30 3725 H 359.372 1.09539 3.72321 0
M  V30 3726 H 357.473 -1.35734 3.46997 0
M  V30 3727 H 357.586 -0.013741 4.79098 0
M  V30 3728 H 355.95 -0.104062 2.54487 0
M  V30 3729 H 356.733 1.47197 3.10142 0
M  V30 3730 N 359.178 -1.55987 0.224894 0
M  V30 3731 C 360.403 -2.03232 -0.41369 0
M  V30 3732 C 360.828 -1.10359 -1.52323 0
M  V30 3733 O 360.186 -0.092395 -1.81064 0
M  V30 3734 C 360.234 -3.48682 -0.919405 0
M  V30 3735 O 359.338 -3.58947 -2.03054 0
M  V30 3736 H 358.679 -0.657428 -0.0931903 0
M  V30 3737 H 361.209 -2.01679 0.34451 0
M  V30 3738 H 361.219 -3.8907 -1.22835 0
M  V30 3739 H 359.894 -4.15761 -0.107339 0
M  V30 3740 H 358.471 -3.30448 -1.72796 0
M  V30 3741 N 360.656 0.0484629 -1.57525 0
M  V30 3742 C 361.903 0.743125 -1.88372 0
M  V30 3743 C 362.231 1.76383 -0.819715 0
M  V30 3744 O 361.486 1.94855 0.181659 0
M  V30 3745 C 361.785 1.46632 -3.25935 0
M  V30 3746 C 361.451 0.583427 -4.4711 0
M  V30 3747 C 360.113 0.340191 -4.79996 0
M  V30 3748 C 362.465 -0.0273345 -5.21193 0
M  V30 3749 C 359.793 -0.522903 -5.84365 0
M  V30 3750 C 362.145 -0.878017 -6.26477 0
M  V30 3751 C 360.809 -1.1309 -6.5785 0
M  V30 3752 H 360.079 0.271929 -0.689301 0
M  V30 3753 H 362.726 0.00336166 -1.915 0
M  V30 3754 H 361.031 2.2789 -3.18706 0
M  V30 3755 H 362.728 2.00902 -3.47044 0
M  V30 3756 H 359.318 0.783151 -4.21384 0
M  V30 3757 H 363.502 0.147654 -4.9608 0
M  V30 3758 H 358.758 -0.727335 -6.07058 0
M  V30 3759 H 362.932 -1.35789 -6.83033 0
M  V30 3760 H 360.559 -1.80144 -7.38547 0
M  V30 3761 N 362.134 1.5431 0.320358 0
M  V30 3762 C 363.359 1.76954 1.08175 0
M  V30 3763 C 363.784 0.518193 1.80821 0
M  V30 3764 O 363.142 -0.530411 1.73368 0
M  V30 3765 C 363.19 2.96451 2.05303 0
M  V30 3766 O 362.294 2.68221 3.13259 0
M  V30 3767 H 361.635 0.586275 0.311733 0
M  V30 3768 H 364.165 2.01342 0.363676 0
M  V30 3769 H 364.175 3.23887 2.48116 0
M  V30 3770 H 362.85 3.87196 1.51829 0
M  V30 3771 H 361.427 2.51744 2.75099 0
M  V30 3772 N 363.613 -0.582584 1.46437 0
M  V30 3773 C 364.523 -1.71949 1.59595 0
M  V30 3774 C 365.539 -1.67264 0.479443 0
M  V30 3775 O 366.715 -1.87171 0.743579 0
M  V30 3776 C 363.78 -3.08452 1.58298 0
M  V30 3777 C 362.841 -3.244 2.81182 0
M  V30 3778 C 362.074 -4.54391 2.79937 0
M  V30 3779 O 362.297 -5.38287 1.8869 0
M  V30 3780 O 361.231 -4.73588 3.71481 0
M  V30 3781 H 365.057 -1.63795 2.55744 0
M  V30 3782 H 362.642 -0.749643 1.29231 0
M  V30 3783 H 364.524 -3.89732 1.60271 0
M  V30 3784 H 363.199 -3.17043 0.653094 0
M  V30 3785 H 362.106 -2.42613 2.84763 0
M  V30 3786 H 363.439 -3.20699 3.7338 0
M  V30 3787 N 365.091 -1.34144 -0.827227 0
M  V30 3788 C 366.368 -1.16844 -1.56865 0
M  V30 3789 C 366.748 0.260654 -2.09485 0
M  V30 3790 O 366.096 1.26138 -1.9053 0
M  V30 3791 C 366.306 -2.21939 -2.6934 0
M  V30 3792 C 367.654 -2.56695 -3.3822 0
M  V30 3793 O 368.678 -2.20695 -2.79593 0
M  V30 3794 O 367.537 -3.18518 -4.44082 0
M  V30 3795 H 364.631 -0.452669 -0.692112 0
M  V30 3796 H 367.177 -1.45763 -0.868973 0
M  V30 3797 H 365.949 -3.17882 -2.28182 0
M  V30 3798 H 365.572 -1.94172 -3.46962 0
M  V30 3799 N 366.569 1.04691 -1.17803 0
M  V30 3800 C 367.98 1.59238 -0.974689 0
M  V30 3801 C 368.331 1.90306 0.477292 0
M  V30 3802 O 367.456 1.68846 1.35352 0
M  V30 3803 C 368.051 2.89318 -1.76296 0
M  V30 3804 C 366.61 3.40506 -1.60414 0
M  V30 3805 C 365.757 2.14172 -1.76141 0
M  V30 3806 H 368.708 0.874395 -1.32439 0
M  V30 3807 H 368.729 3.5944 -1.24833 0
M  V30 3808 H 368.241 2.66675 -2.81968 0
M  V30 3809 H 366.342 3.68175 -0.572519 0
M  V30 3810 H 366.455 4.14753 -2.39827 0
M  V30 3811 H 364.819 2.25176 -1.19028 0
M  V30 3812 H 365.602 1.93992 -2.83235 0
M  V30 3813 N 368.047 0.979072 1.23499 0
M  V30 3814 C 369.295 0.645941 1.91499 0
M  V30 3815 C 369.616 -0.822948 1.76784 0
M  V30 3816 O 368.886 -1.58854 1.14639 0
M  V30 3817 H 367.466 0.235919 0.708767 0
M  V30 3818 H 370.128 1.2426 1.50152 0
M  V30 3819 H 369.224 0.896411 2.9895 0
M  V30 3820 N 369.525 -1.3858 0.750561 0
M  V30 3821 C 370.472 -2.30483 0.120835 0
M  V30 3822 C 371.442 -1.50022 -0.712923 0
M  V30 3823 O 372.627 -1.78662 -0.669676 0
M  V30 3824 C 369.767 -3.36431 -0.768666 0
M  V30 3825 C 368.88 -4.31927 0.0793922 0
M  V30 3826 C 368.015 -5.24944 -0.81283 0
M  V30 3827 C 367.054 -6.12088 0.0390447 0
M  V30 3828 N 366.191 -6.97412 -0.809969 0
M  V30 3829 H 371.031 -2.83761 0.91015 0
M  V30 3830 H 368.568 -1.39707 0.460463 0
M  V30 3831 H 370.526 -3.96462 -1.29898 0
M  V30 3832 H 369.156 -2.8457 -1.5238 0
M  V30 3833 H 368.208 -3.73382 0.727303 0
M  V30 3834 H 369.52 -4.93319 0.737401 0
M  V30 3835 H 368.674 -5.90078 -1.41042 0
M  V30 3836 H 367.413 -4.63911 -1.50458 0
M  V30 3837 H 366.418 -5.45952 0.649328 0
M  V30 3838 H 367.643 -6.75189 0.727809 0
M  V30 3839 H 365.589 -6.38931 -1.48672 0
M  V30 3840 H 365.506 -7.55712 -0.208789 0
M  V30 3841 H 366.774 -7.66959 -1.39263 0
M  V30 3842 N 371.003 -0.499398 -1.49478 0
M  V30 3843 C 371.933 0.269244 -2.31943 0
M  V30 3844 C 372.914 0.964054 -1.40143 0
M  V30 3845 O 374.099 0.955767 -1.69052 0
M  V30 3846 C 371.229 1.33504 -3.20615 0
M  V30 3847 C 370.183 0.760202 -4.21195 0
M  V30 3848 C 369.509 1.9264 -4.98792 0
M  V30 3849 C 370.809 -0.247661 -5.21712 0
M  V30 3850 H 372.503 -0.419082 -2.96452 0
M  V30 3851 H 370.049 -0.202988 -1.42562 0
M  V30 3852 H 372.002 1.88048 -3.77115 0
M  V30 3853 H 370.726 2.05253 -2.54045 0
M  V30 3854 H 369.385 0.23653 -3.65836 0
M  V30 3855 H 369.033 2.63154 -4.28671 0
M  V30 3856 H 368.733 1.54785 -5.66847 0
M  V30 3857 H 370.257 2.4762 -5.58137 0
M  V30 3858 H 371.671 0.209579 -5.72917 0
M  V30 3859 H 370.068 -0.541962 -5.97648 0
M  V30 3860 H 371.138 -1.16409 -4.7072 0
M  V30 3861 N 372.481 1.55866 -0.233164 0
M  V30 3862 C 373.709 2.02998 0.399905 0
M  V30 3863 C 374.124 1.11274 1.52524 0
M  V30 3864 O 373.481 0.124528 1.82075 0
M  V30 3865 C 373.532 3.4958 0.920639 0
M  V30 3866 O 373.253 4.37808 -0.159834 0
M  V30 3867 C 374.754 4.12411 1.62578 0
M  V30 3868 H 371.974 0.664006 0.0966281 0
M  V30 3869 H 374.518 2.0143 -0.353013 0
M  V30 3870 H 372.673 3.51727 1.62379 0
M  V30 3871 H 373.087 5.23981 0.23337 0
M  V30 3872 H 374.561 5.16711 1.94201 0
M  V30 3873 H 375.038 3.5809 2.54299 0
M  V30 3874 H 375.644 4.14148 0.967553 0
M  V30 3875 N 373.959 -0.0401083 1.57549 0
M  V30 3876 C 374.922 -1.02871 2.04817 0
M  V30 3877 C 375.922 -1.29708 0.950388 0
M  V30 3878 O 377.112 -1.24897 1.21435 0
M  V30 3879 C 374.244 -2.36443 2.45576 0
M  V30 3880 H 375.437 -0.620631 2.93408 0
M  V30 3881 H 372.99 -0.286667 1.53649 0
M  V30 3882 H 373.725 -2.82021 1.60108 0
M  V30 3883 H 373.51 -2.18296 3.25713 0
M  V30 3884 H 375 -3.07441 2.82612 0
M  V30 3885 N 375.437 -1.54477 -0.31217 0
M  V30 3886 C 376.367 -1.87652 -1.38957 0
M  V30 3887 C 377.348 -0.734358 -1.53431 0
M  V30 3888 O 378.533 -0.98911 -1.67123 0
M  V30 3889 C 375.663 -2.11396 -2.75552 0
M  V30 3890 C 374.617 -3.27243 -2.75855 0
M  V30 3891 C 373.943 -3.36382 -4.15633 0
M  V30 3892 C 375.243 -4.64622 -2.38587 0
M  V30 3893 H 376.937 -2.77887 -1.11442 0
M  V30 3894 H 374.483 -1.33707 -0.534655 0
M  V30 3895 H 376.436 -2.33189 -3.51 0
M  V30 3896 H 375.16 -1.17921 -3.04569 0
M  V30 3897 H 373.819 -3.05356 -2.02863 0
M  V30 3898 H 373.467 -2.40445 -4.41809 0
M  V30 3899 H 373.167 -4.14249 -4.1674 0
M  V30 3900 H 374.691 -3.60422 -4.92877 0
M  V30 3901 H 376.105 -4.86219 -3.03749 0
M  V30 3902 H 374.502 -5.45121 -2.50925 0
M  V30 3903 H 375.572 -4.66097 -1.33723 0
M  V30 3904 N 376.915 0.57481 -1.46744 0
M  V30 3905 C 378.164 1.32898 -1.51727 0
M  V30 3906 C 378.477 1.948 -0.176692 0
M  V30 3907 O 379.683 2.71299 -0.104385 0
M  V30 3908 C 378.139 2.40901 -2.67385 0
M  V30 3909 C 377.747 1.85266 -4.07898 0
M  V30 3910 C 379.491 3.17609 -2.81646 0
M  V30 3911 C 377.398 2.90945 -5.14883 0
M  V30 3912 H 376.328 0.499631 -0.564699 0
M  V30 3913 H 378.979 0.612536 -1.72975 0
M  V30 3914 H 377.361 3.15379 -2.39483 0
M  V30 3915 H 378.535 1.17278 -4.45626 0
M  V30 3916 H 376.85 1.21199 -3.98371 0
M  V30 3917 H 379.447 3.96493 -3.58744 0
M  V30 3918 H 379.79 3.70696 -1.89448 0
M  V30 3919 H 380.323 2.50239 -3.09233 0
M  V30 3920 H 377.062 2.42736 -6.089 0
M  V30 3921 H 376.582 3.57398 -4.81691 0
M  V30 3922 H 378.261 3.54755 -5.41071 0
M  V30 3923 N 378.394 1.34581 0.820102 0
M  V30 3924 C 379.304 1.28471 1.96297 0
M  V30 3925 C 380.32 0.191902 1.72939 0
M  V30 3926 O 381.496 0.418879 1.96996 0
M  V30 3927 C 378.561 1.04281 3.30645 0
M  V30 3928 C 377.622 2.22745 3.66992 0
M  V30 3929 C 376.855 1.997 4.9493 0
M  V30 3930 O 377.078 0.956656 5.6232 0
M  V30 3931 O 376.012 2.86723 5.2922 0
M  V30 3932 H 379.838 2.24624 2.04396 0
M  V30 3933 H 377.423 1.14816 0.955913 0
M  V30 3934 H 379.305 0.925841 4.11104 0
M  V30 3935 H 377.98 0.111697 3.23507 0
M  V30 3936 H 376.887 2.40003 2.86966 0
M  V30 3937 H 378.22 3.14257 3.78819 0
M  V30 3938 N 379.872 -1.04064 1.18357 0
M  V30 3939 C 381.097 -1.81454 1.00445 0
M  V30 3940 C 381.522 -1.82823 -0.442423 0
M  V30 3941 O 380.88 -1.24555 -1.31741 0
M  V30 3942 C 380.928 -3.24925 1.56384 0
M  V30 3943 O 380.032 -4.04856 0.785209 0
M  V30 3944 H 379.373 -0.560604 0.355835 0
M  V30 3945 H 381.903 -1.31059 1.57114 0
M  V30 3946 H 381.913 -3.75702 1.59097 0
M  V30 3947 H 380.588 -3.23244 2.61699 0
M  V30 3948 H 379.165 -3.63537 0.830399 0
M  V30 3949 N 381.35 -0.985608 -1.22978 0
M  V30 3950 C 382.596 -0.65836 -1.91816 0
M  V30 3951 C 382.929 0.806692 -1.76653 0
M  V30 3952 O 382.204 1.58252 -1.13078 0
M  V30 3953 C 382.487 -1.056 -3.44268 0
M  V30 3954 C 382.34 -2.57906 -3.68516 0
M  V30 3955 C 383.659 -0.603781 -4.35939 0
M  V30 3956 H 380.778 -0.24065 -0.696604 0
M  V30 3957 H 383.42 -1.22783 -1.44998 0
M  V30 3958 H 381.57 -0.571445 -3.84274 0
M  V30 3959 H 383.242 -3.13976 -3.3796 0
M  V30 3960 H 381.485 -3.00305 -3.13048 0
M  V30 3961 H 382.156 -2.80779 -4.75255 0
M  V30 3962 H 384.632 -1.01987 -4.03408 0
M  V30 3963 H 383.508 -0.910383 -5.41298 0
M  V30 3964 H 383.769 0.495761 -4.39312 0
M  V30 3965 N 382.828 1.3818 -0.7579 0
M  V30 3966 C 383.758 2.33027 -0.148597 0
M  V30 3967 C 384.739 1.55085 0.69875 0
M  V30 3968 O 385.924 1.83384 0.639053 0
M  V30 3969 C 383.054 3.3928 0.742034 0
M  V30 3970 C 382.008 4.28 -0.00291946 0
M  V30 3971 C 381.334 5.25146 1.00625 0
M  V30 3972 C 382.634 5.08938 -1.17385 0
M  V30 3973 H 384.328 2.84231 -0.940909 0
M  V30 3974 H 381.874 1.36659 -0.453908 0
M  V30 3975 H 383.827 4.046 1.17799 0
M  V30 3976 H 382.551 2.86569 1.56671 0
M  V30 3977 H 381.21 3.64192 -0.419504 0
M  V30 3978 H 380.858 4.68721 1.8251 0
M  V30 3979 H 380.558 5.85361 0.512428 0
M  V30 3980 H 382.082 5.93342 1.44143 0
M  V30 3981 H 383.496 5.67474 -0.815224 0
M  V30 3982 H 381.893 5.7841 -1.59882 0
M  V30 3983 H 382.963 4.42424 -1.98468 0
M  V30 3984 N 384.306 0.507319 1.49211 0
M  V30 3985 C 385.555 -0.0368315 2.01666 0
M  V30 3986 C 385.868 -1.37459 1.39156 0
M  V30 3987 O 387.074 -2.00579 1.82976 0
M  V30 3988 C 385.53 -0.116089 3.59713 0
M  V30 3989 C 385.138 1.2154 4.31198 0
M  V30 3990 C 386.882 -0.610268 4.2009 0
M  V30 3991 C 384.789 1.09796 5.81119 0
M  V30 3992 H 383.719 -0.0175376 0.753796 0
M  V30 3993 H 386.37 0.647691 1.71689 0
M  V30 3994 H 384.752 -0.8652 3.86433 0
M  V30 3995 H 385.926 1.9783 4.16173 0
M  V30 3996 H 384.241 1.64352 3.82593 0
M  V30 3997 H 386.838 -0.715742 5.29888 0
M  V30 3998 H 387.181 -1.61064 3.8388 0
M  V30 3999 H 387.714 0.0824916 3.97714 0
M  V30 4000 H 384.453 2.0728 6.21864 0
M  V30 4001 H 383.973 0.376058 5.9862 0
M  V30 4002 H 385.652 0.779281 6.4229 0
M  V30 4003 N 385.784 -1.5574 0.241426 0
M  V30 4004 C 387.012 -2.03208 -0.389134 0
M  V30 4005 C 387.427 -1.12082 -1.51931 0
M  V30 4006 O 386.784 -0.134183 -1.82006 0
M  V30 4007 C 386.835 -3.50064 -0.902087 0
M  V30 4008 O 386.556 -4.37717 0.18305 0
M  V30 4009 C 388.057 -4.13268 -1.60389 0
M  V30 4010 H 385.277 -0.664509 -0.0931053 0
M  V30 4011 H 387.821 -2.0124 0.36369 0
M  V30 4012 H 385.976 -3.52583 -1.60511 0
M  V30 4013 H 386.39 -5.24097 -0.205579 0
M  V30 4014 H 387.864 -5.17733 -1.91458 0
M  V30 4015 H 388.341 -3.59434 -2.52397 0
M  V30 4016 H 388.947 -4.14655 -0.945576 0
M  V30 4017 N 387.262 0.0317525 -1.57568 0
M  V30 4018 C 388.212 1.04101 -2.02847 0
M  V30 4019 C 389.196 1.3219 -0.917317 0
M  V30 4020 O 390.388 1.31819 -1.18121 0
M  V30 4021 C 387.517 2.34295 -2.5092 0
M  V30 4022 C 386.603 2.09308 -3.68851 0
M  V30 4023 N 386.994 1.5437 -4.81667 0
M  V30 4024 C 385.292 2.39604 -3.76172 0
M  V30 4025 C 385.993 1.45126 -5.63306 0
M  V30 4026 N 384.969 1.92589 -5.08341 0
M  V30 4027 H 388.771 0.610217 -2.87495 0
M  V30 4028 H 386.285 0.238108 -1.60645 0
M  V30 4029 H 388.282 3.07404 -2.81617 0
M  V30 4030 H 386.942 2.78055 -1.67677 0
M  V30 4031 H 387.953 1.22678 -5.03161 0
M  V30 4032 H 384.63 2.86457 -3.03724 0
M  V30 4033 H 386.02 1.03163 -6.63933 0
M  V30 4034 N 388.74 1.54641 0.303973 0
M  V30 4035 C 389.672 1.81754 1.39636 0
M  V30 4036 C 390.685 0.70035 1.46966 0
M  V30 4037 O 391.874 0.97778 1.49338 0
M  V30 4038 C 388.974 1.93785 2.7803 0
M  V30 4039 C 388.147 3.24156 2.93669 0
M  V30 4040 C 387.206 3.26641 4.12544 0
M  V30 4041 O 386.232 4.00187 4.04771 0
M  V30 4042 N 387.434 2.5182 5.23036 0
M  V30 4043 H 390.199 2.76031 1.16734 0
M  V30 4044 H 387.76 1.54178 0.494033 0
M  V30 4045 H 389.752 1.92852 3.55795 0
M  V30 4046 H 388.322 1.06515 2.93893 0
M  V30 4047 H 387.542 3.37887 2.03042 0
M  V30 4048 H 388.83 4.10195 3.01027 0
M  V30 4049 H 388.228 1.91692 5.32232 0
M  V30 4050 H 386.785 2.56644 5.99147 0
M  V30 4051 N 390.218 -0.567019 1.47046 0
M  V30 4052 C 391.629 -1.14916 1.47143 0
M  V30 4053 C 391.98 -1.94954 0.220767 0
M  V30 4054 O 391.105 -2.05602 -0.67505 0
M  V30 4055 C 391.7 -2.09069 2.666 0
M  V30 4056 C 390.259 -2.62575 2.69687 0
M  V30 4057 C 389.406 -1.38755 2.40088 0
M  V30 4058 H 392.357 -0.354126 1.54699 0
M  V30 4059 H 392.378 -2.92789 2.43011 0
M  V30 4060 H 391.89 -1.50789 3.57609 0
M  V30 4061 H 389.991 -3.24681 1.82792 0
M  V30 4062 H 390.104 -3.04239 3.70102 0
M  V30 4063 H 388.468 -1.69098 1.90468 0
M  V30 4064 H 389.251 -0.822822 3.33293 0
M  V30 4065 N 391.696 -1.35014 -0.812953 0
M  V30 4066 C 392.924 -1.31031 -1.6012 0
M  V30 4067 C 393.339 0.113558 -1.88458 0
M  V30 4068 O 392.696 1.06363 -1.48301 0
M  V30 4069 C 392.747 -2.10872 -2.93624 0
M  V30 4070 O 392.468 -3.47706 -2.66518 0
M  V30 4071 C 393.969 -2.14401 -3.88004 0
M  V30 4072 H 391.189 -0.45037 -0.497401 0
M  V30 4073 H 393.733 -1.77775 -1.01076 0
M  V30 4074 H 391.888 -1.67744 -3.492 0
M  V30 4075 H 392.302 -3.89097 -3.51715 0
M  V30 4076 H 393.776 -2.74669 -4.78812 0
M  V30 4077 H 394.253 -1.14105 -4.24119 0
M  V30 4078 H 394.859 -2.57662 -3.38364 0
M  V30 4079 N 393.175 1.03435 -1.18907 0
M  V30 4080 C 394.421 1.7713 -0.99982 0
M  V30 4081 C 394.776 1.86695 0.465049 0
M  V30 4082 O 394.069 1.36866 1.34083 0
M  V30 4083 C 394.263 3.19792 -1.59586 0
M  V30 4084 C 394.092 3.24134 -3.11717 0
M  V30 4085 C 392.862 3.32398 -3.80578 0
M  V30 4086 C 395.06 3.11625 -4.09138 0
M  V30 4087 N 393.042 3.26055 -5.20155 0
M  V30 4088 C 394.413 3.12855 -5.35277 0
M  V30 4089 C 396.468 2.95713 -4.00572 0
M  V30 4090 C 395.171 2.99805 -6.53842 0
M  V30 4091 C 397.197 2.84011 -5.1874 0
M  V30 4092 C 396.559 2.8589 -6.43775 0
M  V30 4093 H 392.658 0.659683 -0.419931 0
M  V30 4094 H 395.242 1.2317 -1.50789 0
M  V30 4095 H 393.413 3.72085 -1.11389 0
M  V30 4096 H 395.145 3.81819 -1.3415 0
M  V30 4097 H 391.9 3.38392 -3.31342 0
M  V30 4098 H 392.324 3.26307 -5.93172 0
M  V30 4099 H 396.966 2.93086 -3.0473 0
M  V30 4100 H 394.684 3.01184 -7.49876 0
M  V30 4101 H 398.27 2.72744 -5.13909 0
M  V30 4102 H 397.15 2.76931 -7.33675 0
M  V30 4103 N 394.653 0.992116 1.22453 0
M  V30 4104 C 395.93 0.583508 1.86694 0
M  V30 4105 C 396.31 -0.9392 1.89056 0
M  V30 4106 O 395.658 -1.82081 1.38053 0
M  V30 4107 C 395.868 1.20304 3.2761 0
M  V30 4108 C 397.216 1.30308 4.0411 0
M  V30 4109 O 398.24 1.15737 3.36873 0
M  V30 4110 O 397.099 1.53615 5.24466 0
M  V30 4111 H 394.193 0.198129 0.802916 0
M  V30 4112 H 396.739 1.08794 1.30238 0
M  V30 4113 H 395.511 2.24461 3.2052 0
M  V30 4114 H 395.134 0.684144 3.9167 0
M  V30 4115 N 396.131 -1.37776 0.765217 0
M  V30 4116 C 397.408 -1.93975 0.251596 0
M  V30 4117 C 397.788 -1.69949 -1.25222 0
M  V30 4118 O 397.136 -1.04457 -2.03226 0
M  V30 4119 C 397.346 -3.43487 0.617895 0
M  V30 4120 C 398.694 -4.20564 0.584029 0
M  V30 4121 O 399.718 -3.5182 0.556888 0
M  V30 4122 O 398.577 -5.43138 0.605291 0
M  V30 4123 H 395.671 -0.82509 0.0561806 0
M  V30 4124 H 398.217 -1.47101 0.846128 0
M  V30 4125 H 396.989 -3.5453 1.65602 0
M  V30 4126 H 396.612 -3.976 -0.00403411 0
M  V30 4127 N 397.609 -0.515225 -1.4894 0
M  V30 4128 C 398.849 0.0223983 -2.04388 0
M  V30 4129 C 399.213 1.32961 -1.38511 0
M  V30 4130 O 400.414 1.95236 -1.8476 0
M  V30 4131 C 398.685 0.157056 -3.57055 0
M  V30 4132 S 400.244 0.646875 -4.34006 0
M  V30 4133 H 397.062 -0.00500662 -0.710982 0
M  V30 4134 H 399.664 -0.69243 -1.82827 0
M  V30 4135 H 398.368 -0.799412 -4.02539 0
M  V30 4136 H 397.899 0.896704 -3.83044 0
M  V30 4137 H 399.914 1.91381 -4.57808 0
M  V30 4138 N 399.087 1.5561 -0.249682 0
M  V30 4139 C 400.019 2.18834 0.681496 0
M  V30 4140 C 401.032 1.16546 1.1367 0
M  V30 4141 O 402.221 1.43397 1.06299 0
M  V30 4142 C 399.321 2.77992 1.9384 0
M  V30 4143 C 398.494 4.05725 1.63419 0
M  V30 4144 C 397.553 4.49174 2.74096 0
M  V30 4145 O 396.579 5.15492 2.41364 0
M  V30 4146 N 397.781 4.17191 4.03649 0
M  V30 4147 H 400.546 2.9937 0.140514 0
M  V30 4148 H 398.107 1.6175 -0.0697541 0
M  V30 4149 H 400.099 3.04015 2.67127 0
M  V30 4150 H 398.669 2.01596 2.38909 0
M  V30 4151 H 397.889 3.87261 0.736358 0
M  V30 4152 H 399.177 4.88999 1.40562 0
M  V30 4153 H 398.575 3.63955 4.33074 0
M  V30 4154 H 397.132 4.48043 4.73393 0
M  V30 4155 N 400.565 -0.0233959 1.57583 0
M  V30 4156 C 401.497 -1.04994 2.03737 0
M  V30 4157 C 402.51 -1.32125 0.951152 0
M  V30 4158 O 403.699 -1.29512 1.22837 0
M  V30 4159 C 400.799 -2.39026 2.40249 0
M  V30 4160 C 399.972 -2.31171 3.7132 0
M  V30 4161 C 399.031 -3.47698 3.94959 0
M  V30 4162 O 398.057 -3.26937 4.65941 0
M  V30 4163 N 399.259 -4.6976 3.41037 0
M  V30 4164 H 402.024 -0.656507 2.92421 0
M  V30 4165 H 399.585 -0.211235 1.60516 0
M  V30 4166 H 401.577 -3.15712 2.53196 0
M  V30 4167 H 400.147 -2.70194 1.57207 0
M  V30 4168 H 399.367 -1.39547 3.68674 0
M  V30 4169 H 400.655 -2.23071 4.57293 0
M  V30 4170 H 400.053 -4.89528 2.83512 0
M  V30 4171 H 398.61 -5.43791 3.59353 0
M  V30 4172 N 402.043 -1.548 -0.295768 0
M  V30 4173 C 402.973 -1.89115 -1.36959 0
M  V30 4174 C 403.954 -0.75059 -1.52644 0
M  V30 4175 O 405.139 -1.00678 -1.66065 0
M  V30 4176 C 402.269 -2.14307 -2.73295 0
M  V30 4177 C 401.223 -3.30151 -2.72368 0
M  V30 4178 C 400.549 -3.40772 -4.12042 0
M  V30 4179 C 401.849 -4.67126 -2.33646 0
M  V30 4180 H 403.543 -2.79053 -1.08488 0
M  V30 4181 H 401.089 -1.34266 -0.520443 0
M  V30 4182 H 403.042 -2.36898 -3.48507 0
M  V30 4183 H 401.766 -1.21145 -3.03301 0
M  V30 4184 H 400.425 -3.0749 -1.99613 0
M  V30 4185 H 400.073 -2.45117 -4.39234 0
M  V30 4186 H 399.773 -4.18645 -4.12322 0
M  V30 4187 H 401.297 -3.6563 -4.89027 0
M  V30 4188 H 402.711 -4.89414 -2.98575 0
M  V30 4189 H 401.108 -5.47751 -2.45129 0
M  V30 4190 H 402.178 -4.67489 -1.28772 0
M  V30 4191 N 403.521 0.559213 -1.47345 0
M  V30 4192 C 404.451 1.67622 -1.62558 0
M  V30 4193 C 405.432 1.63331 -0.475087 0
M  V30 4194 O 406.617 1.80983 -0.704182 0
M  V30 4195 C 403.747 3.0626 -1.63774 0
M  V30 4196 C 402.701 3.25397 -2.7803 0
M  V30 4197 C 402.027 4.64801 -2.64318 0
M  V30 4198 C 403.327 3.10965 -4.19641 0
M  V30 4199 H 405.021 1.55146 -2.56067 0
M  V30 4200 H 402.567 0.744961 -1.23233 0
M  V30 4201 H 404.52 3.84247 -1.73008 0
M  V30 4202 H 403.244 3.1969 -0.66825 0
M  V30 4203 H 401.903 2.49817 -2.68304 0
M  V30 4204 H 401.551 4.75028 -1.65401 0
M  V30 4205 H 401.251 4.78555 -3.40968 0
M  V30 4206 H 402.775 5.44926 -2.75478 0
M  V30 4207 H 404.189 3.78772 -4.30354 0
M  V30 4208 H 402.586 3.36229 -4.97062 0
M  V30 4209 H 403.656 2.07736 -4.38148 0
M  V30 4210 N 404.999 1.35443 0.805782 0
M  V30 4211 C 406.247 1.28507 1.55982 0
M  V30 4212 C 406.568 -0.140046 1.94496 0
M  V30 4213 O 405.838 -1.07666 1.63661 0
M  V30 4214 H 404.418 0.472676 0.578434 0
M  V30 4215 H 407.08 1.69555 0.961098 0
M  V30 4216 H 406.176 1.90148 2.47488 0
M  V30 4217 N 406.477 -1.02803 1.19454 0
M  V30 4218 C 407.705 -1.79841 1.02297 0
M  V30 4219 C 408.12 -1.83879 -0.428259 0
M  V30 4220 O 407.477 -1.28345 -1.29745 0
M  V30 4221 C 407.528 -3.24852 1.58598 0
M  V30 4222 O 407.249 -3.21097 2.98041 0
M  V30 4223 C 408.75 -4.18485 1.46236 0
M  V30 4224 H 405.97 -0.565936 0.360496 0
M  V30 4225 H 408.514 -1.2948 1.58288 0
M  V30 4226 H 406.669 -3.72401 1.06753 0
M  V30 4227 H 407.083 -4.12033 3.24545 0
M  V30 4228 H 408.557 -5.18121 1.90407 0
M  V30 4229 H 409.034 -4.37254 0.41301 0
M  V30 4230 H 409.64 -3.76811 1.97215 0
M  V30 4231 N 407.956 -0.998596 -1.21925 0
M  V30 4232 C 408.886 -0.573688 -2.26343 0
M  V30 4233 C 409.867 0.402296 -1.65274 0
M  V30 4234 O 411.052 0.291683 -1.91997 0
M  V30 4235 C 408.182 0.106839 -3.47136 0
M  V30 4236 C 407.136 -0.788269 -4.20678 0
M  V30 4237 C 406.462 0.0254927 -5.34694 0
M  V30 4238 C 407.762 -2.08784 -4.78755 0
M  V30 4239 H 409.456 -1.44651 -2.62138 0
M  V30 4240 H 407.002 -0.696975 -1.26009 0
M  V30 4241 H 408.955 0.415531 -4.19346 0
M  V30 4242 H 407.679 1.01424 -3.10452 0
M  V30 4243 H 406.338 -1.08069 -3.50309 0
M  V30 4244 H 405.986 0.933989 -4.94253 0
M  V30 4245 H 405.686 -0.570437 -5.84825 0
M  V30 4246 H 407.21 0.328147 -6.09718 0
M  V30 4247 H 408.624 -1.84272 -5.42878 0
M  V30 4248 H 407.021 -2.63307 -5.39249 0
M  V30 4249 H 408.091 -2.76284 -3.98491 0
M  V30 4250 N 409.434 1.37368 -0.772513 0
M  V30 4251 C 410.364 2.32856 -0.173304 0
M  V30 4252 C 411.345 1.55818 0.682262 0
M  V30 4253 O 412.53 1.84052 0.619566 0
M  V30 4254 C 409.66 3.40048 0.706007 0
M  V30 4255 C 408.614 4.27973 -0.0483144 0
M  V30 4256 C 407.94 5.26184 0.950491 0
M  V30 4257 C 409.24 5.07665 -1.22776 0
M  V30 4258 H 410.934 2.83217 -0.971002 0
M  V30 4259 H 408.48 1.3617 -0.468377 0
M  V30 4260 H 410.433 4.05827 1.13501 0
M  V30 4261 H 409.157 2.88214 1.53623 0
M  V30 4262 H 407.816 3.63726 -0.458107 0
M  V30 4263 H 407.464 4.7063 1.77529 0
M  V30 4264 H 407.164 5.85872 0.450314 0
M  V30 4265 H 408.688 5.94838 1.37842 0
M  V30 4266 H 410.102 5.66578 -0.875366 0
M  V30 4267 H 408.499 5.76681 -1.66007 0
M  V30 4268 H 409.569 4.40294 -2.03149 0
M  V30 4269 N 410.912 0.523116 1.48665 0
M  V30 4270 C 412.14 -0.0096312 2.06898 0
M  V30 4271 C 412.555 -1.28784 1.38059 0
M  V30 4272 O 411.912 -1.76453 0.465893 0
M  V30 4273 C 411.963 -0.244386 3.60673 0
M  V30 4274 O 411.684 0.983172 4.26925 0
M  V30 4275 C 413.185 -0.818289 4.35682 0
M  V30 4276 H 410.405 0.0304161 0.67031 0
M  V30 4277 H 412.949 0.726799 1.91149 0
M  V30 4278 H 411.104 -0.930847 3.76051 0
M  V30 4279 H 411.518 0.759653 5.1897 0
M  V30 4280 H 412.992 -0.93201 5.44075 0
M  V30 4281 H 413.469 -1.82153 3.99646 0
M  V30 4282 H 414.075 -0.168609 4.24966 0
M  V30 4283 N 412.39 -1.55475 0.257931 0
M  V30 4284 C 413.638 -1.98813 -0.363009 0
M  V30 4285 C 413.959 -1.14757 -1.57657 0
M  V30 4286 O 413.229 -0.232956 -1.9451 0
M  V30 4287 H 411.809 -0.734308 -0.137113 0
M  V30 4288 H 414.471 -1.9156 0.359281 0
M  V30 4289 H 413.567 -3.04941 -0.664634 0
M  V30 4290 N 413.868 0.0150385 -1.57593 0
M  V30 4291 C 414.778 1.02791 -2.10882 0
M  V30 4292 C 415.794 1.38702 -1.0506 0
M  V30 4293 O 416.97 1.47739 -1.36877 0
M  V30 4294 C 414.035 2.30568 -2.58919 0
M  V30 4295 C 413.096 2.01108 -3.79281 0
M  V30 4296 C 412.329 3.22794 -4.25018 0
M  V30 4297 O 412.552 4.33959 -3.70183 0
M  V30 4298 O 411.486 3.07672 -5.17322 0
M  V30 4299 H 415.312 0.604973 -2.97613 0
M  V30 4300 H 412.897 0.23292 -1.47573 0
M  V30 4301 H 414.779 3.05662 -2.90084 0
M  V30 4302 H 413.454 2.72129 -1.75293 0
M  V30 4303 H 412.361 1.23537 -3.53114 0
M  V30 4304 H 413.694 1.64394 -4.63935 0
M  V30 4305 N 415.346 1.54954 0.287554 0
M  V30 4306 C 416.256 1.8991 1.37736 0
M  V30 4307 C 417.272 0.794701 1.54792 0
M  V30 4308 O 418.448 1.09243 1.69198 0
M  V30 4309 C 415.513 2.15108 2.71899 0
M  V30 4310 C 414.574 3.38752 2.63715 0
M  V30 4311 C 413.807 3.62739 3.91479 0
M  V30 4312 O 414.03 2.89492 4.91478 0
M  V30 4313 O 412.964 4.56267 3.92561 0
M  V30 4314 H 416.79 2.82652 1.11092 0
M  V30 4315 H 414.375 1.41315 0.484807 0
M  V30 4316 H 416.257 2.32806 3.51254 0
M  V30 4317 H 414.932 1.25551 2.9836 0
M  V30 4318 H 413.839 3.26405 1.82786 0
M  V30 4319 H 415.172 4.28483 2.42205 0
M  V30 4320 N 416.824 -0.551391 1.4764 0
M  V30 4321 C 417.771 -1.65796 1.60563 0
M  V30 4322 C 418.741 -1.59932 0.448428 0
M  V30 4323 O 419.926 -1.78679 0.669222 0
M  V30 4324 C 417.066 -3.04108 1.63133 0
M  V30 4325 C 416.179 -3.20365 2.89811 0
M  V30 4326 C 415.314 -4.49109 2.8368 0
M  V30 4327 C 414.353 -4.58819 4.05156 0
M  V30 4328 N 413.49 -5.78926 3.97227 0
M  V30 4329 H 418.33 -1.54088 2.5507 0
M  V30 4330 H 415.867 -0.75052 1.26513 0
M  V30 4331 H 417.825 -3.84207 1.62606 0
M  V30 4332 H 416.455 -3.14637 0.721341 0
M  V30 4333 H 415.507 -2.33659 3.00179 0
M  V30 4334 H 416.819 -3.23402 3.79753 0
M  V30 4335 H 415.973 -5.37475 2.81434 0
M  V30 4336 H 414.712 -4.4856 1.91431 0
M  V30 4337 H 413.717 -3.68864 4.077 0
M  V30 4338 H 414.942 -4.61124 4.98539 0
M  V30 4339 H 412.888 -5.79314 3.07785 0
M  V30 4340 H 412.805 -5.83367 4.80853 0
M  V30 4341 H 414.073 -6.69637 3.99007 0
M  V30 4342 N 418.302 -1.35869 -0.798587 0
M  V30 4343 C 419.234 -1.25305 -1.91915 0
M  V30 4344 C 420.247 -0.174548 -1.61862 0
M  V30 4345 O 421.436 -0.428499 -1.73281 0
M  V30 4346 C 418.536 -0.9086 -3.26493 0
M  V30 4347 C 417.709 -2.08711 -3.84394 0
M  V30 4348 C 416.768 -1.71717 -4.97393 0
M  V30 4349 O 415.794 -2.43692 -5.14396 0
M  V30 4350 N 416.996 -0.645473 -5.769 0
M  V30 4351 H 419.761 -2.21849 -2.01502 0
M  V30 4352 H 417.322 -1.29143 -0.976408 0
M  V30 4353 H 419.314 -0.642455 -3.99568 0
M  V30 4354 H 417.884 -0.0325815 -3.12583 0
M  V30 4355 H 417.104 -2.51659 -3.03416 0
M  V30 4356 H 418.392 -2.87468 -4.19809 0
M  V30 4357 H 417.79 -0.047648 -5.6568 0
M  V30 4358 H 416.347 -0.43913 -6.50319 0
M  V30 4359 N 419.78 1.02168 -1.19998 0
M  V30 4360 C 421.196 1.27969 -0.953737 0
M  V30 4361 C 421.396 1.98079 0.369703 0
M  V30 4362 O 420.452 2.27306 1.09947 0
M  V30 4363 C 421.765 2.11971 -2.13281 0
M  V30 4364 C 423.313 2.25255 -2.17323 0
M  V30 4365 C 423.788 3.12632 -3.34702 0
M  V30 4366 N 425.279 3.2022 -3.34684 0
M  V30 4367 C 426.014 3.88039 -4.22153 0
M  V30 4368 N 425.51 4.58027 -5.19791 0
M  V30 4369 N 427.303 3.84511 -4.10009 0
M  V30 4370 H 419.454 0.550794 -2.05134 0
M  V30 4371 H 421.717 0.305683 -0.897364 0
M  V30 4372 H 421.423 1.67785 -3.09097 0
M  V30 4373 H 421.297 3.12699 -2.10949 0
M  V30 4374 H 423.684 2.68667 -1.22073 0
M  V30 4375 H 423.765 1.24053 -2.23706 0
M  V30 4376 H 423.409 2.69926 -4.30235 0
M  V30 4377 H 423.339 4.13909 -3.25556 0
M  V30 4378 H 425.83 2.70382 -2.64012 0
M  V30 4379 H 426.143 5.07429 -5.82868 0
M  V30 4380 H 424.488 4.56869 -5.23733 0
M  V30 4381 H 427.679 3.28978 -3.33003 0
M  V30 4382 H 427.852 4.3709 -4.78389 0
M  V30 4383 N 421.258 1.00505 1.21394 0
M  V30 4384 C 422.504 0.688793 1.90745 0
M  V30 4385 C 422.837 -0.778486 1.77914 0
M  V30 4386 O 422.112 -1.56433 1.15581 0
M  V30 4387 C 422.395 1.11063 3.42545 0
M  V30 4388 C 422.248 2.63737 3.64367 0
M  V30 4389 C 423.567 0.673059 4.34923 0
M  V30 4390 H 420.686 0.251702 0.692687 0
M  V30 4391 H 423.328 1.25074 1.43026 0
M  V30 4392 H 421.478 0.632508 3.83317 0
M  V30 4393 H 423.15 3.19313 3.32922 0
M  V30 4394 H 421.393 3.05248 3.08231 0
M  V30 4395 H 422.064 2.88305 4.70727 0
M  V30 4396 H 424.54 1.08392 4.01734 0
M  V30 4397 H 423.416 0.996383 5.39781 0
M  V30 4398 H 423.677 -0.425808 4.40045 0
M  V30 4399 N 422.737 -1.36956 0.779787 0
M  V30 4400 C 423.667 -2.32761 0.185651 0
M  V30 4401 C 424.648 -1.56177 -0.673989 0
M  V30 4402 O 425.833 -1.84378 -0.609797 0
M  V30 4403 C 422.963 -3.40418 -0.687964 0
M  V30 4404 C 421.917 -4.27941 0.0710102 0
M  V30 4405 C 421.243 -5.26681 -0.922573 0
M  V30 4406 C 422.543 -5.07006 1.25467 0
M  V30 4407 H 424.237 -2.82698 0.986008 0
M  V30 4408 H 421.783 -1.3592 0.475592 0
M  V30 4409 H 423.736 -4.06423 -1.11348 0
M  V30 4410 H 422.46 -2.89025 -1.52093 0
M  V30 4411 H 421.119 -3.63478 0.47739 0
M  V30 4412 H 420.767 -4.71565 -1.7503 0
M  V30 4413 H 420.467 -5.86103 -0.419237 0
M  V30 4414 H 421.991 -5.9556 -1.34686 0
M  V30 4415 H 423.405 -5.66105 0.905401 0
M  V30 4416 H 421.802 -5.75793 1.69063 0
M  V30 4417 H 422.872 -4.3921 2.05481 0
M  V30 4418 N 424.215 -0.530993 -1.48385 0
M  V30 4419 C 425.145 0.219985 -2.32461 0
M  V30 4420 C 426.126 0.934111 -1.42156 0
M  V30 4421 O 427.311 0.919694 -1.71042 0
M  V30 4422 C 424.441 1.26674 -3.23375 0
M  V30 4423 C 423.395 0.67069 -4.22712 0
M  V30 4424 C 422.721 1.82017 -5.02766 0
M  V30 4425 C 424.021 -0.358268 -5.2107 0
M  V30 4426 H 425.715 -0.48187 -2.95497 0
M  V30 4427 H 423.261 -0.233182 -1.42099 0
M  V30 4428 H 425.214 1.80006 -3.81019 0
M  V30 4429 H 423.938 1.99818 -2.58341 0
M  V30 4430 H 422.597 0.158878 -3.66256 0
M  V30 4431 H 422.245 2.54002 -4.34157 0
M  V30 4432 H 421.945 1.42727 -5.70003 0
M  V30 4433 H 423.469 2.35725 -5.63264 0
M  V30 4434 H 424.883 0.0880081 -5.73232 0
M  V30 4435 H 423.28 -0.66861 -5.96364 0
M  V30 4436 H 424.35 -1.26367 -4.68145 0
M  V30 4437 N 425.693 1.55336 -0.266172 0
M  V30 4438 C 426.603 2.2583 0.635458 0
M  V30 4439 C 427.619 1.28106 1.17749 0
M  V30 4440 O 428.795 1.61024 1.20968 0
M  V30 4441 C 425.86 2.95879 1.80712 0
M  V30 4442 C 424.921 4.09059 1.30265 0
M  V30 4443 C 424.154 4.75759 2.41846 0
M  V30 4444 O 424.377 4.41622 3.61007 0
M  V30 4445 O 423.311 5.63888 2.1051 0
M  V30 4446 H 427.137 3.03631 0.0646693 0
M  V30 4447 H 424.722 1.49361 -0.0339177 0
M  V30 4448 H 426.604 3.39932 2.49047 0
M  V30 4449 H 425.279 2.21002 2.36516 0
M  V30 4450 H 424.186 3.69482 0.586019 0
M  V30 4451 H 425.519 4.85811 0.790458 0
M  V30 4452 N 427.171 -0.0066808 1.57599 0
M  V30 4453 C 428.134 -0.985035 2.06953 0
M  V30 4454 C 429.134 -1.27663 0.977687 0
M  V30 4455 O 430.324 -1.22293 1.24057 0
M  V30 4456 C 427.456 -2.3118 2.50536 0
M  V30 4457 H 428.649 -0.558255 2.94658 0
M  V30 4458 H 426.202 -0.254011 1.54222 0
M  V30 4459 H 426.937 -2.78561 1.66054 0
M  V30 4460 H 426.722 -2.11338 3.3027 0
M  V30 4461 H 428.212 -3.01377 2.8907 0
M  V30 4462 N 428.649 -1.55105 -0.279332 0
M  V30 4463 C 430.065 -1.46803 -0.626187 0
M  V30 4464 C 430.265 -0.676939 -1.89789 0
M  V30 4465 O 429.321 -0.19326 -2.51759 0
M  V30 4466 C 430.634 -2.90962 -0.759034 0
M  V30 4467 C 432.182 -3.01138 -0.853504 0
M  V30 4468 C 432.657 -4.46539 -1.01818 0
M  V30 4469 N 434.148 -4.50341 -1.08386 0
M  V30 4470 C 434.883 -5.60053 -1.22996 0
M  V30 4471 N 434.379 -6.79645 -1.34366 0
M  V30 4472 N 436.172 -5.47783 -1.26056 0
M  V30 4473 H 428.323 -2.04996 0.555921 0
M  V30 4474 H 430.586 -0.929325 0.187239 0
M  V30 4475 H 430.292 -3.51544 0.104852 0
M  V30 4476 H 430.166 -3.39619 -1.64131 0
M  V30 4477 H 432.553 -2.40658 -1.70786 0
M  V30 4478 H 432.634 -2.55745 0.0532466 0
M  V30 4479 H 432.278 -5.0762 -0.168504 0
M  V30 4480 H 432.208 -4.89583 -1.93948 0
M  V30 4481 H 434.699 -3.64191 -1.00864 0
M  V30 4482 H 435.012 -7.59012 -1.4533 0
M  V30 4483 H 433.357 -6.82469 -1.31382 0
M  V30 4484 H 436.548 -4.53294 -1.168 0
M  V30 4485 H 436.721 -6.33331 -1.37098 0
M  V30 4486 N 430.127 0.543554 -1.4793 0
M  V30 4487 C 431.074 1.64942 -1.6144 0
M  V30 4488 C 432.044 1.59692 -0.456903 0
M  V30 4489 O 433.229 1.78321 -0.678688 0
M  V30 4490 C 430.369 3.03238 -1.64744 0
M  V30 4491 C 429.482 3.18823 -2.91506 0
M  V30 4492 C 428.617 4.47599 -2.86057 0
M  V30 4493 C 427.656 4.56664 -4.07584 0
M  V30 4494 N 426.793 5.76811 -4.00292 0
M  V30 4495 H 431.633 1.52733 -2.55884 0
M  V30 4496 H 429.17 0.7438 -1.2691 0
M  V30 4497 H 431.128 3.83339 -1.64641 0
M  V30 4498 H 429.758 3.1425 -0.738017 0
M  V30 4499 H 428.81 2.32064 -3.01414 0
M  V30 4500 H 430.122 3.21384 -3.81463 0
M  V30 4501 H 429.276 5.35975 -2.84281 0
M  V30 4502 H 428.015 4.47538 -1.93807 0
M  V30 4503 H 427.02 3.66697 -4.09651 0
M  V30 4504 H 428.245 4.58474 -5.00978 0
M  V30 4505 H 426.191 5.77673 -3.10853 0
M  V30 4506 H 426.108 5.80808 -4.8394 0
M  V30 4507 H 427.376 6.67512 -4.02553 0
M  V30 4508 N 431.605 1.3629 0.791371 0
M  V30 4509 C 432.568 1.30309 1.88553 0
M  V30 4510 C 433.568 0.211204 1.59407 0
M  V30 4511 O 434.758 0.465865 1.67855 0
M  V30 4512 C 431.89 1.01956 3.25297 0
M  V30 4513 H 433.083 2.27614 1.95273 0
M  V30 4514 H 430.636 1.21035 0.988953 0
M  V30 4515 H 431.371 0.050998 3.2426 0
M  V30 4516 H 431.156 1.80968 3.4784 0
M  V30 4517 H 432.646 1.0037 4.05359 0
M  V30 4518 N 433.083 -1.0153 1.20538 0
M  V30 4519 C 434.329 -1.75408 1.01783 0
M  V30 4520 C 434.662 -1.88943 -0.448814 0
M  V30 4521 O 433.937 -1.4162 -1.33319 0
M  V30 4522 C 434.22 -3.17255 1.70356 0
M  V30 4523 C 434.073 -3.11508 3.24473 0
M  V30 4524 C 435.392 -4.15955 1.43769 0
M  V30 4525 H 432.511 -0.636713 0.371167 0
M  V30 4526 H 435.153 -1.18436 1.4857 0
M  V30 4527 H 433.303 -3.65898 1.30578 0
M  V30 4528 H 434.975 -2.70658 3.73553 0
M  V30 4529 H 433.218 -2.4887 3.55311 0
M  V30 4530 H 433.889 -4.11784 3.67611 0
M  V30 4531 H 436.365 -3.75973 1.7828 0
M  V30 4532 H 435.241 -5.13368 1.94279 0
M  V30 4533 H 435.502 -4.40586 0.365564 0
M  V30 4534 N 434.561 -1.01147 -1.20859 0
M  V30 4535 C 435.977 -0.725422 -1.42161 0
M  V30 4536 C 436.177 0.696919 -1.89064 0
M  V30 4537 O 435.233 1.46539 -2.05627 0
M  V30 4538 C 436.546 -1.74678 -2.44761 0
M  V30 4539 C 438.094 -1.76433 -2.58535 0
M  V30 4540 C 438.569 -2.77481 -3.64374 0
M  V30 4541 N 440.06 -2.76189 -3.71852 0
M  V30 4542 C 440.795 -3.51035 -4.53389 0
M  V30 4543 N 440.291 -4.35541 -5.38773 0
M  V30 4544 N 442.084 -3.39655 -4.47873 0
M  V30 4545 H 434.235 -1.92979 -0.887282 0
M  V30 4546 H 436.498 -0.833327 -0.451962 0
M  V30 4547 H 436.204 -2.76551 -2.17285 0
M  V30 4548 H 436.078 -1.55472 -3.43669 0
M  V30 4549 H 438.465 -0.75248 -2.85345 0
M  V30 4550 H 438.546 -1.99712 -1.5984 0
M  V30 4551 H 438.19 -3.78827 -3.38308 0
M  V30 4552 H 438.12 -2.51466 -4.6268 0
M  V30 4553 H 440.611 -2.14885 -3.10858 0
M  V30 4554 H 440.924 -4.89432 -5.98061 0
M  V30 4555 H 439.269 -4.39621 -5.38292 0
M  V30 4556 H 442.46 -2.73063 -3.80203 0
M  V30 4557 H 442.633 -3.9824 -5.11184 0
M  V30 4558 N 436.039 1.36541 -0.78704 0
M  V30 4559 C 437.287 1.98911 -0.357633 0
M  V30 4560 C 437.608 1.62778 1.07371 0
M  V30 4561 O 436.878 0.900612 1.73971 0
M  V30 4562 H 435.458 0.735734 -0.129246 0
M  V30 4563 H 438.12 1.66776 -1.00855 0
M  V30 4564 H 437.216 3.08874 -0.447549 0
M  V30 4565 N 437.518 0.538854 1.48102 0
M  V30 4566 C 438.795 -0.0568108 1.95517 0
M  V30 4567 C 439.175 -1.50408 1.48124 0
M  V30 4568 O 438.523 -2.17133 0.711727 0
M  V30 4569 C 438.733 0.0696262 3.48931 0
M  V30 4570 C 440.081 -0.0851202 4.24515 0
M  V30 4571 O 441.105 -0.0037347 3.562 0
M  V30 4572 O 439.964 -0.257025 5.45895 0
M  V30 4573 H 437.058 -0.0743695 0.823649 0
M  V30 4574 H 439.604 0.604081 1.58584 0
M  V30 4575 H 438.376 1.07744 3.76174 0
M  V30 4576 H 437.999 -0.629714 3.92582 0
M  V30 4577 N 438.996 -1.55193 0.274407 0
M  V30 4578 C 440.273 -1.91584 -0.394331 0
M  V30 4579 C 440.653 -1.19858 -1.73774 0
M  V30 4580 O 440.001 -0.3252 -2.26174 0
M  V30 4581 C 440.211 -3.4487 -0.535311 0
M  V30 4582 C 441.559 -4.16636 -0.818534 0
M  V30 4583 O 442.583 -3.5076 -0.620146 0
M  V30 4584 O 441.442 -5.33209 -1.19792 0
M  V30 4585 H 438.536 -0.798349 -0.215794 0
M  V30 4586 H 441.082 -1.66646 0.320507 0
M  V30 4587 H 439.854 -3.89145 0.410141 0
M  V30 4588 H 439.477 -3.75759 -1.29964 0
M  V30 4589 N 440.474 -0.00167713 -1.576 0
M  V30 4590 C 441.722 0.681471 -1.90264 0
M  V30 4591 C 442.043 1.7422 -0.875924 0
M  V30 4592 O 441.313 1.95709 0.0864412 0
M  V30 4593 H 439.893 0.254696 -0.702239 0
M  V30 4594 H 442.555 -0.0429996 -1.94853 0
M  V30 4595 H 441.651 1.15166 -2.90075 0
M  V30 4596 N 441.952 1.55251 0.271103 0
M  V30 4597 C 443.368 1.47133 0.618393 0
M  V30 4598 C 443.568 0.686994 1.89427 0
M  V30 4599 O 442.624 0.206609 2.51653 0
M  V30 4600 C 443.937 2.91361 0.743593 0
M  V30 4601 C 445.485 3.01587 0.837522 0
M  V30 4602 C 445.96 4.47073 0.994483 0
M  V30 4603 N 447.451 4.50909 1.05996 0
M  V30 4604 C 448.186 5.60698 1.20024 0
M  V30 4605 N 447.682 6.80348 1.30759 0
M  V30 4606 N 449.475 5.48444 1.23149 0
M  V30 4607 H 441.626 2.04698 -0.566784 0
M  V30 4608 H 443.889 0.928319 -0.192165 0
M  V30 4609 H 443.595 3.51483 -0.123493 0
M  V30 4610 H 443.469 3.40484 1.62328 0
M  V30 4611 H 445.856 2.4156 1.69507 0
M  V30 4612 H 445.937 2.55713 -0.0668086 0
M  V30 4613 H 445.581 5.07703 0.141582 0
M  V30 4614 H 445.511 4.90605 1.91349 0
M  V30 4615 H 448.002 3.6472 0.989316 0
M  V30 4616 H 448.315 7.59772 1.41303 0
M  V30 4617 H 446.66 6.83156 1.27761 0
M  V30 4618 H 449.851 4.53907 1.14394 0
M  V30 4619 H 450.024 6.34049 1.33738 0
M  V30 4620 N 443.43 -0.535701 1.48216 0
M  V30 4621 C 444.841 -1.11769 1.49548 0
M  V30 4622 C 445.192 -1.94442 0.26207 0
M  V30 4623 O 444.317 -2.06987 -0.631287 0
M  V30 4624 C 444.912 -2.03367 2.70975 0
M  V30 4625 C 443.471 -2.56795 2.75196 0
M  V30 4626 C 442.618 -1.33631 2.42977 0
M  V30 4627 H 445.569 -0.321232 1.55415 0
M  V30 4628 H 445.59 -2.87569 2.49167 0
M  V30 4629 H 445.102 -1.43169 3.60727 0
M  V30 4630 H 443.203 -3.20731 1.89638 0
M  V30 4631 H 443.316 -2.9632 3.76472 0
M  V30 4632 H 441.68 -1.6502 1.94012 0
M  V30 4633 H 442.463 -0.75194 3.34964 0
M  V30 4634 N 444.908 -1.36708 -0.784132 0
M  V30 4635 C 446.136 -1.34398 -1.57305 0
M  V30 4636 C 446.551 0.0735577 -1.88657 0
M  V30 4637 O 445.908 1.03193 -1.50524 0
M  V30 4638 C 445.959 -2.17053 -2.89085 0
M  V30 4639 O 445.68 -3.53281 -2.59083 0
M  V30 4640 C 447.181 -2.22583 -3.83369 0
M  V30 4641 H 444.401 -0.460819 -0.487736 0
M  V30 4642 H 446.945 -1.79879 -0.972819 0
M  V30 4643 H 445.1 -1.75113 -3.45564 0
M  V30 4644 H 445.514 -3.9647 -3.43383 0
M  V30 4645 H 446.988 -2.84763 -4.72878 0
M  V30 4646 H 447.465 -1.23075 -4.21603 0
M  V30 4647 H 448.071 -2.64781 -3.32823 0
M  V30 4648 N 446.386 1.0089 -1.21074 0
M  V30 4649 C 447.318 2.09737 -0.924291 0
M  V30 4650 C 448.331 1.62546 0.0909809 0
M  V30 4651 O 449.52 1.77942 -0.141021 0
M  V30 4652 C 446.62 3.36922 -0.36559 0
M  V30 4653 C 445.793 4.13216 -1.43426 0
M  V30 4654 C 444.852 5.18696 -0.885496 0
M  V30 4655 O 443.878 5.47176 -1.56801 0
M  V30 4656 N 445.08 5.79718 0.301227 0
M  V30 4657 H 447.845 2.34895 -1.8613 0
M  V30 4658 H 445.406 1.17341 -1.11546 0
M  V30 4659 H 447.398 4.04697 0.0158407 0
M  V30 4660 H 445.968 3.08952 0.476149 0
M  V30 4661 H 445.188 3.40301 -1.9897 0
M  V30 4662 H 446.476 4.60967 -2.15376 0
M  V30 4663 H 445.874 5.58926 0.872849 0
M  V30 4664 H 444.431 6.48804 0.624211 0
M  V30 4665 N 447.864 1.01787 1.20321 0
M  V30 4666 C 448.794 0.609625 2.25401 0
M  V30 4667 C 449.775 -0.375951 1.65893 0
M  V30 4668 O 450.96 -0.261101 1.92437 0
M  V30 4669 C 448.09 -0.0515995 3.47262 0
M  V30 4670 C 447.044 0.855095 4.19371 0
M  V30 4671 C 446.37 0.0595757 5.34667 0
M  V30 4672 C 447.67 2.16374 4.75373 0
M  V30 4673 H 449.364 1.48803 2.59804 0
M  V30 4674 H 446.91 0.716934 1.24884 0
M  V30 4675 H 448.863 -0.348764 4.19954 0
M  V30 4676 H 447.587 -0.964726 3.12027 0
M  V30 4677 H 446.246 1.13628 3.48546 0
M  V30 4678 H 445.894 -0.85524 4.95676 0
M  V30 4679 H 445.594 0.663406 5.83843 0
M  V30 4680 H 447.118 -0.231105 6.10162 0
M  V30 4681 H 448.532 1.92885 5.39878 0
M  V30 4682 H 446.929 2.71853 5.34991 0
M  V30 4683 H 447.999 2.82589 3.94045 0
M  V30 4684 N 449.342 -1.36122 0.79427 0
M  V30 4685 C 450.753 -1.81646 0.431446 0
M  V30 4686 C 451.104 -1.66043 -1.04518 0
M  V30 4687 O 450.229 -1.1841 -1.8113 0
M  V30 4688 C 450.824 -3.29785 0.776341 0
M  V30 4689 C 449.383 -3.73501 0.466282 0
M  V30 4690 C 448.53 -2.58313 1.00844 0
M  V30 4691 H 451.481 -1.24274 0.986995 0
M  V30 4692 H 451.502 -3.80437 0.0692413 0
M  V30 4693 H 451.014 -3.4111 1.8511 0
M  V30 4694 H 449.115 -3.67733 -0.600245 0
M  V30 4695 H 449.228 -4.68754 0.990288 0
M  V30 4696 H 447.592 -2.5102 0.431406 0
M  V30 4697 H 448.375 -2.72421 2.08906 0
M  V30 4698 N 450.82 -0.546701 -1.47814 0
M  V30 4699 C 451.768 0.220048 -2.31557 0
M  V30 4700 C 452.762 0.919472 -1.42275 0
M  V30 4701 O 453.968 0.841953 -1.59095 0
M  V30 4702 H 450.343 0.0898334 -0.746615 0
M  V30 4703 H 452.314 -0.505589 -2.94086 0
M  V30 4704 C 451.063 1.24353 -3.24702 0
M  V30 4705 H 450.386 0.714758 -3.93359 0
M  V30 4706 H 451.826 1.75112 -3.8615 0
M  V30 4707 C 450.285 2.28593 -2.47481 0
M  V30 4708 O 450.815 3.35334 -2.21165 0
M  V30 4709 N 449.021 2.02244 -2.08676 0
M  V30 4710 H 448.568 1.15455 -2.30278 0
M  V30 4711 H 448.526 2.72207 -1.57323 0
M  V30 4712 N 452.299 1.55045 -0.282633 0
M  V30 4713 C 453.209 2.26491 0.61147 0
M  V30 4714 C 454.225 1.29348 1.16384 0
M  V30 4715 O 455.401 1.62298 1.19253 0
M  V30 4716 C 452.466 2.97779 1.77563 0
M  V30 4717 C 451.527 4.10418 1.25919 0
M  V30 4718 C 450.76 4.78297 2.36786 0
M  V30 4719 O 450.983 4.45426 3.56303 0
M  V30 4720 O 449.917 5.66089 2.04517 0
M  V30 4721 H 453.743 3.03683 0.0324615 0
M  V30 4722 H 451.328 1.49317 -0.0497576 0
M  V30 4723 H 453.21 3.42554 2.45427 0
M  V30 4724 H 451.885 2.23498 2.34159 0
M  V30 4725 H 450.792 3.70082 0.546797 0
M  V30 4726 H 452.125 4.86622 0.738887 0
M  V30 4727 N 453.777 0.010035 1.57597 0
M  V30 4728 C 455.023 -0.673697 1.91283 0
M  V30 4729 C 455.356 -1.72863 0.884979 0
M  V30 4730 O 454.631 -1.94268 -0.0949487 0
M  V30 4731 C 454.914 -1.30766 3.35518 0
M  V30 4732 C 454.767 -0.263578 4.49027 0
M  V30 4733 C 456.086 -2.23105 3.79358 0
M  V30 4734 H 453.205 -0.243439 0.695634 0
M  V30 4735 H 455.847 0.0633864 1.89894 0
M  V30 4736 H 453.997 -1.93588 3.36832 0
M  V30 4737 H 455.669 0.365738 4.59848 0
M  V30 4738 H 453.912 0.413077 4.31829 0
M  V30 4739 H 454.583 -0.746398 5.4693 0
M  V30 4740 H 457.059 -1.70289 3.79659 0
M  V30 4741 H 455.935 -2.64424 4.81011 0
M  V30 4742 H 456.196 -3.11433 3.13787 0
M  V30 4743 N 455.255 -1.55392 -0.262866 0
M  V30 4744 C 456.532 -1.67204 -1.01499 0
M  V30 4745 C 456.912 -0.545186 -2.03939 0
M  V30 4746 O 456.26 0.453467 -2.23955 0
M  V30 4747 C 456.47 -3.06847 -1.6627 0
M  V30 4748 C 457.818 -3.64928 -2.17054 0
M  V30 4749 O 458.842 -3.09545 -1.76239 0
M  V30 4750 O 457.701 -4.61984 -2.91947 0
M  V30 4751 H 454.795 -0.679467 -0.471438 0
M  V30 4752 H 457.341 -1.67729 -0.257918 0
M  V30 4753 H 456.113 -3.80309 -0.920915 0
M  V30 4754 H 455.736 -3.10266 -2.48638 0
M  V30 4755 N 456.733 0.527833 -1.48498 0
M  V30 4756 C 457.696 1.61439 -1.62696 0
M  V30 4757 C 458.696 1.52824 -0.500136 0
M  V30 4758 O 459.886 1.56456 -0.765976 0
M  V30 4759 C 457.018 3.01063 -1.59918 0
M  V30 4760 H 458.211 1.50189 -2.59583 0
M  V30 4761 H 455.764 0.750055 -1.37127 0
M  V30 4762 H 456.499 3.17818 -0.645163 0
M  V30 4763 H 456.284 3.08725 -2.41726 0
M  V30 4764 H 457.774 3.80057 -1.73051 0
M  V30 4765 N 458.211 1.37122 0.776871 0
M  V30 4766 C 459.174 1.32301 1.8716 0
M  V30 4767 C 460.174 0.228099 1.59174 0
M  V30 4768 O 461.364 0.483642 1.67352 0
M  V30 4769 C 458.496 1.054 3.24197 0
M  V30 4770 H 459.689 2.29673 1.92848 0
M  V30 4771 H 457.242 1.22077 0.97606 0
M  V30 4772 H 457.977 0.0853872 3.24188 0
M  V30 4773 H 457.762 1.84648 3.45901 0
M  V30 4774 H 459.252 1.04664 4.04271 0
M  V30 4775 N 459.689 -1.00246 1.21608 0
M  V30 4776 C 460.936 -1.74061 1.03485 0
M  V30 4777 C 461.264 -1.89658 -0.431308 0
M  V30 4778 O 460.519 -1.42976 -1.33627 0
M  V30 4779 C 460.818 -3.15448 1.68009 0
M  V30 4780 C 460.484 -3.19792 3.17874 0
M  V30 4781 C 459.146 -3.20685 3.58768 0
M  V30 4782 C 461.498 -3.16835 4.13842 0
M  V30 4783 C 458.826 -3.16309 4.94131 0
M  V30 4784 C 461.178 -3.14001 5.49169 0
M  V30 4785 C 459.842 -3.13204 5.89457 0
M  V30 4786 H 459.112 -0.636934 0.378677 0
M  V30 4787 H 461.759 -1.17473 1.51236 0
M  V30 4788 H 460.064 -3.75284 1.12557 0
M  V30 4789 H 461.761 -3.71285 1.51487 0
M  V30 4790 H 458.351 -3.19842 2.85305 0
M  V30 4791 H 462.535 -3.15303 3.83272 0
M  V30 4792 H 457.791 -3.14032 5.24589 0
M  V30 4793 H 461.965 -3.10667 6.23265 0
M  V30 4794 H 459.592 -3.09568 6.94314 0
M  V30 4795 N 461.167 -1.02423 -1.1978 0
M  V30 4796 C 462.578 -0.748389 -1.71044 0
M  V30 4797 C 462.929 0.732398 -1.82017 0
M  V30 4798 O 462.054 1.57116 -1.48807 0
M  V30 4799 C 462.649 -1.35187 -3.1066 0
M  V30 4800 C 461.208 -1.12472 -3.59203 0
M  V30 4801 C 460.355 -1.45283 -2.36195 0
M  V30 4802 H 463.306 -1.19275 -1.04686 0
M  V30 4803 H 463.327 -0.746408 -3.73107 0
M  V30 4804 H 462.839 -2.4296 -3.02642 0
M  V30 4805 H 460.94 -0.0649983 -3.72543 0
M  V30 4806 H 461.053 -1.81016 -4.43588 0
M  V30 4807 H 459.417 -0.872034 -2.39307 0
M  V30 4808 H 460.2 -2.54129 -2.30811 0
M  V30 4809 N 462.645 1.35699 -0.801477 0
M  V30 4810 C 463.575 2.32436 -0.222658 0
M  V30 4811 C 464.556 1.5723 0.649057 0
M  V30 4812 O 465.741 1.85324 0.580387 0
M  V30 4813 C 462.871 3.41469 0.633719 0
M  V30 4814 C 461.825 4.27774 -0.139083 0
M  V30 4815 C 461.151 5.28082 0.838666 0
M  V30 4816 C 462.451 5.04946 -1.33517 0
M  V30 4817 H 464.145 2.81094 -1.03086 0
M  V30 4818 H 461.691 1.35146 -0.497155 0
M  V30 4819 H 463.644 4.08143 1.04868 0
M  V30 4820 H 462.368 2.91408 1.47475 0
M  V30 4821 H 461.027 3.62673 -0.535156 0
M  V30 4822 H 460.675 4.7429 1.67506 0
M  V30 4823 H 460.375 5.86695 0.32594 0
M  V30 4824 H 461.899 5.97628 1.25194 0
M  V30 4825 H 463.313 5.64593 -0.995349 0
M  V30 4826 H 461.71 5.7303 -1.78202 0
M  V30 4827 H 462.78 4.35886 -2.12442 0
M  V30 4828 N 464.123 0.554532 1.47522 0
M  V30 4829 C 465.033 -0.197865 2.33764 0
M  V30 4830 C 466.049 -0.914576 1.48025 0
M  V30 4831 O 467.225 -0.884067 1.80959 0
M  V30 4832 C 464.29 -1.21628 3.24665 0
M  V30 4833 C 463.351 -0.507283 4.26292 0
M  V30 4834 C 462.584 -1.47718 5.1285 0
M  V30 4835 O 462.807 -2.7118 5.01814 0
M  V30 4836 O 461.741 -1.00313 5.93482 0
M  V30 4837 H 465.567 0.50949 2.99396 0
M  V30 4838 H 463.152 0.315176 1.46038 0
M  V30 4839 H 465.034 -1.80421 3.80823 0
M  V30 4840 H 463.709 -1.9056 2.61665 0
M  V30 4841 H 462.616 0.121778 3.73902 0
M  V30 4842 H 463.949 0.140544 4.91999 0
M  V30 4843 N 465.601 -1.54893 0.290851 0
M  V30 4844 C 467.017 -1.59476 -0.0628432 0
M  V30 4845 C 467.217 -1.30795 -1.5328 0
M  V30 4846 O 466.273 -1.07644 -2.28406 0
M  V30 4847 C 467.586 -2.98928 0.325962 0
M  V30 4848 C 469.134 -3.11799 0.273882 0
M  V30 4849 C 469.609 -4.53544 0.637359 0
M  V30 4850 N 471.1 -4.59433 0.589507 0
M  V30 4851 C 471.835 -5.67164 0.84335 0
M  V30 4852 N 471.331 -6.82975 1.16263 0
M  V30 4853 N 473.124 -5.56786 0.771091 0
M  V30 4854 H 465.275 -1.71798 1.24896 0
M  V30 4855 H 467.538 -0.801879 0.505663 0
M  V30 4856 H 467.244 -3.24805 1.34887 0
M  V30 4857 H 467.118 -3.75793 -0.325441 0
M  V30 4858 H 469.505 -2.85677 -0.739765 0
M  V30 4859 H 469.586 -2.37112 0.959766 0
M  V30 4860 H 469.23 -4.80394 1.64877 0
M  V30 4861 H 469.16 -5.26553 -0.0704866 0
M  V30 4862 H 471.651 -3.76245 0.353252 0
M  V30 4863 H 471.964 -7.61048 1.34257 0
M  V30 4864 H 470.309 -6.84552 1.20057 0
M  V30 4865 H 473.5 -4.65187 0.521383 0
M  V30 4866 H 473.673 -6.40664 0.972295 0
M  V30 4867 N 467.08 -0.0183926 -1.57589 0
M  V30 4868 C 468.491 0.521927 -1.79256 0
M  V30 4869 C 468.842 1.72885 -0.927636 0
M  V30 4870 O 467.967 2.15978 -0.135091 0
M  V30 4871 C 468.562 0.953632 -3.25102 0
M  V30 4872 C 467.121 1.43913 -3.47801 0
M  V30 4873 C 466.268 0.398837 -2.74417 0
M  V30 4874 H 469.219 -0.244485 -1.56805 0
M  V30 4875 H 469.24 1.81863 -3.34224 0
M  V30 4876 H 468.752 0.0750123 -3.88028 0
M  V30 4877 H 466.853 2.33804 -2.90115 0
M  V30 4878 H 466.966 1.45391 -4.56507 0
M  V30 4879 H 465.33 0.864572 -2.39577 0
M  V30 4880 H 466.113 -0.471132 -3.40052 0
M  V30 4881 N 468.558 1.5553 0.254621 0
M  V30 4882 C 469.835 1.6774 1.00611 0
M  V30 4883 C 470.215 0.555993 2.03647 0
M  V30 4884 O 469.563 -0.441583 2.24193 0
M  V30 4885 C 469.773 3.07725 1.6464 0
M  V30 4886 C 471.121 3.66074 2.15116 0
M  V30 4887 O 472.145 3.10476 1.74595 0
M  V30 4888 O 471.004 4.63526 2.89493 0
M  V30 4889 H 468.098 0.681958 0.467828 0
M  V30 4890 H 470.644 1.67863 0.24902 0
M  V30 4891 H 469.416 3.80792 0.900734 0
M  V30 4892 H 469.039 3.1158 2.46989 0
M  V30 4893 N 470.036 -0.519951 1.48776 0
M  V30 4894 C 471.282 -1.27456 1.58514 0
M  V30 4895 C 471.637 -1.90634 0.260057 0
M  V30 4896 O 470.93 -1.76815 -0.738036 0
M  V30 4897 C 471.124 -2.37864 2.6675 0
M  V30 4898 C 470.953 -1.85509 4.09654 0
M  V30 4899 C 469.723 -1.67661 4.76674 0
M  V30 4900 C 471.921 -1.37783 4.955 0
M  V30 4901 N 469.903 -1.10037 6.03958 0
M  V30 4902 C 471.274 -0.921714 6.1311 0
M  V30 4903 C 473.329 -1.26179 4.81646 0
M  V30 4904 C 472.032 -0.361057 7.18393 0
M  V30 4905 C 474.058 -0.715121 5.8706 0
M  V30 4906 C 473.42 -0.269132 7.03886 0
M  V30 4907 H 469.519 -0.457049 0.634531 0
M  V30 4908 H 472.103 -0.585073 1.85701 0
M  V30 4909 H 470.274 -3.04296 2.41367 0
M  V30 4910 H 472.006 -3.04901 2.66116 0
M  V30 4911 H 468.761 -1.91478 4.33166 0
M  V30 4912 H 469.185 -0.832067 6.71867 0
M  V30 4913 H 473.827 -1.59263 3.91657 0
M  V30 4914 H 471.545 -0.0179127 8.08098 0
M  V30 4915 H 475.131 -0.628376 5.78397 0
M  V30 4916 H 474.011 0.14729 7.84062 0
M  V30 4917 N 471.514 -1.37532 -0.769588 0
M  V30 4918 C 472.791 -1.23392 -1.51768 0
M  V30 4919 C 473.171 0.17157 -2.10402 0
M  V30 4920 O 472.519 1.17943 -1.95708 0
M  V30 4921 C 472.729 -2.33163 -2.59685 0
M  V30 4922 C 474.077 -2.70809 -3.27028 0
M  V30 4923 O 475.101 -2.32355 -2.69981 0
M  V30 4924 O 473.96 -3.37066 -4.30173 0
M  V30 4925 H 471.054 -0.481617 -0.67229 0
M  V30 4926 H 473.6 -1.49318 -0.806368 0
M  V30 4927 H 472.372 -3.27273 -2.14494 0
M  V30 4928 H 471.995 -2.08713 -3.38415 0
M  V30 4929 N 472.992 0.995999 -1.22138 0
M  V30 4930 C 474.222 1.76809 -1.06874 0
M  V30 4931 C 474.63 1.85265 0.383866 0
M  V30 4932 O 473.973 1.31969 1.27789 0
M  V30 4933 C 474.035 3.2186 -1.60144 0
M  V30 4934 C 473.699 3.36958 -3.0872 0
M  V30 4935 C 474.696 3.2452 -4.0618 0
M  V30 4936 C 472.381 3.62109 -3.48112 0
M  V30 4937 C 474.375 3.37013 -5.41019 0
M  V30 4938 C 472.062 3.74243 -4.831 0
M  V30 4939 C 473.06 3.61702 -5.79362 0
M  V30 4940 O 472.748 3.73436 -7.119 0
M  V30 4941 H 472.48 0.562207 -0.375365 0
M  V30 4942 H 475.034 1.26113 -1.62125 0
M  V30 4943 H 473.264 3.73734 -0.992981 0
M  V30 4944 H 474.953 3.80775 -1.40589 0
M  V30 4945 H 475.719 3.05004 -3.77091 0
M  V30 4946 H 471.598 3.70949 -2.73712 0
M  V30 4947 H 475.142 3.27141 -6.16137 0
M  V30 4948 H 471.039 3.93266 -5.11872 0
M  V30 4949 H 471.807 3.90328 -7.19435 0
M  V30 4950 N 474.47 1.03057 1.19235 0
M  V30 4951 C 475.698 0.747697 1.92917 0
M  V30 4952 C 476.113 -0.69372 1.75593 0
M  V30 4953 O 475.47 -1.47191 1.07894 0
M  V30 4954 C 475.521 1.09159 3.44625 0
M  V30 4955 O 475.242 2.47641 3.61394 0
M  V30 4956 C 476.743 0.831763 4.35427 0
M  V30 4957 H 473.963 0.273453 0.612751 0
M  V30 4958 H 476.507 1.37552 1.51327 0
M  V30 4959 H 474.662 0.508919 3.84043 0
M  V30 4960 H 475.076 2.60499 4.55237 0
M  V30 4961 H 476.55 1.12233 5.4047 0
M  V30 4962 H 477.027 -0.233769 4.38577 0
M  V30 4963 H 477.633 1.39725 4.01693 0
M  V30 4964 N 475.948 -1.35272 0.808662 0
M  V30 4965 C 477.176 -2.02946 0.402537 0
M  V30 4966 C 477.591 -1.60937 -0.987147 0
M  V30 4967 O 476.948 -0.807917 -1.63643 0
M  V30 4968 C 476.999 -3.58317 0.47868 0
M  V30 4969 O 476.72 -3.98799 1.81358 0
M  V30 4970 C 478.221 -4.43251 0.0656281 0
M  V30 4971 H 475.441 -0.650831 0.163279 0
M  V30 4972 H 477.985 -1.72849 1.09286 0
M  V30 4973 H 476.14 -3.87055 -0.163415 0
M  V30 4974 H 476.554 -4.93451 1.77781 0
M  V30 4975 H 478.028 -5.51738 0.170017 0
M  V30 4976 H 478.505 -4.27913 -0.989278 0
M  V30 4977 H 479.111 -4.19813 0.68096 0
M  V30 4978 N 477.426 -0.562348 -1.47226 0
M  V30 4979 C 478.358 0.220011 -2.28142 0
M  V30 4980 C 479.371 0.874596 -1.37312 0
M  V30 4981 O 480.56 0.747583 -1.62091 0
M  V30 4982 C 477.66 1.32953 -3.11732 0
M  V30 4983 C 476.833 0.770759 -4.30556 0
M  V30 4984 C 475.892 1.76541 -4.95701 0
M  V30 4985 O 474.918 1.3095 -5.53932 0
M  V30 4986 N 476.12 3.09896 -4.90861 0
M  V30 4987 H 478.885 -0.474107 -2.95926 0
M  V30 4988 H 476.446 -0.398761 -1.56912 0
M  V30 4989 H 478.438 1.99378 -3.5218 0
M  V30 4990 H 477.008 1.92681 -2.46156 0
M  V30 4991 H 476.228 -0.0704056 -3.94137 0
M  V30 4992 H 477.516 0.376872 -5.07402 0
M  V30 4993 H 476.914 3.49577 -4.44761 0
M  V30 4994 H 475.471 3.71865 -5.35313 0
M  V30 4995 N 478.904 1.54736 -0.299062 0
M  V30 4996 C 479.867 2.22127 0.565012 0
M  V30 4997 C 480.867 1.20669 1.06281 0
M  V30 4998 O 482.057 1.45417 0.959145 0
M  V30 4999 C 479.189 2.90611 1.78208 0
M  V30 5000 H 480.382 2.99891 -0.0237448 0
M  V30 5001 H 477.935 1.5622 -0.0498788 0
M  V30 5002 H 478.67 2.16921 2.41072 0
M  V30 5003 H 478.455 3.64984 1.43281 0
M  V30 5004 H 479.945 3.42026 2.396 0
M  V30 5005 N 480.382 0.0267497 1.57577 0
M  V30 5006 C 481.63 -0.651116 1.91324 0
M  V30 5007 C 481.951 -1.72804 0.90353 0
M  V30 5008 O 481.221 -1.95822 -0.0552946 0
M  V30 5009 H 479.801 -0.243491 0.706202 0
M  V30 5010 H 482.463 0.0739935 1.94759 0
M  V30 5011 H 481.559 -1.10536 2.9187 0
M  V30 5012 N 481.861 -1.55662 -0.24637 0
M  V30 5013 C 483.277 -1.48098 -0.594907 0
M  V30 5014 C 483.477 -0.717044 -1.8831 0
M  V30 5015 O 482.533 -0.246618 -2.51293 0
M  V30 5016 C 483.846 -2.92507 -0.697146 0
M  V30 5017 C 485.394 -3.02881 -0.789436 0
M  V30 5018 C 485.869 -4.48598 -0.923232 0
M  V30 5019 N 487.36 -4.52538 -0.988088 0
M  V30 5020 C 488.095 -5.62536 -1.11089 0
M  V30 5021 N 487.591 -6.82342 -1.19919 0
M  V30 5022 N 489.384 -5.50334 -1.14408 0
M  V30 5023 H 481.535 -2.0377 0.599278 0
M  V30 5024 H 483.798 -0.925145 0.20691 0
M  V30 5025 H 483.504 -3.51242 0.179396 0
M  V30 5026 H 483.378 -3.43024 -1.5689 0
M  V30 5027 H 485.765 -2.44226 -1.65643 0
M  V30 5028 H 485.846 -2.55574 0.107482 0
M  V30 5029 H 485.49 -5.07864 -0.0607927 0
M  V30 5030 H 485.42 -4.93587 -1.8352 0
M  V30 5031 H 487.911 -3.66248 -0.931167 0
M  V30 5032 H 488.224 -7.61924 -1.29197 0
M  V30 5033 H 486.569 -6.85102 -1.16876 0
M  V30 5034 H 489.76 -4.5567 -1.07158 0
M  V30 5035 H 489.933 -6.36096 -1.23634 0
M  V30 5036 N 483.339 0.512053 -1.4905 0
M  V30 5037 C 484.287 1.63568 -1.65373 0
M  V30 5038 C 485.281 1.61228 -0.519806 0
M  V30 5039 O 486.487 1.65869 -0.699101 0
M  V30 5040 H 482.862 0.542019 -0.521267 0
M  V30 5041 H 484.833 1.4695 -2.59708 0
M  V30 5042 C 483.582 3.01761 -1.7273 0
M  V30 5043 H 482.905 3.04263 -2.59353 0
M  V30 5044 H 484.345 3.79948 -1.8819 0
M  V30 5045 C 482.804 3.33609 -0.46973 0
M  V30 5046 O 483.334 3.99607 0.409492 0
M  V30 5047 N 481.54 2.88651 -0.336003 0
M  V30 5048 H 481.087 2.35119 -1.05247 0
M  V30 5049 H 481.045 3.10328 0.504363 0
M  V30 5050 N 484.817 1.37938 0.762283 0
M  V30 5051 C 485.767 1.30976 1.86626 0
M  V30 5052 C 486.751 0.195714 1.59705 0
M  V30 5053 O 487.943 0.430937 1.71674 0
M  V30 5054 C 485.072 1.12847 3.24223 0
M  V30 5055 C 484.158 2.28836 3.57064 0
M  V30 5056 N 484.549 3.54256 3.61022 0
M  V30 5057 C 482.847 2.21198 3.87282 0
M  V30 5058 C 483.548 4.30798 3.90881 0
M  V30 5059 N 482.524 3.60049 4.07266 0
M  V30 5060 H 486.326 2.25946 1.87951 0
M  V30 5061 H 483.84 1.31046 0.959206 0
M  V30 5062 H 485.837 1.05943 4.03214 0
M  V30 5063 H 484.497 0.188024 3.24155 0
M  V30 5064 H 485.508 3.8804 3.42995 0
M  V30 5065 H 482.185 1.35264 3.94981 0
M  V30 5066 H 483.575 5.39386 4.00639 0
M  V30 5067 N 486.295 -0.989507 1.22664 0
M  V30 5068 C 487.225 -2.09847 1.02404 0
M  V30 5069 C 488.206 -1.70007 -0.0561303 0
M  V30 5070 O 489.391 -1.93906 0.106748 0
M  V30 5071 C 486.521 -3.41996 0.604663 0
M  V30 5072 C 485.475 -3.95699 1.63115 0
M  V30 5073 C 484.801 -5.23936 1.0675 0
M  V30 5074 C 486.101 -4.25999 3.02196 0
M  V30 5075 H 487.795 -2.27054 1.95158 0
M  V30 5076 H 485.341 -1.09111 0.939727 0
M  V30 5077 H 487.294 -4.1899 0.45002 0
M  V30 5078 H 486.018 -3.24626 -0.35855 0
M  V30 5079 H 484.677 -3.2084 1.77362 0
M  V30 5080 H 484.325 -5.02909 0.0955422 0
M  V30 5081 H 484.025 -5.60833 1.75328 0
M  V30 5082 H 485.549 -6.0356 0.924516 0
M  V30 5083 H 486.963 -4.93777 2.91303 0
M  V30 5084 H 485.36 -4.74076 3.67929 0
M  V30 5085 H 486.43 -3.33636 3.51873 0
M  V30 5086 N 487.773 -1.03688 -1.18687 0
M  V30 5087 C 489.019 -0.739123 -1.88851 0
M  V30 5088 C 489.352 0.731042 -1.79915 0
M  V30 5089 O 488.627 1.53313 -1.19688 0
M  V30 5090 C 488.91 -1.20106 -3.3948 0
M  V30 5091 C 488.763 -2.73304 -3.57246 0
M  V30 5092 C 490.082 -0.788134 -4.32986 0
M  V30 5093 H 487.201 -0.269978 -0.68577 0
M  V30 5094 H 489.843 -1.28822 -1.3966 0
M  V30 5095 H 487.993 -0.733915 -3.81505 0
M  V30 5096 H 489.665 -3.28027 -3.24339 0
M  V30 5097 H 487.908 -3.13313 -3.00029 0
M  V30 5098 H 488.579 -3.00684 -4.62918 0
M  V30 5099 H 491.055 -1.19005 -3.98719 0
M  V30 5100 H 489.931 -1.13915 -5.36949 0
M  V30 5101 H 490.192 0.308988 -4.41019 0
M  V30 5102 N 489.251 1.34841 -0.815825 0
M  V30 5103 C 490.201 2.27075 -0.205169 0
M  V30 5104 C 491.185 1.48205 0.626414 0
M  V30 5105 O 492.377 1.70306 0.482157 0
M  V30 5106 C 489.506 3.37322 0.637871 0
M  V30 5107 C 488.592 4.23609 -0.203948 0
M  V30 5108 N 488.983 4.89558 -1.27149 0
M  V30 5109 C 487.281 4.45998 0.0128971 0
M  V30 5110 C 487.982 5.53597 -1.7862 0
M  V30 5111 N 486.958 5.32535 -1.0912 0
M  V30 5112 H 490.76 2.75563 -1.02187 0
M  V30 5113 H 488.274 1.48477 -0.657912 0
M  V30 5114 H 490.271 4.02359 1.09146 0
M  V30 5115 H 488.931 2.90385 1.45281 0
M  V30 5116 H 489.942 4.9077 -1.65423 0
M  V30 5117 H 486.619 4.09837 0.79624 0
M  V30 5118 H 488.009 6.16184 -2.67892 0
M  V30 5119 N 490.729 0.570148 1.46925 0
M  V30 5120 C 491.959 0.0561151 2.06524 0
M  V30 5121 C 492.367 -1.24874 1.42137 0
M  V30 5122 O 491.71 -1.76292 0.516417 0
M  V30 5123 C 491.772 -0.197035 3.5896 0
M  V30 5124 C 491.436 1.02033 4.45464 0
M  V30 5125 C 492.433 1.92921 4.82781 0
M  V30 5126 C 490.118 1.23864 4.86788 0
M  V30 5127 C 492.112 3.03999 5.60235 0
M  V30 5128 C 489.799 2.35249 5.64004 0
M  V30 5129 C 490.797 3.25146 6.0064 0
M  V30 5130 O 490.485 4.34598 6.76299 0
M  V30 5131 H 490.217 0.0487409 0.674241 0
M  V30 5132 H 492.771 0.786915 1.89728 0
M  V30 5133 H 491.001 -0.982299 3.74016 0
M  V30 5134 H 492.69 -0.658032 4.00531 0
M  V30 5135 H 493.456 1.77265 4.51444 0
M  V30 5136 H 489.335 0.54805 4.57731 0
M  V30 5137 H 492.879 3.74192 5.8875 0
M  V30 5138 H 488.776 2.50873 5.94755 0
M  V30 5139 H 489.544 4.32808 6.94708 0
M  V30 5140 N 492.207 -1.54576 0.307264 0
M  V30 5141 C 493.623 -1.59534 -0.0459251 0
M  V30 5142 C 493.823 -1.32414 -1.51884 0
M  V30 5143 O 492.879 -1.1006 -2.27251 0
M  V30 5144 C 494.192 -2.98566 0.357649 0
M  V30 5145 C 495.74 -3.11491 0.306937 0
M  V30 5146 C 496.215 -4.52842 0.685427 0
M  V30 5147 N 497.706 -4.58782 0.638203 0
M  V30 5148 C 498.441 -5.66238 0.903458 0
M  V30 5149 N 497.937 -6.81703 1.23501 0
M  V30 5150 N 499.73 -5.55937 0.830102 0
M  V30 5151 H 491.881 -1.70464 1.26712 0
M  V30 5152 H 494.144 -0.79647 0.514139 0
M  V30 5153 H 493.85 -3.23356 1.38325 0
M  V30 5154 H 493.724 -3.76117 -0.285565 0
M  V30 5155 H 496.111 -2.86446 -0.709424 0
M  V30 5156 H 496.192 -2.36081 0.984861 0
M  V30 5157 H 495.836 -4.78618 1.69963 0
M  V30 5158 H 495.766 -5.26598 -0.0146346 0
M  V30 5159 H 498.257 -3.75849 0.393138 0
M  V30 5160 H 498.57 -7.59582 1.42322 0
M  V30 5161 H 496.915 -6.8324 1.27311 0
M  V30 5162 H 500.106 -4.64608 0.570693 0
M  V30 5163 H 500.279 -6.39597 1.04019 0
M  V30 5164 N 493.685 -0.035106 -1.57561 0
M  V30 5165 C 494.617 0.973604 -2.07494 0
M  V30 5166 C 495.63 1.28504 -0.999534 0
M  V30 5167 O 496.819 1.24864 -1.27559 0
M  V30 5168 C 493.919 2.29945 -2.48955 0
M  V30 5169 C 493.092 2.1723 -3.79644 0
M  V30 5170 C 492.151 3.328 -4.07592 0
M  V30 5171 O 491.177 3.09418 -4.77754 0
M  V30 5172 N 492.379 4.56779 -3.58236 0
M  V30 5173 H 495.144 0.547525 -2.94656 0
M  V30 5174 H 492.705 0.151515 -1.61189 0
M  V30 5175 H 494.697 3.06097 -2.64739 0
M  V30 5176 H 493.267 2.64173 -1.67126 0
M  V30 5177 H 492.487 1.25768 -3.73599 0
M  V30 5178 H 493.775 2.05945 -4.65257 0
M  V30 5179 H 493.173 4.78668 -3.01485 0
M  V30 5180 H 491.73 5.30079 -3.79288 0
M  V30 5181 N 495.163 1.55791 0.238111 0
M  V30 5182 C 496.093 1.94068 1.29846 0
M  V30 5183 C 497.074 0.806726 1.49753 0
M  V30 5184 O 498.259 1.06772 1.62214 0
M  V30 5185 C 495.389 2.24302 2.65153 0
M  V30 5186 C 494.343 3.40032 2.59927 0
M  V30 5187 C 493.669 3.55829 3.99111 0
M  V30 5188 C 494.969 4.75476 2.16148 0
M  V30 5189 H 496.663 2.82887 0.980563 0
M  V30 5190 H 494.209 1.36105 0.470253 0
M  V30 5191 H 496.162 2.4967 3.39475 0
M  V30 5192 H 494.886 1.32318 2.98596 0
M  V30 5193 H 493.545 3.14687 1.88063 0
M  V30 5194 H 493.193 2.6125 4.29834 0
M  V30 5195 H 492.893 4.3366 3.96501 0
M  V30 5196 H 494.417 3.83528 4.7512 0
M  V30 5197 H 495.831 5.00158 2.80205 0
M  V30 5198 H 494.228 5.56472 2.24631 0
M  V30 5199 H 495.298 4.71946 1.11333 0
M  V30 5200 N 496.642 -0.504142 1.49319 0
M  V30 5201 C 497.572 -1.61473 1.68667 0
M  V30 5202 C 498.553 -1.61455 0.535378 0
M  V30 5203 O 499.738 -1.78245 0.770868 0
M  V30 5204 C 496.868 -2.99971 1.75028 0
M  V30 5205 C 495.822 -3.14854 2.89916 0
M  V30 5206 C 495.148 -4.54671 2.81387 0
M  V30 5207 C 496.448 -2.95176 4.30893 0
M  V30 5208 H 498.142 -1.45535 2.61648 0
M  V30 5209 H 495.688 -0.698711 1.25913 0
M  V30 5210 H 497.641 -3.77562 1.8715 0
M  V30 5211 H 496.365 -3.1699 0.786441 0
M  V30 5212 H 495.024 -2.39687 2.77391 0
M  V30 5213 H 494.672 -4.68562 1.82917 0
M  V30 5214 H 494.372 -4.6557 3.58494 0
M  V30 5215 H 495.896 -5.34327 2.95512 0
M  V30 5216 H 497.31 -3.62538 4.44116 0
M  V30 5217 H 495.707 -3.17549 5.09198 0
M  V30 5218 H 496.777 -1.91332 4.45556 0
M  V30 5219 N 498.12 -1.38341 -0.754957 0
M  V30 5220 C 499.05 -1.38176 -1.88227 0
M  V30 5221 C 500.031 -0.247873 -1.68284 0
M  V30 5222 O 501.216 -0.45075 -1.88896 0
M  V30 5223 C 498.346 -1.20471 -3.25736 0
M  V30 5224 C 497.3 -2.3105 -3.60278 0
M  V30 5225 C 496.626 -1.98452 -4.96509 0
M  V30 5226 C 497.926 -3.73305 -3.65295 0
M  V30 5227 H 499.62 -2.32512 -1.88622 0
M  V30 5228 H 497.166 -1.1192 -0.906082 0
M  V30 5229 H 499.119 -1.18982 -4.04254 0
M  V30 5230 H 497.843 -0.225965 -3.25817 0
M  V30 5231 H 496.502 -2.31723 -2.84078 0
M  V30 5232 H 496.15 -0.990641 -4.93148 0
M  V30 5233 H 495.85 -2.7251 -5.20588 0
M  V30 5234 H 497.374 -1.98578 -5.77407 0
M  V30 5235 H 498.788 -3.7467 -4.3393 0
M  V30 5236 H 497.185 -4.46557 -4.00883 0
M  V30 5237 H 498.255 -4.05719 -2.65556 0
M  V30 5238 N 499.598 0.982988 -1.23187 0
M  V30 5239 C 500.561 2.05649 -1.01198 0
M  V30 5240 C 501.561 1.6078 0.0252464 0
M  V30 5241 O 502.751 1.72878 -0.214243 0
M  V30 5242 C 499.883 3.36744 -0.530656 0
M  V30 5243 H 501.076 2.2659 -1.96461 0
M  V30 5244 H 498.629 1.15602 -1.05195 0
M  V30 5245 H 499.364 3.21492 0.425873 0
M  V30 5246 H 499.149 3.7065 -1.2791 0
M  V30 5247 H 500.639 4.15705 -0.397366 0
M  V30 5248 N 501.076 1.04316 1.18135 0
M  V30 5249 C 502.324 0.746542 1.87806 0
M  V30 5250 C 502.645 -0.728082 1.80898 0
M  V30 5251 O 501.915 -1.52554 1.22899 0
M  V30 5252 H 500.495 0.273157 0.695265 0
M  V30 5253 H 503.157 1.32044 1.43354 0
M  V30 5254 H 502.253 1.05362 2.93778 0
M  V30 5255 N 502.554 -1.34406 0.822964 0
M  V30 5256 C 503.484 -2.32052 0.259608 0
M  V30 5257 C 504.465 -1.58243 -0.623961 0
M  V30 5258 O 505.65 -1.86224 -0.55083 0
M  V30 5259 C 502.78 -3.42434 -0.579314 0
M  V30 5260 C 501.734 -4.27499 0.20712 0
M  V30 5261 C 501.06 -5.29349 -0.754547 0
M  V30 5262 C 502.36 -5.02758 1.41533 0
M  V30 5263 H 504.054 -2.79418 1.07545 0
M  V30 5264 H 501.6 -1.34338 0.518593 0
M  V30 5265 H 503.553 -4.0976 -0.983612 0
M  V30 5266 H 502.277 -2.93717 -1.4282 0
M  V30 5267 H 500.936 -3.61776 0.592787 0
M  V30 5268 H 500.584 -4.76895 -1.59939 0
M  V30 5269 H 500.284 -5.8714 -0.232561 0
M  V30 5270 H 501.808 -5.99544 -1.1567 0
M  V30 5271 H 503.222 -5.62938 1.08504 0
M  V30 5272 H 501.619 -5.70123 1.87296 0
M  V30 5273 H 502.689 -4.32451 2.1935 0
M  V30 5274 N 504.032 -0.577932 -1.46621 0
M  V30 5275 C 504.964 0.195801 -2.28362 0
M  V30 5276 C 505.977 0.859983 -1.38232 0
M  V30 5277 O 507.166 0.730349 -1.62875 0
M  V30 5278 C 504.266 1.29639 -3.13124 0
M  V30 5279 C 503.439 0.725049 -4.31349 0
M  V30 5280 C 502.498 1.71274 -4.97546 0
M  V30 5281 O 501.524 1.25067 -5.5529 0
M  V30 5282 N 502.726 3.04672 -4.94121 0
M  V30 5283 H 505.491 -0.505468 -2.95407 0
M  V30 5284 H 503.052 -0.415381 -1.56481 0
M  V30 5285 H 505.044 1.95631 -3.54275 0
M  V30 5286 H 503.614 1.90059 -2.48186 0
M  V30 5287 H 502.834 -0.112205 -3.9404 0
M  V30 5288 H 504.122 0.323034 -5.07774 0
M  V30 5289 H 503.52 3.4484 -4.48444 0
M  V30 5290 H 502.077 3.66166 -5.39227 0
M  V30 5291 N 505.51 1.54411 -0.315457 0
M  V30 5292 C 506.458 2.25514 0.569771 0
M  V30 5293 C 507.452 1.2663 1.12522 0
M  V30 5294 O 508.658 1.44434 1.07419 0
M  V30 5295 H 505.033 0.724257 0.202376 0
M  V30 5296 H 507.004 2.98354 -0.0522895 0
M  V30 5297 C 505.753 3.02004 1.72305 0
M  V30 5298 H 505.076 3.77906 1.30488 0
M  V30 5299 H 506.516 3.55014 2.31821 0
M  V30 5300 C 504.975 2.09822 2.63583 0
M  V30 5301 O 505.505 1.67574 3.65078 0
M  V30 5302 N 503.711 1.75478 2.31637 0
M  V30 5303 H 503.258 2.10032 1.49145 0
M  V30 5304 H 503.216 1.14079 2.92973 0
M  V30 5305 N 506.988 0.0434614 1.5754 0
M  V30 5306 C 507.951 -0.918696 2.09982 0
M  V30 5307 C 508.951 -1.24488 1.01781 0
M  V30 5308 O 510.141 -1.18284 1.27885 0
M  V30 5309 C 507.273 -2.23093 2.57764 0
M  V30 5310 H 508.466 -0.464229 2.96285 0
M  V30 5311 H 506.019 -0.204818 1.54952 0
M  V30 5312 H 506.754 -2.73137 1.74832 0
M  V30 5313 H 506.539 -2.00724 3.36827 0
M  V30 5314 H 508.029 -2.92028 2.98512 0
M  V30 5315 N 508.466 -1.55915 -0.229846 0
M  V30 5316 C 509.714 -1.7819 -0.953565 0
M  V30 5317 C 510.035 -0.610504 -1.85197 0
M  V30 5318 O 509.305 0.372988 -1.92316 0
M  V30 5319 H 507.885 -0.657208 -0.355087 0
M  V30 5320 H 510.547 -1.9337 -0.243693 0
M  V30 5321 H 509.643 -2.70011 -1.56527 0
M  V30 5322 N 509.944 0.496216 -1.49584 0
M  V30 5323 C 511.36 0.827814 -1.36453 0
M  V30 5324 C 511.56 1.97464 -0.401285 0
M  V30 5325 O 510.616 2.51958 0.165296 0
M  V30 5326 C 511.929 1.16352 -2.77277 0
M  V30 5327 C 513.477 1.27145 -2.86013 0
M  V30 5328 C 513.952 1.64042 -4.27615 0
M  V30 5329 N 515.443 1.71082 -4.30448 0
M  V30 5330 C 516.178 2.01085 -5.36984 0
M  V30 5331 N 515.674 2.2928 -6.5376 0
M  V30 5332 N 517.467 2.02376 -5.24405 0
M  V30 5333 H 509.618 -0.259947 -2.10803 0
M  V30 5334 H 511.881 -0.0537163 -0.946477 0
M  V30 5335 H 511.587 0.394153 -3.49484 0
M  V30 5336 H 511.461 2.10582 -3.12946 0
M  V30 5337 H 513.848 2.03152 -2.1404 0
M  V30 5338 H 513.929 0.309542 -2.5392 0
M  V30 5339 H 513.573 0.88583 -5.00115 0
M  V30 5340 H 513.503 2.6134 -4.57175 0
M  V30 5341 H 515.994 1.51434 -3.46232 0
M  V30 5342 H 516.307 2.51376 -7.30774 0
M  V30 5343 H 514.652 2.26726 -6.56978 0
M  V30 5344 H 517.843 1.79829 -4.32179 0
M  V30 5345 H 518.016 2.25425 -6.07526 0
M  V30 5346 N 511.423 1.38739 0.74761 0
M  V30 5347 C 512.648 1.38702 1.54197 0
M  V30 5348 C 513.073 -0.019664 1.8809 0
M  V30 5349 O 512.431 -1.00333 1.51006 0
M  V30 5350 C 512.479 2.25492 2.814 0
M  V30 5351 O 511.583 1.67613 3.76802 0
M  V30 5352 H 510.924 0.472863 0.466151 0
M  V30 5353 H 513.454 1.82577 0.923413 0
M  V30 5354 H 513.464 2.39561 3.30264 0
M  V30 5355 H 512.139 3.27727 2.56062 0
M  V30 5356 H 510.716 1.62718 3.35526 0
M  V30 5357 N 512.901 -0.976442 1.23707 0
M  V30 5358 C 514.312 -1.53284 1.06587 0
M  V30 5359 C 514.663 -1.92765 -0.365526 0
M  V30 5360 O 513.788 -1.7645 -1.25277 0
M  V30 5361 C 514.383 -2.78548 1.92864 0
M  V30 5362 C 512.942 -3.30574 1.79994 0
M  V30 5363 C 512.089 -2.03538 1.88328 0
M  V30 5364 H 515.04 -0.795692 1.37311 0
M  V30 5365 H 515.061 -3.5155 1.45577 0
M  V30 5366 H 514.573 -2.49782 2.97037 0
M  V30 5367 H 512.674 -3.64211 0.786202 0
M  V30 5368 H 512.787 -4.00065 2.636 0
M  V30 5369 H 511.151 -2.17853 1.31954 0
M  V30 5370 H 511.934 -1.77149 2.94063 0
M  V30 5371 N 514.379 -1.04941 -1.1758 0
M  V30 5372 C 515.607 -0.778294 -1.91703 0
M  V30 5373 C 516.022 0.665697 -1.76675 0
M  V30 5374 O 515.379 1.45456 -1.10222 0
M  V30 5375 C 515.43 -1.14628 -3.42845 0
M  V30 5376 O 515.151 -2.53359 -3.57409 0
M  V30 5377 C 516.652 -0.900931 -4.34049 0
M  V30 5378 H 513.872 -0.283167 -0.608323 0
M  V30 5379 H 516.416 -1.39942 -1.49119 0
M  V30 5380 H 514.571 -0.569953 -3.83184 0
M  V30 5381 H 514.985 -2.67709 -4.51035 0
M  V30 5382 H 516.459 -1.20817 -5.38616 0
M  V30 5383 H 516.936 0.163966 -4.38894 0
M  V30 5384 H 517.542 -1.46097 -3.99419 0
M  V30 5385 N 515.857 1.33968 -0.830081 0
M  V30 5386 C 516.805 2.31301 -0.245435 0
M  V30 5387 C 517.799 1.57734 0.617762 0
M  V30 5388 O 519.005 1.72674 0.508303 0
M  V30 5389 H 515.38 0.749552 -0.0606316 0
M  V30 5390 H 517.351 2.78129 -1.08105 0
M  V30 5391 C 516.1 3.42961 0.572084 0
M  V30 5392 H 515.423 3.99714 -0.0828118 0
M  V30 5393 H 516.863 4.13286 0.94715 0
M  V30 5394 C 515.322 2.88043 1.74737 0
M  V30 5395 O 515.852 2.83508 2.8458 0
M  V30 5396 N 514.058 2.44768 1.56642 0
M  V30 5397 H 513.605 2.48656 0.672901 0
M  V30 5398 H 513.563 2.08375 2.3543 0
M  V30 5399 N 517.335 0.585699 1.46312 0
M  V30 5400 C 518.265 -0.133556 2.33118 0
M  V30 5401 C 519.246 -0.880707 1.45525 0
M  V30 5402 O 520.431 -0.855579 1.74337 0
M  V30 5403 C 517.561 -1.14585 3.27853 0
M  V30 5404 C 516.515 -0.513341 4.2491 0
M  V30 5405 C 515.841 -1.63231 5.09175 0
M  V30 5406 C 517.141 0.551413 5.19381 0
M  V30 5407 H 518.835 0.59121 2.93505 0
M  V30 5408 H 516.381 0.285761 1.41136 0
M  V30 5409 H 518.334 -1.65741 3.87438 0
M  V30 5410 H 517.058 -1.90093 2.65579 0
M  V30 5411 H 515.717 -0.0228349 3.66593 0
M  V30 5412 H 515.365 -2.37713 4.43285 0
M  V30 5413 H 515.065 -1.21473 5.74907 0
M  V30 5414 H 516.589 -2.14658 5.71624 0
M  V30 5415 H 518.003 0.124804 5.73164 0
M  V30 5416 H 516.4 0.889486 5.93471 0
M  V30 5417 H 517.47 1.43655 4.63132 0
M  V30 5418 N 518.813 -1.54241 0.323641 0
M  V30 5419 C 519.776 -2.22997 -0.529602 0
M  V30 5420 C 520.776 -1.22345 -1.04347 0
M  V30 5421 O 521.966 -1.46924 -0.935889 0
M  V30 5422 C 519.098 -2.93409 -1.73562 0
M  V30 5423 H 520.291 -2.99815 0.0714518 0
M  V30 5424 H 517.844 -1.56121 0.0747258 0
M  V30 5425 H 518.579 -2.20729 -2.37591 0
M  V30 5426 H 518.364 -3.67217 -1.37456 0
M  V30 5427 H 519.854 -3.45794 -2.34128 0
M  V30 5428 N 520.291 -0.0518155 -1.57515 0
M  V30 5429 C 521.238 0.922352 -2.11569 0
M  V30 5430 C 522.208 1.30842 -1.02321 0
M  V30 5431 O 523.393 1.39778 -1.29872 0
M  V30 5432 C 520.533 2.19167 -2.6657 0
M  V30 5433 C 519.646 1.86003 -3.89906 0
M  V30 5434 C 518.781 3.07398 -4.33221 0
M  V30 5435 C 517.82 2.70158 -5.49255 0
M  V30 5436 N 516.957 3.84248 -5.8762 0
M  V30 5437 H 521.797 0.454506 -2.94514 0
M  V30 5438 H 519.334 0.212718 -1.45554 0
M  V30 5439 H 521.292 2.93443 -2.96559 0
M  V30 5440 H 519.922 2.63528 -1.86421 0
M  V30 5441 H 518.974 1.01874 -3.66505 0
M  V30 5442 H 520.286 1.54592 -4.74239 0
M  V30 5443 H 519.44 3.89972 -4.64765 0
M  V30 5444 H 518.179 3.41988 -3.477 0
M  V30 5445 H 517.184 1.86001 -5.17382 0
M  V30 5446 H 518.409 2.36759 -6.36492 0
M  V30 5447 H 516.355 4.18638 -5.05053 0
M  V30 5448 H 516.272 3.56538 -6.66646 0
M  V30 5449 H 517.54 4.6746 -6.2378 0
M  V30 5450 N 521.769 1.56035 0.221574 0
M  V30 5451 C 523.015 1.79312 0.947372 0
M  V30 5452 C 523.348 0.621453 1.83988 0
M  V30 5453 O 522.623 -0.379287 1.90766 0
M  V30 5454 C 522.906 3.1267 1.78633 0
M  V30 5455 C 522.759 4.40284 0.920312 0
M  V30 5456 C 524.078 3.4247 2.7641 0
M  V30 5457 H 521.197 0.652328 0.342982 0
M  V30 5458 H 523.839 1.88765 0.216244 0
M  V30 5459 H 521.989 3.04741 2.40967 0
M  V30 5460 H 523.661 4.60232 0.313718 0
M  V30 5461 H 521.904 4.33212 0.225734 0
M  V30 5462 H 522.575 5.30033 1.54171 0
M  V30 5463 H 525.051 3.50526 2.24211 0
M  V30 5464 H 523.927 4.3695 3.32213 0
M  V30 5465 H 524.188 2.64635 3.54148 0
M  V30 5466 N 523.247 -0.488276 1.49845 0
M  V30 5467 C 524.194 -1.58836 1.67451 0
M  V30 5468 C 525.164 -1.57886 0.515857 0
M  V30 5469 O 526.349 -1.75679 0.744403 0
M  V30 5470 C 523.489 -2.96915 1.75885 0
M  V30 5471 C 522.602 -3.07784 3.03138 0
M  V30 5472 C 521.737 -4.36673 3.02473 0
M  V30 5473 C 520.776 -4.41222 4.24252 0
M  V30 5474 N 519.913 -5.61557 4.21424 0
M  V30 5475 H 524.753 -1.43131 2.61376 0
M  V30 5476 H 522.29 -0.696186 1.29583 0
M  V30 5477 H 524.248 -3.76965 1.78755 0
M  V30 5478 H 522.878 -3.11295 0.85414 0
M  V30 5479 H 521.93 -2.20717 3.09819 0
M  V30 5480 H 523.242 -3.07005 3.93128 0
M  V30 5481 H 522.396 -5.25055 3.03977 0
M  V30 5482 H 521.135 -4.40037 2.10283 0
M  V30 5483 H 520.14 -3.5124 4.22978 0
M  V30 5484 H 521.365 -4.39564 5.17649 0
M  V30 5485 H 519.311 -5.65738 3.32078 0
M  V30 5486 H 519.228 -5.62447 5.05163 0
M  V30 5487 H 520.496 -6.52111 4.2705 0
M  V30 5488 N 524.725 -1.39134 -0.740242 0
M  V30 5489 C 525.973 -1.35803 -1.49673 0
M  V30 5490 C 526.294 0.0470897 -1.94943 0
M  V30 5491 O 525.564 0.997347 -1.68611 0
M  V30 5492 H 524.144 -0.499736 -0.555224 0
M  V30 5493 H 526.806 -1.73947 -0.879107 0
M  V30 5494 H 525.902 -2.0174 -2.38133 0
M  V30 5495 N 526.204 0.969867 -1.24223 0
M  V30 5496 C 527.453 1.70687 -1.07466 0
M  V30 5497 C 527.766 1.91736 0.386861 0
M  V30 5498 O 528.972 2.62986 0.674581 0
M  V30 5499 C 527.428 3.07217 -1.87472 0
M  V30 5500 C 527.036 2.94018 -3.3802 0
M  V30 5501 C 528.78 3.84804 -1.79237 0
M  V30 5502 C 526.687 4.25844 -4.10379 0
M  V30 5503 H 525.617 0.640067 -0.398536 0
M  V30 5504 H 528.268 1.08092 -1.48285 0
M  V30 5505 H 526.65 3.70628 -1.39466 0
M  V30 5506 H 527.824 2.39632 -3.9359 0
M  V30 5507 H 526.139 2.29898 -3.47183 0
M  V30 5508 H 528.736 4.82417 -2.30603 0
M  V30 5509 H 529.079 4.09356 -0.757197 0
M  V30 5510 H 529.612 3.28115 -2.24912 0
M  V30 5511 H 526.351 4.06486 -5.14246 0
M  V30 5512 H 525.871 4.80054 -3.59594 0
M  V30 5513 H 527.55 4.94475 -4.17257 0
M  V30 5514 N 527.682 1.05563 1.17022 0
M  V30 5515 C 528.91 0.78845 1.91288 0
M  V30 5516 C 529.325 -0.656318 1.77025 0
M  V30 5517 O 528.682 -1.44869 1.10992 0
M  V30 5518 C 528.733 1.16444 3.42232 0
M  V30 5519 O 528.454 2.5525 3.5606 0
M  V30 5520 C 529.955 0.923937 4.33565 0
M  V30 5521 H 527.175 0.286389 0.606813 0
M  V30 5522 H 529.719 1.4073 1.48375 0
M  V30 5523 H 527.874 0.590266 3.82877 0
M  V30 5524 H 528.288 2.70097 4.49609 0
M  V30 5525 H 529.762 1.23672 5.37968 0
M  V30 5526 H 530.239 -0.140688 4.38975 0
M  V30 5527 H 530.845 1.48214 3.98639 0
M  V30 5528 N 529.16 -1.33526 0.837174 0
M  V30 5529 C 530.092 -2.28077 0.226579 0
M  V30 5530 C 531.105 -1.51666 -0.591717 0
M  V30 5531 O 532.294 -1.73511 -0.419064 0
M  V30 5532 C 529.394 -3.31597 -0.69978 0
M  V30 5533 C 528.567 -4.37329 0.0788067 0
M  V30 5534 C 527.626 -5.20526 -0.770637 0
M  V30 5535 O 526.652 -5.68811 -0.210453 0
M  V30 5536 N 527.854 -5.41639 -2.08825 0
M  V30 5537 H 530.619 -2.81115 1.03897 0
M  V30 5538 H 528.18 -1.46201 0.695476 0
M  V30 5539 H 530.172 -3.84158 -1.27298 0
M  V30 5540 H 528.742 -2.78848 -1.41288 0
M  V30 5541 H 527.962 -3.8529 0.833381 0
M  V30 5542 H 529.25 -5.05079 0.614238 0
M  V30 5543 H 528.648 -5.04108 -2.56693 0
M  V30 5544 H 527.205 -5.97263 -2.60998 0
M  V30 5545 N 530.638 -0.59345 -1.46 0
M  V30 5546 C 531.886 -0.082988 -2.0193 0
M  V30 5547 C 532.207 1.28569 -1.46612 0
M  V30 5548 O 531.477 1.84629 -0.654909 0
M  V30 5549 H 530.057 -0.0276882 -0.746487 0
M  V30 5550 H 532.719 -0.771657 -1.78973 0
M  V30 5551 H 531.815 -0.022079 -3.12092 0
M  V30 5552 N 532.116 1.54067 -0.331816 0
M  V30 5553 C 533.527 1.86059 0.15454 0
M  V30 5554 C 533.878 1.25331 1.50952 0
M  V30 5555 O 533.003 0.562441 2.08963 0
M  V30 5556 C 533.598 3.37581 0.287192 0
M  V30 5557 C 532.157 3.69493 0.717773 0
M  V30 5558 C 531.304 2.76863 -0.155569 0
M  V30 5559 H 534.255 1.48797 -0.55182 0
M  V30 5560 H 534.276 3.63744 1.11671 0
M  V30 5561 H 533.788 3.81751 -0.699131 0
M  V30 5562 H 531.889 3.3086 1.71354 0
M  V30 5563 H 532.002 4.76315 0.5158 0
M  V30 5564 H 530.366 2.51995 0.370213 0
M  V30 5565 H 531.149 3.23861 -1.13881 0
M  V30 5566 N 533.594 0.0601682 1.57485 0
M  V30 5567 C 534.542 -0.928899 2.13247 0
M  V30 5568 C 535.536 -1.31616 1.06647 0
M  V30 5569 O 536.742 -1.29476 1.25043 0
M  V30 5570 H 533.117 -0.317455 0.681708 0
M  V30 5571 H 535.088 -0.433566 2.95233 0
M  V30 5572 C 533.837 -2.19121 2.69965 0
M  V30 5573 H 533.16 -1.90204 3.51657 0
M  V30 5574 H 534.6 -2.86465 3.12592 0
M  V30 5575 C 533.059 -2.94195 1.64168 0
M  V30 5576 O 533.589 -3.87468 1.05978 0
M  V30 5577 N 531.795 -2.57089 1.35476 0
M  V30 5578 H 531.342 -1.81314 1.82984 0
M  V30 5579 H 531.3 -3.07624 0.649196 0
M  V30 5580 N 535.072 -1.5615 -0.213296 0
M  V30 5581 C 535.982 -1.96265 -1.28519 0
M  V30 5582 C 536.998 -0.86765 -1.50824 0
M  V30 5583 O 538.174 -1.17191 -1.63793 0
M  V30 5584 C 535.239 -2.27836 -2.61327 0
M  V30 5585 C 534.3 -3.50949 -2.47252 0
M  V30 5586 C 533.533 -3.81004 -3.73727 0
M  V30 5587 O 533.756 -3.12612 -4.77106 0
M  V30 5588 O 532.69 -4.74477 -3.70344 0
M  V30 5589 H 536.516 -2.87631 -0.974795 0
M  V30 5590 H 534.101 -1.43467 -0.416832 0
M  V30 5591 H 535.983 -2.49299 -3.39747 0
M  V30 5592 H 534.658 -1.39643 -2.9203 0
M  V30 5593 H 533.565 -3.34754 -1.67004 0
M  V30 5594 H 534.898 -4.39551 -2.21486 0
M  V30 5595 N 536.55 0.480323 -1.50102 0
M  V30 5596 C 537.775 1.26126 -1.64642 0
M  V30 5597 C 538.2 1.85257 -0.325823 0
M  V30 5598 O 537.558 1.66854 0.709194 0
M  V30 5599 C 537.606 2.35243 -2.73301 0
M  V30 5600 O 536.71 3.39646 -2.33911 0
M  V30 5601 H 536.051 0.371463 -0.550374 0
M  V30 5602 H 538.581 0.572696 -1.96421 0
M  V30 5603 H 538.591 2.80695 -2.96098 0
M  V30 5604 H 537.266 1.91574 -3.6915 0
M  V30 5605 H 535.843 2.99969 -2.21525 0
M  V30 5606 N 538.028 1.39524 0.732853 0
M  V30 5607 C 539.439 1.32905 1.31122 0
M  V30 5608 C 539.79 -0.00558708 1.96199 0
M  V30 5609 O 538.915 -0.907706 1.96443 0
M  V30 5610 C 539.51 2.40704 2.38426 0
M  V30 5611 C 538.069 2.37599 2.91931 0
M  V30 5612 C 537.216 2.2248 1.65523 0
M  V30 5613 H 540.167 1.49581 0.530207 0
M  V30 5614 H 540.188 2.07616 3.18867 0
M  V30 5615 H 539.7 3.37829 1.91033 0
M  V30 5616 H 537.801 1.44119 3.43599 0
M  V30 5617 H 537.914 3.32538 3.44899 0
M  V30 5618 H 536.278 1.69691 1.8994 0
M  V30 5619 H 537.061 3.21577 1.20178 0
M  V30 5620 N 539.506 -0.963266 1.24736 0
M  V30 5621 C 540.731 -1.74699 1.11781 0
M  V30 5622 C 541.156 -1.85267 -0.325258 0
M  V30 5623 O 540.514 -1.32681 -1.23553 0
M  V30 5624 C 540.562 -3.14322 1.76731 0
M  V30 5625 O 539.666 -3.99043 1.04109 0
M  V30 5626 H 539.007 -0.53684 0.390767 0
M  V30 5627 H 541.537 -1.20801 1.65131 0
M  V30 5628 H 541.547 -3.64824 1.82668 0
M  V30 5629 H 540.222 -3.05946 2.81726 0
M  V30 5630 H 538.799 -3.5752 1.05991 0
M  V30 5631 N 540.985 -1.06182 -1.16461 0
M  V30 5632 C 541.948 -0.675723 -2.19013 0
M  V30 5633 C 542.948 0.277963 -1.58379 0
M  V30 5634 O 544.138 0.0604962 -1.74095 0
M  V30 5635 C 541.27 0.00591459 -3.40899 0
M  V30 5636 H 542.463 -1.58353 -2.54685 0
M  V30 5637 H 540.016 -0.856908 -1.30716 0
M  V30 5638 H 540.751 0.92652 -3.10783 0
M  V30 5639 H 540.536 -0.67984 -3.86161 0
M  V30 5640 H 542.026 0.26181 -4.16778 0
M  V30 5641 N 542.463 1.3308 -0.844243 0
M  V30 5642 C 543.71 1.97605 -0.44255 0
M  V30 5643 C 544.038 1.66856 0.999458 0
M  V30 5644 O 543.293 0.943586 1.7145 0
M  V30 5645 C 543.592 3.52045 -0.616354 0
M  V30 5646 C 543.258 4.02757 -2.02726 0
M  V30 5647 C 541.92 4.16316 -2.41317 0
M  V30 5648 C 544.272 4.29776 -2.9486 0
M  V30 5649 C 541.6 4.54232 -3.71335 0
M  V30 5650 C 543.952 4.69146 -4.24364 0
M  V30 5651 C 542.616 4.80911 -4.62904 0
M  V30 5652 H 541.886 0.723088 -0.161941 0
M  V30 5653 H 544.533 1.58663 -1.0723 0
M  V30 5654 H 542.838 3.91681 0.0966812 0
M  V30 5655 H 544.535 3.99981 -0.285756 0
M  V30 5656 H 541.125 3.9268 -1.71756 0
M  V30 5657 H 545.309 4.18818 -2.6628 0
M  V30 5658 H 540.565 4.61535 -4.00993 0
M  V30 5659 H 544.739 4.89008 -4.95827 0
M  V30 5660 H 542.366 5.10048 -5.63698 0
M  V30 5661 N 543.941 0.601185 1.45683 0
M  V30 5662 C 544.871 -0.108824 2.33246 0
M  V30 5663 C 545.852 -0.865223 1.46451 0
M  V30 5664 O 547.037 -0.83704 1.75235 0
M  V30 5665 C 544.167 -1.11101 3.2905 0
M  V30 5666 C 543.121 -0.468244 4.25431 0
M  V30 5667 C 542.447 -1.57822 5.10878 0
M  V30 5668 C 543.747 0.606469 5.18767 0
M  V30 5669 H 545.441 0.622306 2.92861 0
M  V30 5670 H 542.987 0.300714 1.40825 0
M  V30 5671 H 544.94 -1.61622 3.89174 0
M  V30 5672 H 543.664 -1.87265 2.67581 0
M  V30 5673 H 542.323 0.0160484 3.66596 0
M  V30 5674 H 541.971 -2.32998 4.45781 0
M  V30 5675 H 541.671 -1.15369 5.76163 0
M  V30 5676 H 543.195 -2.08583 5.73869 0
M  V30 5677 H 544.609 0.185589 5.73 0
M  V30 5678 H 543.006 0.952381 5.92494 0
M  V30 5679 H 544.076 1.48559 4.61582 0
M  V30 5680 N 545.419 -1.53889 0.339982 0
M  V30 5681 C 546.329 -2.28604 -0.526988 0
M  V30 5682 C 547.345 -1.33578 -1.11503 0
M  V30 5683 O 548.521 -1.66612 -1.13148 0
M  V30 5684 C 545.586 -3.04164 -1.66389 0
M  V30 5685 C 544.647 -4.14809 -1.10599 0
M  V30 5686 C 543.88 -4.86756 -2.18871 0
M  V30 5687 O 544.103 -4.58343 -3.39526 0
M  V30 5688 O 543.037 -5.73289 -1.83366 0
M  V30 5689 H 546.863 -3.03594 0.0802707 0
M  V30 5690 H 544.448 -1.4903 0.105141 0
M  V30 5691 H 546.33 -3.51427 -2.32544 0
M  V30 5692 H 545.005 -2.32035 -2.25703 0
M  V30 5693 H 543.912 -3.71857 -0.409067 0
M  V30 5694 H 545.245 -4.89029 -0.557771 0
M  V30 5695 N 546.897 -0.0685191 -1.57451 0
M  V30 5696 C 548.313 0.288101 -1.56978 0
M  V30 5697 C 548.513 1.70262 -1.07765 0
M  V30 5698 O 547.569 2.4135 -0.742054 0
M  V30 5699 C 548.882 0.100745 -3.00531 0
M  V30 5700 C 550.43 0.170531 -3.12535 0
M  V30 5701 C 550.905 0.0114944 -4.57999 0
M  V30 5702 N 552.396 0.0672065 -4.63151 0
M  V30 5703 C 553.131 -0.0314813 -5.73391 0
M  V30 5704 N 552.627 -0.183503 -6.92557 0
M  V30 5705 N 554.42 0.0253489 -5.62094 0
M  V30 5706 H 546.571 -0.993026 -1.87757 0
M  V30 5707 H 548.834 -0.386981 -0.865419 0
M  V30 5708 H 548.54 -0.875197 -3.40636 0
M  V30 5709 H 548.414 0.854457 -3.67395 0
M  V30 5710 H 550.801 1.13696 -2.72318 0
M  V30 5711 H 550.882 -0.614229 -2.48316 0
M  V30 5712 H 550.526 -0.951684 -4.98904 0
M  V30 5713 H 550.456 0.815617 -5.20245 0
M  V30 5714 H 552.947 0.183246 -3.77455 0
M  V30 5715 H 553.26 -0.251041 -7.72392 0
M  V30 5716 H 551.605 -0.218822 -6.94655 0
M  V30 5717 H 554.796 0.142794 -4.67882 0
M  V30 5718 H 554.969 -0.0550166 -6.47977 0
M  V30 5719 N 548.375 1.56261 0.205012 0
M  V30 5720 C 549.305 1.96779 1.257 0
M  V30 5721 C 550.286 0.838309 1.48008 0
M  V30 5722 O 551.471 1.10189 1.59913 0
M  V30 5723 C 548.601 2.29876 2.60335 0
M  V30 5724 C 547.555 3.45469 2.52656 0
M  V30 5725 C 546.881 3.64215 3.91473 0
M  V30 5726 C 548.181 4.79954 2.06014 0
M  V30 5727 H 549.875 2.84904 0.920338 0
M  V30 5728 H 547.421 1.37072 0.441277 0
M  V30 5729 H 549.374 2.56814 3.34102 0
M  V30 5730 H 548.098 1.38622 2.95722 0
M  V30 5731 H 546.757 3.18605 1.81345 0
M  V30 5732 H 546.405 2.70309 4.24196 0
M  V30 5733 H 546.105 4.41973 3.87213 0
M  V30 5734 H 547.629 3.93519 4.66878 0
M  V30 5735 H 549.043 5.05989 2.69533 0
M  V30 5736 H 547.44 5.61111 2.12777 0
M  V30 5737 H 548.51 4.74201 1.01297 0
M  V30 5738 N 549.853 -0.472356 1.50355 0
M  V30 5739 C 550.8 -1.57051 1.69126 0
M  V30 5740 C 551.77 -1.5733 0.532574 0
M  V30 5741 O 552.955 -1.7488 0.762994 0
M  V30 5742 C 550.095 -2.95033 1.79024 0
M  V30 5743 C 549.208 -3.04552 3.06386 0
M  V30 5744 C 548.343 -4.33441 3.07087 0
M  V30 5745 C 547.382 -4.36697 4.28908 0
M  V30 5746 N 546.519 -5.57056 4.27356 0
M  V30 5747 H 551.359 -1.40351 2.62879 0
M  V30 5748 H 548.896 -0.682403 1.30314 0
M  V30 5749 H 550.854 -3.75048 1.82744 0
M  V30 5750 H 549.484 -3.10371 0.887109 0
M  V30 5751 H 548.536 -2.17419 3.12143 0
M  V30 5752 H 549.848 -3.02818 3.96362 0
M  V30 5753 H 549.002 -5.21801 3.09529 0
M  V30 5754 H 547.741 -4.37782 2.14939 0
M  V30 5755 H 546.746 -3.46734 4.2668 0
M  V30 5756 H 547.971 -4.34049 5.22282 0
M  V30 5757 H 545.917 -5.62184 3.3806 0
M  V30 5758 H 545.834 -5.57058 5.111 0
M  V30 5759 H 547.102 -6.47545 4.33942 0
M  V30 5760 N 551.331 -1.39911 -0.725443 0
M  V30 5761 C 552.241 -1.41688 -1.8698 0
M  V30 5762 C 553.257 -0.310579 -1.71206 0
M  V30 5763 O 554.433 -0.55359 -1.93642 0
M  V30 5764 C 551.498 -1.26811 -3.22676 0
M  V30 5765 C 550.559 -2.47497 -3.50776 0
M  V30 5766 C 549.792 -2.3332 -4.79997 0
M  V30 5767 O 550.015 -1.34175 -5.54394 0
M  V30 5768 O 548.949 -3.22498 -5.08211 0
M  V30 5769 H 552.775 -2.38171 -1.88436 0
M  V30 5770 H 550.36 -1.21128 -0.874548 0
M  V30 5771 H 552.242 -1.20684 -4.03749 0
M  V30 5772 H 550.917 -0.334289 -3.21969 0
M  V30 5773 H 549.824 -2.59201 -2.69751 0
M  V30 5774 H 551.157 -3.39606 -3.5627 0
M  V30 5775 N 552.809 0.956637 -1.25245 0
M  V30 5776 C 553.772 2.03457 -1.05537 0
M  V30 5777 C 554.772 1.60798 -0.00886317 0
M  V30 5778 O 555.962 1.72384 -0.250865 0
M  V30 5779 C 553.094 3.35543 -0.601965 0
M  V30 5780 H 554.287 2.22372 -2.01223 0
M  V30 5781 H 551.84 1.13344 -1.07623 0
M  V30 5782 H 552.575 3.22323 0.357584 0
M  V30 5783 H 552.36 3.67854 -1.35743 0
M  V30 5784 H 553.85 4.14769 -0.485454 0
M  V30 5785 N 554.287 1.06798 1.15896 0
M  V30 5786 C 555.517 0.807522 1.90165 0
M  V30 5787 C 555.925 -0.642417 1.7796 0
M  V30 5788 O 555.268 -1.45193 1.12537 0
M  V30 5789 C 555.33 1.12939 3.41299 0
M  V30 5790 C 554.994 2.57879 3.7729 0
M  V30 5791 C 555.991 3.56118 3.78782 0
M  V30 5792 C 553.676 2.93311 4.07767 0
M  V30 5793 C 555.67 4.87827 4.10248 0
M  V30 5794 C 553.357 4.25219 4.38899 0
M  V30 5795 C 554.355 5.22287 4.4012 0
M  V30 5796 O 554.043 6.51826 4.70508 0
M  V30 5797 H 553.775 0.291946 0.609708 0
M  V30 5798 H 556.329 1.42627 1.47806 0
M  V30 5799 H 554.559 0.45359 3.84031 0
M  V30 5800 H 556.248 0.852363 3.9685 0
M  V30 5801 H 557.014 3.30086 3.55342 0
M  V30 5802 H 552.893 2.18409 4.05979 0
M  V30 5803 H 556.437 5.63586 4.11116 0
M  V30 5804 H 552.334 4.51006 4.61805 0
M  V30 5805 H 553.102 6.56893 4.88298 0
M  V30 5806 N 555.766 -1.3263 0.851289 0
M  V30 5807 C 557.182 -1.50162 0.5407 0
M  V30 5808 C 557.382 -1.78788 -0.929369 0
M  V30 5809 O 556.438 -1.85545 -1.71258 0
M  V30 5810 C 557.751 -2.64803 1.42478 0
M  V30 5811 C 559.299 -2.78688 1.42485 0
M  V30 5812 C 559.774 -3.96405 2.29407 0
M  V30 5813 N 561.265 -4.0366 2.27184 0
M  V30 5814 C 562 -4.93971 2.9117 0
M  V30 5815 N 561.496 -5.89313 3.64256 0
M  V30 5816 N 563.289 -4.87066 2.80576 0
M  V30 5817 H 555.44 -1.12315 1.80275 0
M  V30 5818 H 557.703 -0.553266 0.769806 0
M  V30 5819 H 557.409 -2.50368 2.46999 0
M  V30 5820 H 557.283 -3.60506 1.10974 0
M  V30 5821 H 559.67 -2.92547 0.387304 0
M  V30 5822 H 559.751 -1.83708 1.78002 0
M  V30 5823 H 559.395 -3.83304 3.33228 0
M  V30 5824 H 559.325 -4.90654 1.91224 0
M  V30 5825 H 561.816 -3.35435 1.74045 0
M  V30 5826 H 562.129 -6.54913 4.10255 0
M  V30 5827 H 560.474 -5.8935 3.68364 0
M  V30 5828 H 563.665 -4.11552 2.23031 0
M  V30 5829 H 563.838 -5.57248 3.30725 0
M  V30 5830 N 557.244 -0.608902 -1.45362 0
M  V30 5831 C 558.66 -0.272659 -1.57254 0
M  V30 5832 C 558.86 1.22477 -1.60005 0
M  V30 5833 O 557.916 2.00785 -1.53106 0
M  V30 5834 C 559.229 -0.944991 -2.85465 0
M  V30 5835 C 560.777 -0.921033 -2.99142 0
M  V30 5836 C 561.252 -1.5734 -4.30126 0
M  V30 5837 N 562.743 -1.53895 -4.36887 0
M  V30 5838 C 563.478 -2.01286 -5.36909 0
M  V30 5839 N 562.974 -2.56768 -6.43461 0
M  V30 5840 N 564.767 -1.92046 -5.28275 0
M  V30 5841 H 556.918 -1.58117 -1.4182 0
M  V30 5842 H 559.181 -0.662437 -0.678146 0
M  V30 5843 H 558.887 -1.99941 -2.89338 0
M  V30 5844 H 558.761 -0.469079 -3.74272 0
M  V30 5845 H 561.148 0.124846 -2.94836 0
M  V30 5846 H 561.229 -1.43522 -2.11743 0
M  V30 5847 H 560.873 -2.61862 -4.35191 0
M  V30 5848 H 560.803 -1.03422 -5.16344 0
M  V30 5849 H 563.294 -1.13366 -3.60495 0
M  V30 5850 H 563.607 -2.9072 -7.16032 0
M  V30 5851 H 561.952 -2.60808 -6.44208 0
M  V30 5852 H 565.143 -1.48439 -4.43941 0
M  V30 5853 H 565.316 -2.29293 -6.06077 0
M  V30 5854 N 558.722 1.53707 -0.348139 0
M  V30 5855 C 559.952 2.05108 0.247864 0
M  V30 5856 C 560.36 1.22252 1.44399 0
M  V30 5857 O 559.703 0.251853 1.81965 0
M  V30 5858 C 559.765 3.52171 0.722187 0
M  V30 5859 C 559.429 4.5562 -0.354902 0
M  V30 5860 C 560.426 5.05883 -1.19911 0
M  V30 5861 C 558.111 4.99703 -0.510145 0
M  V30 5862 C 560.105 5.98814 -2.18406 0
M  V30 5863 C 557.792 5.92443 -1.49848 0
M  V30 5864 C 558.79 6.41887 -2.33389 0
M  V30 5865 O 558.478 7.32802 -3.3054 0
M  V30 5866 H 558.21 0.674086 0.0508296 0
M  V30 5867 H 560.764 1.99229 -0.49968 0
M  V30 5868 H 558.994 3.55529 1.52105 0
M  V30 5869 H 560.683 3.8652 1.23925 0
M  V30 5870 H 561.449 4.72586 -1.09028 0
M  V30 5871 H 557.328 4.60816 0.130274 0
M  V30 5872 H 560.872 6.3733 -2.83649 0
M  V30 5873 H 556.769 6.25155 -1.60786 0
M  V30 5874 H 557.537 7.50749 -3.26064 0
M  V30 5875 N 560.2 0.0768682 1.57412 0
M  V30 5876 C 561.428 -0.59997 1.9801 0
M  V30 5877 C 561.843 -1.62842 0.955408 0
M  V30 5878 O 561.2 -1.8241 -0.057314 0
M  V30 5879 C 561.251 -1.26401 3.38681 0
M  V30 5880 O 560.972 -0.276723 4.37225 0
M  V30 5881 C 562.473 -2.0282 3.94182 0
M  V30 5882 H 559.693 -0.162239 0.651091 0
M  V30 5883 H 562.237 0.150771 2.03943 0
M  V30 5884 H 560.392 -1.96581 3.33819 0
M  V30 5885 H 560.806 -0.753744 5.19056 0
M  V30 5886 H 562.28 -2.44667 4.94815 0
M  V30 5887 H 562.757 -2.88678 3.31001 0
M  V30 5888 H 563.363 -1.37496 4.02461 0
M  V30 5889 N 561.678 -1.56367 -0.196722 0
M  V30 5890 C 563.089 -1.70462 -0.761545 0
M  V30 5891 C 563.44 -0.683161 -1.83922 0
M  V30 5892 O 562.565 0.160753 -2.15802 0
M  V30 5893 C 563.16 -3.09057 -1.38814 0
M  V30 5894 C 561.719 -3.24922 -1.90007 0
M  V30 5895 C 560.866 -2.66412 -0.769399 0
M  V30 5896 H 563.817 -1.58675 0.0283263 0
M  V30 5897 H 563.838 -3.06296 -2.2575 0
M  V30 5898 H 563.35 -3.83378 -0.603559 0
M  V30 5899 H 561.451 -2.55514 -2.71189 0
M  V30 5900 H 561.564 -4.3241 -2.06297 0
M  V30 5901 H 559.928 -2.25546 -1.18326 0
M  V30 5902 H 560.711 -3.433 0.00291773 0
M  V30 5903 N 563.156 0.464375 -1.50603 0
M  V30 5904 C 564.386 1.23727 -1.65454 0
M  V30 5905 C 564.794 1.86119 -0.340032 0
M  V30 5906 O 564.137 1.70301 0.688706 0
M  V30 5907 C 564.199 2.38153 -2.69301 0
M  V30 5908 C 563.863 1.96345 -4.12671 0
M  V30 5909 C 564.86 1.48215 -4.98326 0
M  V30 5910 C 562.545 2.04861 -4.58625 0
M  V30 5911 C 564.539 1.09152 -6.27985 0
M  V30 5912 C 562.226 1.65409 -5.88288 0
M  V30 5913 C 563.224 1.17634 -6.72794 0
M  V30 5914 O 562.912 0.787312 -8.00035 0
M  V30 5915 H 562.644 0.380075 -0.559034 0
M  V30 5916 H 565.198 0.559919 -1.97621 0
M  V30 5917 H 563.428 3.09081 -2.32392 0
M  V30 5918 H 565.117 3.00099 -2.73304 0
M  V30 5919 H 565.883 1.41052 -4.64036 0
M  V30 5920 H 561.762 2.40996 -3.92991 0
M  V30 5921 H 565.306 0.717909 -6.93896 0
M  V30 5922 H 561.203 1.72233 -6.22098 0
M  V30 5923 H 561.971 0.915567 -8.13363 0
M  V30 5924 N 564.634 1.40294 0.718013 0
M  V30 5925 C 565.911 1.2894 1.47084 0
M  V30 5926 C 566.291 -0.0933625 2.10893 0
M  V30 5927 O 565.639 -1.10598 1.99951 0
M  V30 5928 C 565.849 2.4264 2.50852 0
M  V30 5929 C 567.197 2.8276 3.16752 0
M  V30 5930 O 568.221 2.42215 2.61171 0
M  V30 5931 O 567.08 3.528 4.17366 0
M  V30 5932 H 564.174 0.506236 0.653952 0
M  V30 5933 H 566.72 1.52208 0.750394 0
M  V30 5934 H 565.492 3.35009 2.022 0
M  V30 5935 H 565.115 2.21129 3.30435 0
M  V30 5936 N 566.112 -0.949982 1.2575 0
M  V30 5937 C 567.523 -1.50989 1.09815 0
M  V30 5938 C 567.874 -1.93497 -0.324556 0
M  V30 5939 O 566.999 -1.79068 -1.21506 0
M  V30 5940 C 567.594 -2.74394 1.98729 0
M  V30 5941 C 566.153 -3.26682 1.86965 0
M  V30 5942 C 565.3 -1.99498 1.92603 0
M  V30 5943 H 568.251 -0.766387 1.38968 0
M  V30 5944 H 568.272 -3.48383 1.53001 0
M  V30 5945 H 567.784 -2.43425 3.02268 0
M  V30 5946 H 565.885 -3.62461 0.863279 0
M  V30 5947 H 565.998 -3.94383 2.72027 0
M  V30 5948 H 564.362 -2.15005 1.36546 0
M  V30 5949 H 565.145 -1.70871 2.97755 0
M  V30 5950 N 567.59 -1.07411 -1.15328 0
M  V30 5951 C 568.5 -0.706438 -2.23711 0
M  V30 5952 C 569.516 0.282586 -1.7169 0
M  V30 5953 O 570.692 0.129066 -2.00986 0
M  V30 5954 C 567.757 -0.11048 -3.46524 0
M  V30 5955 C 566.818 -1.15282 -4.13532 0
M  V30 5956 C 566.051 -0.585205 -5.30482 0
M  V30 5957 O 566.274 0.598549 -5.67251 0
M  V30 5958 O 565.208 -1.33039 -5.87013 0
M  V30 5959 H 569.034 -1.61031 -2.57493 0
M  V30 5960 H 566.619 -0.847113 -1.23062 0
M  V30 5961 H 568.501 0.21957 -4.20828 0
M  V30 5962 H 567.176 0.766703 -3.14489 0
M  V30 5963 H 566.083 -1.53523 -3.41147 0
M  V30 5964 H 567.416 -2.00192 -4.49649 0
M  V30 5965 N 569.068 1.32177 -0.85831 0
M  V30 5966 C 570.345 1.91781 -0.384624 0
M  V30 5967 C 570.725 1.78171 1.13217 0
M  V30 5968 O 570.073 1.18209 1.95548 0
M  V30 5969 C 570.283 3.38414 -0.853047 0
M  V30 5970 C 571.631 4.15542 -0.872359 0
M  V30 5971 O 572.655 3.47148 -0.797926 0
M  V30 5972 O 571.514 5.37678 -0.978009 0
M  V30 5973 H 568.608 0.819259 -0.112886 0
M  V30 5974 H 571.154 1.40923 -0.945453 0
M  V30 5975 H 569.926 3.4228 -1.89632 0
M  V30 5976 H 569.549 3.96683 -0.269874 0
M  V30 5977 N 570.547 0.616602 1.45037 0
M  V30 5978 C 571.958 0.199359 1.85633 0
M  V30 5979 C 572.309 -1.24588 1.51566 0
M  V30 5980 O 571.434 -1.94594 0.94668 0
M  V30 5981 C 572.029 0.355033 3.36935 0
M  V30 5982 C 570.588 -0.00758748 3.76399 0
M  V30 5983 C 569.735 0.675256 2.68953 0
M  V30 5984 H 572.686 0.822708 1.3571 0
M  V30 5985 H 572.707 -0.410201 3.78282 0
M  V30 5986 H 572.219 1.40699 3.61698 0
M  V30 5987 H 570.32 -1.05837 3.57252 0
M  V30 5988 H 570.433 0.392346 4.77491 0
M  V30 5989 H 568.797 0.111992 2.54454 0
M  V30 5990 H 569.58 1.72952 2.96551 0
M  V30 5991 N 572.025 -1.5352 0.356285 0
M  V30 5992 C 573.273 -2.00719 -0.235837 0
M  V30 5993 C 573.594 -1.24551 -1.5004 0
M  V30 5994 O 572.864 -0.356185 -1.92635 0
M  V30 5995 H 571.444 -0.741542 -0.0901366 0
M  V30 5996 H 574.106 -1.88887 0.480378 0
M  V30 5997 H 573.202 -3.08551 -0.469357 0
M  V30 5998 N 573.503 -0.0852151 -1.57369 0
M  V30 5999 C 574.435 0.907099 -2.10486 0
M  V30 6000 C 575.448 1.25259 -1.03991 0
M  V30 6001 O 576.637 1.20743 -1.31467 0
M  V30 6002 C 573.737 2.21908 -2.56145 0
M  V30 6003 C 572.91 2.05042 -3.86363 0
M  V30 6004 C 571.969 3.19664 -4.17973 0
M  V30 6005 O 570.995 2.94062 -4.87356 0
M  V30 6006 N 572.197 4.45151 -3.72587 0
M  V30 6007 H 574.962 0.453505 -2.96249 0
M  V30 6008 H 572.523 0.100157 -1.6159 0
M  V30 6009 H 574.515 2.97519 -2.74343 0
M  V30 6010 H 573.085 2.58723 -1.75446 0
M  V30 6011 H 572.305 1.13819 -3.77411 0
M  V30 6012 H 573.593 1.91039 -4.71574 0
M  V30 6013 H 572.991 4.68834 -3.16561 0
M  V30 6014 H 571.548 5.17744 -3.9596 0
M  V30 6015 N 574.981 1.5647 0.188427 0
M  V30 6016 C 575.891 1.98285 1.2538 0
M  V30 6017 C 576.907 0.891535 1.49424 0
M  V30 6018 O 578.083 1.19782 1.61908 0
M  V30 6019 C 575.148 2.31965 2.57669 0
M  V30 6020 C 574.209 3.54838 2.41638 0
M  V30 6021 C 573.442 3.86901 3.67618 0
M  V30 6022 O 573.665 3.20163 4.72072 0
M  V30 6023 O 572.599 4.80309 3.62749 0
M  V30 6024 H 576.425 2.89145 0.928912 0
M  V30 6025 H 574.01 1.44112 0.393955 0
M  V30 6026 H 575.892 2.54673 3.35737 0
M  V30 6027 H 574.567 1.44271 2.89771 0
M  V30 6028 H 573.474 3.37369 1.61658 0
M  V30 6029 H 574.807 4.43019 2.14465 0
M  V30 6030 N 576.459 -0.456382 1.50847 0
M  V30 6031 C 577.687 -1.23026 1.66349 0
M  V30 6032 C 578.102 -1.85473 0.352868 0
M  V30 6033 O 577.459 -1.69885 -0.666739 0
M  V30 6034 C 577.51 -2.32827 2.76539 0
M  V30 6035 O 577.231 -1.72938 4.02522 0
M  V30 6036 C 578.732 -3.23448 3.03144 0
M  V30 6037 H 575.952 -0.371527 0.558756 0
M  V30 6038 H 578.496 -0.543082 1.97157 0
M  V30 6039 H 576.651 -2.97294 2.48384 0
M  V30 6040 H 577.065 -2.45357 4.63573 0
M  V30 6041 H 578.539 -3.96669 3.83872 0
M  V30 6042 H 579.016 -3.83094 2.14793 0
M  V30 6043 H 579.622 -2.64702 3.32886 0
M  V30 6044 N 577.937 -1.40673 -0.710563 0
M  V30 6045 C 578.885 -1.41517 -1.84596 0
M  V30 6046 C 579.879 -0.295043 -1.66811 0
M  V30 6047 O 581.085 -0.466331 -1.73854 0
M  V30 6048 H 577.46 -0.442467 -0.608052 0
M  V30 6049 H 579.431 -2.37238 -1.80999 0
M  V30 6050 C 578.18 -1.29957 -3.225 0
M  V30 6051 H 577.503 -2.15429 -3.36794 0
M  V30 6052 H 578.943 -1.34608 -4.02066 0
M  V30 6053 C 577.402 -0.0103164 -3.36898 0
M  V30 6054 O 577.932 0.950707 -3.90288 0
M  V30 6055 N 576.138 0.0608409 -2.90536 0
M  V30 6056 H 575.685 -0.721943 -2.47277 0
M  V30 6057 H 575.643 0.92292 -3.00549 0
M  V30 6058 N 579.415 0.9433 -1.26252 0
M  V30 6059 C 580.661 1.69175 -1.11837 0
M  V30 6060 C 580.994 1.91238 0.337891 0
M  V30 6061 O 580.269 1.49152 1.24836 0
M  V30 6062 C 580.552 3.06783 -1.88563 0
M  V30 6063 C 580.405 2.9206 -3.42083 0
M  V30 6064 C 581.724 4.06865 -1.67776 0
M  V30 6065 H 578.843 0.61399 -0.407658 0
M  V30 6066 H 581.485 1.09572 -1.55222 0
M  V30 6067 H 579.635 3.57663 -1.51689 0
M  V30 6068 H 581.307 2.48419 -3.88698 0
M  V30 6069 H 579.55 2.27731 -3.69217 0
M  V30 6070 H 580.221 3.89651 -3.90994 0
M  V30 6071 H 582.697 3.64939 -1.99897 0
M  V30 6072 H 581.573 5.01168 -2.23879 0
M  V30 6073 H 581.834 4.37705 -0.621816 0
M  V30 6074 N 580.893 1.08022 1.14757 0
M  V30 6075 C 582.118 0.82895 1.90114 0
M  V30 6076 C 582.543 -0.612772 1.77839 0
M  V30 6077 O 581.901 -1.42895 1.11583 0
M  V30 6078 C 581.949 1.25062 3.38219 0
M  V30 6079 O 581.053 0.400119 4.10454 0
M  V30 6080 H 580.394 0.301412 0.591648 0
M  V30 6081 H 582.924 1.44062 1.45284 0
M  V30 6082 H 582.934 1.22977 3.89025 0
M  V30 6083 H 581.609 2.30067 3.46471 0
M  V30 6084 H 580.186 0.484052 3.69745 0
M  V30 6085 N 582.371 -1.3172 0.865308 0
M  V30 6086 C 583.304 -2.26687 0.262376 0
M  V30 6087 C 584.282 -1.50894 -0.605787 0
M  V30 6088 O 585.466 -1.79982 -0.56024 0
M  V30 6089 C 582.593 -3.3281 -0.628915 0
M  V30 6090 C 581.639 -4.26172 0.167278 0
M  V30 6091 S 582.472 -5.12797 1.54272 0
M  V30 6092 C 583.628 -6.22438 0.657427 0
M  V30 6093 H 583.861 -2.77478 1.0674 0
M  V30 6094 H 581.394 -1.39414 0.663555 0
M  V30 6095 H 583.352 -3.94426 -1.13747 0
M  V30 6096 H 582.013 -2.80782 -1.40785 0
M  V30 6097 H 581.206 -5.01392 -0.51203 0
M  V30 6098 H 580.808 -3.69029 0.607777 0
M  V30 6099 H 583.1 -6.77368 -0.133925 0
M  V30 6100 H 584.043 -6.9451 1.38061 0
M  V30 6101 H 584.451 -5.64043 0.227044 0
M  V30 6102 N 583.85 -0.624285 -1.44708 0
M  V30 6103 C 585.075 -0.131171 -2.06985 0
M  V30 6104 C 585.5 1.18234 -1.46295 0
M  V30 6105 O 584.858 1.72375 -0.561842 0
M  V30 6106 C 584.906 -0.0226724 -3.60593 0
M  V30 6107 O 584.01 1.02314 -3.99507 0
M  V30 6108 H 583.351 -0.0816556 -0.65896 0
M  V30 6109 H 585.88 -0.859027 -1.85693 0
M  V30 6110 H 585.891 0.170138 -4.07645 0
M  V30 6111 H 584.566 -0.981685 -4.04148 0
M  V30 6112 H 583.143 0.805452 -3.64097 0
M  V30 6113 N 585.328 1.53329 -0.364422 0
M  V30 6114 C 586.575 2.01239 0.225634 0
M  V30 6115 C 586.903 1.25172 1.48869 0
M  V30 6116 O 586.158 0.333289 1.92841 0
M  V30 6117 C 586.457 3.52911 0.564661 0
M  V30 6118 C 586.123 4.46837 -0.603936 0
M  V30 6119 C 584.785 4.72234 -0.924585 0
M  V30 6120 C 587.137 5.02409 -1.38691 0
M  V30 6121 C 584.465 5.50454 -2.0302 0
M  V30 6122 C 586.817 5.81836 -2.48293 0
M  V30 6123 C 585.481 6.0552 -2.80894 0
M  V30 6124 H 584.751 0.736386 0.0825654 0
M  V30 6125 H 587.398 1.84948 -0.496645 0
M  V30 6126 H 585.703 3.67144 1.36794 0
M  V30 6127 H 587.4 3.87455 1.03344 0
M  V30 6128 H 583.99 4.27217 -0.343983 0
M  V30 6129 H 588.174 4.82735 -1.15243 0
M  V30 6130 H 583.43 5.67024 -2.28678 0
M  V30 6131 H 587.604 6.23905 -3.0938 0
M  V30 6132 H 585.231 6.65916 -3.66688 0
M  V30 6133 N 586.806 0.0935595 1.57322 0
M  V30 6134 C 588.055 -0.570191 1.93473 0
M  V30 6135 C 588.368 -1.69434 0.977318 0
M  V30 6136 O 589.574 -2.41914 1.23248 0
M  V30 6137 C 588.03 -1.06564 3.43762 0
M  V30 6138 C 587.638 0.0286723 4.47991 0
M  V30 6139 C 589.382 -1.70221 3.88877 0
M  V30 6140 C 587.289 -0.482046 5.89432 0
M  V30 6141 H 586.219 -0.216764 0.72217 0
M  V30 6142 H 588.87 0.169313 1.82717 0
M  V30 6143 H 587.252 -1.85878 3.49664 0
M  V30 6144 H 588.426 0.804106 4.5373 0
M  V30 6145 H 586.741 0.570336 4.12476 0
M  V30 6146 H 589.338 -2.09502 4.91948 0
M  V30 6147 H 589.681 -2.57078 3.27439 0
M  V30 6148 H 590.214 -0.974919 3.85668 0
M  V30 6149 H 586.953 0.349871 6.54566 0
M  V30 6150 H 586.473 -1.22452 5.87167 0
M  V30 6151 H 588.152 -0.951508 6.39965 0
M  V30 6152 N 588.284 -1.56567 -0.180126 0
M  V30 6153 C 589.53 -1.82658 -0.894859 0
M  V30 6154 C 589.885 -0.672826 -1.80252 0
M  V30 6155 O 589.178 0.331227 -1.88715 0
M  V30 6156 C 589.372 -3.1252 -1.73395 0
M  V30 6157 C 589.201 -4.40417 -0.909028 0
M  V30 6158 C 587.971 -5.01872 -0.587562 0
M  V30 6159 C 590.169 -5.13669 -0.254698 0
M  V30 6160 N 588.151 -6.13373 0.254428 0
M  V30 6161 C 589.522 -6.18373 0.448837 0
M  V30 6162 C 591.577 -4.97603 -0.171958 0
M  V30 6163 C 590.28 -7.08753 1.22725 0
M  V30 6164 C 592.306 -5.88418 0.593101 0
M  V30 6165 C 591.668 -6.92579 1.28503 0
M  V30 6166 H 587.767 -0.719493 -0.306356 0
M  V30 6167 H 590.351 -1.94021 -0.16247 0
M  V30 6168 H 588.522 -3.02365 -2.43783 0
M  V30 6169 H 590.254 -3.2664 -2.38931 0
M  V30 6170 H 587.009 -4.64666 -0.915557 0
M  V30 6171 H 587.433 -6.73721 0.665474 0
M  V30 6172 H 592.075 -4.17089 -0.692555 0
M  V30 6173 H 589.793 -7.88718 1.75923 0
M  V30 6174 H 593.379 -5.78059 0.658674 0
M  V30 6175 H 592.259 -7.61638 1.86754 0
M  V30 6176 N 589.762 0.448376 -1.51087 0
M  V30 6177 C 590.694 1.56146 -1.67783 0
M  V30 6178 C 591.707 1.52913 -0.55871 0
M  V30 6179 O 592.896 1.57889 -0.83267 0
M  V30 6180 C 589.996 2.95057 -1.66716 0
M  V30 6181 C 589.169 3.22915 -2.95033 0
M  V30 6182 C 588.228 4.41495 -2.86302 0
M  V30 6183 O 587.254 4.40688 -3.60254 0
M  V30 6184 N 588.456 5.44443 -2.014 0
M  V30 6185 H 591.221 1.42232 -2.638 0
M  V30 6186 H 588.782 0.637153 -1.48835 0
M  V30 6187 H 590.774 3.72388 -1.58458 0
M  V30 6188 H 589.344 3.02624 -0.783403 0
M  V30 6189 H 588.564 2.33985 -3.17245 0
M  V30 6190 H 589.852 3.38349 -3.79996 0
M  V30 6191 H 589.25 5.4793 -1.40674 0
M  V30 6192 H 587.807 6.2067 -1.99029 0
M  V30 6193 N 591.24 1.41047 0.703093 0
M  V30 6194 C 592.465 1.43537 1.49706 0
M  V30 6195 C 592.89 0.0401853 1.88057 0
M  V30 6196 O 592.248 -0.954785 1.54122 0
M  V30 6197 C 592.296 2.3433 2.74084 0
M  V30 6198 O 591.4 1.79515 3.71279 0
M  V30 6199 H 590.741 0.487454 0.450871 0
M  V30 6200 H 593.271 1.85422 0.86486 0
M  V30 6201 H 593.281 2.49947 3.22476 0
M  V30 6202 H 591.956 3.35708 2.45506 0
M  V30 6203 H 590.533 1.7331 3.30179 0
M  V30 6204 N 592.718 -0.936591 1.26751 0
M  V30 6205 C 593.681 -2.01752 1.08761 0
M  V30 6206 C 594.681 -1.60763 0.0344435 0
M  V30 6207 O 595.871 -1.71963 0.278258 0
M  V30 6208 C 593.003 -3.34543 0.655271 0
M  V30 6209 H 594.196 -2.19143 2.04735 0
M  V30 6210 H 591.749 -1.11618 1.09413 0
M  V30 6211 H 592.484 -3.22851 -0.30626 0
M  V30 6212 H 592.269 -3.65647 1.41578 0
M  V30 6213 H 593.759 -4.13944 0.551378 0
M  V30 6214 N 594.196 -1.08629 -1.14182 0
M  V30 6215 C 595.607 -0.838003 -1.66836 0
M  V30 6216 C 595.958 0.634885 -1.85644 0
M  V30 6217 O 595.083 1.49008 -1.56926 0
M  V30 6218 C 595.678 -1.51465 -3.03058 0
M  V30 6219 C 594.237 -1.31355 -3.52736 0
M  V30 6220 C 593.384 -1.57599 -2.28162 0
M  V30 6221 H 596.335 -1.24656 -0.982165 0
M  V30 6222 H 596.356 -0.943134 -3.68626 0
M  V30 6223 H 595.868 -2.58661 -2.89337 0
M  V30 6224 H 593.969 -0.262384 -3.71675 0
M  V30 6225 H 594.082 -2.04275 -4.33369 0
M  V30 6226 H 592.446 -0.997659 -2.34348 0
M  V30 6227 H 593.229 -2.66006 -2.17015 0
M  V30 6228 N 595.674 1.31259 -0.872281 0
M  V30 6229 C 596.951 1.91362 -0.404943 0
M  V30 6230 C 597.331 1.79362 1.11321 0
M  V30 6231 O 596.679 1.20277 1.94283 0
M  V30 6232 C 596.889 3.3749 -0.888893 0
M  V30 6233 C 598.237 4.14593 -0.916384 0
M  V30 6234 O 599.261 3.46282 -0.834701 0
M  V30 6235 O 598.12 5.3661 -1.03498 0
M  V30 6236 H 595.214 0.818016 -0.121569 0
M  V30 6237 H 597.76 1.39912 -0.960346 0
M  V30 6238 H 596.532 3.40249 -1.93251 0
M  V30 6239 H 596.155 3.96375 -0.311932 0
M  V30 6240 N 597.152 0.631951 1.44375 0
M  V30 6241 C 598.401 0.134214 2.01253 0
M  V30 6242 C 598.714 -1.25171 1.50305 0
M  V30 6243 O 599.92 -1.8435 1.99317 0
M  V30 6244 C 598.376 0.189187 3.59402 0
M  V30 6245 C 597.984 1.57647 4.19346 0
M  V30 6246 C 599.728 -0.252044 4.23751 0
M  V30 6247 C 597.635 1.58651 5.69722 0
M  V30 6248 H 596.565 0.0464101 0.75257 0
M  V30 6249 H 599.216 0.790868 1.65582 0
M  V30 6250 H 597.598 -0.534584 3.92375 0
M  V30 6251 H 598.772 2.32389 3.97909 0
M  V30 6252 H 597.087 1.96186 3.67288 0
M  V30 6253 H 599.684 -0.264084 5.34047 0
M  V30 6254 H 600.027 -1.27951 3.96149 0
M  V30 6255 H 600.56 0.41926 3.95584 0
M  V30 6256 H 597.299 2.59237 6.0206 0
M  V30 6257 H 596.819 0.882039 5.93279 0
M  V30 6258 H 598.498 1.32082 6.33375 0
M  V30 6259 N 598.631 -1.53133 0.372548 0
M  V30 6260 C 599.879 -2.00958 -0.214534 0
M  V30 6261 C 600.2 -1.26135 -1.48711 0
M  V30 6262 O 599.47 -0.376597 -1.92246 0
M  V30 6263 H 598.05 -0.742456 -0.0822664 0
M  V30 6264 H 600.712 -1.88367 0.500385 0
M  V30 6265 H 599.808 -3.09031 -0.436605 0
M  V30 6266 N 600.109 -0.101901 -1.5727 0
M  V30 6267 C 601.525 0.254739 -1.57554 0
M  V30 6268 C 601.725 1.67937 -1.11352 0
M  V30 6269 O 600.781 2.39722 -0.793081 0
M  V30 6270 C 602.094 0.036975 -3.00677 0
M  V30 6271 C 603.642 0.104199 -3.12827 0
M  V30 6272 C 604.117 -0.0856565 -4.5792 0
M  V30 6273 N 605.608 -0.0310498 -4.6319 0
M  V30 6274 C 606.343 -0.153099 -5.73196 0
M  V30 6275 N 605.839 -0.330364 -6.92012 0
M  V30 6276 N 607.632 -0.0938854 -5.62022 0
M  V30 6277 H 599.783 -1.03263 -1.85609 0
M  V30 6278 H 602.046 -0.405251 -0.857016 0
M  V30 6279 H 601.752 -0.947254 -3.38703 0
M  V30 6280 H 601.626 0.776335 -3.69124 0
M  V30 6281 H 604.013 1.07894 -2.74669 0
M  V30 6282 H 604.094 -0.666762 -2.46957 0
M  V30 6283 H 603.738 -1.05729 -4.96773 0
M  V30 6284 H 603.668 0.705082 -5.21858 0
M  V30 6285 H 606.159 0.103141 -3.77759 0
M  V30 6286 H 606.472 -0.41482 -7.71686 0
M  V30 6287 H 604.817 -0.366119 -6.94035 0
M  V30 6288 H 608.008 0.0435168 -4.6808 0
M  V30 6289 H 608.181 -0.19245 -6.47714 0
M  V30 6290 N 601.587 1.56661 0.17182 0
M  V30 6291 C 602.534 1.96371 1.21273 0
M  V30 6292 C 603.504 0.82756 1.44016 0
M  V30 6293 O 604.689 1.08764 1.56764 0
M  V30 6294 C 601.829 2.32838 2.54716 0
M  V30 6295 C 600.942 3.59628 2.39356 0
M  V30 6296 C 600.077 3.85311 3.65662 0
M  V30 6297 C 599.116 5.0545 3.45234 0
M  V30 6298 N 598.253 5.27268 4.63608 0
M  V30 6299 H 603.093 2.85106 0.86709 0
M  V30 6300 H 600.63 1.41073 0.416744 0
M  V30 6301 H 602.588 2.52004 3.3249 0
M  V30 6302 H 601.218 1.47214 2.87277 0
M  V30 6303 H 600.27 3.4838 1.52761 0
M  V30 6304 H 601.582 4.4756 2.20207 0
M  V30 6305 H 600.736 4.04841 4.51872 0
M  V30 6306 H 599.475 2.95753 3.8779 0
M  V30 6307 H 598.48 4.85819 2.5741 0
M  V30 6308 H 599.705 5.96538 3.24529 0
M  V30 6309 H 597.651 4.40662 4.85956 0
M  V30 6310 H 597.568 6.09422 4.4737 0
M  V30 6311 H 598.836 5.51277 5.51103 0
M  V30 6312 N 603.065 -0.440357 1.51323 0
M  V30 6313 C 603.995 -1.54174 1.75364 0
M  V30 6314 C 604.976 -1.59039 0.603375 0
M  V30 6315 O 606.161 -1.74815 0.845774 0
M  V30 6316 C 603.291 -2.92277 1.87593 0
M  V30 6317 C 602.245 -3.02274 3.03009 0
M  V30 6318 C 601.571 -4.42327 3.00418 0
M  V30 6319 C 602.871 -2.76634 4.43024 0
M  V30 6320 H 604.565 -1.34307 2.67585 0
M  V30 6321 H 602.111 -0.644678 1.28763 0
M  V30 6322 H 604.064 -3.69284 2.02995 0
M  V30 6323 H 602.788 -3.13369 0.920179 0
M  V30 6324 H 601.447 -2.27706 2.87307 0
M  V30 6325 H 601.095 -4.60382 2.02626 0
M  V30 6326 H 600.795 -4.49946 3.77918 0
M  V30 6327 H 602.319 -5.21312 3.17909 0
M  V30 6328 H 603.733 -3.43376 4.59093 0
M  V30 6329 H 602.13 -2.95666 5.22208 0
M  V30 6330 H 603.2 -1.72262 4.5327 0
M  V30 6331 N 604.543 -1.41418 -0.695603 0
M  V30 6332 C 605.453 -1.45622 -1.83933 0
M  V30 6333 C 606.469 -0.346825 -1.70508 0
M  V30 6334 O 607.645 -0.59454 -1.92424 0
M  V30 6335 C 604.71 -1.33627 -3.19914 0
M  V30 6336 C 603.771 -2.54882 -3.45447 0
M  V30 6337 C 603.004 -2.43449 -4.7494 0
M  V30 6338 O 603.227 -1.45905 -5.51424 0
M  V30 6339 O 602.161 -3.33206 -5.01256 0
M  V30 6340 H 605.987 -2.42114 -1.83342 0
M  V30 6341 H 603.572 -1.22956 -0.848658 0
M  V30 6342 H 605.454 -1.29221 -4.01098 0
M  V30 6343 H 604.129 -0.402508 -3.21188 0
M  V30 6344 H 603.036 -2.64865 -2.64192 0
M  V30 6345 H 604.369 -3.47087 -3.48987 0
M  V30 6346 N 606.021 0.929856 -1.27246 0
M  V30 6347 C 607.437 1.20542 -1.04603 0
M  V30 6348 C 607.637 2.00276 0.221754 0
M  V30 6349 O 606.693 2.34835 0.927833 0
M  V30 6350 C 608.006 1.95566 -2.28417 0
M  V30 6351 C 609.554 2.08513 -2.33433 0
M  V30 6352 C 610.029 2.86943 -3.5697 0
M  V30 6353 N 611.52 2.94512 -3.57515 0
M  V30 6354 C 612.255 3.55656 -4.49774 0
M  V30 6355 N 611.751 4.18209 -5.52334 0
M  V30 6356 N 613.544 3.53038 -4.37402 0
M  V30 6357 H 605.695 0.397113 -2.08655 0
M  V30 6358 H 607.958 0.238277 -0.917566 0
M  V30 6359 H 607.664 1.44395 -3.20691 0
M  V30 6360 H 607.538 2.9619 -2.33563 0
M  V30 6361 H 609.925 2.58872 -1.41666 0
M  V30 6362 H 610.006 1.07117 -2.32292 0
M  V30 6363 H 609.65 2.37268 -4.49072 0
M  V30 6364 H 609.58 3.8862 -3.55362 0
M  V30 6365 H 612.071 2.50053 -2.83341 0
M  V30 6366 H 612.384 4.62796 -6.18902 0
M  V30 6367 H 610.729 4.16761 -5.56179 0
M  V30 6368 H 613.92 3.0337 -3.56489 0
M  V30 6369 H 614.093 4.004 -5.09493 0
M  V30 6370 N 607.499 1.09233 1.13605 0
M  V30 6371 C 608.429 0.751738 2.21068 0
M  V30 6372 C 609.41 -0.269688 1.67948 0
M  V30 6373 O 610.595 -0.13819 1.93708 0
M  V30 6374 C 607.725 0.16935 3.46887 0
M  V30 6375 C 606.679 1.12007 4.13084 0
M  V30 6376 C 606.005 0.399483 5.33206 0
M  V30 6377 C 607.305 2.46168 4.6065 0
M  V30 6378 H 608.999 1.65024 2.49815 0
M  V30 6379 H 606.545 0.794905 1.20072 0
M  V30 6380 H 608.498 -0.0809824 4.21322 0
M  V30 6381 H 607.222 -0.764335 3.1753 0
M  V30 6382 H 605.881 1.35564 3.40614 0
M  V30 6383 H 605.529 -0.538277 5.00112 0
M  V30 6384 H 605.229 1.03337 5.78442 0
M  V30 6385 H 606.753 0.157403 6.10397 0
M  V30 6386 H 608.167 2.26829 5.26518 0
M  V30 6387 H 606.564 3.05326 5.1662 0
M  V30 6388 H 607.634 3.07076 3.75276 0
M  V30 6389 N 608.977 -1.30795 0.87923 0
M  V30 6390 C 609.887 -2.32041 0.345565 0
M  V30 6391 C 610.903 -1.65103 -0.549265 0
M  V30 6392 O 612.079 -1.9645 -0.443763 0
M  V30 6393 C 609.144 -3.43944 -0.436245 0
M  V30 6394 C 608.205 -4.26521 0.48765 0
M  V30 6395 C 607.438 -5.33081 -0.256943 0
M  V30 6396 O 607.661 -5.50762 -1.48381 0
M  V30 6397 O 606.595 -6.00635 0.389985 0
M  V30 6398 H 610.421 -2.79627 1.18501 0
M  V30 6399 H 608.006 -1.3486 0.642885 0
M  V30 6400 H 609.888 -4.12128 -0.879119 0
M  V30 6401 H 608.563 -2.98504 -1.25208 0
M  V30 6402 H 607.47 -3.61057 0.979216 0
M  V30 6403 H 608.803 -4.75551 1.26933 0
M  V30 6404 N 610.455 -0.639598 -1.44038 0
M  V30 6405 C 611.732 -0.078012 -1.95444 0
M  V30 6406 C 612.112 1.39847 -1.58133 0
M  V30 6407 O 611.46 2.11714 -0.859614 0
M  V30 6408 C 611.67 -0.309832 -3.47622 0
M  V30 6409 C 613.018 -0.207521 -4.24093 0
M  V30 6410 O 614.042 -0.241653 -3.55379 0
M  V30 6411 O 612.901 -0.119641 -5.46369 0
M  V30 6412 H 609.995 0.0174534 -0.826816 0
M  V30 6413 H 612.541 -0.711891 -1.54046 0
M  V30 6414 H 611.313 -1.33401 -3.67858 0
M  V30 6415 H 610.936 0.357777 -3.95987 0
M  V30 6416 N 611.933 1.52934 -0.380664 0
M  V30 6417 C 612.863 2.29118 0.450268 0
M  V30 6418 C 613.844 1.32153 1.07096 0
M  V30 6419 O 615.029 1.61038 1.08537 0
M  V30 6420 C 612.159 3.09161 1.58231 0
M  V30 6421 C 611.113 4.13938 1.0881 0
M  V30 6422 C 610.439 4.82153 2.31155 0
M  V30 6423 C 611.739 5.22048 0.162146 0
M  V30 6424 H 613.433 2.98826 -0.185361 0
M  V30 6425 H 610.979 1.43715 -0.0905886 0
M  V30 6426 H 612.932 3.61211 2.17036 0
M  V30 6427 H 611.656 2.3717 2.2454 0
M  V30 6428 H 610.315 3.62855 0.522633 0
M  V30 6429 H 609.963 4.06719 2.95953 0
M  V30 6430 H 609.663 5.52966 1.98752 0
M  V30 6431 H 611.187 5.37004 2.90618 0
M  V30 6432 H 612.601 5.6951 0.658126 0
M  V30 6433 H 610.998 6.00057 -0.0717122 0
M  V30 6434 H 612.068 4.78398 -0.791438 0
M  V30 6435 N 613.412 0.11024 1.57214 0
M  V30 6436 C 614.359 -0.843195 2.14846 0
M  V30 6437 C 615.329 -1.26954 1.07107 0
M  V30 6438 O 616.514 -1.34861 1.34971 0
M  V30 6439 C 613.654 -2.09123 2.74521 0
M  V30 6440 C 612.767 -1.71404 3.96541 0
M  V30 6441 C 611.902 -2.91107 4.44331 0
M  V30 6442 C 610.941 -2.49586 5.58903 0
M  V30 6443 N 610.078 -3.62175 6.01477 0
M  V30 6444 H 614.918 -0.344886 2.95998 0
M  V30 6445 H 612.455 -0.15855 1.46243 0
M  V30 6446 H 614.413 -2.82234 3.07246 0
M  V30 6447 H 613.043 -2.56427 1.96074 0
M  V30 6448 H 612.095 -0.88201 3.70033 0
M  V30 6449 H 613.407 -1.36884 4.7965 0
M  V30 6450 H 612.561 -3.72454 4.78919 0
M  V30 6451 H 611.3 -3.28848 3.60153 0
M  V30 6452 H 610.305 -1.6667 5.23929 0
M  V30 6453 H 611.53 -2.12973 6.4484 0
M  V30 6454 H 609.476 -3.99605 5.20242 0
M  V30 6455 H 609.393 -3.3155 6.79419 0
M  V30 6456 H 610.661 -4.43987 6.407 0
M  V30 6457 N 614.89 -1.56749 -0.16351 0
M  V30 6458 C 615.838 -1.97939 -1.22159 0
M  V30 6459 C 616.832 -0.869288 -1.45395 0
M  V30 6460 O 618.038 -1.05443 -1.45883 0
M  V30 6461 H 614.413 -0.629869 -0.410815 0
M  V30 6462 H 616.384 -2.86115 -0.847381 0
M  V30 6463 C 615.133 -2.36206 -2.55151 0
M  V30 6464 H 614.456 -3.2117 -2.38097 0
M  V30 6465 H 615.896 -2.68863 -3.27854 0
M  V30 6466 C 614.355 -1.20841 -3.14482 0
M  V30 6467 O 614.885 -0.500258 -3.98573 0
M  V30 6468 N 613.091 -0.976943 -2.73686 0
M  V30 6469 H 612.638 -1.55457 -2.05404 0
M  V30 6470 H 612.596 -0.206912 -3.13718 0
M  V30 6471 N 616.368 0.432326 -1.51554 0
M  V30 6472 C 617.315 1.52512 -1.7323 0
M  V30 6473 C 618.285 1.55863 -0.5741 0
M  V30 6474 O 619.47 1.72796 -0.809093 0
M  V30 6475 C 616.61 2.90183 -1.86783 0
M  V30 6476 C 615.723 2.96322 -3.14352 0
M  V30 6477 C 614.858 4.25147 -3.18471 0
M  V30 6478 C 613.897 4.25172 -4.40335 0
M  V30 6479 N 613.034 5.45529 -4.41975 0
M  V30 6480 H 617.874 1.33332 -2.66508 0
M  V30 6481 H 615.411 0.647613 -1.32077 0
M  V30 6482 H 617.369 3.70071 -1.92623 0
M  V30 6483 H 615.999 3.0791 -0.969087 0
M  V30 6484 H 615.051 2.09066 -3.17798 0
M  V30 6485 H 616.363 2.92203 -4.04251 0
M  V30 6486 H 615.517 5.13411 -3.23255 0
M  V30 6487 H 614.256 4.31929 -2.2647 0
M  V30 6488 H 613.261 3.353 -4.35723 0
M  V30 6489 H 614.486 4.20049 -5.33606 0
M  V30 6490 H 612.432 5.53024 -3.52847 0
M  V30 6491 H 612.349 5.43311 -5.25689 0
M  V30 6492 H 613.617 6.35812 -4.50958 0
M  V30 6493 N 617.846 1.41785 0.688094 0
M  V30 6494 C 619.074 1.44915 1.47673 0
M  V30 6495 C 619.489 0.0565786 1.88715 0
M  V30 6496 O 618.846 -0.92579 1.57275 0
M  V30 6497 C 618.897 2.36452 2.73446 0
M  V30 6498 O 618.618 3.7029 2.34131 0
M  V30 6499 C 620.119 2.48463 3.67125 0
M  V30 6500 H 617.339 0.493324 0.454832 0
M  V30 6501 H 619.883 1.86153 0.846594 0
M  V30 6502 H 618.038 1.98502 3.3268 0
M  V30 6503 H 618.452 4.19183 3.15255 0
M  V30 6504 H 619.926 3.16662 4.52138 0
M  V30 6505 H 620.403 1.51826 4.12123 0
M  V30 6506 H 621.009 2.8708 3.13792 0
M  V30 6507 N 619.324 -0.923095 1.27737 0
M  V30 6508 C 620.254 -2.04124 1.13383 0
M  V30 6509 C 621.235 -1.70066 0.0340658 0
M  V30 6510 O 622.42 -1.93068 0.209383 0
M  V30 6511 C 619.55 -3.3831 0.785097 0
M  V30 6512 C 618.504 -3.86496 1.8386 0
M  V30 6513 C 617.83 -5.1754 1.34373 0
M  V30 6514 C 619.13 -4.09381 3.24353 0
M  V30 6515 H 620.824 -2.1639 2.06919 0
M  V30 6516 H 618.37 -1.03976 0.996243 0
M  V30 6517 H 620.323 -4.16016 0.671485 0
M  V30 6518 H 619.047 -3.2607 -0.185969 0
M  V30 6519 H 617.706 -3.10987 1.9412 0
M  V30 6520 H 617.354 -5.01696 0.361989 0
M  V30 6521 H 617.054 -5.50751 2.04811 0
M  V30 6522 H 618.578 -5.97811 1.24315 0
M  V30 6523 H 619.992 -4.77641 3.17067 0
M  V30 6524 H 618.389 -4.53906 3.92542 0
M  V30 6525 H 619.459 -3.14515 3.69064 0
M  V30 6526 N 620.802 -1.09834 -1.13024 0
M  V30 6527 C 622.05 -0.835297 -1.8403 0
M  V30 6528 C 622.371 0.640944 -1.84165 0
M  V30 6529 O 621.641 1.46517 -1.30037 0
M  V30 6530 H 620.221 -0.306018 -0.681441 0
M  V30 6531 H 622.883 -1.38734 -1.36891 0
M  V30 6532 H 621.979 -1.19258 -2.88416 0
M  V30 6533 N 622.28 1.30327 -0.886154 0
M  V30 6534 C 623.557 1.90922 -0.425217 0
M  V30 6535 C 623.937 1.80533 1.09413 0
M  V30 6536 O 623.285 1.2233 1.92996 0
M  V30 6537 C 623.495 3.36529 -0.924638 0
M  V30 6538 C 624.843 4.13598 -0.960305 0
M  V30 6539 O 625.867 3.45377 -0.871382 0
M  V30 6540 O 624.726 5.35482 -1.09184 0
M  V30 6541 H 621.82 0.81668 -0.130238 0
M  V30 6542 H 624.366 1.38886 -0.975132 0
M  V30 6543 H 623.138 3.38181 -1.96849 0
M  V30 6544 H 622.761 3.96021 -0.353955 0
M  V30 6545 N 623.758 0.647228 1.43697 0
M  V30 6546 C 624.688 -0.0345631 2.33474 0
M  V30 6547 C 625.669 -0.818193 1.4913 0
M  V30 6548 O 626.854 -0.780867 1.77809 0
M  V30 6549 C 623.984 -1.00576 3.32418 0
M  V30 6550 C 622.938 -0.33266 4.26705 0
M  V30 6551 C 622.264 -1.41489 5.1564 0
M  V30 6552 C 623.564 0.771204 5.16575 0
M  V30 6553 H 625.258 0.715163 2.90733 0
M  V30 6554 H 622.804 0.345364 1.39797 0
M  V30 6555 H 624.757 -1.49159 3.94119 0
M  V30 6556 H 623.481 -1.78657 2.73403 0
M  V30 6557 H 622.14 0.13267 3.6636 0
M  V30 6558 H 621.788 -2.18698 4.52968 0
M  V30 6559 H 621.488 -0.969799 5.79542 0
M  V30 6560 H 623.012 -1.9022 5.80214 0
M  V30 6561 H 624.426 0.36779 5.72119 0
M  V30 6562 H 622.823 1.1404 5.89165 0
M  V30 6563 H 623.893 1.63169 4.56622 0
M  V30 6564 N 625.236 -1.5273 0.388769 0
M  V30 6565 C 626.482 -2.01871 -0.193877 0
M  V30 6566 C 626.815 -1.27475 -1.46505 0
M  V30 6567 O 626.09 -0.375063 -1.90849 0
M  V30 6568 C 626.373 -3.5712 -0.462336 0
M  V30 6569 C 626.226 -4.42186 0.824091 0
M  V30 6570 C 627.545 -4.21881 -1.25319 0
M  V30 6571 H 624.664 -0.733764 -0.0689899 0
M  V30 6572 H 627.306 -1.82796 0.518231 0
M  V30 6573 H 625.456 -3.73504 -1.06896 0
M  V30 6574 H 627.128 -4.37554 1.46096 0
M  V30 6575 H 625.371 -4.09219 1.43952 0
M  V30 6576 H 626.042 -5.48828 0.590905 0
M  V30 6577 H 628.518 -4.0947 -0.73981 0
M  V30 6578 H 627.394 -5.30487 -1.40977 0
M  V30 6579 H 627.655 -3.79478 -2.26824 0
M  V30 6580 N 626.714 -0.118576 -1.57153 0
M  V30 6581 C 628.13 0.238014 -1.57815 0
M  V30 6582 C 628.33 1.66747 -1.13127 0
M  V30 6583 O 627.386 2.38867 -0.818462 0
M  V30 6584 C 628.699 0.00508207 -3.007 0
M  V30 6585 C 630.247 0.0710139 -3.12919 0
M  V30 6586 C 630.722 -0.13422 -4.57803 0
M  V30 6587 N 632.213 -0.0801755 -4.63131 0
M  V30 6588 C 632.948 -0.213885 -5.73001 0
M  V30 6589 N 632.444 -0.403742 -6.91623 0
M  V30 6590 N 634.237 -0.15349 -5.6189 0
M  V30 6591 H 626.388 -1.05226 -1.84503 0
M  V30 6592 H 628.651 -0.414318 -0.852669 0
M  V30 6593 H 628.357 -0.983125 -3.3768 0
M  V30 6594 H 628.231 0.73714 -3.69927 0
M  V30 6595 H 630.618 1.04975 -2.75798 0
M  V30 6596 H 630.699 -0.692918 -2.46236 0
M  V30 6597 H 630.343 -1.10992 -4.95624 0
M  V30 6598 H 630.273 0.649692 -5.22577 0
M  V30 6599 H 632.764 0.0630689 -3.77847 0
M  V30 6600 H 633.077 -0.496645 -7.71202 0
M  V30 6601 H 631.422 -0.43971 -6.93608 0
M  V30 6602 H 634.613 -0.00613174 -4.681 0
M  V30 6603 H 634.786 -0.261138 -6.47474 0
M  V30 6604 N 628.193 1.56834 0.155195 0
M  V30 6605 C 629.103 2.009 1.21146 0
M  V30 6606 C 630.119 0.923029 1.475 0
M  V30 6607 O 631.295 1.23189 1.59331 0
M  V30 6608 C 628.36 2.37378 2.52691 0
M  V30 6609 C 627.421 3.59883 2.34057 0
M  V30 6610 C 626.654 3.94612 3.59329 0
M  V30 6611 O 626.877 3.30104 4.65175 0
M  V30 6612 O 625.811 4.87895 3.52479 0
M  V30 6613 H 629.637 2.9105 0.867371 0
M  V30 6614 H 627.222 1.44916 0.363298 0
M  V30 6615 H 629.104 2.61737 3.3026 0
M  V30 6616 H 627.779 1.50385 2.86646 0
M  V30 6617 H 626.686 3.40722 1.54465 0
M  V30 6618 H 628.019 4.47468 2.0502 0
M  V30 6619 N 629.671 -0.424282 1.51781 0
M  V30 6620 C 630.634 -1.49848 1.73431 0
M  V30 6621 C 631.634 -1.49016 0.604225 0
M  V30 6622 O 632.824 -1.50808 0.871935 0
M  V30 6623 C 629.956 -2.89332 1.80277 0
M  V30 6624 H 631.149 -1.3195 2.69312 0
M  V30 6625 H 628.702 -0.653809 1.41968 0
M  V30 6626 H 629.437 -3.12618 0.862568 0
M  V30 6627 H 629.222 -2.9134 2.62419 0
M  V30 6628 H 630.712 -3.67233 1.98821 0
M  V30 6629 N 631.149 -1.42148 -0.680565 0
M  V30 6630 C 632.059 -1.47565 -1.82378 0
M  V30 6631 C 633.075 -0.36489 -1.70131 0
M  V30 6632 O 634.251 -0.614916 -1.91783 0
M  V30 6633 C 631.316 -1.37013 -3.18478 0
M  V30 6634 C 630.377 -2.58532 -3.42724 0
M  V30 6635 C 629.61 -2.48473 -4.72331 0
M  V30 6636 O 629.833 -1.51745 -5.49845 0
M  V30 6637 O 628.767 -3.38503 -4.97694 0
M  V30 6638 H 632.593 -2.44045 -1.80764 0
M  V30 6639 H 630.178 -1.23849 -0.835569 0
M  V30 6640 H 632.06 -1.33468 -3.99705 0
M  V30 6641 H 630.735 -0.436552 -3.20743 0
M  V30 6642 H 629.642 -2.67652 -2.61368 0
M  V30 6643 H 630.975 -3.50769 -3.45286 0
M  V30 6644 N 632.627 0.916307 -1.28225 0
M  V30 6645 C 633.574 2.01841 -1.11932 0
M  V30 6646 C 634.544 1.66091 -0.0171604 0
M  V30 6647 O 635.729 1.89934 -0.181617 0
M  V30 6648 C 632.869 3.36065 -0.784504 0
M  V30 6649 C 631.982 3.847 -1.96544 0
M  V30 6650 C 631.117 5.07423 -1.57149 0
M  V30 6651 C 630.156 5.48384 -2.71922 0
M  V30 6652 N 629.293 6.62298 -2.33037 0
M  V30 6653 H 634.133 2.1511 -2.06232 0
M  V30 6654 H 631.67 1.05366 -1.02647 0
M  V30 6655 H 633.628 4.13272 -0.571148 0
M  V30 6656 H 632.258 3.22571 0.121565 0
M  V30 6657 H 631.31 3.03673 -2.291 0
M  V30 6658 H 632.622 4.1102 -2.82603 0
M  V30 6659 H 631.776 5.92165 -1.32004 0
M  V30 6660 H 630.515 4.82906 -0.682153 0
M  V30 6661 H 629.52 4.62184 -2.97768 0
M  V30 6662 H 630.745 5.7489 -3.61494 0
M  V30 6663 H 628.691 6.39416 -1.4657 0
M  V30 6664 H 628.608 6.8833 -3.12631 0
M  V30 6665 H 629.876 7.50352 -2.11169 0
M  V30 6666 N 634.105 1.10431 1.1244 0
M  V30 6667 C 635.354 0.841539 1.83306 0
M  V30 6668 C 635.667 -0.634961 1.85007 0
M  V30 6669 O 636.873 -1.01363 2.51869 0
M  V30 6670 C 635.329 1.45565 3.29149 0
M  V30 6671 C 634.937 2.96544 3.35806 0
M  V30 6672 C 636.681 1.27227 4.04986 0
M  V30 6673 C 634.588 3.5099 4.75983 0
M  V30 6674 H 633.518 0.311156 0.686803 0
M  V30 6675 H 636.169 1.32829 1.26604 0
M  V30 6676 H 634.551 0.896574 3.85717 0
M  V30 6677 H 635.725 3.58766 2.89177 0
M  V30 6678 H 634.04 3.14036 2.73442 0
M  V30 6679 H 636.637 1.65348 5.08492 0
M  V30 6680 H 636.98 0.213834 4.1575 0
M  V30 6681 H 637.513 1.79941 3.54776 0
M  V30 6682 H 634.252 4.56499 4.70413 0
M  V30 6683 H 633.772 2.93535 5.23065 0
M  V30 6684 H 635.451 3.48808 5.44924 0
M  V30 6685 N 635.583 -1.29855 0.893053 0
M  V30 6686 C 636.83 -1.95826 0.515585 0
M  V30 6687 C 637.158 -1.70451 -0.936842 0
M  V30 6688 O 636.413 -1.00657 -1.67829 0
M  V30 6689 C 636.712 -3.49515 0.746588 0
M  V30 6690 C 636.378 -3.94955 2.17535 0
M  V30 6691 C 635.04 -4.07073 2.56603 0
M  V30 6692 C 637.392 -4.18536 3.10607 0
M  V30 6693 C 634.72 -4.40138 3.87938 0
M  V30 6694 C 637.072 -4.53073 4.41484 0
M  V30 6695 C 635.736 -4.634 4.80434 0
M  V30 6696 H 635.006 -0.71658 0.188666 0
M  V30 6697 H 637.653 -1.54574 1.13045 0
M  V30 6698 H 635.958 -3.9177 0.0487551 0
M  V30 6699 H 637.655 -3.98644 0.434009 0
M  V30 6700 H 634.245 -3.86035 1.86212 0
M  V30 6701 H 638.429 -4.08646 2.81641 0
M  V30 6702 H 633.685 -4.46335 4.17846 0
M  V30 6703 H 637.859 -4.70269 5.13634 0
M  V30 6704 H 635.486 -4.88775 5.82239 0
M  V30 6705 N 637.061 -0.65484 -1.43351 0
M  V30 6706 C 638.009 0.0476784 -2.32551 0
M  V30 6707 C 639.003 0.811403 -1.48703 0
M  V30 6708 O 640.209 0.721621 -1.64902 0
M  V30 6709 H 636.584 0.0342038 -0.751222 0
M  V30 6710 H 638.555 -0.722342 -2.89525 0
M  V30 6711 C 637.304 0.999251 -3.33032 0
M  V30 6712 H 636.627 0.421005 -3.97577 0
M  V30 6713 H 638.067 1.45986 -3.98076 0
M  V30 6714 C 636.526 2.09606 -2.63756 0
M  V30 6715 O 637.056 3.18004 -2.4543 0
M  V30 6716 N 635.262 1.86207 -2.23103 0
M  V30 6717 H 634.809 0.980555 -2.38208 0
M  V30 6718 H 634.767 2.59787 -1.77081 0
M  V30 6719 N 638.539 1.52521 -0.396863 0
M  V30 6720 C 639.486 2.26671 0.434624 0
M  V30 6721 C 640.456 1.28584 1.05144 0
M  V30 6722 O 641.641 1.57426 1.07804 0
M  V30 6723 C 638.781 3.08234 1.55196 0
M  V30 6724 C 637.894 4.21261 0.957262 0
M  V30 6725 C 637.029 4.90205 2.04627 0
M  V30 6726 C 636.068 5.95213 1.42787 0
M  V30 6727 N 635.205 6.57723 2.45651 0
M  V30 6728 H 640.045 2.973 -0.204139 0
M  V30 6729 H 637.582 1.46669 -0.112505 0
M  V30 6730 H 639.54 3.53819 2.2106 0
M  V30 6731 H 638.17 2.398 2.16092 0
M  V30 6732 H 637.222 3.79935 0.188005 0
M  V30 6733 H 638.534 4.96624 0.465416 0
M  V30 6734 H 637.688 5.39133 2.78246 0
M  V30 6735 H 636.427 4.14383 2.57174 0
M  V30 6736 H 635.432 5.45616 0.676968 0
M  V30 6737 H 636.657 6.72972 0.910255 0
M  V30 6738 H 634.603 5.84737 2.97353 0
M  V30 6739 H 634.52 7.28723 2.01243 0
M  V30 6740 H 635.788 7.11293 3.18876 0
M  V30 6741 N 640.017 0.126909 1.57088 0
M  V30 6742 C 641.433 -0.229641 1.57939 0
M  V30 6743 C 641.633 -1.66145 1.1401 0
M  V30 6744 O 640.689 -2.3843 0.831119 0
M  V30 6745 C 642.002 0.0108648 3.00698 0
M  V30 6746 C 643.55 -0.054418 3.12953 0
M  V30 6747 C 644.025 0.158497 4.57726 0
M  V30 6748 N 645.516 0.104735 4.63082 0
M  V30 6749 C 646.251 0.24427 5.72879 0
M  V30 6750 N 645.747 0.440415 6.91399 0
M  V30 6751 N 647.54 0.183286 5.61801 0
M  V30 6752 H 639.691 1.06203 1.83942 0
M  V30 6753 H 641.954 0.418834 0.85046 0
M  V30 6754 H 641.66 1.00102 3.37154 0
M  V30 6755 H 641.534 -0.717512 3.70313 0
M  V30 6756 H 643.921 -1.0351 2.7635 0
M  V30 6757 H 644.002 0.705967 2.45865 0
M  V30 6758 H 643.646 1.13619 4.95028 0
M  V30 6759 H 643.576 -0.62197 5.22914 0
M  V30 6760 H 646.067 -0.0430298 3.77876 0
M  V30 6761 H 646.38 0.537536 7.70928 0
M  V30 6762 H 644.725 0.476488 6.93365 0
M  V30 6763 H 647.916 0.0309561 4.6809 0
M  V30 6764 H 648.089 0.295471 6.47326 0
M  V30 6765 N 641.495 -1.56914 -0.146875 0
M  V30 6766 C 642.405 -2.0154 -1.20079 0
M  V30 6767 C 643.421 -0.930838 -1.47008 0
M  V30 6768 O 644.597 -1.24032 -1.58676 0
M  V30 6769 C 641.662 -2.38715 -2.51428 0
M  V30 6770 C 640.723 -3.6112 -2.32145 0
M  V30 6771 C 639.956 -3.96512 -3.57231 0
M  V30 6772 O 640.179 -3.32566 -4.63418 0
M  V30 6773 O 639.113 -4.89758 -3.49887 0
M  V30 6774 H 642.939 -2.91506 -0.851924 0
M  V30 6775 H 640.524 -1.45106 -0.355607 0
M  V30 6776 H 642.406 -2.63485 -3.28867 0
M  V30 6777 H 641.081 -1.51903 -2.85845 0
M  V30 6778 H 639.988 -3.41536 -1.52656 0
M  V30 6779 H 641.321 -4.48549 -2.02644 0
M  V30 6780 N 642.974 0.416227 -1.52004 0
M  V30 6781 C 644.202 1.18573 -1.69553 0
M  V30 6782 C 644.617 1.84472 -0.401919 0
M  V30 6783 O 643.974 1.71593 0.621463 0
M  V30 6784 C 644.025 2.25413 -2.82615 0
M  V30 6785 O 643.746 1.62205 -4.06966 0
M  V30 6786 C 645.247 3.15297 -3.11613 0
M  V30 6787 H 642.467 0.356582 -0.56841 0
M  V30 6788 H 645.011 0.490618 -1.98528 0
M  V30 6789 H 643.166 2.90604 -2.56179 0
M  V30 6790 H 643.58 2.3298 -4.69916 0
M  V30 6791 H 645.054 3.86351 -3.94255 0
M  V30 6792 H 645.531 3.77264 -2.24874 0
M  V30 6793 H 646.137 2.55783 -3.39787 0
M  V30 6794 N 644.452 1.42507 0.673017 0
M  V30 6795 C 645.863 1.38347 1.25367 0
M  V30 6796 C 646.214 0.0776327 1.96046 0
M  V30 6797 O 645.339 -0.823571 2.00116 0
M  V30 6798 C 645.934 2.506 2.28002 0
M  V30 6799 C 644.493 2.49767 2.81591 0
M  V30 6800 C 643.64 2.293 1.55938 0
M  V30 6801 H 646.591 1.51695 0.466288 0
M  V30 6802 H 646.612 2.20953 3.09774 0
M  V30 6803 H 646.124 3.45627 1.76532 0
M  V30 6804 H 644.225 1.58563 3.37177 0
M  V30 6805 H 644.338 3.46867 3.30485 0
M  V30 6806 H 642.702 1.77594 1.82572 0
M  V30 6807 H 643.485 3.26385 1.06431 0
M  V30 6808 N 645.93 -0.909495 1.28709 0
M  V30 6809 C 646.84 -2.04558 1.14861 0
M  V30 6810 C 647.856 -1.73842 0.0741621 0
M  V30 6811 O 649.032 -1.99383 0.2843 0
M  V30 6812 C 646.097 -3.36957 0.816148 0
M  V30 6813 C 645.158 -3.81255 1.97341 0
M  V30 6814 C 644.391 -5.07335 1.65671 0
M  V30 6815 O 644.614 -5.67514 0.573053 0
M  V30 6816 O 643.548 -5.47449 2.50167 0
M  V30 6817 H 647.374 -2.19161 2.10243 0
M  V30 6818 H 644.959 -1.03159 1.08068 0
M  V30 6819 H 646.841 -4.16436 0.644873 0
M  V30 6820 H 645.516 -3.2352 -0.107983 0
M  V30 6821 H 644.423 -3.02584 2.19986 0
M  V30 6822 H 645.756 -3.99261 2.87839 0
M  V30 6823 N 647.408 -1.11026 -1.11852 0
M  V30 6824 C 648.318 -0.777252 -2.2135 0
M  V30 6825 C 649.334 0.227821 -1.72502 0
M  V30 6826 O 650.51 0.0650587 -2.01295 0
M  V30 6827 C 647.575 -0.220668 -3.45997 0
M  V30 6828 C 646.636 -1.2838 -4.09655 0
M  V30 6829 C 645.869 -0.753678 -5.28352 0
M  V30 6830 O 646.092 0.417779 -5.68868 0
M  V30 6831 O 645.026 -1.51647 -5.82483 0
M  V30 6832 H 648.852 -1.69141 -2.5224 0
M  V30 6833 H 646.437 -0.885836 -1.20305 0
M  V30 6834 H 648.319 0.0855756 -4.21313 0
M  V30 6835 H 646.994 0.666262 -3.16769 0
M  V30 6836 H 645.901 -1.64299 -3.3609 0
M  V30 6837 H 647.234 -2.14396 -4.43052 0
M  V30 6838 N 648.886 1.2938 -0.899927 0
M  V30 6839 C 650.302 1.48052 -0.596059 0
M  V30 6840 C 650.502 1.82114 0.862372 0
M  V30 6841 O 649.558 1.91774 1.64253 0
M  V30 6842 C 650.871 2.59332 -1.52208 0
M  V30 6843 C 652.419 2.73208 -1.5273 0
M  V30 6844 C 652.894 3.87617 -2.43961 0
M  V30 6845 N 654.385 3.9495 -2.42009 0
M  V30 6846 C 655.12 4.82824 -3.09303 0
M  V30 6847 N 654.616 5.75387 -3.85877 0
M  V30 6848 N 656.409 4.76317 -2.98459 0
M  V30 6849 H 648.56 1.05546 -1.8432 0
M  V30 6850 H 650.823 0.524314 -0.78981 0
M  V30 6851 H 650.529 2.41029 -2.56121 0
M  V30 6852 H 650.403 3.56139 -1.24278 0
M  V30 6853 H 652.79 2.90908 -0.495614 0
M  V30 6854 H 652.871 1.76975 -1.84698 0
M  V30 6855 H 652.515 3.70672 -3.47224 0
M  V30 6856 H 652.445 4.83218 -2.09303 0
M  V30 6857 H 654.936 3.28744 -1.86375 0
M  V30 6858 H 655.249 6.39235 -4.34279 0
M  V30 6859 H 653.594 5.75272 -3.89984 0
M  V30 6860 H 656.785 4.0299 -2.38152 0
M  V30 6861 H 656.958 5.44589 -3.51179 0
M  V30 6862 N 650.364 0.662433 1.43002 0
M  V30 6863 C 651.274 -0.0239199 2.34588 0
M  V30 6864 C 652.29 -0.802255 1.54402 0
M  V30 6865 O 653.466 -0.747401 1.87018 0
M  V30 6866 C 650.531 -0.972098 3.32793 0
M  V30 6867 C 649.592 -0.189673 4.28881 0
M  V30 6868 C 648.825 -1.09269 5.22395 0
M  V30 6869 O 649.048 -2.33209 5.20547 0
M  V30 6870 O 647.982 -0.560136 5.99288 0
M  V30 6871 H 651.808 0.730171 2.94792 0
M  V30 6872 H 649.393 0.422635 1.43297 0
M  V30 6873 H 651.275 -1.51676 3.93157 0
M  V30 6874 H 649.95 -1.70626 2.75079 0
M  V30 6875 H 648.857 0.398794 3.71968 0
M  V30 6876 H 650.19 0.50511 4.89601 0
M  V30 6877 N 651.842 -1.52309 0.404946 0
M  V30 6878 C 652.752 -2.30634 -0.429555 0
M  V30 6879 C 653.768 -1.38187 -1.05737 0
M  V30 6880 O 654.944 -1.71261 -1.05979 0
M  V30 6881 C 652.009 -3.10947 -1.53339 0
M  V30 6882 C 651.07 -4.19126 -0.929065 0
M  V30 6883 C 650.303 -4.95601 -1.9803 0
M  V30 6884 O 650.526 -4.72331 -3.1978 0
M  V30 6885 O 649.46 -5.80551 -1.58886 0
M  V30 6886 H 653.286 -3.0298 0.208963 0
M  V30 6887 H 650.871 -1.4845 0.168255 0
M  V30 6888 H 652.753 -3.60974 -2.1743 0
M  V30 6889 H 651.428 -2.41399 -2.15658 0
M  V30 6890 H 650.335 -3.73257 -0.250982 0
M  V30 6891 H 651.668 -4.90955 -0.349855 0
M  V30 6892 N 653.32 -0.135238 -1.57019 0
M  V30 6893 C 654.736 0.221262 -1.58059 0
M  V30 6894 C 654.936 1.65538 -1.14889 0
M  V30 6895 O 653.992 2.37985 -0.843751 0
M  V30 6896 C 655.305 -0.0268114 -3.00688 0
M  V30 6897 C 656.853 0.0378206 -3.12977 0
M  V30 6898 C 657.328 -0.182769 -4.57635 0
M  V30 6899 N 658.819 -0.129292 -4.6302 0
M  V30 6900 C 659.554 -0.274648 -5.72742 0
M  V30 6901 N 659.05 -0.477075 -6.91155 0
M  V30 6902 N 660.843 -0.213077 -5.61696 0
M  V30 6903 H 652.994 -1.07177 -1.83376 0
M  V30 6904 H 655.257 -0.423338 -0.848227 0
M  V30 6905 H 654.963 -1.01889 -3.36618 0
M  V30 6906 H 654.837 0.697863 -3.70688 0
M  V30 6907 H 657.224 1.02043 -2.76896 0
M  V30 6908 H 657.305 -0.718996 -2.45487 0
M  V30 6909 H 656.949 -1.16243 -4.94419 0
M  V30 6910 H 656.879 0.59423 -5.23237 0
M  V30 6911 H 659.37 0.0229896 -3.77893 0
M  V30 6912 H 659.683 -0.578413 -7.70632 0
M  V30 6913 H 658.028 -0.513252 -6.93102 0
M  V30 6914 H 661.219 -0.0557796 -4.68067 0
M  V30 6915 H 661.392 -0.329796 -6.4716 0
M  V30 6916 N 654.798 1.5699 0.138552 0
M  V30 6917 C 656.047 1.82998 0.848205 0
M  V30 6918 C 656.36 0.717829 1.81952 0
M  V30 6919 O 657.566 0.863756 2.57394 0
M  V30 6920 C 656.022 3.24379 1.55904 0
M  V30 6921 C 655.63 4.43552 0.62971 0
M  V30 6922 C 657.374 3.59654 2.25498 0
M  V30 6923 C 655.281 5.75957 1.34266 0
M  V30 6924 H 654.211 0.682495 0.320495 0
M  V30 6925 H 656.862 1.83222 0.100924 0
M  V30 6926 H 655.244 3.18567 2.35226 0
M  V30 6927 H 656.418 4.6062 -0.128882 0
M  V30 6928 H 654.733 4.16379 0.0417526 0
M  V30 6929 H 657.33 4.55837 2.79493 0
M  V30 6930 H 657.673 2.86124 3.02388 0
M  V30 6931 H 658.206 3.67164 1.53087 0
M  V30 6932 H 654.945 6.52604 0.615441 0
M  V30 6933 H 654.465 5.62811 2.07375 0
M  V30 6934 H 656.144 6.19046 1.88126 0
M  V30 6935 N 656.276 -0.40816 1.52223 0
M  V30 6936 C 657.692 -0.74685 1.41047 0
M  V30 6937 C 657.892 -1.94788 0.51573 0
M  V30 6938 O 656.948 -2.52494 -0.0181156 0
M  V30 6939 C 658.261 -0.999878 2.83589 0
M  V30 6940 C 659.809 -1.10253 2.92939 0
M  V30 6941 C 660.284 -1.38832 4.36451 0
M  V30 6942 N 661.775 -1.45694 4.3969 0
M  V30 6943 C 662.51 -1.69435 5.47795 0
M  V30 6944 N 662.006 -1.90774 6.66016 0
M  V30 6945 N 663.799 -1.71458 5.35312 0
M  V30 6946 H 655.95 0.382409 2.08929 0
M  V30 6947 H 658.213 0.108807 0.941735 0
M  V30 6948 H 657.919 -0.189723 3.51188 0
M  V30 6949 H 657.793 -1.91978 3.24691 0
M  V30 6950 H 660.18 -1.90328 2.2552 0
M  V30 6951 H 660.261 -0.160973 2.55293 0
M  V30 6952 H 659.905 -0.592741 5.04429 0
M  V30 6953 H 659.835 -2.34241 4.71634 0
M  V30 6954 H 662.326 -1.3099 3.54472 0
M  V30 6955 H 662.639 -2.08342 7.44186 0
M  V30 6956 H 660.984 -1.88037 6.69079 0
M  V30 6957 H 664.175 -1.54326 4.41929 0
M  V30 6958 H 664.348 -1.89621 6.19635 0
M  V30 6959 N 657.755 -1.42862 -0.66545 0
M  V30 6960 C 659.171 -1.25993 -0.979687 0
M  V30 6961 C 659.371 -0.170831 -2.00775 0
M  V30 6962 O 658.427 0.454827 -2.4837 0
M  V30 6963 C 659.74 -2.62005 -1.47559 0
M  V30 6964 C 661.288 -2.69437 -1.59288 0
M  V30 6965 C 661.763 -4.05838 -2.12272 0
M  V30 6966 N 663.254 -4.0784 -2.19592 0
M  V30 6967 C 663.989 -5.10205 -2.61684 0
M  V30 6968 N 663.485 -6.22949 -3.03161 0
M  V30 6969 N 665.278 -4.9756 -2.61516 0
M  V30 6970 H 657.429 -2.12395 0.0150493 0
M  V30 6971 H 659.692 -0.946355 -0.0558187 0
M  V30 6972 H 659.398 -3.42605 -0.794654 0
M  V30 6973 H 659.272 -2.86566 -2.45275 0
M  V30 6974 H 661.659 -1.89178 -2.26486 0
M  V30 6975 H 661.74 -2.48655 -0.600374 0
M  V30 6976 H 661.384 -4.86559 -1.4568 0
M  V30 6977 H 661.314 -4.23977 -3.12331 0
M  V30 6978 H 663.805 -3.26452 -1.90361 0
M  V30 6979 H 664.118 -6.96899 -3.33993 0
M  V30 6980 H 662.463 -6.2644 -3.00995 0
M  V30 6981 H 665.654 -4.08551 -2.28481 0
M  V30 6982 H 665.827 -5.77468 -2.93999 0
M  V30 6983 N 659.233 0.902656 -1.29189 0
M  V30 6984 C 660.143 2.03946 -1.15944 0
M  V30 6985 C 661.159 1.738 -0.0833803 0
M  V30 6986 O 662.335 1.9923 -0.29487 0
M  V30 6987 C 659.4 3.36519 -0.834006 0
M  V30 6988 C 658.461 3.80203 -1.9936 0
M  V30 6989 C 657.694 5.06449 -1.68359 0
M  V30 6990 O 657.917 5.67202 -0.603141 0
M  V30 6991 O 656.851 5.46114 -2.53067 0
M  V30 6992 H 660.677 2.18043 -2.11403 0
M  V30 6993 H 658.262 1.02584 -1.08613 0
M  V30 6994 H 660.144 4.16089 -0.666949 0
M  V30 6995 H 658.819 3.23573 0.0908245 0
M  V30 6996 H 657.726 3.01413 -2.21588 0
M  V30 6997 H 659.059 3.97729 -2.89952 0
M  V30 6998 N 660.711 1.11618 1.11262 0
M  V30 6999 C 661.939 0.888739 1.8684 0
M  V30 7000 C 662.354 -0.561558 1.80255 0
M  V30 7001 O 661.711 -1.38782 1.18515 0
M  V30 7002 C 661.762 1.34422 3.35579 0
M  V30 7003 O 661.483 2.73766 3.42029 0
M  V30 7004 C 662.984 1.15246 4.28058 0
M  V30 7005 H 660.204 0.318152 0.590779 0
M  V30 7006 H 662.748 1.48398 1.40707 0
M  V30 7007 H 660.903 0.79239 3.7921 0
M  V30 7008 H 661.317 2.9355 4.34659 0
M  V30 7009 H 662.791 1.52015 5.30656 0
M  V30 7010 H 663.268 0.0922007 4.39103 0
M  V30 7011 H 663.874 1.69136 3.90222 0
M  V30 7012 N 662.189 -1.289 0.906776 0
M  V30 7013 C 663.099 -2.31256 0.394707 0
M  V30 7014 C 664.115 -1.66231 -0.514121 0
M  V30 7015 O 665.291 -1.97347 -0.401994 0
M  V30 7016 C 662.356 -3.44792 -0.363191 0
M  V30 7017 C 661.417 -4.25391 0.578012 0
M  V30 7018 C 660.65 -5.33506 -0.143811 0
M  V30 7019 O 660.873 -5.53786 -1.36665 0
M  V30 7020 O 659.807 -5.99673 0.5173 0
M  V30 7021 H 663.633 -2.77051 1.24405 0
M  V30 7022 H 661.218 -1.33466 0.671346 0
M  V30 7023 H 663.1 -4.139 -0.791503 0
M  V30 7024 H 661.775 -3.01093 -1.18848 0
M  V30 7025 H 660.682 -3.58899 1.05558 0
M  V30 7026 H 662.015 -4.72752 1.36992 0
M  V30 7027 N 663.667 -0.670007 -1.42649 0
M  V30 7028 C 664.577 0.0114788 -2.34597 0
M  V30 7029 C 665.593 0.794055 -1.54825 0
M  V30 7030 O 666.769 0.737472 -1.87412 0
M  V30 7031 C 663.834 0.954436 -3.33304 0
M  V30 7032 C 662.895 0.166925 -4.28975 0
M  V30 7033 C 662.128 1.06497 -5.22967 0
M  V30 7034 O 662.351 2.30446 -5.21777 0
M  V30 7035 O 661.285 0.528347 -5.99577 0
M  V30 7036 H 665.111 -0.745794 -2.944 0
M  V30 7037 H 662.696 -0.430228 -1.43071 0
M  V30 7038 H 664.578 1.49589 -3.93956 0
M  V30 7039 H 663.253 1.69164 -2.7598 0
M  V30 7040 H 662.16 -0.418515 -3.71752 0
M  V30 7041 H 663.493 -0.531067 -4.89327 0
M  V30 7042 N 665.145 1.52092 -0.413018 0
M  V30 7043 C 666.092 2.27119 0.410558 0
M  V30 7044 C 667.062 1.29692 1.03774 0
M  V30 7045 O 668.247 1.58561 1.06128 0
M  V30 7046 C 665.387 3.09863 1.51918 0
M  V30 7047 C 664.5 4.22252 0.912528 0
M  V30 7048 C 663.635 4.92348 1.99417 0
M  V30 7049 C 662.674 5.96694 1.36466 0
M  V30 7050 N 661.811 6.60292 2.38661 0
M  V30 7051 H 666.651 2.97067 -0.235661 0
M  V30 7052 H 664.188 1.46542 -0.128055 0
M  V30 7053 H 666.146 3.56144 2.17295 0
M  V30 7054 H 664.776 2.42078 2.13537 0
M  V30 7055 H 663.828 3.80113 0.147697 0
M  V30 7056 H 665.14 4.9709 0.412717 0
M  V30 7057 H 664.294 5.42054 2.72512 0
M  V30 7058 H 663.033 4.17087 2.52764 0
M  V30 7059 H 662.038 5.46304 0.61906 0
M  V30 7060 H 663.263 6.73899 0.838827 0
M  V30 7061 H 661.209 5.87858 2.91134 0
M  V30 7062 H 661.126 7.30816 1.93503 0
M  V30 7063 H 662.394 7.14635 3.11314 0
M  V30 7064 N 666.623 0.143563 1.56945 0
M  V30 7065 C 667.533 -0.810562 2.20152 0
M  V30 7066 C 668.549 -1.27431 1.1848 0
M  V30 7067 O 669.725 -1.33221 1.51044 0
M  V30 7068 C 666.79 -2.03353 2.80799 0
M  V30 7069 C 665.851 -1.61936 3.97587 0
M  V30 7070 C 665.084 -2.78403 4.55332 0
M  V30 7071 O 665.307 -3.94521 4.11958 0
M  V30 7072 O 664.241 -2.54073 5.45647 0
M  V30 7073 H 668.067 -0.30253 3.02189 0
M  V30 7074 H 665.652 -0.0832925 1.49168 0
M  V30 7075 H 667.534 -2.74932 3.19359 0
M  V30 7076 H 666.209 -2.53116 2.01777 0
M  V30 7077 H 665.116 -0.873904 3.6375 0
M  V30 7078 H 666.449 -1.16892 4.78118 0
M  V30 7079 N 668.101 -1.57061 -0.130224 0
M  V30 7080 C 669.011 -2.02802 -1.17934 0
M  V30 7081 C 670.027 -0.946378 -1.46013 0
M  V30 7082 O 671.203 -1.25708 -1.57351 0
M  V30 7083 C 668.268 -2.41368 -2.48882 0
M  V30 7084 C 667.329 -3.63561 -2.28301 0
M  V30 7085 C 666.562 -4.00279 -3.53005 0
M  V30 7086 O 666.785 -3.37463 -4.59864 0
M  V30 7087 O 665.719 -4.93441 -3.44673 0
M  V30 7088 H 669.545 -2.92394 -0.820958 0
M  V30 7089 H 667.13 -1.45475 -0.340197 0
M  V30 7090 H 669.012 -2.66958 -3.26054 0
M  V30 7091 H 667.687 -1.54926 -2.84217 0
M  V30 7092 H 666.594 -3.43136 -1.49025 0
M  V30 7093 H 667.927 -4.50673 -1.97875 0
M  V30 7094 N 669.579 0.400081 -1.52437 0
M  V30 7095 C 670.995 0.739359 -1.41441 0
M  V30 7096 C 671.195 1.94512 -0.526053 0
M  V30 7097 O 670.251 2.525 0.00472502 0
M  V30 7098 C 671.564 0.984824 -2.84116 0
M  V30 7099 C 673.112 1.08698 -2.93519 0
M  V30 7100 C 673.587 1.36515 -4.37181 0
M  V30 7101 N 675.078 1.43361 -4.40457 0
M  V30 7102 C 675.813 1.66528 -5.48686 0
M  V30 7103 N 675.309 1.87239 -6.67018 0
M  V30 7104 N 677.102 1.68617 -5.36213 0
M  V30 7105 H 669.253 -0.393484 -2.08723 0
M  V30 7106 H 671.516 -0.1138 -0.941145 0
M  V30 7107 H 671.222 0.171096 -3.51284 0
M  V30 7108 H 671.096 1.90253 -3.25705 0
M  V30 7109 H 673.483 1.89129 -2.26526 0
M  V30 7110 H 673.564 0.147432 -2.55375 0
M  V30 7111 H 673.208 0.565982 -5.04737 0
M  V30 7112 H 673.138 2.31737 -4.7287 0
M  V30 7113 H 675.629 1.29108 -3.55161 0
M  V30 7114 H 675.942 2.04392 -7.45281 0
M  V30 7115 H 674.287 1.84486 -6.70067 0
M  V30 7116 H 677.478 1.5198 -4.42741 0
M  V30 7117 H 677.651 1.86332 -6.20632 0
M  V30 7118 N 671.057 1.43213 0.657864 0
M  V30 7119 C 672.473 1.26511 0.972992 0
M  V30 7120 C 672.673 0.181477 2.00681 0
M  V30 7121 O 671.729 -0.441649 2.48608 0
M  V30 7122 C 673.042 2.62784 1.46168 0
M  V30 7123 C 674.59 2.70278 1.57857 0
M  V30 7124 C 675.065 4.06958 2.10117 0
M  V30 7125 N 676.556 4.08999 2.17426 0
M  V30 7126 C 677.291 5.11585 2.58975 0
M  V30 7127 N 676.787 6.24548 2.99853 0
M  V30 7128 N 678.58 4.9894 2.58873 0
M  V30 7129 H 670.731 2.12384 -0.0263129 0
M  V30 7130 H 672.994 0.946638 0.0507992 0
M  V30 7131 H 672.7 3.43022 0.776474 0
M  V30 7132 H 672.574 2.87863 2.43751 0
M  V30 7133 H 674.961 1.90376 2.25479 0
M  V30 7134 H 675.042 2.4897 0.587179 0
M  V30 7135 H 674.686 4.87325 1.43098 0
M  V30 7136 H 674.616 4.25628 3.10078 0
M  V30 7137 H 677.107 3.27457 1.88627 0
M  V30 7138 H 677.42 6.98661 3.30292 0
M  V30 7139 H 675.765 6.28027 2.97669 0
M  V30 7140 H 678.956 4.09757 2.26311 0
M  V30 7141 H 679.129 5.79019 2.90932 0
M  V30 7142 N 672.536 -0.895792 1.29666 0
M  V30 7143 C 673.952 -1.17726 1.07763 0
M  V30 7144 C 674.152 -2.00794 -0.168576 0
M  V30 7145 O 673.208 -2.37213 -0.865244 0
M  V30 7146 C 674.521 -1.89441 2.33522 0
M  V30 7147 C 676.069 -2.02251 2.3888 0
M  V30 7148 C 676.544 -2.77378 3.64452 0
M  V30 7149 N 678.035 -2.8493 3.65198 0
M  V30 7150 C 678.77 -3.43606 4.59045 0
M  V30 7151 N 678.266 -4.03417 5.63228 0
M  V30 7152 N 680.059 -3.41317 4.46608 0
M  V30 7153 H 672.21 -0.341652 2.09634 0
M  V30 7154 H 674.473 -0.213865 0.923561 0
M  V30 7155 H 674.179 -1.35842 3.24407 0
M  V30 7156 H 674.053 -2.89893 2.41334 0
M  V30 7157 H 676.44 -2.55025 1.4848 0
M  V30 7158 H 676.521 -1.0092 2.3505 0
M  V30 7159 H 676.165 -2.25279 4.55205 0
M  V30 7160 H 676.095 -3.79062 3.65541 0
M  V30 7161 H 678.586 -2.42453 2.89871 0
M  V30 7162 H 678.899 -4.46224 6.30955 0
M  V30 7163 H 677.244 -4.01868 5.67033 0
M  V30 7164 H 680.435 -2.93812 3.64407 0
M  V30 7165 H 680.608 -3.86751 5.1993 0
M  V30 7166 N 674.014 -1.12206 -1.10668 0
M  V30 7167 C 675.242 -0.898635 -1.86366 0
M  V30 7168 C 675.657 0.551991 -1.80551 0
M  V30 7169 O 675.014 1.38152 -1.19249 0
M  V30 7170 C 675.065 -1.36199 -3.34861 0
M  V30 7171 O 674.786 -2.75576 -3.40573 0
M  V30 7172 C 676.287 -1.17515 -4.2744 0
M  V30 7173 H 673.507 -0.321281 -0.589084 0
M  V30 7174 H 676.051 -1.49142 -1.39918 0
M  V30 7175 H 674.206 -0.81249 -3.78784 0
M  V30 7176 H 674.62 -2.95851 -4.33096 0
M  V30 7177 H 676.094 -1.54827 -5.29842 0
M  V30 7178 H 676.571 -0.115486 -4.39048 0
M  V30 7179 H 677.177 -1.71203 -3.89319 0
M  V30 7180 N 675.492 1.28418 -0.913599 0
M  V30 7181 C 676.402 2.31043 -0.406965 0
M  V30 7182 C 677.418 1.66501 0.505298 0
M  V30 7183 O 678.594 1.97558 0.391522 0
M  V30 7184 C 675.659 3.4498 0.344901 0
M  V30 7185 C 674.72 4.25078 -0.600563 0
M  V30 7186 C 673.953 5.33575 0.115516 0
M  V30 7187 O 674.176 5.54503 1.33727 0
M  V30 7188 O 673.11 5.9939 -0.549095 0
M  V30 7189 H 676.936 2.76387 -1.25873 0
M  V30 7190 H 674.521 1.33109 -0.678415 0
M  V30 7191 H 676.403 4.14314 0.769542 0
M  V30 7192 H 675.078 3.01719 1.1725 0
M  V30 7193 H 673.985 3.58334 -1.0746 0
M  V30 7194 H 675.318 4.72018 -1.39497 0
M  V30 7195 N 676.97 0.677563 1.42291 0
M  V30 7196 C 678.247 0.129803 1.95169 0
M  V30 7197 C 678.627 -1.35605 1.61786 0
M  V30 7198 O 677.975 -2.09361 0.915444 0
M  V30 7199 C 678.185 0.401889 3.46678 0
M  V30 7200 C 679.533 0.319889 4.23393 0
M  V30 7201 O 680.557 0.33579 3.54614 0
M  V30 7202 O 679.416 0.264459 5.4586 0
M  V30 7203 H 676.51 0.00447433 0.826988 0
M  V30 7204 H 679.056 0.752483 1.52105 0
M  V30 7205 H 677.828 1.43108 3.64192 0
M  V30 7206 H 677.451 -0.252662 3.96796 0
M  V30 7207 N 678.448 -1.51871 0.421078 0
M  V30 7208 C 679.358 -2.31077 -0.405069 0
M  V30 7209 C 680.374 -1.39301 -1.04265 0
M  V30 7210 O 681.55 -1.72376 -1.04157 0
M  V30 7211 C 678.615 -3.12556 -1.50032 0
M  V30 7212 C 677.676 -4.20088 -0.884559 0
M  V30 7213 C 676.909 -4.97673 -1.92762 0
M  V30 7214 O 677.132 -4.75696 -3.14753 0
M  V30 7215 O 676.066 -5.82203 -1.52719 0
M  V30 7216 H 679.892 -3.02742 0.241086 0
M  V30 7217 H 677.477 -1.48263 0.183991 0
M  V30 7218 H 679.359 -3.6326 -2.13589 0
M  V30 7219 H 678.034 -2.43672 -2.13086 0
M  V30 7220 H 676.941 -3.73502 -0.211379 0
M  V30 7221 H 678.274 -4.91298 -0.297763 0
M  V30 7222 N 679.926 -0.151884 -1.56866 0
M  V30 7223 C 680.858 0.817008 -2.14144 0
M  V30 7224 C 681.871 1.20735 -1.0921 0
M  V30 7225 O 683.06 1.15058 -1.36469 0
M  V30 7226 C 680.16 2.10844 -2.65326 0
M  V30 7227 C 679.333 1.88471 -3.94712 0
M  V30 7228 C 678.392 3.01649 -4.31155 0
M  V30 7229 O 677.418 2.73127 -4.9939 0
M  V30 7230 N 678.62 4.28947 -3.91132 0
M  V30 7231 H 681.385 0.327448 -2.97906 0
M  V30 7232 H 678.946 0.0315313 -1.61869 0
M  V30 7233 H 680.938 2.85616 -2.86715 0
M  V30 7234 H 679.508 2.51049 -1.86262 0
M  V30 7235 H 678.728 0.977088 -3.81899 0
M  V30 7236 H 680.016 1.70866 -4.79252 0
M  V30 7237 H 679.414 4.54986 -3.36161 0
M  V30 7238 H 677.971 5.00484 -4.17563 0
M  V30 7239 N 681.404 1.57128 0.121893 0
M  V30 7240 C 682.351 2.0013 1.14964 0
M  V30 7241 C 683.321 0.872959 1.4131 0
M  V30 7242 O 684.506 1.13696 1.53225 0
M  V30 7243 C 681.646 2.40824 2.4718 0
M  V30 7244 C 680.759 3.67061 2.27794 0
M  V30 7245 C 679.894 3.96749 3.53219 0
M  V30 7246 C 678.933 5.16178 3.28978 0
M  V30 7247 N 678.07 5.41751 4.46599 0
M  V30 7248 H 682.91 2.8772 0.775947 0
M  V30 7249 H 680.447 1.42328 0.371652 0
M  V30 7250 H 682.405 2.62454 3.24305 0
M  V30 7251 H 681.035 1.56279 2.82448 0
M  V30 7252 H 680.087 3.53063 1.416 0
M  V30 7253 H 681.399 4.5434 2.05857 0
M  V30 7254 H 680.553 4.19012 4.38764 0
M  V30 7255 H 679.292 3.07941 3.78185 0
M  V30 7256 H 678.297 4.93762 2.41824 0
M  V30 7257 H 679.522 6.06561 3.05386 0
M  V30 7258 H 677.468 4.55899 4.71691 0
M  V30 7259 H 677.385 6.23347 4.27756 0
M  V30 7260 H 678.653 5.68531 5.33285 0
M  V30 7261 N 682.882 -0.391992 1.52647 0
M  V30 7262 C 683.792 -1.503 1.80131 0
M  V30 7263 C 684.808 -1.59825 0.687882 0
M  V30 7264 O 685.984 -1.76218 0.975149 0
M  V30 7265 C 683.049 -2.85863 1.96171 0
M  V30 7266 C 682.11 -2.86084 3.20085 0
M  V30 7267 C 681.343 -4.15181 3.35351 0
M  V30 7268 O 681.566 -5.09981 2.55491 0
M  V30 7269 O 680.5 -4.22603 4.28591 0
M  V30 7270 H 684.326 -1.30007 2.74466 0
M  V30 7271 H 681.911 -0.579539 1.37701 0
M  V30 7272 H 683.793 -3.66236 2.08445 0
M  V30 7273 H 682.468 -3.06189 1.05025 0
M  V30 7274 H 681.375 -2.04504 3.13256 0
M  V30 7275 H 682.708 -2.7071 4.11068 0
M  V30 7276 N 684.36 -1.4356 -0.65026 0
M  V30 7277 C 685.307 -1.48948 -1.76304 0
M  V30 7278 C 686.277 -0.338919 -1.62605 0
M  V30 7279 O 687.462 -0.54649 -1.82806 0
M  V30 7280 C 684.602 -1.42131 -3.14472 0
M  V30 7281 C 683.715 -2.67415 -3.39284 0
M  V30 7282 C 682.85 -2.52565 -4.67316 0
M  V30 7283 C 681.889 -3.73103 -4.85243 0
M  V30 7284 N 681.026 -3.57046 -6.04535 0
M  V30 7285 H 685.866 -2.44032 -1.71034 0
M  V30 7286 H 683.403 -1.21131 -0.834601 0
M  V30 7287 H 685.361 -1.36172 -3.94351 0
M  V30 7288 H 683.991 -0.506273 -3.18805 0
M  V30 7289 H 683.043 -2.8364 -2.53481 0
M  V30 7290 H 684.355 -3.56943 -3.48415 0
M  V30 7291 H 683.509 -2.44331 -5.55326 0
M  V30 7292 H 682.248 -1.60566 -4.60511 0
M  V30 7293 H 681.253 -3.81743 -3.95667 0
M  V30 7294 H 682.478 -4.66115 -4.93876 0
M  V30 7295 H 680.424 -2.67783 -5.98856 0
M  V30 7296 H 680.341 -4.40178 -6.14638 0
M  V30 7297 H 681.609 -3.52669 -6.95158 0
M  V30 7298 N 685.838 0.888903 -1.30139 0
M  V30 7299 C 686.748 2.02705 -1.18101 0
M  V30 7300 C 687.764 1.73702 -0.101809 0
M  V30 7301 O 688.94 1.98906 -0.315984 0
M  V30 7302 C 686.005 3.35616 -0.869651 0
M  V30 7303 C 685.066 3.78067 -2.03381 0
M  V30 7304 C 684.299 5.04635 -1.73721 0
M  V30 7305 O 684.522 5.66531 -0.663267 0
M  V30 7306 O 683.456 5.43399 -2.58845 0
M  V30 7307 H 687.282 2.15788 -2.13704 0
M  V30 7308 H 684.867 1.01426 -1.09695 0
M  V30 7309 H 686.749 4.15358 -0.711043 0
M  V30 7310 H 685.424 3.23651 0.0565002 0
M  V30 7311 H 684.331 2.99046 -2.24772 0
M  V30 7312 H 685.664 3.94631 -2.94155 0
M  V30 7313 N 687.317 1.12792 1.10072 0
M  V30 7314 C 688.733 0.864745 1.34143 0
M  V30 7315 C 688.933 -0.503201 1.95116 0
M  V30 7316 O 687.989 -1.25111 2.19325 0
M  V30 7317 C 689.302 1.98413 2.25949 0
M  V30 7318 C 690.85 2.01545 2.39476 0
M  V30 7319 C 691.325 3.12727 3.34613 0
M  V30 7320 N 692.816 3.12194 3.42183 0
M  V30 7321 C 693.551 3.94862 4.15779 0
M  V30 7322 N 693.047 4.87528 4.92228 0
M  V30 7323 N 694.84 3.82985 4.11435 0
M  V30 7324 H 686.991 2.00926 0.68866 0
M  V30 7325 H 689.254 0.874564 0.365844 0
M  V30 7326 H 688.96 2.97005 1.88364 0
M  V30 7327 H 688.834 1.89254 3.26287 0
M  V30 7328 H 691.221 1.0357 2.76328 0
M  V30 7329 H 691.302 2.14777 1.3894 0
M  V30 7330 H 690.946 4.10936 2.98486 0
M  V30 7331 H 690.876 2.96732 4.35037 0
M  V30 7332 H 693.367 2.45065 2.87666 0
M  V30 7333 H 693.68 5.47109 5.45794 0
M  V30 7334 H 692.025 4.91539 4.9134 0
M  V30 7335 H 695.216 3.09923 3.50807 0
M  V30 7336 H 695.389 4.47641 4.68531 0
M  V30 7337 N 688.795 -1.27931 0.920396 0
M  V30 7338 C 690.072 -1.89728 0.475687 0
M  V30 7339 C 690.452 -1.8337 -1.04588 0
M  V30 7340 O 689.8 -1.27404 -1.89685 0
M  V30 7341 C 690.01 -3.33959 1.01354 0
M  V30 7342 C 691.358 -4.10907 1.06963 0
M  V30 7343 O 692.382 -3.42945 0.962646 0
M  V30 7344 O 691.241 -5.32399 1.23343 0
M  V30 7345 H 688.335 -0.81294 0.151845 0
M  V30 7346 H 690.881 -1.36252 1.01161 0
M  V30 7347 H 689.653 -3.32843 2.05746 0
M  V30 7348 H 689.276 -3.94944 0.458829 0
M  V30 7349 N 690.273 -0.685099 -1.4193 0
M  V30 7350 C 691.689 -0.355632 -1.55587 0
M  V30 7351 C 691.889 1.13823 -1.66273 0
M  V30 7352 O 690.945 1.92387 -1.63534 0
M  V30 7353 C 692.258 -1.09498 -2.80055 0
M  V30 7354 C 693.806 -1.07831 -2.93839 0
M  V30 7355 C 694.281 -1.79919 -4.21181 0
M  V30 7356 N 695.772 -1.76837 -4.28115 0
M  V30 7357 C 696.507 -2.29463 -5.25485 0
M  V30 7358 N 696.003 -2.90516 -6.28945 0
M  V30 7359 N 697.796 -2.19779 -5.17353 0
M  V30 7360 H 689.947 -1.65412 -1.33239 0
M  V30 7361 H 692.21 -0.697453 -0.642078 0
M  V30 7362 H 691.916 -2.14997 -2.78333 0
M  V30 7363 H 691.79 -0.666813 -3.71259 0
M  V30 7364 H 694.177 -0.0316152 -2.95083 0
M  V30 7365 H 694.258 -1.54545 -2.03837 0
M  V30 7366 H 693.902 -2.84562 -4.20698 0
M  V30 7367 H 693.832 -1.30647 -5.10136 0
M  V30 7368 H 696.323 -1.32315 -3.53979 0
M  V30 7369 H 696.636 -3.28266 -6.99615 0
M  V30 7370 H 694.981 -2.94589 -6.29478 0
M  V30 7371 H 698.172 -1.71763 -4.35448 0
M  V30 7372 H 698.345 -2.61097 -5.9307 0
M  V30 7373 N 691.751 1.51645 -0.429126 0
M  V30 7374 C 693.167 1.59394 -0.080994 0
M  V30 7375 C 693.367 1.44064 1.40882 0
M  V30 7376 O 692.423 1.27771 2.17786 0
M  V30 7377 C 693.736 2.94779 -0.593773 0
M  V30 7378 C 695.284 3.08067 -0.553494 0
M  V30 7379 C 695.759 4.45963 -1.04311 0
M  V30 7380 N 697.25 4.5226 -1.00076 0
M  V30 7381 C 697.985 5.57268 -1.35056 0
M  V30 7382 N 697.481 6.69734 -1.77282 0
M  V30 7383 N 699.274 5.47582 -1.26925 0
M  V30 7384 H 691.425 1.59856 -1.39857 0
M  V30 7385 H 693.688 0.753095 -0.575805 0
M  V30 7386 H 693.394 3.11342 -1.63583 0
M  V30 7387 H 693.268 3.77197 -0.0142202 0
M  V30 7388 H 695.655 2.91177 0.479556 0
M  V30 7389 H 695.736 2.27508 -1.16935 0
M  V30 7390 H 695.38 4.63598 -2.07459 0
M  V30 7391 H 695.31 5.25049 -0.403873 0
M  V30 7392 H 697.801 3.71537 -0.690564 0
M  V30 7393 H 698.114 7.4587 -2.02232 0
M  V30 7394 H 696.459 6.70963 -1.81202 0
M  V30 7395 H 699.65 4.58604 -0.93809 0
M  V30 7396 H 699.823 6.29308 -1.54516 0
M  V30 7397 N 693.229 0.160201 1.56784 0
M  V30 7398 C 694.645 -0.196089 1.58391 0
M  V30 7399 C 694.845 -1.63689 1.17508 0
M  V30 7400 O 693.901 -2.36613 0.881506 0
M  V30 7401 C 695.214 0.0746449 3.00607 0
M  V30 7402 C 696.762 0.0119762 3.12998 0
M  V30 7403 C 697.237 0.255551 4.57286 0
M  V30 7404 N 698.728 0.202938 4.62755 0
M  V30 7405 C 699.463 0.365731 5.72232 0
M  V30 7406 N 698.959 0.586972 6.90309 0
M  V30 7407 N 700.752 0.302411 5.61286 0
M  V30 7408 H 692.903 1.1008 1.81648 0
M  V30 7409 H 695.166 0.436779 0.841384 0
M  V30 7410 H 694.872 1.07231 3.34954 0
M  V30 7411 H 694.746 -0.638802 3.71751 0
M  V30 7412 H 697.133 -0.976254 2.78484 0
M  V30 7413 H 697.214 0.75796 2.44313 0
M  V30 7414 H 696.858 1.24094 4.92507 0
M  V30 7415 H 696.788 -0.510912 5.24116 0
M  V30 7416 H 699.279 0.0371328 3.77882 0
M  V30 7417 H 699.592 0.700941 7.69615 0
M  V30 7418 H 697.937 0.623453 6.92198 0
M  V30 7419 H 701.128 0.130238 4.67919 0
M  V30 7420 H 701.301 0.432712 6.46554 0
M  V30 7421 N 694.707 -1.5719 -0.113559 0
M  V30 7422 C 695.657 -1.97166 -1.14497 0
M  V30 7423 C 696.641 -0.847413 -1.36776 0
M  V30 7424 O 697.833 -1.11114 -1.37777 0
M  V30 7425 C 694.962 -2.38411 -2.47013 0
M  V30 7426 C 694.048 -3.5748 -2.28185 0
M  V30 7427 N 694.439 -4.72998 -1.79182 0
M  V30 7428 C 692.737 -3.63218 -2.58821 0
M  V30 7429 C 693.438 -5.55007 -1.74191 0
M  V30 7430 N 692.414 -4.9765 -2.18735 0
M  V30 7431 H 696.216 -2.83937 -0.758733 0
M  V30 7432 H 693.73 -1.59191 -0.321234 0
M  V30 7433 H 695.727 -2.65269 -3.21618 0
M  V30 7434 H 694.387 -1.53007 -2.8639 0
M  V30 7435 H 695.398 -4.96109 -1.48649 0
M  V30 7436 H 692.075 -2.88434 -3.01847 0
M  V30 7437 H 693.465 -6.57678 -1.37512 0
M  V30 7438 N 696.185 0.383891 -1.52853 0
M  V30 7439 C 697.601 0.724316 -1.42218 0
M  V30 7440 C 697.801 1.93943 -0.546654 0
M  V30 7441 O 696.857 2.5249 -0.0220562 0
M  V30 7442 C 698.17 0.954635 -2.85144 0
M  V30 7443 C 699.718 1.05579 -2.94656 0
M  V30 7444 C 700.193 1.3187 -4.38605 0
M  V30 7445 N 701.684 1.38681 -4.41952 0
M  V30 7446 C 702.419 1.60699 -5.50421 0
M  V30 7447 N 701.915 1.80154 -6.68967 0
M  V30 7448 N 703.708 1.6292 -5.37972 0
M  V30 7449 H 695.859 -0.4156 -2.08294 0
M  V30 7450 H 698.122 -0.123776 -0.939885 0
M  V30 7451 H 697.828 0.133829 -3.51445 0
M  V30 7452 H 697.702 1.86788 -3.27704 0
M  V30 7453 H 700.089 1.86716 -2.2852 0
M  V30 7454 H 700.17 0.120338 -2.55517 0
M  V30 7455 H 699.814 0.512416 -5.05309 0
M  V30 7456 H 699.744 2.26708 -4.75301 0
M  V30 7457 H 702.235 1.25334 -3.56511 0
M  V30 7458 H 702.548 1.96476 -7.47407 0
M  V30 7459 H 700.893 1.77368 -6.71986 0
M  V30 7460 H 704.084 1.47276 -4.44328 0
M  V30 7461 H 704.257 1.79739 -6.22574 0
M  V30 7462 N 697.663 1.43903 0.642637 0
M  V30 7463 C 698.573 1.52349 1.78401 0
M  V30 7464 C 699.589 0.409869 1.69104 0
M  V30 7465 O 700.765 0.665548 1.90085 0
M  V30 7466 C 697.83 1.45408 3.14734 0
M  V30 7467 C 696.891 2.67528 3.35749 0
M  V30 7468 C 696.124 2.60909 4.65577 0
M  V30 7469 O 696.347 1.6627 5.45628 0
M  V30 7470 O 695.281 3.5158 4.88544 0
M  V30 7471 H 699.107 2.48752 1.7423 0
M  V30 7472 H 696.692 1.26021 0.802439 0
M  V30 7473 H 698.574 1.44019 3.96026 0
M  V30 7474 H 697.249 0.521437 3.19473 0
M  V30 7475 H 696.156 2.74487 2.5418 0
M  V30 7476 H 697.489 3.598 3.35864 0
M  V30 7477 N 699.141 -0.881989 1.30609 0
M  V30 7478 C 700.074 -1.99066 1.11571 0
M  V30 7479 C 701.052 -1.62584 0.022516 0
M  V30 7480 O 702.236 -1.87671 0.176644 0
M  V30 7481 C 699.363 -3.3134 0.702237 0
M  V30 7482 C 698.409 -3.86807 1.79673 0
M  V30 7483 S 699.242 -4.13735 3.39976 0
M  V30 7484 C 700.398 -5.49024 3.00538 0
M  V30 7485 H 700.631 -2.1491 2.05429 0
M  V30 7486 H 698.164 -1.03074 1.14957 0
M  V30 7487 H 700.122 -4.07796 0.470415 0
M  V30 7488 H 698.783 -3.13349 -0.217034 0
M  V30 7489 H 697.976 -4.82397 1.45977 0
M  V30 7490 H 697.578 -3.17102 1.98298 0
M  V30 7491 H 699.87 -6.30208 2.48684 0
M  V30 7492 H 700.813 -5.8766 3.95046 0
M  V30 7493 H 701.221 -5.11726 2.3832 0
M  V30 7494 N 700.619 -1.13374 -1.09472 0
M  V30 7495 C 701.844 -0.918711 -1.85942 0
M  V30 7496 C 702.269 0.527225 -1.8056 0
M  V30 7497 O 701.627 1.37408 -1.18274 0
M  V30 7498 C 701.675 -1.41056 -3.31867 0
M  V30 7499 O 700.779 -0.595496 -4.08078 0
M  V30 7500 H 700.12 -0.329297 -0.576593 0
M  V30 7501 H 702.65 -1.50829 -1.38245 0
M  V30 7502 H 702.66 -1.41398 -3.82715 0
M  V30 7503 H 701.335 -2.46335 -3.35099 0
M  V30 7504 H 699.912 -0.659911 -3.67014 0
M  V30 7505 N 702.098 1.27442 -0.927168 0
M  V30 7506 C 703.045 2.26863 -0.424459 0
M  V30 7507 C 704.015 1.5813 0.508346 0
M  V30 7508 O 705.2 1.85946 0.42762 0
M  V30 7509 C 702.34 3.43639 0.31718 0
M  V30 7510 C 701.453 4.27087 -0.649675 0
M  V30 7511 C 700.588 5.31082 0.111753 0
M  V30 7512 C 699.627 6.062 -0.847843 0
M  V30 7513 N 698.764 7.01999 -0.119074 0
M  V30 7514 H 703.604 2.69239 -1.27728 0
M  V30 7515 H 701.141 1.32394 -0.641106 0
M  V30 7516 H 703.099 4.10155 0.763486 0
M  V30 7517 H 701.729 3.02217 1.13424 0
M  V30 7518 H 700.781 3.60491 -1.21451 0
M  V30 7519 H 702.093 4.79242 -1.38307 0
M  V30 7520 H 701.247 6.03544 0.618 0
M  V30 7521 H 699.986 4.7973 0.878114 0
M  V30 7522 H 698.991 5.32577 -1.36534 0
M  V30 7523 H 700.216 6.59642 -1.61398 0
M  V30 7524 H 698.162 6.52977 0.629051 0
M  V30 7525 H 698.079 7.5184 -0.792046 0
M  V30 7526 H 699.347 7.78638 0.366537 0
M  V30 7527 N 703.576 0.692616 1.41565 0
M  V30 7528 C 704.506 0.0397325 2.33466 0
M  V30 7529 C 705.487 -0.770334 1.51657 0
M  V30 7530 O 706.672 -0.723903 1.80203 0
M  V30 7531 C 703.802 -0.899495 3.3545 0
M  V30 7532 C 702.756 -0.196738 4.27548 0
M  V30 7533 C 702.082 -1.25012 5.19881 0
M  V30 7534 C 703.382 0.935158 5.1386 0
M  V30 7535 H 705.076 0.807296 2.88311 0
M  V30 7536 H 702.622 0.389665 1.38628 0
M  V30 7537 H 704.575 -1.36545 3.98665 0
M  V30 7538 H 703.299 -1.69869 2.78948 0
M  V30 7539 H 701.958 0.249158 3.65752 0
M  V30 7540 H 701.606 -2.04177 4.59696 0
M  V30 7541 H 701.306 -0.784931 5.82334 0
M  V30 7542 H 702.83 -1.71665 5.85972 0
M  V30 7543 H 704.244 0.549619 5.70659 0
M  V30 7544 H 702.641 1.32726 5.85238 0
M  V30 7545 H 703.711 1.77613 4.512 0
M  V30 7546 N 705.054 -1.51416 0.437162 0
M  V30 7547 C 705.984 -2.30631 -0.364922 0
M  V30 7548 C 706.965 -1.36037 -1.02118 0
M  V30 7549 O 708.15 -1.64956 -1.02485 0
M  V30 7550 C 705.28 -3.1482 -1.46648 0
M  V30 7551 C 704.234 -4.17691 -0.933717 0
M  V30 7552 C 703.56 -4.904 -2.13101 0
M  V30 7553 C 704.86 -5.2229 0.0317201 0
M  V30 7554 H 706.554 -2.97932 0.29614 0
M  V30 7555 H 704.1 -1.4328 0.143865 0
M  V30 7556 H 706.053 -3.69017 -2.03481 0
M  V30 7557 H 704.777 -2.4534 -2.15583 0
M  V30 7558 H 703.436 -3.64545 -0.387602 0
M  V30 7559 H 703.084 -4.17423 -2.80654 0
M  V30 7560 H 702.784 -5.59962 -1.78092 0
M  V30 7561 H 704.308 -5.4742 -2.70487 0
M  V30 7562 H 705.722 -5.7156 -0.446302 0
M  V30 7563 H 704.119 -5.99378 0.29437 0
M  V30 7564 H 705.189 -4.75131 0.968447 0
M  V30 7565 N 706.532 -0.168513 -1.56696 0
M  V30 7566 C 707.495 0.748928 -2.16619 0
M  V30 7567 C 708.495 1.16007 -1.11351 0
M  V30 7568 O 709.685 1.07748 -1.3688 0
M  V30 7569 C 706.817 2.01904 -2.74677 0
M  V30 7570 H 708.01 0.227317 -2.99037 0
M  V30 7571 H 705.563 0.0810372 -1.5609 0
M  V30 7572 H 706.298 2.58381 -1.95985 0
M  V30 7573 H 706.083 1.73323 -3.51712 0
M  V30 7574 H 707.573 2.67383 -3.20774 0
M  V30 7575 N 708.01 1.57248 0.105221 0
M  V30 7576 C 709.238 1.89768 0.82437 0
M  V30 7577 C 709.653 0.761192 1.72775 0
M  V30 7578 O 709.01 -0.267342 1.80531 0
M  V30 7579 C 709.061 3.2184 1.64625 0
M  V30 7580 O 708.782 4.31115 0.779217 0
M  V30 7581 C 710.283 3.68155 2.46935 0
M  V30 7582 H 707.503 0.628031 0.236259 0
M  V30 7583 H 710.047 2.04321 0.085485 0
M  V30 7584 H 708.202 3.08915 2.33775 0
M  V30 7585 H 708.616 5.06897 1.34745 0
M  V30 7586 H 710.09 4.6329 3.00111 0
M  V30 7587 H 710.567 2.95492 3.24932 0
M  V30 7588 H 711.173 3.83914 1.83002 0
M  V30 7589 N 709.488 -0.375779 1.53054 0
M  V30 7590 C 710.734 -1.12114 1.68992 0
M  V30 7591 C 711.067 -1.8926 0.435238 0
M  V30 7592 O 710.342 -1.86044 -0.567278 0
M  V30 7593 C 710.625 -2.08867 2.93337 0
M  V30 7594 C 710.478 -1.35397 4.28938 0
M  V30 7595 C 711.797 -3.09124 3.13257 0
M  V30 7596 H 708.916 -0.406207 0.614951 0
M  V30 7597 H 711.558 -0.403054 1.85676 0
M  V30 7598 H 709.708 -2.70102 2.79244 0
M  V30 7599 H 711.38 -0.770242 4.54824 0
M  V30 7600 H 709.623 -0.655801 4.28814 0
M  V30 7601 H 710.294 -2.06161 5.12056 0
M  V30 7602 H 712.77 -2.57987 3.26469 0
M  V30 7603 H 711.646 -3.74054 4.01715 0
M  V30 7604 H 711.907 -3.78729 2.28072 0
M  V30 7605 N 710.966 -1.44241 -0.634997 0
M  V30 7606 C 712.212 -1.47038 -1.39669 0
M  V30 7607 C 712.545 -0.101122 -1.93937 0
M  V30 7608 O 711.82 0.880699 -1.73418 0
M  V30 7609 C 712.103 -2.52763 -2.56482 0
M  V30 7610 C 711.956 -3.99032 -2.07589 0
M  V30 7611 C 713.275 -2.55031 -3.58674 0
M  V30 7612 H 710.394 -0.53537 -0.506506 0
M  V30 7613 H 713.036 -1.75898 -0.718317 0
M  V30 7614 H 711.186 -2.28284 -3.14354 0
M  V30 7615 H 712.858 -4.3463 -1.54577 0
M  V30 7616 H 711.101 -4.10994 -1.38804 0
M  V30 7617 H 711.772 -4.68649 -2.91671 0
M  V30 7618 H 714.248 -2.76893 -3.10595 0
M  V30 7619 H 713.124 -3.30916 -4.37934 0
M  V30 7620 H 713.385 -1.59085 -4.12486 0
M  V30 7621 N 712.444 0.87505 -1.31075 0
M  V30 7622 C 713.669 1.66583 -1.23551 0
M  V30 7623 C 714.094 1.87067 0.19686 0
M  V30 7624 O 713.452 1.40877 1.1412 0
M  V30 7625 C 713.5 3.01401 -1.97965 0
M  V30 7626 O 712.604 3.90923 -1.31351 0
M  V30 7627 H 711.945 0.508645 -0.426821 0
M  V30 7628 H 714.475 1.09139 -1.7306 0
M  V30 7629 H 714.485 3.51374 -2.07366 0
M  V30 7630 H 713.16 2.85812 -3.02133 0
M  V30 7631 H 711.737 3.49369 -1.30368 0
M  V30 7632 N 713.922 1.13953 1.08869 0
M  V30 7633 C 715.17 0.903023 1.80803 0
M  V30 7634 C 715.491 -0.572151 1.86417 0
M  V30 7635 O 714.761 -1.41589 1.35386 0
M  V30 7636 H 713.341 0.331099 0.669614 0
M  V30 7637 H 716.003 1.43719 1.31647 0
M  V30 7638 H 715.099 1.29881 2.83791 0
M  V30 7639 N 715.4 -1.26948 0.933913 0
M  V30 7640 C 716.332 -2.25768 0.395137 0
M  V30 7641 C 717.345 -1.55637 -0.477585 0
M  V30 7642 O 718.534 -1.76142 -0.289204 0
M  V30 7643 C 715.634 -3.35874 -0.451882 0
M  V30 7644 C 714.807 -4.3554 0.40299 0
M  V30 7645 C 713.866 -5.24809 -0.3824 0
M  V30 7646 O 712.892 -5.68805 0.212057 0
M  V30 7647 N 714.094 -5.55636 -1.68072 0
M  V30 7648 H 716.859 -2.72634 1.24463 0
M  V30 7649 H 714.42 -1.40639 0.802008 0
M  V30 7650 H 716.412 -3.92542 -0.984516 0
M  V30 7651 H 714.982 -2.8856 -1.20215 0
M  V30 7652 H 714.202 -3.78047 1.11688 0
M  V30 7653 H 715.49 -4.99131 0.987201 0
M  V30 7654 H 714.888 -5.2176 -2.18592 0
M  V30 7655 H 713.445 -6.14978 -2.15975 0
M  V30 7656 N 716.879 -0.700114 -1.41195 0
M  V30 7657 C 717.826 -0.0376652 -2.30769 0
M  V30 7658 C 718.796 0.766544 -1.47354 0
M  V30 7659 O 719.981 0.73365 -1.76131 0
M  V30 7660 C 717.121 0.889452 -3.33441 0
M  V30 7661 C 716.234 0.076373 -4.31932 0
M  V30 7662 C 715.369 1.00155 -5.21673 0
M  V30 7663 C 714.408 0.181644 -6.1183 0
M  V30 7664 N 713.545 1.06087 -6.94039 0
M  V30 7665 H 718.385 -0.80726 -2.86858 0
M  V30 7666 H 715.922 -0.409798 -1.41277 0
M  V30 7667 H 717.88 1.44107 -3.91522 0
M  V30 7668 H 716.51 1.6254 -2.78892 0
M  V30 7669 H 715.562 -0.592223 -3.75762 0
M  V30 7670 H 716.874 -0.559076 -4.95657 0
M  V30 7671 H 716.028 1.62223 -5.8461 0
M  V30 7672 H 714.767 1.67085 -4.58186 0
M  V30 7673 H 713.772 -0.452085 -5.47938 0
M  V30 7674 H 714.997 -0.483925 -6.77374 0
M  V30 7675 H 712.943 1.7161 -6.33156 0
M  V30 7676 H 712.86 0.481094 -7.54468 0
M  V30 7677 H 714.128 1.66822 -7.6144 0
M  V30 7678 N 718.357 1.51182 -0.445186 0
M  V30 7679 C 719.289 2.25714 0.398206 0
M  V30 7680 C 720.302 1.30032 0.979562 0
M  V30 7681 O 721.491 1.55731 0.872368 0
M  V30 7682 C 718.591 3.00348 1.56985 0
M  V30 7683 C 717.764 4.23187 1.10596 0
M  V30 7684 C 716.823 4.80334 2.14863 0
M  V30 7685 O 715.849 5.4196 1.73977 0
M  V30 7686 N 717.051 4.65053 3.47427 0
M  V30 7687 H 719.816 2.98732 -0.240629 0
M  V30 7688 H 717.377 1.59556 -0.274507 0
M  V30 7689 H 719.369 3.35464 2.26376 0
M  V30 7690 H 717.939 2.30291 2.11387 0
M  V30 7691 H 717.159 3.93476 0.238832 0
M  V30 7692 H 718.447 5.02886 0.773537 0
M  V30 7693 H 717.845 4.15984 3.83372 0
M  V30 7694 H 716.402 5.04509 4.12691 0
M  V30 7695 N 719.835 0.176821 1.56605 0
M  V30 7696 C 721.112 -0.513365 1.88743 0
M  V30 7697 C 721.492 -1.80929 1.08757 0
M  V30 7698 O 720.84 -2.27765 0.183127 0
M  V30 7699 C 721.05 -0.749925 3.40848 0
M  V30 7700 C 722.398 -1.07747 4.10701 0
M  V30 7701 O 723.422 -0.838277 3.46196 0
M  V30 7702 O 722.281 -1.52901 5.24675 0
M  V30 7703 H 719.375 -0.265296 0.783292 0
M  V30 7704 H 721.921 0.215669 1.68324 0
M  V30 7705 H 720.693 0.16599 3.90948 0
M  V30 7706 H 720.316 -1.53208 3.66897 0
M  V30 7707 N 721.313 -1.57302 -0.09688 0
M  V30 7708 C 722.729 -1.53094 -0.451041 0
M  V30 7709 C 722.929 -0.893265 -1.80618 0
M  V30 7710 O 721.985 -0.485013 -2.47798 0
M  V30 7711 C 723.298 -2.9782 -0.415172 0
M  V30 7712 C 724.846 -3.09026 -0.497155 0
M  V30 7713 C 725.321 -4.55356 -0.491452 0
M  V30 7714 N 726.812 -4.59896 -0.552258 0
M  V30 7715 C 727.547 -5.70563 -0.569654 0
M  V30 7716 N 727.043 -6.90666 -0.543365 0
M  V30 7717 N 728.836 -5.58733 -0.614331 0
M  V30 7718 H 720.987 -1.97131 0.790771 0
M  V30 7719 H 723.25 -0.901211 0.294147 0
M  V30 7720 H 722.956 -3.47933 0.513362 0
M  V30 7721 H 722.83 -3.56416 -1.23481 0
M  V30 7722 H 725.217 -2.58902 -1.41611 0
M  V30 7723 H 725.298 -2.53386 0.35059 0
M  V30 7724 H 724.942 -5.06131 0.423549 0
M  V30 7725 H 724.872 -5.08832 -1.35639 0
M  V30 7726 H 727.363 -3.73456 -0.577842 0
M  V30 7727 H 727.676 -7.70769 -0.559873 0
M  V30 7728 H 726.021 -6.93123 -0.510441 0
M  V30 7729 H 729.212 -4.63809 -0.632387 0
M  V30 7730 H 729.385 -6.44984 -0.62442 0
M  V30 7731 N 722.791 0.367657 -1.53252 0
M  V30 7732 C 723.723 1.47032 -1.75824 0
M  V30 7733 C 724.736 1.49736 -0.63898 0
M  V30 7734 O 725.925 1.53253 -0.915193 0
M  V30 7735 C 723.025 2.85805 -1.82122 0
M  V30 7736 C 722.198 3.06822 -3.11736 0
M  V30 7737 C 721.257 4.25698 -3.09302 0
M  V30 7738 O 720.283 4.20972 -3.83107 0
M  V30 7739 N 721.485 5.33002 -2.29977 0
M  V30 7740 H 724.25 1.28048 -2.70968 0
M  V30 7741 H 721.811 0.557363 -1.52004 0
M  V30 7742 H 723.803 3.63465 -1.77975 0
M  V30 7743 H 722.373 2.98046 -0.942716 0
M  V30 7744 H 721.593 2.1684 -3.29202 0
M  V30 7745 H 722.881 3.17731 -3.97397 0
M  V30 7746 H 722.279 5.39703 -1.69521 0
M  V30 7747 H 720.836 6.09247 -2.3165 0
M  V30 7748 N 724.269 1.44576 0.627338 0
M  V30 7749 C 725.517 1.47267 1.38408 0
M  V30 7750 C 725.838 0.107971 1.94701 0
M  V30 7751 O 725.108 -0.860206 1.76004 0
M  V30 7752 H 723.688 0.542276 0.513756 0
M  V30 7753 H 726.35 1.80383 0.738099 0
M  V30 7754 H 725.446 2.20025 2.21349 0
M  V30 7755 N 725.747 -0.868086 1.31537 0
M  V30 7756 C 726.995 -1.61807 1.21091 0
M  V30 7757 C 727.316 -1.93631 -0.230623 0
M  V30 7758 O 726.586 -1.5846 -1.15183 0
M  V30 7759 H 725.166 -0.599854 0.445178 0
M  V30 7760 H 727.828 -1.03915 1.64887 0
M  V30 7761 H 726.924 -2.56088 1.78396 0
M  V30 7762 N 727.225 -1.14528 -1.08264 0
M  V30 7763 C 728.135 -0.84728 -2.18765 0
M  V30 7764 C 729.151 0.172826 -1.7314 0
M  V30 7765 O 730.327 0.000985336 -2.014 0
M  V30 7766 C 727.392 -0.330633 -3.4512 0
M  V30 7767 C 726.453 -1.41348 -4.05363 0
M  V30 7768 C 725.686 -0.921387 -5.25686 0
M  V30 7769 O 725.909 0.236587 -5.69909 0
M  V30 7770 O 724.843 -1.70101 -5.77364 0
M  V30 7771 H 728.669 -1.7708 -2.46731 0
M  V30 7772 H 726.254 -0.923661 -1.17426 0
M  V30 7773 H 728.136 -0.0485053 -4.21372 0
M  V30 7774 H 726.811 0.565147 -3.18728 0
M  V30 7775 H 725.718 -1.74908 -3.30693 0
M  V30 7776 H 727.051 -2.28383 -4.36007 0
M  V30 7777 N 728.703 1.26451 -0.940633 0
M  V30 7778 C 730.119 1.4608 -0.642859 0
M  V30 7779 C 730.319 1.84765 0.803998 0
M  V30 7780 O 729.375 1.96902 1.58069 0
M  V30 7781 C 730.688 2.54359 -1.60381 0
M  V30 7782 C 732.236 2.6821 -1.61345 0
M  V30 7783 C 732.711 3.79659 -2.56169 0
M  V30 7784 N 734.202 3.87051 -2.54452 0
M  V30 7785 C 734.937 4.72739 -3.24507 0
M  V30 7786 N 734.433 5.6282 -4.03987 0
M  V30 7787 N 736.226 4.66581 -3.13462 0
M  V30 7788 H 728.377 0.996289 -1.87584 0
M  V30 7789 H 730.64 0.498921 -0.80609 0
M  V30 7790 H 730.346 2.32758 -2.6366 0
M  V30 7791 H 730.22 3.52005 -1.35545 0
M  V30 7792 H 732.607 2.89184 -0.587913 0
M  V30 7793 H 732.688 1.7101 -1.90235 0
M  V30 7794 H 732.332 3.59438 -3.58841 0
M  V30 7795 H 732.262 4.76315 -2.2457 0
M  V30 7796 H 734.753 3.22649 -1.96739 0
M  V30 7797 H 735.066 6.25095 -4.54396 0
M  V30 7798 H 733.411 5.62574 -4.08088 0
M  V30 7799 H 736.602 3.9521 -2.50852 0
M  V30 7800 H 736.775 5.33141 -3.68327 0
M  V30 7801 N 730.181 0.707592 1.40822 0
M  V30 7802 C 731.597 0.38034 1.55002 0
M  V30 7803 C 731.797 -1.11163 1.68062 0
M  V30 7804 O 730.853 -1.89761 1.66574 0
M  V30 7805 C 732.166 1.1394 2.78277 0
M  V30 7806 C 733.714 1.12492 2.92087 0
M  V30 7807 C 734.189 1.86597 4.18265 0
M  V30 7808 N 735.68 1.83626 4.25248 0
M  V30 7809 C 736.415 2.37794 5.21768 0
M  V30 7810 N 735.911 3.00485 6.24244 0
M  V30 7811 N 737.704 2.27982 5.13791 0
M  V30 7812 H 729.855 1.67511 1.3059 0
M  V30 7813 H 732.118 0.707579 0.630901 0
M  V30 7814 H 731.824 2.19398 2.74877 0
M  V30 7815 H 731.698 0.725793 3.70151 0
M  V30 7816 H 734.085 0.0785564 2.94995 0
M  V30 7817 H 734.166 1.57768 2.01353 0
M  V30 7818 H 733.81 2.91219 4.16118 0
M  V30 7819 H 733.74 1.38746 5.07993 0
M  V30 7820 H 736.231 1.3793 3.51829 0
M  V30 7821 H 736.544 3.39355 6.94304 0
M  V30 7822 H 734.889 3.04567 6.24711 0
M  V30 7823 H 738.08 1.78669 4.3266 0
M  V30 7824 H 738.253 2.70499 5.88841 0
M  V30 7825 N 731.66 -1.50943 0.453197 0
M  V30 7826 C 733.076 -1.59245 0.106342 0
M  V30 7827 C 733.276 -1.46287 -1.38572 0
M  V30 7828 O 732.332 -1.31219 -2.15726 0
M  V30 7829 C 733.645 -2.93797 0.640595 0
M  V30 7830 C 735.193 -3.07148 0.602435 0
M  V30 7831 C 735.668 -4.44247 1.11393 0
M  V30 7832 N 737.159 -4.50611 1.07258 0
M  V30 7833 C 737.894 -5.55049 1.43905 0
M  V30 7834 N 737.39 -6.66828 1.87914 0
M  V30 7835 N 739.183 -5.45494 1.35621 0
M  V30 7836 H 731.334 -1.5761 1.42382 0
M  V30 7837 H 733.597 -0.74384 0.587713 0
M  V30 7838 H 733.303 -3.087 1.68515 0
M  V30 7839 H 733.177 -3.77127 0.0742272 0
M  V30 7840 H 735.564 -2.91903 -0.433171 0
M  V30 7841 H 735.645 -2.25619 1.20539 0
M  V30 7842 H 735.289 -4.60239 2.14808 0
M  V30 7843 H 735.219 -5.2434 0.487353 0
M  V30 7844 H 737.71 -3.70391 0.749585 0
M  V30 7845 H 738.023 -7.42558 2.14072 0
M  V30 7846 H 736.368 -6.67995 1.91853 0
M  V30 7847 H 739.559 -4.57053 1.01093 0
M  V30 7848 H 739.732 -6.2677 1.64508 0
M  V30 7849 N 733.138 -0.185124 -1.56509 0
M  V30 7850 C 734.363 0.465278 -2.02114 0
M  V30 7851 C 734.788 1.55083 -1.06447 0
M  V30 7852 O 734.146 1.81241 -0.0462852 0
M  V30 7853 C 734.194 1.00784 -3.46229 0
M  V30 7854 O 733.298 2.12123 -3.53663 0
M  V30 7855 H 732.639 0.109891 -0.654843 0
M  V30 7856 H 735.169 -0.293072 -2.0249 0
M  V30 7857 H 735.179 1.32697 -3.85818 0
M  V30 7858 H 733.854 0.213113 -4.15354 0
M  V30 7859 H 732.431 1.8115 -3.25943 0
M  V30 7860 N 734.616 1.57351 0.0885366 0
M  V30 7861 C 735.548 1.99221 1.13329 0
M  V30 7862 C 736.561 0.895705 1.35945 0
M  V30 7863 O 737.75 1.17376 1.34481 0
M  V30 7864 C 734.85 2.3016 2.48756 0
M  V30 7865 C 734.023 3.61444 2.46327 0
M  V30 7866 C 733.082 3.80244 3.63732 0
M  V30 7867 O 732.108 4.52024 3.45924 0
M  V30 7868 N 733.31 3.2132 4.8346 0
M  V30 7869 H 736.075 2.89456 0.776862 0
M  V30 7870 H 733.636 1.59505 0.277428 0
M  V30 7871 H 735.628 2.39925 3.25911 0
M  V30 7872 H 734.198 1.459 2.76464 0
M  V30 7873 H 733.418 3.62588 1.54673 0
M  V30 7874 H 734.706 4.47678 2.41789 0
M  V30 7875 H 734.104 2.63028 5.00832 0
M  V30 7876 H 732.661 3.3656 5.58185 0
M  V30 7877 N 736.094 -0.359525 1.53444 0
M  V30 7878 C 737.024 -1.44662 1.8329 0
M  V30 7879 C 738.005 -1.55617 0.68683 0
M  V30 7880 O 739.19 -1.70086 0.93725 0
M  V30 7881 C 736.32 -2.81923 2.02822 0
M  V30 7882 C 735.274 -2.85787 3.18606 0
M  V30 7883 C 734.6 -4.25781 3.23442 0
M  V30 7884 C 735.9 -2.52762 4.57065 0
M  V30 7885 H 737.594 -1.19934 2.74329 0
M  V30 7886 H 735.14 -0.575517 1.31999 0
M  V30 7887 H 737.093 -3.58005 2.22285 0
M  V30 7888 H 735.817 -3.08051 1.085 0
M  V30 7889 H 734.476 -2.12157 2.98973 0
M  V30 7890 H 734.124 -4.48994 2.26745 0
M  V30 7891 H 733.824 -4.29281 4.01238 0
M  V30 7892 H 735.348 -5.03727 3.45096 0
M  V30 7893 H 736.762 -3.18557 4.76649 0
M  V30 7894 H 735.159 -2.67569 5.37147 0
M  V30 7895 H 736.229 -1.47993 4.61764 0
M  V30 7896 N 737.572 -1.44907 -0.619662 0
M  V30 7897 C 738.849 -1.38766 -1.37852 0
M  V30 7898 C 739.229 -0.0521393 -2.11036 0
M  V30 7899 O 738.577 0.965613 -2.07095 0
M  V30 7900 C 738.787 -2.59344 -2.33541 0
M  V30 7901 C 740.135 -3.03909 -2.96521 0
M  V30 7902 O 741.159 -2.59631 -2.43865 0
M  V30 7903 O 740.018 -3.80713 -3.92071 0
M  V30 7904 H 737.112 -0.550083 -0.617525 0
M  V30 7905 H 739.658 -1.57015 -0.643759 0
M  V30 7906 H 738.43 -3.48142 -1.78642 0
M  V30 7907 H 738.053 -2.43367 -3.14417 0
M  V30 7908 N 739.05 0.861098 -1.31996 0
M  V30 7909 C 740.466 1.14827 -1.10846 0
M  V30 7910 C 740.666 2.0117 0.11528 0
M  V30 7911 O 739.722 2.39423 0.802048 0
M  V30 7912 C 741.035 1.83183 -2.38462 0
M  V30 7913 C 742.583 1.95847 -2.44158 0
M  V30 7914 C 743.058 2.67617 -3.71679 0
M  V30 7915 N 744.549 2.75147 -3.72624 0
M  V30 7916 C 745.284 3.31314 -4.67994 0
M  V30 7917 N 744.78 3.88343 -5.73726 0
M  V30 7918 N 746.573 3.29356 -4.55501 0
M  V30 7919 H 738.724 0.285951 -2.10466 0
M  V30 7920 H 740.987 0.189303 -0.928907 0
M  V30 7921 H 740.693 1.27193 -3.27895 0
M  V30 7922 H 740.567 2.83393 -2.48935 0
M  V30 7923 H 742.954 2.50999 -1.55189 0
M  V30 7924 H 743.035 0.94653 -2.37644 0
M  V30 7925 H 742.679 2.13131 -4.61018 0
M  V30 7926 H 742.609 3.69237 -3.75462 0
M  V30 7927 H 745.1 2.34682 -2.96197 0
M  V30 7928 H 745.413 4.29338 -6.42564 0
M  V30 7929 H 743.758 3.86693 -5.77489 0
M  V30 7930 H 746.949 2.84047 -3.72069 0
M  V30 7931 H 747.122 3.7283 -5.30001 0
M  V30 7932 N 740.528 1.15101 1.07655 0
M  V30 7933 C 741.805 0.834578 1.76902 0
M  V30 7934 C 742.185 -0.670431 2.00171 0
M  V30 7935 O 741.533 -1.61378 1.6177 0
M  V30 7936 C 741.743 1.64191 3.07965 0
M  V30 7937 C 743.091 1.84615 3.82364 0
M  V30 7938 O 744.115 1.60941 3.17768 0
M  V30 7939 O 742.974 2.24244 4.98374 0
M  V30 7940 H 740.068 0.306608 0.768063 0
M  V30 7941 H 742.614 1.25663 1.14048 0
M  V30 7942 H 741.386 2.66386 2.86626 0
M  V30 7943 H 741.009 1.216 3.78549 0
M  V30 7944 N 742.006 -1.2595 0.947325 0
M  V30 7945 C 742.938 -2.25336 0.41906 0
M  V30 7946 C 743.951 -1.56135 -0.461051 0
M  V30 7947 O 745.14 -1.76438 -0.270505 0
M  V30 7948 C 742.24 -3.36334 -0.416233 0
M  V30 7949 C 741.413 -4.35088 0.449162 0
M  V30 7950 C 740.472 -5.25185 -0.326716 0
M  V30 7951 O 739.498 -5.68548 0.272374 0
M  V30 7952 N 740.7 -5.57388 -1.6217 0
M  V30 7953 H 743.465 -2.71298 1.27348 0
M  V30 7954 H 741.026 -1.39781 0.81688 0
M  V30 7955 H 743.018 -3.93564 -0.942826 0
M  V30 7956 H 741.588 -2.89819 -1.17148 0
M  V30 7957 H 740.808 -3.76841 1.15692 0
M  V30 7958 H 742.096 -4.98056 1.04008 0
M  V30 7959 H 741.494 -5.2405 -2.13046 0
M  V30 7960 H 740.051 -6.17234 -2.0944 0
M  V30 7961 N 743.484 -0.715051 -1.40445 0
M  V30 7962 C 744.724 -0.258742 -2.02756 0
M  V30 7963 C 745.088 1.12661 -1.55472 0
M  V30 7964 O 746.289 1.67988 -2.09842 0
M  V30 7965 C 744.56 -0.335201 -3.55825 0
M  V30 7966 S 746.119 0.044201 -4.38778 0
M  V30 7967 H 742.937 -0.102683 -0.703546 0
M  V30 7968 H 745.539 -0.937151 -1.71574 0
M  V30 7969 H 744.243 -1.34511 -3.87731 0
M  V30 7970 H 743.774 0.361705 -3.91734 0
M  V30 7971 H 745.789 1.26639 -4.79768 0
M  V30 7972 N 744.962 1.50701 -0.461195 0
M  V30 7973 C 745.925 2.2686 0.326679 0
M  V30 7974 C 746.925 1.31243 0.929085 0
M  V30 7975 O 748.115 1.54754 0.799807 0
M  V30 7976 C 745.247 3.07844 1.46441 0
M  V30 7977 H 746.44 2.97954 -0.341095 0
M  V30 7978 H 743.993 1.54814 -0.214984 0
M  V30 7979 H 744.728 2.41223 2.16753 0
M  V30 7980 H 744.513 3.78101 1.03836 0
M  V30 7981 H 746.003 3.65469 2.02044 0
M  V30 7982 N 746.441 0.193421 1.56409 0
M  V30 7983 C 747.671 -0.450783 2.01622 0
M  V30 7984 C 748.079 -1.5585 1.07273 0
M  V30 7985 O 747.422 -1.83569 0.0694875 0
M  V30 7986 C 747.484 -1.06913 3.43235 0
M  V30 7987 C 747.148 -0.100352 4.5689 0
M  V30 7988 C 748.145 0.689633 5.15306 0
M  V30 7989 C 745.83 0.0102436 5.02299 0
M  V30 7990 C 747.824 1.5772 6.17579 0
M  V30 7991 C 745.511 0.901368 6.04416 0
M  V30 7992 C 746.509 1.68341 6.61929 0
M  V30 7993 O 746.197 2.5596 7.62063 0
M  V30 7994 H 745.929 -0.117671 0.66568 0
M  V30 7995 H 748.483 0.2989 2.03214 0
M  V30 7996 H 746.713 -1.86736 3.38624 0
M  V30 7997 H 748.402 -1.61781 3.72266 0
M  V30 7998 H 749.168 0.614485 4.81092 0
M  V30 7999 H 745.047 -0.58829 4.57231 0
M  V30 8000 H 748.591 2.18805 6.62397 0
M  V30 8001 H 744.488 0.977637 6.38054 0
M  V30 8002 H 745.256 2.49721 7.79475 0
M  V30 8003 N 747.919 -1.57396 -0.0801906 0
M  V30 8004 C 749.159 -1.88668 -0.786367 0
M  V30 8005 C 749.523 -0.786216 -1.75165 0
M  V30 8006 O 750.724 -0.981769 -2.50229 0
M  V30 8007 C 748.995 -3.25176 -1.48308 0
M  V30 8008 S 750.554 -3.78177 -2.22549 0
M  V30 8009 H 747.372 -0.661094 -0.261679 0
M  V30 8010 H 749.974 -1.95453 -0.0428196 0
M  V30 8011 H 748.678 -4.03176 -0.766629 0
M  V30 8012 H 748.209 -3.21567 -2.26623 0
M  V30 8013 H 750.224 -3.52789 -3.48934 0
M  V30 8014 N 749.397 0.351382 -1.53633 0
M  V30 8015 C 750.344 1.43115 -1.81071 0
M  V30 8016 C 751.314 1.52601 -0.655913 0
M  V30 8017 O 752.499 1.68264 -0.89955 0
M  V30 8018 C 749.639 2.79874 -2.01903 0
M  V30 8019 C 748.752 2.79242 -3.29618 0
M  V30 8020 C 747.887 4.07667 -3.40559 0
M  V30 8021 C 746.926 4.01233 -4.62254 0
M  V30 8022 N 746.063 5.21334 -4.70271 0
M  V30 8023 H 750.903 1.19017 -2.73201 0
M  V30 8024 H 748.44 0.576691 -1.35324 0
M  V30 8025 H 750.398 3.5934 -2.11969 0
M  V30 8026 H 749.028 3.0234 -1.13094 0
M  V30 8027 H 748.08 1.91927 -3.28433 0
M  V30 8028 H 749.392 2.70363 -4.19172 0
M  V30 8029 H 748.546 4.95555 -3.50015 0
M  V30 8030 H 747.285 4.19317 -2.49047 0
M  V30 8031 H 746.29 3.11732 -4.52884 0
M  V30 8032 H 747.515 3.91173 -5.55122 0
M  V30 8033 H 745.461 5.33543 -3.81665 0
M  V30 8034 H 745.378 5.14681 -5.5375 0
M  V30 8035 H 746.646 6.11014 -4.84027 0
M  V30 8036 N 750.875 1.45233 0.611969 0
M  V30 8037 C 751.785 1.56098 1.7513 0
M  V30 8038 C 752.801 0.445646 1.68196 0
M  V30 8039 O 753.977 0.705718 1.88631 0
M  V30 8040 C 751.042 1.52052 3.11579 0
M  V30 8041 C 750.103 2.74589 3.29999 0
M  V30 8042 C 749.336 2.70726 4.59938 0
M  V30 8043 O 749.559 1.77806 5.41979 0
M  V30 8044 O 748.493 3.61864 4.80976 0
M  V30 8045 H 752.319 2.52392 1.68914 0
M  V30 8046 H 749.904 1.27695 0.775528 0
M  V30 8047 H 751.786 1.52387 3.92882 0
M  V30 8048 H 750.461 0.589085 3.18295 0
M  V30 8049 H 749.368 2.79817 2.48301 0
M  V30 8050 H 750.701 3.66843 3.28157 0
M  V30 8051 N 752.353 -0.854086 1.3245 0
M  V30 8052 C 753.3 -1.96271 1.21434 0
M  V30 8053 C 754.27 -1.6582 0.0963851 0
M  V30 8054 O 755.455 -1.88851 0.27203 0
M  V30 8055 C 752.595 -3.31939 0.943952 0
M  V30 8056 C 751.708 -3.74885 2.14675 0
M  V30 8057 C 750.843 -4.99347 1.81179 0
M  V30 8058 C 749.882 -5.34785 2.97777 0
M  V30 8059 N 749.019 -6.50425 2.6437 0
M  V30 8060 H 753.859 -2.05025 2.16261 0
M  V30 8061 H 751.396 -1.00348 1.07558 0
M  V30 8062 H 753.354 -4.10076 0.767675 0
M  V30 8063 H 751.984 -3.22784 0.0324763 0
M  V30 8064 H 751.036 -2.92396 2.43328 0
M  V30 8065 H 752.348 -3.97068 3.01891 0
M  V30 8066 H 751.502 -5.85193 1.60107 0
M  V30 8067 H 750.241 -4.79101 0.911777 0
M  V30 8068 H 749.246 -4.47451 3.1948 0
M  V30 8069 H 750.471 -5.56988 3.88511 0
M  V30 8070 H 748.417 -6.31695 1.7691 0
M  V30 8071 H 748.334 -6.7263 3.45116 0
M  V30 8072 H 749.602 -7.39422 2.46729 0
M  V30 8073 N 753.831 -1.1567 -1.07043 0
M  V30 8074 C 755.079 -0.931673 -1.79344 0
M  V30 8075 C 755.4 0.542421 -1.87304 0
M  V30 8076 O 754.67 1.39418 -1.37621 0
M  V30 8077 H 753.25 -0.34171 -0.664262 0
M  V30 8078 H 755.912 -1.45795 -1.29344 0
M  V30 8079 H 755.008 -1.34379 -2.81689 0
M  V30 8080 N 755.309 1.25446 -0.953992 0
M  V30 8081 C 756.259 2.23627 -0.444413 0
M  V30 8082 C 757.243 1.54004 0.465993 0
M  V30 8083 O 758.435 1.74454 0.29915 0
M  V30 8084 C 755.564 3.42179 0.277175 0
M  V30 8085 C 754.65 4.1907 -0.651263 0
M  V30 8086 N 755.041 4.73346 -1.78262 0
M  V30 8087 C 753.339 4.43628 -0.459338 0
M  V30 8088 C 754.04 5.31576 -2.36224 0
M  V30 8089 N 753.016 5.17991 -1.64884 0
M  V30 8090 H 756.818 2.63197 -1.30785 0
M  V30 8091 H 754.332 1.40677 -0.811402 0
M  V30 8092 H 756.329 4.11653 0.659367 0
M  V30 8093 H 754.989 3.04134 1.13723 0
M  V30 8094 H 756 4.705 -2.1645 0
M  V30 8095 H 752.677 4.15963 0.357885 0
M  V30 8096 H 754.067 5.84361 -3.3162 0
M  V30 8097 N 756.787 0.722489 1.40064 0
M  V30 8098 C 758.033 0.27422 2.01543 0
M  V30 8099 C 758.388 -1.12224 1.5628 0
M  V30 8100 O 757.681 -1.75179 0.776063 0
M  V30 8101 C 757.875 0.300682 3.56133 0
M  V30 8102 C 757.704 1.69818 4.16404 0
M  V30 8103 C 756.474 2.30747 4.49537 0
M  V30 8104 C 758.672 2.64962 4.40794 0
M  V30 8105 N 756.654 3.62781 4.9524 0
M  V30 8106 C 758.025 3.81712 4.88565 0
M  V30 8107 C 760.08 2.62885 4.22842 0
M  V30 8108 C 758.783 4.96703 5.20268 0
M  V30 8109 C 760.809 3.77009 4.55652 0
M  V30 8110 C 760.171 4.92492 5.03618 0
M  V30 8111 H 756.27 0.146328 0.768188 0
M  V30 8112 H 758.854 0.94577 1.70186 0
M  V30 8113 H 757.025 -0.340461 3.86905 0
M  V30 8114 H 758.757 -0.164951 4.04364 0
M  V30 8115 H 755.512 1.82783 4.36907 0
M  V30 8116 H 755.936 4.30533 5.22465 0
M  V30 8117 H 760.578 1.74803 3.84972 0
M  V30 8118 H 758.296 5.85425 5.57049 0
M  V30 8119 H 761.882 3.76685 4.43396 0
M  V30 8120 H 760.762 5.79336 5.28525 0
M  V30 8121 N 758.265 -1.50454 0.469181 0
M  V30 8122 C 759.228 -2.2703 -0.314643 0
M  V30 8123 C 760.228 -1.31734 -0.922111 0
M  V30 8124 O 761.418 -1.55176 -0.791588 0
M  V30 8125 C 758.55 -3.08616 -1.44806 0
M  V30 8126 H 759.743 -2.97769 0.356892 0
M  V30 8127 H 757.296 -1.54698 0.223191 0
M  V30 8128 H 758.031 -2.42369 -2.1547 0
M  V30 8129 H 757.816 -3.78647 -1.01829 0
M  V30 8130 H 759.306 -3.66536 -2.00103 0
M  V30 8131 N 759.743 -0.201713 -1.56304 0
M  V30 8132 C 760.69 0.716499 -2.19397 0
M  V30 8133 C 761.66 1.20494 -1.14326 0
M  V30 8134 O 762.845 1.26763 -1.42604 0
M  V30 8135 C 759.985 1.92762 -2.86246 0
M  V30 8136 C 759.098 1.47993 -4.0586 0
M  V30 8137 C 758.233 2.64706 -4.60547 0
M  V30 8138 C 757.272 2.16576 -5.72504 0
M  V30 8139 N 756.409 3.26491 -6.21569 0
M  V30 8140 H 761.249 0.171724 -2.97505 0
M  V30 8141 H 758.786 0.073016 -1.46919 0
M  V30 8142 H 760.744 2.6384 -3.23178 0
M  V30 8143 H 759.374 2.44559 -2.10691 0
M  V30 8144 H 758.426 0.66477 -3.74546 0
M  V30 8145 H 759.738 1.08686 -4.86815 0
M  V30 8146 H 758.892 3.43898 -4.99819 0
M  V30 8147 H 757.631 3.0729 -3.78713 0
M  V30 8148 H 756.636 1.3584 -5.32755 0
M  V30 8149 H 757.861 1.75015 -6.56161 0
M  V30 8150 H 755.807 3.68594 -5.42655 0
M  V30 8151 H 755.724 2.91374 -6.97594 0
M  V30 8152 H 756.992 4.05877 -6.65495 0
M  V30 8153 N 761.222 1.57436 0.0718424 0
M  V30 8154 C 762.499 1.78312 0.804006 0
M  V30 8155 C 762.879 0.789273 1.9579 0
M  V30 8156 O 762.227 -0.177605 2.27809 0
M  V30 8157 C 762.437 3.24798 1.277 0
M  V30 8158 C 763.785 3.88627 1.71039 0
M  V30 8159 O 764.809 3.28689 1.37266 0
M  V30 8160 O 763.668 4.94073 2.33567 0
M  V30 8161 H 760.762 0.73178 0.385262 0
M  V30 8162 H 763.308 1.69621 0.0519219 0
M  V30 8163 H 762.08 3.88688 0.45134 0
M  V30 8164 H 761.703 3.38213 2.0904 0
M  V30 8165 N 762.7 -0.34323 1.53817 0
M  V30 8166 C 763.94 -1.09188 1.72793 0
M  V30 8167 C 764.304 -1.85876 0.481062 0
M  V30 8168 O 765.505 -2.63158 0.547851 0
M  V30 8169 C 763.776 -2.00783 2.9567 0
M  V30 8170 S 765.335 -2.82866 3.35459 0
M  V30 8171 H 762.153 -0.368926 0.607795 0
M  V30 8172 H 764.755 -0.370265 1.91962 0
M  V30 8173 H 763.459 -1.43245 3.84589 0
M  V30 8174 H 762.99 -2.77381 2.78968 0
M  V30 8175 H 765.005 -4.03196 2.89218 0
M  V30 8176 N 764.178 -1.45556 -0.604258 0
M  V30 8177 C 765.589 -1.44171 -1.18624 0
M  V30 8178 C 765.94 -0.171081 -1.95453 0
M  V30 8179 O 765.065 0.727156 -2.03817 0
M  V30 8180 C 765.66 -2.61193 -2.15786 0
M  V30 8181 C 764.219 -2.62918 -2.69353 0
M  V30 8182 C 763.366 -2.36479 -1.4482 0
M  V30 8183 H 766.317 -1.53747 -0.393381 0
M  V30 8184 H 766.338 -2.35481 -2.98879 0
M  V30 8185 H 765.85 -3.53656 -1.59841 0
M  V30 8186 H 763.951 -1.7447 -3.29228 0
M  V30 8187 H 764.064 -3.6224 -3.13559 0
M  V30 8188 H 762.428 -1.86103 -1.73891 0
M  V30 8189 H 763.211 -3.31091 -0.907376 0
M  V30 8190 N 765.656 0.84705 -1.32902 0
M  V30 8191 C 766.603 1.95624 -1.22473 0
M  V30 8192 C 767.573 1.65767 -0.105178 0
M  V30 8193 O 768.758 1.88704 -0.282042 0
M  V30 8194 C 765.898 3.31434 -0.961542 0
M  V30 8195 C 765.011 3.73741 -2.1666 0
M  V30 8196 C 764.146 4.98379 -1.83825 0
M  V30 8197 C 763.185 5.33199 -3.00609 0
M  V30 8198 N 762.322 6.49014 -2.67816 0
M  V30 8199 H 767.162 2.03875 -2.17345 0
M  V30 8200 H 764.699 0.997764 -1.08088 0
M  V30 8201 H 766.657 4.09663 -0.789411 0
M  V30 8202 H 765.287 3.22762 -0.0495938 0
M  V30 8203 H 764.339 2.91102 -2.44875 0
M  V30 8204 H 765.651 3.95462 -3.03993 0
M  V30 8205 H 764.805 5.84336 -1.63208 0
M  V30 8206 H 763.544 4.78611 -0.937172 0
M  V30 8207 H 762.549 4.4575 -3.21849 0
M  V30 8208 H 763.774 5.5492 -3.9146 0
M  V30 8209 H 761.72 6.30748 -1.80258 0
M  V30 8210 H 761.637 6.7079 -3.48679 0
M  V30 8211 H 762.905 7.38103 -2.50647 0
M  V30 8212 N 767.134 1.16236 1.06428 0
M  V30 8213 C 768.081 0.86769 2.13869 0
M  V30 8214 C 769.051 -0.183298 1.65086 0
M  V30 8215 O 770.236 -0.0488002 1.90738 0
M  V30 8216 C 767.376 0.373427 3.43074 0
M  V30 8217 C 766.489 1.48708 4.05598 0
M  V30 8218 C 765.624 0.947977 5.22673 0
M  V30 8219 C 764.663 2.03793 5.77178 0
M  V30 8220 N 763.8 1.51451 6.85571 0
M  V30 8221 H 768.64 1.78781 2.38414 0
M  V30 8222 H 766.177 0.891892 1.16977 0
M  V30 8223 H 768.135 0.0685035 4.17144 0
M  V30 8224 H 766.765 -0.509752 3.1875 0
M  V30 8225 H 765.817 1.908 3.29089 0
M  V30 8226 H 767.129 2.30964 4.42105 0
M  V30 8227 H 766.283 0.596154 6.03764 0
M  V30 8228 H 765.022 0.0947081 4.87608 0
M  V30 8229 H 764.027 2.39847 4.94726 0
M  V30 8230 H 765.252 2.89514 6.14295 0
M  V30 8231 H 763.198 0.683755 6.52427 0
M  V30 8232 H 763.115 2.27325 7.21013 0
M  V30 8233 H 764.383 1.19123 7.70344 0
M  V30 8234 N 768.612 -1.24939 0.960631 0
M  V30 8235 C 770.023 -1.74701 0.658529 0
M  V30 8236 C 770.374 -1.77967 -0.825959 0
M  V30 8237 O 769.499 -1.40444 -1.64634 0
M  V30 8238 C 770.094 -3.17263 1.18867 0
M  V30 8239 C 768.653 -3.64561 0.936614 0
M  V30 8240 C 767.8 -2.43423 1.32817 0
M  V30 8241 H 770.751 -1.10741 1.13676 0
M  V30 8242 H 770.772 -3.76481 0.551589 0
M  V30 8243 H 770.284 -3.14854 2.26912 0
M  V30 8244 H 768.385 -3.72378 -0.128608 0
M  V30 8245 H 768.498 -4.52392 1.57729 0
M  V30 8246 H 766.862 -2.43513 0.746548 0
M  V30 8247 H 767.645 -2.437 2.41796 0
M  V30 8248 N 770.09 -0.729906 -1.39679 0
M  V30 8249 C 771.506 -0.404951 -1.54377 0
M  V30 8250 C 771.706 1.08476 -1.6981 0
M  V30 8251 O 770.762 1.87087 -1.69572 0
M  V30 8252 C 772.075 -1.18352 -2.76429 0
M  V30 8253 C 773.623 -1.17124 -2.9026 0
M  V30 8254 C 774.098 -1.93227 -4.15244 0
M  V30 8255 N 775.589 -1.90368 -4.22273 0
M  V30 8256 C 776.324 -2.46065 -5.17918 0
M  V30 8257 N 775.82 -3.10378 -6.19385 0
M  V30 8258 N 777.613 -2.36127 -5.10099 0
M  V30 8259 H 769.764 -1.69567 -1.27909 0
M  V30 8260 H 772.027 -0.717527 -0.619564 0
M  V30 8261 H 771.733 -2.23743 -2.71352 0
M  V30 8262 H 771.607 -0.784589 -3.6895 0
M  V30 8263 H 773.994 -0.125478 -2.94833 0
M  V30 8264 H 774.075 -1.60951 -1.98817 0
M  V30 8265 H 773.719 -2.97802 -4.11432 0
M  V30 8266 H 773.649 -1.4681 -5.05722 0
M  V30 8267 H 776.14 -1.4351 -3.4959 0
M  V30 8268 H 776.453 -3.50358 -6.88817 0
M  V30 8269 H 774.798 -3.14467 -6.19787 0
M  V30 8270 H 777.989 -1.85529 -4.29763 0
M  V30 8271 H 778.162 -2.79833 -5.84463 0
M  V30 8272 N 771.568 1.50203 -0.477153 0
M  V30 8273 C 772.816 2.01959 0.0755889 0
M  V30 8274 C 773.137 1.3608 1.39668 0
M  V30 8275 O 772.407 0.508136 1.89195 0
M  V30 8276 H 770.987 0.74636 0.0309248 0
M  V30 8277 H 773.649 1.84473 -0.628959 0
M  V30 8278 H 772.745 3.11305 0.222683 0
M  V30 8279 N 773.046 0.209999 1.56195 0
M  V30 8280 C 774.457 -0.299943 1.84275 0
M  V30 8281 C 774.808 -1.60314 1.1311 0
M  V30 8282 O 773.933 -2.1273 0.396874 0
M  V30 8283 C 774.528 -0.550986 3.3429 0
M  V30 8284 C 773.087 -1.00526 3.62728 0
M  V30 8285 C 772.234 -0.0619828 2.77231 0
M  V30 8286 H 775.185 0.433458 1.52666 0
M  V30 8287 H 775.206 -1.39846 3.53869 0
M  V30 8288 H 774.718 0.397669 3.86057 0
M  V30 8289 H 772.819 -1.96768 3.16407 0
M  V30 8290 H 772.932 -0.887664 4.70805 0
M  V30 8291 H 771.296 -0.566648 2.48317 0
M  V30 8292 H 772.079 0.881383 3.31793 0
M  V30 8293 N 774.524 -1.57472 -0.0634922 0
M  V30 8294 C 775.94 -1.54016 -0.418466 0
M  V30 8295 C 776.14 -0.931376 -1.78683 0
M  V30 8296 O 775.196 -0.537465 -2.46714 0
M  V30 8297 C 776.509 -2.98634 -0.351906 0
M  V30 8298 C 778.057 -3.10012 -0.431494 0
M  V30 8299 C 778.532 -4.56296 -0.394754 0
M  V30 8300 N 780.023 -4.60964 -0.454583 0
M  V30 8301 C 780.758 -5.71643 -0.448501 0
M  V30 8302 N 780.254 -6.91663 -0.396742 0
M  V30 8303 N 782.047 -5.5991 -0.495677 0
M  V30 8304 H 774.198 -1.95409 0.832408 0
M  V30 8305 H 776.461 -0.894769 0.313197 0
M  V30 8306 H 776.167 -3.46766 0.587048 0
M  V30 8307 H 776.041 -3.58955 -1.15893 0
M  V30 8308 H 778.428 -2.61848 -1.36087 0
M  V30 8309 H 778.509 -2.52585 0.404258 0
M  V30 8310 H 778.153 -5.05119 0.530811 0
M  V30 8311 H 778.083 -5.11594 -1.24815 0
M  V30 8312 H 780.574 -3.74598 -0.498496 0
M  V30 8313 H 780.887 -7.71783 -0.396256 0
M  V30 8314 H 779.232 -6.9405 -0.363304 0
M  V30 8315 H 782.423 -4.65046 -0.533864 0
M  V30 8316 H 782.596 -6.46164 -0.487469 0
M  V30 8317 N 776.003 0.335068 -1.53997 0
M  V30 8318 C 777.251 1.07223 -1.71312 0
M  V30 8319 C 777.572 1.88911 -0.483486 0
M  V30 8320 O 776.842 1.89344 0.50257 0
M  V30 8321 H 775.422 0.398846 -0.63161 0
M  V30 8322 H 778.084 0.374288 -1.91272 0
M  V30 8323 H 777.18 1.7448 -2.58772 0
M  V30 8324 N 777.481 1.45874 0.596531 0
M  V30 8325 C 778.892 1.44798 1.17857 0
M  V30 8326 C 779.243 0.181443 1.95359 0
M  V30 8327 O 778.368 -0.716336 2.042 0
M  V30 8328 C 778.963 2.62333 2.14398 0
M  V30 8329 C 777.522 2.64342 2.67955 0
M  V30 8330 C 776.669 2.37244 1.43564 0
M  V30 8331 H 779.62 1.53954 0.385222 0
M  V30 8332 H 779.641 2.37063 2.97626 0
M  V30 8333 H 779.153 3.54499 1.57963 0
M  V30 8334 H 777.254 1.76213 3.28298 0
M  V30 8335 H 777.367 3.63897 3.11634 0
M  V30 8336 H 775.731 1.87022 1.72901 0
M  V30 8337 H 776.514 3.31568 0.889805 0
M  V30 8338 N 778.959 -0.83999 1.33349 0
M  V30 8339 C 780.375 -1.13049 1.12659 0
M  V30 8340 C 780.575 -2.01328 -0.0832613 0
M  V30 8341 O 779.631 -2.40669 -0.763856 0
M  V30 8342 C 780.944 -1.79366 2.41347 0
M  V30 8343 C 782.492 -1.91937 2.47243 0
M  V30 8344 C 782.967 -2.6167 3.75889 0
M  V30 8345 N 784.458 -2.69184 3.76954 0
M  V30 8346 C 785.193 -3.23827 4.73206 0
M  V30 8347 N 784.689 -3.79166 5.79832 0
M  V30 8348 N 786.482 -3.22068 4.60683 0
M  V30 8349 H 778.633 -0.252432 2.10895 0
M  V30 8350 H 780.896 -0.174501 0.931801 0
M  V30 8351 H 780.602 -1.2196 3.29877 0
M  V30 8352 H 780.476 -2.79396 2.53412 0
M  V30 8353 H 782.863 -2.48498 1.59163 0
M  V30 8354 H 782.944 -0.908604 2.39119 0
M  V30 8355 H 782.588 -2.05769 4.64351 0
M  V30 8356 H 782.518 -3.63217 3.81289 0
M  V30 8357 H 785.009 -2.2994 2.99893 0
M  V30 8358 H 785.322 -4.19061 6.49313 0
M  V30 8359 H 783.667 -3.77457 5.83568 0
M  V30 8360 H 786.858 -2.78092 3.7654 0
M  V30 8361 H 787.031 -3.64351 5.35866 0
M  V30 8362 N 780.437 -1.16799 -1.0581 0
M  V30 8363 C 781.848 -0.95945 -1.60161 0
M  V30 8364 C 782.199 0.49543 -1.89842 0
M  V30 8365 O 781.324 1.36957 -1.67546 0
M  V30 8366 C 781.919 -1.73527 -2.90987 0
M  V30 8367 C 780.478 -1.57158 -3.42021 0
M  V30 8368 C 779.625 -1.74089 -2.15843 0
M  V30 8369 H 782.576 -1.31598 -0.886992 0
M  V30 8370 H 782.597 -1.21397 -3.60615 0
M  V30 8371 H 782.109 -2.79411 -2.69353 0
M  V30 8372 H 780.21 -0.537361 -3.68705 0
M  V30 8373 H 780.323 -2.35858 -4.17022 0
M  V30 8374 H 778.687 -1.16874 -2.26302 0
M  V30 8375 H 779.47 -2.81371 -1.96686 0
M  V30 8376 N 781.915 1.24427 -0.967243 0
M  V30 8377 C 782.847 2.24641 -0.454856 0
M  V30 8378 C 783.86 1.56849 0.436152 0
M  V30 8379 O 785.049 1.76846 0.242401 0
M  V30 8380 C 782.149 3.36954 0.362672 0
M  V30 8381 C 781.322 4.34318 -0.518324 0
M  V30 8382 C 780.381 5.25638 0.243122 0
M  V30 8383 O 779.407 5.68043 -0.362791 0
M  V30 8384 N 780.609 5.59897 1.53282 0
M  V30 8385 H 783.374 2.69238 -1.31648 0
M  V30 8386 H 780.935 1.38464 -0.839015 0
M  V30 8387 H 782.927 3.95014 0.880094 0
M  V30 8388 H 781.497 2.91646 1.12522 0
M  V30 8389 H 780.717 3.74953 -1.21672 0
M  V30 8390 H 782.005 4.96338 -1.11919 0
M  V30 8391 H 781.403 5.27373 2.04682 0
M  V30 8392 H 779.96 6.20488 1.99594 0
M  V30 8393 N 783.393 0.737304 1.3929 0
M  V30 8394 C 784.621 0.296573 2.04763 0
M  V30 8395 C 785.036 -1.06941 1.55592 0
M  V30 8396 O 784.393 -1.67619 0.721822 0
M  V30 8397 C 784.444 0.291906 3.6032 0
M  V30 8398 O 784.165 1.60397 4.07682 0
M  V30 8399 C 785.666 -0.164708 4.42994 0
M  V30 8400 H 782.886 0.129251 0.658434 0
M  V30 8401 H 785.43 1.0016 1.78293 0
M  V30 8402 H 783.585 -0.364251 3.85684 0
M  V30 8403 H 783.999 1.51909 5.0202 0
M  V30 8404 H 785.473 -0.116814 5.51876 0
M  V30 8405 H 785.95 -1.21022 4.22197 0
M  V30 8406 H 786.556 0.461968 4.22784 0
M  V30 8407 N 784.871 -1.49948 0.485112 0
M  V30 8408 C 786.096 -2.073 -0.0645059 0
M  V30 8409 C 786.521 -1.345 -1.31497 0
M  V30 8410 O 785.879 -0.39687 -1.76903 0
M  V30 8411 C 785.927 -3.59201 -0.317304 0
M  V30 8412 O 785.031 -3.88085 -1.39514 0
M  V30 8413 H 784.372 -0.663723 0.0191822 0
M  V30 8414 H 786.902 -1.92963 0.680179 0
M  V30 8415 H 786.912 -4.04227 -0.553604 0
M  V30 8416 H 785.587 -4.11602 0.596387 0
M  V30 8417 H 784.164 -3.54885 -1.14504 0
M  V30 8418 N 786.349 -0.21828 -1.56081 0
M  V30 8419 C 787.279 0.687922 -2.23136 0
M  V30 8420 C 788.26 1.20357 -1.202 0
M  V30 8421 O 789.445 1.24817 -1.48776 0
M  V30 8422 C 786.575 1.89762 -2.90874 0
M  V30 8423 C 785.529 1.51595 -4.00254 0
M  V30 8424 C 784.855 2.80415 -4.55271 0
M  V30 8425 C 786.155 0.708404 -5.17474 0
M  V30 8426 H 787.849 0.128854 -2.99123 0
M  V30 8427 H 785.395 0.0605354 -1.43873 0
M  V30 8428 H 787.348 2.53699 -3.36474 0
M  V30 8429 H 786.072 2.4816 -2.1233 0
M  V30 8430 H 784.731 0.900058 -3.55379 0
M  V30 8431 H 784.379 3.36951 -3.73461 0
M  V30 8432 H 784.079 2.55613 -5.2909 0
M  V30 8433 H 785.603 3.453 -5.03587 0
M  V30 8434 H 787.017 1.2514 -5.59476 0
M  V30 8435 H 785.414 0.557593 -5.97504 0
M  V30 8436 H 786.484 -0.285679 -4.84058 0
M  V30 8437 N 787.827 1.57504 0.0551401 0
M  V30 8438 C 788.757 2.07864 1.06372 0
M  V30 8439 C 789.738 0.975565 1.39344 0
M  V30 8440 O 790.923 1.24929 1.48682 0
M  V30 8441 C 788.053 2.53643 2.3724 0
M  V30 8442 C 787.007 3.67978 2.18578 0
M  V30 8443 C 786.333 3.9987 3.54976 0
M  V30 8444 C 787.633 4.97405 1.59329 0
M  V30 8445 H 789.327 2.92379 0.644595 0
M  V30 8446 H 786.873 1.40654 0.308619 0
M  V30 8447 H 788.826 2.8749 3.08103 0
M  V30 8448 H 787.55 1.66177 2.81163 0
M  V30 8449 H 786.209 3.3444 1.50152 0
M  V30 8450 H 785.857 3.0951 3.965 0
M  V30 8451 H 785.557 4.76867 3.43324 0
M  V30 8452 H 787.081 4.36228 4.27244 0
M  V30 8453 H 788.495 5.29375 2.20078 0
M  V30 8454 H 786.892 5.78837 1.58327 0
M  V30 8455 H 787.962 4.81697 0.55638 0
M  V30 8456 N 789.305 -0.326896 1.54172 0
M  V30 8457 C 790.533 -1.08486 1.76177 0
M  V30 8458 C 790.948 -1.81815 0.508788 0
M  V30 8459 O 790.305 -1.74924 -0.520362 0
M  V30 8460 C 790.356 -2.08552 2.95276 0
M  V30 8461 O 790.077 -1.38202 4.15731 0
M  V30 8462 C 791.578 -2.96593 3.29466 0
M  V30 8463 H 788.798 -0.322835 0.588233 0
M  V30 8464 H 791.342 -0.374036 2.0105 0
M  V30 8465 H 789.497 -2.75174 2.72687 0
M  V30 8466 H 789.911 -2.05186 4.827 0
M  V30 8467 H 791.385 -3.62708 4.16109 0
M  V30 8468 H 791.862 -3.63511 2.46487 0
M  V30 8469 H 792.468 -2.35537 3.54122 0
M  V30 8470 N 790.784 -1.46188 -0.588786 0
M  V30 8471 C 791.714 -1.59148 -1.70863 0
M  V30 8472 C 792.695 -0.442083 -1.64255 0
M  V30 8473 O 793.88 -0.667575 -1.82365 0
M  V30 8474 C 791.01 -1.5757 -3.09498 0
M  V30 8475 C 789.964 -2.71418 -3.30932 0
M  V30 8476 C 789.29 -2.549 -4.70032 0
M  V30 8477 C 790.59 -4.1329 -3.19356 0
M  V30 8478 H 792.284 -2.52889 -1.60274 0
M  V30 8479 H 789.83 -1.21707 -0.769638 0
M  V30 8480 H 791.783 -1.65231 -3.87655 0
M  V30 8481 H 790.507 -0.603705 -3.20972 0
M  V30 8482 H 789.166 -2.63216 -2.55172 0
M  V30 8483 H 788.814 -1.55797 -4.78264 0
M  V30 8484 H 788.514 -3.31257 -4.85327 0
M  V30 8485 H 790.038 -2.64443 -5.50366 0
M  V30 8486 H 791.452 -4.22636 -3.87365 0
M  V30 8487 H 789.849 -4.90187 -3.46175 0
M  V30 8488 H 790.919 -4.33874 -2.16522 0
M  V30 8489 N 792.262 0.832906 -1.33792 0
M  V30 8490 C 793.539 1.57359 -1.16178 0
M  V30 8491 C 793.919 2.09372 0.269532 0
M  V30 8492 O 793.267 1.89993 1.26944 0
M  V30 8493 C 793.477 2.70279 -2.20795 0
M  V30 8494 C 794.825 3.39305 -2.55259 0
M  V30 8495 O 795.849 2.80526 -2.19508 0
M  V30 8496 O 794.708 4.45428 -3.16632 0
M  V30 8497 H 791.802 0.694025 -0.449731 0
M  V30 8498 H 794.348 0.875144 -1.45394 0
M  V30 8499 H 793.12 2.29527 -3.16911 0
M  V30 8500 H 792.743 3.47782 -1.927 0
M  V30 8501 N 793.74 1.17359 1.05189 0
M  V30 8502 C 795.017 0.871914 1.75091 0
M  V30 8503 C 795.397 -0.627821 2.01548 0
M  V30 8504 O 794.745 -1.5791 1.65156 0
M  V30 8505 C 794.955 1.70687 3.04413 0
M  V30 8506 C 796.303 1.92684 3.78362 0
M  V30 8507 O 797.327 1.67645 3.14282 0
M  V30 8508 O 796.186 2.34765 4.93505 0
M  V30 8509 H 793.28 0.322831 0.761386 0
M  V30 8510 H 795.826 1.28054 1.11357 0
M  V30 8511 H 794.598 2.72405 2.80911 0
M  V30 8512 H 794.221 1.29602 3.75884 0
M  V30 8513 N 795.218 -1.23913 0.973828 0
M  V30 8514 C 796.466 -1.91771 0.637817 0
M  V30 8515 C 796.787 -1.76434 -0.830435 0
M  V30 8516 O 796.057 -1.13965 -1.59339 0
M  V30 8517 H 794.637 -0.709761 0.232912 0
M  V30 8518 H 797.299 -1.50677 1.23622 0
M  V30 8519 H 796.395 -2.99327 0.883731 0
M  V30 8520 N 796.696 -0.74468 -1.38897 0
M  V30 8521 C 797.944 -0.296298 -1.99916 0
M  V30 8522 C 798.265 1.12325 -1.59399 0
M  V30 8523 O 797.535 1.76658 -0.846689 0
M  V30 8524 H 796.115 -0.106561 -0.73936 0
M  V30 8525 H 798.777 -0.956793 -1.69798 0
M  V30 8526 H 797.873 -0.352356 -3.10105 0
M  V30 8527 N 798.174 1.49689 -0.493057 0
M  V30 8528 C 799.422 2.02027 0.0541642 0
M  V30 8529 C 799.743 1.37554 1.38217 0
M  V30 8530 O 799.013 0.528174 1.88646 0
M  V30 8531 H 797.593 0.746646 0.0230069 0
M  V30 8532 H 800.255 1.83795 -0.648489 0
M  V30 8533 H 799.351 3.11523 0.189652 0
M  V30 8534 N 799.652 0.226554 1.55963 0
M  V30 8535 C 800.584 -0.713907 2.17798 0
M  V30 8536 C 801.597 -1.15387 1.14846 0
M  V30 8537 O 802.786 -1.08416 1.41804 0
M  V30 8538 C 799.886 -1.97945 2.75084 0
M  V30 8539 C 799.059 -1.69424 4.03255 0
M  V30 8540 C 798.118 -2.80734 4.45056 0
M  V30 8541 O 797.144 -2.4899 5.11852 0
M  V30 8542 N 798.346 -4.09797 4.11152 0
M  V30 8543 H 801.111 -0.18494 2.99129 0
M  V30 8544 H 798.672 0.0457346 1.61835 0
M  V30 8545 H 800.664 -2.71611 3.00016 0
M  V30 8546 H 799.234 -2.41876 1.98027 0
M  V30 8547 H 798.454 -0.793767 3.86126 0
M  V30 8548 H 799.742 -1.47806 4.86858 0
M  V30 8549 H 799.14 -4.38429 3.57486 0
M  V30 8550 H 797.697 -4.79992 4.40966 0
M  V30 8551 N 801.13 -1.57531 -0.0467866 0
M  V30 8552 C 802.378 -1.88078 -0.739656 0
M  V30 8553 C 802.699 -0.821936 -1.76831 0
M  V30 8554 O 801.969 0.146582 -1.95351 0
M  V30 8555 H 800.549 -0.694075 -0.276169 0
M  V30 8556 H 803.211 -1.94893 -0.0169391 0
M  V30 8557 H 802.307 -2.86396 -1.24031 0
M  V30 8558 N 802.608 0.318715 -1.54344 0
M  V30 8559 C 803.54 1.41364 -1.80413 0
M  V30 8560 C 804.553 1.47627 -0.686294 0
M  V30 8561 O 805.742 1.50264 -0.963486 0
M  V30 8562 C 802.842 2.79867 -1.91123 0
M  V30 8563 C 802.015 2.96749 -3.21339 0
M  V30 8564 C 801.074 4.15642 -3.22689 0
M  V30 8565 O 800.1 4.08571 -3.96306 0
M  V30 8566 N 801.302 5.25416 -2.46817 0
M  V30 8567 H 804.067 1.19363 -2.74905 0
M  V30 8568 H 801.628 0.508722 -1.537 0
M  V30 8569 H 803.62 3.57619 -1.89448 0
M  V30 8570 H 802.19 2.94896 -1.03706 0
M  V30 8571 H 801.41 2.06257 -3.35934 0
M  V30 8572 H 802.698 3.04927 -4.07304 0
M  V30 8573 H 802.096 5.34037 -1.86605 0
M  V30 8574 H 800.653 6.01569 -2.50915 0
M  V30 8575 N 804.086 1.46499 0.581025 0
M  V30 8576 C 804.996 1.59778 1.71779 0
M  V30 8577 C 806.012 0.481223 1.67213 0
M  V30 8578 O 807.188 0.74557 1.87091 0
M  V30 8579 C 804.253 1.58626 3.08283 0
M  V30 8580 C 803.314 2.81527 3.241 0
M  V30 8581 C 802.547 2.80421 4.54092 0
M  V30 8582 O 802.77 1.89262 5.38085 0
M  V30 8583 O 801.704 3.71984 4.73193 0
M  V30 8584 H 805.53 2.55918 1.63523 0
M  V30 8585 H 803.115 1.29311 0.748267 0
M  V30 8586 H 804.997 1.60686 3.89561 0
M  V30 8587 H 803.672 0.656467 3.16973 0
M  V30 8588 H 802.579 2.85021 2.42309 0
M  V30 8589 H 803.912 3.73721 3.20302 0
M  V30 8590 N 805.565 -0.825799 1.34232 0
M  V30 8591 C 806.976 -1.39835 1.23706 0
M  V30 8592 C 807.327 -1.95709 -0.138649 0
M  V30 8593 O 806.452 -1.89833 -1.03886 0
M  V30 8594 C 807.047 -2.54203 2.23978 0
M  V30 8595 C 805.606 -3.07374 2.17251 0
M  V30 8596 C 804.753 -1.80232 2.10741 0
M  V30 8597 H 807.704 -0.630442 1.4564 0
M  V30 8598 H 807.725 -3.32214 1.8551 0
M  V30 8599 H 807.237 -2.13506 3.24094 0
M  V30 8600 H 805.338 -3.52583 1.20483 0
M  V30 8601 H 805.451 -3.6666 3.08379 0
M  V30 8602 H 803.815 -2.01012 1.56417 0
M  V30 8603 H 804.598 -1.41713 3.12686 0
M  V30 8604 N 807.043 -1.17915 -1.04565 0
M  V30 8605 C 808.454 -0.976383 -1.59134 0
M  V30 8606 C 808.805 0.475267 -1.90357 0
M  V30 8607 O 807.93 1.35172 -1.6899 0
M  V30 8608 C 808.525 -1.76604 -2.89131 0
M  V30 8609 C 807.084 -1.60777 -3.40335 0
M  V30 8610 C 806.231 -1.76369 -2.13985 0
M  V30 8611 H 809.182 -1.32532 -0.872985 0
M  V30 8612 H 809.203 -1.25215 -3.59307 0
M  V30 8613 H 808.715 -2.82252 -2.66375 0
M  V30 8614 H 806.816 -0.576436 -3.68114 0
M  V30 8615 H 806.929 -2.40268 -4.14497 0
M  V30 8616 H 805.293 -1.19268 -2.25049 0
M  V30 8617 H 806.076 -2.83441 -1.9369 0
M  V30 8618 N 808.521 1.23394 -0.980386 0
M  V30 8619 C 809.932 1.73631 -0.686239 0
M  V30 8620 C 810.283 1.79259 0.797541 0
M  V30 8621 O 809.408 1.43046 1.62379 0
M  V30 8622 C 810.003 3.15332 -1.239 0
M  V30 8623 C 808.562 3.63024 -0.994494 0
M  V30 8624 C 807.709 2.41279 -1.36673 0
M  V30 8625 H 810.66 1.08918 -1.15423 0
M  V30 8626 H 810.681 3.75556 -0.611414 0
M  V30 8627 H 810.193 3.11204 -2.31892 0
M  V30 8628 H 808.294 3.72535 0.0693492 0
M  V30 8629 H 808.407 4.49825 -1.64906 0
M  V30 8630 H 806.771 2.42295 -0.785195 0
M  V30 8631 H 807.554 2.39822 -2.45642 0
M  V30 8632 N 809.999 0.752036 1.385 0
M  V30 8633 C 810.909 0.125318 2.34265 0
M  V30 8634 C 811.925 -0.702437 1.59191 0
M  V30 8635 O 813.101 -0.626951 1.91393 0
M  V30 8636 C 810.166 -0.758486 3.38301 0
M  V30 8637 C 809.227 0.0834636 4.29219 0
M  V30 8638 C 808.46 -0.758252 5.28286 0
M  V30 8639 O 808.683 -1.99632 5.34325 0
M  V30 8640 O 807.617 -0.177878 6.01637 0
M  V30 8641 H 811.443 0.91617 2.89551 0
M  V30 8642 H 809.028 0.512911 1.4032 0
M  V30 8643 H 810.91 -1.26365 4.02007 0
M  V30 8644 H 809.585 -1.52786 2.85374 0
M  V30 8645 H 808.492 0.634545 3.68679 0
M  V30 8646 H 809.825 0.815455 4.85398 0
M  V30 8647 N 811.477 -1.49425 0.500989 0
M  V30 8648 C 812.888 -1.86624 0.0532011 0
M  V30 8649 C 813.239 -1.41331 -1.36088 0
M  V30 8650 O 812.364 -0.791195 -2.01418 0
M  V30 8651 C 812.959 -3.38681 0.0897693 0
M  V30 8652 C 811.518 -3.75181 -0.302677 0
M  V30 8653 C 810.665 -2.73419 0.462307 0
M  V30 8654 H 813.616 -1.41743 0.713773 0
M  V30 8655 H 813.637 -3.73902 -0.705528 0
M  V30 8656 H 813.149 -3.71616 1.11907 0
M  V30 8657 H 811.25 -3.47855 -1.33521 0
M  V30 8658 H 811.363 -4.79097 0.0167653 0
M  V30 8659 H 809.727 -2.54548 -0.0878557 0
M  V30 8660 H 810.51 -3.09198 1.49169 0
M  V30 8661 N 812.955 -0.234822 -1.55841 0
M  V30 8662 C 814.371 0.120295 -1.59146 0
M  V30 8663 C 814.571 1.57896 -1.25184 0
M  V30 8664 O 813.627 2.32138 -0.993393 0
M  V30 8665 C 814.94 -0.217984 -2.99909 0
M  V30 8666 C 816.488 -0.161298 -3.12584 0
M  V30 8667 C 816.963 -0.473438 -4.55546 0
M  V30 8668 N 818.454 -0.423494 -4.6126 0
M  V30 8669 C 819.189 -0.638334 -5.69836 0
M  V30 8670 N 818.685 -0.915659 -6.86722 0
M  V30 8671 N 820.478 -0.569864 -5.59204 0
M  V30 8672 H 812.629 -1.18622 -1.76189 0
M  V30 8673 H 814.892 -0.476426 -0.819587 0
M  V30 8674 H 814.598 -1.2309 -3.29457 0
M  V30 8675 H 814.472 0.460707 -3.74376 0
M  V30 8676 H 816.859 0.842274 -2.82825 0
M  V30 8677 H 816.94 -0.873661 -2.40418 0
M  V30 8678 H 816.584 -1.47451 -4.86025 0
M  V30 8679 H 816.514 0.260268 -5.25956 0
M  V30 8680 H 819.005 -0.217383 -3.77274 0
M  V30 8681 H 819.318 -1.06734 -7.65394 0
M  V30 8682 H 817.663 -0.953 -6.88435 0
M  V30 8683 H 820.854 -0.35334 -4.66765 0
M  V30 8684 H 821.027 -0.740698 -6.43753 0
M  V30 8685 N 814.433 1.57553 0.0384317 0
M  V30 8686 C 815.682 1.88022 0.730108 0
M  V30 8687 C 815.995 0.83209 1.77019 0
M  V30 8688 O 817.201 1.0257 2.51379 0
M  V30 8689 C 815.657 3.33637 1.3496 0
M  V30 8690 C 815.265 4.46659 0.346352 0
M  V30 8691 C 817.009 3.73266 2.02169 0
M  V30 8692 C 814.916 5.8333 0.973652 0
M  V30 8693 H 813.846 0.701496 0.276442 0
M  V30 8694 H 816.497 1.83493 -0.0158028 0
M  V30 8695 H 814.879 3.32882 2.1449 0
M  V30 8696 H 816.053 4.58868 -0.421558 0
M  V30 8697 H 814.368 4.15802 -0.223133 0
M  V30 8698 H 816.965 4.72689 2.49938 0
M  V30 8699 H 817.308 3.04776 2.8358 0
M  V30 8700 H 817.841 3.76156 1.29427 0
M  V30 8701 H 814.58 6.55197 0.199163 0
M  V30 8702 H 814.1 5.7486 1.71162 0
M  V30 8703 H 815.779 6.29757 1.48376 0
M  V30 8704 N 815.911 -0.310526 1.54511 0
M  V30 8705 C 817.139 -1.06611 1.77318 0
M  V30 8706 C 817.554 -1.81265 0.528043 0
M  V30 8707 O 816.911 -1.75466 -0.50178 0
M  V30 8708 C 816.962 -2.05409 2.97472 0
M  V30 8709 O 816.683 -1.33785 4.17173 0
M  V30 8710 C 818.184 -2.93082 3.32593 0
M  V30 8711 H 815.404 -0.316578 0.591624 0
M  V30 8712 H 817.948 -0.352691 2.01436 0
M  V30 8713 H 816.103 -2.72266 2.7559 0
M  V30 8714 H 816.517 -2.00055 4.84849 0
M  V30 8715 H 817.991 -3.58274 4.19933 0
M  V30 8716 H 818.468 -3.60877 2.50329 0
M  V30 8717 H 819.074 -2.31768 3.566 0
M  V30 8718 N 817.389 -1.46805 -0.573248 0
M  V30 8719 C 818.319 -1.60951 -1.69165 0
M  V30 8720 C 819.3 -0.45948 -1.63777 0
M  V30 8721 O 820.485 -0.68688 -1.81647 0
M  V30 8722 C 817.615 -1.60844 -3.07809 0
M  V30 8723 C 816.569 -2.74913 -3.28035 0
M  V30 8724 C 815.895 -2.59871 -4.67302 0
M  V30 8725 C 817.195 -4.16654 -3.14955 0
M  V30 8726 H 818.889 -2.54574 -1.57582 0
M  V30 8727 H 816.435 -1.22516 -0.756686 0
M  V30 8728 H 818.388 -1.69334 -3.85881 0
M  V30 8729 H 817.112 -0.637714 -3.20314 0
M  V30 8730 H 815.771 -2.65908 -2.52366 0
M  V30 8731 H 815.419 -1.60861 -4.76585 0
M  V30 8732 H 815.119 -3.36386 -4.81786 0
M  V30 8733 H 816.643 -2.70265 -5.4753 0
M  V30 8734 H 818.057 -4.26721 -3.82861 0
M  V30 8735 H 816.454 -4.93831 -3.40956 0
M  V30 8736 H 817.524 -4.36146 -2.11908 0
M  V30 8737 N 818.867 0.818669 -1.34668 0
M  V30 8738 C 819.814 1.92983 -1.26595 0
M  V30 8739 C 820.784 1.65506 -0.140315 0
M  V30 8740 O 821.969 1.88063 -0.322005 0
M  V30 8741 C 819.109 3.2932 -1.03163 0
M  V30 8742 C 818.222 3.69061 -2.24539 0
M  V30 8743 C 817.357 4.94368 -1.94355 0
M  V30 8744 C 816.396 5.26702 -3.11851 0
M  V30 8745 N 815.533 6.43187 -2.81522 0
M  V30 8746 H 820.373 1.99219 -2.2162 0
M  V30 8747 H 817.91 0.974612 -1.1018 0
M  V30 8748 H 819.868 4.07897 -0.87613 0
M  V30 8749 H 818.498 3.22584 -0.118045 0
M  V30 8750 H 817.55 2.85842 -2.50995 0
M  V30 8751 H 818.862 3.88924 -3.12313 0
M  V30 8752 H 818.016 5.80742 -1.75566 0
M  V30 8753 H 816.755 4.76515 -1.03848 0
M  V30 8754 H 815.76 4.38823 -3.31231 0
M  V30 8755 H 816.985 5.46492 -4.03142 0
M  V30 8756 H 814.931 6.26783 -1.93596 0
M  V30 8757 H 814.848 6.63243 -3.62829 0
M  V30 8758 H 816.116 7.32621 -2.66247 0
M  V30 8759 N 820.346 1.18468 1.03938 0
M  V30 8760 C 821.592 0.982286 1.77423 0
M  V30 8761 C 821.925 -0.48679 1.88 0
M  V30 8762 O 821.2 -1.36146 1.38905 0
M  V30 8763 C 821.483 1.63929 3.20623 0
M  V30 8764 C 821.336 3.18132 3.17982 0
M  V30 8765 C 822.655 1.3536 4.18767 0
M  V30 8766 H 819.774 0.358264 0.644062 0
M  V30 8767 H 822.416 1.46154 1.21405 0
M  V30 8768 H 820.566 1.2318 3.68455 0
M  V30 8769 H 822.238 3.68024 2.78129 0
M  V30 8770 H 820.481 3.50225 2.55978 0
M  V30 8771 H 821.152 3.5924 4.19107 0
M  V30 8772 H 823.628 1.70669 3.79488 0
M  V30 8773 H 822.504 1.83896 5.17178 0
M  V30 8774 H 822.765 0.276722 4.41233 0
M  V30 8775 N 821.824 -1.22873 0.986916 0
M  V30 8776 C 823.072 -1.91084 0.658121 0
M  V30 8777 C 823.393 -1.77304 -0.811675 0
M  V30 8778 O 822.663 -1.15649 -1.58121 0
M  V30 8779 H 821.243 -0.707251 0.240427 0
M  V30 8780 H 823.905 -1.49357 1.25213 0
M  V30 8781 H 823.001 -2.98373 0.915428 0
M  V30 8782 N 823.302 -0.75937 -1.38099 0
M  V30 8783 C 824.55 -0.317485 -1.99591 0
M  V30 8784 C 824.871 1.10628 -1.60581 0
M  V30 8785 O 824.141 1.7575 -0.865378 0
M  V30 8786 H 822.721 -0.114397 -0.738189 0
M  V30 8787 H 825.383 -0.974749 -1.68774 0
M  V30 8788 H 824.479 -0.385227 -3.09713 0
M  V30 8789 N 824.78 1.49157 -0.508906 0
M  V30 8790 C 825.712 2.272 0.302115 0
M  V30 8791 C 826.725 1.3407 0.923529 0
M  V30 8792 O 827.914 1.5929 0.805532 0
M  V30 8793 C 825.014 3.06736 1.44105 0
M  V30 8794 C 824.187 4.27497 0.925477 0
M  V30 8795 C 823.246 4.89014 1.94297 0
M  V30 8796 O 822.272 5.48851 1.50834 0
M  V30 8797 N 823.474 4.7937 3.2739 0
M  V30 8798 H 826.239 2.97443 -0.367115 0
M  V30 8799 H 823.8 1.58248 -0.341933 0
M  V30 8800 H 825.792 3.44763 2.11944 0
M  V30 8801 H 824.362 2.3905 2.0143 0
M  V30 8802 H 823.582 3.94135 0.0717301 0
M  V30 8803 H 824.87 5.05714 0.55955 0
M  V30 8804 H 824.268 4.31869 3.65384 0
M  V30 8805 H 822.825 5.21559 3.90922 0
M  V30 8806 N 826.258 0.243083 1.55714 0
M  V30 8807 C 827.669 -0.260788 1.8487 0
M  V30 8808 C 828.02 -1.57879 1.16485 0
M  V30 8809 O 827.145 -2.1184 0.441908 0
M  V30 8810 C 827.74 -0.479954 3.35383 0
M  V30 8811 C 826.299 -0.928096 3.64778 0
M  V30 8812 C 825.446 -0.00316416 2.773 0
M  V30 8813 H 828.397 0.465743 1.51712 0
M  V30 8814 H 828.418 -1.32308 3.56756 0
M  V30 8815 H 827.93 0.479468 3.85127 0
M  V30 8816 H 826.031 -1.90012 3.20509 0
M  V30 8817 H 826.144 -0.7876 4.72582 0
M  V30 8818 H 824.508 -0.513849 2.49463 0
M  V30 8819 H 825.291 0.951562 3.29849 0
M  V30 8820 N 827.736 -1.57571 -0.0300757 0
M  V30 8821 C 828.982 -1.89506 -0.722159 0
M  V30 8822 C 829.315 -0.840699 -1.7506 0
M  V30 8823 O 828.59 0.144358 -1.93964 0
M  V30 8824 C 828.873 -3.32081 -1.39262 0
M  V30 8825 C 828.726 -4.48211 -0.377768 0
M  V30 8826 C 830.045 -3.73557 -2.32687 0
M  V30 8827 H 827.164 -0.689213 -0.261064 0
M  V30 8828 H 829.806 -1.89994 0.0150388 0
M  V30 8829 H 827.956 -3.31796 -2.02098 0
M  V30 8830 H 829.628 -4.6063 0.248591 0
M  V30 8831 H 827.871 -4.3274 0.303045 0
M  V30 8832 H 828.542 -5.44854 -0.885347 0
M  V30 8833 H 831.018 -3.75202 -1.79896 0
M  V30 8834 H 829.894 -4.74125 -2.7658 0
M  V30 8835 H 830.155 -3.05759 -3.19317 0
M  V30 8836 N 829.214 0.302327 -1.54673 0
M  V30 8837 C 830.442 1.05669 -1.77881 0
M  V30 8838 C 830.857 1.80983 -0.537648 0
M  V30 8839 O 830.214 1.7573 0.492467 0
M  V30 8840 C 830.265 2.03828 -2.98557 0
M  V30 8841 O 829.986 1.3157 -4.17877 0
M  V30 8842 C 831.487 2.91314 -3.34143 0
M  V30 8843 H 828.707 0.313436 -0.593295 0
M  V30 8844 H 831.251 0.342003 -2.0162 0
M  V30 8845 H 829.406 2.70801 -2.7703 0
M  V30 8846 H 829.82 1.97481 -4.85903 0
M  V30 8847 H 831.294 3.56042 -4.21827 0
M  V30 8848 H 831.771 3.59544 -2.52239 0
M  V30 8849 H 832.377 2.29874 -3.57824 0
M  V30 8850 N 830.692 1.47107 0.565454 0
M  V30 8851 C 831.939 1.53308 1.32299 0
M  V30 8852 C 832.267 0.1919 1.93551 0
M  V30 8853 O 831.522 -0.81435 1.77952 0
M  V30 8854 C 831.821 2.59309 2.45954 0
M  V30 8855 C 831.487 4.02827 2.02586 0
M  V30 8856 C 830.149 4.41897 1.90474 0
M  V30 8857 C 832.501 4.92913 1.6937 0
M  V30 8858 C 829.829 5.68898 1.4343 0
M  V30 8859 C 832.181 6.20368 1.238 0
M  V30 8860 C 830.845 6.58327 1.10278 0
M  V30 8861 H 830.115 0.560993 0.484116 0
M  V30 8862 H 832.762 1.80667 0.634965 0
M  V30 8863 H 831.067 2.25676 3.20277 0
M  V30 8864 H 832.764 2.61332 3.04149 0
M  V30 8865 H 829.354 3.71953 2.12952 0
M  V30 8866 H 833.538 4.63433 1.77605 0
M  V30 8867 H 828.794 5.97065 1.31618 0
M  V30 8868 H 832.968 6.89589 0.971586 0
M  V30 8869 H 830.595 7.56628 0.736027 0
M  V30 8870 N 832.17 -0.811516 1.35101 0
M  V30 8871 C 833.1 -1.9378 1.30275 0
M  V30 8872 C 834.081 -1.69165 0.178075 0
M  V30 8873 O 835.266 -1.90599 0.372256 0
M  V30 8874 C 832.396 -3.30439 1.06899 0
M  V30 8875 C 831.35 -3.69523 2.15955 0
M  V30 8876 C 830.676 -5.0429 1.77751 0
M  V30 8877 C 831.976 -3.80419 3.57881 0
M  V30 8878 H 833.67 -1.98075 2.24514 0
M  V30 8879 H 831.216 -0.951586 1.08078 0
M  V30 8880 H 833.169 -4.08828 1.02164 0
M  V30 8881 H 831.893 -3.26473 0.0910462 0
M  V30 8882 H 830.552 -2.93416 2.19778 0
M  V30 8883 H 830.2 -4.96823 0.785876 0
M  V30 8884 H 829.9 -5.31411 2.5075 0
M  V30 8885 H 831.424 -5.85125 1.74533 0
M  V30 8886 H 832.838 -4.49051 3.56407 0
M  V30 8887 H 831.235 -4.19005 4.29598 0
M  V30 8888 H 832.305 -2.82105 3.94391 0
M  V30 8889 N 833.648 -1.19017 -1.03309 0
M  V30 8890 C 834.894 -0.991681 -1.769 0
M  V30 8891 C 835.227 0.476813 -1.88255 0
M  V30 8892 O 834.502 1.35407 -1.39625 0
M  V30 8893 C 834.785 -1.65627 -3.19749 0
M  V30 8894 C 834.638 -3.19813 -3.1629 0
M  V30 8895 C 835.957 -1.37579 -4.18043 0
M  V30 8896 H 833.076 -0.361674 -0.642153 0
M  V30 8897 H 835.718 -1.46795 -1.20628 0
M  V30 8898 H 833.868 -1.25132 -3.67796 0
M  V30 8899 H 835.54 -3.69494 -2.76174 0
M  V30 8900 H 833.783 -3.51578 -2.54117 0
M  V30 8901 H 834.454 -3.61457 -4.17196 0
M  V30 8902 H 836.93 -1.72679 -3.78578 0
M  V30 8903 H 835.806 -1.86636 -5.16196 0
M  V30 8904 H 836.067 -0.300118 -4.4108 0
M  V30 8905 N 835.127 1.22348 -0.993418 0
M  V30 8906 C 836.404 1.86632 -0.585495 0
M  V30 8907 C 836.784 1.89156 0.937187 0
M  V30 8908 O 836.132 1.38247 1.81934 0
M  V30 8909 C 836.342 3.27481 -1.20652 0
M  V30 8910 C 837.69 4.03971 -1.30738 0
M  V30 8911 O 838.714 3.3675 -1.16096 0
M  V30 8912 O 837.573 5.24302 -1.54173 0
M  V30 8913 H 834.667 0.802704 -0.198984 0
M  V30 8914 H 837.213 1.30122 -1.08933 0
M  V30 8915 H 835.985 3.20281 -2.24802 0
M  V30 8916 H 835.608 3.91597 -0.688312 0
M  V30 8917 N 836.605 0.766683 1.37694 0
M  V30 8918 C 837.833 0.339939 2.04088 0
M  V30 8919 C 838.248 -1.03617 1.57826 0
M  V30 8920 O 837.605 -1.6605 0.757214 0
M  V30 8921 C 837.656 0.368269 3.59619 0
M  V30 8922 O 837.377 1.69009 4.04188 0
M  V30 8923 C 838.878 -0.0707053 4.43244 0
M  V30 8924 H 836.098 0.143189 0.655544 0
M  V30 8925 H 838.642 1.03919 1.76128 0
M  V30 8926 H 836.797 -0.282359 3.8637 0
M  V30 8927 H 837.211 1.62523 4.98685 0
M  V30 8928 H 838.685 0.000273538 5.52 0
M  V30 8929 H 839.162 -1.1204 4.24669 0
M  V30 8930 H 839.768 0.551543 4.21709 0
M  V30 8931 N 838.083 -1.48885 0.516809 0
M  V30 8932 C 839.331 -2.02088 -0.0220166 0
M  V30 8933 C 839.652 -1.39735 -1.36011 0
M  V30 8934 O 838.922 -0.558119 -1.87781 0
M  V30 8935 H 837.502 -0.746917 -0.0111255 0
M  V30 8936 H 840.164 -1.8274 0.677647 0
M  V30 8937 H 839.26 -3.11786 -0.140067 0
M  V30 8938 N 839.561 -0.251338 -1.55583 0
M  V30 8939 C 840.524 0.63305 -2.20284 0
M  V30 8940 C 841.524 1.09941 -1.17344 0
M  V30 8941 O 842.714 1.00341 -1.42399 0
M  V30 8942 C 839.846 1.8706 -2.84993 0
M  V30 8943 H 841.039 0.0684846 -2.99822 0
M  V30 8944 H 838.592 -0.00181653 -1.563 0
M  V30 8945 H 839.327 2.47629 -2.09405 0
M  V30 8946 H 839.112 1.54436 -3.60405 0
M  V30 8947 H 840.602 2.50004 -3.34496 0
M  V30 8948 N 841.039 1.57585 0.0217189 0
M  V30 8949 C 841.971 2.03849 1.04777 0
M  V30 8950 C 842.984 0.952558 1.32023 0
M  V30 8951 O 844.173 1.22974 1.29381 0
M  V30 8952 C 841.273 2.40504 2.3877 0
M  V30 8953 C 840.446 3.71566 2.30775 0
M  V30 8954 C 839.505 3.95329 3.47277 0
M  V30 8955 O 838.531 4.66289 3.26441 0
M  V30 8956 N 839.733 3.41536 4.69397 0
M  V30 8957 H 842.498 2.92491 0.653395 0
M  V30 8958 H 840.059 1.60538 0.209527 0
M  V30 8959 H 842.051 2.53532 3.15442 0
M  V30 8960 H 840.621 1.57494 2.70027 0
M  V30 8961 H 839.841 3.68822 1.39155 0
M  V30 8962 H 841.129 4.5753 2.22584 0
M  V30 8963 H 840.527 2.84033 4.89226 0
M  V30 8964 H 839.084 3.59932 5.43408 0
M  V30 8965 N 842.517 -0.29412 1.54831 0
M  V30 8966 C 843.467 -1.36476 1.82643 0
M  V30 8967 C 844.451 -1.45638 0.683984 0
M  V30 8968 O 845.643 -1.49675 0.944801 0
M  V30 8969 C 842.772 -2.72865 2.08326 0
M  V30 8970 C 841.858 -2.67898 3.28773 0
M  V30 8971 N 842.249 -2.32547 4.49172 0
M  V30 8972 C 840.547 -2.98991 3.30939 0
M  V30 8973 C 841.248 -2.37048 5.31209 0
M  V30 8974 N 840.224 -2.74679 4.69097 0
M  V30 8975 H 844.026 -1.08119 2.7329 0
M  V30 8976 H 841.54 -0.502718 1.54423 0
M  V30 8977 H 843.537 -3.5007 2.264 0
M  V30 8978 H 842.197 -3.02127 1.1895 0
M  V30 8979 H 843.208 -2.04883 4.7565 0
M  V30 8980 H 839.885 -3.33104 2.51691 0
M  V30 8981 H 841.275 -2.12457 6.37426 0
M  V30 8982 N 843.995 -1.47404 -0.557645 0
M  V30 8983 C 845.22 -1.57868 -1.34508 0
M  V30 8984 C 845.645 -0.229151 -1.86699 0
M  V30 8985 O 845.003 0.794908 -1.62944 0
M  V30 8986 C 845.051 -2.60712 -2.49122 0
M  V30 8987 O 844.155 -2.15952 -3.51338 0
M  V30 8988 H 843.496 -0.530335 -0.399551 0
M  V30 8989 H 846.026 -1.93181 -0.673954 0
M  V30 8990 H 846.036 -2.81118 -2.95697 0
M  V30 8991 H 844.711 -3.58701 -2.10491 0
M  V30 8992 H 843.288 -2.05644 -3.11071 0
M  V30 8993 N 845.473 0.80434 -1.35529 0
M  V30 8994 C 846.719 1.56385 -1.29118 0
M  V30 8995 C 847.052 1.9374 0.133536 0
M  V30 8996 O 846.327 1.6153 1.08344 0
M  V30 8997 C 846.61 2.85097 -2.19981 0
M  V30 8998 C 846.463 2.54204 -3.7108 0
M  V30 8999 C 847.782 3.86817 -2.09907 0
M  V30 9000 H 844.901 0.567382 -0.470368 0
M  V30 9001 H 847.543 0.925235 -1.6595 0
M  V30 9002 H 845.693 3.39594 -1.88701 0
M  V30 9003 H 847.365 2.05872 -4.12813 0
M  V30 9004 H 845.608 1.87364 -3.91251 0
M  V30 9005 H 846.279 3.46068 -4.30048 0
M  V30 9006 H 848.755 3.41725 -2.37409 0
M  V30 9007 H 847.631 4.7465 -2.75678 0
M  V30 9008 H 847.892 4.28663 -1.08171 0
M  V30 9009 N 846.951 1.19563 1.02676 0
M  V30 9010 C 847.881 0.959024 2.12897 0
M  V30 9011 C 848.862 -0.108382 1.69754 0
M  V30 9012 O 850.047 0.0470698 1.94143 0
M  V30 9013 C 847.177 0.499211 3.43693 0
M  V30 9014 C 846.131 1.5087 4.00528 0
M  V30 9015 C 845.457 0.905884 5.2697 0
M  V30 9016 C 846.757 2.88954 4.3509 0
M  V30 9017 H 848.451 1.88084 2.32948 0
M  V30 9018 H 845.997 0.905731 1.11949 0
M  V30 9019 H 847.95 0.320965 4.20176 0
M  V30 9020 H 846.674 -0.458205 3.2337 0
M  V30 9021 H 845.333 1.67413 3.26142 0
M  V30 9022 H 844.981 -0.0591506 5.02965 0
M  V30 9023 H 844.681 1.58 5.65959 0
M  V30 9024 H 846.205 0.73848 6.06118 0
M  V30 9025 H 847.619 2.75981 5.02501 0
M  V30 9026 H 846.016 3.53177 4.85166 0
M  V30 9027 H 847.086 3.41447 3.44299 0
M  V30 9028 N 848.429 -1.21819 0.999893 0
M  V30 9029 C 849.657 -1.94758 0.698359 0
M  V30 9030 C 850.072 -1.73771 -0.738183 0
M  V30 9031 O 849.429 -1.04113 -1.49889 0
M  V30 9032 C 849.48 -3.47292 1.00353 0
M  V30 9033 O 849.201 -3.67579 2.38363 0
M  V30 9034 C 850.702 -4.37403 0.72068 0
M  V30 9035 H 847.922 -0.619512 0.257771 0
M  V30 9036 H 850.466 -1.54778 1.33656 0
M  V30 9037 H 848.621 -3.85213 0.411018 0
M  V30 9038 H 849.035 -4.61719 2.48829 0
M  V30 9039 H 850.509 -5.43151 0.984422 0
M  V30 9040 H 850.986 -4.3784 -0.345309 0
M  V30 9041 H 851.592 -4.05119 1.29456 0
M  V30 9042 N 849.908 -0.773975 -1.37286 0
M  V30 9043 C 850.84 -0.119938 -2.28886 0
M  V30 9044 C 851.853 0.661822 -1.48741 0
M  V30 9045 O 853.042 0.499548 -1.71367 0
M  V30 9046 C 850.142 0.853703 -3.27971 0
M  V30 9047 C 849.315 0.125286 -4.37221 0
M  V30 9048 C 848.374 1.01261 -5.16365 0
M  V30 9049 O 847.4 0.475565 -5.6721 0
M  V30 9050 N 848.602 2.33864 -5.31308 0
M  V30 9051 H 851.367 -0.906702 -2.85655 0
M  V30 9052 H 848.928 -0.626519 -1.49286 0
M  V30 9053 H 850.92 1.4508 -3.77801 0
M  V30 9054 H 849.49 1.54142 -2.71954 0
M  V30 9055 H 848.71 -0.652742 -3.88758 0
M  V30 9056 H 849.998 -0.377959 -5.07394 0
M  V30 9057 H 849.396 2.79929 -4.91585 0
M  V30 9058 H 847.953 2.88575 -5.84438 0
M  V30 9059 N 851.386 1.48609 -0.524698 0
M  V30 9060 C 852.334 2.31205 0.254398 0
M  V30 9061 C 853.328 1.40894 0.940491 0
M  V30 9062 O 854.534 1.57827 0.865478 0
M  V30 9063 H 850.909 0.745199 0.100907 0
M  V30 9064 H 852.88 2.94804 -0.461876 0
M  V30 9065 C 851.629 3.2282 1.2916 0
M  V30 9066 H 850.952 3.92255 0.773074 0
M  V30 9067 H 852.392 3.83508 1.80825 0
M  V30 9068 C 850.851 2.4406 2.32242 0
M  V30 9069 O 851.381 2.16163 3.3858 0
M  V30 9070 N 849.587 2.05651 2.05319 0
M  V30 9071 H 849.134 2.28539 1.18861 0
M  V30 9072 H 849.092 1.53265 2.74513 0
M  V30 9073 N 852.864 0.259585 1.55447 0
M  V30 9074 C 854.275 -0.241165 1.85136 0
M  V30 9075 C 854.626 -1.56634 1.18153 0
M  V30 9076 O 853.751 -2.11359 0.464351 0
M  V30 9077 C 854.346 -0.444355 3.35873 0
M  V30 9078 C 852.905 -0.889354 3.65742 0
M  V30 9079 C 852.052 0.0262474 2.77288 0
M  V30 9080 H 855.003 0.481808 1.51209 0
M  V30 9081 H 855.024 -1.28517 3.58139 0
M  V30 9082 H 854.536 0.520289 3.84597 0
M  V30 9083 H 852.637 -1.86602 3.22507 0
M  V30 9084 H 852.75 -0.737432 4.73391 0
M  V30 9085 H 851.114 -0.487361 2.49994 0
M  V30 9086 H 851.897 0.986494 3.28821 0
M  V30 9087 N 854.342 -1.57594 -0.0133615 0
M  V30 9088 C 855.59 -1.89605 -0.699596 0
M  V30 9089 C 855.911 -0.85926 -1.75048 0
M  V30 9090 O 855.181 0.105112 -1.95618 0
M  V30 9091 H 853.761 -0.699776 -0.261385 0
M  V30 9092 H 856.423 -1.94885 0.0244044 0
M  V30 9093 H 855.519 -2.88962 -1.17928 0
M  V30 9094 N 855.82 0.285905 -1.54985 0
M  V30 9095 C 857.231 0.857869 -1.65824 0
M  V30 9096 C 857.582 1.87531 -0.576763 0
M  V30 9097 O 856.707 2.14528 0.284016 0
M  V30 9098 C 857.302 1.56277 -3.00604 0
M  V30 9099 C 855.861 2.08294 -3.13513 0
M  V30 9100 C 855.008 0.920633 -2.61571 0
M  V30 9101 H 857.959 0.0625463 -1.58577 0
M  V30 9102 H 857.98 2.42912 -2.92872 0
M  V30 9103 H 857.492 0.822017 -3.79295 0
M  V30 9104 H 855.593 2.8537 -2.39572 0
M  V30 9105 H 855.706 2.3071 -4.19892 0
M  V30 9106 H 854.07 1.31043 -2.18403 0
M  V30 9107 H 854.853 0.193594 -3.42754 0
M  V30 9108 N 857.298 1.47698 0.54982 0
M  V30 9109 C 858.228 1.63622 1.66583 0
M  V30 9110 C 859.209 0.485477 1.63025 0
M  V30 9111 O 860.394 0.715692 1.80531 0
M  V30 9112 C 857.524 1.65721 3.05211 0
M  V30 9113 C 856.478 2.80097 3.2362 0
M  V30 9114 C 855.804 2.67272 4.63109 0
M  V30 9115 C 857.104 4.21612 3.08286 0
M  V30 9116 H 858.798 2.57049 1.53512 0
M  V30 9117 H 856.344 1.23705 0.737099 0
M  V30 9118 H 858.297 1.75451 3.83138 0
M  V30 9119 H 857.021 0.688593 3.19258 0
M  V30 9120 H 855.68 2.69889 2.48104 0
M  V30 9121 H 855.328 1.68422 4.73965 0
M  V30 9122 H 855.028 3.44008 4.76374 0
M  V30 9123 H 856.552 2.78942 5.43161 0
M  V30 9124 H 857.966 4.32758 3.76024 0
M  V30 9125 H 856.363 4.99193 3.33057 0
M  V30 9126 H 857.433 4.39462 2.04942 0
M  V30 9127 N 858.776 -0.797141 1.35954 0
M  V30 9128 C 860.001 -1.59097 1.33053 0
M  V30 9129 C 860.426 -1.87897 -0.0874592 0
M  V30 9130 O 859.784 -1.47291 -1.05712 0
M  V30 9131 C 859.832 -2.89346 2.152 0
M  V30 9132 O 858.936 -3.826 1.5392 0
M  V30 9133 H 858.277 -0.482895 0.45575 0
M  V30 9134 H 860.807 -0.988633 1.79129 0
M  V30 9135 H 860.817 -3.38686 2.27499 0
M  V30 9136 H 859.492 -2.6771 3.18283 0
M  V30 9137 H 858.069 -3.41174 1.50516 0
M  V30 9138 N 860.254 -1.20106 -1.0204 0
M  V30 9139 C 861.531 -0.918029 -1.72718 0
M  V30 9140 C 861.911 0.574163 -2.03142 0
M  V30 9141 O 861.259 1.53476 -1.69285 0
M  V30 9142 C 861.469 -1.78698 -2.9978 0
M  V30 9143 C 862.817 -2.02648 -3.7312 0
M  V30 9144 O 863.841 -1.75919 -3.09727 0
M  V30 9145 O 862.7 -2.47767 -4.87107 0
M  V30 9146 H 859.794 -0.342904 -0.752559 0
M  V30 9147 H 862.34 -1.30961 -1.07923 0
M  V30 9148 H 861.112 -2.79757 -2.7359 0
M  V30 9149 H 860.735 -1.39522 -3.72316 0
M  V30 9150 N 861.732 1.21287 -1.00634 0
M  V30 9151 C 862.679 2.23705 -0.567876 0
M  V30 9152 C 863.649 1.61043 0.406753 0
M  V30 9153 O 864.834 1.88289 0.308499 0
M  V30 9154 C 861.974 3.44961 0.097996 0
M  V30 9155 C 861.087 4.22091 -0.919972 0
M  V30 9156 C 860.222 5.30718 -0.226222 0
M  V30 9157 C 859.261 5.99581 -1.23165 0
M  V30 9158 N 858.398 6.99821 -0.565278 0
M  V30 9159 H 863.238 2.60571 -1.44592 0
M  V30 9160 H 860.775 1.28049 -0.724006 0
M  V30 9161 H 862.733 4.1418 0.501097 0
M  V30 9162 H 861.363 3.08818 0.939744 0
M  V30 9163 H 860.415 3.52038 -1.44131 0
M  V30 9164 H 861.727 4.69476 -1.68505 0
M  V30 9165 H 860.881 6.06253 0.232917 0
M  V30 9166 H 859.62 4.84343 0.571247 0
M  V30 9167 H 858.625 5.22816 -1.70128 0
M  V30 9168 H 859.85 6.48042 -2.03022 0
M  V30 9169 H 857.796 6.55656 0.212508 0
M  V30 9170 H 857.713 7.4528 -1.26858 0
M  V30 9171 H 858.981 7.79393 -0.129389 0
M  V30 9172 N 863.21 0.781244 1.36873 0
M  V30 9173 C 864.435 0.360398 2.04245 0
M  V30 9174 C 864.86 -1.01242 1.58529 0
M  V30 9175 O 864.218 -1.65063 0.749936 0
M  V30 9176 C 864.266 0.42329 3.58107 0
M  V30 9177 O 863.37 -0.572796 4.08403 0
M  V30 9178 H 862.711 0.154386 0.645803 0
M  V30 9179 H 865.241 1.06008 1.74996 0
M  V30 9180 H 865.251 0.283967 4.07011 0
M  V30 9181 H 863.926 1.42477 3.90734 0
M  V30 9182 H 862.503 -0.395809 3.70793 0
M  V30 9183 N 864.689 -1.48329 0.532571 0
M  V30 9184 C 865.652 -2.2816 -0.218069 0
M  V30 9185 C 866.652 -1.35526 -0.865409 0
M  V30 9186 O 867.842 -1.58394 -0.725061 0
M  V30 9187 C 864.974 -3.1448 -1.31586 0
M  V30 9188 H 866.167 -2.95987 0.482865 0
M  V30 9189 H 863.72 -1.53612 0.288603 0
M  V30 9190 H 864.455 -2.5129 -2.04997 0
M  V30 9191 H 864.24 -3.82625 -0.856779 0
M  V30 9192 H 865.73 -3.74693 -1.84377 0
M  V30 9193 N 866.167 -0.267825 -1.55308 0
M  V30 9194 C 867.413 0.34458 -2.0046 0
M  V30 9195 C 867.768 1.54028 -1.15296 0
M  V30 9196 O 867.061 1.90409 -0.213316 0
M  V30 9197 C 867.255 0.784247 -3.48689 0
M  V30 9198 C 867.084 -0.367304 -4.48197 0
M  V30 9199 C 865.854 -0.848746 -4.98121 0
M  V30 9200 C 868.052 -1.20136 -5.00072 0
M  V30 9201 N 866.034 -1.97052 -5.81415 0
M  V30 9202 C 867.405 -2.17115 -5.80742 0
M  V30 9203 C 869.46 -1.23553 -4.82327 0
M  V30 9204 C 868.163 -3.17248 -6.45559 0
M  V30 9205 C 870.189 -2.22527 -5.47938 0
M  V30 9206 C 869.551 -3.1824 -6.28413 0
M  V30 9207 H 865.65 0.091465 -0.776633 0
M  V30 9208 H 868.234 -0.390184 -1.9075 0
M  V30 9209 H 866.405 1.48825 -3.58756 0
M  V30 9210 H 868.137 1.37337 -3.80684 0
M  V30 9211 H 864.892 -0.429291 -4.7165 0
M  V30 9212 H 865.316 -2.53481 -6.27755 0
M  V30 9213 H 869.958 -0.50937 -4.1972 0
M  V30 9214 H 867.676 -3.90801 -7.07319 0
M  V30 9215 H 871.262 -2.25904 -5.36152 0
M  V30 9216 H 870.142 -3.93573 -6.78285 0
M  V30 9217 N 867.645 1.57599 0.00500368 0
M  V30 9218 C 868.891 1.90631 0.691919 0
M  V30 9219 C 869.224 0.868443 1.737 0
M  V30 9220 O 868.499 -0.113482 1.94169 0
M  V30 9221 C 868.782 3.34255 1.33961 0
M  V30 9222 C 868.635 4.48755 0.306413 0
M  V30 9223 C 869.954 3.77211 2.26715 0
M  V30 9224 H 867.073 0.693279 0.250066 0
M  V30 9225 H 869.715 1.89946 -0.0452634 0
M  V30 9226 H 867.865 3.3497 1.96793 0
M  V30 9227 H 869.537 4.60176 -0.321841 0
M  V30 9228 H 867.78 4.32203 -0.371852 0
M  V30 9229 H 868.451 5.46193 0.798554 0
M  V30 9230 H 870.927 3.78017 1.73904 0
M  V30 9231 H 869.803 4.78466 2.69002 0
M  V30 9232 H 870.064 3.10801 3.14413 0
M  V30 9233 N 869.123 -0.277682 1.55134 0
M  V30 9234 C 870.055 -1.36531 1.84098 0
M  V30 9235 C 871.068 -1.45756 0.725194 0
M  V30 9236 O 872.257 -1.47656 1.00299 0
M  V30 9237 C 869.357 -2.74701 1.98476 0
M  V30 9238 C 868.53 -2.88125 3.29094 0
M  V30 9239 C 867.589 -4.0694 3.33596 0
M  V30 9240 O 866.615 -3.9792 4.06999 0
M  V30 9241 N 867.817 -5.18687 2.60661 0
M  V30 9242 H 870.582 -1.12032 2.77973 0
M  V30 9243 H 868.143 -0.467793 1.54995 0
M  V30 9244 H 870.135 -3.52471 1.98863 0
M  V30 9245 H 868.705 -2.92043 1.11488 0
M  V30 9246 H 867.925 -1.97277 3.41285 0
M  V30 9247 H 869.213 -2.94021 4.15246 0
M  V30 9248 H 868.611 -5.28901 2.00699 0
M  V30 9249 H 867.168 -5.94705 2.66776 0
M  V30 9250 N 870.601 -1.47988 -0.541979 0
M  V30 9251 C 871.849 -1.55086 -1.29587 0
M  V30 9252 C 872.17 -0.221304 -1.9374 0
M  V30 9253 O 871.44 0.756128 -1.80719 0
M  V30 9254 H 870.02 -0.571307 -0.481266 0
M  V30 9255 H 872.682 -1.8438 -0.631675 0
M  V30 9256 H 871.778 -2.32556 -2.08144 0
M  V30 9257 N 872.079 0.78992 -1.36375 0
M  V30 9258 C 873.042 1.88414 -1.30509 0
M  V30 9259 C 874.042 1.59384 -0.2129 0
M  V30 9260 O 875.232 1.67805 -0.467651 0
M  V30 9261 C 872.364 3.25188 -1.02302 0
M  V30 9262 H 873.557 1.95031 -2.27822 0
M  V30 9263 H 871.11 0.987664 -1.2114 0
M  V30 9264 H 871.845 3.24254 -0.0544486 0
M  V30 9265 H 871.63 3.47647 -1.81338 0
M  V30 9266 H 873.12 4.05252 -1.00801 0
M  V30 9267 N 873.557 1.20646 1.01402 0
M  V30 9268 C 874.785 1.04389 1.78635 0
M  V30 9269 C 875.2 -0.406771 1.84366 0
M  V30 9270 O 874.557 -1.28239 1.2985 0
M  V30 9271 C 874.608 1.62378 3.22979 0
M  V30 9272 O 874.329 3.01768 3.17597 0
M  V30 9273 C 875.83 1.5111 4.1675 0
M  V30 9274 H 873.05 0.367077 0.56169 0
M  V30 9275 H 875.594 1.59789 1.27624 0
M  V30 9276 H 873.749 1.11092 3.7113 0
M  V30 9277 H 874.163 3.29331 4.08217 0
M  V30 9278 H 875.637 1.96441 5.15863 0
M  V30 9279 H 876.114 0.464011 4.36742 0
M  V30 9280 H 876.72 2.01599 3.74483 0
M  V30 9281 N 875.035 -1.20752 1.01276 0
M  V30 9282 C 876.283 -1.89645 0.698505 0
M  V30 9283 C 876.604 -1.78986 -0.773883 0
M  V30 9284 O 875.874 -1.18977 -1.55632 0
M  V30 9285 H 874.454 -0.701992 0.255375 0
M  V30 9286 H 877.116 -1.46668 1.28353 0
M  V30 9287 H 876.212 -2.96364 0.978512 0
M  V30 9288 N 876.513 -0.788492 -1.36457 0
M  V30 9289 C 877.761 -0.359749 -1.98872 0
M  V30 9290 C 878.082 1.07197 -1.62892 0
M  V30 9291 O 877.352 1.73875 -0.902463 0
M  V30 9292 H 875.932 -0.130029 -0.735596 0
M  V30 9293 H 878.594 -1.01033 -1.66668 0
M  V30 9294 H 877.69 -0.450835 -3.08827 0
M  V30 9295 N 877.991 1.48044 -0.54043 0
M  V30 9296 C 878.938 2.29781 0.216597 0
M  V30 9297 C 879.908 1.38021 0.924094 0
M  V30 9298 O 881.093 1.66985 0.923078 0
M  V30 9299 C 878.233 3.21623 1.2511 0
M  V30 9300 C 877.346 4.28467 0.551384 0
M  V30 9301 C 876.481 5.07477 1.56972 0
M  V30 9302 C 875.52 6.06113 0.854048 0
M  V30 9303 N 874.657 6.78143 1.81842 0
M  V30 9304 H 879.497 2.94001 -0.486578 0
M  V30 9305 H 877.034 1.44929 -0.251789 0
M  V30 9306 H 878.992 3.73279 1.8633 0
M  V30 9307 H 877.622 2.59305 1.92252 0
M  V30 9308 H 876.674 3.79997 -0.174982 0
M  V30 9309 H 877.986 4.98799 -0.0100542 0
M  V30 9310 H 877.14 5.63199 2.25592 0
M  V30 9311 H 875.879 4.37008 2.16507 0
M  V30 9312 H 874.884 5.49585 0.153838 0
M  V30 9313 H 876.109 6.78584 0.264675 0
M  V30 9314 H 874.055 6.10417 2.40265 0
M  V30 9315 H 873.972 7.44587 1.3087 0
M  V30 9316 H 875.24 7.38448 2.49628 0
M  V30 9317 N 879.47 0.276058 1.55163 0
M  V30 9318 C 880.886 -0.0780579 1.59409 0
M  V30 9319 C 881.086 -1.54521 1.29327 0
M  V30 9320 O 880.142 -2.29422 1.05459 0
M  V30 9321 C 881.455 0.297422 2.99225 0
M  V30 9322 C 883.003 0.244117 3.12047 0
M  V30 9323 C 883.478 0.594051 4.54131 0
M  V30 9324 N 884.969 0.54564 4.59975 0
M  V30 9325 C 885.704 0.789192 5.67943 0
M  V30 9326 N 885.2 1.09741 6.84053 0
M  V30 9327 N 886.993 0.717926 5.57496 0
M  V30 9328 H 879.144 1.23251 1.72982 0
M  V30 9329 H 881.407 0.497988 0.806667 0
M  V30 9330 H 881.113 1.31782 3.26077 0
M  V30 9331 H 880.987 -0.361286 3.75466 0
M  V30 9332 H 883.374 -0.766992 2.84958 0
M  V30 9333 H 883.455 0.937097 2.38017 0
M  V30 9334 H 883.099 1.60285 4.81945 0
M  V30 9335 H 883.029 -0.120728 5.26462 0
M  V30 9336 H 885.52 0.317334 3.76565 0
M  V30 9337 H 885.833 1.26989 7.62295 0
M  V30 9338 H 884.178 1.13519 6.85666 0
M  V30 9339 H 887.369 0.47697 4.65664 0
M  V30 9340 H 887.542 0.911118 6.41563 0
M  V30 9341 N 880.948 -1.576 0.00335426 0
M  V30 9342 C 882.178 -1.94713 -0.690682 0
M  V30 9343 C 882.586 -0.876915 -1.67651 0
M  V30 9344 O 881.929 0.152434 -1.83066 0
M  V30 9345 C 881.991 -3.27833 -1.47532 0
M  V30 9346 C 881.655 -4.52344 -0.650704 0
M  V30 9347 C 882.652 -5.19862 0.0630537 0
M  V30 9348 C 880.337 -4.98755 -0.595687 0
M  V30 9349 C 882.331 -6.32093 0.820779 0
M  V30 9350 C 880.018 -6.10875 0.165761 0
M  V30 9351 C 881.016 -6.77401 0.872724 0
M  V30 9352 O 880.704 -7.87372 1.62174 0
M  V30 9353 H 880.436 -0.646627 -0.197104 0
M  V30 9354 H 882.99 -2.05335 0.0516082 0
M  V30 9355 H 881.22 -3.13628 -2.26217 0
M  V30 9356 H 882.909 -3.50034 -2.05501 0
M  V30 9357 H 883.675 -4.84991 0.0297223 0
M  V30 9358 H 879.554 -4.46797 -1.13549 0
M  V30 9359 H 883.098 -6.83953 1.37312 0
M  V30 9360 H 878.995 -6.45187 0.200901 0
M  V30 9361 H 879.763 -8.03905 1.5388 0
M  V30 9362 N 882.426 0.269451 -1.5528 0
M  V30 9363 C 883.842 0.616827 -1.47199 0
M  V30 9364 C 884.042 1.89354 -0.68901 0
M  V30 9365 O 883.098 2.51631 -0.209287 0
M  V30 9366 C 884.411 0.740492 -2.9144 0
M  V30 9367 C 885.959 0.834312 -3.01676 0
M  V30 9368 C 886.434 0.989725 -4.47178 0
M  V30 9369 N 887.925 1.05516 -4.51022 0
M  V30 9370 C 888.66 1.19427 -5.60825 0
M  V30 9371 N 888.156 1.30035 -6.80487 0
M  V30 9372 N 889.949 1.22566 -5.48575 0
M  V30 9373 H 882.1 -0.568962 -2.04638 0
M  V30 9374 H 884.363 -0.193153 -0.928114 0
M  V30 9375 H 884.069 -0.127234 -3.5147 0
M  V30 9376 H 883.943 1.61965 -3.40657 0
M  V30 9377 H 886.33 1.6925 -2.4174 0
M  V30 9378 H 886.411 -0.0695298 -2.55705 0
M  V30 9379 H 886.055 0.136179 -5.07717 0
M  V30 9380 H 885.985 1.90827 -4.90808 0
M  V30 9381 H 888.476 0.985434 -3.64825 0
M  V30 9382 H 888.789 1.40494 -7.59922 0
M  V30 9383 H 887.134 1.27033 -6.83292 0
M  V30 9384 H 890.325 1.13911 -4.54029 0
M  V30 9385 H 890.498 1.33063 -6.34191 0
M  V30 9386 N 883.904 1.48273 0.534124 0
M  V30 9387 C 885.15 1.5729 1.28963 0
M  V30 9388 C 885.505 0.241854 1.90874 0
M  V30 9389 O 884.798 -0.754874 1.76103 0
M  V30 9390 C 884.992 2.64468 2.40398 0
M  V30 9391 C 884.821 4.07865 1.8941 0
M  V30 9392 C 883.591 4.75052 1.72202 0
M  V30 9393 C 885.789 4.94163 1.42505 0
M  V30 9394 N 883.771 6.0288 1.15795 0
M  V30 9395 C 885.142 6.12203 0.980176 0
M  V30 9396 C 887.197 4.8042 1.30769 0
M  V30 9397 C 885.9 7.18016 0.429591 0
M  V30 9398 C 887.926 5.86351 0.771107 0
M  V30 9399 C 887.288 7.03597 0.336287 0
M  V30 9400 H 883.387 0.630141 0.463083 0
M  V30 9401 H 885.971 1.85135 0.602767 0
M  V30 9402 H 884.142 2.38453 3.06586 0
M  V30 9403 H 885.874 2.63194 3.07426 0
M  V30 9404 H 882.629 4.3132 1.95603 0
M  V30 9405 H 883.053 6.71043 0.896141 0
M  V30 9406 H 887.695 3.90119 1.62993 0
M  V30 9407 H 885.413 8.08044 0.0950224 0
M  V30 9408 H 888.999 5.77771 0.68354 0
M  V30 9409 H 887.879 7.84167 -0.0724668 0
M  V30 9410 N 885.382 -0.782676 1.36792 0
M  V30 9411 C 886.61 -1.57162 1.34565 0
M  V30 9412 C 887.025 -1.88664 -0.0715501 0
M  V30 9413 O 886.382 -1.50633 -1.03033 0
M  V30 9414 C 886.433 -2.88854 2.1736 0
M  V30 9415 O 886.154 -2.58707 3.53557 0
M  V30 9416 C 887.655 -3.83132 2.2299 0
M  V30 9417 H 884.875 -0.487245 0.461338 0
M  V30 9418 H 887.419 -0.970905 1.79982 0
M  V30 9419 H 885.574 -3.45377 1.7548 0
M  V30 9420 H 885.988 -3.42961 3.96835 0
M  V30 9421 H 887.462 -4.72575 2.85266 0
M  V30 9422 H 887.939 -4.21472 1.23524 0
M  V30 9423 H 888.545 -3.32541 2.65135 0
M  V30 9424 N 886.86 -1.21182 -1.00761 0
M  V30 9425 C 888.088 -1.05335 -1.78079 0
M  V30 9426 C 888.503 0.396988 -1.84579 0
M  V30 9427 O 887.86 1.27548 -1.30529 0
M  V30 9428 C 887.911 -1.64089 -3.22113 0
M  V30 9429 O 887.632 -3.03448 -3.15992 0
M  V30 9430 C 889.133 -1.53318 -4.15943 0
M  V30 9431 H 886.353 -0.37005 -0.559736 0
M  V30 9432 H 888.897 -1.60463 -1.26775 0
M  V30 9433 H 887.052 -1.13059 -3.70535 0
M  V30 9434 H 887.466 -3.31492 -4.06465 0
M  V30 9435 H 888.94 -1.99174 -5.14814 0
M  V30 9436 H 889.417 -0.487166 -4.3649 0
M  V30 9437 H 890.023 -2.03582 -3.73409 0
M  V30 9438 N 888.338 1.20213 -1.01915 0
M  V30 9439 C 889.615 1.85348 -0.62495 0
M  V30 9440 C 889.995 1.91101 0.896854 0
M  V30 9441 O 889.343 1.42075 1.78961 0
M  V30 9442 C 889.553 3.24849 -1.27571 0
M  V30 9443 C 890.901 4.01107 -1.39277 0
M  V30 9444 O 891.925 3.34211 -1.23212 0
M  V30 9445 O 890.784 5.20914 -1.6526 0
M  V30 9446 H 887.878 0.798303 -0.215965 0
M  V30 9447 H 890.424 1.27782 -1.11669 0
M  V30 9448 H 889.196 3.1544 -2.31545 0
M  V30 9449 H 888.819 3.90049 -0.77122 0
M  V30 9450 N 889.816 0.795718 1.36037 0
M  V30 9451 C 891.232 0.478145 1.52269 0
M  V30 9452 C 891.432 -1.0025 1.74792 0
M  V30 9453 O 890.488 -1.78783 1.78305 0
M  V30 9454 C 891.801 1.31406 2.70468 0
M  V30 9455 C 893.349 1.3084 2.84341 0
M  V30 9456 C 893.824 2.12819 4.05551 0
M  V30 9457 N 895.315 2.10298 4.12709 0
M  V30 9458 C 896.05 2.70495 5.05589 0
M  V30 9459 N 895.546 3.39576 6.03871 0
M  V30 9460 N 897.339 2.60195 4.98252 0
M  V30 9461 H 889.49 1.75477 1.19673 0
M  V30 9462 H 891.753 0.74627 0.584624 0
M  V30 9463 H 891.459 2.36435 2.60368 0
M  V30 9464 H 891.333 0.959726 3.64786 0
M  V30 9465 H 893.72 0.266003 2.93899 0
M  V30 9466 H 893.801 1.70254 1.90912 0
M  V30 9467 H 893.445 3.17093 3.96755 0
M  V30 9468 H 893.375 1.70772 4.98141 0
M  V30 9469 H 895.866 1.60026 3.42345 0
M  V30 9470 H 896.179 3.82823 6.71317 0
M  V30 9471 H 894.524 3.43679 6.04077 0
M  V30 9472 H 897.715 2.05823 4.20422 0
M  V30 9473 H 897.888 3.074 5.70447 0
M  V30 9474 N 891.294 -1.47756 0.548274 0
M  V30 9475 C 892.241 -2.29893 -0.204408 0
M  V30 9476 C 893.211 -1.38509 -0.916761 0
M  V30 9477 O 894.396 -1.67472 -0.91421 0
M  V30 9478 C 891.536 -3.22282 -1.23403 0
M  V30 9479 C 890.649 -4.28753 -0.528654 0
M  V30 9480 C 889.784 -5.08303 -1.54279 0
M  V30 9481 C 888.823 -6.06557 -0.821893 0
M  V30 9482 N 887.96 -6.79098 -1.78243 0
M  V30 9483 H 892.8 -2.93739 0.502163 0
M  V30 9484 H 890.337 -1.44793 0.259471 0
M  V30 9485 H 892.295 -3.74262 -1.84348 0
M  V30 9486 H 890.925 -2.6032 -1.90875 0
M  V30 9487 H 889.977 -3.79899 0.195132 0
M  V30 9488 H 891.289 -4.98787 0.0365066 0
M  V30 9489 H 890.443 -5.64388 -2.22602 0
M  V30 9490 H 889.182 -4.3815 -2.14186 0
M  V30 9491 H 888.187 -5.49659 -0.12469 0
M  V30 9492 H 889.412 -6.78715 -0.228685 0
M  V30 9493 H 887.358 -6.11682 -2.37025 0
M  V30 9494 H 887.275 -7.4527 -1.26919 0
M  V30 9495 H 888.543 -7.39762 -2.45709 0
M  V30 9496 N 892.772 -0.284283 -1.55015 0
M  V30 9497 C 894.018 0.330352 -2.00091 0
M  V30 9498 C 894.351 1.54814 -1.17244 0
M  V30 9499 O 893.626 1.92954 -0.244753 0
M  V30 9500 C 893.909 0.703492 -3.53161 0
M  V30 9501 C 893.762 -0.522275 -4.46758 0
M  V30 9502 C 895.081 1.53645 -4.12409 0
M  V30 9503 H 892.2 0.118599 -0.727395 0
M  V30 9504 H 894.842 -0.393054 -1.8589 0
M  V30 9505 H 892.992 1.31983 -3.65394 0
M  V30 9506 H 894.664 -1.16082 -4.46456 0
M  V30 9507 H 892.907 -1.15865 -4.1804 0
M  V30 9508 H 893.578 -0.217295 -5.51572 0
M  V30 9509 H 896.054 1.01583 -4.0351 0
M  V30 9510 H 894.93 1.76633 -5.19704 0
M  V30 9511 H 895.191 2.5204 -3.63219 0
M  V30 9512 N 894.251 1.57596 -0.0117121 0
M  V30 9513 C 895.201 2.05641 0.98467 0
M  V30 9514 C 896.185 0.953422 1.2961 0
M  V30 9515 O 897.377 1.21712 1.28512 0
M  V30 9516 C 894.506 2.57285 2.27286 0
M  V30 9517 C 893.592 3.74483 1.99057 0
M  V30 9518 N 893.983 4.85741 1.41029 0
M  V30 9519 C 892.281 3.82637 2.2914 0
M  V30 9520 C 892.982 5.67094 1.29536 0
M  V30 9521 N 891.958 5.13459 1.78497 0
M  V30 9522 H 895.76 2.89069 0.530702 0
M  V30 9523 H 893.274 1.6124 0.193717 0
M  V30 9524 H 895.271 2.89988 2.99521 0
M  V30 9525 H 893.931 1.75281 2.73325 0
M  V30 9526 H 894.942 5.06352 1.08756 0
M  V30 9527 H 891.619 3.11509 2.77972 0
M  V30 9528 H 893.009 6.66525 0.848144 0
M  V30 9529 N 895.729 -0.261212 1.5542 0
M  V30 9530 C 896.659 -1.32712 1.92119 0
M  V30 9531 C 897.64 -1.50934 0.784406 0
M  V30 9532 O 898.825 -1.63781 1.04352 0
M  V30 9533 C 895.955 -2.68453 2.20341 0
M  V30 9534 C 894.909 -2.64947 3.36136 0
M  V30 9535 C 894.235 -4.04349 3.49865 0
M  V30 9536 C 895.535 -2.23182 4.72215 0
M  V30 9537 H 897.229 -1.02245 2.81401 0
M  V30 9538 H 894.775 -0.490406 1.35392 0
M  V30 9539 H 896.728 -3.43144 2.44603 0
M  V30 9540 H 895.452 -3.00527 1.27871 0
M  V30 9541 H 894.111 -1.92714 3.11861 0
M  V30 9542 H 893.759 -4.33665 2.5484 0
M  V30 9543 H 893.459 -4.02895 4.27726 0
M  V30 9544 H 894.983 -4.80761 3.76432 0
M  V30 9545 H 896.397 -2.87599 4.95943 0
M  V30 9546 H 894.794 -2.32867 5.53076 0
M  V30 9547 H 895.864 -1.18327 4.70241 0
M  V30 9548 N 897.207 -1.48554 -0.526253 0
M  V30 9549 C 898.17 -1.62868 -1.61266 0
M  V30 9550 C 899.17 -0.501762 -1.52771 0
M  V30 9551 O 900.36 -0.76764 -1.56374 0
M  V30 9552 C 897.492 -1.60238 -3.00893 0
M  V30 9553 H 898.685 -2.59742 -1.49913 0
M  V30 9554 H 896.238 -1.37207 -0.748595 0
M  V30 9555 H 896.973 -0.648545 -3.17749 0
M  V30 9556 H 896.758 -2.42054 -3.08468 0
M  V30 9557 H 898.248 -1.73455 -3.79872 0
M  V30 9558 N 898.685 0.775411 -1.37205 0
M  V30 9559 C 899.913 1.56446 -1.35397 0
M  V30 9560 C 900.328 1.887 0.0615437 0
M  V30 9561 O 899.685 1.51178 1.02233 0
M  V30 9562 C 899.736 2.87697 -2.18889 0
M  V30 9563 O 899.457 2.56828 -3.54924 0
M  V30 9564 C 900.958 3.81944 -2.25019 0
M  V30 9565 H 898.178 0.484792 -0.463916 0
M  V30 9566 H 900.722 0.961346 -1.80495 0
M  V30 9567 H 898.877 3.44442 -1.7731 0
M  V30 9568 H 899.291 3.40851 -3.98649 0
M  V30 9569 H 900.765 4.71055 -2.87769 0
M  V30 9570 H 901.242 4.20811 -1.25757 0
M  V30 9571 H 901.848 3.3113 -2.66895 0
M  V30 9572 N 900.163 1.21714 1.00117 0
M  V30 9573 C 901.411 1.03465 1.73607 0
M  V30 9574 C 901.732 -0.432295 1.90148 0
M  V30 9575 O 901.002 -1.31157 1.45515 0
M  V30 9576 H 899.582 0.379857 0.643209 0
M  V30 9577 H 902.244 1.53088 1.20624 0
M  V30 9578 H 901.34 1.50574 2.73375 0
M  V30 9579 N 901.641 -1.19671 1.02551 0
M  V30 9580 C 902.588 -2.22773 0.603394 0
M  V30 9581 C 903.558 -1.61669 -0.381081 0
M  V30 9582 O 904.743 -1.88756 -0.278505 0
M  V30 9583 C 901.883 -3.45073 -0.0431034 0
M  V30 9584 C 900.996 -4.20574 0.987006 0
M  V30 9585 C 900.131 -5.30291 0.310626 0
M  V30 9586 C 899.17 -5.97545 1.32688 0
M  V30 9587 N 898.307 -6.98833 0.676542 0
M  V30 9588 H 903.147 -2.58238 1.48719 0
M  V30 9589 H 900.684 -1.26881 0.744286 0
M  V30 9590 H 902.642 -4.14925 -0.435141 0
M  V30 9591 H 901.272 -3.10274 -0.890495 0
M  V30 9592 H 900.324 -3.497 1.49713 0
M  V30 9593 H 901.636 -4.66736 1.75952 0
M  V30 9594 H 900.79 -6.06547 -0.136438 0
M  V30 9595 H 899.529 -4.8519 -0.49412 0
M  V30 9596 H 898.534 -5.20043 1.78424 0
M  V30 9597 H 899.759 -6.4473 2.13306 0
M  V30 9598 H 897.705 -6.55911 -0.108172 0
M  V30 9599 H 897.622 -7.43168 1.38699 0
M  V30 9600 H 898.89 -7.79088 0.253367 0
M  V30 9601 N 903.119 -0.802921 -1.35613 0
M  V30 9602 C 904.365 -0.382141 -1.99167 0
M  V30 9603 C 904.698 1.04704 -1.63556 0
M  V30 9604 O 903.973 1.72578 -0.89706 0
M  V30 9605 C 904.256 -0.561493 -3.55695 0
M  V30 9606 C 904.109 -2.03534 -4.01116 0
M  V30 9607 C 905.428 0.0151135 -4.40097 0
M  V30 9608 H 902.547 -0.140322 -0.723518 0
M  V30 9609 H 905.189 -1.01177 -1.6082 0
M  V30 9610 H 903.339 -0.0255083 -3.88492 0
M  V30 9611 H 905.011 -2.63343 -3.78746 0
M  V30 9612 H 903.254 -2.5331 -3.52159 0
M  V30 9613 H 903.925 -2.11173 -5.1001 0
M  V30 9614 H 906.401 -0.442582 -4.1374 0
M  V30 9615 H 905.277 -0.140316 -5.48721 0
M  V30 9616 H 905.538 1.10848 -4.27978 0
M  V30 9617 N 904.597 1.47463 -0.556102 0
M  V30 9618 C 905.825 2.06868 -0.0364585 0
M  V30 9619 C 906.24 1.40893 1.25677 0
M  V30 9620 O 905.597 0.505083 1.75371 0
M  V30 9621 C 905.648 3.61128 0.163984 0
M  V30 9622 O 905.369 4.24629 -1.07803 0
M  V30 9623 C 906.87 4.37397 0.721036 0
M  V30 9624 H 904.09 0.669466 -0.0453399 0
M  V30 9625 H 906.634 1.89482 -0.769198 0
M  V30 9626 H 904.789 3.78031 0.84685 0
M  V30 9627 H 905.203 5.17149 -0.875067 0
M  V30 9628 H 906.677 5.46016 0.810584 0
M  V30 9629 H 907.154 4.03604 1.73206 0
M  V30 9630 H 907.76 4.25236 0.073904 0
M  V30 9631 N 906.075 0.2925 1.54862 0
M  V30 9632 C 907.025 -0.60226 2.19902 0
M  V30 9633 C 908.009 -1.10535 1.16923 0
M  V30 9634 O 909.201 -1.04753 1.42674 0
M  V30 9635 C 906.33 -1.77774 2.93686 0
M  V30 9636 C 905.416 -1.29101 4.03972 0
M  V30 9637 N 905.807 -0.521671 5.03103 0
M  V30 9638 C 904.105 -1.57248 4.17359 0
M  V30 9639 C 904.806 -0.263545 5.81103 0
M  V30 9640 N 903.782 -0.840937 5.37056 0
M  V30 9641 H 907.584 -0.00682274 2.93899 0
M  V30 9642 H 905.098 0.0968604 1.62111 0
M  V30 9643 H 907.095 -2.43021 3.38743 0
M  V30 9644 H 905.755 -2.37696 2.21203 0
M  V30 9645 H 906.766 -0.167364 5.1763 0
M  V30 9646 H 903.443 -2.1798 3.56077 0
M  V30 9647 H 904.833 0.353783 6.70968 0
M  V30 9648 N 907.553 -1.57587 0.0200696 0
M  V30 9649 C 908.778 -1.96124 -0.674547 0
M  V30 9650 C 909.203 -0.896068 -1.65385 0
M  V30 9651 O 908.561 0.143925 -1.80728 0
M  V30 9652 C 908.609 -3.3376 -1.36517 0
M  V30 9653 O 907.713 -3.29483 -2.48022 0
M  V30 9654 H 907.054 -0.639719 -0.177919 0
M  V30 9655 H 909.584 -2.04447 0.0792317 0
M  V30 9656 H 909.594 -3.69785 -1.72403 0
M  V30 9657 H 908.269 -4.10832 -0.647265 0
M  V30 9658 H 906.846 -3.05162 -2.14314 0
M  V30 9659 N 909.032 0.252966 -1.55557 0
M  V30 9660 C 910.279 0.981852 -1.77104 0
M  V30 9661 C 910.607 1.85547 -0.583305 0
M  V30 9662 O 909.862 1.90836 0.43359 0
M  V30 9663 C 910.161 1.87785 -3.04091 0
M  V30 9664 C 909.827 1.16009 -4.35721 0
M  V30 9665 C 908.489 0.961697 -4.71492 0
M  V30 9666 C 910.841 0.650884 -5.1712 0
M  V30 9667 C 908.169 0.241704 -5.86202 0
M  V30 9668 C 910.521 -0.0556124 -6.32576 0
M  V30 9669 C 909.185 -0.265536 -6.66972 0
M  V30 9670 H 908.455 0.359285 -0.64807 0
M  V30 9671 H 911.102 0.252443 -1.89829 0
M  V30 9672 H 909.407 2.67412 -2.86353 0
M  V30 9673 H 911.104 2.44339 -3.17961 0
M  V30 9674 H 907.694 1.32465 -4.07616 0
M  V30 9675 H 911.878 0.791719 -4.89944 0
M  V30 9676 H 907.134 0.0685292 -6.11362 0
M  V30 9677 H 911.308 -0.457839 -6.94893 0
M  V30 9678 H 908.935 -0.8254 -7.55706 0
M  V30 9679 N 910.51 1.48831 0.518367 0
M  V30 9680 C 911.44 1.67119 1.63075 0
M  V30 9681 C 912.421 0.519948 1.61958 0
M  V30 9682 O 913.606 0.753824 1.78972 0
M  V30 9683 C 910.736 1.72158 3.01627 0
M  V30 9684 C 909.69 2.86898 3.17606 0
M  V30 9685 C 909.016 2.77035 4.57335 0
M  V30 9686 C 910.316 4.28057 2.99274 0
M  V30 9687 H 912.01 2.60248 1.48025 0
M  V30 9688 H 909.556 1.2524 0.710694 0
M  V30 9689 H 911.509 1.83539 3.7933 0
M  V30 9690 H 910.233 0.756157 3.17726 0
M  V30 9691 H 908.892 2.75091 2.42323 0
M  V30 9692 H 908.54 1.78438 4.70286 0
M  V30 9693 H 908.24 3.54036 4.6897 0
M  V30 9694 H 909.764 2.904 5.37122 0
M  V30 9695 H 911.178 4.40636 3.6676 0
M  V30 9696 H 909.575 5.06145 3.22393 0
M  V30 9697 H 910.645 4.4371 1.95574 0
M  V30 9698 N 911.988 -0.768124 1.37614 0
M  V30 9699 C 912.938 -1.8718 1.30184 0
M  V30 9700 C 913.922 -1.59787 0.188943 0
M  V30 9701 O 915.114 -1.71855 0.423656 0
M  V30 9702 C 912.243 -3.24698 1.11471 0
M  V30 9703 C 911.329 -3.58031 2.27321 0
M  V30 9704 N 911.72 -3.6252 3.52722 0
M  V30 9705 C 910.018 -3.88216 2.19554 0
M  V30 9706 C 910.719 -3.92704 4.29137 0
M  V30 9707 N 909.695 -4.08789 3.58319 0
M  V30 9708 H 913.497 -1.88907 2.25147 0
M  V30 9709 H 911.011 -0.964753 1.30638 0
M  V30 9710 H 913.008 -4.0366 1.04233 0
M  V30 9711 H 911.668 -3.24232 0.174281 0
M  V30 9712 H 912.679 -3.44636 3.86583 0
M  V30 9713 H 909.356 -3.95551 1.33588 0
M  V30 9714 H 910.746 -4.02922 5.37683 0
M  V30 9715 N 913.466 -1.22244 -0.994698 0
M  V30 9716 C 914.712 -1.04746 -1.73655 0
M  V30 9717 C 915.045 0.41668 -1.89677 0
M  V30 9718 O 914.32 1.30897 -1.43862 0
M  V30 9719 C 914.603 -1.75716 -3.14318 0
M  V30 9720 C 914.456 -3.29714 -3.05955 0
M  V30 9721 C 915.775 -1.50809 -4.13455 0
M  V30 9722 H 912.894 -0.381921 -0.630322 0
M  V30 9723 H 915.536 -1.50559 -1.15897 0
M  V30 9724 H 913.686 -1.3677 -3.63629 0
M  V30 9725 H 915.358 -3.78093 -2.64279 0
M  V30 9726 H 913.601 -3.59484 -2.42804 0
M  V30 9727 H 914.272 -3.74547 -4.05485 0
M  V30 9728 H 916.748 -1.84636 -3.72892 0
M  V30 9729 H 915.624 -2.02964 -5.09997 0
M  V30 9730 H 915.885 -0.440292 -4.39902 0
M  V30 9731 N 914.944 1.19125 -1.03184 0
M  V30 9732 C 916.355 1.70564 -0.759264 0
M  V30 9733 C 916.706 1.8248 0.720794 0
M  V30 9734 O 915.831 1.49804 1.56166 0
M  V30 9735 C 916.426 3.09793 -1.37163 0
M  V30 9736 C 914.985 3.5848 -1.14757 0
M  V30 9737 C 914.132 2.35265 -1.46784 0
M  V30 9738 H 917.083 1.03925 -1.19939 0
M  V30 9739 H 917.104 3.72624 -0.77015 0
M  V30 9740 H 916.616 3.01088 -2.44882 0
M  V30 9741 H 914.717 3.72494 -0.0887182 0
M  V30 9742 H 914.83 4.42426 -1.83836 0
M  V30 9743 H 913.194 2.38747 -0.887254 0
M  V30 9744 H 913.977 2.29188 -2.55593 0
M  V30 9745 N 916.422 0.810101 1.35185 0
M  V30 9746 C 917.699 0.315235 1.93043 0
M  V30 9747 C 918.079 -1.19567 1.73974 0
M  V30 9748 O 917.427 -1.99682 1.11083 0
M  V30 9749 C 917.637 0.730492 3.41269 0
M  V30 9750 C 918.985 0.721985 4.18417 0
M  V30 9751 O 920.009 0.672258 3.49799 0
M  V30 9752 O 918.868 0.783535 5.40854 0
M  V30 9753 H 915.962 0.0832774 0.822796 0
M  V30 9754 H 918.508 0.894034 1.4424 0
M  V30 9755 H 917.28 1.77169 3.48894 0
M  V30 9756 H 916.903 0.12669 3.97398 0
M  V30 9757 N 917.9 -1.47166 0.563914 0
M  V30 9758 C 919.14 -2.04351 0.0448121 0
M  V30 9759 C 919.504 -1.42808 -1.28336 0
M  V30 9760 O 920.705 -1.91079 -1.89056 0
M  V30 9761 C 918.976 -3.57378 -0.0395795 0
M  V30 9762 S 920.535 -4.35898 -0.503833 0
M  V30 9763 H 917.353 -0.710433 0.0283795 0
M  V30 9764 H 919.955 -1.80451 0.752166 0
M  V30 9765 H 918.659 -3.99693 0.931326 0
M  V30 9766 H 918.19 -3.85785 -0.770282 0
M  V30 9767 H 920.205 -4.63852 -1.76225 0
M  V30 9768 N 919.378 -0.300708 -1.54705 0
M  V30 9769 C 920.789 0.191995 -1.8571 0
M  V30 9770 C 921.14 1.53447 -1.22264 0
M  V30 9771 O 920.265 2.10054 -0.520226 0
M  V30 9772 C 920.86 0.355148 -3.36933 0
M  V30 9773 C 919.419 0.792071 -3.67972 0
M  V30 9774 C 918.566 -0.099756 -2.77121 0
M  V30 9775 H 921.517 -0.521729 -1.49879 0
M  V30 9776 H 921.538 1.18977 -3.61421 0
M  V30 9777 H 921.05 -0.622075 -3.83082 0
M  V30 9778 H 919.151 1.77986 -3.27341 0
M  V30 9779 H 919.264 0.611661 -4.75179 0
M  V30 9780 H 917.628 0.420909 -2.51198 0
M  V30 9781 H 918.411 -1.07333 -3.2609 0
M  V30 9782 N 920.856 1.57574 -0.0284266 0
M  V30 9783 C 922.086 1.95787 0.659617 0
M  V30 9784 C 922.494 0.903475 1.66235 0
M  V30 9785 O 921.837 -0.12329 1.83286 0
M  V30 9786 C 921.899 3.30139 1.42298 0
M  V30 9787 C 921.563 4.53322 0.578658 0
M  V30 9788 C 922.56 5.19696 -0.145751 0
M  V30 9789 C 920.245 4.9964 0.516264 0
M  V30 9790 C 922.239 6.30708 -0.921235 0
M  V30 9791 C 919.926 6.10534 -0.262925 0
M  V30 9792 C 920.924 6.75927 -0.980382 0
M  V30 9793 O 920.612 7.84692 -1.7468 0
M  V30 9794 H 920.344 0.649681 0.186792 0
M  V30 9795 H 922.898 2.05227 -0.0842687 0
M  V30 9796 H 921.128 3.17188 2.21199 0
M  V30 9797 H 922.817 3.53259 1.99906 0
M  V30 9798 H 923.583 4.84882 -0.106876 0
M  V30 9799 H 919.462 4.48547 1.06427 0
M  V30 9800 H 923.006 6.81682 -1.48176 0
M  V30 9801 H 918.903 6.44786 -0.303519 0
M  V30 9802 H 919.671 8.01355 -1.6665 0
M  V30 9803 N 922.334 -0.244713 1.55689 0
M  V30 9804 C 923.745 -0.813603 1.6804 0
M  V30 9805 C 924.096 -1.85936 0.626281 0
M  V30 9806 O 923.221 -2.15206 -0.227038 0
M  V30 9807 C 923.816 -1.48252 3.04642 0
M  V30 9808 C 922.375 -1.99908 3.18926 0
M  V30 9809 C 921.522 -0.850958 2.6392 0
M  V30 9810 H 924.473 -0.0204805 1.58687 0
M  V30 9811 H 924.494 -2.35062 2.99209 0
M  V30 9812 H 924.006 -0.721164 3.81341 0
M  V30 9813 H 922.107 -2.78918 2.47054 0
M  V30 9814 H 922.22 -2.19497 4.25862 0
M  V30 9815 H 920.584 -1.25206 2.21801 0
M  V30 9816 H 921.367 -0.10265 3.43146 0
M  V30 9817 N 923.813 -1.49104 -0.510467 0
M  V30 9818 C 924.743 -1.67981 -1.62187 0
M  V30 9819 C 925.724 -0.528529 -1.6168 0
M  V30 9820 O 926.909 -0.763305 -1.7857 0
M  V30 9821 C 924.039 -1.73755 -3.0071 0
M  V30 9822 C 922.993 -2.88579 -3.1608 0
M  V30 9823 C 922.319 -2.79457 -4.5586 0
M  V30 9824 C 923.619 -4.29638 -2.97 0
M  V30 9825 H 925.313 -2.61029 -1.46643 0
M  V30 9826 H 922.859 -1.25615 -0.704042 0
M  V30 9827 H 924.812 -1.85548 -3.78352 0
M  V30 9828 H 923.536 -0.772996 -3.17321 0
M  V30 9829 H 922.195 -2.76372 -2.40861 0
M  V30 9830 H 921.843 -1.80929 -4.69333 0
M  V30 9831 H 921.543 -3.56518 -4.67086 0
M  V30 9832 H 923.067 -2.93245 -5.35574 0
M  V30 9833 H 924.481 -4.42575 -3.64418 0
M  V30 9834 H 922.878 -5.07847 -3.19704 0
M  V30 9835 H 923.948 -4.44741 -1.93219 0
M  V30 9836 N 925.291 0.760815 -1.38019 0
M  V30 9837 C 926.221 1.88811 -1.37377 0
M  V30 9838 C 927.202 1.68388 -0.240737 0
M  V30 9839 O 928.387 1.89086 -0.442739 0
M  V30 9840 C 925.517 3.26244 -1.1909 0
M  V30 9841 C 924.471 3.61254 -2.29521 0
M  V30 9842 C 923.797 4.97346 -1.96345 0
M  V30 9843 C 925.097 3.66874 -3.71753 0
M  V30 9844 H 926.791 1.89606 -2.31711 0
M  V30 9845 H 924.337 0.910818 -1.11535 0
M  V30 9846 H 926.29 4.04755 -1.17267 0
M  V30 9847 H 925.014 3.2591 -0.212152 0
M  V30 9848 H 923.673 2.85057 -2.30517 0
M  V30 9849 H 923.321 4.93564 -0.969728 0
M  V30 9850 H 923.021 5.21739 -2.703 0
M  V30 9851 H 924.545 5.78244 -1.96129 0
M  V30 9852 H 925.959 4.35514 -3.72828 0
M  V30 9853 H 924.356 4.02772 -4.44853 0
M  V30 9854 H 925.426 2.67273 -4.0459 0
M  V30 9855 N 926.769 1.22769 0.988202 0
M  V30 9856 C 928.017 1.05301 1.725 0
M  V30 9857 C 928.338 -0.412103 1.90596 0
M  V30 9858 O 927.608 -1.29606 1.46898 0
M  V30 9859 H 926.188 0.386658 0.639144 0
M  V30 9860 H 928.85 1.54359 1.18993 0
M  V30 9861 H 927.946 1.53465 2.71763 0
M  V30 9862 N 928.247 -1.18576 1.03814 0
M  V30 9863 C 929.663 -1.4051 0.756909 0
M  V30 9864 C 929.863 -1.9057 -0.654631 0
M  V30 9865 O 928.919 -2.0884 -1.41922 0
M  V30 9866 C 930.232 -2.4081 1.80087 0
M  V30 9867 C 931.78 -2.54541 1.82148 0
M  V30 9868 C 932.255 -3.58102 2.85529 0
M  V30 9869 N 933.746 -3.65607 2.84404 0
M  V30 9870 C 934.481 -4.45458 3.61047 0
M  V30 9871 N 933.977 -5.28937 4.47434 0
M  V30 9872 N 935.77 -4.40196 3.49548 0
M  V30 9873 H 927.921 -0.844075 1.94908 0
M  V30 9874 H 930.184 -0.433287 0.843188 0
M  V30 9875 H 929.89 -2.1107 2.81322 0
M  V30 9876 H 929.764 -3.4012 1.63089 0
M  V30 9877 H 932.151 -2.83598 0.815855 0
M  V30 9878 H 932.232 -1.55352 2.03223 0
M  V30 9879 H 931.876 -3.29786 3.86269 0
M  V30 9880 H 931.806 -4.56963 2.6171 0
M  V30 9881 H 934.297 -3.05994 2.21756 0
M  V30 9882 H 934.61 -5.8701 5.02632 0
M  V30 9883 H 932.955 -5.28366 4.51503 0
M  V30 9884 H 936.146 -3.74026 2.81464 0
M  V30 9885 H 936.319 -5.02186 4.09528 0
M  V30 9886 N 929.725 -0.817259 -1.34754 0
M  V30 9887 C 931.002 -0.325468 -1.92873 0
M  V30 9888 C 931.382 1.18643 -1.74606 0
M  V30 9889 O 930.73 1.9909 -1.1214 0
M  V30 9890 C 930.94 -0.74858 -3.40877 0
M  V30 9891 C 932.288 -0.744165 -4.18028 0
M  V30 9892 O 933.312 -0.690799 -3.49437 0
M  V30 9893 O 932.171 -0.812207 -5.40431 0
M  V30 9894 H 929.265 -0.0876397 -0.822343 0
M  V30 9895 H 931.811 -0.901671 -1.43764 0
M  V30 9896 H 930.583 -1.79017 -3.47949 0
M  V30 9897 H 930.206 -0.147764 -3.97325 0
M  V30 9898 N 931.203 1.46865 -0.571711 0
M  V30 9899 C 932.133 2.3298 0.155795 0
M  V30 9900 C 933.114 1.44678 0.894553 0
M  V30 9901 O 934.299 1.73513 0.872176 0
M  V30 9902 C 931.429 3.26745 1.17708 0
M  V30 9903 C 930.383 4.24401 0.553863 0
M  V30 9904 C 929.709 5.07595 1.68083 0
M  V30 9905 C 931.009 5.19884 -0.501827 0
M  V30 9906 H 932.703 2.94056 -0.563176 0
M  V30 9907 H 930.249 1.41402 -0.27228 0
M  V30 9908 H 932.202 3.85838 1.6943 0
M  V30 9909 H 930.926 2.63753 1.92618 0
M  V30 9910 H 929.585 3.66554 0.057815 0
M  V30 9911 H 929.233 4.40996 2.41933 0
M  V30 9912 H 928.933 5.73722 1.26953 0
M  V30 9913 H 930.457 5.6955 2.20103 0
M  V30 9914 H 931.871 5.73257 -0.0701057 0
M  V30 9915 H 930.268 5.94293 -0.832815 0
M  V30 9916 H 931.338 4.64482 -1.39229 0
M  V30 9917 N 932.681 0.308908 1.54543 0
M  V30 9918 C 933.611 -0.556657 2.26768 0
M  V30 9919 C 934.592 -1.13145 1.27013 0
M  V30 9920 O 935.777 -1.15931 1.558 0
M  V30 9921 C 932.907 -1.72481 3.01443 0
M  V30 9922 C 931.861 -1.28001 4.08411 0
M  V30 9923 C 931.187 -2.53395 4.70845 0
M  V30 9924 C 932.487 -0.405497 5.20724 0
M  V30 9925 H 934.181 0.0457618 2.99365 0
M  V30 9926 H 931.727 0.0234495 1.43981 0
M  V30 9927 H 933.68 -2.3365 3.50693 0
M  V30 9928 H 932.404 -2.35359 2.26437 0
M  V30 9929 H 931.063 -0.69133 3.60022 0
M  V30 9930 H 930.711 -3.14604 3.92471 0
M  V30 9931 H 930.411 -2.2433 5.43093 0
M  V30 9932 H 931.935 -3.15352 5.22863 0
M  V30 9933 H 933.349 -0.923076 5.6582 0
M  V30 9934 H 931.746 -0.208282 5.99738 0
M  V30 9935 H 932.816 0.567412 4.81569 0
M  V30 9936 N 934.159 -1.57557 0.0367827 0
M  V30 9937 C 935.387 -1.96419 -0.650168 0
M  V30 9938 C 935.802 -0.913656 -1.6522 0
M  V30 9939 O 935.159 0.103718 -1.82205 0
M  V30 9940 C 935.21 -3.35355 -1.3498 0
M  V30 9941 O 934.931 -4.36379 -0.387905 0
M  V30 9942 C 936.432 -3.88892 -2.12786 0
M  V30 9943 H 933.652 -0.646751 -0.178756 0
M  V30 9944 H 936.196 -2.04261 0.0988197 0
M  V30 9945 H 934.351 -3.28708 -2.05012 0
M  V30 9946 H 934.765 -5.16969 -0.885596 0
M  V30 9947 H 936.239 -4.88428 -2.5718 0
M  V30 9948 H 936.716 -3.23547 -2.97008 0
M  V30 9949 H 937.322 -3.98831 -1.47694 0
M  V30 9950 N 935.637 0.236453 -1.55816 0
M  V30 9951 C 936.584 1.29289 -1.91188 0
M  V30 9952 C 937.554 1.47315 -0.767301 0
M  V30 9953 O 938.739 1.61128 -1.02189 0
M  V30 9954 C 935.879 2.64126 -2.22107 0
M  V30 9955 C 934.992 2.54022 -3.49423 0
M  V30 9956 C 934.127 3.81282 -3.69861 0
M  V30 9957 C 933.166 3.65839 -4.90743 0
M  V30 9958 N 932.303 4.85014 -5.07647 0
M  V30 9959 H 937.143 0.98424 -2.81277 0
M  V30 9960 H 934.68 0.474722 -1.39229 0
M  V30 9961 H 936.638 3.42626 -2.3804 0
M  V30 9962 H 935.268 2.93118 -1.35209 0
M  V30 9963 H 934.32 1.67036 -3.41765 0
M  V30 9964 H 935.632 2.38525 -4.38072 0
M  V30 9965 H 934.786 4.68226 -3.8581 0
M  V30 9966 H 933.525 3.99688 -2.79465 0
M  V30 9967 H 932.53 2.77279 -4.74759 0
M  V30 9968 H 933.755 3.48918 -5.82609 0
M  V30 9969 H 931.701 5.03762 -4.20191 0
M  V30 9970 H 931.618 4.72188 -5.90402 0
M  V30 9971 H 932.886 5.73427 -5.28017 0
M  V30 9972 N 937.115 1.49373 0.502552 0
M  V30 9973 C 938.045 1.68839 1.61294 0
M  V30 9974 C 939.026 0.537096 1.61398 0
M  V30 9975 O 940.211 0.772764 1.78163 0
M  V30 9976 C 937.341 1.75347 2.99784 0
M  V30 9977 C 936.295 2.90251 3.14545 0
M  V30 9978 C 935.621 2.8187 4.54371 0
M  V30 9979 C 936.921 4.31207 2.94717 0
M  V30 9980 H 938.615 2.61803 1.45257 0
M  V30 9981 H 936.161 1.25987 0.697371 0
M  V30 9982 H 938.114 1.87552 3.77362 0
M  V30 9983 H 936.838 0.789814 3.16906 0
M  V30 9984 H 935.497 2.77646 2.39392 0
M  V30 9985 H 935.145 1.83416 4.68367 0
M  V30 9986 H 934.845 3.5899 4.65188 0
M  V30 9987 H 936.369 2.96081 5.34012 0
M  V30 9988 H 937.783 4.44501 3.62065 0
M  V30 9989 H 936.18 5.09536 3.17007 0
M  V30 9990 H 937.25 4.45759 1.90857 0
M  V30 9991 N 938.594 -0.753485 1.38421 0
M  V30 9992 C 939.541 -1.86723 1.35659 0
M  V30 9993 C 940.511 -1.64648 0.219121 0
M  V30 9994 O 941.696 -1.86313 0.411366 0
M  V30 9995 C 938.836 -3.24023 1.18758 0
M  V30 9996 C 937.949 -3.57928 2.41892 0
M  V30 9997 C 937.084 -4.84532 2.17721 0
M  V30 9998 C 936.123 -5.11224 3.36626 0
M  V30 9999 N 935.26 -6.29023 3.11889 0
M  V30 10000 H 940.1 -1.88419 2.30873 0
M  V30 10001 H 937.637 -0.920934 1.14705 0
M  V30 10002 H 939.595 -4.03252 1.06974 0
M  V30 10003 H 938.225 -3.21654 0.27182 0
M  V30 10004 H 937.277 -2.73541 2.64347 0
M  V30 10005 H 938.589 -3.73581 3.30513 0
M  V30 10006 H 937.743 -5.71704 2.03074 0
M  V30 10007 H 936.482 -4.71018 1.26465 0
M  V30 10008 H 935.487 -4.2252 3.51791 0
M  V30 10009 H 936.712 -5.26635 4.28757 0
M  V30 10010 H 934.658 -6.16832 2.2328 0
M  V30 10011 H 934.575 -6.45177 3.9406 0
M  V30 10012 H 935.843 -7.19083 3.00898 0
M  V30 10013 N 940.072 -1.23292 -0.981677 0
M  V30 10014 C 941.035 -1.01417 -2.05542 0
M  V30 10015 C 942.035 0.0235354 -1.60783 0
M  V30 10016 O 943.225 -0.216082 -1.72855 0
M  V30 10017 C 940.357 -0.534239 -3.36688 0
M  V30 10018 H 941.55 -1.96702 -2.26381 0
M  V30 10019 H 939.103 -1.05318 -1.1549 0
M  V30 10020 H 939.838 0.422452 -3.21537 0
M  V30 10021 H 939.623 -1.28304 -3.70514 0
M  V30 10022 H 941.113 -0.40179 -4.15663 0
M  V30 10023 N 941.55 1.18024 -1.04442 0
M  V30 10024 C 942.482 2.21294 -0.596799 0
M  V30 10025 C 943.495 1.59305 0.33552 0
M  V30 10026 O 944.684 1.7803 0.129443 0
M  V30 10027 C 941.784 3.38578 0.147648 0
M  V30 10028 C 940.957 4.30143 -0.793484 0
M  V30 10029 C 940.016 5.2612 -0.0916561 0
M  V30 10030 O 939.042 5.64586 -0.72331 0
M  V30 10031 N 940.244 5.68512 1.17364 0
M  V30 10032 H 943.009 2.6032 -1.48504 0
M  V30 10033 H 940.57 1.32847 -0.925374 0
M  V30 10034 H 942.562 3.99812 0.627098 0
M  V30 10035 H 941.132 2.98212 0.937466 0
M  V30 10036 H 940.352 3.66456 -1.45272 0
M  V30 10037 H 941.64 4.88216 -1.43258 0
M  V30 10038 H 941.038 5.39322 1.70729 0
M  V30 10039 H 939.595 6.31925 1.5973 0
M  V30 10040 N 943.028 0.824394 1.34319 0
M  V30 10041 C 944.277 0.40956 1.97498 0
M  V30 10042 C 944.59 -1.03323 1.66083 0
M  V30 10043 O 945.796 -1.55205 2.22764 0
M  V30 10044 C 944.252 0.681384 3.53391 0
M  V30 10045 C 943.86 2.1379 3.93698 0
M  V30 10046 C 945.604 0.332788 4.23194 0
M  V30 10047 C 943.511 2.35453 5.42509 0
M  V30 10048 H 942.441 0.149409 0.739049 0
M  V30 10049 H 945.092 1.01095 1.5314 0
M  V30 10050 H 943.474 0.00980375 3.95999 0
M  V30 10051 H 944.648 2.84876 3.62191 0
M  V30 10052 H 942.963 2.44807 3.36836 0
M  V30 10053 H 945.56 0.472463 5.32609 0
M  V30 10054 H 945.903 -0.722862 4.09976 0
M  V30 10055 H 946.436 0.959005 3.86067 0
M  V30 10056 H 943.175 3.39529 5.60714 0
M  V30 10057 H 942.695 1.68912 5.75525 0
M  V30 10058 H 944.374 2.17885 6.09209 0
M  V30 10059 N 944.506 -1.46559 0.579492 0
M  V30 10060 C 945.456 -2.27316 -0.17645 0
M  V30 10061 C 946.44 -1.35681 -0.864835 0
M  V30 10062 O 947.632 -1.59879 -0.759462 0
M  V30 10063 C 944.761 -3.21957 -1.19157 0
M  V30 10064 C 943.847 -4.21077 -0.505459 0
M  V30 10065 N 944.238 -5.03908 0.437133 0
M  V30 10066 C 942.536 -4.39535 -0.75661 0
M  V30 10067 C 943.237 -5.75635 0.837819 0
M  V30 10068 N 942.213 -5.43276 0.187679 0
M  V30 10069 H 946.015 -2.88747 0.547932 0
M  V30 10070 H 943.529 -1.5737 0.401048 0
M  V30 10071 H 945.526 -3.78518 -1.74728 0
M  V30 10072 H 944.186 -2.62085 -1.9168 0
M  V30 10073 H 945.197 -5.11487 0.812488 0
M  V30 10074 H 941.874 -3.90815 -1.46867 0
M  V30 10075 H 943.264 -6.52235 1.61364 0
M  V30 10076 N 945.984 -0.3171 -1.54377 0
M  V30 10077 C 947.231 0.28741 -2.0045 0
M  V30 10078 C 947.559 1.52648 -1.20535 0
M  V30 10079 O 946.814 1.93775 -0.273831 0
M  V30 10080 C 947.113 0.672917 -3.51008 0
M  V30 10081 C 946.779 -0.466245 -4.48483 0
M  V30 10082 C 945.441 -0.778933 -4.74854 0
M  V30 10083 C 947.793 -1.23176 -5.06436 0
M  V30 10084 C 945.121 -1.85997 -5.56437 0
M  V30 10085 C 947.473 -2.30284 -5.89196 0
M  V30 10086 C 946.137 -2.62141 -6.13872 0
M  V30 10087 H 945.407 0.105171 -0.733499 0
M  V30 10088 H 948.054 -0.439538 -1.86388 0
M  V30 10089 H 946.359 1.48019 -3.62764 0
M  V30 10090 H 948.056 1.15209 -3.84094 0
M  V30 10091 H 944.646 -0.212449 -4.28073 0
M  V30 10092 H 948.83 -1.00344 -4.8605 0
M  V30 10093 H 944.086 -2.11134 -5.73788 0
M  V30 10094 H 948.26 -2.90048 -6.33123 0
M  V30 10095 H 945.887 -3.46037 -6.76877 0
M  V30 10096 N 947.462 1.57535 -0.0451378 0
M  V30 10097 C 948.372 2.14653 0.946646 0
M  V30 10098 C 949.388 1.10279 1.3459 0
M  V30 10099 O 950.564 1.42417 1.42405 0
M  V30 10100 C 947.629 2.67533 2.20515 0
M  V30 10101 C 946.69 3.86682 1.86481 0
M  V30 10102 C 945.923 4.37031 3.06332 0
M  V30 10103 O 946.146 3.86481 4.1951 0
M  V30 10104 O 945.08 5.28691 2.87697 0
M  V30 10105 H 948.906 2.99706 0.49091 0
M  V30 10106 H 946.491 1.48355 0.17641 0
M  V30 10107 H 948.373 3.01542 2.94365 0
M  V30 10108 H 947.048 1.85554 2.65238 0
M  V30 10109 H 945.955 3.57573 1.09966 0
M  V30 10110 H 947.288 4.69873 1.46562 0
M  V30 10111 N 948.94 -0.228186 1.55939 0
M  V30 10112 C 950.188 -0.951668 1.78291 0
M  V30 10113 C 950.509 -1.85132 0.612474 0
M  V30 10114 O 949.779 -1.92356 -0.370942 0
M  V30 10115 H 948.359 -0.354388 0.657585 0
M  V30 10116 H 951.021 -0.241635 1.93396 0
M  V30 10117 H 950.117 -1.56239 2.70177 0
M  V30 10118 N 950.418 -1.49637 -0.494624 0
M  V30 10119 C 951.643 -1.63431 -1.27691 0
M  V30 10120 C 952.068 -0.30813 -1.85559 0
M  V30 10121 O 951.426 0.725083 -1.66169 0
M  V30 10122 C 951.474 -2.71043 -2.3784 0
M  V30 10123 O 950.578 -2.3066 -3.41862 0
M  V30 10124 H 949.919 -0.546804 -0.376698 0
M  V30 10125 H 952.449 -1.95866 -0.591413 0
M  V30 10126 H 952.459 -2.93406 -2.83508 0
M  V30 10127 H 951.134 -3.67306 -1.95088 0
M  V30 10128 H 949.711 -2.18652 -3.02069 0
M  V30 10129 N 951.896 0.746133 -1.38819 0
M  V30 10130 C 953.144 1.50247 -1.35167 0
M  V30 10131 C 953.465 1.94921 0.0553531 0
M  V30 10132 O 952.735 1.68187 1.00449 0
M  V30 10133 H 951.315 0.557337 -0.497377 0
M  V30 10134 H 953.977 0.886472 -1.73573 0
M  V30 10135 H 953.073 2.38986 -2.00728 0
M  V30 10136 N 953.375 1.23811 0.975125 0
M  V30 10137 C 954.338 1.02505 2.05001 0
M  V30 10138 C 955.338 -0.0150084 1.60793 0
M  V30 10139 O 956.528 0.225246 1.72738 0
M  V30 10140 C 953.66 0.552087 3.364 0
M  V30 10141 H 954.853 1.979 2.25335 0
M  V30 10142 H 952.406 1.05929 1.1493 0
M  V30 10143 H 953.141 -0.405394 3.21756 0
M  V30 10144 H 952.926 1.30267 3.69828 0
M  V30 10145 H 954.416 0.423828 4.15444 0
M  V30 10146 N 954.853 -1.17469 1.05066 0
M  V30 10147 C 955.785 -2.20974 0.608526 0
M  V30 10148 C 956.798 -1.59481 -0.327066 0
M  V30 10149 O 957.987 -1.78096 -0.12 0
M  V30 10150 C 955.087 -3.38652 -0.12969 0
M  V30 10151 C 954.26 -4.29716 0.816285 0
M  V30 10152 C 953.319 -5.26064 0.119556 0
M  V30 10153 O 952.345 -5.64194 0.753241 0
M  V30 10154 N 953.547 -5.69126 -1.14347 0
M  V30 10155 H 956.312 -2.59529 1.49882 0
M  V30 10156 H 953.873 -1.32355 0.932406 0
M  V30 10157 H 955.865 -4.00139 -0.605886 0
M  V30 10158 H 954.435 -2.98705 -0.921638 0
M  V30 10159 H 953.655 -3.6568 1.47213 0
M  V30 10160 H 954.943 -4.87449 1.45845 0
M  V30 10161 H 954.341 -5.4022 -1.67866 0
M  V30 10162 H 952.898 -6.32764 -1.56376 0
M  V30 10163 N 956.331 -0.831506 -1.3388 0
M  V30 10164 C 957.577 -0.424302 -1.98312 0
M  V30 10165 C 957.91 1.01211 -1.65741 0
M  V30 10166 O 957.185 1.70636 -0.933464 0
M  V30 10167 C 957.468 -0.636815 -3.54424 0
M  V30 10168 C 957.321 -2.11997 -3.96708 0
M  V30 10169 C 958.64 -0.0782411 -4.4003 0
M  V30 10170 H 955.759 -0.155637 -0.720379 0
M  V30 10171 H 958.401 -1.04566 -1.58638 0
M  V30 10172 H 956.551 -0.107907 -3.8835 0
M  V30 10173 H 958.223 -2.71317 -3.73075 0
M  V30 10174 H 956.466 -2.60723 -3.46707 0
M  V30 10175 H 957.137 -2.21944 -5.05416 0
M  V30 10176 H 959.613 -0.530243 -4.12708 0
M  V30 10177 H 958.489 -0.256676 -5.483 0
M  V30 10178 H 958.75 1.01745 -4.30233 0
M  V30 10179 N 957.809 1.4625 -0.587256 0
M  V30 10180 C 958.742 2.27392 0.191837 0
M  V30 10181 C 959.72 1.35905 0.89267 0
M  V30 10182 O 960.904 1.65319 0.905643 0
M  V30 10183 C 958.031 3.13758 1.27567 0
M  V30 10184 C 957.077 4.21041 0.680186 0
M  V30 10185 S 957.91 5.33194 -0.496419 0
M  V30 10186 C 959.066 6.23127 0.588506 0
M  V30 10187 H 959.299 2.93123 -0.496635 0
M  V30 10188 H 956.832 1.49795 -0.37426 0
M  V30 10189 H 958.79 3.6408 1.8962 0
M  V30 10190 H 957.451 2.47332 1.93612 0
M  V30 10191 H 956.644 4.81316 1.49503 0
M  V30 10192 H 956.246 3.73755 0.135227 0
M  V30 10193 H 958.538 6.61294 1.47298 0
M  V30 10194 H 959.481 7.08096 0.0224093 0
M  V30 10195 H 959.889 5.57365 0.894696 0
M  V30 10196 N 959.287 0.325282 1.54207 0
M  V30 10197 C 960.535 -0.276229 2.00203 0
M  V30 10198 C 960.856 -1.52519 1.21503 0
M  V30 10199 O 960.126 -1.93313 0.317302 0
M  V30 10200 H 958.706 -0.105059 0.739575 0
M  V30 10201 H 961.368 0.442225 1.89817 0
M  V30 10202 H 960.464 -0.531427 3.07542 0
M  V30 10203 N 960.765 -1.57509 0.0534917 0
M  V30 10204 C 962.176 -1.80374 -0.481867 0
M  V30 10205 C 962.527 -0.965917 -1.70776 0
M  V30 10206 O 961.652 -0.183167 -2.15623 0
M  V30 10207 C 962.247 -3.27146 -0.880978 0
M  V30 10208 C 960.806 -3.50921 -1.3613 0
M  V30 10209 C 959.953 -2.75237 -0.337611 0
M  V30 10210 H 962.904 -1.56222 0.279353 0
M  V30 10211 H 962.925 -3.38193 -1.74373 0
M  V30 10212 H 962.437 -3.88098 0.011441 0
M  V30 10213 H 960.538 -2.95251 -2.27283 0
M  V30 10214 H 960.651 -4.59632 -1.35186 0
M  V30 10215 H 959.015 -2.41444 -0.810991 0
M  V30 10216 H 959.798 -3.38918 0.546763 0
M  V30 10217 N 962.243 0.219913 -1.56058 0
M  V30 10218 C 963.176 1.29978 -1.87566 0
M  V30 10219 C 964.154 1.45131 -0.733203 0
M  V30 10220 O 965.338 1.60917 -0.981729 0
M  V30 10221 C 962.465 2.66988 -2.08411 0
M  V30 10222 C 961.511 2.68842 -3.31099 0
M  V30 10223 S 962.344 2.22745 -4.86975 0
M  V30 10224 C 963.5 3.61627 -5.10859 0
M  V30 10225 H 963.733 1.03059 -2.78866 0
M  V30 10226 H 961.266 0.422233 -1.48514 0
M  V30 10227 H 963.224 3.45866 -2.21104 0
M  V30 10228 H 961.885 2.91131 -1.17905 0
M  V30 10229 H 961.078 3.69526 -3.42734 0
M  V30 10230 H 960.68 1.98028 -3.17271 0
M  V30 10231 H 962.972 4.57328 -4.99857 0
M  V30 10232 H 963.915 3.54906 -6.12737 0
M  V30 10233 H 964.323 3.55391 -4.38586 0
M  V30 10234 N 963.721 1.49897 0.486681 0
M  V30 10235 C 964.969 1.59789 1.23742 0
M  V30 10236 C 965.29 0.293056 1.92785 0
M  V30 10237 O 964.56 -0.688534 1.83401 0
M  V30 10238 H 963.14 0.588775 0.459731 0
M  V30 10239 H 965.802 1.86597 0.562808 0
M  V30 10240 H 964.898 2.40121 1.9937 0
M  V30 10241 N 965.199 -0.738761 1.39212 0
M  V30 10242 C 966.131 -1.86286 1.3353 0
M  V30 10243 C 967.144 -1.6095 0.244755 0
M  V30 10244 O 968.333 -1.71254 0.50343 0
M  V30 10245 C 965.433 -3.22234 1.04969 0
M  V30 10246 C 964.606 -3.74956 2.25226 0
M  V30 10247 C 963.665 -4.89457 1.9318 0
M  V30 10248 O 962.691 -5.03314 2.65826 0
M  V30 10249 N 963.893 -5.73548 0.895679 0
M  V30 10250 H 966.658 -1.91666 2.304 0
M  V30 10251 H 964.219 -0.919338 1.33266 0
M  V30 10252 H 966.211 -3.96397 0.815566 0
M  V30 10253 H 964.781 -3.12146 0.168451 0
M  V30 10254 H 964.001 -2.92188 2.64612 0
M  V30 10255 H 965.289 -4.06914 3.05448 0
M  V30 10256 H 964.687 -5.64938 0.293541 0
M  V30 10257 H 963.244 -6.47795 0.721451 0
M  V30 10258 N 966.677 -1.24326 -0.968545 0
M  V30 10259 C 968.088 -1.07561 -1.52603 0
M  V30 10260 C 968.439 0.353245 -1.92994 0
M  V30 10261 O 967.564 1.24151 -1.77244 0
M  V30 10262 C 968.159 -1.94634 -2.77314 0
M  V30 10263 C 966.718 -1.82095 -3.29421 0
M  V30 10264 C 965.865 -1.8962 -2.02335 0
M  V30 10265 H 968.816 -1.37815 -0.786932 0
M  V30 10266 H 968.837 -1.47812 -3.50616 0
M  V30 10267 H 968.349 -2.98621 -2.47885 0
M  V30 10268 H 966.45 -0.809376 -3.63703 0
M  V30 10269 H 966.563 -2.66142 -3.98378 0
M  V30 10270 H 964.927 -1.33339 -2.17009 0
M  V30 10271 H 965.71 -2.95185 -1.75273 0
M  V30 10272 N 968.156 1.1691 -1.05688 0
M  V30 10273 C 969.086 2.23275 -0.683402 0
M  V30 10274 C 970.067 1.6704 0.321206 0
M  V30 10275 O 971.252 1.93191 0.197691 0
M  V30 10276 C 968.382 3.47244 -0.0626006 0
M  V30 10277 C 967.336 4.16333 -0.992513 0
M  V30 10278 C 966.662 5.34182 -0.23533 0
M  V30 10279 C 967.962 4.68002 -2.31886 0
M  V30 10280 H 969.656 2.54771 -1.57264 0
M  V30 10281 H 967.202 1.2246 -0.757606 0
M  V30 10282 H 969.155 4.20874 0.210503 0
M  V30 10283 H 967.879 3.1503 0.861616 0
M  V30 10284 H 966.538 3.44622 -1.25026 0
M  V30 10285 H 966.186 4.9822 0.69181 0
M  V30 10286 H 965.886 5.81346 -0.855002 0
M  V30 10287 H 967.41 6.10592 0.0303717 0
M  V30 10288 H 968.824 5.33244 -2.10531 0
M  V30 10289 H 967.221 5.25764 -2.89296 0
M  V30 10290 H 968.291 3.84541 -2.95391 0
M  V30 10291 N 969.634 0.838594 1.33437 0
M  V30 10292 C 970.566 0.229006 2.28053 0
M  V30 10293 C 971.579 -0.590103 1.51729 0
M  V30 10294 O 972.768 -0.417218 1.73556 0
M  V30 10295 C 969.868 -0.696251 3.31671 0
M  V30 10296 C 969.041 0.0834606 4.3732 0
M  V30 10297 C 968.1 -0.765097 5.20608 0
M  V30 10298 O 967.126 -0.2044 5.68833 0
M  V30 10299 N 968.328 -2.08249 5.4186 0
M  V30 10300 H 971.093 1.04196 2.81004 0
M  V30 10301 H 968.654 0.697031 1.46127 0
M  V30 10302 H 970.646 -1.26889 3.84293 0
M  V30 10303 H 969.216 -1.40992 2.78998 0
M  V30 10304 H 968.436 0.837481 3.85201 0
M  V30 10305 H 969.724 0.619613 5.05013 0
M  V30 10306 H 969.122 -2.56156 5.04381 0
M  V30 10307 H 967.679 -2.60362 5.97541 0
M  V30 10308 N 971.112 -1.45937 0.595003 0
M  V30 10309 C 972.358 -2.0262 0.0854317 0
M  V30 10310 C 972.691 -1.46402 -1.27594 0
M  V30 10311 O 971.966 -0.633823 -1.83883 0
M  V30 10312 C 972.249 -3.60085 0.0329075 0
M  V30 10313 C 972.102 -4.26663 1.42405 0
M  V30 10314 C 973.421 -4.35101 -0.661426 0
M  V30 10315 H 970.54 -0.736282 0.0325196 0
M  V30 10316 H 973.182 -1.73938 0.764563 0
M  V30 10317 H 971.332 -3.84652 -0.545439 0
M  V30 10318 H 973.004 -4.13321 2.04851 0
M  V30 10319 H 971.247 -3.85549 1.98833 0
M  V30 10320 H 971.918 -5.35497 1.33965 0
M  V30 10321 H 974.394 -4.15753 -0.169977 0
M  V30 10322 H 973.27 -5.44829 -0.667243 0
M  V30 10323 H 973.531 -4.07053 -1.72513 0
M  V30 10324 N 972.59 -0.333456 -1.54032 0
M  V30 10325 C 973.52 0.52051 -2.27625 0
M  V30 10326 C 974.501 1.1111 -1.28797 0
M  V30 10327 O 975.686 1.13438 -1.57625 0
M  V30 10328 C 972.816 1.67663 -3.04149 0
M  V30 10329 C 971.77 1.21487 -4.10396 0
M  V30 10330 C 971.096 2.45872 -4.74817 0
M  V30 10331 C 972.396 0.322603 -5.21303 0
M  V30 10332 H 974.09 -0.0933823 -2.99254 0
M  V30 10333 H 971.636 -0.0463526 -1.43925 0
M  V30 10334 H 973.589 2.28041 -3.54366 0
M  V30 10335 H 972.313 2.31727 -2.30153 0
M  V30 10336 H 970.972 0.633966 -3.61077 0
M  V30 10337 H 970.62 3.0832 -3.97426 0
M  V30 10338 H 970.32 2.15662 -5.46593 0
M  V30 10339 H 971.844 3.06994 -5.27814 0
M  V30 10340 H 973.258 0.832942 -5.67217 0
M  V30 10341 H 971.655 0.112843 -5.99994 0
M  V30 10342 H 972.725 -0.643954 -4.80605 0
M  V30 10343 N 974.068 1.57479 -0.061844 0
M  V30 10344 C 975.296 1.97429 0.618837 0
M  V30 10345 C 975.711 0.939826 1.63746 0
M  V30 10346 O 975.068 -0.0747173 1.82347 0
M  V30 10347 C 975.119 3.3746 1.29628 0
M  V30 10348 O 974.84 4.36941 0.318431 0
M  V30 10349 C 976.341 3.92228 2.06572 0
M  V30 10350 H 973.561 0.649513 0.168444 0
M  V30 10351 H 976.105 2.04078 -0.131303 0
M  V30 10352 H 974.26 3.31928 1.99757 0
M  V30 10353 H 974.674 5.18313 0.803239 0
M  V30 10354 H 976.148 4.92458 2.49377 0
M  V30 10355 H 976.625 3.28231 2.91824 0
M  V30 10356 H 977.231 4.01131 1.4133 0
M  V30 10357 N 975.546 -0.211634 1.56173 0
M  V30 10358 C 976.476 -1.26533 1.96244 0
M  V30 10359 C 977.457 -1.48362 0.832028 0
M  V30 10360 O 978.642 -1.60378 1.0951 0
M  V30 10361 C 975.772 -2.61307 2.2877 0
M  V30 10362 C 974.726 -2.54119 3.44395 0
M  V30 10363 C 974.052 -3.93014 3.62552 0
M  V30 10364 C 975.352 -2.08046 4.79076 0
M  V30 10365 H 977.046 -0.932407 2.84511 0
M  V30 10366 H 974.592 -0.447084 1.36884 0
M  V30 10367 H 976.545 -3.35188 2.55396 0
M  V30 10368 H 975.269 -2.96307 1.37367 0
M  V30 10369 H 973.928 -1.82694 3.17834 0
M  V30 10370 H 973.576 -4.25338 2.68508 0
M  V30 10371 H 973.276 -3.89083 4.40327 0
M  V30 10372 H 974.8 -4.68542 3.91537 0
M  V30 10373 H 976.214 -2.71676 5.04842 0
M  V30 10374 H 974.611 -2.15154 5.60204 0
M  V30 10375 H 975.681 -1.03306 4.73768 0
M  V30 10376 N 977.024 -1.50153 -0.478725 0
M  V30 10377 C 977.972 -1.68975 -1.59844 0
M  V30 10378 C 978.966 -0.555591 -1.6003 0
M  V30 10379 O 980.172 -0.735875 -1.64271 0
M  V30 10380 H 976.547 -0.533211 -0.530274 0
M  V30 10381 H 978.518 -2.62917 -1.41128 0
M  V30 10382 C 977.267 -1.79409 -2.97838 0
M  V30 10383 H 976.59 -2.66066 -2.98411 0
M  V30 10384 H 978.03 -1.96606 -3.75662 0
M  V30 10385 C 976.489 -0.543927 -3.3248 0
M  V30 10386 O 977.019 0.320376 -4.0042 0
M  V30 10387 N 975.225 -0.400217 -2.87831 0
M  V30 10388 H 974.772 -1.10458 -2.32716 0
M  V30 10389 H 974.73 0.435111 -3.11375 0
M  V30 10390 N 978.502 0.731368 -1.39602 0
M  V30 10391 C 979.751 1.48647 -1.36334 0
M  V30 10392 C 980.064 1.95565 0.0367383 0
M  V30 10393 O 981.27 2.7082 0.192017 0
M  V30 10394 C 979.726 2.68616 -2.39528 0
M  V30 10395 C 979.334 2.28632 -3.85268 0
M  V30 10396 C 981.078 3.46422 -2.45341 0
M  V30 10397 C 978.985 3.45345 -4.80095 0
M  V30 10398 H 977.915 0.558218 -0.506861 0
M  V30 10399 H 980.566 0.797467 -1.65266 0
M  V30 10400 H 978.948 3.39609 -2.03671 0
M  V30 10401 H 980.122 1.65162 -4.30184 0
M  V30 10402 H 978.437 1.63909 -3.82783 0
M  V30 10403 H 981.034 4.33241 -3.13379 0
M  V30 10404 H 981.377 3.8914 -1.47904 0
M  V30 10405 H 981.91 2.82461 -2.80108 0
M  V30 10406 H 978.649 3.07674 -5.78807 0
M  V30 10407 H 978.169 4.07784 -4.39855 0
M  V30 10408 H 979.848 4.1163 -4.99169 0
M  V30 10409 N 979.98 1.24838 0.961938 0
M  V30 10410 C 980.89 1.06304 2.09133 0
M  V30 10411 C 981.906 0.00221475 1.74 0
M  V30 10412 O 983.082 0.201611 2.00388 0
M  V30 10413 C 980.147 0.676117 3.40043 0
M  V30 10414 C 979.208 1.81407 3.89089 0
M  V30 10415 C 978.441 1.44551 5.13752 0
M  V30 10416 O 978.664 0.337894 5.69398 0
M  V30 10417 O 977.598 2.27316 5.57325 0
M  V30 10418 H 981.424 2.01001 2.27667 0
M  V30 10419 H 979.009 1.0371 1.07539 0
M  V30 10420 H 980.891 0.472124 4.18747 0
M  V30 10421 H 979.566 -0.241667 3.22797 0
M  V30 10422 H 978.473 2.07286 3.11421 0
M  V30 10423 H 979.806 2.71083 4.10822 0
M  V30 10424 N 981.458 -1.16348 1.06306 0
M  V30 10425 C 982.735 -1.829 0.69331 0
M  V30 10426 C 983.115 -1.94298 -0.82531 0
M  V30 10427 O 982.463 -1.48619 -1.73565 0
M  V30 10428 C 982.673 -3.1989 1.3954 0
M  V30 10429 C 984.021 -3.95662 1.54068 0
M  V30 10430 O 985.045 -3.29408 1.35532 0
M  V30 10431 O 983.904 -5.14422 1.84479 0
M  V30 10432 H 980.998 -0.789738 0.245445 0
M  V30 10433 H 983.544 -1.23549 1.16334 0
M  V30 10434 H 982.316 -3.06629 2.43093 0
M  V30 10435 H 981.939 -3.86918 0.915453 0
M  V30 10436 N 982.937 -0.845659 -1.3299 0
M  V30 10437 C 983.847 -0.2864 -2.32845 0
M  V30 10438 C 984.863 0.591105 -1.63652 0
M  V30 10439 O 986.039 0.493615 -1.95257 0
M  V30 10440 C 983.104 0.523636 -3.42723 0
M  V30 10441 C 982.165 -0.378945 -4.27624 0
M  V30 10442 C 981.398 0.392526 -5.32255 0
M  V30 10443 O 981.621 1.6235 -5.46808 0
M  V30 10444 O 980.555 -0.237 -6.01433 0
M  V30 10445 H 984.381 -1.11346 -2.82552 0
M  V30 10446 H 981.966 -0.608356 -1.36453 0
M  V30 10447 H 983.848 0.983718 -4.09757 0
M  V30 10448 H 982.523 1.32764 -2.95221 0
M  V30 10449 H 981.43 -0.887012 -3.63432 0
M  V30 10450 H 982.763 -1.1479 -4.78627 0
M  V30 10451 N 984.415 1.45619 -0.602734 0
M  V30 10452 C 985.365 2.27568 0.140264 0
M  V30 10453 C 986.349 1.3704 0.84314 0
M  V30 10454 O 987.541 1.61067 0.733931 0
M  V30 10455 C 984.67 3.23812 1.14019 0
M  V30 10456 C 983.756 4.21828 0.438406 0
M  V30 10457 N 984.147 5.03148 -0.517245 0
M  V30 10458 C 982.445 4.40684 0.686588 0
M  V30 10459 C 983.146 5.74229 -0.929291 0
M  V30 10460 N 982.122 5.42909 -0.274086 0
M  V30 10461 H 985.924 2.87839 -0.5938 0
M  V30 10462 H 983.438 1.56712 -0.426033 0
M  V30 10463 H 985.435 3.8125 1.68684 0
M  V30 10464 H 984.095 2.65102 1.87486 0
M  V30 10465 H 985.106 5.1013 -0.893758 0
M  V30 10466 H 981.783 3.93102 1.4063 0
M  V30 10467 H 983.173 6.49586 -1.7172 0
M  V30 10468 N 985.893 0.34162 1.53853 0
M  V30 10469 C 987.309 -0.0103769 1.59597 0
M  V30 10470 C 987.509 -1.48897 1.35764 0
M  V30 10471 O 986.565 -2.24743 1.15095 0
M  V30 10472 C 987.878 0.424067 2.97695 0
M  V30 10473 C 989.426 0.376247 3.1073 0
M  V30 10474 C 989.901 0.786129 4.51203 0
M  V30 10475 N 991.392 0.74024 4.57247 0
M  V30 10476 C 992.127 1.02937 5.64085 0
M  V30 10477 N 991.623 1.38655 6.78783 0
M  V30 10478 N 993.416 0.953734 5.5395 0
M  V30 10479 H 985.567 1.30477 1.67599 0
M  V30 10480 H 987.83 0.531753 0.78482 0
M  V30 10481 H 987.536 1.45493 3.20195 0
M  V30 10482 H 987.41 -0.201713 3.7666 0
M  V30 10483 H 989.797 -0.645441 2.87955 0
M  V30 10484 H 989.878 1.0372 2.33828 0
M  V30 10485 H 989.522 1.80582 4.74713 0
M  V30 10486 H 989.452 0.102671 5.265 0
M  V30 10487 H 991.943 0.476763 3.7488 0
M  V30 10488 H 992.256 1.59206 7.56223 0
M  V30 10489 H 990.601 1.42498 6.80235 0
M  V30 10490 H 993.792 0.674044 4.63222 0
M  V30 10491 H 993.965 1.18241 6.37121 0
M  V30 10492 N 987.371 -1.57444 0.0701946 0
M  V30 10493 C 988.301 -2.15659 -0.895176 0
M  V30 10494 C 989.282 -1.08321 -1.31151 0
M  V30 10495 O 990.467 -1.36349 -1.38284 0
M  V30 10496 C 987.597 -2.71693 -2.16334 0
M  V30 10497 C 986.551 -3.84183 -1.88645 0
M  V30 10498 C 985.877 -4.26814 -3.22078 0
M  V30 10499 C 987.177 -5.08493 -1.19299 0
M  V30 10500 H 988.871 -2.96576 -0.410217 0
M  V30 10501 H 986.417 -1.42662 -0.195872 0
M  V30 10502 H 988.37 -3.11064 -2.84284 0
M  V30 10503 H 987.094 -1.87994 -2.67069 0
M  V30 10504 H 985.753 -3.45314 -1.23101 0
M  V30 10505 H 985.401 -3.40039 -3.70651 0
M  V30 10506 H 985.101 -5.02642 -3.04344 0
M  V30 10507 H 986.625 -4.68799 -3.91228 0
M  V30 10508 H 988.039 -5.4519 -1.77316 0
M  V30 10509 H 986.436 -5.89588 -1.11828 0
M  V30 10510 H 987.506 -4.84595 -0.171839 0
M  V30 10511 N 988.849 0.203349 -1.56283 0
M  V30 10512 C 989.799 1.25595 -1.90289 0
M  V30 10513 C 990.783 1.41403 -0.767732 0
M  V30 10514 O 991.975 1.43912 -1.03046 0
M  V30 10515 C 989.104 2.60255 -2.23881 0
M  V30 10516 C 988.19 2.48274 -3.43833 0
M  V30 10517 N 988.581 2.05963 -4.61966 0
M  V30 10518 C 986.879 2.79188 -3.47808 0
M  V30 10519 C 987.58 2.05674 -5.44126 0
M  V30 10520 N 986.556 2.46862 -4.84314 0
M  V30 10521 H 990.358 0.920016 -2.79129 0
M  V30 10522 H 987.872 0.411829 -1.57091 0
M  V30 10523 H 989.869 3.36274 -2.46425 0
M  V30 10524 H 988.529 2.94678 -1.36363 0
M  V30 10525 H 989.54 1.76803 -4.86787 0
M  V30 10526 H 986.217 3.17863 -2.70684 0
M  V30 10527 H 987.607 1.74932 -6.48728 0
M  V30 10528 N 990.327 1.50405 0.470755 0
M  V30 10529 C 991.237 1.7208 1.59454 0
M  V30 10530 C 992.253 0.603932 1.63183 0
M  V30 10531 O 993.429 0.882296 1.81046 0
M  V30 10532 C 990.494 1.81057 2.95667 0
M  V30 10533 C 989.555 3.04792 3.02324 0
M  V30 10534 C 988.788 3.13332 4.3204 0
M  V30 10535 O 989.011 2.28655 5.22564 0
M  V30 10536 O 987.945 4.0606 4.44296 0
M  V30 10537 H 991.771 2.67343 1.44089 0
M  V30 10538 H 989.356 1.34505 0.650286 0
M  V30 10539 H 991.238 1.8914 3.76569 0
M  V30 10540 H 989.913 0.889782 3.11231 0
M  V30 10541 H 988.82 3.0221 2.205 0
M  V30 10542 H 990.153 3.96451 2.91698 0
M  V30 10543 N 991.805 -0.723954 1.39988 0
M  V30 10544 C 993.033 -1.51313 1.4111 0
M  V30 10545 C 993.448 -1.88798 0.00853333 0
M  V30 10546 O 992.805 -1.54868 -0.965516 0
M  V30 10547 C 992.856 -2.79375 2.29416 0
M  V30 10548 O 992.577 -2.43478 3.64211 0
M  V30 10549 C 994.078 -3.7333 2.3904 0
M  V30 10550 H 991.298 -0.46724 0.481589 0
M  V30 10551 H 993.842 -0.893694 1.83938 0
M  V30 10552 H 991.997 -3.37624 1.89971 0
M  V30 10553 H 992.411 -3.25821 4.11024 0
M  V30 10554 H 993.885 -4.60051 3.05053 0
M  V30 10555 H 994.362 -4.15854 1.41289 0
M  V30 10556 H 994.968 -3.20996 2.79001 0
M  V30 10557 N 993.283 -1.25346 -0.955304 0
M  V30 10558 C 994.508 -1.12892 -1.73983 0
M  V30 10559 C 994.933 0.313455 -1.8547 0
M  V30 10560 O 994.291 1.22706 -1.33465 0
M  V30 10561 C 994.339 -1.78729 -3.1319 0
M  V30 10562 O 993.443 -1.06648 -3.98372 0
M  V30 10563 H 992.784 -0.394178 -0.534341 0
M  V30 10564 H 995.314 -1.65897 -1.19747 0
M  V30 10565 H 995.324 -1.84987 -3.63653 0
M  V30 10566 H 993.999 -2.83669 -3.04146 0
M  V30 10567 H 992.576 -1.08266 -3.56837 0
M  V30 10568 N 994.761 1.15782 -1.06922 0
M  V30 10569 C 995.708 2.2038 -0.685659 0
M  V30 10570 C 996.678 1.62972 0.320816 0
M  V30 10571 O 997.863 1.8966 0.208258 0
M  V30 10572 C 995.003 3.44995 -0.084998 0
M  V30 10573 C 994.116 4.16621 -1.14242 0
M  V30 10574 C 993.251 5.28773 -0.507226 0
M  V30 10575 C 992.29 5.92209 -1.54774 0
M  V30 10576 N 991.427 6.9584 -0.935443 0
M  V30 10577 H 996.267 2.5254 -1.58201 0
M  V30 10578 H 993.804 1.24031 -0.790864 0
M  V30 10579 H 995.762 4.16254 0.280845 0
M  V30 10580 H 994.392 3.13365 0.774725 0
M  V30 10581 H 993.444 3.43903 -1.62589 0
M  V30 10582 H 994.756 4.59884 -1.93154 0
M  V30 10583 H 993.91 6.06635 -0.0887719 0
M  V30 10584 H 992.649 4.8669 0.313704 0
M  V30 10585 H 991.654 5.13063 -1.97602 0
M  V30 10586 H 992.879 6.3637 -2.37088 0
M  V30 10587 H 990.825 6.5586 -0.135339 0
M  V30 10588 H 990.742 7.37508 -1.66186 0
M  V30 10589 H 992.01 7.77611 -0.542346 0
M  V30 10590 N 996.239 0.8527 1.3254 0
M  V30 10591 C 997.149 0.298744 2.3269 0
M  V30 10592 C 998.165 -0.582418 1.63963 0
M  V30 10593 O 999.341 -0.483253 1.95516 0
M  V30 10594 C 996.406 -0.505453 3.42996 0
M  V30 10595 C 995.467 0.401618 4.27417 0
M  V30 10596 C 994.7 -0.364294 5.32455 0
M  V30 10597 O 994.923 -1.59448 5.47661 0
M  V30 10598 O 993.857 0.268892 6.01299 0
M  V30 10599 H 997.683 1.12843 2.81958 0
M  V30 10600 H 995.268 0.615584 1.36128 0
M  V30 10601 H 997.15 -0.961974 4.10273 0
M  V30 10602 H 995.825 -1.31197 2.95921 0
M  V30 10603 H 994.732 0.906274 3.62957 0
M  V30 10604 H 996.065 1.17327 4.78012 0
M  V30 10605 N 997.718 -1.45297 0.610449 0
M  V30 10606 C 999.129 -1.85715 0.191488 0
M  V30 10607 C 999.48 -1.51036 -1.25229 0
M  V30 10608 O 998.605 -0.938422 -1.94994 0
M  V30 10609 C 999.2 -3.37082 0.340747 0
M  V30 10610 C 997.759 -3.76393 -0.0235433 0
M  V30 10611 C 996.906 -2.69237 0.663849 0
M  V30 10612 H 999.857 -1.36058 0.816948 0
M  V30 10613 H 999.878 -3.78105 -0.426233 0
M  V30 10614 H 999.39 -3.62291 1.39164 0
M  V30 10615 H 997.491 -3.56801 -1.07351 0
M  V30 10616 H 997.604 -4.77653 0.372102 0
M  V30 10617 H 995.968 -2.54499 0.101204 0
M  V30 10618 H 996.751 -2.97281 1.71694 0
M  V30 10619 N 999.196 -0.349774 -1.5367 0
M  V30 10620 C 1000.47 0.300419 -1.93279 0
M  V30 10621 C 1000.85 1.67721 -1.28191 0
M  V30 10622 O 1000.2 2.24319 -0.435127 0
M  V30 10623 C 1000.41 0.366466 -3.47071 0
M  V30 10624 C 1001.76 0.614349 -4.20132 0
M  V30 10625 O 1002.78 0.448327 -3.53367 0
M  V30 10626 O 1001.64 0.936421 -5.38417 0
M  V30 10627 H 998.736 0.176599 -0.807924 0
M  V30 10628 H 1001.28 -0.401405 -1.64884 0
M  V30 10629 H 1000.05 -0.599455 -3.86681 0
M  V30 10630 H 999.677 1.11482 -3.81651 0
M  V30 10631 N 1000.67 1.57404 -0.0785433 0
M  V30 10632 C 1001.92 1.94031 0.589896 0
M  V30 10633 C 1002.25 0.959297 1.68852 0
M  V30 10634 O 1001.53 -0.0103978 1.94497 0
M  V30 10635 C 1001.81 3.40886 1.16055 0
M  V30 10636 C 1001.66 4.49748 0.0681072 0
M  V30 10637 C 1002.98 3.88699 2.06401 0
M  V30 10638 H 1000.1 0.70556 0.212965 0
M  V30 10639 H 1002.74 1.89439 -0.145886 0
M  V30 10640 H 1000.89 3.4493 1.78761 0
M  V30 10641 H 1002.57 4.57823 -0.565318 0
M  V30 10642 H 1000.81 4.29625 -0.600431 0
M  V30 10643 H 1001.48 5.49658 0.507906 0
M  V30 10644 H 1003.96 3.86703 1.53622 0
M  V30 10645 H 1002.83 4.92052 2.43261 0
M  V30 10646 H 1003.09 3.2703 2.97496 0
M  V30 10647 N 1002.15 -0.195058 1.56388 0
M  V30 10648 C 1003.38 -0.935745 1.85091 0
M  V30 10649 C 1003.8 -1.76061 0.662118 0
M  V30 10650 O 1003.16 -1.77076 -0.389083 0
M  V30 10651 C 1003.21 -1.80764 3.1202 0
M  V30 10652 O 1002.31 -2.90643 2.92575 0
M  V30 10653 H 1001.65 -0.26351 0.609474 0
M  V30 10654 H 1004.18 -0.200362 2.03617 0
M  V30 10655 H 1004.19 -2.21229 3.42815 0
M  V30 10656 H 1002.87 -1.20157 3.98165 0
M  V30 10657 H 1001.44 -2.53934 2.73079 0
M  V30 10658 N 1003.63 -1.50653 -0.462772 0
M  V30 10659 C 1004.56 -1.73056 -1.5676 0
M  V30 10660 C 1005.54 -0.579699 -1.59917 0
M  V30 10661 O 1006.73 -0.819729 -1.76051 0
M  V30 10662 C 1003.86 -1.83234 -2.9503 0
M  V30 10663 C 1002.81 -2.98488 -3.06739 0
M  V30 10664 C 1002.14 -2.93818 -4.46738 0
M  V30 10665 C 1003.44 -4.38869 -2.83181 0
M  V30 10666 H 1005.13 -2.65562 -1.38265 0
M  V30 10667 H 1002.68 -1.27792 -0.663722 0
M  V30 10668 H 1004.63 -1.97491 -3.72257 0
M  V30 10669 H 1003.35 -0.873558 -3.14701 0
M  V30 10670 H 1002.01 -2.83895 -2.31946 0
M  V30 10671 H 1001.66 -1.95769 -4.63339 0
M  V30 10672 H 1001.36 -3.71197 -4.55507 0
M  V30 10673 H 1002.88 -3.10135 -5.25974 0
M  V30 10674 H 1004.3 -4.53945 -3.50153 0
M  V30 10675 H 1002.69 -5.17762 -3.03386 0
M  V30 10676 H 1003.76 -4.50663 -1.78972 0
M  V30 10677 N 1005.11 0.71652 -1.4037 0
M  V30 10678 C 1006.36 1.47347 -1.38324 0
M  V30 10679 C 1006.68 1.94995 0.0139949 0
M  V30 10680 O 1005.95 1.7028 0.968585 0
M  V30 10681 H 1004.53 0.546662 -0.509087 0
M  V30 10682 H 1007.19 0.849455 -1.75415 0
M  V30 10683 H 1006.29 2.34675 -2.05752 0
M  V30 10684 N 1006.59 1.25851 0.948643 0
M  V30 10685 C 1007.81 1.13813 1.73382 0
M  V30 10686 C 1008.24 -0.303615 1.85633 0
M  V30 10687 O 1007.59 -1.21997 1.34114 0
M  V30 10688 C 1007.64 1.80388 3.12238 0
M  V30 10689 O 1006.75 1.08759 3.978 0
M  V30 10690 H 1006.09 0.397006 0.532243 0
M  V30 10691 H 1008.62 1.66529 1.18866 0
M  V30 10692 H 1008.63 1.86913 3.62667 0
M  V30 10693 H 1007.3 2.85278 3.02637 0
M  V30 10694 H 1005.88 1.10157 3.56258 0
M  V30 10695 N 1008.06 -1.15214 1.07534 0
M  V30 10696 C 1009.29 -1.89922 0.820804 0
M  V30 10697 C 1009.71 -1.78114 -0.626177 0
M  V30 10698 O 1009.06 -1.13435 -1.42964 0
M  V30 10699 C 1009.12 -3.40207 1.22236 0
M  V30 10700 O 1008.84 -3.51676 2.61257 0
M  V30 10701 C 1010.34 -4.31934 0.997393 0
M  V30 10702 H 1007.56 -0.601865 0.296647 0
M  V30 10703 H 1010.1 -1.45965 1.43229 0
M  V30 10704 H 1008.26 -3.8182 0.655167 0
M  V30 10705 H 1008.67 -4.44959 2.77689 0
M  V30 10706 H 1010.14 -5.35791 1.32785 0
M  V30 10707 H 1010.62 -4.3915 -0.0661599 0
M  V30 10708 H 1011.23 -3.96066 1.54958 0
M  V30 10709 N 1009.54 -0.859717 -1.32086 0
M  V30 10710 C 1010.79 -0.475565 -1.97762 0
M  V30 10711 C 1011.14 0.959348 -1.66776 0
M  V30 10712 O 1010.44 1.66484 -0.948343 0
M  V30 10713 C 1010.63 -0.657397 -3.51302 0
M  V30 10714 C 1010.46 -2.10843 -3.97209 0
M  V30 10715 C 1009.23 -2.74796 -4.24046 0
M  V30 10716 C 1011.43 -3.07959 -4.11905 0
M  V30 10717 N 1009.41 -4.10758 -4.56236 0
M  V30 10718 C 1010.78 -4.28922 -4.4769 0
M  V30 10719 C 1012.84 -3.04086 -3.94254 0
M  V30 10720 C 1011.54 -5.46518 -4.67665 0
M  V30 10721 C 1013.56 -4.20931 -4.15416 0
M  V30 10722 C 1012.93 -5.40654 -4.51522 0
M  V30 10723 H 1009.03 -0.222859 -0.749572 0
M  V30 10724 H 1011.61 -1.11217 -1.59809 0
M  V30 10725 H 1009.78 -0.0504597 -3.88367 0
M  V30 10726 H 1011.51 -0.242642 -4.03972 0
M  V30 10727 H 1008.27 -2.25805 -4.16304 0
M  V30 10728 H 1008.69 -4.80905 -4.76507 0
M  V30 10729 H 1013.33 -2.12641 -3.65436 0
M  V30 10730 H 1011.05 -6.3849 -4.95335 0
M  V30 10731 H 1014.64 -4.19376 -4.03255 0
M  V30 10732 H 1013.52 -6.29563 -4.67568 0
M  V30 10733 N 1011.02 1.44971 -0.618145 0
M  V30 10734 C 1011.95 2.33357 0.0815955 0
M  V30 10735 C 1012.93 1.47451 0.848072 0
M  V30 10736 O 1014.12 1.762 0.816532 0
M  V30 10737 C 1011.25 3.30324 1.07253 0
M  V30 10738 C 1010.2 4.25948 0.418563 0
M  V30 10739 C 1009.53 5.12685 1.51849 0
M  V30 10740 C 1010.83 5.18024 -0.66697 0
M  V30 10741 H 1012.52 2.92115 -0.656442 0
M  V30 10742 H 1010.07 1.40465 -0.317129 0
M  V30 10743 H 1012.02 3.91033 1.57069 0
M  V30 10744 H 1010.74 2.69748 1.8413 0
M  V30 10745 H 1009.4 3.66553 -0.0588308 0
M  V30 10746 H 1009.05 4.4847 2.2778 0
M  V30 10747 H 1008.75 5.7747 1.08637 0
M  V30 10748 H 1010.27 5.76264 2.01871 0
M  V30 10749 H 1011.69 5.72744 -0.252448 0
M  V30 10750 H 1010.09 5.91343 -1.02146 0
M  V30 10751 H 1011.16 4.59817 -1.53936 0
M  V30 10752 N 1012.5 0.357919 1.53482 0
M  V30 10753 C 1013.72 -0.237769 2.06033 0
M  V30 10754 C 1014.15 -1.42292 1.23023 0
M  V30 10755 O 1013.51 -1.79604 0.247427 0
M  V30 10756 C 1013.55 -0.616806 3.55286 0
M  V30 10757 O 1012.66 -1.71503 3.75047 0
M  V30 10758 H 1012 -0.0364322 0.663 0
M  V30 10759 H 1014.53 0.516301 1.97979 0
M  V30 10760 H 1014.54 -0.88996 3.98175 0
M  V30 10761 H 1013.21 0.249825 4.15149 0
M  V30 10762 H 1011.79 -1.43803 3.44057 0
M  V30 10763 N 1013.98 -1.5736 0.0868897 0
M  V30 10764 C 1015.25 -1.85495 -0.620561 0
M  V30 10765 C 1015.63 -0.982218 -1.86857 0
M  V30 10766 O 1014.98 -0.0524529 -2.2844 0
M  V30 10767 C 1015.19 -3.35996 -0.943798 0
M  V30 10768 C 1016.54 -4.03861 -1.31079 0
M  V30 10769 O 1017.56 -3.4083 -1.03507 0
M  V30 10770 O 1016.42 -5.15062 -1.82683 0
M  V30 10771 H 1013.52 -0.766822 -0.309697 0
M  V30 10772 H 1016.06 -1.69282 0.118966 0
M  V30 10773 H 1014.83 -3.91257 -0.0580628 0
M  V30 10774 H 1014.46 -3.57525 -1.73958 0
M  V30 10775 N 1015.45 0.186762 -1.56489 0
M  V30 10776 C 1016.7 0.905852 -1.81109 0
M  V30 10777 C 1017.03 1.82906 -0.661477 0
M  V30 10778 O 1016.28 1.92504 0.35226 0
M  V30 10779 C 1016.58 1.74719 -3.11782 0
M  V30 10780 C 1016.25 0.974238 -4.40249 0
M  V30 10781 C 1014.91 0.760856 -4.75147 0
M  V30 10782 C 1017.26 0.430971 -5.19415 0
M  V30 10783 C 1014.59 -0.00714216 -5.867 0
M  V30 10784 C 1016.94 -0.323859 -6.3177 0
M  V30 10785 C 1015.61 -0.548183 -6.65245 0
M  V30 10786 H 1014.88 0.331475 -0.662726 0
M  V30 10787 H 1017.52 0.171703 -1.90729 0
M  V30 10788 H 1015.83 2.55027 -2.97437 0
M  V30 10789 H 1017.53 2.30634 -3.28038 0
M  V30 10790 H 1014.12 1.15057 -4.12868 0
M  V30 10791 H 1018.3 0.583205 -4.92861 0
M  V30 10792 H 1013.56 -0.190832 -6.11102 0
M  V30 10793 H 1017.73 -0.752155 -6.92326 0
M  V30 10794 H 1015.36 -1.14518 -7.51525 0
M  V30 10795 N 1016.93 1.50896 0.454776 0
M  V30 10796 C 1018.34 1.55372 1.0352 0
M  V30 10797 C 1018.69 0.366822 1.9274 0
M  V30 10798 O 1017.82 -0.518444 2.10098 0
M  V30 10799 C 1018.41 2.81574 1.88418 0
M  V30 10800 C 1016.97 2.88679 2.4154 0
M  V30 10801 C 1016.12 2.49847 1.20298 0
M  V30 10802 H 1019.07 1.56924 0.236729 0
M  V30 10803 H 1019.09 2.64352 2.73676 0
M  V30 10804 H 1018.6 3.67941 1.23455 0
M  V30 10805 H 1016.71 2.06702 3.10008 0
M  V30 10806 H 1016.82 3.91944 2.7553 0
M  V30 10807 H 1015.18 2.02651 1.54288 0
M  V30 10808 H 1015.97 3.3854 0.569723 0
M  V30 10809 N 1018.41 -0.709066 1.40748 0
M  V30 10810 C 1019.34 -1.83412 1.37451 0
M  V30 10811 C 1020.36 -1.60394 0.27884 0
M  V30 10812 O 1021.54 -1.70147 0.539642 0
M  V30 10813 C 1018.64 -3.19935 1.1178 0
M  V30 10814 C 1017.82 -3.70095 2.33128 0
M  V30 10815 C 1016.88 -4.85249 2.03518 0
M  V30 10816 O 1015.9 -4.97563 2.76442 0
M  V30 10817 N 1017.1 -5.7152 1.01714 0
M  V30 10818 H 1019.87 -1.86736 2.34414 0
M  V30 10819 H 1017.43 -0.890863 1.35186 0
M  V30 10820 H 1019.42 -3.94578 0.899464 0
M  V30 10821 H 1017.99 -3.11718 0.234624 0
M  V30 10822 H 1017.21 -2.8651 2.70751 0
M  V30 10823 H 1018.5 -4.00344 3.1401 0
M  V30 10824 H 1017.9 -5.64188 0.413307 0
M  V30 10825 H 1016.46 -6.46119 0.858696 0
M  V30 10826 N 1019.89 -1.26353 -0.941956 0
M  V30 10827 C 1020.85 -1.07904 -2.02211 0
M  V30 10828 C 1021.85 -0.0276283 -1.60776 0
M  V30 10829 O 1023.04 -0.270965 -1.7208 0
M  V30 10830 C 1020.17 -0.641084 -3.34818 0
M  V30 10831 H 1021.37 -2.03804 -2.20009 0
M  V30 10832 H 1018.92 -1.08939 -1.12081 0
M  V30 10833 H 1019.66 0.319943 -3.22718 0
M  V30 10834 H 1019.44 -1.40027 -3.66244 0
M  V30 10835 H 1020.93 -0.533826 -4.14174 0
M  V30 10836 N 1021.37 1.14642 -1.08144 0
M  V30 10837 C 1022.61 1.86115 -0.820533 0
M  V30 10838 C 1022.97 1.81208 0.646635 0
M  V30 10839 O 1022.26 1.22997 1.46909 0
M  V30 10840 C 1022.46 3.33953 -1.2732 0
M  V30 10841 C 1022.28 3.53254 -2.78283 0
M  V30 10842 C 1021.05 3.68259 -3.45996 0
M  V30 10843 C 1023.25 3.504 -3.76463 0
M  V30 10844 N 1021.23 3.75692 -4.85519 0
M  V30 10845 C 1022.61 3.64045 -5.01868 0
M  V30 10846 C 1024.66 3.33722 -3.69505 0
M  V30 10847 C 1023.36 3.62734 -6.21141 0
M  V30 10848 C 1025.39 3.33713 -4.88251 0
M  V30 10849 C 1024.75 3.47896 -6.12493 0
M  V30 10850 H 1020.85 0.697829 -0.352929 0
M  V30 10851 H 1023.43 1.3742 -1.37927 0
M  V30 10852 H 1021.61 3.81245 -0.742066 0
M  V30 10853 H 1023.34 3.93174 -0.958991 0
M  V30 10854 H 1020.09 3.69376 -2.96409 0
M  V30 10855 H 1020.52 3.83133 -5.58156 0
M  V30 10856 H 1025.16 3.2167 -2.74387 0
M  V30 10857 H 1022.88 3.73563 -7.16573 0
M  V30 10858 H 1026.46 3.22025 -4.84553 0
M  V30 10859 H 1025.34 3.47833 -7.02838 0
M  V30 10860 N 1022.85 0.866709 1.31628 0
M  V30 10861 C 1023.81 0.325041 2.26883 0
M  V30 10862 C 1024.81 -0.522133 1.52087 0
M  V30 10863 O 1026 -0.331908 1.71009 0
M  V30 10864 C 1023.13 -0.538756 3.36616 0
M  V30 10865 H 1024.32 1.16592 2.76308 0
M  V30 10866 H 1021.88 0.642029 1.42505 0
M  V30 10867 H 1022.61 -1.40096 2.92478 0
M  V30 10868 H 1022.4 0.0678115 3.92041 0
M  V30 10869 H 1023.89 -0.910123 4.07562 0
M  V30 10870 N 1024.32 -1.44642 0.625825 0
M  V30 10871 C 1025.23 -2.34451 -0.0836134 0
M  V30 10872 C 1026.25 -1.5231 -0.841289 0
M  V30 10873 O 1027.43 -1.85056 -0.794754 0
M  V30 10874 C 1024.49 -3.30211 -1.05648 0
M  V30 10875 C 1023.55 -4.28259 -0.298759 0
M  V30 10876 C 1022.78 -5.19444 -1.22528 0
M  V30 10877 O 1023.01 -5.14444 -2.46382 0
M  V30 10878 O 1021.94 -5.97668 -0.71247 0
M  V30 10879 H 1025.77 -2.96555 0.654912 0
M  V30 10880 H 1023.35 -1.44327 0.386029 0
M  V30 10881 H 1025.23 -3.8917 -1.61632 0
M  V30 10882 H 1023.91 -2.70648 -1.77571 0
M  V30 10883 H 1022.82 -3.72863 0.304001 0
M  V30 10884 H 1024.15 -4.90728 0.380345 0
M  V30 10885 N 1025.8 -0.366053 -1.5329 0
M  V30 10886 C 1027.03 0.224236 -2.05681 0
M  V30 10887 C 1027.44 1.42412 -1.23952 0
M  V30 10888 O 1026.8 1.80334 -0.280309 0
M  V30 10889 C 1026.85 0.617266 -3.56191 0
M  V30 10890 O 1026.57 -0.534931 -4.34822 0
M  V30 10891 C 1028.07 1.26589 -4.24841 0
M  V30 10892 H 1025.29 0.0392928 -0.669849 0
M  V30 10893 H 1027.84 -0.52456 -1.97658 0
M  V30 10894 H 1025.99 1.31598 -3.64364 0
M  V30 10895 H 1026.41 -0.217123 -5.2405 0
M  V30 10896 H 1027.88 1.49146 -5.31469 0
M  V30 10897 H 1028.36 2.22633 -3.78591 0
M  V30 10898 H 1028.96 0.6086 -4.20923 0
M  V30 10899 N 1027.28 1.57312 -0.0952337 0
M  V30 10900 C 1028.53 1.93974 0.567319 0
M  V30 10901 C 1028.85 0.977805 1.68713 0
M  V30 10902 O 1028.12 0.0298944 1.95877 0
M  V30 10903 H 1026.7 0.71612 0.212558 0
M  V30 10904 H 1029.36 1.94254 -0.158598 0
M  V30 10905 H 1028.46 2.964 0.977423 0
M  V30 10906 N 1028.76 -0.17846 1.56586 0
M  V30 10907 C 1030.01 -0.894464 1.81228 0
M  V30 10908 C 1030.33 -1.83089 0.671062 0
M  V30 10909 O 1029.6 -1.93439 -0.309557 0
M  V30 10910 H 1028.18 -0.333288 0.668527 0
M  V30 10911 H 1030.84 -0.179986 1.94067 0
M  V30 10912 H 1029.93 -1.47565 2.75011 0
M  V30 10913 N 1030.24 -1.51135 -0.446768 0
M  V30 10914 C 1031.17 -1.66438 -1.56121 0
M  V30 10915 C 1032.15 -0.512061 -1.54327 0
M  V30 10916 O 1033.33 -0.734702 -1.73593 0
M  V30 10917 C 1030.46 -1.66932 -2.94706 0
M  V30 10918 C 1029.5 -2.88016 -3.14562 0
M  V30 10919 S 1030.34 -4.48973 -2.91863 0
M  V30 10920 C 1031.49 -4.52196 -4.32746 0
M  V30 10921 H 1031.73 -2.60702 -1.42904 0
M  V30 10922 H 1029.26 -1.40701 -0.635812 0
M  V30 10923 H 1031.22 -1.679 -3.74593 0
M  V30 10924 H 1029.88 -0.738607 -3.05292 0
M  V30 10925 H 1029.07 -2.84735 -4.15863 0
M  V30 10926 H 1028.67 -2.8474 -2.42485 0
M  V30 10927 H 1030.96 -4.27256 -5.25793 0
M  V30 10928 H 1031.91 -5.53957 -4.41064 0
M  V30 10929 H 1032.32 -3.81624 -4.15961 0
M  V30 10930 N 1031.71 0.701592 -1.41122 0
M  V30 10931 C 1032.96 1.45871 -1.39879 0
M  V30 10932 C 1033.28 1.94999 -0.00668769 0
M  V30 10933 O 1032.55 1.71298 0.95047 0
M  V30 10934 H 1031.13 0.541231 -0.514857 0
M  V30 10935 H 1033.79 0.830803 -1.76306 0
M  V30 10936 H 1032.89 2.32479 -2.0823 0
M  V30 10937 N 1033.19 1.2685 0.935242 0
M  V30 10938 C 1034.12 1.1143 2.05196 0
M  V30 10939 C 1035.1 0.0178362 1.70091 0
M  V30 10940 O 1036.29 0.190951 1.93259 0
M  V30 10941 C 1033.42 0.752779 3.39044 0
M  V30 10942 C 1032.37 1.80164 3.88233 0
M  V30 10943 C 1031.7 1.29428 5.18799 0
M  V30 10944 C 1033 3.20431 4.12457 0
M  V30 10945 H 1034.69 2.04845 2.18355 0
M  V30 10946 H 1032.24 0.986276 1.04922 0
M  V30 10947 H 1034.19 0.631757 4.16637 0
M  V30 10948 H 1032.91 -0.217075 3.25878 0
M  V30 10949 H 1031.57 1.91144 3.12825 0
M  V30 10950 H 1031.22 0.3141 5.02018 0
M  V30 10951 H 1030.92 1.99546 5.5268 0
M  V30 10952 H 1032.45 1.18605 5.9897 0
M  V30 10953 H 1033.86 3.12495 4.80645 0
M  V30 10954 H 1032.26 3.88193 4.57631 0
M  V30 10955 H 1033.33 3.66046 3.18023 0
M  V30 10956 N 1034.67 -1.14067 1.0875 0
M  V30 10957 C 1035.63 -2.17453 0.724341 0
M  V30 10958 C 1036.63 -1.58959 -0.242614 0
M  V30 10959 O 1037.82 -1.74186 -0.0217008 0
M  V30 10960 C 1034.96 -3.40828 0.0700236 0
M  V30 10961 H 1036.15 -2.51094 1.63987 0
M  V30 10962 H 1033.7 -1.28775 0.885813 0
M  V30 10963 H 1034.44 -3.1277 -0.857061 0
M  V30 10964 H 1034.22 -3.84551 0.76569 0
M  V30 10965 H 1035.71 -4.17258 -0.168905 0
M  V30 10966 N 1036.15 -0.873678 -1.31166 0
M  V30 10967 C 1037.39 -0.487178 -1.96861 0
M  V30 10968 C 1037.73 0.95887 -1.68877 0
M  V30 10969 O 1037 1.6758 -0.987279 0
M  V30 10970 C 1037.29 -0.74925 -3.52219 0
M  V30 10971 C 1037.14 -2.2451 -3.89763 0
M  V30 10972 C 1038.46 -0.218194 -4.39559 0
M  V30 10973 H 1035.58 -0.178477 -0.715063 0
M  V30 10974 H 1038.22 -1.0956 -1.55231 0
M  V30 10975 H 1036.37 -0.231403 -3.8781 0
M  V30 10976 H 1038.04 -2.83049 -3.64254 0
M  V30 10977 H 1036.28 -2.71621 -3.38237 0
M  V30 10978 H 1036.95 -2.37911 -4.98099 0
M  V30 10979 H 1039.43 -0.661274 -4.10812 0
M  V30 10980 H 1038.31 -0.430983 -5.47205 0
M  V30 10981 H 1038.57 0.880056 -4.33252 0
M  V30 10982 N 1037.63 1.44308 -0.633487 0
M  V30 10983 C 1039.04 1.56768 -0.29931 0
M  V30 10984 C 1039.24 1.62061 1.19743 0
M  V30 10985 O 1038.3 1.56492 1.98158 0
M  V30 10986 C 1039.61 2.8382 -0.993307 0
M  V30 10987 C 1041.16 2.97536 -0.971674 0
M  V30 10988 C 1041.63 4.27393 -1.64618 0
M  V30 10989 N 1043.13 4.34212 -1.61288 0
M  V30 10990 C 1043.86 5.33415 -2.1037 0
M  V30 10991 N 1043.36 6.3901 -2.67653 0
M  V30 10992 N 1045.15 5.24939 -2.00985 0
M  V30 10993 H 1037.3 1.39115 -1.60501 0
M  V30 10994 H 1039.56 0.666804 -0.673852 0
M  V30 10995 H 1039.27 2.85902 -2.04823 0
M  V30 10996 H 1039.14 3.73422 -0.532537 0
M  V30 10997 H 1041.53 2.95005 0.0747854 0
M  V30 10998 H 1041.61 2.09276 -1.47096 0
M  V30 10999 H 1041.26 4.30683 -2.6921 0
M  V30 11000 H 1041.19 5.14515 -1.12171 0
M  V30 11001 H 1043.68 3.58519 -1.19468 0
M  V30 11002 H 1043.99 7.10994 -3.02831 0
M  V30 11003 H 1042.33 6.39689 -2.71705 0
M  V30 11004 H 1045.53 4.41357 -1.55953 0
M  V30 11005 H 1045.7 6.02097 -2.39547 0
M  V30 11006 N 1039.1 0.374177 1.53094 0
M  V30 11007 C 1040.04 -0.503065 2.23611 0
M  V30 11008 C 1041.05 -1.03915 1.25321 0
M  V30 11009 O 1042.24 -0.944064 1.51492 0
M  V30 11010 C 1039.34 -1.70825 2.92698 0
M  V30 11011 C 1038.51 -1.30217 4.17567 0
M  V30 11012 C 1037.57 -2.37036 4.69788 0
M  V30 11013 O 1036.6 -1.99069 5.33254 0
M  V30 11014 N 1037.8 -3.68743 4.4834 0
M  V30 11015 H 1040.56 0.101013 2.9953 0
M  V30 11016 H 1038.12 0.199778 1.60663 0
M  V30 11017 H 1040.12 -2.41779 3.24538 0
M  V30 11018 H 1038.69 -2.219 2.2018 0
M  V30 11019 H 1037.91 -0.422121 3.91933 0
M  V30 11020 H 1039.19 -1.00728 4.9873 0
M  V30 11021 H 1038.59 -4.0236 3.97647 0
M  V30 11022 H 1037.15 -4.35776 4.84709 0
M  V30 11023 N 1040.58 -1.57259 0.103575 0
M  V30 11024 C 1041.55 -2.13337 -0.837859 0
M  V30 11025 C 1042.55 -1.06459 -1.20512 0
M  V30 11026 O 1043.74 -1.32307 -1.13316 0
M  V30 11027 C 1040.87 -2.66093 -2.13089 0
M  V30 11028 H 1042.06 -2.97842 -0.350775 0
M  V30 11029 H 1039.61 -1.55621 -0.145511 0
M  V30 11030 H 1040.35 -1.85133 -2.66264 0
M  V30 11031 H 1040.13 -3.44244 -1.87719 0
M  V30 11032 H 1041.62 -3.09443 -2.80419 0
M  V30 11033 N 1042.06 0.170153 -1.56679 0
M  V30 11034 C 1043.47 0.732502 -1.7173 0
M  V30 11035 C 1043.82 1.82736 -0.71428 0
M  V30 11036 O 1042.95 2.16044 0.124102 0
M  V30 11037 C 1043.54 1.33548 -3.11368 0
M  V30 11038 C 1042.1 1.84464 -3.281 0
M  V30 11039 C 1041.25 0.724069 -2.6768 0
M  V30 11040 H 1044.2 -0.0552543 -1.58604 0
M  V30 11041 H 1044.22 2.20519 -3.10083 0
M  V30 11042 H 1043.73 0.5384 -3.84347 0
M  V30 11043 H 1041.83 2.66813 -2.6008 0
M  V30 11044 H 1041.95 1.98928 -4.35849 0
M  V30 11045 H 1040.31 1.14481 -2.27522 0
M  V30 11046 H 1041.09 -0.0611861 -3.43245 0
M  V30 11047 N 1043.54 1.5137 0.438746 0
M  V30 11048 C 1044.47 1.75528 1.53987 0
M  V30 11049 C 1045.45 0.605067 1.58975 0
M  V30 11050 O 1046.63 0.847634 1.74725 0
M  V30 11051 C 1043.76 1.87904 2.92078 0
M  V30 11052 C 1042.72 3.0333 3.01951 0
M  V30 11053 C 1042.04 3.00888 4.42007 0
M  V30 11054 C 1043.34 4.43319 2.76163 0
M  V30 11055 H 1045.04 2.67728 1.34022 0
M  V30 11056 H 1042.58 1.28831 0.643308 0
M  V30 11057 H 1044.54 2.03388 3.69068 0
M  V30 11058 H 1043.26 0.923514 3.13271 0
M  V30 11059 H 1041.92 2.87549 2.274 0
M  V30 11060 H 1041.57 2.03116 4.60166 0
M  V30 11061 H 1041.27 3.78397 4.49544 0
M  V30 11062 H 1042.79 3.18464 5.20973 0
M  V30 11063 H 1044.21 4.59458 3.42887 0
M  V30 11064 H 1042.6 5.22523 2.9511 0
M  V30 11065 H 1043.67 4.53453 1.71779 0
M  V30 11066 N 1045.02 -0.694098 1.41492 0
M  V30 11067 C 1046.27 -1.4498 1.40227 0
M  V30 11068 C 1046.58 -1.95594 0.0151253 0
M  V30 11069 O 1047.78 -2.71234 -0.120146 0
M  V30 11070 C 1046.24 -2.62171 2.46565 0
M  V30 11071 C 1045.85 -2.18337 3.91194 0
M  V30 11072 C 1047.59 -3.39796 2.54439 0
M  V30 11073 C 1045.5 -3.32495 4.89082 0
M  V30 11074 H 1044.43 -0.544584 0.521483 0
M  V30 11075 H 1047.08 -0.75337 1.67322 0
M  V30 11076 H 1045.46 -3.34089 2.12604 0
M  V30 11077 H 1046.64 -1.53698 4.34412 0
M  V30 11078 H 1044.95 -1.53702 3.86994 0
M  V30 11079 H 1047.55 -4.2478 3.24755 0
M  V30 11080 H 1047.89 -3.85082 1.5817 0
M  V30 11081 H 1048.42 -2.74935 2.87499 0
M  V30 11082 H 1045.16 -2.92219 5.86761 0
M  V30 11083 H 1044.68 -3.95978 4.50512 0
M  V30 11084 H 1046.36 -3.98251 5.09907 0
M  V30 11085 N 1046.49 -1.27344 -0.928501 0
M  V30 11086 C 1047.74 -1.13019 -1.67061 0
M  V30 11087 C 1048.06 0.323614 -1.92904 0
M  V30 11088 O 1049.26 0.587752 -2.65062 0
M  V30 11089 C 1047.72 -1.97471 -3.00887 0
M  V30 11090 C 1047.33 -3.47504 -2.82746 0
M  V30 11091 C 1049.07 -1.91792 -3.78703 0
M  V30 11092 C 1046.98 -4.24158 -4.12122 0
M  V30 11093 H 1045.91 -0.419364 -0.626618 0
M  V30 11094 H 1048.56 -1.51759 -1.03158 0
M  V30 11095 H 1046.94 -1.51576 -3.65843 0
M  V30 11096 H 1048.11 -4.01256 -2.26562 0
M  V30 11097 H 1046.43 -3.54554 -2.18359 0
M  V30 11098 H 1049.03 -2.46339 -4.74575 0
M  V30 11099 H 1049.37 -0.891375 -4.06645 0
M  V30 11100 H 1049.9 -2.35578 -3.20543 0
M  V30 11101 H 1046.64 -5.27333 -3.89359 0
M  V30 11102 H 1046.16 -3.75183 -4.67972 0
M  V30 11103 H 1047.84 -4.33288 -4.80489 0
M  V30 11104 N 1047.97 1.13488 -1.09353 0
M  V30 11105 C 1049.38 1.66299 -0.848609 0
M  V30 11106 C 1049.73 1.86044 0.623051 0
M  V30 11107 O 1048.86 1.57871 1.48005 0
M  V30 11108 C 1049.45 3.02087 -1.53391 0
M  V30 11109 C 1048.01 3.51893 -1.33598 0
M  V30 11110 C 1047.16 2.27154 -1.59048 0
M  V30 11111 H 1050.11 0.974208 -1.25279 0
M  V30 11112 H 1050.13 3.68018 -0.966587 0
M  V30 11113 H 1049.64 2.87684 -2.60498 0
M  V30 11114 H 1047.75 3.715 -0.286045 0
M  V30 11115 H 1047.86 4.32059 -2.0703 0
M  V30 11116 H 1046.22 2.33708 -1.01256 0
M  V30 11117 H 1047.01 2.15317 -2.67383 0
M  V30 11118 N 1049.45 0.880621 1.30701 0
M  V30 11119 C 1050.38 0.360251 2.30704 0
M  V30 11120 C 1051.36 -0.554572 1.60806 0
M  V30 11121 O 1052.55 -0.469345 1.88443 0
M  V30 11122 C 1049.68 -0.429888 3.44629 0
M  V30 11123 C 1048.63 0.392786 4.26194 0
M  V30 11124 C 1047.96 -0.52369 5.32129 0
M  V30 11125 C 1049.26 1.63258 4.96129 0
M  V30 11126 H 1050.95 1.19591 2.74478 0
M  V30 11127 H 1048.5 0.576508 1.31956 0
M  V30 11128 H 1050.45 -0.804532 4.13649 0
M  V30 11129 H 1049.17 -1.29916 2.99649 0
M  V30 11130 H 1047.83 0.749514 3.58856 0
M  V30 11131 H 1047.48 -1.39054 4.83397 0
M  V30 11132 H 1047.18 0.0229272 5.87596 0
M  V30 11133 H 1048.71 -0.894946 6.04006 0
M  V30 11134 H 1050.12 1.32877 5.57689 0
M  V30 11135 H 1048.52 2.11906 5.61441 0
M  V30 11136 H 1049.59 2.37944 4.22505 0
M  V30 11137 N 1050.93 -1.4397 0.641131 0
M  V30 11138 C 1051.88 -2.30728 -0.0577905 0
M  V30 11139 C 1052.85 -1.44059 -0.826819 0
M  V30 11140 O 1054.03 -1.72947 -0.805853 0
M  V30 11141 C 1051.17 -3.29478 -1.02657 0
M  V30 11142 C 1050.28 -4.31247 -0.254913 0
M  V30 11143 C 1049.42 -5.17085 -1.2164 0
M  V30 11144 C 1048.46 -6.10556 -0.434481 0
M  V30 11145 N 1047.6 -6.89059 -1.34694 0
M  V30 11146 H 1052.44 -2.8995 0.687953 0
M  V30 11147 H 1049.97 -1.4285 0.351029 0
M  V30 11148 H 1051.93 -3.85228 -1.60173 0
M  V30 11149 H 1050.56 -2.71932 -1.73933 0
M  V30 11150 H 1049.61 -3.77889 0.436338 0
M  V30 11151 H 1050.92 -4.97545 0.353642 0
M  V30 11152 H 1050.08 -5.77402 -1.86258 0
M  V30 11153 H 1048.82 -4.50885 -1.85888 0
M  V30 11154 H 1047.82 -5.49339 0.225125 0
M  V30 11155 H 1049.05 -6.78795 0.203415 0
M  V30 11156 H 1046.99 -6.25518 -1.97644 0
M  V30 11157 H 1046.91 -7.51833 -0.792657 0
M  V30 11158 H 1048.18 -7.5389 -1.98165 0
M  V30 11159 N 1052.41 -0.382291 -1.52893 0
M  V30 11160 C 1053.37 0.44408 -2.24857 0
M  V30 11161 C 1054.37 0.996004 -1.26239 0
M  V30 11162 O 1055.56 0.879114 -1.5039 0
M  V30 11163 C 1052.69 1.62234 -2.99822 0
M  V30 11164 H 1053.89 -0.185862 -2.99324 0
M  V30 11165 H 1051.44 -0.134275 -1.55722 0
M  V30 11166 H 1052.17 2.28991 -2.29638 0
M  V30 11167 H 1051.96 1.23336 -3.72197 0
M  V30 11168 H 1053.45 2.20756 -3.54481 0
M  V30 11169 N 1053.89 1.57202 -0.111913 0
M  V30 11170 C 1055.11 1.99297 0.555713 0
M  V30 11171 C 1055.53 0.991444 1.60673 0
M  V30 11172 O 1054.89 -0.0166672 1.82492 0
M  V30 11173 C 1054.94 3.41413 1.18826 0
M  V30 11174 O 1054.66 4.37733 0.179261 0
M  V30 11175 C 1056.16 3.98602 1.93989 0
M  V30 11176 H 1053.38 0.654543 0.147695 0
M  V30 11177 H 1055.92 2.03557 -0.196163 0
M  V30 11178 H 1054.08 3.38115 1.89096 0
M  V30 11179 H 1054.49 5.20606 0.637935 0
M  V30 11180 H 1055.97 5.00143 2.33584 0
M  V30 11181 H 1056.44 3.37349 2.81233 0
M  V30 11182 H 1057.05 4.05424 1.28497 0
M  V30 11183 N 1055.36 -0.161842 1.56767 0
M  V30 11184 C 1056.59 -0.896274 1.87034 0
M  V30 11185 C 1057.01 -1.74617 0.699314 0
M  V30 11186 O 1056.37 -1.77861 -0.351435 0
M  V30 11187 C 1056.42 -1.74105 3.15784 0
M  V30 11188 O 1055.52 -2.84372 2.98674 0
M  V30 11189 H 1054.86 -0.250523 0.614926 0
M  V30 11190 H 1057.39 -0.157127 2.03996 0
M  V30 11191 H 1057.4 -2.13907 3.4743 0
M  V30 11192 H 1056.08 -1.11684 4.00624 0
M  V30 11193 H 1054.66 -2.48084 2.78404 0
M  V30 11194 N 1056.84 -1.516 -0.430713 0
M  V30 11195 C 1058.07 -1.68414 -1.20185 0
M  V30 11196 C 1058.48 -0.384297 -1.84847 0
M  V30 11197 O 1057.84 0.637808 -1.70992 0
M  V30 11198 C 1057.89 -2.80451 -2.28099 0
M  V30 11199 O 1057.61 -4.05399 -1.66081 0
M  V30 11200 C 1059.11 -3.0859 -3.18256 0
M  V30 11201 H 1056.33 -0.564982 -0.361989 0
M  V30 11202 H 1058.88 -1.9805 -0.50954 0
M  V30 11203 H 1057.03 -2.53395 -2.93036 0
M  V30 11204 H 1057.45 -4.67671 -2.37453 0
M  V30 11205 H 1058.92 -3.9055 -3.90096 0
M  V30 11206 H 1059.4 -2.21264 -3.79393 0
M  V30 11207 H 1060 -3.37331 -2.59014 0
M  V30 11208 N 1058.32 0.686584 -1.41858 0
M  V30 11209 C 1059.73 1.26682 -1.37145 0
M  V30 11210 C 1060.08 1.96112 -0.058922 0
M  V30 11211 O 1059.21 1.99321 0.842629 0
M  V30 11212 C 1059.8 2.30383 -2.48413 0
M  V30 11213 C 1058.36 2.83961 -2.47069 0
M  V30 11214 C 1057.51 1.58119 -2.27802 0
M  V30 11215 H 1060.46 0.480742 -1.51243 0
M  V30 11216 H 1060.48 3.11868 -2.17987 0
M  V30 11217 H 1059.99 1.79822 -3.43927 0
M  V30 11218 H 1058.09 3.38675 -1.55338 0
M  V30 11219 H 1058.21 3.3378 -3.43697 0
M  V30 11220 H 1056.57 1.84258 -1.75844 0
M  V30 11221 H 1057.35 1.09541 -3.25355 0
M  V30 11222 N 1059.8 1.27835 0.921735 0
M  V30 11223 C 1061.04 1.14692 1.67253 0
M  V30 11224 C 1061.38 -0.305384 1.91784 0
M  V30 11225 O 1060.65 -1.22286 1.51249 0
M  V30 11226 C 1060.93 1.93743 3.03539 0
M  V30 11227 C 1060.79 3.46991 2.86212 0
M  V30 11228 C 1062.11 1.74658 4.03959 0
M  V30 11229 H 1059.23 0.418021 0.606983 0
M  V30 11230 H 1061.87 1.5706 1.06922 0
M  V30 11231 H 1060.02 1.57738 3.55037 0
M  V30 11232 H 1061.69 3.92858 2.41785 0
M  V30 11233 H 1059.93 3.73029 2.21432 0
M  V30 11234 H 1060.6 3.97551 3.82958 0
M  V30 11235 H 1063.08 2.06063 3.61493 0
M  V30 11236 H 1061.96 2.32353 4.97296 0
M  V30 11237 H 1062.22 0.696019 4.36587 0
M  V30 11238 N 1061.28 -1.12907 1.09954 0
M  V30 11239 C 1062.5 -1.88679 0.861099 0
M  V30 11240 C 1062.93 -1.78853 -0.582499 0
M  V30 11241 O 1062.28 -1.13992 -1.4098 0
M  V30 11242 C 1062.33 -3.36047 1.30785 0
M  V30 11243 O 1061.44 -4.09716 0.469728 0
M  V30 11244 H 1060.78 -0.586447 0.31141 0
M  V30 11245 H 1063.31 -1.42818 1.46507 0
M  V30 11246 H 1063.32 -3.86882 1.29562 0
M  V30 11247 H 1061.99 -3.42516 2.35914 0
M  V30 11248 H 1060.57 -3.6887 0.54674 0
M  V30 11249 N 1062.75 -0.88754 -1.30232 0
M  V30 11250 C 1064 -0.503322 -1.95319 0
M  V30 11251 C 1064.32 0.952817 -1.70824 0
M  V30 11252 O 1065.52 1.444 -2.29915 0
M  V30 11253 C 1063.98 -0.849216 -3.49738 0
M  V30 11254 C 1063.59 -2.3233 -3.83049 0
M  V30 11255 C 1065.33 -0.53432 -4.21124 0
M  V30 11256 C 1063.24 -2.61069 -5.30657 0
M  V30 11257 H 1062.17 -0.1845 -0.731078 0
M  V30 11258 H 1064.82 -1.08287 -1.48143 0
M  V30 11259 H 1063.2 -0.198729 -3.95501 0
M  V30 11260 H 1064.37 -3.01832 -3.48187 0
M  V30 11261 H 1062.69 -2.60599 -3.24773 0
M  V30 11262 H 1065.29 -0.726039 -5.29748 0
M  V30 11263 H 1065.63 0.526434 -4.12958 0
M  V30 11264 H 1066.16 -1.14211 -3.81052 0
M  V30 11265 H 1062.9 -3.65895 -5.43876 0
M  V30 11266 H 1062.42 -1.96179 -5.6681 0
M  V30 11267 H 1064.1 -2.46703 -5.98119 0
M  V30 11268 N 1064.23 1.43628 -0.648757 0
M  V30 11269 C 1065.18 2.30755 0.0455536 0
M  V30 11270 C 1066.15 1.44495 0.819168 0
M  V30 11271 O 1067.33 1.73372 0.79667 0
M  V30 11272 C 1064.47 3.30017 1.00908 0
M  V30 11273 C 1063.59 4.31376 0.232039 0
M  V30 11274 C 1062.72 5.17723 1.18897 0
M  V30 11275 C 1061.76 6.10778 0.402096 0
M  V30 11276 N 1060.9 6.89763 1.31038 0
M  V30 11277 H 1065.74 2.89581 -0.70332 0
M  V30 11278 H 1063.28 1.42662 -0.3586 0
M  V30 11279 H 1065.23 3.86072 1.58128 0
M  V30 11280 H 1063.86 2.72851 1.72488 0
M  V30 11281 H 1062.92 3.77652 -0.456373 0
M  V30 11282 H 1064.23 4.9735 -0.380023 0
M  V30 11283 H 1063.38 5.78381 1.83194 0
M  V30 11284 H 1062.12 4.51864 1.83494 0
M  V30 11285 H 1061.13 5.49212 -0.254255 0
M  V30 11286 H 1062.35 6.78678 -0.239411 0
M  V30 11287 H 1060.3 6.26557 1.94324 0
M  V30 11288 H 1060.21 7.52243 0.752774 0
M  V30 11289 H 1061.48 7.54931 1.94164 0
M  V30 11290 N 1065.71 0.390394 1.52688 0
M  V30 11291 C 1066.64 -0.479319 2.24132 0
M  V30 11292 C 1067.66 -1.0258 1.26416 0
M  V30 11293 O 1068.84 -0.927943 1.52484 0
M  V30 11294 C 1065.94 -1.67711 2.94493 0
M  V30 11295 C 1065.12 -1.2578 4.18925 0
M  V30 11296 C 1064.18 -2.3204 4.72275 0
M  V30 11297 O 1063.2 -1.93402 5.35336 0
M  V30 11298 N 1064.4 -3.63967 4.52226 0
M  V30 11299 H 1067.17 0.132777 2.99406 0
M  V30 11300 H 1064.73 0.216807 1.60442 0
M  V30 11301 H 1066.72 -2.38323 3.27084 0
M  V30 11302 H 1065.29 -2.19552 2.22521 0
M  V30 11303 H 1064.51 -0.380528 3.92359 0
M  V30 11304 H 1065.8 -0.954329 4.9977 0
M  V30 11305 H 1065.2 -3.98119 4.01892 0
M  V30 11306 H 1063.76 -4.30611 4.89303 0
M  V30 11307 N 1067.19 -1.57141 0.120249 0
M  V30 11308 C 1068.42 -1.993 -0.544346 0
M  V30 11309 C 1068.83 -0.998858 -1.60684 0
M  V30 11310 O 1068.17 0.0162197 -1.83693 0
M  V30 11311 C 1068.23 -3.37874 -1.22808 0
M  V30 11312 C 1067.9 -4.55924 -0.313374 0
M  V30 11313 C 1068.89 -5.17962 0.448501 0
M  V30 11314 C 1066.58 -5.018 -0.224082 0
M  V30 11315 C 1068.57 -6.24264 1.28739 0
M  V30 11316 C 1066.26 -6.07963 0.618437 0
M  V30 11317 C 1067.26 -6.69061 1.3728 0
M  V30 11318 O 1066.94 -7.73173 2.20133 0
M  V30 11319 H 1066.68 -0.659466 -0.148596 0
M  V30 11320 H 1069.23 -2.04387 0.203779 0
M  V30 11321 H 1067.46 -3.29545 -2.02329 0
M  V30 11322 H 1069.15 -3.64314 -1.7897 0
M  V30 11323 H 1069.92 -4.83434 0.389395 0
M  V30 11324 H 1065.79 -4.53989 -0.80094 0
M  V30 11325 H 1069.34 -6.71883 1.87667 0
M  V30 11326 H 1065.24 -6.4192 0.678932 0
M  V30 11327 H 1066 -7.90276 2.13088 0
M  V30 11328 N 1068.67 0.153526 -1.5685 0
M  V30 11329 C 1070.08 0.714247 -1.72498 0
M  V30 11330 C 1070.43 1.81968 -0.733621 0
M  V30 11331 O 1069.55 2.16163 0.10118 0
M  V30 11332 C 1070.15 1.30238 -3.12767 0
M  V30 11333 C 1068.71 1.80974 -3.30038 0
M  V30 11334 C 1067.85 0.695638 -2.68433 0
M  V30 11335 H 1070.81 -0.0720733 -1.58536 0
M  V30 11336 H 1070.83 2.17217 -3.12405 0
M  V30 11337 H 1070.34 0.497605 -3.84897 0
M  V30 11338 H 1068.44 2.64039 -2.62895 0
M  V30 11339 H 1068.55 1.94294 -4.37934 0
M  V30 11340 H 1066.92 1.12061 -2.28723 0
M  V30 11341 H 1067.7 -0.0975885 -3.43161 0
M  V30 11342 N 1070.14 1.51827 0.422667 0
M  V30 11343 C 1071.08 1.68901 1.53453 0
M  V30 11344 C 1072.06 0.536549 1.53492 0
M  V30 11345 O 1073.24 0.762226 1.72402 0
M  V30 11346 C 1070.37 1.71599 2.92013 0
M  V30 11347 C 1069.41 2.92984 3.0994 0
M  V30 11348 S 1070.25 4.53559 2.84683 0
M  V30 11349 C 1071.4 4.59024 4.25498 0
M  V30 11350 H 1071.63 2.62943 1.38739 0
M  V30 11351 H 1069.17 1.41695 0.613347 0
M  V30 11352 H 1071.13 1.73838 3.71874 0
M  V30 11353 H 1069.79 0.787083 3.04079 0
M  V30 11354 H 1068.98 2.91315 4.1128 0
M  V30 11355 H 1068.58 2.88562 2.37924 0
M  V30 11356 H 1070.87 4.35567 5.18929 0
M  V30 11357 H 1071.82 5.60904 4.32195 0
M  V30 11358 H 1072.22 3.88193 4.09837 0
M  V30 11359 N 1071.62 -0.679052 1.4222 0
M  V30 11360 C 1072.85 -1.47248 1.46058 0
M  V30 11361 C 1073.27 -1.87962 0.0720987 0
M  V30 11362 O 1072.63 -1.5572 -0.928488 0
M  V30 11363 C 1072.68 -2.70067 2.38948 0
M  V30 11364 O 1071.78 -3.68178 1.85791 0
M  V30 11365 H 1071.12 -0.442533 0.495036 0
M  V30 11366 H 1073.65 -0.833263 1.86863 0
M  V30 11367 H 1073.66 -3.18187 2.55385 0
M  V30 11368 H 1072.34 -2.39773 3.39826 0
M  V30 11369 H 1070.92 -3.2719 1.78889 0
M  V30 11370 N 1073.1 -1.28322 -0.914942 0
M  V30 11371 C 1074.03 -1.07947 -2.02188 0
M  V30 11372 C 1075.05 -0.0315743 -1.62769 0
M  V30 11373 O 1076.23 -0.274503 -1.76377 0
M  V30 11374 C 1073.33 -0.61805 -3.33217 0
M  V30 11375 C 1072.51 -1.74109 -4.01254 0
M  V30 11376 C 1071.57 -1.27325 -5.10563 0
M  V30 11377 O 1070.59 -1.97526 -5.33828 0
M  V30 11378 N 1071.79 -0.1358 -5.80341 0
M  V30 11379 H 1074.56 -2.03275 -2.20225 0
M  V30 11380 H 1072.12 -1.20059 -1.08616 0
M  V30 11381 H 1074.11 -0.288693 -4.03669 0
M  V30 11382 H 1072.68 0.242348 -3.11659 0
M  V30 11383 H 1071.9 -2.2401 -3.24366 0
M  V30 11384 H 1073.19 -2.49448 -4.43456 0
M  V30 11385 H 1072.59 0.449846 -5.63909 0
M  V30 11386 H 1071.15 0.134289 -6.51662 0
M  V30 11387 N 1074.58 1.12322 -1.10551 0
M  V30 11388 C 1075.49 2.21678 -0.767862 0
M  V30 11389 C 1076.5 1.72404 0.235132 0
M  V30 11390 O 1077.68 2.01266 0.0735912 0
M  V30 11391 C 1074.75 3.46087 -0.205999 0
M  V30 11392 C 1073.81 4.10195 -1.26642 0
M  V30 11393 C 1073.04 5.28666 -0.731274 0
M  V30 11394 O 1073.26 5.68686 0.44189 0
M  V30 11395 O 1072.2 5.83121 -1.49176 0
M  V30 11396 H 1076.02 2.52955 -1.6807 0
M  V30 11397 H 1073.61 1.2068 -0.880728 0
M  V30 11398 H 1075.49 4.21273 0.103435 0
M  V30 11399 H 1074.16 3.16484 0.679685 0
M  V30 11400 H 1073.07 3.36784 -1.62873 0
M  V30 11401 H 1074.4 4.43957 -2.12516 0
M  V30 11402 N 1076.06 0.894434 1.2976 0
M  V30 11403 C 1077.02 0.373094 2.26143 0
M  V30 11404 C 1078.02 -0.489756 1.5316 0
M  V30 11405 O 1079.21 -0.29556 1.71674 0
M  V30 11406 C 1076.34 -0.467234 3.37683 0
M  V30 11407 H 1077.53 1.22427 2.73773 0
M  V30 11408 H 1075.09 0.672112 1.41111 0
M  V30 11409 H 1075.82 -1.33861 2.95384 0
M  V30 11410 H 1075.61 0.150954 3.91809 0
M  V30 11411 H 1077.1 -0.823469 4.094 0
M  V30 11412 N 1077.53 -1.43282 0.656365 0
M  V30 11413 C 1078.95 -1.56272 0.324213 0
M  V30 11414 C 1079.15 -1.63946 -1.1715 0
M  V30 11415 O 1078.21 -1.59625 -1.95643 0
M  V30 11416 C 1079.52 -2.82204 1.03833 0
M  V30 11417 C 1081.07 -2.95952 1.01889 0
M  V30 11418 C 1081.54 -4.2472 1.71397 0
M  V30 11419 N 1083.03 -4.31591 1.68176 0
M  V30 11420 C 1083.77 -5.30001 2.1883 0
M  V30 11421 N 1083.26 -6.34671 2.77785 0
M  V30 11422 N 1085.06 -5.21676 2.09311 0
M  V30 11423 H 1077.21 -1.36544 1.62694 0
M  V30 11424 H 1079.47 -0.655999 0.684375 0
M  V30 11425 H 1079.18 -2.82608 2.09346 0
M  V30 11426 H 1079.05 -3.72527 0.591878 0
M  V30 11427 H 1081.44 -2.95087 -0.0278431 0
M  V30 11428 H 1081.52 -2.0691 1.50406 0
M  V30 11429 H 1081.16 -4.26346 2.76028 0
M  V30 11430 H 1081.09 -5.12665 1.20342 0
M  V30 11431 H 1083.58 -3.56573 1.25157 0
M  V30 11432 H 1083.9 -7.06087 3.14104 0
M  V30 11433 H 1082.24 -6.35285 2.81847 0
M  V30 11434 H 1085.43 -4.3882 1.62955 0
M  V30 11435 H 1085.61 -5.9821 2.49095 0
M  V30 11436 N 1079.01 -0.398486 -1.52479 0
M  V30 11437 C 1079.94 0.423498 -2.29627 0
M  V30 11438 C 1080.92 1.05547 -1.33394 0
M  V30 11439 O 1082.11 1.0665 -1.62294 0
M  V30 11440 C 1079.24 1.54612 -3.10986 0
M  V30 11441 C 1078.19 1.03971 -4.15179 0
M  V30 11442 C 1077.52 2.25512 -4.84818 0
M  V30 11443 C 1078.82 0.10121 -5.22202 0
M  V30 11444 H 1080.51 -0.220222 -2.98589 0
M  V30 11445 H 1078.06 -0.107355 -1.43599 0
M  V30 11446 H 1080.01 2.12806 -3.63719 0
M  V30 11447 H 1078.74 2.21756 -2.39774 0
M  V30 11448 H 1077.4 0.480251 -3.63441 0
M  V30 11449 H 1077.04 2.91187 -4.10145 0
M  V30 11450 H 1076.74 1.92285 -5.55248 0
M  V30 11451 H 1078.27 2.84331 -5.40359 0
M  V30 11452 H 1079.68 0.591617 -5.70239 0
M  V30 11453 H 1078.08 -0.141737 -5.99933 0
M  V30 11454 H 1079.15 -0.847216 -4.77441 0
M  V30 11455 N 1080.49 1.57075 -0.12858 0
M  V30 11456 C 1081.74 1.95134 0.526046 0
M  V30 11457 C 1082.06 1.01337 1.66601 0
M  V30 11458 O 1081.33 0.0714361 1.9577 0
M  V30 11459 H 1079.91 0.720468 0.19732 0
M  V30 11460 H 1082.57 1.93874 -0.199767 0
M  V30 11461 H 1081.67 2.98406 0.914332 0
M  V30 11462 N 1081.97 -0.145205 1.5693 0
M  V30 11463 C 1083.22 -0.855955 1.82637 0
M  V30 11464 C 1083.53 -1.82255 0.710109 0
M  V30 11465 O 1084.74 -2.57758 0.852837 0
M  V30 11466 C 1083.19 -1.57278 3.23715 0
M  V30 11467 C 1082.8 -0.648507 4.43281 0
M  V30 11468 C 1084.55 -2.27021 3.58695 0
M  V30 11469 C 1082.45 -1.36706 5.75383 0
M  V30 11470 H 1081.38 -0.323385 0.68113 0
M  V30 11471 H 1084.03 -0.10869 1.83178 0
M  V30 11472 H 1082.42 -2.36574 3.17567 0
M  V30 11473 H 1083.59 0.109355 4.6067 0
M  V30 11474 H 1081.9 -0.0594029 4.16358 0
M  V30 11475 H 1084.5 -2.81423 4.54648 0
M  V30 11476 H 1084.84 -3.03598 2.8484 0
M  V30 11477 H 1085.38 -1.54642 3.66512 0
M  V30 11478 H 1082.12 -0.6431 6.52338 0
M  V30 11479 H 1081.64 -2.09759 5.61926 0
M  V30 11480 H 1083.32 -1.90748 6.18243 0
M  V30 11481 N 1083.45 -1.52049 -0.414609 0
M  V30 11482 C 1084.39 -1.74998 -1.5048 0
M  V30 11483 C 1085.36 -0.592251 -1.55182 0
M  V30 11484 O 1086.55 -0.829203 -1.7184 0
M  V30 11485 C 1083.69 -1.90157 -2.87983 0
M  V30 11486 C 1082.8 -3.17789 -2.92633 0
M  V30 11487 C 1081.94 -3.23411 -4.21401 0
M  V30 11488 C 1080.98 -4.45267 -4.20004 0
M  V30 11489 N 1080.11 -4.48312 -5.40334 0
M  V30 11490 H 1084.95 -2.68046 -1.30212 0
M  V30 11491 H 1082.49 -1.32824 -0.632154 0
M  V30 11492 H 1084.45 -1.96929 -3.67797 0
M  V30 11493 H 1083.08 -1.00496 -3.06758 0
M  V30 11494 H 1082.13 -3.20216 -2.05343 0
M  V30 11495 H 1083.44 -4.07634 -2.87465 0
M  V30 11496 H 1082.6 -3.29224 -5.09604 0
M  V30 11497 H 1081.34 -2.31495 -4.29257 0
M  V30 11498 H 1080.34 -4.39606 -3.30192 0
M  V30 11499 H 1081.57 -5.38472 -4.13793 0
M  V30 11500 H 1079.51 -3.59277 -5.48868 0
M  V30 11501 H 1079.43 -5.31994 -5.37139 0
M  V30 11502 H 1080.7 -4.58347 -6.30506 0
M  V30 11503 N 1084.93 0.6715 -1.42579 0
M  V30 11504 C 1086.34 1.2522 -1.38481 0
M  V30 11505 C 1086.69 1.96038 -0.079719 0
M  V30 11506 O 1085.81 2.00203 0.821441 0
M  V30 11507 C 1086.41 2.27736 -2.50842 0
M  V30 11508 C 1084.97 2.81325 -2.50067 0
M  V30 11509 C 1084.11 1.55694 -2.29466 0
M  V30 11510 H 1087.06 0.464673 -1.51745 0
M  V30 11511 H 1087.09 3.09539 -2.21283 0
M  V30 11512 H 1086.6 1.76164 -3.45815 0
M  V30 11513 H 1084.7 3.37008 -1.58922 0
M  V30 11514 H 1084.81 3.30116 -3.47218 0
M  V30 11515 H 1083.18 1.82383 -1.77788 0
M  V30 11516 H 1083.96 1.06084 -3.26498 0
M  V30 11517 N 1086.4 1.28806 0.908124 0
M  V30 11518 C 1087.35 1.09849 1.99793 0
M  V30 11519 C 1088.34 0.0204321 1.60887 0
M  V30 11520 O 1089.53 0.241204 1.75349 0
M  V30 11521 C 1086.66 0.768263 3.34593 0
M  V30 11522 C 1085.74 1.88544 3.79884 0
M  V30 11523 N 1086.14 3.12784 3.97492 0
M  V30 11524 C 1084.43 1.77657 4.09089 0
M  V30 11525 C 1085.13 3.85615 4.35518 0
M  V30 11526 N 1084.11 3.13501 4.44092 0
M  V30 11527 H 1087.91 2.04108 2.11464 0
M  V30 11528 H 1085.43 1.19807 1.09636 0
M  V30 11529 H 1087.42 0.613521 4.12361 0
M  V30 11530 H 1086.08 -0.166501 3.24273 0
M  V30 11531 H 1087.09 3.48333 3.83255 0
M  V30 11532 H 1083.77 0.913956 4.07373 0
M  V30 11533 H 1085.16 4.92492 4.57057 0
M  V30 11534 N 1087.88 -1.11734 1.11145 0
M  V30 11535 C 1089.13 -1.82766 0.853194 0
M  V30 11536 C 1089.44 -1.85408 -0.623168 0
M  V30 11537 O 1090.65 -2.52509 -0.997574 0
M  V30 11538 C 1089.11 -3.28215 1.47658 0
M  V30 11539 C 1088.71 -3.33911 2.98676 0
M  V30 11540 C 1090.46 -4.04168 1.29803 0
M  V30 11541 C 1088.36 -4.73739 3.54013 0
M  V30 11542 H 1087.29 -0.684807 0.315523 0
M  V30 11543 H 1089.95 -1.25756 1.33633 0
M  V30 11544 H 1088.33 -3.85138 0.921116 0
M  V30 11545 H 1089.5 -2.86887 3.606 0
M  V30 11546 H 1087.82 -2.71437 3.15771 0
M  V30 11547 H 1090.41 -5.07429 1.68582 0
M  V30 11548 H 1090.76 -4.15606 0.240302 0
M  V30 11549 H 1091.29 -3.53623 1.82196 0
M  V30 11550 H 1088.03 -4.67497 4.59485 0
M  V30 11551 H 1087.55 -5.21186 2.9686 0
M  V30 11552 H 1089.23 -5.42691 3.52271 0
M  V30 11553 N 1089.36 -0.901303 -1.29284 0
M  V30 11554 C 1090.29 -0.337552 -2.26701 0
M  V30 11555 C 1091.3 0.517039 -1.54371 0
M  V30 11556 O 1092.49 0.333937 -1.75349 0
M  V30 11557 C 1089.59 0.537214 -3.34615 0
M  V30 11558 C 1088.77 -0.292017 -4.36424 0
M  V30 11559 C 1087.83 0.515837 -5.23666 0
M  V30 11560 O 1086.85 -0.0672303 -5.6916 0
M  V30 11561 N 1088.05 1.82159 -5.51179 0
M  V30 11562 H 1090.82 -1.17484 -2.75713 0
M  V30 11563 H 1088.38 -0.765957 -1.42635 0
M  V30 11564 H 1090.37 1.0841 -3.8991 0
M  V30 11565 H 1088.94 1.2752 -2.85408 0
M  V30 11566 H 1088.16 -1.02031 -3.80767 0
M  V30 11567 H 1089.45 -0.859855 -5.01482 0
M  V30 11568 H 1088.85 2.318 -5.16028 0
M  V30 11569 H 1087.4 2.31556 -6.09282 0
M  V30 11570 N 1090.84 1.42931 -0.663954 0
M  V30 11571 C 1092.25 1.56098 -0.332496 0
M  V30 11572 C 1092.45 1.64564 1.16279 0
M  V30 11573 O 1091.51 1.6066 1.94794 0
M  V30 11574 C 1092.82 2.81649 -1.05329 0
M  V30 11575 C 1094.37 2.95408 -1.03457 0
M  V30 11576 C 1094.85 4.23805 -1.73647 0
M  V30 11577 N 1096.34 4.30693 -1.70462 0
M  V30 11578 C 1097.07 5.28833 -2.21637 0
M  V30 11579 N 1096.57 6.33189 -2.81147 0
M  V30 11580 N 1098.36 5.20558 -2.12075 0
M  V30 11581 H 1090.51 1.3568 -1.63416 0
M  V30 11582 H 1092.77 0.652361 -0.687844 0
M  V30 11583 H 1092.48 2.81494 -2.10842 0
M  V30 11584 H 1092.35 3.72208 -0.611626 0
M  V30 11585 H 1094.74 2.95097 0.0121936 0
M  V30 11586 H 1094.82 2.06109 -1.51502 0
M  V30 11587 H 1094.47 4.24876 -2.78285 0
M  V30 11588 H 1094.4 5.12019 -1.2306 0
M  V30 11589 H 1096.89 3.55904 -1.27046 0
M  V30 11590 H 1097.2 7.04411 -3.17844 0
M  V30 11591 H 1095.55 6.33781 -2.85212 0
M  V30 11592 H 1098.74 4.3795 -1.6528 0
M  V30 11593 H 1098.91 5.96881 -2.52264 0
M  V30 11594 N 1092.32 0.406567 1.52266 0
M  V30 11595 C 1093.25 -0.411314 2.29849 0
M  V30 11596 C 1094.23 -1.04838 1.33952 0
M  V30 11597 O 1095.41 -1.05788 1.62857 0
M  V30 11598 C 1092.54 -1.52961 3.11802 0
M  V30 11599 C 1091.5 -1.01768 4.15725 0
M  V30 11600 C 1090.82 -2.22938 4.86007 0
M  V30 11601 C 1092.12 -0.073515 5.22248 0
M  V30 11602 H 1093.82 0.236054 2.98468 0
M  V30 11603 H 1091.36 0.114968 1.4354 0
M  V30 11604 H 1093.31 -2.10874 3.64843 0
M  V30 11605 H 1092.04 -2.20482 2.40947 0
M  V30 11606 H 1090.7 -0.46097 3.6369 0
M  V30 11607 H 1090.35 -2.89007 4.11684 0
M  V30 11608 H 1090.05 -1.89338 5.5626 0
M  V30 11609 H 1091.57 -2.81462 5.41859 0
M  V30 11610 H 1092.98 -0.561367 5.70545 0
M  V30 11611 H 1091.38 0.173551 5.99849 0
M  V30 11612 H 1092.45 0.872524 4.76985 0
M  V30 11613 N 1093.79 -1.57004 0.136909 0
M  V30 11614 C 1094.72 -2.19262 -0.802902 0
M  V30 11615 C 1095.71 -1.13786 -1.26439 0
M  V30 11616 O 1096.89 -1.42091 -1.32377 0
M  V30 11617 C 1094.02 -2.80624 -2.04615 0
M  V30 11618 C 1092.97 -3.91839 -1.72181 0
M  V30 11619 C 1092.3 -4.4009 -3.03686 0
M  V30 11620 C 1093.6 -5.13095 -0.976249 0
M  V30 11621 H 1095.29 -2.98049 -0.28406 0
M  V30 11622 H 1092.84 -1.43364 -0.135189 0
M  V30 11623 H 1094.79 -3.22842 -2.70834 0
M  V30 11624 H 1093.52 -1.99153 -2.58855 0
M  V30 11625 H 1092.18 -3.50224 -1.08344 0
M  V30 11626 H 1091.82 -3.55454 -3.55896 0
M  V30 11627 H 1091.52 -5.15098 -2.82751 0
M  V30 11628 H 1093.05 -4.84971 -3.70993 0
M  V30 11629 H 1094.46 -5.5222 -1.54033 0
M  V30 11630 H 1092.86 -5.93801 -0.867214 0
M  V30 11631 H 1093.93 -4.84888 0.0338488 0
M  V30 11632 N 1095.27 0.136881 -1.57004 0
M  V30 11633 C 1096.55 0.87705 -1.74835 0
M  V30 11634 C 1096.93 1.98886 -0.707639 0
M  V30 11635 O 1096.28 2.26879 0.271652 0
M  V30 11636 C 1096.49 1.41021 -3.1924 0
M  V30 11637 C 1097.84 1.86963 -3.81222 0
M  V30 11638 O 1098.86 1.5074 -3.22732 0
M  V30 11639 O 1097.72 2.53798 -4.83993 0
M  V30 11640 H 1094.81 0.415192 -0.715223 0
M  V30 11641 H 1097.36 0.122016 -1.69261 0
M  V30 11642 H 1096.13 0.611677 -3.8649 0
M  V30 11643 H 1095.75 2.22846 -3.2928 0
M  V30 11644 N 1096.75 1.52266 0.40654 0
M  V30 11645 C 1097.68 1.72025 1.51459 0
M  V30 11646 C 1098.7 0.600667 1.51314 0
M  V30 11647 O 1099.88 0.875894 1.55532 0
M  V30 11648 C 1096.98 1.7479 2.90348 0
M  V30 11649 C 1096.16 3.03826 3.14656 0
M  V30 11650 C 1095.22 2.98369 4.33431 0
M  V30 11651 O 1094.24 3.7227 4.30586 0
M  V30 11652 N 1095.44 2.16338 5.38682 0
M  V30 11653 H 1098.21 2.67622 1.34903 0
M  V30 11654 H 1095.77 1.50536 0.595867 0
M  V30 11655 H 1097.76 1.68667 3.67877 0
M  V30 11656 H 1096.33 0.86656 3.00349 0
M  V30 11657 H 1095.55 3.23577 2.25148 0
M  V30 11658 H 1096.84 3.89182 3.27742 0
M  V30 11659 H 1096.24 1.55731 5.43842 0
M  V30 11660 H 1094.8 2.1607 6.14945 0
M  V30 11661 N 1098.23 -0.663929 1.42933 0
M  V30 11662 C 1099.48 -1.42111 1.43697 0
M  V30 11663 C 1099.8 -1.94913 0.0583858 0
M  V30 11664 O 1099.07 -1.73757 -0.904719 0
M  V30 11665 H 1097.65 -0.527391 0.529026 0
M  V30 11666 H 1100.31 -0.783766 1.78446 0
M  V30 11667 H 1099.41 -2.26877 2.1432 0
M  V30 11668 N 1099.71 -1.29285 -0.901281 0
M  V30 11669 C 1100.96 -1.16538 -1.64626 0
M  V30 11670 C 1101.27 0.282623 -1.93547 0
M  V30 11671 O 1102.47 0.531396 -2.66249 0
M  V30 11672 C 1100.93 -2.03809 -2.96631 0
M  V30 11673 C 1100.54 -3.53423 -2.75311 0
M  V30 11674 C 1102.28 -1.99782 -3.7455 0
M  V30 11675 C 1100.19 -4.32804 -4.03032 0
M  V30 11676 H 1099.12 -0.432561 -0.617581 0
M  V30 11677 H 1101.77 -1.53912 -0.999159 0
M  V30 11678 H 1100.15 -1.59302 -3.62545 0
M  V30 11679 H 1101.33 -4.05971 -2.18 0
M  V30 11680 H 1099.64 -3.59106 -2.10789 0
M  V30 11681 H 1102.24 -2.5635 -4.69243 0
M  V30 11682 H 1102.58 -0.97743 -4.04663 0
M  V30 11683 H 1103.11 -2.42324 -3.15474 0
M  V30 11684 H 1099.85 -5.35473 -3.78086 0
M  V30 11685 H 1099.37 -3.85025 -4.59909 0
M  V30 11686 H 1101.05 -4.43383 -4.71191 0
M  V30 11687 N 1101.18 1.11143 -1.11736 0
M  V30 11688 C 1102.11 2.19339 -0.800795 0
M  V30 11689 C 1103.1 1.68508 0.23221 0
M  V30 11690 O 1104.28 1.93967 0.0950063 0
M  V30 11691 C 1101.41 3.46424 -0.246579 0
M  V30 11692 C 1100.36 4.10487 -1.21181 0
M  V30 11693 C 1099.69 5.32183 -0.518158 0
M  V30 11694 C 1100.99 4.55052 -2.56368 0
M  V30 11695 H 1102.68 2.46077 -1.70548 0
M  V30 11696 H 1100.23 1.18271 -0.821454 0
M  V30 11697 H 1102.18 4.21398 -0.0128889 0
M  V30 11698 H 1100.91 3.19154 0.693415 0
M  V30 11699 H 1099.57 3.3751 -1.43118 0
M  V30 11700 H 1099.21 5.01187 0.426742 0
M  V30 11701 H 1098.91 5.75997 -1.16196 0
M  V30 11702 H 1100.44 6.09895 -0.293333 0
M  V30 11703 H 1101.85 5.21335 -2.38501 0
M  V30 11704 H 1100.25 5.0969 -3.16758 0
M  V30 11705 H 1101.32 3.68343 -3.1536 0
M  V30 11706 N 1102.66 0.908147 1.28804 0
M  V30 11707 C 1103.91 0.539201 1.95501 0
M  V30 11708 C 1104.24 -0.913759 1.7136 0
M  V30 11709 O 1103.52 -1.64904 1.03136 0
M  V30 11710 C 1103.8 0.842372 3.50109 0
M  V30 11711 C 1103.65 2.34765 3.83673 0
M  V30 11712 C 1104.97 0.334658 4.38826 0
M  V30 11713 H 1102.09 0.197373 0.71008 0
M  V30 11714 H 1104.73 1.13637 1.52272 0
M  V30 11715 H 1102.88 0.334143 3.8706 0
M  V30 11716 H 1104.55 2.92607 3.56621 0
M  V30 11717 H 1102.8 2.80494 3.30916 0
M  V30 11718 H 1103.47 2.51034 4.91616 0
M  V30 11719 H 1105.94 0.769961 4.08914 0
M  V30 11720 H 1104.82 0.575914 5.4587 0
M  V30 11721 H 1105.08 -0.764878 4.35433 0
M  V30 11722 N 1104.14 -1.42577 0.671525 0
M  V30 11723 C 1105.55 -1.84736 0.270084 0
M  V30 11724 C 1105.9 -1.56212 -1.18711 0
M  V30 11725 O 1105.03 -1.02028 -1.90838 0
M  V30 11726 C 1105.62 -3.35334 0.483409 0
M  V30 11727 C 1104.18 -3.76154 0.136119 0
M  V30 11728 C 1103.33 -2.66179 0.777444 0
M  V30 11729 H 1106.28 -1.3247 0.873919 0
M  V30 11730 H 1106.3 -3.79573 -0.265483 0
M  V30 11731 H 1105.81 -3.56063 1.54405 0
M  V30 11732 H 1103.91 -3.61033 -0.921209 0
M  V30 11733 H 1104.03 -4.75645 0.574356 0
M  V30 11734 H 1102.39 -2.53841 0.209055 0
M  V30 11735 H 1103.17 -2.89732 1.84148 0
M  V30 11736 N 1105.62 -0.414636 -1.52048 0
M  V30 11737 C 1106.86 0.158807 -2.03782 0
M  V30 11738 C 1107.22 1.41912 -1.29325 0
M  V30 11739 O 1108.42 2.07136 -1.71313 0
M  V30 11740 C 1106.69 0.395092 -3.55209 0
M  V30 11741 S 1108.25 0.935193 -4.28719 0
M  V30 11742 H 1105.07 0.0424729 -0.70973 0
M  V30 11743 H 1107.67 -0.568822 -1.87042 0
M  V30 11744 H 1106.38 -0.528875 -4.06978 0
M  V30 11745 H 1105.91 1.15044 -3.76203 0
M  V30 11746 H 1107.92 2.21519 -4.44009 0
M  V30 11747 N 1107.1 1.56929 -0.145233 0
M  V30 11748 C 1108.03 2.13796 0.826078 0
M  V30 11749 C 1109.04 1.08697 1.21197 0
M  V30 11750 O 1110.23 1.3598 1.15635 0
M  V30 11751 C 1107.33 2.6443 2.11967 0
M  V30 11752 C 1106.5 3.9391 1.90142 0
M  V30 11753 C 1105.56 4.29872 3.03474 0
M  V30 11754 O 1104.59 4.98227 2.75242 0
M  V30 11755 N 1105.79 3.8931 4.30602 0
M  V30 11756 H 1108.56 2.97764 0.340073 0
M  V30 11757 H 1106.12 1.61854 0.0383928 0
M  V30 11758 H 1108.11 2.85502 2.86829 0
M  V30 11759 H 1106.68 1.85196 2.51836 0
M  V30 11760 H 1105.9 3.81481 0.993268 0
M  V30 11761 H 1107.19 4.78523 1.72896 0
M  V30 11762 H 1106.58 3.34229 4.56407 0
M  V30 11763 H 1105.14 4.15438 5.0225 0
M  V30 11764 N 1108.58 -0.128553 1.57075 0
M  V30 11765 C 1109.8 -0.8564 1.88893 0
M  V30 11766 C 1110.23 -1.73095 0.736196 0
M  V30 11767 O 1109.58 -1.78567 -0.313629 0
M  V30 11768 C 1109.63 -1.67368 3.19406 0
M  V30 11769 O 1108.74 -2.77973 3.04639 0
M  V30 11770 H 1108.08 -0.237424 0.620102 0
M  V30 11771 H 1110.61 -0.113821 2.04283 0
M  V30 11772 H 1110.62 -2.0649 3.51889 0
M  V30 11773 H 1109.29 -1.03161 4.02903 0
M  V30 11774 H 1107.87 -2.42123 2.83603 0
M  V30 11775 N 1110.05 -1.5248 -0.398459 0
M  V30 11776 C 1111.46 -1.59107 -0.976817 0
M  V30 11777 C 1111.82 -0.438104 -1.91246 0
M  V30 11778 O 1110.94 0.440111 -2.11877 0
M  V30 11779 C 1111.54 -2.88373 -1.77838 0
M  V30 11780 C 1110.09 -2.97445 -2.30659 0
M  V30 11781 C 1109.24 -2.5414 -1.10942 0
M  V30 11782 H 1112.19 -1.57695 -0.178324 0
M  V30 11783 H 1112.21 -2.74327 -2.63676 0
M  V30 11784 H 1111.73 -3.72269 -1.09714 0
M  V30 11785 H 1109.83 -2.18066 -3.02123 0
M  V30 11786 H 1109.94 -4.019 -2.60794 0
M  V30 11787 H 1108.3 -2.08237 -1.46661 0
M  V30 11788 H 1109.09 -3.40421 -0.443684 0
M  V30 11789 N 1111.53 0.65634 -1.43283 0
M  V30 11790 C 1112.78 1.41674 -1.45946 0
M  V30 11791 C 1113.13 1.92228 -0.0812633 0
M  V30 11792 O 1112.43 1.69167 0.899607 0
M  V30 11793 C 1112.62 2.61688 -2.43421 0
M  V30 11794 C 1112.45 2.2288 -3.90583 0
M  V30 11795 C 1111.22 2.11355 -4.58974 0
M  V30 11796 C 1113.42 1.83361 -4.80503 0
M  V30 11797 N 1111.4 1.65844 -5.91074 0
M  V30 11798 C 1112.77 1.48909 -6.01852 0
M  V30 11799 C 1114.82 1.70517 -4.67791 0
M  V30 11800 C 1113.53 1.02899 -7.11902 0
M  V30 11801 C 1115.55 1.25912 -5.77841 0
M  V30 11802 C 1114.92 0.923948 -6.98314 0
M  V30 11803 H 1111.01 0.514195 -0.589175 0
M  V30 11804 H 1113.6 0.755591 -1.79441 0
M  V30 11805 H 1111.77 3.25466 -2.11958 0
M  V30 11806 H 1113.5 3.28374 -2.36542 0
M  V30 11807 H 1110.26 2.31014 -4.13436 0
M  V30 11808 H 1110.68 1.45459 -6.61189 0
M  V30 11809 H 1115.32 1.9507 -3.7511 0
M  V30 11810 H 1113.04 0.770942 -8.04414 0
M  V30 11811 H 1116.63 1.16468 -5.70023 0
M  V30 11812 H 1115.51 0.584057 -7.82022 0
M  V30 11813 N 1113.01 1.29761 0.894412 0
M  V30 11814 C 1113.96 1.15232 2.0205 0
M  V30 11815 C 1114.95 0.0665664 1.69269 0
M  V30 11816 O 1116.16 0.226746 1.78566 0
M  V30 11817 H 1112.53 0.356102 0.662341 0
M  V30 11818 H 1114.5 2.10559 2.11442 0
M  V30 11819 C 1113.25 0.851143 3.37121 0
M  V30 11820 H 1112.58 1.67865 3.62852 0
M  V30 11821 H 1114.02 0.78954 4.16584 0
M  V30 11822 C 1112.47 -0.445737 3.33938 0
M  V30 11823 O 1113 -1.47017 3.7383 0
M  V30 11824 N 1111.21 -0.453493 2.8704 0
M  V30 11825 H 1110.76 0.380636 2.54772 0
M  V30 11826 H 1110.72 -1.32119 2.85293 0
M  V30 11827 N 1114.49 -1.10549 1.12324 0
M  V30 11828 C 1115.72 -1.8627 0.900618 0
M  V30 11829 C 1116.13 -1.80609 -0.550069 0
M  V30 11830 O 1115.49 -1.19396 -1.38025 0
M  V30 11831 C 1115.54 -3.34716 1.36556 0
M  V30 11832 O 1115.26 -3.40279 2.75938 0
M  V30 11833 C 1116.76 -4.27315 1.17969 0
M  V30 11834 H 1113.98 -0.588741 0.321908 0
M  V30 11835 H 1116.52 -1.39759 1.49291 0
M  V30 11836 H 1114.68 -3.78697 0.81652 0
M  V30 11837 H 1115.09 -4.32781 2.96312 0
M  V30 11838 H 1116.57 -5.29677 1.55391 0
M  V30 11839 H 1117.04 -4.39036 0.120158 0
M  V30 11840 H 1117.65 -3.89137 1.71617 0
M  V30 11841 N 1115.97 -0.914965 -1.28321 0
M  V30 11842 C 1117.38 -0.59512 -1.76961 0
M  V30 11843 C 1117.73 0.88958 -1.74874 0
M  V30 11844 O 1116.85 1.6959 -1.34418 0
M  V30 11845 C 1117.45 -1.07353 -3.21342 0
M  V30 11846 C 1116.01 -0.804577 -3.677 0
M  V30 11847 C 1115.15 -1.23955 -2.48053 0
M  V30 11848 H 1118.1 -1.0961 -1.14767 0
M  V30 11849 H 1118.13 -0.415506 -3.78225 0
M  V30 11850 H 1117.64 -2.15413 -3.22829 0
M  V30 11851 H 1115.74 0.26277 -3.71672 0
M  V30 11852 H 1115.85 -1.41317 -4.57784 0
M  V30 11853 H 1114.22 -0.658274 -2.46046 0
M  V30 11854 H 1115 -2.32853 -2.52258 0
M  V30 11855 N 1117.44 1.42219 -0.679077 0
M  V30 11856 C 1118.37 2.33493 -0.0174528 0
M  V30 11857 C 1119.35 1.50915 0.78477 0
M  V30 11858 O 1120.54 1.79504 0.741065 0
M  V30 11859 C 1117.67 3.34576 0.931463 0
M  V30 11860 C 1116.62 4.2734 0.237527 0
M  V30 11861 C 1115.95 5.18664 1.29967 0
M  V30 11862 C 1117.25 5.14729 -0.886082 0
M  V30 11863 H 1118.94 2.89068 -0.779748 0
M  V30 11864 H 1116.49 1.38993 -0.376419 0
M  V30 11865 H 1118.44 3.97343 1.40343 0
M  V30 11866 H 1117.17 2.77315 1.72523 0
M  V30 11867 H 1115.83 3.65973 -0.214245 0
M  V30 11868 H 1115.47 4.57727 2.08554 0
M  V30 11869 H 1115.17 5.81558 0.840463 0
M  V30 11870 H 1116.7 5.84308 1.77249 0
M  V30 11871 H 1118.11 5.71158 -0.495141 0
M  V30 11872 H 1116.51 5.86478 -1.27135 0
M  V30 11873 H 1117.58 4.52874 -1.733 0
M  V30 11874 N 1118.92 0.422693 1.51826 0
M  V30 11875 C 1119.85 -0.386913 2.30272 0
M  V30 11876 C 1120.83 -1.03411 1.35056 0
M  V30 11877 O 1122.02 -1.04055 1.6397 0
M  V30 11878 C 1119.15 -1.49645 3.13407 0
M  V30 11879 C 1118.1 -0.973532 4.16781 0
M  V30 11880 C 1117.43 -2.1777 4.88344 0
M  V30 11881 C 1118.73 -0.0181194 5.22297 0
M  V30 11882 H 1120.42 0.267697 2.98201 0
M  V30 11883 H 1117.97 0.130186 1.4341 0
M  V30 11884 H 1119.92 -2.06993 3.67059 0
M  V30 11885 H 1118.64 -2.17914 2.43272 0
M  V30 11886 H 1117.3 -0.42237 3.64159 0
M  V30 11887 H 1116.95 -2.84625 4.14726 0
M  V30 11888 H 1116.65 -1.83427 5.58237 0
M  V30 11889 H 1118.18 -2.75699 5.44814 0
M  V30 11890 H 1119.59 -0.500822 5.71108 0
M  V30 11891 H 1117.99 0.237163 5.99631 0
M  V30 11892 H 1119.06 0.923065 4.76033 0
M  V30 11893 N 1120.4 -1.5685 0.153553 0
M  V30 11894 C 1121.81 -1.83074 -0.36618 0
M  V30 11895 C 1122.16 -1.07257 -1.64288 0
M  V30 11896 O 1121.29 -0.319925 -2.14022 0
M  V30 11897 C 1121.88 -3.32086 -0.671142 0
M  V30 11898 C 1120.44 -3.58868 -1.13537 0
M  V30 11899 C 1119.59 -2.76827 -0.161887 0
M  V30 11900 H 1122.54 -1.54129 0.378139 0
M  V30 11901 H 1122.56 -3.48598 -1.52512 0
M  V30 11902 H 1122.07 -3.8724 0.258234 0
M  V30 11903 H 1120.17 -3.09107 -2.08047 0
M  V30 11904 H 1120.29 -4.67299 -1.05682 0
M  V30 11905 H 1118.65 -2.46112 -0.6558 0
M  V30 11906 H 1119.43 -3.34755 0.761195 0
M  V30 11907 N 1121.88 0.120221 -1.57141 0
M  V30 11908 C 1123.12 0.829449 -1.85062 0
M  V30 11909 C 1123.46 1.79585 -0.739116 0
M  V30 11910 O 1122.73 1.92819 0.255147 0
M  V30 11911 C 1123.01 1.58042 -3.23566 0
M  V30 11912 C 1122.87 0.633706 -4.45314 0
M  V30 11913 C 1124.19 2.53688 -3.59625 0
M  V30 11914 H 1121.31 0.300086 -0.67314 0
M  V30 11915 H 1123.95 0.0937393 -1.89769 0
M  V30 11916 H 1122.1 2.20758 -3.19684 0
M  V30 11917 H 1123.77 0.0154836 -4.61297 0
M  V30 11918 H 1122.01 -0.054846 -4.33765 0
M  V30 11919 H 1122.68 1.19577 -5.38893 0
M  V30 11920 H 1125.16 2.01078 -3.6429 0
M  V30 11921 H 1124.04 3.03265 -4.57516 0
M  V30 11922 H 1124.3 3.36296 -2.8698 0
M  V30 11923 N 1123.36 1.52689 0.390367 0
M  V30 11924 C 1124.3 1.7737 1.47677 0
M  V30 11925 C 1125.27 0.616864 1.54221 0
M  V30 11926 O 1126.46 0.856437 1.70499 0
M  V30 11927 C 1123.6 1.94715 2.84921 0
M  V30 11928 C 1122.71 3.22405 2.8754 0
M  V30 11929 C 1121.85 3.30074 4.16202 0
M  V30 11930 C 1120.89 4.51893 4.12867 0
M  V30 11931 N 1120.02 4.56851 5.33134 0
M  V30 11932 H 1124.86 2.70084 1.25932 0
M  V30 11933 H 1122.4 1.33813 0.610943 0
M  V30 11934 H 1124.36 2.02755 3.64618 0
M  V30 11935 H 1122.99 1.05363 3.0512 0
M  V30 11936 H 1122.04 3.23442 2.00223 0
M  V30 11937 H 1123.35 4.12156 2.80943 0
M  V30 11938 H 1122.51 3.3729 5.04302 0
M  V30 11939 H 1121.24 2.38295 4.25519 0
M  V30 11940 H 1120.25 4.44803 3.23156 0
M  V30 11941 H 1121.47 5.44987 4.05174 0
M  V30 11942 H 1119.42 3.67963 5.43083 0
M  V30 11943 H 1119.34 5.40472 5.28607 0
M  V30 11944 H 1120.61 4.6832 6.23134 0
M  V30 11945 N 1124.83 -0.648732 1.43629 0
M  V30 11946 C 1125.78 -1.76145 1.49136 0
M  V30 11947 C 1126.75 -1.62569 0.340649 0
M  V30 11948 O 1127.94 -1.82748 0.548435 0
M  V30 11949 C 1125.08 -3.14321 1.42466 0
M  V30 11950 C 1124.19 -3.38999 2.67776 0
M  V30 11951 C 1123.32 -4.67047 2.53062 0
M  V30 11952 C 1122.36 -4.84845 3.7362 0
M  V30 11953 N 1121.5 -6.04155 3.57689 0
M  V30 11954 H 1126.34 -1.70774 2.44213 0
M  V30 11955 H 1123.88 -0.833311 1.2122 0
M  V30 11956 H 1125.84 -3.94206 1.36592 0
M  V30 11957 H 1124.47 -3.18751 0.509666 0
M  V30 11958 H 1123.52 -2.53179 2.83909 0
M  V30 11959 H 1124.83 -3.48035 3.57314 0
M  V30 11960 H 1123.98 -5.55066 2.44922 0
M  V30 11961 H 1122.72 -4.60339 1.61056 0
M  V30 11962 H 1121.73 -3.95261 3.82163 0
M  V30 11963 H 1122.95 -4.9338 4.6664 0
M  V30 11964 H 1120.9 -5.9857 2.6842 0
M  V30 11965 H 1120.82 -6.14169 4.40832 0
M  V30 11966 H 1122.08 -6.94782 3.53409 0
M  V30 11967 N 1126.31 -1.30234 -0.887518 0
M  V30 11968 C 1127.72 -1.17048 -1.45453 0
M  V30 11969 C 1128.07 0.229793 -1.9485 0
M  V30 11970 O 1127.2 1.12628 -1.84781 0
M  V30 11971 C 1127.79 -2.11876 -2.64375 0
M  V30 11972 C 1126.35 -2.02676 -3.17174 0
M  V30 11973 C 1125.5 -2.02104 -1.89866 0
M  V30 11974 H 1128.45 -1.42541 -0.697694 0
M  V30 11975 H 1128.47 -1.69811 -3.40506 0
M  V30 11976 H 1127.98 -3.13781 -2.28392 0
M  V30 11977 H 1126.09 -1.03904 -3.57819 0
M  V30 11978 H 1126.2 -2.90939 -3.80646 0
M  V30 11979 H 1124.56 -1.4687 -2.0809 0
M  V30 11980 H 1125.35 -3.05735 -1.56145 0
M  V30 11981 N 1127.79 1.09952 -1.12909 0
M  V30 11982 C 1129.04 1.81657 -0.885729 0
M  V30 11983 C 1129.36 1.85863 0.589913 0
M  V30 11984 O 1128.63 1.34028 1.42875 0
M  V30 11985 H 1127.21 0.672743 -0.324694 0
M  V30 11986 H 1129.87 1.33013 -1.42456 0
M  V30 11987 H 1128.97 2.85018 -1.27167 0
M  V30 11988 N 1129.27 0.921757 1.27833 0
M  V30 11989 C 1130.5 0.575202 1.98744 0
M  V30 11990 C 1130.91 -0.845405 1.68815 0
M  V30 11991 O 1130.27 -1.56106 0.94536 0
M  V30 11992 C 1130.32 0.784389 3.52888 0
M  V30 11993 O 1130.04 2.1491 3.81766 0
M  V30 11994 C 1131.54 0.445744 4.41053 0
M  V30 11995 H 1128.76 0.218525 0.634419 0
M  V30 11996 H 1131.31 1.23715 1.62834 0
M  V30 11997 H 1129.46 0.169323 3.8703 0
M  V30 11998 H 1129.87 2.19469 4.76375 0
M  V30 11999 H 1131.35 0.64284 5.48244 0
M  V30 12000 H 1131.83 -0.618433 4.34824 0
M  V30 12001 H 1132.43 1.03869 4.12421 0
M  V30 12002 N 1130.75 -1.41857 0.686609 0
M  V30 12003 C 1131.69 -2.326 0.0041351 0
M  V30 12004 C 1132.69 -1.50474 -0.778077 0
M  V30 12005 O 1133.89 -1.66468 -0.684709 0
M  V30 12006 H 1130.27 -0.751797 -0.0174615 0
M  V30 12007 H 1132.24 -2.87844 0.786656 0
M  V30 12008 C 1130.99 -3.35175 -0.924819 0
M  V30 12009 H 1130.31 -3.98416 -0.332339 0
M  V30 12010 H 1131.75 -4.01229 -1.37082 0
M  V30 12011 C 1130.21 -2.68359 -2.03679 0
M  V30 12012 O 1130.74 -2.52453 -3.12459 0
M  V30 12013 N 1128.95 -2.27196 -1.81192 0
M  V30 12014 H 1128.49 -2.40333 -0.92725 0
M  V30 12015 H 1128.45 -1.82824 -2.55778 0
M  V30 12016 N 1132.22 -0.430739 -1.51599 0
M  V30 12017 C 1133.5 0.197543 -1.946 0
M  V30 12018 C 1133.88 1.6069 -1.36901 0
M  V30 12019 O 1133.23 2.21697 -0.553422 0
M  V30 12020 C 1133.44 0.181976 -3.48525 0
M  V30 12021 C 1134.79 0.390783 -4.22798 0
M  V30 12022 O 1135.81 0.260384 -3.55247 0
M  V30 12023 O 1134.67 0.649701 -5.42624 0
M  V30 12024 H 1131.76 0.133524 -0.81615 0
M  V30 12025 H 1134.31 -0.488243 -1.62525 0
M  V30 12026 H 1133.08 -0.803584 -3.8296 0
M  V30 12027 H 1132.71 0.910952 -3.87024 0
M  V30 12028 N 1133.7 1.56767 -0.161869 0
M  V30 12029 C 1134.93 2.00673 0.491314 0
M  V30 12030 C 1135.34 1.04111 1.5798 0
M  V30 12031 O 1134.68 0.0324889 1.83671 0
M  V30 12032 C 1134.75 3.41011 1.13806 0
M  V30 12033 C 1134.41 4.56595 0.192384 0
M  V30 12034 C 1135.41 5.16591 -0.585671 0
M  V30 12035 C 1133.09 5.02218 0.0909594 0
M  V30 12036 C 1135.09 6.20631 -1.45245 0
M  V30 12037 C 1132.77 6.06109 -0.77941 0
M  V30 12038 C 1133.77 6.65187 -1.54971 0
M  V30 12039 O 1133.46 7.67065 -2.40555 0
M  V30 12040 H 1133.19 0.663174 0.131059 0
M  V30 12041 H 1135.74 2.03775 -0.257896 0
M  V30 12042 H 1133.97 3.34793 1.93521 0
M  V30 12043 H 1135.66 3.68931 1.69248 0
M  V30 12044 H 1136.43 4.82232 -0.517432 0
M  V30 12045 H 1132.31 4.55953 0.680292 0
M  V30 12046 H 1135.85 6.66671 -2.05415 0
M  V30 12047 H 1131.75 6.39894 -0.848887 0
M  V30 12048 H 1132.52 7.84348 -2.33966 0
M  V30 12049 N 1135.18 -0.111886 1.57202 0
M  V30 12050 C 1136.6 -0.465629 1.52657 0
M  V30 12051 C 1136.8 -1.81463 0.875989 0
M  V30 12052 O 1135.85 -2.4825 0.461345 0
M  V30 12053 C 1137.17 -0.443571 2.9741 0
M  V30 12054 C 1138.71 -0.52662 3.08538 0
M  V30 12055 C 1139.19 -0.53488 4.54866 0
M  V30 12056 N 1140.68 -0.596117 4.59348 0
M  V30 12057 C 1141.41 -0.624073 5.69994 0
M  V30 12058 N 1140.91 -0.609245 6.90116 0
M  V30 12059 N 1142.7 -0.667619 5.58121 0
M  V30 12060 H 1134.85 0.771925 1.97876 0
M  V30 12061 H 1137.12 0.285534 0.903977 0
M  V30 12062 H 1136.82 0.480138 3.48407 0
M  V30 12063 H 1136.7 -1.26876 3.55221 0
M  V30 12064 H 1139.08 -1.44075 2.57539 0
M  V30 12065 H 1139.17 0.326396 2.53709 0
M  V30 12066 H 1138.81 0.375233 5.06512 0
M  V30 12067 H 1138.74 -1.40488 5.07514 0
M  V30 12068 H 1141.23 -0.613452 3.72888 0
M  V30 12069 H 1141.54 -0.633396 7.702 0
M  V30 12070 H 1139.89 -0.576557 6.92604 0
M  V30 12071 H 1143.08 -0.676616 4.63184 0
M  V30 12072 H 1143.25 -0.685938 6.44359 0
M  V30 12073 N 1136.66 -1.52894 -0.382264 0
M  V30 12074 C 1138.07 -1.60135 -0.959887 0
M  V30 12075 C 1138.42 -0.458363 -1.90771 0
M  V30 12076 O 1137.55 0.417614 -2.12332 0
M  V30 12077 C 1138.14 -2.90243 -1.74769 0
M  V30 12078 C 1136.7 -2.99874 -2.27491 0
M  V30 12079 C 1135.85 -2.55302 -1.0824 0
M  V30 12080 H 1138.8 -1.57875 -0.161589 0
M  V30 12081 H 1138.82 -2.77108 -2.60751 0
M  V30 12082 H 1138.33 -3.73412 -1.0576 0
M  V30 12083 H 1136.43 -2.21258 -2.99793 0
M  V30 12084 H 1136.54 -4.04643 -2.56516 0
M  V30 12085 H 1134.91 -2.09781 -1.44444 0
M  V30 12086 H 1135.69 -3.40872 -0.407553 0
M  V30 12087 N 1138.14 0.641106 -1.43971 0
M  V30 12088 C 1139.38 1.40291 -1.46445 0
M  V30 12089 C 1139.72 1.93978 -0.0929004 0
M  V30 12090 O 1138.99 1.73043 0.888043 0
M  V30 12091 C 1139.27 2.57551 -2.51673 0
M  V30 12092 C 1139.13 2.09279 -3.98149 0
M  V30 12093 C 1140.45 3.59752 -2.53508 0
M  V30 12094 H 1137.57 0.508771 -0.533218 0
M  V30 12095 H 1140.21 0.725767 -1.75592 0
M  V30 12096 H 1138.36 3.15319 -2.2695 0
M  V30 12097 H 1140.03 1.56418 -4.33971 0
M  V30 12098 H 1138.27 1.40545 -4.10402 0
M  V30 12099 H 1138.94 2.93655 -4.67409 0
M  V30 12100 H 1141.42 3.11766 -2.75574 0
M  V30 12101 H 1140.3 4.39332 -3.29057 0
M  V30 12102 H 1140.56 4.13156 -1.57335 0
M  V30 12103 N 1139.62 1.30703 0.880598 0
M  V30 12104 C 1140.55 1.1327 1.99255 0
M  V30 12105 C 1141.56 0.0747186 1.62628 0
M  V30 12106 O 1142.75 0.321169 1.75587 0
M  V30 12107 C 1139.85 0.706179 3.31461 0
M  V30 12108 C 1139.02 1.84687 3.96497 0
M  V30 12109 C 1138.08 1.40817 5.07008 0
M  V30 12110 O 1137.11 2.1161 5.28403 0
M  V30 12111 N 1138.31 0.289619 5.79777 0
M  V30 12112 H 1141.07 2.09043 2.14759 0
M  V30 12113 H 1138.64 1.22896 1.05395 0
M  V30 12114 H 1140.63 0.395617 4.02762 0
M  V30 12115 H 1139.2 -0.159631 3.12192 0
M  V30 12116 H 1138.42 2.32531 3.18312 0
M  V30 12117 H 1139.71 2.61117 4.36687 0
M  V30 12118 H 1139.1 -0.300177 5.64903 0
M  V30 12119 H 1137.66 0.0385346 6.51789 0
M  V30 12120 N 1141.09 -1.09351 1.1349 0
M  V30 12121 C 1142.37 -1.78121 0.808225 0
M  V30 12122 C 1142.75 -1.99154 -0.700072 0
M  V30 12123 O 1142.1 -1.59356 -1.63762 0
M  V30 12124 C 1142.31 -3.10368 1.59601 0
M  V30 12125 C 1143.66 -3.85063 1.78919 0
M  V30 12126 O 1144.68 -3.20122 1.56206 0
M  V30 12127 O 1143.54 -5.01648 2.16821 0
M  V30 12128 H 1140.63 -0.77253 0.295173 0
M  V30 12129 H 1143.18 -1.15901 1.23956 0
M  V30 12130 H 1141.95 -2.90549 2.62101 0
M  V30 12131 H 1141.57 -3.80312 1.15967 0
M  V30 12132 N 1142.57 -0.928524 -1.27343 0
M  V30 12133 C 1143.5 -0.445627 -2.29208 0
M  V30 12134 C 1144.48 0.494508 -1.62753 0
M  V30 12135 O 1145.67 0.399082 -1.90055 0
M  V30 12136 C 1142.8 0.301684 -3.45987 0
M  V30 12137 C 1141.75 -0.550695 -4.24442 0
M  V30 12138 C 1141.08 0.325833 -5.33706 0
M  V30 12139 C 1142.38 -1.81559 -4.89728 0
M  V30 12140 H 1144.07 -1.29696 -2.69851 0
M  V30 12141 H 1141.62 -0.625085 -1.29725 0
M  V30 12142 H 1143.57 0.650455 -4.1635 0
M  V30 12143 H 1142.29 1.18705 -3.04264 0
M  V30 12144 H 1140.95 -0.882185 -3.55827 0
M  V30 12145 H 1140.6 1.21018 -4.88225 0
M  V30 12146 H 1140.3 -0.240994 -5.87106 0
M  V30 12147 H 1141.83 0.670156 -6.06911 0
M  V30 12148 H 1143.24 -1.53483 -5.52373 0
M  V30 12149 H 1141.64 -2.32598 -5.53189 0
M  V30 12150 H 1142.71 -2.53461 -4.13383 0
M  V30 12151 N 1144.05 1.41491 -0.694123 0
M  V30 12152 C 1145.47 1.55358 -0.365532 0
M  V30 12153 C 1145.67 1.66994 1.12762 0
M  V30 12154 O 1144.72 1.64756 1.91342 0
M  V30 12155 C 1146.03 2.79352 -1.11279 0
M  V30 12156 C 1147.58 2.93147 -1.097 0
M  V30 12157 C 1148.06 4.20027 -1.82597 0
M  V30 12158 N 1149.55 4.26981 -1.7956 0
M  V30 12159 C 1150.28 5.24013 -2.32805 0
M  V30 12160 N 1149.78 6.27083 -2.94515 0
M  V30 12161 N 1151.57 5.15943 -2.23069 0
M  V30 12162 H 1143.72 1.32183 -1.66257 0
M  V30 12163 H 1145.99 0.637624 -0.701527 0
M  V30 12164 H 1145.69 2.76958 -2.16765 0
M  V30 12165 H 1145.57 3.70827 -0.690439 0
M  V30 12166 H 1147.95 2.95057 -0.0504037 0
M  V30 12167 H 1148.03 2.02849 -1.55839 0
M  V30 12168 H 1147.68 4.18878 -2.87235 0
M  V30 12169 H 1147.61 5.09294 -1.33893 0
M  V30 12170 H 1150.1 3.53129 -1.34567 0
M  V30 12171 H 1150.41 6.97511 -3.32714 0
M  V30 12172 H 1148.76 6.27589 -2.98592 0
M  V30 12173 H 1151.95 4.34346 -1.74532 0
M  V30 12174 H 1152.12 5.91396 -2.64868 0
M  V30 12175 N 1145.53 0.438773 1.51369 0
M  V30 12176 C 1146.44 -0.378074 2.31534 0
M  V30 12177 C 1147.45 -1.02632 1.40508 0
M  V30 12178 O 1148.63 -1.02138 1.73579 0
M  V30 12179 C 1145.69 -1.46374 3.14286 0
M  V30 12180 C 1144.76 -0.835473 4.21092 0
M  V30 12181 C 1143.99 -1.86941 4.99889 0
M  V30 12182 O 1144.21 -3.0918 4.79337 0
M  V30 12183 O 1143.15 -1.45914 5.83946 0
M  V30 12184 H 1146.97 0.276401 3.0244 0
M  V30 12185 H 1144.56 0.201281 1.48038 0
M  V30 12186 H 1146.44 -2.09335 3.65728 0
M  V30 12187 H 1145.11 -2.10227 2.46143 0
M  V30 12188 H 1144.02 -0.167775 3.73724 0
M  V30 12189 H 1145.35 -0.240406 4.91613 0
M  V30 12190 N 1147.01 -1.56678 0.170181 0
M  V30 12191 C 1148.25 -1.9714 -0.475767 0
M  V30 12192 C 1148.58 -1.05611 -1.62972 0
M  V30 12193 O 1147.86 -0.103017 -1.94227 0
M  V30 12194 C 1148.14 -3.47072 -0.959828 0
M  V30 12195 C 1148 -4.4938 0.194225 0
M  V30 12196 C 1149.31 -4.00071 -1.83387 0
M  V30 12197 H 1146.43 -0.716776 -0.171466 0
M  V30 12198 H 1149.08 -1.88266 0.256086 0
M  V30 12199 H 1147.23 -3.54766 -1.58346 0
M  V30 12200 H 1148.9 -4.53748 0.83128 0
M  V30 12201 H 1147.14 -4.25393 0.849893 0
M  V30 12202 H 1147.81 -5.51685 -0.186575 0
M  V30 12203 H 1150.29 -3.95002 -1.30815 0
M  V30 12204 H 1149.16 -5.05398 -2.14159 0
M  V30 12205 H 1149.42 -3.43819 -2.77923 0
M  V30 12206 N 1148.48 0.103547 -1.57259 0
M  V30 12207 C 1149.43 1.14513 -2.02459 0
M  V30 12208 C 1150.43 1.4197 -0.924163 0
M  V30 12209 O 1151.63 1.41751 -1.10936 0
M  V30 12210 H 1148.01 0.386469 -0.645094 0
M  V30 12211 H 1149.98 0.737531 -2.89142 0
M  V30 12212 C 1148.73 2.45948 -2.45775 0
M  V30 12213 H 1148.05 2.25662 -3.30026 0
M  V30 12214 H 1149.49 3.17351 -2.81184 0
M  V30 12215 C 1147.95 3.09639 -1.32759 0
M  V30 12216 O 1148.48 3.96372 -0.652059 0
M  V30 12217 N 1146.68 2.69757 -1.08072 0
M  V30 12218 H 1146.23 1.9932 -1.63185 0
M  V30 12219 H 1146.19 3.127 -0.326532 0
M  V30 12220 N 1149.96 1.53094 0.37415 0
M  V30 12221 C 1150.91 1.78927 1.45787 0
M  V30 12222 C 1151.88 0.633187 1.53558 0
M  V30 12223 O 1153.06 0.874472 1.69581 0
M  V30 12224 C 1150.2 1.97726 2.8284 0
M  V30 12225 C 1149.32 3.25436 2.84104 0
M  V30 12226 C 1148.45 3.3447 4.12678 0
M  V30 12227 C 1147.49 4.56246 4.08051 0
M  V30 12228 N 1146.63 4.6248 5.28258 0
M  V30 12229 H 1151.47 2.71404 1.2306 0
M  V30 12230 H 1149 1.34453 0.596716 0
M  V30 12231 H 1150.96 2.06611 3.62447 0
M  V30 12232 H 1149.59 1.08593 3.03986 0
M  V30 12233 H 1148.64 3.25548 1.96781 0
M  V30 12234 H 1149.96 4.15112 2.76556 0
M  V30 12235 H 1149.11 3.4262 5.00696 0
M  V30 12236 H 1147.85 2.42795 4.22968 0
M  V30 12237 H 1146.85 4.48206 3.1842 0
M  V30 12238 H 1148.08 5.49254 3.99371 0
M  V30 12239 H 1146.03 3.73703 5.3915 0
M  V30 12240 H 1145.94 5.46049 5.22845 0
M  V30 12241 H 1147.21 4.74903 6.18132 0
M  V30 12242 N 1151.44 -0.633461 1.44309 0
M  V30 12243 C 1152.86 -0.951379 1.28144 0
M  V30 12244 C 1153.06 -2.00344 0.215512 0
M  V30 12245 O 1152.11 -2.49321 -0.399389 0
M  V30 12246 C 1153.42 -1.41686 2.65227 0
M  V30 12247 C 1154.97 -1.53247 2.72918 0
M  V30 12248 C 1155.45 -2.03179 4.10466 0
M  V30 12249 N 1156.94 -2.10453 4.1263 0
M  V30 12250 C 1157.67 -2.50254 5.15907 0
M  V30 12251 N 1157.17 -2.89209 6.29547 0
M  V30 12252 N 1158.96 -2.50368 5.03262 0
M  V30 12253 H 1151.11 0.0623574 2.12308 0
M  V30 12254 H 1153.38 -0.0347244 0.947364 0
M  V30 12255 H 1153.08 -0.71814 3.4429 0
M  V30 12256 H 1152.96 -2.3883 2.91959 0
M  V30 12257 H 1155.34 -2.22216 1.94176 0
M  V30 12258 H 1155.42 -0.544836 2.4993 0
M  V30 12259 H 1155.07 -1.34806 4.89683 0
M  V30 12260 H 1155 -3.02809 4.3083 0
M  V30 12261 H 1157.49 -1.83042 3.30612 0
M  V30 12262 H 1157.8 -3.18386 7.04166 0
M  V30 12263 H 1156.15 -2.86966 6.32989 0
M  V30 12264 H 1159.34 -2.19324 4.13539 0
M  V30 12265 H 1159.51 -2.81062 5.83873 0
M  V30 12266 N 1152.92 -1.31168 -0.873655 0
M  V30 12267 C 1154.16 -1.20821 -1.62881 0
M  V30 12268 C 1154.5 0.233994 -1.92785 0
M  V30 12269 O 1153.77 1.16588 -1.55684 0
M  V30 12270 C 1154.06 -2.04875 -2.96139 0
M  V30 12271 C 1153.91 -3.57375 -2.73136 0
M  V30 12272 C 1155.23 -1.8953 -3.97198 0
M  V30 12273 H 1152.35 -0.44026 -0.59105 0
M  V30 12274 H 1154.99 -1.6092 -1.01019 0
M  V30 12275 H 1153.14 -1.70806 -3.48938 0
M  V30 12276 H 1154.81 -4.01561 -2.27038 0
M  V30 12277 H 1153.05 -3.8099 -2.07434 0
M  V30 12278 H 1153.72 -4.1149 -3.6794 0
M  V30 12279 H 1156.2 -2.19337 -3.53596 0
M  V30 12280 H 1155.08 -2.5065 -4.8833 0
M  V30 12281 H 1155.34 -0.857576 -4.33703 0
M  V30 12282 N 1154.4 1.08748 -1.14068 0
M  V30 12283 C 1155.31 2.19123 -0.837998 0
M  V30 12284 C 1156.32 1.73065 0.180164 0
M  V30 12285 O 1157.5 2.01398 0.00952285 0
M  V30 12286 C 1154.56 3.45257 -0.316 0
M  V30 12287 C 1153.62 4.05959 -1.39628 0
M  V30 12288 C 1152.86 5.26072 -0.899095 0
M  V30 12289 O 1153.08 5.69804 0.260744 0
M  V30 12290 O 1152.01 5.7808 -1.67652 0
M  V30 12291 H 1155.84 2.4748 -1.76033 0
M  V30 12292 H 1153.43 1.17816 -0.918675 0
M  V30 12293 H 1155.31 4.21389 -0.0306425 0
M  V30 12294 H 1153.98 3.18486 0.578654 0
M  V30 12295 H 1152.89 3.31432 -1.73505 0
M  V30 12296 H 1154.22 4.36971 -2.26533 0
M  V30 12297 N 1155.87 0.935264 1.26849 0
M  V30 12298 C 1157.15 0.497797 1.8916 0
M  V30 12299 C 1157.53 -1.02441 1.84578 0
M  V30 12300 O 1156.88 -1.88185 1.29609 0
M  V30 12301 C 1157.09 1.05244 3.32753 0
M  V30 12302 C 1158.44 1.11751 4.0963 0
M  V30 12303 O 1159.46 1.0026 3.41799 0
M  V30 12304 O 1158.32 1.29548 5.30923 0
M  V30 12305 H 1155.41 0.161322 0.811113 0
M  V30 12306 H 1157.96 1.02744 1.35062 0
M  V30 12307 H 1156.73 2.09617 3.30419 0
M  V30 12308 H 1156.36 0.504889 3.94381 0
M  V30 12309 N 1157.35 -1.41121 0.701616 0
M  V30 12310 C 1158.6 -2.00359 0.232214 0
M  V30 12311 C 1158.91 -1.56231 -1.17691 0
M  V30 12312 O 1160.12 -2.08071 -1.74409 0
M  V30 12313 C 1158.58 -3.58052 0.364257 0
M  V30 12314 C 1158.18 -4.11158 1.77913 0
M  V30 12315 C 1159.93 -4.24476 -0.0450628 0
M  V30 12316 C 1157.84 -5.61306 1.8625 0
M  V30 12317 H 1156.77 -0.749411 0.0830609 0
M  V30 12318 H 1159.42 -1.61528 0.870689 0
M  V30 12319 H 1157.8 -3.94515 -0.342569 0
M  V30 12320 H 1158.97 -3.86101 2.5152 0
M  V30 12321 H 1157.29 -3.57282 2.13866 0
M  V30 12322 H 1159.88 -5.347 -0.00329209 0
M  V30 12323 H 1160.23 -4.01919 -1.08477 0
M  V30 12324 H 1160.76 -3.93069 0.611704 0
M  V30 12325 H 1157.5 -5.88699 2.88294 0
M  V30 12326 H 1157.02 -5.88271 1.17036 0
M  V30 12327 H 1158.7 -6.26179 1.62817 0
M  V30 12328 N 1158.83 -0.446794 -1.51134 0
M  V30 12329 C 1159.78 0.378002 -2.24845 0
M  V30 12330 C 1160.76 0.982126 -1.27448 0
M  V30 12331 O 1161.96 0.8987 -1.52487 0
M  V30 12332 C 1159.09 1.4733 -3.10079 0
M  V30 12333 C 1158.17 0.878102 -4.1491 0
M  V30 12334 N 1158.56 0.0129452 -5.05798 0
M  V30 12335 C 1156.86 1.14468 -4.3106 0
M  V30 12336 C 1157.56 -0.322333 -5.80806 0
M  V30 12337 N 1156.54 0.296438 -5.42791 0
M  V30 12338 H 1160.34 -0.28885 -2.92477 0
M  V30 12339 H 1157.85 -0.259439 -1.60314 0
M  V30 12340 H 1159.85 2.07713 -3.6147 0
M  V30 12341 H 1158.51 2.14239 -2.43992 0
M  V30 12342 H 1159.52 -0.354177 -5.16688 0
M  V30 12343 H 1156.2 1.81056 -3.76198 0
M  V30 12344 H 1157.59 -1.02693 -6.64006 0
M  V30 12345 N 1160.31 1.56586 -0.178487 0
M  V30 12346 C 1161.72 1.83633 0.337009 0
M  V30 12347 C 1162.07 1.09857 1.6256 0
M  V30 12348 O 1161.2 0.353933 2.13486 0
M  V30 12349 C 1161.79 3.33112 0.618225 0
M  V30 12350 C 1160.35 3.60629 1.07814 0
M  V30 12351 C 1159.5 2.7705 0.117825 0
M  V30 12352 H 1162.45 1.53508 -0.402612 0
M  V30 12353 H 1162.47 3.5098 1.46947 0
M  V30 12354 H 1161.98 3.8678 -0.319808 0
M  V30 12355 H 1160.08 3.12378 2.03103 0
M  V30 12356 H 1160.19 4.68921 0.982339 0
M  V30 12357 H 1158.56 2.47125 0.616563 0
M  V30 12358 H 1159.34 3.33501 -0.814356 0
M  V30 12359 N 1161.79 -0.095206 1.57312 0
M  V30 12360 C 1163.01 -0.81227 1.90289 0
M  V30 12361 C 1163.43 -1.72287 0.772178 0
M  V30 12362 O 1162.79 -1.80698 -0.255841 0
M  V30 12363 C 1162.84 -1.62572 3.22882 0
M  V30 12364 O 1162.56 -0.75175 4.31602 0
M  V30 12365 C 1164.06 -2.44585 3.6972 0
M  V30 12366 H 1161.28 -0.232256 0.629522 0
M  V30 12367 H 1163.82 -0.0724733 2.04372 0
M  V30 12368 H 1161.98 -2.31803 3.10397 0
M  V30 12369 H 1162.39 -1.31514 5.07744 0
M  V30 12370 H 1163.87 -2.97155 4.65191 0
M  V30 12371 H 1164.34 -3.23044 2.97555 0
M  V30 12372 H 1164.95 -1.80554 3.85072 0
M  V30 12373 N 1163.26 -1.53291 -0.366026 0
M  V30 12374 C 1164.51 -1.69702 -1.11036 0
M  V30 12375 C 1164.84 -0.44728 -1.88979 0
M  V30 12376 O 1164.12 0.55542 -1.86401 0
M  V30 12377 C 1164.4 -2.94661 -2.06995 0
M  V30 12378 C 1164.25 -4.29791 -1.32663 0
M  V30 12379 C 1165.57 -3.15219 -3.07123 0
M  V30 12380 H 1162.69 -0.617525 -0.402284 0
M  V30 12381 H 1165.33 -1.85929 -0.391223 0
M  V30 12382 H 1163.48 -2.80958 -2.68318 0
M  V30 12383 H 1165.16 -4.55305 -0.741266 0
M  V30 12384 H 1163.4 -4.29223 -0.628484 0
M  V30 12385 H 1164.07 -5.13359 -2.02896 0
M  V30 12386 H 1166.55 -3.28105 -2.55903 0
M  V30 12387 H 1165.42 -4.04088 -3.71489 0
M  V30 12388 H 1165.68 -2.30479 -3.77269 0
M  V30 12389 N 1164.74 0.6258 -1.44643 0
M  V30 12390 C 1166.15 1.20751 -1.42394 0
M  V30 12391 C 1166.5 1.95685 -0.142047 0
M  V30 12392 O 1165.63 2.02715 0.757332 0
M  V30 12393 C 1166.22 2.1964 -2.57961 0
M  V30 12394 C 1164.78 2.73227 -2.5889 0
M  V30 12395 C 1163.93 1.48315 -2.34303 0
M  V30 12396 H 1166.88 0.416162 -1.53146 0
M  V30 12397 H 1166.9 3.02342 -2.31019 0
M  V30 12398 H 1166.41 1.65073 -3.51244 0
M  V30 12399 H 1164.52 3.31782 -1.69563 0
M  V30 12400 H 1164.63 3.18902 -3.57545 0
M  V30 12401 H 1162.99 1.76634 -1.83501 0
M  V30 12402 H 1163.78 0.956427 -3.29708 0
M  V30 12403 N 1166.22 1.31629 0.866686 0
M  V30 12404 C 1167.17 1.19492 1.99561 0
M  V30 12405 C 1168.16 0.102456 1.6909 0
M  V30 12406 O 1169.37 0.264571 1.78045 0
M  V30 12407 H 1165.74 0.370071 0.654638 0
M  V30 12408 H 1167.71 2.14996 2.06928 0
M  V30 12409 C 1166.46 0.92246 3.3524 0
M  V30 12410 H 1165.79 1.75524 3.59209 0
M  V30 12411 H 1167.23 0.877726 4.14816 0
M  V30 12412 C 1165.69 -0.374803 3.34809 0
M  V30 12413 O 1166.22 -1.39055 3.76864 0
M  V30 12414 N 1164.42 -0.392506 2.87937 0
M  V30 12415 H 1163.97 0.434591 2.53908 0
M  V30 12416 H 1163.93 -1.26038 2.88031 0
M  V30 12417 N 1167.7 -1.08142 1.14644 0
M  V30 12418 C 1169.11 -1.62061 0.926986 0
M  V30 12419 C 1169.46 -1.88805 -0.533578 0
M  V30 12420 O 1168.59 -1.64753 -1.40305 0
M  V30 12421 C 1169.18 -2.94425 1.67629 0
M  V30 12422 C 1167.74 -3.45118 1.50235 0
M  V30 12423 C 1166.89 -2.19307 1.69705 0
M  V30 12424 H 1169.84 -0.913326 1.29785 0
M  V30 12425 H 1169.86 -3.62987 1.14107 0
M  V30 12426 H 1169.37 -2.74928 2.73927 0
M  V30 12427 H 1167.47 -3.69713 0.462967 0
M  V30 12428 H 1167.59 -4.2169 2.27408 0
M  V30 12429 H 1165.95 -2.28611 1.12291 0
M  V30 12430 H 1166.73 -2.02315 2.77351 0
M  V30 12431 N 1169.18 -0.941978 -1.26351 0
M  V30 12432 C 1170.41 -0.605868 -1.97517 0
M  V30 12433 C 1170.82 0.823583 -1.70334 0
M  V30 12434 O 1170.16 1.56085 -0.968662 0
M  V30 12435 C 1170.22 -0.769201 -3.51175 0
M  V30 12436 C 1169.88 -2.17343 -4.02009 0
M  V30 12437 C 1170.88 -3.14898 -4.13685 0
M  V30 12438 C 1168.57 -2.49422 -4.35998 0
M  V30 12439 C 1170.56 -4.42631 -4.58646 0
M  V30 12440 C 1168.25 -3.77388 -4.80647 0
M  V30 12441 C 1169.25 -4.73806 -4.91932 0
M  V30 12442 O 1168.93 -5.99493 -5.35596 0
M  V30 12443 H 1168.67 -0.227113 -0.636707 0
M  V30 12444 H 1171.22 -1.26523 -1.61806 0
M  V30 12445 H 1169.45 -0.0527104 -3.86664 0
M  V30 12446 H 1171.14 -0.436032 -4.03551 0
M  V30 12447 H 1171.9 -2.91438 -3.87671 0
M  V30 12448 H 1167.78 -1.7511 -4.26448 0
M  V30 12449 H 1171.33 -5.17892 -4.67369 0
M  V30 12450 H 1167.22 -4.0066 -5.06105 0
M  V30 12451 H 1167.99 -6.02687 -5.53815 0
M  V30 12452 N 1170.66 1.40747 -0.709091 0
M  V30 12453 C 1171.6 2.32564 -0.0411392 0
M  V30 12454 C 1172.6 1.51692 0.75404 0
M  V30 12455 O 1173.8 1.67537 0.658139 0
M  V30 12456 H 1170.18 0.75198 0.00549889 0
M  V30 12457 H 1172.15 2.86556 -0.83235 0
M  V30 12458 C 1170.9 3.36604 0.871378 0
M  V30 12459 H 1170.22 3.98895 0.268912 0
M  V30 12460 H 1171.66 4.03359 1.30682 0
M  V30 12461 C 1170.12 2.71566 1.99384 0
M  V30 12462 O 1170.65 2.57392 3.08403 0
M  V30 12463 N 1168.86 2.3005 1.77554 0
M  V30 12464 H 1168.4 2.41778 0.888898 0
M  V30 12465 H 1168.36 1.8687 2.52838 0
M  V30 12466 N 1172.13 0.454803 1.50895 0
M  V30 12467 C 1173.06 -0.337982 2.31041 0
M  V30 12468 C 1174.04 -1.00523 1.37219 0
M  V30 12469 O 1175.23 -1.00553 1.66141 0
M  V30 12470 C 1172.36 -1.42964 3.1651 0
M  V30 12471 C 1171.31 -0.884907 4.18752 0
M  V30 12472 C 1170.64 -2.07363 4.92854 0
M  V30 12473 C 1171.94 0.0926716 5.22218 0
M  V30 12474 H 1173.63 0.33089 2.97566 0
M  V30 12475 H 1171.18 0.160577 1.43102 0
M  V30 12476 H 1173.13 -1.9916 3.71367 0
M  V30 12477 H 1171.86 -2.12705 2.47839 0
M  V30 12478 H 1170.52 -0.345031 3.64973 0
M  V30 12479 H 1170.16 -2.75764 4.2067 0
M  V30 12480 H 1169.86 -1.71545 5.62002 0
M  V30 12481 H 1171.39 -2.6408 5.5054 0
M  V30 12482 H 1172.8 -0.379568 5.72042 0
M  V30 12483 H 1171.2 0.3643 5.98993 0
M  V30 12484 H 1172.27 1.02383 4.73968 0
M  V30 12485 N 1173.61 -1.56489 0.186789 0
M  V30 12486 C 1174.54 -2.21705 -0.732739 0
M  V30 12487 C 1175.52 -1.17751 -1.22755 0
M  V30 12488 O 1176.71 -1.46231 -1.27789 0
M  V30 12489 C 1173.84 -2.86992 -1.95584 0
M  V30 12490 C 1172.79 -3.97118 -1.59628 0
M  V30 12491 C 1172.12 -4.49529 -2.89531 0
M  V30 12492 C 1173.42 -5.15941 -0.812518 0
M  V30 12493 H 1175.11 -2.98802 -0.189094 0
M  V30 12494 H 1172.66 -1.43722 -0.0895099 0
M  V30 12495 H 1174.61 -3.31295 -2.60426 0
M  V30 12496 H 1173.33 -2.07287 -2.52388 0
M  V30 12497 H 1171.99 -3.53494 -0.971475 0
M  V30 12498 H 1171.64 -3.66596 -3.44407 0
M  V30 12499 H 1171.34 -5.23832 -2.66221 0
M  V30 12500 H 1172.87 -4.96528 -3.55376 0
M  V30 12501 H 1174.28 -5.56841 -1.36386 0
M  V30 12502 H 1172.68 -5.96259 -0.677862 0
M  V30 12503 H 1173.75 -4.84535 0.188095 0
M  V30 12504 N 1175.09 0.086862 -1.5736 0
M  V30 12505 C 1176.31 0.806017 -1.91097 0
M  V30 12506 C 1176.74 1.71082 -0.78183 0
M  V30 12507 O 1176.1 1.79335 0.266175 0
M  V30 12508 C 1176.15 1.5884 -3.23732 0
M  V30 12509 O 1175.25 2.69798 -3.11902 0
M  V30 12510 H 1174.59 0.220899 -0.626179 0
M  V30 12511 H 1177.12 0.059619 -2.04513 0
M  V30 12512 H 1177.13 1.97088 -3.5724 0
M  V30 12513 H 1175.81 0.924426 -4.05496 0
M  V30 12514 H 1174.38 2.34519 -2.89923 0
M  V30 12515 N 1176.57 1.53483 0.357892 0
M  V30 12516 C 1177.82 1.69701 1.09754 0
M  V30 12517 C 1178.14 0.455389 1.89608 0
M  V30 12518 O 1177.41 -0.530623 1.88577 0
M  V30 12519 H 1175.99 0.62562 0.408178 0
M  V30 12520 H 1178.65 1.90696 0.402641 0
M  V30 12521 H 1177.74 2.56154 1.78302 0
M  V30 12522 N 1178.05 -0.61812 1.44973 0
M  V30 12523 C 1178.98 -1.74035 1.55673 0
M  V30 12524 C 1179.96 -1.65112 0.4089 0
M  V30 12525 O 1181.14 -1.83673 0.630698 0
M  V30 12526 C 1178.27 -3.1261 1.51303 0
M  V30 12527 C 1177.23 -3.36334 2.64696 0
M  V30 12528 C 1176.55 -4.75072 2.45378 0
M  V30 12529 C 1177.85 -3.27618 4.06772 0
M  V30 12530 H 1179.55 -1.65336 2.49608 0
M  V30 12531 H 1177.09 -0.794003 1.20132 0
M  V30 12532 H 1179.04 -3.90906 1.57388 0
M  V30 12533 H 1177.77 -3.22123 0.538914 0
M  V30 12534 H 1176.43 -2.60423 2.58022 0
M  V30 12535 H 1176.08 -4.81306 1.46129 0
M  V30 12536 H 1175.78 -4.91903 3.21412 0
M  V30 12537 H 1177.3 -5.55582 2.53301 0
M  V30 12538 H 1178.71 -3.95802 4.14746 0
M  V30 12539 H 1177.11 -3.55981 4.83113 0
M  V30 12540 H 1178.18 -2.25219 4.29423 0
M  V30 12541 N 1179.52 -1.32087 -0.859693 0
M  V30 12542 C 1180.93 -1.20107 -1.42938 0
M  V30 12543 C 1181.29 0.188411 -1.95293 0
M  V30 12544 O 1180.41 1.08683 -1.87128 0
M  V30 12545 C 1181.01 -2.17436 -2.59821 0
M  V30 12546 C 1179.56 -2.09359 -3.12803 0
M  V30 12547 C 1178.71 -2.06086 -1.85537 0
M  V30 12548 H 1181.66 -1.43989 -0.667302 0
M  V30 12549 H 1181.68 -1.76996 -3.36828 0
M  V30 12550 H 1181.2 -3.18555 -2.21685 0
M  V30 12551 H 1179.3 -1.1147 -3.55535 0
M  V30 12552 H 1179.41 -2.98947 -3.74389 0
M  V30 12553 H 1177.77 -1.51251 -2.04928 0
M  V30 12554 H 1178.56 -3.08978 -1.49625 0
M  V30 12555 N 1181 1.07532 -1.15215 0
M  V30 12556 C 1182.41 1.61567 -0.935568 0
M  V30 12557 C 1182.76 1.89085 0.523557 0
M  V30 12558 O 1181.89 1.65495 1.39429 0
M  V30 12559 C 1182.48 2.93531 -1.69189 0
M  V30 12560 C 1181.04 3.44316 -1.52063 0
M  V30 12561 C 1180.19 2.18404 -1.70866 0
M  V30 12562 H 1183.14 0.906431 -1.30267 0
M  V30 12563 H 1183.16 3.62377 -1.16031 0
M  V30 12564 H 1182.67 2.73471 -2.75381 0
M  V30 12565 H 1180.77 3.69462 -0.482567 0
M  V30 12566 H 1180.89 4.20478 -2.29642 0
M  V30 12567 H 1179.25 2.28012 -1.13502 0
M  V30 12568 H 1180.03 2.00841 -2.7842 0
M  V30 12569 N 1182.48 0.948665 1.2585 0
M  V30 12570 C 1183.71 0.616741 1.98018 0
M  V30 12571 C 1184.13 -0.803005 1.70098 0
M  V30 12572 O 1183.49 -1.54208 0.953392 0
M  V30 12573 C 1183.54 0.874429 3.49837 0
M  V30 12574 O 1182.64 -0.0497568 4.1237 0
M  V30 12575 H 1181.98 0.235112 0.620982 0
M  V30 12576 H 1184.51 1.27364 1.60124 0
M  V30 12577 H 1184.52 0.798309 4.00114 0
M  V30 12578 H 1183.2 1.90922 3.69488 0
M  V30 12579 H 1181.77 0.0780591 3.72818 0
M  V30 12580 N 1183.96 -1.40369 0.716545 0
M  V30 12581 C 1184.91 -2.27963 0.0410169 0
M  V30 12582 C 1185.89 -1.43307 -0.731575 0
M  V30 12583 O 1187.08 -1.66389 -0.603618 0
M  V30 12584 C 1184.21 -3.31849 -0.87927 0
M  V30 12585 C 1183.3 -4.23978 -0.101813 0
M  V30 12586 N 1183.69 -4.97447 0.915437 0
M  V30 12587 C 1181.99 -4.44746 -0.334227 0
M  V30 12588 C 1182.69 -5.65029 1.38266 0
M  V30 12589 N 1181.67 -5.39014 0.704642 0
M  V30 12590 H 1185.47 -2.8221 0.820653 0
M  V30 12591 H 1182.98 -1.52831 0.549217 0
M  V30 12592 H 1184.98 -3.93448 -1.37855 0
M  V30 12593 H 1183.64 -2.79162 -1.65827 0
M  V30 12594 H 1184.65 -5.01414 1.29631 0
M  V30 12595 H 1181.33 -4.03034 -1.08948 0
M  V30 12596 H 1182.72 -6.33886 2.22797 0
M  V30 12597 N 1185.44 -0.462799 -1.50652 0
M  V30 12598 C 1186.37 0.371837 -2.26164 0
M  V30 12599 C 1187.38 0.96432 -1.31167 0
M  V30 12600 O 1188.57 0.854134 -1.56738 0
M  V30 12601 C 1185.67 1.53469 -3.0216 0
M  V30 12602 C 1184.84 1.0565 -4.24449 0
M  V30 12603 C 1183.9 2.09243 -4.82808 0
M  V30 12604 O 1182.93 1.67641 -5.43953 0
M  V30 12605 N 1184.13 3.41976 -4.69076 0
M  V30 12606 H 1186.9 -0.275476 -2.98431 0
M  V30 12607 H 1184.46 -0.293109 -1.59225 0
M  V30 12608 H 1186.45 2.22446 -3.38083 0
M  V30 12609 H 1185.02 2.08685 -2.32743 0
M  V30 12610 H 1184.24 0.192895 -3.93728 0
M  V30 12611 H 1185.53 0.714796 -5.03754 0
M  V30 12612 H 1184.92 3.78491 -4.20429 0
M  V30 12613 H 1183.48 4.06775 -5.09291 0
M  V30 12614 N 1186.91 1.56388 -0.195085 0
M  V30 12615 C 1188.16 1.98634 0.437717 0
M  V30 12616 C 1188.52 1.07985 1.59239 0
M  V30 12617 O 1187.81 0.124261 1.91197 0
M  V30 12618 C 1188 3.44651 0.946051 0
M  V30 12619 C 1187.83 4.49423 -0.157828 0
M  V30 12620 C 1186.6 5.01538 -0.615457 0
M  V30 12621 C 1188.8 5.05132 -0.966773 0
M  V30 12622 N 1186.78 5.89974 -1.69716 0
M  V30 12623 C 1188.15 5.90238 -1.89788 0
M  V30 12624 C 1190.21 4.87565 -1.00919 0
M  V30 12625 C 1188.91 6.59655 -2.86788 0
M  V30 12626 C 1190.94 5.57722 -1.96724 0
M  V30 12627 C 1190.3 6.42574 -2.88579 0
M  V30 12628 H 1186.4 0.77152 0.127594 0
M  V30 12629 H 1188.98 1.92363 -0.300777 0
M  V30 12630 H 1187.15 3.51423 1.65399 0
M  V30 12631 H 1188.88 3.73863 1.54946 0
M  V30 12632 H 1185.64 4.73139 -0.208806 0
M  V30 12633 H 1186.06 6.38896 -2.23921 0
M  V30 12634 H 1190.71 4.2164 -0.313023 0
M  V30 12635 H 1188.42 7.24779 -3.57381 0
M  V30 12636 H 1192.01 5.46106 -2.00647 0
M  V30 12637 H 1190.89 6.95906 -3.61503 0
M  V30 12638 N 1188.39 -0.0785156 1.57404 0
M  V30 12639 C 1189.62 -0.790893 1.90862 0
M  V30 12640 C 1190.03 -1.7198 0.788644 0
M  V30 12641 O 1189.37 -1.82027 -0.247322 0
M  V30 12642 C 1189.44 -1.64362 3.19727 0
M  V30 12643 C 1189.1 -0.884796 4.48353 0
M  V30 12644 C 1190.1 -0.207074 5.19487 0
M  V30 12645 C 1187.78 -0.853962 4.94988 0
M  V30 12646 C 1189.78 0.491329 6.35504 0
M  V30 12647 C 1187.46 -0.151783 6.10911 0
M  V30 12648 C 1188.46 0.519669 6.8102 0
M  V30 12649 O 1188.15 1.21055 7.94733 0
M  V30 12650 H 1187.88 -0.230427 0.635515 0
M  V30 12651 H 1190.43 -0.0551231 2.05326 0
M  V30 12652 H 1188.66 -2.42203 3.01454 0
M  V30 12653 H 1190.35 -2.23406 3.38887 0
M  V30 12654 H 1191.12 -0.222247 4.84491 0
M  V30 12655 H 1187 -1.36605 4.40296 0
M  V30 12656 H 1190.54 1.01598 6.90162 0
M  V30 12657 H 1186.44 -0.134514 6.4536 0
M  V30 12658 H 1187.21 1.11914 8.10813 0
M  V30 12659 N 1189.87 -1.5367 -0.349747 0
M  V30 12660 C 1191.1 -1.74547 -1.11089 0
M  V30 12661 C 1191.51 -0.481741 -1.82551 0
M  V30 12662 O 1190.87 0.546272 -1.74132 0
M  V30 12663 C 1190.92 -2.92148 -2.12913 0
M  V30 12664 O 1190.64 -4.13633 -1.44358 0
M  V30 12665 C 1192.14 -3.25027 -3.01451 0
M  V30 12666 H 1189.36 -0.583376 -0.331532 0
M  V30 12667 H 1191.91 -2.00473 -0.403841 0
M  V30 12668 H 1190.06 -2.68572 -2.79192 0
M  V30 12669 H 1190.48 -4.79601 -2.12329 0
M  V30 12670 H 1191.95 -4.10679 -3.68845 0
M  V30 12671 H 1192.43 -2.41064 -3.67131 0
M  V30 12672 H 1193.03 -3.50586 -2.40768 0
M  V30 12673 N 1191.35 0.610423 -1.45298 0
M  V30 12674 C 1192.59 1.37154 -1.49388 0
M  V30 12675 C 1192.93 1.93737 -0.134025 0
M  V30 12676 O 1192.2 1.74888 0.851138 0
M  V30 12677 C 1192.49 2.52155 -2.5708 0
M  V30 12678 C 1192.34 2.00786 -4.02498 0
M  V30 12679 C 1193.66 3.54294 -2.61082 0
M  V30 12680 H 1190.78 0.497346 -0.54389 0
M  V30 12681 H 1193.42 0.688358 -1.77092 0
M  V30 12682 H 1191.57 3.10434 -2.33587 0
M  V30 12683 H 1193.24 1.47178 -4.37191 0
M  V30 12684 H 1191.48 1.31809 -4.1329 0
M  V30 12685 H 1192.15 2.83674 -4.73533 0
M  V30 12686 H 1194.63 3.05851 -2.82125 0
M  V30 12687 H 1193.51 4.32254 -3.38301 0
M  V30 12688 H 1193.77 4.09726 -1.66063 0
M  V30 12689 N 1192.83 1.32541 0.852676 0
M  V30 12690 C 1193.76 1.24254 1.97694 0
M  V30 12691 C 1194.74 0.125971 1.69633 0
M  V30 12692 O 1195.92 0.31347 1.91653 0
M  V30 12693 C 1193.05 0.966874 3.3357 0
M  V30 12694 C 1192.01 2.0449 3.75989 0
M  V30 12695 C 1191.33 1.6216 5.09518 0
M  V30 12696 C 1192.63 3.46013 3.91244 0
M  V30 12697 H 1194.33 2.18317 2.04886 0
M  V30 12698 H 1191.87 1.05101 0.984371 0
M  V30 12699 H 1193.83 0.895444 4.11776 0
M  V30 12700 H 1192.55 -0.0093893 3.26599 0
M  V30 12701 H 1191.21 2.10651 3.00036 0
M  V30 12702 H 1190.86 0.632729 4.99005 0
M  V30 12703 H 1190.56 2.3429 5.38871 0
M  V30 12704 H 1192.08 1.56457 5.90215 0
M  V30 12705 H 1193.49 3.4243 4.59799 0
M  V30 12706 H 1191.89 4.1651 4.32017 0
M  V30 12707 H 1192.96 3.8553 2.941 0
M  V30 12708 N 1194.3 -1.0692 1.15784 0
M  V30 12709 C 1195.58 -1.76367 0.845825 0
M  V30 12710 C 1195.96 -2.00594 -0.657672 0
M  V30 12711 O 1195.31 -1.62794 -1.60345 0
M  V30 12712 C 1195.52 -3.06913 1.66149 0
M  V30 12713 C 1196.87 -3.81181 1.87046 0
M  V30 12714 O 1197.89 -3.16737 1.62961 0
M  V30 12715 O 1196.75 -4.96936 2.27413 0
M  V30 12716 H 1193.84 -0.766095 0.311493 0
M  V30 12717 H 1196.39 -1.13246 1.26386 0
M  V30 12718 H 1195.16 -2.84924 2.68205 0
M  V30 12719 H 1194.79 -3.77767 1.24007 0
M  V30 12720 N 1195.78 -0.955326 -1.25345 0
M  V30 12721 C 1196.71 -0.494145 -2.28211 0
M  V30 12722 C 1197.69 0.459875 -1.63766 0
M  V30 12723 O 1198.88 0.358679 -1.90859 0
M  V30 12724 C 1196.01 0.228228 -3.46549 0
M  V30 12725 C 1194.96 -0.640601 -4.23179 0
M  V30 12726 C 1194.29 0.212553 -5.34277 0
M  V30 12727 C 1195.59 -1.91906 -4.85767 0
M  V30 12728 H 1197.28 -1.35391 -2.67039 0
M  V30 12729 H 1194.83 -0.652462 -1.2837 0
M  V30 12730 H 1196.78 0.561995 -4.17636 0
M  V30 12731 H 1195.51 1.12224 -3.06714 0
M  V30 12732 H 1194.16 -0.957462 -3.53876 0
M  V30 12733 H 1193.81 1.10634 -4.90682 0
M  V30 12734 H 1193.51 -0.365473 -5.86462 0
M  V30 12735 H 1195.04 0.541271 -6.08196 0
M  V30 12736 H 1196.45 -1.65165 -5.48993 0
M  V30 12737 H 1194.85 -2.44279 -5.48131 0
M  V30 12738 H 1195.92 -2.62173 -4.07914 0
M  V30 12739 N 1197.26 1.39987 -0.723979 0
M  V30 12740 C 1198.21 2.30672 -0.0768286 0
M  V30 12741 C 1199.18 1.48634 0.741422 0
M  V30 12742 O 1200.36 1.77351 0.703649 0
M  V30 12743 C 1197.5 3.34902 0.832729 0
M  V30 12744 C 1196.62 4.32 0.00304942 0
M  V30 12745 C 1195.75 5.23298 0.91286 0
M  V30 12746 C 1194.79 6.12051 0.0777706 0
M  V30 12747 N 1193.93 6.9574 0.942912 0
M  V30 12748 H 1198.77 2.85446 -0.855832 0
M  V30 12749 H 1196.3 1.40561 -0.433718 0
M  V30 12750 H 1198.26 3.93911 1.37441 0
M  V30 12751 H 1196.89 2.81611 1.57782 0
M  V30 12752 H 1195.94 3.74702 -0.655916 0
M  V30 12753 H 1197.26 4.94637 -0.643124 0
M  V30 12754 H 1196.41 5.87279 1.52277 0
M  V30 12755 H 1195.15 4.60956 1.59284 0
M  V30 12756 H 1194.15 5.47092 -0.545022 0
M  V30 12757 H 1195.38 6.76455 -0.598827 0
M  V30 12758 H 1193.33 6.35977 1.60838 0
M  V30 12759 H 1193.24 7.55176 0.352968 0
M  V30 12760 H 1194.51 7.64162 1.53874 0
M  V30 12761 N 1198.74 0.470782 1.50404 0
M  V30 12762 C 1200.02 -0.145879 1.95055 0
M  V30 12763 C 1200.4 -1.57004 1.41114 0
M  V30 12764 O 1199.74 -2.20152 0.612006 0
M  V30 12765 C 1199.95 -0.0895071 3.48885 0
M  V30 12766 C 1201.3 -0.278548 4.23685 0
M  V30 12767 O 1202.33 -0.166105 3.55812 0
M  V30 12768 O 1201.19 -0.505606 5.44156 0
M  V30 12769 H 1198.28 -0.111838 0.819403 0
M  V30 12770 H 1200.83 0.531162 1.61173 0
M  V30 12771 H 1199.6 0.904836 3.80695 0
M  V30 12772 H 1199.22 -0.808019 3.89303 0
M  V30 12773 N 1200.22 -1.56282 0.203376 0
M  V30 12774 C 1201.18 -2.18233 -0.700489 0
M  V30 12775 C 1202.18 -1.13908 -1.13497 0
M  V30 12776 O 1203.37 -1.39246 -1.04672 0
M  V30 12777 C 1200.5 -2.79107 -1.95735 0
M  V30 12778 H 1201.7 -2.99469 -0.160649 0
M  V30 12779 H 1199.25 -1.56232 -0.0462475 0
M  V30 12780 H 1199.98 -2.01691 -2.53951 0
M  V30 12781 H 1199.77 -3.55486 -1.65446 0
M  V30 12782 H 1201.26 -3.2665 -2.60172 0
M  V30 12783 N 1201.7 0.070167 -1.57444 0
M  V30 12784 C 1202.94 0.769014 -1.8733 0
M  V30 12785 C 1203.27 1.77496 -0.79533 0
M  V30 12786 O 1202.53 1.94586 0.208495 0
M  V30 12787 C 1202.82 1.5111 -3.23883 0
M  V30 12788 C 1202.49 0.644988 -4.46263 0
M  V30 12789 C 1201.15 0.406307 -4.79482 0
M  V30 12790 C 1203.5 0.0444938 -5.21181 0
M  V30 12791 C 1200.83 -0.442322 -5.8503 0
M  V30 12792 C 1203.18 -0.791599 -6.27628 0
M  V30 12793 C 1201.85 -1.04014 -6.59346 0
M  V30 12794 H 1201.12 0.281402 -0.685488 0
M  V30 12795 H 1203.77 0.029752 -1.91477 0
M  V30 12796 H 1202.07 2.32261 -3.15535 0
M  V30 12797 H 1203.77 2.05665 -3.44242 0
M  V30 12798 H 1200.36 0.841148 -4.20265 0
M  V30 12799 H 1204.54 0.216005 -4.9583 0
M  V30 12800 H 1199.8 -0.643607 -6.08003 0
M  V30 12801 H 1203.97 -1.26363 -6.8484 0
M  V30 12802 H 1201.6 -1.69949 -7.4096 0
M  V30 12803 N 1203.17 1.53854 0.341593 0
M  V30 12804 C 1204.42 1.71194 1.08162 0
M  V30 12805 C 1204.75 0.47614 1.88582 0
M  V30 12806 O 1204 -0.542115 1.88041 0
M  V30 12807 C 1204.3 2.92844 2.04884 0
M  V30 12808 C 1203.97 4.28366 1.40759 0
M  V30 12809 C 1202.63 4.65214 1.23 0
M  V30 12810 C 1204.98 5.12546 0.945819 0
M  V30 12811 C 1202.31 5.83857 0.576852 0
M  V30 12812 C 1204.66 6.31857 0.306568 0
M  V30 12813 C 1203.33 6.67398 0.116677 0
M  V30 12814 H 1202.6 0.626442 0.395792 0
M  V30 12815 H 1205.24 1.88073 0.360688 0
M  V30 12816 H 1203.55 2.70576 2.83365 0
M  V30 12817 H 1205.25 3.03454 2.62139 0
M  V30 12818 H 1201.84 3.99366 1.5558 0
M  V30 12819 H 1206.02 4.84609 1.07087 0
M  V30 12820 H 1201.28 6.09967 0.418363 0
M  V30 12821 H 1205.45 6.96375 -0.0593285 0
M  V30 12822 H 1203.08 7.59191 -0.391477 0
M  V30 12823 N 1204.65 -0.602709 1.4562 0
M  V30 12824 C 1205.89 -1.37284 1.51435 0
M  V30 12825 C 1206.26 -1.9138 0.154148 0
M  V30 12826 O 1207.46 -2.68659 0.0870009 0
M  V30 12827 C 1205.73 -2.48651 2.56724 0
M  V30 12828 S 1207.29 -3.36354 2.818 0
M  V30 12829 H 1204.1 -0.46798 0.535272 0
M  V30 12830 H 1206.71 -0.694957 1.82731 0
M  V30 12831 H 1205.41 -2.07267 3.54215 0
M  V30 12832 H 1204.94 -3.21234 2.27095 0
M  V30 12833 H 1206.96 -4.46937 2.15549 0
M  V30 12834 N 1206.13 -1.32992 -0.845635 0
M  V30 12835 C 1207.06 -1.25301 -1.97033 0
M  V30 12836 C 1208.04 -0.134966 -1.69564 0
M  V30 12837 O 1209.23 -0.323629 -1.91484 0
M  V30 12838 C 1206.36 -0.984551 -3.33052 0
M  V30 12839 C 1205.31 -2.06481 -3.749 0
M  V30 12840 C 1204.64 -1.6486 -5.08651 0
M  V30 12841 C 1205.94 -3.48083 -3.89404 0
M  V30 12842 H 1207.63 -2.194 -2.03725 0
M  V30 12843 H 1205.18 -1.05621 -0.978783 0
M  V30 12844 H 1207.13 -0.917269 -4.11296 0
M  V30 12845 H 1205.85 -0.00793116 -3.26599 0
M  V30 12846 H 1204.51 -2.1224 -2.98915 0
M  V30 12847 H 1204.16 -0.659183 -4.98662 0
M  V30 12848 H 1203.86 -2.37145 -5.37621 0
M  V30 12849 H 1205.38 -1.59585 -5.89377 0
M  V30 12850 H 1206.8 -3.44863 -4.57976 0
M  V30 12851 H 1205.19 -4.18796 -4.29802 0
M  V30 12852 H 1206.26 -3.87084 -2.92051 0
M  V30 12853 N 1207.61 1.06304 -1.1635 0
M  V30 12854 C 1209.02 1.31227 -0.90838 0
M  V30 12855 C 1209.22 1.96665 0.438779 0
M  V30 12856 O 1208.28 2.2332 1.17833 0
M  V30 12857 C 1209.59 2.19303 -2.05734 0
M  V30 12858 C 1211.14 2.3272 -2.09309 0
M  V30 12859 C 1211.62 3.24151 -3.23559 0
M  V30 12860 N 1213.11 3.31734 -3.23275 0
M  V30 12861 C 1213.84 4.02572 -4.08318 0
M  V30 12862 N 1213.34 4.75933 -5.03448 0
M  V30 12863 N 1215.13 3.98621 -3.96305 0
M  V30 12864 H 1207.28 0.622228 -2.03081 0
M  V30 12865 H 1209.54 0.336892 -0.886119 0
M  V30 12866 H 1209.25 1.78497 -3.03037 0
M  V30 12867 H 1209.12 3.19888 -1.99879 0
M  V30 12868 H 1211.51 2.72774 -1.12599 0
M  V30 12869 H 1211.59 1.31804 -2.19229 0
M  V30 12870 H 1211.24 2.84813 -4.20528 0
M  V30 12871 H 1211.17 4.25046 -3.10875 0
M  V30 12872 H 1213.66 2.79453 -2.5439 0
M  V30 12873 H 1213.97 5.27512 -5.64758 0
M  V30 12874 H 1212.32 4.74913 -5.07427 0
M  V30 12875 H 1215.51 3.40427 -3.21289 0
M  V30 12876 H 1215.68 4.5356 -4.62804 0
M  V30 12877 N 1209.09 0.96196 1.24836 0
M  V30 12878 C 1210.02 0.506241 2.27946 0
M  V30 12879 C 1211 -0.451183 1.64007 0
M  V30 12880 O 1212.18 -0.348552 1.91046 0
M  V30 12881 C 1209.31 -0.209846 3.46665 0
M  V30 12882 C 1208.27 0.663035 4.22833 0
M  V30 12883 C 1207.59 -0.184216 5.34383 0
M  V30 12884 C 1208.89 1.94479 4.84742 0
M  V30 12885 H 1210.59 1.36805 2.66317 0
M  V30 12886 H 1208.13 0.65926 1.28023 0
M  V30 12887 H 1210.08 -0.539838 4.17928 0
M  V30 12888 H 1208.81 -1.10596 3.07305 0
M  V30 12889 H 1207.47 0.976216 3.53363 0
M  V30 12890 H 1207.12 -1.08031 4.91262 0
M  V30 12891 H 1206.82 0.39657 5.8626 0
M  V30 12892 H 1208.34 -0.509009 6.08475 0
M  V30 12893 H 1209.75 1.68074 5.48109 0
M  V30 12894 H 1208.15 2.47183 5.46828 0
M  V30 12895 H 1209.22 2.64332 4.06517 0
M  V30 12896 N 1210.56 -1.39601 0.731392 0
M  V30 12897 C 1211.51 -2.27907 0.0651931 0
M  V30 12898 C 1212.5 -1.44075 -0.716334 0
M  V30 12899 O 1213.69 -1.6702 -0.585936 0
M  V30 12900 C 1210.82 -3.32763 -0.844023 0
M  V30 12901 C 1209.9 -4.24062 -0.0568388 0
M  V30 12902 N 1210.3 -4.96448 0.968146 0
M  V30 12903 C 1208.59 -4.45075 -0.287037 0
M  V30 12904 C 1209.29 -5.6353 1.44252 0
M  V30 12905 N 1208.27 -5.38236 0.761772 0
M  V30 12906 H 1212.07 -2.81324 0.850539 0
M  V30 12907 H 1209.59 -1.5224 0.565396 0
M  V30 12908 H 1211.58 -3.94888 -1.33674 0
M  V30 12909 H 1210.24 -2.80905 -1.62857 0
M  V30 12910 H 1211.25 -5.00011 1.34942 0
M  V30 12911 H 1207.93 -4.04167 -1.04667 0
M  V30 12912 H 1209.32 -6.31487 2.29508 0
M  V30 12913 N 1212.04 -0.478751 -1.50152 0
M  V30 12914 C 1213.45 -0.0254907 -1.86683 0
M  V30 12915 C 1213.8 1.38171 -1.39295 0
M  V30 12916 O 1212.93 2.0257 -0.761207 0
M  V30 12917 C 1213.52 -0.0394819 -3.38777 0
M  V30 12918 C 1212.08 0.35834 -3.7469 0
M  V30 12919 C 1211.23 -0.421667 -2.74075 0
M  V30 12920 H 1214.18 -0.692653 -1.42787 0
M  V30 12921 H 1214.2 0.760957 -3.72813 0
M  V30 12922 H 1213.71 -1.06378 -3.73236 0
M  V30 12923 H 1211.82 1.38671 -3.45834 0
M  V30 12924 H 1211.93 0.0543589 -4.79069 0
M  V30 12925 H 1210.29 0.125634 -2.5439 0
M  V30 12926 H 1211.08 -1.44562 -3.11379 0
M  V30 12927 N 1213.52 1.56172 -0.211661 0
M  V30 12928 C 1214.75 2.02428 0.427843 0
M  V30 12929 C 1215.16 1.09162 1.54043 0
M  V30 12930 O 1214.52 0.0994249 1.82229 0
M  V30 12931 C 1214.57 3.48279 0.968728 0
M  V30 12932 O 1214.29 4.37987 -0.0994841 0
M  V30 12933 C 1215.79 4.10132 1.68246 0
M  V30 12934 H 1213.01 0.662611 0.10577 0
M  V30 12935 H 1215.56 2.01897 -0.32522 0
M  V30 12936 H 1213.71 3.49456 1.6721 0
M  V30 12937 H 1214.13 5.23609 0.305558 0
M  V30 12938 H 1215.6 5.13985 2.01304 0
M  V30 12939 H 1216.08 3.54552 2.5921 0
M  V30 12940 H 1216.68 4.12775 1.02453 0
M  V30 12941 N 1215 -0.0618163 1.57479 0
M  V30 12942 C 1216.22 -0.775513 1.92355 0
M  V30 12943 C 1216.65 -1.69816 0.808949 0
M  V30 12944 O 1216.01 -1.79736 -0.23761 0
M  V30 12945 C 1216.05 -1.5367 3.26218 0
M  V30 12946 O 1215.16 -2.64802 3.16155 0
M  V30 12947 H 1214.5 -0.210909 0.629614 0
M  V30 12948 H 1217.03 -0.0270752 2.04582 0
M  V30 12949 H 1217.04 -1.91379 3.6033 0
M  V30 12950 H 1215.71 -0.859798 4.06916 0
M  V30 12951 H 1214.29 -2.29876 2.93618 0
M  V30 12952 N 1216.48 -1.54033 -0.333429 0
M  V30 12953 C 1217.41 -1.79056 -1.43079 0
M  V30 12954 C 1218.42 -0.672176 -1.48276 0
M  V30 12955 O 1219.61 -0.949103 -1.51176 0
M  V30 12956 C 1216.71 -1.88443 -2.81678 0
M  V30 12957 C 1215.88 -3.18493 -2.99802 0
M  V30 12958 C 1214.94 -3.18708 -4.18702 0
M  V30 12959 O 1213.97 -3.92389 -4.12334 0
M  V30 12960 N 1215.17 -2.41792 -5.27747 0
M  V30 12961 H 1217.94 -2.73753 -1.21981 0
M  V30 12962 H 1215.5 -1.53207 -0.523365 0
M  V30 12963 H 1217.49 -1.86027 -3.59411 0
M  V30 12964 H 1216.06 -1.00887 -2.95872 0
M  V30 12965 H 1215.28 -3.33951 -2.09453 0
M  V30 12966 H 1216.57 -4.04376 -3.088 0
M  V30 12967 H 1215.96 -1.81501 -5.35793 0
M  V30 12968 H 1214.52 -2.45163 -6.03936 0
M  V30 12969 N 1217.95 0.594978 -1.45938 0
M  V30 12970 C 1219.37 1.17703 -1.44924 0
M  V30 12971 C 1219.72 1.9534 -0.183522 0
M  V30 12972 O 1218.84 2.04276 0.714163 0
M  V30 12973 C 1219.44 2.14119 -2.62561 0
M  V30 12974 C 1218 2.67674 -2.64627 0
M  V30 12975 C 1217.14 1.43312 -2.37397 0
M  V30 12976 H 1220.09 0.383583 -1.53995 0
M  V30 12977 H 1220.11 2.97374 -2.3738 0
M  V30 12978 H 1219.63 1.57586 -3.54667 0
M  V30 12979 H 1217.73 3.28111 -1.76562 0
M  V30 12980 H 1217.84 3.11246 -3.64229 0
M  V30 12981 H 1216.2 1.72702 -1.87206 0
M  V30 12982 H 1216.99 0.886276 -3.31663 0
M  V30 12983 N 1219.43 1.33438 0.838571 0
M  V30 12984 C 1220.36 1.26344 1.96365 0
M  V30 12985 C 1221.34 0.143956 1.6949 0
M  V30 12986 O 1222.53 0.333779 1.9131 0
M  V30 12987 C 1219.66 1.0022 3.32526 0
M  V30 12988 C 1218.61 2.08466 3.73799 0
M  V30 12989 C 1217.94 1.67555 5.07769 0
M  V30 12990 C 1219.24 3.50144 3.87552 0
M  V30 12991 H 1220.93 2.20478 2.02558 0
M  V30 12992 H 1218.48 1.06139 0.973168 0
M  V30 12993 H 1220.43 0.939068 4.10803 0
M  V30 12994 H 1219.16 0.0252514 3.2659 0
M  V30 12995 H 1217.81 2.13822 2.97785 0
M  V30 12996 H 1217.46 0.685619 4.98305 0
M  V30 12997 H 1217.16 2.39993 5.36356 0
M  V30 12998 H 1218.69 1.62708 5.88522 0
M  V30 12999 H 1220.1 3.47287 4.56141 0
M  V30 13000 H 1218.5 4.21069 4.27575 0
M  V30 13001 H 1219.57 3.88628 2.89994 0
M  V30 13002 N 1220.91 -1.05686 1.16912 0
M  V30 13003 C 1222.16 -1.78597 0.954425 0
M  V30 13004 C 1222.49 -1.87494 -0.517315 0
M  V30 13005 O 1221.74 -1.36736 -1.40006 0
M  V30 13006 C 1222.04 -3.22779 1.53455 0
M  V30 13007 C 1221.71 -3.3395 3.02965 0
M  V30 13008 C 1220.37 -3.36706 3.43777 0
M  V30 13009 C 1222.72 -3.35371 3.98969 0
M  V30 13010 C 1220.05 -3.38506 4.79198 0
M  V30 13011 C 1222.4 -3.38708 5.34284 0
M  V30 13012 C 1221.06 -3.39749 5.74567 0
M  V30 13013 H 1220.33 -0.653534 0.349249 0
M  V30 13014 H 1222.98 -1.24245 1.45723 0
M  V30 13015 H 1221.29 -3.80025 0.953331 0
M  V30 13016 H 1222.98 -3.77805 1.34404 0
M  V30 13017 H 1219.57 -3.32515 2.70429 0
M  V30 13018 H 1223.76 -3.32447 3.685 0
M  V30 13019 H 1219.01 -3.37619 5.09729 0
M  V30 13020 H 1223.19 -3.38755 6.08455 0
M  V30 13021 H 1220.81 -3.40897 6.7948 0
M  V30 13022 N 1222.39 -0.968567 -1.24324 0
M  V30 13023 C 1223.35 -0.504307 -2.23583 0
M  V30 13024 C 1224.35 0.399626 -1.55755 0
M  V30 13025 O 1225.54 0.194966 -1.73106 0
M  V30 13026 C 1222.67 0.26956 -3.39833 0
M  V30 13027 H 1223.87 -1.3818 -2.6617 0
M  V30 13028 H 1221.42 -0.753241 -1.36952 0
M  V30 13029 H 1222.15 1.16411 -3.02686 0
M  V30 13030 H 1221.94 -0.379133 -3.90263 0
M  V30 13031 H 1223.43 0.583376 -4.13505 0
M  V30 13032 N 1223.87 1.39211 -0.738786 0
M  V30 13033 C 1225.11 2.00436 -0.28839 0
M  V30 13034 C 1225.44 1.58626 1.12552 0
M  V30 13035 O 1224.7 0.808154 1.78234 0
M  V30 13036 C 1225 3.55758 -0.342224 0
M  V30 13037 C 1224.66 4.1723 -1.70968 0
M  V30 13038 C 1223.32 4.33734 -2.08395 0
M  V30 13039 C 1225.68 4.51294 -2.60736 0
M  V30 13040 C 1223 4.81592 -3.35091 0
M  V30 13041 C 1225.36 5.00562 -3.86808 0
M  V30 13042 C 1224.02 5.15274 -4.24322 0
M  V30 13043 H 1223.29 0.733447 -0.105529 0
M  V30 13044 H 1225.94 1.66481 -0.94637 0
M  V30 13045 H 1224.24 3.8976 0.399331 0
M  V30 13046 H 1225.94 4.00993 0.0244582 0
M  V30 13047 H 1222.53 4.04788 -1.4087 0
M  V30 13048 H 1226.71 4.38158 -2.3309 0
M  V30 13049 H 1221.97 4.91167 -3.64095 0
M  V30 13050 H 1226.14 5.25892 -4.5652 0
M  V30 13051 H 1223.77 5.52119 -5.2256 0
M  V30 13052 N 1225.34 0.486708 1.49896 0
M  V30 13053 C 1226.25 -0.304222 2.32619 0
M  V30 13054 C 1227.27 -0.981103 1.43702 0
M  V30 13055 O 1228.45 -0.965639 1.76741 0
M  V30 13056 C 1225.51 -1.36301 3.18783 0
M  V30 13057 C 1224.57 -0.701082 4.23537 0
M  V30 13058 C 1223.81 -1.70943 5.05583 0
M  V30 13059 O 1224.03 -2.93773 4.88931 0
M  V30 13060 O 1222.96 -1.27263 5.88292 0
M  V30 13061 H 1226.79 0.37248 3.01407 0
M  V30 13062 H 1224.37 0.248277 1.47323 0
M  V30 13063 H 1226.26 -1.97594 3.72202 0
M  V30 13064 H 1224.93 -2.0229 2.52706 0
M  V30 13065 H 1223.84 -0.0487926 3.74068 0
M  V30 13066 H 1225.17 -0.0838817 4.92129 0
M  V30 13067 N 1226.82 -1.56058 0.219941 0
M  V30 13068 C 1228.07 -1.99306 -0.40606 0
M  V30 13069 C 1228.42 -1.10505 -1.57501 0
M  V30 13070 O 1227.72 -0.154663 -1.90975 0
M  V30 13071 C 1227.91 -3.46113 -0.8911 0
M  V30 13072 C 1227.74 -4.49115 0.229307 0
M  V30 13073 C 1226.51 -5.00495 0.695169 0
M  V30 13074 C 1228.71 -5.0353 1.04701 0
M  V30 13075 N 1226.69 -5.872 1.7908 0
M  V30 13076 C 1228.06 -5.87144 1.99154 0
M  V30 13077 C 1230.12 -4.85898 1.08663 0
M  V30 13078 C 1228.82 -6.55009 2.97246 0
M  V30 13079 C 1230.85 -5.54521 2.05572 0
M  V30 13080 C 1230.21 -6.37902 2.98765 0
M  V30 13081 H 1226.31 -0.773453 -0.115304 0
M  V30 13082 H 1228.89 -1.9186 0.331342 0
M  V30 13083 H 1227.06 -3.5401 -1.59787 0
M  V30 13084 H 1228.79 -3.76281 -1.48978 0
M  V30 13085 H 1225.55 -4.72747 0.284052 0
M  V30 13086 H 1225.97 -6.35253 2.34057 0
M  V30 13087 H 1230.61 -4.21088 0.380063 0
M  V30 13088 H 1228.33 -7.19002 3.68866 0
M  V30 13089 H 1231.92 -5.42845 2.0931 0
M  V30 13090 H 1230.8 -6.90067 3.72529 0
M  V30 13091 N 1228.3 0.053464 -1.57509 0
M  V30 13092 C 1229.72 0.408651 -1.5428 0
M  V30 13093 C 1229.92 1.78086 -0.942735 0
M  V30 13094 O 1228.97 2.46366 -0.553163 0
M  V30 13095 C 1230.29 0.332884 -2.98852 0
M  V30 13096 C 1231.83 0.411745 -3.1028 0
M  V30 13097 C 1232.31 0.365691 -4.56538 0
M  V30 13098 N 1233.8 0.425222 -4.61244 0
M  V30 13099 C 1234.54 0.412093 -5.71917 0
M  V30 13100 N 1234.03 0.352693 -6.91902 0
M  V30 13101 N 1235.82 0.460016 -5.60214 0
M  V30 13102 H 1227.98 -0.844834 -1.94875 0
M  V30 13103 H 1230.24 -0.318888 -0.892757 0
M  V30 13104 H 1229.94 -0.609116 -3.46385 0
M  V30 13105 H 1229.82 1.13605 -3.59686 0
M  V30 13106 H 1232.21 1.34417 -2.62709 0
M  V30 13107 H 1232.29 -0.420333 -2.52323 0
M  V30 13108 H 1231.93 -0.562963 -5.0477 0
M  V30 13109 H 1231.86 1.21555 -5.12379 0
M  V30 13110 H 1234.35 0.474634 -3.74908 0
M  V30 13111 H 1234.66 0.347105 -7.7202 0
M  V30 13112 H 1233.01 0.319104 -6.94267 0
M  V30 13113 H 1236.2 0.504242 -4.65376 0
M  V30 13114 H 1236.37 0.446315 -6.46461 0
M  V30 13115 N 1229.78 1.54207 0.325255 0
M  V30 13116 C 1231.06 1.6298 1.08153 0
M  V30 13117 C 1231.44 0.462583 2.05969 0
M  V30 13118 O 1230.78 -0.543323 2.21947 0
M  V30 13119 C 1230.99 2.999 1.78497 0
M  V30 13120 C 1232.34 3.55888 2.3158 0
M  V30 13121 O 1233.37 3.02194 1.88566 0
M  V30 13122 O 1232.23 4.49847 3.10322 0
M  V30 13123 H 1229.32 0.659923 0.498429 0
M  V30 13124 H 1231.87 1.66553 0.325282 0
M  V30 13125 H 1230.64 3.7629 1.07338 0
M  V30 13126 H 1230.26 2.99997 2.60936 0
M  V30 13127 N 1231.26 -0.58723 1.46251 0
M  V30 13128 C 1232.67 -1.16933 1.45546 0
M  V30 13129 C 1233.02 -1.9524 0.193879 0
M  V30 13130 O 1232.14 -2.04652 -0.70332 0
M  V30 13131 C 1232.74 -2.12723 2.63693 0
M  V30 13132 C 1231.3 -2.66267 2.66043 0
M  V30 13133 C 1230.45 -1.42051 2.38153 0
M  V30 13134 H 1233.4 -0.375411 1.54196 0
M  V30 13135 H 1233.42 -2.96111 2.38953 0
M  V30 13136 H 1232.93 -1.55703 3.55497 0
M  V30 13137 H 1231.03 -3.2717 1.783 0
M  V30 13138 H 1231.14 -3.0931 3.65874 0
M  V30 13139 H 1229.51 -1.71707 1.88119 0
M  V30 13140 H 1230.29 -0.868675 3.32128 0
M  V30 13141 N 1232.74 -1.33881 -0.831482 0
M  V30 13142 C 1233.65 -1.26802 -1.97379 0
M  V30 13143 C 1234.66 -0.177233 -1.73095 0
M  V30 13144 O 1235.84 -0.402163 -1.97344 0
M  V30 13145 C 1232.9 -1.01474 -3.31517 0
M  V30 13146 C 1231.96 -2.19626 -3.68867 0
M  V30 13147 C 1231.2 -1.95497 -4.96605 0
M  V30 13148 O 1231.42 -0.908948 -5.63111 0
M  V30 13149 O 1230.35 -2.82226 -5.31632 0
M  V30 13150 H 1234.18 -2.22883 -2.06293 0
M  V30 13151 H 1231.76 -1.14001 -0.965613 0
M  V30 13152 H 1233.65 -0.890954 -4.11874 0
M  V30 13153 H 1232.32 -0.0842656 -3.2359 0
M  V30 13154 H 1231.23 -2.37561 -2.88991 0
M  V30 13155 H 1232.56 -3.11034 -3.81469 0
M  V30 13156 N 1234.21 1.05064 -1.1747 0
M  V30 13157 C 1235.15 2.12334 -0.836028 0
M  V30 13158 C 1236.12 1.61393 0.197733 0
M  V30 13159 O 1237.31 1.88334 0.0789748 0
M  V30 13160 C 1234.44 3.37796 -0.24734 0
M  V30 13161 C 1233.48 4.07565 -1.25669 0
M  V30 13162 S 1234.31 4.55941 -2.80853 0
M  V30 13163 C 1235.47 5.84648 -2.23468 0
M  V30 13164 H 1235.7 2.40735 -1.74453 0
M  V30 13165 H 1233.24 1.17684 -0.999495 0
M  V30 13166 H 1235.19 4.1041 0.0858241 0
M  V30 13167 H 1233.86 3.07529 0.639124 0
M  V30 13168 H 1233.05 4.97715 -0.793465 0
M  V30 13169 H 1232.65 3.41022 -1.53557 0
M  V30 13170 H 1234.94 6.58067 -1.61104 0
M  V30 13171 H 1235.89 6.35719 -3.11877 0
M  V30 13172 H 1236.29 5.39272 -1.6687 0
M  V30 13173 N 1235.69 0.975146 1.23809 0
M  V30 13174 C 1236.94 0.639858 1.91704 0
M  V30 13175 C 1237.26 -0.828557 1.76522 0
M  V30 13176 O 1236.53 -1.59217 1.14135 0
M  V30 13177 H 1235.11 0.233667 0.709513 0
M  V30 13178 H 1237.77 1.23782 1.50545 0
M  V30 13179 H 1236.87 0.886915 2.99233 0
M  V30 13180 N 1237.17 -1.38817 0.746158 0
M  V30 13181 C 1238.42 -1.99519 0.295839 0
M  V30 13182 C 1238.73 -1.59897 -1.12661 0
M  V30 13183 O 1239.94 -2.13514 -1.67702 0
M  V30 13184 C 1238.39 -3.56712 0.477984 0
M  V30 13185 C 1238 -4.0529 1.90904 0
M  V30 13186 C 1239.75 -4.24405 0.0900039 0
M  V30 13187 C 1237.65 -5.55097 2.04014 0
M  V30 13188 H 1236.58 -0.746389 0.106861 0
M  V30 13189 H 1239.23 -1.58676 0.921637 0
M  V30 13190 H 1237.62 -3.95406 -0.216884 0
M  V30 13191 H 1238.79 -3.77904 2.63677 0
M  V30 13192 H 1237.1 -3.50297 2.25125 0
M  V30 13193 H 1239.7 -5.3444 0.16682 0
M  V30 13194 H 1240.04 -4.05166 -0.956349 0
M  V30 13195 H 1240.58 -3.90924 0.736446 0
M  V30 13196 H 1237.32 -5.7923 3.06877 0
M  V30 13197 H 1236.84 -5.8425 1.35692 0
M  V30 13198 H 1238.52 -6.20682 1.82656 0
M  V30 13199 N 1238.65 -0.49465 -1.49636 0
M  V30 13200 C 1239.87 0.051305 -2.07337 0
M  V30 13201 C 1240.3 1.30637 -1.35335 0
M  V30 13202 O 1239.66 1.76647 -0.408126 0
M  V30 13203 C 1239.7 0.294425 -3.59396 0
M  V30 13204 O 1238.81 1.3704 -3.88965 0
M  V30 13205 H 1238.15 -0.023408 -0.663587 0
M  V30 13206 H 1240.68 -0.692451 -1.92526 0
M  V30 13207 H 1240.69 0.527854 -4.04571 0
M  V30 13208 H 1239.36 -0.622583 -4.11214 0
M  V30 13209 H 1237.94 1.12242 -3.55607 0
M  V30 13210 N 1240.13 1.55939 -0.228214 0
M  V30 13211 C 1241.37 1.98084 0.400884 0
M  V30 13212 C 1241.69 1.11727 1.59819 0
M  V30 13213 O 1240.96 0.195794 1.94919 0
M  V30 13214 H 1239.54 0.731558 0.151102 0
M  V30 13215 H 1242.21 1.92211 -0.322659 0
M  V30 13216 H 1241.3 3.03617 0.722706 0
M  V30 13217 N 1241.6 -0.0451101 1.57535 0
M  V30 13218 C 1242.54 -1.07792 2.02271 0
M  V30 13219 C 1243.55 -1.33423 0.932854 0
M  V30 13220 O 1244.74 -1.31193 1.2104 0
M  V30 13221 C 1241.84 -2.42314 2.36933 0
M  V30 13222 C 1241.01 -2.36266 3.68099 0
M  V30 13223 C 1240.07 -3.53108 3.9013 0
M  V30 13224 O 1239.1 -3.33327 4.61391 0
M  V30 13225 N 1240.3 -4.74415 3.3453 0
M  V30 13226 H 1243.06 -0.696744 2.91489 0
M  V30 13227 H 1240.62 -0.233336 1.6021 0
M  V30 13228 H 1242.62 -3.19171 2.48821 0
M  V30 13229 H 1241.19 -2.72335 1.53468 0
M  V30 13230 H 1240.41 -1.44615 3.66715 0
M  V30 13231 H 1241.69 -2.29351 4.54175 0
M  V30 13232 H 1241.09 -4.93388 2.76739 0
M  V30 13233 H 1239.65 -5.48692 3.51825 0
M  V30 13234 N 1243.08 -1.54377 -0.317073 0
M  V30 13235 C 1244.01 -1.8721 -1.39552 0
M  V30 13236 C 1244.99 -0.729483 -1.53664 0
M  V30 13237 O 1246.18 -0.983799 -1.67437 0
M  V30 13238 C 1243.31 -2.1052 -2.76222 0
M  V30 13239 C 1242.26 -3.26366 -2.76892 0
M  V30 13240 C 1241.59 -3.35061 -4.16699 0
M  V30 13241 C 1242.89 -4.63862 -2.40061 0
M  V30 13242 H 1244.58 -2.77532 -1.12323 0
M  V30 13243 H 1242.13 -1.33536 -0.538897 0
M  V30 13244 H 1244.08 -2.32073 -3.51739 0
M  V30 13245 H 1242.81 -1.16953 -3.04942 0
M  V30 13246 H 1241.46 -3.0471 -2.03831 0
M  V30 13247 H 1241.11 -2.39041 -4.4257 0
M  V30 13248 H 1240.81 -4.12923 -4.18053 0
M  V30 13249 H 1242.34 -3.58856 -4.94019 0
M  V30 13250 H 1243.75 -4.85252 -3.05292 0
M  V30 13251 H 1242.15 -5.44321 -2.52655 0
M  V30 13252 H 1243.22 -4.6567 -1.35202 0
M  V30 13253 N 1244.56 0.579466 -1.4656 0
M  V30 13254 C 1245.79 1.36351 -1.55615 0
M  V30 13255 C 1246.2 1.87755 -0.198405 0
M  V30 13256 O 1245.56 1.63795 0.804834 0
M  V30 13257 C 1245.61 2.54881 -2.56355 0
M  V30 13258 O 1245.33 2.05607 -3.86856 0
M  V30 13259 C 1246.83 3.47391 -2.75381 0
M  V30 13260 H 1244.05 0.416426 -0.526147 0
M  V30 13261 H 1246.6 0.704134 -1.91995 0
M  V30 13262 H 1244.75 3.16802 -2.2297 0
M  V30 13263 H 1245.17 2.82823 -4.41714 0
M  V30 13264 H 1246.64 4.27031 -3.49783 0
M  V30 13265 H 1247.12 3.99532 -1.82403 0
M  V30 13266 H 1247.72 2.91303 -3.09875 0
M  V30 13267 N 1246.04 1.3432 0.824371 0
M  V30 13268 C 1247.28 1.27792 1.58243 0
M  V30 13269 C 1247.64 -0.151189 1.91805 0
M  V30 13270 O 1246.93 -1.09708 1.57082 0
M  V30 13271 C 1247.13 2.1008 2.89139 0
M  V30 13272 C 1246.96 3.60848 2.68363 0
M  V30 13273 C 1245.73 4.3013 2.65172 0
M  V30 13274 C 1247.92 4.54878 2.39979 0
M  V30 13275 N 1245.91 5.66756 2.35927 0
M  V30 13276 C 1247.28 5.79497 2.20415 0
M  V30 13277 C 1249.33 4.43809 2.25695 0
M  V30 13278 C 1248.03 6.94293 1.88015 0
M  V30 13279 C 1250.06 5.58435 1.9469 0
M  V30 13280 C 1249.42 6.82071 1.75948 0
M  V30 13281 H 1245.52 0.522853 0.581505 0
M  V30 13282 H 1248.11 1.69017 0.96651 0
M  V30 13283 H 1246.28 1.71154 3.48656 0
M  V30 13284 H 1248.01 1.95208 3.54508 0
M  V30 13285 H 1244.76 3.82554 2.79194 0
M  V30 13286 H 1245.19 6.38817 2.24148 0
M  V30 13287 H 1249.83 3.48842 2.38891 0
M  V30 13288 H 1247.55 7.89242 1.73557 0
M  V30 13289 H 1251.13 5.51814 1.84372 0
M  V30 13290 H 1250.01 7.69268 1.52304 0
M  V30 13291 N 1247.52 -1.0444 1.18026 0
M  V30 13292 C 1248.74 -1.81234 0.998089 0
M  V30 13293 C 1249.16 -1.83271 -0.453559 0
M  V30 13294 O 1248.52 -1.26545 -1.31502 0
M  V30 13295 C 1248.57 -3.27007 1.54106 0
M  V30 13296 O 1248.29 -3.25174 2.93587 0
M  V30 13297 C 1249.79 -4.20461 1.40455 0
M  V30 13298 H 1247.01 -0.57085 0.352663 0
M  V30 13299 H 1249.55 -1.31649 1.56489 0
M  V30 13300 H 1247.71 -3.73837 1.01611 0
M  V30 13301 H 1248.12 -4.16466 3.18836 0
M  V30 13302 H 1249.6 -5.20695 1.83249 0
M  V30 13303 H 1250.07 -4.37781 0.352713 0
M  V30 13304 H 1250.68 -3.79493 1.92004 0
M  V30 13305 N 1248.99 -0.981699 -1.2329 0
M  V30 13306 C 1250.41 -0.690539 -1.43888 0
M  V30 13307 C 1250.61 0.742816 -1.87309 0
M  V30 13308 O 1249.67 1.5151 -2.01993 0
M  V30 13309 C 1250.98 -1.68657 -2.48948 0
M  V30 13310 C 1252.53 -1.70076 -2.62761 0
M  V30 13311 C 1253 -2.68513 -3.71032 0
M  V30 13312 N 1254.49 -2.67039 -3.78476 0
M  V30 13313 C 1255.23 -3.39874 -4.61815 0
M  V30 13314 N 1254.72 -4.22273 -5.49233 0
M  V30 13315 N 1256.52 -3.28633 -4.56023 0
M  V30 13316 H 1248.67 -1.90758 -0.934077 0
M  V30 13317 H 1250.93 -0.822058 -0.472149 0
M  V30 13318 H 1250.64 -2.7117 -2.23964 0
M  V30 13319 H 1250.51 -1.47045 -3.47358 0
M  V30 13320 H 1252.9 -0.682673 -2.87095 0
M  V30 13321 H 1252.98 -1.95754 -1.64663 0
M  V30 13322 H 1252.62 -3.70464 -3.47446 0
M  V30 13323 H 1252.55 -2.40109 -4.68674 0
M  V30 13324 H 1255.04 -2.07241 -3.16006 0
M  V30 13325 H 1255.36 -4.74702 -6.09818 0
M  V30 13326 H 1253.7 -4.26364 -5.48852 0
M  V30 13327 H 1256.89 -2.6371 -3.86749 0
M  V30 13328 H 1257.07 -3.85656 -5.20743 0
M  V30 13329 N 1250.47 1.3842 -0.753509 0
M  V30 13330 C 1251.4 2.33073 -0.141198 0
M  V30 13331 C 1252.38 1.54863 0.70367 0
M  V30 13332 O 1253.57 1.8318 0.644872 0
M  V30 13333 C 1250.7 3.39043 0.752802 0
M  V30 13334 C 1249.65 4.27999 0.0106692 0
M  V30 13335 C 1248.98 5.24824 1.02291 0
M  V30 13336 C 1250.28 5.09308 -1.15768 0
M  V30 13337 H 1251.97 2.84528 -0.93188 0
M  V30 13338 H 1249.52 1.36802 -0.449567 0
M  V30 13339 H 1251.47 4.04224 1.19083 0
M  V30 13340 H 1250.2 2.8607 1.57581 0
M  V30 13341 H 1248.85 3.64323 -0.407939 0
M  V30 13342 H 1248.5 4.68139 1.83998 0
M  V30 13343 H 1248.2 5.85196 0.53101 0
M  V30 13344 H 1249.73 5.92882 1.46026 0
M  V30 13345 H 1251.14 5.6773 -0.797203 0
M  V30 13346 H 1249.54 5.78914 -1.58044 0
M  V30 13347 H 1250.61 4.43051 -1.97062 0
M  V30 13348 N 1251.95 0.502579 1.49372 0
M  V30 13349 C 1253.36 0.055187 1.86618 0
M  V30 13350 C 1253.71 -1.35938 1.41476 0
M  V30 13351 O 1252.84 -2.01333 0.793338 0
M  V30 13352 C 1253.43 0.0933734 3.38671 0
M  V30 13353 C 1251.99 -0.298685 3.75213 0
M  V30 13354 C 1251.14 0.465216 2.7337 0
M  V30 13355 H 1254.09 0.715281 1.41667 0
M  V30 13356 H 1254.11 -0.701549 3.73977 0
M  V30 13357 H 1253.62 1.12303 3.71497 0
M  V30 13358 H 1251.72 -1.33151 3.47996 0
M  V30 13359 H 1251.84 0.0218637 4.79095 0
M  V30 13360 H 1250.2 -0.0851469 2.54558 0
M  V30 13361 H 1250.98 1.49498 3.09039 0
M  V30 13362 N 1253.43 -1.55816 0.23648 0
M  V30 13363 C 1254.36 -2.18248 -0.700024 0
M  V30 13364 C 1255.37 -1.15579 -1.14654 0
M  V30 13365 O 1256.56 -1.42491 -1.07511 0
M  V30 13366 C 1253.66 -2.76338 -1.9619 0
M  V30 13367 C 1252.84 -4.04325 -1.66853 0
M  V30 13368 C 1251.89 -4.46834 -2.77895 0
M  V30 13369 O 1250.92 -5.13427 -2.45725 0
M  V30 13370 N 1252.12 -4.13753 -4.07171 0
M  V30 13371 H 1254.89 -2.99241 -0.16589 0
M  V30 13372 H 1252.45 -1.61803 0.0560383 0
M  V30 13373 H 1254.44 -3.01739 -2.69695 0
M  V30 13374 H 1253.01 -1.99563 -2.4061 0
M  V30 13375 H 1252.23 -3.86623 -0.769164 0
M  V30 13376 H 1253.52 -4.8779 -1.44703 0
M  V30 13377 H 1252.92 -3.60271 -4.36144 0
M  V30 13378 H 1251.47 -4.44014 -4.77174 0
M  V30 13379 N 1254.91 0.036755 -1.57557 0
M  V30 13380 C 1256.15 0.727665 -1.88546 0
M  V30 13381 C 1256.48 1.76304 -0.833179 0
M  V30 13382 O 1255.75 1.9544 0.13414 0
M  V30 13383 H 1254.33 0.271744 -0.695819 0
M  V30 13384 H 1256.99 0.00452915 -1.94899 0
M  V30 13385 H 1256.08 1.22205 -2.8718 0
M  V30 13386 N 1256.39 1.54543 0.308881 0
M  V30 13387 C 1257.63 1.73449 1.04506 0
M  V30 13388 C 1257.96 0.516034 1.8753 0
M  V30 13389 O 1257.22 -0.502106 1.89149 0
M  V30 13390 C 1257.51 2.97124 1.98626 0
M  V30 13391 C 1257.18 4.31256 1.31641 0
M  V30 13392 C 1255.84 4.67719 1.13105 0
M  V30 13393 C 1258.19 5.14437 0.836888 0
M  V30 13394 C 1255.52 5.84949 0.452878 0
M  V30 13395 C 1257.87 6.32365 0.172473 0
M  V30 13396 C 1256.54 6.67495 -0.0249143 0
M  V30 13397 H 1255.81 0.634697 0.382415 0
M  V30 13398 H 1258.46 1.88795 0.320714 0
M  V30 13399 H 1256.76 2.76526 2.77562 0
M  V30 13400 H 1258.46 3.08946 2.55643 0
M  V30 13401 H 1255.05 4.02576 1.47074 0
M  V30 13402 H 1259.23 4.86772 0.967834 0
M  V30 13403 H 1254.49 6.10717 0.288886 0
M  V30 13404 H 1258.66 6.96092 -0.207027 0
M  V30 13405 H 1256.29 7.5819 -0.552425 0
M  V30 13406 N 1257.86 -0.571685 1.46866 0
M  V30 13407 C 1258.81 -1.67992 1.58263 0
M  V30 13408 C 1259.78 -1.60535 0.426345 0
M  V30 13409 O 1260.97 -1.79584 0.644534 0
M  V30 13410 C 1258.11 -3.06327 1.58927 0
M  V30 13411 C 1257.22 -3.24328 2.85369 0
M  V30 13412 C 1256.35 -4.52976 2.77464 0
M  V30 13413 C 1255.39 -4.64359 3.98795 0
M  V30 13414 N 1254.53 -5.84345 3.89211 0
M  V30 13415 H 1259.37 -1.57589 2.52922 0
M  V30 13416 H 1256.91 -0.767883 1.25467 0
M  V30 13417 H 1258.86 -3.86411 1.57296 0
M  V30 13418 H 1257.49 -3.15601 0.677912 0
M  V30 13419 H 1256.55 -2.37774 2.96931 0
M  V30 13420 H 1257.86 -3.28605 3.7526 0
M  V30 13421 H 1257.01 -5.41303 2.74001 0
M  V30 13422 H 1255.75 -4.51155 1.85231 0
M  V30 13423 H 1254.76 -3.74448 4.02578 0
M  V30 13424 H 1255.98 -4.6795 4.92137 0
M  V30 13425 H 1253.93 -5.835 2.99772 0
M  V30 13426 H 1253.84 -5.89938 4.72768 0
M  V30 13427 H 1255.11 -6.75072 3.89741 0
M  V30 13428 N 1259.34 -1.34755 -0.817236 0
M  V30 13429 C 1260.29 -1.26816 -1.94988 0
M  V30 13430 C 1261.28 -0.165142 -1.68593 0
M  V30 13431 O 1262.49 -0.330469 -1.7694 0
M  V30 13432 H 1258.86 -0.394113 -0.640452 0
M  V30 13433 H 1260.84 -2.22528 -1.98806 0
M  V30 13434 C 1259.58 -1.04625 -3.31586 0
M  V30 13435 H 1258.91 -1.88735 -3.52447 0
M  V30 13436 H 1260.35 -1.03108 -4.11272 0
M  V30 13437 C 1258.81 0.250283 -3.35969 0
M  V30 13438 O 1259.34 1.24972 -3.81765 0
M  V30 13439 N 1257.54 0.285369 -2.89195 0
M  V30 13440 H 1257.09 -0.528528 -2.5212 0
M  V30 13441 H 1257.05 1.15261 -2.9251 0
M  V30 13442 N 1260.82 1.03812 -1.18578 0
M  V30 13443 C 1262.04 1.8124 -1.00831 0
M  V30 13444 C 1262.47 1.82917 0.43853 0
M  V30 13445 O 1261.83 1.24835 1.31476 0
M  V30 13446 C 1261.88 3.24592 -1.57075 0
M  V30 13447 O 1260.98 4.04688 -0.793824 0
M  V30 13448 H 1260.32 0.559846 -0.357028 0
M  V30 13449 H 1262.85 1.30724 -1.57393 0
M  V30 13450 H 1262.86 3.75363 -1.59896 0
M  V30 13451 H 1261.54 3.22686 -2.62387 0
M  V30 13452 H 1260.11 3.63359 -0.838134 0
M  V30 13453 N 1262.3 0.988223 1.22768 0
M  V30 13454 C 1263.71 0.697281 1.7319 0
M  V30 13455 C 1264.06 -0.786111 1.79763 0
M  V30 13456 O 1263.18 -1.61465 1.44077 0
M  V30 13457 C 1263.78 1.25905 3.14537 0
M  V30 13458 C 1262.34 1.01759 3.62384 0
M  V30 13459 C 1261.49 1.38207 2.40404 0
M  V30 13460 H 1264.44 1.16114 1.08181 0
M  V30 13461 H 1264.46 0.635315 3.75159 0
M  V30 13462 H 1263.97 2.33869 3.09721 0
M  V30 13463 H 1262.07 -0.045627 3.72572 0
M  V30 13464 H 1262.18 1.67767 4.48766 0
M  V30 13465 H 1260.55 0.800607 2.4179 0
M  V30 13466 H 1261.33 2.47165 2.38253 0
M  V30 13467 N 1263.78 -1.38018 0.760839 0
M  V30 13468 C 1265 -2.04231 0.331285 0
M  V30 13469 C 1265.42 -1.57385 -1.04285 0
M  V30 13470 O 1264.78 -0.750168 -1.66369 0
M  V30 13471 C 1264.83 -3.59772 0.353021 0
M  V30 13472 O 1264.55 -4.049 1.67294 0
M  V30 13473 C 1266.05 -4.4321 -0.0894942 0
M  V30 13474 H 1263.27 -0.656145 0.140408 0
M  V30 13475 H 1265.81 -1.76567 1.03172 0
M  V30 13476 H 1263.97 -3.86246 -0.298735 0
M  V30 13477 H 1264.38 -4.99369 1.60408 0
M  V30 13478 H 1265.86 -5.51995 -0.0231262 0
M  V30 13479 H 1266.33 -4.2419 -1.13839 0
M  V30 13480 H 1266.94 -4.21939 0.533661 0
M  V30 13481 N 1265.25 -0.510493 -1.49103 0
M  V30 13482 C 1266.18 0.251999 -2.32136 0
M  V30 13483 C 1267.16 0.953613 -1.40855 0
M  V30 13484 O 1268.35 0.943178 -1.69758 0
M  V30 13485 C 1265.48 1.31118 -3.21598 0
M  V30 13486 C 1264.43 0.72888 -4.21748 0
M  V30 13487 C 1263.76 1.88928 -5.0021 0
M  V30 13488 C 1265.06 -0.286425 -5.21514 0
M  V30 13489 H 1266.75 -0.441102 -2.96133 0
M  V30 13490 H 1264.3 -0.213577 -1.42407 0
M  V30 13491 H 1266.25 1.8524 -3.78503 0
M  V30 13492 H 1264.98 2.0336 -2.55563 0
M  V30 13493 H 1263.64 0.209336 -3.66002 0
M  V30 13494 H 1263.28 2.59961 -4.30615 0
M  V30 13495 H 1262.98 1.50568 -5.67981 0
M  V30 13496 H 1264.51 2.43465 -5.59962 0
M  V30 13497 H 1265.92 0.166997 -5.73057 0
M  V30 13498 H 1264.32 -0.586361 -5.97228 0
M  V30 13499 H 1265.39 -1.19904 -4.69842 0
M  V30 13500 N 1266.73 1.55688 -0.24474 0
M  V30 13501 C 1267.98 1.98891 0.380603 0
M  V30 13502 C 1268.31 1.13283 1.58105 0
M  V30 13503 O 1267.56 0.183141 1.94841 0
M  V30 13504 C 1267.86 3.47487 0.835923 0
M  V30 13505 C 1267.53 4.5017 -0.256528 0
M  V30 13506 C 1266.19 4.7797 -0.556573 0
M  V30 13507 C 1268.54 5.1163 -0.994174 0
M  V30 13508 C 1265.87 5.64508 -1.59838 0
M  V30 13509 C 1268.22 5.99297 -2.02548 0
M  V30 13510 C 1266.88 6.25432 -2.3322 0
M  V30 13511 H 1266.15 0.727794 0.139273 0
M  V30 13512 H 1268.8 1.88235 -0.352113 0
M  V30 13513 H 1267.11 3.55464 1.64781 0
M  V30 13514 H 1268.8 3.78301 1.33001 0
M  V30 13515 H 1265.39 4.28598 -0.0125284 0
M  V30 13516 H 1269.58 4.90202 -0.775617 0
M  V30 13517 H 1264.83 5.83012 -1.84138 0
M  V30 13518 H 1269.01 6.45964 -2.60198 0
M  V30 13519 H 1266.63 6.92282 -3.14085 0
M  V30 13520 N 1268.21 -0.0283989 1.57574 0
M  V30 13521 C 1269.49 -0.754527 1.80461 0
M  V30 13522 C 1269.87 -1.93539 0.842966 0
M  V30 13523 O 1269.21 -2.28212 -0.114714 0
M  V30 13524 C 1269.42 -1.18694 3.28196 0
M  V30 13525 C 1270.77 -1.60257 3.93196 0
M  V30 13526 O 1271.8 -1.2815 3.32349 0
M  V30 13527 O 1270.66 -2.19853 5.00327 0
M  V30 13528 H 1267.75 -0.364936 0.742126 0
M  V30 13529 H 1270.3 -0.00512589 1.69699 0
M  V30 13530 H 1269.07 -0.34398 3.89785 0
M  V30 13531 H 1268.69 -1.99633 3.43849 0
M  V30 13532 N 1269.69 -1.54705 -0.300681 0
M  V30 13533 C 1270.6 -1.88736 -1.39341 0
M  V30 13534 C 1271.61 -0.78155 -1.5546 0
M  V30 13535 O 1272.79 -1.07804 -1.70118 0
M  V30 13536 C 1269.85 -2.12795 -2.73713 0
M  V30 13537 C 1268.92 -3.36504 -2.66577 0
M  V30 13538 C 1268.15 -3.59407 -3.94541 0
M  V30 13539 O 1268.37 -2.85315 -4.93914 0
M  V30 13540 O 1267.31 -4.52923 -3.96415 0
M  V30 13541 H 1271.13 -2.817 -1.13484 0
M  V30 13542 H 1268.72 -1.40899 -0.496771 0
M  V30 13543 H 1270.6 -2.29819 -3.53215 0
M  V30 13544 H 1269.27 -1.23017 -2.99414 0
M  V30 13545 H 1268.18 -3.24844 -1.85546 0
M  V30 13546 H 1269.51 -4.26414 -2.45829 0
M  V30 13547 N 1271.17 0.563888 -1.47167 0
M  V30 13548 C 1272.13 1.65359 -1.58711 0
M  V30 13549 C 1273.13 1.53999 -0.46272 0
M  V30 13550 O 1274.32 1.58277 -0.727595 0
M  V30 13551 C 1271.45 3.04874 -1.52529 0
M  V30 13552 H 1272.64 1.56475 -2.55843 0
M  V30 13553 H 1270.2 0.783271 -1.35257 0
M  V30 13554 H 1270.93 3.19297 -0.56747 0
M  V30 13555 H 1270.72 3.14528 -2.34125 0
M  V30 13556 H 1272.21 3.84164 -1.63731 0
M  V30 13557 N 1272.64 1.35187 0.810078 0
M  V30 13558 C 1273.57 1.30481 1.93641 0
M  V30 13559 C 1274.56 0.179875 1.69146 0
M  V30 13560 O 1275.74 0.374284 1.90559 0
M  V30 13561 C 1272.87 1.07251 3.30325 0
M  V30 13562 C 1271.82 2.16348 3.69293 0
M  V30 13563 C 1271.15 1.78288 5.04101 0
M  V30 13564 C 1272.45 3.58285 3.80038 0
M  V30 13565 H 1274.14 2.24725 1.97836 0
M  V30 13566 H 1271.69 1.08179 0.950436 0
M  V30 13567 H 1273.64 1.02599 4.08719 0
M  V30 13568 H 1272.37 0.0945203 3.26463 0
M  V30 13569 H 1271.03 2.2009 2.93182 0
M  V30 13570 H 1270.67 0.791163 4.96739 0
M  V30 13571 H 1270.37 2.51315 5.31144 0
M  V30 13572 H 1271.9 1.75155 5.84938 0
M  V30 13573 H 1273.31 3.56884 4.48672 0
M  V30 13574 H 1271.71 4.30044 4.18548 0
M  V30 13575 H 1272.78 3.94691 2.81685 0
M  V30 13576 N 1274.12 -1.03182 1.19127 0
M  V30 13577 C 1275.07 -2.09735 0.894172 0
M  V30 13578 C 1276.06 -1.60291 -0.139805 0
M  V30 13579 O 1277.25 -1.76879 0.065477 0
M  V30 13580 C 1274.38 -3.40578 0.431418 0
M  V30 13581 C 1273.46 -3.96764 1.49797 0
M  V30 13582 N 1273.85 -4.2665 2.71668 0
M  V30 13583 C 1272.15 -4.24741 1.36057 0
M  V30 13584 C 1272.85 -4.71737 3.40352 0
M  V30 13585 N 1271.83 -4.73091 2.67742 0
M  V30 13586 H 1275.63 -2.3073 1.82047 0
M  V30 13587 H 1273.15 -1.21016 1.083 0
M  V30 13588 H 1275.14 -4.1642 0.20004 0
M  V30 13589 H 1273.8 -3.21005 -0.488432 0
M  V30 13590 H 1274.81 -4.16023 3.08457 0
M  V30 13591 H 1271.49 -4.14447 0.503948 0
M  V30 13592 H 1272.88 -5.03806 4.44555 0
M  V30 13593 N 1275.6 -0.99472 -1.22242 0
M  V30 13594 C 1277.02 -0.705762 -1.43147 0
M  V30 13595 C 1277.22 0.722908 -1.88086 0
M  V30 13596 O 1276.27 1.49359 -2.03588 0
M  V30 13597 C 1277.59 -1.71288 -2.47145 0
M  V30 13598 C 1279.13 -1.72853 -2.60942 0
M  V30 13599 C 1279.61 -2.72433 -3.68163 0
M  V30 13600 N 1281.1 -2.71039 -3.75623 0
M  V30 13601 C 1281.83 -3.44753 -4.58184 0
M  V30 13602 N 1281.33 -4.28075 -5.44724 0
M  V30 13603 N 1283.12 -3.33451 -4.52512 0
M  V30 13604 H 1275.27 -1.91738 -0.913792 0
M  V30 13605 H 1277.54 -0.82702 -0.463403 0
M  V30 13606 H 1277.24 -2.7353 -2.21075 0
M  V30 13607 H 1277.12 -1.50721 -3.45779 0
M  V30 13608 H 1279.5 -0.713085 -2.86355 0
M  V30 13609 H 1279.59 -1.9749 -1.62577 0
M  V30 13610 H 1279.23 -3.74129 -3.43497 0
M  V30 13611 H 1279.16 -2.45066 -4.66101 0
M  V30 13612 H 1281.65 -2.10581 -3.1379 0
M  V30 13613 H 1281.96 -4.81143 -6.04749 0
M  V30 13614 H 1280.31 -4.32161 -5.44299 0
M  V30 13615 H 1283.5 -2.67797 -3.8393 0
M  V30 13616 H 1283.67 -3.91158 -5.16623 0
M  V30 13617 N 1277.08 1.37613 -0.768148 0
M  V30 13618 C 1278.36 1.93921 -0.255724 0
M  V30 13619 C 1278.74 1.70215 1.2486 0
M  V30 13620 O 1278.08 1.0489 2.03003 0
M  V30 13621 C 1278.29 3.43354 -0.625204 0
M  V30 13622 C 1279.64 4.20439 -0.592978 0
M  V30 13623 O 1280.67 3.51701 -0.564375 0
M  V30 13624 O 1279.52 5.43008 -0.616849 0
M  V30 13625 H 1276.62 0.824968 -0.0579366 0
M  V30 13626 H 1279.16 1.46921 -0.849257 0
M  V30 13627 H 1277.94 3.54177 -1.66356 0
M  V30 13628 H 1277.56 3.976 -0.00442816 0
M  V30 13629 N 1278.56 0.518393 1.4883 0
M  V30 13630 C 1279.49 -0.239685 2.32267 0
M  V30 13631 C 1280.47 -0.94613 1.41359 0
M  V30 13632 O 1281.65 -0.934162 1.70256 0
M  V30 13633 C 1278.78 -1.29411 3.22289 0
M  V30 13634 C 1277.74 -0.706504 4.22129 0
M  V30 13635 C 1277.06 -1.86273 5.01205 0
M  V30 13636 C 1278.36 0.314079 5.21355 0
M  V30 13637 H 1280.06 0.4568 2.95895 0
M  V30 13638 H 1277.6 0.221126 1.42292 0
M  V30 13639 H 1279.56 -1.8323 3.7948 0
M  V30 13640 H 1278.28 -2.02001 2.56638 0
M  V30 13641 H 1276.94 -0.189924 3.66108 0
M  V30 13642 H 1276.59 -2.57674 4.31988 0
M  V30 13643 H 1276.29 -1.47554 5.68772 0
M  V30 13644 H 1277.81 -2.40492 5.61245 0
M  V30 13645 H 1279.22 -0.136604 5.73137 0
M  V30 13646 H 1277.62 0.618026 5.96909 0
M  V30 13647 H 1278.69 1.22394 4.69199 0
M  V30 13648 N 1280.03 -1.55556 0.252993 0
M  V30 13649 C 1281 -2.20351 -0.630705 0
M  V30 13650 C 1282 -1.17461 -1.09816 0
M  V30 13651 O 1283.19 -1.42505 -1.00189 0
M  V30 13652 C 1280.32 -2.85192 -1.86757 0
M  V30 13653 H 1281.51 -2.99829 -0.0652939 0
M  V30 13654 H 1279.07 -1.563 0.00347982 0
M  V30 13655 H 1279.8 -2.09669 -2.47406 0
M  V30 13656 H 1279.59 -3.60569 -1.54053 0
M  V30 13657 H 1281.08 -3.34762 -2.49648 0
M  V30 13658 N 1281.51 0.0200419 -1.57587 0
M  V30 13659 C 1282.79 0.744946 -1.80859 0
M  V30 13660 C 1283.17 1.93089 -0.853218 0
M  V30 13661 O 1282.52 2.28269 0.10261 0
M  V30 13662 C 1282.73 1.16952 -3.28821 0
M  V30 13663 C 1284.08 1.5817 -3.9404 0
M  V30 13664 O 1285.1 1.26385 -3.33024 0
M  V30 13665 O 1283.96 2.17197 -5.01486 0
M  V30 13666 H 1281.05 0.360995 -0.744051 0
M  V30 13667 H 1283.6 -0.00387374 -1.697 0
M  V30 13668 H 1282.37 0.323304 -3.89962 0
M  V30 13669 H 1281.99 1.97807 -3.44903 0
M  V30 13670 N 1282.99 1.54862 0.292472 0
M  V30 13671 C 1284.24 1.74548 1.02661 0
M  V30 13672 C 1284.57 0.535895 1.86972 0
M  V30 13673 O 1283.82 -0.482016 1.89671 0
M  V30 13674 C 1284.12 2.99214 1.95463 0
M  V30 13675 C 1283.79 4.32628 1.2706 0
M  V30 13676 C 1282.45 4.68892 1.08138 0
M  V30 13677 C 1284.8 5.15296 0.782278 0
M  V30 13678 C 1282.13 5.85397 0.39081 0
M  V30 13679 C 1284.48 6.32512 0.105392 0
M  V30 13680 C 1283.14 6.67431 -0.0957097 0
M  V30 13681 H 1282.41 0.638717 0.375662 0
M  V30 13682 H 1285.06 1.89125 0.300672 0
M  V30 13683 H 1283.37 2.79454 2.74613 0
M  V30 13684 H 1285.06 3.1164 2.52352 0
M  V30 13685 H 1281.65 4.04113 1.42796 0
M  V30 13686 H 1285.84 4.87771 0.916151 0
M  V30 13687 H 1281.09 6.10989 0.224095 0
M  V30 13688 H 1285.27 6.95833 -0.280845 0
M  V30 13689 H 1282.89 7.57562 -0.63281 0
M  V30 13690 N 1284.47 -0.556076 1.47464 0
M  V30 13691 C 1285.88 -0.882115 1.33007 0
M  V30 13692 C 1286.08 -1.9892 0.321407 0
M  V30 13693 O 1285.14 -2.51088 -0.266668 0
M  V30 13694 C 1286.45 -1.27428 2.72365 0
M  V30 13695 C 1288 -1.38564 2.80658 0
M  V30 13696 C 1288.48 -1.81136 4.20659 0
M  V30 13697 N 1289.97 -1.88284 4.23206 0
M  V30 13698 C 1290.7 -2.22555 5.28447 0
M  V30 13699 N 1290.2 -2.55432 6.43993 0
M  V30 13700 N 1291.99 -2.23339 5.15826 0
M  V30 13701 H 1284.14 0.17481 2.11679 0
M  V30 13702 H 1286.41 0.0155421 0.947873 0
M  V30 13703 H 1286.11 -0.53463 3.47613 0
M  V30 13704 H 1285.99 -2.23019 3.04208 0
M  V30 13705 H 1288.37 -2.1161 2.05682 0
M  V30 13706 H 1288.45 -0.411588 2.52467 0
M  V30 13707 H 1288.1 -1.08659 4.96141 0
M  V30 13708 H 1288.03 -2.79546 4.46275 0
M  V30 13709 H 1290.52 -1.65259 3.3985 0
M  V30 13710 H 1290.83 -2.80612 7.20053 0
M  V30 13711 H 1289.18 -2.5301 6.47311 0
M  V30 13712 H 1292.37 -1.97094 4.24584 0
M  V30 13713 H 1292.54 -2.49717 5.97951 0
M  V30 13714 N 1285.95 -1.35615 -0.802897 0
M  V30 13715 C 1287.2 -1.28428 -1.55528 0
M  V30 13716 C 1287.51 0.138275 -1.95111 0
M  V30 13717 O 1288.72 0.332435 -2.69457 0
M  V30 13718 C 1287.17 -2.25251 -2.80696 0
M  V30 13719 C 1286.78 -3.72871 -2.48336 0
M  V30 13720 C 1288.52 -2.27014 -3.58699 0
M  V30 13721 C 1286.43 -4.61507 -3.69817 0
M  V30 13722 H 1285.36 -0.47718 -0.583794 0
M  V30 13723 H 1288.01 -1.609 -0.882238 0
M  V30 13724 H 1286.39 -1.85755 -3.4973 0
M  V30 13725 H 1287.57 -4.21024 -1.87285 0
M  V30 13726 H 1285.88 -3.73752 -1.83571 0
M  V30 13727 H 1288.48 -2.90451 -4.48935 0
M  V30 13728 H 1288.82 -1.27491 -3.96298 0
M  V30 13729 H 1289.36 -2.65058 -2.9663 0
M  V30 13730 H 1286.09 -5.62043 -3.37324 0
M  V30 13731 H 1285.61 -4.18079 -4.30081 0
M  V30 13732 H 1287.29 -4.77113 -4.37004 0
M  V30 13733 N 1287.43 1.02549 -1.19673 0
M  V30 13734 C 1288.36 2.10991 -0.8953 0
M  V30 13735 C 1289.37 1.62405 0.113373 0
M  V30 13736 O 1290.56 1.7812 -0.116485 0
M  V30 13737 C 1287.66 3.37394 -0.319124 0
M  V30 13738 C 1286.83 4.15154 -1.37718 0
M  V30 13739 C 1285.89 5.19867 -0.81393 0
M  V30 13740 O 1284.92 5.49285 -1.49246 0
M  V30 13741 N 1286.12 5.79248 0.381089 0
M  V30 13742 H 1288.88 2.37438 -1.82875 0
M  V30 13743 H 1286.45 1.18867 -1.09919 0
M  V30 13744 H 1288.44 4.04637 0.0716106 0
M  V30 13745 H 1287.01 3.08267 0.518681 0
M  V30 13746 H 1286.23 3.4301 -1.94262 0
M  V30 13747 H 1287.52 4.63892 -2.09003 0
M  V30 13748 H 1286.91 5.5767 0.949791 0
M  V30 13749 H 1285.47 6.47882 0.713563 0
M  V30 13750 N 1288.9 1.00119 1.21713 0
M  V30 13751 C 1289.85 0.529464 2.21767 0
M  V30 13752 C 1290.84 -0.406858 1.55671 0
M  V30 13753 O 1292.03 -0.232329 1.75469 0
M  V30 13754 C 1289.16 -0.146336 3.42988 0
M  V30 13755 C 1288.24 0.81078 4.16278 0
M  V30 13756 N 1288.64 1.96204 4.66195 0
M  V30 13757 C 1286.93 0.628371 4.41551 0
M  V30 13758 C 1287.63 2.56346 5.2217 0
M  V30 13759 N 1286.61 1.8454 5.11318 0
M  V30 13760 H 1290.41 1.40738 2.58012 0
M  V30 13761 H 1287.93 0.864518 1.37477 0
M  V30 13762 H 1289.92 -0.501726 4.1387 0
M  V30 13763 H 1288.58 -1.02029 3.08254 0
M  V30 13764 H 1289.59 2.34255 4.61893 0
M  V30 13765 H 1286.27 -0.198819 4.17026 0
M  V30 13766 H 1287.66 3.53688 5.71274 0
M  V30 13767 N 1290.38 -1.37203 0.775435 0
M  V30 13768 C 1291.79 -1.82224 0.406372 0
M  V30 13769 C 1292.14 -1.64587 -1.06796 0
M  V30 13770 O 1291.27 -1.15903 -1.82744 0
M  V30 13771 C 1291.86 -3.30824 0.730819 0
M  V30 13772 C 1290.42 -3.74108 0.414766 0
M  V30 13773 C 1289.57 -2.59679 0.972747 0
M  V30 13774 H 1292.52 -1.25623 0.969775 0
M  V30 13775 H 1292.54 -3.80496 0.0168066 0
M  V30 13776 H 1292.05 -3.43628 1.80392 0
M  V30 13777 H 1290.15 -3.66871 -0.650866 0
M  V30 13778 H 1290.27 -4.70074 0.925595 0
M  V30 13779 H 1288.63 -2.51591 0.396772 0
M  V30 13780 H 1289.41 -2.75274 2.05132 0
M  V30 13781 N 1291.86 -0.526279 -1.48553 0
M  V30 13782 C 1293.14 0.073385 -1.95462 0
M  V30 13783 C 1293.52 1.51658 -1.46843 0
M  V30 13784 O 1292.86 2.17729 -0.693293 0
M  V30 13785 C 1293.07 -0.040041 -3.48977 0
M  V30 13786 C 1294.42 0.121108 -4.24427 0
M  V30 13787 O 1295.45 0.0339335 -3.56184 0
M  V30 13788 O 1294.31 0.303297 -5.45658 0
M  V30 13789 H 1291.4 0.0813498 -0.822989 0
M  V30 13790 H 1293.95 -0.590614 -1.59091 0
M  V30 13791 H 1292.72 -1.0455 -3.77074 0
M  V30 13792 H 1292.34 0.662975 -3.92034 0
M  V30 13793 N 1293.34 1.5542 -0.261239 0
M  V30 13794 C 1294.27 2.24949 0.626126 0
M  V30 13795 C 1295.25 1.23474 1.16997 0
M  V30 13796 O 1296.43 1.52161 1.20667 0
M  V30 13797 C 1293.56 2.95996 1.81669 0
M  V30 13798 C 1292.52 4.04282 1.40499 0
M  V30 13799 C 1291.84 4.62831 2.67753 0
M  V30 13800 C 1293.14 5.1923 0.56543 0
M  V30 13801 H 1294.84 2.99364 0.0463164 0
M  V30 13802 H 1292.38 1.43985 0.0208366 0
M  V30 13803 H 1294.34 3.43343 2.44323 0
M  V30 13804 H 1293.06 2.19093 2.42211 0
M  V30 13805 H 1291.72 3.57726 0.801712 0
M  V30 13806 H 1291.37 3.82611 3.26524 0
M  V30 13807 H 1291.07 5.35938 2.40925 0
M  V30 13808 H 1292.59 5.12918 3.31281 0
M  V30 13809 H 1294.01 5.62714 1.09663 0
M  V30 13810 H 1292.4 5.98814 0.392607 0
M  V30 13811 H 1293.47 4.83086 -0.419059 0
M  V30 13812 N 1294.82 -0.0116844 1.57596 0
M  V30 13813 C 1296.06 -0.698089 1.89234 0
M  V30 13814 C 1296.38 -1.75581 0.862016 0
M  V30 13815 O 1297.58 -2.49602 1.06822 0
M  V30 13816 C 1296.04 -1.29277 3.3588 0
M  V30 13817 C 1295.65 -0.27049 4.47183 0
M  V30 13818 C 1297.39 -1.95805 3.76644 0
M  V30 13819 C 1295.3 -0.874502 5.84899 0
M  V30 13820 H 1294.23 -0.264495 0.706087 0
M  V30 13821 H 1296.88 0.0469451 1.8344 0
M  V30 13822 H 1295.26 -2.08809 3.36474 0
M  V30 13823 H 1296.44 0.499381 4.58086 0
M  V30 13824 H 1294.75 0.293676 4.15363 0
M  V30 13825 H 1297.35 -2.41879 4.76863 0
M  V30 13826 H 1297.69 -2.78366 3.09545 0
M  V30 13827 H 1298.22 -1.23023 3.78299 0
M  V30 13828 H 1294.96 -0.0879263 6.55441 0
M  V30 13829 H 1294.48 -1.61381 5.77682 0
M  V30 13830 H 1296.16 -1.37665 6.32185 0
M  V30 13831 N 1296.29 -1.55015 -0.284256 0
M  V30 13832 C 1297.22 -1.90128 -1.3555 0
M  V30 13833 C 1298.2 -0.761914 -1.52082 0
M  V30 13834 O 1299.39 -1.01909 -1.65312 0
M  V30 13835 C 1296.52 -2.16332 -2.71695 0
M  V30 13836 C 1295.47 -3.32166 -2.69907 0
M  V30 13837 C 1294.8 -3.43824 -4.09498 0
M  V30 13838 C 1296.1 -4.6885 -2.30168 0
M  V30 13839 H 1297.79 -2.79852 -1.06411 0
M  V30 13840 H 1295.34 -1.34649 -0.510451 0
M  V30 13841 H 1297.29 -2.39482 -3.46737 0
M  V30 13842 H 1296.02 -1.23395 -3.02392 0
M  V30 13843 H 1294.68 -3.08965 -1.97322 0
M  V30 13844 H 1294.32 -2.48375 -4.374 0
M  V30 13845 H 1294.02 -4.21698 -4.092 0
M  V30 13846 H 1295.55 -3.69254 -4.86296 0
M  V30 13847 H 1296.96 -4.91619 -2.9493 0
M  V30 13848 H 1295.36 -5.49558 -2.41052 0
M  V30 13849 H 1296.43 -4.68433 -1.25294 0
M  V30 13850 N 1297.77 0.548248 -1.47757 0
M  V30 13851 C 1298.7 1.66409 -1.63799 0
M  V30 13852 C 1299.68 1.62973 -0.487211 0
M  V30 13853 O 1300.87 1.80455 -0.717612 0
M  V30 13854 C 1298 3.05035 -1.66046 0
M  V30 13855 C 1296.95 3.23322 -2.80441 0
M  V30 13856 C 1296.28 4.62824 -2.67765 0
M  V30 13857 C 1297.58 3.07837 -4.2194 0
M  V30 13858 H 1299.27 1.53239 -2.57212 0
M  V30 13859 H 1296.82 0.735783 -1.23783 0
M  V30 13860 H 1298.77 3.82951 -1.75859 0
M  V30 13861 H 1297.49 3.19185 -0.69199 0
M  V30 13862 H 1296.15 2.47816 -2.70153 0
M  V30 13863 H 1295.8 4.73786 -1.68927 0
M  V30 13864 H 1295.5 4.76007 -3.44515 0
M  V30 13865 H 1297.03 5.42864 -2.7952 0
M  V30 13866 H 1298.44 3.75563 -4.33157 0
M  V30 13867 H 1296.84 3.32525 -4.99547 0
M  V30 13868 H 1297.91 2.04474 -4.3968 0
M  V30 13869 N 1299.25 1.36039 0.795694 0
M  V30 13870 C 1300.18 1.25713 1.91648 0
M  V30 13871 C 1301.19 0.177993 1.61824 0
M  V30 13872 O 1302.38 0.432186 1.73189 0
M  V30 13873 C 1299.48 0.915546 3.26299 0
M  V30 13874 C 1298.66 2.09528 3.83949 0
M  V30 13875 C 1297.72 1.72775 4.97026 0
M  V30 13876 O 1296.74 2.44786 5.13876 0
M  V30 13877 N 1297.94 0.65775 5.76762 0
M  V30 13878 H 1300.71 2.22277 2.01029 0
M  V30 13879 H 1298.27 1.2935 0.973657 0
M  V30 13880 H 1300.26 0.650958 3.9943 0
M  V30 13881 H 1298.83 0.0392343 3.12575 0
M  V30 13882 H 1298.05 2.52304 3.0288 0
M  V30 13883 H 1299.34 2.88361 4.19196 0
M  V30 13884 H 1298.74 0.0596875 5.65669 0
M  V30 13885 H 1297.29 0.45297 6.50224 0
M  V30 13886 N 1300.73 -1.01913 1.20215 0
M  V30 13887 C 1301.96 -1.78817 1.0348 0
M  V30 13888 C 1302.37 -1.84499 -0.419152 0
M  V30 13889 O 1301.71 -1.29506 -1.30284 0
M  V30 13890 C 1301.77 -3.24858 1.53973 0
M  V30 13891 C 1301.44 -3.42788 3.02234 0
M  V30 13892 C 1302.43 -3.32213 3.99914 0
M  V30 13893 C 1300.12 -3.68687 3.41138 0
M  V30 13894 C 1302.11 -3.47276 5.34489 0
M  V30 13895 C 1299.8 -3.83394 4.7587 0
M  V30 13896 C 1300.8 -3.72693 5.72354 0
M  V30 13897 O 1300.48 -3.86953 7.04643 0
M  V30 13898 H 1300.22 -0.569268 0.364568 0
M  V30 13899 H 1302.77 -1.29184 1.59689 0
M  V30 13900 H 1301 -3.7556 0.921478 0
M  V30 13901 H 1302.69 -3.83388 1.33297 0
M  V30 13902 H 1303.46 -3.12145 3.71202 0
M  V30 13903 H 1299.33 -3.76104 2.66583 0
M  V30 13904 H 1302.88 -3.3884 6.09782 0
M  V30 13905 H 1298.78 -4.02962 5.04273 0
M  V30 13906 H 1299.54 -4.03986 7.11855 0
M  V30 13907 N 1302.21 -1.00763 -1.2118 0
M  V30 13908 C 1303.45 -0.692851 -1.90598 0
M  V30 13909 C 1303.79 0.774698 -1.78079 0
M  V30 13910 O 1303.06 1.56186 -1.15914 0
M  V30 13911 C 1303.34 -1.11792 -3.42308 0
M  V30 13912 C 1303.2 -2.64511 -3.63805 0
M  V30 13913 C 1304.52 -0.682314 -4.34779 0
M  V30 13914 H 1301.63 -0.253175 -0.69215 0
M  V30 13915 H 1304.28 -1.25378 -1.4276 0
M  V30 13916 H 1302.43 -0.640665 -3.83181 0
M  V30 13917 H 1304.1 -3.20021 -3.32242 0
M  V30 13918 H 1302.34 -3.05903 -3.0758 0
M  V30 13919 H 1303.01 -2.89306 -4.70113 0
M  V30 13920 H 1305.49 -1.09247 -4.01503 0
M  V30 13921 H 1304.36 -1.00787 -5.39568 0
M  V30 13922 H 1304.63 0.416441 -4.40134 0
M  V30 13923 N 1303.68 1.3679 -0.7827 0
M  V30 13924 C 1304.96 1.93639 -0.276278 0
M  V30 13925 C 1305.34 1.7153 1.23048 0
M  V30 13926 O 1304.69 1.07037 2.01879 0
M  V30 13927 C 1304.9 3.42672 -0.661586 0
M  V30 13928 C 1306.25 4.19786 -0.637538 0
M  V30 13929 O 1307.27 3.51082 -0.601645 0
M  V30 13930 O 1306.13 5.42323 -0.674408 0
M  V30 13931 H 1303.22 0.824307 -0.0666832 0
M  V30 13932 H 1305.77 1.46012 -0.864792 0
M  V30 13933 H 1304.54 3.52393 -1.70103 0
M  V30 13934 H 1304.17 3.97573 -0.0465987 0
M  V30 13935 N 1305.16 0.53415 1.48272 0
M  V30 13936 C 1306.44 -0.0630181 1.95498 0
M  V30 13937 C 1306.82 -1.50877 1.47646 0
M  V30 13938 O 1306.17 -2.17358 0.704829 0
M  V30 13939 C 1306.38 0.0585475 3.48951 0
M  V30 13940 C 1307.73 -0.0985978 4.24486 0
M  V30 13941 O 1308.75 -0.0150438 3.56197 0
M  V30 13942 O 1307.61 -0.274356 5.45811 0
M  V30 13943 H 1304.7 -0.0769841 0.823409 0
M  V30 13944 H 1307.25 0.599043 1.58775 0
M  V30 13945 H 1306.02 1.06549 3.76514 0
M  V30 13946 H 1305.64 -0.642175 3.9238 0
M  V30 13947 N 1306.64 -1.55279 0.269478 0
M  V30 13948 C 1307.57 -2.25278 -0.614188 0
M  V30 13949 C 1308.55 -1.24092 -1.1634 0
M  V30 13950 O 1309.74 -1.52799 -1.19858 0
M  V30 13951 C 1306.87 -2.96956 -1.80096 0
M  V30 13952 C 1305.82 -4.05021 -1.38353 0
M  V30 13953 C 1305.15 -4.64244 -2.65295 0
M  V30 13954 C 1306.45 -5.19523 -0.537886 0
M  V30 13955 H 1308.14 -2.99385 -0.0304397 0
M  V30 13956 H 1305.69 -1.43994 -0.0132004 0
M  V30 13957 H 1307.64 -3.44633 -2.42499 0
M  V30 13958 H 1306.36 -2.20374 -2.41045 0
M  V30 13959 H 1305.02 -3.58146 -0.78273 0
M  V30 13960 H 1304.67 -3.84337 -3.2449 0
M  V30 13961 H 1304.37 -5.37208 -2.38079 0
M  V30 13962 H 1305.89 -5.14668 -3.28557 0
M  V30 13963 H 1307.31 -5.63287 -1.06677 0
M  V30 13964 H 1305.71 -5.99014 -0.360845 0
M  V30 13965 H 1306.78 -4.82857 0.444672 0
M  V30 13966 N 1308.12 0.00332656 -1.576 0
M  V30 13967 C 1309.05 0.994803 -2.11248 0
M  V30 13968 C 1310.03 1.36061 -1.02085 0
M  V30 13969 O 1311.21 1.44494 -1.2975 0
M  V30 13970 C 1308.34 2.28772 -2.61306 0
M  V30 13971 C 1307.3 2.06362 -3.74965 0
M  V30 13972 C 1306.62 3.41638 -4.11324 0
M  V30 13973 C 1307.92 1.4289 -5.02374 0
M  V30 13974 H 1309.62 0.548119 -2.9434 0
M  V30 13975 H 1307.16 0.262208 -1.41593 0
M  V30 13976 H 1309.12 2.98485 -2.97464 0
M  V30 13977 H 1307.84 2.75547 -1.75332 0
M  V30 13978 H 1306.5 1.39076 -3.39195 0
M  V30 13979 H 1306.15 3.8611 -3.22379 0
M  V30 13980 H 1305.85 3.2746 -4.87897 0
M  V30 13981 H 1307.37 4.12671 -4.50039 0
M  V30 13982 H 1308.79 2.02555 -5.36325 0
M  V30 13983 H 1307.18 1.3921 -5.8373 0
M  V30 13984 H 1308.25 0.397708 -4.83266 0
M  V30 13985 N 1309.6 1.55164 0.276031 0
M  V30 13986 C 1310.53 1.90844 1.34539 0
M  V30 13987 C 1311.51 0.769968 1.51676 0
M  V30 13988 O 1312.69 1.02785 1.64769 0
M  V30 13989 C 1309.82 2.17769 2.70543 0
M  V30 13990 C 1308.78 3.33592 2.68142 0
M  V30 13991 C 1308.1 3.45991 4.07669 0
M  V30 13992 C 1309.4 4.70064 2.27678 0
M  V30 13993 H 1311.1 2.80412 1.04926 0
M  V30 13994 H 1308.64 1.34918 0.503303 0
M  V30 13995 H 1310.6 2.41317 3.45462 0
M  V30 13996 H 1309.32 1.24997 3.01734 0
M  V30 13997 H 1307.98 3.10007 1.95681 0
M  V30 13998 H 1307.63 2.50691 4.36077 0
M  V30 13999 H 1307.33 4.23862 4.06958 0
M  V30 14000 H 1308.85 3.71828 4.84331 0
M  V30 14001 H 1310.26 4.93176 2.92319 0
M  V30 14002 H 1308.66 5.50829 2.38134 0
M  V30 14003 H 1309.73 4.69091 1.22808 0
M  V30 14004 N 1311.07 -0.540404 1.48045 0
M  V30 14005 C 1312.04 -1.62813 1.61322 0
M  V30 14006 C 1313.04 -1.53243 0.487161 0
M  V30 14007 O 1314.23 -1.571 0.752684 0
M  V30 14008 C 1311.36 -3.02408 1.5736 0
M  V30 14009 H 1312.55 -1.52385 2.583 0
M  V30 14010 H 1310.11 -0.761654 1.36486 0
M  V30 14011 H 1310.84 -3.18353 0.618195 0
M  V30 14012 H 1310.63 -3.10763 2.39099 0
M  V30 14013 H 1312.12 -3.8151 1.69822 0
M  V30 14014 N 1312.55 -1.36459 -0.788468 0
M  V30 14015 C 1313.52 -1.3071 -1.88275 0
M  V30 14016 C 1314.52 -0.214596 -1.59362 0
M  V30 14017 O 1315.71 -0.469437 -1.67756 0
M  V30 14018 C 1312.84 -1.02648 -3.25079 0
M  V30 14019 H 1314.03 -2.28029 -1.94788 0
M  V30 14020 H 1311.58 -1.21245 -0.986375 0
M  V30 14021 H 1312.32 -0.0578992 -3.24248 0
M  V30 14022 H 1312.1 -1.81708 -3.47454 0
M  V30 14023 H 1313.59 -1.01233 -4.05144 0
M  V30 14024 N 1314.03 1.01274 -1.20754 0
M  V30 14025 C 1315.26 1.78524 -1.04579 0
M  V30 14026 C 1315.67 1.84409 0.404809 0
M  V30 14027 O 1315.03 1.29987 1.281 0
M  V30 14028 C 1315.08 3.22806 -1.62722 0
M  V30 14029 O 1314.8 3.17276 -3.02106 0
M  V30 14030 C 1316.3 4.16589 -1.51553 0
M  V30 14031 H 1313.52 0.561299 -0.367674 0
M  V30 14032 H 1316.07 1.27454 -1.59924 0
M  V30 14033 H 1314.22 3.71011 -1.11487 0
M  V30 14034 H 1314.64 4.07866 -3.29766 0
M  V30 14035 H 1316.11 5.15654 -1.9699 0
M  V30 14036 H 1316.59 4.36692 -0.468659 0
M  V30 14037 H 1317.19 3.74269 -2.01998 0
M  V30 14038 N 1315.51 1.01404 1.20644 0
M  V30 14039 C 1316.73 0.720839 1.9447 0
M  V30 14040 C 1317.16 -0.711711 1.74116 0
M  V30 14041 O 1316.52 -1.48938 1.03379 0
M  V30 14042 C 1316.57 1.05864 3.4471 0
M  V30 14043 O 1315.67 0.168901 4.12054 0
M  V30 14044 H 1315.01 0.267698 0.607646 0
M  V30 14045 H 1317.54 1.35672 1.53147 0
M  V30 14046 H 1317.55 1.00928 3.9532 0
M  V30 14047 H 1316.23 2.1024 3.58848 0
M  V30 14048 H 1314.8 0.275572 3.7188 0
M  V30 14049 N 1316.99 -1.36373 0.789944 0
M  V30 14050 C 1317.9 -2.3383 0.189873 0
M  V30 14051 C 1318.91 -1.61068 -0.65827 0
M  V30 14052 O 1320.09 -1.93049 -0.573932 0
M  V30 14053 C 1317.15 -3.40264 -0.664905 0
M  V30 14054 C 1316.22 -4.28825 0.201798 0
M  V30 14055 C 1315.45 -5.30176 -0.612278 0
M  V30 14056 O 1315.67 -5.39627 -1.84821 0
M  V30 14057 O 1314.61 -6.01899 -0.0118964 0
M  V30 14058 H 1318.43 -2.86915 0.995671 0
M  V30 14059 H 1316.02 -1.38852 0.551412 0
M  V30 14060 H 1317.9 -4.05339 -1.15231 0
M  V30 14061 H 1316.57 -2.89478 -1.44858 0
M  V30 14062 H 1315.48 -3.66789 0.735974 0
M  V30 14063 H 1316.81 -4.82965 0.949003 0
M  V30 14064 N 1318.47 -0.542005 -1.47987 0
M  V30 14065 C 1319.4 0.202703 -2.32618 0
M  V30 14066 C 1320.38 0.923521 -1.42846 0
M  V30 14067 O 1321.56 0.906957 -1.7172 0
M  V30 14068 C 1318.69 1.24267 -3.24307 0
M  V30 14069 C 1317.65 0.639257 -4.23199 0
M  V30 14070 C 1316.97 1.78275 -5.04105 0
M  V30 14071 C 1318.27 -0.396982 -5.20789 0
M  V30 14072 H 1319.97 -0.503817 -2.95131 0
M  V30 14073 H 1317.51 -0.243736 -1.41922 0
M  V30 14074 H 1319.46 1.7717 -3.82347 0
M  V30 14075 H 1318.19 1.97893 -2.59819 0
M  V30 14076 H 1316.85 0.131655 -3.66364 0
M  V30 14077 H 1316.5 2.50768 -4.36032 0
M  V30 14078 H 1316.2 1.38487 -5.71047 0
M  V30 14079 H 1317.72 2.31533 -5.65 0
M  V30 14080 H 1319.13 0.0454057 -5.73282 0
M  V30 14081 H 1317.53 -0.712911 -5.9585 0
M  V30 14082 H 1318.6 -1.29843 -4.67193 0
M  V30 14083 N 1319.94 1.55134 -0.277709 0
M  V30 14084 C 1321.22 1.91667 0.390253 0
M  V30 14085 C 1321.6 1.20228 1.73518 0
M  V30 14086 O 1320.95 0.330013 2.26104 0
M  V30 14087 C 1321.16 3.44983 0.52797 0
M  V30 14088 C 1322.51 4.16809 0.809665 0
M  V30 14089 O 1323.53 3.50891 0.612679 0
M  V30 14090 O 1322.39 5.33463 1.18656 0
M  V30 14091 H 1319.48 0.798807 0.214095 0
M  V30 14092 H 1322.03 1.66577 -0.324053 0
M  V30 14093 H 1320.8 3.89056 -0.418422 0
M  V30 14094 H 1320.42 3.76035 1.29164 0
M  V30 14095 N 1321.42 0.00503138 1.57599 0
M  V30 14096 C 1322.66 -0.683203 1.92644 0
M  V30 14097 C 1323.03 -1.70657 0.879778 0
M  V30 14098 O 1324.23 -2.44555 1.11563 0
M  V30 14099 C 1322.5 -1.30509 3.32719 0
M  V30 14100 S 1324.06 -2.01775 3.89657 0
M  V30 14101 H 1320.87 -0.225551 0.674276 0
M  V30 14102 H 1323.48 0.0629255 1.95399 0
M  V30 14103 H 1322.18 -0.547509 4.06731 0
M  V30 14104 H 1321.71 -2.08904 3.3335 0
M  V30 14105 H 1323.73 -3.29348 3.7114 0
M  V30 14106 N 1322.9 -1.55308 -0.267798 0
M  V30 14107 C 1323.83 -1.84963 -1.35356 0
M  V30 14108 C 1324.84 -0.73446 -1.45291 0
M  V30 14109 O 1326.03 -1.01237 -1.47015 0
M  V30 14110 C 1323.13 -2.00221 -2.73432 0
M  V30 14111 C 1322.31 -3.30922 -2.86024 0
M  V30 14112 C 1321.37 -3.3618 -4.04808 0
M  V30 14113 O 1320.39 -4.09525 -3.9532 0
M  V30 14114 N 1321.59 -2.63958 -5.17017 0
M  V30 14115 H 1324.36 -2.7868 -1.1026 0
M  V30 14116 H 1321.92 -1.55289 -0.457914 0
M  V30 14117 H 1323.91 -2.01103 -3.51197 0
M  V30 14118 H 1322.48 -1.13346 -2.91327 0
M  V30 14119 H 1321.7 -3.42534 -1.951 0
M  V30 14120 H 1322.99 -4.17109 -2.91371 0
M  V30 14121 H 1322.39 -2.04062 -5.27613 0
M  V30 14122 H 1320.94 -2.70558 -5.92994 0
M  V30 14123 N 1324.38 0.532545 -1.4833 0
M  V30 14124 C 1325.31 1.65325 -1.58746 0
M  V30 14125 C 1326.32 1.5581 -0.471925 0
M  V30 14126 O 1327.51 1.62317 -0.742656 0
M  V30 14127 C 1324.61 3.03957 -1.49877 0
M  V30 14128 C 1323.78 3.38979 -2.76427 0
M  V30 14129 C 1322.84 4.56881 -2.61048 0
M  V30 14130 O 1321.87 4.6023 -3.34928 0
M  V30 14131 N 1323.07 5.54898 -1.70496 0
M  V30 14132 H 1325.84 1.56827 -2.55393 0
M  V30 14133 H 1323.4 0.71976 -1.45021 0
M  V30 14134 H 1325.39 3.80702 -1.37288 0
M  V30 14135 H 1323.96 3.06548 -0.612158 0
M  V30 14136 H 1323.18 2.51438 -3.03599 0
M  V30 14137 H 1324.47 3.59163 -3.60388 0
M  V30 14138 H 1323.87 5.54968 -1.0967 0
M  V30 14139 H 1322.42 6.3087 -1.63847 0
M  V30 14140 N 1325.86 1.36875 0.78122 0
M  V30 14141 C 1327.1 1.31299 1.53639 0
M  V30 14142 C 1327.42 -0.104942 1.94717 0
M  V30 14143 O 1326.69 -1.04696 1.65576 0
M  V30 14144 H 1325.27 0.483032 0.569815 0
M  V30 14145 H 1327.94 1.71261 0.930359 0
M  V30 14146 H 1327.03 1.94581 2.44018 0
M  V30 14147 N 1327.33 -1.00632 1.21289 0
M  V30 14148 C 1328.56 -1.77967 1.05524 0
M  V30 14149 C 1328.98 -1.84621 -0.395023 0
M  V30 14150 O 1328.33 -1.30664 -1.27409 0
M  V30 14151 C 1328.38 -3.21939 1.64432 0
M  V30 14152 O 1328.11 -3.15669 3.03784 0
M  V30 14153 C 1329.61 -4.1578 1.5376 0
M  V30 14154 H 1326.83 -0.559341 0.370646 0
M  V30 14155 H 1329.37 -1.26604 1.60598 0
M  V30 14156 H 1327.53 -3.70415 1.13453 0
M  V30 14157 H 1327.94 -4.06112 3.31924 0
M  V30 14158 H 1329.41 -5.14602 1.99722 0
M  V30 14159 H 1329.89 -4.36438 0.491811 0
M  V30 14160 H 1330.5 -3.73192 2.0398 0
M  V30 14161 N 1328.81 -1.02043 -1.20104 0
M  V30 14162 C 1330.23 -0.735967 -1.41618 0
M  V30 14163 C 1330.43 0.68285 -1.89577 0
M  V30 14164 O 1329.48 1.45007 -2.06711 0
M  V30 14165 C 1330.8 -1.76492 -2.43457 0
M  V30 14166 C 1332.34 -1.78349 -2.57217 0
M  V30 14167 C 1332.82 -2.80181 -3.62302 0
M  V30 14168 N 1334.31 -2.78945 -3.69789 0
M  V30 14169 C 1335.05 -3.54395 -4.50768 0
M  V30 14170 N 1334.54 -4.39533 -5.35521 0
M  V30 14171 N 1336.33 -3.42974 -4.45337 0
M  V30 14172 H 1328.49 -1.93634 -0.872916 0
M  V30 14173 H 1330.75 -0.836663 -0.445757 0
M  V30 14174 H 1330.45 -2.78158 -2.15223 0
M  V30 14175 H 1330.33 -1.58022 -3.42504 0
M  V30 14176 H 1332.72 -0.773665 -2.84778 0
M  V30 14177 H 1332.8 -2.00894 -1.58352 0
M  V30 14178 H 1332.44 -3.81331 -3.35484 0
M  V30 14179 H 1332.37 -2.54898 -4.60798 0
M  V30 14180 H 1334.86 -2.17189 -3.09253 0
M  V30 14181 H 1335.17 -4.93863 -5.94407 0
M  V30 14182 H 1333.52 -4.43609 -5.3501 0
M  V30 14183 H 1336.71 -2.75881 -3.78163 0
M  V30 14184 H 1336.88 -4.02028 -5.0821 0
M  V30 14185 N 1330.29 1.35952 -0.797165 0
M  V30 14186 C 1331.25 2.28266 -0.206748 0
M  V30 14187 C 1332.25 1.49169 0.60043 0
M  V30 14188 O 1333.44 1.69054 0.42029 0
M  V30 14189 C 1330.58 3.33363 0.712884 0
M  V30 14190 H 1331.77 2.81992 -1.02082 0
M  V30 14191 H 1329.32 1.45648 -0.567138 0
M  V30 14192 H 1330.06 2.84806 1.551 0
M  V30 14193 H 1329.84 3.91864 0.135926 0
M  V30 14194 H 1331.33 4.02284 1.1206 0
M  V30 14195 N 1331.77 0.549846 1.47697 0
M  V30 14196 C 1332.7 -0.190364 2.32723 0
M  V30 14197 C 1333.68 -0.915933 1.43334 0
M  V30 14198 O 1334.86 -0.897838 1.72199 0
M  V30 14199 C 1331.99 -1.22545 3.24961 0
M  V30 14200 C 1330.95 -0.616805 4.23532 0
M  V30 14201 C 1330.27 -1.75599 5.05044 0
M  V30 14202 C 1331.57 0.424595 5.20571 0
M  V30 14203 H 1333.27 0.519461 2.94859 0
M  V30 14204 H 1330.81 0.251259 1.41791 0
M  V30 14205 H 1332.77 -1.75139 3.83281 0
M  V30 14206 H 1331.49 -1.96512 2.60865 0
M  V30 14207 H 1330.15 -0.112224 3.66428 0
M  V30 14208 H 1329.8 -2.48453 4.37356 0
M  V30 14209 H 1329.5 -1.35456 5.71774 0
M  V30 14210 H 1331.02 -2.28533 5.6622 0
M  V30 14211 H 1332.44 -0.0150025 5.73298 0
M  V30 14212 H 1330.83 0.7445 5.95464 0
M  V30 14213 H 1331.9 1.32318 4.66497 0
M  V30 14214 N 1333.25 -1.54984 0.285932 0
M  V30 14215 C 1334.18 -2.25916 -0.590259 0
M  V30 14216 C 1335.16 -1.25319 -1.15018 0
M  V30 14217 O 1336.34 -1.54062 -1.18231 0
M  V30 14218 C 1333.47 -2.98849 -1.76936 0
M  V30 14219 C 1332.43 -4.06466 -1.3405 0
M  V30 14220 C 1331.75 -4.67032 -2.60356 0
M  V30 14221 C 1333.05 -5.20064 -0.482754 0
M  V30 14222 H 1334.75 -2.994 0.00131571 0
M  V30 14223 H 1332.29 -1.44 0.00207281 0
M  V30 14224 H 1334.25 -3.47186 -2.3883 0
M  V30 14225 H 1332.97 -2.22918 -2.38694 0
M  V30 14226 H 1331.63 -3.58957 -0.7447 0
M  V30 14227 H 1331.28 -3.87757 -3.20396 0
M  V30 14228 H 1330.98 -5.39703 -2.32368 0
M  V30 14229 H 1332.5 -5.18124 -3.23079 0
M  V30 14230 H 1333.91 -5.64387 -1.00697 0
M  V30 14231 H 1332.31 -5.99363 -0.297291 0
M  V30 14232 H 1333.38 -4.82358 0.495861 0
M  V30 14233 N 1334.72 -0.0133892 -1.57594 0
M  V30 14234 C 1335.66 1.00211 -2.06132 0
M  V30 14235 C 1336.67 1.29869 -0.98173 0
M  V30 14236 O 1337.86 1.2661 -1.25826 0
M  V30 14237 C 1334.96 2.33354 -2.45763 0
M  V30 14238 C 1334.13 2.22441 -3.76615 0
M  V30 14239 C 1333.19 3.38385 -4.02967 0
M  V30 14240 O 1332.22 3.15973 -4.73445 0
M  V30 14241 N 1333.42 4.61672 -3.51908 0
M  V30 14242 H 1336.18 0.588079 -2.93874 0
M  V30 14243 H 1333.74 0.173714 -1.60965 0
M  V30 14244 H 1335.74 3.09716 -2.60496 0
M  V30 14245 H 1334.31 2.66451 -1.6347 0
M  V30 14246 H 1333.53 1.30905 -3.7183 0
M  V30 14247 H 1334.81 2.12337 -4.62375 0
M  V30 14248 H 1334.21 4.82777 -2.9486 0
M  V30 14249 H 1332.77 5.35256 -3.71947 0
M  V30 14250 N 1336.2 1.55448 0.259558 0
M  V30 14251 C 1337.43 1.80727 1.00723 0
M  V30 14252 C 1337.85 0.587354 1.79431 0
M  V30 14253 O 1337.2 -0.443819 1.77021 0
M  V30 14254 C 1337.25 3.04064 1.95517 0
M  V30 14255 O 1336.97 4.21346 1.19996 0
M  V30 14256 C 1338.48 3.42049 2.81988 0
M  V30 14257 H 1335.7 0.601713 0.296956 0
M  V30 14258 H 1338.24 2.02486 0.286273 0
M  V30 14259 H 1336.39 2.84392 2.63058 0
M  V30 14260 H 1336.81 4.91164 1.84006 0
M  V30 14261 H 1338.28 4.31485 3.44274 0
M  V30 14262 H 1338.76 2.62059 3.52451 0
M  V30 14263 H 1339.37 3.64027 2.19918 0
M  V30 14264 N 1337.68 -0.524672 1.4861 0
M  V30 14265 C 1338.61 -1.63782 1.66426 0
M  V30 14266 C 1339.59 -1.62177 0.513077 0
M  V30 14267 O 1340.78 -1.7929 0.74623 0
M  V30 14268 C 1337.91 -3.02354 1.70877 0
M  V30 14269 C 1336.86 -3.18819 2.85549 0
M  V30 14270 C 1336.19 -4.58506 2.75094 0
M  V30 14271 C 1337.49 -3.01086 4.26784 0
M  V30 14272 H 1339.18 -1.49127 2.59618 0
M  V30 14273 H 1336.73 -0.715997 1.24938 0
M  V30 14274 H 1338.68 -3.80105 1.81929 0
M  V30 14275 H 1337.4 -3.18044 0.742682 0
M  V30 14276 H 1336.06 -2.43487 2.74061 0
M  V30 14277 H 1335.71 -4.71038 1.76443 0
M  V30 14278 H 1335.41 -4.70466 3.52044 0
M  V30 14279 H 1336.93 -5.38348 2.88121 0
M  V30 14280 H 1338.35 -3.68624 4.39077 0
M  V30 14281 H 1336.75 -3.24536 5.04774 0
M  V30 14282 H 1337.82 -1.97454 4.42877 0
M  V30 14283 N 1339.16 -1.37287 -0.77395 0
M  V30 14284 C 1340.41 -1.32112 -1.5294 0
M  V30 14285 C 1340.73 0.0946137 -1.9477 0
M  V30 14286 O 1340 1.03817 -1.66129 0
M  V30 14287 H 1338.58 -0.486047 -0.567245 0
M  V30 14288 H 1341.24 -1.71752 -0.921263 0
M  V30 14289 H 1340.34 -1.95873 -2.42982 0
M  V30 14290 N 1340.64 0.999871 -1.21821 0
M  V30 14291 C 1341.58 2.10985 -0.979183 0
M  V30 14292 C 1342.58 1.69232 0.0753287 0
M  V30 14293 O 1343.78 1.79837 -0.0765083 0
M  V30 14294 H 1340.16 0.689819 -0.299421 0
M  V30 14295 H 1342.13 2.28322 -1.92124 0
M  V30 14296 C 1340.88 3.43062 -0.56602 0
M  V30 14297 H 1340.2 3.75627 -1.36909 0
M  V30 14298 H 1341.64 4.2173 -0.43813 0
M  V30 14299 C 1340.1 3.29036 0.723647 0
M  V30 14300 O 1340.63 3.60214 1.77788 0
M  V30 14301 N 1338.84 2.82237 0.692126 0
M  V30 14302 H 1338.38 2.57064 -0.166082 0
M  V30 14303 H 1338.34 2.73235 1.55532 0
M  V30 14304 N 1342.11 1.02678 1.19562 0
M  V30 14305 C 1343.04 0.626359 2.24942 0
M  V30 14306 C 1344.03 -0.363612 1.66168 0
M  V30 14307 O 1345.21 -0.246793 1.92625 0
M  V30 14308 C 1342.34 -0.0257912 3.4729 0
M  V30 14309 C 1341.29 0.886237 4.18724 0
M  V30 14310 C 1340.62 0.0993081 5.34608 0
M  V30 14311 C 1341.92 2.19901 4.73752 0
M  V30 14312 H 1343.61 1.50729 2.58691 0
M  V30 14313 H 1341.16 0.726195 1.24348 0
M  V30 14314 H 1343.11 -0.317545 4.20202 0
M  V30 14315 H 1341.84 -0.941511 3.12735 0
M  V30 14316 H 1340.5 1.16215 3.47692 0
M  V30 14317 H 1340.14 -0.81838 4.96298 0
M  V30 14318 H 1339.84 0.706776 5.83334 0
M  V30 14319 H 1341.37 -0.185754 6.10317 0
M  V30 14320 H 1342.78 1.96892 5.3843 0
M  V30 14321 H 1341.18 2.75821 5.32956 0
M  V30 14322 H 1342.25 2.85509 3.91934 0
M  V30 14323 N 1343.59 -1.35528 0.804364 0
M  V30 14324 C 1344.84 -1.98439 0.382934 0
M  V30 14325 C 1345.16 -1.64132 -1.05289 0
M  V30 14326 O 1344.43 -0.922693 -1.7281 0
M  V30 14327 H 1343.01 -0.734028 0.138605 0
M  V30 14328 H 1345.67 -1.65478 1.02971 0
M  V30 14329 H 1344.77 -3.08279 0.486846 0
M  V30 14330 N 1345.07 -0.557671 -1.47404 0
M  V30 14331 C 1346.3 -0.0386038 -2.06564 0
M  V30 14332 C 1346.71 1.26075 -1.41074 0
M  V30 14333 O 1346.05 1.76723 -0.501453 0
M  V30 14334 C 1346.11 0.22746 -3.5878 0
M  V30 14335 C 1345.78 -0.982526 -4.46313 0
M  V30 14336 C 1346.78 -1.88821 -4.84399 0
M  V30 14337 C 1344.46 -1.19733 -4.87821 0
M  V30 14338 C 1346.45 -2.99238 -5.62793 0
M  V30 14339 C 1344.14 -2.30459 -5.65979 0
M  V30 14340 C 1345.14 -3.20042 -6.03375 0
M  V30 14341 O 1344.83 -4.28849 -6.79959 0
M  V30 14342 H 1344.56 -0.0430229 -0.67463 0
M  V30 14343 H 1347.11 -0.770801 -1.90389 0
M  V30 14344 H 1345.34 1.01397 -3.73169 0
M  V30 14345 H 1347.03 0.691966 -3.99958 0
M  V30 14346 H 1347.8 -1.73431 -4.52931 0
M  V30 14347 H 1343.68 -0.509223 -4.58179 0
M  V30 14348 H 1347.22 -3.69187 -5.91901 0
M  V30 14349 H 1343.12 -2.45821 -5.9686 0
M  V30 14350 H 1343.89 -4.26903 -6.98353 0
M  V30 14351 N 1346.55 1.54831 -0.294147 0
M  V30 14352 C 1347.97 1.59489 0.0594489 0
M  V30 14353 C 1348.17 1.31121 1.53002 0
M  V30 14354 O 1347.22 1.08129 2.28176 0
M  V30 14355 C 1348.53 2.98858 -0.332323 0
M  V30 14356 C 1350.08 3.1174 -0.280518 0
M  V30 14357 C 1350.56 4.53407 -0.64701 0
M  V30 14358 N 1352.05 4.59307 -0.599284 0
M  V30 14359 C 1352.78 5.66983 -0.85542 0
M  V30 14360 N 1352.28 6.82726 -1.17717 0
M  V30 14361 N 1354.07 5.56621 -0.78294 0
M  V30 14362 H 1346.22 1.71532 -1.25262 0
M  V30 14363 H 1348.49 0.800801 -0.507368 0
M  V30 14364 H 1348.19 3.24517 -1.35578 0
M  V30 14365 H 1348.07 3.75862 0.317443 0
M  V30 14366 H 1350.45 2.85834 0.733683 0
M  V30 14367 H 1350.53 2.36907 -0.96481 0
M  V30 14368 H 1350.18 4.80042 -1.65899 0
M  V30 14369 H 1350.11 5.26567 0.0592796 0
M  V30 14370 H 1352.6 3.76169 -0.361259 0
M  V30 14371 H 1352.91 7.60761 -1.35877 0
M  V30 14372 H 1351.26 6.84295 -1.21513 0
M  V30 14373 H 1354.45 4.65075 -0.531282 0
M  V30 14374 H 1354.62 6.40456 -0.985929 0
M  V30 14375 N 1348.03 0.0217466 1.57585 0
M  V30 14376 C 1348.99 -0.947546 2.08696 0
M  V30 14377 C 1349.99 -1.25879 1.00055 0
M  V30 14378 O 1351.18 -1.20035 1.26242 0
M  V30 14379 C 1348.31 -2.26624 2.54665 0
M  V30 14380 H 1349.51 -0.505016 2.95617 0
M  V30 14381 H 1347.06 -0.226152 1.54655 0
M  V30 14382 H 1347.79 -2.75521 1.71052 0
M  V30 14383 H 1347.58 -2.05347 3.34028 0
M  V30 14384 H 1349.07 -2.96114 2.94459 0
M  V30 14385 N 1349.51 -1.55583 -0.251311 0
M  V30 14386 C 1350.73 -1.81597 -1.00186 0
M  V30 14387 C 1351.16 -0.598216 -1.78334 0
M  V30 14388 O 1350.51 0.452667 -1.75558 0
M  V30 14389 C 1350.56 -3.05301 -1.91895 0
M  V30 14390 O 1349.67 -2.81907 -3.01002 0
M  V30 14391 H 1349.01 -0.599578 -0.285311 0
M  V30 14392 H 1351.54 -2.02762 -0.273638 0
M  V30 14393 H 1351.55 -3.34616 -2.33444 0
M  V30 14394 H 1350.22 -3.93574 -1.34433 0
M  V30 14395 H 1348.8 -2.63747 -2.63613 0
M  V30 14396 N 1350.98 0.516783 -1.48886 0
M  V30 14397 C 1351.95 1.60226 -1.63891 0
M  V30 14398 C 1352.95 1.52448 -0.511479 0
M  V30 14399 O 1354.14 1.55882 -0.777582 0
M  V30 14400 C 1351.27 2.99867 -1.62151 0
M  V30 14401 H 1352.46 1.48256 -2.60692 0
M  V30 14402 H 1350.01 0.739844 -1.37681 0
M  V30 14403 H 1350.75 3.1733 -0.668764 0
M  V30 14404 H 1350.53 3.0692 -2.44013 0
M  V30 14405 H 1352.02 3.7876 -1.7587 0
M  V30 14406 N 1352.46 1.37696 0.766659 0
M  V30 14407 C 1353.41 1.33871 1.88009 0
M  V30 14408 C 1354.38 0.2034 1.6485 0
M  V30 14409 O 1355.56 0.393569 1.86697 0
M  V30 14410 C 1352.7 1.1566 3.25141 0
M  V30 14411 C 1351.82 2.38465 3.6022 0
M  V30 14412 C 1350.95 2.13087 4.86587 0
M  V30 14413 C 1349.99 3.31732 5.14413 0
M  V30 14414 N 1349.13 3.05872 6.3197 0
M  V30 14415 H 1353.97 2.29065 1.90613 0
M  V30 14416 H 1351.5 1.13821 0.931837 0
M  V30 14417 H 1353.46 1.03122 4.04255 0
M  V30 14418 H 1352.09 0.241115 3.21898 0
M  V30 14419 H 1351.14 2.61725 2.76051 0
M  V30 14420 H 1352.46 3.26933 3.76718 0
M  V30 14421 H 1351.61 1.97609 5.73616 0
M  V30 14422 H 1350.35 1.21965 4.72203 0
M  V30 14423 H 1349.35 3.47743 4.25858 0
M  V30 14424 H 1350.58 4.23712 5.30702 0
M  V30 14425 H 1348.53 2.17384 6.18935 0
M  V30 14426 H 1348.44 3.87885 6.48908 0
M  V30 14427 H 1349.71 2.94023 7.21922 0
M  V30 14428 N 1353.94 -0.993397 1.22349 0
M  V30 14429 C 1354.89 -2.0834 0.993123 0
M  V30 14430 C 1355.86 -1.65883 -0.0849717 0
M  V30 14431 O 1357.04 -1.90691 0.0645176 0
M  V30 14432 C 1354.18 -3.40252 0.576434 0
M  V30 14433 C 1353.29 -3.96055 1.72524 0
M  V30 14434 C 1352.43 -5.16123 1.25659 0
M  V30 14435 C 1351.47 -5.64062 2.37698 0
M  V30 14436 N 1350.61 -6.7537 1.91883 0
M  V30 14437 H 1355.45 -2.27381 1.92619 0
M  V30 14438 H 1352.98 -1.11476 0.959763 0
M  V30 14439 H 1354.94 -4.16001 0.316021 0
M  V30 14440 H 1353.57 -3.21214 -0.319626 0
M  V30 14441 H 1352.62 -3.17182 2.1 0
M  V30 14442 H 1353.93 -4.27614 2.56802 0
M  V30 14443 H 1353.09 -5.9916 0.953528 0
M  V30 14444 H 1351.83 -4.86186 0.384011 0
M  V30 14445 H 1350.83 -4.79614 2.68794 0
M  V30 14446 H 1352.06 -5.96025 3.25471 0
M  V30 14447 H 1350 -6.47217 1.06986 0
M  V30 14448 H 1349.92 -7.06246 2.69727 0
M  V30 14449 H 1351.19 -7.61914 1.64644 0
M  V30 14450 N 1355.42 -1.03311 -1.19015 0
M  V30 14451 C 1356.38 -0.622114 -2.20596 0
M  V30 14452 C 1357.38 0.316502 -1.57654 0
M  V30 14453 O 1358.57 0.102932 -1.73896 0
M  V30 14454 C 1355.7 0.0890432 -3.40784 0
M  V30 14455 H 1356.9 -1.52095 -2.58471 0
M  V30 14456 H 1354.45 -0.824777 -1.32767 0
M  V30 14457 H 1355.18 1.00203 -3.08431 0
M  V30 14458 H 1354.97 -0.58547 -3.87704 0
M  V30 14459 H 1356.46 0.363366 -4.16016 0
M  V30 14460 N 1356.9 1.35099 -0.81154 0
M  V30 14461 C 1357.83 2.28468 -0.183012 0
M  V30 14462 C 1358.84 1.50509 0.620553 0
M  V30 14463 O 1360.03 1.7268 0.4521 0
M  V30 14464 C 1357.13 3.30201 0.762933 0
M  V30 14465 C 1356.3 4.374 0.00466561 0
M  V30 14466 C 1355.36 5.18961 0.869832 0
M  V30 14467 O 1354.39 5.68306 0.318964 0
M  V30 14468 N 1355.59 5.37555 2.19123 0
M  V30 14469 H 1358.35 2.83046 -0.985132 0
M  V30 14470 H 1355.92 1.47502 -0.667449 0
M  V30 14471 H 1357.91 3.81659 1.34606 0
M  V30 14472 H 1356.48 2.76101 1.46584 0
M  V30 14473 H 1355.7 3.8681 -0.759702 0
M  V30 14474 H 1356.99 5.06159 -0.517739 0
M  V30 14475 H 1356.38 4.99118 2.66266 0
M  V30 14476 H 1354.94 5.92174 2.72348 0
M  V30 14477 N 1358.37 0.56548 1.47106 0
M  V30 14478 C 1359.62 0.042333 2.01656 0
M  V30 14479 C 1359.94 -1.31892 1.44443 0
M  V30 14480 O 1361.14 -1.93245 1.90706 0
M  V30 14481 C 1359.6 0.0251556 3.59891 0
M  V30 14482 C 1359.21 1.38367 4.26097 0
M  V30 14483 C 1360.95 -0.44495 4.22162 0
M  V30 14484 C 1358.86 1.32516 5.76362 0
M  V30 14485 H 1357.79 0.0120557 0.753904 0
M  V30 14486 H 1360.44 0.714565 1.69015 0
M  V30 14487 H 1358.82 -0.712893 3.8953 0
M  V30 14488 H 1359.99 2.14009 4.08089 0
M  V30 14489 H 1358.31 1.79239 3.75849 0
M  V30 14490 H 1360.91 -0.507256 5.32288 0
M  V30 14491 H 1361.25 -1.45876 3.89905 0
M  V30 14492 H 1361.78 0.238496 3.97084 0
M  V30 14493 H 1358.52 2.31523 6.13252 0
M  V30 14494 H 1358.04 0.610674 5.96683 0
M  V30 14495 H 1359.72 1.03072 6.38737 0
M  V30 14496 N 1359.85 -1.54672 0.302354 0
M  V30 14497 C 1361.09 -2.02076 -0.30738 0
M  V30 14498 C 1361.46 -1.18603 -1.50988 0
M  V30 14499 O 1362.66 -1.5571 -2.19107 0
M  V30 14500 C 1360.93 -3.5137 -0.65375 0
M  V30 14501 S 1362.49 -4.20733 -1.24615 0
M  V30 14502 H 1359.31 -0.704725 -0.0942521 0
M  V30 14503 H 1361.91 -1.907 0.430542 0
M  V30 14504 H 1360.61 -4.09756 0.229892 0
M  V30 14505 H 1360.14 -3.66784 -1.42243 0
M  V30 14506 H 1362.16 -4.26624 -2.5339 0
M  V30 14507 N 1361.33 -0.0301034 -1.57571 0
M  V30 14508 C 1362.26 0.980187 -2.07183 0
M  V30 14509 C 1363.28 1.2882 -0.995449 0
M  V30 14510 O 1364.46 1.25268 -1.27162 0
M  V30 14511 C 1361.56 2.30734 -2.48224 0
M  V30 14512 C 1360.74 2.18434 -3.78953 0
M  V30 14513 C 1359.8 3.34092 -4.06533 0
M  V30 14514 O 1358.82 3.10934 -4.76769 0
M  V30 14515 N 1360.02 4.57914 -3.56784 0
M  V30 14516 H 1362.79 0.556877 -2.94481 0
M  V30 14517 H 1360.35 0.156632 -1.61141 0
M  V30 14518 H 1362.34 3.06936 -2.63766 0
M  V30 14519 H 1360.91 2.64703 -1.66287 0
M  V30 14520 H 1360.13 1.26953 -3.73198 0
M  V30 14521 H 1361.42 2.07421 -4.64601 0
M  V30 14522 H 1360.82 4.79623 -2.99964 0
M  V30 14523 H 1359.38 5.31281 -3.77603 0
M  V30 14524 N 1362.81 1.55714 0.243056 0
M  V30 14525 C 1363.76 1.90638 1.30099 0
M  V30 14526 C 1364.73 0.761049 1.47639 0
M  V30 14527 O 1365.91 1.01505 1.61559 0
M  V30 14528 C 1363.05 2.20985 2.65065 0
M  V30 14529 C 1362.16 3.48343 2.55501 0
M  V30 14530 C 1361.3 3.68241 3.82847 0
M  V30 14531 C 1360.34 4.89187 3.67916 0
M  V30 14532 N 1359.47 5.05586 4.87162 0
M  V30 14533 H 1364.31 2.80857 0.996155 0
M  V30 14534 H 1361.85 1.39027 0.480619 0
M  V30 14535 H 1363.81 2.36585 3.43632 0
M  V30 14536 H 1362.44 1.33966 2.93689 0
M  V30 14537 H 1361.49 3.41054 1.68483 0
M  V30 14538 H 1362.8 4.37057 2.4038 0
M  V30 14539 H 1361.96 3.83822 4.69857 0
M  V30 14540 H 1360.7 2.77768 4.00869 0
M  V30 14541 H 1359.7 4.7358 2.79289 0
M  V30 14542 H 1360.93 5.81124 3.51385 0
M  V30 14543 H 1358.87 4.18051 5.05538 0
M  V30 14544 H 1358.79 5.88395 4.74686 0
M  V30 14545 H 1360.06 5.25582 5.7566 0
M  V30 14546 N 1364.29 -0.50888 1.49158 0
M  V30 14547 C 1365.22 -1.62778 1.61356 0
M  V30 14548 C 1366.23 -1.55039 0.496653 0
M  V30 14549 O 1367.42 -1.61115 0.768386 0
M  V30 14550 C 1364.52 -3.01534 1.54694 0
M  V30 14551 C 1363.69 -3.34539 2.81785 0
M  V30 14552 C 1362.75 -4.5267 2.68283 0
M  V30 14553 O 1361.78 -4.54844 3.42207 0
M  V30 14554 N 1362.98 -5.52115 1.79303 0
M  V30 14555 H 1365.75 -1.52744 2.57855 0
M  V30 14556 H 1363.31 -0.696597 1.46148 0
M  V30 14557 H 1365.3 -3.7847 1.43327 0
M  V30 14558 H 1363.87 -3.05535 0.660849 0
M  V30 14559 H 1363.09 -2.46576 3.07561 0
M  V30 14560 H 1364.38 -3.53384 3.66057 0
M  V30 14561 H 1363.77 -5.53153 1.18485 0
M  V30 14562 H 1362.33 -6.28184 1.73863 0
M  V30 14563 N 1365.76 -1.381 -0.759346 0
M  V30 14564 C 1367.01 -1.3419 -1.52055 0
M  V30 14565 C 1367.34 0.0697657 -1.94075 0
M  V30 14566 O 1366.62 1.02975 -1.65004 0
M  V30 14567 C 1366.9 -2.29236 -2.7771 0
M  V30 14568 C 1366.75 -3.79237 -2.41866 0
M  V30 14569 C 1368.07 -2.22511 -3.79706 0
M  V30 14570 H 1365.19 -0.488768 -0.551611 0
M  V30 14571 H 1367.83 -1.68902 -0.870174 0
M  V30 14572 H 1365.98 -1.99764 -3.33206 0
M  V30 14573 H 1367.66 -4.19358 -1.92189 0
M  V30 14574 H 1365.9 -3.97199 -1.74399 0
M  V30 14575 H 1366.57 -4.41193 -3.31742 0
M  V30 14576 H 1369.05 -2.48516 -3.33735 0
M  V30 14577 H 1367.92 -2.91134 -4.6533 0
M  V30 14578 H 1368.18 -1.22206 -4.24874 0
M  V30 14579 N 1367.24 0.986894 -1.22875 0
M  V30 14580 C 1368.19 2.07811 -1.00416 0
M  V30 14581 C 1369.16 1.65925 0.0761734 0
M  V30 14582 O 1370.34 1.90654 -0.0746294 0
M  V30 14583 C 1367.48 3.39941 -0.594471 0
M  V30 14584 C 1366.6 3.95134 -1.74622 0
M  V30 14585 C 1365.73 5.1545 -1.28394 0
M  V30 14586 C 1364.77 5.62794 -2.40686 0
M  V30 14587 N 1363.91 6.74343 -1.95462 0
M  V30 14588 H 1368.75 2.26356 -1.93822 0
M  V30 14589 H 1366.29 1.10966 -0.965661 0
M  V30 14590 H 1368.24 4.15828 -0.338078 0
M  V30 14591 H 1366.87 3.21379 0.302587 0
M  V30 14592 H 1365.93 3.16064 -2.11679 0
M  V30 14593 H 1367.24 4.26247 -2.59066 0
M  V30 14594 H 1366.39 5.98646 -0.98529 0
M  V30 14595 H 1365.13 4.85975 -0.409789 0
M  V30 14596 H 1364.14 4.78182 -2.71333 0
M  V30 14597 H 1365.36 5.9429 -3.28627 0
M  V30 14598 H 1363.31 6.46641 -1.10417 0
M  V30 14599 H 1363.22 7.04806 -2.73469 0
M  V30 14600 H 1364.49 7.6103 -1.68683 0
M  V30 14601 N 1368.72 1.0394 1.18466 0
M  V30 14602 C 1369.95 0.760909 1.92077 0
M  V30 14603 C 1370.36 -0.685622 1.7634 0
M  V30 14604 O 1369.7 -1.47894 1.08963 0
M  V30 14605 C 1369.76 1.04583 3.43952 0
M  V30 14606 C 1369.43 2.48602 3.83466 0
M  V30 14607 C 1370.42 3.46775 3.87354 0
M  V30 14608 C 1368.11 2.8328 4.14798 0
M  V30 14609 C 1370.1 4.77678 4.22022 0
M  V30 14610 C 1367.79 4.1439 4.49138 0
M  V30 14611 C 1368.79 5.11399 4.52725 0
M  V30 14612 O 1368.48 6.40159 4.86264 0
M  V30 14613 H 1368.21 0.276991 0.616646 0
M  V30 14614 H 1370.76 1.3898 1.5124 0
M  V30 14615 H 1368.99 0.359807 3.85022 0
M  V30 14616 H 1370.68 0.755336 3.9881 0
M  V30 14617 H 1371.45 3.21323 3.63286 0
M  V30 14618 H 1367.33 2.08444 4.11184 0
M  V30 14619 H 1370.87 5.53393 4.24737 0
M  V30 14620 H 1366.77 4.39611 4.72666 0
M  V30 14621 H 1367.54 6.4479 5.04171 0
M  V30 14622 N 1370.2 -1.34667 0.818693 0
M  V30 14623 C 1371.13 -2.32134 0.252239 0
M  V30 14624 C 1372.11 -1.58044 -0.628982 0
M  V30 14625 O 1373.29 -1.86049 -0.55674 0
M  V30 14626 C 1370.42 -3.42249 -0.590183 0
M  V30 14627 C 1369.38 -4.27562 0.193547 0
M  V30 14628 C 1368.7 -5.29107 -0.771349 0
M  V30 14629 C 1370 -5.03205 1.39936 0
M  V30 14630 H 1371.7 -2.79758 1.06657 0
M  V30 14631 H 1369.24 -1.34502 0.514325 0
M  V30 14632 H 1371.2 -4.09445 -0.996616 0
M  V30 14633 H 1369.92 -2.93262 -1.43752 0
M  V30 14634 H 1368.58 -3.61962 0.581297 0
M  V30 14635 H 1368.23 -4.76384 -1.61453 0
M  V30 14636 H 1367.93 -5.87063 -0.251201 0
M  V30 14637 H 1369.45 -5.99174 -1.17573 0
M  V30 14638 H 1370.87 -5.6328 1.06717 0
M  V30 14639 H 1369.26 -5.70715 1.85485 0
M  V30 14640 H 1370.33 -4.33145 2.17976 0
M  V30 14641 N 1371.68 -0.573274 -1.46804 0
M  V30 14642 C 1372.92 -0.0551522 -2.02025 0
M  V30 14643 C 1373.25 1.30577 -1.44826 0
M  V30 14644 O 1372.52 1.85514 -0.629403 0
M  V30 14645 H 1371.1 -0.0173982 -0.746797 0
M  V30 14646 H 1373.76 -0.746919 -1.8002 0
M  V30 14647 H 1372.85 0.0209326 -3.12093 0
M  V30 14648 N 1373.15 1.5451 -0.310553 0
M  V30 14649 C 1374.38 2.04442 0.297807 0
M  V30 14650 C 1374.79 1.18695 1.47337 0
M  V30 14651 O 1374.14 0.207405 1.82525 0
M  V30 14652 C 1374.2 3.50306 0.807851 0
M  V30 14653 C 1373.86 4.5635 -0.24369 0
M  V30 14654 C 1374.86 5.08656 -1.07539 0
M  V30 14655 C 1372.54 5.00798 -0.388138 0
M  V30 14656 C 1374.54 6.03961 -2.03738 0
M  V30 14657 C 1372.22 5.95921 -1.35357 0
M  V30 14658 C 1373.22 6.47387 -2.17667 0
M  V30 14659 O 1372.91 7.40644 -3.12571 0
M  V30 14660 H 1372.64 0.672646 0.0672525 0
M  V30 14661 H 1375.2 2.00389 -0.450948 0
M  V30 14662 H 1373.43 3.51714 1.6073 0
M  V30 14663 H 1375.12 3.83383 1.33314 0
M  V30 14664 H 1375.88 4.75105 -0.97471 0
M  V30 14665 H 1371.76 4.60361 0.242608 0
M  V30 14666 H 1375.3 6.44057 -2.68023 0
M  V30 14667 H 1371.2 6.2889 -1.45493 0
M  V30 14668 H 1371.97 7.58477 -3.0766 0
M  V30 14669 N 1374.63 0.0384594 1.57553 0
M  V30 14670 C 1375.56 -0.938444 2.13812 0
M  V30 14671 C 1376.54 -1.33307 1.05657 0
M  V30 14672 O 1377.73 -1.41003 1.33535 0
M  V30 14673 C 1374.86 -2.21764 2.67279 0
M  V30 14674 C 1373.81 -1.96347 3.80305 0
M  V30 14675 C 1373.14 -3.30612 4.20238 0
M  V30 14676 C 1374.44 -1.2952 5.05986 0
M  V30 14677 H 1376.13 -0.469887 2.9569 0
M  V30 14678 H 1373.68 -0.224576 1.42238 0
M  V30 14679 H 1375.63 -2.90493 3.05273 0
M  V30 14680 H 1374.36 -2.70802 1.82576 0
M  V30 14681 H 1373.02 -1.30033 3.42764 0
M  V30 14682 H 1372.66 -3.77427 3.32502 0
M  V30 14683 H 1372.36 -3.14409 4.96408 0
M  V30 14684 H 1373.89 -4.00594 4.60822 0
M  V30 14685 H 1375.3 -1.88264 5.41507 0
M  V30 14686 H 1373.7 -1.23685 5.87216 0
M  V30 14687 H 1374.77 -0.269439 4.84151 0
M  V30 14688 N 1376.11 -1.55841 -0.234795 0
M  V30 14689 C 1377.04 -1.94344 -1.29432 0
M  V30 14690 C 1378.02 -0.809912 -1.49581 0
M  V30 14691 O 1379.21 -1.07117 -1.61986 0
M  V30 14692 C 1376.34 -2.24866 -2.64675 0
M  V30 14693 C 1375.29 -3.40584 -2.59203 0
M  V30 14694 C 1374.62 -3.56678 -3.98353 0
M  V30 14695 C 1375.92 -4.75935 -2.15135 0
M  V30 14696 H 1377.61 -2.83096 -0.97454 0
M  V30 14697 H 1375.16 -1.36205 -0.467355 0
M  V30 14698 H 1377.11 -2.50392 -3.38942 0
M  V30 14699 H 1375.83 -1.32953 -2.98314 0
M  V30 14700 H 1374.49 -3.15087 -1.87393 0
M  V30 14701 H 1374.14 -2.62164 -4.29277 0
M  V30 14702 H 1373.84 -4.34503 -3.95577 0
M  V30 14703 H 1375.37 -3.84538 -4.74302 0
M  V30 14704 H 1376.78 -5.00753 -2.7914 0
M  V30 14705 H 1375.18 -5.56949 -2.23446 0
M  V30 14706 H 1376.25 -4.72182 -1.10328 0
M  V30 14707 N 1377.59 0.500963 -1.49426 0
M  V30 14708 C 1378.54 1.6025 -1.66098 0
M  V30 14709 C 1379.51 1.58318 -0.502453 0
M  V30 14710 O 1380.69 1.76304 -0.729482 0
M  V30 14711 C 1377.83 2.98396 -1.73361 0
M  V30 14712 C 1376.94 3.10343 -3.00518 0
M  V30 14713 C 1376.08 4.39222 -2.9876 0
M  V30 14714 C 1375.12 4.44803 -4.20496 0
M  V30 14715 N 1374.26 5.6511 -4.16648 0
M  V30 14716 H 1379.1 1.45342 -2.60153 0
M  V30 14717 H 1376.63 0.707147 -1.28988 0
M  V30 14718 H 1378.59 3.78467 -1.75553 0
M  V30 14719 H 1377.22 3.12007 -0.827718 0
M  V30 14720 H 1376.27 2.23336 -3.07937 0
M  V30 14721 H 1377.58 3.10327 -3.90511 0
M  V30 14722 H 1376.74 5.27613 -2.99515 0
M  V30 14723 H 1375.48 4.41804 -2.06545 0
M  V30 14724 H 1374.48 3.54814 -4.19985 0
M  V30 14725 H 1375.71 4.43937 -5.13903 0
M  V30 14726 H 1373.65 5.68533 -3.2727 0
M  V30 14727 H 1373.57 5.6671 -5.00376 0
M  V30 14728 H 1374.84 6.55708 -4.21506 0
M  V30 14729 N 1379.07 1.38501 0.752011 0
M  V30 14730 C 1379.98 1.38094 1.8965 0
M  V30 14731 C 1380.99 0.277851 1.71767 0
M  V30 14732 O 1382.17 0.516536 1.94663 0
M  V30 14733 C 1379.23 1.2063 3.25037 0
M  V30 14734 C 1378.3 2.40758 3.55435 0
M  V30 14735 C 1377.53 2.24118 4.84362 0
M  V30 14736 O 1377.75 1.23571 5.56854 0
M  V30 14737 O 1376.69 3.12741 5.14273 0
M  V30 14738 H 1380.51 2.34532 1.92947 0
M  V30 14739 H 1378.1 1.19437 0.897504 0
M  V30 14740 H 1379.98 1.12957 4.05979 0
M  V30 14741 H 1378.65 0.272785 3.22549 0
M  V30 14742 H 1377.56 2.54006 2.74648 0
M  V30 14743 H 1378.89 3.32745 3.62686 0
M  V30 14744 N 1380.55 -0.980364 1.23396 0
M  V30 14745 C 1381.79 -1.71826 1.06397 0
M  V30 14746 C 1382.11 -1.90854 -0.399958 0
M  V30 14747 O 1381.38 -1.47721 -1.28668 0
M  V30 14748 H 1379.96 -0.636669 0.390719 0
M  V30 14749 H 1382.63 -1.18008 1.55113 0
M  V30 14750 H 1381.72 -2.7078 1.55192 0
M  V30 14751 N 1382.02 -1.04567 -1.17913 0
M  V30 14752 C 1382.96 -0.599154 -2.2123 0
M  V30 14753 C 1383.97 0.333824 -1.59341 0
M  V30 14754 O 1385.16 0.127548 -1.78044 0
M  V30 14755 C 1382.26 0.144045 -3.38594 0
M  V30 14756 C 1381.43 -0.798061 -4.30058 0
M  V30 14757 C 1380.49 -0.0972548 -5.2611 0
M  V30 14758 O 1379.52 -0.729318 -5.64508 0
M  V30 14759 N 1380.72 1.16759 -5.68637 0
M  V30 14760 H 1383.48 -1.48781 -2.60162 0
M  V30 14761 H 1381.04 -0.926787 -1.32749 0
M  V30 14762 H 1383.04 0.622843 -3.99878 0
M  V30 14763 H 1381.61 0.934292 -2.98311 0
M  V30 14764 H 1380.83 -1.45662 -3.66301 0
M  V30 14765 H 1382.11 -1.43777 -4.88063 0
M  V30 14766 H 1381.51 1.70155 -5.39503 0
M  V30 14767 H 1380.07 1.59057 -6.32095 0
M  V30 14768 N 1383.5 1.34231 -0.825823 0
M  V30 14769 C 1384.92 1.51166 -0.511945 0
M  V30 14770 C 1385.12 1.76981 0.963318 0
M  V30 14771 O 1384.17 1.82243 1.74767 0
M  V30 14772 C 1385.49 2.67474 -1.37399 0
M  V30 14773 C 1387.03 2.81356 -1.37141 0
M  V30 14774 C 1387.51 4.0071 -2.218 0
M  V30 14775 N 1389 4.07922 -2.19439 0
M  V30 14776 C 1389.74 4.99438 -2.81691 0
M  V30 14777 N 1389.23 5.96157 -3.52944 0
M  V30 14778 N 1391.02 4.92332 -2.7123 0
M  V30 14779 H 1383.18 1.15734 -1.78099 0
M  V30 14780 H 1385.44 0.567856 -0.759107 0
M  V30 14781 H 1385.14 2.55036 -2.42176 0
M  V30 14782 H 1385.02 3.62558 -1.04075 0
M  V30 14783 H 1387.41 2.93233 -0.331405 0
M  V30 14784 H 1387.49 1.87072 -1.74464 0
M  V30 14785 H 1387.13 3.89593 -3.25852 0
M  V30 14786 H 1387.06 4.94213 -1.81826 0
M  V30 14787 H 1389.55 3.38695 -1.67612 0
M  V30 14788 H 1389.86 6.62623 -3.97682 0
M  V30 14789 H 1388.21 5.96272 -3.5705 0
M  V30 14790 H 1391.4 4.15733 -2.15137 0
M  V30 14791 H 1391.57 5.63458 -3.20031 0
M  V30 14792 N 1384.98 0.581051 1.46498 0
M  V30 14793 C 1386.23 0.07442 2.03264 0
M  V30 14794 C 1386.58 -1.27069 1.44469 0
M  V30 14795 O 1385.87 -1.8197 0.599785 0
M  V30 14796 C 1386.07 -0.0514774 3.57363 0
M  V30 14797 C 1385.9 1.27988 4.31102 0
M  V30 14798 C 1384.67 1.85358 4.70075 0
M  V30 14799 C 1386.86 2.20268 4.64743 0
M  V30 14800 N 1384.85 3.1225 5.28558 0
M  V30 14801 C 1386.22 3.31746 5.23779 0
M  V30 14802 C 1388.27 2.19969 4.46675 0
M  V30 14803 C 1386.98 4.43056 5.66652 0
M  V30 14804 C 1389 3.30307 4.90562 0
M  V30 14805 C 1388.36 4.40505 5.49667 0
M  V30 14806 H 1384.46 0.0699705 0.778863 0
M  V30 14807 H 1387.05 0.773585 1.78672 0
M  V30 14808 H 1385.22 -0.719807 3.81672 0
M  V30 14809 H 1386.95 -0.562342 4.00774 0
M  V30 14810 H 1383.7 1.3887 4.52782 0
M  V30 14811 H 1384.13 3.76992 5.62322 0
M  V30 14812 H 1388.77 1.36044 4.00315 0
M  V30 14813 H 1386.49 5.27724 6.11991 0
M  V30 14814 H 1390.07 3.31191 4.78334 0
M  V30 14815 H 1388.95 5.24475 5.83006 0
M  V30 14816 N 1386.46 -1.54343 0.318742 0
M  V30 14817 C 1387.39 -2.27118 -0.542206 0
M  V30 14818 C 1388.37 -1.27731 -1.12334 0
M  V30 14819 O 1389.55 -1.56535 -1.14937 0
M  V30 14820 C 1386.68 -3.02535 -1.70558 0
M  V30 14821 C 1385.64 -4.09218 -1.25398 0
M  V30 14822 C 1384.96 -4.72449 -2.50391 0
M  V30 14823 C 1386.26 -5.20971 -0.372332 0
M  V30 14824 H 1387.96 -2.9933 0.0648226 0
M  V30 14825 H 1385.5 -1.43963 0.0326168 0
M  V30 14826 H 1387.46 -3.52174 -2.31412 0
M  V30 14827 H 1386.18 -2.27931 -2.33912 0
M  V30 14828 H 1384.84 -3.60455 -0.668392 0
M  V30 14829 H 1384.49 -3.94466 -3.12099 0
M  V30 14830 H 1384.19 -5.4451 -2.20868 0
M  V30 14831 H 1385.71 -5.2486 -3.12016 0
M  V30 14832 H 1387.13 -5.66396 -0.887029 0
M  V30 14833 H 1385.52 -5.99859 -0.17009 0
M  V30 14834 H 1386.59 -4.81198 0.598064 0
M  V30 14835 N 1387.94 -0.0468143 -1.5753 0
M  V30 14836 C 1389.16 0.637648 -1.96829 0
M  V30 14837 C 1389.58 1.64635 -0.924158 0
M  V30 14838 O 1388.94 1.82267 0.0921139 0
M  V30 14839 C 1388.99 1.32842 -3.36207 0
M  V30 14840 O 1388.71 0.360111 -4.36617 0
M  V30 14841 C 1390.21 2.10305 -3.90239 0
M  V30 14842 H 1387.43 0.174634 -0.647876 0
M  V30 14843 H 1389.97 -0.111824 -2.04194 0
M  V30 14844 H 1388.13 2.02915 -3.30006 0
M  V30 14845 H 1388.54 0.852661 -5.17523 0
M  V30 14846 H 1390.02 2.54065 -4.90056 0
M  V30 14847 H 1390.49 2.94942 -3.25432 0
M  V30 14848 H 1391.1 1.45152 -3.99764 0
M  V30 14849 N 1389.41 1.55964 0.226527 0
M  V30 14850 C 1390.32 1.95169 1.30178 0
M  V30 14851 C 1391.34 0.854831 1.51554 0
M  V30 14852 O 1392.52 1.15798 1.64781 0
M  V30 14853 C 1389.58 2.25612 2.63249 0
M  V30 14854 C 1388.64 3.4884 2.50219 0
M  V30 14855 C 1387.88 3.77822 3.76944 0
M  V30 14856 O 1388.1 3.08556 4.79739 0
M  V30 14857 O 1387.03 4.7132 3.74354 0
M  V30 14858 H 1390.86 2.86794 0.999145 0
M  V30 14859 H 1388.44 1.43109 0.42898 0
M  V30 14860 H 1390.33 2.4641 3.41848 0
M  V30 14861 H 1389 1.37162 2.93203 0
M  V30 14862 H 1387.91 3.33326 1.69836 0
M  V30 14863 H 1389.24 4.37657 2.25205 0
M  V30 14864 N 1390.89 -0.493031 1.4969 0
M  V30 14865 C 1391.86 -1.57598 1.6642 0
M  V30 14866 C 1392.86 -1.51615 0.535668 0
M  V30 14867 O 1394.05 -1.54626 0.802283 0
M  V30 14868 C 1391.18 -2.97249 1.66901 0
M  V30 14869 H 1392.37 -1.4409 2.63017 0
M  V30 14870 H 1389.92 -0.717846 1.3884 0
M  V30 14871 H 1390.66 -3.16225 0.719164 0
M  V30 14872 H 1390.44 -3.02999 2.48865 0
M  V30 14873 H 1391.93 -3.75914 1.81874 0
M  V30 14874 N 1392.37 -1.38898 -0.744656 0
M  V30 14875 C 1393.79 -1.20291 -1.04892 0
M  V30 14876 C 1393.99 -0.0577705 -2.01417 0
M  V30 14877 O 1393.04 0.593638 -2.45422 0
M  V30 14878 C 1394.36 -2.53302 -1.62045 0
M  V30 14879 C 1395.9 -2.60063 -1.74173 0
M  V30 14880 C 1396.38 -3.93272 -2.34736 0
M  V30 14881 N 1397.87 -3.9486 -2.42157 0
M  V30 14882 C 1398.6 -4.94698 -2.89933 0
M  V30 14883 N 1398.1 -6.04934 -3.37678 0
M  V30 14884 N 1399.89 -4.82083 -2.89055 0
M  V30 14885 H 1392.04 -2.12144 -0.104294 0
M  V30 14886 H 1394.31 -0.941725 -0.108895 0
M  V30 14887 H 1394.01 -3.376 -0.985868 0
M  V30 14888 H 1393.89 -2.72335 -2.60986 0
M  V30 14889 H 1396.27 -1.76155 -2.36756 0
M  V30 14890 H 1396.36 -2.44889 -0.739115 0
M  V30 14891 H 1396 -4.77607 -1.72784 0
M  V30 14892 H 1395.93 -4.05762 -3.35656 0
M  V30 14893 H 1398.42 -3.15243 -2.08399 0
M  V30 14894 H 1398.73 -6.77036 -3.72616 0
M  V30 14895 H 1397.08 -6.08541 -3.35712 0
M  V30 14896 H 1400.27 -3.9507 -2.51072 0
M  V30 14897 H 1400.44 -5.60039 -3.25975 0
M  V30 14898 N 1393.85 0.973806 -1.23914 0
M  V30 14899 C 1394.8 2.06734 -1.02614 0
M  V30 14900 C 1395.77 1.65997 0.0585705 0
M  V30 14901 O 1396.95 1.90564 -0.0948467 0
M  V30 14902 C 1394.09 3.39292 -0.630493 0
M  V30 14903 C 1393.2 3.9326 -1.78803 0
M  V30 14904 C 1392.34 5.14059 -1.33854 0
M  V30 14905 C 1391.38 5.60209 -2.46642 0
M  V30 14906 N 1390.51 6.72232 -2.02603 0
M  V30 14907 H 1395.35 2.24287 -1.96212 0
M  V30 14908 H 1392.89 1.09935 -0.977376 0
M  V30 14909 H 1394.85 4.15446 -0.382163 0
M  V30 14910 H 1393.48 3.21682 0.268483 0
M  V30 14911 H 1392.53 3.13801 -2.15019 0
M  V30 14912 H 1393.84 4.23475 -2.63573 0
M  V30 14913 H 1393 5.97567 -1.04873 0
M  V30 14914 H 1391.74 4.85513 -0.46131 0
M  V30 14915 H 1390.74 4.75278 -2.7639 0
M  V30 14916 H 1391.97 5.90771 -3.34912 0
M  V30 14917 H 1389.91 6.45433 -1.17269 0
M  V30 14918 H 1389.83 7.01865 -2.80929 0
M  V30 14919 H 1391.1 7.59198 -1.76745 0
M  V30 14920 N 1395.33 1.05191 1.17357 0
M  V30 14921 C 1396.24 0.663617 2.25018 0
M  V30 14922 C 1397.25 -0.315299 1.71119 0
M  V30 14923 O 1398.43 -0.167398 2.00703 0
M  V30 14924 C 1395.49 0.0443307 3.46672 0
M  V30 14925 C 1394.55 1.07369 4.15656 0
M  V30 14926 C 1393.79 0.483864 5.31502 0
M  V30 14927 O 1394.01 -0.706692 5.66005 0
M  V30 14928 O 1392.94 1.21812 5.89445 0
M  V30 14929 H 1396.77 1.56088 2.60519 0
M  V30 14930 H 1394.36 0.823474 1.24657 0
M  V30 14931 H 1396.24 -0.299839 4.20332 0
M  V30 14932 H 1394.91 -0.826579 3.12969 0
M  V30 14933 H 1393.82 1.46985 3.44015 0
M  V30 14934 H 1395.15 1.91575 4.53387 0
M  V30 14935 N 1396.8 -1.33791 0.83293 0
M  V30 14936 C 1398.03 -2.02187 0.439077 0
M  V30 14937 C 1398.45 -1.62692 -0.957958 0
M  V30 14938 O 1397.8 -0.837302 -1.62159 0
M  V30 14939 C 1397.86 -3.57395 0.543232 0
M  V30 14940 O 1397.58 -3.95463 1.88522 0
M  V30 14941 C 1399.08 -4.43061 0.145567 0
M  V30 14942 H 1396.3 -0.64778 0.174992 0
M  V30 14943 H 1398.84 -1.7085 1.12386 0
M  V30 14944 H 1397 -3.87287 -0.0935746 0
M  V30 14945 H 1397.41 -4.90164 1.86653 0
M  V30 14946 H 1398.88 -5.51342 0.269507 0
M  V30 14947 H 1399.36 -4.29628 -0.911934 0
M  V30 14948 H 1399.97 -4.18517 0.756572 0
M  V30 14949 N 1398.28 -0.588812 -1.46187 0
M  V30 14950 C 1399.53 -0.0768417 -2.02654 0
M  V30 14951 C 1399.86 1.28213 -1.4586 0
M  V30 14952 O 1399.14 1.8415 -0.626022 0
M  V30 14953 C 1399.42 -0.0176429 -3.60096 0
M  V30 14954 C 1399.27 -1.40595 -4.27262 0
M  V30 14955 C 1400.59 0.679864 -4.34817 0
M  V30 14956 H 1397.71 -0.0293981 -0.736413 0
M  V30 14957 H 1400.35 -0.757183 -1.74261 0
M  V30 14958 H 1398.5 0.56174 -3.84417 0
M  V30 14959 H 1400.17 -2.03097 -4.14185 0
M  V30 14960 H 1398.42 -1.97196 -3.86388 0
M  V30 14961 H 1399.09 -1.31694 -5.3606 0
M  V30 14962 H 1401.56 0.1876 -4.15677 0
M  V30 14963 H 1400.44 0.690333 -5.44542 0
M  V30 14964 H 1400.7 1.74237 -4.06318 0
M  V30 14965 N 1399.76 1.54172 -0.326923 0
M  V30 14966 C 1400.69 2.20703 0.580137 0
M  V30 14967 C 1401.67 1.18523 1.11315 0
M  V30 14968 O 1402.86 1.47276 1.17652 0
M  V30 14969 C 1399.98 2.87137 1.79638 0
M  V30 14970 C 1399.03 4.03064 1.39432 0
M  V30 14971 S 1399.86 5.33785 0.428179 0
M  V30 14972 C 1401.02 6.03715 1.65163 0
M  V30 14973 H 1401.25 2.97296 0.0149964 0
M  V30 14974 H 1398.78 1.54 -0.111004 0
M  V30 14975 H 1400.74 3.26035 2.49423 0
M  V30 14976 H 1399.4 2.1034 2.33272 0
M  V30 14977 H 1398.6 4.48424 2.3007 0
M  V30 14978 H 1398.2 3.65858 0.776144 0
M  V30 14979 H 1400.49 6.26098 2.58858 0
M  V30 14980 H 1401.43 6.97156 1.24014 0
M  V30 14981 H 1401.84 5.33666 1.84014 0
M  V30 14982 N 1401.24 0.0551678 1.57503 0
M  V30 14983 C 1402.49 -0.6165 1.92467 0
M  V30 14984 C 1402.81 -1.71147 0.934552 0
M  V30 14985 O 1402.08 -1.9589 -0.0199649 0
M  V30 14986 H 1400.66 -0.230714 0.710479 0
M  V30 14987 H 1403.32 0.109111 1.94594 0
M  V30 14988 H 1402.42 -1.05254 2.93816 0
M  V30 14989 N 1402.72 -1.56081 -0.218252 0
M  V30 14990 C 1403.65 -1.89176 -1.29403 0
M  V30 14991 C 1404.66 -0.780312 -1.42881 0
M  V30 14992 O 1405.85 -1.05863 -1.4372 0
M  V30 14993 C 1402.95 -2.08818 -2.66923 0
M  V30 14994 C 1402.12 -3.39854 -2.75351 0
M  V30 14995 C 1401.18 -3.48889 -3.93908 0
M  V30 14996 O 1400.21 -4.21894 -3.82091 0
M  V30 14997 N 1401.41 -2.80273 -5.08357 0
M  V30 14998 H 1404.18 -2.82047 -1.01338 0
M  V30 14999 H 1401.74 -1.56667 -0.408278 0
M  V30 15000 H 1403.73 -2.12175 -3.44622 0
M  V30 15001 H 1402.3 -1.22557 -2.87574 0
M  V30 15002 H 1401.52 -3.48568 -1.84104 0
M  V30 15003 H 1402.81 -4.26168 -2.77954 0
M  V30 15004 H 1402.2 -2.20744 -5.20854 0
M  V30 15005 H 1400.76 -2.89286 -5.84086 0
M  V30 15006 N 1404.2 0.485086 -1.49949 0
M  V30 15007 C 1405.61 1.06629 -1.53255 0
M  V30 15008 C 1405.96 1.9344 -0.327915 0
M  V30 15009 O 1405.08 2.09011 0.560669 0
M  V30 15010 C 1405.68 1.94053 -2.77721 0
M  V30 15011 C 1404.24 2.47307 -2.83754 0
M  V30 15012 C 1403.38 1.25307 -2.47373 0
M  V30 15013 H 1406.33 0.268297 -1.56416 0
M  V30 15014 H 1406.36 2.78946 -2.58784 0
M  V30 15015 H 1405.87 1.30843 -3.65379 0
M  V30 15016 H 1403.97 3.1411 -2.00414 0
M  V30 15017 H 1404.08 2.83371 -3.86313 0
M  V30 15018 H 1402.45 1.5834 -1.99501 0
M  V30 15019 H 1403.23 0.637815 -3.37323 0
M  V30 15020 N 1405.67 1.39291 0.737279 0
M  V30 15021 C 1406.9 1.39659 1.52653 0
M  V30 15022 C 1407.32 -0.00948259 1.88798 0
M  V30 15023 O 1406.67 -0.980249 1.53939 0
M  V30 15024 C 1406.72 2.2674 2.81552 0
M  V30 15025 O 1406.45 3.61871 2.46943 0
M  V30 15026 C 1407.95 2.35466 3.75594 0
M  V30 15027 H 1405.17 0.477108 0.471814 0
M  V30 15028 H 1407.71 1.83077 0.911205 0
M  V30 15029 H 1405.87 1.86741 3.39421 0
M  V30 15030 H 1406.28 4.07897 3.29728 0
M  V30 15031 H 1407.75 3.00649 4.62941 0
M  V30 15032 H 1408.23 1.37314 4.17183 0
M  V30 15033 H 1408.84 2.75925 3.23644 0
M  V30 15034 N 1407.15 -0.967221 1.24429 0
M  V30 15035 C 1408.56 -1.52488 1.07723 0
M  V30 15036 C 1408.91 -1.93031 -0.351191 0
M  V30 15037 O 1408.04 -1.77376 -1.23963 0
M  V30 15038 C 1408.63 -2.77107 1.94929 0
M  V30 15039 C 1407.19 -3.29227 1.82446 0
M  V30 15040 C 1406.34 -2.02133 1.89835 0
M  V30 15041 H 1409.29 -0.785465 1.37899 0
M  V30 15042 H 1409.31 -3.50459 1.48186 0
M  V30 15043 H 1408.82 -2.47567 2.98885 0
M  V30 15044 H 1406.92 -3.63617 0.813246 0
M  V30 15045 H 1407.04 -3.98095 2.66566 0
M  V30 15046 H 1405.4 -2.16867 1.3357 0
M  V30 15047 H 1406.18 -1.74958 2.95372 0
M  V30 15048 N 1408.63 -1.05812 -1.16797 0
M  V30 15049 C 1409.58 -0.664599 -2.21024 0
M  V30 15050 C 1410.55 0.336352 -1.62659 0
M  V30 15051 O 1411.73 0.226346 -1.89453 0
M  V30 15052 C 1408.87 -0.0520739 -3.45061 0
M  V30 15053 C 1407.98 -1.10261 -4.17692 0
M  V30 15054 C 1407.12 -0.456746 -5.29233 0
M  V30 15055 C 1406.16 -1.49116 -5.93659 0
M  V30 15056 N 1405.3 -0.869002 -6.96701 0
M  V30 15057 H 1410.14 -1.55784 -2.54038 0
M  V30 15058 H 1407.67 -0.778993 -1.2478 0
M  V30 15059 H 1409.63 0.320552 -4.15967 0
M  V30 15060 H 1408.26 0.804592 -3.12612 0
M  V30 15061 H 1407.31 -1.593 -3.45438 0
M  V30 15062 H 1408.62 -1.88757 -4.61706 0
M  V30 15063 H 1407.78 -0.0308814 -6.06692 0
M  V30 15064 H 1406.52 0.360131 -4.86369 0
M  V30 15065 H 1405.52 -1.92697 -5.14925 0
M  V30 15066 H 1406.75 -2.31005 -6.38603 0
M  V30 15067 H 1404.69 -0.0727494 -6.5596 0
M  V30 15068 H 1404.61 -1.59141 -7.3906 0
M  V30 15069 H 1405.88 -0.46812 -7.78093 0
M  V30 15070 N 1410.11 1.33347 -0.840014 0
M  V30 15071 C 1411.34 2.01952 -0.449793 0
M  V30 15072 C 1411.75 1.63197 0.949317 0
M  V30 15073 O 1411.11 0.84589 1.61713 0
M  V30 15074 C 1411.16 3.57102 -0.562178 0
M  V30 15075 O 1410.88 3.94458 -1.90616 0
M  V30 15076 C 1412.38 4.42978 -0.169062 0
M  V30 15077 H 1409.6 0.646843 -0.178425 0
M  V30 15078 H 1412.14 1.70251 -1.1329 0
M  V30 15079 H 1410.3 3.87331 0.0730345 0
M  V30 15080 H 1410.71 4.89167 -1.8925 0
M  V30 15081 H 1412.19 5.51191 -0.298742 0
M  V30 15082 H 1412.66 4.30106 0.889137 0
M  V30 15083 H 1413.27 4.18109 -0.778756 0
M  V30 15084 N 1411.59 0.596556 1.45873 0
M  V30 15085 C 1413 0.173758 1.8589 0
M  V30 15086 C 1413.35 -1.26665 1.49835 0
M  V30 15087 O 1412.47 -1.9588 0.919773 0
M  V30 15088 C 1413.07 0.308567 3.37392 0
M  V30 15089 C 1411.63 -0.0594585 3.76353 0
M  V30 15090 C 1410.77 0.638127 2.69858 0
M  V30 15091 H 1413.72 0.803928 1.36831 0
M  V30 15092 H 1413.75 -0.462294 3.77681 0
M  V30 15093 H 1413.26 1.35701 3.63603 0
M  V30 15094 H 1411.36 -1.1075 3.5576 0
M  V30 15095 H 1411.47 0.326506 4.77986 0
M  V30 15096 H 1409.84 0.0769147 2.54584 0
M  V30 15097 H 1410.62 1.68849 2.98906 0
M  V30 15098 N 1413.06 -1.53996 0.335095 0
M  V30 15099 C 1414.48 -1.59591 -0.0171422 0
M  V30 15100 C 1414.68 -1.35132 -1.49471 0
M  V30 15101 O 1413.74 -1.14141 -2.25229 0
M  V30 15102 C 1415.05 -2.97872 0.411443 0
M  V30 15103 C 1416.6 -3.10887 0.363072 0
M  V30 15104 C 1417.07 -4.51532 0.766995 0
M  V30 15105 N 1418.56 -4.57557 0.72085 0
M  V30 15106 C 1419.3 -5.64516 1.00544 0
M  V30 15107 N 1418.79 -6.79365 1.35777 0
M  V30 15108 N 1420.59 -5.54349 0.930243 0
M  V30 15109 H 1412.74 -1.68151 1.29766 0
M  V30 15110 H 1415 -0.787067 0.528422 0
M  V30 15111 H 1414.71 -3.20809 1.44134 0
M  V30 15112 H 1414.58 -3.76571 -0.217678 0
M  V30 15113 H 1416.97 -2.87679 -0.657642 0
M  V30 15114 H 1417.05 -2.34266 1.02728 0
M  V30 15115 H 1416.69 -4.75474 1.78568 0
M  V30 15116 H 1416.62 -5.26539 0.0803511 0
M  V30 15117 H 1419.11 -3.75079 0.460867 0
M  V30 15118 H 1419.43 -7.56891 1.55999 0
M  V30 15119 H 1417.77 -6.80833 1.39614 0
M  V30 15120 H 1420.96 -4.63503 0.654402 0
M  V30 15121 H 1421.14 -6.37616 1.15539 0
M  V30 15122 N 1414.54 -0.0635198 -1.57472 0
M  V30 15123 C 1415.47 0.93602 -2.09216 0
M  V30 15124 C 1416.49 1.2668 -1.02255 0
M  V30 15125 O 1417.68 1.22543 -1.2979 0
M  V30 15126 C 1414.78 2.25417 -2.53062 0
M  V30 15127 C 1413.95 2.10347 -3.83501 0
M  V30 15128 C 1413.01 3.25394 -4.13528 0
M  V30 15129 O 1412.03 3.00751 -4.83257 0
M  V30 15130 N 1413.24 4.50243 -3.66417 0
M  V30 15131 H 1416 0.494288 -2.95596 0
M  V30 15132 H 1413.56 0.122416 -1.61437 0
M  V30 15133 H 1415.55 3.01272 -2.70217 0
M  V30 15134 H 1414.12 2.61116 -1.71864 0
M  V30 15135 H 1413.34 1.19009 -3.75807 0
M  V30 15136 H 1414.63 1.97519 -4.68896 0
M  V30 15137 H 1414.03 4.73152 -3.1007 0
M  V30 15138 H 1412.59 5.23152 -3.88787 0
M  V30 15139 N 1416.02 1.56195 0.209972 0
M  V30 15140 C 1416.95 1.96378 1.26324 0
M  V30 15141 C 1417.93 0.833606 1.48273 0
M  V30 15142 O 1419.12 1.0968 1.60262 0
M  V30 15143 C 1416.25 2.29048 2.61064 0
M  V30 15144 C 1415.2 3.44665 2.53752 0
M  V30 15145 C 1414.53 3.6297 3.92628 0
M  V30 15146 C 1415.83 4.79297 2.07536 0
M  V30 15147 H 1417.52 2.8461 0.929379 0
M  V30 15148 H 1415.07 1.36931 0.445627 0
M  V30 15149 H 1417.02 2.55752 3.34916 0
M  V30 15150 H 1415.74 1.37682 2.96161 0
M  V30 15151 H 1414.4 3.18028 1.82356 0
M  V30 15152 H 1414.05 2.68961 4.25052 0
M  V30 15153 H 1413.75 4.40741 3.88614 0
M  V30 15154 H 1415.27 3.92035 4.68125 0
M  V30 15155 H 1416.69 5.05131 2.71138 0
M  V30 15156 H 1415.08 5.60433 2.14557 0
M  V30 15157 H 1416.15 4.73877 1.02802 0
M  V30 15158 N 1417.5 -0.477127 1.50204 0
M  V30 15159 C 1418.91 -0.81037 1.37496 0
M  V30 15160 C 1419.11 -1.96937 0.426399 0
M  V30 15161 O 1418.17 -2.52148 -0.133197 0
M  V30 15162 C 1419.48 -1.12811 2.78737 0
M  V30 15163 C 1421.03 -1.23492 2.87608 0
M  V30 15164 C 1421.51 -1.58583 4.29669 0
M  V30 15165 N 1423 -1.65586 4.32591 0
M  V30 15166 C 1423.73 -1.94231 5.39502 0
M  V30 15167 N 1423.23 -2.20936 6.56627 0
M  V30 15168 N 1425.02 -1.95682 5.26939 0
M  V30 15169 H 1417.17 0.286771 2.10455 0
M  V30 15170 H 1419.43 0.0657649 0.945716 0
M  V30 15171 H 1419.14 -0.349616 3.49958 0
M  V30 15172 H 1419.01 -2.0658 3.15602 0
M  V30 15173 H 1421.4 -2.0041 2.1661 0
M  V30 15174 H 1421.48 -0.277182 2.54294 0
M  V30 15175 H 1421.13 -0.822071 5.01203 0
M  V30 15176 H 1421.06 -2.55497 4.60466 0
M  V30 15177 H 1423.55 -1.47012 3.48132 0
M  V30 15178 H 1423.86 -2.42049 7.33916 0
M  V30 15179 H 1422.21 -2.18341 6.59812 0
M  V30 15180 H 1425.4 -1.74311 4.34434 0
M  V30 15181 H 1425.57 -2.1767 6.10347 0
M  V30 15182 N 1418.98 -1.3968 -0.729882 0
M  V30 15183 C 1419.89 -1.41094 -1.87429 0
M  V30 15184 C 1420.9 -0.305142 -1.71303 0
M  V30 15185 O 1422.08 -0.54744 -1.93817 0
M  V30 15186 C 1419.14 -1.25786 -3.23077 0
M  V30 15187 C 1418.2 -2.46382 -3.5156 0
M  V30 15188 C 1417.44 -2.31795 -4.80735 0
M  V30 15189 O 1417.66 -1.32415 -5.54818 0
M  V30 15190 O 1416.59 -3.20883 -5.09232 0
M  V30 15191 H 1420.42 -2.37571 -1.89192 0
M  V30 15192 H 1418.01 -1.2085 -0.878389 0
M  V30 15193 H 1419.89 -1.19402 -4.0413 0
M  V30 15194 H 1418.56 -0.324065 -3.22074 0
M  V30 15195 H 1417.47 -2.58343 -2.70573 0
M  V30 15196 H 1418.8 -3.38473 -3.57347 0
M  V30 15197 N 1420.45 0.960609 -1.2494 0
M  V30 15198 C 1421.7 1.70448 -1.09333 0
M  V30 15199 C 1422.03 1.91012 0.366687 0
M  V30 15200 O 1421.28 1.4743 1.28697 0
M  V30 15201 C 1421.58 3.09564 -1.78619 0
M  V30 15202 C 1421.25 3.08819 -3.28545 0
M  V30 15203 C 1419.91 3.08323 -3.69446 0
M  V30 15204 C 1422.26 3.02606 -4.24357 0
M  V30 15205 C 1419.59 2.99356 -5.04582 0
M  V30 15206 C 1421.94 2.9518 -5.5951 0
M  V30 15207 C 1420.61 2.93017 -5.99748 0
M  V30 15208 H 1419.88 0.623714 -0.400078 0
M  V30 15209 H 1422.52 1.12273 -1.55136 0
M  V30 15210 H 1420.83 3.71247 -1.2523 0
M  V30 15211 H 1422.53 3.6593 -1.64001 0
M  V30 15212 H 1419.12 3.09974 -2.95997 0
M  V30 15213 H 1423.3 3.02113 -3.93753 0
M  V30 15214 H 1418.56 2.96046 -5.34946 0
M  V30 15215 H 1422.73 2.89333 -6.3345 0
M  V30 15216 H 1420.36 2.85824 -7.04421 0
M  V30 15217 N 1421.93 1.0643 1.16234 0
M  V30 15218 C 1422.86 0.697605 2.22836 0
M  V30 15219 C 1423.84 -0.310563 1.67241 0
M  V30 15220 O 1425.03 -0.185385 1.93313 0
M  V30 15221 C 1422.16 0.0847097 3.47197 0
M  V30 15222 C 1421.11 1.019 4.15693 0
M  V30 15223 C 1420.44 0.269339 5.34021 0
M  V30 15224 C 1421.74 2.34861 4.66516 0
M  V30 15225 H 1423.43 1.58883 2.53765 0
M  V30 15226 H 1420.98 0.765388 1.21975 0
M  V30 15227 H 1422.93 -0.1837 4.20999 0
M  V30 15228 H 1421.66 -0.84154 3.15572 0
M  V30 15229 H 1420.31 1.27218 3.43818 0
M  V30 15230 H 1419.96 -0.660072 4.9865 0
M  V30 15231 H 1419.66 0.892001 5.8079 0
M  V30 15232 H 1421.19 0.00850775 6.10599 0
M  V30 15233 H 1422.6 2.13922 5.31893 0
M  V30 15234 H 1421 2.92637 5.23912 0
M  V30 15235 H 1422.07 2.97834 3.82653 0
M  V30 15236 N 1423.41 -1.329 0.847073 0
M  V30 15237 C 1424.66 -1.9712 0.445872 0
M  V30 15238 C 1424.98 -1.67398 -1.00014 0
M  V30 15239 O 1424.25 -0.977204 -1.69787 0
M  V30 15240 H 1422.83 -0.729247 0.161887 0
M  V30 15241 H 1425.49 -1.62118 1.08184 0
M  V30 15242 H 1424.59 -3.06575 0.584676 0
M  V30 15243 N 1424.89 -0.604284 -1.45555 0
M  V30 15244 C 1426.12 -0.104452 -2.06636 0
M  V30 15245 C 1426.53 1.20976 -1.44949 0
M  V30 15246 O 1425.89 1.73616 -0.562468 0
M  V30 15247 C 1425.94 0.0451646 -3.61472 0
M  V30 15248 O 1425.66 -1.21705 -4.20856 0
M  V30 15249 C 1427.16 0.57684 -4.39531 0
M  V30 15250 H 1424.38 -0.067326 -0.667614 0
M  V30 15251 H 1426.93 -0.831079 -1.86851 0
M  V30 15252 H 1425.08 0.722104 -3.80611 0
M  V30 15253 H 1425.49 -1.04462 -5.13992 0
M  V30 15254 H 1426.97 0.630627 -5.48386 0
M  V30 15255 H 1427.45 1.59842 -4.09081 0
M  V30 15256 H 1428.05 -0.0659444 -4.25249 0
M  V30 15257 N 1426.37 1.53816 -0.343257 0
M  V30 15258 C 1427.33 2.23654 0.501161 0
M  V30 15259 C 1428.33 1.23664 1.02781 0
M  V30 15260 O 1429.52 1.48104 0.917103 0
M  V30 15261 C 1426.65 2.95596 1.69812 0
M  V30 15262 H 1427.84 2.997 -0.109626 0
M  V30 15263 H 1425.4 1.56013 -0.0946011 0
M  V30 15264 H 1426.13 2.23736 2.34761 0
M  V30 15265 H 1425.92 3.68938 1.32768 0
M  V30 15266 H 1427.41 3.48748 2.29706 0
M  V30 15267 N 1427.84 0.0718701 1.57436 0
M  V30 15268 C 1429.09 -0.596052 1.9311 0
M  V30 15269 C 1429.41 -1.70146 0.952652 0
M  V30 15270 O 1428.68 -1.959 0.000812941 0
M  V30 15271 H 1427.26 -0.223165 0.712886 0
M  V30 15272 H 1429.93 0.129744 1.94468 0
M  V30 15273 H 1429.02 -1.02132 2.94916 0
M  V30 15274 N 1429.32 -1.56304 -0.201686 0
M  V30 15275 C 1430.57 -1.80237 -0.923093 0
M  V30 15276 C 1430.9 -0.643994 -1.83529 0
M  V30 15277 O 1430.15 0.370613 -1.92159 0
M  V30 15278 C 1430.45 -3.10101 -1.77686 0
M  V30 15279 C 1430.12 -4.393 -1.0162 0
M  V30 15280 C 1428.78 -4.74399 -0.806161 0
M  V30 15281 C 1431.13 -5.1898 -0.480515 0
M  V30 15282 C 1428.46 -5.8668 -0.0488423 0
M  V30 15283 C 1430.81 -6.32051 0.26356 0
M  V30 15284 C 1429.48 -6.65738 0.484679 0
M  V30 15285 H 1428.75 -0.659533 -0.337784 0
M  V30 15286 H 1431.39 -1.90556 -0.189895 0
M  V30 15287 H 1429.7 -2.9499 -2.57853 0
M  V30 15288 H 1431.39 -3.25823 -2.33753 0
M  V30 15289 H 1427.98 -4.11751 -1.18992 0
M  V30 15290 H 1432.17 -4.92283 -0.630208 0
M  V30 15291 H 1427.42 -6.11256 0.13251 0
M  V30 15292 H 1431.6 -6.93012 0.686058 0
M  V30 15293 H 1429.23 -7.52583 1.07341 0
M  V30 15294 N 1430.8 0.469154 -1.50455 0
M  V30 15295 C 1432.04 1.23092 -1.6318 0
M  V30 15296 C 1432.4 1.89215 -0.325829 0
M  V30 15297 O 1433.61 2.66785 -0.328531 0
M  V30 15298 C 1431.88 2.24527 -2.78069 0
M  V30 15299 S 1433.44 3.09617 -3.10938 0
M  V30 15300 H 1430.25 0.417887 -0.575232 0
M  V30 15301 H 1432.86 0.527616 -1.88246 0
M  V30 15302 H 1431.56 1.74534 -3.71438 0
M  V30 15303 H 1431.09 2.99483 -2.55095 0
M  V30 15304 H 1433.11 4.25716 -2.54913 0
M  V30 15305 N 1432.28 1.40065 0.722464 0
M  V30 15306 C 1433.69 1.21944 1.02965 0
M  V30 15307 C 1433.89 0.0898069 2.013 0
M  V30 15308 O 1432.95 -0.554519 2.46336 0
M  V30 15309 C 1434.26 2.55848 1.57995 0
M  V30 15310 C 1435.81 2.62801 1.70013 0
M  V30 15311 C 1436.29 3.96957 2.2845 0
M  V30 15312 N 1437.78 3.98662 2.35844 0
M  V30 15313 C 1438.51 4.99248 2.82026 0
M  V30 15314 N 1438.01 6.1023 3.28012 0
M  V30 15315 N 1439.8 4.8662 2.81349 0
M  V30 15316 H 1431.95 2.12283 0.0705301 0
M  V30 15317 H 1434.22 0.943338 0.0938991 0
M  V30 15318 H 1433.92 3.39125 0.932034 0
M  V30 15319 H 1433.8 2.76452 2.5662 0
M  V30 15320 H 1436.18 1.799 2.33923 0
M  V30 15321 H 1436.26 2.46034 0.700062 0
M  V30 15322 H 1435.91 4.80295 1.65164 0
M  V30 15323 H 1435.84 4.1105 3.29158 0
M  V30 15324 H 1438.33 3.18518 2.03358 0
M  V30 15325 H 1438.64 6.82878 3.61797 0
M  V30 15326 H 1436.99 6.13805 3.25988 0
M  V30 15327 H 1440.18 3.99015 2.44755 0
M  V30 15328 H 1440.35 5.65155 3.17024 0
M  V30 15329 N 1433.76 -0.95397 1.25448 0
M  V30 15330 C 1434.69 -2.06828 1.08372 0
M  V30 15331 C 1435.67 -1.70098 -0.00741585 0
M  V30 15332 O 1436.85 -1.93521 0.16224 0
M  V30 15333 C 1433.98 -3.40124 0.702365 0
M  V30 15334 C 1432.94 -3.90865 1.74381 0
M  V30 15335 C 1432.26 -5.20663 1.21712 0
M  V30 15336 C 1433.56 -4.17169 3.14273 0
M  V30 15337 H 1435.26 -2.21372 2.01581 0
M  V30 15338 H 1432.8 -1.06374 0.970592 0
M  V30 15339 H 1434.76 -4.17529 0.569837 0
M  V30 15340 H 1433.48 -3.2552 -0.265428 0
M  V30 15341 H 1432.14 -3.15628 1.86479 0
M  V30 15342 H 1431.79 -5.02429 0.23954 0
M  V30 15343 H 1431.49 -5.55581 1.91319 0
M  V30 15344 H 1433.01 -6.00665 1.097 0
M  V30 15345 H 1434.43 -4.85231 3.05325 0
M  V30 15346 H 1432.82 -4.63344 3.81356 0
M  V30 15347 H 1433.89 -3.23421 3.61285 0
M  V30 15348 N 1435.24 -1.07045 -1.15668 0
M  V30 15349 C 1436.48 -0.802736 -1.8689 0
M  V30 15350 C 1436.84 0.663897 -1.80583 0
M  V30 15351 O 1436.13 1.48076 -1.2159 0
M  V30 15352 C 1436.32 -1.24127 -3.35153 0
M  V30 15353 C 1436.15 -2.749 -3.55894 0
M  V30 15354 C 1434.92 -3.42466 -3.71544 0
M  V30 15355 C 1437.12 -3.73102 -3.53977 0
M  V30 15356 N 1435.1 -4.81912 -3.80308 0
M  V30 15357 C 1436.47 -4.98371 -3.68817 0
M  V30 15358 C 1438.53 -3.66304 -3.37233 0
M  V30 15359 C 1437.23 -6.17651 -3.68645 0
M  V30 15360 C 1439.26 -4.85045 -3.38357 0
M  V30 15361 C 1438.62 -6.09146 -3.53725 0
M  V30 15362 H 1434.72 -0.346254 -0.701165 0
M  V30 15363 H 1437.3 -1.36609 -1.3873 0
M  V30 15364 H 1435.47 -0.705653 -3.81936 0
M  V30 15365 H 1437.21 -0.92143 -3.94071 0
M  V30 15366 H 1433.96 -2.92871 -3.72187 0
M  V30 15367 H 1434.38 -5.54475 -3.88441 0
M  V30 15368 H 1439.03 -2.71306 -3.24273 0
M  V30 15369 H 1436.74 -7.12975 -3.80384 0
M  V30 15370 H 1440.33 -4.81458 -3.26634 0
M  V30 15371 H 1439.21 -6.99487 -3.54524 0
M  V30 15372 N 1436.71 1.32449 -0.85411 0
M  V30 15373 C 1437.96 1.96537 -0.453451 0
M  V30 15374 C 1438.28 1.68344 0.995982 0
M  V30 15375 O 1439.48 2.26166 1.50204 0
M  V30 15376 C 1437.94 3.51785 -0.759934 0
M  V30 15377 C 1437.55 3.88838 -2.22506 0
M  V30 15378 C 1439.29 4.22347 -0.426973 0
M  V30 15379 C 1437.2 5.37129 -2.47479 0
M  V30 15380 H 1436.13 0.735537 -0.165835 0
M  V30 15381 H 1438.78 1.50851 -1.04481 0
M  V30 15382 H 1437.16 3.95879 -0.0980116 0
M  V30 15383 H 1438.33 3.55756 -2.92873 0
M  V30 15384 H 1436.65 3.31299 -2.52249 0
M  V30 15385 H 1439.25 5.31424 -0.590986 0
M  V30 15386 H 1439.59 4.11485 0.631359 0
M  V30 15387 H 1440.12 3.83835 -1.04477 0
M  V30 15388 H 1436.86 5.53012 -3.51935 0
M  V30 15389 H 1436.38 5.71619 -1.8169 0
M  V30 15390 H 1438.06 6.04204 -2.31401 0
M  V30 15391 N 1438.19 0.611994 1.45232 0
M  V30 15392 C 1439.6 0.193464 1.85695 0
M  V30 15393 C 1439.95 -1.25069 1.5117 0
M  V30 15394 O 1439.08 -1.94894 0.940497 0
M  V30 15395 C 1439.67 0.344334 3.37046 0
M  V30 15396 C 1438.23 -0.0195378 3.76395 0
M  V30 15397 C 1437.38 0.666714 2.69166 0
M  V30 15398 H 1440.33 0.818395 1.35971 0
M  V30 15399 H 1440.35 -0.422209 3.7815 0
M  V30 15400 H 1439.86 1.3955 3.62143 0
M  V30 15401 H 1437.96 -1.06971 3.56915 0
M  V30 15402 H 1438.08 0.377184 4.77613 0
M  V30 15403 H 1436.44 0.103912 2.54488 0
M  V30 15404 H 1437.22 1.7201 2.97099 0
M  V30 15405 N 1439.67 -1.53632 0.351409 0
M  V30 15406 C 1440.92 -2.00643 -0.242208 0
M  V30 15407 C 1441.24 -1.24074 -1.50435 0
M  V30 15408 O 1440.51 -0.350067 -1.92747 0
M  V30 15409 H 1439.09 -0.741252 -0.0924904 0
M  V30 15410 H 1441.75 -1.89039 0.474379 0
M  V30 15411 H 1440.85 -3.084 -0.479151 0
M  V30 15412 N 1441.15 -0.0802183 -1.57396 0
M  V30 15413 C 1442.39 0.586962 -1.93807 0
M  V30 15414 C 1442.72 1.69107 -0.960887 0
M  V30 15415 O 1441.98 1.95688 0.0220779 0
M  V30 15416 C 1442.28 1.19551 -3.36812 0
M  V30 15417 C 1441.94 0.216701 -4.50379 0
M  V30 15418 C 1440.6 -0.0525552 -4.81171 0
M  V30 15419 C 1442.96 -0.452467 -5.19232 0
M  V30 15420 C 1440.28 -0.997923 -5.78151 0
M  V30 15421 C 1442.64 -1.38621 -6.17225 0
M  V30 15422 C 1441.3 -1.66385 -6.4643 0
M  V30 15423 H 1440.57 0.214785 -0.709189 0
M  V30 15424 H 1443.22 -0.152888 -1.90889 0
M  V30 15425 H 1441.52 2.01129 -3.36236 0
M  V30 15426 H 1443.22 1.71918 -3.62278 0
M  V30 15427 H 1439.81 0.436747 -4.26369 0
M  V30 15428 H 1443.99 -0.257573 -4.95631 0
M  V30 15429 H 1439.25 -1.22019 -5.991 0
M  V30 15430 H 1443.42 -1.91063 -6.69677 0
M  V30 15431 H 1441.05 -2.39799 -7.21388 0
M  V30 15432 N 1442.63 1.56409 0.193394 0
M  V30 15433 C 1443.59 1.93822 1.22334 0
M  V30 15434 C 1444.59 0.819513 1.3835 0
M  V30 15435 O 1445.78 1.0869 1.36132 0
M  V30 15436 C 1442.91 2.21375 2.59241 0
M  V30 15437 H 1444.1 2.85967 0.903502 0
M  V30 15438 H 1441.66 1.50125 0.43498 0
M  V30 15439 H 1442.39 1.31874 2.96277 0
M  V30 15440 H 1442.18 3.02899 2.48988 0
M  V30 15441 H 1443.67 2.51319 3.33509 0
M  V30 15442 N 1444.1 -0.461169 1.50702 0
M  V30 15443 C 1445.01 -1.58355 1.73092 0
M  V30 15444 C 1446.03 -1.62795 0.61431 0
M  V30 15445 O 1447.21 -1.8048 0.893806 0
M  V30 15446 C 1444.27 -2.94509 1.82936 0
M  V30 15447 C 1443.33 -3.00378 3.06711 0
M  V30 15448 C 1442.56 -4.30037 3.16076 0
M  V30 15449 O 1442.79 -5.21097 2.31978 0
M  V30 15450 O 1441.72 -4.41702 4.08881 0
M  V30 15451 H 1445.55 -1.42384 2.68255 0
M  V30 15452 H 1443.13 -0.641709 1.34916 0
M  V30 15453 H 1445.01 -3.75357 1.91534 0
M  V30 15454 H 1443.69 -3.10658 0.909581 0
M  V30 15455 H 1442.6 -2.18571 3.03608 0
M  V30 15456 H 1443.93 -2.89167 3.983 0
M  V30 15457 N 1445.58 -1.40446 -0.715026 0
M  V30 15458 C 1446.51 -1.35159 -1.83868 0
M  V30 15459 C 1447.49 -0.221884 -1.61079 0
M  V30 15460 O 1448.68 -0.405635 -1.84084 0
M  V30 15461 C 1445.8 -1.10358 -3.20217 0
M  V30 15462 C 1444.85 -2.25787 -3.61832 0
M  V30 15463 S 1445.68 -3.88183 -3.68882 0
M  V30 15464 C 1446.84 -3.65647 -5.07989 0
M  V30 15465 H 1447.07 -2.30252 -1.88073 0
M  V30 15466 H 1444.6 -1.26738 -0.881859 0
M  V30 15467 H 1446.56 -0.967343 -3.9894 0
M  V30 15468 H 1445.22 -0.169178 -3.13644 0
M  V30 15469 H 1444.42 -2.04078 -4.60834 0
M  V30 15470 H 1444.02 -2.35717 -2.90368 0
M  V30 15471 H 1446.31 -3.24149 -5.94923 0
M  V30 15472 H 1447.25 -4.64182 -5.34734 0
M  V30 15473 H 1447.66 -2.99322 -4.78609 0
M  V30 15474 N 1447.06 0.947303 -1.25952 0
M  V30 15475 C 1448.02 2.02667 -1.07046 0
M  V30 15476 C 1449.02 1.60787 -0.0208127 0
M  V30 15477 O 1450.21 1.72193 -0.263668 0
M  V30 15478 C 1447.34 3.35087 -0.626885 0
M  V30 15479 H 1448.54 2.20871 -2.0287 0
M  V30 15480 H 1446.09 1.12541 -1.08462 0
M  V30 15481 H 1446.83 3.22579 0.333621 0
M  V30 15482 H 1446.61 3.66835 -1.38473 0
M  V30 15483 H 1448.1 4.14397 -0.516264 0
M  V30 15484 N 1448.54 1.07657 1.15099 0
M  V30 15485 C 1449.5 0.703558 2.18135 0
M  V30 15486 C 1450.5 -0.257771 1.5872 0
M  V30 15487 O 1451.69 -0.0383211 1.74158 0
M  V30 15488 C 1448.82 0.0374978 3.40879 0
M  V30 15489 H 1450.02 1.61583 2.52648 0
M  V30 15490 H 1447.57 0.873484 1.29615 0
M  V30 15491 H 1448.3 -0.886868 3.11938 0
M  V30 15492 H 1448.09 0.728961 3.85264 0
M  V30 15493 H 1449.58 -0.208714 4.17078 0
M  V30 15494 N 1450.02 -1.31994 0.861122 0
M  V30 15495 C 1451.43 -1.79271 0.521437 0
M  V30 15496 C 1451.78 -1.71046 -0.96113 0
M  V30 15497 O 1450.9 -1.2729 -1.75003 0
M  V30 15498 C 1451.5 -3.25507 0.939731 0
M  V30 15499 C 1450.06 -3.70713 0.651845 0
M  V30 15500 C 1449.2 -2.52967 1.13592 0
M  V30 15501 H 1452.16 -1.19201 1.0477 0
M  V30 15502 H 1452.18 -3.79619 0.258754 0
M  V30 15503 H 1451.69 -3.3146 2.0188 0
M  V30 15504 H 1449.79 -3.70268 -0.416232 0
M  V30 15505 H 1449.9 -4.63236 1.22267 0
M  V30 15506 H 1448.27 -2.48558 0.555971 0
M  V30 15507 H 1449.05 -2.61671 2.22223 0
M  V30 15508 N 1451.49 -0.619688 -1.44906 0
M  V30 15509 C 1452.42 0.0791121 -2.33366 0
M  V30 15510 C 1453.41 0.846503 -1.47541 0
M  V30 15511 O 1454.59 0.814657 -1.76287 0
M  V30 15512 C 1451.72 1.06901 -3.30438 0
M  V30 15513 C 1450.67 0.41403 -4.25993 0
M  V30 15514 C 1450 1.51303 -5.12846 0
M  V30 15515 C 1451.3 -0.672483 -5.17953 0
M  V30 15516 H 1452.99 -0.659551 -2.92045 0
M  V30 15517 H 1450.54 -0.318623 -1.40431 0
M  V30 15518 H 1452.49 1.56653 -3.912 0
M  V30 15519 H 1451.22 1.83842 -2.69944 0
M  V30 15520 H 1449.88 -0.0627315 -3.66546 0
M  V30 15521 H 1449.52 2.27303 -4.48712 0
M  V30 15522 H 1449.22 1.08022 -5.77586 0
M  V30 15523 H 1450.75 2.01258 -5.76479 0
M  V30 15524 H 1452.16 -0.258542 -5.72717 0
M  V30 15525 H 1450.56 -1.02776 -5.91234 0
M  V30 15526 H 1451.63 -1.54425 -4.59653 0
M  V30 15527 N 1452.97 1.53444 -0.359552 0
M  V30 15528 C 1454.2 2.05286 0.232615 0
M  V30 15529 C 1454.61 1.23322 1.43486 0
M  V30 15530 O 1453.95 0.265369 1.81773 0
M  V30 15531 C 1454.02 3.52698 0.695995 0
M  V30 15532 C 1453.68 4.55344 -0.388751 0
M  V30 15533 C 1454.68 5.04978 -1.23667 0
M  V30 15534 C 1452.36 4.9931 -0.547267 0
M  V30 15535 C 1454.36 5.97174 -2.2285 0
M  V30 15536 C 1452.04 5.91313 -1.54247 0
M  V30 15537 C 1453.04 6.40135 -2.38153 0
M  V30 15538 O 1452.73 7.30325 -3.35976 0
M  V30 15539 H 1452.46 0.674445 0.0458187 0
M  V30 15540 H 1455.01 1.98853 -0.514472 0
M  V30 15541 H 1453.24 3.5665 1.49459 0
M  V30 15542 H 1454.93 3.8743 1.21049 0
M  V30 15543 H 1455.7 4.71763 -1.12537 0
M  V30 15544 H 1451.58 4.609 0.0960246 0
M  V30 15545 H 1455.12 6.35204 -2.88378 0
M  V30 15546 H 1451.02 6.23942 -1.65427 0
M  V30 15547 H 1451.79 7.48305 -3.31635 0
M  V30 15548 N 1454.45 0.0885642 1.57351 0
M  V30 15549 C 1455.86 -0.441569 1.81403 0
M  V30 15550 C 1456.21 -1.68582 1.00372 0
M  V30 15551 O 1455.34 -2.15162 0.231153 0
M  V30 15552 C 1455.93 -0.807886 3.29027 0
M  V30 15553 C 1454.49 -1.2828 3.53866 0
M  V30 15554 C 1453.64 -0.276217 2.75921 0
M  V30 15555 H 1456.59 0.314083 1.55561 0
M  V30 15556 H 1456.61 -1.66797 3.41993 0
M  V30 15557 H 1456.12 0.0978886 3.87977 0
M  V30 15558 H 1454.22 -2.2065 3.0024 0
M  V30 15559 H 1454.34 -1.24914 4.62529 0
M  V30 15560 H 1452.7 -0.757007 2.4319 0
M  V30 15561 H 1453.48 0.622123 3.37616 0
M  V30 15562 N 1455.93 -1.56509 -0.185096 0
M  V30 15563 C 1456.86 -1.98363 -1.23184 0
M  V30 15564 C 1457.84 -0.85709 -1.46929 0
M  V30 15565 O 1459.02 -1.12216 -1.58497 0
M  V30 15566 C 1456.15 -2.33172 -2.57387 0
M  V30 15567 C 1455.11 -3.48658 -2.48236 0
M  V30 15568 C 1454.43 -3.69171 -3.86804 0
M  V30 15569 C 1455.73 -4.82538 -1.99885 0
M  V30 15570 H 1457.43 -2.86053 -0.883982 0
M  V30 15571 H 1454.97 -1.37623 -0.423786 0
M  V30 15572 H 1456.93 -2.61048 -3.30805 0
M  V30 15573 H 1455.65 -1.42377 -2.93933 0
M  V30 15574 H 1454.31 -3.20889 -1.77273 0
M  V30 15575 H 1453.96 -2.75689 -4.20719 0
M  V30 15576 H 1453.66 -4.46868 -3.81553 0
M  V30 15577 H 1455.18 -3.99433 -4.61829 0
M  V30 15578 H 1456.6 -5.0938 -2.63068 0
M  V30 15579 H 1454.99 -5.63775 -2.05614 0
M  V30 15580 H 1456.06 -4.75453 -0.952503 0
M  V30 15581 N 1457.41 0.45317 -1.50944 0
M  V30 15582 C 1458.63 1.22672 -1.66611 0
M  V30 15583 C 1459.05 1.85398 -0.356814 0
M  V30 15584 O 1458.41 1.70026 0.663122 0
M  V30 15585 C 1458.46 2.32238 -2.77034 0
M  V30 15586 O 1458.18 1.72081 -4.02889 0
M  V30 15587 C 1459.68 3.22802 -3.03832 0
M  V30 15588 H 1456.9 0.370337 -0.559546 0
M  V30 15589 H 1459.44 0.538884 -1.97272 0
M  V30 15590 H 1457.6 2.96765 -2.49017 0
M  V30 15591 H 1458.01 2.4437 -4.64095 0
M  V30 15592 H 1459.49 3.95851 -3.84716 0
M  V30 15593 H 1459.96 3.82636 -2.15608 0
M  V30 15594 H 1460.57 2.63993 -3.33449 0
M  V30 15595 N 1458.88 1.40823 0.707568 0
M  V30 15596 C 1459.83 1.41724 1.82162 0
M  V30 15597 C 1460.8 0.273135 1.63839 0
M  V30 15598 O 1461.99 0.472399 1.84859 0
M  V30 15599 C 1459.13 1.29347 3.19943 0
M  V30 15600 C 1458.24 2.53529 3.49782 0
M  V30 15601 C 1457.37 2.33533 4.77112 0
M  V30 15602 C 1456.41 3.53252 4.9988 0
M  V30 15603 N 1455.55 3.32401 6.18429 0
M  V30 15604 H 1460.39 2.36943 1.80726 0
M  V30 15605 H 1457.93 1.17671 0.882723 0
M  V30 15606 H 1459.89 1.20175 3.99517 0
M  V30 15607 H 1458.52 0.377426 3.20586 0
M  V30 15608 H 1457.57 2.73198 2.64702 0
M  V30 15609 H 1458.88 3.42617 3.62512 0
M  V30 15610 H 1458.03 2.2176 5.64719 0
M  V30 15611 H 1456.77 1.41883 4.66605 0
M  V30 15612 H 1455.78 3.65492 4.10725 0
M  V30 15613 H 1457 4.4584 5.12253 0
M  V30 15614 H 1454.95 2.4344 6.09158 0
M  V30 15615 H 1454.87 4.15059 6.31872 0
M  V30 15616 H 1456.13 3.24377 7.08802 0
M  V30 15617 N 1460.36 -0.94061 1.26453 0
M  V30 15618 C 1461.59 -1.72123 1.1481 0
M  V30 15619 C 1462.01 -1.86456 -0.296604 0
M  V30 15620 O 1461.36 -1.37234 -1.20304 0
M  V30 15621 C 1461.41 -3.1277 1.81266 0
M  V30 15622 O 1461.13 -2.99122 3.2009 0
M  V30 15623 C 1462.64 -4.07045 1.75584 0
M  V30 15624 H 1459.86 -0.538908 0.399774 0
M  V30 15625 H 1462.4 -1.17913 1.67083 0
M  V30 15626 H 1460.55 -3.6388 1.32928 0
M  V30 15627 H 1460.97 -3.87946 3.52984 0
M  V30 15628 H 1462.44 -5.03292 2.26719 0
M  V30 15629 H 1462.92 -4.33217 0.722466 0
M  V30 15630 H 1463.53 -3.61855 2.23475 0
M  V30 15631 N 1461.84 -1.08266 -1.14527 0
M  V30 15632 C 1463.09 -0.809856 -1.85164 0
M  V30 15633 C 1463.41 0.666263 -1.83265 0
M  V30 15634 O 1462.68 1.48295 -1.28006 0
M  V30 15635 H 1461.26 -0.296598 -0.685594 0
M  V30 15636 H 1463.92 -1.36834 -1.38789 0
M  V30 15637 H 1463.02 -1.15272 -2.90032 0
M  V30 15638 N 1463.32 1.31536 -0.86811 0
M  V30 15639 C 1464.55 2.00952 -0.492529 0
M  V30 15640 C 1464.96 1.65174 0.914487 0
M  V30 15641 O 1464.32 0.880002 1.59882 0
M  V30 15642 C 1464.37 3.55829 -0.637798 0
M  V30 15643 O 1464.09 3.90326 -1.9894 0
M  V30 15644 C 1465.59 4.42519 -0.262986 0
M  V30 15645 H 1462.81 0.642913 -0.192105 0
M  V30 15646 H 1465.36 1.6781 -1.16876 0
M  V30 15647 H 1463.51 3.87399 -0.0091406 0
M  V30 15648 H 1463.93 4.85043 -1.99583 0
M  V30 15649 H 1465.4 5.50433 -0.415591 0
M  V30 15650 H 1465.88 4.31895 0.797705 0
M  V30 15651 H 1466.48 4.16363 -0.867268 0
M  V30 15652 N 1464.8 0.627364 1.44575 0
M  V30 15653 C 1465.73 -0.066735 2.33405 0
M  V30 15654 C 1466.71 -0.838666 1.47988 0
M  V30 15655 O 1467.89 -0.805296 1.76716 0
M  V30 15656 C 1465.02 -1.05148 3.31 0
M  V30 15657 C 1463.98 -0.391433 4.26206 0
M  V30 15658 C 1463.3 -1.48581 5.13642 0
M  V30 15659 C 1464.6 0.699942 5.17589 0
M  V30 15660 H 1466.3 0.675029 2.91691 0
M  V30 15661 H 1463.84 0.326066 1.4026 0
M  V30 15662 H 1465.8 -1.54576 3.92026 0
M  V30 15663 H 1464.52 -1.82408 2.70915 0
M  V30 15664 H 1463.18 0.0821694 3.66508 0
M  V30 15665 H 1462.83 -2.2492 4.49911 0
M  V30 15666 H 1462.53 -1.04957 5.7815 0
M  V30 15667 H 1464.05 -1.98198 5.77538 0
M  V30 15668 H 1465.47 0.288911 5.72572 0
M  V30 15669 H 1463.86 1.0591 5.9068 0
M  V30 15670 H 1464.93 1.5686 4.58828 0
M  V30 15671 N 1466.28 -1.53251 0.367684 0
M  V30 15672 C 1467.52 -2.01287 -0.221351 0
M  V30 15673 C 1467.85 -1.25489 -1.48603 0
M  V30 15674 O 1467.11 -0.337392 -1.9277 0
M  V30 15675 C 1467.4 -3.53031 -0.557149 0
M  V30 15676 C 1467.07 -4.46708 0.613444 0
M  V30 15677 C 1465.73 -4.72036 0.934633 0
M  V30 15678 C 1468.08 -5.02112 1.3976 0
M  V30 15679 C 1465.41 -5.50021 2.04191 0
M  V30 15680 C 1467.76 -5.81306 2.49531 0
M  V30 15681 C 1466.43 -6.04921 2.82182 0
M  V30 15682 H 1465.7 -0.73656 -0.080998 0
M  V30 15683 H 1468.35 -1.84842 0.500581 0
M  V30 15684 H 1466.65 -3.67434 -1.36012 0
M  V30 15685 H 1468.35 -3.87674 -1.02519 0
M  V30 15686 H 1464.94 -4.27143 0.353075 0
M  V30 15687 H 1469.12 -4.82488 1.1627 0
M  V30 15688 H 1464.38 -5.66536 2.29884 0
M  V30 15689 H 1468.55 -6.23245 3.10707 0
M  V30 15690 H 1466.18 -6.65134 3.68104 0
M  V30 15691 N 1467.75 -0.0969077 -1.57302 0
M  V30 15692 C 1468.7 0.878876 -2.15357 0
M  V30 15693 C 1469.7 1.29091 -1.0969 0
M  V30 15694 O 1470.9 1.26523 -1.28031 0
M  V30 15695 H 1467.28 0.301458 -0.688932 0
M  V30 15696 H 1469.25 0.364542 -2.96165 0
M  V30 15697 C 1468 2.12761 -2.75006 0
M  V30 15698 H 1467.32 1.81944 -3.56 0
M  V30 15699 H 1468.76 2.79092 -3.19193 0
M  V30 15700 C 1467.22 2.90283 -1.70989 0
M  V30 15701 O 1467.75 3.84889 -1.14992 0
M  V30 15702 N 1465.95 2.53857 -1.41439 0
M  V30 15703 H 1465.5 1.76993 -1.87166 0
M  V30 15704 H 1465.46 3.06025 -0.720816 0
M  V30 15705 N 1469.23 1.56605 0.176793 0
M  V30 15706 C 1470.48 1.82848 0.89097 0
M  V30 15707 C 1470.83 0.676661 1.80108 0
M  V30 15708 O 1470.13 -0.32721 1.88785 0
M  V30 15709 C 1470.32 3.12888 1.7273 0
M  V30 15710 C 1470.15 4.40609 0.899652 0
M  V30 15711 C 1468.92 5.01996 0.57688 0
M  V30 15712 C 1471.12 5.13722 0.243765 0
M  V30 15713 N 1469.1 6.13317 -0.267482 0
M  V30 15714 C 1470.47 6.18276 -0.461997 0
M  V30 15715 C 1472.52 4.97638 0.161367 0
M  V30 15716 C 1471.23 7.0849 -1.24233 0
M  V30 15717 C 1473.25 5.88291 -0.605623 0
M  V30 15718 C 1472.62 6.92304 -1.29977 0
M  V30 15719 H 1468.71 0.720143 0.304824 0
M  V30 15720 H 1471.3 1.94055 0.15834 0
M  V30 15721 H 1469.47 3.02883 2.43139 0
M  V30 15722 H 1471.2 3.27148 2.38236 0
M  V30 15723 H 1467.96 4.6486 0.905666 0
M  V30 15724 H 1468.38 6.73578 -0.679811 0
M  V30 15725 H 1473.02 4.17236 0.683677 0
M  V30 15726 H 1470.74 7.88342 -1.77601 0
M  V30 15727 H 1474.33 5.77918 -0.670976 0
M  V30 15728 H 1473.21 7.61239 -1.88375 0
M  V30 15729 N 1470.71 -0.445159 1.51182 0
M  V30 15730 C 1471.96 -1.19288 1.6314 0
M  V30 15731 C 1472.28 -1.91904 0.346109 0
M  V30 15732 O 1471.55 -1.8523 -0.637695 0
M  V30 15733 H 1470.13 -0.443319 0.601229 0
M  V30 15734 H 1472.79 -0.511136 1.88078 0
M  V30 15735 H 1471.89 -1.92672 2.45528 0
M  V30 15736 N 1472.19 -1.41197 -0.700089 0
M  V30 15737 C 1473.6 -1.3593 -1.27985 0
M  V30 15738 C 1473.95 -0.0402059 -1.96159 0
M  V30 15739 O 1473.07 0.861611 -1.98508 0
M  V30 15740 C 1473.67 -2.46203 -2.32743 0
M  V30 15741 C 1472.23 -2.44348 -2.86306 0
M  V30 15742 C 1471.38 -2.26283 -1.60285 0
M  V30 15743 H 1474.33 -1.50778 -0.495152 0
M  V30 15744 H 1474.35 -2.15001 -3.13934 0
M  V30 15745 H 1473.86 -3.42195 -1.83096 0
M  V30 15746 H 1471.96 -1.521 -3.40142 0
M  V30 15747 H 1472.07 -3.40497 -3.37044 0
M  V30 15748 H 1470.44 -1.74078 -1.85928 0
M  V30 15749 H 1471.22 -3.24295 -1.1264 0
M  V30 15750 N 1473.67 0.933891 -1.2695 0
M  V30 15751 C 1474.94 1.65874 -1.0366 0
M  V30 15752 C 1475.32 2.0666 0.43066 0
M  V30 15753 O 1474.67 1.79606 1.41259 0
M  V30 15754 C 1474.88 2.86546 -1.99229 0
M  V30 15755 C 1476.23 3.58031 -2.28251 0
M  V30 15756 O 1477.25 2.96663 -1.97154 0
M  V30 15757 O 1476.11 4.68583 -2.81233 0
M  V30 15758 H 1473.21 0.72673 -0.394706 0
M  V30 15759 H 1475.75 0.984975 -1.38189 0
M  V30 15760 H 1474.52 2.53351 -2.9821 0
M  V30 15761 H 1474.15 3.61645 -1.65224 0
M  V30 15762 N 1475.14 1.08871 1.13951 0
M  V30 15763 C 1476.08 0.680849 2.18854 0
M  V30 15764 C 1477.09 -0.274456 1.6047 0
M  V30 15765 O 1478.28 -0.0613804 1.78394 0
M  V30 15766 C 1475.38 -0.0182788 3.38895 0
M  V30 15767 C 1474.55 0.957125 4.268 0
M  V30 15768 C 1473.61 0.29245 5.25387 0
M  V30 15769 O 1472.64 0.938329 5.61413 0
M  V30 15770 N 1473.84 -0.955738 5.72578 0
M  V30 15771 H 1476.6 1.58334 2.54461 0
M  V30 15772 H 1474.16 0.975417 1.29218 0
M  V30 15773 H 1476.16 -0.474001 4.01915 0
M  V30 15774 H 1474.73 -0.822932 3.01574 0
M  V30 15775 H 1473.95 1.59156 3.60642 0
M  V30 15776 H 1475.23 1.61792 4.82391 0
M  V30 15777 H 1474.63 -1.50014 5.45447 0
M  V30 15778 H 1473.19 -1.35488 6.37563 0
M  V30 15779 N 1476.62 -1.31073 0.875073 0
M  V30 15780 C 1477.55 -2.27335 0.291809 0
M  V30 15781 C 1478.57 -1.53298 -0.548036 0
M  V30 15782 O 1479.76 -1.7464 -0.369198 0
M  V30 15783 C 1476.86 -3.33465 -0.604521 0
M  V30 15784 C 1476.03 -4.36924 0.204029 0
M  V30 15785 C 1475.09 -5.2252 -0.621238 0
M  V30 15786 O 1474.11 -5.6918 -0.0474551 0
M  V30 15787 N 1475.32 -5.47397 -1.93227 0
M  V30 15788 H 1478.08 -2.78024 1.11906 0
M  V30 15789 H 1475.64 -1.44149 0.737064 0
M  V30 15790 H 1477.63 -3.87646 -1.16243 0
M  V30 15791 H 1476.2 -2.8278 -1.33244 0
M  V30 15792 H 1475.42 -3.82745 0.943389 0
M  V30 15793 H 1476.71 -5.03112 0.758644 0
M  V30 15794 H 1476.11 -5.11253 -2.4215 0
M  V30 15795 H 1474.67 -6.04493 -2.43785 0
M  V30 15796 N 1478.1 -0.635022 -1.4424 0
M  V30 15797 C 1479.05 0.0675707 -2.30701 0
M  V30 15798 C 1480.02 0.832919 -1.43707 0
M  V30 15799 O 1481.2 0.813177 -1.72604 0
M  V30 15800 C 1478.34 1.04053 -3.2904 0
M  V30 15801 C 1477.46 0.273191 -4.31135 0
M  V30 15802 C 1476.59 1.23831 -5.16565 0
M  V30 15803 C 1475.63 0.460359 -6.10366 0
M  V30 15804 N 1474.77 1.37614 -6.88481 0
M  V30 15805 H 1479.61 -0.675656 -2.90239 0
M  V30 15806 H 1477.14 -0.344971 -1.42998 0
M  V30 15807 H 1479.1 1.61805 -3.84545 0
M  V30 15808 H 1477.73 1.75084 -2.71193 0
M  V30 15809 H 1476.78 -0.420315 -3.78071 0
M  V30 15810 H 1478.1 -0.332548 -4.9769 0
M  V30 15811 H 1477.25 1.88704 -5.76607 0
M  V30 15812 H 1475.99 1.87797 -4.50093 0
M  V30 15813 H 1474.99 -0.201836 -5.49429 0
M  V30 15814 H 1476.22 -0.174639 -6.78875 0
M  V30 15815 H 1474.16 2.00294 -6.24675 0
M  V30 15816 H 1474.08 0.82452 -7.5149 0
M  V30 15817 H 1475.35 2.01359 -7.53044 0
M  V30 15818 N 1479.58 1.53054 -0.375806 0
M  V30 15819 C 1480.54 2.24666 0.453608 0
M  V30 15820 C 1481.54 1.25816 1.00135 0
M  V30 15821 O 1482.73 1.50016 0.885481 0
M  V30 15822 C 1479.86 2.99131 1.63503 0
M  V30 15823 H 1481.06 2.994 -0.173172 0
M  V30 15824 H 1478.61 1.55778 -0.127673 0
M  V30 15825 H 1479.34 2.28666 2.29962 0
M  V30 15826 H 1479.13 3.71671 1.24913 0
M  V30 15827 H 1480.62 3.53542 2.22256 0
M  V30 15828 N 1481.06 0.105248 1.57248 0
M  V30 15829 C 1482.29 -0.563339 1.98771 0
M  V30 15830 C 1482.69 -1.6163 0.98348 0
M  V30 15831 O 1482.04 -1.83669 -0.0337474 0
M  V30 15832 C 1482.1 -1.26026 3.36686 0
M  V30 15833 C 1481.76 -0.356865 4.55605 0
M  V30 15834 C 1482.76 0.399055 5.18366 0
M  V30 15835 C 1480.45 -0.271954 5.01563 0
M  V30 15836 C 1482.44 1.22776 6.25464 0
M  V30 15837 C 1480.13 0.560395 6.08525 0
M  V30 15838 C 1481.12 1.30889 6.70341 0
M  V30 15839 O 1480.81 2.12745 7.75239 0
M  V30 15840 H 1480.54 -0.154882 0.658018 0
M  V30 15841 H 1483.1 0.184266 2.04572 0
M  V30 15842 H 1481.33 -2.05465 3.27599 0
M  V30 15843 H 1483.02 -1.82439 3.62589 0
M  V30 15844 H 1483.78 0.343247 4.83784 0
M  V30 15845 H 1479.66 -0.844224 4.53204 0
M  V30 15846 H 1483.21 1.81248 6.73643 0
M  V30 15847 H 1479.1 0.617647 6.42538 0
M  V30 15848 H 1479.87 2.05537 7.92273 0
M  V30 15849 N 1482.53 -1.56697 -0.168486 0
M  V30 15850 C 1483.47 -1.93197 -1.23319 0
M  V30 15851 C 1484.48 -0.825373 -1.40326 0
M  V30 15852 O 1485.67 -1.10381 -1.40279 0
M  V30 15853 C 1482.77 -2.17205 -2.60145 0
M  V30 15854 C 1481.94 -3.48442 -2.64399 0
M  V30 15855 C 1481 -3.61244 -3.82609 0
M  V30 15856 O 1480.03 -4.33837 -3.68476 0
M  V30 15857 N 1481.23 -2.96304 -4.99183 0
M  V30 15858 H 1483.99 -2.85128 -0.923138 0
M  V30 15859 H 1481.55 -1.57887 -0.358229 0
M  V30 15860 H 1483.55 -2.23031 -3.37697 0
M  V30 15861 H 1482.12 -1.31643 -2.83529 0
M  V30 15862 H 1481.34 -3.54248 -1.72922 0
M  V30 15863 H 1482.62 -4.34795 -2.64255 0
M  V30 15864 H 1482.02 -2.37203 -5.13567 0
M  V30 15865 H 1480.58 -3.07722 -5.74587 0
M  V30 15866 N 1484.01 0.437135 -1.51416 0
M  V30 15867 C 1484.92 1.55581 -1.75589 0
M  V30 15868 C 1485.94 1.61797 -0.640132 0
M  V30 15869 O 1487.11 1.79035 -0.922406 0
M  V30 15870 C 1484.18 2.91561 -1.87598 0
M  V30 15871 C 1483.24 2.9546 -3.11451 0
M  V30 15872 C 1482.47 4.24954 -3.22878 0
M  V30 15873 O 1482.7 5.17341 -2.40238 0
M  V30 15874 O 1481.63 4.35141 -4.15856 0
M  V30 15875 H 1485.46 1.38098 -2.70486 0
M  V30 15876 H 1483.04 0.620163 -1.3592 0
M  V30 15877 H 1484.92 3.72262 -1.97481 0
M  V30 15878 H 1483.6 3.09171 -0.958889 0
M  V30 15879 H 1482.51 2.13713 -3.07046 0
M  V30 15880 H 1483.84 2.82794 -4.0285 0
M  V30 15881 N 1485.49 1.41566 0.692592 0
M  V30 15882 C 1486.74 1.40381 1.44831 0
M  V30 15883 C 1487.05 0.0172068 1.95592 0
M  V30 15884 O 1488.26 -0.11726 2.71247 0
M  V30 15885 C 1486.71 2.46844 2.61908 0
M  V30 15886 C 1486.32 3.91426 2.17921 0
M  V30 15887 C 1488.07 2.548 3.39525 0
M  V30 15888 C 1485.97 4.89436 3.31974 0
M  V30 15889 H 1484.9 0.522062 0.544028 0
M  V30 15890 H 1487.55 1.67402 0.751589 0
M  V30 15891 H 1485.94 2.12959 3.33863 0
M  V30 15892 H 1487.11 4.34575 1.53236 0
M  V30 15893 H 1485.43 3.87158 1.5329 0
M  V30 15894 H 1488.02 3.25207 4.24434 0
M  V30 15895 H 1488.37 1.58579 3.84913 0
M  V30 15896 H 1488.9 2.87791 2.74629 0
M  V30 15897 H 1485.64 5.87071 2.91595 0
M  V30 15898 H 1485.16 4.50933 3.95499 0
M  V30 15899 H 1486.84 5.10331 3.97708 0
M  V30 15900 N 1486.97 -0.927146 1.27443 0
M  V30 15901 C 1487.92 -2.02783 1.10216 0
M  V30 15902 C 1488.89 -1.661 0.00307842 0
M  V30 15903 O 1490.07 -1.90081 0.165508 0
M  V30 15904 C 1487.21 -3.36718 0.755984 0
M  V30 15905 C 1486.32 -3.86353 1.93276 0
M  V30 15906 C 1485.46 -5.08737 1.52841 0
M  V30 15907 C 1484.5 -5.50669 2.67263 0
M  V30 15908 N 1483.63 -6.6425 2.27413 0
M  V30 15909 H 1488.47 -2.16851 2.04401 0
M  V30 15910 H 1486.01 -1.06232 1.0175 0
M  V30 15911 H 1487.97 -4.13741 0.53609 0
M  V30 15912 H 1486.6 -3.22456 -0.148909 0
M  V30 15913 H 1485.65 -3.05604 2.26518 0
M  V30 15914 H 1486.96 -4.13401 2.79108 0
M  V30 15915 H 1486.12 -5.93263 1.26979 0
M  V30 15916 H 1484.86 -4.83467 0.641187 0
M  V30 15917 H 1483.86 -4.64692 2.93839 0
M  V30 15918 H 1485.09 -5.77934 3.56607 0
M  V30 15919 H 1483.03 -6.40636 1.41143 0
M  V30 15920 H 1482.95 -6.90955 3.06784 0
M  V30 15921 H 1484.22 -7.52115 2.048 0
M  V30 15922 N 1488.45 -1.09474 -1.13372 0
M  V30 15923 C 1489.38 -0.692446 -2.1849 0
M  V30 15924 C 1490.39 0.265942 -1.60613 0
M  V30 15925 O 1491.58 0.0519189 -1.78424 0
M  V30 15926 C 1488.68 0.000306083 -3.389 0
M  V30 15927 C 1487.85 -0.979745 -4.26286 0
M  V30 15928 C 1486.91 -0.320309 -5.25224 0
M  V30 15929 O 1485.94 -0.968089 -5.60907 0
M  V30 15930 N 1487.14 0.92536 -5.73077 0
M  V30 15931 H 1489.91 -1.59681 -2.53618 0
M  V30 15932 H 1487.47 -0.982256 -1.28699 0
M  V30 15933 H 1489.46 0.45268 -4.0216 0
M  V30 15934 H 1488.03 0.806927 -3.02006 0
M  V30 15935 H 1487.25 -1.61067 -3.59793 0
M  V30 15936 H 1488.54 -1.64348 -4.81526 0
M  V30 15937 H 1487.93 1.47119 -5.46235 0
M  V30 15938 H 1486.49 1.32105 -6.38272 0
M  V30 15939 N 1489.92 1.30607 -0.882012 0
M  V30 15940 C 1490.89 2.26489 -0.351498 0
M  V30 15941 C 1491.89 1.52686 0.504348 0
M  V30 15942 O 1493.08 1.71385 0.311928 0
M  V30 15943 C 1490.21 3.37222 0.499435 0
M  V30 15944 H 1491.4 2.74929 -1.19809 0
M  V30 15945 H 1488.96 1.41746 -0.658616 0
M  V30 15946 H 1489.69 2.94093 1.36673 0
M  V30 15947 H 1489.48 3.91936 -0.11356 0
M  V30 15948 H 1490.97 4.08596 0.862497 0
M  V30 15949 N 1491.4 0.642663 1.43901 0
M  V30 15950 C 1492.33 -0.0419756 2.33462 0
M  V30 15951 C 1493.31 -0.822923 1.48869 0
M  V30 15952 O 1494.5 -0.786508 1.7756 0
M  V30 15953 C 1491.63 -1.01631 3.32097 0
M  V30 15954 C 1490.58 -0.346206 4.26597 0
M  V30 15955 C 1489.91 -1.43125 5.15189 0
M  V30 15956 C 1491.21 0.754799 5.16817 0
M  V30 15957 H 1492.9 0.705929 2.90959 0
M  V30 15958 H 1490.45 0.340924 1.39906 0
M  V30 15959 H 1492.4 -1.5041 3.93643 0
M  V30 15960 H 1491.13 -1.79525 2.72834 0
M  V30 15961 H 1489.78 0.121038 3.664 0
M  V30 15962 H 1489.43 -2.20135 4.52271 0
M  V30 15963 H 1489.13 -0.988194 5.79231 0
M  V30 15964 H 1490.66 -1.92061 5.79607 0
M  V30 15965 H 1492.07 0.349624 5.72233 0
M  V30 15966 H 1490.47 1.12169 5.89524 0
M  V30 15967 H 1491.54 1.61718 4.57138 0
M  V30 15968 N 1492.88 -1.52852 0.383918 0
M  V30 15969 C 1493.81 -2.29213 -0.44539 0
M  V30 15970 C 1494.79 -1.3238 -1.06815 0
M  V30 15971 O 1495.98 -1.61269 -1.08194 0
M  V30 15972 C 1493.11 -3.09497 -1.57573 0
M  V30 15973 C 1492.06 -4.14168 -1.07928 0
M  V30 15974 C 1491.39 -4.82644 -2.30128 0
M  V30 15975 C 1492.69 -5.22082 -0.151035 0
M  V30 15976 H 1494.38 -2.98786 0.19172 0
M  V30 15977 H 1491.93 -1.43695 0.0936471 0
M  V30 15978 H 1493.88 -3.61672 -2.16267 0
M  V30 15979 H 1492.6 -2.37647 -2.24034 0
M  V30 15980 H 1491.26 -3.62966 -0.514909 0
M  V30 15981 H 1490.91 -4.07348 -2.95087 0
M  V30 15982 H 1490.61 -5.53388 -1.97574 0
M  V30 15983 H 1492.14 -5.37621 -2.89475 0
M  V30 15984 H 1493.55 -5.69649 -0.646003 0
M  V30 15985 H 1491.95 -6.00041 0.0844833 0
M  V30 15986 H 1493.02 -4.78228 0.801618 0
M  V30 15987 N 1494.36 -0.113586 -1.5719 0
M  V30 15988 C 1495.59 0.553592 -1.99356 0
M  V30 15989 C 1496 1.60567 -0.993154 0
M  V30 15990 O 1495.36 1.82494 0.0147252 0
M  V30 15991 C 1495.41 1.18462 -3.41539 0
M  V30 15992 O 1495.13 0.174602 -4.37752 0
M  V30 15993 C 1496.63 1.93564 -3.98808 0
M  V30 15994 H 1493.85 0.146998 -0.6547 0
M  V30 15995 H 1496.4 -0.198329 -2.03536 0
M  V30 15996 H 1494.55 1.88736 -3.38316 0
M  V30 15997 H 1494.97 0.632395 -5.20674 0
M  V30 15998 H 1496.44 2.33051 -5.00391 0
M  V30 15999 H 1496.92 2.80874 -3.37648 0
M  V30 16000 H 1497.52 1.28066 -4.0556 0
M  V30 16001 N 1495.84 1.56784 0.160173 0
M  V30 16002 C 1496.8 1.96373 1.18195 0
M  V30 16003 C 1497.8 0.848674 1.3658 0
M  V30 16004 O 1498.99 1.11553 1.33796 0
M  V30 16005 C 1496.12 2.26824 2.54487 0
M  V30 16006 H 1497.32 2.87819 0.842641 0
M  V30 16007 H 1494.87 1.51014 0.403038 0
M  V30 16008 H 1495.6 1.38129 2.93413 0
M  V30 16009 H 1495.39 3.08112 2.42507 0
M  V30 16010 H 1496.88 2.58337 3.28104 0
M  V30 16011 N 1497.32 -0.429099 1.51646 0
M  V30 16012 C 1498.73 -1.00868 1.57107 0
M  V30 16013 C 1499.08 -1.9209 0.399483 0
M  V30 16014 O 1498.2 -2.10948 -0.482709 0
M  V30 16015 C 1498.8 -1.83612 2.84732 0
M  V30 16016 C 1497.36 -2.36605 2.92737 0
M  V30 16017 C 1496.5 -1.1604 2.51853 0
M  V30 16018 H 1499.45 -0.21006 1.57304 0
M  V30 16019 H 1499.48 -2.69149 2.68959 0
M  V30 16020 H 1498.99 -1.17192 3.69983 0
M  V30 16021 H 1497.09 -3.06455 2.11934 0
M  V30 16022 H 1497.2 -2.68838 3.96564 0
M  V30 16023 H 1495.57 -1.50826 2.0524 0
M  V30 16024 H 1496.35 -0.51218 3.39458 0
M  V30 16025 N 1498.79 -1.41931 -0.685074 0
M  V30 16026 C 1499.76 -1.44315 -1.78061 0
M  V30 16027 C 1500.76 -0.332215 -1.57331 0
M  V30 16028 O 1501.95 -0.59258 -1.63811 0
M  V30 16029 C 1499.08 -1.26479 -3.16569 0
M  V30 16030 H 1500.27 -2.4185 -1.77337 0
M  V30 16031 H 1497.82 -1.28228 -0.893721 0
M  V30 16032 H 1498.56 -0.298259 -3.22926 0
M  V30 16033 H 1498.34 -2.06981 -3.33018 0
M  V30 16034 H 1499.83 -1.31006 -3.96519 0
M  V30 16035 N 1500.27 0.920374 -1.27933 0
M  V30 16036 C 1501.2 2.03882 -1.13817 0
M  V30 16037 C 1502.18 1.70058 -0.0376853 0
M  V30 16038 O 1503.37 1.93023 -0.213492 0
M  V30 16039 C 1500.5 3.38142 -0.792296 0
M  V30 16040 C 1499.45 3.86104 -1.84683 0
M  V30 16041 C 1498.78 5.17253 -1.35474 0
M  V30 16042 C 1500.08 4.0869 -3.25223 0
M  V30 16043 H 1501.77 2.15949 -2.07379 0
M  V30 16044 H 1499.32 1.03764 -0.998454 0
M  V30 16045 H 1501.27 4.15872 -0.680337 0
M  V30 16046 H 1499.99 3.26109 0.179029 0
M  V30 16047 H 1498.65 3.10573 -1.94782 0
M  V30 16048 H 1498.3 5.01618 -0.372666 0
M  V30 16049 H 1498 5.50314 -2.05982 0
M  V30 16050 H 1499.53 5.97545 -1.25587 0
M  V30 16051 H 1500.94 4.76965 -3.18083 0
M  V30 16052 H 1499.34 4.5307 -3.93507 0
M  V30 16053 H 1500.41 3.13729 -3.69733 0
M  V30 16054 N 1501.75 1.10074 1.1279 0
M  V30 16055 C 1503 0.839212 1.83852 0
M  V30 16056 C 1503.32 -0.637023 1.84301 0
M  V30 16057 O 1502.59 -1.46239 1.30349 0
M  V30 16058 H 1501.17 0.307468 0.680788 0
M  V30 16059 H 1503.83 1.39025 1.36595 0
M  V30 16060 H 1502.93 1.19872 2.88162 0
M  V30 16061 N 1503.23 -1.30138 0.888926 0
M  V30 16062 C 1504.16 -2.3047 0.374934 0
M  V30 16063 C 1505.14 -1.61156 -0.544322 0
M  V30 16064 O 1506.32 -1.88738 -0.457337 0
M  V30 16065 C 1503.45 -3.44896 -0.407935 0
M  V30 16066 C 1502.41 -4.25935 0.419916 0
M  V30 16067 C 1501.73 -5.32452 -0.489797 0
M  V30 16068 C 1503.03 -4.9508 1.66413 0
M  V30 16069 H 1504.73 -2.73711 1.21337 0
M  V30 16070 H 1502.27 -1.31586 0.584899 0
M  V30 16071 H 1504.23 -4.14153 -0.778177 0
M  V30 16072 H 1502.95 -3.0047 -1.28005 0
M  V30 16073 H 1501.61 -3.58372 0.772348 0
M  V30 16074 H 1501.26 -4.84273 -1.35974 0
M  V30 16075 H 1500.96 -5.87569 0.0603412 0
M  V30 16076 H 1502.48 -6.04563 -0.856468 0
M  V30 16077 H 1503.9 -5.56831 1.36425 0
M  V30 16078 H 1502.29 -5.6008 2.15477 0
M  V30 16079 H 1503.36 -4.20981 2.4063 0
M  V30 16080 N 1504.71 -0.650285 -1.43559 0
M  V30 16081 C 1506.12 -0.24263 -1.85117 0
M  V30 16082 C 1506.47 1.21017 -1.54432 0
M  V30 16083 O 1505.59 1.92332 -0.991839 0
M  V30 16084 C 1506.19 -0.433575 -3.36014 0
M  V30 16085 C 1504.75 -0.0802635 -3.76314 0
M  V30 16086 C 1503.89 -0.737844 -2.67303 0
M  V30 16087 H 1506.84 -0.854158 -1.33753 0
M  V30 16088 H 1506.87 0.321801 -3.79137 0
M  V30 16089 H 1506.38 -1.49102 -3.58316 0
M  V30 16090 H 1504.48 0.974703 -3.59625 0
M  V30 16091 H 1504.59 -0.503683 -4.76445 0
M  V30 16092 H 1502.96 -0.171349 -2.54123 0
M  V30 16093 H 1503.74 -1.79826 -2.92434 0
M  V30 16094 N 1506.18 1.52647 -0.392018 0
M  V30 16095 C 1507.46 1.94034 0.247004 0
M  V30 16096 C 1507.84 1.32767 1.64122 0
M  V30 16097 O 1507.19 0.496822 2.23033 0
M  V30 16098 C 1507.4 3.47949 0.270615 0
M  V30 16099 C 1508.75 4.21666 0.498256 0
M  V30 16100 O 1509.77 3.54469 0.350708 0
M  V30 16101 O 1508.63 5.40795 0.787586 0
M  V30 16102 H 1505.72 0.812487 0.154251 0
M  V30 16103 H 1508.27 1.63715 -0.446723 0
M  V30 16104 H 1507.04 3.84881 -0.705862 0
M  V30 16105 H 1506.66 3.8458 1.00915 0
M  V30 16106 N 1507.66 0.121921 1.57128 0
M  V30 16107 C 1508.59 -0.823788 2.18486 0
M  V30 16108 C 1509.57 -1.27519 1.12574 0
M  V30 16109 O 1510.76 -1.33727 1.40822 0
M  V30 16110 C 1507.89 -2.07284 2.78659 0
M  V30 16111 C 1506.84 -1.75912 3.90178 0
M  V30 16112 C 1506.17 -3.07871 4.37172 0
M  V30 16113 C 1507.47 -1.02517 5.1214 0
M  V30 16114 H 1509.16 -0.312488 2.97765 0
M  V30 16115 H 1506.71 -0.148862 1.43228 0
M  V30 16116 H 1508.66 -2.73903 3.20242 0
M  V30 16117 H 1507.39 -2.60743 1.96673 0
M  V30 16118 H 1506.04 -1.11681 3.49174 0
M  V30 16119 H 1505.69 -3.59271 3.52041 0
M  V30 16120 H 1505.39 -2.87653 5.12376 0
M  V30 16121 H 1506.92 -3.75604 4.81409 0
M  V30 16122 H 1508.33 -1.59295 5.50725 0
M  V30 16123 H 1506.73 -0.923836 5.92946 0
M  V30 16124 H 1507.8 -0.0124219 4.84898 0
M  V30 16125 N 1509.14 -1.56867 -0.151857 0
M  V30 16126 C 1510.37 -1.87237 -0.880343 0
M  V30 16127 C 1510.78 -0.709565 -1.74959 0
M  V30 16128 O 1510.14 0.320818 -1.79658 0
M  V30 16129 C 1510.19 -3.16811 -1.74107 0
M  V30 16130 O 1509.91 -4.28611 -0.906858 0
M  V30 16131 C 1511.41 -3.60662 -2.57755 0
M  V30 16132 H 1508.63 -0.62074 -0.254799 0
M  V30 16133 H 1511.18 -2.03977 -0.146104 0
M  V30 16134 H 1509.33 -3.01838 -2.42842 0
M  V30 16135 H 1509.75 -5.02673 -1.49733 0
M  V30 16136 H 1511.22 -4.54176 -3.13732 0
M  V30 16137 H 1511.7 -2.85716 -3.33561 0
M  V30 16138 H 1512.3 -3.78312 -1.94319 0
M  V30 16139 N 1510.62 0.421051 -1.51871 0
M  V30 16140 C 1511.57 1.5122 -1.74359 0
M  V30 16141 C 1512.54 1.55432 -0.585667 0
M  V30 16142 O 1513.72 1.7219 -0.821912 0
M  V30 16143 C 1510.86 2.88787 -1.88935 0
M  V30 16144 C 1509.97 2.93977 -3.16546 0
M  V30 16145 C 1509.11 4.22768 -3.21622 0
M  V30 16146 C 1508.15 4.21888 -4.43483 0
M  V30 16147 N 1507.28 5.4223 -4.46017 0
M  V30 16148 H 1512.12 1.31348 -2.67492 0
M  V30 16149 H 1509.66 0.637779 -1.32555 0
M  V30 16150 H 1511.62 3.68629 -1.95368 0
M  V30 16151 H 1510.25 3.07181 -0.991942 0
M  V30 16152 H 1509.3 2.06699 -3.19343 0
M  V30 16153 H 1510.61 2.8919 -4.06412 0
M  V30 16154 H 1509.77 5.10995 -3.27061 0
M  V30 16155 H 1508.51 4.30234 -2.29674 0
M  V30 16156 H 1507.51 3.32052 -4.38202 0
M  V30 16157 H 1508.74 4.16072 -5.36713 0
M  V30 16158 H 1506.68 5.50386 -3.56947 0
M  V30 16159 H 1506.6 5.39389 -5.29713 0
M  V30 16160 H 1507.87 6.32443 -4.55671 0
M  V30 16161 N 1512.1 1.42293 0.677538 0
M  V30 16162 C 1513.51 1.37948 1.25806 0
M  V30 16163 C 1513.86 0.071408 1.9607 0
M  V30 16164 O 1512.98 -0.829921 1.99853 0
M  V30 16165 C 1513.58 2.49875 2.28797 0
M  V30 16166 C 1512.14 2.48872 2.82382 0
M  V30 16167 C 1511.28 2.28804 1.56665 0
M  V30 16168 H 1514.24 1.51546 0.471102 0
M  V30 16169 H 1514.26 2.19969 3.10474 0
M  V30 16170 H 1513.77 3.45065 1.77629 0
M  V30 16171 H 1511.87 1.57492 3.37679 0
M  V30 16172 H 1511.98 3.45816 3.31585 0
M  V30 16173 H 1510.35 1.77014 1.83135 0
M  V30 16174 H 1511.13 3.26046 1.07467 0
M  V30 16175 N 1513.57 -0.913576 1.28419 0
M  V30 16176 C 1514.82 -1.66273 1.15584 0
M  V30 16177 C 1515.15 -1.92242 -0.295541 0
M  V30 16178 O 1514.4 -1.52104 -1.23137 0
M  V30 16179 C 1514.7 -3.02722 1.89985 0
M  V30 16180 C 1514.37 -2.96413 3.3978 0
M  V30 16181 C 1513.03 -2.94399 3.80635 0
M  V30 16182 C 1515.38 -2.86648 4.35296 0
M  V30 16183 C 1512.71 -2.80422 5.15345 0
M  V30 16184 C 1515.06 -2.74211 5.7008 0
M  V30 16185 C 1513.73 -2.70556 6.1021 0
M  V30 16186 H 1513 -0.608435 0.422951 0
M  V30 16187 H 1515.64 -1.06438 1.59196 0
M  V30 16188 H 1513.95 -3.66344 1.38923 0
M  V30 16189 H 1515.65 -3.59591 1.7747 0
M  V30 16190 H 1512.24 -2.98775 3.07297 0
M  V30 16191 H 1516.42 -2.87291 4.04695 0
M  V30 16192 H 1511.68 -2.75987 5.45565 0
M  V30 16193 H 1515.85 -2.65624 6.43752 0
M  V30 16194 H 1513.48 -2.59483 7.14544 0
M  V30 16195 N 1515.05 -1.1067 -1.12204 0
M  V30 16196 C 1515.96 -0.770221 -2.21596 0
M  V30 16197 C 1516.98 0.233297 -1.72429 0
M  V30 16198 O 1518.15 0.0714493 -2.01273 0
M  V30 16199 C 1515.22 -0.209682 -3.46065 0
M  V30 16200 C 1514.28 -1.27079 -4.1006 0
M  V30 16201 C 1513.51 -0.736899 -5.28588 0
M  V30 16202 O 1513.74 0.435838 -5.68732 0
M  V30 16203 O 1512.67 -1.49797 -5.82962 0
M  V30 16204 H 1516.5 -1.6834 -2.52776 0
M  V30 16205 H 1514.08 -0.882012 -1.20586 0
M  V30 16206 H 1515.96 0.0989516 -4.21284 0
M  V30 16207 H 1514.64 0.676316 -3.16556 0
M  V30 16208 H 1513.55 -1.63231 -3.3661 0
M  V30 16209 H 1514.88 -2.12989 -4.4373 0
M  V30 16210 N 1516.53 1.29665 -0.895815 0
M  V30 16211 C 1517.46 2.30268 -0.387151 0
M  V30 16212 C 1518.44 1.61442 0.535768 0
M  V30 16213 O 1519.63 1.88978 0.447321 0
M  V30 16214 C 1516.76 3.45107 0.389639 0
M  V30 16215 C 1515.71 4.25706 -0.442498 0
M  V30 16216 C 1515.04 5.32704 0.461552 0
M  V30 16217 C 1516.34 4.9419 -1.69036 0
M  V30 16218 H 1518.03 2.73064 -1.22786 0
M  V30 16219 H 1515.58 1.31274 -0.591869 0
M  V30 16220 H 1517.53 4.14559 0.756203 0
M  V30 16221 H 1516.25 3.01145 1.2641 0
M  V30 16222 H 1514.91 3.57957 -0.791343 0
M  V30 16223 H 1514.56 4.84987 1.33403 0
M  V30 16224 H 1514.26 5.87529 -0.0915006 0
M  V30 16225 H 1515.78 6.05009 0.824395 0
M  V30 16226 H 1517.2 5.561 -1.39376 0
M  V30 16227 H 1515.6 5.5893 -2.18444 0
M  V30 16228 H 1516.67 4.19699 -2.42859 0
M  V30 16229 N 1518.01 0.657889 1.43212 0
M  V30 16230 C 1519.26 0.173187 2.01758 0
M  V30 16231 C 1519.58 -1.21447 1.51924 0
M  V30 16232 O 1518.84 -1.82568 0.704807 0
M  V30 16233 C 1519.14 0.138025 3.57133 0
M  V30 16234 C 1518.8 1.46806 4.26332 0
M  V30 16235 C 1517.47 1.83227 4.44951 0
M  V30 16236 C 1519.82 2.34476 4.65478 0
M  V30 16237 C 1517.15 3.06975 4.99983 0
M  V30 16238 C 1519.5 3.57521 5.21883 0
M  V30 16239 C 1518.16 3.94132 5.38717 0
M  V30 16240 H 1517.43 0.0633735 0.738285 0
M  V30 16241 H 1520.08 0.849524 1.71626 0
M  V30 16242 H 1518.38 -0.621776 3.86835 0
M  V30 16243 H 1520.08 -0.253948 4.00195 0
M  V30 16244 H 1516.67 1.17469 4.12188 0
M  V30 16245 H 1520.85 2.07628 4.50782 0
M  V30 16246 H 1516.11 3.35383 5.11202 0
M  V30 16247 H 1520.28 4.25669 5.51161 0
M  V30 16248 H 1517.91 4.901 5.81125 0
M  V30 16249 N 1519.49 -1.52437 0.400108 0
M  V30 16250 C 1520.73 -2.0201 -0.17887 0
M  V30 16251 C 1521.07 -1.2856 -1.45554 0
M  V30 16252 O 1520.34 -0.389236 -1.90565 0
M  V30 16253 C 1520.62 -3.57453 -0.435784 0
M  V30 16254 C 1520.48 -4.41562 0.85693 0
M  V30 16255 C 1521.8 -4.228 -1.2218 0
M  V30 16256 H 1518.91 -0.734256 -0.063535 0
M  V30 16257 H 1521.56 -1.82406 0.531801 0
M  V30 16258 H 1519.71 -3.74288 -1.04117 0
M  V30 16259 H 1521.38 -4.36456 1.49344 0
M  V30 16260 H 1519.62 -4.08138 1.46989 0
M  V30 16261 H 1520.29 -5.48374 0.631675 0
M  V30 16262 H 1522.77 -4.10009 -0.709359 0
M  V30 16263 H 1521.64 -5.3152 -1.37031 0
M  V30 16264 H 1521.91 -3.81153 -2.23998 0
M  V30 16265 N 1520.96 -0.130252 -1.57061 0
M  V30 16266 C 1522.24 0.569171 -1.87136 0
M  V30 16267 C 1522.62 1.84078 -1.03337 0
M  V30 16268 O 1521.97 2.28208 -0.11543 0
M  V30 16269 C 1522.18 0.850782 -3.38471 0
M  V30 16270 C 1523.53 1.19892 -4.07322 0
M  V30 16271 O 1524.55 0.940682 -3.43554 0
M  V30 16272 O 1523.41 1.6841 -5.19904 0
M  V30 16273 H 1520.5 0.288433 -0.775071 0
M  V30 16274 H 1523.05 -0.165603 -1.6889 0
M  V30 16275 H 1521.82 -0.0498562 -3.91268 0
M  V30 16276 H 1521.45 1.64032 -3.62187 0
M  V30 16277 N 1522.44 1.56945 0.143535 0
M  V30 16278 C 1523.35 2.01795 1.1965 0
M  V30 16279 C 1524.37 0.933965 1.4681 0
M  V30 16280 O 1525.55 1.2437 1.58411 0
M  V30 16281 C 1522.61 2.39249 2.5092 0
M  V30 16282 C 1521.67 3.61613 2.31376 0
M  V30 16283 C 1520.9 3.97271 3.56386 0
M  V30 16284 O 1521.13 3.33552 4.62709 0
M  V30 16285 O 1520.06 4.90501 3.48844 0
M  V30 16286 H 1523.89 2.91687 0.845718 0
M  V30 16287 H 1521.47 1.45182 0.352518 0
M  V30 16288 H 1523.35 2.64184 3.28306 0
M  V30 16289 H 1522.03 1.52511 2.85521 0
M  V30 16290 H 1520.94 3.4186 1.51929 0
M  V30 16291 H 1522.27 4.48979 2.01689 0
M  V30 16292 N 1523.92 -0.412991 1.52093 0
M  V30 16293 C 1524.87 -1.50294 1.75158 0
M  V30 16294 C 1525.84 -1.55119 0.593902 0
M  V30 16295 O 1527.02 -1.71751 0.831032 0
M  V30 16296 C 1524.16 -2.87781 1.90463 0
M  V30 16297 C 1523.28 -2.92295 3.181 0
M  V30 16298 C 1522.41 -4.21056 3.23859 0
M  V30 16299 C 1521.45 -4.1953 4.45714 0
M  V30 16300 N 1520.59 -5.39857 4.48886 0
M  V30 16301 H 1525.43 -1.29927 2.68185 0
M  V30 16302 H 1522.96 -0.630741 1.32891 0
M  V30 16303 H 1524.92 -3.67588 1.9732 0
M  V30 16304 H 1523.55 -3.06651 1.00822 0
M  V30 16305 H 1522.6 -2.05002 3.20434 0
M  V30 16306 H 1523.92 -2.87031 4.0794 0
M  V30 16307 H 1523.07 -5.09253 3.29767 0
M  V30 16308 H 1521.81 -4.2901 2.31952 0
M  V30 16309 H 1520.81 -3.29724 4.39957 0
M  V30 16310 H 1522.04 -4.1322 5.38912 0
M  V30 16311 H 1519.99 -5.48486 3.59861 0
M  V30 16312 H 1519.9 -5.36572 5.32566 0
M  V30 16313 H 1521.17 -6.30018 4.59018 0
M  V30 16314 N 1525.4 -1.4265 -0.669982 0
M  V30 16315 C 1526.33 -1.42457 -1.79551 0
M  V30 16316 C 1527.34 -0.322966 -1.59564 0
M  V30 16317 O 1528.53 -0.586359 -1.68594 0
M  V30 16318 C 1525.63 -1.20561 -3.16731 0
M  V30 16319 C 1524.81 -2.43246 -3.63525 0
M  V30 16320 C 1523.87 -2.16823 -4.79452 0
M  V30 16321 O 1522.89 -2.90058 -4.8975 0
M  V30 16322 N 1524.09 -1.17436 -5.68497 0
M  V30 16323 H 1526.86 -2.39474 -1.80201 0
M  V30 16324 H 1524.42 -1.37591 -0.853244 0
M  V30 16325 H 1526.41 -1.00794 -3.91947 0
M  V30 16326 H 1524.98 -0.320497 -3.10953 0
M  V30 16327 H 1524.2 -2.78549 -2.78934 0
M  V30 16328 H 1525.49 -3.24931 -3.91532 0
M  V30 16329 H 1524.89 -0.568736 -5.62834 0
M  V30 16330 H 1523.44 -1.03655 -6.43505 0
M  V30 16331 N 1526.88 0.906753 -1.28902 0
M  V30 16332 C 1528.13 1.6533 -1.16234 0
M  V30 16333 C 1528.45 1.92861 0.288004 0
M  V30 16334 O 1527.72 1.54971 1.19837 0
M  V30 16335 H 1526.3 0.612806 -0.427174 0
M  V30 16336 H 1528.96 1.08764 -1.6173 0
M  V30 16337 H 1528.05 2.61271 -1.70715 0
M  V30 16338 N 1528.36 1.11264 1.11616 0
M  V30 16339 C 1529.59 0.881522 1.8685 0
M  V30 16340 C 1529.99 -0.572088 1.80344 0
M  V30 16341 O 1529.34 -1.40665 1.18148 0
M  V30 16342 C 1529.4 1.26245 3.36604 0
M  V30 16343 C 1529.06 2.72485 3.6688 0
M  V30 16344 C 1530.06 3.70708 3.64516 0
M  V30 16345 C 1527.74 3.09086 3.95943 0
M  V30 16346 C 1529.74 5.0355 3.90789 0
M  V30 16347 C 1527.43 4.42114 4.21875 0
M  V30 16348 C 1528.42 5.39155 4.19286 0
M  V30 16349 O 1528.11 6.69787 4.44568 0
M  V30 16350 H 1527.84 0.315647 0.597782 0
M  V30 16351 H 1530.4 1.48317 1.42095 0
M  V30 16352 H 1528.63 0.603938 3.81955 0
M  V30 16353 H 1530.32 1.00744 3.93199 0
M  V30 16354 H 1531.08 3.43776 3.42115 0
M  V30 16355 H 1526.96 2.34171 3.97095 0
M  V30 16356 H 1530.51 5.79285 3.88684 0
M  V30 16357 H 1526.4 4.6878 4.43751 0
M  V30 16358 H 1527.17 6.75548 4.62144 0
M  V30 16359 N 1529.83 -1.29188 0.902679 0
M  V30 16360 C 1530.8 -2.25901 0.387485 0
M  V30 16361 C 1531.8 -1.53469 -0.479993 0
M  V30 16362 O 1532.99 -1.71859 -0.284623 0
M  V30 16363 C 1530.12 -3.37974 -0.445723 0
M  V30 16364 H 1531.31 -2.72988 1.24167 0
M  V30 16365 H 1528.86 -1.4068 0.681083 0
M  V30 16366 H 1529.6 -2.9623 -1.31977 0
M  V30 16367 H 1529.38 -3.91705 0.175899 0
M  V30 16368 H 1530.87 -4.09917 -0.797384 0
M  V30 16369 N 1531.31 -0.665475 -1.42861 0
M  V30 16370 C 1532.26 0.0186204 -2.30792 0
M  V30 16371 C 1533.23 0.802249 -1.45441 0
M  V30 16372 O 1534.41 0.776383 -1.7429 0
M  V30 16373 C 1531.55 0.970499 -3.31173 0
M  V30 16374 C 1530.67 0.18168 -4.31618 0
M  V30 16375 C 1529.8 1.12846 -5.19075 0
M  V30 16376 C 1528.84 0.330788 -6.11206 0
M  V30 16377 N 1527.98 1.2298 -6.91246 0
M  V30 16378 H 1532.82 -0.737068 -2.88741 0
M  V30 16379 H 1530.35 -0.375225 -1.42234 0
M  V30 16380 H 1532.31 1.53611 -3.87891 0
M  V30 16381 H 1530.94 1.69292 -2.74845 0
M  V30 16382 H 1529.99 -0.500415 -3.77094 0
M  V30 16383 H 1531.31 -0.438041 -4.96873 0
M  V30 16384 H 1530.46 1.76431 -5.8048 0
M  V30 16385 H 1529.2 1.78208 -4.53975 0
M  V30 16386 H 1528.2 -0.318333 -5.48878 0
M  V30 16387 H 1529.43 -0.318599 -6.78352 0
M  V30 16388 H 1527.38 1.86999 -6.28783 0
M  V30 16389 H 1527.29 0.664933 -7.5307 0
M  V30 16390 H 1528.56 1.85341 -7.57145 0
M  V30 16391 N 1532.79 1.52222 -0.408187 0
M  V30 16392 C 1534.04 2.01404 0.167574 0
M  V30 16393 C 1534.36 1.29572 1.45726 0
M  V30 16394 O 1533.63 0.421363 1.91315 0
M  V30 16395 H 1532.21 0.744174 0.0649156 0
M  V30 16396 H 1534.87 1.87148 -0.544212 0
M  V30 16397 H 1533.97 3.09966 0.36436 0
M  V30 16398 N 1534.27 0.138579 1.5699 0
M  V30 16399 C 1535.51 -0.51539 1.96142 0
M  V30 16400 C 1535.85 -1.65067 1.02306 0
M  V30 16401 O 1535.12 -1.94395 0.0638645 0
M  V30 16402 C 1535.4 -1.02956 3.45068 0
M  V30 16403 C 1535.26 0.103646 4.49681 0
M  V30 16404 C 1536.58 -1.91411 3.96295 0
M  V30 16405 H 1533.7 -0.185873 0.713176 0
M  V30 16406 H 1536.34 0.218103 1.88744 0
M  V30 16407 H 1534.49 -1.65462 3.51503 0
M  V30 16408 H 1536.16 0.739693 4.55331 0
M  V30 16409 H 1534.4 0.764014 4.27019 0
M  V30 16410 H 1535.07 -0.297688 5.51197 0
M  V30 16411 H 1537.55 -1.38746 3.92286 0
M  V30 16412 H 1536.43 -2.24298 5.0098 0
M  V30 16413 H 1536.69 -2.84793 3.38149 0
M  V30 16414 N 1535.75 -1.57019 -0.13521 0
M  V30 16415 C 1536.68 -2.02182 -1.16811 0
M  V30 16416 C 1537.66 -0.9034 -1.44127 0
M  V30 16417 O 1538.84 -1.17202 -1.54846 0
M  V30 16418 C 1535.97 -2.41243 -2.49838 0
M  V30 16419 C 1534.93 -3.56379 -2.37018 0
M  V30 16420 C 1534.25 -3.8129 -3.74863 0
M  V30 16421 C 1535.55 -4.88653 -1.84432 0
M  V30 16422 H 1537.25 -2.8872 -0.792529 0
M  V30 16423 H 1534.79 -1.38901 -0.379788 0
M  V30 16424 H 1536.74 -2.7144 -3.22332 0
M  V30 16425 H 1535.47 -1.51656 -2.89254 0
M  V30 16426 H 1534.13 -3.26366 -1.66975 0
M  V30 16427 H 1533.78 -2.88934 -4.11735 0
M  V30 16428 H 1533.48 -4.58781 -3.67143 0
M  V30 16429 H 1535 -4.13924 -4.48887 0
M  V30 16430 H 1536.41 -5.17492 -2.46729 0
M  V30 16431 H 1534.81 -5.70032 -1.87574 0
M  V30 16432 H 1535.88 -4.78242 -0.800759 0
M  V30 16433 N 1537.22 0.404919 -1.52309 0
M  V30 16434 C 1538.45 1.17309 -1.70429 0
M  V30 16435 C 1538.87 1.84169 -0.415617 0
M  V30 16436 O 1538.22 1.7205 0.608693 0
M  V30 16437 C 1538.28 2.23306 -2.84282 0
M  V30 16438 O 1538 1.59176 -4.0816 0
M  V30 16439 C 1539.5 3.12972 -3.13948 0
M  V30 16440 H 1536.72 0.352348 -0.571045 0
M  V30 16441 H 1539.26 0.475851 -1.98887 0
M  V30 16442 H 1537.42 2.88693 -2.58332 0
M  V30 16443 H 1537.83 2.29481 -4.71634 0
M  V30 16444 H 1539.3 3.83411 -3.97115 0
M  V30 16445 H 1539.78 3.75582 -2.27672 0
M  V30 16446 H 1540.39 2.53251 -3.41678 0
M  V30 16447 N 1538.7 1.43003 0.662408 0
M  V30 16448 C 1539.63 1.43407 1.78793 0
M  V30 16449 C 1540.65 0.331423 1.59391 0
M  V30 16450 O 1541.84 0.595291 1.68281 0
M  V30 16451 C 1538.94 1.22239 3.16087 0
M  V30 16452 C 1538.11 2.4517 3.6223 0
M  V30 16453 C 1537.17 2.19362 4.78296 0
M  V30 16454 O 1536.19 2.92651 4.88205 0
M  V30 16455 N 1537.4 1.20449 5.67866 0
M  V30 16456 H 1540.16 2.40426 1.78928 0
M  V30 16457 H 1537.72 1.38042 0.845936 0
M  V30 16458 H 1539.71 1.02871 3.91407 0
M  V30 16459 H 1538.28 0.336983 3.10778 0
M  V30 16460 H 1537.5 2.80024 2.77453 0
M  V30 16461 H 1538.79 3.27003 3.89803 0
M  V30 16462 H 1538.19 0.598577 5.62524 0
M  V30 16463 H 1536.75 1.07066 6.42946 0
M  V30 16464 N 1540.18 -0.899904 1.29381 0
M  V30 16465 C 1541.13 -2.004 1.14493 0
M  V30 16466 C 1542.1 -1.66056 0.0383099 0
M  V30 16467 O 1543.28 -1.89687 0.20579 0
M  V30 16468 C 1540.42 -3.35039 0.827237 0
M  V30 16469 C 1539.54 -3.82166 2.01427 0
M  V30 16470 C 1538.67 -5.0538 1.63598 0
M  V30 16471 C 1537.71 -5.44876 2.78884 0
M  V30 16472 N 1536.85 -6.59276 2.41452 0
M  V30 16473 H 1541.69 -2.12466 2.08955 0
M  V30 16474 H 1539.22 -1.0405 1.03981 0
M  V30 16475 H 1541.18 -4.12511 0.62373 0
M  V30 16476 H 1539.81 -3.227 -0.0804772 0
M  V30 16477 H 1538.86 -3.00731 2.32949 0
M  V30 16478 H 1540.18 -4.07387 2.87814 0
M  V30 16479 H 1539.33 -5.90436 1.39534 0
M  V30 16480 H 1538.07 -4.81998 0.743593 0
M  V30 16481 H 1537.07 -4.58355 3.0363 0
M  V30 16482 H 1538.3 -5.7024 3.68786 0
M  V30 16483 H 1536.24 -6.37498 1.54701 0
M  V30 16484 H 1536.16 -6.84293 3.21372 0
M  V30 16485 H 1537.43 -7.47602 2.20708 0
M  V30 16486 N 1541.66 -1.11854 -1.11024 0
M  V30 16487 C 1542.59 -0.803129 -2.19253 0
M  V30 16488 C 1543.57 0.230417 -1.68532 0
M  V30 16489 O 1544.75 0.0929421 -1.93977 0
M  V30 16490 C 1541.88 -0.250265 -3.46397 0
M  V30 16491 C 1540.84 -1.21617 -4.10357 0
M  V30 16492 C 1540.16 -0.523821 -5.32128 0
M  V30 16493 C 1541.46 -2.56852 -4.54779 0
M  V30 16494 H 1543.16 -1.7081 -2.45895 0
M  V30 16495 H 1540.7 -0.822712 -1.18184 0
M  V30 16496 H 1542.66 -0.0173732 -4.21396 0
M  V30 16497 H 1541.38 0.690018 -3.19228 0
M  V30 16498 H 1540.04 -1.43477 -3.37357 0
M  V30 16499 H 1539.69 0.421408 -5.01232 0
M  V30 16500 H 1539.39 -1.16809 -5.75873 0
M  V30 16501 H 1540.91 -0.299823 -6.09863 0
M  V30 16502 H 1542.33 -2.39056 -5.21081 0
M  V30 16503 H 1540.72 -3.17301 -5.09353 0
M  V30 16504 H 1541.79 -3.15751 -3.68007 0
M  V30 16505 N 1543.14 1.28707 -0.909517 0
M  V30 16506 C 1544.38 1.94768 -0.539413 0
M  V30 16507 C 1544.71 1.7198 0.919133 0
M  V30 16508 O 1543.98 1.0571 1.64931 0
M  V30 16509 H 1542.56 0.720693 -0.196496 0
M  V30 16510 H 1545.22 1.56772 -1.15795 0
M  V30 16511 H 1544.31 3.03436 -0.730281 0
M  V30 16512 N 1544.61 0.673042 1.42506 0
M  V30 16513 C 1546.03 0.272049 1.84707 0
M  V30 16514 C 1546.38 -1.18545 1.56338 0
M  V30 16515 O 1545.5 -1.9073 1.02231 0
M  V30 16516 C 1546.1 0.486977 3.35282 0
M  V30 16517 C 1544.66 0.140122 3.76139 0
M  V30 16518 C 1543.8 0.780276 2.66096 0
M  V30 16519 H 1546.75 0.875329 1.32377 0
M  V30 16520 H 1546.77 -0.261443 3.79601 0
M  V30 16521 H 1546.29 1.54784 3.55898 0
M  V30 16522 H 1544.39 -0.917366 3.6113 0
M  V30 16523 H 1544.5 0.579417 4.75583 0
M  V30 16524 H 1542.86 0.211756 2.53818 0
M  V30 16525 H 1543.65 1.84456 2.89536 0
M  V30 16526 N 1546.09 -1.52004 0.416254 0
M  V30 16527 C 1547.34 -2.02848 -0.149787 0
M  V30 16528 C 1547.69 -1.29603 -1.422 0
M  V30 16529 O 1546.99 -0.395826 -1.87467 0
M  V30 16530 C 1547.18 -3.54624 -0.444553 0
M  V30 16531 C 1547.01 -4.42571 0.797537 0
M  V30 16532 C 1545.78 -4.87623 1.32485 0
M  V30 16533 C 1547.98 -4.86166 1.6777 0
M  V30 16534 N 1545.96 -5.59718 2.52168 0
M  V30 16535 C 1547.33 -5.57115 2.72072 0
M  V30 16536 C 1549.39 -4.68174 1.69462 0
M  V30 16537 C 1548.09 -6.1198 3.77985 0
M  V30 16538 C 1550.11 -5.23942 2.74298 0
M  V30 16539 C 1549.48 -5.94818 3.7732 0
M  V30 16540 H 1545.58 -0.781832 -0.0161927 0
M  V30 16541 H 1548.16 -1.86102 0.5722 0
M  V30 16542 H 1546.33 -3.71429 -1.13558 0
M  V30 16543 H 1548.06 -3.92148 -1.0001 0
M  V30 16544 H 1544.82 -4.65318 0.881837 0
M  V30 16545 H 1545.24 -6.00404 3.128 0
M  V30 16546 H 1549.88 -4.12858 0.911497 0
M  V30 16547 H 1547.6 -6.66364 4.57149 0
M  V30 16548 H 1551.19 -5.11885 2.76523 0
M  V30 16549 H 1550.07 -6.37198 4.57109 0
M  V30 16550 N 1547.57 -0.146903 -1.56914 0
M  V30 16551 C 1548.99 0.20951 -1.58219 0
M  V30 16552 C 1549.19 1.64679 -1.16116 0
M  V30 16553 O 1548.24 2.37352 -0.861414 0
M  V30 16554 C 1549.56 -0.0491564 -3.0066 0
M  V30 16555 C 1551.1 0.0145605 -3.12997 0
M  V30 16556 C 1551.58 -0.216773 -4.57487 0
M  V30 16557 N 1553.07 -0.163698 -4.62911 0
M  V30 16558 C 1553.8 -0.317204 -5.72522 0
M  V30 16559 N 1553.3 -0.528426 -6.90782 0
M  V30 16560 N 1555.09 -0.254814 -5.61522 0
M  V30 16561 H 1547.24 -1.08536 -1.82575 0
M  V30 16562 H 1549.51 -0.42963 -0.845057 0
M  V30 16563 H 1549.21 -1.04387 -3.35851 0
M  V30 16564 H 1549.09 0.670296 -3.71197 0
M  V30 16565 H 1551.47 0.999829 -2.77646 0
M  V30 16566 H 1551.56 -0.737219 -2.44946 0
M  V30 16567 H 1551.2 -1.19914 -4.93541 0
M  V30 16568 H 1551.13 0.555329 -5.23664 0
M  V30 16569 H 1553.62 -0.00509433 -3.779 0
M  V30 16570 H 1553.93 -0.635667 -7.70181 0
M  V30 16571 H 1552.28 -0.564746 -6.92702 0
M  V30 16572 H 1555.47 -0.0905626 -4.68012 0
M  V30 16573 H 1555.64 -0.377881 -6.46897 0
M  V30 16574 N 1549.05 1.57088 0.126881 0
M  V30 16575 C 1550.46 1.52205 0.480175 0
M  V30 16576 C 1550.66 0.858634 1.8229 0
M  V30 16577 O 1549.72 0.437636 2.48679 0
M  V30 16578 C 1551.03 2.96974 0.471931 0
M  V30 16579 C 1552.58 3.08021 0.556037 0
M  V30 16580 C 1553.06 4.54335 0.57826 0
M  V30 16581 N 1554.55 4.58758 0.639922 0
M  V30 16582 C 1555.28 5.69372 0.678434 0
M  V30 16583 N 1554.78 6.89503 0.67507 0
M  V30 16584 N 1556.57 5.57459 0.720845 0
M  V30 16585 H 1548.72 1.98604 -0.753008 0
M  V30 16586 H 1550.99 0.90666 -0.276895 0
M  V30 16587 H 1550.69 3.48849 -0.44687 0
M  V30 16588 H 1550.57 3.53994 1.3026 0
M  V30 16589 H 1552.95 2.56153 1.46526 0
M  V30 16590 H 1553.03 2.54009 -0.302171 0
M  V30 16591 H 1552.68 5.06847 -0.326884 0
M  V30 16592 H 1552.61 5.06151 1.45324 0
M  V30 16593 H 1555.1 3.72285 0.649005 0
M  V30 16594 H 1555.41 7.6956 0.706862 0
M  V30 16595 H 1553.76 6.92023 0.64262 0
M  V30 16596 H 1556.95 4.62517 0.720783 0
M  V30 16597 H 1557.12 6.43675 0.747392 0
M  V30 16598 N 1550.53 -0.396836 1.52522 0
M  V30 16599 C 1551.94 -0.975124 1.59211 0
M  V30 16600 C 1552.29 -1.91199 0.440138 0
M  V30 16601 O 1551.41 -2.11924 -0.437856 0
M  V30 16602 C 1552.01 -1.77531 2.88562 0
M  V30 16603 C 1550.57 -2.30343 2.9769 0
M  V30 16604 C 1549.71 -1.10671 2.54258 0
M  V30 16605 H 1552.67 -0.176646 1.57714 0
M  V30 16606 H 1552.69 -2.63384 2.74607 0
M  V30 16607 H 1552.2 -1.09318 3.72386 0
M  V30 16608 H 1550.3 -3.01891 2.18387 0
M  V30 16609 H 1550.41 -2.60366 4.02177 0
M  V30 16610 H 1548.78 -1.46439 2.08393 0
M  V30 16611 H 1549.56 -0.440061 3.40468 0
M  V30 16612 N 1552.01 -1.43353 -0.654814 0
M  V30 16613 C 1553.25 -1.451 -1.41682 0
M  V30 16614 C 1553.58 -0.0743864 -1.94057 0
M  V30 16615 O 1552.86 0.904515 -1.72188 0
M  V30 16616 C 1553.14 -2.49204 -2.59941 0
M  V30 16617 C 1553 -3.96134 -2.13069 0
M  V30 16618 C 1554.31 -2.50064 -3.62155 0
M  V30 16619 H 1551.43 -0.528339 -0.513836 0
M  V30 16620 H 1554.08 -1.74892 -0.742489 0
M  V30 16621 H 1552.23 -2.2393 -3.1747 0
M  V30 16622 H 1553.9 -4.32459 -1.60552 0
M  V30 16623 H 1552.14 -4.09042 -1.44455 0
M  V30 16624 H 1552.81 -4.64585 -2.98101 0
M  V30 16625 H 1555.29 -2.72587 -3.14382 0
M  V30 16626 H 1554.16 -3.24849 -4.42452 0
M  V30 16627 H 1554.42 -1.53385 -4.14639 0
M  V30 16628 N 1553.48 0.89303 -1.29857 0
M  V30 16629 C 1554.45 1.97944 -1.15546 0
M  V30 16630 C 1555.45 1.60554 -0.088989 0
M  V30 16631 O 1556.64 1.7092 -0.336464 0
M  V30 16632 C 1553.77 3.32126 -0.768442 0
M  V30 16633 H 1554.96 2.12067 -2.12055 0
M  V30 16634 H 1552.51 1.0784 -1.13138 0
M  V30 16635 H 1553.25 3.23704 0.196504 0
M  V30 16636 H 1553.03 3.60631 -1.53907 0
M  V30 16637 H 1554.52 4.11834 -0.691559 0
M  V30 16638 N 1554.96 1.12442 1.10429 0
M  V30 16639 C 1556.19 0.901291 1.85904 0
M  V30 16640 C 1556.6 -0.552928 1.8094 0
M  V30 16641 O 1555.94 -1.39404 1.19633 0
M  V30 16642 C 1556 1.29808 3.35246 0
M  V30 16643 C 1555.67 2.76361 3.63969 0
M  V30 16644 C 1556.67 3.74553 3.60564 0
M  V30 16645 C 1554.35 3.13268 3.92643 0
M  V30 16646 C 1556.34 5.07667 3.85426 0
M  V30 16647 C 1554.03 4.46564 4.17162 0
M  V30 16648 C 1555.03 5.43572 4.13544 0
M  V30 16649 O 1554.72 6.74465 4.37439 0
M  V30 16650 H 1554.45 0.321969 0.5944 0
M  V30 16651 H 1557 1.49816 1.40514 0
M  V30 16652 H 1555.23 0.644416 3.81293 0
M  V30 16653 H 1556.92 1.04908 3.92108 0
M  V30 16654 H 1557.69 3.47385 3.3845 0
M  V30 16655 H 1553.57 2.3837 3.94589 0
M  V30 16656 H 1557.11 5.83375 3.82518 0
M  V30 16657 H 1553.01 4.73461 4.38754 0
M  V30 16658 H 1553.78 6.80412 4.54953 0
M  V30 16659 N 1556.44 -1.28223 0.91633 0
M  V30 16660 C 1557.37 -2.29623 0.423735 0
M  V30 16661 C 1558.35 -1.62274 -0.510016 0
M  V30 16662 O 1559.54 -1.89666 -0.4172 0
M  V30 16663 C 1556.67 -3.45684 -0.334686 0
M  V30 16664 C 1555.62 -4.24949 0.510169 0
M  V30 16665 C 1554.95 -5.33371 -0.376745 0
M  V30 16666 C 1556.25 -4.91438 1.76877 0
M  V30 16667 H 1557.94 -2.71076 1.27115 0
M  V30 16668 H 1555.49 -1.30316 0.612678 0
M  V30 16669 H 1557.44 -4.1571 -0.690154 0
M  V30 16670 H 1556.16 -3.03118 -1.21603 0
M  V30 16671 H 1554.82 -3.56653 0.848191 0
M  V30 16672 H 1554.47 -4.87048 -1.25671 0
M  V30 16673 H 1554.17 -5.87309 0.18496 0
M  V30 16674 H 1555.69 -6.06244 -0.728039 0
M  V30 16675 H 1557.11 -5.53812 1.48205 0
M  V30 16676 H 1555.5 -5.55384 2.27308 0
M  V30 16677 H 1556.57 -4.15783 2.49505 0
M  V30 16678 N 1557.92 -0.68059 -1.42147 0
M  V30 16679 C 1559.14 -0.212293 -2.06311 0
M  V30 16680 C 1559.57 1.12402 -1.50822 0
M  V30 16681 O 1558.93 1.70037 -0.629051 0
M  V30 16682 C 1558.97 -0.164156 -3.60226 0
M  V30 16683 O 1558.08 0.865582 -4.03214 0
M  V30 16684 H 1557.42 -0.107451 -0.655248 0
M  V30 16685 H 1559.95 -0.931233 -1.82179 0
M  V30 16686 H 1559.96 0.0100422 -4.07999 0
M  V30 16687 H 1558.63 -1.13952 -3.99985 0
M  V30 16688 H 1557.21 0.661955 -3.66978 0
M  V30 16689 N 1559.4 1.51781 -0.424309 0
M  V30 16690 C 1560.34 2.27418 0.393668 0
M  V30 16691 C 1561.31 1.3046 1.02808 0
M  V30 16692 O 1562.5 1.59345 1.04946 0
M  V30 16693 C 1559.64 3.10983 1.49611 0
M  V30 16694 C 1558.75 4.22919 0.881123 0
M  V30 16695 C 1557.89 4.93816 1.95752 0
M  V30 16696 C 1556.92 5.97691 1.32028 0
M  V30 16697 N 1556.06 6.62047 2.33747 0
M  V30 16698 H 1560.9 2.96883 -0.257731 0
M  V30 16699 H 1558.44 1.46442 -0.138942 0
M  V30 16700 H 1560.4 3.57749 2.14642 0
M  V30 16701 H 1559.03 2.43658 2.11732 0
M  V30 16702 H 1558.08 3.80212 0.119445 0
M  V30 16703 H 1559.39 4.97383 0.375764 0
M  V30 16704 H 1558.54 5.44064 2.68476 0
M  V30 16705 H 1557.28 4.18954 2.49658 0
M  V30 16706 H 1556.29 5.46749 0.578444 0
M  V30 16707 H 1557.51 6.74504 0.788722 0
M  V30 16708 H 1555.46 5.90005 2.86757 0
M  V30 16709 H 1555.38 7.32234 1.88066 0
M  V30 16710 H 1556.64 7.16929 3.05995 0
M  V30 16711 N 1560.87 0.155222 1.56834 0
M  V30 16712 C 1561.82 -0.781315 2.17173 0
M  V30 16713 C 1562.79 -1.23835 1.10699 0
M  V30 16714 O 1563.98 -1.3094 1.38778 0
M  V30 16715 C 1561.12 -2.01174 2.80398 0
M  V30 16716 C 1560.23 -1.59976 4.01287 0
M  V30 16717 C 1559.36 -2.78262 4.52486 0
M  V30 16718 C 1558.4 -2.33477 5.65822 0
M  V30 16719 N 1557.54 -3.44799 6.11603 0
M  V30 16720 H 1562.38 -0.259968 2.96864 0
M  V30 16721 H 1559.92 -0.116599 1.46637 0
M  V30 16722 H 1561.87 -2.73318 3.15203 0
M  V30 16723 H 1560.5 -2.50706 2.03338 0
M  V30 16724 H 1559.56 -0.775668 3.72408 0
M  V30 16725 H 1560.87 -1.2309 4.83374 0
M  V30 16726 H 1560.02 -3.58585 4.89389 0
M  V30 16727 H 1558.76 -3.18398 3.69424 0
M  V30 16728 H 1557.77 -1.51596 5.28487 0
M  V30 16729 H 1558.99 -1.94417 6.50676 0
M  V30 16730 H 1556.94 -3.84541 5.31474 0
M  V30 16731 H 1556.85 -3.11955 6.88637 0
M  V30 16732 H 1558.12 -4.25454 6.53153 0
M  V30 16733 N 1562.35 -1.57153 -0.118549 0
M  V30 16734 C 1563.28 -2.03409 -1.1466 0
M  V30 16735 C 1564.26 -0.918636 -1.43161 0
M  V30 16736 O 1565.45 -1.18838 -1.53594 0
M  V30 16737 C 1562.58 -2.43879 -2.47265 0
M  V30 16738 C 1561.53 -3.58873 -2.33225 0
M  V30 16739 C 1560.86 -3.85244 -3.70798 0
M  V30 16740 C 1562.16 -4.90582 -1.79239 0
M  V30 16741 H 1563.85 -2.89545 -0.761862 0
M  V30 16742 H 1561.4 -1.39296 -0.365034 0
M  V30 16743 H 1563.35 -2.74844 -3.19435 0
M  V30 16744 H 1562.07 -1.54715 -2.8763 0
M  V30 16745 H 1560.73 -3.28119 -1.63504 0
M  V30 16746 H 1560.38 -2.93285 -4.08648 0
M  V30 16747 H 1560.08 -4.62649 -3.62257 0
M  V30 16748 H 1561.61 -4.18661 -4.44472 0
M  V30 16749 H 1563.02 -5.20079 -2.41227 0
M  V30 16750 H 1561.42 -5.71989 -1.81518 0
M  V30 16751 H 1562.49 -4.79065 -0.74999 0
M  V30 16752 N 1563.83 0.388742 -1.5273 0
M  V30 16753 C 1565.11 1.14799 -1.58368 0
M  V30 16754 C 1565.49 2.07706 -0.377018 0
M  V30 16755 O 1564.83 2.1951 0.634634 0
M  V30 16756 C 1565.04 1.90745 -2.92262 0
M  V30 16757 C 1566.39 2.46098 -3.46007 0
M  V30 16758 O 1567.42 2.00901 -2.94138 0
M  V30 16759 O 1566.28 3.28658 -4.3663 0
M  V30 16760 H 1563.37 0.52529 -0.638748 0
M  V30 16761 H 1565.92 0.393874 -1.65066 0
M  V30 16762 H 1564.69 1.22806 -3.7153 0
M  V30 16763 H 1564.31 2.73118 -2.88951 0
M  V30 16764 N 1565.31 1.43698 0.647203 0
M  V30 16765 C 1566.72 1.40586 1.22851 0
M  V30 16766 C 1567.07 0.112981 1.95874 0
M  V30 16767 O 1566.19 -0.787342 2.01569 0
M  V30 16768 C 1566.79 2.54672 2.23445 0
M  V30 16769 C 1565.35 2.54806 2.7704 0
M  V30 16770 C 1564.5 2.32076 1.51777 0
M  V30 16771 H 1567.45 1.52512 0.43885 0
M  V30 16772 H 1567.47 2.26505 3.05738 0
M  V30 16773 H 1566.98 3.48755 1.70269 0
M  V30 16774 H 1565.08 1.64619 3.34262 0
M  V30 16775 H 1565.19 3.52771 3.24175 0
M  V30 16776 H 1563.56 1.80858 1.79339 0
M  V30 16777 H 1564.34 3.28252 1.00527 0
M  V30 16778 N 1566.79 -0.886131 1.30328 0
M  V30 16779 C 1568.03 -1.64026 1.19261 0
M  V30 16780 C 1568.37 -1.92553 -0.252379 0
M  V30 16781 O 1567.64 -1.54564 -1.18069 0
M  V30 16782 C 1567.92 -2.9808 2.0204 0
M  V30 16783 C 1567.78 -2.76534 3.54752 0
M  V30 16784 C 1569.1 -3.98989 1.85731 0
M  V30 16785 H 1566.21 -0.595224 0.4346 0
M  V30 16786 H 1568.86 -1.0255 1.59949 0
M  V30 16787 H 1567.01 -3.50552 1.67469 0
M  V30 16788 H 1568.68 -2.3086 3.99376 0
M  V30 16789 H 1566.92 -2.1106 3.78993 0
M  V30 16790 H 1567.59 -3.71849 4.07961 0
M  V30 16791 H 1570.07 -3.55673 2.15953 0
M  V30 16792 H 1568.94 -4.90699 2.45979 0
M  V30 16793 H 1569.21 -4.34501 0.816152 0
M  V30 16794 N 1568.26 -1.13026 -1.09832 0
M  V30 16795 C 1569.23 -0.806832 -2.14529 0
M  V30 16796 C 1570.23 0.18175 -1.5977 0
M  V30 16797 O 1571.42 -0.0448155 -1.74142 0
M  V30 16798 C 1568.55 -0.200093 -3.40312 0
M  V30 16799 H 1569.74 -1.73453 -2.44651 0
M  V30 16800 H 1567.3 -0.934331 -1.25299 0
M  V30 16801 H 1568.03 0.737028 -3.15814 0
M  V30 16802 H 1567.82 -0.911945 -3.81348 0
M  V30 16803 H 1569.31 0.00948247 -4.17599 0
M  V30 16804 N 1569.74 1.27735 -0.923117 0
M  V30 16805 C 1570.71 2.25256 -0.423375 0
M  V30 16806 C 1571.71 1.54213 0.455517 0
M  V30 16807 O 1572.9 1.7229 0.257245 0
M  V30 16808 C 1570.03 3.3864 0.391897 0
M  V30 16809 H 1571.22 2.70978 -1.28495 0
M  V30 16810 H 1568.77 1.39579 -0.703378 0
M  V30 16811 H 1569.51 2.98293 1.27248 0
M  V30 16812 H 1569.29 3.91376 -0.238194 0
M  V30 16813 H 1570.78 4.11133 0.732069 0
M  V30 16814 N 1571.22 0.688118 1.41784 0
M  V30 16815 C 1572.47 0.215517 2.00948 0
M  V30 16816 C 1572.79 -1.18656 1.54744 0
M  V30 16817 O 1572.06 -1.79925 0.774831 0
M  V30 16818 H 1570.64 0.0766876 0.743053 0
M  V30 16819 H 1573.3 0.88761 1.73515 0
M  V30 16820 H 1572.4 0.227139 3.11272 0
M  V30 16821 N 1572.7 -1.51554 0.432352 0
M  V30 16822 C 1573.94 -2.02995 -0.128264 0
M  V30 16823 C 1574.3 -1.31104 -1.40817 0
M  V30 16824 O 1573.59 -0.415687 -1.87036 0
M  V30 16825 C 1573.79 -3.55076 -0.406915 0
M  V30 16826 C 1573.62 -4.41701 0.844433 0
M  V30 16827 C 1572.39 -4.8619 1.37649 0
M  V30 16828 C 1574.58 -4.8436 1.72917 0
M  V30 16829 N 1572.57 -5.57012 2.5809 0
M  V30 16830 C 1573.94 -5.54198 2.77966 0
M  V30 16831 C 1575.99 -4.66351 1.74418 0
M  V30 16832 C 1574.69 -6.07937 3.84455 0
M  V30 16833 C 1576.72 -5.21003 2.79839 0
M  V30 16834 C 1576.08 -5.90783 3.83608 0
M  V30 16835 H 1572.18 -0.78196 -0.00789942 0
M  V30 16836 H 1574.77 -1.85485 0.591906 0
M  V30 16837 H 1572.94 -3.72612 -1.09612 0
M  V30 16838 H 1574.67 -3.93187 -0.958451 0
M  V30 16839 H 1571.42 -4.64356 0.931141 0
M  V30 16840 H 1571.85 -5.97053 3.1915 0
M  V30 16841 H 1576.49 -4.11868 0.955235 0
M  V30 16842 H 1574.21 -6.61478 4.64191 0
M  V30 16843 H 1577.79 -5.08923 2.81936 0
M  V30 16844 H 1576.67 -6.32313 4.63842 0
M  V30 16845 N 1574.18 -0.163538 -1.56749 0
M  V30 16846 C 1575.59 0.354516 -1.83303 0
M  V30 16847 C 1575.94 1.63601 -1.08301 0
M  V30 16848 O 1575.06 2.13814 -0.333546 0
M  V30 16849 C 1575.66 0.649983 -3.32507 0
M  V30 16850 C 1574.22 1.1125 -3.59584 0
M  V30 16851 C 1573.36 0.144257 -2.76925 0
M  V30 16852 H 1576.32 -0.387945 -1.53885 0
M  V30 16853 H 1576.34 1.5029 -3.49562 0
M  V30 16854 H 1575.85 -0.282886 -3.87068 0
M  V30 16855 H 1573.95 2.06074 -3.10426 0
M  V30 16856 H 1574.06 1.02704 -4.67962 0
M  V30 16857 H 1572.43 0.640116 -2.46525 0
M  V30 16858 H 1573.21 -0.782495 -3.34263 0
M  V30 16859 N 1575.65 1.57214 0.110213 0
M  V30 16860 C 1577.07 1.74402 0.666405 0
M  V30 16861 C 1577.42 0.783524 1.79876 0
M  V30 16862 O 1576.54 -0.0415306 2.1636 0
M  V30 16863 C 1577.14 3.1624 1.21564 0
M  V30 16864 C 1575.7 3.34904 1.71804 0
M  V30 16865 C 1574.84 2.70249 0.621347 0
M  V30 16866 H 1577.79 1.58277 -0.115765 0
M  V30 16867 H 1577.81 3.18276 2.0852 0
M  V30 16868 H 1577.33 3.86123 0.391273 0
M  V30 16869 H 1575.43 2.70077 2.56689 0
M  V30 16870 H 1575.54 4.43126 1.82143 0
M  V30 16871 H 1573.9 2.31727 1.05711 0
M  V30 16872 H 1574.69 3.42762 -0.192185 0
M  V30 16873 N 1577.13 -0.380637 1.52934 0
M  V30 16874 C 1578.37 -1.13369 1.70079 0
M  V30 16875 C 1578.74 -1.86994 0.435592 0
M  V30 16876 O 1579.94 -2.64416 0.483515 0
M  V30 16877 C 1578.21 -2.07933 2.90686 0
M  V30 16878 S 1579.77 -2.90962 3.28461 0
M  V30 16879 H 1576.59 -0.383638 0.598617 0
M  V30 16880 H 1579.19 -0.416966 1.91002 0
M  V30 16881 H 1577.89 -1.52581 3.80982 0
M  V30 16882 H 1577.42 -2.84101 2.72121 0
M  V30 16883 H 1579.44 -4.10129 2.793 0
M  V30 16884 N 1578.61 -1.44039 -0.639573 0
M  V30 16885 C 1579.54 -1.53073 -1.76327 0
M  V30 16886 C 1580.52 -0.384344 -1.65701 0
M  V30 16887 O 1581.71 -0.603362 -1.84589 0
M  V30 16888 C 1578.84 -1.46646 -3.14821 0
M  V30 16889 C 1577.79 -2.59673 -3.40226 0
M  V30 16890 C 1577.12 -2.38298 -4.78663 0
M  V30 16891 C 1578.42 -4.01864 -3.33621 0
M  V30 16892 H 1580.11 -2.47126 -1.69023 0
M  V30 16893 H 1577.66 -1.1894 -0.811749 0
M  V30 16894 H 1579.61 -1.51567 -3.93199 0
M  V30 16895 H 1578.33 -0.491035 -3.22888 0
M  V30 16896 H 1576.99 -2.54127 -2.64225 0
M  V30 16897 H 1576.64 -1.38968 -4.83422 0
M  V30 16898 H 1576.34 -3.14074 -4.9662 0
M  V30 16899 H 1577.86 -2.45025 -5.59281 0
M  V30 16900 H 1579.28 -4.08824 -4.01915 0
M  V30 16901 H 1577.68 -4.77775 -3.63113 0
M  V30 16902 H 1578.75 -4.26033 -2.31569 0
M  V30 16903 N 1580.09 0.879207 -1.30796 0
M  V30 16904 C 1581.5 1.16344 -1.09253 0
M  V30 16905 C 1581.7 2.00992 0.142993 0
M  V30 16906 O 1580.76 2.38295 0.834966 0
M  V30 16907 C 1582.07 1.86452 -2.35915 0
M  V30 16908 C 1583.62 1.99193 -2.41436 0
M  V30 16909 C 1584.1 2.72714 -3.67955 0
M  V30 16910 N 1585.59 2.80256 -3.68796 0
M  V30 16911 C 1586.32 3.37732 -4.63384 0
M  V30 16912 N 1585.82 3.96212 -5.6832 0
M  V30 16913 N 1587.61 3.35602 -4.50918 0
M  V30 16914 H 1579.76 0.314928 -2.10052 0
M  V30 16915 H 1582.03 0.202087 -0.92621 0
M  V30 16916 H 1581.73 1.31699 -3.26111 0
M  V30 16917 H 1581.61 2.86796 -2.45006 0
M  V30 16918 H 1583.99 2.53113 -1.51716 0
M  V30 16919 H 1584.07 0.97919 -2.36317 0
M  V30 16920 H 1583.72 2.19464 -4.58037 0
M  V30 16921 H 1583.65 3.74376 -3.70338 0
M  V30 16922 H 1586.14 2.38742 -2.92935 0
M  V30 16923 H 1586.45 4.38153 -6.36586 0
M  V30 16924 H 1584.8 3.94615 -5.72105 0
M  V30 16925 H 1587.99 2.89147 -3.68119 0
M  V30 16926 H 1588.16 3.80099 -5.24813 0
M  V30 16927 N 1581.57 1.13606 1.09231 0
M  V30 16928 C 1582.5 0.758936 2.1521 0
M  V30 16929 C 1583.48 -0.255788 1.60575 0
M  V30 16930 O 1584.66 -0.14682 1.87927 0
M  V30 16931 C 1581.79 0.125401 3.38468 0
M  V30 16932 C 1580.84 1.10894 4.11831 0
M  V30 16933 S 1581.67 2.64233 4.65769 0
M  V30 16934 C 1582.82 2.02246 5.92324 0
M  V30 16935 H 1583.06 1.65661 2.46868 0
M  V30 16936 H 1580.59 0.956419 1.2121 0
M  V30 16937 H 1582.55 -0.233725 4.09834 0
M  V30 16938 H 1581.21 -0.749575 3.05025 0
M  V30 16939 H 1580.4 0.613519 5.00252 0
M  V30 16940 H 1580 1.41163 3.46336 0
M  V30 16941 H 1582.3 1.37275 6.63447 0
M  V30 16942 H 1583.24 2.88756 6.46549 0
M  V30 16943 H 1583.65 1.47321 5.44937 0
M  V30 16944 N 1583.05 -1.27244 0.929878 0
M  V30 16945 C 1584.29 -1.94557 0.572306 0
M  V30 16946 C 1584.62 -1.72886 -0.884542 0
M  V30 16947 O 1583.9 -1.0592 -1.63129 0
M  V30 16948 C 1584.18 -3.48629 0.901675 0
M  V30 16949 C 1584.04 -3.79633 2.41244 0
M  V30 16950 C 1585.35 -4.38195 0.409093 0
M  V30 16951 H 1582.47 -0.706627 0.209397 0
M  V30 16952 H 1585.12 -1.50321 1.16205 0
M  V30 16953 H 1583.27 -3.86437 0.399791 0
M  V30 16954 H 1584.94 -3.51604 2.98618 0
M  V30 16955 H 1583.18 -3.26108 2.8607 0
M  V30 16956 H 1583.85 -4.87284 2.59342 0
M  V30 16957 H 1586.33 -4.07548 0.839256 0
M  V30 16958 H 1585.2 -5.44814 0.668482 0
M  V30 16959 H 1585.46 -4.36669 -0.690861 0
M  V30 16960 N 1584.52 -0.695628 -1.41417 0
M  V30 16961 C 1585.49 -0.0392949 -2.29166 0
M  V30 16962 C 1586.49 0.70789 -1.4438 0
M  V30 16963 O 1587.68 0.542771 -1.65528 0
M  V30 16964 C 1584.81 0.954719 -3.27258 0
M  V30 16965 H 1586 -0.811902 -2.88701 0
M  V30 16966 H 1583.55 -0.459128 -1.49405 0
M  V30 16967 H 1584.29 1.75509 -2.72703 0
M  V30 16968 H 1584.07 0.422079 -3.89822 0
M  V30 16969 H 1585.56 1.41174 -3.93014 0
M  V30 16970 N 1586 1.51322 -0.440383 0
M  V30 16971 C 1586.96 2.26388 0.357911 0
M  V30 16972 C 1587.96 1.2995 0.947083 0
M  V30 16973 O 1589.15 1.53637 0.821057 0
M  V30 16974 C 1586.29 3.05797 1.50669 0
M  V30 16975 H 1587.48 2.98396 -0.300002 0
M  V30 16976 H 1585.03 1.55096 -0.193628 0
M  V30 16977 H 1585.77 2.38213 2.20057 0
M  V30 16978 H 1585.55 3.76634 1.09037 0
M  V30 16979 H 1587.04 3.6265 2.07062 0
M  V30 16980 N 1587.48 0.171848 1.5666 0
M  V30 16981 C 1588.73 -0.473061 1.96074 0
M  V30 16982 C 1589.04 -1.64353 1.06054 0
M  V30 16983 O 1590.25 -2.35471 1.35151 0
M  V30 16984 C 1588.7 -0.892995 3.48645 0
M  V30 16985 C 1588.31 0.251902 4.47291 0
M  V30 16986 C 1590.06 -1.50629 3.96877 0
M  V30 16987 C 1587.96 -0.187691 5.91102 0
M  V30 16988 H 1586.89 -0.180503 0.732075 0
M  V30 16989 H 1589.54 0.260164 1.81646 0
M  V30 16990 H 1587.93 -1.68221 3.58494 0
M  V30 16991 H 1589.1 1.02923 4.49159 0
M  V30 16992 H 1587.41 0.775193 4.09121 0
M  V30 16993 H 1590.01 -1.84724 5.01778 0
M  V30 16994 H 1590.35 -2.4044 3.39844 0
M  V30 16995 H 1590.89 -0.781502 3.90048 0
M  V30 16996 H 1587.63 0.675653 6.52009 0
M  V30 16997 H 1587.15 -0.93037 5.9254 0
M  V30 16998 H 1588.83 -0.631385 6.43912 0
M  V30 16999 N 1588.96 -1.5727 -0.101874 0
M  V30 17000 C 1589.92 -2.00625 -1.10826 0
M  V30 17001 C 1590.92 -0.89878 -1.33336 0
M  V30 17002 O 1592.11 -1.16442 -1.29564 0
M  V30 17003 C 1589.24 -2.36113 -2.45893 0
M  V30 17004 H 1590.44 -2.90748 -0.735238 0
M  V30 17005 H 1587.99 -1.52406 -0.346713 0
M  V30 17006 H 1588.72 -1.48923 -2.88084 0
M  V30 17007 H 1588.51 -3.169 -2.30904 0
M  V30 17008 H 1590 -2.70336 -3.1829 0
M  V30 17009 N 1590.44 0.372521 -1.53134 0
M  V30 17010 C 1591.68 1.11754 -1.6923 0
M  V30 17011 C 1592.01 1.89167 -0.439265 0
M  V30 17012 O 1591.29 1.86164 0.563317 0
M  V30 17013 C 1591.57 2.08242 -2.93781 0
M  V30 17014 C 1591.43 1.34484 -4.29225 0
M  V30 17015 C 1592.74 3.08457 -3.13914 0
M  V30 17016 H 1589.86 0.404898 -0.615814 0
M  V30 17017 H 1592.51 0.399101 -1.85761 0
M  V30 17018 H 1590.66 2.69507 -2.79818 0
M  V30 17019 H 1592.33 0.76056 -4.54987 0
M  V30 17020 H 1590.57 0.646673 -4.28953 0
M  V30 17021 H 1591.24 2.05071 -5.12494 0
M  V30 17022 H 1593.72 2.57292 -3.27017 0
M  V30 17023 H 1592.59 3.73198 -4.0251 0
M  V30 17024 H 1592.85 3.78243 -2.28878 0
M  V30 17025 N 1591.91 1.44376 0.631925 0
M  V30 17026 C 1592.84 1.54005 1.75512 0
M  V30 17027 C 1593.82 0.393126 1.65495 0
M  V30 17028 O 1595.01 0.613143 1.84267 0
M  V30 17029 C 1592.14 1.48313 3.14039 0
M  V30 17030 C 1591.09 2.61474 3.38844 0
M  V30 17031 C 1590.42 2.40834 4.77392 0
M  V30 17032 C 1591.72 4.03627 3.31485 0
M  V30 17033 H 1593.41 2.48019 1.6771 0
M  V30 17034 H 1590.96 1.19368 0.80543 0
M  V30 17035 H 1592.91 1.5365 3.9239 0
M  V30 17036 H 1591.64 0.508152 3.22623 0
M  V30 17037 H 1590.3 2.55525 2.62874 0
M  V30 17038 H 1589.94 1.4153 4.82678 0
M  V30 17039 H 1589.64 3.16703 4.94947 0
M  V30 17040 H 1591.17 2.47988 5.57974 0
M  V30 17041 H 1592.58 4.1095 3.99741 0
M  V30 17042 H 1590.98 4.79694 3.60574 0
M  V30 17043 H 1592.05 4.27255 2.29307 0
M  V30 17044 N 1593.39 -0.872258 1.31261 0
M  V30 17045 C 1594.62 -1.65795 1.23772 0
M  V30 17046 C 1595.03 -1.87766 -0.197351 0
M  V30 17047 O 1594.39 -1.43418 -1.1286 0
M  V30 17048 C 1594.44 -3.02722 1.9759 0
M  V30 17049 O 1594.16 -2.81734 3.35496 0
M  V30 17050 C 1595.66 -3.97165 1.96913 0
M  V30 17051 H 1592.88 -0.516959 0.427778 0
M  V30 17052 H 1595.43 -1.0889 1.73099 0
M  V30 17053 H 1593.58 -3.56322 1.5203 0
M  V30 17054 H 1594 -3.6869 3.73052 0
M  V30 17055 H 1595.47 -4.90566 2.53079 0
M  V30 17056 H 1595.95 -4.28778 0.951089 0
M  V30 17057 H 1596.55 -3.495 2.42342 0
M  V30 17058 N 1594.87 -1.14184 -1.08627 0
M  V30 17059 C 1595.82 -0.826718 -2.15486 0
M  V30 17060 C 1596.79 0.214769 -1.64706 0
M  V30 17061 O 1597.97 0.0851909 -1.9061 0
M  V30 17062 C 1595.11 -0.307888 -3.43724 0
M  V30 17063 C 1594.22 -1.40941 -4.08362 0
M  V30 17064 C 1593.36 -0.848059 -5.24387 0
M  V30 17065 C 1592.4 -1.92741 -5.80962 0
M  V30 17066 N 1591.54 -1.3834 -6.88336 0
M  V30 17067 H 1596.38 -1.74198 -2.41783 0
M  V30 17068 H 1593.91 -0.869406 -1.18658 0
M  V30 17069 H 1595.87 0.0111149 -4.17199 0
M  V30 17070 H 1594.5 0.570488 -3.17719 0
M  V30 17071 H 1593.55 -1.84485 -3.3267 0
M  V30 17072 H 1594.86 -2.22485 -4.46433 0
M  V30 17073 H 1594.02 -0.480826 -6.04792 0
M  V30 17074 H 1592.76 -0.00163783 -4.877 0
M  V30 17075 H 1591.76 -2.30362 -4.99213 0
M  V30 17076 H 1592.99 -2.77738 -6.19708 0
M  V30 17077 H 1590.93 -0.559124 -6.53613 0
M  V30 17078 H 1590.85 -2.13524 -7.2522 0
M  V30 17079 H 1592.12 -1.044 -7.72477 0
M  V30 17080 N 1596.35 1.26749 -0.936613 0
M  V30 17081 C 1597.63 1.89106 -0.49981 0
M  V30 17082 C 1598.01 1.84687 1.02244 0
M  V30 17083 O 1597.35 1.2981 1.88047 0
M  V30 17084 C 1597.56 3.32641 -1.05598 0
M  V30 17085 C 1598.91 4.09511 -1.12187 0
M  V30 17086 O 1599.94 3.41692 -1.00624 0
M  V30 17087 O 1598.79 5.30785 -1.30113 0
M  V30 17088 H 1595.89 0.810941 -0.162185 0
M  V30 17089 H 1598.43 1.34952 -1.02888 0
M  V30 17090 H 1597.21 3.30196 -2.09968 0
M  V30 17091 H 1596.83 3.94327 -0.509086 0
M  V30 17092 N 1597.83 0.703118 1.41046 0
M  V30 17093 C 1598.79 0.0514476 2.29142 0
M  V30 17094 C 1599.79 -0.700223 1.44753 0
M  V30 17095 O 1600.98 -0.533985 1.65814 0
M  V30 17096 C 1598.11 -0.93735 3.2776 0
M  V30 17097 H 1599.3 0.827201 2.88266 0
M  V30 17098 H 1596.86 0.467045 1.49159 0
M  V30 17099 H 1597.59 -1.7406 2.7363 0
M  V30 17100 H 1597.38 -0.4014 3.9004 0
M  V30 17101 H 1598.87 -1.39088 3.93757 0
M  V30 17102 N 1599.3 -1.51086 0.448402 0
M  V30 17103 C 1600.55 -2.01778 -0.114116 0
M  V30 17104 C 1600.87 -1.3339 -1.4224 0
M  V30 17105 O 1600.14 -0.471938 -1.9013 0
M  V30 17106 H 1598.72 -0.745634 -0.0451624 0
M  V30 17107 H 1601.39 -1.85639 0.59364 0
M  V30 17108 H 1600.48 -3.10823 -0.28205 0
M  V30 17109 N 1600.78 -0.180154 -1.56567 0
M  V30 17110 C 1601.73 0.746666 -2.18389 0
M  V30 17111 C 1602.7 1.22058 -1.12655 0
M  V30 17112 O 1603.88 1.28716 -1.40843 0
M  V30 17113 C 1601.02 1.96688 -2.83563 0
M  V30 17114 C 1600.14 1.53572 -4.03782 0
M  V30 17115 C 1599.27 2.71028 -4.56856 0
M  V30 17116 C 1598.31 2.24445 -5.69465 0
M  V30 17117 N 1597.45 3.35026 -6.17011 0
M  V30 17118 H 1602.29 0.212707 -2.9724 0
M  V30 17119 H 1599.83 0.093256 -1.46804 0
M  V30 17120 H 1601.78 2.68269 -3.19511 0
M  V30 17121 H 1600.41 2.4744 -2.073 0
M  V30 17122 H 1599.47 0.716323 -3.73595 0
M  V30 17123 H 1600.78 1.15385 -4.85271 0
M  V30 17124 H 1599.93 3.50753 -4.95032 0
M  V30 17125 H 1598.67 3.1248 -3.74443 0
M  V30 17126 H 1597.68 1.43169 -5.30832 0
M  V30 17127 H 1598.9 1.84041 -6.53686 0
M  V30 17128 H 1596.85 3.76037 -5.37524 0
M  V30 17129 H 1596.76 3.0096 -6.93512 0
M  V30 17130 H 1598.03 4.15009 -6.59839 0
M  V30 17131 N 1602.26 1.57322 0.0935319 0
M  V30 17132 C 1603.19 2.05208 1.11409 0
M  V30 17133 C 1604.17 0.941295 1.41681 0
M  V30 17134 O 1605.36 1.21266 1.51684 0
M  V30 17135 C 1602.49 2.47782 2.43354 0
M  V30 17136 C 1601.44 3.62538 2.27486 0
M  V30 17137 C 1600.77 3.91095 3.64622 0
M  V30 17138 C 1602.07 4.93371 1.71412 0
M  V30 17139 H 1603.76 2.9072 0.715702 0
M  V30 17140 H 1601.31 1.3986 0.342827 0
M  V30 17141 H 1603.26 2.79891 3.15022 0
M  V30 17142 H 1601.98 1.59272 2.85132 0
M  V30 17143 H 1600.64 3.30679 1.58263 0
M  V30 17144 H 1600.29 2.99749 4.0393 0
M  V30 17145 H 1599.99 4.68353 3.5485 0
M  V30 17146 H 1601.51 4.25679 4.37755 0
M  V30 17147 H 1602.93 5.23851 2.32922 0
M  V30 17148 H 1601.33 5.74804 1.72395 0
M  V30 17149 H 1602.4 4.80197 0.67368 0
M  V30 17150 N 1603.74 -0.364395 1.53329 0
M  V30 17151 C 1604.97 -1.1275 1.7348 0
M  V30 17152 C 1605.38 -1.83002 0.4643 0
M  V30 17153 O 1604.74 -1.73603 -0.562864 0
M  V30 17154 C 1604.79 -2.15691 2.90103 0
M  V30 17155 O 1604.51 -1.48298 4.12237 0
M  V30 17156 C 1606.01 -3.04539 3.22135 0
M  V30 17157 H 1603.23 -0.337084 0.580186 0
M  V30 17158 H 1605.78 -0.422952 2.00078 0
M  V30 17159 H 1603.93 -2.81742 2.65895 0
M  V30 17160 H 1604.34 -2.16896 4.77553 0
M  V30 17161 H 1605.82 -3.72747 4.07141 0
M  V30 17162 H 1606.3 -3.69414 2.3755 0
M  V30 17163 H 1606.9 -2.44103 3.48273 0
M  V30 17164 N 1605.22 -1.44709 -0.62426 0
M  V30 17165 C 1606.15 -1.46578 -1.749 0
M  V30 17166 C 1607.13 -0.323875 -1.59342 0
M  V30 17167 O 1608.31 -0.521884 -1.81132 0
M  V30 17168 C 1605.44 -1.30499 -3.1255 0
M  V30 17169 C 1604.48 -2.48341 -3.4674 0
M  V30 17170 S 1605.32 -4.10857 -3.43448 0
M  V30 17171 C 1606.47 -3.97213 -4.83707 0
M  V30 17172 H 1606.71 -2.41747 -1.73049 0
M  V30 17173 H 1604.24 -1.3209 -0.799473 0
M  V30 17174 H 1606.2 -1.2191 -3.9198 0
M  V30 17175 H 1604.86 -0.368301 -3.11933 0
M  V30 17176 H 1604.05 -2.32972 -4.46923 0
M  V30 17177 H 1603.65 -2.53706 -2.74789 0
M  V30 17178 H 1605.95 -3.61328 -5.73104 0
M  V30 17179 H 1606.89 -4.9725 -5.04131 0
M  V30 17180 H 1607.3 -3.29154 -4.58604 0
M  V30 17181 N 1606.69 0.865285 -1.31722 0
M  V30 17182 C 1607.94 1.61549 -1.21435 0
M  V30 17183 C 1608.26 1.9368 0.226501 0
M  V30 17184 O 1607.53 1.58705 1.14846 0
M  V30 17185 H 1606.11 0.598905 -0.446454 0
M  V30 17186 H 1608.78 1.03563 -1.65108 0
M  V30 17187 H 1607.87 2.55708 -1.78941 0
M  V30 17188 N 1608.17 1.14759 1.0802 0
M  V30 17189 C 1609.1 0.795901 2.14937 0
M  V30 17190 C 1610.12 -0.189008 1.61699 0
M  V30 17191 O 1611.31 0.0332689 1.78469 0
M  V30 17192 C 1608.41 0.161388 3.38516 0
M  V30 17193 C 1607.58 1.18202 4.21126 0
M  V30 17194 C 1606.64 0.570535 5.23098 0
M  V30 17195 O 1605.66 1.2346 5.55649 0
M  V30 17196 N 1606.87 -0.650883 5.76839 0
M  V30 17197 H 1609.63 1.716 2.4571 0
M  V30 17198 H 1607.19 1.04254 1.23866 0
M  V30 17199 H 1609.18 -0.260289 4.03862 0
M  V30 17200 H 1607.75 -0.661917 3.05512 0
M  V30 17201 H 1606.97 1.78049 3.51699 0
M  V30 17202 H 1608.26 1.87135 4.73136 0
M  V30 17203 H 1607.66 -1.2089 5.52632 0
M  V30 17204 H 1606.22 -1.01501 6.43848 0
M  V30 17205 N 1609.65 -1.26251 0.943322 0
M  V30 17206 C 1611.06 -1.75591 0.634391 0
M  V30 17207 C 1611.41 -1.76812 -0.850406 0
M  V30 17208 O 1610.54 -1.38162 -1.66554 0
M  V30 17209 C 1611.13 -3.18871 1.14484 0
M  V30 17210 C 1609.69 -3.65817 0.886285 0
M  V30 17211 C 1608.84 -2.4523 1.2945 0
M  V30 17212 H 1611.79 -1.12297 1.12139 0
M  V30 17213 H 1611.81 -3.77205 0.499654 0
M  V30 17214 H 1611.32 -3.17951 2.22551 0
M  V30 17215 H 1609.42 -3.72165 -0.179913 0
M  V30 17216 H 1609.54 -4.54523 1.5148 0
M  V30 17217 H 1607.9 -2.44519 0.712919 0
M  V30 17218 H 1608.68 -2.47009 2.38415 0
M  V30 17219 N 1611.13 -0.710588 -1.40671 0
M  V30 17220 C 1612.06 -0.0694601 -2.33397 0
M  V30 17221 C 1613.04 0.750959 -1.52626 0
M  V30 17222 O 1614.23 0.700896 -1.81111 0
M  V30 17223 C 1611.36 0.856704 -3.36568 0
M  V30 17224 C 1610.31 0.142276 -4.27763 0
M  V30 17225 C 1609.64 1.18382 -5.21431 0
M  V30 17226 C 1610.94 -1.00052 -5.12627 0
M  V30 17227 H 1612.63 -0.843945 -2.87259 0
M  V30 17228 H 1610.18 -0.407287 -1.3812 0
M  V30 17229 H 1612.13 1.31457 -4.00371 0
M  V30 17230 H 1610.85 1.66303 -2.81089 0
M  V30 17231 H 1609.51 -0.295714 -3.65405 0
M  V30 17232 H 1609.16 1.98306 -4.62259 0
M  V30 17233 H 1608.86 0.71071 -5.83286 0
M  V30 17234 H 1610.38 1.64189 -5.88111 0
M  V30 17235 H 1611.8 -0.622246 -5.69913 0
M  V30 17236 H 1610.19 -1.40168 -5.83501 0
M  V30 17237 H 1611.26 -1.83345 -4.48902 0
M  V30 17238 N 1612.61 1.50847 -0.456408 0
M  V30 17239 C 1613.85 2.02534 0.103772 0
M  V30 17240 C 1614.19 1.33874 1.40682 0
M  V30 17241 O 1613.46 0.459695 1.8899 0
M  V30 17242 C 1613.74 3.58825 0.302817 0
M  V30 17243 C 1613.6 4.38077 -1.02022 0
M  V30 17244 C 1614.92 4.27044 1.06404 0
M  V30 17245 H 1612.04 0.736108 0.0362398 0
M  V30 17246 H 1614.68 1.80306 -0.599134 0
M  V30 17247 H 1612.83 3.77895 0.901542 0
M  V30 17248 H 1614.5 4.30613 -1.6544 0
M  V30 17249 H 1612.74 4.02401 -1.62036 0
M  V30 17250 H 1613.41 5.45652 -0.834766 0
M  V30 17251 H 1615.89 4.12359 0.556698 0
M  V30 17252 H 1614.77 5.3624 1.17209 0
M  V30 17253 H 1615.03 3.89204 2.09697 0
M  V30 17254 N 1614.09 0.188454 1.56469 0
M  V30 17255 C 1615.33 -0.452238 1.96565 0
M  V30 17256 C 1615.65 -1.63219 1.07792 0
M  V30 17257 O 1616.85 -2.34024 1.37641 0
M  V30 17258 C 1615.31 -0.855966 3.49573 0
M  V30 17259 C 1614.92 0.299329 4.46999 0
M  V30 17260 C 1616.66 -1.46411 3.98452 0
M  V30 17261 C 1614.57 -0.124987 5.91268 0
M  V30 17262 H 1613.5 -0.172729 0.733949 0
M  V30 17263 H 1616.15 0.279415 1.8136 0
M  V30 17264 H 1614.53 -1.64409 3.60258 0
M  V30 17265 H 1615.71 1.07681 4.48042 0
M  V30 17266 H 1614.02 0.818542 4.08275 0
M  V30 17267 H 1616.62 -1.79392 5.03709 0
M  V30 17268 H 1616.96 -2.36822 3.42376 0
M  V30 17269 H 1617.49 -0.740088 3.90855 0
M  V30 17270 H 1614.23 0.744769 6.51255 0
M  V30 17271 H 1613.75 -0.86747 5.93494 0
M  V30 17272 H 1615.43 -0.563054 6.44545 0
M  V30 17273 N 1615.56 -1.5737 -0.0851874 0
M  V30 17274 C 1616.49 -2.05796 -1.10319 0
M  V30 17275 C 1617.47 -0.948796 -1.4118 0
M  V30 17276 O 1618.66 -1.22069 -1.51039 0
M  V30 17277 C 1615.79 -2.49069 -2.42037 0
M  V30 17278 C 1614.74 -3.6374 -2.25561 0
M  V30 17279 C 1614.07 -3.93023 -3.62543 0
M  V30 17280 C 1615.37 -4.94274 -1.68793 0
M  V30 17281 H 1617.06 -2.91095 -0.700274 0
M  V30 17282 H 1614.61 -1.40039 -0.335405 0
M  V30 17283 H 1616.56 -2.81558 -3.13534 0
M  V30 17284 H 1615.29 -1.60781 -2.84283 0
M  V30 17285 H 1613.95 -3.31513 -1.56507 0
M  V30 17286 H 1613.59 -3.01887 -4.02335 0
M  V30 17287 H 1613.29 -4.70229 -3.52362 0
M  V30 17288 H 1614.82 -4.27995 -4.35491 0
M  V30 17289 H 1616.23 -5.25079 -2.30141 0
M  V30 17290 H 1614.63 -5.75711 -1.69344 0
M  V30 17291 H 1615.7 -4.80548 -0.648204 0
M  V30 17292 N 1617.04 0.356258 -1.53521 0
M  V30 17293 C 1618 1.41975 -1.79933 0
M  V30 17294 C 1619 1.46177 -0.669997 0
M  V30 17295 O 1620.19 1.46774 -0.938239 0
M  V30 17296 C 1617.33 2.81015 -1.92985 0
M  V30 17297 H 1618.52 1.19824 -2.74922 0
M  V30 17298 H 1616.07 0.589928 -1.4474 0
M  V30 17299 H 1616.81 3.08466 -1.00095 0
M  V30 17300 H 1616.59 2.79363 -2.75135 0
M  V30 17301 H 1618.08 3.58013 -2.1498 0
M  V30 17302 N 1618.52 1.45038 0.616577 0
M  V30 17303 C 1619.93 1.4316 1.19842 0
M  V30 17304 C 1620.28 0.154504 1.95591 0
M  V30 17305 O 1619.41 -0.744409 2.03193 0
M  V30 17306 C 1620 2.59354 2.17993 0
M  V30 17307 C 1618.56 2.60625 2.71573 0
M  V30 17308 C 1617.71 2.35243 1.4682 0
M  V30 17309 H 1620.66 1.53408 0.406402 0
M  V30 17310 H 1620.68 2.32939 3.00865 0
M  V30 17311 H 1620.19 3.52288 1.62833 0
M  V30 17312 H 1618.29 1.71672 3.30695 0
M  V30 17313 H 1618.41 3.59568 3.16619 0
M  V30 17314 H 1616.77 1.84622 1.75462 0
M  V30 17315 H 1617.55 3.3031 0.935414 0
M  V30 17316 N 1620 -0.858287 1.32179 0
M  V30 17317 C 1620.95 -1.95454 1.17396 0
M  V30 17318 C 1621.93 -1.60692 0.0818403 0
M  V30 17319 O 1623.12 -1.743 0.307973 0
M  V30 17320 C 1620.25 -3.31416 0.895443 0
M  V30 17321 C 1619.34 -3.72409 2.0291 0
M  V30 17322 N 1619.73 -3.8526 3.27732 0
M  V30 17323 C 1618.03 -4.02009 1.93145 0
M  V30 17324 C 1618.73 -4.20479 4.01961 0
M  V30 17325 N 1617.7 -4.318 3.30227 0
M  V30 17326 H 1621.51 -2.03518 2.12033 0
M  V30 17327 H 1619.02 -1.04982 1.23905 0
M  V30 17328 H 1621.02 -4.09718 0.770504 0
M  V30 17329 H 1619.68 -3.24672 -0.0425798 0
M  V30 17330 H 1620.69 -3.69677 3.62711 0
M  V30 17331 H 1617.37 -4.03587 1.06882 0
M  V30 17332 H 1618.76 -4.37921 5.09583 0
M  V30 17333 N 1621.48 -1.1533 -1.07409 0
M  V30 17334 C 1622.44 -0.852155 -2.1277 0
M  V30 17335 C 1623.44 0.14782 -1.60119 0
M  V30 17336 O 1624.63 -0.0817436 -1.74008 0
M  V30 17337 C 1621.76 -0.272233 -3.39811 0
M  V30 17338 H 1622.95 -1.78604 -2.40917 0
M  V30 17339 H 1620.51 -0.960698 -1.23289 0
M  V30 17340 H 1621.24 0.669873 -3.17306 0
M  V30 17341 H 1621.03 -0.992629 -3.79327 0
M  V30 17342 H 1622.52 -0.0790986 -4.17525 0
M  V30 17343 N 1622.95 1.25748 -0.950004 0
M  V30 17344 C 1624.2 1.93622 -0.603186 0
M  V30 17345 C 1624.53 1.74271 0.856925 0
M  V30 17346 O 1623.81 1.08502 1.61423 0
M  V30 17347 C 1624.09 3.4715 -0.957024 0
M  V30 17348 C 1623.94 3.75747 -2.47253 0
M  V30 17349 C 1625.26 4.37488 -0.478754 0
M  V30 17350 H 1622.38 0.703206 -0.220612 0
M  V30 17351 H 1625.02 1.48453 -1.18582 0
M  V30 17352 H 1623.17 3.85753 -0.46122 0
M  V30 17353 H 1624.85 3.46808 -3.04174 0
M  V30 17354 H 1623.09 3.21516 -2.91222 0
M  V30 17355 H 1623.76 4.83097 -2.67061 0
M  V30 17356 H 1626.24 4.06162 -0.903987 0
M  V30 17357 H 1625.11 5.43682 -0.755073 0
M  V30 17358 H 1625.37 4.37712 0.621303 0
M  V30 17359 N 1624.43 0.718038 1.40292 0
M  V30 17360 C 1625.34 0.0681535 2.34501 0
M  V30 17361 C 1626.36 -0.741048 1.57431 0
M  V30 17362 O 1627.53 -0.673437 1.89807 0
M  V30 17363 C 1624.6 -0.840758 3.36351 0
M  V30 17364 C 1623.66 -0.0212287 4.29295 0
M  V30 17365 C 1622.89 -0.886852 5.2628 0
M  V30 17366 O 1623.12 -2.12603 5.29298 0
M  V30 17367 O 1622.05 -0.324537 6.01024 0
M  V30 17368 H 1625.88 0.845288 2.91699 0
M  V30 17369 H 1623.46 0.478541 1.41529 0
M  V30 17370 H 1625.34 -1.36131 3.98806 0
M  V30 17371 H 1624.02 -1.597 2.81563 0
M  V30 17372 H 1622.92 0.544451 3.70117 0
M  V30 17373 H 1624.26 0.696846 4.87242 0
M  V30 17374 N 1625.91 -1.50602 0.464402 0
M  V30 17375 C 1626.87 -2.26929 -0.32185 0
M  V30 17376 C 1627.87 -1.3144 -0.926289 0
M  V30 17377 O 1629.06 -1.54924 -0.796511 0
M  V30 17378 C 1626.2 -3.08155 -1.45785 0
M  V30 17379 H 1627.39 -2.97881 0.347436 0
M  V30 17380 H 1624.94 -1.54768 0.218278 0
M  V30 17381 H 1625.68 -2.41684 -2.16239 0
M  V30 17382 H 1625.46 -3.78321 -1.03031 0
M  V30 17383 H 1626.95 -3.65899 -2.01266 0
M  V30 17384 N 1627.39 -0.19675 -1.56367 0
M  V30 17385 C 1628.32 0.718607 -2.22167 0
M  V30 17386 C 1629.3 1.22002 -1.1853 0
M  V30 17387 O 1630.48 1.26856 -1.47042 0
M  V30 17388 C 1627.61 1.93753 -2.88231 0
M  V30 17389 C 1626.57 1.57096 -3.98127 0
M  V30 17390 C 1625.89 2.86663 -4.51363 0
M  V30 17391 C 1627.19 0.779649 -5.16448 0
M  V30 17392 H 1628.89 0.170064 -2.98917 0
M  V30 17393 H 1626.43 0.0803568 -1.43776 0
M  V30 17394 H 1628.39 2.58312 -3.32946 0
M  V30 17395 H 1627.11 2.51063 -2.0889 0
M  V30 17396 H 1625.77 0.948947 -3.54105 0
M  V30 17397 H 1625.42 3.42066 -3.68782 0
M  V30 17398 H 1625.12 2.6288 -5.25517 0
M  V30 17399 H 1626.64 3.52207 -4.98781 0
M  V30 17400 H 1628.06 1.32838 -5.57698 0
M  V30 17401 H 1626.45 0.639882 -5.96679 0
M  V30 17402 H 1627.52 -0.218944 -4.84405 0
M  V30 17403 N 1628.87 1.57413 0.0768405 0
M  V30 17404 C 1630.11 1.87279 0.778099 0
M  V30 17405 C 1630.45 0.788359 1.77478 0
M  V30 17406 O 1629.72 -0.201876 1.9345 0
M  V30 17407 C 1630 3.27801 1.49059 0
M  V30 17408 C 1629.86 4.46892 0.510661 0
M  V30 17409 C 1631.18 3.66485 2.43674 0
M  V30 17410 H 1628.29 0.681159 0.281409 0
M  V30 17411 H 1630.94 1.89955 0.0413711 0
M  V30 17412 H 1629.09 3.2565 2.11859 0
M  V30 17413 H 1630.76 4.61165 -0.111734 0
M  V30 17414 H 1629 4.33449 -0.174445 0
M  V30 17415 H 1629.67 5.41985 1.04671 0
M  V30 17416 H 1632.15 3.69696 1.90955 0
M  V30 17417 H 1631.02 4.65706 2.90533 0
M  V30 17418 H 1631.29 2.96145 3.28254 0
M  V30 17419 N 1630.34 -0.348112 1.53707 0
M  V30 17420 C 1631.29 -1.42729 1.81375 0
M  V30 17421 C 1632.26 -1.52461 0.659159 0
M  V30 17422 O 1633.45 -1.68072 0.903129 0
M  V30 17423 C 1630.59 -2.79443 2.02498 0
M  V30 17424 C 1629.7 -2.7854 3.30211 0
M  V30 17425 C 1628.83 -4.06942 3.41426 0
M  V30 17426 C 1627.87 -4.00248 4.63106 0
M  V30 17427 N 1627.01 -5.20332 4.7138 0
M  V30 17428 H 1631.85 -1.18436 2.73454 0
M  V30 17429 H 1629.39 -0.573809 1.35447 0
M  V30 17430 H 1631.35 -3.58888 2.12733 0
M  V30 17431 H 1629.98 -3.02099 1.13737 0
M  V30 17432 H 1629.03 -1.91227 3.28841 0
M  V30 17433 H 1630.34 -2.69471 4.19746 0
M  V30 17434 H 1629.49 -4.94808 3.51069 0
M  V30 17435 H 1628.23 -4.18786 2.49939 0
M  V30 17436 H 1627.24 -3.10767 4.53546 0
M  V30 17437 H 1628.46 -3.89991 5.55953 0
M  V30 17438 H 1626.41 -5.32729 3.828 0
M  V30 17439 H 1626.33 -5.13502 5.54844 0
M  V30 17440 H 1627.59 -6.09982 4.85326 0
M  V30 17441 N 1631.82 -1.45363 -0.608876 0
M  V30 17442 C 1632.75 -1.49944 -1.73348 0
M  V30 17443 C 1633.77 -0.390352 -1.58051 0
M  V30 17444 O 1634.96 -0.657338 -1.65956 0
M  V30 17445 C 1632.06 -1.33886 -3.11332 0
M  V30 17446 C 1631.23 -2.58445 -3.52881 0
M  V30 17447 C 1630.29 -2.36963 -4.69825 0
M  V30 17448 O 1629.31 -3.10569 -4.77007 0
M  V30 17449 N 1630.52 -1.41442 -5.63005 0
M  V30 17450 H 1633.28 -2.46902 -1.69882 0
M  V30 17451 H 1630.84 -1.41086 -0.794119 0
M  V30 17452 H 1632.83 -1.17327 -3.8732 0
M  V30 17453 H 1631.4 -0.452095 -3.09314 0
M  V30 17454 H 1630.62 -2.90129 -2.66869 0
M  V30 17455 H 1631.91 -3.41245 -3.77398 0
M  V30 17456 H 1631.31 -0.806941 -5.59915 0
M  V30 17457 H 1629.87 -1.30855 -6.3853 0
M  V30 17458 N 1633.3 0.851265 -1.32632 0
M  V30 17459 C 1634.71 1.4217 -1.21015 0
M  V30 17460 C 1635.06 1.95409 0.175972 0
M  V30 17461 O 1634.19 1.87816 1.07489 0
M  V30 17462 C 1634.78 2.58431 -2.19086 0
M  V30 17463 C 1633.34 3.11464 -2.11346 0
M  V30 17464 C 1632.49 1.84221 -2.07263 0
M  V30 17465 H 1635.44 0.65812 -1.44411 0
M  V30 17466 H 1635.46 3.35694 -1.79137 0
M  V30 17467 H 1634.97 2.19652 -3.1996 0
M  V30 17468 H 1633.07 3.54818 -1.13732 0
M  V30 17469 H 1633.19 3.72478 -3.01325 0
M  V30 17470 H 1631.55 2.0396 -1.52553 0
M  V30 17471 H 1632.33 1.47654 -3.09924 0
M  V30 17472 N 1634.78 1.15898 1.06796 0
M  V30 17473 C 1636.19 0.945837 1.60968 0
M  V30 17474 C 1636.54 -0.511507 1.89415 0
M  V30 17475 O 1635.67 -1.38372 1.66379 0
M  V30 17476 C 1636.26 1.71054 2.92448 0
M  V30 17477 C 1634.82 1.54252 3.43341 0
M  V30 17478 C 1633.97 1.72253 2.17311 0
M  V30 17479 H 1636.92 1.30842 0.898118 0
M  V30 17480 H 1636.94 1.18336 3.61631 0
M  V30 17481 H 1636.45 2.77117 2.71712 0
M  V30 17482 H 1634.55 0.506082 3.69147 0
M  V30 17483 H 1634.66 2.32314 4.19007 0
M  V30 17484 H 1633.03 1.14952 2.27284 0
M  V30 17485 H 1633.81 2.79693 1.99064 0
M  V30 17486 N 1636.26 -1.25243 0.956659 0
M  V30 17487 C 1637.53 -1.88287 0.529832 0
M  V30 17488 C 1637.91 -1.8629 -0.992929 0
M  V30 17489 O 1637.26 -1.32785 -1.85958 0
M  V30 17490 C 1637.47 -3.30919 1.10877 0
M  V30 17491 C 1638.82 -4.07674 1.18687 0
M  V30 17492 O 1639.84 -3.40048 1.06047 0
M  V30 17493 O 1638.7 -5.28648 1.38541 0
M  V30 17494 H 1635.8 -0.808258 0.175066 0
M  V30 17495 H 1638.34 -1.33298 1.05022 0
M  V30 17496 H 1637.11 -3.26813 2.15195 0
M  V30 17497 H 1636.74 -3.93468 0.571755 0
M  V30 17498 N 1637.73 -0.725468 -1.3991 0
M  V30 17499 C 1639.15 -0.400048 -1.54505 0
M  V30 17500 C 1639.35 1.09014 -1.69464 0
M  V30 17501 O 1638.41 1.87624 -1.68977 0
M  V30 17502 C 1639.72 -1.17474 -2.76804 0
M  V30 17503 C 1641.27 -1.16202 -2.9063 0
M  V30 17504 C 1641.74 -1.91908 -4.15855 0
M  V30 17505 N 1643.23 -1.89026 -4.22875 0
M  V30 17506 C 1643.97 -2.4442 -5.18697 0
M  V30 17507 N 1643.46 -3.0841 -6.20367 0
M  V30 17508 N 1645.26 -2.34506 -5.10846 0
M  V30 17509 H 1637.41 -1.6916 -1.28447 0
M  V30 17510 H 1639.67 -0.715556 -0.621839 0
M  V30 17511 H 1639.38 -2.22881 -2.72061 0
M  V30 17512 H 1639.25 -0.772871 -3.69197 0
M  V30 17513 H 1641.64 -0.116116 -2.94871 0
M  V30 17514 H 1641.72 -1.60319 -1.99327 0
M  V30 17515 H 1641.36 -2.96494 -4.12375 0
M  V30 17516 H 1641.29 -1.45204 -5.06185 0
M  V30 17517 H 1643.78 -1.42399 -3.50044 0
M  V30 17518 H 1644.1 -3.48169 -6.89926 0
M  V30 17519 H 1642.44 -3.12497 -6.20782 0
M  V30 17520 H 1645.63 -1.84164 -4.3035 0
M  V30 17521 H 1645.81 -2.77976 -5.85349 0
M  V30 17522 N 1639.21 1.50354 -0.472382 0
M  V30 17523 C 1640.46 2.03264 0.0743981 0
M  V30 17524 C 1640.81 1.34792 1.37291 0
M  V30 17525 O 1640.11 0.46513 1.85869 0
M  V30 17526 C 1640.3 3.5603 0.31263 0
M  V30 17527 C 1640.13 4.39306 -0.961245 0
M  V30 17528 C 1638.9 4.8237 -1.50492 0
M  V30 17529 C 1641.1 4.79605 -1.85698 0
M  V30 17530 N 1639.08 5.49974 -2.72768 0
M  V30 17531 C 1640.45 5.46633 -2.92562 0
M  V30 17532 C 1642.51 4.61562 -1.86721 0
M  V30 17533 C 1641.21 5.9753 -4.00438 0
M  V30 17534 C 1643.23 5.134 -2.93554 0
M  V30 17535 C 1642.6 5.80404 -3.99137 0
M  V30 17536 H 1638.7 0.781895 -0.0128356 0
M  V30 17537 H 1641.28 1.8385 -0.640876 0
M  V30 17538 H 1639.45 3.75387 0.996945 0
M  V30 17539 H 1641.18 3.9559 0.853868 0
M  V30 17540 H 1637.94 4.61724 -1.05393 0
M  V30 17541 H 1638.36 5.88381 -3.34868 0
M  V30 17542 H 1643 4.0919 -1.0641 0
M  V30 17543 H 1640.72 6.48938 -4.81565 0
M  V30 17544 H 1644.31 5.0127 -2.95331 0
M  V30 17545 H 1643.19 6.19793 -4.80443 0
M  V30 17546 N 1640.69 0.205039 1.56261 0
M  V30 17547 C 1641.62 -0.706815 2.22545 0
M  V30 17548 C 1642.6 -1.21372 1.19176 0
M  V30 17549 O 1643.79 -1.26074 1.47712 0
M  V30 17550 C 1640.92 -1.92221 2.89255 0
M  V30 17551 C 1639.87 -1.54982 3.98954 0
M  V30 17552 C 1639.2 -2.84265 4.52877 0
M  V30 17553 C 1640.5 -0.75225 5.16854 0
M  V30 17554 H 1642.19 -0.15421 2.99003 0
M  V30 17555 H 1639.74 -0.0727309 1.43816 0
M  V30 17556 H 1641.69 -2.56542 3.34311 0
M  V30 17557 H 1640.41 -2.49952 2.10218 0
M  V30 17558 H 1639.07 -0.930155 3.54604 0
M  V30 17559 H 1638.72 -3.40105 3.70591 0
M  V30 17560 H 1638.42 -2.60089 5.26904 0
M  V30 17561 H 1639.95 -3.49557 5.00642 0
M  V30 17562 H 1641.36 -1.29878 5.58395 0
M  V30 17563 H 1639.76 -0.60823 5.9701 0
M  V30 17564 H 1640.83 0.24463 4.84283 0
M  V30 17565 N 1642.17 -1.57451 -0.0684915 0
M  V30 17566 C 1643.39 -1.92025 -0.78366 0
M  V30 17567 C 1643.82 -0.801743 -1.70158 0
M  V30 17568 O 1643.18 0.245227 -1.79634 0
M  V30 17569 C 1643.23 -3.25563 -1.55051 0
M  V30 17570 O 1642.33 -3.15029 -2.6614 0
M  V30 17571 H 1641.67 -0.628714 -0.213576 0
M  V30 17572 H 1644.2 -2.04569 -0.0357474 0
M  V30 17573 H 1644.21 -3.59516 -1.92905 0
M  V30 17574 H 1642.89 -4.06547 -0.87704 0
M  V30 17575 H 1641.46 -2.9264 -2.31119 0
M  V30 17576 N 1643.65 0.339955 -1.5389 0
M  V30 17577 C 1644.6 1.43787 -1.82833 0
M  V30 17578 C 1645.59 1.54303 -0.699058 0
M  V30 17579 O 1646.8 1.56884 -0.882455 0
M  V30 17580 H 1643.17 0.479497 -0.579298 0
M  V30 17581 H 1645.14 1.16592 -2.7468 0
M  V30 17582 C 1643.89 2.80257 -2.05794 0
M  V30 17583 H 1643.21 2.72933 -2.92143 0
M  V30 17584 H 1644.65 3.56191 -2.30009 0
M  V30 17585 C 1643.11 3.26143 -0.844532 0
M  V30 17586 O 1643.64 4.01674 -0.0457121 0
M  V30 17587 N 1641.85 2.82988 -0.660748 0
M  V30 17588 H 1641.4 2.21687 -1.31198 0
M  V30 17589 H 1641.35 3.14044 0.149661 0
M  V30 17590 N 1645.13 1.45684 0.601159 0
M  V30 17591 C 1646.09 1.54451 1.69344 0
M  V30 17592 C 1647.09 0.423379 1.55126 0
M  V30 17593 O 1648.28 0.687079 1.60078 0
M  V30 17594 C 1645.41 1.4472 3.08657 0
M  V30 17595 H 1646.6 2.51778 1.62935 0
M  V30 17596 H 1644.16 1.3322 0.81744 0
M  V30 17597 H 1644.89 0.486027 3.20637 0
M  V30 17598 H 1644.68 2.26045 3.20384 0
M  V30 17599 H 1646.17 1.53902 3.88206 0
M  V30 17600 N 1646.6 -0.84422 1.33082 0
M  V30 17601 C 1648.02 -1.13406 1.12299 0
M  V30 17602 C 1648.22 -2.013 -0.0896529 0
M  V30 17603 O 1647.28 -2.40425 -0.771493 0
M  V30 17604 C 1648.59 -1.80132 2.40776 0
M  V30 17605 C 1650.14 -1.92721 2.46632 0
M  V30 17606 C 1650.61 -2.62863 3.75056 0
M  V30 17607 N 1652.1 -2.70379 3.76097 0
M  V30 17608 C 1652.84 -3.25328 4.72175 0
M  V30 17609 N 1652.33 -3.81005 5.78625 0
M  V30 17610 N 1654.13 -3.23529 4.59658 0
M  V30 17611 H 1646.28 -0.259126 2.10813 0
M  V30 17612 H 1648.54 -0.177459 0.931242 0
M  V30 17613 H 1648.25 -1.23007 3.29488 0
M  V30 17614 H 1648.12 -2.802 2.52523 0
M  V30 17615 H 1650.51 -2.49002 1.58373 0
M  V30 17616 H 1650.59 -0.916191 2.3883 0
M  V30 17617 H 1650.23 -2.07242 4.63695 0
M  V30 17618 H 1650.16 -3.64425 3.80134 0
M  V30 17619 H 1652.65 -2.30891 2.99162 0
M  V30 17620 H 1652.97 -4.21121 6.47979 0
M  V30 17621 H 1651.31 -3.79308 5.82366 0
M  V30 17622 H 1654.5 -2.79286 3.75656 0
M  V30 17623 H 1654.68 -3.66051 5.34706 0
M  V30 17624 N 1648.08 -1.16463 -1.0618 0
M  V30 17625 C 1649.01 -0.815728 -2.13122 0
M  V30 17626 C 1649.99 0.213124 -1.61197 0
M  V30 17627 O 1651.18 0.0969425 -1.88251 0
M  V30 17628 C 1648.3 -0.215095 -3.38016 0
M  V30 17629 C 1647.35 -1.21774 -4.08746 0
M  V30 17630 S 1648.18 -2.7649 -4.586 0
M  V30 17631 C 1649.34 -2.17879 -5.86753 0
M  V30 17632 H 1649.57 -1.72148 -2.42389 0
M  V30 17633 H 1647.1 -0.98822 -1.18632 0
M  V30 17634 H 1649.06 0.124982 -4.1031 0
M  V30 17635 H 1647.72 0.66844 -3.06905 0
M  V30 17636 H 1646.92 -0.745936 -4.98449 0
M  V30 17637 H 1646.52 -1.50296 -3.42472 0
M  V30 17638 H 1648.81 -1.54817 -6.59574 0
M  V30 17639 H 1649.75 -3.05797 -6.38666 0
M  V30 17640 H 1650.16 -1.61717 -5.4084 0
M  V30 17641 N 1649.56 1.24734 -0.963288 0
M  V30 17642 C 1650.79 1.96745 -0.640234 0
M  V30 17643 C 1651.2 1.71503 0.789445 0
M  V30 17644 O 1650.56 0.996174 1.52914 0
M  V30 17645 C 1650.61 3.50118 -0.899987 0
M  V30 17646 O 1650.33 3.74494 -2.27346 0
M  V30 17647 C 1651.83 4.39349 -0.590511 0
M  V30 17648 H 1649.05 0.626892 -0.239266 0
M  V30 17649 H 1651.6 1.58678 -1.29002 0
M  V30 17650 H 1649.75 3.86264 -0.296478 0
M  V30 17651 H 1650.17 4.68902 -2.35013 0
M  V30 17652 H 1651.64 5.45834 -0.822744 0
M  V30 17653 H 1652.12 4.36622 0.475138 0
M  V30 17654 H 1652.72 4.08783 -1.17373 0
M  V30 17655 N 1651.04 0.732878 1.39523 0
M  V30 17656 C 1651.99 0.0676184 2.279 0
M  V30 17657 C 1652.97 -0.7148 1.44151 0
M  V30 17658 O 1654.16 -0.584158 1.67083 0
M  V30 17659 C 1651.29 -0.840482 3.32853 0
M  V30 17660 C 1650.38 -0.052326 4.24068 0
M  V30 17661 N 1650.77 0.973429 4.96345 0
M  V30 17662 C 1649.07 -0.282301 4.45106 0
M  V30 17663 C 1649.77 1.44851 5.63376 0
M  V30 17664 N 1648.74 0.767499 5.38155 0
M  V30 17665 H 1652.55 0.853533 2.81233 0
M  V30 17666 H 1650.06 0.567016 1.5218 0
M  V30 17667 H 1652.06 -1.33254 3.95031 0
M  V30 17668 H 1650.72 -1.62558 2.81078 0
M  V30 17669 H 1651.73 1.35474 4.99867 0
M  V30 17670 H 1648.41 -1.04237 4.04278 0
M  V30 17671 H 1649.8 2.30179 6.31242 0
M  V30 17672 N 1652.52 -1.50101 0.480349 0
M  V30 17673 C 1653.75 -2.06486 -0.0687482 0
M  V30 17674 C 1654.15 -1.34334 -1.33233 0
M  V30 17675 O 1653.5 -0.408976 -1.7909 0
M  V30 17676 C 1653.56 -3.57114 -0.413522 0
M  V30 17677 C 1653.22 -4.50814 0.749361 0
M  V30 17678 C 1654.22 -4.93554 1.63404 0
M  V30 17679 C 1651.9 -4.93382 0.942313 0
M  V30 17680 C 1653.9 -5.77577 2.696 0
M  V30 17681 C 1651.59 -5.77186 2.00748 0
M  V30 17682 C 1652.58 -6.19185 2.88268 0
M  V30 17683 O 1652.27 -7.01317 3.92949 0
M  V30 17684 H 1652 -0.675954 0.00792111 0
M  V30 17685 H 1654.56 -1.94135 0.670863 0
M  V30 17686 H 1652.79 -3.67399 -1.20645 0
M  V30 17687 H 1654.48 -3.95824 -0.89879 0
M  V30 17688 H 1655.24 -4.61329 1.4967 0
M  V30 17689 H 1651.12 -4.60206 0.270534 0
M  V30 17690 H 1654.67 -6.10279 3.37942 0
M  V30 17691 H 1650.56 -6.08824 2.14486 0
M  V30 17692 H 1651.33 -7.19585 3.9005 0
M  V30 17693 N 1653.99 -0.213323 -1.5615 0
M  V30 17694 C 1654.93 0.732346 -2.17185 0
M  V30 17695 C 1655.94 1.16357 -1.13864 0
M  V30 17696 O 1657.13 1.09614 -1.40879 0
M  V30 17697 C 1654.23 2.0027 -2.73395 0
M  V30 17698 C 1653.4 1.72836 -4.01804 0
M  V30 17699 C 1652.46 2.84497 -4.4266 0
M  V30 17700 O 1651.49 2.5332 -5.09723 0
M  V30 17701 N 1652.69 4.13268 -4.07663 0
M  V30 17702 H 1655.45 0.210294 -2.98961 0
M  V30 17703 H 1653.01 -0.0320124 -1.61868 0
M  V30 17704 H 1655.01 2.74145 -2.97702 0
M  V30 17705 H 1653.58 2.43546 -1.9597 0
M  V30 17706 H 1652.8 0.826474 -3.85439 0
M  V30 17707 H 1654.08 1.51928 -4.85588 0
M  V30 17708 H 1653.48 4.41444 -3.53756 0
M  V30 17709 H 1652.04 4.83713 -4.36881 0
M  V30 17710 N 1655.47 1.57485 0.0601405 0
M  V30 17711 C 1656.44 2.03493 1.05467 0
M  V30 17712 C 1657.44 0.933816 1.30907 0
M  V30 17713 O 1658.63 1.19837 1.26431 0
M  V30 17714 C 1655.76 2.42549 2.39547 0
M  V30 17715 H 1656.95 2.92595 0.657893 0
M  V30 17716 H 1654.5 1.53272 0.306183 0
M  V30 17717 H 1655.24 1.56509 2.84034 0
M  V30 17718 H 1655.02 3.22911 2.22421 0
M  V30 17719 H 1656.51 2.7868 3.1101 0
M  V30 17720 N 1656.95 -0.331789 1.54068 0
M  V30 17721 C 1657.88 -1.41332 1.8587 0
M  V30 17722 C 1658.86 -1.54353 0.714787 0
M  V30 17723 O 1660.05 -1.68368 0.967777 0
M  V30 17724 C 1657.18 -2.78218 2.07875 0
M  V30 17725 C 1656.13 -2.79994 3.23709 0
M  V30 17726 C 1655.46 -4.19878 3.31069 0
M  V30 17727 C 1656.76 -2.44476 4.6155 0
M  V30 17728 H 1658.45 -1.14966 2.76447 0
M  V30 17729 H 1656 -0.551615 1.33016 0
M  V30 17730 H 1657.95 -3.53937 2.28706 0
M  V30 17731 H 1656.67 -3.06044 1.14038 0
M  V30 17732 H 1655.33 -2.0673 3.02751 0
M  V30 17733 H 1654.98 -4.44831 2.34807 0
M  V30 17734 H 1654.68 -4.21974 4.08915 0
M  V30 17735 H 1656.2 -4.97421 3.54125 0
M  V30 17736 H 1657.62 -3.09908 4.82317 0
M  V30 17737 H 1656.02 -2.57837 5.41886 0
M  V30 17738 H 1657.09 -1.3964 4.64358 0
M  V30 17739 N 1658.43 -1.46001 -0.593424 0
M  V30 17740 C 1659.36 -1.58605 -1.71367 0
M  V30 17741 C 1660.34 -0.436866 -1.64394 0
M  V30 17742 O 1661.52 -0.661782 -1.82576 0
M  V30 17743 C 1658.65 -1.56587 -3.09996 0
M  V30 17744 C 1657.61 -2.70366 -3.31792 0
M  V30 17745 C 1656.93 -2.53406 -4.70839 0
M  V30 17746 C 1658.23 -4.12274 -3.20667 0
M  V30 17747 H 1659.93 -2.52379 -1.61076 0
M  V30 17748 H 1657.47 -1.21462 -0.773499 0
M  V30 17749 H 1659.43 -1.64 -3.88178 0
M  V30 17750 H 1658.15 -0.593511 -3.21162 0
M  V30 17751 H 1656.81 -2.62405 -2.56006 0
M  V30 17752 H 1656.46 -1.54278 -4.78756 0
M  V30 17753 H 1656.16 -3.29715 -4.86376 0
M  V30 17754 H 1657.68 -2.62694 -5.51203 0
M  V30 17755 H 1659.1 -4.21404 -3.88705 0
M  V30 17756 H 1657.49 -4.89085 -3.47729 0
M  V30 17757 H 1658.56 -4.33184 -2.17898 0
M  V30 17758 N 1659.91 0.83715 -1.33527 0
M  V30 17759 C 1660.84 1.96231 -1.26553 0
M  V30 17760 C 1661.82 1.69474 -0.14576 0
M  V30 17761 O 1663 1.91274 -0.335815 0
M  V30 17762 C 1660.13 3.32419 -1.00574 0
M  V30 17763 C 1659.09 3.73577 -2.08864 0
M  V30 17764 C 1658.41 5.07591 -1.68095 0
M  V30 17765 C 1659.71 3.87179 -3.50556 0
M  V30 17766 H 1661.41 2.02324 -2.20693 0
M  V30 17767 H 1658.95 0.972038 -1.06242 0
M  V30 17768 H 1660.91 4.10703 -0.943439 0
M  V30 17769 H 1659.63 3.26587 -0.0287268 0
M  V30 17770 H 1658.29 2.97557 -2.14139 0
M  V30 17771 H 1657.94 4.98232 -0.690922 0
M  V30 17772 H 1657.64 5.361 -2.40563 0
M  V30 17773 H 1659.16 5.88349 -1.63334 0
M  V30 17774 H 1660.57 4.55771 -3.47772 0
M  V30 17775 H 1658.97 4.27127 -4.21524 0
M  V30 17776 H 1660.04 2.8958 -3.88936 0
M  V30 17777 N 1661.38 1.17024 1.05561 0
M  V30 17778 C 1662.66 0.86635 1.75367 0
M  V30 17779 C 1663.04 -0.634217 2.01348 0
M  V30 17780 O 1662.39 -1.58434 1.64654 0
M  V30 17781 C 1662.6 1.69719 3.04953 0
M  V30 17782 C 1663.95 1.91482 3.78972 0
M  V30 17783 O 1664.97 1.66647 3.14813 0
M  V30 17784 O 1663.83 2.33197 4.94248 0
M  V30 17785 H 1660.92 0.320412 0.762407 0
M  V30 17786 H 1663.47 1.277 1.11763 0
M  V30 17787 H 1662.24 2.71512 2.81775 0
M  V30 17788 H 1661.87 1.28408 3.76294 0
M  V30 17789 N 1662.86 -1.24221 0.969889 0
M  V30 17790 C 1664.09 -1.96403 0.650658 0
M  V30 17791 C 1664.51 -1.71919 -0.780339 0
M  V30 17792 O 1663.86 -1.00427 -1.52383 0
M  V30 17793 C 1663.91 -3.49636 0.918542 0
M  V30 17794 O 1663.63 -3.73283 2.29328 0
M  V30 17795 C 1665.14 -4.3903 0.613803 0
M  V30 17796 H 1662.36 -0.625614 0.242587 0
M  V30 17797 H 1664.9 -1.57992 1.29842 0
M  V30 17798 H 1663.05 -3.86101 0.316959 0
M  V30 17799 H 1663.47 -4.67649 2.37496 0
M  V30 17800 H 1664.94 -5.4539 0.851679 0
M  V30 17801 H 1665.42 -4.36868 -0.451976 0
M  V30 17802 H 1666.03 -4.08155 1.19539 0
M  V30 17803 N 1664.34 -0.740267 -1.39132 0
M  V30 17804 C 1665.62 -0.216602 -1.94397 0
M  V30 17805 C 1666 1.28264 -1.67665 0
M  V30 17806 O 1665.35 2.05075 -1.00778 0
M  V30 17807 C 1665.56 -0.555899 -3.44544 0
M  V30 17808 C 1666.9 -0.50815 -4.21548 0
M  V30 17809 O 1667.93 -0.493401 -3.52766 0
M  V30 17810 O 1666.79 -0.507321 -5.4414 0
M  V30 17811 H 1663.88 -0.0413037 -0.825968 0
M  V30 17812 H 1666.43 -0.819483 -1.48602 0
M  V30 17813 H 1665.2 -1.59187 -3.57457 0
M  V30 17814 H 1664.82 0.0756793 -3.97528 0
M  V30 17815 N 1665.82 1.49844 -0.488302 0
M  V30 17816 C 1667.23 1.58954 -0.14348 0
M  V30 17817 C 1667.43 1.49482 1.3512 0
M  V30 17818 O 1666.49 1.36218 2.12605 0
M  V30 17819 C 1667.8 2.92222 -0.708991 0
M  V30 17820 C 1669.35 3.05658 -0.673957 0
M  V30 17821 C 1669.83 4.41526 -1.21731 0
M  V30 17822 N 1671.32 4.47985 -1.17746 0
M  V30 17823 C 1672.05 5.51539 -1.5682 0
M  V30 17824 N 1671.55 6.62261 -2.03426 0
M  V30 17825 N 1673.34 5.4218 -1.48315 0
M  V30 17826 H 1665.49 1.54244 -1.46022 0
M  V30 17827 H 1667.76 0.72992 -0.604914 0
M  V30 17828 H 1667.46 3.04683 -1.75674 0
M  V30 17829 H 1667.34 3.76851 -0.162226 0
M  V30 17830 H 1669.72 2.92835 0.364925 0
M  V30 17831 H 1669.8 2.22744 -1.25772 0
M  V30 17832 H 1669.45 4.551 -2.25491 0
M  V30 17833 H 1669.38 5.2306 -0.609598 0
M  V30 17834 H 1671.87 3.68541 -0.835828 0
M  V30 17835 H 1672.18 7.3736 -2.31345 0
M  V30 17836 H 1670.53 6.63335 -2.07392 0
M  V30 17837 H 1673.72 4.54569 -1.11733 0
M  V30 17838 H 1673.89 6.2276 -1.79092 0
M  V30 17839 N 1667.3 0.221601 1.56034 0
M  V30 17840 C 1668.54 -0.410695 1.98598 0
M  V30 17841 C 1668.88 -1.59412 1.10912 0
M  V30 17842 O 1668.15 -1.93783 0.166819 0
M  V30 17843 C 1668.43 -0.845199 3.50041 0
M  V30 17844 C 1668.29 0.341866 4.48499 0
M  V30 17845 C 1669.61 -1.70135 4.05884 0
M  V30 17846 H 1666.72 -0.147808 0.722026 0
M  V30 17847 H 1669.37 0.317846 1.87323 0
M  V30 17848 H 1667.52 -1.46597 3.5978 0
M  V30 17849 H 1669.19 0.980014 4.5077 0
M  V30 17850 H 1667.43 0.989294 4.22369 0
M  V30 17851 H 1668.1 -0.00509234 5.52 0
M  V30 17852 H 1670.58 -1.17757 3.9909 0
M  V30 17853 H 1669.45 -1.97427 5.12166 0
M  V30 17854 H 1669.72 -2.66469 3.5277 0
M  V30 17855 N 1668.77 -1.57515 -0.0517878 0
M  V30 17856 C 1669.71 -2.01812 -1.08649 0
M  V30 17857 C 1670.72 -0.92719 -1.33817 0
M  V30 17858 O 1671.91 -1.20483 -1.31705 0
M  V30 17859 C 1669.01 -2.35903 -2.43316 0
M  V30 17860 C 1668.18 -3.67095 -2.37824 0
M  V30 17861 C 1667.24 -3.8863 -3.54758 0
M  V30 17862 O 1666.27 -4.59974 -3.3528 0
M  V30 17863 N 1667.47 -3.32516 -4.75829 0
M  V30 17864 H 1670.23 -2.91191 -0.709094 0
M  V30 17865 H 1667.79 -1.60109 -0.240125 0
M  V30 17866 H 1669.79 -2.47466 -3.20223 0
M  V30 17867 H 1668.36 -1.52312 -2.72983 0
M  V30 17868 H 1667.58 -3.66099 -1.46168 0
M  V30 17869 H 1668.86 -4.53199 -2.31275 0
M  V30 17870 H 1668.26 -2.74645 -4.94557 0
M  V30 17871 H 1666.82 -3.49496 -5.50178 0
M  V30 17872 N 1670.25 0.323614 -1.54242 0
M  V30 17873 C 1671.5 1.06156 -1.72444 0
M  V30 17874 C 1671.83 1.88013 -0.498116 0
M  V30 17875 O 1671.08 1.88661 0.520133 0
M  V30 17876 C 1671.38 2.01452 -2.95215 0
M  V30 17877 C 1671.05 1.3575 -4.2998 0
M  V30 17878 C 1669.71 1.17563 -4.66618 0
M  V30 17879 C 1672.06 0.885938 -5.13615 0
M  V30 17880 C 1669.39 0.508674 -5.84491 0
M  V30 17881 C 1671.74 0.232807 -6.32171 0
M  V30 17882 C 1670.41 0.0387807 -6.67489 0
M  V30 17883 H 1669.68 0.388454 -0.631019 0
M  V30 17884 H 1672.32 0.338714 -1.88481 0
M  V30 17885 H 1670.63 2.80188 -2.73865 0
M  V30 17886 H 1672.33 2.5858 -3.06492 0
M  V30 17887 H 1668.92 1.50908 -4.01154 0
M  V30 17888 H 1673.1 1.01424 -4.85826 0
M  V30 17889 H 1668.36 0.347149 -6.10414 0
M  V30 17890 H 1672.53 -0.140594 -6.96258 0
M  V30 17891 H 1670.16 -0.480052 -7.58683 0
M  V30 17892 N 1671.73 1.46313 0.585673 0
M  V30 17893 C 1672.98 1.51171 1.34134 0
M  V30 17894 C 1673.3 0.163691 1.94312 0
M  V30 17895 O 1672.57 -0.809444 1.78395 0
M  V30 17896 H 1671.15 0.556768 0.498014 0
M  V30 17897 H 1673.81 1.82423 0.686133 0
M  V30 17898 H 1672.91 2.26274 2.14957 0
M  V30 17899 N 1673.21 -0.830057 1.33969 0
M  V30 17900 C 1674.62 -1.40227 1.23261 0
M  V30 17901 C 1674.97 -1.95664 -0.144862 0
M  V30 17902 O 1674.1 -1.89503 -1.04488 0
M  V30 17903 C 1674.69 -2.54913 2.2317 0
M  V30 17904 C 1673.25 -3.08062 2.16274 0
M  V30 17905 C 1672.4 -1.809 2.10168 0
M  V30 17906 H 1675.35 -0.635062 1.4544 0
M  V30 17907 H 1675.37 -3.32801 1.84455 0
M  V30 17908 H 1674.88 -2.14534 3.23414 0
M  V30 17909 H 1672.98 -3.52964 1.19362 0
M  V30 17910 H 1673.1 -3.67637 3.07213 0
M  V30 17911 H 1671.46 -2.01508 1.55778 0
M  V30 17912 H 1672.24 -1.42705 3.12234 0
M  V30 17913 N 1674.69 -1.17582 -1.04939 0
M  V30 17914 C 1675.93 -0.967208 -1.7825 0
M  V30 17915 C 1676.27 0.502711 -1.87581 0
M  V30 17916 O 1675.54 1.37318 -1.37746 0
M  V30 17917 C 1675.82 -1.61205 -3.22001 0
M  V30 17918 C 1675.68 -3.15424 -3.20667 0
M  V30 17919 C 1677 -1.31804 -4.199 0
M  V30 17920 H 1674.12 -0.35279 -0.647077 0
M  V30 17921 H 1676.76 -1.45119 -1.2264 0
M  V30 17922 H 1674.91 -1.20052 -3.69486 0
M  V30 17923 H 1676.58 -3.65653 -2.8124 0
M  V30 17924 H 1674.82 -3.48042 -2.58938 0
M  V30 17925 H 1675.49 -3.55674 -4.22138 0
M  V30 17926 H 1677.97 -1.67446 -3.80921 0
M  V30 17927 H 1676.85 -1.79505 -5.18719 0
M  V30 17928 H 1677.11 -0.239304 -4.41452 0
M  V30 17929 N 1676.17 1.23705 -0.976463 0
M  V30 17930 C 1677.41 1.92299 -0.64412 0
M  V30 17931 C 1677.74 1.7605 0.819767 0
M  V30 17932 O 1677.02 1.11902 1.59086 0
M  V30 17933 C 1677.3 3.45042 -1.03044 0
M  V30 17934 C 1677.16 3.70418 -2.55167 0
M  V30 17935 C 1678.47 4.36374 -0.571444 0
M  V30 17936 H 1675.59 0.698369 -0.235478 0
M  V30 17937 H 1678.24 1.45904 -1.21704 0
M  V30 17938 H 1676.39 3.84687 -0.54294 0
M  V30 17939 H 1678.06 3.40278 -3.11462 0
M  V30 17940 H 1676.3 3.15266 -2.97976 0
M  V30 17941 H 1676.97 4.77323 -2.77248 0
M  V30 17942 H 1679.45 4.04153 -0.989936 0
M  V30 17943 H 1678.32 5.41958 -0.870226 0
M  V30 17944 H 1678.58 4.38932 0.528318 0
M  V30 17945 N 1677.64 0.747635 1.38738 0
M  V30 17946 C 1678.61 0.124321 2.28863 0
M  V30 17947 C 1679.61 -0.653816 1.46908 0
M  V30 17948 O 1680.8 -0.480963 1.67429 0
M  V30 17949 C 1677.93 -0.832601 3.30576 0
M  V30 17950 H 1679.12 0.918492 2.85489 0
M  V30 17951 H 1676.67 0.514262 1.47598 0
M  V30 17952 H 1677.41 -1.65267 2.79029 0
M  V30 17953 H 1677.19 -0.277109 3.9112 0
M  V30 17954 H 1678.68 -1.2649 3.97982 0
M  V30 17955 N 1679.12 -1.49583 0.496242 0
M  V30 17956 C 1680.05 -2.31885 -0.274139 0
M  V30 17957 C 1681.03 -1.39939 -0.96701 0
M  V30 17958 O 1682.22 -1.6885 -0.959333 0
M  V30 17959 C 1679.35 -3.20332 -1.34181 0
M  V30 17960 C 1678.3 -4.21033 -0.769091 0
M  V30 17961 C 1677.63 -4.98385 -1.93693 0
M  V30 17962 C 1678.93 -5.21764 0.236648 0
M  V30 17963 H 1680.62 -2.9654 0.412824 0
M  V30 17964 H 1678.17 -1.42605 0.199979 0
M  V30 17965 H 1680.12 -3.76718 -1.88843 0
M  V30 17966 H 1678.84 -2.53611 -2.05789 0
M  V30 17967 H 1677.5 -3.65785 -0.244252 0
M  V30 17968 H 1677.15 -4.28115 -2.64058 0
M  V30 17969 H 1676.85 -5.66519 -1.55981 0
M  V30 17970 H 1678.38 -5.57613 -2.48798 0
M  V30 17971 H 1679.79 -5.72871 -0.221672 0
M  V30 17972 H 1678.19 -5.97761 0.529346 0
M  V30 17973 H 1679.26 -4.70964 1.15415 0
M  V30 17974 N 1680.6 -0.229873 -1.55915 0
M  V30 17975 C 1681.55 0.693198 -2.2203 0
M  V30 17976 C 1682.54 1.1933 -1.20236 0
M  V30 17977 O 1683.75 1.15217 -1.38294 0
M  V30 17978 H 1680.12 0.241986 -0.712002 0
M  V30 17979 H 1682.09 0.112229 -2.98189 0
M  V30 17980 C 1680.84 1.88688 -2.92048 0
M  V30 17981 H 1680.17 1.51119 -3.70139 0
M  V30 17982 H 1681.61 2.51036 -3.41697 0
M  V30 17983 C 1680.06 2.74747 -1.94976 0
M  V30 17984 O 1680.59 3.73759 -1.47198 0
M  V30 17985 N 1678.8 2.40956 -1.62445 0
M  V30 17986 H 1678.35 1.60494 -2.01493 0
M  V30 17987 H 1678.31 2.98816 -0.977581 0
M  V30 17988 N 1682.08 1.5754 0.0434337 0
M  V30 17989 C 1683.49 1.77071 0.591836 0
M  V30 17990 C 1683.84 0.85911 1.76391 0
M  V30 17991 O 1682.96 0.0502725 2.16342 0
M  V30 17992 C 1683.56 3.21111 1.08041 0
M  V30 17993 C 1682.12 3.41889 1.57445 0
M  V30 17994 C 1681.27 2.72641 0.506166 0
M  V30 17995 H 1684.22 1.57644 -0.182792 0
M  V30 17996 H 1684.24 3.26834 1.94833 0
M  V30 17997 H 1683.75 3.87435 0.227153 0
M  V30 17998 H 1681.85 2.80721 2.45003 0
M  V30 17999 H 1681.96 4.50452 1.63185 0
M  V30 18000 H 1680.33 2.36002 0.957878 0
M  V30 18001 H 1681.11 3.41638 -0.337389 0
M  V30 18002 N 1683.56 -0.31543 1.54411 0
M  V30 18003 C 1684.52 -1.37154 1.83634 0
M  V30 18004 C 1685.52 -1.44349 0.708518 0
M  V30 18005 O 1686.71 -1.44235 0.976824 0
M  V30 18006 C 1683.84 -2.758 2.00368 0
M  V30 18007 H 1685.03 -1.12493 2.78002 0
M  V30 18008 H 1682.59 -0.551346 1.46253 0
M  V30 18009 H 1683.32 -3.05704 1.08238 0
M  V30 18010 H 1683.11 -2.7197 2.82445 0
M  V30 18011 H 1684.6 -3.52187 2.24397 0
M  V30 18012 N 1685.03 -1.46622 -0.577906 0
M  V30 18013 C 1686.26 -1.5576 -1.36185 0
M  V30 18014 C 1686.68 -0.200403 -1.87733 0
M  V30 18015 O 1686.03 0.803091 -1.6388 0
M  V30 18016 C 1686.09 -2.56626 -2.54608 0
M  V30 18017 O 1685.81 -3.87074 -2.05195 0
M  V30 18018 C 1687.31 -2.75751 -3.47097 0
M  V30 18019 H 1684.53 -0.526589 -0.415866 0
M  V30 18020 H 1687.07 -1.9207 -0.702091 0
M  V30 18021 H 1685.23 -2.23307 -3.16564 0
M  V30 18022 H 1685.64 -4.42015 -2.82352 0
M  V30 18023 H 1687.11 -3.50237 -4.26659 0
M  V30 18024 H 1687.59 -1.82829 -3.99337 0
M  V30 18025 H 1688.2 -3.10185 -2.90973 0
M  V30 18026 N 1686.51 0.822941 -1.34408 0
M  V30 18027 C 1687.44 1.94878 -1.28627 0
M  V30 18028 C 1688.42 1.6931 -0.163727 0
M  V30 18029 O 1689.61 1.90908 -0.356083 0
M  V30 18030 C 1686.74 3.31333 -1.04094 0
M  V30 18031 C 1685.69 3.71341 -2.12814 0
M  V30 18032 C 1685.02 5.05779 -1.73469 0
M  V30 18033 C 1686.32 3.83439 -3.54643 0
M  V30 18034 H 1688.01 1.99972 -2.22827 0
M  V30 18035 H 1685.56 0.960715 -1.07267 0
M  V30 18036 H 1687.51 4.0968 -0.986947 0
M  V30 18037 H 1686.24 3.26539 -0.0633642 0
M  V30 18038 H 1684.89 2.95269 -2.17282 0
M  V30 18039 H 1684.54 4.97471 -0.743727 0
M  V30 18040 H 1684.24 5.33518 -2.46236 0
M  V30 18041 H 1685.77 5.86583 -1.69566 0
M  V30 18042 H 1687.18 4.52057 -3.52587 0
M  V30 18043 H 1685.58 4.22632 -4.2603 0
M  V30 18044 H 1686.65 2.85439 -3.91986 0
M  V30 18045 N 1687.99 1.18137 1.04314 0
M  V30 18046 C 1688.92 0.929593 2.14198 0
M  V30 18047 C 1689.9 -0.131766 1.69589 0
M  V30 18048 O 1691.09 0.0203104 1.94189 0
M  V30 18049 C 1688.22 0.451799 3.44349 0
M  V30 18050 C 1687.17 1.45336 4.02569 0
M  V30 18051 C 1686.5 0.833176 5.28169 0
M  V30 18052 C 1687.8 2.8293 4.39031 0
M  V30 18053 H 1689.49 1.84856 2.35518 0
M  V30 18054 H 1687.04 0.890217 1.13186 0
M  V30 18055 H 1688.99 0.26303 4.20578 0
M  V30 18056 H 1687.71 -0.502725 3.22708 0
M  V30 18057 H 1686.37 1.62902 3.28418 0
M  V30 18058 H 1686.02 -0.128459 5.02836 0
M  V30 18059 H 1685.72 1.50185 5.68083 0
M  V30 18060 H 1687.24 0.654881 6.07078 0
M  V30 18061 H 1688.66 2.6903 5.06257 0
M  V30 18062 H 1687.06 3.46458 4.89987 0
M  V30 18063 H 1688.13 3.3667 3.48972 0
M  V30 18064 N 1689.47 -1.23186 0.98301 0
M  V30 18065 C 1690.88 -1.73484 0.689933 0
M  V30 18066 C 1691.23 -1.79428 -0.793724 0
M  V30 18067 O 1690.36 -1.43391 -1.62074 0
M  V30 18068 C 1690.95 -3.15068 1.24571 0
M  V30 18069 C 1689.51 -3.62812 1.00222 0
M  V30 18070 C 1688.66 -2.40988 1.37186 0
M  V30 18071 H 1691.61 -1.08672 1.15655 0
M  V30 18072 H 1691.63 -3.75425 0.619406 0
M  V30 18073 H 1691.14 -3.10709 2.32554 0
M  V30 18074 H 1689.24 -3.72549 -0.0614202 0
M  V30 18075 H 1689.35 -4.49473 1.65863 0
M  V30 18076 H 1687.72 -2.42127 0.79035 0
M  V30 18077 H 1688.5 -2.39299 2.46152 0
M  V30 18078 N 1690.95 -0.754982 -1.38339 0
M  V30 18079 C 1691.88 -0.143678 -2.33058 0
M  V30 18080 C 1692.86 0.702022 -1.54938 0
M  V30 18081 O 1694.04 0.642922 -1.83249 0
M  V30 18082 C 1691.17 0.749194 -3.39123 0
M  V30 18083 C 1690.13 0.00611459 -4.28 0
M  V30 18084 C 1689.45 1.01733 -5.24933 0
M  V30 18085 C 1690.75 -1.1631 -5.09185 0
M  V30 18086 H 1692.45 -0.934907 -2.84429 0
M  V30 18087 H 1689.99 -0.451023 -1.36754 0
M  V30 18088 H 1691.95 1.18653 -4.04351 0
M  V30 18089 H 1690.67 1.57276 -2.86237 0
M  V30 18090 H 1689.33 -0.411816 -3.6428 0
M  V30 18091 H 1688.98 1.83499 -4.68334 0
M  V30 18092 H 1688.68 0.524783 -5.85252 0
M  V30 18093 H 1690.2 1.45395 -5.93037 0
M  V30 18094 H 1691.61 -0.803244 -5.67645 0
M  V30 18095 H 1690.01 -1.5866 -5.78746 0
M  V30 18096 H 1691.08 -1.97533 -4.42842 0
M  V30 18097 N 1692.42 1.49318 -0.504168 0
M  V30 18098 C 1693.84 1.86612 -0.0571729 0
M  V30 18099 C 1694.19 1.4162 1.35787 0
M  V30 18100 O 1693.31 0.79548 2.01249 0
M  V30 18101 C 1693.91 3.38661 -0.0969773 0
M  V30 18102 C 1692.47 3.75245 0.294692 0
M  V30 18103 C 1691.61 2.7332 -0.468125 0
M  V30 18104 H 1694.56 1.4159 -0.716788 0
M  V30 18105 H 1694.58 3.74051 0.697569 0
M  V30 18106 H 1694.1 3.71377 -1.12698 0
M  V30 18107 H 1692.2 3.48138 1.32781 0
M  V30 18108 H 1692.31 4.79092 -0.0269621 0
M  V30 18109 H 1690.67 2.54567 0.0824379 0
M  V30 18110 H 1691.46 3.0888 -1.49827 0
M  V30 18111 N 1693.9 0.238138 1.5579 0
M  V30 18112 C 1694.81 -0.676049 2.24648 0
M  V30 18113 C 1695.83 -1.20038 1.25964 0
M  V30 18114 O 1697 -1.2385 1.58818 0
M  V30 18115 C 1694.07 -1.86014 2.92574 0
M  V30 18116 C 1693.13 -1.37615 4.06646 0
M  V30 18117 C 1692.36 -2.5038 4.71323 0
M  V30 18118 O 1692.59 -3.68906 4.35045 0
M  V30 18119 O 1691.52 -2.20636 5.60003 0
M  V30 18120 H 1695.35 -0.119372 3.03465 0
M  V30 18121 H 1692.93 0.00699789 1.49398 0
M  V30 18122 H 1694.81 -2.55132 3.35389 0
M  V30 18123 H 1693.49 -2.4046 2.16704 0
M  V30 18124 H 1692.4 -0.652503 3.68366 0
M  V30 18125 H 1693.73 -0.877871 4.84308 0
M  V30 18126 N 1695.38 -1.57561 -0.0350783 0
M  V30 18127 C 1696.29 -2.09558 -1.05464 0
M  V30 18128 C 1697.31 -1.03288 -1.40027 0
M  V30 18129 O 1698.48 -1.34987 -1.49467 0
M  V30 18130 C 1695.55 -2.55966 -2.33842 0
M  V30 18131 C 1694.61 -3.76693 -2.05915 0
M  V30 18132 C 1693.84 -4.20878 -3.28172 0
M  V30 18133 O 1694.06 -3.64634 -4.38632 0
M  V30 18134 O 1693 -5.13367 -3.14225 0
M  V30 18135 H 1696.82 -2.9682 -0.642771 0
M  V30 18136 H 1694.41 -1.47265 -0.251668 0
M  V30 18137 H 1696.29 -2.86173 -3.09327 0
M  V30 18138 H 1694.97 -1.71818 -2.74336 0
M  V30 18139 H 1693.87 -3.51514 -1.28018 0
M  V30 18140 H 1695.21 -4.61807 -1.70281 0
M  V30 18141 N 1696.86 0.307236 -1.54576 0
M  V30 18142 C 1698.11 1.04115 -1.73218 0
M  V30 18143 C 1698.43 1.88008 -0.517482 0
M  V30 18144 O 1697.7 1.90219 0.468336 0
M  V30 18145 H 1696.28 0.387388 -0.638701 0
M  V30 18146 H 1698.94 0.339727 -1.91916 0
M  V30 18147 H 1698.04 1.69784 -2.61877 0
M  V30 18148 N 1698.34 1.46926 0.570122 0
M  V30 18149 C 1699.27 1.61311 1.68822 0
M  V30 18150 C 1700.25 0.462964 1.63678 0
M  V30 18151 O 1701.43 0.690745 1.815 0
M  V30 18152 C 1698.56 1.61499 3.07466 0
M  V30 18153 C 1697.52 2.7561 3.27449 0
M  V30 18154 C 1696.84 2.60865 4.66748 0
M  V30 18155 C 1698.14 4.17324 3.14067 0
M  V30 18156 H 1699.84 2.54909 1.5704 0
M  V30 18157 H 1697.38 1.22677 0.754077 0
M  V30 18158 H 1699.34 1.70155 3.8552 0
M  V30 18159 H 1698.06 0.64453 3.20177 0
M  V30 18160 H 1696.72 2.66444 2.51799 0
M  V30 18161 H 1696.37 1.61875 4.76241 0
M  V30 18162 H 1696.07 3.37411 4.81069 0
M  V30 18163 H 1697.59 2.7143 5.46954 0
M  V30 18164 H 1699 4.27534 3.81952 0
M  V30 18165 H 1697.4 4.94555 3.39905 0
M  V30 18166 H 1698.47 4.36596 2.10979 0
M  V30 18167 N 1699.82 -0.815801 1.34842 0
M  V30 18168 C 1700.75 -1.93493 1.22854 0
M  V30 18169 C 1701.76 -1.6207 0.15395 0
M  V30 18170 O 1702.95 -1.73811 0.406428 0
M  V30 18171 C 1700.05 -3.27622 0.867006 0
M  V30 18172 C 1699.22 -3.87017 2.03806 0
M  V30 18173 C 1698.28 -4.99536 1.65378 0
M  V30 18174 O 1697.31 -5.17453 2.37131 0
M  V30 18175 N 1698.51 -5.77674 0.572056 0
M  V30 18176 H 1701.27 -2.04307 2.19269 0
M  V30 18177 H 1698.84 -0.992752 1.27891 0
M  V30 18178 H 1700.83 -4.00353 0.59159 0
M  V30 18179 H 1699.4 -3.12599 -0.00717215 0
M  V30 18180 H 1698.62 -3.06592 2.4778 0
M  V30 18181 H 1699.91 -4.23431 2.82106 0
M  V30 18182 H 1699.3 -5.65695 -0.0242931 0
M  V30 18183 H 1697.86 -6.50825 0.356394 0
M  V30 18184 N 1701.29 -1.18689 -1.03686 0
M  V30 18185 C 1702.24 -0.885273 -2.10112 0
M  V30 18186 C 1703.23 0.146598 -1.60231 0
M  V30 18187 O 1704.42 -0.0579783 -1.76905 0
M  V30 18188 C 1701.55 -0.416977 -3.40758 0
M  V30 18189 C 1700.63 -1.48114 -3.97396 0
M  V30 18190 N 1701.03 -2.69857 -4.27798 0
M  V30 18191 C 1699.32 -1.34255 -4.25314 0
M  V30 18192 C 1700.02 -3.38349 -4.73175 0
M  V30 18193 N 1699 -2.65735 -4.74222 0
M  V30 18194 H 1702.8 -1.81067 -2.31499 0
M  V30 18195 H 1700.32 -1.07786 -1.21474 0
M  V30 18196 H 1702.31 -0.182385 -4.16501 0
M  V30 18197 H 1700.97 0.502036 -3.20795 0
M  V30 18198 H 1701.98 -3.0669 -4.17327 0
M  V30 18199 H 1698.66 -0.486374 -4.14657 0
M  V30 18200 H 1700.05 -4.42415 -5.05686 0
M  V30 18201 N 1702.77 1.22662 -0.989529 0
M  V30 18202 C 1703.72 2.26484 -0.529864 0
M  V30 18203 C 1704.71 1.64168 0.417759 0
M  V30 18204 O 1705.92 1.77638 0.290649 0
M  V30 18205 H 1702.29 0.736282 -0.152949 0
M  V30 18206 H 1704.27 2.62608 -1.41702 0
M  V30 18207 C 1703.01 3.47405 0.143148 0
M  V30 18208 H 1702.34 3.95615 -0.576962 0
M  V30 18209 H 1703.78 4.21831 0.428279 0
M  V30 18210 C 1702.24 3.07457 1.37738 0
M  V30 18211 O 1702.77 3.16555 2.47297 0
M  V30 18212 N 1700.97 2.62276 1.25139 0
M  V30 18213 H 1700.52 2.55073 0.359927 0
M  V30 18214 H 1700.48 2.35915 2.07826 0
M  V30 18215 N 1704.25 0.762308 1.37937 0
M  V30 18216 C 1705.49 0.327411 2.01761 0
M  V30 18217 C 1705.85 -1.07319 1.59206 0
M  V30 18218 O 1707.05 -1.60769 2.15423 0
M  V30 18219 C 1705.33 0.455779 3.54482 0
M  V30 18220 S 1706.88 0.104752 4.38675 0
M  V30 18221 H 1703.7 0.126503 0.699656 0
M  V30 18222 H 1706.3 0.994846 1.68295 0
M  V30 18223 H 1705.01 1.47593 3.82942 0
M  V30 18224 H 1704.54 -0.228536 3.92736 0
M  V30 18225 H 1706.55 -1.10282 4.83789 0
M  V30 18226 N 1705.73 -1.49049 0.51208 0
M  V30 18227 C 1706.66 -2.32163 -0.249529 0
M  V30 18228 C 1707.64 -1.40957 -0.952114 0
M  V30 18229 O 1708.82 -1.69858 -0.94137 0
M  V30 18230 C 1705.95 -3.21737 -1.30776 0
M  V30 18231 C 1704.91 -4.21825 -0.724392 0
M  V30 18232 C 1704.23 -5.00411 -1.88396 0
M  V30 18233 C 1705.53 -5.21483 0.291975 0
M  V30 18234 H 1707.23 -2.96086 0.444253 0
M  V30 18235 H 1704.77 -1.42385 0.215093 0
M  V30 18236 H 1706.73 -3.78699 -1.84837 0
M  V30 18237 H 1705.45 -2.55779 -2.03088 0
M  V30 18238 H 1704.11 -3.66024 -0.205441 0
M  V30 18239 H 1703.76 -4.30891 -2.59502 0
M  V30 18240 H 1703.46 -5.68141 -1.49964 0
M  V30 18241 H 1704.98 -5.6022 -2.42869 0
M  V30 18242 H 1706.4 -5.73074 -0.160899 0
M  V30 18243 H 1704.79 -5.97166 0.592717 0
M  V30 18244 H 1705.86 -4.69714 1.20404 0
M  V30 18245 N 1707.21 -0.246397 -1.55662 0
M  V30 18246 C 1708.48 0.42879 -1.90842 0
M  V30 18247 C 1708.86 1.75905 -1.16707 0
M  V30 18248 O 1708.21 2.26723 -0.284391 0
M  V30 18249 C 1708.42 0.597368 -3.4385 0
M  V30 18250 C 1709.77 0.893477 -4.15093 0
M  V30 18251 O 1710.79 0.683251 -3.49586 0
M  V30 18252 O 1709.65 1.2938 -5.30964 0
M  V30 18253 H 1706.75 0.230145 -0.794331 0
M  V30 18254 H 1709.29 -0.290426 -1.67196 0
M  V30 18255 H 1708.06 -0.339952 -3.8982 0
M  V30 18256 H 1707.69 1.36714 -3.73356 0
M  V30 18257 N 1708.68 1.57577 0.026722 0
M  V30 18258 C 1709.93 1.8856 0.716115 0
M  V30 18259 C 1710.25 0.845223 1.76395 0
M  V30 18260 O 1711.45 1.04435 2.5061 0
M  V30 18261 C 1709.91 3.34631 1.32476 0
M  V30 18262 C 1709.52 4.46904 0.313149 0
M  V30 18263 C 1711.26 3.74759 1.9939 0
M  V30 18264 C 1709.17 5.84038 0.930274 0
M  V30 18265 H 1708.1 0.703531 0.271221 0
M  V30 18266 H 1710.75 1.83476 -0.0294388 0
M  V30 18267 H 1709.13 3.34466 2.1201 0
M  V30 18268 H 1710.3 4.58542 -0.455647 0
M  V30 18269 H 1708.62 4.15624 -0.254028 0
M  V30 18270 H 1711.22 4.74534 2.46418 0
M  V30 18271 H 1711.56 3.06875 2.81307 0
M  V30 18272 H 1712.09 3.77108 1.26628 0
M  V30 18273 H 1708.83 6.55327 0.150466 0
M  V30 18274 H 1708.35 5.76116 1.66886 0
M  V30 18275 H 1710.03 6.30842 1.43692 0
M  V30 18276 N 1710.16 -0.299034 1.54737 0
M  V30 18277 C 1711.09 -1.37358 1.88826 0
M  V30 18278 C 1712.07 -1.52802 0.747367 0
M  V30 18279 O 1713.26 -1.66277 1.00327 0
M  V30 18280 C 1710.39 -2.73746 2.13729 0
M  V30 18281 C 1709.34 -2.73065 3.29575 0
M  V30 18282 C 1708.67 -4.12761 3.39901 0
M  V30 18283 C 1709.97 -2.34631 4.66632 0
M  V30 18284 H 1711.66 -1.09077 2.78824 0
M  V30 18285 H 1709.21 -0.523276 1.34156 0
M  V30 18286 H 1711.16 -3.49006 2.36162 0
M  V30 18287 H 1709.88 -3.03556 1.20504 0
M  V30 18288 H 1708.54 -2.00261 3.07068 0
M  V30 18289 H 1708.19 -4.39751 2.44189 0
M  V30 18290 H 1707.89 -4.13205 4.17774 0
M  V30 18291 H 1709.42 -4.89797 3.64597 0
M  V30 18292 H 1710.83 -2.99608 4.88782 0
M  V30 18293 H 1709.23 -2.46285 5.47233 0
M  V30 18294 H 1710.3 -1.29759 4.67216 0
M  V30 18295 N 1711.64 -1.47227 -0.562322 0
M  V30 18296 C 1712.6 -1.58887 -1.6519 0
M  V30 18297 C 1713.6 -0.464359 -1.53949 0
M  V30 18298 O 1714.79 -0.729279 -1.582 0
M  V30 18299 C 1711.92 -1.52853 -3.04711 0
M  V30 18300 H 1713.12 -2.5601 -1.56202 0
M  V30 18301 H 1710.67 -1.35341 -0.781832 0
M  V30 18302 H 1711.41 -0.570867 -3.19236 0
M  V30 18303 H 1711.19 -2.3446 -3.14279 0
M  V30 18304 H 1712.68 -1.6414 -3.83989 0
M  V30 18305 N 1713.12 0.808639 -1.35273 0
M  V30 18306 C 1714.03 1.95198 -1.30134 0
M  V30 18307 C 1715.04 1.72769 -0.206587 0
M  V30 18308 O 1716.22 1.96633 -0.4356 0
M  V30 18309 C 1713.28 3.29747 -1.07087 0
M  V30 18310 C 1712.35 3.65086 -2.25855 0
M  V30 18311 C 1711.58 4.93215 -2.03898 0
M  V30 18312 O 1711.8 5.61487 -1.00439 0
M  V30 18313 O 1710.74 5.26765 -2.91208 0
M  V30 18314 H 1714.56 2.0248 -2.26353 0
M  V30 18315 H 1712.15 0.946124 -1.15624 0
M  V30 18316 H 1714.03 4.10302 -0.960734 0
M  V30 18317 H 1712.7 3.23401 -0.139177 0
M  V30 18318 H 1711.61 2.84917 -2.42432 0
M  V30 18319 H 1712.94 3.76135 -3.17464 0
M  V30 18320 N 1714.6 1.19237 1.03055 0
M  V30 18321 C 1715.56 0.930536 2.0946 0
M  V30 18322 C 1716.56 -0.0882907 1.60557 0
M  V30 18323 O 1717.75 0.146269 1.73585 0
M  V30 18324 C 1714.88 0.398165 3.38567 0
M  V30 18325 H 1716.07 1.87422 2.34122 0
M  V30 18326 H 1713.63 1.00579 1.19639 0
M  V30 18327 H 1714.36 -0.551646 3.19574 0
M  V30 18328 H 1714.15 1.13273 3.75382 0
M  V30 18329 H 1715.64 0.234006 4.16944 0
M  V30 18330 N 1716.07 -1.22136 0.99602 0
M  V30 18331 C 1717.02 -2.2199 0.520059 0
M  V30 18332 C 1718.01 -1.55497 -0.413454 0
M  V30 18333 O 1719.2 -1.75369 -0.239765 0
M  V30 18334 C 1716.33 -3.42923 -0.160875 0
M  V30 18335 C 1715.42 -4.16618 0.793126 0
M  V30 18336 N 1715.81 -4.67022 1.94226 0
M  V30 18337 C 1714.1 -4.41814 0.609648 0
M  V30 18338 C 1714.81 -5.23252 2.5413 0
M  V30 18339 N 1713.78 -5.12096 1.8237 0
M  V30 18340 H 1717.58 -2.58606 1.39643 0
M  V30 18341 H 1715.1 -1.37842 0.858682 0
M  V30 18342 H 1717.09 -4.13654 -0.519266 0
M  V30 18343 H 1715.75 -3.07818 -1.03334 0
M  V30 18344 H 1716.77 -4.62882 2.32294 0
M  V30 18345 H 1713.44 -4.16938 -0.216495 0
M  V30 18346 H 1714.83 -5.72769 3.51263 0
M  V30 18347 N 1717.55 -0.769612 -1.37531 0
M  V30 18348 C 1718.8 -0.332309 -1.99349 0
M  V30 18349 C 1719.12 1.09432 -1.61399 0
M  V30 18350 O 1718.39 1.75102 -0.878415 0
M  V30 18351 H 1716.97 -0.119879 -0.737318 0
M  V30 18352 H 1719.63 -0.987265 -1.68045 0
M  V30 18353 H 1718.73 -0.408233 -3.09419 0
M  V30 18354 N 1719.03 1.48775 -0.519977 0
M  V30 18355 C 1720.26 2.06895 0.0139983 0
M  V30 18356 C 1720.67 1.37786 1.29075 0
M  V30 18357 O 1720.03 0.462168 1.76551 0
M  V30 18358 C 1720.08 3.60621 0.251999 0
M  V30 18359 O 1719.8 4.27132 -0.974158 0
M  V30 18360 C 1721.3 4.35508 0.827483 0
M  V30 18361 H 1718.52 0.670373 -0.0290011 0
M  V30 18362 H 1721.07 1.91302 -0.722762 0
M  V30 18363 H 1719.22 3.75853 0.938783 0
M  V30 18364 H 1719.64 5.19129 -0.748697 0
M  V30 18365 H 1721.11 5.43877 0.943492 0
M  V30 18366 H 1721.59 3.99261 1.82996 0
M  V30 18367 H 1722.19 4.24929 0.177578 0
M  V30 18368 N 1720.51 0.254649 1.55529 0
M  V30 18369 C 1721.92 -0.100019 1.59286 0
M  V30 18370 C 1722.12 -1.56289 1.27185 0
M  V30 18371 O 1721.18 -2.30854 1.02287 0
M  V30 18372 C 1722.49 0.256158 2.99607 0
M  V30 18373 C 1724.04 0.201091 3.12353 0
M  V30 18374 C 1724.52 0.531411 4.54907 0
M  V30 18375 N 1726.01 0.482199 4.60683 0
M  V30 18376 C 1726.74 0.710848 5.68977 0
M  V30 18377 N 1726.24 1.00304 6.85501 0
M  V30 18378 N 1728.03 0.641029 5.58433 0
M  V30 18379 H 1720.18 1.20856 1.74664 0
M  V30 18380 H 1722.45 0.486824 0.813453 0
M  V30 18381 H 1722.15 1.27275 3.27863 0
M  V30 18382 H 1722.03 -0.412994 3.74932 0
M  V30 18383 H 1724.41 -0.806189 2.83874 0
M  V30 18384 H 1724.49 0.904206 2.39286 0
M  V30 18385 H 1724.14 1.53628 4.84108 0
M  V30 18386 H 1724.07 -0.193269 5.26245 0
M  V30 18387 H 1726.56 0.265409 3.76967 0
M  V30 18388 H 1726.87 1.16472 7.63973 0
M  V30 18389 H 1725.22 1.04059 6.87166 0
M  V30 18390 H 1728.41 0.412751 4.66277 0
M  V30 18391 H 1728.58 0.822617 6.42757 0
M  V30 18392 N 1721.99 -1.57589 -0.0183649 0
M  V30 18393 C 1723.4 -1.7799 -0.563591 0
M  V30 18394 C 1723.75 -0.887064 -1.75002 0
M  V30 18395 O 1722.87 -0.0846843 -2.16234 0
M  V30 18396 C 1723.47 -3.2279 -1.02919 0
M  V30 18397 C 1722.03 -3.44351 -1.51986 0
M  V30 18398 C 1721.17 -2.73412 -0.462727 0
M  V30 18399 H 1724.13 -1.57333 0.207849 0
M  V30 18400 H 1724.15 -3.29892 -1.89609 0
M  V30 18401 H 1723.66 -3.87747 -0.165487 0
M  V30 18402 H 1721.76 -2.84583 -2.40506 0
M  V30 18403 H 1721.87 -4.52992 -1.55998 0
M  V30 18404 H 1720.24 -2.37496 -0.920211 0
M  V30 18405 H 1721.02 -3.41058 0.391698 0
M  V30 18406 N 1723.46 0.290824 -1.54893 0
M  V30 18407 C 1724.74 1.04495 -1.65348 0
M  V30 18408 C 1725.12 2.04888 -0.508348 0
M  V30 18409 O 1724.47 2.23102 0.493749 0
M  V30 18410 C 1724.68 1.71772 -3.03801 0
M  V30 18411 C 1726.03 2.23595 -3.60958 0
M  V30 18412 O 1727.05 1.81788 -3.06319 0
M  V30 18413 O 1725.91 3.00225 -4.56648 0
M  V30 18414 H 1723 0.483605 -0.670862 0
M  V30 18415 H 1725.55 0.288101 -1.67237 0
M  V30 18416 H 1724.32 0.989296 -3.78588 0
M  V30 18417 H 1723.95 2.54188 -3.05735 0
M  V30 18418 N 1724.94 1.47523 0.554506 0
M  V30 18419 C 1725.87 1.63093 1.67102 0
M  V30 18420 C 1726.85 0.480298 1.63178 0
M  V30 18421 O 1728.04 0.709956 1.80757 0
M  V30 18422 C 1725.17 1.64751 3.05736 0
M  V30 18423 C 1724.12 2.79068 3.24507 0
M  V30 18424 C 1723.45 2.65801 4.63955 0
M  V30 18425 C 1724.75 4.20631 3.09623 0
M  V30 18426 H 1726.44 2.56561 1.54328 0
M  V30 18427 H 1723.99 1.2347 0.741023 0
M  V30 18428 H 1725.94 1.74234 3.83693 0
M  V30 18429 H 1724.67 0.678453 3.19475 0
M  V30 18430 H 1723.32 2.691 2.48959 0
M  V30 18431 H 1722.97 1.66917 4.74497 0
M  V30 18432 H 1722.67 3.42494 4.77464 0
M  V30 18433 H 1724.2 2.77216 5.44044 0
M  V30 18434 H 1725.61 4.31562 3.77396 0
M  V30 18435 H 1724.01 4.98133 3.3464 0
M  V30 18436 H 1725.08 4.38809 2.06336 0
M  V30 18437 N 1726.42 -0.801453 1.357 0
M  V30 18438 C 1727.65 -1.59001 1.32386 0
M  V30 18439 C 1728.06 -1.88548 -0.0975432 0
M  V30 18440 O 1727.42 -1.49199 -1.05099 0
M  V30 18441 C 1727.47 -2.91822 2.13359 0
M  V30 18442 O 1727.19 -2.63554 3.49958 0
M  V30 18443 C 1728.69 -3.86169 2.17689 0
M  V30 18444 H 1725.91 -0.493557 0.45458 0
M  V30 18445 H 1728.46 -0.995616 1.78627 0
M  V30 18446 H 1726.61 -3.47763 1.70704 0
M  V30 18447 H 1727.03 -3.48397 3.92071 0
M  V30 18448 H 1728.5 -4.76461 2.78727 0
M  V30 18449 H 1728.98 -4.23134 1.17704 0
M  V30 18450 H 1729.58 -3.36163 2.60527 0
M  V30 18451 N 1727.9 -1.19782 -1.02421 0
M  V30 18452 C 1729.18 -0.912541 -1.73009 0
M  V30 18453 C 1729.56 0.58061 -2.02958 0
M  V30 18454 O 1728.9 1.54013 -1.68797 0
M  V30 18455 C 1729.11 -1.77745 -3.00346 0
M  V30 18456 C 1730.46 -2.01462 -3.73762 0
M  V30 18457 O 1731.49 -1.74935 -3.10284 0
M  V30 18458 O 1730.34 -2.46219 -4.87892 0
M  V30 18459 H 1727.44 -0.340513 -0.753644 0
M  V30 18460 H 1729.98 -1.30618 -1.08338 0
M  V30 18461 H 1728.76 -2.78887 -2.74477 0
M  V30 18462 H 1728.38 -1.38339 -3.72757 0
M  V30 18463 N 1729.38 1.21606 -1.00248 0
M  V30 18464 C 1730.31 2.23246 -0.519009 0
M  V30 18465 C 1731.32 1.58034 0.391051 0
M  V30 18466 O 1732.51 1.77468 0.191652 0
M  V30 18467 C 1729.61 3.37854 0.266017 0
M  V30 18468 C 1728.78 4.32655 -0.642503 0
M  V30 18469 C 1727.84 5.26119 0.0924758 0
M  V30 18470 O 1726.87 5.66771 -0.525333 0
M  V30 18471 N 1728.07 5.64058 1.37183 0
M  V30 18472 H 1730.84 2.65357 -1.39305 0
M  V30 18473 H 1728.4 1.36004 -0.878327 0
M  V30 18474 H 1730.39 3.97373 0.766598 0
M  V30 18475 H 1728.96 2.94749 1.04123 0
M  V30 18476 H 1728.18 3.71314 -1.32361 0
M  V30 18477 H 1729.47 4.92929 -1.26089 0
M  V30 18478 H 1728.87 5.33018 1.89493 0
M  V30 18479 H 1727.42 6.2595 1.81741 0
M  V30 18480 N 1730.86 0.776895 1.37121 0
M  V30 18481 C 1732.27 0.408311 1.8218 0
M  V30 18482 C 1732.62 -1.06621 1.64701 0
M  V30 18483 O 1731.74 -1.82621 1.16097 0
M  V30 18484 C 1732.34 0.734339 3.30746 0
M  V30 18485 C 1730.9 0.418746 3.74063 0
M  V30 18486 C 1730.04 0.97551 2.59575 0
M  V30 18487 H 1732.99 0.971111 1.25519 0
M  V30 18488 H 1733.02 0.0208557 3.80494 0
M  V30 18489 H 1732.53 1.80757 3.43436 0
M  V30 18490 H 1730.63 -0.646961 3.6694 0
M  V30 18491 H 1730.74 0.930597 4.69975 0
M  V30 18492 H 1729.11 0.399449 2.51548 0
M  V30 18493 H 1729.89 2.05425 2.75056 0
M  V30 18494 N 1732.33 -1.48497 0.527859 0
M  V30 18495 C 1733.26 -2.32414 -0.224891 0
M  V30 18496 C 1734.24 -1.41959 -0.93711 0
M  V30 18497 O 1735.43 -1.70847 -0.923302 0
M  V30 18498 C 1732.56 -3.23106 -1.27356 0
M  V30 18499 C 1731.51 -4.2257 -0.679611 0
M  V30 18500 C 1730.84 -5.02381 -1.83077 0
M  V30 18501 C 1732.14 -5.21144 0.347269 0
M  V30 18502 H 1733.83 -2.95598 0.475632 0
M  V30 18503 H 1731.38 -1.42148 0.230182 0
M  V30 18504 H 1733.33 -3.80639 -1.8081 0
M  V30 18505 H 1732.06 -2.57919 -2.00363 0
M  V30 18506 H 1730.72 -3.66221 -0.166608 0
M  V30 18507 H 1730.36 -4.3362 -2.54918 0
M  V30 18508 H 1730.06 -5.697 -1.43929 0
M  V30 18509 H 1731.59 -5.62765 -2.36914 0
M  V30 18510 H 1733 -5.73213 -0.100107 0
M  V30 18511 H 1731.4 -5.96503 0.656021 0
M  V30 18512 H 1732.47 -4.6841 1.25379 0
M  V30 18513 N 1733.81 -0.262893 -1.55392 0
M  V30 18514 C 1735.22 0.237224 -1.85187 0
M  V30 18515 C 1735.57 1.56383 -1.18486 0
M  V30 18516 O 1734.7 2.1126 -0.468849 0
M  V30 18517 C 1735.29 0.437206 -3.35967 0
M  V30 18518 C 1733.85 0.881568 -3.65931 0
M  V30 18519 C 1733 -0.0321489 -2.77281 0
M  V30 18520 H 1735.95 -0.485025 -1.51107 0
M  V30 18521 H 1735.97 1.27755 -3.58412 0
M  V30 18522 H 1735.48 -0.528474 -3.84485 0
M  V30 18523 H 1733.58 1.85915 -3.22903 0
M  V30 18524 H 1733.7 0.727355 -4.73547 0
M  V30 18525 H 1732.06 0.48204 -2.50097 0
M  V30 18526 H 1732.84 -0.99349 -3.2861 0
M  V30 18527 N 1735.29 1.57597 0.0100073 0
M  V30 18528 C 1736.57 1.81329 0.733415 0
M  V30 18529 C 1736.95 0.865495 1.92542 0
M  V30 18530 O 1736.29 -0.088073 2.2833 0
M  V30 18531 C 1736.5 3.29559 1.14856 0
M  V30 18532 C 1737.85 3.95039 1.55658 0
M  V30 18533 O 1738.88 3.33822 1.24262 0
M  V30 18534 O 1737.74 5.02858 2.13999 0
M  V30 18535 H 1734.83 0.746334 0.35625 0
M  V30 18536 H 1737.38 1.69694 -0.0146791 0
M  V30 18537 H 1736.15 3.9016 0.298467 0
M  V30 18538 H 1735.77 3.46156 1.95607 0
M  V30 18539 N 1736.77 -0.282606 1.55045 0
M  V30 18540 C 1737.73 -1.33228 1.86502 0
M  V30 18541 C 1738.73 -1.42814 0.738977 0
M  V30 18542 O 1739.92 -1.42131 1.0072 0
M  V30 18543 C 1737.05 -2.71488 2.06173 0
M  V30 18544 H 1738.25 -1.06571 2.80326 0
M  V30 18545 H 1735.8 -0.520199 1.47389 0
M  V30 18546 H 1736.53 -3.03339 1.14699 0
M  V30 18547 H 1736.32 -2.65917 2.8815 0
M  V30 18548 H 1737.81 -3.47348 2.31817 0
M  V30 18549 N 1738.25 -1.47815 -0.546675 0
M  V30 18550 C 1739.52 -1.45464 -1.30765 0
M  V30 18551 C 1739.9 -0.157249 -2.10514 0
M  V30 18552 O 1739.25 0.861203 -2.1165 0
M  V30 18553 C 1739.46 -2.70661 -2.20326 0
M  V30 18554 C 1740.81 -3.18309 -2.81007 0
M  V30 18555 O 1741.83 -2.71462 -2.30623 0
M  V30 18556 O 1740.69 -3.9978 -3.7261 0
M  V30 18557 H 1737.79 -0.580175 -0.589343 0
M  V30 18558 H 1740.33 -1.60029 -0.564707 0
M  V30 18559 H 1739.1 -3.56612 -1.61069 0
M  V30 18560 H 1738.73 -2.58734 -3.01898 0
M  V30 18561 N 1739.72 0.794246 -1.36123 0
M  V30 18562 C 1740.67 1.8963 -1.26588 0
M  V30 18563 C 1741.66 1.60118 -0.158415 0
M  V30 18564 O 1742.85 1.72632 -0.390783 0
M  V30 18565 C 1739.98 3.26767 -1.05255 0
M  V30 18566 C 1739.06 3.62304 -2.20447 0
M  V30 18567 N 1739.46 3.69185 -3.4574 0
M  V30 18568 C 1737.75 3.92336 -2.12106 0
M  V30 18569 C 1738.45 4.00822 -4.21565 0
M  V30 18570 N 1737.43 4.15553 -3.50453 0
M  V30 18571 H 1741.23 1.93169 -2.21501 0
M  V30 18572 H 1738.75 0.989508 -1.28773 0
M  V30 18573 H 1740.74 4.05575 -0.965108 0
M  V30 18574 H 1739.4 3.24505 -0.112374 0
M  V30 18575 H 1740.41 3.51951 -3.79935 0
M  V30 18576 H 1737.09 3.98028 -1.26016 0
M  V30 18577 H 1738.48 4.1311 -5.29896 0
M  V30 18578 N 1741.2 1.20323 1.01785 0
M  V30 18579 C 1742.43 1.03821 1.78966 0
M  V30 18580 C 1742.84 -0.412622 1.84236 0
M  V30 18581 O 1742.2 -1.2865 1.29443 0
M  V30 18582 C 1742.25 1.61352 3.23493 0
M  V30 18583 O 1741.97 3.00758 3.18553 0
M  V30 18584 C 1743.47 1.49786 4.17228 0
M  V30 18585 H 1740.69 0.365291 0.562853 0
M  V30 18586 H 1743.24 1.59383 1.2813 0
M  V30 18587 H 1741.39 1.09913 3.71481 0
M  V30 18588 H 1741.81 3.28034 4.09261 0
M  V30 18589 H 1743.28 1.94802 5.16484 0
M  V30 18590 H 1743.76 0.450143 4.36887 0
M  V30 18591 H 1744.36 2.00409 3.75122 0
M  V30 18592 N 1742.68 -1.21073 1.00892 0
M  V30 18593 C 1743.93 -1.90807 0.704573 0
M  V30 18594 C 1744.28 -1.7689 -0.756804 0
M  V30 18595 O 1743.57 -1.13734 -1.54192 0
M  V30 18596 C 1743.77 -3.41148 1.0655 0
M  V30 18597 C 1743.6 -3.69693 2.56042 0
M  V30 18598 C 1742.37 -3.88832 3.22704 0
M  V30 18599 C 1744.56 -3.72879 3.54211 0
M  V30 18600 N 1742.55 -4.04828 4.61506 0
M  V30 18601 C 1743.92 -3.94207 4.7854 0
M  V30 18602 C 1745.97 -3.55805 3.48292 0
M  V30 18603 C 1744.68 -4.00231 5.97668 0
M  V30 18604 C 1746.7 -3.63096 4.66814 0
M  V30 18605 C 1746.06 -3.84889 5.89949 0
M  V30 18606 H 1742.16 -0.718205 0.309364 0
M  V30 18607 H 1744.75 -1.45639 1.29219 0
M  V30 18608 H 1742.92 -3.85086 0.506303 0
M  V30 18609 H 1744.65 -3.98325 0.715485 0
M  V30 18610 H 1741.4 -3.86898 2.73142 0
M  V30 18611 H 1741.83 -4.16719 5.33549 0
M  V30 18612 H 1746.47 -3.37928 2.54095 0
M  V30 18613 H 1744.19 -4.16906 6.92254 0
M  V30 18614 H 1747.77 -3.51202 4.63841 0
M  V30 18615 H 1746.65 -3.9038 6.80127 0
M  V30 18616 N 1744.16 -0.784156 -1.36707 0
M  V30 18617 C 1745.39 -0.365371 -2.03344 0
M  V30 18618 C 1745.8 1.02133 -1.59266 0
M  V30 18619 O 1745.14 1.66547 -0.775098 0
M  V30 18620 C 1745.2 -0.343819 -3.57852 0
M  V30 18621 C 1744.87 -1.6772 -4.25111 0
M  V30 18622 C 1745.86 -2.63179 -4.48367 0
M  V30 18623 C 1743.55 -1.95505 -4.62691 0
M  V30 18624 C 1745.54 -3.84621 -5.08277 0
M  V30 18625 C 1743.23 -3.17215 -5.2232 0
M  V30 18626 C 1744.23 -4.11592 -5.45052 0
M  V30 18627 O 1743.91 -5.31157 -6.0343 0
M  V30 18628 H 1743.65 -0.14936 -0.659293 0
M  V30 18629 H 1746.2 -1.06269 -1.75772 0
M  V30 18630 H 1744.43 0.409964 -3.84521 0
M  V30 18631 H 1746.12 0.0495818 -4.0587 0
M  V30 18632 H 1746.89 -2.42998 -4.19735 0
M  V30 18633 H 1742.76 -1.22867 -4.44325 0
M  V30 18634 H 1746.31 -4.58298 -5.25936 0
M  V30 18635 H 1742.21 -3.37276 -5.50377 0
M  V30 18636 H 1742.97 -5.32149 -6.219 0
M  V30 18637 N 1745.64 1.48215 -0.535727 0
M  V30 18638 C 1746.86 2.06898 -0.0079465 0
M  V30 18639 C 1747.28 1.39148 1.27606 0
M  V30 18640 O 1746.64 0.480867 1.76051 0
M  V30 18641 C 1746.69 3.60868 0.213736 0
M  V30 18642 O 1746.41 4.26075 -1.01941 0
M  V30 18643 C 1747.91 4.36362 0.781245 0
M  V30 18644 H 1745.13 0.670028 -0.0361097 0
M  V30 18645 H 1747.67 1.90524 -0.743012 0
M  V30 18646 H 1745.83 3.76828 0.898866 0
M  V30 18647 H 1746.24 5.18306 -0.803716 0
M  V30 18648 H 1747.72 5.44847 0.885753 0
M  V30 18649 H 1748.19 4.01179 1.78751 0
M  V30 18650 H 1748.8 4.25094 0.132499 0
M  V30 18651 N 1747.11 0.27113 1.5525 0
M  V30 18652 C 1748.39 -0.398374 1.915 0
M  V30 18653 C 1748.77 -1.74026 1.19491 0
M  V30 18654 O 1748.12 -2.26242 0.320425 0
M  V30 18655 C 1748.33 -0.542589 3.44756 0
M  V30 18656 C 1749.68 -0.827326 4.16462 0
M  V30 18657 O 1750.7 -0.627548 3.50628 0
M  V30 18658 O 1749.56 -1.20917 5.32955 0
M  V30 18659 H 1746.65 -0.217479 0.797892 0
M  V30 18660 H 1749.2 0.316988 1.66713 0
M  V30 18661 H 1747.97 0.401926 3.8923 0
M  V30 18662 H 1747.6 -1.30757 3.75484 0
M  V30 18663 N 1748.59 -1.576 -0.00164943 0
M  V30 18664 C 1749.84 -1.9012 -0.685486 0
M  V30 18665 C 1750.16 -0.872245 -1.74404 0
M  V30 18666 O 1749.43 0.090572 -1.95691 0
M  V30 18667 H 1748.01 -0.701699 -0.256177 0
M  V30 18668 H 1750.67 -1.94861 0.0388866 0
M  V30 18669 H 1749.77 -2.89831 -1.15778 0
M  V30 18670 N 1750.07 0.274379 -1.55193 0
M  V30 18671 C 1751.3 1.02871 -1.8009 0
M  V30 18672 C 1751.72 1.79202 -0.571676 0
M  V30 18673 O 1751.08 1.74867 0.478679 0
M  V30 18674 C 1751.13 1.96406 -3.02418 0
M  V30 18675 O 1750.23 3.05154 -2.77408 0
M  V30 18676 H 1749.57 0.294181 -0.595276 0
M  V30 18677 H 1752.1 0.303708 -2.02333 0
M  V30 18678 H 1752.11 2.38385 -3.31114 0
M  V30 18679 H 1750.79 1.40261 -3.91535 0
M  V30 18680 H 1749.36 2.675 -2.59805 0
M  V30 18681 N 1751.55 1.48103 0.538828 0
M  V30 18682 C 1752.77 1.59568 1.32487 0
M  V30 18683 C 1753.2 0.252908 1.86392 0
M  V30 18684 O 1752.56 -0.774094 1.63944 0
M  V30 18685 C 1752.6 2.63863 2.45782 0
M  V30 18686 O 1751.71 2.20409 3.48559 0
M  V30 18687 H 1751.05 0.53538 0.392765 0
M  V30 18688 H 1753.58 1.94024 0.649299 0
M  V30 18689 H 1753.59 2.8486 2.92093 0
M  V30 18690 H 1752.26 3.61352 2.05906 0
M  V30 18691 H 1750.84 2.09588 3.08427 0
M  V30 18692 N 1753.03 -0.787016 1.36542 0
M  V30 18693 C 1753.96 -1.91399 1.33749 0
M  V30 18694 C 1754.94 -1.68817 0.208559 0
M  V30 18695 O 1756.12 -1.89896 0.406574 0
M  V30 18696 C 1753.25 -3.28457 1.12842 0
M  V30 18697 C 1752.21 -3.65568 2.22585 0
M  V30 18698 C 1751.53 -5.01002 1.86818 0
M  V30 18699 C 1752.83 -3.73902 3.64684 0
M  V30 18700 H 1754.53 -1.93993 2.2805 0
M  V30 18701 H 1752.07 -0.931937 1.09777 0
M  V30 18702 H 1754.03 -4.06919 1.09522 0
M  V30 18703 H 1752.75 -3.26256 0.149918 0
M  V30 18704 H 1751.41 -2.89405 2.25035 0
M  V30 18705 H 1751.06 -4.95325 0.875361 0
M  V30 18706 H 1750.76 -5.26802 2.60294 0
M  V30 18707 H 1752.28 -5.81881 1.85058 0
M  V30 18708 H 1753.69 -4.4255 3.64448 0
M  V30 18709 H 1752.09 -4.11188 4.37086 0
M  V30 18710 H 1753.16 -2.74946 3.99416 0
M  V30 18711 N 1754.5 -1.20861 -1.01145 0
M  V30 18712 C 1755.43 -0.986058 -2.11658 0
M  V30 18713 C 1756.42 0.0867558 -1.69879 0
M  V30 18714 O 1757.6 -0.0717892 -1.94067 0
M  V30 18715 C 1754.73 -0.542938 -3.4303 0
M  V30 18716 C 1753.68 -1.55958 -3.98574 0
M  V30 18717 C 1753.01 -0.972917 -5.25774 0
M  V30 18718 C 1754.31 -2.94471 -4.31375 0
M  V30 18719 H 1756 -1.91035 -2.30534 0
M  V30 18720 H 1753.55 -0.919914 -1.10786 0
M  V30 18721 H 1755.5 -0.374446 -4.19733 0
M  V30 18722 H 1754.23 0.416988 -3.23927 0
M  V30 18723 H 1752.89 -1.71552 -3.23984 0
M  V30 18724 H 1752.53 -0.00490446 -5.03 0
M  V30 18725 H 1752.23 -1.65194 -5.63901 0
M  V30 18726 H 1753.76 -0.815607 -6.05128 0
M  V30 18727 H 1755.17 -2.82358 -4.98946 0
M  V30 18728 H 1753.57 -3.59327 -4.80629 0
M  V30 18729 H 1754.64 -3.45804 -3.39923 0
M  V30 18730 N 1755.98 1.20536 -1.01532 0
M  V30 18731 C 1756.91 2.22683 -0.542658 0
M  V30 18732 C 1757.93 1.5844 0.374267 0
M  V30 18733 O 1759.12 1.77661 0.172818 0
M  V30 18734 C 1756.22 3.38117 0.230168 0
M  V30 18735 C 1755.39 4.3195 -0.688356 0
M  V30 18736 C 1754.45 5.26187 0.0366686 0
M  V30 18737 O 1753.47 5.66182 -0.585418 0
M  V30 18738 N 1754.68 5.65481 1.31193 0
M  V30 18739 H 1757.44 2.63864 -1.42111 0
M  V30 18740 H 1755 1.35065 -0.892703 0
M  V30 18741 H 1756.99 3.98164 0.724408 0
M  V30 18742 H 1755.56 2.95837 1.00991 0
M  V30 18743 H 1754.78 3.69889 -1.36292 0
M  V30 18744 H 1756.07 4.91564 -1.3131 0
M  V30 18745 H 1755.47 5.34998 1.83829 0
M  V30 18746 H 1754.03 6.27842 1.75092 0
M  V30 18747 N 1757.46 0.791395 1.36289 0
M  V30 18748 C 1758.37 0.192362 2.3381 0
M  V30 18749 C 1759.39 -0.656556 1.61138 0
M  V30 18750 O 1760.56 -0.571877 1.9311 0
M  V30 18751 C 1757.63 -0.661283 3.40335 0
M  V30 18752 C 1756.69 0.206361 4.28804 0
M  V30 18753 C 1755.92 -0.606636 5.30241 0
M  V30 18754 O 1756.14 -1.84247 5.39823 0
M  V30 18755 O 1755.08 -0.00549116 6.019 0
M  V30 18756 H 1758.9 0.998723 2.86809 0
M  V30 18757 H 1756.49 0.552889 1.38793 0
M  V30 18758 H 1758.37 -1.148 4.05461 0
M  V30 18759 H 1757.05 -1.4455 2.89632 0
M  V30 18760 H 1755.95 0.739877 3.66711 0
M  V30 18761 H 1757.29 0.954142 4.82863 0
M  V30 18762 N 1758.94 -1.47929 0.54358 0
M  V30 18763 C 1760.19 -2.02095 0.0144379 0
M  V30 18764 C 1760.51 -1.42166 -1.33469 0
M  V30 18765 O 1759.78 -0.591899 -1.86744 0
M  V30 18766 H 1758.36 -0.746996 0.00234858 0
M  V30 18767 H 1761.02 -1.81488 0.710498 0
M  V30 18768 H 1760.12 -3.11987 -0.0838074 0
M  V30 18769 N 1760.42 -0.27936 -1.55104 0
M  V30 18770 C 1761.35 0.639572 -2.20096 0
M  V30 18771 C 1762.36 1.11423 -1.18696 0
M  V30 18772 O 1763.55 1.0354 -1.45402 0
M  V30 18773 C 1760.65 1.88494 -2.81644 0
M  V30 18774 C 1759.82 1.55639 -4.08773 0
M  V30 18775 C 1758.88 2.65466 -4.54328 0
M  V30 18776 O 1757.91 2.31473 -5.20008 0
M  V30 18777 N 1759.11 3.95606 -4.24825 0
M  V30 18778 H 1761.88 0.0833048 -2.99584 0
M  V30 18779 H 1759.44 -0.100637 -1.61587 0
M  V30 18780 H 1761.43 2.61272 -3.09062 0
M  V30 18781 H 1760 2.35015 -2.06123 0
M  V30 18782 H 1759.22 0.662253 -3.88597 0
M  V30 18783 H 1760.51 1.31196 -4.91594 0
M  V30 18784 H 1759.91 4.26043 -3.72161 0
M  V30 18785 H 1758.46 4.64748 -4.57004 0
M  V30 18786 N 1761.9 1.57599 -0.0067085 0
M  V30 18787 C 1763.31 1.55727 0.349452 0
M  V30 18788 C 1763.51 1.01004 1.74357 0
M  V30 18789 O 1762.57 0.646817 2.44075 0
M  V30 18790 C 1763.88 2.99905 0.218546 0
M  V30 18791 C 1765.43 3.11626 0.292987 0
M  V30 18792 C 1765.9 4.57601 0.191129 0
M  V30 18793 N 1767.39 4.62531 0.248819 0
M  V30 18794 C 1768.13 5.73074 0.193448 0
M  V30 18795 N 1767.63 6.92744 0.0882834 0
M  V30 18796 N 1769.42 5.61562 0.245803 0
M  V30 18797 H 1761.57 1.91508 -0.918617 0
M  V30 18798 H 1763.83 0.879931 -0.352739 0
M  V30 18799 H 1763.54 3.43807 -0.740914 0
M  V30 18800 H 1763.41 3.63761 0.997905 0
M  V30 18801 H 1765.8 2.67649 1.2429 0
M  V30 18802 H 1765.88 2.50534 -0.516358 0
M  V30 18803 H 1765.52 5.02253 -0.755263 0
M  V30 18804 H 1765.45 5.16646 1.01905 0
M  V30 18805 H 1767.95 3.76446 0.331157 0
M  V30 18806 H 1768.26 7.72782 0.052112 0
M  V30 18807 H 1766.6 6.94979 0.0538156 0
M  V30 18808 H 1769.79 4.66962 0.326204 0
M  V30 18809 H 1769.97 6.47694 0.199185 0
M  V30 18810 N 1763.37 -0.266145 1.55336 0
M  V30 18811 C 1764.32 -1.32914 1.88686 0
M  V30 18812 C 1765.29 -1.48752 0.739048 0
M  V30 18813 O 1766.48 -1.63048 0.990951 0
M  V30 18814 C 1763.62 -2.68317 2.17026 0
M  V30 18815 C 1762.73 -2.60644 3.44512 0
M  V30 18816 C 1761.86 -3.88271 3.62517 0
M  V30 18817 C 1760.9 -3.75137 4.83672 0
M  V30 18818 N 1760.04 -4.94614 4.98299 0
M  V30 18819 H 1764.88 -1.03774 2.79347 0
M  V30 18820 H 1762.42 -0.501205 1.38298 0
M  V30 18821 H 1764.37 -3.47107 2.31458 0
M  V30 18822 H 1763 -2.95645 1.29591 0
M  V30 18823 H 1762.06 -1.73527 3.38515 0
M  V30 18824 H 1763.37 -2.46842 4.3344 0
M  V30 18825 H 1762.52 -4.75503 3.76804 0
M  V30 18826 H 1761.26 -4.04949 2.71787 0
M  V30 18827 H 1760.27 -2.86289 4.69381 0
M  V30 18828 H 1761.49 -3.59973 5.75844 0
M  V30 18829 H 1759.44 -5.11689 4.10501 0
M  V30 18830 H 1759.35 -4.83369 5.81284 0
M  V30 18831 H 1760.62 -5.83399 5.16978 0
M  V30 18832 N 1764.85 -1.48386 -0.530967 0
M  V30 18833 C 1765.81 -1.62355 -1.61782 0
M  V30 18834 C 1766.81 -0.496909 -1.5293 0
M  V30 18835 O 1768 -0.762672 -1.56617 0
M  V30 18836 C 1765.14 -1.59282 -3.014 0
M  V30 18837 H 1766.33 -2.59265 -1.50737 0
M  V30 18838 H 1763.88 -1.36969 -0.752948 0
M  V30 18839 H 1764.62 -0.638453 -3.17953 0
M  V30 18840 H 1764.4 -2.41073 -3.09235 0
M  V30 18841 H 1765.89 -1.72248 -3.80421 0
M  V30 18842 N 1766.33 0.779763 -1.36958 0
M  V30 18843 C 1767.58 1.53499 -1.31463 0
M  V30 18844 C 1767.9 1.94728 0.102869 0
M  V30 18845 O 1767.17 1.65688 1.0452 0
M  V30 18846 H 1765.75 0.5693 -0.483638 0
M  V30 18847 H 1768.41 0.928536 -1.7136 0
M  V30 18848 H 1767.51 2.4381 -1.94841 0
M  V30 18849 N 1767.81 1.21396 1.00503 0
M  V30 18850 C 1768.77 0.974756 2.07439 0
M  V30 18851 C 1769.77 -0.0542142 1.60709 0
M  V30 18852 O 1770.96 0.183056 1.73236 0
M  V30 18853 C 1768.09 0.46989 3.37646 0
M  V30 18854 H 1769.29 1.92346 2.30094 0
M  V30 18855 H 1766.84 1.03095 1.17479 0
M  V30 18856 H 1767.57 -0.483735 3.20672 0
M  V30 18857 H 1767.36 1.2121 3.72895 0
M  V30 18858 H 1768.85 0.322393 4.16354 0
M  V30 18859 N 1769.29 -1.19996 1.0217 0
M  V30 18860 C 1770.25 -2.21179 0.601036 0
M  V30 18861 C 1771.25 -1.57345 -0.331531 0
M  V30 18862 O 1772.44 -1.73789 -0.119521 0
M  V30 18863 C 1769.57 -3.40683 -0.121557 0
M  V30 18864 H 1770.76 -2.5991 1.49622 0
M  V30 18865 H 1768.32 -1.33548 0.812071 0
M  V30 18866 H 1769.05 -3.07461 -1.03142 0
M  V30 18867 H 1768.84 -3.88245 0.548448 0
M  V30 18868 H 1770.33 -4.1565 -0.403046 0
M  V30 18869 N 1770.76 -0.798611 -1.35867 0
M  V30 18870 C 1772.01 -0.375816 -1.99287 0
M  V30 18871 C 1772.34 1.05223 -1.63223 0
M  V30 18872 O 1771.62 1.72862 -0.891576 0
M  V30 18873 C 1771.9 -0.550197 -3.55872 0
M  V30 18874 C 1771.75 -2.0226 -4.0176 0
M  V30 18875 C 1773.07 0.0290862 -4.4009 0
M  V30 18876 H 1770.19 -0.138024 -0.72396 0
M  V30 18877 H 1772.83 -1.00666 -1.61141 0
M  V30 18878 H 1770.98 -0.0131739 -3.88498 0
M  V30 18879 H 1772.66 -2.62139 -3.7958 0
M  V30 18880 H 1770.9 -2.52191 -3.52962 0
M  V30 18881 H 1771.57 -2.09553 -5.10678 0
M  V30 18882 H 1774.05 -0.429444 -4.13878 0
M  V30 18883 H 1772.92 -0.122894 -5.48762 0
M  V30 18884 H 1773.18 1.12206 -4.27624 0
M  V30 18885 N 1772.24 1.47639 -0.551417 0
M  V30 18886 C 1773.47 2.06878 -0.0298904 0
M  V30 18887 C 1773.88 1.40493 1.26123 0
M  V30 18888 O 1773.24 0.499513 1.75531 0
M  V30 18889 C 1773.29 3.61074 0.175449 0
M  V30 18890 O 1773.01 4.2497 -1.06454 0
M  V30 18891 C 1774.51 4.37166 0.734919 0
M  V30 18892 H 1771.73 0.669607 -0.0432142 0
M  V30 18893 H 1774.28 1.89726 -0.763178 0
M  V30 18894 H 1772.43 3.7776 0.858848 0
M  V30 18895 H 1772.85 5.17424 -0.858644 0
M  V30 18896 H 1774.32 5.45756 0.827915 0
M  V30 18897 H 1774.8 4.03052 1.74486 0
M  V30 18898 H 1775.4 4.2521 0.0874045 0
M  V30 18899 N 1773.72 0.287581 1.54954 0
M  V30 18900 C 1774.95 -0.328601 2.04274 0
M  V30 18901 C 1775.36 -1.48535 1.16545 0
M  V30 18902 O 1774.72 -1.81527 0.188187 0
M  V30 18903 C 1774.77 -0.797705 3.52589 0
M  V30 18904 O 1774.49 0.31299 4.36981 0
M  V30 18905 C 1775.99 -1.48042 4.1785 0
M  V30 18906 H 1773.21 -0.0733253 0.666982 0
M  V30 18907 H 1775.76 0.423307 2.00071 0
M  V30 18908 H 1773.91 -1.49967 3.57196 0
M  V30 18909 H 1774.33 -0.0498078 5.24476 0
M  V30 18910 H 1775.8 -1.75995 5.23192 0
M  V30 18911 H 1776.28 -2.41608 3.66772 0
M  V30 18912 H 1776.88 -0.821988 4.17281 0
M  V30 18913 N 1775.2 -1.57593 0.0150662 0
M  V30 18914 C 1776.11 -2.12807 -0.987437 0
M  V30 18915 C 1777.12 -1.07691 -1.3667 0
M  V30 18916 O 1778.3 -1.39674 -1.45097 0
M  V30 18917 C 1775.37 -2.63276 -2.2558 0
M  V30 18918 C 1774.43 -3.83053 -1.93827 0
M  V30 18919 C 1773.66 -4.31106 -3.14616 0
M  V30 18920 O 1773.88 -3.78405 -4.26809 0
M  V30 18921 O 1772.82 -5.23104 -2.97734 0
M  V30 18922 H 1776.64 -2.98715 -0.548015 0
M  V30 18923 H 1774.23 -1.47991 -0.20469 0
M  V30 18924 H 1776.11 -2.95869 -3.00066 0
M  V30 18925 H 1774.78 -1.80459 -2.68731 0
M  V30 18926 H 1773.69 -3.55409 -1.1677 0
M  V30 18927 H 1775.02 -4.6699 -1.55502 0
M  V30 18928 N 1776.68 0.257904 -1.55475 0
M  V30 18929 C 1777.9 1.00531 -1.80834 0
M  V30 18930 C 1778.32 1.79369 -0.589263 0
M  V30 18931 O 1777.68 1.77068 0.441935 0
M  V30 18932 C 1777.73 1.95194 -3.04272 0
M  V30 18933 O 1777.45 1.19548 -4.21473 0
M  V30 18934 C 1778.95 2.81624 -3.42349 0
M  V30 18935 H 1776.17 0.296315 -0.602029 0
M  V30 18936 H 1778.71 0.284118 -2.02517 0
M  V30 18937 H 1776.87 2.62756 -2.84672 0
M  V30 18938 H 1777.28 1.83483 -4.9136 0
M  V30 18939 H 1778.76 3.43815 -4.31851 0
M  V30 18940 H 1779.23 3.52172 -2.62434 0
M  V30 18941 H 1779.84 2.19531 -3.64261 0
M  V30 18942 N 1778.15 1.48666 0.52309 0
M  V30 18943 C 1779.06 1.66396 1.65377 0
M  V30 18944 C 1780.08 0.546469 1.65196 0
M  V30 18945 O 1781.26 0.818413 1.84022 0
M  V30 18946 C 1778.32 1.70602 3.01821 0
M  V30 18947 C 1777.38 2.94028 3.12803 0
M  V30 18948 C 1776.62 2.98024 4.42739 0
M  V30 18949 O 1776.84 2.10232 5.30244 0
M  V30 18950 O 1775.77 3.90266 4.58231 0
M  V30 18951 H 1779.6 2.62138 1.53354 0
M  V30 18952 H 1777.18 1.32148 0.696948 0
M  V30 18953 H 1779.07 1.75849 3.82956 0
M  V30 18954 H 1777.74 0.780346 3.14153 0
M  V30 18955 H 1776.65 2.9431 2.30938 0
M  V30 18956 H 1777.98 3.86003 3.0539 0
M  V30 18957 N 1779.63 -0.772489 1.37369 0
M  V30 18958 C 1780.88 -1.53329 1.32733 0
M  V30 18959 C 1781.21 -1.93999 -0.0882815 0
M  V30 18960 O 1780.49 -1.64014 -1.04545 0
M  V30 18961 C 1780.77 -2.79885 2.26575 0
M  V30 18962 C 1780.62 -2.45474 3.76912 0
M  V30 18963 C 1781.94 -3.81812 2.18878 0
M  V30 18964 H 1779.06 -0.55625 0.483482 0
M  V30 18965 H 1781.7 -0.886251 1.68064 0
M  V30 18966 H 1779.85 -3.35097 1.96576 0
M  V30 18967 H 1781.52 -1.96182 4.17505 0
M  V30 18968 H 1779.77 -1.78181 3.95517 0
M  V30 18969 H 1780.44 -3.35937 4.38007 0
M  V30 18970 H 1782.91 -3.36091 2.4532 0
M  V30 18971 H 1781.79 -4.68087 2.86681 0
M  V30 18972 H 1782.05 -4.26021 1.18146 0
M  V30 18973 N 1781.11 -1.21927 -0.998575 0
M  V30 18974 C 1782.36 -1.03456 -1.73147 0
M  V30 18975 C 1782.67 0.431472 -1.90782 0
M  V30 18976 O 1783.88 0.73573 -2.61341 0
M  V30 18977 C 1782.33 -1.80256 -3.11506 0
M  V30 18978 C 1781.94 -3.31071 -3.01821 0
M  V30 18979 C 1783.69 -1.70214 -3.8888 0
M  V30 18980 C 1781.59 -4.00335 -4.35299 0
M  V30 18981 H 1780.52 -0.3835 -0.649187 0
M  V30 18982 H 1783.17 -1.45724 -1.11521 0
M  V30 18983 H 1781.56 -1.30784 -3.7378 0
M  V30 18984 H 1782.73 -3.87895 -2.48746 0
M  V30 18985 H 1781.05 -3.41727 -2.37932 0
M  V30 18986 H 1783.64 -2.19289 -4.87664 0
M  V30 18987 H 1783.99 -0.661522 -4.1101 0
M  V30 18988 H 1784.52 -2.17199 -3.33271 0
M  V30 18989 H 1781.26 -5.04626 -4.18369 0
M  V30 18990 H 1780.78 -3.48301 -4.8831 0
M  V30 18991 H 1782.46 -4.05611 -5.04072 0
M  V30 18992 N 1782.59 1.19452 -1.02805 0
M  V30 18993 C 1783.83 1.89662 -0.734839 0
M  V30 18994 C 1784.19 1.78072 0.728567 0
M  V30 18995 O 1783.48 1.16172 1.52363 0
M  V30 18996 C 1783.68 3.3941 -1.11964 0
M  V30 18997 C 1783.51 3.65573 -2.61891 0
M  V30 18998 C 1782.28 3.83649 -3.28849 0
M  V30 18999 C 1784.47 3.67197 -3.60098 0
M  V30 19000 N 1782.46 3.97434 -4.67888 0
M  V30 19001 C 1783.83 3.86544 -4.84751 0
M  V30 19002 C 1785.88 3.50219 -3.53908 0
M  V30 19003 C 1784.58 3.90672 -6.0396 0
M  V30 19004 C 1786.61 3.55624 -4.72531 0
M  V30 19005 C 1785.97 3.75455 -5.95997 0
M  V30 19006 H 1782.07 0.713192 -0.320751 0
M  V30 19007 H 1784.66 1.43565 -1.31519 0
M  V30 19008 H 1782.83 3.84232 -0.567503 0
M  V30 19009 H 1784.56 3.97136 -0.778765 0
M  V30 19010 H 1781.31 3.82504 -2.79263 0
M  V30 19011 H 1781.74 4.08178 -5.40111 0
M  V30 19012 H 1786.38 3.33843 -2.59439 0
M  V30 19013 H 1784.1 4.0584 -6.98799 0
M  V30 19014 H 1787.68 3.43778 -4.69369 0
M  V30 19015 H 1786.56 3.79511 -6.86252 0
M  V30 19016 N 1784.07 0.805805 1.35442 0
M  V30 19017 C 1785.03 0.221278 2.28129 0
M  V30 19018 C 1786.03 -0.590919 1.49549 0
M  V30 19019 O 1787.22 -0.409518 1.69318 0
M  V30 19020 C 1784.35 -0.691643 3.3381 0
M  V30 19021 H 1785.54 1.03875 2.81336 0
M  V30 19022 H 1783.1 0.5764 1.45284 0
M  V30 19023 H 1783.83 -1.53283 2.85788 0
M  V30 19024 H 1783.62 -0.110972 3.91943 0
M  V30 19025 H 1785.11 -1.09497 4.02989 0
M  V30 19026 N 1785.54 -1.47344 0.559239 0
M  V30 19027 C 1786.49 -2.30039 -0.187317 0
M  V30 19028 C 1787.46 -1.39186 -0.906443 0
M  V30 19029 O 1788.65 -1.68147 -0.901739 0
M  V30 19030 C 1785.79 -3.2319 -1.21004 0
M  V30 19031 C 1784.9 -4.29134 -0.496776 0
M  V30 19032 C 1784.03 -5.09435 -1.50497 0
M  V30 19033 C 1783.07 -6.07151 -0.776794 0
M  V30 19034 N 1782.21 -6.80404 -1.73192 0
M  V30 19035 H 1787.05 -2.93357 0.523978 0
M  V30 19036 H 1784.59 -1.44597 0.270225 0
M  V30 19037 H 1786.55 -3.75621 -1.81561 0
M  V30 19038 H 1785.18 -2.61732 -1.88935 0
M  V30 19039 H 1784.23 -3.79744 0.223359 0
M  V30 19040 H 1785.54 -4.98746 0.0735731 0
M  V30 19041 H 1784.69 -5.66026 -2.18402 0
M  V30 19042 H 1783.43 -4.3973 -2.10924 0
M  V30 19043 H 1782.44 -5.49736 -0.0838382 0
M  V30 19044 H 1783.66 -6.78866 -0.178239 0
M  V30 19045 H 1781.61 -6.13427 -2.32472 0
M  V30 19046 H 1781.53 -7.46193 -1.21377 0
M  V30 19047 H 1782.79 -7.41567 -2.40204 0
M  V30 19048 N 1787.02 -0.295795 -1.54799 0
M  V30 19049 C 1787.99 0.569699 -2.22007 0
M  V30 19050 C 1788.99 1.06535 -1.20445 0
M  V30 19051 O 1790.18 0.962212 -1.45214 0
M  V30 19052 C 1787.31 1.78821 -2.90234 0
M  V30 19053 H 1788.5 -0.0174148 -2.99895 0
M  V30 19054 H 1786.05 -0.0465813 -1.56231 0
M  V30 19055 H 1786.79 2.4153 -2.16412 0
M  V30 19056 H 1786.57 1.44051 -3.6468 0
M  V30 19057 H 1788.06 2.40321 -3.41519 0
M  V30 19058 N 1788.5 1.57583 -0.0234236 0
M  V30 19059 C 1789.43 2.12907 0.958804 0
M  V30 19060 C 1790.41 1.0438 1.34309 0
M  V30 19061 O 1791.6 1.32184 1.42271 0
M  V30 19062 C 1788.73 2.65151 2.24304 0
M  V30 19063 C 1787.68 3.78414 1.99967 0
M  V30 19064 C 1787.01 4.17064 3.34607 0
M  V30 19065 C 1788.31 5.04727 1.34342 0
M  V30 19066 H 1790 2.95228 0.498081 0
M  V30 19067 H 1787.55 1.42017 0.238138 0
M  V30 19068 H 1789.5 3.02487 2.93393 0
M  V30 19069 H 1788.22 1.79983 2.72532 0
M  V30 19070 H 1786.88 3.41507 1.33298 0
M  V30 19071 H 1786.53 3.28886 3.80583 0
M  V30 19072 H 1786.23 4.93385 3.19132 0
M  V30 19073 H 1787.76 4.56978 4.04973 0
M  V30 19074 H 1789.17 5.39686 1.93422 0
M  V30 19075 H 1787.57 5.86009 1.29282 0
M  V30 19076 H 1788.64 4.83872 0.315625 0
M  V30 19077 N 1789.98 -0.249655 1.5561 0
M  V30 19078 C 1791.39 -0.818934 1.67781 0
M  V30 19079 C 1791.74 -1.86134 0.620374 0
M  V30 19080 O 1790.87 -2.15133 -0.233869 0
M  V30 19081 C 1791.46 -1.49219 3.0417 0
M  V30 19082 C 1790.02 -2.0092 3.18289 0
M  V30 19083 C 1789.17 -0.859333 2.63649 0
M  V30 19084 H 1792.12 -0.0255186 1.58679 0
M  V30 19085 H 1792.14 -2.36011 2.98461 0
M  V30 19086 H 1791.65 -0.733268 3.8111 0
M  V30 19087 H 1789.75 -2.79701 2.46167 0
M  V30 19088 H 1789.87 -2.20848 4.25163 0
M  V30 19089 H 1788.23 -1.2591 2.21402 0
M  V30 19090 H 1789.01 -0.113545 3.43112 0
M  V30 19091 N 1791.46 -1.48941 -0.515198 0
M  V30 19092 C 1792.42 -1.64062 -1.60051 0
M  V30 19093 C 1793.42 -0.513101 -1.52394 0
M  V30 19094 O 1794.61 -0.77924 -1.558 0
M  V30 19095 C 1791.74 -1.6247 -2.99694 0
M  V30 19096 H 1792.94 -2.60849 -1.47978 0
M  V30 19097 H 1790.49 -1.37759 -0.738378 0
M  V30 19098 H 1791.22 -0.672141 -3.17258 0
M  V30 19099 H 1791.01 -2.4434 -3.0666 0
M  V30 19100 H 1792.5 -1.76273 -3.78573 0
M  V30 19101 N 1792.94 0.765193 -1.37777 0
M  V30 19102 C 1794.18 1.52096 -1.33084 0
M  V30 19103 C 1794.5 1.94827 0.08221 0
M  V30 19104 O 1793.77 1.66787 1.02757 0
M  V30 19105 H 1792.35 0.564139 -0.489649 0
M  V30 19106 H 1795.02 0.910308 -1.72335 0
M  V30 19107 H 1794.11 2.4173 -1.97416 0
M  V30 19108 N 1794.41 1.22455 0.992094 0
M  V30 19109 C 1795.64 1.07594 1.76723 0
M  V30 19110 C 1796.06 -0.37345 1.8507 0
M  V30 19111 O 1795.41 -1.25876 1.32142 0
M  V30 19112 C 1795.46 1.68178 3.19998 0
M  V30 19113 O 1795.19 3.07447 3.12102 0
M  V30 19114 C 1796.69 1.58602 4.13957 0
M  V30 19115 H 1793.91 0.377148 0.554978 0
M  V30 19116 H 1796.45 1.62065 1.24721 0
M  V30 19117 H 1794.61 1.17768 3.69066 0
M  V30 19118 H 1795.02 3.36641 4.0221 0
M  V30 19119 H 1796.49 2.05714 5.12236 0
M  V30 19120 H 1796.97 0.542712 4.35834 0
M  V30 19121 H 1797.58 2.08321 3.70786 0
M  V30 19122 N 1795.89 -1.18905 1.03437 0
M  V30 19123 C 1797.12 -1.93219 0.753743 0
M  V30 19124 C 1797.54 -1.75299 -0.682055 0
M  V30 19125 O 1796.9 -1.05892 -1.47161 0
M  V30 19126 C 1796.95 -3.42864 1.117 0
M  V30 19127 O 1796.05 -4.11708 0.238816 0
M  V30 19128 H 1795.39 -0.603015 0.277973 0
M  V30 19129 H 1797.92 -1.50823 1.38252 0
M  V30 19130 H 1797.93 -3.9355 1.07623 0
M  V30 19131 H 1796.61 -3.55228 2.163 0
M  V30 19132 H 1795.18 -3.71359 0.338652 0
M  V30 19133 N 1797.37 -0.812977 -1.35013 0
M  V30 19134 C 1798.33 -0.233373 -2.28009 0
M  V30 19135 C 1799.33 0.58298 -1.4986 0
M  V30 19136 O 1800.52 0.400533 -1.69533 0
M  V30 19137 C 1797.65 0.673931 -3.34172 0
M  V30 19138 H 1798.85 -1.05366 -2.80781 0
M  V30 19139 H 1796.4 -0.584097 -1.44976 0
M  V30 19140 H 1797.14 1.51766 -2.86597 0
M  V30 19141 H 1796.92 0.0901848 -3.91996 0
M  V30 19142 H 1798.41 1.07358 -4.03564 0
M  V30 19143 N 1798.85 1.47045 -0.567045 0
M  V30 19144 C 1799.78 2.28211 0.212726 0
M  V30 19145 C 1800.79 1.37591 0.870207 0
M  V30 19146 O 1801.98 1.62329 0.742404 0
M  V30 19147 C 1799.08 3.12155 1.31957 0
M  V30 19148 C 1798.25 4.30799 0.75701 0
M  V30 19149 C 1797.31 4.96262 1.74958 0
M  V30 19150 O 1796.34 5.54347 1.29181 0
M  V30 19151 N 1797.54 4.91848 3.08327 0
M  V30 19152 H 1800.31 2.95773 -0.483552 0
M  V30 19153 H 1797.87 1.56784 -0.403768 0
M  V30 19154 H 1799.86 3.52815 1.98252 0
M  V30 19155 H 1798.43 2.4677 1.91894 0
M  V30 19156 H 1797.65 3.94113 -0.0829881 0
M  V30 19157 H 1798.94 5.0752 0.360671 0
M  V30 19158 H 1798.34 4.45875 3.48155 0
M  V30 19159 H 1796.89 5.36497 3.70154 0
M  V30 19160 N 1800.33 0.304 1.5464 0
M  V30 19161 C 1801.74 -0.0492924 1.59524 0
M  V30 19162 C 1801.94 -1.52164 1.32093 0
M  V30 19163 O 1801 -2.27483 1.0958 0
M  V30 19164 C 1802.31 0.351346 2.9864 0
M  V30 19165 C 1803.86 0.300362 3.11555 0
M  V30 19166 C 1804.33 0.675867 4.52986 0
M  V30 19167 N 1805.82 0.628517 4.58916 0
M  V30 19168 C 1806.56 0.891504 5.66427 0
M  V30 19169 N 1806.06 1.22061 6.81962 0
M  V30 19170 N 1807.85 0.818366 5.56111 0
M  V30 19171 H 1800 1.26351 1.70731 0
M  V30 19172 H 1802.26 0.512457 0.797554 0
M  V30 19173 H 1801.97 1.37642 3.23647 0
M  V30 19174 H 1801.84 -0.293504 3.76056 0
M  V30 19175 H 1804.23 -0.715468 2.86295 0
M  V30 19176 H 1804.31 0.979876 2.36288 0
M  V30 19177 H 1803.95 1.68952 4.78976 0
M  V30 19178 H 1803.88 -0.0257498 5.26594 0
M  V30 19179 H 1806.38 0.385204 3.75932 0
M  V30 19180 H 1806.69 1.40718 7.5988 0
M  V30 19181 H 1805.03 1.25868 6.83507 0
M  V30 19182 H 1808.22 0.560885 4.64728 0
M  V30 19183 H 1808.4 1.02669 6.39815 0
M  V30 19184 N 1801.8 -1.57568 0.0317802 0
M  V30 19185 C 1802.77 -2.09296 -0.934239 0
M  V30 19186 C 1803.77 -1.00855 -1.25239 0
M  V30 19187 O 1804.96 -1.27004 -1.19229 0
M  V30 19188 C 1802.09 -2.56103 -2.24998 0
M  V30 19189 H 1803.28 -2.95933 -0.486183 0
M  V30 19190 H 1800.83 -1.54796 -0.2163 0
M  V30 19191 H 1801.57 -1.72803 -2.74426 0
M  V30 19192 H 1801.35 -3.35329 -2.03216 0
M  V30 19193 H 1802.84 -2.96339 -2.94233 0
M  V30 19194 N 1803.28 0.241399 -1.5574 0
M  V30 19195 C 1804.19 1.32034 -1.93918 0
M  V30 19196 C 1805.21 1.52363 -0.840331 0
M  V30 19197 O 1806.38 1.65879 -1.1422 0
M  V30 19198 C 1803.45 2.6539 -2.2309 0
M  V30 19199 C 1802.51 2.53536 -3.46436 0
M  V30 19200 C 1801.74 3.80532 -3.74208 0
M  V30 19201 O 1801.97 4.82662 -3.03964 0
M  V30 19202 O 1800.9 3.78834 -4.67727 0
M  V30 19203 H 1804.73 1.02647 -2.85827 0
M  V30 19204 H 1802.31 0.442616 -1.42693 0
M  V30 19205 H 1804.19 3.44184 -2.43137 0
M  V30 19206 H 1802.87 2.94499 -1.34358 0
M  V30 19207 H 1801.78 1.73009 -3.3169 0
M  V30 19208 H 1803.11 2.29371 -4.35488 0
M  V30 19209 N 1804.76 1.49212 0.507292 0
M  V30 19210 C 1805.69 1.68326 1.61829 0
M  V30 19211 C 1806.67 0.531969 1.61568 0
M  V30 19212 O 1807.86 0.767104 1.78407 0
M  V30 19213 C 1804.99 1.74394 3.0034 0
M  V30 19214 C 1803.94 2.89251 3.15465 0
M  V30 19215 C 1803.27 2.80426 4.55264 0
M  V30 19216 C 1804.57 4.30269 2.96085 0
M  V30 19217 H 1806.26 2.6134 1.46087 0
M  V30 19218 H 1803.81 1.25765 0.701367 0
M  V30 19219 H 1805.76 1.86353 3.77956 0
M  V30 19220 H 1804.48 0.779748 3.17155 0
M  V30 19221 H 1803.14 2.76884 2.40272 0
M  V30 19222 H 1802.79 1.81928 4.68947 0
M  V30 19223 H 1802.49 3.57511 4.66326 0
M  V30 19224 H 1804.01 2.94384 5.34949 0
M  V30 19225 H 1805.43 4.4335 3.63475 0
M  V30 19226 H 1803.83 5.08527 3.18623 0
M  V30 19227 H 1804.9 4.45151 1.92272 0
M  V30 19228 N 1806.24 -0.757876 1.38181 0
M  V30 19229 C 1807.49 -1.51222 1.33472 0
M  V30 19230 C 1807.8 -1.9546 -0.0740525 0
M  V30 19231 O 1809.01 -2.70404 -0.243664 0
M  V30 19232 C 1807.46 -2.73138 2.34358 0
M  V30 19233 C 1807.07 -2.35943 3.80835 0
M  V30 19234 C 1808.81 -3.51041 2.38685 0
M  V30 19235 C 1806.72 -3.54444 4.73417 0
M  V30 19236 H 1805.65 -0.567789 0.496116 0
M  V30 19237 H 1808.3 -0.828861 1.63714 0
M  V30 19238 H 1806.68 -3.43433 1.97153 0
M  V30 19239 H 1807.86 -1.73341 4.26954 0
M  V30 19240 H 1806.17 -1.71184 3.79585 0
M  V30 19241 H 1808.77 -4.39143 3.05054 0
M  V30 19242 H 1809.11 -3.91892 1.40451 0
M  V30 19243 H 1809.65 -2.87755 2.74667 0
M  V30 19244 H 1806.39 -3.18663 5.7283 0
M  V30 19245 H 1805.91 -4.16103 4.31993 0
M  V30 19246 H 1807.58 -4.21081 4.91223 0
M  V30 19247 N 1807.72 -1.22979 -0.985586 0
M  V30 19248 C 1808.68 -1.00763 -2.05862 0
M  V30 19249 C 1809.68 0.02864 -1.60774 0
M  V30 19250 O 1810.87 -0.210593 -1.72922 0
M  V30 19251 C 1808 -0.523547 -3.36856 0
M  V30 19252 H 1809.19 -1.95982 -2.27004 0
M  V30 19253 H 1806.75 -1.0495 -1.15824 0
M  V30 19254 H 1807.48 0.432658 -3.21401 0
M  V30 19255 H 1807.27 -1.27127 -3.70919 0
M  V30 19256 H 1808.76 -0.388591 -4.15788 0
M  V30 19257 N 1809.19 1.18355 -1.04066 0
M  V30 19258 C 1810.12 2.24196 -0.652568 0
M  V30 19259 C 1811.11 1.66581 0.344195 0
M  V30 19260 O 1812.29 1.929 0.224296 0
M  V30 19261 C 1809.42 3.47297 -0.0147409 0
M  V30 19262 C 1808.37 4.17661 -0.935044 0
M  V30 19263 C 1807.7 5.34455 -0.161692 0
M  V30 19264 C 1809 4.71153 -2.25415 0
M  V30 19265 H 1810.69 2.56914 -1.53738 0
M  V30 19266 H 1808.24 1.23492 -0.740658 0
M  V30 19267 H 1810.19 4.20544 0.268484 0
M  V30 19268 H 1808.92 3.13812 0.904949 0
M  V30 19269 H 1807.58 3.46312 -1.20265 0
M  V30 19270 H 1807.22 4.97219 0.760404 0
M  V30 19271 H 1806.92 5.82469 -0.774805 0
M  V30 19272 H 1808.45 6.10493 0.114515 0
M  V30 19273 H 1809.86 5.36095 -2.03163 0
M  V30 19274 H 1808.26 5.29701 -2.82022 0
M  V30 19275 H 1809.33 3.88576 -2.90064 0
M  V30 19276 N 1810.67 0.820125 1.3458 0
M  V30 19277 C 1811.9 0.419764 2.02597 0
M  V30 19278 C 1812.32 -0.973439 1.6177 0
M  V30 19279 O 1811.67 -1.6295 0.821791 0
M  V30 19280 C 1811.72 0.509104 3.57897 0
M  V30 19281 O 1811.44 1.84739 3.97244 0
M  V30 19282 C 1812.95 0.103283 4.4318 0
M  V30 19283 H 1810.17 0.168803 0.64942 0
M  V30 19284 H 1812.71 1.10751 1.71914 0
M  V30 19285 H 1810.86 -0.130526 3.8718 0
M  V30 19286 H 1811.28 1.81967 4.91923 0
M  V30 19287 H 1812.75 0.216884 5.51574 0
M  V30 19288 H 1813.23 -0.952888 4.28738 0
M  V30 19289 H 1813.84 0.716601 4.19219 0
M  V30 19290 N 1812.15 -1.46743 0.574835 0
M  V30 19291 C 1813.08 -2.2832 -0.20062 0
M  V30 19292 C 1814.1 -1.3805 -0.862898 0
M  V30 19293 O 1815.28 -1.6272 -0.733785 0
M  V30 19294 C 1812.38 -3.1285 -1.303 0
M  V30 19295 C 1811.56 -4.31195 -0.734153 0
M  V30 19296 C 1810.62 -4.97183 -1.72324 0
M  V30 19297 O 1809.64 -5.55025 -1.26239 0
M  V30 19298 N 1810.84 -4.93476 -3.05714 0
M  V30 19299 H 1813.61 -2.95513 0.499231 0
M  V30 19300 H 1811.17 -1.56568 0.412077 0
M  V30 19301 H 1813.16 -3.53861 -1.96378 0
M  V30 19302 H 1811.73 -2.47784 -1.90583 0
M  V30 19303 H 1810.95 -3.94063 0.103888 0
M  V30 19304 H 1812.24 -5.07704 -0.333751 0
M  V30 19305 H 1811.64 -4.47715 -3.45786 0
M  V30 19306 H 1810.2 -5.38453 -3.67304 0
M  V30 19307 N 1813.63 -0.312197 -1.54477 0
M  V30 19308 C 1814.59 0.54612 -2.22599 0
M  V30 19309 C 1815.59 1.05252 -1.21568 0
M  V30 19310 O 1816.78 0.946756 -1.46226 0
M  V30 19311 C 1813.91 1.75733 -2.92114 0
M  V30 19312 H 1815.11 -0.0492216 -2.9986 0
M  V30 19313 H 1812.66 -0.063149 -1.56172 0
M  V30 19314 H 1813.39 2.39221 -2.18961 0
M  V30 19315 H 1813.18 1.40175 -3.66188 0
M  V30 19316 H 1814.67 2.36685 -3.44049 0
M  V30 19317 N 1815.11 1.57549 -0.040136 0
M  V30 19318 C 1816.04 2.13912 0.936168 0
M  V30 19319 C 1817.02 1.05798 1.33194 0
M  V30 19320 O 1818.2 1.33685 1.40861 0
M  V30 19321 C 1815.33 2.67515 2.21479 0
M  V30 19322 C 1814.29 3.80513 1.95943 0
M  V30 19323 C 1813.61 4.20589 3.30165 0
M  V30 19324 C 1814.91 5.06124 1.28981 0
M  V30 19325 H 1816.61 2.9574 0.46674 0
M  V30 19326 H 1814.15 1.42262 0.223062 0
M  V30 19327 H 1816.11 3.05582 2.90168 0
M  V30 19328 H 1814.83 1.82864 2.70608 0
M  V30 19329 H 1813.49 3.42902 1.29669 0
M  V30 19330 H 1813.14 3.32904 3.77073 0
M  V30 19331 H 1812.84 4.96742 3.13881 0
M  V30 19332 H 1814.36 4.61248 4.00103 0
M  V30 19333 H 1815.77 5.41707 1.87687 0
M  V30 19334 H 1814.17 5.87347 1.2306 0
M  V30 19335 H 1815.24 4.84179 0.264286 0
M  V30 19336 N 1816.58 -0.233136 1.55866 0
M  V30 19337 C 1817.53 -1.28882 1.91463 0
M  V30 19338 C 1818.5 -1.47151 0.770435 0
M  V30 19339 O 1819.69 -1.6091 1.02531 0
M  V30 19340 C 1816.83 -2.63653 2.22668 0
M  V30 19341 C 1815.94 -2.53278 3.49963 0
M  V30 19342 C 1815.07 -3.80494 3.70672 0
M  V30 19343 C 1814.11 -3.64794 4.9152 0
M  V30 19344 N 1813.25 -4.83933 5.08678 0
M  V30 19345 H 1818.09 -0.978251 2.81486 0
M  V30 19346 H 1815.63 -0.471757 1.3933 0
M  V30 19347 H 1817.59 -3.42119 2.38769 0
M  V30 19348 H 1816.22 -2.9283 1.35833 0
M  V30 19349 H 1815.27 -1.66308 3.4212 0
M  V30 19350 H 1816.58 -2.37592 4.38579 0
M  V30 19351 H 1815.73 -4.67404 3.86806 0
M  V30 19352 H 1814.47 -3.99092 2.80315 0
M  V30 19353 H 1813.48 -2.76268 4.75348 0
M  V30 19354 H 1814.7 -3.47677 5.8335 0
M  V30 19355 H 1812.65 -5.02866 4.21262 0
M  V30 19356 H 1812.57 -4.7093 5.91406 0
M  V30 19357 H 1813.83 -5.72302 5.29236 0
M  V30 19358 N 1818.06 -1.49479 -0.499372 0
M  V30 19359 C 1819 -1.60874 -1.61848 0
M  V30 19360 C 1819.97 -0.457753 -1.56024 0
M  V30 19361 O 1821.16 -0.673516 -1.76057 0
M  V30 19362 C 1818.29 -1.56518 -3.00366 0
M  V30 19363 C 1817.33 -2.76834 -3.24446 0
M  V30 19364 S 1818.16 -4.38486 -3.07392 0
M  V30 19365 C 1819.32 -4.36779 -4.48303 0
M  V30 19366 H 1819.55 -2.55543 -1.51938 0
M  V30 19367 H 1817.09 -1.3839 -0.68465 0
M  V30 19368 H 1819.04 -1.54691 -3.80238 0
M  V30 19369 H 1817.71 -0.631341 -3.0769 0
M  V30 19370 H 1816.9 -2.70011 -4.2557 0
M  V30 19371 H 1816.5 -2.76082 -2.52299 0
M  V30 19372 H 1818.79 -4.08599 -5.4042 0
M  V30 19373 H 1819.74 -5.38186 -4.60175 0
M  V30 19374 H 1820.14 -3.66837 -4.29058 0
M  V30 19375 N 1819.54 0.750537 -1.38581 0
M  V30 19376 C 1820.5 1.84599 -1.35852 0
M  V30 19377 C 1821.5 1.58709 -0.258462 0
M  V30 19378 O 1822.69 1.66397 -0.51552 0
M  V30 19379 C 1819.83 3.22124 -1.11573 0
M  V30 19380 H 1821.02 1.88426 -2.33314 0
M  V30 19381 H 1818.57 0.952564 -1.23919 0
M  V30 19382 H 1819.31 3.23965 -0.147295 0
M  V30 19383 H 1819.09 3.42311 -1.91221 0
M  V30 19384 H 1820.58 4.02198 -1.12367 0
M  V30 19385 N 1821.02 1.235 0.979051 0
M  V30 19386 C 1821.93 1.03412 2.10578 0
M  V30 19387 C 1822.95 -0.0217644 1.73986 0
M  V30 19388 O 1824.12 0.173977 2.00647 0
M  V30 19389 C 1821.19 0.629192 3.40943 0
M  V30 19390 C 1820.25 1.76028 3.91552 0
M  V30 19391 C 1819.48 1.37457 5.15695 0
M  V30 19392 O 1819.7 0.259393 5.6981 0
M  V30 19393 O 1818.64 2.19614 5.60404 0
M  V30 19394 H 1822.46 1.97845 2.30415 0
M  V30 19395 H 1820.05 1.02218 1.08958 0
M  V30 19396 H 1821.93 0.414372 4.19358 0
M  V30 19397 H 1820.61 -0.286128 3.22433 0
M  V30 19398 H 1819.51 2.02975 3.14248 0
M  V30 19399 H 1820.85 2.65396 4.14519 0
M  V30 19400 N 1822.5 -1.17802 1.04693 0
M  V30 19401 C 1823.75 -1.87567 0.752534 0
M  V30 19402 C 1824.07 -1.81129 -0.722303 0
M  V30 19403 O 1823.34 -1.23385 -1.52161 0
M  V30 19404 H 1821.92 -0.69439 0.275376 0
M  V30 19405 H 1824.58 -1.42932 1.32501 0
M  V30 19406 H 1823.67 -2.9344 1.06299 0
M  V30 19407 N 1823.98 -0.827251 -1.34143 0
M  V30 19408 C 1824.92 -0.250166 -2.2944 0
M  V30 19409 C 1825.89 0.62749 -1.53791 0
M  V30 19410 O 1827.08 0.568218 -1.82143 0
M  V30 19411 C 1824.22 0.578392 -3.40219 0
M  V30 19412 C 1823.33 -0.321991 -4.30798 0
M  V30 19413 C 1822.47 0.51655 -5.28683 0
M  V30 19414 C 1821.5 -0.382949 -6.10901 0
M  V30 19415 N 1820.64 0.416774 -7.00862 0
M  V30 19416 H 1825.48 -1.06817 -2.78198 0
M  V30 19417 H 1823.02 -0.538245 -1.36899 0
M  V30 19418 H 1824.98 1.07414 -4.03135 0
M  V30 19419 H 1823.61 1.36147 -2.92684 0
M  V30 19420 H 1822.66 -0.935979 -3.68705 0
M  V30 19421 H 1823.97 -1.01346 -4.88396 0
M  V30 19422 H 1823.12 1.0766 -5.97071 0
M  V30 19423 H 1821.86 1.2415 -4.71633 0
M  V30 19424 H 1820.87 -0.955103 -5.41441 0
M  V30 19425 H 1822.09 -1.10609 -6.70032 0
M  V30 19426 H 1820.04 1.12532 -6.46276 0
M  V30 19427 H 1819.96 -0.216217 -7.55691 0
M  V30 19428 H 1821.22 0.959432 -7.73573 0
M  V30 19429 N 1825.45 1.46436 -0.582609 0
M  V30 19430 C 1826.4 2.30308 0.150697 0
M  V30 19431 C 1827.37 1.40611 0.884185 0
M  V30 19432 O 1828.56 1.6956 0.874874 0
M  V30 19433 C 1825.7 3.25074 1.15847 0
M  V30 19434 C 1824.81 4.2987 0.428442 0
M  V30 19435 C 1823.94 5.11765 1.42373 0
M  V30 19436 C 1822.98 6.0831 0.680103 0
M  V30 19437 N 1822.12 6.83073 1.62345 0
M  V30 19438 H 1826.96 2.92487 -0.570583 0
M  V30 19439 H 1824.5 1.44148 -0.293195 0
M  V30 19440 H 1826.45 3.78462 1.75563 0
M  V30 19441 H 1825.08 2.64704 1.84747 0
M  V30 19442 H 1824.14 3.7934 -0.283744 0
M  V30 19443 H 1825.45 4.98566 -0.15291 0
M  V30 19444 H 1824.6 5.69429 2.09369 0
M  V30 19445 H 1823.34 4.4303 2.03902 0
M  V30 19446 H 1822.35 5.498 -0.00363067 0
M  V30 19447 H 1823.57 6.79064 0.0702152 0
M  V30 19448 H 1821.52 6.17048 2.22684 0
M  V30 19449 H 1821.43 7.48029 1.0949 0
M  V30 19450 H 1822.7 7.45295 2.28376 0
M  V30 19451 N 1826.93 0.320385 1.54309 0
M  V30 19452 C 1827.86 -0.539789 2.27175 0
M  V30 19453 C 1828.84 -1.12198 1.2785 0
M  V30 19454 O 1830.03 -1.1477 1.56657 0
M  V30 19455 C 1827.16 -1.70236 3.02716 0
M  V30 19456 C 1826.11 -1.24962 4.09351 0
M  V30 19457 C 1825.44 -2.49888 4.72715 0
M  V30 19458 C 1826.74 -0.366788 5.21011 0
M  V30 19459 H 1828.43 0.0680079 2.99323 0
M  V30 19460 H 1825.98 0.0341488 1.4396 0
M  V30 19461 H 1827.93 -2.31037 3.5242 0
M  V30 19462 H 1826.65 -2.33669 2.2818 0
M  V30 19463 H 1825.31 -0.664556 3.60526 0
M  V30 19464 H 1824.96 -3.11679 3.94798 0
M  V30 19465 H 1824.66 -2.20288 5.44745 0
M  V30 19466 H 1826.19 -3.11458 5.25192 0
M  V30 19467 H 1827.6 -0.881001 5.6649 0
M  V30 19468 H 1826 -0.163707 5.99877 0
M  V30 19469 H 1827.07 0.603185 4.81134 0
M  V30 19470 N 1828.41 -1.57525 0.0484906 0
M  V30 19471 C 1829.36 -2.12552 -0.944684 0
M  V30 19472 C 1830.35 -1.05668 -1.32403 0
M  V30 19473 O 1831.56 -1.2408 -1.304 0
M  V30 19474 H 1827.93 -0.679336 -0.3225 0
M  V30 19475 H 1829.9 -2.94904 -0.455442 0
M  V30 19476 C 1828.65 -2.68333 -2.21117 0
M  V30 19477 H 1827.98 -3.50237 -1.92806 0
M  V30 19478 H 1829.42 -3.10459 -2.88775 0
M  V30 19479 C 1827.87 -1.61982 -2.95404 0
M  V30 19480 O 1828.4 -1.03102 -3.88243 0
M  V30 19481 N 1826.61 -1.33566 -2.58086 0
M  V30 19482 H 1826.16 -1.81635 -1.82665 0
M  V30 19483 H 1826.12 -0.626371 -3.08097 0
M  V30 19484 N 1829.89 0.224867 -1.55988 0
M  V30 19485 C 1831.13 0.951154 -1.79111 0
M  V30 19486 C 1831.47 1.84119 -0.617568 0
M  V30 19487 O 1830.74 1.90686 0.383312 0
M  V30 19488 C 1831.02 1.79292 -3.12292 0
M  V30 19489 C 1830.88 0.929603 -4.40089 0
M  V30 19490 C 1832.2 2.77132 -3.41886 0
M  V30 19491 H 1829.32 0.344359 -0.651603 0
M  V30 19492 H 1831.96 0.220228 -1.88719 0
M  V30 19493 H 1830.11 2.41609 -3.04232 0
M  V30 19494 H 1831.78 0.323432 -4.60165 0
M  V30 19495 H 1830.02 0.234877 -4.33164 0
M  V30 19496 H 1830.69 1.55289 -5.29707 0
M  V30 19497 H 1833.17 2.24951 -3.50052 0
M  V30 19498 H 1832.05 3.33135 -4.36248 0
M  V30 19499 H 1832.31 3.54705 -2.63887 0
M  V30 19500 N 1831.37 1.49742 0.491438 0
M  V30 19501 C 1832.6 1.63198 1.26689 0
M  V30 19502 C 1833 0.306438 1.86702 0
M  V30 19503 O 1832.35 -0.719282 1.69033 0
M  V30 19504 C 1832.41 2.64966 2.42967 0
M  V30 19505 C 1832.07 4.09066 2.0375 0
M  V30 19506 C 1833.07 4.95574 1.57171 0
M  V30 19507 C 1830.75 4.54859 2.13092 0
M  V30 19508 C 1832.75 6.25916 1.2045 0
M  V30 19509 C 1830.44 5.85212 1.75983 0
M  V30 19510 C 1831.43 6.70565 1.29738 0
M  V30 19511 O 1831.12 7.98487 0.931347 0
M  V30 19512 H 1830.85 0.552094 0.390087 0
M  V30 19513 H 1833.41 1.9658 0.595439 0
M  V30 19514 H 1831.64 2.26784 3.13218 0
M  V30 19515 H 1833.33 2.67852 3.04975 0
M  V30 19516 H 1834.09 4.61419 1.49391 0
M  V30 19517 H 1829.97 3.88585 2.48038 0
M  V30 19518 H 1833.52 6.9249 0.84283 0
M  V30 19519 H 1829.41 6.18893 1.83415 0
M  V30 19520 H 1830.18 8.11581 1.06198 0
M  V30 19521 N 1832.84 -0.743177 1.38977 0
M  V30 19522 C 1834.07 -1.53243 1.39011 0
M  V30 19523 C 1834.49 -1.88792 -0.0174858 0
M  V30 19524 O 1833.84 -1.53523 -0.986766 0
M  V30 19525 C 1833.9 -2.8251 2.25544 0
M  V30 19526 O 1833.62 -2.48474 3.60821 0
M  V30 19527 C 1835.12 -3.76588 2.33872 0
M  V30 19528 H 1832.34 -0.473832 0.475104 0
M  V30 19529 H 1834.88 -0.918958 1.82689 0
M  V30 19530 H 1833.04 -3.4021 1.853 0
M  V30 19531 H 1833.45 -3.31454 4.06495 0
M  V30 19532 H 1834.92 -4.64211 2.98684 0
M  V30 19533 H 1835.4 -4.17761 1.35544 0
M  V30 19534 H 1836.01 -3.24811 2.74551 0
M  V30 19535 N 1834.32 -1.24018 -0.972487 0
M  V30 19536 C 1835.6 -0.985099 -1.68983 0
M  V30 19537 C 1835.98 0.494006 -2.05238 0
M  V30 19538 O 1835.33 1.46715 -1.75177 0
M  V30 19539 C 1835.54 -1.90324 -2.92537 0
M  V30 19540 C 1836.89 -2.17134 -3.64881 0
M  V30 19541 O 1837.91 -1.87938 -3.02585 0
M  V30 19542 O 1836.77 -2.66691 -4.7701 0
M  V30 19543 H 1833.86 -0.372172 -0.738524 0
M  V30 19544 H 1836.41 -1.35095 -1.027 0
M  V30 19545 H 1835.18 -2.90278 -2.62401 0
M  V30 19546 H 1834.8 -1.54025 -3.66554 0
M  V30 19547 N 1835.8 1.17245 -1.05316 0
M  V30 19548 C 1837.03 1.91995 -0.784387 0
M  V30 19549 C 1837.45 1.76362 0.65408 0
M  V30 19550 O 1836.81 1.0822 1.45458 0
M  V30 19551 C 1836.86 3.41043 -1.1714 0
M  V30 19552 O 1835.96 4.11276 -0.304285 0
M  V30 19553 H 1835.3 0.598516 -0.287532 0
M  V30 19554 H 1837.83 1.48604 -1.40634 0
M  V30 19555 H 1837.84 3.91788 -1.13871 0
M  V30 19556 H 1836.52 3.51742 -2.21924 0
M  V30 19557 H 1835.09 3.70773 -0.39769 0
M  V30 19558 N 1837.28 0.834353 1.33702 0
M  V30 19559 C 1838.69 0.52156 1.50837 0
M  V30 19560 C 1838.89 -0.95203 1.77591 0
M  V30 19561 O 1837.95 -1.73603 1.83353 0
M  V30 19562 C 1839.26 1.39099 2.66593 0
M  V30 19563 C 1840.81 1.3893 2.80477 0
M  V30 19564 C 1841.29 2.24347 3.9929 0
M  V30 19565 N 1842.78 2.22032 4.06517 0
M  V30 19566 C 1843.51 2.84865 4.97634 0
M  V30 19567 N 1843.01 3.56732 5.93897 0
M  V30 19568 N 1844.8 2.74359 4.90595 0
M  V30 19569 H 1836.95 1.78832 1.14598 0
M  V30 19570 H 1839.22 0.762708 0.563011 0
M  V30 19571 H 1838.92 2.43795 2.53489 0
M  V30 19572 H 1838.8 1.06381 3.61888 0
M  V30 19573 H 1841.18 0.350069 2.93016 0
M  V30 19574 H 1841.26 1.75652 1.85957 0
M  V30 19575 H 1840.91 3.28326 3.8751 0
M  V30 19576 H 1840.84 1.84969 4.93046 0
M  V30 19577 H 1843.33 1.69765 3.37621 0
M  V30 19578 H 1843.64 4.01893 6.60077 0
M  V30 19579 H 1841.99 3.6084 5.93986 0
M  V30 19580 H 1845.18 2.17779 4.14355 0
M  V30 19581 H 1845.35 3.23612 5.61408 0
M  V30 19582 N 1838.76 -1.46125 0.590367 0
M  V30 19583 C 1839.99 -2.06427 0.0846072 0
M  V30 19584 C 1840.39 -1.43847 -1.22901 0
M  V30 19585 O 1839.74 -0.540694 -1.75562 0
M  V30 19586 C 1839.8 -3.59197 -0.147484 0
M  V30 19587 C 1839.46 -4.44014 1.0817 0
M  V30 19588 C 1840.46 -4.80073 1.99564 0
M  V30 19589 C 1838.15 -4.85033 1.3057 0
M  V30 19590 C 1840.14 -5.55987 3.117 0
M  V30 19591 C 1837.83 -5.60705 2.43009 0
M  V30 19592 C 1838.82 -5.96097 3.33403 0
M  V30 19593 O 1838.51 -6.70237 4.43889 0
M  V30 19594 H 1838.24 -0.673504 0.0580399 0
M  V30 19595 H 1840.8 -1.88624 0.81302 0
M  V30 19596 H 1839.03 -3.75336 -0.930597 0
M  V30 19597 H 1840.72 -4.014 -0.602702 0
M  V30 19598 H 1841.48 -4.48955 1.83478 0
M  V30 19599 H 1837.36 -4.56931 0.611158 0
M  V30 19600 H 1840.91 -5.8353 3.8228 0
M  V30 19601 H 1836.8 -5.91236 2.59056 0
M  V30 19602 H 1837.57 -6.8867 4.42353 0
M  V30 19603 N 1840.23 -0.328564 -1.54137 0
M  V30 19604 C 1841.2 0.52248 -2.23165 0
M  V30 19605 C 1842.2 1.03956 -1.22677 0
M  V30 19606 O 1843.39 0.931193 -1.47222 0
M  V30 19607 C 1840.52 1.72624 -2.93962 0
M  V30 19608 H 1841.71 -0.081023 -2.99791 0
M  V30 19609 H 1839.27 -0.0797096 -1.56097 0
M  V30 19610 H 1840 2.36885 -2.21486 0
M  V30 19611 H 1839.79 1.36283 -3.67654 0
M  V30 19612 H 1841.28 2.33023 -3.4654 0
M  V30 19613 N 1841.71 1.57497 -0.0568439 0
M  V30 19614 C 1842.96 1.92914 0.615668 0
M  V30 19615 C 1843.29 0.935677 1.70515 0
M  V30 19616 O 1842.54 -0.0511255 1.95633 0
M  V30 19617 C 1842.84 3.35 1.24538 0
M  V30 19618 C 1842.51 4.50008 0.283536 0
M  V30 19619 C 1841.17 4.81196 0.0188809 0
M  V30 19620 C 1843.52 5.19847 -0.375336 0
M  V30 19621 C 1840.85 5.79569 -0.911986 0
M  V30 19622 C 1843.2 6.19215 -1.29443 0
M  V30 19623 C 1841.87 6.48829 -1.5677 0
M  V30 19624 H 1841.14 0.705922 0.225289 0
M  V30 19625 H 1843.78 1.91095 -0.124533 0
M  V30 19626 H 1842.09 3.33213 2.06098 0
M  V30 19627 H 1843.78 3.59686 1.77277 0
M  V30 19628 H 1840.37 4.25674 0.499994 0
M  V30 19629 H 1844.56 4.95959 -0.183967 0
M  V30 19630 H 1839.81 6.00846 -1.13112 0
M  V30 19631 H 1843.99 6.7244 -1.811 0
M  V30 19632 H 1841.62 7.24868 -2.29063 0
M  V30 19633 N 1843.19 -0.216591 1.56105 0
M  V30 19634 C 1844.15 -1.25198 1.91985 0
M  V30 19635 C 1845.15 -1.39551 0.798884 0
M  V30 19636 O 1846.34 -1.37731 1.06657 0
M  V30 19637 C 1843.48 -2.62499 2.17502 0
M  V30 19638 H 1844.67 -0.945854 2.84594 0
M  V30 19639 H 1842.22 -0.457218 1.49463 0
M  V30 19640 H 1842.96 -2.98202 1.27461 0
M  V30 19641 H 1842.74 -2.53457 2.99169 0
M  V30 19642 H 1844.23 -3.37204 2.4634 0
M  V30 19643 N 1844.67 -1.5 -0.48349 0
M  V30 19644 C 1845.9 -1.64105 -1.26004 0
M  V30 19645 C 1846.31 -0.319389 -1.86079 0
M  V30 19646 O 1845.67 0.697243 -1.68656 0
M  V30 19647 C 1845.72 -2.72299 -2.37772 0
M  V30 19648 O 1845.44 -3.99341 -1.80163 0
M  V30 19649 C 1846.94 -2.97266 -3.28858 0
M  V30 19650 H 1844.16 -0.551971 -0.381535 0
M  V30 19651 H 1846.71 -1.96146 -0.57852 0
M  V30 19652 H 1844.86 -2.42987 -3.01722 0
M  V30 19653 H 1845.27 -4.59077 -2.5367 0
M  V30 19654 H 1846.75 -3.76662 -4.03521 0
M  V30 19655 H 1847.23 -2.07855 -3.86902 0
M  V30 19656 H 1847.83 -3.28062 -2.70657 0
M  V30 19657 N 1846.15 0.735796 -1.39369 0
M  V30 19658 C 1847.11 1.83148 -1.37802 0
M  V30 19659 C 1848.11 1.58426 -0.27528 0
M  V30 19660 O 1849.3 1.65841 -0.53314 0
M  V30 19661 C 1846.43 3.20923 -1.14984 0
M  V30 19662 H 1847.62 1.85941 -2.353 0
M  V30 19663 H 1845.18 0.939367 -1.24922 0
M  V30 19664 H 1845.91 3.23791 -0.181648 0
M  V30 19665 H 1845.7 3.40264 -1.94841 0
M  V30 19666 H 1847.19 4.00984 -1.16626 0
M  V30 19667 N 1847.63 1.24532 0.965897 0
M  V30 19668 C 1848.58 1.00627 2.04593 0
M  V30 19669 C 1849.56 -0.0529299 1.60813 0
M  V30 19670 O 1850.75 0.16102 1.76266 0
M  V30 19671 C 1847.88 0.614939 3.37748 0
M  V30 19672 C 1846.97 1.71031 3.88084 0
M  V30 19673 N 1847.36 2.94339 4.11337 0
M  V30 19674 C 1845.66 1.58823 4.16763 0
M  V30 19675 C 1846.36 3.65361 4.52644 0
M  V30 19676 N 1845.33 2.92931 4.57922 0
M  V30 19677 H 1849.13 1.94256 2.20549 0
M  V30 19678 H 1846.65 1.14685 1.14983 0
M  V30 19679 H 1848.65 0.424907 4.14729 0
M  V30 19680 H 1847.31 -0.314149 3.23177 0
M  V30 19681 H 1848.32 3.305 3.98736 0
M  V30 19682 H 1844.99 0.727304 4.11116 0
M  V30 19683 H 1846.38 4.71145 4.79032 0
M  V30 19684 N 1849.1 -1.16685 1.05936 0
M  V30 19685 C 1850.35 -1.86466 0.768993 0
M  V30 19686 C 1850.67 -1.82374 -0.707038 0
M  V30 19687 O 1851.87 -2.47699 -1.11164 0
M  V30 19688 C 1850.33 -3.34605 1.32543 0
M  V30 19689 C 1849.94 -3.47179 2.83144 0
M  V30 19690 C 1851.68 -4.09665 1.11244 0
M  V30 19691 C 1849.59 -4.89384 3.3205 0
M  V30 19692 H 1848.52 -0.698479 0.283978 0
M  V30 19693 H 1851.17 -1.31717 1.27761 0
M  V30 19694 H 1849.55 -3.88937 0.744592 0
M  V30 19695 H 1850.72 -3.03027 3.47148 0
M  V30 19696 H 1849.04 -2.85549 3.03069 0
M  V30 19697 H 1851.64 -5.14586 1.45276 0
M  V30 19698 H 1851.98 -4.16269 0.0505969 0
M  V30 19699 H 1852.51 -3.61561 1.65887 0
M  V30 19700 H 1849.25 -4.87957 4.37697 0
M  V30 19701 H 1848.77 -5.34176 2.72793 0
M  V30 19702 H 1850.45 -5.58186 3.27166 0
M  V30 19703 N 1850.58 -0.841432 -1.33258 0
M  V30 19704 C 1851.53 -0.248505 -2.26642 0
M  V30 19705 C 1852.52 0.59799 -1.49375 0
M  V30 19706 O 1853.71 0.449539 -1.71196 0
M  V30 19707 C 1850.84 0.573322 -3.38479 0
M  V30 19708 C 1849.92 -0.284825 -4.23142 0
M  V30 19709 N 1850.31 -1.36477 -4.8704 0
M  V30 19710 C 1848.61 -0.072296 -4.45941 0
M  V30 19711 C 1849.31 -1.89162 -5.50084 0
M  V30 19712 N 1848.29 -1.19272 -5.30354 0
M  V30 19713 H 1852.09 -1.07432 -2.73561 0
M  V30 19714 H 1849.6 -0.686153 -1.47193 0
M  V30 19715 H 1851.6 1.01441 -4.0437 0
M  V30 19716 H 1850.26 1.39708 -2.93107 0
M  V30 19717 H 1851.27 -1.74767 -4.87521 0
M  V30 19718 H 1847.95 0.717812 -4.11283 0
M  V30 19719 H 1849.34 -2.79613 -6.10955 0
M  V30 19720 N 1852.06 1.4581 -0.598108 0
M  V30 19721 C 1853.31 2.01902 -0.0894342 0
M  V30 19722 C 1853.63 1.47021 1.281 0
M  V30 19723 O 1852.9 0.6608 1.84419 0
M  V30 19724 H 1851.48 0.746394 -0.0300712 0
M  V30 19725 H 1854.14 1.78726 -0.777367 0
M  V30 19726 H 1853.24 3.12084 -0.0320424 0
M  V30 19727 N 1853.54 0.336733 1.53961 0
M  V30 19728 C 1854.45 -0.531812 2.28493 0
M  V30 19729 C 1855.46 -1.11784 1.33343 0
M  V30 19730 O 1856.64 -1.13499 1.66373 0
M  V30 19731 C 1853.7 -1.67031 3.03812 0
M  V30 19732 C 1852.77 -1.11475 4.14574 0
M  V30 19733 C 1852 -2.19898 4.86292 0
M  V30 19734 O 1852.22 -3.40492 4.57625 0
M  V30 19735 O 1851.16 -1.84576 5.72901 0
M  V30 19736 H 1854.98 0.0738624 3.0361 0
M  V30 19737 H 1852.57 0.101996 1.49051 0
M  V30 19738 H 1854.45 -2.33286 3.50936 0
M  V30 19739 H 1853.12 -2.26192 2.31558 0
M  V30 19740 H 1852.03 -0.416915 3.7177 0
M  V30 19741 H 1853.36 -0.568092 4.88911 0
M  V30 19742 N 1855.02 -1.57465 0.0651956 0
M  V30 19743 C 1856.26 -1.92414 -0.604961 0
M  V30 19744 C 1856.58 -0.946628 -1.71167 0
M  V30 19745 O 1857.78 -1.18869 -2.44095 0
M  V30 19746 C 1856.24 -3.41786 -1.12741 0
M  V30 19747 C 1855.85 -4.4797 -0.0520584 0
M  V30 19748 C 1857.59 -3.85746 -1.77201 0
M  V30 19749 C 1855.5 -5.88468 -0.588181 0
M  V30 19750 H 1854.43 -0.718147 -0.229742 0
M  V30 19751 H 1857.08 -1.82993 0.136361 0
M  V30 19752 H 1855.46 -3.46258 -1.92149 0
M  V30 19753 H 1856.64 -4.55105 0.722215 0
M  V30 19754 H 1854.95 -4.13436 0.495917 0
M  V30 19755 H 1857.55 -4.88093 -2.18332 0
M  V30 19756 H 1857.89 -3.22754 -2.62937 0
M  V30 19757 H 1858.42 -3.83849 -1.04426 0
M  V30 19758 H 1855.16 -6.5509 0.231865 0
M  V30 19759 H 1854.68 -5.84866 -1.33012 0
M  V30 19760 H 1856.36 -6.38147 -1.06667 0
M  V30 19761 N 1856.49 0.20831 -1.56217 0
M  V30 19762 C 1857.72 0.945898 -1.83675 0
M  V30 19763 C 1858.13 1.77908 -0.643841 0
M  V30 19764 O 1857.47 1.79361 0.396885 0
M  V30 19765 C 1857.54 1.90219 -3.05052 0
M  V30 19766 C 1857.2 1.25224 -4.39509 0
M  V30 19767 C 1858.2 0.635617 -5.16 0
M  V30 19768 C 1855.88 1.26005 -4.86239 0
M  V30 19769 C 1857.88 0.0354655 -6.3739 0
M  V30 19770 C 1855.56 0.656058 -6.07568 0
M  V30 19771 C 1856.56 0.0448326 -6.82985 0
M  V30 19772 O 1856.25 -0.549727 -8.02018 0
M  V30 19773 H 1855.98 0.282151 -0.614302 0
M  V30 19774 H 1858.54 0.224595 -2.04168 0
M  V30 19775 H 1856.77 2.66284 -2.8041 0
M  V30 19776 H 1858.45 2.50644 -3.19268 0
M  V30 19777 H 1859.22 0.62182 -4.80997 0
M  V30 19778 H 1855.1 1.72519 -4.27502 0
M  V30 19779 H 1858.64 -0.442232 -6.96197 0
M  V30 19780 H 1854.54 0.667312 -6.42041 0
M  V30 19781 H 1855.31 -0.445338 -8.17288 0
M  V30 19782 N 1857.97 1.50255 0.475528 0
M  V30 19783 C 1859.39 1.37582 0.808907 0
M  V30 19784 C 1859.59 0.428494 1.96891 0
M  V30 19785 O 1858.64 -0.130513 2.52162 0
M  V30 19786 C 1859.96 2.78856 1.12515 0
M  V30 19787 C 1861.5 2.8774 1.23186 0
M  V30 19788 C 1861.98 4.29838 1.58126 0
M  V30 19789 N 1863.47 4.32767 1.65126 0
M  V30 19790 C 1864.21 5.39708 1.93656 0
M  V30 19791 N 1863.7 6.56862 2.20237 0
M  V30 19792 N 1865.49 5.27147 1.95121 0
M  V30 19793 H 1857.65 2.10425 -0.28901 0
M  V30 19794 H 1859.91 0.945646 -0.0667713 0
M  V30 19795 H 1859.61 3.49995 0.345892 0
M  V30 19796 H 1859.49 3.15822 2.06244 0
M  V30 19797 H 1861.88 2.16823 2.0018 0
M  V30 19798 H 1861.96 2.54323 0.274475 0
M  V30 19799 H 1861.6 5.0129 0.816737 0
M  V30 19800 H 1861.53 4.60737 2.55007 0
M  V30 19801 H 1864.02 3.48288 1.46642 0
M  V30 19802 H 1864.33 7.34173 2.41268 0
M  V30 19803 H 1862.68 6.60044 2.17639 0
M  V30 19804 H 1865.87 4.3462 1.73849 0
M  V30 19805 H 1866.04 6.10578 2.17021 0
M  V30 19806 N 1859.45 -0.728395 1.39758 0
M  V30 19807 C 1860.87 -1.03481 1.21506 0
M  V30 19808 C 1861.07 -2.01336 0.0812728 0
M  V30 19809 O 1860.12 -2.46099 -0.564956 0
M  V30 19810 C 1861.43 -1.59078 2.55176 0
M  V30 19811 C 1862.98 -1.71126 2.62078 0
M  V30 19812 C 1863.46 -2.30131 3.95985 0
M  V30 19813 N 1864.95 -2.37532 3.97659 0
M  V30 19814 C 1865.68 -2.8414 4.98048 0
M  V30 19815 N 1865.18 -3.30595 6.08834 0
M  V30 19816 N 1866.97 -2.83409 4.85423 0
M  V30 19817 H 1859.12 -0.0795283 2.12251 0
M  V30 19818 H 1861.39 -0.0978972 0.942932 0
M  V30 19819 H 1861.09 -0.946401 3.38727 0
M  V30 19820 H 1860.97 -2.5779 2.75362 0
M  V30 19821 H 1863.35 -2.34684 1.78906 0
M  V30 19822 H 1863.43 -0.710485 2.45735 0
M  V30 19823 H 1863.08 -1.67198 4.79591 0
M  V30 19824 H 1863.01 -3.30898 4.09651 0
M  V30 19825 H 1865.5 -2.04706 3.17654 0
M  V30 19826 H 1865.81 -3.64689 6.81338 0
M  V30 19827 H 1864.16 -3.28587 6.12418 0
M  V30 19828 H 1867.35 -2.46444 3.97974 0
M  V30 19829 H 1867.52 -3.19417 5.63806 0
M  V30 19830 N 1860.93 -1.25042 -0.959279 0
M  V30 19831 C 1862.34 -1.01764 -1.22948 0
M  V30 19832 C 1862.54 0.268402 -1.99704 0
M  V30 19833 O 1861.6 0.982348 -2.32607 0
M  V30 19834 C 1862.91 -2.23794 -2.0084 0
M  V30 19835 C 1864.46 -2.28507 -2.13901 0
M  V30 19836 C 1864.94 -3.50181 -2.9519 0
M  V30 19837 N 1866.43 -3.50549 -3.0277 0
M  V30 19838 C 1867.16 -4.41357 -3.66049 0
M  V30 19839 N 1866.66 -5.42431 -4.30976 0
M  V30 19840 N 1868.45 -4.29049 -3.63143 0
M  V30 19841 H 1860.6 -2.07672 -0.445667 0
M  V30 19842 H 1862.86 -0.91176 -0.259611 0
M  V30 19843 H 1862.57 -3.17237 -1.51835 0
M  V30 19844 H 1862.44 -2.26592 -3.01556 0
M  V30 19845 H 1864.83 -1.3559 -2.62105 0
M  V30 19846 H 1864.91 -2.29731 -1.12505 0
M  V30 19847 H 1864.56 -4.43417 -2.47677 0
M  V30 19848 H 1864.49 -3.46202 -3.96802 0
M  V30 19849 H 1866.98 -2.77432 -2.56593 0
M  V30 19850 H 1867.29 -6.07941 -4.77104 0
M  V30 19851 H 1865.64 -5.46308 -4.29619 0
M  V30 19852 H 1868.83 -3.49317 -3.11601 0
M  V30 19853 H 1869 -5.00017 -4.12174 0
M  V30 19854 N 1862.41 1.16121 -1.06553 0
M  V30 19855 C 1863.65 1.86346 -0.782279 0
M  V30 19856 C 1863.98 1.82255 0.693395 0
M  V30 19857 O 1863.25 1.2579 1.50179 0
M  V30 19858 H 1861.83 0.689921 -0.286388 0
M  V30 19859 H 1864.49 1.40805 -1.34758 0
M  V30 19860 H 1863.58 2.91712 -1.10954 0
M  V30 19861 N 1863.88 0.848487 1.3281 0
M  V30 19862 C 1864.81 0.303885 2.31514 0
M  V30 19863 C 1865.8 -0.593621 1.59406 0
M  V30 19864 O 1866.98 -0.515158 1.87243 0
M  V30 19865 C 1864.11 -0.5138 3.43478 0
M  V30 19866 C 1863.06 0.28874 4.27025 0
M  V30 19867 C 1862.39 -0.653297 5.30694 0
M  V30 19868 C 1863.69 1.51111 4.99963 0
M  V30 19869 H 1865.38 1.12862 2.77313 0
M  V30 19870 H 1862.93 0.544158 1.33323 0
M  V30 19871 H 1864.88 -0.905164 4.11564 0
M  V30 19872 H 1863.61 -1.37184 2.96392 0
M  V30 19873 H 1862.27 0.661782 3.60577 0
M  V30 19874 H 1861.91 -1.50801 4.79863 0
M  V30 19875 H 1861.61 -0.120368 5.87477 0
M  V30 19876 H 1863.14 -1.04197 6.01644 0
M  V30 19877 H 1864.55 1.19237 5.60763 0
M  V30 19878 H 1862.95 1.98152 5.66441 0
M  V30 19879 H 1864.02 2.2757 4.28182 0
M  V30 19880 N 1865.36 -1.4549 0.605832 0
M  V30 19881 C 1866.29 -2.3328 -0.101377 0
M  V30 19882 C 1867.27 -1.46727 -0.860543 0
M  V30 19883 O 1868.46 -1.75501 -0.831441 0
M  V30 19884 C 1865.59 -3.29403 -1.1005 0
M  V30 19885 C 1864.54 -4.25578 -0.45466 0
M  V30 19886 C 1863.87 -5.11379 -1.5619 0
M  V30 19887 C 1865.17 -5.18571 0.623028 0
M  V30 19888 H 1866.86 -2.92661 0.631653 0
M  V30 19889 H 1864.41 -1.40728 0.305208 0
M  V30 19890 H 1866.36 -3.89688 -1.60379 0
M  V30 19891 H 1865.09 -2.68177 -1.8641 0
M  V30 19892 H 1863.74 -3.66589 0.027752 0
M  V30 19893 H 1863.39 -4.46523 -2.31574 0
M  V30 19894 H 1863.09 -5.76528 -1.13529 0
M  V30 19895 H 1864.62 -5.74532 -2.0675 0
M  V30 19896 H 1866.03 -5.72937 0.203881 0
M  V30 19897 H 1864.43 -5.92187 0.971292 0
M  V30 19898 H 1865.5 -4.61106 1.50032 0
M  V30 19899 N 1866.84 -0.344893 -1.5378 0
M  V30 19900 C 1868.07 0.252559 -2.05353 0
M  V30 19901 C 1868.48 1.44107 -1.21978 0
M  V30 19902 O 1867.84 1.80704 -0.25543 0
M  V30 19903 C 1867.89 0.666294 -3.55307 0
M  V30 19904 O 1867.61 -0.474957 -4.35518 0
M  V30 19905 C 1869.11 1.32432 -4.23056 0
M  V30 19906 H 1866.33 0.0485202 -0.669243 0
M  V30 19907 H 1868.88 -0.497271 -1.98362 0
M  V30 19908 H 1867.03 1.36606 -3.62515 0
M  V30 19909 H 1867.45 -0.144883 -5.243 0
M  V30 19910 H 1868.92 1.56456 -5.29363 0
M  V30 19911 H 1869.4 2.27829 -3.75487 0
M  V30 19912 H 1870 0.66655 -4.20044 0
M  V30 19913 N 1868.32 1.57428 -0.0735454 0
M  V30 19914 C 1869.54 1.98301 0.607591 0
M  V30 19915 C 1869.97 0.951686 1.62248 0
M  V30 19916 O 1869.33 -0.0825008 1.81112 0
M  V30 19917 C 1869.37 3.38201 1.2511 0
M  V30 19918 O 1868.48 3.37711 2.36696 0
M  V30 19919 H 1867.82 0.64539 0.156104 0
M  V30 19920 H 1870.35 2.0406 -0.148578 0
M  V30 19921 H 1870.36 3.75424 1.59753 0
M  V30 19922 H 1869.03 4.12793 0.50745 0
M  V30 19923 H 1867.61 3.1226 2.03833 0
M  V30 19924 N 1869.8 -0.200022 1.56326 0
M  V30 19925 C 1870.71 -1.26847 1.9735 0
M  V30 19926 C 1871.72 -1.50081 0.880432 0
M  V30 19927 O 1872.9 -1.62792 1.18578 0
M  V30 19928 C 1869.96 -2.59382 2.30048 0
M  V30 19929 C 1869.02 -2.44262 3.53036 0
M  V30 19930 C 1868.26 -3.70476 3.84165 0
M  V30 19931 O 1868.48 -4.74433 3.16654 0
M  V30 19932 O 1867.41 -3.663 4.77606 0
M  V30 19933 H 1871.24 -0.950324 2.88449 0
M  V30 19934 H 1868.83 -0.404628 1.43816 0
M  V30 19935 H 1870.71 -3.37616 2.52177 0
M  V30 19936 H 1869.38 -2.90833 1.42119 0
M  V30 19937 H 1868.29 -1.64154 3.36161 0
M  V30 19938 H 1869.62 -2.17744 4.41416 0
M  V30 19939 N 1871.27 -1.50505 -0.467553 0
M  V30 19940 C 1872.52 -1.61352 -1.21697 0
M  V30 19941 C 1872.84 -0.317583 -1.92396 0
M  V30 19942 O 1872.11 0.665123 -1.84263 0
M  V30 19943 H 1870.69 -0.594582 -0.452196 0
M  V30 19944 H 1873.36 -1.87299 -0.539 0
M  V30 19945 H 1872.45 -2.4264 -1.96296 0
M  V30 19946 N 1872.75 0.720973 -1.40142 0
M  V30 19947 C 1873.7 1.83506 -1.3998 0
M  V30 19948 C 1874.67 1.64092 -0.257489 0
M  V30 19949 O 1875.85 1.85302 -0.454738 0
M  V30 19950 C 1872.99 3.21163 -1.26288 0
M  V30 19951 C 1872.11 3.52185 -2.5018 0
M  V30 19952 C 1871.24 4.79318 -2.2897 0
M  V30 19953 C 1870.28 5.03228 -3.48465 0
M  V30 19954 N 1869.42 6.21572 -3.26485 0
M  V30 19955 H 1874.26 1.82979 -2.35208 0
M  V30 19956 H 1871.8 0.893911 -1.16823 0
M  V30 19957 H 1873.75 4.00646 -1.16357 0
M  V30 19958 H 1872.38 3.20931 -0.346817 0
M  V30 19959 H 1871.44 2.67297 -2.70659 0
M  V30 19960 H 1872.75 3.65765 -3.39142 0
M  V30 19961 H 1871.9 5.66809 -2.16362 0
M  V30 19962 H 1870.64 4.67938 -1.37424 0
M  V30 19963 H 1869.65 4.14194 -3.61557 0
M  V30 19964 H 1870.87 5.16484 -4.40932 0
M  V30 19965 H 1868.82 6.11453 -2.37616 0
M  V30 19966 H 1868.73 6.35804 -4.0901 0
M  V30 19967 H 1870 7.11865 -3.17599 0
M  V30 19968 N 1874.23 1.25549 0.952634 0
M  V30 19969 C 1875.14 1.07855 2.08337 0
M  V30 19970 C 1876.16 0.0151456 1.73993 0
M  V30 19971 O 1877.33 0.216498 2.00233 0
M  V30 19972 C 1874.4 0.701369 3.39532 0
M  V30 19973 C 1873.46 1.84293 3.8773 0
M  V30 19974 C 1872.69 1.48365 5.12663 0
M  V30 19975 O 1872.91 0.3802 5.69131 0
M  V30 19976 O 1871.85 2.31452 5.5562 0
M  V30 19977 H 1875.67 2.02688 2.26167 0
M  V30 19978 H 1873.26 1.04506 1.06765 0
M  V30 19979 H 1875.14 0.503231 4.18384 0
M  V30 19980 H 1873.82 -0.217671 3.22967 0
M  V30 19981 H 1872.72 2.09595 3.09872 0
M  V30 19982 H 1874.06 2.74129 4.08796 0
M  V30 19983 N 1875.71 -1.15554 1.07168 0
M  V30 19984 C 1876.96 -1.85639 0.788727 0
M  V30 19985 C 1877.27 -1.83114 -0.687656 0
M  V30 19986 O 1878.48 -2.48864 -1.08531 0
M  V30 19987 C 1876.93 -3.3318 1.36084 0
M  V30 19988 C 1876.54 -3.44157 2.8681 0
M  V30 19989 C 1878.28 -4.08462 1.15582 0
M  V30 19990 C 1876.19 -4.85835 3.37222 0
M  V30 19991 H 1875.12 -0.695427 0.29137 0
M  V30 19992 H 1877.77 -1.30354 1.29151 0
M  V30 19993 H 1876.15 -3.88125 0.785802 0
M  V30 19994 H 1877.33 -2.99328 3.50342 0
M  V30 19995 H 1875.64 -2.82318 3.06081 0
M  V30 19996 H 1878.24 -5.13017 1.50725 0
M  V30 19997 H 1878.58 -4.16192 0.0947449 0
M  V30 19998 H 1879.12 -3.59781 1.69712 0
M  V30 19999 H 1875.86 -4.83287 4.42847 0
M  V30 20000 H 1875.38 -5.31253 2.78443 0
M  V30 20001 H 1877.05 -5.54684 3.33068 0
M  V30 20002 N 1877.19 -0.855519 -1.32358 0
M  V30 20003 C 1878.13 -0.298777 -2.28858 0
M  V30 20004 C 1879.1 0.594728 -1.55088 0
M  V30 20005 O 1880.29 0.529455 -1.83307 0
M  V30 20006 C 1877.43 0.506096 -3.41369 0
M  V30 20007 C 1876.54 -0.413297 -4.30018 0
M  V30 20008 C 1875.68 0.404292 -5.29659 0
M  V30 20009 C 1874.72 -0.512444 -6.09951 0
M  V30 20010 N 1873.85 0.268017 -7.01588 0
M  V30 20011 H 1878.69 -1.12694 -2.7587 0
M  V30 20012 H 1876.23 -0.567162 -1.35726 0
M  V30 20013 H 1878.19 0.988384 -4.05323 0
M  V30 20014 H 1876.82 1.29908 -2.95506 0
M  V30 20015 H 1875.87 -1.01398 -3.66637 0
M  V30 20016 H 1877.18 -1.11683 -4.86136 0
M  V30 20017 H 1876.34 0.949707 -5.99221 0
M  V30 20018 H 1875.08 1.14118 -4.74161 0
M  V30 20019 H 1874.08 -1.06974 -5.39293 0
M  V30 20020 H 1875.31 -1.24796 -6.67535 0
M  V30 20021 H 1873.25 0.987986 -6.48517 0
M  V30 20022 H 1873.17 -0.376462 -7.55062 0
M  V30 20023 H 1874.44 0.79513 -7.75434 0
M  V30 20024 N 1878.67 1.45167 -0.61354 0
M  V30 20025 C 1879.61 2.32319 0.114222 0
M  V30 20026 C 1880.61 1.4632 0.853634 0
M  V30 20027 O 1881.81 1.62769 0.768525 0
M  V30 20028 H 1878.19 0.749935 0.0556921 0
M  V30 20029 H 1880.16 2.91474 -0.639175 0
M  V30 20030 C 1878.91 3.30035 1.09417 0
M  V30 20031 H 1878.23 3.96209 0.534632 0
M  V30 20032 H 1879.67 3.93734 1.5732 0
M  V30 20033 C 1878.13 2.57648 2.1707 0
M  V30 20034 O 1878.66 2.36227 3.24899 0
M  V30 20035 N 1876.87 2.17682 1.92517 0
M  V30 20036 H 1876.41 2.35303 1.04834 0
M  V30 20037 H 1876.37 1.69573 2.6475 0
M  V30 20038 N 1880.14 0.353044 1.53595 0
M  V30 20039 C 1881.09 -0.499326 2.25334 0
M  V30 20040 C 1882.06 -1.08781 1.25522 0
M  V30 20041 O 1883.25 -1.12265 1.54276 0
M  V30 20042 C 1880.39 -1.63955 3.03666 0
M  V30 20043 C 1879.5 -1.07745 4.18348 0
M  V30 20044 C 1878.63 -2.18575 4.84147 0
M  V30 20045 C 1877.67 -1.59765 5.90882 0
M  V30 20046 N 1876.81 -2.64376 6.50423 0
M  V30 20047 H 1881.65 0.118959 2.97762 0
M  V30 20048 H 1879.19 0.0704777 1.46931 0
M  V30 20049 H 1881.14 -2.31097 3.47347 0
M  V30 20050 H 1879.77 -2.22868 2.33516 0
M  V30 20051 H 1878.83 -0.296678 3.79241 0
M  V30 20052 H 1880.14 -0.607375 4.95088 0
M  V30 20053 H 1879.29 -2.93563 5.30948 0
M  V30 20054 H 1878.03 -2.68929 4.06852 0
M  V30 20055 H 1877.04 -0.832863 5.43455 0
M  V30 20056 H 1878.26 -1.10251 6.70091 0
M  V30 20057 H 1876.21 -3.13968 5.75986 0
M  V30 20058 H 1876.12 -2.22019 7.22664 0
M  V30 20059 H 1877.39 -3.39105 7.01875 0
M  V30 20060 N 1881.62 -1.57387 0.0818932 0
M  V30 20061 C 1882.9 -1.85297 -0.626447 0
M  V30 20062 C 1883.28 -0.976281 -1.87168 0
M  V30 20063 O 1882.63 -0.0451999 -2.28455 0
M  V30 20064 C 1882.84 -3.35695 -0.954461 0
M  V30 20065 C 1884.18 -4.03442 -1.32361 0
M  V30 20066 O 1885.21 -3.40499 -1.04588 0
M  V30 20067 O 1884.07 -5.1448 -1.84317 0
M  V30 20068 H 1881.16 -0.765835 -0.31213 0
M  V30 20069 H 1883.71 -1.69319 0.11359 0
M  V30 20070 H 1882.48 -3.91237 -0.0704846 0
M  V30 20071 H 1882.1 -3.56971 -1.75092 0
M  V30 20072 N 1883.1 0.191729 -1.56429 0
M  V30 20073 C 1884.01 1.25798 -1.9802 0
M  V30 20074 C 1885.03 1.49612 -0.888379 0
M  V30 20075 O 1886.2 1.62161 -1.1944 0
M  V30 20076 C 1883.27 2.58158 -2.3142 0
M  V30 20077 C 1882.33 2.42386 -3.54327 0
M  V30 20078 C 1881.56 3.68434 -3.86124 0
M  V30 20079 O 1881.78 4.72747 -3.19165 0
M  V30 20080 O 1880.72 3.63762 -4.79542 0
M  V30 20081 H 1884.54 0.935013 -2.88948 0
M  V30 20082 H 1882.13 0.396996 -1.44029 0
M  V30 20083 H 1884.01 3.36274 -2.53964 0
M  V30 20084 H 1882.69 2.90075 -1.43659 0
M  V30 20085 H 1881.59 1.62369 -3.37027 0
M  V30 20086 H 1882.93 2.154 -4.42565 0
M  V30 20087 N 1884.58 1.50751 0.459565 0
M  V30 20088 C 1885.83 1.61553 1.20762 0
M  V30 20089 C 1886.14 0.326862 1.9285 0
M  V30 20090 O 1887.35 0.313951 2.69679 0
M  V30 20091 C 1885.8 2.8522 2.19494 0
M  V30 20092 C 1885.41 4.21008 1.53156 0
M  V30 20093 C 1887.15 3.05373 2.94869 0
M  V30 20094 C 1885.06 5.35848 2.50241 0
M  V30 20095 H 1883.99 0.601658 0.454448 0
M  V30 20096 H 1886.64 1.77195 0.476886 0
M  V30 20097 H 1885.02 2.63163 2.95908 0
M  V30 20098 H 1886.2 4.53363 0.824521 0
M  V30 20099 H 1884.51 4.06554 0.900178 0
M  V30 20100 H 1887.11 3.88342 3.67552 0
M  V30 20101 H 1887.45 2.17557 3.54929 0
M  V30 20102 H 1887.99 3.27665 2.25566 0
M  V30 20103 H 1884.72 6.25854 1.94904 0
M  V30 20104 H 1884.24 5.07896 3.19063 0
M  V30 20105 H 1885.92 5.66894 3.11834 0
M  V30 20106 N 1886.06 -0.713531 1.40522 0
M  V30 20107 C 1886.99 -1.8404 1.43707 0
M  V30 20108 C 1887.97 -1.67474 0.297751 0
M  V30 20109 O 1889.15 -1.87474 0.506662 0
M  V30 20110 C 1886.28 -3.22014 1.30094 0
M  V30 20111 C 1885.24 -3.53255 2.4165 0
M  V30 20112 C 1884.56 -4.90395 2.13113 0
M  V30 20113 C 1885.86 -3.54045 3.83991 0
M  V30 20114 H 1887.56 -1.81632 2.38013 0
M  V30 20115 H 1885.1 -0.872437 1.14562 0
M  V30 20116 H 1887.05 -4.00541 1.30938 0
M  V30 20117 H 1885.78 -3.25002 0.322648 0
M  V30 20118 H 1884.44 -2.77069 2.40059 0
M  V30 20119 H 1884.09 -4.89988 1.13669 0
M  V30 20120 H 1883.79 -5.12264 2.87853 0
M  V30 20121 H 1885.31 -5.71254 2.15642 0
M  V30 20122 H 1886.72 -4.22609 3.87395 0
M  V30 20123 H 1885.12 -3.87441 4.58268 0
M  V30 20124 H 1886.19 -2.53387 4.13428 0
M  V30 20125 N 1887.53 -1.26053 -0.945962 0
M  V30 20126 C 1888.5 -1.07262 -2.02553 0
M  V30 20127 C 1889.5 -0.0225237 -1.60784 0
M  V30 20128 O 1890.69 -0.265501 -1.72165 0
M  V30 20129 C 1887.82 -0.63045 -3.3502 0
M  V30 20130 H 1889.01 -2.03105 -2.20655 0
M  V30 20131 H 1886.56 -1.08582 -1.12426 0
M  V30 20132 H 1887.3 0.330188 -3.22615 0
M  V30 20133 H 1887.08 -1.38863 -3.66687 0
M  V30 20134 H 1888.57 -0.520674 -4.14341 0
M  V30 20135 N 1889.01 1.14984 -1.07779 0
M  V30 20136 C 1889.94 2.22006 -0.723564 0
M  V30 20137 C 1890.92 1.67592 0.291024 0
M  V30 20138 O 1892.11 1.93516 0.162812 0
M  V30 20139 C 1889.24 3.47074 -0.125223 0
M  V30 20140 C 1888.19 4.14475 -1.06745 0
M  V30 20141 C 1887.52 5.33671 -0.331643 0
M  V30 20142 C 1888.82 4.63744 -2.4029 0
M  V30 20143 H 1890.51 2.51893 -1.61834 0
M  V30 20144 H 1888.06 1.21073 -0.779571 0
M  V30 20145 H 1890.01 4.21185 0.134555 0
M  V30 20146 H 1888.73 3.16533 0.804654 0
M  V30 20147 H 1887.39 3.4231 -1.31222 0
M  V30 20148 H 1887.04 4.99387 0.601833 0
M  V30 20149 H 1886.74 5.7971 -0.959721 0
M  V30 20150 H 1888.27 6.10548 -0.0797668 0
M  V30 20151 H 1889.68 5.2936 -2.20115 0
M  V30 20152 H 1888.08 5.20461 -2.98732 0
M  V30 20153 H 1889.15 3.79151 -3.02279 0
M  V30 20154 N 1890.49 0.862526 1.31902 0
M  V30 20155 C 1891.42 0.328423 2.31179 0
M  V30 20156 C 1892.4 -0.57668 1.60026 0
M  V30 20157 O 1893.59 -0.49527 1.87778 0
M  V30 20158 C 1890.72 -0.47734 3.44004 0
M  V30 20159 C 1889.67 0.334015 4.26695 0
M  V30 20160 C 1889 -0.596973 5.31357 0
M  V30 20161 C 1890.3 1.56405 4.98332 0
M  V30 20162 H 1891.99 1.15797 2.761 0
M  V30 20163 H 1889.54 0.558268 1.32738 0
M  V30 20164 H 1891.49 -0.861461 4.12501 0
M  V30 20165 H 1890.21 -1.34033 2.9783 0
M  V30 20166 H 1888.87 0.699989 3.59855 0
M  V30 20167 H 1888.52 -1.45703 4.81435 0
M  V30 20168 H 1888.22 -0.0580517 5.87571 0
M  V30 20169 H 1889.74 -0.978099 6.02715 0
M  V30 20170 H 1891.16 1.25178 5.59467 0
M  V30 20171 H 1889.55 2.04149 5.64308 0
M  V30 20172 H 1890.62 2.32099 4.25744 0
M  V30 20173 N 1891.97 -1.4484 0.62123 0
M  V30 20174 C 1892.92 -2.30626 -0.0895817 0
M  V30 20175 C 1893.89 -1.42906 -0.846593 0
M  V30 20176 O 1895.07 -1.7182 -0.829611 0
M  V30 20177 C 1892.21 -3.28032 -1.07188 0
M  V30 20178 C 1891.32 -4.30855 -0.314319 0
M  V30 20179 C 1890.46 -5.1536 -1.28755 0
M  V30 20180 C 1889.5 -6.09899 -0.518581 0
M  V30 20181 N 1888.63 -6.87137 -1.44178 0
M  V30 20182 H 1893.47 -2.90871 0.64793 0
M  V30 20183 H 1891.01 -1.4332 0.33131 0
M  V30 20184 H 1892.97 -3.82984 -1.65467 0
M  V30 20185 H 1891.6 -2.6951 -1.77664 0
M  V30 20186 H 1890.65 -3.78455 0.38422 0
M  V30 20187 H 1891.96 -4.97985 0.285042 0
M  V30 20188 H 1891.12 -5.7478 -1.94198 0
M  V30 20189 H 1889.86 -4.4828 -1.92084 0
M  V30 20190 H 1888.86 -5.49597 0.149399 0
M  V30 20191 H 1890.09 -6.79011 0.109851 0
M  V30 20192 H 1888.03 -6.22735 -2.06246 0
M  V30 20193 H 1887.95 -7.50669 -0.896192 0
M  V30 20194 H 1889.22 -7.51088 -2.08536 0
M  V30 20195 N 1893.45 -0.361184 -1.53405 0
M  V30 20196 C 1894.41 0.475026 -2.24223 0
M  V30 20197 C 1895.41 1.01331 -1.24855 0
M  V30 20198 O 1896.6 0.899756 -1.49164 0
M  V30 20199 C 1893.73 1.6635 -2.97557 0
M  V30 20200 H 1894.92 -0.144595 -2.99551 0
M  V30 20201 H 1892.48 -0.112802 -1.55892 0
M  V30 20202 H 1893.21 2.32133 -2.26461 0
M  V30 20203 H 1893 1.28454 -3.70462 0
M  V30 20204 H 1894.49 2.2562 -3.51405 0
M  V30 20205 N 1894.92 1.57341 -0.0902386 0
M  V30 20206 C 1895.85 2.16782 0.86764 0
M  V30 20207 C 1896.84 1.09982 1.29761 0
M  V30 20208 O 1898.02 1.38099 1.36537 0
M  V30 20209 C 1895.15 2.74426 2.12856 0
M  V30 20210 C 1894.1 3.86555 1.83738 0
M  V30 20211 C 1893.43 4.3088 3.16617 0
M  V30 20212 C 1894.73 5.09971 1.12814 0
M  V30 20213 H 1896.42 2.97075 0.372417 0
M  V30 20214 H 1893.97 1.42899 0.177689 0
M  V30 20215 H 1895.92 3.14659 2.80299 0
M  V30 20216 H 1894.65 1.9138 2.64653 0
M  V30 20217 H 1893.31 3.46853 1.18694 0
M  V30 20218 H 1892.95 3.44732 3.66291 0
M  V30 20219 H 1892.65 5.06477 2.97918 0
M  V30 20220 H 1894.18 4.73743 3.85227 0
M  V30 20221 H 1895.59 5.47404 1.70358 0
M  V30 20222 H 1893.99 5.90965 1.04311 0
M  V30 20223 H 1895.06 4.84775 0.110114 0
M  V30 20224 N 1896.4 -0.183431 1.56529 0
M  V30 20225 C 1897.65 -0.901995 1.81302 0
M  V30 20226 C 1897.98 -1.82765 0.665368 0
M  V30 20227 O 1897.23 -1.92578 -0.348162 0
M  V30 20228 C 1897.53 -1.74055 3.12153 0
M  V30 20229 C 1897.2 -0.964866 4.40456 0
M  V30 20230 C 1895.86 -0.750741 4.75308 0
M  V30 20231 C 1898.21 -0.419915 5.19506 0
M  V30 20232 C 1895.54 0.0196291 5.86697 0
M  V30 20233 C 1897.89 0.337305 6.317 0
M  V30 20234 C 1896.56 0.56234 6.65127 0
M  V30 20235 H 1895.83 -0.330064 0.66343 0
M  V30 20236 H 1898.47 -0.167643 1.90765 0
M  V30 20237 H 1896.78 -2.54393 2.97979 0
M  V30 20238 H 1898.47 -2.29935 3.28528 0
M  V30 20239 H 1895.06 -1.14178 4.13112 0
M  V30 20240 H 1899.25 -0.572714 4.92984 0
M  V30 20241 H 1894.5 0.203838 6.1106 0
M  V30 20242 H 1898.68 0.766889 6.92165 0
M  V30 20243 H 1896.31 1.16117 7.51279 0
M  V30 20244 N 1897.88 -1.50992 -0.451564 0
M  V30 20245 C 1898.81 -1.74216 -1.5547 0
M  V30 20246 C 1899.79 -0.591568 -1.59482 0
M  V30 20247 O 1900.98 -0.83279 -1.75437 0
M  V30 20248 C 1898.11 -1.85421 -2.9366 0
M  V30 20249 C 1897.06 -3.0076 -3.04512 0
M  V30 20250 C 1896.39 -2.9713 -4.44542 0
M  V30 20251 C 1897.69 -4.40961 -2.79911 0
M  V30 20252 H 1899.38 -2.66582 -1.36287 0
M  V30 20253 H 1896.93 -1.28281 -0.654207 0
M  V30 20254 H 1898.88 -2.00252 -3.70779 0
M  V30 20255 H 1897.6 -0.896921 -3.14043 0
M  V30 20256 H 1896.26 -2.85611 -2.2983 0
M  V30 20257 H 1895.91 -1.99207 -4.61872 0
M  V30 20258 H 1895.61 -3.74572 -4.52736 0
M  V30 20259 H 1897.13 -3.14035 -5.23655 0
M  V30 20260 H 1898.55 -4.56534 -3.4677 0
M  V30 20261 H 1896.95 -5.20002 -2.9953 0
M  V30 20262 H 1898.02 -4.51981 -1.75618 0
M  V30 20263 N 1899.36 0.706069 -1.40899 0
M  V30 20264 C 1900.77 1.2856 -1.35386 0
M  V30 20265 C 1901.12 1.96174 -0.0318902 0
M  V30 20266 O 1900.25 1.9814 0.870018 0
M  V30 20267 C 1900.84 2.33785 -2.45214 0
M  V30 20268 C 1899.4 2.87339 -2.43132 0
M  V30 20269 C 1898.55 1.61243 -2.25601 0
M  V30 20270 H 1901.5 0.501539 -1.50567 0
M  V30 20271 H 1901.52 3.14843 -2.13669 0
M  V30 20272 H 1901.03 1.84545 -3.41416 0
M  V30 20273 H 1899.13 3.40784 -1.50656 0
M  V30 20274 H 1899.24 3.38485 -3.39065 0
M  V30 20275 H 1897.61 1.86664 -1.73288 0
M  V30 20276 H 1898.39 1.14014 -3.23814 0
M  V30 20277 N 1900.84 1.26553 0.939264 0
M  V30 20278 C 1901.78 1.08276 2.03826 0
M  V30 20279 C 1902.75 -0.0127713 1.66095 0
M  V30 20280 O 1903.94 0.147362 1.9023 0
M  V30 20281 C 1901.08 0.723819 3.37424 0
M  V30 20282 C 1900.19 1.8958 3.88179 0
M  V30 20283 C 1899.33 1.4798 5.10172 0
M  V30 20284 C 1898.37 2.61997 5.53194 0
M  V30 20285 N 1897.5 2.21064 6.66389 0
M  V30 20286 H 1902.34 2.02323 2.18791 0
M  V30 20287 H 1899.88 1.00732 1.07198 0
M  V30 20288 H 1901.84 0.496585 4.14234 0
M  V30 20289 H 1900.47 -0.179671 3.223 0
M  V30 20290 H 1899.52 2.23591 3.07752 0
M  V30 20291 H 1900.83 2.7515 4.16045 0
M  V30 20292 H 1899.99 1.21312 5.94448 0
M  V30 20293 H 1898.72 0.595025 4.84057 0
M  V30 20294 H 1897.73 2.89391 4.67475 0
M  V30 20295 H 1898.95 3.51076 5.81311 0
M  V30 20296 H 1896.9 1.35024 6.41954 0
M  V30 20297 H 1896.82 3.00177 6.93851 0
M  V30 20298 H 1898.09 1.97614 7.54035 0
M  V30 20299 N 1902.31 -1.14411 1.08387 0
M  V30 20300 C 1903.73 -1.37432 0.811464 0
M  V30 20301 C 1903.93 -1.92992 -0.579345 0
M  V30 20302 O 1902.99 -2.14249 -1.33618 0
M  V30 20303 C 1904.3 -2.33557 1.89398 0
M  V30 20304 C 1905.85 -2.47197 1.91996 0
M  V30 20305 C 1906.32 -3.46622 2.99361 0
M  V30 20306 N 1907.81 -3.54165 2.98532 0
M  V30 20307 C 1908.55 -4.30946 3.78249 0
M  V30 20308 N 1908.04 -5.10972 4.67846 0
M  V30 20309 N 1909.84 -4.26141 3.66552 0
M  V30 20310 H 1901.99 -0.76694 1.9807 0
M  V30 20311 H 1904.25 -0.399866 0.859541 0
M  V30 20312 H 1903.96 -1.99868 2.89388 0
M  V30 20313 H 1903.83 -3.33459 1.7631 0
M  V30 20314 H 1906.22 -2.80178 0.926513 0
M  V30 20315 H 1906.3 -1.47258 2.09162 0
M  V30 20316 H 1905.94 -3.14374 3.98913 0
M  V30 20317 H 1905.87 -4.46341 2.7944 0
M  V30 20318 H 1908.36 -2.97057 2.33593 0
M  V30 20319 H 1908.68 -5.66834 5.2528 0
M  V30 20320 H 1907.02 -5.10241 4.71889 0
M  V30 20321 H 1910.21 -3.62693 2.95925 0
M  V30 20322 H 1910.39 -4.85729 4.28919 0
M  V30 20323 N 1903.79 -0.869509 -1.31443 0
M  V30 20324 C 1904.72 -0.340679 -2.31001 0
M  V30 20325 C 1905.7 0.568186 -1.6033 0
M  V30 20326 O 1906.89 0.485305 -1.88038 0
M  V30 20327 C 1904.02 0.45909 -3.44252 0
M  V30 20328 C 1902.97 -0.356639 -4.26512 0
M  V30 20329 C 1902.3 0.568786 -5.31666 0
M  V30 20330 C 1903.6 -1.59045 -4.97496 0
M  V30 20331 H 1905.29 -1.1726 -2.75482 0
M  V30 20332 H 1902.84 -0.5653 -1.3244 0
M  V30 20333 H 1904.79 0.839573 -4.12952 0
M  V30 20334 H 1903.52 1.32451 -2.98537 0
M  V30 20335 H 1902.17 -0.719063 -3.59479 0
M  V30 20336 H 1901.82 1.43148 -4.82201 0
M  V30 20337 H 1901.52 0.0268906 -5.87594 0
M  V30 20338 H 1903.05 0.946122 -6.03225 0
M  V30 20339 H 1904.46 -1.28144 -5.58795 0
M  V30 20340 H 1902.86 -2.07139 -5.63217 0
M  V30 20341 H 1903.93 -2.34354 -4.24507 0
M  V30 20342 N 1905.27 1.44508 -0.628902 0
M  V30 20343 C 1906.5 2.06942 -0.137778 0
M  V30 20344 C 1906.92 1.46672 1.17766 0
M  V30 20345 O 1906.28 0.567342 1.72194 0
M  V30 20346 C 1906.33 3.60584 -0.0341843 0
M  V30 20347 O 1905.43 3.99831 1.01038 0
M  V30 20348 H 1904.77 0.658696 -0.083759 0
M  V30 20349 H 1907.3 1.85418 -0.864951 0
M  V30 20350 H 1907.31 4.07697 0.157123 0
M  V30 20351 H 1905.99 4.03833 -0.994583 0
M  V30 20352 H 1904.56 3.64353 0.793824 0
M  V30 20353 N 1906.75 0.369315 1.53212 0
M  V30 20354 C 1908 -0.220348 2.00493 0
M  V30 20355 C 1908.31 -1.49561 1.26059 0
M  V30 20356 O 1909.52 -2.1641 1.63947 0
M  V30 20357 C 1907.97 -0.443218 3.5716 0
M  V30 20358 C 1907.58 0.817634 4.40476 0
M  V30 20359 C 1909.33 -0.990333 4.12786 0
M  V30 20360 C 1907.23 0.564143 5.88703 0
M  V30 20361 H 1906.16 -0.0861173 0.749066 0
M  V30 20362 H 1908.81 0.488632 1.76875 0
M  V30 20363 H 1907.2 -1.21355 3.76947 0
M  V30 20364 H 1908.37 1.59105 4.32461 0
M  V30 20365 H 1906.68 1.28824 3.95971 0
M  V30 20366 H 1909.28 -1.19537 5.21167 0
M  V30 20367 H 1909.62 -1.95357 3.67616 0
M  V30 20368 H 1910.16 -0.280073 3.96813 0
M  V30 20369 H 1906.9 1.49782 6.38158 0
M  V30 20370 H 1906.42 -0.170702 5.99557 0
M  V30 20371 H 1908.1 0.191072 6.46718 0
M  V30 20372 N 1908.23 -1.57291 0.0985816 0
M  V30 20373 C 1909.48 -1.93654 -0.564011 0
M  V30 20374 C 1909.79 -0.982723 -1.69121 0
M  V30 20375 O 1911 -1.2402 -2.41519 0
M  V30 20376 C 1909.45 -3.441 -1.05466 0
M  V30 20377 C 1909.06 -4.47979 0.0429743 0
M  V30 20378 C 1910.8 -3.89418 -1.68979 0
M  V30 20379 C 1908.71 -5.89583 -0.463226 0
M  V30 20380 H 1907.64 -0.722858 -0.214457 0
M  V30 20381 H 1910.29 -1.82662 0.175145 0
M  V30 20382 H 1908.67 -3.50256 -1.84761 0
M  V30 20383 H 1909.85 -4.53471 0.818587 0
M  V30 20384 H 1908.16 -4.12291 0.583501 0
M  V30 20385 H 1910.76 -4.92615 -2.0793 0
M  V30 20386 H 1911.1 -3.28258 -2.56032 0
M  V30 20387 H 1911.64 -3.85978 -0.962602 0
M  V30 20388 H 1908.37 -6.54451 0.370767 0
M  V30 20389 H 1907.89 -5.87555 -1.20577 0
M  V30 20390 H 1909.57 -6.40266 -0.931072 0
M  V30 20391 N 1909.71 0.175127 -1.56624 0
M  V30 20392 C 1910.66 1.22142 -1.92523 0
M  V30 20393 C 1911.64 1.39995 -0.793112 0
M  V30 20394 O 1912.83 1.4203 -1.05625 0
M  V30 20395 C 1909.96 2.56174 -2.28538 0
M  V30 20396 C 1909.05 2.42031 -3.48255 0
M  V30 20397 N 1909.44 1.97597 -4.65606 0
M  V30 20398 C 1907.74 2.72869 -3.52787 0
M  V30 20399 C 1908.44 1.95826 -5.47747 0
M  V30 20400 N 1907.41 2.38086 -4.88688 0
M  V30 20401 H 1911.21 0.869519 -2.80743 0
M  V30 20402 H 1908.73 0.383427 -1.57809 0
M  V30 20403 H 1910.73 3.31775 -2.5245 0
M  V30 20404 H 1909.39 2.92171 -1.41656 0
M  V30 20405 H 1910.4 1.67994 -4.89896 0
M  V30 20406 H 1907.07 3.12929 -2.76373 0
M  V30 20407 H 1908.46 1.63202 -6.51778 0
M  V30 20408 N 1911.18 1.5123 0.44355 0
M  V30 20409 C 1912.42 1.65246 1.20305 0
M  V30 20410 C 1912.79 0.357897 1.88635 0
M  V30 20411 O 1913.99 0.373765 2.66189 0
M  V30 20412 C 1912.26 2.8184 2.19775 0
M  V30 20413 S 1913.82 3.16149 3.04295 0
M  V30 20414 H 1910.64 0.582242 0.408063 0
M  V30 20415 H 1913.24 1.89114 0.495589 0
M  V30 20416 H 1911.94 3.74347 1.68204 0
M  V30 20417 H 1911.47 2.60141 2.95111 0
M  V30 20418 H 1913.49 2.62102 4.21327 0
M  V30 20419 N 1912.66 -0.698586 1.41271 0
M  V30 20420 C 1914.07 -1.2784 1.36066 0
M  V30 20421 C 1914.42 -1.96154 0.0422934 0
M  V30 20422 O 1913.55 -1.98599 -0.859498 0
M  V30 20423 C 1914.14 -2.32481 2.46451 0
M  V30 20424 C 1912.7 -2.86046 2.44652 0
M  V30 20425 C 1911.85 -1.60045 2.26453 0
M  V30 20426 H 1914.8 -0.493547 1.5083 0
M  V30 20427 H 1914.82 -3.13705 2.15335 0
M  V30 20428 H 1914.33 -1.82732 3.4239 0
M  V30 20429 H 1912.43 -3.3998 1.52461 0
M  V30 20430 H 1912.55 -3.36682 3.40855 0
M  V30 20431 H 1910.91 -1.85742 1.74275 0
M  V30 20432 H 1911.69 -1.12295 3.24414 0
M  V30 20433 N 1914.14 -1.27049 -0.93254 0
M  V30 20434 C 1915.39 -1.12879 -1.67639 0
M  V30 20435 C 1915.71 0.326803 -1.92242 0
M  V30 20436 O 1914.98 1.22934 -1.52525 0
M  V30 20437 H 1913.56 -0.414741 -0.621288 0
M  V30 20438 H 1916.22 -1.59505 -1.12 0
M  V30 20439 H 1915.32 -1.65417 -2.64658 0
M  V30 20440 N 1915.62 1.13835 -1.08993 0
M  V30 20441 C 1916.57 2.17155 -0.694818 0
M  V30 20442 C 1917.55 1.58291 0.28858 0
M  V30 20443 O 1918.74 1.76719 0.0996503 0
M  V30 20444 C 1915.87 3.43117 -0.112138 0
M  V30 20445 C 1914.96 4.08998 -1.12168 0
M  V30 20446 N 1915.35 4.50111 -2.30724 0
M  V30 20447 C 1913.65 4.35572 -0.958807 0
M  V30 20448 C 1914.35 5.01403 -2.94907 0
M  V30 20449 N 1913.32 4.95984 -2.22487 0
M  V30 20450 H 1917.13 2.46691 -1.59752 0
M  V30 20451 H 1914.64 1.30583 -0.965503 0
M  V30 20452 H 1916.64 4.16472 0.188914 0
M  V30 20453 H 1915.3 3.15056 0.785468 0
M  V30 20454 H 1916.31 4.42959 -2.68343 0
M  V30 20455 H 1912.99 4.1734 -0.11551 0
M  V30 20456 H 1914.38 5.43044 -3.95667 0
M  V30 20457 N 1917.1 0.876467 1.3098 0
M  V30 20458 C 1918.03 0.294228 2.27304 0
M  V30 20459 C 1919.04 -0.546404 1.53357 0
M  V30 20460 O 1920.23 -0.367339 1.74679 0
M  V30 20461 C 1917.33 -0.600972 3.33529 0
M  V30 20462 C 1916.5 0.208678 4.36902 0
M  V30 20463 C 1915.56 -0.615677 5.22586 0
M  V30 20464 O 1914.59 -0.0413981 5.69185 0
M  V30 20465 N 1915.79 -1.92644 5.47603 0
M  V30 20466 H 1918.55 1.12201 2.77905 0
M  V30 20467 H 1916.12 0.738597 1.44071 0
M  V30 20468 H 1918.11 -1.15831 3.8777 0
M  V30 20469 H 1916.68 -1.32943 2.82922 0
M  V30 20470 H 1915.9 0.947462 3.82644 0
M  V30 20471 H 1917.19 0.763998 5.03031 0
M  V30 20472 H 1916.58 -2.41605 5.11511 0
M  V30 20473 H 1915.14 -2.43141 6.04752 0
M  V30 20474 N 1918.57 -1.44173 0.636557 0
M  V30 20475 C 1919.52 -2.30708 -0.0651156 0
M  V30 20476 C 1920.49 -1.43795 -0.831389 0
M  V30 20477 O 1921.68 -1.7269 -0.81134 0
M  V30 20478 C 1918.82 -3.2915 -1.03703 0
M  V30 20479 C 1917.93 -4.31164 -0.268603 0
M  V30 20480 C 1917.06 -5.16696 -1.23282 0
M  V30 20481 C 1916.1 -6.10415 -0.453864 0
M  V30 20482 N 1915.24 -6.88628 -1.36881 0
M  V30 20483 H 1920.08 -2.90167 0.678744 0
M  V30 20484 H 1917.62 -1.42961 0.346492 0
M  V30 20485 H 1919.57 -3.84717 -1.61395 0
M  V30 20486 H 1918.2 -2.71379 -1.74795 0
M  V30 20487 H 1917.26 -3.78026 0.424338 0
M  V30 20488 H 1918.57 -4.97655 0.337844 0
M  V30 20489 H 1917.72 -5.76807 -1.88091 0
M  V30 20490 H 1916.46 -4.50292 -1.87318 0
M  V30 20491 H 1915.47 -5.49408 0.207683 0
M  V30 20492 H 1916.69 -6.78856 0.181863 0
M  V30 20493 H 1914.64 -6.24887 -1.99629 0
M  V30 20494 H 1914.55 -7.51578 -0.816523 0
M  V30 20495 H 1915.82 -7.53258 -2.00558 0
M  V30 20496 N 1920.05 -0.377435 -1.53014 0
M  V30 20497 C 1921.3 0.208118 -2.01026 0
M  V30 20498 C 1921.62 1.48307 -1.26609 0
M  V30 20499 O 1920.89 1.92125 -0.382732 0
M  V30 20500 H 1919.47 0.0798957 -0.742715 0
M  V30 20501 H 1922.13 -0.506396 -1.88206 0
M  V30 20502 H 1921.23 0.426737 -3.09169 0
M  V30 20503 N 1921.53 1.57237 -0.106922 0
M  V30 20504 C 1922.48 2.11215 0.858607 0
M  V30 20505 C 1923.46 1.03 1.23612 0
M  V30 20506 O 1924.66 1.29255 1.20922 0
M  V30 20507 C 1921.79 2.7055 2.11324 0
M  V30 20508 C 1920.87 3.85827 1.76064 0
M  V30 20509 N 1921.26 4.93376 1.11419 0
M  V30 20510 C 1919.56 3.95784 2.05599 0
M  V30 20511 C 1920.26 5.73885 0.950315 0
M  V30 20512 N 1919.24 5.23306 1.47144 0
M  V30 20513 H 1923.04 2.91747 0.355056 0
M  V30 20514 H 1920.55 1.62116 0.0959292 0
M  V30 20515 H 1922.55 3.07557 2.8145 0
M  V30 20516 H 1921.21 1.91477 2.62234 0
M  V30 20517 H 1922.22 5.11999 0.779594 0
M  V30 20518 H 1918.9 3.27736 2.58641 0
M  V30 20519 H 1920.29 6.70433 0.44383 0
M  V30 20520 N 1923.01 -0.166818 1.56715 0
M  V30 20521 C 1924.23 -0.902208 1.86748 0
M  V30 20522 C 1924.66 -1.74838 0.693767 0
M  V30 20523 O 1924.02 -1.77749 -0.35708 0
M  V30 20524 C 1924.06 -1.75107 3.1523 0
M  V30 20525 O 1923.17 -2.85319 2.9777 0
M  V30 20526 H 1922.51 -0.252474 0.614128 0
M  V30 20527 H 1925.04 -0.163603 2.03945 0
M  V30 20528 H 1925.05 -2.15009 3.46749 0
M  V30 20529 H 1923.72 -1.12955 4.00267 0
M  V30 20530 H 1922.3 -2.48967 2.77615 0
M  V30 20531 N 1924.49 -1.51463 -0.435524 0
M  V30 20532 C 1925.45 -1.72315 -1.51129 0
M  V30 20533 C 1926.45 -0.593161 -1.4946 0
M  V30 20534 O 1927.64 -0.860731 -1.5145 0
M  V30 20535 C 1924.77 -1.78127 -2.9066 0
M  V30 20536 H 1925.96 -2.68327 -1.33943 0
M  V30 20537 H 1923.52 -1.4148 -0.664317 0
M  V30 20538 H 1924.25 -0.839367 -3.13249 0
M  V30 20539 H 1924.04 -2.60252 -2.93277 0
M  V30 20540 H 1925.53 -1.96093 -3.68697 0
M  V30 20541 N 1925.96 0.691085 -1.4164 0
M  V30 20542 C 1926.87 1.83467 -1.46209 0
M  V30 20543 C 1927.89 1.70397 -0.352267 0
M  V30 20544 O 1929.07 1.92234 -0.60068 0
M  V30 20545 C 1926.13 3.19485 -1.34648 0
M  V30 20546 C 1925.19 3.44631 -2.55984 0
M  V30 20547 C 1924.43 4.7416 -2.44964 0
M  V30 20548 O 1924.65 5.50955 -1.47664 0
M  V30 20549 O 1923.58 5.0019 -3.34804 0
M  V30 20550 H 1927.41 1.82568 -2.42698 0
M  V30 20551 H 1924.99 0.844729 -1.23226 0
M  V30 20552 H 1926.88 4.00684 -1.30501 0
M  V30 20553 H 1925.55 3.21058 -0.41276 0
M  V30 20554 H 1924.46 2.63345 -2.65707 0
M  V30 20555 H 1925.79 3.47877 -3.48199 0
M  V30 20556 N 1927.44 1.27542 0.925789 0
M  V30 20557 C 1928.41 1.10471 2.0082 0
M  V30 20558 C 1929.41 0.0481002 1.60728 0
M  V30 20559 O 1930.6 0.292857 1.71721 0
M  V30 20560 C 1927.73 0.683669 3.33974 0
M  V30 20561 H 1928.92 2.0659 2.17395 0
M  V30 20562 H 1926.47 1.10357 1.10684 0
M  V30 20563 H 1927.21 -0.278821 3.23099 0
M  V30 20564 H 1926.99 1.44679 3.64431 0
M  V30 20565 H 1928.48 0.586526 4.13461 0
M  V30 20566 N 1928.92 -1.13255 1.09595 0
M  V30 20567 C 1930.34 -1.36563 0.825994 0
M  V30 20568 C 1930.54 -1.93595 -0.558844 0
M  V30 20569 O 1929.59 -2.15654 -1.31338 0
M  V30 20570 C 1930.91 -2.31535 1.91864 0
M  V30 20571 C 1932.45 -2.45147 1.94607 0
M  V30 20572 C 1932.93 -3.43427 3.03021 0
M  V30 20573 N 1934.42 -3.50979 3.02271 0
M  V30 20574 C 1935.15 -4.2691 3.82799 0
M  V30 20575 N 1934.65 -5.05981 4.73239 0
M  V30 20576 N 1936.44 -4.22229 3.71051 0
M  V30 20577 H 1928.59 -0.745889 1.98872 0
M  V30 20578 H 1930.86 -0.390727 0.863734 0
M  V30 20579 H 1930.56 -1.96788 2.91492 0
M  V30 20580 H 1930.44 -3.3157 1.79837 0
M  V30 20581 H 1932.82 -2.7918 0.956178 0
M  V30 20582 H 1932.91 -1.45031 2.10712 0
M  V30 20583 H 1932.55 -3.10126 4.02225 0
M  V30 20584 H 1932.48 -4.43352 2.84159 0
M  V30 20585 H 1934.97 -2.94562 2.36731 0
M  V30 20586 H 1935.28 -5.61231 5.31262 0
M  V30 20587 H 1933.63 -5.05208 4.77274 0
M  V30 20588 H 1936.82 -3.59534 2.99755 0
M  V30 20589 H 1936.99 -4.81152 4.34047 0
M  V30 20590 N 1930.4 -0.883401 -1.30514 0
M  V30 20591 C 1931.65 -0.500062 -1.95816 0
M  V30 20592 C 1931.97 0.953596 -1.70093 0
M  V30 20593 O 1931.24 1.67027 -1.02365 0
M  V30 20594 H 1929.82 -0.181936 -0.724506 0
M  V30 20595 H 1932.48 -1.12613 -1.59073 0
M  V30 20596 H 1931.58 -0.668998 -3.04846 0
M  V30 20597 N 1931.88 1.43833 -0.644194 0
M  V30 20598 C 1932.82 2.32509 0.0649184 0
M  V30 20599 C 1933.82 1.48097 0.822405 0
M  V30 20600 O 1935.02 1.64362 0.733827 0
M  V30 20601 H 1931.4 0.750948 0.0397724 0
M  V30 20602 H 1933.37 2.90053 -0.700857 0
M  V30 20603 C 1932.12 3.32282 1.02391 0
M  V30 20604 H 1931.44 3.97254 0.45047 0
M  V30 20605 H 1932.88 3.96982 1.48933 0
M  V30 20606 C 1931.34 2.62194 2.11556 0
M  V30 20607 O 1931.87 2.43066 3.19815 0
M  V30 20608 N 1930.08 2.21717 1.87856 0
M  V30 20609 H 1929.62 2.37474 0.998189 0
M  V30 20610 H 1929.58 1.7515 2.61093 0
M  V30 20611 N 1933.35 0.385544 1.52811 0
M  V30 20612 C 1934.77 0.0353371 1.59561 0
M  V30 20613 C 1934.97 -1.44948 1.39973 0
M  V30 20614 O 1934.03 -2.21354 1.21484 0
M  V30 20615 C 1935.34 0.509155 2.96358 0
M  V30 20616 C 1936.89 0.465088 3.09525 0
M  V30 20617 C 1937.36 0.915035 4.48766 0
M  V30 20618 N 1938.85 0.870895 4.54939 0
M  V30 20619 C 1939.59 1.1905 5.60905 0
M  V30 20620 N 1939.08 1.58039 6.74534 0
M  V30 20621 N 1940.88 1.112 5.50991 0
M  V30 20622 H 1933.03 1.35224 1.63793 0
M  V30 20623 H 1935.29 0.554013 0.769268 0
M  V30 20624 H 1935 1.54604 3.15896 0
M  V30 20625 H 1934.87 -0.0937516 3.77083 0
M  V30 20626 H 1937.26 -0.562704 2.89685 0
M  V30 20627 H 1937.34 1.10375 2.30762 0
M  V30 20628 H 1936.98 1.94104 4.69346 0
M  V30 20629 H 1936.91 0.253422 5.2599 0
M  V30 20630 H 1939.4 0.583936 3.73361 0
M  V30 20631 H 1939.72 1.808 7.51353 0
M  V30 20632 H 1938.06 1.61922 6.75874 0
M  V30 20633 H 1941.25 0.806438 4.61101 0
M  V30 20634 H 1941.43 1.3644 6.33473 0
M  V30 20635 N 1934.83 -1.57178 0.115259 0
M  V30 20636 C 1935.77 -2.1082 -0.873498 0
M  V30 20637 C 1936.74 -1.02368 -1.26331 0
M  V30 20638 O 1937.93 -1.29998 -1.36502 0
M  V30 20639 C 1935.05 -2.60183 -2.16847 0
M  V30 20640 C 1934.1 -3.80485 -1.927 0
M  V30 20641 S 1934.93 -5.23079 -1.14666 0
M  V30 20642 C 1936.09 -5.75807 -2.45351 0
M  V30 20643 H 1936.32 -2.94358 -0.417219 0
M  V30 20644 H 1933.86 -1.54086 -0.0984417 0
M  V30 20645 H 1935.81 -2.89278 -2.91253 0
M  V30 20646 H 1934.47 -1.76834 -2.59593 0
M  V30 20647 H 1933.67 -4.1316 -2.88643 0
M  V30 20648 H 1933.27 -3.51987 -1.26415 0
M  V30 20649 H 1935.56 -5.85304 -3.41212 0
M  V30 20650 H 1936.5 -6.73957 -2.17226 0
M  V30 20651 H 1936.91 -5.03851 -2.54547 0
M  V30 20652 N 1936.31 0.158505 -1.56801 0
M  V30 20653 C 1937.27 1.17986 -1.96499 0
M  V30 20654 C 1938.27 1.3649 -0.850127 0
M  V30 20655 O 1939.46 1.33678 -1.11696 0
M  V30 20656 C 1936.6 2.54245 -2.27095 0
M  V30 20657 H 1937.79 0.839577 -2.87908 0
M  V30 20658 H 1935.34 0.401431 -1.51057 0
M  V30 20659 H 1936.08 2.93266 -1.38441 0
M  V30 20660 H 1935.86 2.42179 -3.0837 0
M  V30 20661 H 1937.35 3.27829 -2.58686 0
M  V30 20662 N 1937.79 1.51692 0.427485 0
M  V30 20663 C 1939.07 1.55395 1.18793 0
M  V30 20664 C 1939.45 0.324036 2.08598 0
M  V30 20665 O 1938.79 -0.690292 2.17824 0
M  V30 20666 C 1939 2.87313 1.98121 0
M  V30 20667 C 1940.35 3.39632 2.54824 0
M  V30 20668 O 1941.38 2.8893 2.08322 0
M  V30 20669 O 1940.24 4.28125 3.39664 0
M  V30 20670 H 1937.33 0.625173 0.541376 0
M  V30 20671 H 1939.88 1.6401 0.435754 0
M  V30 20672 H 1938.65 3.68284 1.32222 0
M  V30 20673 H 1938.27 2.81907 2.80383 0
M  V30 20674 N 1939.27 -0.683564 1.42004 0
M  V30 20675 C 1940.2 -1.80902 1.40737 0
M  V30 20676 C 1941.21 -1.59865 0.307725 0
M  V30 20677 O 1942.4 -1.69146 0.570244 0
M  V30 20678 C 1939.5 -3.17867 1.17533 0
M  V30 20679 C 1938.67 -3.65829 2.39766 0
M  V30 20680 C 1937.73 -4.81499 2.12238 0
M  V30 20681 O 1936.76 -4.92495 2.85371 0
M  V30 20682 N 1937.96 -5.69592 1.12006 0
M  V30 20683 H 1940.73 -1.82478 2.37744 0
M  V30 20684 H 1938.29 -0.866335 1.36771 0
M  V30 20685 H 1940.28 -3.92891 0.970489 0
M  V30 20686 H 1938.85 -3.11244 0.290811 0
M  V30 20687 H 1938.07 -2.81579 2.75874 0
M  V30 20688 H 1939.36 -3.94615 3.2118 0
M  V30 20689 H 1938.76 -5.63351 0.515003 0
M  V30 20690 H 1937.31 -6.44465 0.975098 0
M  V30 20691 N 1940.75 -1.28031 -0.919012 0
M  V30 20692 C 1941.71 -1.11534 -2.00232 0
M  V30 20693 C 1942.71 -0.0566233 -1.607 0
M  V30 20694 O 1943.9 -0.30196 -1.71563 0
M  V30 20695 C 1941.03 -0.701371 -3.33607 0
M  V30 20696 H 1942.22 -2.0774 -2.16297 0
M  V30 20697 H 1939.78 -1.10942 -1.10098 0
M  V30 20698 H 1940.51 0.261682 -3.23243 0
M  V30 20699 H 1940.3 -1.4661 -3.63659 0
M  V30 20700 H 1941.79 -0.608444 -4.13144 0
M  V30 20701 N 1942.22 1.12672 -1.10194 0
M  V30 20702 C 1943.19 2.16513 -0.751974 0
M  V30 20703 C 1944.19 1.59255 0.222352 0
M  V30 20704 O 1945.38 1.742 -0.000482744 0
M  V30 20705 C 1942.51 3.40711 -0.113421 0
M  V30 20706 H 1943.7 2.48986 -1.67171 0
M  V30 20707 H 1941.25 1.27637 -0.90214 0
M  V30 20708 H 1941.99 3.13836 0.817162 0
M  V30 20709 H 1941.77 3.83545 -0.814599 0
M  V30 20710 H 1943.26 4.1744 0.115756 0
M  V30 20711 N 1943.7 0.89031 1.30043 0
M  V30 20712 C 1945.12 0.585066 1.4849 0
M  V30 20713 C 1945.32 -0.87585 1.81469 0
M  V30 20714 O 1944.37 -1.6567 1.90551 0
M  V30 20715 C 1945.69 1.50281 2.60454 0
M  V30 20716 C 1947.23 1.50701 2.74332 0
M  V30 20717 C 1947.71 2.41081 3.89415 0
M  V30 20718 N 1949.2 2.39074 3.96734 0
M  V30 20719 C 1949.94 3.05715 4.85104 0
M  V30 20720 N 1949.43 3.81601 5.78232 0
M  V30 20721 N 1951.22 2.9492 4.78517 0
M  V30 20722 H 1943.38 1.83532 1.0691 0
M  V30 20723 H 1945.64 0.785901 0.530155 0
M  V30 20724 H 1945.34 2.54327 2.42921 0
M  V30 20725 H 1945.22 1.21634 3.5705 0
M  V30 20726 H 1947.61 0.474032 2.91268 0
M  V30 20727 H 1947.69 1.83381 1.7834 0
M  V30 20728 H 1947.33 3.44466 3.73236 0
M  V30 20729 H 1947.26 2.05714 4.84757 0
M  V30 20730 H 1949.75 1.83932 3.30117 0
M  V30 20731 H 1950.06 4.29528 6.42437 0
M  V30 20732 H 1948.41 3.85708 5.78147 0
M  V30 20733 H 1951.6 2.35158 4.04745 0
M  V30 20734 H 1951.77 3.47132 5.47178 0
M  V30 20735 N 1945.18 -1.43489 0.651812 0
M  V30 20736 C 1946.13 -2.30764 -0.0406423 0
M  V30 20737 C 1947.1 -1.44669 -0.816091 0
M  V30 20738 O 1948.28 -1.73541 -0.792978 0
M  V30 20739 C 1945.42 -3.30232 -1.00206 0
M  V30 20740 C 1944.53 -4.31425 -0.222857 0
M  V30 20741 C 1943.67 -5.17975 -1.17794 0
M  V30 20742 C 1942.71 -6.10862 -0.389096 0
M  V30 20743 N 1941.85 -6.90041 -1.2957 0
M  V30 20744 H 1946.69 -2.89431 0.709482 0
M  V30 20745 H 1944.22 -1.42585 0.361636 0
M  V30 20746 H 1946.18 -3.86408 -1.57306 0
M  V30 20747 H 1944.81 -2.73217 -1.71907 0
M  V30 20748 H 1943.86 -3.77554 0.464409 0
M  V30 20749 H 1945.17 -4.97268 0.390608 0
M  V30 20750 H 1944.33 -5.7877 -1.81962 0
M  V30 20751 H 1943.07 -4.52254 -1.82532 0
M  V30 20752 H 1942.07 -5.49156 0.265943 0
M  V30 20753 H 1943.3 -6.78625 0.253855 0
M  V30 20754 H 1941.24 -6.2697 -1.9299 0
M  V30 20755 H 1941.16 -7.52401 -0.736762 0
M  V30 20756 H 1942.43 -7.55342 -1.92557 0
M  V30 20757 N 1946.66 -0.393643 -1.52605 0
M  V30 20758 C 1947.62 0.427358 -2.25181 0
M  V30 20759 C 1948.62 0.986595 -1.26976 0
M  V30 20760 O 1949.81 0.867913 -1.51039 0
M  V30 20761 C 1946.94 1.60001 -3.01019 0
M  V30 20762 H 1948.14 -0.208101 -2.99177 0
M  V30 20763 H 1945.69 -0.145844 -1.55618 0
M  V30 20764 H 1946.42 2.27278 -2.31334 0
M  V30 20765 H 1946.21 1.20567 -3.73103 0
M  V30 20766 H 1947.7 2.18115 -3.56112 0
M  V30 20767 N 1948.14 1.57115 -0.123593 0
M  V30 20768 C 1949.1 2.14386 0.810624 0
M  V30 20769 C 1950.1 1.07985 1.19146 0
M  V30 20770 O 1951.29 1.33739 1.11622 0
M  V30 20771 C 1948.42 2.68785 2.09683 0
M  V30 20772 H 1949.61 2.98264 0.312818 0
M  V30 20773 H 1947.17 1.55794 0.125682 0
M  V30 20774 H 1947.9 1.88509 2.63884 0
M  V30 20775 H 1947.69 3.46607 1.8332 0
M  V30 20776 H 1949.18 3.12989 2.76455 0
M  V30 20777 N 1949.61 -0.150187 1.56883 0
M  V30 20778 C 1950.86 -0.861749 1.82364 0
M  V30 20779 C 1951.18 -1.82479 0.704319 0
M  V30 20780 O 1952.38 -2.58027 0.844649 0
M  V30 20781 C 1950.84 -1.58305 3.23214 0
M  V30 20782 C 1950.45 -0.662577 4.43073 0
M  V30 20783 C 1952.19 -2.28159 3.57972 0
M  V30 20784 C 1950.1 -1.38532 5.74946 0
M  V30 20785 H 1949.03 -0.325546 0.6801 0
M  V30 20786 H 1951.68 -0.114505 1.83142 0
M  V30 20787 H 1950.06 -2.37581 3.16814 0
M  V30 20788 H 1951.23 0.0947281 4.60703 0
M  V30 20789 H 1949.55 -0.0726217 4.16337 0
M  V30 20790 H 1952.15 -2.82865 4.53753 0
M  V30 20791 H 1952.49 -3.04501 2.83874 0
M  V30 20792 H 1953.02 -1.55805 3.66019 0
M  V30 20793 H 1949.76 -0.663808 6.5213 0
M  V30 20794 H 1949.28 -2.11542 5.61258 0
M  V30 20795 H 1950.96 -1.9271 6.17634 0
M  V30 20796 N 1951.09 -1.51916 -0.419434 0
M  V30 20797 C 1952.32 -1.69302 -1.1893 0
M  V30 20798 C 1952.74 -0.398024 -1.84557 0
M  V30 20799 O 1952.09 0.625083 -1.71461 0
M  V30 20800 C 1952.14 -2.82139 -2.26009 0
M  V30 20801 O 1951.86 -4.06623 -1.63064 0
M  V30 20802 C 1953.37 -3.10947 -3.15954 0
M  V30 20803 H 1950.59 -0.567657 -0.357781 0
M  V30 20804 H 1953.13 -1.98424 -0.494807 0
M  V30 20805 H 1951.28 -2.55565 -2.91144 0
M  V30 20806 H 1951.7 -4.69423 -2.33971 0
M  V30 20807 H 1953.17 -3.93438 -3.87183 0
M  V30 20808 H 1953.65 -2.24078 -3.77738 0
M  V30 20809 H 1954.26 -3.39246 -2.56499 0
M  V30 20810 N 1952.57 0.676023 -1.42365 0
M  V30 20811 C 1953.48 1.81906 -1.48147 0
M  V30 20812 C 1954.5 1.70014 -0.37032 0
M  V30 20813 O 1955.67 1.91586 -0.621036 0
M  V30 20814 C 1952.74 3.18039 -1.38029 0
M  V30 20815 C 1951.8 3.41897 -2.59625 0
M  V30 20816 C 1951.03 4.71536 -2.4998 0
M  V30 20817 O 1951.25 5.49358 -1.535 0
M  V30 20818 O 1950.19 4.9661 -3.40091 0
M  V30 20819 H 1954.01 1.79984 -2.44621 0
M  V30 20820 H 1951.6 0.831611 -1.24115 0
M  V30 20821 H 1953.48 3.99277 -1.34743 0
M  V30 20822 H 1952.16 3.20602 -0.446789 0
M  V30 20823 H 1951.06 2.60512 -2.68485 0
M  V30 20824 H 1952.4 3.44164 -3.51869 0
M  V30 20825 N 1954.05 1.28517 0.912209 0
M  V30 20826 C 1955.28 1.18615 1.69523 0
M  V30 20827 C 1955.69 -0.254997 1.8707 0
M  V30 20828 O 1955.05 -1.17217 1.3988 0
M  V30 20829 C 1955.1 1.88188 3.08655 0
M  V30 20830 O 1954.82 3.26673 2.91918 0
M  V30 20831 C 1956.32 1.84607 4.03032 0
M  V30 20832 H 1953.54 0.411679 0.529869 0
M  V30 20833 H 1956.09 1.69668 1.14162 0
M  V30 20834 H 1954.24 1.41001 3.60829 0
M  V30 20835 H 1954.65 3.61538 3.79987 0
M  V30 20836 H 1956.13 2.37874 4.98116 0
M  V30 20837 H 1956.61 0.818787 4.315 0
M  V30 20838 H 1957.21 2.3148 3.56787 0
M  V30 20839 N 1955.53 -1.12086 1.1079 0
M  V30 20840 C 1956.94 -1.65205 0.869718 0
M  V30 20841 C 1957.29 -1.86823 -0.599309 0
M  V30 20842 O 1956.41 -1.59743 -1.45983 0
M  V30 20843 C 1957.01 -3.00109 1.57226 0
M  V30 20844 C 1955.57 -3.50163 1.38068 0
M  V30 20845 C 1954.71 -2.2511 1.61928 0
M  V30 20846 H 1957.67 -0.958175 1.2651 0
M  V30 20847 H 1957.69 -3.66757 1.01337 0
M  V30 20848 H 1957.2 -2.84344 2.64141 0
M  V30 20849 H 1955.3 -3.71106 0.33333 0
M  V30 20850 H 1955.41 -4.29388 2.12515 0
M  V30 20851 H 1953.78 -2.32399 1.04224 0
M  V30 20852 H 1954.56 -2.11895 2.70103 0
M  V30 20853 N 1957 -0.897194 -1.29569 0
M  V30 20854 C 1958.28 -0.441422 -1.90554 0
M  V30 20855 C 1958.66 1.07875 -1.81456 0
M  V30 20856 O 1958.01 1.9195 -1.23966 0
M  V30 20857 C 1958.22 -0.953195 -3.35731 0
M  V30 20858 C 1959.57 -0.995408 -4.12767 0
M  V30 20859 O 1960.59 -0.900693 -3.44624 0
M  V30 20860 O 1959.45 -1.13729 -5.34535 0
M  V30 20861 H 1956.54 -0.137172 -0.815545 0
M  V30 20862 H 1959.09 -0.986896 -1.38052 0
M  V30 20863 H 1957.86 -1.99715 -3.36496 0
M  V30 20864 H 1957.49 -0.387587 -3.95706 0
M  V30 20865 N 1958.48 1.43142 -0.659413 0
M  V30 20866 C 1959.71 2.06087 -0.183265 0
M  V30 20867 C 1960.13 1.49462 1.15354 0
M  V30 20868 O 1959.48 0.628341 1.71342 0
M  V30 20869 C 1959.53 3.61381 -0.0928701 0
M  V30 20870 O 1959.25 4.15902 -1.37684 0
M  V30 20871 C 1960.76 4.41413 0.408616 0
M  V30 20872 H 1957.98 0.664557 -0.092765 0
M  V30 20873 H 1960.52 1.83542 -0.901809 0
M  V30 20874 H 1958.67 3.8309 0.576268 0
M  V30 20875 H 1959.09 5.09629 -1.24009 0
M  V30 20876 H 1960.56 5.50394 0.420806 0
M  V30 20877 H 1961.04 4.14885 1.44108 0
M  V30 20878 H 1961.65 4.24687 -0.228247 0
M  V30 20879 N 1959.96 0.40173 1.52394 0
M  V30 20880 C 1961.19 -0.178662 2.06629 0
M  V30 20881 C 1961.61 -1.3871 1.27048 0
M  V30 20882 O 1960.97 -1.78821 0.298765 0
M  V30 20883 C 1961.02 -0.514797 3.56906 0
M  V30 20884 O 1960.12 -1.60691 3.79805 0
M  V30 20885 H 1959.46 -0.0174284 0.663771 0
M  V30 20886 H 1961.99 0.572792 1.96419 0
M  V30 20887 H 1962 -0.775554 4.00561 0
M  V30 20888 H 1960.68 0.368624 4.14263 0
M  V30 20889 H 1959.25 -1.3389 3.48034 0
M  V30 20890 N 1961.44 -1.57047 0.131923 0
M  V30 20891 C 1962.67 -1.99989 -0.530289 0
M  V30 20892 C 1963.08 -1.01182 -1.59397 0
M  V30 20893 O 1962.44 -0.00657368 -1.82499 0
M  V30 20894 C 1962.49 -3.42898 -1.14469 0
M  V30 20895 O 1962.21 -4.37926 -0.123503 0
M  V30 20896 C 1963.71 -4.0104 -1.88897 0
M  V30 20897 H 1960.93 -0.656371 -0.139348 0
M  V30 20898 H 1963.48 -2.03291 0.222069 0
M  V30 20899 H 1961.63 -3.40495 -1.84775 0
M  V30 20900 H 1962.04 -5.21376 -0.571587 0
M  V30 20901 H 1963.52 -5.03077 -2.27196 0
M  V30 20902 H 1964 -3.40903 -2.76915 0
M  V30 20903 H 1964.6 -4.07027 -1.23324 0
M  V30 20904 N 1962.92 0.141865 -1.5696 0
M  V30 20905 C 1963.85 1.17667 -2.01685 0
M  V30 20906 C 1964.83 1.44509 -0.897282 0
M  V30 20907 O 1966.01 1.55342 -1.16544 0
M  V30 20908 C 1963.14 2.50859 -2.40182 0
M  V30 20909 C 1962.1 2.38527 -3.55371 0
M  V30 20910 C 1961.42 3.76476 -3.79697 0
M  V30 20911 C 1962.72 1.86502 -4.87867 0
M  V30 20912 H 1964.42 0.804761 -2.88382 0
M  V30 20913 H 1961.96 0.385672 -1.38739 0
M  V30 20914 H 1963.92 3.2348 -2.70071 0
M  V30 20915 H 1962.64 2.89895 -1.50428 0
M  V30 20916 H 1961.3 1.68357 -3.25656 0
M  V30 20917 H 1960.95 4.12957 -2.87186 0
M  V30 20918 H 1960.65 3.69085 -4.5722 0
M  V30 20919 H 1962.17 4.50638 -4.12017 0
M  V30 20920 H 1963.58 2.48921 -5.16441 0
M  V30 20921 H 1961.98 1.89989 -5.69231 0
M  V30 20922 H 1963.05 0.821025 -4.77899 0
M  V30 20923 N 1964.39 1.52136 0.411372 0
M  V30 20924 C 1965.32 1.78277 1.50796 0
M  V30 20925 C 1966.31 0.633643 1.57857 0
M  V30 20926 O 1967.49 0.879011 1.73168 0
M  V30 20927 C 1964.62 1.93142 2.88641 0
M  V30 20928 C 1963.57 3.08727 2.96431 0
M  V30 20929 C 1962.9 3.08812 4.36508 0
M  V30 20930 C 1964.2 4.48228 2.68122 0
M  V30 20931 H 1965.89 2.70102 1.29171 0
M  V30 20932 H 1963.44 1.29971 0.619965 0
M  V30 20933 H 1965.39 2.10012 3.65339 0
M  V30 20934 H 1964.12 0.979869 3.11554 0
M  V30 20935 H 1962.78 2.91604 2.22177 0
M  V30 20936 H 1962.42 2.11383 4.56428 0
M  V30 20937 H 1962.12 3.86444 4.42645 0
M  V30 20938 H 1963.65 3.27809 5.15144 0
M  V30 20939 H 1965.06 4.65568 3.34544 0
M  V30 20940 H 1963.46 5.27761 2.85638 0
M  V30 20941 H 1964.53 4.56478 1.63572 0
M  V30 20942 N 1965.87 -0.668464 1.42721 0
M  V30 20943 C 1967.12 -1.42428 1.42819 0
M  V30 20944 C 1967.44 -1.95535 0.0504025 0
M  V30 20945 O 1968.64 -2.71407 -0.0712036 0
M  V30 20946 C 1967.1 -2.57681 2.51254 0
M  V30 20947 C 1966.71 -2.11246 3.95069 0
M  V30 20948 C 1968.45 -3.35151 2.60527 0
M  V30 20949 C 1966.36 -3.23619 4.95 0
M  V30 20950 H 1965.29 -0.535089 0.531221 0
M  V30 20951 H 1967.94 -0.723067 1.68653 0
M  V30 20952 H 1966.32 -3.302 2.18595 0
M  V30 20953 H 1967.49 -1.45838 4.37113 0
M  V30 20954 H 1965.81 -1.46697 3.89704 0
M  V30 20955 H 1968.41 -4.18853 3.32364 0
M  V30 20956 H 1968.75 -3.82166 1.6509 0
M  V30 20957 H 1969.28 -2.69705 2.92411 0
M  V30 20958 H 1966.02 -2.81588 5.91936 0
M  V30 20959 H 1965.54 -3.87788 4.57581 0
M  V30 20960 H 1967.22 -3.88988 5.17008 0
M  V30 20961 N 1967.35 -1.28999 -0.905381 0
M  V30 20962 C 1968.26 -1.15513 -2.04191 0
M  V30 20963 C 1969.28 -0.0797116 -1.73817 0
M  V30 20964 O 1970.45 -0.290664 -1.99292 0
M  V30 20965 C 1967.52 -0.826901 -3.36695 0
M  V30 20966 C 1966.58 -1.98557 -3.80623 0
M  V30 20967 C 1965.81 -1.6729 -5.06803 0
M  V30 20968 O 1966.04 -0.591168 -5.67328 0
M  V30 20969 O 1964.97 -2.51914 -5.46647 0
M  V30 20970 H 1968.8 -2.10942 -2.18488 0
M  V30 20971 H 1966.38 -1.08397 -1.02813 0
M  V30 20972 H 1968.26 -0.658165 -4.16228 0
M  V30 20973 H 1966.94 0.0976541 -3.23553 0
M  V30 20974 H 1965.84 -2.20951 -3.0188 0
M  V30 20975 H 1967.18 -2.89112 -3.9834 0
M  V30 20976 N 1968.83 1.11497 -1.11383 0
M  V30 20977 C 1969.78 2.19602 -0.766658 0
M  V30 20978 C 1970.77 1.67668 0.241612 0
M  V30 20979 O 1971.98 1.79717 0.100956 0
M  V30 20980 H 1968.35 0.715952 -0.230037 0
M  V30 20981 H 1970.32 2.46131 -1.68707 0
M  V30 20982 C 1969.07 3.46968 -0.225442 0
M  V30 20983 H 1968.4 3.87284 -0.992544 0
M  V30 20984 H 1969.84 4.23995 -0.0207066 0
M  V30 20985 C 1968.29 3.20311 1.04414 0
M  V30 20986 O 1968.82 3.40956 2.12395 0
M  V30 20987 N 1967.03 2.7405 0.966692 0
M  V30 20988 H 1966.58 2.5745 0.0878667 0
M  V30 20989 H 1966.54 2.56591 1.81682 0
M  V30 20990 N 1970.31 0.904053 1.29092 0
M  V30 20991 C 1971.53 0.547082 2.00054 0
M  V30 20992 C 1971.96 -0.862026 1.67185 0
M  V30 20993 O 1971.32 -1.57449 0.898855 0
M  V30 20994 C 1971.36 0.751495 3.52682 0
M  V30 20995 O 1970.47 -0.194004 4.11943 0
M  V30 20996 H 1969.81 0.213241 0.628828 0
M  V30 20997 H 1972.34 1.21683 1.64482 0
M  V30 20998 H 1972.35 0.657831 4.02662 0
M  V30 20999 H 1971.02 1.77878 3.75942 0
M  V30 21000 H 1969.6 -0.0524281 3.72863 0
M  V30 21001 N 1971.79 -1.4279 0.666995 0
M  V30 21002 C 1973.01 -2.06504 0.192596 0
M  V30 21003 C 1973.44 -1.49743 -1.13836 0
M  V30 21004 O 1972.79 -0.612797 -1.7063 0
M  V30 21005 C 1972.84 -3.60366 0.129775 0
M  V30 21006 O 1971.95 -4.0237 -0.904018 0
M  V30 21007 H 1971.29 -0.656244 0.101194 0
M  V30 21008 H 1973.82 -1.83059 0.913807 0
M  V30 21009 H 1973.83 -4.07971 -0.0489739 0
M  V30 21010 H 1972.5 -4.01054 1.1013 0
M  V30 21011 H 1971.08 -3.66329 -0.696943 0
M  V30 21012 N 1973.26 -0.409806 -1.52179 0
M  V30 21013 C 1974.67 0.0596356 -1.86605 0
M  V30 21014 C 1975.03 1.44377 -1.32852 0
M  V30 21015 O 1974.15 2.05829 -0.668074 0
M  V30 21016 C 1974.75 0.114992 -3.38605 0
M  V30 21017 C 1973.3 0.528771 -3.72667 0
M  V30 21018 C 1972.45 -0.29629 -2.75713 0
M  V30 21019 H 1975.4 -0.626843 -1.45796 0
M  V30 21020 H 1975.42 0.930114 -3.68957 0
M  V30 21021 H 1974.94 -0.892535 -3.77698 0
M  V30 21022 H 1973.04 1.54291 -3.39153 0
M  V30 21023 H 1973.15 0.272687 -4.78323 0
M  V30 21024 H 1971.51 0.241468 -2.53553 0
M  V30 21025 H 1972.3 -1.30218 -3.17645 0
M  V30 21026 N 1974.74 1.56975 -0.14025 0
M  V30 21027 C 1975.97 1.99977 0.518922 0
M  V30 21028 C 1976.38 1.01924 1.59399 0
M  V30 21029 O 1975.72 0.007174 1.83699 0
M  V30 21030 C 1975.78 3.3941 1.18495 0
M  V30 21031 C 1975.45 4.56286 0.255289 0
M  V30 21032 C 1976.45 5.17349 -0.514424 0
M  V30 21033 C 1974.13 5.02045 0.160162 0
M  V30 21034 C 1976.12 6.22574 -1.36678 0
M  V30 21035 C 1973.81 6.07126 -0.695808 0
M  V30 21036 C 1974.81 6.67259 -1.45789 0
M  V30 21037 O 1974.5 7.70307 -2.29961 0
M  V30 21038 H 1974.23 0.661305 0.140186 0
M  V30 21039 H 1976.78 2.04111 -0.22979 0
M  V30 21040 H 1975.01 3.32095 1.98116 0
M  V30 21041 H 1976.7 3.66563 1.74316 0
M  V30 21042 H 1977.47 4.82899 -0.450926 0
M  V30 21043 H 1973.35 4.54972 0.743062 0
M  V30 21044 H 1976.89 6.69439 -1.96208 0
M  V30 21045 H 1972.79 6.41003 -0.760622 0
M  V30 21046 H 1973.56 7.87498 -2.23135 0
M  V30 21047 N 1976.22 -0.133539 1.57033 0
M  V30 21048 C 1977.45 -0.858432 1.88251 0
M  V30 21049 C 1977.86 -1.74119 0.729935 0
M  V30 21050 O 1977.22 -1.8002 -0.29983 0
M  V30 21051 C 1977.27 -1.70397 3.18821 0
M  V30 21052 O 1976.99 -0.856775 4.29641 0
M  V30 21053 C 1978.49 -2.53529 3.63646 0
M  V30 21054 H 1975.71 -0.247538 0.623671 0
M  V30 21055 H 1978.26 -0.122289 2.04134 0
M  V30 21056 H 1976.41 -2.39303 3.04652 0
M  V30 21057 H 1976.83 -1.43857 5.04386 0
M  V30 21058 H 1978.3 -3.0841 4.57807 0
M  V30 21059 H 1978.78 -3.30204 2.89589 0
M  V30 21060 H 1979.38 -1.89891 3.80554 0
M  V30 21061 N 1977.7 -1.52352 -0.403298 0
M  V30 21062 C 1978.92 -1.70849 -1.17582 0
M  V30 21063 C 1979.35 -0.419696 -1.83358 0
M  V30 21064 O 1978.71 0.623346 -1.70247 0
M  V30 21065 C 1978.75 -2.8492 -2.21027 0
M  V30 21066 O 1977.86 -2.50896 -3.273 0
M  V30 21067 H 1977.2 -0.568568 -0.342967 0
M  V30 21068 H 1979.73 -1.99082 -0.471975 0
M  V30 21069 H 1979.74 -3.10002 -2.6526 0
M  V30 21070 H 1978.41 -3.78423 -1.72536 0
M  V30 21071 H 1976.99 -2.36506 -2.88304 0
M  V30 21072 N 1979.18 0.660885 -1.43074 0
M  V30 21073 C 1980.09 1.80324 -1.50068 0
M  V30 21074 C 1981.1 1.69611 -0.388331 0
M  V30 21075 O 1982.28 1.90916 -0.641321 0
M  V30 21076 C 1979.34 3.16557 -1.41394 0
M  V30 21077 C 1978.4 3.39124 -2.63236 0
M  V30 21078 C 1977.64 4.68858 -2.54967 0
M  V30 21079 O 1977.86 5.47699 -1.59318 0
M  V30 21080 O 1976.79 4.92975 -3.45339 0
M  V30 21081 H 1980.62 1.77379 -2.46516 0
M  V30 21082 H 1978.2 0.8184 -1.2499 0
M  V30 21083 H 1980.09 3.97825 -1.38971 0
M  V30 21084 H 1978.76 3.2011 -0.480768 0
M  V30 21085 H 1977.67 2.5765 -2.71233 0
M  V30 21086 H 1979 3.40413 -3.555 0
M  V30 21087 N 1980.65 1.29477 0.898527 0
M  V30 21088 C 1981.6 1.1133 1.98971 0
M  V30 21089 C 1982.59 0.0323879 1.60867 0
M  V30 21090 O 1983.78 0.254229 1.75165 0
M  V30 21091 C 1980.91 0.793107 3.34013 0
M  V30 21092 C 1980 1.91362 3.78473 0
M  V30 21093 N 1980.39 3.1573 3.95156 0
M  V30 21094 C 1978.68 1.80692 4.07758 0
M  V30 21095 C 1979.39 3.88841 4.3264 0
M  V30 21096 N 1978.36 3.16793 4.4175 0
M  V30 21097 H 1982.16 2.05674 2.09941 0
M  V30 21098 H 1979.68 1.20619 1.08743 0
M  V30 21099 H 1981.67 0.644149 4.11894 0
M  V30 21100 H 1980.33 -0.142398 3.24388 0
M  V30 21101 H 1981.35 3.51171 3.80656 0
M  V30 21102 H 1978.02 0.944205 4.06683 0
M  V30 21103 H 1979.41 4.95875 4.53384 0
M  V30 21104 N 1982.13 -1.10905 1.11972 0
M  V30 21105 C 1983.38 -1.82762 0.872019 0
M  V30 21106 C 1983.71 -1.84941 -0.602247 0
M  V30 21107 O 1982.96 -1.30212 -1.46094 0
M  V30 21108 C 1983.26 -3.29439 1.38581 0
M  V30 21109 C 1982.93 -3.47414 2.87427 0
M  V30 21110 C 1981.59 -3.52027 3.2807 0
M  V30 21111 C 1983.94 -3.53209 3.83266 0
M  V30 21112 C 1981.27 -3.59998 4.63269 0
M  V30 21113 C 1983.62 -3.62712 5.18288 0
M  V30 21114 C 1982.29 -3.65588 5.58482 0
M  V30 21115 H 1981.56 -0.668775 0.319094 0
M  V30 21116 H 1984.2 -1.30759 1.39908 0
M  V30 21117 H 1982.51 -3.83976 0.779104 0
M  V30 21118 H 1984.2 -3.83539 1.17042 0
M  V30 21119 H 1980.79 -3.44497 2.5499 0
M  V30 21120 H 1984.98 -3.489 3.52963 0
M  V30 21121 H 1980.23 -3.60504 4.93808 0
M  V30 21122 H 1984.41 -3.6614 5.9238 0
M  V30 21123 H 1982.04 -3.71517 6.63234 0
M  V30 21124 N 1983.61 -0.910886 -1.2861 0
M  V30 21125 C 1984.56 -0.368294 -2.25006 0
M  V30 21126 C 1985.54 0.517969 -1.52335 0
M  V30 21127 O 1986.74 0.358159 -1.73338 0
M  V30 21128 C 1983.87 0.393096 -3.41042 0
M  V30 21129 C 1982.95 -0.508724 -4.21038 0
M  V30 21130 N 1983.34 -1.62102 -4.79121 0
M  V30 21131 C 1981.64 -0.308578 -4.44931 0
M  V30 21132 C 1982.34 -2.18055 -5.39284 0
M  V30 21133 N 1981.32 -1.47217 -5.23286 0
M  V30 21134 H 1985.12 -1.21781 -2.67482 0
M  V30 21135 H 1982.63 -0.763212 -1.43349 0
M  V30 21136 H 1984.63 0.798636 -4.09179 0
M  V30 21137 H 1983.29 1.23975 -3.00101 0
M  V30 21138 H 1984.3 -2.00364 -4.77572 0
M  V30 21139 H 1980.98 0.49879 -4.1451 0
M  V30 21140 H 1982.37 -3.11606 -5.95274 0
M  V30 21141 N 1985.09 1.42434 -0.674558 0
M  V30 21142 C 1986.32 2.05582 -0.204816 0
M  V30 21143 C 1986.73 1.50768 1.14305 0
M  V30 21144 O 1986.07 0.642132 1.72111 0
M  V30 21145 C 1986.13 3.59446 -0.0621889 0
M  V30 21146 C 1985.8 4.36952 -1.33873 0
M  V30 21147 C 1986.79 4.67621 -2.27215 0
M  V30 21148 C 1984.48 4.76595 -1.58626 0
M  V30 21149 C 1986.47 5.36868 -3.43586 0
M  V30 21150 C 1984.16 5.45583 -2.75287 0
M  V30 21151 C 1985.16 5.75644 -3.6759 0
M  V30 21152 O 1984.84 6.43217 -4.8221 0
M  V30 21153 H 1984.58 0.668974 -0.0972083 0
M  V30 21154 H 1987.13 1.83563 -0.92161 0
M  V30 21155 H 1985.36 3.80123 0.710183 0
M  V30 21156 H 1987.05 4.04232 0.367648 0
M  V30 21157 H 1987.82 4.37494 -2.09341 0
M  V30 21158 H 1983.69 4.5259 -0.876522 0
M  V30 21159 H 1987.24 5.6025 -4.15651 0
M  V30 21160 H 1983.14 5.75127 -2.93086 0
M  V30 21161 H 1983.9 6.61708 -4.81752 0
M  V30 21162 N 1986.57 0.417871 1.51959 0
M  V30 21163 C 1987.79 -0.154295 2.06324 0
M  V30 21164 C 1988.21 -1.38123 1.28714 0
M  V30 21165 O 1987.57 -1.79279 0.341355 0
M  V30 21166 C 1987.62 -0.496014 3.58081 0
M  V30 21167 O 1987.34 0.682208 4.32756 0
M  V30 21168 C 1988.84 -1.12097 4.28893 0
M  V30 21169 H 1986.06 -0.0165345 0.670796 0
M  V30 21170 H 1988.6 0.591345 1.95764 0
M  V30 21171 H 1986.76 -1.19155 3.6862 0
M  V30 21172 H 1987.17 0.394868 5.23012 0
M  V30 21173 H 1988.65 -1.31021 5.36225 0
M  V30 21174 H 1989.12 -2.09655 3.85929 0
M  V30 21175 H 1989.73 -0.465383 4.22746 0
M  V30 21176 N 1988.04 -1.56898 0.148573 0
M  V30 21177 C 1989.29 -1.96466 -0.50289 0
M  V30 21178 C 1989.62 -1.03355 -1.64412 0
M  V30 21179 O 1988.9 -0.0762411 -1.94351 0
M  V30 21180 C 1989.18 -3.45717 -1.00757 0
M  V30 21181 C 1989.03 -4.49605 0.132277 0
M  V30 21182 C 1990.35 -3.97506 -1.88883 0
M  V30 21183 H 1987.47 -0.714345 -0.181328 0
M  V30 21184 H 1990.11 -1.88601 0.230117 0
M  V30 21185 H 1988.26 -3.5255 -1.6322 0
M  V30 21186 H 1989.94 -4.54851 0.76867 0
M  V30 21187 H 1988.18 -4.26524 0.791189 0
M  V30 21188 H 1988.85 -5.51375 -0.262585 0
M  V30 21189 H 1991.33 -3.93162 -1.36246 0
M  V30 21190 H 1990.2 -5.02399 -2.21104 0
M  V30 21191 H 1990.46 -3.39956 -2.82635 0
M  V30 21192 N 1989.52 0.125209 -1.57102 0
M  V30 21193 C 1990.75 0.848436 -1.88704 0
M  V30 21194 C 1991.17 1.73729 -0.739158 0
M  V30 21195 O 1990.52 1.80177 0.290278 0
M  V30 21196 C 1990.57 1.68704 -3.1972 0
M  V30 21197 O 1990.29 0.833978 -4.30089 0
M  V30 21198 C 1991.8 2.51596 -3.64985 0
M  V30 21199 H 1989.02 0.244227 -0.624975 0
M  V30 21200 H 1991.56 0.111462 -2.04196 0
M  V30 21201 H 1989.71 2.37684 -3.05917 0
M  V30 21202 H 1990.13 1.4118 -5.05142 0
M  V30 21203 H 1991.6 3.05978 -4.59436 0
M  V30 21204 H 1992.08 3.28664 -2.91336 0
M  V30 21205 H 1992.69 1.8787 -3.81556 0
M  V30 21206 N 1991 1.52564 0.395213 0
M  V30 21207 C 1992.28 1.5788 1.1547 0
M  V30 21208 C 1992.66 0.36821 2.07864 0
M  V30 21209 O 1992.01 -0.643933 2.19239 0
M  V30 21210 C 1992.22 2.91451 1.91982 0
M  V30 21211 C 1993.56 3.44961 2.47562 0
M  V30 21212 O 1994.59 2.93284 2.02146 0
M  V30 21213 O 1993.45 4.35233 3.30506 0
M  V30 21214 H 1990.54 0.636516 0.527993 0
M  V30 21215 H 1993.09 1.64897 0.400867 0
M  V30 21216 H 1991.86 3.71006 1.2438 0
M  V30 21217 H 1991.48 2.8779 2.7434 0
M  V30 21218 N 1992.48 -0.653289 1.43422 0
M  V30 21219 C 1993.73 -1.40905 1.44322 0
M  V30 21220 C 1994.04 -1.95471 0.0711388 0
M  V30 21221 O 1995.25 -2.71467 -0.0424133 0
M  V30 21222 C 1993.7 -2.55001 2.53973 0
M  V30 21223 C 1993.31 -2.07043 3.97287 0
M  V30 21224 C 1995.05 -3.32369 2.64067 0
M  V30 21225 C 1992.96 -3.18351 4.98404 0
M  V30 21226 H 1991.89 -0.529424 0.536867 0
M  V30 21227 H 1994.54 -0.705139 1.69411 0
M  V30 21228 H 1992.92 -3.27863 2.22085 0
M  V30 21229 H 1994.1 -1.41193 4.38635 0
M  V30 21230 H 1992.41 -1.42555 3.91238 0
M  V30 21231 H 1995.01 -4.15305 3.36788 0
M  V30 21232 H 1995.35 -3.80394 1.69134 0
M  V30 21233 H 1995.89 -2.66588 2.95255 0
M  V30 21234 H 1992.63 -2.75294 5.94889 0
M  V30 21235 H 1992.15 -3.82913 4.61669 0
M  V30 21236 H 1993.82 -3.83483 5.21104 0
M  V30 21237 N 1993.96 -1.29952 -0.891648 0
M  V30 21238 C 1994.9 -1.15767 -1.99667 0
M  V30 21239 C 1995.87 -0.0488826 -1.66028 0
M  V30 21240 O 1997.06 -0.217864 -1.89552 0
M  V30 21241 C 1994.2 -0.848553 -3.34505 0
M  V30 21242 C 1993.31 -2.03857 -3.80876 0
M  V30 21243 C 1992.45 -1.66812 -5.04328 0
M  V30 21244 C 1991.49 -2.82348 -5.4309 0
M  V30 21245 N 1990.62 -2.45645 -6.57726 0
M  V30 21246 H 1995.46 -2.10304 -2.11131 0
M  V30 21247 H 1993 -1.04641 -1.03386 0
M  V30 21248 H 1994.96 -0.649983 -4.12106 0
M  V30 21249 H 1993.59 0.059928 -3.22744 0
M  V30 21250 H 1992.64 -2.34859 -2.99241 0
M  V30 21251 H 1993.95 -2.90402 -4.05547 0
M  V30 21252 H 1993.11 -1.43291 -5.89536 0
M  V30 21253 H 1991.84 -0.774269 -4.81515 0
M  V30 21254 H 1990.85 -3.06542 -4.56412 0
M  V30 21255 H 1992.07 -3.72409 -5.6788 0
M  V30 21256 H 1990.02 -1.58757 -6.365 0
M  V30 21257 H 1989.94 -3.25722 -6.82232 0
M  V30 21258 H 1991.21 -2.25463 -7.46181 0
M  V30 21259 N 1995.44 1.1031 -1.12559 0
M  V30 21260 C 1996.71 1.788 -0.793094 0
M  V30 21261 C 1997.09 1.98553 0.716932 0
M  V30 21262 O 1996.44 1.57962 1.65107 0
M  V30 21263 C 1996.65 3.1171 -1.56964 0
M  V30 21264 C 1998 3.86566 -1.75648 0
M  V30 21265 O 1999.02 3.21435 -1.53487 0
M  V30 21266 O 1997.88 5.03468 -2.1256 0
M  V30 21267 H 1994.98 0.775004 -0.288612 0
M  V30 21268 H 1997.52 1.16948 -1.22969 0
M  V30 21269 H 1996.29 2.92761 -2.59628 0
M  V30 21270 H 1995.92 3.81282 -1.12738 0
M  V30 21271 N 1996.91 0.917694 1.28125 0
M  V30 21272 C 1997.84 0.426179 2.29578 0
M  V30 21273 C 1998.82 -0.508289 1.62328 0
M  V30 21274 O 2000.01 -0.415181 1.8971 0
M  V30 21275 C 1997.14 -0.331007 3.45719 0
M  V30 21276 C 1996.09 0.51469 4.24894 0
M  V30 21277 C 1995.42 -0.371069 5.33411 0
M  V30 21278 C 1996.72 1.774 4.9125 0
M  V30 21279 H 1998.41 1.27403 2.7094 0
M  V30 21280 H 1995.96 0.614065 1.30251 0
M  V30 21281 H 1997.91 -0.68573 4.15783 0
M  V30 21282 H 1996.64 -1.2128 3.03247 0
M  V30 21283 H 1995.3 0.851986 3.56562 0
M  V30 21284 H 1994.94 -1.25152 4.87182 0
M  V30 21285 H 1994.64 0.19121 5.87289 0
M  V30 21286 H 1996.17 -0.721587 6.06321 0
M  V30 21287 H 1997.58 1.48795 5.53654 0
M  V30 21288 H 1995.98 2.27899 5.55141 0
M  V30 21289 H 1997.05 2.49947 4.15517 0
M  V30 21290 N 1998.39 -1.42074 0.682102 0
M  V30 21291 C 1999.62 -2.05769 0.216029 0
M  V30 21292 C 2000.03 -1.51278 -1.12962 0
M  V30 21293 O 1999.39 -0.655521 -1.70321 0
M  V30 21294 C 1999.44 -3.61187 0.150351 0
M  V30 21295 O 1999.16 -4.13659 1.44283 0
M  V30 21296 C 2000.66 -4.42007 -0.338339 0
M  V30 21297 H 1997.88 -0.662997 0.103326 0
M  V30 21298 H 2000.43 -1.82084 0.930895 0
M  V30 21299 H 1998.58 -3.83958 -0.515249 0
M  V30 21300 H 1999 -5.07592 1.32101 0
M  V30 21301 H 2000.47 -5.50994 -0.33319 0
M  V30 21302 H 2000.95 -4.17125 -1.37489 0
M  V30 21303 H 2001.55 -4.2427 0.295782 0
M  V30 21304 N 1999.87 -0.425924 -1.51735 0
M  V30 21305 C 2000.82 0.391248 -2.2746 0
M  V30 21306 C 2001.79 1.02669 -1.30569 0
M  V30 21307 O 2002.97 1.04777 -1.59457 0
M  V30 21308 C 2000.11 1.4928 -3.11142 0
M  V30 21309 C 1999.22 0.876622 -4.23012 0
M  V30 21310 C 1998.36 1.95227 -4.94024 0
M  V30 21311 C 1997.4 1.31392 -5.97832 0
M  V30 21312 N 1996.54 2.33043 -6.62296 0
M  V30 21313 H 2001.38 -0.26089 -2.96856 0
M  V30 21314 H 1998.91 -0.1405 -1.46427 0
M  V30 21315 H 2000.87 2.14262 -3.57977 0
M  V30 21316 H 1999.5 2.11473 -2.43884 0
M  V30 21317 H 1998.55 0.115399 -3.80225 0
M  V30 21318 H 1999.86 0.370471 -4.97422 0
M  V30 21319 H 1999.02 2.67897 -5.44349 0
M  V30 21320 H 1997.76 2.49212 -4.19219 0
M  V30 21321 H 1996.76 0.572626 -5.4681 0
M  V30 21322 H 1997.99 0.781544 -6.74588 0
M  V30 21323 H 1995.93 2.86129 -5.9031 0
M  V30 21324 H 1995.85 1.87287 -7.32434 0
M  V30 21325 H 1997.12 3.05231 -7.17255 0
M  V30 21326 N 2001.35 1.56817 -0.156891 0
M  V30 21327 C 2002.28 2.20266 0.774915 0
M  V30 21328 C 2003.26 1.15387 1.24979 0
M  V30 21329 O 2004.44 1.43766 1.30557 0
M  V30 21330 C 2001.57 2.83207 2.01025 0
M  V30 21331 C 2000.53 3.94 1.67177 0
M  V30 21332 C 1999.85 4.43921 2.98057 0
M  V30 21333 C 2001.15 5.14297 0.91083 0
M  V30 21334 H 2002.85 2.98387 0.246082 0
M  V30 21335 H 2000.39 1.43525 0.116921 0
M  V30 21336 H 2002.35 3.26264 2.66701 0
M  V30 21337 H 2001.07 2.02433 2.56298 0
M  V30 21338 H 1999.73 3.51576 1.03876 0
M  V30 21339 H 1999.38 3.59957 3.5134 0
M  V30 21340 H 1999.08 5.18657 2.76169 0
M  V30 21341 H 2000.6 4.89656 3.64787 0
M  V30 21342 H 2002.02 5.54137 1.46988 0
M  V30 21343 H 2000.41 5.94857 0.791526 0
M  V30 21344 H 2001.48 4.84806 -0.0955943 0
M  V30 21345 N 2002.83 -0.116876 1.57166 0
M  V30 21346 C 2004.07 -0.822659 1.84599 0
M  V30 21347 C 2004.39 -1.80315 0.742392 0
M  V30 21348 O 2003.66 -1.94505 -0.233411 0
M  V30 21349 H 2002.24 -0.306797 0.681091 0
M  V30 21350 H 2004.91 -0.103693 1.94624 0
M  V30 21351 H 2004 -1.36659 2.8059 0
M  V30 21352 N 2004.3 -1.52772 -0.387116 0
M  V30 21353 C 2005.27 -1.77036 -1.45571 0
M  V30 21354 C 2006.27 -0.64041 -1.47497 0
M  V30 21355 O 2007.46 -0.908478 -1.48635 0
M  V30 21356 C 2004.59 -1.87284 -2.84846 0
M  V30 21357 H 2005.78 -2.72452 -1.25339 0
M  V30 21358 H 2003.33 -1.43522 -0.61897 0
M  V30 21359 H 2004.07 -0.9386 -3.1042 0
M  V30 21360 H 2003.85 -2.6945 -2.84849 0
M  V30 21361 H 2005.34 -2.07723 -3.62272 0
M  V30 21362 N 2005.78 0.645673 -1.43767 0
M  V30 21363 C 2007.03 1.40137 -1.45067 0
M  V30 21364 C 2007.34 1.9543 -0.0815041 0
M  V30 21365 O 2008.55 2.71486 0.0280161 0
M  V30 21366 C 2007.01 2.53651 -2.55322 0
M  V30 21367 C 2006.61 2.04934 -3.98379 0
M  V30 21368 C 2008.36 3.30964 -2.65826 0
M  V30 21369 C 2006.26 3.15703 -5.00086 0
M  V30 21370 H 2005.19 0.52657 -0.539667 0
M  V30 21371 H 2007.85 0.696144 -1.69782 0
M  V30 21372 H 2006.23 3.26681 -2.23821 0
M  V30 21373 H 2007.4 1.38865 -4.39378 0
M  V30 21374 H 2005.72 1.40478 -3.91988 0
M  V30 21375 H 2008.31 4.13513 -3.38986 0
M  V30 21376 H 2008.66 3.79492 -1.71149 0
M  V30 21377 H 2009.19 2.65018 -2.96665 0
M  V30 21378 H 2005.93 2.72136 -5.96341 0
M  V30 21379 H 2005.45 3.80459 -4.63693 0
M  V30 21380 H 2007.13 3.80714 -5.23131 0
M  V30 21381 N 2007.26 1.30423 0.884744 0
M  V30 21382 C 2008.49 1.22007 1.66727 0
M  V30 21383 C 2008.9 -0.219474 1.87923 0
M  V30 21384 O 2008.24 -1.1569 1.42694 0
M  V30 21385 C 2008.3 1.87825 3.06532 0
M  V30 21386 C 2007.97 3.37154 3.08507 0
M  V30 21387 C 2008.96 4.33143 2.87547 0
M  V30 21388 C 2006.65 3.78604 3.30097 0
M  V30 21389 C 2008.64 5.68557 2.88135 0
M  V30 21390 C 2006.33 5.14136 3.30314 0
M  V30 21391 C 2007.33 6.08923 3.09357 0
M  V30 21392 O 2007.02 7.41979 3.09391 0
M  V30 21393 H 2006.75 0.423347 0.527023 0
M  V30 21394 H 2009.3 1.72587 1.11369 0
M  V30 21395 H 2007.53 1.31776 3.63555 0
M  V30 21396 H 2009.22 1.73527 3.66938 0
M  V30 21397 H 2009.99 4.0245 2.70664 0
M  V30 21398 H 2005.87 3.05269 3.45444 0
M  V30 21399 H 2009.41 6.42516 2.71696 0
M  V30 21400 H 2005.31 5.44469 3.46733 0
M  V30 21401 H 2006.07 7.5097 3.25555 0
M  V30 21402 N 2008.74 -1.09711 1.13142 0
M  V30 21403 C 2010.01 -1.78377 0.802565 0
M  V30 21404 C 2010.39 -1.9893 -0.706392 0
M  V30 21405 O 2009.74 -1.58835 -1.64267 0
M  V30 21406 C 2009.95 -3.10873 1.58615 0
M  V30 21407 C 2011.3 -3.85629 1.77695 0
M  V30 21408 O 2012.32 -3.20616 1.55189 0
M  V30 21409 O 2011.18 -5.02334 2.15228 0
M  V30 21410 H 2008.28 -0.773463 0.292718 0
M  V30 21411 H 2010.82 -1.16294 1.23587 0
M  V30 21412 H 2009.6 -2.9138 2.61177 0
M  V30 21413 H 2009.22 -3.80679 1.14758 0
M  V30 21414 N 2010.22 -0.924476 -1.27637 0
M  V30 21415 C 2011.16 -0.41967 -2.26952 0
M  V30 21416 C 2012.13 0.511683 -1.58022 0
M  V30 21417 O 2013.32 0.431544 -1.85856 0
M  V30 21418 C 2010.46 0.324433 -3.43572 0
M  V30 21419 C 2009.57 -0.640659 -4.27223 0
M  V30 21420 C 2008.71 0.122963 -5.31058 0
M  V30 21421 C 2007.75 -0.835045 -6.06377 0
M  V30 21422 N 2006.88 -0.104257 -7.02023 0
M  V30 21423 H 2011.72 -1.27159 -2.69508 0
M  V30 21424 H 2009.26 -0.63831 -1.32529 0
M  V30 21425 H 2011.22 0.772141 -4.09992 0
M  V30 21426 H 2009.85 1.14062 -3.01976 0
M  V30 21427 H 2008.9 -1.2069 -3.60747 0
M  V30 21428 H 2010.21 -1.37295 -4.79533 0
M  V30 21429 H 2009.37 0.630738 -6.03412 0
M  V30 21430 H 2008.1 0.888238 -4.79543 0
M  V30 21431 H 2007.11 -1.3541 -5.32864 0
M  V30 21432 H 2008.33 -1.60005 -6.59981 0
M  V30 21433 H 2006.28 0.642832 -6.52843 0
M  V30 21434 H 2006.2 -0.776174 -7.52005 0
M  V30 21435 H 2007.47 0.382972 -7.78559 0
M  V30 21436 N 2011.69 1.41711 -0.689627 0
M  V30 21437 C 2012.92 2.05652 -0.226938 0
M  V30 21438 C 2013.34 1.51875 1.12158 0
M  V30 21439 O 2012.69 0.664544 1.69971 0
M  V30 21440 C 2012.75 3.61102 -0.169503 0
M  V30 21441 O 2012.47 4.12888 -1.46475 0
M  V30 21442 C 2013.97 4.4218 0.314894 0
M  V30 21443 H 2011.19 0.66244 -0.10684 0
M  V30 21444 H 2013.73 1.81588 -0.940538 0
M  V30 21445 H 2011.89 3.84226 0.49488 0
M  V30 21446 H 2012.3 5.06884 -1.34791 0
M  V30 21447 H 2013.77 5.51162 0.303964 0
M  V30 21448 H 2014.25 4.17848 1.35275 0
M  V30 21449 H 2014.86 4.24107 -0.318278 0
M  V30 21450 N 2013.17 0.433965 1.51507 0
M  V30 21451 C 2014.12 -0.37918 2.27664 0
M  V30 21452 C 2015.09 -1.01975 1.31112 0
M  V30 21453 O 2016.27 -1.0393 1.6001 0
M  V30 21454 C 2013.41 -1.47628 3.1193 0
M  V30 21455 C 2012.53 -0.854176 4.23471 0
M  V30 21456 C 2011.66 -1.92604 4.95053 0
M  V30 21457 C 2010.7 -1.28219 5.9852 0
M  V30 21458 N 2009.84 -2.29527 6.63522 0
M  V30 21459 H 2014.68 0.276629 2.96713 0
M  V30 21460 H 2012.22 0.148264 1.46351 0
M  V30 21461 H 2014.17 -2.1236 3.59109 0
M  V30 21462 H 2012.8 -2.10176 2.45002 0
M  V30 21463 H 2011.86 -0.0952329 3.80281 0
M  V30 21464 H 2013.17 -0.344086 4.97612 0
M  V30 21465 H 2012.32 -2.65006 5.45762 0
M  V30 21466 H 2011.06 -2.46985 4.20535 0
M  V30 21467 H 2010.07 -0.543619 5.47106 0
M  V30 21468 H 2011.29 -0.745758 6.74993 0
M  V30 21469 H 2009.24 -2.82995 5.91819 0
M  V30 21470 H 2009.15 -1.834 7.33417 0
M  V30 21471 H 2010.42 -3.01423 7.18863 0
M  V30 21472 N 2014.65 -1.56732 0.165206 0
M  V30 21473 C 2015.6 -2.17666 -0.767471 0
M  V30 21474 C 2016.57 -1.11485 -1.23127 0
M  V30 21475 O 2017.75 -1.39609 -1.30054 0
M  V30 21476 C 2014.89 -2.81673 -1.99385 0
M  V30 21477 C 2014.01 -4.02298 -1.57418 0
M  V30 21478 C 2013.14 -4.54249 -2.75375 0
M  V30 21479 C 2012.18 -5.67298 -2.29869 0
M  V30 21480 N 2011.32 -6.13786 -3.40898 0
M  V30 21481 H 2016.16 -2.97023 -0.24106 0
M  V30 21482 H 2013.69 -1.46708 -0.10726 0
M  V30 21483 H 2015.65 -3.16937 -2.71306 0
M  V30 21484 H 2014.28 -2.0493 -2.49407 0
M  V30 21485 H 2013.33 -3.72894 -0.75194 0
M  V30 21486 H 2014.65 -4.84148 -1.2001 0
M  V30 21487 H 2013.8 -4.91663 -3.55461 0
M  V30 21488 H 2012.54 -3.71444 -3.16039 0
M  V30 21489 H 2011.54 -5.29442 -1.48228 0
M  V30 21490 H 2012.77 -6.519 -1.9027 0
M  V30 21491 H 2010.71 -5.33911 -3.81149 0
M  V30 21492 H 2010.63 -6.90609 -3.07563 0
M  V30 21493 H 2011.9 -6.55849 -4.21287 0
M  V30 21494 N 2016.13 0.10854 -1.57226 0
M  V30 21495 C 2017.36 0.827173 -1.89318 0
M  V30 21496 C 2017.77 1.73453 -0.755681 0
M  V30 21497 O 2017.11 1.81522 0.282015 0
M  V30 21498 C 2017.17 1.70434 -3.16532 0
M  V30 21499 C 2016.84 0.970197 -4.46583 0
M  V30 21500 C 2017.83 0.306173 -5.18998 0
M  V30 21501 C 2015.52 0.948268 -4.93268 0
M  V30 21502 C 2017.51 -0.369963 -6.36325 0
M  V30 21503 C 2015.2 0.268339 -6.10511 0
M  V30 21504 C 2016.2 -0.389611 -6.81888 0
M  V30 21505 O 2015.88 -1.05867 -7.96899 0
M  V30 21506 H 2015.62 0.242513 -0.631002 0
M  V30 21507 H 2018.17 0.0942966 -2.05183 0
M  V30 21508 H 2016.4 2.47912 -2.96777 0
M  V30 21509 H 2018.09 2.29833 -3.34562 0
M  V30 21510 H 2018.86 0.314665 -4.83978 0
M  V30 21511 H 2014.73 1.44982 -4.37608 0
M  V30 21512 H 2018.28 -0.884092 -6.91975 0
M  V30 21513 H 2014.18 0.257647 -6.44986 0
M  V30 21514 H 2014.94 -0.964201 -8.12801 0
M  V30 21515 N 2017.61 1.52975 0.379009 0
M  V30 21516 C 2018.85 1.69704 1.12125 0
M  V30 21517 C 2019.21 0.43662 1.8738 0
M  V30 21518 O 2018.5 -0.570009 1.82925 0
M  V30 21519 C 2018.69 2.8776 2.11964 0
M  V30 21520 C 2018.52 4.25162 1.46517 0
M  V30 21521 C 2017.29 4.90226 1.22499 0
M  V30 21522 C 2019.49 5.06186 0.909962 0
M  V30 21523 N 2017.47 6.11585 0.532616 0
M  V30 21524 C 2018.84 6.19033 0.346205 0
M  V30 21525 C 2020.9 4.91311 0.807342 0
M  V30 21526 C 2019.6 7.18631 -0.310148 0
M  V30 21527 C 2021.63 5.9117 0.164793 0
M  V30 21528 C 2020.99 7.0333 -0.388149 0
M  V30 21529 H 2017.09 0.674372 0.395913 0
M  V30 21530 H 2019.67 1.90346 0.409429 0
M  V30 21531 H 2017.84 2.68681 2.80473 0
M  V30 21532 H 2019.58 2.93378 2.78768 0
M  V30 21533 H 2016.33 4.49129 1.50268 0
M  V30 21534 H 2016.76 6.76698 0.20218 0
M  V30 21535 H 2021.4 4.04797 1.22062 0
M  V30 21536 H 2019.12 8.04747 -0.735414 0
M  V30 21537 H 2022.7 5.81736 0.0865022 0
M  V30 21538 H 2021.58 7.79275 -0.877493 0
M  V30 21539 N 2019.08 -0.63804 1.44107 0
M  V30 21540 C 2020.33 -1.39979 1.46743 0
M  V30 21541 C 2020.66 -1.93957 0.0970287 0
M  V30 21542 O 2019.94 -1.73232 -0.884358 0
M  V30 21543 C 2020.22 -2.57015 2.52221 0
M  V30 21544 C 2020.07 -2.08431 3.98593 0
M  V30 21545 C 2021.39 -3.59212 2.54273 0
M  V30 21546 H 2018.51 -0.507635 0.534299 0
M  V30 21547 H 2021.15 -0.722028 1.75746 0
M  V30 21548 H 2019.3 -3.14835 2.2762 0
M  V30 21549 H 2020.98 -1.55494 4.34303 0
M  V30 21550 H 2019.22 -1.39672 4.107 0
M  V30 21551 H 2019.89 -2.92659 4.68033 0
M  V30 21552 H 2022.37 -3.11179 2.76237 0
M  V30 21553 H 2021.24 -4.38631 3.29991 0
M  V30 21554 H 2021.5 -4.12821 1.58214 0
M  V30 21555 N 2020.56 -1.3089 -0.877815 0
M  V30 21556 C 2021.79 -1.2289 -1.66077 0
M  V30 21557 C 2022.2 0.209505 -1.88036 0
M  V30 21558 O 2021.54 1.14931 -1.43306 0
M  V30 21559 C 2021.61 -1.89448 -3.05532 0
M  V30 21560 C 2021.27 -3.38785 -3.06715 0
M  V30 21561 C 2022.27 -4.34661 -2.85246 0
M  V30 21562 C 2019.95 -3.8035 -3.28084 0
M  V30 21563 C 2021.95 -5.70077 -2.85116 0
M  V30 21564 C 2019.63 -5.15881 -3.27583 0
M  V30 21565 C 2020.63 -6.10555 -3.06124 0
M  V30 21566 O 2020.32 -7.43609 -3.05452 0
M  V30 21567 H 2020.05 -0.426136 -0.524771 0
M  V30 21568 H 2022.6 -1.73175 -1.10452 0
M  V30 21569 H 2020.83 -1.33702 -3.62851 0
M  V30 21570 H 2022.52 -1.7547 -3.66012 0
M  V30 21571 H 2023.29 -4.03879 -2.68526 0
M  V30 21572 H 2019.17 -3.07097 -3.4382 0
M  V30 21573 H 2022.71 -6.43948 -2.68285 0
M  V30 21574 H 2018.61 -5.463 -3.4384 0
M  V30 21575 H 2019.38 -7.52686 -3.21568 0
M  V30 21576 N 2022.04 1.0911 -1.13723 0
M  V30 21577 C 2022.97 2.15687 -0.775355 0
M  V30 21578 C 2023.99 1.61511 0.204429 0
M  V30 21579 O 2025.17 1.78493 -0.0162374 0
M  V30 21580 C 2022.27 3.38654 -0.129079 0
M  V30 21581 C 2021.45 4.22235 -1.14178 0
M  V30 21582 C 2020.51 5.23618 -0.520594 0
M  V30 21583 O 2019.53 5.56802 -1.18152 0
M  V30 21584 N 2020.73 5.76192 0.705897 0
M  V30 21585 H 2023.5 2.47337 -1.69247 0
M  V30 21586 H 2021.06 1.24855 -1.03067 0
M  V30 21587 H 2023.05 4.03595 0.298814 0
M  V30 21588 H 2021.62 3.04866 0.69104 0
M  V30 21589 H 2020.84 3.53382 -1.74685 0
M  V30 21590 H 2022.13 4.749 -1.82612 0
M  V30 21591 H 2021.53 5.51453 1.26158 0
M  V30 21592 H 2020.09 6.42851 1.0764 0
M  V30 21593 N 2023.52 0.931232 1.27145 0
M  V30 21594 C 2024.77 0.572394 1.93825 0
M  V30 21595 C 2025.09 -0.88981 1.73515 0
M  V30 21596 O 2024.36 -1.63113 1.08494 0
M  V30 21597 H 2022.94 0.2087 0.717254 0
M  V30 21598 H 2025.6 1.18439 1.54784 0
M  V30 21599 H 2024.7 0.781679 3.02153 0
M  V30 21600 N 2025 -1.41343 0.697132 0
M  V30 21601 C 2025.94 -2.30777 0.0327941 0
M  V30 21602 C 2026.91 -1.47192 -0.769652 0
M  V30 21603 O 2028.1 -1.75976 -0.737366 0
M  V30 21604 C 2025.24 -3.33252 -0.896488 0
M  V30 21605 C 2024.35 -4.31915 -0.0854899 0
M  V30 21606 C 2023.49 -5.2146 -1.01256 0
M  V30 21607 C 2022.53 -6.11791 -0.194558 0
M  V30 21608 N 2021.66 -6.93813 -1.07551 0
M  V30 21609 H 2026.5 -2.87027 0.801203 0
M  V30 21610 H 2024.04 -1.41363 0.406815 0
M  V30 21611 H 2026 -3.91216 -1.44933 0
M  V30 21612 H 2024.63 -2.78548 -1.63128 0
M  V30 21613 H 2023.68 -3.75886 0.58429 0
M  V30 21614 H 2024.99 -4.95774 0.548612 0
M  V30 21615 H 2024.15 -5.84266 -1.63457 0
M  V30 21616 H 2022.89 -4.57832 -1.68051 0
M  V30 21617 H 2021.89 -5.48032 0.440518 0
M  V30 21618 H 2023.12 -6.77474 0.469626 0
M  V30 21619 H 2021.06 -6.32792 -1.72946 0
M  V30 21620 H 2020.98 -7.54364 -0.497018 0
M  V30 21621 H 2022.25 -7.61086 -1.68429 0
M  V30 21622 N 2026.48 -0.441993 -1.51275 0
M  V30 21623 C 2027.89 0.0200405 -1.86689 0
M  V30 21624 C 2028.24 1.41527 -1.35885 0
M  V30 21625 O 2027.36 2.04366 -0.711583 0
M  V30 21626 C 2027.96 0.0431426 -3.38773 0
M  V30 21627 C 2026.52 0.449604 -3.73705 0
M  V30 21628 C 2025.66 -0.354706 -2.75022 0
M  V30 21629 H 2028.61 -0.657627 -1.44433 0
M  V30 21630 H 2028.64 0.851643 -3.70847 0
M  V30 21631 H 2028.15 -0.97245 -3.75719 0
M  V30 21632 H 2026.25 1.47063 -3.4235 0
M  V30 21633 H 2026.36 0.171167 -4.78794 0
M  V30 21634 H 2024.73 0.187631 -2.54008 0
M  V30 21635 H 2025.51 -1.36926 -3.14811 0
M  V30 21636 N 2027.95 1.56642 -0.173515 0
M  V30 21637 C 2029.2 1.97241 0.47157 0
M  V30 21638 C 2029.53 1.05958 1.62747 0
M  V30 21639 O 2028.81 0.107151 1.94205 0
M  V30 21640 C 2029.09 3.47276 0.952439 0
M  V30 21641 C 2028.94 4.49338 -0.203789 0
M  V30 21642 C 2030.26 4.00461 1.82535 0
M  V30 21643 H 2027.38 0.71714 0.169941 0
M  V30 21644 H 2030.02 1.88211 -0.260093 0
M  V30 21645 H 2028.17 3.55102 1.57591 0
M  V30 21646 H 2029.85 4.5357 -0.840936 0
M  V30 21647 H 2028.09 4.25211 -0.858945 0
M  V30 21648 H 2028.76 5.51723 0.174833 0
M  V30 21649 H 2031.24 3.9528 1.29974 0
M  V30 21650 H 2030.11 5.05853 2.13083 0
M  V30 21651 H 2030.37 3.44409 2.7719 0
M  V30 21652 N 2029.43 -0.1002 1.57281 0
M  V30 21653 C 2030.36 -1.15288 1.96936 0
M  V30 21654 C 2031.34 -1.39113 0.8418 0
M  V30 21655 O 2032.53 -1.52958 1.10165 0
M  V30 21656 C 2029.65 -2.50308 2.28175 0
M  V30 21657 C 2028.7 -2.42795 3.50646 0
M  V30 21658 S 2029.53 -1.8494 5.02551 0
M  V30 21659 C 2030.69 -3.21595 5.36962 0
M  V30 21660 H 2030.92 -0.814808 2.85916 0
M  V30 21661 H 2028.45 -0.307686 1.51303 0
M  V30 21662 H 2030.41 -3.27987 2.46849 0
M  V30 21663 H 2029.07 -2.81286 1.39775 0
M  V30 21664 H 2028.27 -3.42298 3.6993 0
M  V30 21665 H 2027.87 -1.73243 3.31456 0
M  V30 21666 H 2030.16 -4.17856 5.33294 0
M  V30 21667 H 2031.1 -3.0712 6.38031 0
M  V30 21668 H 2031.51 -3.2089 4.64424 0
M  V30 21669 N 2030.91 -1.53174 -0.370891 0
M  V30 21670 C 2032.32 -1.60843 -0.94796 0
M  V30 21671 C 2032.67 -0.472528 -1.90425 0
M  V30 21672 O 2031.8 0.401822 -2.12637 0
M  V30 21673 C 2032.39 -2.91534 -1.72607 0
M  V30 21674 C 2030.95 -3.01557 -2.25257 0
M  V30 21675 C 2030.1 -2.561 -1.0634 0
M  V30 21676 H 2033.05 -1.57991 -0.149852 0
M  V30 21677 H 2033.07 -2.79038 -2.58685 0
M  V30 21678 H 2032.58 -3.74188 -1.02982 0
M  V30 21679 H 2030.68 -2.23479 -2.9814 0
M  V30 21680 H 2030.8 -4.06538 -2.53502 0
M  V30 21681 H 2029.16 -2.10849 -1.42881 0
M  V30 21682 H 2029.94 -3.41166 -0.38221 0
M  V30 21683 N 2032.39 0.630389 -1.44443 0
M  V30 21684 C 2033.66 1.38877 -1.3774 0
M  V30 21685 C 2034.04 2.11068 -0.0364918 0
M  V30 21686 O 2033.39 2.06373 0.98094 0
M  V30 21687 C 2033.6 2.35458 -2.57606 0
M  V30 21688 C 2034.95 2.98766 -3.01702 0
M  V30 21689 O 2035.97 2.45783 -2.57816 0
M  V30 21690 O 2034.83 3.94883 -3.77796 0
M  V30 21691 H 2031.93 0.621587 -0.54549 0
M  V30 21692 H 2034.47 0.655382 -1.56534 0
M  V30 21693 H 2033.25 1.81218 -3.46808 0
M  V30 21694 H 2032.87 3.16213 -2.41029 0
M  V30 21695 N 2033.87 1.31354 0.870861 0
M  V30 21696 C 2034.8 1.14748 1.98408 0
M  V30 21697 C 2035.81 0.0868023 1.62568 0
M  V30 21698 O 2037 0.334209 1.75343 0
M  V30 21699 C 2034.1 0.730792 3.30927 0
M  V30 21700 C 2033.27 1.87628 3.95113 0
M  V30 21701 C 2032.33 1.44581 5.05948 0
M  V30 21702 O 2031.36 2.15531 5.26816 0
M  V30 21703 N 2032.56 0.332698 5.79546 0
M  V30 21704 H 2035.32 2.10633 2.13199 0
M  V30 21705 H 2032.89 1.23676 1.04479 0
M  V30 21706 H 2034.88 0.425538 4.02457 0
M  V30 21707 H 2033.45 -0.136426 3.12302 0
M  V30 21708 H 2032.67 2.3489 3.16576 0
M  V30 21709 H 2033.96 2.64356 4.34734 0
M  V30 21710 H 2033.35 -0.258188 5.65111 0
M  V30 21711 H 2031.91 0.0869715 6.51742 0
M  V30 21712 N 2035.34 -1.08505 1.143 0
M  V30 21713 C 2036.59 -1.80872 0.910589 0
M  V30 21714 C 2036.92 -1.86177 -0.562883 0
M  V30 21715 O 2036.17 -1.33282 -1.43299 0
M  V30 21716 C 2036.47 -3.26425 1.45538 0
M  V30 21717 C 2036.14 -3.41239 2.94732 0
M  V30 21718 C 2034.8 -3.44989 3.35464 0
M  V30 21719 C 2037.15 -3.45 3.90672 0
M  V30 21720 C 2034.48 -3.5009 4.70801 0
M  V30 21721 C 2036.83 -3.51637 5.25865 0
M  V30 21722 C 2035.5 -3.53659 5.66111 0
M  V30 21723 H 2034.77 -0.661856 0.333208 0
M  V30 21724 H 2037.41 -1.27762 1.4265 0
M  V30 21725 H 2035.72 -3.82237 0.860376 0
M  V30 21726 H 2037.42 -3.8097 1.25151 0
M  V30 21727 H 2034.01 -3.39011 2.6224 0
M  V30 21728 H 2038.19 -3.41334 3.60284 0
M  V30 21729 H 2033.45 -3.49949 5.01344 0
M  V30 21730 H 2037.62 -3.53492 6.00013 0
M  V30 21731 H 2035.25 -3.57365 6.70965 0
M  V30 21732 N 2036.82 -0.937962 -1.26649 0
M  V30 21733 C 2038.05 -0.600464 -1.97995 0
M  V30 21734 C 2038.46 0.823838 -1.69877 0
M  V30 21735 O 2037.82 1.5489 -0.965163 0
M  V30 21736 C 2037.87 -0.829264 -3.5186 0
M  V30 21737 O 2037.59 -2.19754 -3.78998 0
M  V30 21738 C 2039.09 -0.501874 -4.4045 0
M  V30 21739 H 2036.31 -0.226587 -0.631585 0
M  V30 21740 H 2038.86 -1.25779 -1.61245 0
M  V30 21741 H 2037.01 -0.218596 -3.86783 0
M  V30 21742 H 2037.43 -2.25518 -4.73542 0
M  V30 21743 H 2038.9 -0.712605 -5.47381 0
M  V30 21744 H 2039.38 0.56301 -4.35576 0
M  V30 21745 H 2039.98 -1.09113 -4.11065 0
M  V30 21746 N 2038.3 1.40971 -0.704618 0
M  V30 21747 C 2039.55 2.0108 -0.239427 0
M  V30 21748 C 2039.87 1.55835 1.16386 0
M  V30 21749 O 2039.13 0.76445 1.80152 0
M  V30 21750 C 2039.43 3.56487 -0.255368 0
M  V30 21751 C 2039.09 4.21275 -1.60743 0
M  V30 21752 C 2037.76 4.38686 -1.97756 0
M  V30 21753 C 2040.11 4.57518 -2.49654 0
M  V30 21754 C 2037.44 4.8962 -3.23247 0
M  V30 21755 C 2039.79 5.09846 -3.74486 0
M  V30 21756 C 2038.45 5.25468 -4.11631 0
M  V30 21757 H 2037.72 0.735802 -0.0876124 0
M  V30 21758 H 2040.37 1.6874 -0.905491 0
M  V30 21759 H 2038.67 3.8867 0.494257 0
M  V30 21760 H 2040.37 4.00814 0.122235 0
M  V30 21761 H 2036.96 4.08103 -1.30957 0
M  V30 21762 H 2041.15 4.43712 -2.22336 0
M  V30 21763 H 2036.4 4.99899 -3.52009 0
M  V30 21764 H 2040.58 5.36868 -4.4356 0
M  V30 21765 H 2038.2 5.64697 -5.08941 0
M  V30 21766 N 2039.78 0.45001 1.51039 0
M  V30 21767 C 2040.69 -0.360857 2.31808 0
M  V30 21768 C 2041.7 -1.01585 1.41267 0
M  V30 21769 O 2042.88 -1.00845 1.74334 0
M  V30 21770 C 2039.95 -1.44034 3.15365 0
M  V30 21771 C 2039.01 -0.804156 4.21701 0
M  V30 21772 C 2038.24 -1.83221 5.01264 0
M  V30 21773 O 2038.46 -3.05609 4.81622 0
M  V30 21774 O 2037.4 -1.41571 5.85014 0
M  V30 21775 H 2041.22 0.298869 3.02226 0
M  V30 21776 H 2038.81 0.212277 1.47884 0
M  V30 21777 H 2040.69 -2.06611 3.67273 0
M  V30 21778 H 2039.36 -2.08392 2.47698 0
M  V30 21779 H 2038.27 -0.139997 3.73838 0
M  V30 21780 H 2039.6 -0.203865 4.91778 0
M  V30 21781 N 2041.26 -1.56548 0.18182 0
M  V30 21782 C 2042.19 -2.21471 -0.739774 0
M  V30 21783 C 2043.17 -1.17361 -1.23128 0
M  V30 21784 O 2044.35 -1.45825 -1.28253 0
M  V30 21785 C 2041.48 -2.86369 -1.96494 0
M  V30 21786 C 2040.44 -3.96609 -1.60888 0
M  V30 21787 C 2039.76 -4.48607 -2.90957 0
M  V30 21788 C 2041.06 -5.15681 -0.828895 0
M  V30 21789 H 2042.76 -2.98741 -0.19858 0
M  V30 21790 H 2040.3 -1.43692 -0.0940725 0
M  V30 21791 H 2042.26 -3.30466 -2.61477 0
M  V30 21792 H 2040.98 -2.06485 -2.53045 0
M  V30 21793 H 2039.64 -3.53184 -0.982694 0
M  V30 21794 H 2039.29 -3.65501 -3.45569 0
M  V30 21795 H 2038.99 -5.22984 -2.67882 0
M  V30 21796 H 2040.51 -4.95397 -3.56951 0
M  V30 21797 H 2041.92 -5.56405 -1.38153 0
M  V30 21798 H 2040.32 -5.96041 -0.696789 0
M  V30 21799 H 2041.39 -4.84592 0.172711 0
M  V30 21800 N 2042.73 0.0918577 -1.57332 0
M  V30 21801 C 2043.66 1.11191 -2.05326 0
M  V30 21802 C 2044.65 1.41581 -0.942802 0
M  V30 21803 O 2045.83 1.51555 -1.21428 0
M  V30 21804 C 2042.96 2.4309 -2.48041 0
M  V30 21805 C 2041.91 2.271 -3.6278 0
M  V30 21806 C 2041.24 3.64205 -3.91482 0
M  V30 21807 C 2042.54 1.70886 -4.93554 0
M  V30 21808 H 2044.23 0.712608 -2.90796 0
M  V30 21809 H 2041.78 0.341338 -1.39896 0
M  V30 21810 H 2043.73 3.14724 -2.80226 0
M  V30 21811 H 2042.46 2.84962 -1.59575 0
M  V30 21812 H 2041.12 1.57911 -3.30847 0
M  V30 21813 H 2040.76 4.03611 -3.00179 0
M  V30 21814 H 2040.46 3.54352 -4.68731 0
M  V30 21815 H 2041.99 4.37302 -4.26145 0
M  V30 21816 H 2043.4 2.32364 -5.24099 0
M  V30 21817 H 2041.8 1.71783 -5.74987 0
M  V30 21818 H 2042.87 0.668569 -4.80269 0
M  V30 21819 N 2044.21 1.53368 0.362763 0
M  V30 21820 C 2045.49 1.60294 1.12095 0
M  V30 21821 C 2045.87 0.412218 2.07036 0
M  V30 21822 O 2045.22 -0.597284 2.20556 0
M  V30 21823 C 2045.43 2.95458 1.85757 0
M  V30 21824 C 2046.78 3.50135 2.40189 0
M  V30 21825 O 2047.8 2.97506 1.9588 0
M  V30 21826 O 2046.66 4.42146 3.212 0
M  V30 21827 H 2043.75 0.647572 0.514373 0
M  V30 21828 H 2046.3 1.65711 0.3658 0
M  V30 21829 H 2045.07 3.73561 1.16482 0
M  V30 21830 H 2044.69 2.93545 2.68174 0
M  V30 21831 N 2045.69 -0.62272 1.44776 0
M  V30 21832 C 2046.94 -1.3821 1.48 0
M  V30 21833 C 2047.27 -1.94155 0.115835 0
M  V30 21834 O 2046.52 -1.74621 -0.883522 0
M  V30 21835 C 2046.82 -2.55936 2.49463 0
M  V30 21836 C 2046.49 -2.1823 3.94571 0
M  V30 21837 C 2045.15 -2.0766 4.34086 0
M  V30 21838 C 2047.5 -1.88574 4.8589 0
M  V30 21839 C 2044.83 -1.65634 5.62834 0
M  V30 21840 C 2047.18 -1.48038 6.15035 0
M  V30 21841 C 2045.84 -1.36016 6.53495 0
M  V30 21842 H 2045.11 -0.505748 0.541572 0
M  V30 21843 H 2047.76 -0.705341 1.78037 0
M  V30 21844 H 2046.07 -3.28883 2.1294 0
M  V30 21845 H 2047.76 -3.14165 2.49201 0
M  V30 21846 H 2044.35 -2.27378 3.63314 0
M  V30 21847 H 2048.54 -1.95645 4.5611 0
M  V30 21848 H 2043.79 -1.54936 5.91443 0
M  V30 21849 H 2047.97 -1.24132 6.85248 0
M  V30 21850 H 2045.59 -1.03224 7.53159 0
M  V30 21851 N 2047.17 -1.31814 -0.863883 0
M  V30 21852 C 2048.1 -1.22574 -1.98741 0
M  V30 21853 C 2049.08 -0.111585 -1.69734 0
M  V30 21854 O 2050.26 -0.29721 -1.91912 0
M  V30 21855 C 2047.39 -0.938559 -3.34378 0
M  V30 21856 C 2046.35 -2.01295 -3.7771 0
M  V30 21857 C 2045.67 -1.57834 -5.10874 0
M  V30 21858 C 2046.97 -3.42684 -3.94164 0
M  V30 21859 H 2048.67 -2.16572 -2.06729 0
M  V30 21860 H 2046.21 -1.04262 -0.993246 0
M  V30 21861 H 2048.17 -0.860501 -4.12521 0
M  V30 21862 H 2046.89 0.0370783 -3.26579 0
M  V30 21863 H 2045.55 -2.081 -3.01811 0
M  V30 21864 H 2045.2 -0.5904 -4.99523 0
M  V30 21865 H 2044.9 -2.29713 -5.40838 0
M  V30 21866 H 2046.42 -1.51448 -5.9152 0
M  V30 21867 H 2047.84 -3.38519 -4.62685 0
M  V30 21868 H 2046.23 -4.12833 -4.35533 0
M  V30 21869 H 2047.3 -3.83023 -2.97358 0
M  V30 21870 N 2048.65 1.07897 -1.14873 0
M  V30 21871 C 2049.6 2.13167 -0.808951 0
M  V30 21872 C 2050.58 1.59598 0.204268 0
M  V30 21873 O 2051.77 1.76999 0.00583521 0
M  V30 21874 C 2048.9 3.4204 -0.293859 0
M  V30 21875 C 2047.99 4.02477 -1.33691 0
M  V30 21876 N 2048.38 4.37248 -2.54259 0
M  V30 21877 C 2046.68 4.29877 -1.18835 0
M  V30 21878 C 2047.38 4.85066 -3.2107 0
M  V30 21879 N 2046.35 4.83493 -2.48466 0
M  V30 21880 H 2050.16 2.37876 -1.72604 0
M  V30 21881 H 2047.67 1.25281 -1.03336 0
M  V30 21882 H 2049.67 4.16888 -0.0321146 0
M  V30 21883 H 2048.33 3.18777 0.617359 0
M  V30 21884 H 2049.34 4.28112 -2.91446 0
M  V30 21885 H 2046.01 4.16141 -0.336571 0
M  V30 21886 H 2047.4 5.21307 -4.23897 0
M  V30 21887 N 2050.12 0.944665 1.2615 0
M  V30 21888 C 2051.06 0.414303 2.25424 0
M  V30 21889 C 2052.07 -0.464345 1.56037 0
M  V30 21890 O 2053.26 -0.274229 1.76381 0
M  V30 21891 C 2050.36 -0.423331 3.36246 0
M  V30 21892 C 2049.53 0.439977 4.35182 0
M  V30 21893 C 2048.59 -0.337801 5.25115 0
M  V30 21894 O 2047.62 0.260373 5.68604 0
M  V30 21895 N 2048.82 -1.63346 5.57044 0
M  V30 21896 H 2051.58 1.26775 2.71566 0
M  V30 21897 H 2049.14 0.813928 1.39953 0
M  V30 21898 H 2051.14 -0.951131 3.93364 0
M  V30 21899 H 2049.71 -1.17759 2.89571 0
M  V30 21900 H 2048.93 1.14896 3.77084 0
M  V30 21901 H 2050.21 1.02957 4.98274 0
M  V30 21902 H 2049.61 -2.14152 5.23599 0
M  V30 21903 H 2048.17 -2.10743 6.16791 0
M  V30 21904 N 2051.6 -1.40596 0.712085 0
M  V30 21905 C 2052.53 -2.33389 0.0719438 0
M  V30 21906 C 2053.51 -1.52706 -0.749334 0
M  V30 21907 O 2054.7 -1.81185 -0.698968 0
M  V30 21908 C 2051.83 -3.36659 -0.853122 0
M  V30 21909 C 2050.78 -4.27778 -0.137724 0
M  V30 21910 C 2050.11 -5.21556 -1.17827 0
M  V30 21911 C 2051.41 -5.12521 1.00597 0
M  V30 21912 H 2053.1 -2.87169 0.847002 0
M  V30 21913 H 2050.65 -1.38077 0.408756 0
M  V30 21914 H 2052.6 -4.00511 -1.31031 0
M  V30 21915 H 2051.33 -2.81266 -1.66004 0
M  V30 21916 H 2049.98 -3.65374 0.299603 0
M  V30 21917 H 2049.63 -4.6247 -1.97814 0
M  V30 21918 H 2049.33 -5.83361 -0.704503 0
M  V30 21919 H 2050.86 -5.88285 -1.63563 0
M  V30 21920 H 2052.27 -5.69847 0.62831 0
M  V30 21921 H 2050.67 -5.83351 1.40789 0
M  V30 21922 H 2051.74 -4.48706 1.83822 0
M  V30 21923 N 2053.08 -0.458013 -1.50798 0
M  V30 21924 C 2054.31 0.0995379 -2.0666 0
M  V30 21925 C 2054.72 1.34662 -1.32331 0
M  V30 21926 O 2054.08 1.78311 -0.388768 0
M  V30 21927 C 2054.13 0.400901 -3.5927 0
M  V30 21928 O 2053.85 -0.796705 -4.30795 0
M  V30 21929 C 2055.35 1.00686 -4.31714 0
M  V30 21930 H 2052.57 -0.00125628 -0.670999 0
M  V30 21931 H 2055.12 -0.643041 -1.94127 0
M  V30 21932 H 2053.27 1.0934 -3.7165 0
M  V30 21933 H 2053.69 -0.533396 -5.21781 0
M  V30 21934 H 2055.16 1.16758 -5.39511 0
M  V30 21935 H 2055.64 1.99349 -3.91352 0
M  V30 21936 H 2056.24 0.353135 -4.23831 0
M  V30 21937 N 2054.56 1.56449 -0.190119 0
M  V30 21938 C 2055.51 2.1547 0.74544 0
M  V30 21939 C 2056.49 1.09408 1.17978 0
M  V30 21940 O 2057.69 1.35483 1.13901 0
M  V30 21941 C 2054.81 2.81371 1.96685 0
M  V30 21942 C 2053.9 3.94617 1.55364 0
M  V30 21943 N 2054.29 4.98588 0.851095 0
M  V30 21944 C 2052.59 4.06126 1.8433 0
M  V30 21945 C 2053.29 5.78116 0.644775 0
M  V30 21946 N 2052.27 5.3037 1.19198 0
M  V30 21947 H 2056.07 2.93219 0.199907 0
M  V30 21948 H 2053.58 1.62397 0.00985994 0
M  V30 21949 H 2055.58 3.22044 2.64752 0
M  V30 21950 H 2054.24 2.05108 2.51716 0
M  V30 21951 H 2055.25 5.15411 0.507098 0
M  V30 21952 H 2051.93 3.40986 2.40905 0
M  V30 21953 H 2053.32 6.71843 0.0878244 0
M  V30 21954 N 2056.04 -0.0835127 1.57379 0
M  V30 21955 C 2056.97 -1.101 2.05913 0
M  V30 21956 C 2057.95 -1.41079 0.950298 0
M  V30 21957 O 2059.13 -1.50909 1.2223 0
M  V30 21958 C 2056.26 -2.41772 2.49327 0
M  V30 21959 C 2055.22 -2.25173 3.63979 0
M  V30 21960 C 2054.54 -3.62124 3.93408 0
M  V30 21961 C 2055.84 -1.68267 4.94453 0
M  V30 21962 H 2057.54 -0.697176 2.9117 0
M  V30 21963 H 2055.08 -0.333914 1.40075 0
M  V30 21964 H 2057.04 -3.13234 2.81891 0
M  V30 21965 H 2055.76 -2.84112 1.61084 0
M  V30 21966 H 2054.42 -1.56154 3.3168 0
M  V30 21967 H 2054.07 -4.02013 3.02315 0
M  V30 21968 H 2053.77 -3.51861 4.70603 0
M  V30 21969 H 2055.29 -4.35036 4.28458 0
M  V30 21970 H 2056.71 -2.29582 5.25324 0
M  V30 21971 H 2055.1 -1.68731 5.7589 0
M  V30 21972 H 2056.17 -0.64309 4.80617 0
M  V30 21973 N 2057.52 -1.53558 -0.354624 0
M  V30 21974 C 2058.74 -1.74503 -1.12087 0
M  V30 21975 C 2059.17 -0.477817 -1.8193 0
M  V30 21976 O 2058.52 0.568868 -1.72144 0
M  V30 21977 C 2058.57 -2.91808 -2.1185 0
M  V30 21978 O 2057.68 -2.61182 -3.19152 0
M  V30 21979 H 2057.02 -0.579191 -0.324705 0
M  V30 21980 H 2059.55 -2.00483 -0.4084 0
M  V30 21981 H 2059.56 -3.18284 -2.55263 0
M  V30 21982 H 2058.23 -3.83721 -1.6041 0
M  V30 21983 H 2056.81 -2.45558 -2.80634 0
M  V30 21984 N 2058.99 0.615033 -1.45104 0
M  V30 21985 C 2060.24 1.37424 -1.48731 0
M  V30 21986 C 2060.57 1.94091 -0.12613 0
M  V30 21987 O 2059.82 1.75087 0.874249 0
M  V30 21988 C 2060.12 2.54609 -2.50816 0
M  V30 21989 C 2059.79 2.16134 -3.95723 0
M  V30 21990 C 2058.45 2.05355 -4.35181 0
M  V30 21991 C 2060.8 1.85994 -4.86883 0
M  V30 21992 C 2058.13 1.62647 -5.63705 0
M  V30 21993 C 2060.48 1.44774 -6.15811 0
M  V30 21994 C 2059.15 1.32548 -6.54207 0
M  V30 21995 H 2058.42 0.502868 -0.544247 0
M  V30 21996 H 2061.06 0.695889 -1.78409 0
M  V30 21997 H 2059.37 3.27749 -2.14681 0
M  V30 21998 H 2061.07 3.12839 -2.50864 0
M  V30 21999 H 2057.66 2.25448 -3.64515 0
M  V30 22000 H 2061.84 1.93224 -4.57141 0
M  V30 22001 H 2057.1 1.51797 -5.92256 0
M  V30 22002 H 2061.27 1.20496 -6.85896 0
M  V30 22003 H 2058.9 0.992281 -7.53696 0
M  V30 22004 N 2060.47 1.3227 0.85688 0
M  V30 22005 C 2061.7 1.25837 1.64863 0
M  V30 22006 C 2062.12 -0.171028 1.87321 0
M  V30 22007 O 2061.48 -1.12165 1.42438 0
M  V30 22008 C 2061.53 2.02105 2.9864 0
M  V30 22009 O 2060.63 1.36733 3.89073 0
M  V30 22010 H 2059.97 0.433799 0.502707 0
M  V30 22011 H 2062.5 1.7455 1.0674 0
M  V30 22012 H 2062.51 2.12195 3.48479 0
M  V30 22013 H 2061.19 3.06048 2.81616 0
M  V30 22014 H 2059.76 1.35177 3.47537 0
M  V30 22015 N 2061.95 -1.07287 1.15444 0
M  V30 22016 C 2062.9 -2.14506 0.85181 0
M  V30 22017 C 2063.87 -1.64945 -0.195533 0
M  V30 22018 O 2065.05 -1.90696 -0.0629401 0
M  V30 22019 C 2062.19 -3.43341 0.347981 0
M  V30 22020 C 2061.3 -4.0669 1.45697 0
M  V30 22021 C 2060.44 -5.23361 0.9092 0
M  V30 22022 C 2059.48 -5.78673 1.99508 0
M  V30 22023 N 2058.62 -6.86675 1.46364 0
M  V30 22024 H 2063.46 -2.39733 1.77008 0
M  V30 22025 H 2060.99 -1.17635 0.883195 0
M  V30 22026 H 2062.95 -4.17183 0.0375747 0
M  V30 22027 H 2061.58 -3.18363 -0.53337 0
M  V30 22028 H 2060.63 -3.30495 1.88355 0
M  V30 22029 H 2061.94 -4.43806 2.2768 0
M  V30 22030 H 2061.1 -6.04189 0.551375 0
M  V30 22031 H 2059.84 -4.87665 0.0585544 0
M  V30 22032 H 2058.84 -4.9649 2.36173 0
M  V30 22033 H 2060.07 -6.16425 2.84952 0
M  V30 22034 H 2058.01 -6.52916 0.635365 0
M  V30 22035 H 2057.93 -7.22678 2.21973 0
M  V30 22036 H 2059.2 -7.71206 1.13408 0
M  V30 22037 N 2063.43 -0.951342 -1.25647 0
M  V30 22038 C 2064.36 -0.413176 -2.24428 0
M  V30 22039 C 2065.34 0.503664 -1.54603 0
M  V30 22040 O 2066.52 0.438794 -1.83322 0
M  V30 22041 C 2063.65 0.405254 -3.36267 0
M  V30 22042 C 2062.7 -0.45151 -4.24103 0
M  V30 22043 S 2063.53 -1.88173 -5.01349 0
M  V30 22044 C 2064.68 -1.07164 -6.16658 0
M  V30 22045 H 2064.92 -1.25033 -2.6973 0
M  V30 22046 H 2062.45 -0.755177 -1.34672 0
M  V30 22047 H 2064.41 0.871528 -4.01142 0
M  V30 22048 H 2063.07 1.21719 -2.89557 0
M  V30 22049 H 2062.26 0.176047 -5.03692 0
M  V30 22050 H 2061.86 -0.852865 -3.64146 0
M  V30 22051 H 2064.16 -0.318733 -6.7675 0
M  V30 22052 H 2065.1 -1.84134 -6.8374 0
M  V30 22053 H 2065.51 -0.603216 -5.61268 0
M  V30 22054 N 2064.91 1.40216 -0.719531 0
M  V30 22055 C 2065.85 2.30695 -0.0695046 0
M  V30 22056 C 2066.82 1.48398 0.746138 0
M  V30 22057 O 2068.01 1.77127 0.709277 0
M  V30 22058 C 2065.15 3.34636 0.843357 0
M  V30 22059 C 2064.26 4.31997 0.0167651 0
M  V30 22060 C 2063.4 5.23005 0.929469 0
M  V30 22061 C 2062.43 6.12023 0.0972024 0
M  V30 22062 N 2061.57 6.95437 0.964997 0
M  V30 22063 H 2066.41 2.85716 -0.846765 0
M  V30 22064 H 2063.95 1.40698 -0.429253 0
M  V30 22065 H 2065.91 3.93473 1.38691 0
M  V30 22066 H 2064.54 2.81108 1.58676 0
M  V30 22067 H 2063.59 3.74909 -0.644016 0
M  V30 22068 H 2064.9 4.94838 -0.627416 0
M  V30 22069 H 2064.05 5.86792 1.54141 0
M  V30 22070 H 2062.79 4.60447 1.60746 0
M  V30 22071 H 2061.8 5.47262 -0.52765 0
M  V30 22072 H 2063.02 6.76641 -0.577347 0
M  V30 22073 H 2060.97 6.35463 1.62857 0
M  V30 22074 H 2060.89 7.5506 0.376943 0
M  V30 22075 H 2062.15 7.63669 1.56299 0
M  V30 22076 N 2066.38 0.466004 1.50553 0
M  V30 22077 C 2067.35 -0.319434 2.26963 0
M  V30 22078 C 2068.35 -0.92489 1.31539 0
M  V30 22079 O 2069.54 -0.794862 1.55008 0
M  V30 22080 C 2066.67 -1.45457 3.0831 0
M  V30 22081 H 2067.86 0.350606 2.97844 0
M  V30 22082 H 2065.41 0.219925 1.54745 0
M  V30 22083 H 2066.15 -2.15982 2.41914 0
M  V30 22084 H 2065.93 -1.02628 3.78431 0
M  V30 22085 H 2067.42 -2.00876 3.66113 0
M  V30 22086 N 2067.86 -1.56346 0.198413 0
M  V30 22087 C 2068.79 -2.22244 -0.716243 0
M  V30 22088 C 2069.77 -1.1866 -1.21876 0
M  V30 22089 O 2070.96 -1.47177 -1.26699 0
M  V30 22090 C 2068.09 -2.88437 -1.93446 0
M  V30 22091 C 2067.04 -3.98294 -1.56672 0
M  V30 22092 C 2066.37 -4.51668 -2.86182 0
M  V30 22093 C 2067.67 -5.16531 -0.774153 0
M  V30 22094 H 2069.36 -2.98935 -0.166883 0
M  V30 22095 H 2066.91 -1.43784 -0.0788267 0
M  V30 22096 H 2068.86 -3.33221 -2.57957 0
M  V30 22097 H 2067.58 -2.09157 -2.5084 0
M  V30 22098 H 2066.24 -3.54206 -0.945178 0
M  V30 22099 H 2065.89 -3.69146 -3.41673 0
M  V30 22100 H 2065.59 -5.25796 -2.6232 0
M  V30 22101 H 2067.12 -4.99155 -3.51676 0
M  V30 22102 H 2068.53 -5.57839 -1.32244 0
M  V30 22103 H 2066.93 -5.96746 -0.633532 0
M  V30 22104 H 2068 -4.84382 0.224098 0
M  V30 22105 N 2069.34 0.0751653 -1.57421 0
M  V30 22106 C 2070.27 1.09007 -2.06494 0
M  V30 22107 C 2071.25 1.40573 -0.957766 0
M  V30 22108 O 2072.44 1.50259 -1.23028 0
M  V30 22109 C 2069.57 2.40446 -2.50605 0
M  V30 22110 C 2068.52 2.2324 -3.65168 0
M  V30 22111 C 2067.85 3.60033 -3.95323 0
M  V30 22112 C 2069.15 1.65642 -4.95338 0
M  V30 22113 H 2070.84 0.681725 -2.91535 0
M  V30 22114 H 2068.39 0.326481 -1.4025 0
M  V30 22115 H 2070.34 3.11734 -2.83548 0
M  V30 22116 H 2069.06 2.83254 -1.62588 0
M  V30 22117 H 2067.72 1.54393 -3.32503 0
M  V30 22118 H 2067.37 4.00404 -3.04443 0
M  V30 22119 H 2067.07 3.4936 -4.72463 0
M  V30 22120 H 2068.59 4.32757 -4.30759 0
M  V30 22121 H 2070.01 2.26793 -5.26534 0
M  V30 22122 H 2068.41 1.65675 -5.76777 0
M  V30 22123 H 2069.48 0.617593 -4.80951 0
M  V30 22124 N 2070.82 1.53744 0.346476 0
M  V30 22125 C 2071.73 1.84516 1.44883 0
M  V30 22126 C 2072.74 0.735054 1.57712 0
M  V30 22127 O 2073.92 1.02706 1.73244 0
M  V30 22128 C 2070.99 2.04576 2.7991 0
M  V30 22129 C 2070.05 3.28442 2.7645 0
M  V30 22130 C 2069.28 3.47536 4.05036 0
M  V30 22131 O 2069.5 2.70527 5.02167 0
M  V30 22132 O 2068.44 4.40955 4.09686 0
M  V30 22133 H 2072.26 2.78207 1.21797 0
M  V30 22134 H 2069.85 1.39362 0.53838 0
M  V30 22135 H 2071.73 2.19232 3.59882 0
M  V30 22136 H 2070.4 1.14074 3.02934 0
M  V30 22137 H 2069.31 3.19192 1.95108 0
M  V30 22138 H 2070.64 4.18928 2.5838 0
M  V30 22139 N 2072.3 -0.607329 1.45428 0
M  V30 22140 C 2073.71 -0.92811 1.29839 0
M  V30 22141 C 2073.91 -1.99923 0.251614 0
M  V30 22142 O 2072.97 -2.50001 -0.354354 0
M  V30 22143 C 2074.28 -1.36879 2.6774 0
M  V30 22144 C 2075.83 -1.48299 2.75638 0
M  V30 22145 C 2076.3 -1.95743 4.14064 0
M  V30 22146 N 2077.8 -2.02976 4.16359 0
M  V30 22147 C 2078.53 -2.40908 5.20337 0
M  V30 22148 N 2078.03 -2.77807 6.34661 0
M  V30 22149 N 2079.82 -2.41249 5.07696 0
M  V30 22150 H 2071.97 0.100642 2.12161 0
M  V30 22151 H 2074.23 -0.017631 0.947836 0
M  V30 22152 H 2073.94 -0.655923 3.45529 0
M  V30 22153 H 2073.81 -2.33525 2.96219 0
M  V30 22154 H 2076.2 -2.18677 1.98152 0
M  V30 22155 H 2076.28 -0.499667 2.50872 0
M  V30 22156 H 2075.93 -1.25951 4.92035 0
M  V30 22157 H 2075.86 -2.94989 4.36221 0
M  V30 22158 H 2078.35 -1.77048 3.3386 0
M  V30 22159 H 2078.66 -3.05633 7.09794 0
M  V30 22160 H 2077 -2.75502 6.38062 0
M  V30 22161 H 2080.2 -2.11829 4.17428 0
M  V30 22162 H 2080.37 -2.70485 5.88848 0
M  V30 22163 N 2073.77 -1.32722 -0.849853 0
M  V30 22164 C 2075 -1.2671 -1.64193 0
M  V30 22165 C 2075.42 0.161092 -1.87409 0
M  V30 22166 O 2074.78 1.11408 -1.43031 0
M  V30 22167 C 2074.83 -2.03686 -2.97564 0
M  V30 22168 O 2073.93 -1.38794 -3.88343 0
M  V30 22169 H 2073.28 -0.436459 -0.5004 0
M  V30 22170 H 2075.81 -1.75113 -1.05813 0
M  V30 22171 H 2075.82 -2.1404 -3.47349 0
M  V30 22172 H 2074.49 -3.07537 -2.79989 0
M  V30 22173 H 2073.07 -1.37018 -3.46815 0
M  V30 22174 N 2075.25 1.06673 -1.16011 0
M  V30 22175 C 2076.2 2.12297 -0.831514 0
M  V30 22176 C 2077.19 1.59806 0.187329 0
M  V30 22177 O 2078.38 1.76995 -0.0129382 0
M  V30 22178 C 2075.51 3.41709 -0.330121 0
M  V30 22179 C 2074.59 4.01036 -1.37952 0
M  V30 22180 N 2074.98 4.34527 -2.58882 0
M  V30 22181 C 2073.28 4.28593 -1.23387 0
M  V30 22182 C 2073.98 4.81633 -3.26197 0
M  V30 22183 N 2072.96 4.80831 -2.5358 0
M  V30 22184 H 2076.76 2.36032 -1.75117 0
M  V30 22185 H 2074.28 1.24178 -1.04659 0
M  V30 22186 H 2076.27 4.1683 -0.0763293 0
M  V30 22187 H 2074.93 3.19414 0.583514 0
M  V30 22188 H 2075.94 4.24997 -2.9597 0
M  V30 22189 H 2072.62 4.15761 -0.380689 0
M  V30 22190 H 2074.01 5.16782 -4.29402 0
M  V30 22191 N 2076.73 0.957992 1.25141 0
M  V30 22192 C 2077.96 0.631439 1.97554 0
M  V30 22193 C 2078.38 -0.790342 1.7069 0
M  V30 22194 O 2077.74 -1.53495 0.964826 0
M  V30 22195 C 2077.79 0.900403 3.49178 0
M  V30 22196 O 2076.89 -0.01911 4.12396 0
M  V30 22197 H 2076.23 0.23972 0.619217 0
M  V30 22198 H 2078.76 1.2855 1.59173 0
M  V30 22199 H 2078.77 0.828022 3.99509 0
M  V30 22200 H 2077.45 1.93663 3.68059 0
M  V30 22201 H 2076.02 0.105763 3.7275 0
M  V30 22202 N 2078.21 -1.39832 0.726957 0
M  V30 22203 C 2079.62 -1.83534 0.342368 0
M  V30 22204 C 2079.97 -1.6075 -1.12489 0
M  V30 22205 O 2079.1 -1.09438 -1.86688 0
M  V30 22206 C 2079.69 -3.33178 0.614625 0
M  V30 22207 C 2078.25 -3.7533 0.283621 0
M  V30 22208 C 2077.4 -2.62923 0.881297 0
M  V30 22209 H 2080.35 -1.28939 0.925229 0
M  V30 22210 H 2080.37 -3.80322 -0.116329 0
M  V30 22211 H 2079.88 -3.49729 1.68259 0
M  V30 22212 H 2077.98 -3.64369 -0.778826 0
M  V30 22213 H 2078.09 -4.73025 0.760562 0
M  V30 22214 H 2076.46 -2.52825 0.308504 0
M  V30 22215 H 2077.24 -2.82282 1.95375 0
M  V30 22216 N 2079.69 -0.473982 -1.50304 0
M  V30 22217 C 2080.92 0.0775007 -2.06455 0
M  V30 22218 C 2081.32 1.33801 -1.33768 0
M  V30 22219 O 2080.67 1.79261 -0.401381 0
M  V30 22220 C 2080.73 0.428656 -3.56935 0
M  V30 22221 C 2080.39 -0.730244 -4.51128 0
M  V30 22222 C 2081.39 -1.6131 -4.94242 0
M  V30 22223 C 2079.08 -0.92139 -4.93777 0
M  V30 22224 C 2081.07 -2.67149 -5.78714 0
M  V30 22225 C 2078.76 -1.98299 -5.78032 0
M  V30 22226 C 2079.75 -2.85641 -6.20402 0
M  V30 22227 O 2079.44 -3.89973 -7.02977 0
M  V30 22228 H 2079.17 -0.00505561 -0.675981 0
M  V30 22229 H 2081.73 -0.662628 -1.94418 0
M  V30 22230 H 2079.96 1.22201 -3.66884 0
M  V30 22231 H 2081.65 0.915562 -3.95439 0
M  V30 22232 H 2082.41 -1.47713 -4.61959 0
M  V30 22233 H 2078.29 -0.251023 -4.60316 0
M  V30 22234 H 2081.84 -3.35352 -6.11706 0
M  V30 22235 H 2077.73 -2.11903 -6.09727 0
M  V30 22236 H 2078.5 -3.86996 -7.21232 0
M  V30 22237 N 2081.16 1.56239 -0.206702 0
M  V30 22238 C 2082.39 2.01998 0.433638 0
M  V30 22239 C 2082.8 1.08593 1.54933 0
M  V30 22240 O 2082.15 0.0850804 1.83503 0
M  V30 22241 C 2082.21 3.4413 1.03993 0
M  V30 22242 C 2081.87 4.56959 0.0615327 0
M  V30 22243 C 2082.87 5.14701 -0.733387 0
M  V30 22244 C 2080.55 5.02272 -0.0529169 0
M  V30 22245 C 2082.55 6.16216 -1.62961 0
M  V30 22246 C 2080.23 6.03628 -0.952684 0
M  V30 22247 C 2081.23 6.60475 -1.73959 0
M  V30 22248 O 2080.92 7.59861 -2.62425 0
M  V30 22249 H 2080.65 0.666655 0.112011 0
M  V30 22250 H 2083.21 2.02952 -0.316153 0
M  V30 22251 H 2081.44 3.40198 1.83853 0
M  V30 22252 H 2083.13 3.73627 1.58612 0
M  V30 22253 H 2083.89 4.80552 -0.655335 0
M  V30 22254 H 2079.77 4.57714 0.549424 0
M  V30 22255 H 2083.31 6.60514 -2.24425 0
M  V30 22256 H 2079.21 6.372 -1.03181 0
M  V30 22257 H 2079.98 7.77326 -2.56334 0
M  V30 22258 N 2082.64 -0.0668159 1.57458 0
M  V30 22259 C 2083.58 -1.11085 1.99337 0
M  V30 22260 C 2084.55 -1.37296 0.871119 0
M  V30 22261 O 2085.74 -1.50586 1.13384 0
M  V30 22262 C 2082.86 -2.45411 2.33433 0
M  V30 22263 C 2081.91 -2.35303 3.55717 0
M  V30 22264 S 2082.74 -1.74238 5.06361 0
M  V30 22265 C 2083.9 -3.10132 5.43662 0
M  V30 22266 H 2084.13 -0.753977 2.8758 0
M  V30 22267 H 2081.67 -0.275523 1.51922 0
M  V30 22268 H 2083.62 -3.22678 2.53751 0
M  V30 22269 H 2082.28 -2.78258 1.4571 0
M  V30 22270 H 2081.48 -3.34374 3.77107 0
M  V30 22271 H 2081.08 -1.66173 3.35056 0
M  V30 22272 H 2083.37 -4.0645 5.42038 0
M  V30 22273 H 2084.31 -2.93517 6.44401 0
M  V30 22274 H 2084.72 -3.10967 4.71126 0
M  V30 22275 N 2084.12 -1.53926 -0.338317 0
M  V30 22276 C 2085.05 -1.85269 -1.42119 0
M  V30 22277 C 2086.03 -0.708238 -1.54654 0
M  V30 22278 O 2087.22 -0.960631 -1.68777 0
M  V30 22279 C 2084.35 -2.06693 -2.79097 0
M  V30 22280 C 2083.3 -3.22519 -2.81364 0
M  V30 22281 C 2082.63 -3.29286 -4.21277 0
M  V30 22282 C 2083.93 -4.6051 -2.46431 0
M  V30 22283 H 2085.62 -2.75957 -1.16137 0
M  V30 22284 H 2083.17 -1.32781 -0.557249 0
M  V30 22285 H 2085.12 -2.27204 -3.54903 0
M  V30 22286 H 2083.84 -1.1274 -3.06524 0
M  V30 22287 H 2082.5 -3.01872 -2.08011 0
M  V30 22288 H 2082.15 -2.32919 -4.45823 0
M  V30 22289 H 2081.85 -4.07123 -4.23704 0
M  V30 22290 H 2083.38 -3.52014 -4.98918 0
M  V30 22291 H 2084.79 -4.80999 -3.1195 0
M  V30 22292 H 2083.19 -5.40788 -2.60132 0
M  V30 22293 H 2084.26 -4.63762 -1.41607 0
M  V30 22294 N 2085.6 0.599608 -1.45748 0
M  V30 22295 C 2086.55 1.73095 -1.55374 0
M  V30 22296 C 2087.54 1.64028 -0.423205 0
M  V30 22297 O 2088.75 1.69726 -0.599429 0
M  V30 22298 H 2085.12 0.572 -0.48818 0
M  V30 22299 H 2087.09 1.62104 -2.50529 0
M  V30 22300 C 2085.84 3.1148 -1.54517 0
M  V30 22301 H 2085.17 3.19119 -2.40838 0
M  V30 22302 H 2086.61 3.90447 -1.65309 0
M  V30 22303 C 2085.06 3.35809 -0.270913 0
M  V30 22304 O 2085.59 3.96473 0.645927 0
M  V30 22305 N 2083.8 2.90136 -0.164103 0
M  V30 22306 H 2083.35 2.40951 -0.911075 0
M  V30 22307 H 2083.31 3.06788 0.687647 0
M  V30 22308 N 2087.08 1.33171 0.842803 0
M  V30 22309 C 2088.49 1.1242 1.13287 0
M  V30 22310 C 2088.69 -0.0875106 2.0131 0
M  V30 22311 O 2087.75 -0.768934 2.40507 0
M  V30 22312 C 2089.06 2.40967 1.79876 0
M  V30 22313 C 2090.61 2.46837 1.92459 0
M  V30 22314 C 2091.09 3.75336 2.62463 0
M  V30 22315 N 2092.58 3.76385 2.69979 0
M  V30 22316 C 2093.31 4.72521 3.24825 0
M  V30 22317 N 2092.81 5.7903 3.80389 0
M  V30 22318 N 2094.6 4.60002 3.2304 0
M  V30 22319 H 2086.75 2.10841 0.256882 0
M  V30 22320 H 2089.01 0.931431 0.176468 0
M  V30 22321 H 2088.72 3.29618 1.22656 0
M  V30 22322 H 2088.59 2.52821 2.79931 0
M  V30 22323 H 2090.98 1.58638 2.48833 0
M  V30 22324 H 2091.06 2.38927 0.913649 0
M  V30 22325 H 2090.71 4.63915 2.06749 0
M  V30 22326 H 2090.64 3.80521 3.64021 0
M  V30 22327 H 2093.13 2.99407 2.30573 0
M  V30 22328 H 2093.44 6.48427 4.20431 0
M  V30 22329 H 2091.79 5.8277 3.78688 0
M  V30 22330 H 2094.98 3.75953 2.78886 0
M  V30 22331 H 2095.15 5.35096 3.65482 0
M  V30 22332 N 2088.56 -1.06056 1.16576 0
M  V30 22333 C 2089.83 -1.75733 0.858908 0
M  V30 22334 C 2090.21 -2.01077 -0.642746 0
M  V30 22335 O 2089.56 -1.63981 -1.5913 0
M  V30 22336 C 2089.77 -3.0567 1.68425 0
M  V30 22337 C 2091.12 -3.7978 1.89874 0
M  V30 22338 O 2092.14 -3.15517 1.65311 0
M  V30 22339 O 2091 -4.95232 2.311 0
M  V30 22340 H 2088.1 -0.763759 0.317177 0
M  V30 22341 H 2090.64 -1.12303 1.27225 0
M  V30 22342 H 2089.41 -2.82923 2.70315 0
M  V30 22343 H 2089.04 -3.76835 1.26811 0
M  V30 22344 N 2090.03 -0.964615 -1.24631 0
M  V30 22345 C 2091.45 -0.670645 -1.44826 0
M  V30 22346 C 2091.65 0.768559 -1.86267 0
M  V30 22347 O 2090.71 1.54279 -1.99886 0
M  V30 22348 C 2092.02 -1.6521 -2.51249 0
M  V30 22349 C 2093.57 -1.66439 -2.65079 0
M  V30 22350 C 2094.04 -2.63374 -3.74697 0
M  V30 22351 N 2095.53 -2.61798 -3.8212 0
M  V30 22352 C 2096.27 -3.33478 -4.66455 0
M  V30 22353 N 2095.76 -4.14664 -5.55 0
M  V30 22354 N 2097.56 -3.22317 -4.60508 0
M  V30 22355 H 2089.71 -1.89453 -0.960277 0
M  V30 22356 H 2091.97 -0.815473 -0.483433 0
M  V30 22357 H 2091.68 -2.68058 -2.2768 0
M  V30 22358 H 2091.55 -1.42244 -3.49351 0
M  V30 22359 H 2093.94 -0.643043 -2.88009 0
M  V30 22360 H 2094.02 -1.93467 -1.67345 0
M  V30 22361 H 2093.66 -3.65641 -3.52518 0
M  V30 22362 H 2093.59 -2.33627 -4.71939 0
M  V30 22363 H 2096.08 -2.02866 -3.18832 0
M  V30 22364 H 2096.4 -4.66253 -6.16302 0
M  V30 22365 H 2094.74 -4.18759 -5.54676 0
M  V30 22366 H 2097.93 -2.58355 -3.90346 0
M  V30 22367 H 2098.11 -3.78443 -5.26008 0
M  V30 22368 N 2091.51 1.39445 -0.734362 0
M  V30 22369 C 2092.74 2.04826 -0.29225 0
M  V30 22370 C 2093.15 1.55366 1.0727 0
M  V30 22371 O 2092.51 0.718282 1.67771 0
M  V30 22372 C 2092.56 3.6038 -0.2843 0
M  V30 22373 O 2092.28 4.08019 -1.59536 0
M  V30 22374 C 2093.78 4.42958 0.174058 0
M  V30 22375 H 2091 0.658705 -0.127861 0
M  V30 22376 H 2093.55 1.78504 -0.997833 0
M  V30 22377 H 2091.7 3.85606 0.372391 0
M  V30 22378 H 2092.12 5.02339 -1.50849 0
M  V30 22379 H 2093.59 5.5185 0.128462 0
M  V30 22380 H 2094.07 4.21941 1.21913 0
M  V30 22381 H 2094.67 4.2288 -0.453043 0
M  V30 22382 N 2092.99 0.481946 1.5005 0
M  V30 22383 C 2093.92 -0.296253 2.31613 0
M  V30 22384 C 2094.9 -0.98032 1.3901 0
M  V30 22385 O 2096.09 -0.975402 1.67927 0
M  V30 22386 C 2093.22 -1.37231 3.19037 0
M  V30 22387 C 2092.17 -0.809232 4.2028 0
M  V30 22388 C 2091.5 -1.98439 4.96514 0
M  V30 22389 C 2092.8 0.18685 5.21966 0
M  V30 22390 H 2094.49 0.384509 2.96921 0
M  V30 22391 H 2092.04 0.186362 1.42789 0
M  V30 22392 H 2093.99 -1.92429 3.74899 0
M  V30 22393 H 2092.71 -2.082 2.51636 0
M  V30 22394 H 2091.37 -0.279145 3.65536 0
M  V30 22395 H 2091.02 -2.68131 4.25576 0
M  V30 22396 H 2090.72 -1.6138 5.65005 0
M  V30 22397 H 2092.24 -2.54107 5.55213 0
M  V30 22398 H 2093.66 -0.276326 5.72634 0
M  V30 22399 H 2092.05 0.472282 5.98239 0
M  V30 22400 H 2093.12 1.10915 4.72044 0
M  V30 22401 N 2094.47 -1.56127 0.214985 0
M  V30 22402 C 2095.41 -2.19998 -0.697834 0
M  V30 22403 C 2096.38 -1.15346 -1.19518 0
M  V30 22404 O 2097.57 -1.43676 -1.25547 0
M  V30 22405 C 2094.71 -2.87874 -1.90323 0
M  V30 22406 C 2093.82 -4.07102 -1.44539 0
M  V30 22407 C 2092.96 -4.6278 -2.60784 0
M  V30 22408 C 2092 -5.74324 -2.11705 0
M  V30 22409 N 2091.13 -6.24321 -3.21198 0
M  V30 22410 H 2095.97 -2.9764 -0.146443 0
M  V30 22411 H 2093.51 -1.46975 -0.0605317 0
M  V30 22412 H 2095.47 -3.25408 -2.61085 0
M  V30 22413 H 2094.1 -2.12761 -2.42761 0
M  V30 22414 H 2093.15 -3.75098 -0.632926 0
M  V30 22415 H 2094.46 -4.87721 -1.04546 0
M  V30 22416 H 2093.62 -5.02723 -3.39639 0
M  V30 22417 H 2092.36 -3.8131 -3.04062 0
M  V30 22418 H 2091.36 -5.33889 -1.31309 0
M  V30 22419 H 2092.59 -6.57624 -1.69434 0
M  V30 22420 H 2090.53 -5.45767 -3.6397 0
M  V30 22421 H 2090.45 -7.00044 -2.85437 0
M  V30 22422 H 2091.72 -6.6892 -4.00208 0
M  V30 22423 N 2095.95 0.0584645 -1.57492 0
M  V30 22424 C 2096.89 1.08667 -2.05655 0
M  V30 22425 C 2097.89 1.39265 -0.964446 0
M  V30 22426 O 2099.09 1.38515 -1.1495 0
M  V30 22427 H 2095.47 0.367834 -0.655898 0
M  V30 22428 H 2097.44 0.654416 -2.91136 0
M  V30 22429 C 2096.19 2.38807 -2.52718 0
M  V30 22430 H 2095.51 2.16117 -3.36353 0
M  V30 22431 H 2096.95 3.09167 -2.90158 0
M  V30 22432 C 2095.41 3.0571 -1.41573 0
M  V30 22433 O 2095.94 3.94342 -0.765316 0
M  V30 22434 N 2094.15 2.66551 -1.15754 0
M  V30 22435 H 2093.69 1.94564 -1.68827 0
M  V30 22436 H 2093.65 3.11636 -0.415957 0
M  V30 22437 N 2097.42 1.54103 0.330149 0
M  V30 22438 C 2098.67 1.71207 1.06635 0
M  V30 22439 C 2098.99 0.489127 1.89386 0
M  V30 22440 O 2100.19 0.541376 2.66048 0
M  V30 22441 C 2098.65 3.02796 1.94531 0
M  V30 22442 C 2098.26 4.32473 1.16924 0
M  V30 22443 C 2100 3.29264 2.67928 0
M  V30 22444 C 2097.91 5.55128 2.03928 0
M  V30 22445 H 2096.84 0.638008 0.401822 0
M  V30 22446 H 2099.49 1.80599 0.324996 0
M  V30 22447 H 2097.87 2.87294 2.7254 0
M  V30 22448 H 2099.04 4.5872 0.437326 0
M  V30 22449 H 2097.36 4.1272 0.552383 0
M  V30 22450 H 2099.96 4.18095 3.33318 0
M  V30 22451 H 2100.3 2.46855 3.35214 0
M  V30 22452 H 2100.83 3.45603 1.96985 0
M  V30 22453 H 2097.57 6.4012 1.41161 0
M  V30 22454 H 2097.09 5.3311 2.74871 0
M  V30 22455 H 2098.77 5.91282 2.62668 0
M  V30 22456 N 2098.9 -0.59187 1.46064 0
M  V30 22457 C 2100.13 -1.37666 1.54453 0
M  V30 22458 C 2100.55 -1.87916 0.18248 0
M  V30 22459 O 2099.9 -1.63106 -0.818692 0
M  V30 22460 C 2099.95 -2.57045 2.54185 0
M  V30 22461 O 2099.67 -2.08879 3.85099 0
M  V30 22462 C 2101.18 -3.49713 2.72426 0
M  V30 22463 H 2098.4 -0.420872 0.522597 0
M  V30 22464 H 2100.94 -0.720387 1.91391 0
M  V30 22465 H 2099.09 -3.18681 2.20276 0
M  V30 22466 H 2099.51 -2.86557 4.39301 0
M  V30 22467 H 2100.98 -4.29981 3.4615 0
M  V30 22468 H 2101.46 -4.01064 1.7901 0
M  V30 22469 H 2102.07 -2.9392 3.07395 0
M  V30 22470 N 2100.38 -1.33616 -0.835729 0
M  V30 22471 C 2101.29 -1.26175 -1.9778 0
M  V30 22472 C 2102.31 -0.171736 -1.7315 0
M  V30 22473 O 2103.48 -0.395895 -1.97471 0
M  V30 22474 C 2100.55 -1.00421 -3.31838 0
M  V30 22475 C 2099.61 -2.18454 -3.69563 0
M  V30 22476 C 2098.84 -1.93919 -4.97223 0
M  V30 22477 O 2099.06 -0.891065 -5.63397 0
M  V30 22478 O 2098 -2.80536 -5.32525 0
M  V30 22479 H 2101.82 -2.22227 -2.07 0
M  V30 22480 H 2099.41 -1.13694 -0.969228 0
M  V30 22481 H 2101.29 -0.877873 -4.12155 0
M  V30 22482 H 2099.97 -0.0739914 -3.23615 0
M  V30 22483 H 2098.87 -2.36642 -2.89743 0
M  V30 22484 H 2100.21 -3.09821 -3.82455 0
M  V30 22485 N 2101.86 1.05436 -1.17136 0
M  V30 22486 C 2103.09 1.82074 -0.982688 0
M  V30 22487 C 2103.5 1.8288 0.469081 0
M  V30 22488 O 2102.86 1.25425 1.3257 0
M  V30 22489 C 2102.91 3.28302 -1.51328 0
M  V30 22490 O 2102.63 3.27651 -2.9082 0
M  V30 22491 C 2104.13 4.21637 -1.36885 0
M  V30 22492 H 2101.35 0.57382 -0.347811 0
M  V30 22493 H 2103.9 1.32971 -1.55367 0
M  V30 22494 H 2102.05 3.74685 -0.984381 0
M  V30 22495 H 2102.46 4.19154 -3.15294 0
M  V30 22496 H 2103.94 5.2223 -1.78828 0
M  V30 22497 H 2104.42 4.38065 -0.315584 0
M  V30 22498 H 2105.02 3.81107 -1.88779 0
M  V30 22499 N 2103.34 0.971211 1.24118 0
M  V30 22500 C 2104.58 0.642921 1.94025 0
M  V30 22501 C 2104.94 -0.807414 1.74198 0
M  V30 22502 O 2106.14 -1.24609 2.38172 0
M  V30 22503 C 2104.41 1.01162 3.42784 0
M  V30 22504 S 2105.97 0.798412 4.31475 0
M  V30 22505 H 2102.79 0.23575 0.670778 0
M  V30 22506 H 2105.39 1.24891 1.50408 0
M  V30 22507 H 2104.1 2.06398 3.54722 0
M  V30 22508 H 2103.63 0.396552 3.91396 0
M  V30 22509 H 2105.64 -0.322438 4.95151 0
M  V30 22510 N 2104.81 -1.39054 0.741747 0
M  V30 22511 C 2105.76 -2.30556 0.106197 0
M  V30 22512 C 2106.73 -1.49566 -0.722434 0
M  V30 22513 O 2107.92 -1.78233 -0.681008 0
M  V30 22514 C 2105.06 -3.35936 -0.790013 0
M  V30 22515 C 2104.17 -4.31969 0.051964 0
M  V30 22516 C 2103.3 -5.24418 -0.846146 0
M  V30 22517 C 2102.34 -6.121 0.000177444 0
M  V30 22518 N 2101.48 -6.96884 -0.854237 0
M  V30 22519 H 2106.32 -2.84333 0.892113 0
M  V30 22520 H 2103.86 -1.39997 0.451583 0
M  V30 22521 H 2105.82 -3.95629 -1.32413 0
M  V30 22522 H 2104.45 -2.83597 -1.54183 0
M  V30 22523 H 2103.5 -3.73837 0.70358 0
M  V30 22524 H 2104.81 -4.93777 0.706061 0
M  V30 22525 H 2103.96 -5.8917 -1.44786 0
M  V30 22526 H 2102.7 -4.62947 -1.53401 0
M  V30 22527 H 2101.71 -5.46353 0.614648 0
M  V30 22528 H 2102.93 -6.75637 0.684921 0
M  V30 22529 H 2100.88 -6.37974 -1.52727 0
M  V30 22530 H 2100.8 -7.55564 -0.256771 0
M  V30 22531 H 2102.06 -7.66059 -1.4413 0
M  V30 22532 N 2106.29 -0.489897 -1.49792 0
M  V30 22533 C 2107.26 0.283286 -2.27443 0
M  V30 22534 C 2108.26 0.903846 -1.32993 0
M  V30 22535 O 2109.45 0.770101 -1.56253 0
M  V30 22536 C 2106.58 1.40534 -3.10585 0
M  V30 22537 H 2107.77 -0.397946 -2.97248 0
M  V30 22538 H 2105.32 -0.244516 -1.54376 0
M  V30 22539 H 2106.06 2.12106 -2.4532 0
M  V30 22540 H 2105.84 0.965947 -3.80016 0
M  V30 22541 H 2107.33 1.95026 -3.69262 0
M  V30 22542 N 2107.77 1.56011 -0.223262 0
M  V30 22543 C 2109.01 2.0025 0.409802 0
M  V30 22544 C 2109.37 1.10766 1.56827 0
M  V30 22545 O 2110.58 1.44359 2.26746 0
M  V30 22546 C 2108.85 3.47588 0.831689 0
M  V30 22547 S 2110.41 4.13848 1.45862 0
M  V30 22548 H 2107.22 0.699017 0.129988 0
M  V30 22549 H 2109.83 1.92644 -0.332951 0
M  V30 22550 H 2108.53 4.10395 -0.0211012 0
M  V30 22551 H 2108.06 3.59071 1.60721 0
M  V30 22552 H 2110.08 4.13178 2.7477 0
M  V30 22553 N 2109.25 -0.0501116 1.5752 0
M  V30 22554 C 2110.21 -1.0417 2.0416 0
M  V30 22555 C 2111.21 -1.30309 0.942133 0
M  V30 22556 O 2112.4 -1.25665 1.20639 0
M  V30 22557 C 2109.53 -2.37997 2.4407 0
M  V30 22558 H 2110.73 -0.639249 2.93008 0
M  V30 22559 H 2108.28 -0.296417 1.53464 0
M  V30 22560 H 2109.01 -2.83032 1.58314 0
M  V30 22561 H 2108.8 -2.2036 3.2432 0
M  V30 22562 H 2110.29 -3.09229 2.80654 0
M  V30 22563 N 2110.73 -1.54276 -0.321972 0
M  V30 22564 C 2111.66 -1.80114 -1.41745 0
M  V30 22565 C 2112.67 -0.683177 -1.47772 0
M  V30 22566 O 2113.86 -0.960312 -1.50467 0
M  V30 22567 C 2110.96 -1.90532 -2.80269 0
M  V30 22568 C 2110.13 -3.20712 -2.97427 0
M  V30 22569 C 2109.19 -3.21811 -4.16322 0
M  V30 22570 O 2108.22 -3.95443 -4.09406 0
M  V30 22571 N 2109.42 -2.45708 -5.25935 0
M  V30 22572 H 2112.19 -2.74652 -1.19943 0
M  V30 22573 H 2109.75 -1.53592 -0.511965 0
M  V30 22574 H 2111.74 -1.88693 -3.58018 0
M  V30 22575 H 2110.31 -1.03083 -2.95115 0
M  V30 22576 H 2109.53 -3.35498 -2.06965 0
M  V30 22577 H 2110.82 -4.0666 -3.05786 0
M  V30 22578 H 2110.21 -1.85477 -5.34429 0
M  V30 22579 H 2108.77 -2.49645 -6.02097 0
M  V30 22580 N 2112.2 0.584116 -1.46376 0
M  V30 22581 C 2113.45 1.34437 -1.51837 0
M  V30 22582 C 2113.78 1.93464 -0.168948 0
M  V30 22583 O 2113.06 1.76395 0.819455 0
M  V30 22584 C 2113.34 2.47477 -2.61586 0
M  V30 22585 C 2113.19 1.93494 -4.06054 0
M  V30 22586 C 2114.51 3.49527 -2.6743 0
M  V30 22587 H 2111.63 0.487455 -0.552772 0
M  V30 22588 H 2114.27 0.656303 -1.78305 0
M  V30 22589 H 2112.42 3.0617 -2.39148 0
M  V30 22590 H 2114.1 1.39268 -4.39775 0
M  V30 22591 H 2112.34 1.24333 -4.15601 0
M  V30 22592 H 2113.01 2.75087 -4.78572 0
M  V30 22593 H 2115.49 3.00712 -2.87596 0
M  V30 22594 H 2114.36 4.26082 -3.46043 0
M  V30 22595 H 2114.62 4.06664 -1.73426 0
M  V30 22596 N 2113.68 1.34058 0.828631 0
M  V30 22597 C 2114.63 1.25159 1.96056 0
M  V30 22598 C 2115.63 0.150843 1.68727 0
M  V30 22599 O 2116.83 0.315456 1.77214 0
M  V30 22600 H 2113.21 0.388669 0.643771 0
M  V30 22601 H 2115.18 2.20835 2.00685 0
M  V30 22602 C 2113.93 1.0181 3.32461 0
M  V30 22603 H 2113.25 1.8574 3.54035 0
M  V30 22604 H 2114.69 0.996172 4.12132 0
M  V30 22605 C 2113.15 -0.278758 3.35745 0
M  V30 22606 O 2113.68 -1.28204 3.80692 0
M  V30 22607 N 2111.88 -0.309877 2.88943 0
M  V30 22608 H 2111.43 0.507134 2.52559 0
M  V30 22609 H 2111.39 -1.17737 2.91523 0
M  V30 22610 N 2115.16 -1.04814 1.17694 0
M  V30 22611 C 2116.12 -2.10819 0.899339 0
M  V30 22612 C 2117.12 -1.60409 -0.112116 0
M  V30 22613 O 2118.31 -1.73783 0.120484 0
M  V30 22614 C 2115.45 -3.39121 0.34786 0
M  V30 22615 H 2116.64 -2.36878 1.83926 0
M  V30 22616 H 2114.19 -1.21119 0.987923 0
M  V30 22617 H 2114.93 -3.1872 -0.599026 0
M  V30 22618 H 2114.71 -3.77022 1.07688 0
M  V30 22619 H 2116.2 -4.17245 0.172084 0
M  V30 22620 N 2116.64 -0.977779 -1.23601 0
M  V30 22621 C 2117.86 -0.662789 -1.96524 0
M  V30 22622 C 2118.29 0.763086 -1.71926 0
M  V30 22623 O 2117.65 1.51941 -0.989123 0
M  V30 22624 C 2117.7 -0.95584 -3.47701 0
M  V30 22625 O 2116.8 -0.046501 -4.12374 0
M  V30 22626 H 2116.14 -0.249541 -0.615325 0
M  V30 22627 H 2118.67 -1.31066 -1.57108 0
M  V30 22628 H 2118.68 -0.891475 -3.98142 0
M  V30 22629 H 2117.36 -1.99494 -3.64932 0
M  V30 22630 H 2115.93 -0.165051 -3.72535 0
M  V30 22631 N 2118.12 1.38658 -0.749111 0
M  V30 22632 C 2119.06 2.30496 -0.118423 0
M  V30 22633 C 2120.03 1.49947 0.714492 0
M  V30 22634 O 2121.22 1.78591 0.671546 0
M  V30 22635 C 2118.36 3.3635 0.772186 0
M  V30 22636 C 2117.47 4.31935 -0.0748716 0
M  V30 22637 C 2116.61 5.24859 0.818323 0
M  V30 22638 C 2115.65 6.12091 -0.0326386 0
M  V30 22639 N 2114.78 6.97327 0.817267 0
M  V30 22640 H 2119.62 2.83856 -0.90718 0
M  V30 22641 H 2117.16 1.39755 -0.459001 0
M  V30 22642 H 2119.12 3.96326 1.30313 0
M  V30 22643 H 2117.75 2.84411 1.52677 0
M  V30 22644 H 2116.8 3.73458 -0.723395 0
M  V30 22645 H 2118.11 4.93396 -0.732237 0
M  V30 22646 H 2117.27 5.8993 1.4166 0
M  V30 22647 H 2116.01 4.63754 1.50943 0
M  V30 22648 H 2115.01 5.4602 -0.643614 0
M  V30 22649 H 2116.24 6.75264 -0.720742 0
M  V30 22650 H 2114.18 6.38775 1.49341 0
M  V30 22651 H 2114.1 7.55689 0.216698 0
M  V30 22652 H 2115.37 7.66813 1.40066 0
M  V30 22653 N 2119.6 0.497834 1.49531 0
M  V30 22654 C 2120.82 -0.0468921 2.07347 0
M  V30 22655 C 2121.25 -1.30349 1.35612 0
M  V30 22656 O 2120.6 -1.76559 0.411884 0
M  V30 22657 C 2120.65 -0.286776 3.59458 0
M  V30 22658 O 2119.76 -1.36212 3.89256 0
M  V30 22659 H 2119.1 0.0248202 0.663536 0
M  V30 22660 H 2121.63 0.696547 1.92378 0
M  V30 22661 H 2121.64 -0.519243 4.04682 0
M  V30 22662 H 2120.31 0.631334 4.1108 0
M  V30 22663 H 2118.89 -1.11485 3.55845 0
M  V30 22664 N 2121.07 -1.5589 0.231532 0
M  V30 22665 C 2122.04 -2.19461 -0.661012 0
M  V30 22666 C 2123.04 -1.15936 -1.11424 0
M  V30 22667 O 2124.23 -1.41111 -1.02144 0
M  V30 22668 C 2121.36 -2.82592 -1.90669 0
M  V30 22669 H 2122.55 -2.9971 -0.106607 0
M  V30 22670 H 2120.1 -1.5629 -0.0180602 0
M  V30 22671 H 2120.84 -2.06239 -2.50272 0
M  V30 22672 H 2120.62 -3.58412 -1.59007 0
M  V30 22673 H 2122.11 -3.3129 -2.54238 0
M  V30 22674 N 2122.55 0.0417572 -1.57545 0
M  V30 22675 C 2123.8 0.736189 -1.88966 0
M  V30 22676 C 2124.13 1.75678 -0.827697 0
M  V30 22677 O 2123.41 1.93851 0.158734 0
M  V30 22678 C 2123.69 1.4172 -3.3104 0
M  V30 22679 C 2123.54 0.410987 -4.47918 0
M  V30 22680 C 2124.86 2.3545 -3.71822 0
M  V30 22681 H 2121.98 0.266166 -0.687259 0
M  V30 22682 H 2124.62 -0.000952352 -1.9 0
M  V30 22683 H 2122.77 2.04552 -3.30289 0
M  V30 22684 H 2124.44 -0.214433 -4.60801 0
M  V30 22685 H 2122.69 -0.270954 -4.32953 0
M  V30 22686 H 2123.36 0.925718 -5.44182 0
M  V30 22687 H 2125.83 1.82673 -3.73858 0
M  V30 22688 H 2124.71 2.80087 -4.72062 0
M  V30 22689 H 2124.97 3.21575 -3.03384 0
M  V30 22690 N 2124.03 1.54445 0.313786 0
M  V30 22691 C 2124.98 1.8451 1.38654 0
M  V30 22692 C 2125.95 0.692957 1.50955 0
M  V30 22693 O 2127.13 0.940344 1.66019 0
M  V30 22694 C 2124.27 2.08672 2.74863 0
M  V30 22695 C 2123.38 3.36334 2.71115 0
M  V30 22696 C 2122.52 3.50406 3.99235 0
M  V30 22697 C 2121.56 4.71907 3.89833 0
M  V30 22698 N 2120.7 4.82853 5.09703 0
M  V30 22699 H 2125.54 2.76024 1.12315 0
M  V30 22700 H 2123.07 1.36691 0.543496 0
M  V30 22701 H 2125.03 2.20675 3.5406 0
M  V30 22702 H 2123.66 1.20438 2.9949 0
M  V30 22703 H 2122.71 3.33019 1.83855 0
M  V30 22704 H 2124.02 4.25645 2.60054 0
M  V30 22705 H 2123.18 3.62004 4.86865 0
M  V30 22706 H 2121.92 2.59206 4.13115 0
M  V30 22707 H 2120.92 4.60356 3.00587 0
M  V30 22708 H 2122.15 5.64502 3.7751 0
M  V30 22709 H 2120.09 3.94572 5.2407 0
M  V30 22710 H 2120.01 5.66145 5.01015 0
M  V30 22711 H 2121.28 4.98794 5.9902 0
M  V30 22712 N 2125.51 -0.576345 1.46683 0
M  V30 22713 C 2126.44 -1.69965 1.53768 0
M  V30 22714 C 2127.45 -1.57142 0.425462 0
M  V30 22715 O 2128.64 -1.6445 0.694142 0
M  V30 22716 C 2125.74 -3.08273 1.40788 0
M  V30 22717 C 2124.91 -3.47036 2.66242 0
M  V30 22718 C 2123.97 -4.6443 2.47369 0
M  V30 22719 O 2123 -4.69971 3.21117 0
M  V30 22720 N 2124.2 -5.59714 1.53948 0
M  V30 22721 H 2126.97 -1.6434 2.50624 0
M  V30 22722 H 2124.53 -0.762495 1.4282 0
M  V30 22723 H 2126.52 -3.8461 1.25925 0
M  V30 22724 H 2125.09 -3.0823 0.520883 0
M  V30 22725 H 2124.31 -2.6034 2.96001 0
M  V30 22726 H 2125.6 -3.69703 3.49567 0
M  V30 22727 H 2125 -5.57979 0.931464 0
M  V30 22728 H 2123.55 -6.35456 1.45046 0
M  V30 22729 N 2126.99 -1.34495 -0.82151 0
M  V30 22730 C 2128.23 -1.26681 -1.57469 0
M  V30 22731 C 2128.55 0.162701 -1.9432 0
M  V30 22732 O 2127.82 1.09566 -1.62395 0
M  V30 22733 H 2126.4 -0.465903 -0.583903 0
M  V30 22734 H 2129.07 -1.68424 -0.980791 0
M  V30 22735 H 2128.16 -1.87251 -2.49686 0
M  V30 22736 N 2128.46 1.04188 -1.18248 0
M  V30 22737 C 2129.69 1.81021 -1.00194 0
M  V30 22738 C 2130.11 1.83367 0.449658 0
M  V30 22739 O 2129.46 1.26824 1.31232 0
M  V30 22740 C 2129.52 3.26678 -1.54802 0
M  V30 22741 O 2129.24 3.24548 -2.94279 0
M  V30 22742 C 2130.74 4.20161 -1.41349 0
M  V30 22743 H 2127.96 0.570098 -0.353877 0
M  V30 22744 H 2130.5 1.31316 -1.56769 0
M  V30 22745 H 2128.66 3.7362 -1.02407 0
M  V30 22746 H 2129.07 4.15787 -3.19721 0
M  V30 22747 H 2130.54 5.20304 -1.84357 0
M  V30 22748 H 2131.02 4.37705 -0.362029 0
M  V30 22749 H 2131.63 3.79083 -1.92811 0
M  V30 22750 N 2129.94 0.98432 1.23081 0
M  V30 22751 C 2131.36 0.6936 1.43741 0
M  V30 22752 C 2131.56 -0.738828 1.87466 0
M  V30 22753 O 2130.61 -1.51079 2.02315 0
M  V30 22754 C 2131.93 1.69187 2.48589 0
M  V30 22755 C 2133.48 1.70635 2.62398 0
M  V30 22756 C 2133.95 2.69302 3.7046 0
M  V30 22757 N 2135.44 2.67844 3.77907 0
M  V30 22758 C 2136.18 3.40857 4.6109 0
M  V30 22759 N 2135.67 4.23441 5.48333 0
M  V30 22760 N 2137.47 3.29603 4.55322 0
M  V30 22761 H 2129.62 1.90957 0.930015 0
M  V30 22762 H 2131.88 0.823061 0.470398 0
M  V30 22763 H 2131.59 2.71646 2.23386 0
M  V30 22764 H 2131.46 1.47784 3.47044 0
M  V30 22765 H 2133.85 0.688782 2.86949 0
M  V30 22766 H 2133.93 1.96104 1.64246 0
M  V30 22767 H 2133.57 3.71203 3.46656 0
M  V30 22768 H 2133.5 2.41106 4.68162 0
M  V30 22769 H 2135.99 2.07913 3.15564 0
M  V30 22770 H 2136.31 4.75999 6.08806 0
M  V30 22771 H 2134.65 4.27531 5.47944 0
M  V30 22772 H 2137.84 2.64533 3.86186 0
M  V30 22773 H 2138.01 3.86764 5.19921 0
M  V30 22774 N 2131.42 -1.38259 0.756453 0
M  V30 22775 C 2132.67 -2.00349 0.314356 0
M  V30 22776 C 2133 -1.5991 -1.10192 0
M  V30 22777 O 2132.27 -0.837999 -1.75522 0
M  V30 22778 C 2132.56 -3.57396 0.440504 0
M  V30 22779 C 2132.41 -4.0779 1.8981 0
M  V30 22780 C 2133.73 -4.39793 -0.164403 0
M  V30 22781 H 2130.85 -0.727862 0.115697 0
M  V30 22782 H 2133.49 -1.6416 0.956635 0
M  V30 22783 H 2131.64 -3.88355 -0.106298 0
M  V30 22784 H 2133.31 -3.87461 2.50343 0
M  V30 22785 H 2131.56 -3.6055 2.41218 0
M  V30 22786 H 2132.23 -5.1688 1.9375 0
M  V30 22787 H 2134.7 -4.15003 0.301971 0
M  V30 22788 H 2133.58 -5.48881 -0.0459121 0
M  V30 22789 H 2133.84 -4.23971 -1.25303 0
M  V30 22790 N 2132.9 -0.505757 -1.49264 0
M  V30 22791 C 2134.31 -0.162021 -1.58775 0
M  V30 22792 C 2134.51 1.33366 -1.51048 0
M  V30 22793 O 2133.57 2.11001 -1.3869 0
M  V30 22794 C 2134.88 -0.743046 -2.91375 0
M  V30 22795 C 2136.43 -0.709582 -3.04851 0
M  V30 22796 C 2136.91 -1.26875 -4.40076 0
M  V30 22797 N 2138.4 -1.22966 -4.4658 0
M  V30 22798 C 2139.13 -1.63246 -5.49671 0
M  V30 22799 N 2138.63 -2.11141 -6.59842 0
M  V30 22800 N 2140.42 -1.54633 -5.40412 0
M  V30 22801 H 2132.57 -1.47812 -1.5253 0
M  V30 22802 H 2134.84 -0.613391 -0.722811 0
M  V30 22803 H 2134.54 -1.79218 -3.02612 0
M  V30 22804 H 2134.42 -0.206195 -3.76636 0
M  V30 22805 H 2136.8 0.330725 -2.93241 0
M  V30 22806 H 2136.88 -1.28363 -2.21261 0
M  V30 22807 H 2136.53 -2.30787 -4.52438 0
M  V30 22808 H 2136.46 -0.670599 -5.22313 0
M  V30 22809 H 2138.95 -0.878781 -3.6754 0
M  V30 22810 H 2139.26 -2.39934 -7.3461 0
M  V30 22811 H 2137.61 -2.15119 -6.6087 0
M  V30 22812 H 2140.8 -1.1703 -4.53235 0
M  V30 22813 H 2140.97 -1.86347 -6.20628 0
M  V30 22814 N 2134.38 1.55765 -0.239796 0
M  V30 22815 C 2135.62 1.98377 0.386152 0
M  V30 22816 C 2135.95 1.12912 1.58984 0
M  V30 22817 O 2135.22 0.210274 1.94768 0
M  V30 22818 H 2133.8 0.732661 0.145661 0
M  V30 22819 H 2136.46 1.91966 -0.336934 0
M  V30 22820 H 2135.55 3.04146 0.700123 0
M  V30 22821 N 2135.85 -0.0334016 1.57565 0
M  V30 22822 C 2136.8 -1.04313 2.02738 0
M  V30 22823 C 2137.79 -1.32286 0.915933 0
M  V30 22824 O 2138.98 -1.31943 1.17983 0
M  V30 22825 C 2136.11 -2.34558 2.50674 0
M  V30 22826 C 2135.2 -2.09694 3.68632 0
M  V30 22827 N 2135.59 -1.54874 4.81506 0
M  V30 22828 C 2133.88 -2.39998 3.75922 0
M  V30 22829 C 2134.59 -1.45715 5.63154 0
M  V30 22830 N 2133.56 -1.93121 5.08139 0
M  V30 22831 H 2137.36 -0.613226 2.87431 0
M  V30 22832 H 2134.88 -0.23979 1.6062 0
M  V30 22833 H 2136.87 -3.07699 2.81296 0
M  V30 22834 H 2135.53 -2.7823 1.67386 0
M  V30 22835 H 2136.55 -1.23205 5.03032 0
M  V30 22836 H 2133.22 -2.86775 3.03424 0
M  V30 22837 H 2134.61 -1.03858 6.63825 0
M  V30 22838 N 2137.33 -1.54609 -0.305591 0
M  V30 22839 C 2138.75 -1.4572 -0.650988 0
M  V30 22840 C 2138.95 -0.644662 -1.90909 0
M  V30 22841 O 2138 -0.150545 -2.52051 0
M  V30 22842 C 2139.32 -2.89634 -0.808259 0
M  V30 22843 C 2140.87 -2.99648 -0.904441 0
M  V30 22844 C 2141.34 -4.44748 -1.09375 0
M  V30 22845 N 2142.83 -4.48438 -1.16006 0
M  V30 22846 C 2143.57 -5.57887 -1.32474 0
M  V30 22847 N 2143.06 -6.77269 -1.4587 0
M  V30 22848 N 2144.86 -5.45567 -1.35326 0
M  V30 22849 H 2137.01 -2.05909 0.521082 0
M  V30 22850 H 2139.27 -0.932366 0.171455 0
M  V30 22851 H 2138.98 -3.51671 0.0452303 0
M  V30 22852 H 2138.85 -3.36787 -1.69866 0
M  V30 22853 H 2141.24 -2.37727 -1.74842 0
M  V30 22854 H 2141.32 -2.55798 0.00987599 0
M  V30 22855 H 2140.96 -5.07262 -0.25455 0
M  V30 22856 H 2140.89 -4.86224 -2.02222 0
M  V30 22857 H 2143.38 -3.62428 -1.07025 0
M  V30 22858 H 2143.7 -7.56439 -1.58179 0
M  V30 22859 H 2142.04 -6.80143 -1.42934 0
M  V30 22860 H 2145.23 -4.51248 -1.24469 0
M  V30 22861 H 2145.4 -6.30915 -1.47817 0
M  V30 22862 N 2138.81 0.568558 -1.46987 0
M  V30 22863 C 2140.22 1.1507 -1.47023 0
M  V30 22864 C 2140.57 1.94977 -0.218726 0
M  V30 22865 O 2139.7 2.05531 0.677201 0
M  V30 22866 C 2140.29 2.09348 -2.66381 0
M  V30 22867 C 2138.85 2.62857 -2.69413 0
M  V30 22868 C 2138 1.39006 -2.39943 0
M  V30 22869 H 2140.95 0.355745 -1.54661 0
M  V30 22870 H 2140.97 2.93044 -2.42705 0
M  V30 22871 H 2140.48 1.51163 -3.57451 0
M  V30 22872 H 2138.58 3.24872 -1.82452 0
M  V30 22873 H 2138.7 3.04626 -3.69784 0
M  V30 22874 H 2137.06 1.69297 -1.90291 0
M  V30 22875 H 2137.84 0.826309 -3.33207 0
M  V30 22876 N 2140.29 1.34929 0.814366 0
M  V30 22877 C 2141.54 1.27514 1.56795 0
M  V30 22878 C 2141.86 -0.152393 1.94404 0
M  V30 22879 O 2141.13 -1.08703 1.62974 0
M  V30 22880 H 2139.71 0.468993 0.581424 0
M  V30 22881 H 2142.37 1.68941 0.971845 0
M  V30 22882 H 2141.47 1.88573 2.4869 0
M  V30 22883 N 2141.77 -1.0356 1.18799 0
M  V30 22884 C 2142.99 -1.80487 1.01153 0
M  V30 22885 C 2143.41 -1.83603 -0.439927 0
M  V30 22886 O 2142.77 -1.27518 -1.30558 0
M  V30 22887 C 2142.82 -3.25853 1.56532 0
M  V30 22888 O 2142.54 -3.22983 2.95996 0
M  V30 22889 C 2144.04 -4.19406 1.43575 0
M  V30 22890 H 2141.26 -0.568214 0.356895 0
M  V30 22891 H 2143.8 -1.30482 1.57463 0
M  V30 22892 H 2141.96 -3.73071 1.04387 0
M  V30 22893 H 2142.37 -4.14085 3.21922 0
M  V30 22894 H 2143.85 -5.19319 1.87114 0
M  V30 22895 H 2144.32 -4.37507 0.385237 0
M  V30 22896 H 2144.93 -3.78055 1.94818 0
M  V30 22897 N 2143.25 -0.990834 -1.22557 0
M  V30 22898 C 2144.2 -0.510644 -2.22208 0
M  V30 22899 C 2145.18 0.420042 -1.55321 0
M  V30 22900 O 2146.37 0.247197 -1.75265 0
M  V30 22901 C 2143.5 0.17541 -3.42852 0
M  V30 22902 C 2142.59 -0.775458 -4.1695 0
M  V30 22903 N 2142.98 -1.92244 -4.67842 0
M  V30 22904 C 2141.28 -0.590913 -4.42068 0
M  V30 22905 C 2141.98 -2.5191 -5.24325 0
M  V30 22906 N 2140.95 -1.80198 -5.12864 0
M  V30 22907 H 2144.75 -1.38546 -2.59195 0
M  V30 22908 H 2142.27 -0.852831 -1.38205 0
M  V30 22909 H 2144.27 0.536797 -4.1343 0
M  V30 22910 H 2142.93 1.04638 -3.07377 0
M  V30 22911 H 2143.94 -2.3033 -4.63863 0
M  V30 22912 H 2140.61 0.234168 -4.16843 0
M  V30 22913 H 2142 -3.48832 -5.74252 0
M  V30 22914 N 2144.72 1.37856 -0.763775 0
M  V30 22915 C 2145.97 2.0064 -0.333966 0
M  V30 22916 C 2146.32 1.59545 1.07533 0
M  V30 22917 O 2145.62 0.827757 1.72797 0
M  V30 22918 C 2145.81 3.55083 -0.406337 0
M  V30 22919 C 2145.64 4.11176 -1.82112 0
M  V30 22920 C 2144.41 4.42485 -2.43998 0
M  V30 22921 C 2146.61 4.32729 -2.77939 0
M  V30 22922 N 2144.59 4.84246 -3.77332 0
M  V30 22923 C 2145.96 4.77011 -3.96057 0
M  V30 22924 C 2148.02 4.14847 -2.7533 0
M  V30 22925 C 2146.72 5.05284 -5.11938 0
M  V30 22926 C 2148.75 4.44252 -3.90377 0
M  V30 22927 C 2148.11 4.88766 -5.07235 0
M  V30 22928 H 2144.21 0.763502 -0.169082 0
M  V30 22929 H 2146.79 1.67302 -0.995906 0
M  V30 22930 H 2144.96 3.87746 0.225383 0
M  V30 22931 H 2146.69 4.04675 0.0447638 0
M  V30 22932 H 2143.45 4.31284 -1.9568 0
M  V30 22933 H 2143.87 5.09446 -4.45863 0
M  V30 22934 H 2148.51 3.7961 -1.86161 0
M  V30 22935 H 2146.23 5.39414 -6.01713 0
M  V30 22936 H 2149.82 4.32011 -3.89689 0
M  V30 22937 H 2148.7 5.11083 -5.9478 0
M  V30 22938 N 2146.2 0.513665 1.48994 0
M  V30 22939 C 2147.11 -0.262214 2.3313 0
M  V30 22940 C 2148.13 -0.955024 1.45449 0
M  V30 22941 O 2149.3 -0.933603 1.78454 0
M  V30 22942 C 2146.37 -1.30529 3.2119 0
M  V30 22943 C 2145.43 -0.624574 4.24732 0
M  V30 22944 C 2144.66 -1.61795 5.08584 0
M  V30 22945 O 2144.89 -2.84907 4.9415 0
M  V30 22946 O 2143.82 -1.16631 5.90492 0
M  V30 22947 H 2147.65 0.426785 3.00686 0
M  V30 22948 H 2145.23 0.274809 1.46851 0
M  V30 22949 H 2147.11 -1.90848 3.75706 0
M  V30 22950 H 2145.79 -1.97699 2.56314 0
M  V30 22951 H 2144.69 0.0186867 3.74095 0
M  V30 22952 H 2146.03 0.00489798 4.922 0
M  V30 22953 N 2147.68 -1.55636 0.248053 0
M  V30 22954 C 2148.93 -1.98148 -0.376864 0
M  V30 22955 C 2149.24 -1.13944 -1.58984 0
M  V30 22956 O 2150.45 -1.46475 -2.28598 0
M  V30 22957 C 2148.9 -3.52586 -0.721883 0
M  V30 22958 C 2148.51 -4.4553 0.469765 0
M  V30 22959 C 2150.26 -4.03751 -1.31093 0
M  V30 22960 C 2148.16 -5.91314 0.100837 0
M  V30 22961 H 2147.09 -0.740008 -0.144582 0
M  V30 22962 H 2149.74 -1.80161 0.348451 0
M  V30 22963 H 2148.13 -3.66272 -1.50536 0
M  V30 22964 H 2149.3 -4.43604 1.24708 0
M  V30 22965 H 2147.61 -4.04853 0.973816 0
M  V30 22966 H 2150.21 -5.10191 -1.6003 0
M  V30 22967 H 2150.55 -3.51167 -2.23578 0
M  V30 22968 H 2151.09 -3.93395 -0.590329 0
M  V30 22969 H 2147.83 -6.47937 0.992861 0
M  V30 22970 H 2147.35 -5.96373 -0.640255 0
M  V30 22971 H 2149.03 -6.46225 -0.316571 0
M  V30 22972 N 2149.16 0.0250451 -1.5758 0
M  V30 22973 C 2150.43 0.750684 -1.80621 0
M  V30 22974 C 2150.81 1.93359 -0.847083 0
M  V30 22975 O 2150.16 2.28236 0.109857 0
M  V30 22976 C 2150.37 1.17995 -3.28448 0
M  V30 22977 C 2151.72 1.5942 -3.93536 0
M  V30 22978 O 2152.74 1.27442 -3.32621 0
M  V30 22979 O 2151.6 2.18788 -5.00793 0
M  V30 22980 H 2148.7 0.363355 -0.742901 0
M  V30 22981 H 2151.24 0.00151411 -1.697 0
M  V30 22982 H 2150.02 0.335683 -3.89857 0
M  V30 22983 H 2149.64 1.98901 -3.44273 0
M  V30 22984 N 2150.64 1.54769 0.297388 0
M  V30 22985 C 2151.88 1.74221 1.03214 0
M  V30 22986 C 2152.21 0.529956 1.87141 0
M  V30 22987 O 2151.47 -0.488036 1.89517 0
M  V30 22988 C 2151.76 2.98592 1.96412 0
M  V30 22989 C 2151.43 4.32222 1.28433 0
M  V30 22990 C 2150.09 4.68546 1.09626 0
M  V30 22991 C 2152.44 5.15045 0.798634 0
M  V30 22992 C 2149.77 5.8527 0.409394 0
M  V30 22993 C 2152.12 6.32476 0.125474 0
M  V30 22994 C 2150.79 6.67458 -0.0745188 0
M  V30 22995 H 2150.06 0.637521 0.377688 0
M  V30 22996 H 2152.71 1.89028 0.306675 0
M  V30 22997 H 2151.01 2.78581 2.75499 0
M  V30 22998 H 2152.71 3.10837 2.5334 0
M  V30 22999 H 2149.3 4.03658 1.44078 0
M  V30 23000 H 2153.48 4.87477 0.931633 0
M  V30 23001 H 2148.74 6.10915 0.243492 0
M  V30 23002 H 2152.91 6.95919 -0.258751 0
M  V30 23003 H 2150.54 7.57759 -0.608755 0
M  V30 23004 N 2152.11 -0.560755 1.47286 0
M  V30 23005 C 2153.34 -1.34358 1.57339 0
M  V30 23006 C 2153.76 -1.87487 0.222299 0
M  V30 23007 O 2153.11 -1.64806 -0.78391 0
M  V30 23008 C 2153.16 -2.51596 2.5958 0
M  V30 23009 O 2152.89 -2.00664 3.89443 0
M  V30 23010 C 2154.39 -3.43856 2.79783 0
M  V30 23011 H 2151.61 -0.409692 0.531407 0
M  V30 23012 H 2154.15 -0.679628 1.92876 0
M  V30 23013 H 2152.31 -3.13936 2.26986 0
M  V30 23014 H 2152.72 -2.77175 4.4528 0
M  V30 23015 H 2154.19 -4.22542 3.55193 0
M  V30 23016 H 2154.67 -3.97177 1.87477 0
M  V30 23017 H 2155.28 -2.87333 3.1356 0
M  V30 23018 N 2153.59 -1.35359 -0.807199 0
M  V30 23019 C 2154.5 -1.30342 -1.9506 0
M  V30 23020 C 2155.52 -0.208425 -1.72747 0
M  V30 23021 O 2156.69 -0.437692 -1.96586 0
M  V30 23022 C 2153.76 -1.07437 -3.29633 0
M  V30 23023 C 2152.82 -2.26243 -3.64846 0
M  V30 23024 C 2152.05 -2.04423 -4.92998 0
M  V30 23025 O 2152.28 -1.01037 -5.6138 0
M  V30 23026 O 2151.21 -2.91769 -5.26455 0
M  V30 23027 H 2155.04 -2.26568 -2.02239 0
M  V30 23028 H 2152.62 -1.15724 -0.944893 0
M  V30 23029 H 2154.5 -0.9651 -4.102 0
M  V30 23030 H 2153.18 -0.142618 -3.23386 0
M  V30 23031 H 2152.08 -2.42735 -2.84659 0
M  V30 23032 H 2153.42 -3.17864 -3.75797 0
M  V30 23033 N 2155.07 1.02928 -1.19346 0
M  V30 23034 C 2156.32 1.75724 -0.990157 0
M  V30 23035 C 2156.63 1.89622 0.479885 0
M  V30 23036 O 2157.84 2.59384 0.802002 0
M  V30 23037 C 2156.29 3.15992 -1.7227 0
M  V30 23038 C 2155.9 3.10149 -3.23283 0
M  V30 23039 C 2157.65 3.93086 -1.60262 0
M  V30 23040 C 2155.55 4.45347 -3.89128 0
M  V30 23041 H 2154.48 0.658737 -0.366854 0
M  V30 23042 H 2157.13 1.15193 -1.42838 0
M  V30 23043 H 2155.52 3.76987 -1.21229 0
M  V30 23044 H 2156.69 2.58537 -3.81438 0
M  V30 23045 H 2155 2.46552 -3.35561 0
M  V30 23046 H 2157.6 4.93087 -2.06807 0
M  V30 23047 H 2157.94 4.12561 -0.556708 0
M  V30 23048 H 2158.48 3.38691 -2.08647 0
M  V30 23049 H 2155.22 4.31076 -4.93816 0
M  V30 23050 H 2154.74 4.97016 -3.35761 0
M  V30 23051 H 2156.42 5.14231 -3.92652 0
M  V30 23052 N 2156.55 0.997319 1.2203 0
M  V30 23053 C 2157.49 0.551276 2.2412 0
M  V30 23054 C 2158.46 -0.418681 1.60737 0
M  V30 23055 O 2159.65 -0.322451 1.88056 0
M  V30 23056 C 2156.79 -0.123569 3.44879 0
M  V30 23057 C 2155.9 0.888653 4.22761 0
M  V30 23058 C 2155.04 0.186868 5.30871 0
M  V30 23059 C 2154.08 1.18716 6.00477 0
M  V30 23060 N 2153.21 0.513378 7.00221 0
M  V30 23061 H 2158.05 1.42656 2.61636 0
M  V30 23062 H 2155.59 0.714493 1.28582 0
M  V30 23063 H 2157.55 -0.53179 4.13797 0
M  V30 23064 H 2156.18 -0.962614 3.08113 0
M  V30 23065 H 2155.23 1.41517 3.53096 0
M  V30 23066 H 2156.54 1.65019 4.70712 0
M  V30 23067 H 2155.7 -0.277858 6.06063 0
M  V30 23068 H 2154.44 -0.60714 4.83906 0
M  V30 23069 H 2153.44 1.66247 5.24063 0
M  V30 23070 H 2154.67 1.98212 6.4953 0
M  V30 23071 H 2152.61 -0.261113 6.5548 0
M  V30 23072 H 2152.53 1.21329 7.462 0
M  V30 23073 H 2153.8 0.0716018 7.79467 0
M  V30 23074 N 2158.03 -1.37449 0.771075 0
M  V30 23075 C 2159.44 -1.82352 0.400585 0
M  V30 23076 C 2159.79 -1.64247 -1.07318 0
M  V30 23077 O 2158.91 -1.15322 -1.83111 0
M  V30 23078 C 2159.51 -3.31054 0.720312 0
M  V30 23079 C 2158.07 -3.74238 0.402886 0
M  V30 23080 C 2157.21 -2.59986 0.964497 0
M  V30 23081 H 2160.17 -1.2593 0.965782 0
M  V30 23082 H 2160.19 -3.805 0.00472604 0
M  V30 23083 H 2159.7 -3.44199 1.793 0
M  V30 23084 H 2157.8 -3.66663 -0.662511 0
M  V30 23085 H 2157.91 -4.70365 0.910666 0
M  V30 23086 H 2156.28 -2.51715 0.388782 0
M  V30 23087 H 2157.06 -2.75924 2.04257 0
M  V30 23088 N 2159.5 -0.52156 -1.4872 0
M  V30 23089 C 2160.75 0.0155648 -2.02094 0
M  V30 23090 C 2161.07 1.35564 -1.40169 0
M  V30 23091 O 2160.34 1.87602 -0.564111 0
M  V30 23092 H 2158.92 0.0087409 -0.746949 0
M  V30 23093 H 2161.59 -0.683478 -1.82523 0
M  V30 23094 H 2160.68 0.130113 -3.11829 0
M  V30 23095 N 2160.98 1.55502 -0.256304 0
M  V30 23096 C 2161.91 2.24749 0.633265 0
M  V30 23097 C 2162.89 1.23102 1.17388 0
M  V30 23098 O 2164.08 1.51778 1.2115 0
M  V30 23099 C 2161.21 2.95418 1.82607 0
M  V30 23100 C 2160.16 4.03834 1.41782 0
M  V30 23101 C 2159.49 4.61978 2.69222 0
M  V30 23102 C 2160.79 5.19048 0.581913 0
M  V30 23103 H 2162.48 2.99348 0.0558207 0
M  V30 23104 H 2160.03 1.43978 0.0254079 0
M  V30 23105 H 2161.98 3.42565 2.45412 0
M  V30 23106 H 2160.71 2.18323 2.42905 0
M  V30 23107 H 2159.36 3.5747 0.813066 0
M  V30 23108 H 2159.01 3.81572 3.27737 0
M  V30 23109 H 2158.71 5.3517 2.42625 0
M  V30 23110 H 2160.24 5.11864 3.32908 0
M  V30 23111 H 2161.65 5.62363 1.11449 0
M  V30 23112 H 2160.05 5.98687 0.411617 0
M  V30 23113 H 2161.12 4.83216 -0.403719 0
M  V30 23114 N 2162.46 -0.0166879 1.57591 0
M  V30 23115 C 2163.69 -0.715388 1.93819 0
M  V30 23116 C 2164.1 -1.68753 0.855524 0
M  V30 23117 O 2163.44 -1.82858 -0.175702 0
M  V30 23118 C 2163.5 -1.51689 3.2593 0
M  V30 23119 C 2163.17 -0.708176 4.5148 0
M  V30 23120 C 2164.16 -0.00306199 5.199 0
M  V30 23121 C 2161.85 -0.659065 4.97957 0
M  V30 23122 C 2163.84 0.740329 6.33086 0
M  V30 23123 C 2161.53 0.0880628 6.11037 0
M  V30 23124 C 2162.53 0.786509 6.78456 0
M  V30 23125 O 2162.22 1.52148 7.89371 0
M  V30 23126 H 2161.95 -0.205311 0.644068 0
M  V30 23127 H 2164.5 0.0254916 2.05384 0
M  V30 23128 H 2162.73 -2.30187 3.10726 0
M  V30 23129 H 2164.42 -2.09936 3.47393 0
M  V30 23130 H 2165.19 -0.0319562 4.84989 0
M  V30 23131 H 2161.07 -1.19222 4.45317 0
M  V30 23132 H 2164.61 1.28603 6.85644 0
M  V30 23133 H 2160.51 0.118837 6.45391 0
M  V30 23134 H 2161.28 1.43645 8.05797 0
M  V30 23135 N 2163.94 -1.54924 -0.289176 0
M  V30 23136 C 2165.19 -1.74421 -1.02087 0
M  V30 23137 C 2165.51 -0.539388 -1.87392 0
M  V30 23138 O 2164.78 0.446105 -1.90753 0
M  V30 23139 H 2163.36 -0.643179 -0.379908 0
M  V30 23140 H 2166.02 -1.923 -0.317306 0
M  V30 23141 H 2165.12 -2.63841 -1.66716 0
M  V30 23142 N 2165.42 0.552936 -1.47582 0
M  V30 23143 C 2166.65 1.33329 -1.5782 0
M  V30 23144 C 2167.05 1.87809 -0.228975 0
M  V30 23145 O 2166.4 1.65914 0.788562 0
M  V30 23146 C 2166.46 2.53716 -2.54693 0
M  V30 23147 C 2166.12 2.2049 -4.00291 0
M  V30 23148 C 2167.12 1.77528 -4.88651 0
M  V30 23149 C 2164.81 2.31718 -4.45659 0
M  V30 23150 C 2166.8 1.46229 -6.204 0
M  V30 23151 C 2164.49 2.00031 -5.77435 0
M  V30 23152 C 2165.48 1.57355 -6.64627 0
M  V30 23153 O 2165.17 1.26073 -7.93953 0
M  V30 23154 H 2164.9 0.412583 -0.535492 0
M  V30 23155 H 2167.46 0.676216 -1.9395 0
M  V30 23156 H 2165.69 3.22328 -2.13639 0
M  V30 23157 H 2167.38 3.1579 -2.55012 0
M  V30 23158 H 2168.14 1.68343 -4.54847 0
M  V30 23159 H 2164.02 2.63894 -3.77996 0
M  V30 23160 H 2167.57 1.12845 -6.88412 0
M  V30 23161 H 2163.46 2.0885 -6.1078 0
M  V30 23162 H 2164.23 1.39667 -8.06496 0
M  V30 23163 N 2166.89 1.35785 0.800009 0
M  V30 23164 C 2167.84 1.29246 1.91217 0
M  V30 23165 C 2168.81 0.16314 1.65297 0
M  V30 23166 O 2170 0.347924 1.87601 0
M  V30 23167 C 2167.14 1.07697 3.27865 0
M  V30 23168 C 2166.25 2.2961 3.65928 0
M  V30 23169 C 2165.38 2.01158 4.91639 0
M  V30 23170 C 2164.42 3.19089 5.22349 0
M  V30 23171 N 2163.56 2.90371 6.39241 0
M  V30 23172 H 2168.4 2.24348 1.96142 0
M  V30 23173 H 2165.94 1.11515 0.959316 0
M  V30 23174 H 2167.9 0.93233 4.06649 0
M  V30 23175 H 2166.53 0.162546 3.2239 0
M  V30 23176 H 2165.58 2.54915 2.82351 0
M  V30 23177 H 2166.89 3.1765 3.84578 0
M  V30 23178 H 2166.04 1.83563 5.78264 0
M  V30 23179 H 2164.78 1.10413 4.75037 0
M  V30 23180 H 2163.79 3.37255 4.34211 0
M  V30 23181 H 2165.01 4.10645 5.40877 0
M  V30 23182 H 2162.96 2.02227 6.24052 0
M  V30 23183 H 2162.88 3.71946 6.58173 0
M  V30 23184 H 2164.14 2.76331 7.28877 0
M  V30 23185 N 2168.37 -1.02294 1.19891 0
M  V30 23186 C 2169.6 -1.79144 1.02912 0
M  V30 23187 C 2170.01 -1.84365 -0.425007 0
M  V30 23188 O 2169.35 -1.29092 -1.30694 0
M  V30 23189 C 2169.42 -3.25345 1.52941 0
M  V30 23190 C 2169.08 -3.43746 3.01144 0
M  V30 23191 C 2170.08 -3.33481 3.98857 0
M  V30 23192 C 2167.76 -3.69768 3.39966 0
M  V30 23193 C 2169.76 -3.48971 5.33383 0
M  V30 23194 C 2167.44 -3.84903 4.7465 0
M  V30 23195 C 2168.44 -3.74508 5.71168 0
M  V30 23196 O 2168.13 -3.89189 7.03411 0
M  V30 23197 H 2167.86 -0.570423 0.362759 0
M  V30 23198 H 2170.41 -1.29691 1.59278 0
M  V30 23199 H 2168.64 -3.75851 0.90955 0
M  V30 23200 H 2170.33 -3.8381 1.32079 0
M  V30 23201 H 2171.1 -3.13321 3.70209 0
M  V30 23202 H 2166.98 -3.76949 2.65387 0
M  V30 23203 H 2170.52 -3.40774 6.08703 0
M  V30 23204 H 2166.42 -4.04561 5.02992 0
M  V30 23205 H 2167.19 -4.06244 7.10569 0
M  V30 23206 N 2169.85 -1.00378 -1.21499 0
M  V30 23207 C 2170.78 -0.583318 -2.26097 0
M  V30 23208 C 2171.76 0.395257 -1.65444 0
M  V30 23209 O 2172.95 0.283508 -1.92119 0
M  V30 23210 C 2170.08 0.0920619 -3.47178 0
M  V30 23211 C 2169.03 -0.806168 -4.20339 0
M  V30 23212 C 2168.36 0.0027323 -5.347 0
M  V30 23213 C 2169.66 -2.1082 -4.77862 0
M  V30 23214 H 2171.35 -1.45765 -2.6152 0
M  V30 23215 H 2168.9 -0.702333 -1.25711 0
M  V30 23216 H 2170.85 0.397677 -4.19519 0
M  V30 23217 H 2169.57 1.00102 -3.10881 0
M  V30 23218 H 2168.23 -1.09559 -3.49846 0
M  V30 23219 H 2167.88 0.912942 -4.94646 0
M  V30 23220 H 2167.58 -0.595326 -5.84576 0
M  V30 23221 H 2169.1 0.302191 -6.09852 0
M  V30 23222 H 2170.52 -1.86581 -5.42089 0
M  V30 23223 H 2168.92 -2.656 -5.38123 0
M  V30 23224 H 2169.99 -2.77978 -3.97311 0
M  V30 23225 N 2171.33 1.37038 -0.778354 0
M  V30 23226 C 2172.26 2.3278 -0.183215 0
M  V30 23227 C 2173.24 1.56107 0.675623 0
M  V30 23228 O 2174.42 1.84314 0.611726 0
M  V30 23229 C 2171.55 3.40346 0.691526 0
M  V30 23230 C 2170.51 4.27948 -0.0665313 0
M  V30 23231 C 2169.83 5.26584 0.928085 0
M  V30 23232 C 2171.13 5.07137 -1.24936 0
M  V30 23233 H 2172.83 2.82801 -0.983049 0
M  V30 23234 H 2170.37 1.35969 -0.474169 0
M  V30 23235 H 2172.33 4.06306 1.11773 0
M  V30 23236 H 2171.05 2.88866 1.52395 0
M  V30 23237 H 2169.71 3.63528 -0.473586 0
M  V30 23238 H 2169.36 4.71381 1.75524 0
M  V30 23239 H 2169.06 5.86058 0.425371 0
M  V30 23240 H 2170.58 5.95419 1.35309 0
M  V30 23241 H 2172 5.662 -0.899476 0
M  V30 23242 H 2170.39 5.7597 -1.68461 0
M  V30 23243 H 2171.46 4.39425 -2.05021 0
M  V30 23244 N 2172.81 0.529439 1.48441 0
M  V30 23245 C 2174.05 -0.00486384 2.02799 0
M  V30 23246 C 2174.39 -1.33985 1.40576 0
M  V30 23247 O 2173.66 -1.86523 0.551326 0
M  V30 23248 C 2173.94 -0.127443 3.59874 0
M  V30 23249 C 2173.8 1.23268 4.3258 0
M  V30 23250 C 2175.12 -0.854486 4.31725 0
M  V30 23251 H 2172.24 -0.00029358 0.737 0
M  V30 23252 H 2174.88 0.686364 1.7717 0
M  V30 23253 H 2173.03 -0.716153 3.81842 0
M  V30 23254 H 2174.7 1.86245 4.22031 0
M  V30 23255 H 2172.94 1.8147 3.94019 0
M  V30 23256 H 2173.61 1.09991 5.40931 0
M  V30 23257 H 2176.09 -0.354911 4.14584 0
M  V30 23258 H 2174.97 -0.909151 5.41318 0
M  V30 23259 H 2175.23 -1.90464 3.98968 0
M  V30 23260 N 2174.29 -1.55364 0.264547 0
M  V30 23261 C 2175.53 -1.9936 -0.355245 0
M  V30 23262 C 2175.86 -1.15288 -1.56649 0
M  V30 23263 O 2175.12 -0.207938 -1.94592 0
M  V30 23264 C 2175.41 -3.48523 -0.791605 0
M  V30 23265 C 2175.08 -4.49807 0.313834 0
M  V30 23266 C 2173.74 -4.77223 0.617396 0
M  V30 23267 C 2176.09 -5.10323 1.05925 0
M  V30 23268 C 2173.42 -5.62426 1.67014 0
M  V30 23269 C 2175.77 -5.96669 2.10163 0
M  V30 23270 C 2174.44 -6.22411 2.41165 0
M  V30 23271 H 2173.71 -0.729509 -0.129993 0
M  V30 23272 H 2176.36 -1.87771 0.376055 0
M  V30 23273 H 2174.66 -3.57534 -1.60241 0
M  V30 23274 H 2176.36 -3.79964 -1.28173 0
M  V30 23275 H 2172.95 -4.28547 0.0671074 0
M  V30 23276 H 2177.13 -4.89174 0.837979 0
M  V30 23277 H 2172.39 -5.8062 1.91547 0
M  V30 23278 H 2176.56 -6.42598 2.68403 0
M  V30 23279 H 2174.19 -6.88226 3.22876 0
M  V30 23280 N 2175.76 0.00833021 -1.57598 0
M  V30 23281 C 2177.01 0.69406 -1.89382 0
M  V30 23282 C 2177.33 1.75397 -0.865751 0
M  V30 23283 O 2178.53 2.49374 -1.07353 0
M  V30 23284 C 2176.99 1.28562 -3.36154 0
M  V30 23285 C 2176.6 0.260972 -4.47239 0
M  V30 23286 C 2178.34 1.95003 -3.7706 0
M  V30 23287 C 2176.25 0.862051 -5.85083 0
M  V30 23288 H 2175.18 0.262992 -0.706648 0
M  V30 23289 H 2177.83 -0.0508492 -1.8343 0
M  V30 23290 H 2176.21 2.08092 -3.36918 0
M  V30 23291 H 2177.38 -0.50913 -4.57979 0
M  V30 23292 H 2175.7 -0.302516 -4.153 0
M  V30 23293 H 2178.3 2.40863 -4.77377 0
M  V30 23294 H 2178.64 2.77706 -3.10137 0
M  V30 23295 H 2179.17 1.22218 -3.7856 0
M  V30 23296 H 2175.91 0.0739761 -6.55458 0
M  V30 23297 H 2175.43 1.60151 -5.78024 0
M  V30 23298 H 2177.11 1.3632 -6.32476 0
M  V30 23299 N 2177.24 1.55075 0.280956 0
M  V30 23300 C 2178.52 1.6601 1.0344 0
M  V30 23301 C 2178.9 0.521384 2.0456 0
M  V30 23302 O 2178.25 -0.479533 2.23412 0
M  V30 23303 C 2178.46 3.04889 1.69834 0
M  V30 23304 C 2179.8 3.62374 2.21292 0
M  V30 23305 O 2180.83 3.07471 1.79834 0
M  V30 23306 O 2179.69 4.5855 2.97311 0
M  V30 23307 H 2176.78 0.673927 0.479324 0
M  V30 23308 H 2179.33 1.67417 0.277446 0
M  V30 23309 H 2178.1 3.7921 0.96517 0
M  V30 23310 H 2177.72 3.07347 2.52237 0
M  V30 23311 N 2178.72 -0.545102 1.47873 0
M  V30 23312 C 2179.95 -1.32682 1.58755 0
M  V30 23313 C 2180.36 -1.8724 0.242172 0
M  V30 23314 O 2179.72 -1.65628 -0.766386 0
M  V30 23315 C 2179.77 -2.48828 2.62234 0
M  V30 23316 O 2179.49 -1.96522 3.91549 0
M  V30 23317 C 2180.99 -3.40869 2.83414 0
M  V30 23318 H 2178.21 -0.404033 0.535722 0
M  V30 23319 H 2180.76 -0.659132 1.93586 0
M  V30 23320 H 2178.91 -3.11511 2.30303 0
M  V30 23321 H 2179.33 -2.72436 4.48195 0
M  V30 23322 H 2180.8 -4.18751 3.59655 0
M  V30 23323 H 2181.28 -3.95166 1.91679 0
M  V30 23324 H 2181.88 -2.83991 3.1659 0
M  V30 23325 N 2180.2 -1.36208 -0.792797 0
M  V30 23326 C 2181.44 -1.30249 -1.55053 0
M  V30 23327 C 2181.77 0.119193 -1.94134 0
M  V30 23328 O 2181.03 1.08769 -1.62689 0
M  V30 23329 C 2181.33 -2.16771 -2.84157 0
M  V30 23330 C 2180.99 -3.65368 -2.64229 0
M  V30 23331 C 2179.65 -4.0587 -2.58502 0
M  V30 23332 C 2182.01 -4.59598 -2.45804 0
M  V30 23333 C 2179.33 -5.38747 -2.32312 0
M  V30 23334 C 2181.69 -5.92688 -2.21141 0
M  V30 23335 C 2180.35 -6.32318 -2.13845 0
M  V30 23336 H 2179.62 -0.476617 -0.567378 0
M  V30 23337 H 2182.27 -1.6823 -0.914933 0
M  V30 23338 H 2180.57 -1.71716 -3.52166 0
M  V30 23339 H 2182.27 -2.09488 -3.41929 0
M  V30 23340 H 2178.86 -3.33236 -2.6954 0
M  V30 23341 H 2183.04 -4.29182 -2.49231 0
M  V30 23342 H 2178.3 -5.68437 -2.25143 0
M  V30 23343 H 2182.47 -6.65272 -2.05878 0
M  V30 23344 H 2180.1 -7.3521 -1.93314 0
M  V30 23345 N 2181.68 1.01656 -1.20431 0
M  V30 23346 C 2182.9 1.79392 -1.04084 0
M  V30 23347 C 2183.33 1.83678 0.405466 0
M  V30 23348 O 2182.68 1.27186 1.29203 0
M  V30 23349 C 2182.73 3.21706 -1.62904 0
M  V30 23350 O 2181.84 4.0319 -0.866689 0
M  V30 23351 H 2181.18 0.553315 -0.367068 0
M  V30 23352 H 2183.71 1.27864 -1.59725 0
M  V30 23353 H 2183.72 3.72418 -1.6664 0
M  V30 23354 H 2182.39 3.17901 -2.68164 0
M  V30 23355 H 2180.97 3.61788 -0.903537 0
M  V30 23356 N 2183.15 1.01021 1.20965 0
M  V30 23357 C 2184.4 0.6945 1.89792 0
M  V30 23358 C 2184.72 -0.77766 1.78822 0
M  V30 23359 O 2183.99 -1.55883 1.18648 0
M  V30 23360 H 2182.57 0.253892 0.702529 0
M  V30 23361 H 2185.23 1.28043 1.46938 0
M  V30 23362 H 2184.33 0.972254 2.9657 0
M  V30 23363 N 2184.63 -1.36623 0.78561 0
M  V30 23364 C 2185.88 -2.00083 0.365844 0
M  V30 23365 C 2186.23 -1.61235 -1.04981 0
M  V30 23366 O 2185.53 -0.855142 -1.71458 0
M  V30 23367 C 2185.72 -3.54391 0.462776 0
M  V30 23368 C 2185.55 -4.08226 1.8863 0
M  V30 23369 C 2184.32 -4.38547 2.51007 0
M  V30 23370 C 2186.52 -4.28252 2.84788 0
M  V30 23371 N 2184.5 -4.78181 3.84988 0
M  V30 23372 C 2185.87 -4.70649 4.03595 0
M  V30 23373 C 2187.92 -4.10414 2.81895 0
M  V30 23374 C 2186.63 -4.97076 5.19912 0
M  V30 23375 C 2188.65 -4.37985 3.97396 0
M  V30 23376 C 2188.02 -4.80635 5.14946 0
M  V30 23377 H 2184.11 -0.760715 0.181207 0
M  V30 23378 H 2186.7 -1.65696 1.0224 0
M  V30 23379 H 2184.87 -3.88055 -0.163668 0
M  V30 23380 H 2186.6 -4.04695 0.0196222 0
M  V30 23381 H 2183.36 -4.28117 2.02517 0
M  V30 23382 H 2183.78 -5.02288 4.53911 0
M  V30 23383 H 2188.42 -3.766 1.92177 0
M  V30 23384 H 2186.14 -5.29773 6.10219 0
M  V30 23385 H 2189.73 -4.25757 3.96513 0
M  V30 23386 H 2188.61 -5.01556 6.02836 0
M  V30 23387 N 2186.11 -0.537304 -1.48158 0
M  V30 23388 C 2187.36 -0.00384223 -2.017 0
M  V30 23389 C 2187.67 1.34625 -1.419 0
M  V30 23390 O 2188.88 1.96849 -1.86983 0
M  V30 23391 C 2187.33 0.0435291 -3.59874 0
M  V30 23392 C 2186.94 -1.30211 -4.2866 0
M  V30 23393 C 2188.69 0.525433 -4.21236 0
M  V30 23394 C 2186.59 -1.21492 -5.78786 0
M  V30 23395 H 2185.52 0.00233368 -0.753996 0
M  V30 23396 H 2188.17 -0.682181 -1.70348 0
M  V30 23397 H 2186.56 0.7871 -3.88099 0
M  V30 23398 H 2187.73 -2.06182 -4.12099 0
M  V30 23399 H 2186.04 -1.72034 -3.79201 0
M  V30 23400 H 2188.64 0.608744 -5.31223 0
M  V30 23401 H 2188.98 1.5329 -3.8705 0
M  V30 23402 H 2189.52 -0.162674 -3.97467 0
M  V30 23403 H 2186.26 -2.19778 -6.17558 0
M  V30 23404 H 2185.78 -0.496694 -5.9774 0
M  V30 23405 H 2187.46 -0.908641 -6.40588 0
M  V30 23406 N 2187.59 1.55221 -0.272782 0
M  V30 23407 C 2188.5 2.26098 0.62584 0
M  V30 23408 C 2189.51 1.28606 1.17203 0
M  V30 23409 O 2190.69 1.61537 1.20281 0
M  V30 23410 C 2187.76 2.96645 1.7945 0
M  V30 23411 C 2186.82 4.0961 1.28522 0
M  V30 23412 C 2186.05 4.76784 2.39819 0
M  V30 23413 O 2186.27 4.43155 3.59124 0
M  V30 23414 O 2185.21 5.64779 2.08107 0
M  V30 23415 H 2189.03 3.03656 0.0517442 0
M  V30 23416 H 2186.62 1.49346 -0.0402752 0
M  V30 23417 H 2188.5 3.40989 2.47597 0
M  V30 23418 H 2187.17 2.22006 2.35573 0
M  V30 23419 H 2186.08 3.69728 0.570286 0
M  V30 23420 H 2187.41 4.86143 0.769772 0
M  V30 23421 N 2189.07 2.77022e-05 1.576 0
M  V30 23422 C 2190.03 -0.976217 2.07371 0
M  V30 23423 C 2191.03 -1.27246 0.983113 0
M  V30 23424 O 2192.22 -1.21764 1.24576 0
M  V30 23425 C 2189.35 -2.30112 2.51518 0
M  V30 23426 H 2190.54 -0.545707 2.94893 0
M  V30 23427 H 2188.1 -0.247444 1.54329 0
M  V30 23428 H 2188.83 -2.77852 1.67239 0
M  V30 23429 H 2188.62 -2.09931 3.31167 0
M  V30 23430 H 2190.11 -3.00144 2.9035 0
M  V30 23431 N 2190.54 -1.55222 -0.272728 0
M  V30 23432 C 2191.79 -1.75841 -1.00429 0
M  V30 23433 C 2192.12 -0.559662 -1.86274 0
M  V30 23434 O 2191.37 0.457824 -1.90269 0
M  V30 23435 C 2191.67 -3.01679 -1.91637 0
M  V30 23436 C 2191.34 -4.34211 -1.2154 0
M  V30 23437 C 2190 -4.70231 -1.02158 0
M  V30 23438 C 2192.35 -5.1625 -0.716594 0
M  V30 23439 C 2189.68 -5.85847 -0.316231 0
M  V30 23440 C 2192.03 -6.32595 -0.0248364 0
M  V30 23441 C 2190.7 -6.67255 0.180696 0
M  V30 23442 H 2189.97 -0.643449 -0.367497 0
M  V30 23443 H 2192.61 -1.89492 -0.276563 0
M  V30 23444 H 2190.92 -2.82929 -2.71032 0
M  V30 23445 H 2192.62 -3.14828 -2.48363 0
M  V30 23446 H 2189.21 -4.05899 -1.37638 0
M  V30 23447 H 2193.39 -4.88898 -0.853961 0
M  V30 23448 H 2188.65 -6.11225 -0.14627 0
M  V30 23449 H 2192.82 -6.95419 0.369433 0
M  V30 23450 H 2190.45 -7.56694 0.729231 0
M  V30 23451 N 2192.02 0.537252 -1.4816 0
M  V30 23452 C 2193.43 1.11926 -1.49431 0
M  V30 23453 C 2193.78 1.94469 -0.260035 0
M  V30 23454 O 2192.91 2.06921 0.633453 0
M  V30 23455 C 2193.5 2.03651 -2.70762 0
M  V30 23456 C 2192.06 2.57083 -2.74927 0
M  V30 23457 C 2191.21 1.33885 -2.42837 0
M  V30 23458 H 2194.16 0.322859 -1.55381 0
M  V30 23459 H 2194.18 2.8783 -2.48866 0
M  V30 23460 H 2193.69 1.43547 -3.60577 0
M  V30 23461 H 2191.8 3.20929 -1.89302 0
M  V30 23462 H 2191.91 2.96714 -3.76162 0
M  V30 23463 H 2190.27 1.65223 -1.93839 0
M  V30 23464 H 2191.06 0.755445 -3.34885 0
M  V30 23465 N 2193.5 1.36626 0.785562 0
M  V30 23466 C 2194.73 1.34233 1.57446 0
M  V30 23467 C 2195.14 -0.0755322 1.88649 0
M  V30 23468 O 2194.5 -1.03351 1.50416 0
M  V30 23469 C 2194.55 2.1675 2.89312 0
M  V30 23470 O 2194.27 3.5301 2.59452 0
M  V30 23471 C 2195.77 2.22181 3.83602 0
M  V30 23472 H 2192.99 0.460309 0.488218 0
M  V30 23473 H 2195.54 1.79777 0.974701 0
M  V30 23474 H 2193.69 1.74751 3.45747 0
M  V30 23475 H 2194.11 3.96111 3.43797 0
M  V30 23476 H 2195.58 2.84268 4.73176 0
M  V30 23477 H 2196.06 1.22634 4.21732 0
M  V30 23478 H 2196.66 2.64433 3.331 0
M  V30 23479 N 2194.98 -1.01016 1.20969 0
M  V30 23480 C 2195.93 -2.09689 0.964317 0
M  V30 23481 C 2196.9 -1.6575 -0.107824 0
M  V30 23482 O 2198.08 -1.90762 0.0382323 0
M  V30 23483 C 2195.22 -3.41014 0.52949 0
M  V30 23484 C 2194.33 -3.98395 1.6705 0
M  V30 23485 C 2193.47 -5.17806 1.18534 0
M  V30 23486 C 2192.51 -5.67284 2.29902 0
M  V30 23487 N 2191.64 -6.77951 1.82558 0
M  V30 23488 H 2196.48 -2.30013 1.89467 0
M  V30 23489 H 2194.02 -1.12788 0.944309 0
M  V30 23490 H 2195.98 -4.16397 0.258662 0
M  V30 23491 H 2194.61 -3.20743 -0.363862 0
M  V30 23492 H 2193.66 -3.20046 2.05609 0
M  V30 23493 H 2194.97 -4.31113 2.50885 0
M  V30 23494 H 2194.13 -6.00417 0.870867 0
M  V30 23495 H 2192.87 -4.86669 0.316973 0
M  V30 23496 H 2191.87 -4.83273 2.62158 0
M  V30 23497 H 2193.1 -6.00453 3.17226 0
M  V30 23498 H 2191.04 -6.4863 0.980568 0
M  V30 23499 H 2190.96 -7.09896 2.59969 0
M  V30 23500 H 2192.23 -7.6411 1.54129 0
M  V30 23501 N 2196.46 -1.01661 -1.20428 0
M  V30 23502 C 2197.4 -0.586861 -2.23214 0
M  V30 23503 C 2198.37 0.393056 -1.61382 0
M  V30 23504 O 2199.56 0.292492 -1.88545 0
M  V30 23505 C 2196.7 0.0686858 -3.45032 0
M  V30 23506 C 2195.81 -0.955798 -4.21294 0
M  V30 23507 C 2194.95 -0.271301 -5.30507 0
M  V30 23508 C 2193.99 -1.28254 -5.98513 0
M  V30 23509 N 2193.12 -0.624713 -6.99315 0
M  V30 23510 H 2197.96 -1.468 -2.59333 0
M  V30 23511 H 2195.5 -0.734859 -1.27429 0
M  V30 23512 H 2197.46 0.465892 -4.14591 0
M  V30 23513 H 2196.09 0.913474 -3.09605 0
M  V30 23514 H 2195.14 -1.47116 -3.508 0
M  V30 23515 H 2196.45 -1.72487 -4.68027 0
M  V30 23516 H 2195.61 0.181403 -6.06429 0
M  V30 23517 H 2194.34 0.530078 -4.84811 0
M  V30 23518 H 2193.35 -1.74563 -5.21352 0
M  V30 23519 H 2194.57 -2.0852 -6.46294 0
M  V30 23520 H 2192.52 0.156798 -6.55813 0
M  V30 23521 H 2192.44 -1.33185 -7.44176 0
M  V30 23522 H 2193.71 -0.195599 -7.79255 0
M  V30 23523 N 2197.93 1.36205 -0.792844 0
M  V30 23524 C 2198.84 2.33789 -0.19485 0
M  V30 23525 C 2199.86 1.61207 0.65484 0
M  V30 23526 O 2201.04 1.93171 0.569822 0
M  V30 23527 C 2198.1 3.40405 0.657661 0
M  V30 23528 C 2197.16 4.28782 -0.210924 0
M  V30 23529 C 2196.4 5.30305 0.600993 0
M  V30 23530 O 2196.62 5.40019 1.83673 0
M  V30 23531 O 2195.55 6.019 -0.000914076 0
M  V30 23532 H 2199.38 2.86702 -1.00178 0
M  V30 23533 H 2196.96 1.38734 -0.554366 0
M  V30 23534 H 2198.85 4.05583 1.14368 0
M  V30 23535 H 2197.52 2.89786 1.44242 0
M  V30 23536 H 2196.43 3.66632 -0.743779 0
M  V30 23537 H 2197.76 4.82761 -0.95928 0
M  V30 23538 N 2199.41 0.545154 1.47871 0
M  V30 23539 C 2200.64 0.0211204 2.06889 0
M  V30 23540 C 2201.06 -1.26718 1.39957 0
M  V30 23541 O 2200.41 -1.75741 0.492067 0
M  V30 23542 C 2200.46 -0.190754 3.60996 0
M  V30 23543 O 2200.18 1.04652 4.25417 0
M  V30 23544 C 2201.69 -0.753445 4.3685 0
M  V30 23545 H 2198.91 0.0403753 0.669784 0
M  V30 23546 H 2201.45 0.755128 1.90048 0
M  V30 23547 H 2199.6 -0.874854 3.77392 0
M  V30 23548 H 2200.02 0.836702 5.17783 0
M  V30 23549 H 2201.49 -0.851043 5.454 0
M  V30 23550 H 2201.97 -1.76193 4.02309 0
M  V30 23551 H 2202.58 -0.105429 4.25169 0
M  V30 23552 N 2200.89 -1.55074 0.28101 0
M  V30 23553 C 2201.85 -2.21453 -0.590858 0
M  V30 23554 C 2202.85 -1.19423 -1.07679 0
M  V30 23555 O 2204.04 -1.44289 -0.976025 0
M  V30 23556 C 2201.18 -2.88515 -1.81582 0
M  V30 23557 H 2202.37 -2.99898 -0.0112027 0
M  V30 23558 H 2199.92 -1.56268 0.0316713 0
M  V30 23559 H 2200.66 -2.14097 -2.43584 0
M  V30 23560 H 2200.44 -3.63289 -1.47524 0
M  V30 23561 H 2201.93 -3.39211 -2.43569 0
M  V30 23562 N 2202.37 -0.00838561 -1.57598 0
M  V30 23563 C 2203.32 0.980309 -2.08946 0
M  V30 23564 C 2204.29 1.33612 -0.986761 0
M  V30 23565 O 2205.47 1.43304 -1.25971 0
M  V30 23566 C 2202.61 2.2643 -2.60429 0
M  V30 23567 C 2201.72 1.96678 -3.84632 0
M  V30 23568 C 2200.86 3.1922 -4.24584 0
M  V30 23569 C 2199.9 2.85192 -5.41601 0
M  V30 23570 N 2199.04 4.00297 -5.76807 0
M  V30 23571 H 2203.88 0.535499 -2.93149 0
M  V30 23572 H 2201.41 0.252751 -1.44912 0
M  V30 23573 H 2203.37 3.01504 -2.88359 0
M  V30 23574 H 2202 2.68565 -1.79088 0
M  V30 23575 H 2201.05 1.11936 -3.63558 0
M  V30 23576 H 2202.36 1.67603 -4.69799 0
M  V30 23577 H 2201.52 4.02633 -4.53841 0
M  V30 23578 H 2200.26 3.51441 -3.38143 0
M  V30 23579 H 2199.26 2.00189 -5.12059 0
M  V30 23580 H 2200.49 2.54211 -6.29725 0
M  V30 23581 H 2198.43 4.32398 -4.93323 0
M  V30 23582 H 2198.35 3.74774 -6.56567 0
M  V30 23583 H 2199.62 4.84473 -6.1066 0
M  V30 23584 N 2203.85 1.55365 0.264492 0
M  V30 23585 C 2205.09 1.76633 0.996429 0
M  V30 23586 C 2205.43 0.570511 1.85631 0
M  V30 23587 O 2204.7 -0.431717 1.89648 0
M  V30 23588 C 2204.98 3.07628 1.87182 0
M  V30 23589 C 2204.84 4.37581 1.0413 0
M  V30 23590 C 2206.16 3.34722 2.85743 0
M  V30 23591 H 2203.28 0.642628 0.36083 0
M  V30 23592 H 2205.92 1.88098 0.268185 0
M  V30 23593 H 2204.07 2.97985 2.49274 0
M  V30 23594 H 2205.74 4.59193 0.440436 0
M  V30 23595 H 2203.98 4.32426 0.345039 0
M  V30 23596 H 2204.65 5.25583 1.6872 0
M  V30 23597 H 2207.13 3.44214 2.33787 0
M  V30 23598 H 2206.01 4.27629 3.44129 0
M  V30 23599 H 2206.27 2.54775 3.61306 0
M  V30 23600 N 2205.33 -0.529387 1.48443 0
M  V30 23601 C 2206.57 -1.28709 1.56722 0
M  V30 23602 C 2206.9 -1.92703 0.240634 0
M  V30 23603 O 2206.18 -1.79315 -0.753422 0
M  V30 23604 C 2206.46 -2.37598 2.70591 0
M  V30 23605 C 2206.32 -1.7829 4.12956 0
M  V30 23606 C 2207.63 -3.39361 2.80218 0
M  V30 23607 H 2204.75 -0.466603 0.570483 0
M  V30 23608 H 2207.4 -0.589675 1.80618 0
M  V30 23609 H 2205.55 -2.97084 2.50347 0
M  V30 23610 H 2207.22 -1.2285 4.44641 0
M  V30 23611 H 2205.46 -1.08822 4.19929 0
M  V30 23612 H 2206.13 -2.57135 4.88452 0
M  V30 23613 H 2208.61 -2.89831 2.98558 0
M  V30 23614 H 2207.48 -4.12945 3.61618 0
M  V30 23615 H 2207.74 -3.99947 1.884 0
M  V30 23616 N 2206.8 -1.37041 -0.778305 0
M  V30 23617 C 2208.03 -1.35066 -1.56731 0
M  V30 23618 C 2208.45 0.0655266 -1.88686 0
M  V30 23619 O 2207.8 1.02552 -1.50962 0
M  V30 23620 C 2207.85 -2.18281 -2.88159 0
M  V30 23621 O 2207.58 -3.54381 -2.57577 0
M  V30 23622 C 2209.08 -2.24212 -3.82418 0
M  V30 23623 H 2206.3 -0.462891 -0.48577 0
M  V30 23624 H 2208.84 -1.80292 -0.965154 0
M  V30 23625 H 2207 -1.76582 -3.44815 0
M  V30 23626 H 2207.41 -3.97928 -3.41692 0
M  V30 23627 H 2208.88 -2.86774 -4.71662 0
M  V30 23628 H 2209.36 -1.24869 -4.21075 0
M  V30 23629 H 2209.97 -2.66196 -3.31693 0
M  V30 23630 N 2208.28 1.00373 -1.21503 0
M  V30 23631 C 2209.23 2.09175 -0.975424 0
M  V30 23632 C 2210.2 1.65805 0.0990324 0
M  V30 23633 O 2211.38 1.90739 -0.0483483 0
M  V30 23634 C 2208.52 3.40728 -0.547567 0
M  V30 23635 C 2207.64 3.97503 -1.6916 0
M  V30 23636 C 2206.77 5.1717 -1.21279 0
M  V30 23637 C 2205.81 5.66057 -2.32907 0
M  V30 23638 N 2204.95 6.76973 -1.8615 0
M  V30 23639 H 2209.79 2.29005 -1.90684 0
M  V30 23640 H 2207.32 1.12286 -0.950277 0
M  V30 23641 H 2209.28 4.16254 -0.280741 0
M  V30 23642 H 2207.91 3.20931 0.346848 0
M  V30 23643 H 2206.96 3.18951 -2.07303 0
M  V30 23644 H 2208.28 4.29776 -2.53167 0
M  V30 23645 H 2207.43 5.99947 -0.902697 0
M  V30 23646 H 2206.17 4.86494 -0.342777 0
M  V30 23647 H 2205.17 4.81876 -2.64718 0
M  V30 23648 H 2206.4 5.98763 -3.20406 0
M  V30 23649 H 2204.35 6.48101 -1.01495 0
M  V30 23650 H 2204.26 7.08507 -2.6373 0
M  V30 23651 H 2205.53 7.63282 -1.58179 0
M  V30 23652 N 2209.76 1.02298 1.19887 0
M  V30 23653 C 2210.71 0.598691 2.229 0
M  V30 23654 C 2211.68 -0.384492 1.61589 0
M  V30 23655 O 2212.86 -0.282489 1.88697 0
M  V30 23656 C 2210 -0.0503869 3.45063 0
M  V30 23657 C 2209.11 0.978127 4.20781 0
M  V30 23658 C 2208.25 0.299432 5.30355 0
M  V30 23659 C 2207.29 1.31426 5.97824 0
M  V30 23660 N 2206.43 0.66179 6.98974 0
M  V30 23661 H 2211.27 1.48173 2.58551 0
M  V30 23662 H 2208.8 0.741606 1.27038 0
M  V30 23663 H 2210.76 -0.443898 4.14832 0
M  V30 23664 H 2209.39 -0.897042 3.10085 0
M  V30 23665 H 2208.44 1.48975 3.50015 0
M  V30 23666 H 2209.75 1.74967 4.67106 0
M  V30 23667 H 2208.91 -0.14924 6.06516 0
M  V30 23668 H 2207.65 -0.50436 4.85085 0
M  V30 23669 H 2206.65 1.77326 5.20419 0
M  V30 23670 H 2207.88 2.11945 6.45179 0
M  V30 23671 H 2205.82 -0.122017 6.55887 0
M  V30 23672 H 2205.74 1.3713 7.43459 0
M  V30 23673 H 2207.01 0.236922 7.7914 0
M  V30 23674 N 2211.24 -1.35782 0.800057 0
M  V30 23675 C 2212.17 -2.32459 0.220225 0
M  V30 23676 C 2213.15 -1.57162 -0.650702 0
M  V30 23677 O 2214.33 -1.85264 -0.582326 0
M  V30 23678 C 2211.46 -3.41403 -0.637293 0
M  V30 23679 C 2210.42 -4.27788 0.134606 0
M  V30 23680 C 2209.74 -5.27994 -0.844192 0
M  V30 23681 C 2211.04 -5.05086 1.32988 0
M  V30 23682 H 2212.74 -2.81201 1.02792 0
M  V30 23683 H 2210.28 -1.35198 0.495741 0
M  V30 23684 H 2212.24 -4.08033 -1.05295 0
M  V30 23685 H 2210.96 -2.91253 -1.4778 0
M  V30 23686 H 2209.62 -3.62729 0.53136 0
M  V30 23687 H 2209.27 -4.74114 -1.68002 0
M  V30 23688 H 2208.97 -5.86661 -0.332081 0
M  V30 23689 H 2210.49 -5.97496 -1.25819 0
M  V30 23690 H 2211.91 -5.64697 0.989439 0
M  V30 23691 H 2210.3 -5.73217 1.77603 0
M  V30 23692 H 2211.37 -4.36108 2.11986 0
M  V30 23693 N 2212.72 -0.552988 -1.4758 0
M  V30 23694 C 2213.65 0.18541 -2.32763 0
M  V30 23695 C 2214.63 0.91288 -1.43529 0
M  V30 23696 O 2215.81 0.894171 -1.7239 0
M  V30 23697 C 2212.94 1.21853 -3.25222 0
M  V30 23698 C 2211.9 0.607789 -4.23663 0
M  V30 23699 C 2211.22 1.74524 -5.05416 0
M  V30 23700 C 2212.52 -0.435674 -5.2048 0
M  V30 23701 H 2214.22 -0.525735 -2.94748 0
M  V30 23702 H 2211.76 -0.254276 -1.41737 0
M  V30 23703 H 2213.71 1.74323 -3.83653 0
M  V30 23704 H 2212.44 1.95957 -2.61282 0
M  V30 23705 H 2211.1 0.104425 -3.66451 0
M  V30 23706 H 2210.75 2.47521 -4.37884 0
M  V30 23707 H 2210.45 1.34239 -5.72061 0
M  V30 23708 H 2211.97 2.27328 -5.66705 0
M  V30 23709 H 2213.38 0.0028008 -5.733 0
M  V30 23710 H 2211.78 -0.757172 -5.95304 0
M  V30 23711 H 2212.85 -1.33311 -4.66215 0
M  V30 23712 N 2214.19 1.54923 -0.28923 0
M  V30 23713 C 2215.1 2.26749 0.601824 0
M  V30 23714 C 2216.12 1.29842 1.15832 0
M  V30 23715 O 2217.3 1.62804 1.18561 0
M  V30 23716 C 2214.36 2.98532 1.76294 0
M  V30 23717 C 2213.42 4.1095 1.2417 0
M  V30 23718 C 2212.65 4.793 2.34748 0
M  V30 23719 O 2212.88 4.46939 3.54404 0
M  V30 23720 O 2211.81 5.66954 2.02105 0
M  V30 23721 H 2215.64 3.03694 0.0195345 0
M  V30 23722 H 2213.22 1.49295 -0.0561131 0
M  V30 23723 H 2215.1 3.43596 2.43967 0
M  V30 23724 H 2213.78 2.24493 2.33205 0
M  V30 23725 H 2212.69 3.70312 0.531039 0
M  V30 23726 H 2214.02 4.86932 0.718166 0
M  V30 23727 N 2215.67 0.0167433 1.57591 0
M  V30 23728 C 2216.58 -0.985172 2.12912 0
M  V30 23729 C 2217.6 -1.36555 1.07836 0
M  V30 23730 O 2218.77 -1.44948 1.39828 0
M  V30 23731 C 2215.84 -2.253 2.63516 0
M  V30 23732 C 2214.9 -1.93419 3.83259 0
M  V30 23733 C 2214.13 -3.14157 4.3144 0
M  V30 23734 O 2214.36 -4.26406 3.78859 0
M  V30 23735 O 2213.29 -2.97177 5.23421 0
M  V30 23736 H 2217.12 -0.544836 2.98773 0
M  V30 23737 H 2214.7 -0.203115 1.48013 0
M  V30 23738 H 2216.58 -2.99751 2.96188 0
M  V30 23739 H 2215.26 -2.68539 1.80745 0
M  V30 23740 H 2214.16 -1.16392 3.55533 0
M  V30 23741 H 2215.5 -1.55005 4.67155 0
M  V30 23742 N 2217.15 -1.55503 -0.256249 0
M  V30 23743 C 2218.4 -1.761 -0.983455 0
M  V30 23744 C 2218.71 -0.578928 -1.86836 0
M  V30 23745 O 2219.92 -0.667694 -2.63162 0
M  V30 23746 C 2218.37 -3.11733 -1.79863 0
M  V30 23747 C 2217.98 -4.37559 -0.961571 0
M  V30 23748 C 2219.73 -3.41672 -2.51913 0
M  V30 23749 C 2217.63 -5.64226 -1.7721 0
M  V30 23750 H 2216.56 -0.656453 -0.370925 0
M  V30 23751 H 2219.21 -1.81944 -0.23846 0
M  V30 23752 H 2217.6 -2.9997 -2.58522 0
M  V30 23753 H 2218.77 -4.60284 -0.217967 0
M  V30 23754 H 2217.09 -4.14885 -0.35484 0
M  V30 23755 H 2219.68 -4.33522 -3.1299 0
M  V30 23756 H 2220.03 -2.62567 -3.23054 0
M  V30 23757 H 2220.56 -3.54608 -1.80271 0
M  V30 23758 H 2217.3 -6.46126 -1.10459 0
M  V30 23759 H 2216.82 -5.45617 -2.49123 0
M  V30 23760 H 2218.5 -6.03141 -2.34158 0
M  V30 23761 N 2218.63 0.521507 -1.48721 0
M  V30 23762 C 2219.88 1.27687 -1.5717 0
M  V30 23763 C 2220.2 1.92896 -0.249309 0
M  V30 23764 O 2219.46 1.80292 0.761131 0
M  V30 23765 C 2219.76 2.38143 -2.66501 0
M  V30 23766 C 2219.42 1.9053 -4.08667 0
M  V30 23767 C 2218.09 1.77263 -4.4736 0
M  V30 23768 C 2220.44 1.54654 -4.97726 0
M  V30 23769 C 2217.77 1.26468 -5.72907 0
M  V30 23770 C 2220.12 1.05318 -6.23771 0
M  V30 23771 C 2218.78 0.906745 -6.61313 0
M  V30 23772 H 2218.05 0.467238 -0.575125 0
M  V30 23773 H 2220.7 0.581019 -1.82473 0
M  V30 23774 H 2219 3.13432 -2.3509 0
M  V30 23775 H 2220.7 2.96252 -2.70251 0
M  V30 23776 H 2217.29 2.0181 -3.78115 0
M  V30 23777 H 2221.47 1.6376 -4.68504 0
M  V30 23778 H 2216.73 1.13825 -6.00711 0
M  V30 23779 H 2220.9 0.766318 -6.92171 0
M  V30 23780 H 2218.53 0.51095 -7.58481 0
M  V30 23781 N 2220.11 1.37452 0.771027 0
M  V30 23782 C 2221.52 1.29241 1.34735 0
M  V30 23783 C 2221.87 -0.0596564 1.96109 0
M  V30 23784 O 2220.99 -0.9615 1.93866 0
M  V30 23785 C 2221.59 2.34042 2.44969 0
M  V30 23786 C 2220.15 2.29463 2.98368 0
M  V30 23787 C 2219.29 2.17834 1.71592 0
M  V30 23788 H 2222.25 1.48063 0.57123 0
M  V30 23789 H 2222.27 1.98749 3.24467 0
M  V30 23790 H 2221.78 3.32436 2.0027 0
M  V30 23791 H 2219.88 1.34595 3.4744 0
M  V30 23792 H 2219.99 3.22906 3.53933 0
M  V30 23793 H 2218.36 1.64392 1.94544 0
M  V30 23794 H 2219.14 3.18143 1.28995 0
M  V30 23795 N 2221.58 -0.997276 1.22033 0
M  V30 23796 C 2223 -1.2602 0.979348 0
M  V30 23797 C 2223.2 -1.98785 -0.329685 0
M  V30 23798 O 2222.26 -2.29477 -1.05341 0
M  V30 23799 C 2223.57 -2.07627 2.17512 0
M  V30 23800 C 2225.12 -2.20826 2.21821 0
M  V30 23801 C 2225.59 -3.05819 3.40938 0
M  V30 23802 N 2227.08 -3.13406 3.41073 0
M  V30 23803 C 2227.82 -3.79447 4.29892 0
M  V30 23804 N 2227.31 -4.47453 5.28922 0
M  V30 23805 N 2229.11 -3.76165 4.17679 0
M  V30 23806 H 2221.26 -0.509316 2.06203 0
M  V30 23807 H 2223.52 -0.287525 0.903346 0
M  V30 23808 H 2223.23 -1.61518 3.12418 0
M  V30 23809 H 2223.1 -3.08381 2.17211 0
M  V30 23810 H 2225.49 -2.66151 1.27466 0
M  V30 23811 H 2225.57 -1.19516 2.26162 0
M  V30 23812 H 2225.21 -2.61195 4.35591 0
M  V30 23813 H 2225.14 -4.0726 3.33836 0
M  V30 23814 H 2227.63 -2.65003 2.6941 0
M  V30 23815 H 2227.95 -4.95572 5.92982 0
M  V30 23816 H 2226.29 -4.46215 5.32839 0
M  V30 23817 H 2229.48 -3.22196 3.3957 0
M  V30 23818 H 2229.66 -4.27355 4.87106 0
M  V30 23819 N 2223.06 -1.02932 -1.19343 0
M  V30 23820 C 2224.31 -0.726041 -1.89037 0
M  V30 23821 C 2224.64 0.745395 -1.7965 0
M  V30 23822 O 2223.89 1.55853 -1.18357 0
M  V30 23823 C 2224.19 -1.12325 -3.3929 0
M  V30 23824 C 2223.86 -2.59304 -3.6888 0
M  V30 23825 C 2222.52 -2.9946 -3.76666 0
M  V30 23826 C 2224.87 -3.54393 -3.82172 0
M  V30 23827 C 2222.2 -4.33618 -3.95212 0
M  V30 23828 C 2224.55 -4.88255 -4.02231 0
M  V30 23829 C 2223.22 -5.28099 -4.0825 0
M  V30 23830 H 2222.49 -0.265677 -0.691735 0
M  V30 23831 H 2225.13 -1.29225 -1.41326 0
M  V30 23832 H 2223.44 -0.475653 -3.88902 0
M  V30 23833 H 2225.13 -0.866106 -3.91535 0
M  V30 23834 H 2221.72 -2.27195 -3.63429 0
M  V30 23835 H 2225.91 -3.24521 -3.75499 0
M  V30 23836 H 2221.16 -4.64023 -3.98111 0
M  V30 23837 H 2225.34 -5.6185 -4.11458 0
M  V30 23838 H 2222.97 -6.32064 -4.22373 0
M  V30 23839 N 2224.54 1.35356 -0.807246 0
M  V30 23840 C 2225.79 1.98357 -0.387157 0
M  V30 23841 C 2226.11 1.64355 1.04939 0
M  V30 23842 O 2225.38 0.926369 1.72613 0
M  V30 23843 H 2223.96 0.733732 -0.140167 0
M  V30 23844 H 2226.62 1.65258 -1.03323 0
M  V30 23845 H 2225.72 3.08175 -0.493406 0
M  V30 23846 N 2226.02 0.560807 1.47284 0
M  V30 23847 C 2226.95 -0.232781 2.2701 0
M  V30 23848 C 2227.93 -0.917015 1.34274 0
M  V30 23849 O 2229.11 -0.935286 1.6366 0
M  V30 23850 C 2226.24 -1.332 3.11409 0
M  V30 23851 C 2225.29 -0.755945 4.19747 0
M  V30 23852 S 2226.12 0.400259 5.34002 0
M  V30 23853 C 2227.28 -0.700696 6.21965 0
M  V30 23854 H 2227.51 0.443735 2.9397 0
M  V30 23855 H 2225.04 0.347207 1.50445 0
M  V30 23856 H 2227 -1.9615 3.60604 0
M  V30 23857 H 2225.66 -1.98037 2.43803 0
M  V30 23858 H 2224.85 -1.58152 4.78544 0
M  V30 23859 H 2224.46 -0.202554 3.73451 0
M  V30 23860 H 2226.75 -1.59191 6.58532 0
M  V30 23861 H 2227.69 -0.150002 7.07941 0
M  V30 23862 H 2228.1 -0.994986 5.55662 0
M  V30 23863 N 2227.5 -1.54768 0.297442 0
M  V30 23864 C 2228.91 -1.85669 -0.195914 0
M  V30 23865 C 2229.26 -1.2194 -1.53704 0
M  V30 23866 O 2228.38 -0.515791 -2.10163 0
M  V30 23867 C 2228.98 -3.36858 -0.362259 0
M  V30 23868 C 2227.54 -3.67804 -0.799836 0
M  V30 23869 C 2226.68 -2.77141 0.0939065 0
M  V30 23870 H 2229.64 -1.49989 0.518565 0
M  V30 23871 H 2229.66 -3.61169 -1.19739 0
M  V30 23872 H 2229.17 -3.83212 0.613988 0
M  V30 23873 H 2227.27 -3.26964 -1.78676 0
M  V30 23874 H 2227.38 -4.75049 -0.62169 0
M  V30 23875 H 2225.75 -2.51109 -0.42621 0
M  V30 23876 H 2226.53 -3.26316 1.06644 0
M  V30 23877 N 2228.97 -0.0251005 -1.5758 0
M  V30 23878 C 2229.91 0.98676 -2.06871 0
M  V30 23879 C 2230.92 1.29136 -0.991354 0
M  V30 23880 O 2232.11 1.25671 -1.26763 0
M  V30 23881 C 2229.21 2.31521 -2.4749 0
M  V30 23882 C 2228.38 2.19636 -3.78257 0
M  V30 23883 C 2227.44 3.35381 -4.0547 0
M  V30 23884 O 2226.47 3.12446 -4.7578 0
M  V30 23885 N 2227.67 4.59044 -3.55329 0
M  V30 23886 H 2230.43 0.566224 -2.94303 0
M  V30 23887 H 2227.99 0.161747 -1.6109 0
M  V30 23888 H 2229.99 3.07772 -2.6279 0
M  V30 23889 H 2228.56 2.65229 -1.65445 0
M  V30 23890 H 2227.78 1.28138 -3.72793 0
M  V30 23891 H 2229.06 2.08895 -4.6394 0
M  V30 23892 H 2228.46 4.80573 -2.9844 0
M  V30 23893 H 2227.02 5.32477 -3.75914 0
M  V30 23894 N 2230.45 1.55637 0.247999 0
M  V30 23895 C 2231.7 1.7768 0.977639 0
M  V30 23896 C 2232.03 0.590167 1.85015 0
M  V30 23897 O 2231.31 -0.411578 1.90095 0
M  V30 23898 C 2231.59 3.09596 1.83908 0
M  V30 23899 C 2231.44 4.38661 0.994833 0
M  V30 23900 C 2232.76 3.37734 2.82177 0
M  V30 23901 H 2229.88 0.646419 0.353994 0
M  V30 23902 H 2232.52 1.88372 0.248219 0
M  V30 23903 H 2230.67 3.00612 2.46099 0
M  V30 23904 H 2232.34 4.59634 0.391708 0
M  V30 23905 H 2230.59 4.32767 0.299155 0
M  V30 23906 H 2231.26 5.27343 1.63136 0
M  V30 23907 H 2233.73 3.46674 2.30123 0
M  V30 23908 H 2232.61 4.31255 3.39574 0
M  V30 23909 H 2232.87 2.58593 3.58584 0
M  V30 23910 N 2231.93 -0.513613 1.48996 0
M  V30 23911 C 2232.86 -1.62541 1.67639 0
M  V30 23912 C 2233.84 -1.61792 0.525116 0
M  V30 23913 O 2235.03 -1.78731 0.759534 0
M  V30 23914 C 2232.16 -3.01076 1.7312 0
M  V30 23915 C 2231.11 -3.16688 2.87911 0
M  V30 23916 C 2230.44 -4.56448 2.78494 0
M  V30 23917 C 2231.74 -2.97906 4.2901 0
M  V30 23918 H 2233.43 -1.47194 2.60719 0
M  V30 23919 H 2230.98 -0.706692 1.25467 0
M  V30 23920 H 2232.93 -3.78742 1.84749 0
M  V30 23921 H 2231.65 -3.17483 0.766297 0
M  V30 23922 H 2230.31 -2.41444 2.75863 0
M  V30 23923 H 2229.96 -4.69714 1.79938 0
M  V30 23924 H 2229.66 -4.67837 3.55531 0
M  V30 23925 H 2231.19 -5.36192 2.92113 0
M  V30 23926 H 2232.6 -3.65351 4.41805 0
M  V30 23927 H 2231 -3.20776 5.07172 0
M  V30 23928 H 2232.07 -1.94157 4.44332 0
M  V30 23929 N 2233.41 -1.37859 -0.763727 0
M  V30 23930 C 2234.66 -1.33245 -1.51954 0
M  V30 23931 C 2234.98 0.0801367 -1.94835 0
M  V30 23932 O 2234.25 1.02579 -1.66896 0
M  V30 23933 H 2232.83 -0.49025 -0.563617 0
M  V30 23934 H 2235.49 -1.72432 -0.908474 0
M  V30 23935 H 2234.59 -1.97673 -2.4152 0
M  V30 23936 N 2234.89 0.990791 -1.22561 0
M  V30 23937 C 2236.12 1.76609 -1.07782 0
M  V30 23938 C 2236.53 1.85109 0.371481 0
M  V30 23939 O 2235.89 1.32276 1.25735 0
M  V30 23940 C 2235.94 3.19819 -1.68518 0
M  V30 23941 O 2235.66 3.11775 -3.07779 0
M  V30 23942 C 2237.16 4.13788 -1.59042 0
M  V30 23943 H 2234.38 0.554576 -0.377738 0
M  V30 23944 H 2236.92 1.24548 -1.62197 0
M  V30 23945 H 2235.08 3.6894 -1.18161 0
M  V30 23946 H 2235.49 4.01852 -3.37069 0
M  V30 23947 H 2236.97 5.12017 -2.06259 0
M  V30 23948 H 2237.44 4.35776 -0.547349 0
M  V30 23949 H 2238.05 3.70564 -2.08715 0
M  V30 23950 N 2236.37 1.03564 1.18795 0
M  V30 23951 C 2237.64 0.650466 1.84468 0
M  V30 23952 C 2238.02 -0.870399 1.92321 0
M  V30 23953 O 2237.37 -1.76983 1.44531 0
M  V30 23954 C 2237.58 1.32042 3.23057 0
M  V30 23955 C 2238.93 1.44799 3.99147 0
M  V30 23956 O 2239.95 1.27812 3.32479 0
M  V30 23957 O 2238.81 1.72432 5.18584 0
M  V30 23958 H 2235.91 0.22696 0.795247 0
M  V30 23959 H 2238.45 1.13421 1.26229 0
M  V30 23960 H 2237.22 2.35876 3.12215 0
M  V30 23961 H 2236.85 0.824968 3.88947 0
M  V30 23962 N 2237.84 -1.34926 0.814413 0
M  V30 23963 C 2238.79 -2.31572 0.218465 0
M  V30 23964 C 2239.79 -1.57004 -0.6361 0
M  V30 23965 O 2240.99 -1.7207 -0.52839 0
M  V30 23966 H 2237.37 -0.750207 0.0518931 0
M  V30 23967 H 2239.34 -2.7937 1.04857 0
M  V30 23968 C 2238.09 -3.42271 -0.612009 0
M  V30 23969 H 2237.41 -3.99784 0.0362281 0
M  V30 23970 H 2238.85 -4.12154 -0.995245 0
M  V30 23971 C 2237.31 -2.85987 -1.78082 0
M  V30 23972 O 2237.84 -2.80173 -2.87865 0
M  V30 23973 N 2236.04 -2.42927 -1.59484 0
M  V30 23974 H 2235.59 -2.47855 -0.701831 0
M  V30 23975 H 2235.55 -2.05617 -2.37842 0
M  V30 23976 N 2239.32 -0.56861 -1.46985 0
M  V30 23977 C 2240.57 -0.0487377 -2.02041 0
M  V30 23978 C 2240.89 1.31037 -1.44411 0
M  V30 23979 O 2240.16 1.85713 -0.62351 0
M  V30 23980 H 2238.74 -0.0150271 -0.746849 0
M  V30 23981 H 2241.4 -0.7412 -1.80256 0
M  V30 23982 H 2240.5 0.0308412 -3.12085 0
M  V30 23983 N 2240.8 1.54608 -0.305646 0
M  V30 23984 C 2242.21 1.85771 0.186065 0
M  V30 23985 C 2242.56 1.22753 1.53056 0
M  V30 23986 O 2241.69 0.526929 2.09887 0
M  V30 23987 C 2242.28 3.37045 0.34439 0
M  V30 23988 C 2240.84 3.68223 0.780319 0
M  V30 23989 C 2239.99 2.77087 -0.108603 0
M  V30 23990 H 2242.94 1.49712 -0.526512 0
M  V30 23991 H 2242.96 3.61799 1.17822 0
M  V30 23992 H 2242.47 3.82881 -0.634302 0
M  V30 23993 H 2240.57 3.27907 1.7694 0
M  V30 23994 H 2240.69 4.75372 0.596488 0
M  V30 23995 H 2239.05 2.51331 0.412887 0
M  V30 23996 H 2239.83 3.25745 -1.08373 0
M  V30 23997 N 2242.28 0.033457 1.57564 0
M  V30 23998 C 2243.24 -0.932011 2.09395 0
M  V30 23999 C 2244.24 -1.25132 1.00988 0
M  V30 24000 O 2245.43 -1.19094 1.27131 0
M  V30 24001 C 2242.56 -2.24725 2.56342 0
M  V30 24002 H 2243.76 -0.483033 2.95984 0
M  V30 24003 H 2241.31 -0.214653 1.54819 0
M  V30 24004 H 2242.04 -2.74242 1.73095 0
M  V30 24005 H 2241.83 -2.02859 3.35545 0
M  V30 24006 H 2243.32 -2.93918 2.96651 0
M  V30 24007 N 2243.76 -1.55766 -0.239741 0
M  V30 24008 C 2245 -1.77932 -0.96677 0
M  V30 24009 C 2245.33 -0.599047 -1.85045 0
M  V30 24010 O 2244.59 0.417362 -1.91198 0
M  V30 24011 C 2244.88 -3.05676 -1.85195 0
M  V30 24012 C 2244.55 -4.36691 -1.12303 0
M  V30 24013 C 2243.21 -4.72292 -0.921606 0
M  V30 24014 C 2245.56 -5.17654 -0.606928 0
M  V30 24015 C 2242.89 -5.86386 -0.191893 0
M  V30 24016 C 2245.24 -6.32505 0.109352 0
M  V30 24017 C 2243.91 -6.66722 0.32219 0
M  V30 24018 H 2243.18 -0.651099 -0.353766 0
M  V30 24019 H 2245.83 -1.90036 -0.236307 0
M  V30 24020 H 2244.13 -2.88614 -2.6497 0
M  V30 24021 H 2245.83 -3.20026 -2.41629 0
M  V30 24022 H 2242.42 -4.08727 -1.28997 0
M  V30 24023 H 2246.6 -4.90599 -0.750067 0
M  V30 24024 H 2241.86 -6.11398 -0.0165874 0
M  V30 24025 H 2246.03 -6.94479 0.516859 0
M  V30 24026 H 2243.66 -7.54977 0.889573 0
M  V30 24027 N 2245.23 0.505704 -1.49266 0
M  V30 24028 C 2246.48 1.26199 -1.5875 0
M  V30 24029 C 2246.81 1.92296 -0.271261 0
M  V30 24030 O 2246.09 1.80491 0.724799 0
M  V30 24031 C 2246.37 2.33263 -2.74336 0
M  V30 24032 C 2246.22 1.71698 -4.1574 0
M  V30 24033 C 2247.54 3.3486 -2.85581 0
M  V30 24034 H 2244.66 0.457468 -0.577834 0
M  V30 24035 H 2247.3 0.560865 -1.81533 0
M  V30 24036 H 2245.45 2.93063 -2.55042 0
M  V30 24037 H 2247.13 1.15761 -4.46539 0
M  V30 24038 H 2245.37 1.02128 -4.21607 0
M  V30 24039 H 2246.04 2.49332 -4.92481 0
M  V30 24040 H 2248.52 2.85045 -3.03132 0
M  V30 24041 H 2247.39 4.0714 -3.68142 0
M  V30 24042 H 2247.65 3.969 -1.94739 0
M  V30 24043 N 2246.71 1.38262 0.756405 0
M  V30 24044 C 2247.94 1.3772 1.55074 0
M  V30 24045 C 2248.36 -0.0316069 1.88073 0
M  V30 24046 O 2247.72 -1.0129 1.50366 0
M  V30 24047 C 2247.77 2.237 2.82826 0
M  V30 24048 O 2246.87 1.65217 3.77859 0
M  V30 24049 H 2246.21 0.469893 0.469144 0
M  V30 24050 H 2248.74 1.81987 0.934987 0
M  V30 24051 H 2248.75 2.37459 3.31779 0
M  V30 24052 H 2247.43 3.26095 2.58138 0
M  V30 24053 H 2246.01 1.60584 3.36552 0
M  V30 24054 N 2248.19 -0.984277 1.23084 0
M  V30 24055 C 2249.14 -2.07597 1.00858 0
M  V30 24056 C 2250.11 -1.65941 -0.0726418 0
M  V30 24057 O 2251.29 -1.90638 0.078687 0
M  V30 24058 C 2248.43 -3.39814 0.601704 0
M  V30 24059 C 2247.55 -3.94762 1.75463 0
M  V30 24060 C 2246.68 -5.15175 1.29491 0
M  V30 24061 C 2245.72 -5.6228 2.41883 0
M  V30 24062 N 2244.86 -6.73926 1.96897 0
M  V30 24063 H 2249.7 -2.25943 1.94303 0
M  V30 24064 H 2247.23 -1.1076 0.968021 0
M  V30 24065 H 2249.19 -4.15755 0.346927 0
M  V30 24066 H 2247.82 -3.21442 -0.295746 0
M  V30 24067 H 2246.87 -3.15612 2.12351 0
M  V30 24068 H 2248.19 -4.25694 2.59973 0
M  V30 24069 H 2247.34 -5.98435 0.998029 0
M  V30 24070 H 2246.08 -4.85887 0.420131 0
M  V30 24071 H 2245.08 -4.77604 2.7235 0
M  V30 24072 H 2246.31 -5.93589 3.29891 0
M  V30 24073 H 2244.25 -6.46404 1.11793 0
M  V30 24074 H 2244.17 -7.04222 2.74968 0
M  V30 24075 H 2245.44 -7.60669 1.70302 0
M  V30 24076 N 2249.67 -1.04192 -1.18244 0
M  V30 24077 C 2250.91 -0.747155 -1.88535 0
M  V30 24078 C 2251.25 0.723377 -1.80225 0
M  V30 24079 O 2250.52 1.52802 -1.2034 0
M  V30 24080 C 2250.81 -1.2155 -3.38965 0
M  V30 24081 C 2250.66 -2.74823 -3.56079 0
M  V30 24082 C 2251.98 -0.806558 -4.32646 0
M  V30 24083 H 2249.1 -0.272895 -0.684615 0
M  V30 24084 H 2251.74 -1.29415 -1.3911 0
M  V30 24085 H 2249.89 -0.750148 -3.81189 0
M  V30 24086 H 2251.56 -3.29405 -3.2294 0
M  V30 24087 H 2249.8 -3.14587 -2.98693 0
M  V30 24088 H 2250.47 -3.02652 -4.61634 0
M  V30 24089 H 2252.95 -1.20702 -3.98209 0
M  V30 24090 H 2251.83 -1.16199 -5.3646 0
M  V30 24091 H 2252.09 0.290213 -4.41146 0
M  V30 24092 N 2251.15 1.34492 -0.821557 0
M  V30 24093 C 2252.37 2.03084 -0.420909 0
M  V30 24094 C 2252.8 1.61467 0.964887 0
M  V30 24095 O 2252.15 0.798636 1.62762 0
M  V30 24096 C 2252.2 3.56692 -0.529477 0
M  V30 24097 O 2251.31 4.09924 0.45123 0
M  V30 24098 H 2250.65 0.640932 -0.173501 0
M  V30 24099 H 2253.18 1.71769 -1.1116 0
M  V30 24100 H 2253.19 4.05987 -0.404742 0
M  V30 24101 H 2251.86 3.8633 -1.54021 0
M  V30 24102 H 2250.44 3.71806 0.285493 0
M  V30 24103 N 2252.62 0.576397 1.46681 0
M  V30 24104 C 2253.56 -0.198191 2.28342 0
M  V30 24105 C 2254.57 -0.861429 1.38142 0
M  V30 24106 O 2255.76 -0.732053 1.62798 0
M  V30 24107 C 2252.86 -1.29967 3.12989 0
M  V30 24108 C 2252.03 -0.729563 4.31273 0
M  V30 24109 C 2251.09 -1.71795 4.97366 0
M  V30 24110 O 2250.12 -1.25648 5.55159 0
M  V30 24111 N 2251.32 -3.05189 4.93801 0
M  V30 24112 H 2254.08 0.502376 2.95459 0
M  V30 24113 H 2251.64 0.413743 1.56524 0
M  V30 24114 H 2253.64 -1.96002 3.5407 0
M  V30 24115 H 2252.21 -1.90319 2.47987 0
M  V30 24116 H 2251.43 0.108081 3.94052 0
M  V30 24117 H 2252.71 -0.328348 5.07739 0
M  V30 24118 H 2252.11 -3.45309 4.48083 0
M  V30 24119 H 2250.67 -3.6673 5.38843 0
M  V30 24120 N 2254.1 -1.54444 0.313841 0
M  V30 24121 C 2255.33 -2.04802 -0.293882 0
M  V30 24122 C 2255.75 -1.1905 -1.46535 0
M  V30 24123 O 2255.1 -0.218971 -1.81182 0
M  V30 24124 C 2255.15 -3.53892 -0.737744 0
M  V30 24125 O 2254.87 -4.36386 0.387115 0
M  V30 24126 C 2256.38 -4.20302 -1.40929 0
M  V30 24127 H 2253.6 -0.66813 -0.061994 0
M  V30 24128 H 2256.14 -1.99324 0.457205 0
M  V30 24129 H 2254.29 -3.5969 -1.43883 0
M  V30 24130 H 2254.71 -5.24485 0.0392196 0
M  V30 24131 H 2256.18 -5.26104 -1.67089 0
M  V30 24132 H 2256.66 -3.7082 -2.35348 0
M  V30 24133 H 2257.27 -4.18616 -0.751043 0
M  V30 24134 N 2255.58 -0.0418125 -1.57545 0
M  V30 24135 C 2256.83 0.634987 -1.92603 0
M  V30 24136 C 2257.16 1.71044 -0.919657 0
M  V30 24137 O 2256.43 1.9442 0.055755 0
M  V30 24138 C 2256.72 1.23973 -3.38087 0
M  V30 24139 C 2256.57 0.172978 -4.49467 0
M  V30 24140 C 2257.89 2.1541 -3.83779 0
M  V30 24141 H 2255.01 0.229362 -0.700401 0
M  V30 24142 H 2257.65 -0.101666 -1.89728 0
M  V30 24143 H 2255.8 1.86756 -3.40667 0
M  V30 24144 H 2257.47 -0.458392 -4.59017 0
M  V30 24145 H 2255.72 -0.500072 -4.30908 0
M  V30 24146 H 2256.39 0.635957 -5.48324 0
M  V30 24147 H 2258.86 1.62599 -3.83016 0
M  V30 24148 H 2257.74 2.5467 -4.86245 0
M  V30 24149 H 2258 3.05042 -3.20003 0
M  V30 24150 N 2257.06 1.55891 0.231477 0
M  V30 24151 C 2258.02 1.90781 1.27024 0
M  V30 24152 C 2259.02 0.785531 1.40307 0
M  V30 24153 O 2260.21 1.05338 1.38742 0
M  V30 24154 C 2257.34 2.14988 2.64562 0
M  V30 24155 H 2258.54 2.83678 0.972968 0
M  V30 24156 H 2256.09 1.4902 0.47146 0
M  V30 24157 H 2256.82 1.2461 2.99404 0
M  V30 24158 H 2256.61 2.96737 2.563 0
M  V30 24159 H 2258.1 2.43111 3.39539 0
M  V30 24160 N 2258.54 -0.497781 1.49532 0
M  V30 24161 C 2259.81 -1.25912 1.49685 0
M  V30 24162 C 2260.19 -2.09883 0.226376 0
M  V30 24163 O 2259.54 -2.14367 -0.791152 0
M  V30 24164 C 2259.75 -2.11308 2.77759 0
M  V30 24165 C 2261.1 -2.70389 3.27376 0
M  V30 24166 O 2262.12 -2.21573 2.78898 0
M  V30 24167 O 2260.98 -3.59265 4.11814 0
M  V30 24168 H 2258.08 -0.56995 0.599238 0
M  V30 24169 H 2260.62 -0.511788 1.61799 0
M  V30 24170 H 2259.39 -1.49257 3.61715 0
M  V30 24171 H 2259.02 -2.93228 2.6852 0
M  V30 24172 N 2260.01 -1.38661 -0.749062 0
M  V30 24173 C 2260.94 -1.38976 -1.87637 0
M  V30 24174 C 2261.93 -0.255034 -1.68177 0
M  V30 24175 O 2263.11 -0.458787 -1.88703 0
M  V30 24176 C 2260.24 -1.21857 -3.2522 0
M  V30 24177 C 2259.19 -2.32581 -3.59291 0
M  V30 24178 C 2258.52 -2.00563 -4.9566 0
M  V30 24179 C 2259.82 -3.74857 -3.63703 0
M  V30 24180 H 2261.51 -2.33313 -1.87631 0
M  V30 24181 H 2259.06 -1.12305 -0.90131 0
M  V30 24182 H 2261.01 -1.20702 -4.03744 0
M  V30 24183 H 2259.74 -0.239832 -3.25718 0
M  V30 24184 H 2258.4 -2.3293 -2.83089 0
M  V30 24185 H 2258.04 -1.01162 -4.92722 0
M  V30 24186 H 2257.74 -2.74723 -5.19424 0
M  V30 24187 H 2259.27 -2.01034 -5.76557 0
M  V30 24188 H 2260.68 -3.76514 -4.32331 0
M  V30 24189 H 2259.08 -4.48259 -3.98978 0
M  V30 24190 H 2260.15 -4.06846 -2.63826 0
M  V30 24191 N 2261.49 0.977736 -1.23605 0
M  V30 24192 C 2262.42 2.08858 -1.04405 0
M  V30 24193 C 2263.4 1.70053 0.0398754 0
M  V30 24194 O 2264.59 1.93795 -0.12528 0
M  V30 24195 C 2261.72 3.41402 -0.637329 0
M  V30 24196 C 2260.67 3.94121 -1.6689 0
M  V30 24197 C 2260 5.22891 -1.11754 0
M  V30 24198 C 2261.3 4.2309 -3.06255 0
M  V30 24199 H 2262.99 2.25178 -1.9732 0
M  V30 24200 H 2260.54 1.08207 -0.950115 0
M  V30 24201 H 2262.49 4.18541 -0.490054 0
M  V30 24202 H 2261.22 3.24954 0.3275 0
M  V30 24203 H 2259.88 3.1913 -1.80421 0
M  V30 24204 H 2259.52 5.02795 -0.143615 0
M  V30 24205 H 2259.22 5.59131 -1.80682 0
M  V30 24206 H 2260.75 6.02649 -0.982173 0
M  V30 24207 H 2262.16 4.9097 -2.9601 0
M  V30 24208 H 2260.56 4.70537 -3.72445 0
M  V30 24209 H 2261.63 3.30257 -3.55047 0
M  V30 24210 N 2262.97 1.04818 1.1769 0
M  V30 24211 C 2264.22 0.75453 1.87487 0
M  V30 24212 C 2264.54 -0.720375 1.81206 0
M  V30 24213 O 2263.81 -1.52029 1.23547 0
M  V30 24214 H 2262.39 0.276114 0.694096 0
M  V30 24215 H 2265.05 1.32653 1.4279 0
M  V30 24216 H 2264.15 1.06611 2.93326 0
M  V30 24217 N 2264.45 -1.34055 0.828678 0
M  V30 24218 C 2265.7 -1.97366 0.415863 0
M  V30 24219 C 2266.01 -1.66412 -1.02793 0
M  V30 24220 O 2267.22 -2.23258 -1.54493 0
M  V30 24221 C 2265.67 -3.53172 0.692663 0
M  V30 24222 C 2265.28 -3.93013 2.15045 0
M  V30 24223 C 2267.03 -4.23085 0.346296 0
M  V30 24224 C 2264.93 -5.41754 2.37184 0
M  V30 24225 H 2263.86 -0.738568 0.151768 0
M  V30 24226 H 2266.51 -1.52817 1.01584 0
M  V30 24227 H 2264.9 -3.95994 0.022446 0
M  V30 24228 H 2266.07 -3.6128 2.8603 0
M  V30 24229 H 2264.38 -3.36053 2.45881 0
M  V30 24230 H 2266.98 -5.32455 0.489464 0
M  V30 24231 H 2267.32 -4.10205 -0.70977 0
M  V30 24232 H 2267.86 -3.85759 0.971326 0
M  V30 24233 H 2264.6 -5.59627 3.41317 0
M  V30 24234 H 2264.12 -5.74983 1.70749 0
M  V30 24235 H 2265.8 -6.0851 2.19829 0
M  V30 24236 N 2265.93 -0.584167 -1.46374 0
M  V30 24237 C 2267.2 -0.00337318 -1.956 0
M  V30 24238 C 2267.58 1.45779 -1.52682 0
M  V30 24239 O 2266.93 2.1484 -0.778198 0
M  V30 24240 C 2267.14 -0.176953 -3.48551 0
M  V30 24241 C 2268.49 -0.0455355 -4.24576 0
M  V30 24242 O 2269.51 -0.105863 -3.56043 0
M  V30 24243 O 2268.37 0.0889415 -5.46428 0
M  V30 24244 H 2265.47 0.0489921 -0.825548 0
M  V30 24245 H 2268.01 -0.652588 -1.5665 0
M  V30 24246 H 2266.79 -1.19267 -3.72681 0
M  V30 24247 H 2266.41 0.508626 -3.94333 0
M  V30 24248 N 2267.41 1.54275 -0.322027 0
M  V30 24249 C 2268.65 2.01543 0.274198 0
M  V30 24250 C 2269.01 1.20617 1.49898 0
M  V30 24251 O 2268.3 0.279837 1.89545 0
M  V30 24252 C 2268.49 3.51221 0.661707 0
M  V30 24253 C 2268.32 4.46637 -0.523971 0
M  V30 24254 C 2267.09 4.94845 -1.02259 0
M  V30 24255 C 2269.29 4.9556 -1.37567 0
M  V30 24256 N 2267.27 5.74161 -2.17284 0
M  V30 24257 C 2268.64 5.72786 -2.37311 0
M  V30 24258 C 2270.7 4.77706 -1.40361 0
M  V30 24259 C 2269.4 6.34058 -3.39651 0
M  V30 24260 C 2271.43 5.39812 -2.41571 0
M  V30 24261 C 2270.79 6.16888 -3.40042 0
M  V30 24262 H 2266.89 0.779358 0.064223 0
M  V30 24263 H 2269.47 1.89268 -0.456717 0
M  V30 24264 H 2267.64 3.63745 1.36176 0
M  V30 24265 H 2269.38 3.85259 1.23927 0
M  V30 24266 H 2266.13 4.69859 -0.594129 0
M  V30 24267 H 2266.55 6.18497 -2.753 0
M  V30 24268 H 2271.2 4.1768 -0.655981 0
M  V30 24269 H 2268.91 6.93205 -4.15321 0
M  V30 24270 H 2272.5 5.27916 -2.44533 0
M  V30 24271 H 2271.38 6.64092 -4.17075 0
M  V30 24272 N 2268.88 0.0501669 1.5752 0
M  V30 24273 C 2269.83 -0.924566 2.11472 0
M  V30 24274 C 2270.8 -1.30949 1.02184 0
M  V30 24275 O 2271.99 -1.39914 1.29726 0
M  V30 24276 C 2269.13 -2.19446 2.66341 0
M  V30 24277 C 2268.24 -1.86411 3.89711 0
M  V30 24278 C 2267.37 -3.07851 4.32899 0
M  V30 24279 C 2266.41 -2.70733 5.48972 0
M  V30 24280 N 2265.55 -3.84863 5.87218 0
M  V30 24281 H 2270.39 -0.457588 2.94466 0
M  V30 24282 H 2267.93 -0.214241 1.45532 0
M  V30 24283 H 2269.88 -2.93753 2.96252 0
M  V30 24284 H 2268.51 -2.63723 1.86146 0
M  V30 24285 H 2267.57 -1.02257 3.66398 0
M  V30 24286 H 2268.88 -1.55088 4.74077 0
M  V30 24287 H 2268.03 -3.90458 4.64357 0
M  V30 24288 H 2266.77 -3.42352 3.47342 0
M  V30 24289 H 2265.78 -1.86542 5.17187 0
M  V30 24290 H 2267 -2.37425 6.36244 0
M  V30 24291 H 2264.95 -4.19166 5.04614 0
M  V30 24292 H 2264.86 -3.57235 6.66273 0
M  V30 24293 H 2266.13 -4.68113 6.2329 0
M  V30 24294 N 2270.36 -1.56011 -0.223207 0
M  V30 24295 C 2271.29 -1.953 -1.27984 0
M  V30 24296 C 2272.27 -0.821005 -1.48975 0
M  V30 24297 O 2273.46 -1.08318 -1.61186 0
M  V30 24298 C 2270.59 -2.26827 -2.62996 0
M  V30 24299 C 2269.54 -3.42501 -2.56665 0
M  V30 24300 C 2268.87 -3.59629 -3.95691 0
M  V30 24301 C 2270.17 -4.77521 -2.11592 0
M  V30 24302 H 2271.86 -2.83812 -0.953475 0
M  V30 24303 H 2269.41 -1.36549 -0.45722 0
M  V30 24304 H 2271.36 -2.52904 -3.37072 0
M  V30 24305 H 2270.08 -1.35167 -2.97317 0
M  V30 24306 H 2268.74 -3.16471 -1.85046 0
M  V30 24307 H 2268.39 -2.65347 -4.27317 0
M  V30 24308 H 2268.09 -4.37431 -3.92337 0
M  V30 24309 H 2269.62 -3.88052 -4.71432 0
M  V30 24310 H 2271.03 -5.02814 -2.75411 0
M  V30 24311 H 2269.43 -5.58594 -2.19301 0
M  V30 24312 H 2270.5 -4.72989 -1.06816 0
M  V30 24313 N 2271.84 0.489844 -1.49794 0
M  V30 24314 C 2272.79 1.58727 -1.63676 0
M  V30 24315 C 2273.77 1.53194 -0.491983 0
M  V30 24316 O 2274.97 1.60535 -0.745489 0
M  V30 24317 C 2272.09 2.97281 -1.71694 0
M  V30 24318 C 2271.18 3.07769 -2.91786 0
M  V30 24319 N 2271.57 2.88117 -4.15719 0
M  V30 24320 C 2269.87 3.38884 -2.89955 0
M  V30 24321 C 2270.57 3.0308 -4.96505 0
M  V30 24322 N 2269.55 3.32452 -4.30089 0
M  V30 24323 H 2273.35 1.42204 -2.57207 0
M  V30 24324 H 2270.86 0.696204 -1.4672 0
M  V30 24325 H 2272.86 3.76164 -1.79739 0
M  V30 24326 H 2271.52 3.14866 -0.79308 0
M  V30 24327 H 2272.53 2.64069 -4.4552 0
M  V30 24328 H 2269.21 3.62574 -2.06993 0
M  V30 24329 H 2270.6 2.92284 -6.04996 0
M  V30 24330 N 2273.32 1.39056 0.741698 0
M  V30 24331 C 2274.56 1.37341 1.51383 0
M  V30 24332 C 2274.92 -0.0330176 1.91972 0
M  V30 24333 O 2276.12 -0.175127 2.68229 0
M  V30 24334 C 2274.39 2.31281 2.72477 0
M  V30 24335 S 2275.95 2.47694 3.62206 0
M  V30 24336 H 2272.77 0.487138 0.517897 0
M  V30 24337 H 2275.37 1.75092 0.869659 0
M  V30 24338 H 2274.08 3.3234 2.40787 0
M  V30 24339 H 2273.61 1.94722 3.41829 0
M  V30 24340 H 2275.62 1.70986 4.65809 0
M  V30 24341 N 2274.8 -0.971167 1.24121 0
M  V30 24342 C 2275.76 -2.04673 1.03159 0
M  V30 24343 C 2276.76 -1.60797 -0.00987496 0
M  V30 24344 O 2277.95 -1.72665 0.23076 0
M  V30 24345 C 2275.08 -3.36222 0.562824 0
M  V30 24346 H 2276.27 -2.24702 1.98618 0
M  V30 24347 H 2273.83 -1.14591 1.06295 0
M  V30 24348 H 2274.56 -3.21884 -0.39512 0
M  V30 24349 H 2274.35 -3.6941 1.31447 0
M  V30 24350 H 2275.84 -4.15306 0.437088 0
M  V30 24351 N 2276.27 -1.05441 -1.17133 0
M  V30 24352 C 2277.5 -0.785307 -1.91093 0
M  V30 24353 C 2277.91 0.66311 -1.77199 0
M  V30 24354 O 2277.26 1.46495 -1.10838 0
M  V30 24355 C 2277.32 -1.08955 -3.42592 0
M  V30 24356 C 2276.98 -2.53465 -3.80269 0
M  V30 24357 C 2277.98 -3.5168 -3.82906 0
M  V30 24358 C 2275.66 -2.88539 -4.11157 0
M  V30 24359 C 2277.66 -4.83014 -4.15905 0
M  V30 24360 C 2275.34 -4.20076 -4.43824 0
M  V30 24361 C 2276.34 -5.17123 -4.46176 0
M  V30 24362 O 2276.03 -6.46299 -4.78072 0
M  V30 24363 H 2275.76 -0.284821 -0.613068 0
M  V30 24364 H 2278.32 -1.40895 -1.49458 0
M  V30 24365 H 2276.55 -0.408809 -3.84533 0
M  V30 24366 H 2278.24 -0.806061 -3.97816 0
M  V30 24367 H 2279 -3.25923 -3.59164 0
M  V30 24368 H 2274.88 -2.13663 -4.08496 0
M  V30 24369 H 2278.42 -5.58757 -4.17655 0
M  V30 24370 H 2274.32 -4.45594 -4.67029 0
M  V30 24371 H 2275.09 -6.51158 -4.95919 0
M  V30 24372 N 2277.75 1.33613 -0.835776 0
M  V30 24373 C 2279.17 1.50782 -0.523165 0
M  V30 24374 C 2279.37 1.77692 0.950139 0
M  V30 24375 O 2278.42 1.83537 1.73408 0
M  V30 24376 C 2279.74 2.66445 -1.39383 0
M  V30 24377 C 2281.29 2.80329 -1.39228 0
M  V30 24378 C 2281.76 3.99051 -2.24772 0
M  V30 24379 N 2283.25 4.0628 -2.22465 0
M  V30 24380 C 2283.99 4.9733 -2.85394 0
M  V30 24381 N 2283.48 5.93517 -3.57364 0
M  V30 24382 N 2285.28 4.90303 -2.74881 0
M  V30 24383 H 2277.43 1.14408 -1.78954 0
M  V30 24384 H 2279.69 0.562199 -0.763306 0
M  V30 24385 H 2279.4 2.5323 -2.44065 0
M  V30 24386 H 2279.27 3.61775 -1.06766 0
M  V30 24387 H 2281.66 2.92979 -0.353187 0
M  V30 24388 H 2281.74 1.8577 -1.7585 0
M  V30 24389 H 2281.38 3.87161 -3.28738 0
M  V30 24390 H 2281.31 4.92849 -1.85494 0
M  V30 24391 H 2283.8 3.3744 -1.70125 0
M  V30 24392 H 2284.12 6.59649 -4.02595 0
M  V30 24393 H 2282.46 5.93602 -3.61472 0
M  V30 24394 H 2285.65 4.14123 -2.1822 0
M  V30 24395 H 2285.82 5.61064 -3.24209 0
M  V30 24396 N 2279.23 0.591922 1.46062 0
M  V30 24397 C 2280.64 0.167855 1.85944 0
M  V30 24398 C 2280.99 -1.2714 1.49432 0
M  V30 24399 O 2280.12 -1.96171 0.913549 0
M  V30 24400 C 2280.71 0.297853 3.37488 0
M  V30 24401 C 2279.27 -0.0714071 3.76332 0
M  V30 24402 C 2278.42 0.629556 2.70059 0
M  V30 24403 H 2281.37 0.799579 1.37085 0
M  V30 24404 H 2281.39 -0.474282 3.77533 0
M  V30 24405 H 2280.9 1.34546 3.64032 0
M  V30 24406 H 2279 -1.11879 3.55406 0
M  V30 24407 H 2279.12 0.311329 4.78087 0
M  V30 24408 H 2277.48 0.0688314 2.54607 0
M  V30 24409 H 2278.26 1.67899 2.99441 0
M  V30 24410 N 2280.71 -1.54102 0.330204 0
M  V30 24411 C 2281.64 -2.22079 -0.566863 0
M  V30 24412 C 2282.65 -1.22296 -1.0746 0
M  V30 24413 O 2283.84 -1.48727 -0.987038 0
M  V30 24414 C 2280.94 -2.87689 -1.79133 0
M  V30 24415 C 2280.12 -4.13669 -1.42115 0
M  V30 24416 C 2279.17 -4.6281 -2.50386 0
M  V30 24417 O 2278.2 -5.27338 -2.14251 0
M  V30 24418 N 2279.4 -4.37602 -3.81425 0
M  V30 24419 H 2282.17 -2.99696 0.0152371 0
M  V30 24420 H 2279.73 -1.61169 0.153709 0
M  V30 24421 H 2281.72 -3.17485 -2.50969 0
M  V30 24422 H 2280.29 -2.13738 -2.28111 0
M  V30 24423 H 2279.51 -3.90565 -0.534132 0
M  V30 24424 H 2280.8 -4.95642 -1.14962 0
M  V30 24425 H 2280.2 -3.85967 -4.13577 0
M  V30 24426 H 2278.75 -4.72037 -4.49472 0
M  V30 24427 N 2282.19 -0.0585199 -1.57491 0
M  V30 24428 C 2283.41 0.626486 -1.97712 0
M  V30 24429 C 2283.84 1.63149 -0.93616 0
M  V30 24430 O 2283.19 1.81025 0.0997792 0
M  V30 24431 C 2283.24 1.28332 -3.36992 0
M  V30 24432 O 2282.35 2.39907 -3.35437 0
M  V30 24433 H 2281.69 0.162255 -0.643871 0
M  V30 24434 H 2284.22 -0.1291 -2.04192 0
M  V30 24435 H 2284.23 1.63328 -3.73882 0
M  V30 24436 H 2282.9 0.546816 -4.1229 0
M  V30 24437 H 2281.48 2.06803 -3.10301 0
M  V30 24438 N 2283.66 1.56128 0.21493 0
M  V30 24439 C 2284.89 1.83886 0.959207 0
M  V30 24440 C 2285.31 0.639675 1.76889 0
M  V30 24441 O 2284.67 -0.41157 1.76567 0
M  V30 24442 C 2284.72 3.09696 1.84718 0
M  V30 24443 O 2283.82 2.88855 2.94341 0
M  V30 24444 H 2283.17 0.606073 0.27124 0
M  V30 24445 H 2285.7 2.03345 0.22624 0
M  V30 24446 H 2285.71 3.39973 2.2557 0
M  V30 24447 H 2284.38 3.96605 1.25211 0
M  V30 24448 H 2282.96 2.69828 2.57386 0
M  V30 24449 N 2285.14 -0.481893 1.50052 0
M  V30 24450 C 2286.39 -1.23231 1.60183 0
M  V30 24451 C 2286.71 -1.92691 0.29921 0
M  V30 24452 O 2285.98 -1.8362 -0.682675 0
M  V30 24453 H 2284.56 -0.457849 0.59024 0
M  V30 24454 H 2287.22 -0.556848 1.86776 0
M  V30 24455 H 2286.32 -1.98602 2.40756 0
M  V30 24456 N 2286.62 -1.39448 -0.734313 0
M  V30 24457 C 2287.55 -1.34124 -1.85859 0
M  V30 24458 C 2288.57 -0.249892 -1.60871 0
M  V30 24459 O 2289.75 -0.508895 -1.71092 0
M  V30 24460 C 2286.85 -1.05997 -3.21897 0
M  V30 24461 C 2286.03 -2.26422 -3.74235 0
M  V30 24462 C 2285.09 -1.94741 -4.88838 0
M  V30 24463 O 2284.11 -2.67431 -5.02463 0
M  V30 24464 N 2285.31 -0.913985 -5.7326 0
M  V30 24465 H 2288.08 -2.31011 -1.9093 0
M  V30 24466 H 2285.64 -1.33559 -0.915079 0
M  V30 24467 H 2287.63 -0.828217 -3.96135 0
M  V30 24468 H 2286.2 -0.178416 -3.1209 0
M  V30 24469 H 2285.42 -2.65544 -2.91342 0
M  V30 24470 H 2286.71 -3.06745 -4.05937 0
M  V30 24471 H 2286.11 -0.311576 -5.64841 0
M  V30 24472 H 2284.67 -0.742128 -6.47561 0
M  V30 24473 N 2288.1 0.964571 -1.24635 0
M  V30 24474 C 2289.34 1.71047 -1.08952 0
M  V30 24475 C 2289.68 1.90637 0.370268 0
M  V30 24476 O 2288.95 1.47014 1.27347 0
M  V30 24477 C 2289.24 3.09936 -1.83334 0
M  V30 24478 C 2289.09 2.97818 -3.37082 0
M  V30 24479 C 2290.41 4.09651 -1.60853 0
M  V30 24480 H 2287.53 0.620814 -0.397189 0
M  V30 24481 H 2290.17 1.12188 -1.53342 0
M  V30 24482 H 2288.32 3.60183 -1.45603 0
M  V30 24483 H 2289.99 2.54973 -3.8443 0
M  V30 24484 H 2288.23 2.33959 -3.65302 0
M  V30 24485 H 2288.9 3.96224 -3.84331 0
M  V30 24486 H 2291.38 3.68276 -1.93681 0
M  V30 24487 H 2290.26 5.04892 -2.15349 0
M  V30 24488 H 2290.52 4.38697 -0.547511 0
M  V30 24489 N 2289.58 1.0606 1.16572 0
M  V30 24490 C 2290.49 0.680321 2.24519 0
M  V30 24491 C 2291.5 -0.302574 1.71349 0
M  V30 24492 O 2292.68 -0.152478 2.00822 0
M  V30 24493 C 2289.74 0.0700925 3.46629 0
M  V30 24494 C 2288.8 1.10455 4.14847 0
M  V30 24495 C 2288.04 0.523349 5.31128 0
M  V30 24496 O 2288.26 -0.664609 5.66515 0
M  V30 24497 O 2287.19 1.26189 5.88523 0
M  V30 24498 H 2291.02 1.58019 2.59352 0
M  V30 24499 H 2288.61 0.832715 1.24041 0
M  V30 24500 H 2290.49 -0.268593 4.20543 0
M  V30 24501 H 2289.16 -0.803298 3.13574 0
M  V30 24502 H 2288.07 1.49538 3.42913 0
M  V30 24503 H 2289.4 1.94939 4.51951 0
M  V30 24504 N 2291.06 -1.33168 0.84285 0
M  V30 24505 C 2292.47 -1.50502 0.531154 0
M  V30 24506 C 2292.67 -1.78194 -0.940702 0
M  V30 24507 O 2291.73 -1.84454 -1.72432 0
M  V30 24508 C 2293.04 -2.65702 1.40794 0
M  V30 24509 C 2294.59 -2.79587 1.40713 0
M  V30 24510 C 2295.06 -3.97853 2.26885 0
M  V30 24511 N 2296.55 -4.05095 2.24616 0
M  V30 24512 C 2297.29 -4.9581 2.88028 0
M  V30 24513 N 2296.79 -5.91614 3.60507 0
M  V30 24514 N 2298.58 -4.88838 2.77477 0
M  V30 24515 H 2290.73 -1.13457 1.79559 0
M  V30 24516 H 2292.99 -0.558143 0.766277 0
M  V30 24517 H 2292.7 -2.51932 2.45404 0
M  V30 24518 H 2292.57 -3.61203 1.08683 0
M  V30 24519 H 2294.96 -2.92787 0.36872 0
M  V30 24520 H 2295.04 -1.84835 1.76832 0
M  V30 24521 H 2294.68 -3.85412 3.30787 0
M  V30 24522 H 2294.61 -4.91858 1.88105 0
M  V30 24523 H 2297.11 -3.36533 1.71912 0
M  V30 24524 H 2297.42 -6.57505 4.06088 0
M  V30 24525 H 2295.76 -5.91677 3.64614 0
M  V30 24526 H 2298.95 -4.12959 2.20413 0
M  V30 24527 H 2299.13 -5.59336 3.2718 0
M  V30 24528 N 2292.53 -0.599659 -1.45746 0
M  V30 24529 C 2293.47 0.172512 -2.27547 0
M  V30 24530 C 2294.44 0.881092 -1.36658 0
M  V30 24531 O 2295.63 0.891566 -1.66082 0
M  V30 24532 C 2292.76 1.24897 -3.14831 0
M  V30 24533 C 2291.8 0.644391 -4.21604 0
M  V30 24534 S 2292.63 -0.5417 -5.32753 0
M  V30 24535 C 2293.79 0.535546 -6.23605 0
M  V30 24536 H 2294.02 -0.52152 -2.9269 0
M  V30 24537 H 2291.56 -0.386973 -1.49472 0
M  V30 24538 H 2293.51 1.8652 -3.65678 0
M  V30 24539 H 2292.18 1.91504 -2.48968 0
M  V30 24540 H 2291.37 1.45408 -4.82569 0
M  V30 24541 H 2290.97 0.103469 -3.73857 0
M  V30 24542 H 2293.26 1.41675 -6.62521 0
M  V30 24543 H 2294.21 -0.0377491 -7.0809 0
M  V30 24544 H 2294.61 0.847312 -5.58105 0
M  V30 24545 N 2294.01 1.53925 -0.338371 0
M  V30 24546 C 2294.96 2.26335 0.536191 0
M  V30 24547 C 2295.95 1.28288 1.10628 0
M  V30 24548 O 2297.16 1.46014 1.05261 0
M  V30 24549 H 2293.53 0.727185 0.191589 0
M  V30 24550 H 2295.51 2.98244 -0.0966271 0
M  V30 24551 C 2294.25 3.04531 1.67798 0
M  V30 24552 H 2293.58 3.79803 1.24857 0
M  V30 24553 H 2295.02 3.5842 2.26519 0
M  V30 24554 C 2293.48 2.13717 2.60436 0
M  V30 24555 O 2294.01 1.72982 3.62547 0
M  V30 24556 N 2292.21 1.78902 2.29003 0
M  V30 24557 H 2291.76 2.12226 1.46007 0
M  V30 24558 H 2291.72 1.18421 2.91245 0
M  V30 24559 N 2295.49 0.0668712 1.57458 0
M  V30 24560 C 2296.91 -0.289744 1.56948 0
M  V30 24561 C 2297.11 -1.70374 1.07587 0
M  V30 24562 O 2296.16 -2.41427 0.739528 0
M  V30 24563 C 2297.47 -0.10389 3.0052 0
M  V30 24564 C 2299.02 -0.173802 3.12517 0
M  V30 24565 C 2299.5 -0.0162877 4.57997 0
M  V30 24566 N 2300.99 -0.0720538 4.63144 0
M  V30 24567 C 2301.72 0.0254802 5.73394 0
M  V30 24568 N 2301.22 0.176255 6.92576 0
M  V30 24569 N 2303.01 -0.0312317 5.62091 0
M  V30 24570 H 2295.16 0.99106 1.87861 0
M  V30 24571 H 2297.43 0.386075 0.865823 0
M  V30 24572 H 2297.13 0.871632 3.40728 0
M  V30 24573 H 2297.01 -0.858301 3.67305 0
M  V30 24574 H 2299.39 -1.13981 2.72199 0
M  V30 24575 H 2299.47 0.61163 2.4838 0
M  V30 24576 H 2299.12 0.946462 4.99004 0
M  V30 24577 H 2299.05 -0.821062 5.2016 0
M  V30 24578 H 2301.54 -0.187197 3.77436 0
M  V30 24579 H 2301.85 0.242957 7.72418 0
M  V30 24580 H 2300.2 0.211551 6.94678 0
M  V30 24581 H 2303.39 -0.14769 4.67867 0
M  V30 24582 H 2303.56 0.0482349 6.47982 0
M  V30 24583 N 2296.97 -1.56239 -0.206647 0
M  V30 24584 C 2298.2 -1.84042 -0.945313 0
M  V30 24585 C 2298.61 -0.647917 -1.77334 0
M  V30 24586 O 2297.97 0.38348 -1.78426 0
M  V30 24587 C 2298.02 -3.10525 -1.85084 0
M  V30 24588 O 2297.74 -4.25176 -1.05626 0
M  V30 24589 C 2299.24 -3.51423 -2.70216 0
M  V30 24590 H 2296.46 -0.611445 -0.276362 0
M  V30 24591 H 2299 -2.03341 -0.217381 0
M  V30 24592 H 2297.16 -2.93157 -2.53254 0
M  V30 24593 H 2297.57 -4.97126 -1.67229 0
M  V30 24594 H 2299.05 -4.42922 -3.2943 0
M  V30 24595 H 2299.52 -2.7387 -3.43354 0
M  V30 24596 H 2300.13 -3.71282 -2.07436 0
M  V30 24597 N 2298.45 0.473929 -1.50305 0
M  V30 24598 C 2299.69 1.22298 -1.60394 0
M  V30 24599 C 2300.01 1.93153 -0.308445 0
M  V30 24600 O 2301.21 2.69966 -0.288204 0
M  V30 24601 C 2299.67 2.22205 -2.83113 0
M  V30 24602 C 2299.28 1.57166 -4.19527 0
M  V30 24603 C 2301.02 2.9777 -3.02545 0
M  V30 24604 C 2298.93 2.55343 -5.33436 0
M  V30 24605 H 2297.86 0.460169 -0.597294 0
M  V30 24606 H 2300.51 0.493772 -1.76732 0
M  V30 24607 H 2298.89 2.98405 -2.60327 0
M  V30 24608 H 2300.07 0.867744 -4.52556 0
M  V30 24609 H 2298.38 0.938931 -4.05676 0
M  V30 24610 H 2300.98 3.71241 -3.84817 0
M  V30 24611 H 2301.32 3.56989 -2.14161 0
M  V30 24612 H 2301.85 2.28683 -3.25498 0
M  V30 24613 H 2298.59 2.00867 -6.23965 0
M  V30 24614 H 2298.11 3.23895 -5.04829 0
M  V30 24615 H 2299.79 3.1723 -5.63892 0
M  V30 24616 N 2299.92 1.39835 0.726907 0
M  V30 24617 C 2300.87 1.392 1.84097 0
M  V30 24618 C 2301.84 0.250531 1.642 0
M  V30 24619 O 2303.03 0.446879 1.85493 0
M  V30 24620 C 2300.17 1.24925 3.21695 0
M  V30 24621 C 2299.28 2.48684 3.53242 0
M  V30 24622 C 2298.41 2.26936 4.80285 0
M  V30 24623 C 2297.45 3.46329 5.047 0
M  V30 24624 N 2296.59 3.23847 6.22951 0
M  V30 24625 H 2301.43 2.3443 1.83974 0
M  V30 24626 H 2298.97 1.16443 0.898856 0
M  V30 24627 H 2300.92 1.14658 4.01135 0
M  V30 24628 H 2299.55 0.33321 3.21076 0
M  V30 24629 H 2298.61 2.69524 2.68442 0
M  V30 24630 H 2299.92 3.37589 3.67199 0
M  V30 24631 H 2299.07 2.13957 5.67721 0
M  V30 24632 H 2297.81 1.35439 4.68516 0
M  V30 24633 H 2296.82 3.59798 4.15723 0
M  V30 24634 H 2298.04 4.38738 5.18349 0
M  V30 24635 H 2295.99 2.35022 6.12455 0
M  V30 24636 H 2295.9 4.06311 6.37532 0
M  V30 24637 H 2297.17 3.14578 7.13205 0
M  V30 24638 N 2301.4 -0.957948 1.25144 0
M  V30 24639 C 2302.31 -2.08792 1.06971 0
M  V30 24640 C 2303.33 -1.73998 0.00776969 0
M  V30 24641 O 2304.5 -2.00323 0.208008 0
M  V30 24642 C 2301.57 -3.39826 0.68697 0
M  V30 24643 C 2300.63 -3.88508 1.82648 0
M  V30 24644 C 2299.86 -5.13287 1.4619 0
M  V30 24645 O 2300.09 -5.69288 0.356071 0
M  V30 24646 O 2299.02 -5.56596 2.29094 0
M  V30 24647 H 2302.85 -2.27024 2.01727 0
M  V30 24648 H 2300.43 -1.07207 1.04053 0
M  V30 24649 H 2302.31 -4.18594 0.485491 0
M  V30 24650 H 2300.99 -3.22872 -0.23136 0
M  V30 24651 H 2299.89 -3.10758 2.08279 0
M  V30 24652 H 2301.23 -4.09954 2.72394 0
M  V30 24653 N 2302.88 -1.06677 -1.16008 0
M  V30 24654 C 2304.11 -0.806701 -1.90525 0
M  V30 24655 C 2304.52 0.639365 -1.77644 0
M  V30 24656 O 2303.88 1.43802 -1.12372 0
M  V30 24657 C 2303.93 -1.19711 -3.41104 0
M  V30 24658 O 2303.65 -2.58643 -3.53604 0
M  V30 24659 C 2305.15 -0.965343 -4.32662 0
M  V30 24660 H 2302.37 -0.292177 -0.604048 0
M  V30 24661 H 2304.92 -1.42142 -1.47023 0
M  V30 24662 H 2303.07 -0.626841 -3.82295 0
M  V30 24663 H 2303.49 -2.74383 -4.47006 0
M  V30 24664 H 2304.96 -1.28809 -5.36761 0
M  V30 24665 H 2305.44 0.0987165 -4.39089 0
M  V30 24666 H 2306.04 -1.52018 -3.97204 0
M  V30 24667 N 2304.36 1.32719 -0.8499 0
M  V30 24668 C 2305.29 2.31482 -0.306349 0
M  V30 24669 C 2306.27 1.59469 0.591924 0
M  V30 24670 O 2307.45 1.87297 0.513166 0
M  V30 24671 C 2304.58 3.43533 0.510144 0
M  V30 24672 C 2303.54 4.26994 -0.293284 0
M  V30 24673 C 2302.86 5.30763 0.647649 0
M  V30 24674 C 2304.16 4.99802 -1.51643 0
M  V30 24675 H 2305.86 2.77193 -1.13157 0
M  V30 24676 H 2303.4 1.33265 -0.545577 0
M  V30 24677 H 2305.36 4.1166 0.900783 0
M  V30 24678 H 2304.08 2.96538 1.36869 0
M  V30 24679 H 2302.74 3.60507 -0.665619 0
M  V30 24680 H 2302.39 4.80023 1.5029 0
M  V30 24681 H 2302.09 5.87489 0.114116 0
M  V30 24682 H 2303.61 6.01754 1.03557 0
M  V30 24683 H 2305.03 5.60636 -1.19834 0
M  V30 24684 H 2303.42 5.6623 -1.98755 0
M  V30 24685 H 2304.49 4.27939 -2.28026 0
M  V30 24686 N 2305.84 0.60738 1.45426 0
M  V30 24687 C 2307.06 0.10885 2.06613 0
M  V30 24688 C 2307.48 -1.20668 1.45206 0
M  V30 24689 O 2306.84 -1.73496 0.566162 0
M  V30 24690 C 2306.89 -0.0374712 3.61481 0
M  V30 24691 O 2306.61 1.22601 4.20596 0
M  V30 24692 C 2308.11 -0.567484 4.39653 0
M  V30 24693 H 2305.33 0.0687468 0.667469 0
M  V30 24694 H 2307.87 0.835054 1.86674 0
M  V30 24695 H 2306.03 -0.714001 3.80763 0
M  V30 24696 H 2306.44 1.05556 5.13769 0
M  V30 24697 H 2307.92 -0.618954 5.48519 0
M  V30 24698 H 2308.39 -1.58971 4.0942 0
M  V30 24699 H 2309 0.0749949 4.25234 0
M  V30 24700 N 2307.31 -1.53743 0.34653 0
M  V30 24701 C 2308.26 -2.2512 -0.508874 0
M  V30 24702 C 2309.23 -1.2506 -1.09313 0
M  V30 24703 O 2310.42 -1.53799 -1.12918 0
M  V30 24704 C 2307.56 -3.02968 -1.65241 0
M  V30 24705 C 2306.67 -4.17888 -1.09517 0
M  V30 24706 C 2305.8 -4.83216 -2.20625 0
M  V30 24707 C 2304.84 -5.90199 -1.62269 0
M  V30 24708 N 2303.98 -6.49296 -2.67131 0
M  V30 24709 H 2308.82 -2.9781 0.106336 0
M  V30 24710 H 2306.36 -1.4696 0.0642485 0
M  V30 24711 H 2308.32 -3.46364 -2.32568 0
M  V30 24712 H 2306.95 -2.32569 -2.23856 0
M  V30 24713 H 2306 -3.79112 -0.312751 0
M  V30 24714 H 2307.31 -4.94826 -0.628357 0
M  V30 24715 H 2306.46 -5.29699 -2.95811 0
M  V30 24716 H 2305.2 -4.05708 -2.70652 0
M  V30 24717 H 2304.21 -5.43097 -0.855893 0
M  V30 24718 H 2305.43 -6.69617 -1.1309 0
M  V30 24719 H 2303.38 -5.7465 -3.16407 0
M  V30 24720 H 2303.3 -7.21717 -2.25081 0
M  V30 24721 H 2304.56 -7.00431 -3.42077 0
M  V30 24722 N 2308.79 -0.0752207 -1.5742 0
M  V30 24723 C 2309.72 0.888286 -2.15944 0
M  V30 24724 C 2310.7 1.30804 -1.08739 0
M  V30 24725 O 2311.89 1.37848 -1.3679 0
M  V30 24726 C 2309.02 2.15465 -2.72382 0
M  V30 24727 C 2307.97 1.87418 -3.84784 0
M  V30 24728 C 2307.3 3.20714 -4.2784 0
M  V30 24729 C 2308.6 1.17675 -5.08871 0
M  V30 24730 H 2310.29 0.400747 -2.96706 0
M  V30 24731 H 2307.84 0.191317 -1.42723 0
M  V30 24732 H 2309.79 2.83289 -3.1197 0
M  V30 24733 H 2308.52 2.66467 -1.88846 0
M  V30 24734 H 2307.17 1.21998 -3.45705 0
M  V30 24735 H 2306.82 3.69564 -3.41221 0
M  V30 24736 H 2306.52 3.02738 -5.03611 0
M  V30 24737 H 2308.05 3.8973 -4.70046 0
M  V30 24738 H 2309.46 1.75574 -5.45753 0
M  V30 24739 H 2307.86 1.09946 -5.89942 0
M  V30 24740 H 2308.93 0.156368 -4.84648 0
M  V30 24741 N 2310.27 1.56347 0.198358 0
M  V30 24742 C 2311.5 1.84541 0.93554 0
M  V30 24743 C 2311.91 0.657312 1.76988 0
M  V30 24744 O 2311.27 -0.374012 1.78626 0
M  V30 24745 C 2311.32 3.11503 1.83435 0
M  V30 24746 O 2311.04 4.2573 1.0337 0
M  V30 24747 C 2312.54 3.52851 2.68349 0
M  V30 24748 H 2309.76 0.612902 0.273115 0
M  V30 24749 H 2312.31 2.03454 0.206594 0
M  V30 24750 H 2310.46 2.94496 2.51696 0
M  V30 24751 H 2310.88 4.98006 1.6459 0
M  V30 24752 H 2312.35 4.44662 3.27077 0
M  V30 24753 H 2312.83 2.75687 3.41896 0
M  V30 24754 H 2313.43 3.72377 2.05464 0
M  V30 24755 N 2311.75 -0.465951 1.50554 0
M  V30 24756 C 2312.68 -1.57125 1.72725 0
M  V30 24757 C 2313.66 -1.60039 0.576322 0
M  V30 24758 O 2314.84 -1.76224 0.816011 0
M  V30 24759 C 2311.97 -2.95416 1.82611 0
M  V30 24760 C 2310.93 -3.07368 2.9784 0
M  V30 24761 C 2310.25 -4.47357 2.92875 0
M  V30 24762 C 2311.55 -2.84106 4.3827 0
M  V30 24763 H 2313.25 -1.38825 2.6527 0
M  V30 24764 H 2310.79 -0.666418 1.27651 0
M  V30 24765 H 2312.75 -3.72673 1.96705 0
M  V30 24766 H 2311.47 -3.14884 0.866914 0
M  V30 24767 H 2310.13 -2.32545 2.83405 0
M  V30 24768 H 2309.78 -4.63752 1.94791 0
M  V30 24769 H 2309.48 -4.56289 3.70235 0
M  V30 24770 H 2311 -5.26627 3.09024 0
M  V30 24771 H 2312.42 -3.5111 4.53205 0
M  V30 24772 H 2310.81 -3.04478 5.1712 0
M  V30 24773 H 2311.88 -1.79923 4.50284 0
M  V30 24774 N 2313.23 -1.40218 -0.719481 0
M  V30 24775 C 2314.19 -1.3993 -1.81527 0
M  V30 24776 C 2315.19 -0.29375 -1.58094 0
M  V30 24777 O 2316.38 -0.552458 -1.65208 0
M  V30 24778 C 2313.51 -1.18721 -3.19559 0
M  V30 24779 H 2314.7 -2.37454 -1.83182 0
M  V30 24780 H 2312.26 -1.2601 -0.924724 0
M  V30 24781 H 2312.99 -0.219423 -3.23557 0
M  V30 24782 H 2312.78 -1.98799 -3.37967 0
M  V30 24783 H 2314.27 -1.21298 -3.99595 0
M  V30 24784 N 2314.7 0.951297 -1.25651 0
M  V30 24785 C 2315.93 1.7309 -1.13346 0
M  V30 24786 C 2316.35 1.86197 0.312401 0
M  V30 24787 O 2315.7 1.36209 1.21463 0
M  V30 24788 C 2315.76 3.14295 -1.78607 0
M  V30 24789 O 2315.48 3.01825 -3.17542 0
M  V30 24790 C 2316.98 4.08519 -1.72126 0
M  V30 24791 H 2314.2 0.542278 -0.395191 0
M  V30 24792 H 2316.74 1.19325 -1.66078 0
M  V30 24793 H 2314.9 3.64994 -1.29839 0
M  V30 24794 H 2315.31 3.90925 -3.49683 0
M  V30 24795 H 2316.78 5.05196 -2.22444 0
M  V30 24796 H 2317.26 4.33814 -0.685711 0
M  V30 24797 H 2317.87 3.63737 -2.20399 0
M  V30 24798 N 2316.18 1.07291 1.1544 0
M  V30 24799 C 2317.43 0.794129 1.85844 0
M  V30 24800 C 2317.75 -0.681776 1.82693 0
M  V30 24801 O 2317.02 -1.49375 1.26744 0
M  V30 24802 H 2315.6 0.290775 0.688083 0
M  V30 24803 H 2318.26 1.35652 1.39945 0
M  V30 24804 H 2317.36 1.12809 2.90999 0
M  V30 24805 N 2317.66 -1.32267 0.856927 0
M  V30 24806 C 2318.89 -2.01897 0.474605 0
M  V30 24807 C 2319.31 -1.63968 -0.921738 0
M  V30 24808 O 2318.67 -0.841509 -1.60587 0
M  V30 24809 C 2318.72 -3.55162 0.623861 0
M  V30 24810 O 2317.82 -4.10976 -0.342387 0
M  V30 24811 H 2317.16 -0.636106 0.190433 0
M  V30 24812 H 2319.69 -1.68762 1.15675 0
M  V30 24813 H 2319.7 -4.04772 0.51224 0
M  V30 24814 H 2318.38 -3.8211 1.64209 0
M  V30 24815 H 2316.95 -3.72432 -0.186814 0
M  V30 24816 N 2319.14 -0.615084 -1.45102 0
M  V30 24817 C 2320.55 -0.27935 -1.57136 0
M  V30 24818 C 2320.75 1.21795 -1.60525 0
M  V30 24819 O 2319.81 2.00132 -1.5396 0
M  V30 24820 C 2321.12 -0.957134 -2.8506 0
M  V30 24821 C 2322.67 -0.933758 -2.98747 0
M  V30 24822 C 2323.15 -1.5917 -4.29452 0
M  V30 24823 N 2324.64 -1.55753 -4.36228 0
M  V30 24824 C 2325.37 -2.0357 -5.36048 0
M  V30 24825 N 2324.87 -2.59505 -6.42362 0
M  V30 24826 N 2326.66 -1.94293 -5.27453 0
M  V30 24827 H 2318.81 -1.58719 -1.41145 0
M  V30 24828 H 2321.08 -0.665318 -0.67532 0
M  V30 24829 H 2320.78 -2.01171 -2.88484 0
M  V30 24830 H 2320.66 -0.485006 -3.74069 0
M  V30 24831 H 2323.04 0.112295 -2.94886 0
M  V30 24832 H 2323.12 -1.44422 -2.1113 0
M  V30 24833 H 2322.77 -2.63712 -4.34072 0
M  V30 24834 H 2322.7 -1.05619 -5.15899 0
M  V30 24835 H 2325.19 -1.14899 -3.60009 0
M  V30 24836 H 2325.5 -2.93765 -7.14788 0
M  V30 24837 H 2323.85 -2.63548 -6.43092 0
M  V30 24838 H 2327.04 -1.50328 -4.43305 0
M  V30 24839 H 2327.21 -2.31871 -6.05095 0
M  V30 24840 N 2320.62 1.53557 -0.354678 0
M  V30 24841 C 2321.89 1.93374 0.294247 0
M  V30 24842 C 2322.27 1.28726 1.67311 0
M  V30 24843 O 2321.62 0.442286 2.24179 0
M  V30 24844 C 2321.83 3.47186 0.355384 0
M  V30 24845 C 2323.18 4.20326 0.600933 0
M  V30 24846 O 2324.2 3.53509 0.437044 0
M  V30 24847 O 2323.06 5.38714 0.919228 0
M  V30 24848 H 2320.16 0.808484 0.174019 0
M  V30 24849 H 2322.7 1.64755 -0.406667 0
M  V30 24850 H 2321.48 3.86488 -0.611797 0
M  V30 24851 H 2321.1 3.82005 1.10263 0
M  V30 24852 N 2322.1 0.083568 1.57378 0
M  V30 24853 C 2323.34 -0.57763 1.95026 0
M  V30 24854 C 2323.7 -1.66503 0.964078 0
M  V30 24855 O 2322.99 -1.91596 -0.0117899 0
M  V30 24856 C 2323.18 -1.18834 3.37066 0
M  V30 24857 C 2323.01 -0.161631 4.49409 0
M  V30 24858 C 2321.78 0.257845 5.04642 0
M  V30 24859 C 2323.98 0.605723 5.10721 0
M  V30 24860 N 2321.96 1.27403 6.00534 0
M  V30 24861 C 2323.33 1.47406 6.02222 0
M  V30 24862 C 2325.39 0.660504 4.93499 0
M  V30 24863 C 2324.09 2.39233 6.78351 0
M  V30 24864 C 2326.12 1.56633 5.70281 0
M  V30 24865 C 2325.48 2.42232 6.6144 0
M  V30 24866 H 2321.58 -0.182045 0.760515 0
M  V30 24867 H 2324.16 0.163453 1.94013 0
M  V30 24868 H 2322.33 -1.8993 3.38794 0
M  V30 24869 H 2324.07 -1.81097 3.6192 0
M  V30 24870 H 2320.82 -0.127619 4.73428 0
M  V30 24871 H 2321.24 1.77999 6.53181 0
M  V30 24872 H 2325.89 0.0128965 4.22798 0
M  V30 24873 H 2323.6 3.05024 7.48322 0
M  V30 24874 H 2327.19 1.61371 5.58973 0
M  V30 24875 H 2326.07 3.11187 7.19814 0
M  V30 24876 N 2323.57 -1.5645 -0.190064 0
M  V30 24877 C 2324.82 -1.81186 -0.911021 0
M  V30 24878 C 2325.15 -0.658428 -1.82697 0
M  V30 24879 O 2324.43 0.340741 -1.91492 0
M  V30 24880 C 2324.71 -3.16208 -1.72291 0
M  V30 24881 C 2324.56 -4.42051 -0.831341 0
M  V30 24882 C 2325.88 -3.47974 -2.69448 0
M  V30 24883 H 2323 -0.659112 -0.329758 0
M  V30 24884 H 2325.64 -1.89163 -0.178135 0
M  V30 24885 H 2323.79 -3.09539 -2.34773 0
M  V30 24886 H 2325.47 -4.60771 -0.220848 0
M  V30 24887 H 2323.71 -4.33579 -0.13833 0
M  V30 24888 H 2324.38 -5.33034 -1.43451 0
M  V30 24889 H 2326.86 -3.54976 -2.17097 0
M  V30 24890 H 2325.73 -4.43561 -3.23334 0
M  V30 24891 H 2325.99 -2.71723 -3.48739 0
M  V30 24892 N 2325.05 0.45796 -1.50799 0
M  V30 24893 C 2325.98 1.56207 -1.73556 0
M  V30 24894 C 2326.96 1.59731 -0.584802 0
M  V30 24895 O 2328.15 1.75789 -0.825345 0
M  V30 24896 C 2325.28 2.94444 -1.84175 0
M  V30 24897 C 2324.23 3.05784 -2.99466 0
M  V30 24898 C 2323.56 4.45798 -2.95243 0
M  V30 24899 C 2324.86 2.81778 -4.39771 0
M  V30 24900 H 2326.55 1.37416 -2.66002 0
M  V30 24901 H 2324.1 0.659639 -1.28003 0
M  V30 24902 H 2326.05 3.71625 -1.98678 0
M  V30 24903 H 2324.77 3.1442 -0.8836 0
M  V30 24904 H 2323.43 2.31039 -2.84634 0
M  V30 24905 H 2323.08 4.62712 -1.97248 0
M  V30 24906 H 2322.78 4.54319 -3.72649 0
M  V30 24907 H 2324.31 5.24981 -3.11813 0
M  V30 24908 H 2325.72 3.48702 -4.5506 0
M  V30 24909 H 2324.12 3.01731 -5.18727 0
M  V30 24910 H 2325.19 1.77532 -4.51232 0
M  V30 24911 N 2326.53 1.40598 0.712035 0
M  V30 24912 C 2327.46 1.43902 1.83887 0
M  V30 24913 C 2328.44 0.299533 1.67442 0
M  V30 24914 O 2329.63 0.508657 1.8742 0
M  V30 24915 C 2326.76 1.30437 3.21875 0
M  V30 24916 C 2325.71 2.42026 3.52998 0
M  V30 24917 C 2325.04 2.13634 4.90168 0
M  V30 24918 C 2326.34 3.84368 3.53636 0
M  V30 24919 H 2328.03 2.38206 1.81379 0
M  V30 24920 H 2325.58 1.14655 0.871217 0
M  V30 24921 H 2327.53 1.31364 4.00402 0
M  V30 24922 H 2326.25 0.326107 3.24968 0
M  V30 24923 H 2324.91 2.40354 2.76813 0
M  V30 24924 H 2324.56 1.14191 4.89867 0
M  V30 24925 H 2324.26 2.88398 5.11957 0
M  V30 24926 H 2325.78 2.1625 5.71024 0
M  V30 24927 H 2327.2 3.87844 4.22196 0
M  V30 24928 H 2325.59 4.5868 3.86953 0
M  V30 24929 H 2326.66 4.13698 2.52947 0
M  V30 24930 N 2328.01 -0.94462 1.26153 0
M  V30 24931 C 2328.94 -2.06017 1.09906 0
M  V30 24932 C 2329.92 -1.70099 0.00522528 0
M  V30 24933 O 2331.1 -1.93395 0.176617 0
M  V30 24934 C 2328.23 -3.39592 0.727622 0
M  V30 24935 C 2327.19 -3.89558 1.77281 0
M  V30 24936 C 2326.51 -5.19744 1.25578 0
M  V30 24937 C 2327.81 -4.14822 3.17365 0
M  V30 24938 H 2329.51 -2.19868 2.03221 0
M  V30 24939 H 2327.05 -1.0565 0.97847 0
M  V30 24940 H 2329.01 -4.17094 0.60085 0
M  V30 24941 H 2327.73 -3.25708 -0.241229 0
M  V30 24942 H 2326.39 -3.14234 1.88819 0
M  V30 24943 H 2326.04 -5.02237 0.276872 0
M  V30 24944 H 2325.74 -5.54144 1.95443 0
M  V30 24945 H 2327.26 -5.99833 1.14161 0
M  V30 24946 H 2328.68 -4.82949 3.08923 0
M  V30 24947 H 2327.07 -4.60497 3.84789 0
M  V30 24948 H 2328.14 -3.20728 3.63678 0
M  V30 24949 N 2329.49 -1.07901 -1.1487 0
M  V30 24950 C 2330.9 -0.827392 -1.67365 0
M  V30 24951 C 2331.25 0.64666 -1.85237 0
M  V30 24952 O 2330.37 1.50001 -1.55976 0
M  V30 24953 C 2330.97 -1.49537 -3.04013 0
M  V30 24954 C 2329.53 -1.29112 -3.53563 0
M  V30 24955 C 2328.67 -1.56147 -2.29158 0
M  V30 24956 H 2331.62 -1.2403 -0.990061 0
M  V30 24957 H 2331.65 -0.919708 -3.69218 0
M  V30 24958 H 2331.16 -2.56819 -2.90974 0
M  V30 24959 H 2329.26 -0.238778 -3.71834 0
M  V30 24960 H 2329.37 -2.01519 -4.34657 0
M  V30 24961 H 2327.74 -0.982758 -2.34976 0
M  V30 24962 H 2328.52 -2.64623 -2.187 0
M  V30 24963 N 2330.96 1.31811 -0.863929 0
M  V30 24964 C 2331.89 2.31144 -0.330883 0
M  V30 24965 C 2332.87 1.60088 0.574977 0
M  V30 24966 O 2334.06 1.87831 0.493271 0
M  V30 24967 C 2331.19 3.44055 0.473679 0
M  V30 24968 C 2330.14 4.26659 -0.338556 0
M  V30 24969 C 2329.47 5.3142 0.591318 0
M  V30 24970 C 2330.77 4.98165 -1.56935 0
M  V30 24971 H 2332.46 2.75977 -1.16091 0
M  V30 24972 H 2330.01 1.32678 -0.559681 0
M  V30 24973 H 2331.96 4.12592 0.857071 0
M  V30 24974 H 2330.69 2.97973 1.33716 0
M  V30 24975 H 2329.35 3.5978 -0.703818 0
M  V30 24976 H 2328.99 4.8159 1.4519 0
M  V30 24977 H 2328.69 5.87577 0.0517989 0
M  V30 24978 H 2330.22 6.02819 0.971685 0
M  V30 24979 H 2331.63 5.59333 -1.25774 0
M  V30 24980 H 2330.03 5.6409 -2.04749 0
M  V30 24981 H 2331.1 4.25497 -2.32552 0
M  V30 24982 N 2332.44 0.62277 1.44773 0
M  V30 24983 C 2333.4 -0.0773612 2.29069 0
M  V30 24984 C 2334.4 -0.780437 1.40591 0
M  V30 24985 O 2335.59 -0.626293 1.62552 0
M  V30 24986 C 2332.73 -1.12 3.21976 0
M  V30 24987 H 2333.92 0.663952 2.92458 0
M  V30 24988 H 2331.47 0.382512 1.51547 0
M  V30 24989 H 2332.21 -1.89157 2.6342 0
M  V30 24990 H 2331.99 -0.619883 3.87169 0
M  V30 24991 H 2333.48 -1.60988 3.85321 0
M  V30 24992 N 2333.92 -1.53367 0.362817 0
M  V30 24993 C 2334.85 -2.28577 -0.476936 0
M  V30 24994 C 2335.83 -1.30896 -1.08629 0
M  V30 24995 O 2337.02 -1.59763 -1.10406 0
M  V30 24996 C 2334.15 -3.07296 -1.61823 0
M  V30 24997 C 2333.1 -4.12642 -1.13626 0
M  V30 24998 C 2332.43 -4.79427 -2.36757 0
M  V30 24999 C 2333.73 -5.21824 -0.222969 0
M  V30 25000 H 2335.42 -2.99021 0.150526 0
M  V30 25001 H 2332.97 -1.43811 0.0738356 0
M  V30 25002 H 2334.92 -3.58657 -2.21231 0
M  V30 25003 H 2333.64 -2.34537 -2.27288 0
M  V30 25004 H 2332.3 -3.62222 -0.564881 0
M  V30 25005 H 2331.95 -4.03243 -3.00673 0
M  V30 25006 H 2331.65 -5.50612 -2.05182 0
M  V30 25007 H 2333.17 -5.33581 -2.96856 0
M  V30 25008 H 2334.59 -5.68704 -0.724445 0
M  V30 25009 H 2332.98 -6.001 0.00178349 0
M  V30 25010 H 2334.05 -4.79287 0.735638 0
M  V30 25011 N 2335.4 -0.091913 -1.57332 0
M  V30 25012 C 2336.63 0.58017 -1.98287 0
M  V30 25013 C 2337.04 1.62458 -0.969741 0
M  V30 25014 O 2336.38 1.83634 0.0493178 0
M  V30 25015 C 2336.44 1.28876 -3.35606 0
M  V30 25016 C 2336.11 0.395479 -4.55286 0
M  V30 25017 C 2337.1 -0.355093 -5.18686 0
M  V30 25018 C 2334.79 0.314467 -5.01315 0
M  V30 25019 C 2336.78 -1.17469 -6.26482 0
M  V30 25020 C 2334.47 -0.508784 -6.08978 0
M  V30 25021 C 2335.47 -1.25201 -6.71427 0
M  V30 25022 O 2335.15 -2.06165 -7.77014 0
M  V30 25023 H 2334.89 0.160455 -0.656681 0
M  V30 25024 H 2337.44 -0.166916 -2.04721 0
M  V30 25025 H 2335.67 2.08235 -3.25845 0
M  V30 25026 H 2337.36 1.85506 -3.6103 0
M  V30 25027 H 2338.13 -0.302219 -4.84057 0
M  V30 25028 H 2334 0.882617 -4.52472 0
M  V30 25029 H 2337.55 -1.7553 -6.75156 0
M  V30 25030 H 2333.45 -0.56315 -6.43039 0
M  V30 25031 H 2334.21 -1.98813 -7.93987 0
M  V30 25032 N 2336.88 1.56548 0.181765 0
M  V30 25033 C 2338.29 1.50432 0.533133 0
M  V30 25034 C 2338.49 0.79433 1.85183 0
M  V30 25035 O 2337.55 0.350361 2.50057 0
M  V30 25036 C 2338.86 2.95141 0.575545 0
M  V30 25037 C 2340.41 3.05887 0.663466 0
M  V30 25038 C 2340.88 4.52033 0.736866 0
M  V30 25039 N 2342.38 4.56239 0.800037 0
M  V30 25040 C 2343.11 5.6665 0.877227 0
M  V30 25041 N 2342.61 6.86719 0.915895 0
M  V30 25042 N 2344.4 5.54595 0.915444 0
M  V30 25043 H 2336.55 2.01117 -0.68306 0
M  V30 25044 H 2338.81 0.915793 -0.245004 0
M  V30 25045 H 2338.52 3.50199 -0.324543 0
M  V30 25046 H 2338.39 3.4922 1.42566 0
M  V30 25047 H 2340.78 2.50869 1.55398 0
M  V30 25048 H 2340.86 2.54911 -0.213115 0
M  V30 25049 H 2340.51 5.0768 -0.149351 0
M  V30 25050 H 2340.44 5.00756 1.62944 0
M  V30 25051 H 2342.93 3.69787 0.778861 0
M  V30 25052 H 2343.24 7.66616 0.975678 0
M  V30 25053 H 2341.58 6.89351 0.884348 0
M  V30 25054 H 2344.78 4.59712 0.882164 0
M  V30 25055 H 2344.95 6.40666 0.97214 0
M  V30 25056 N 2338.35 -0.449957 1.5104 0
M  V30 25057 C 2339.32 -1.52767 1.70865 0
M  V30 25058 C 2340.32 -1.50019 0.578872 0
M  V30 25059 O 2341.51 -1.52264 0.84624 0
M  V30 25060 C 2338.64 -2.92347 1.75346 0
M  V30 25061 H 2339.83 -1.36498 2.67036 0
M  V30 25062 H 2337.39 -0.677787 1.40839 0
M  V30 25063 H 2338.12 -3.14036 0.809438 0
M  V30 25064 H 2337.91 -2.95747 2.57441 0
M  V30 25065 H 2339.4 -3.70551 1.92566 0
M  V30 25066 N 2339.83 -1.40974 -0.704569 0
M  V30 25067 C 2341.25 -1.23245 -1.01404 0
M  V30 25068 C 2341.45 -0.115434 -2.01169 0
M  V30 25069 O 2340.5 0.523104 -2.47022 0
M  V30 25070 C 2341.82 -2.57839 -1.54724 0
M  V30 25071 C 2343.37 -2.64945 -1.66653 0
M  V30 25072 C 2343.84 -3.99834 -2.23376 0
M  V30 25073 N 2345.33 -4.01633 -2.30749 0
M  V30 25074 C 2346.07 -5.02799 -2.75646 0
M  V30 25075 N 2345.56 -6.14357 -3.20214 0
M  V30 25076 N 2347.36 -4.90164 -2.75129 0
M  V30 25077 H 2339.51 -2.12355 -0.0434912 0
M  V30 25078 H 2341.77 -0.944457 -0.0818785 0
M  V30 25079 H 2341.48 -3.40285 -0.888772 0
M  V30 25080 H 2341.35 -2.79698 -2.53079 0
M  V30 25081 H 2343.74 -1.82864 -2.31614 0
M  V30 25082 H 2343.82 -2.46906 -0.668674 0
M  V30 25083 H 2343.46 -4.82359 -1.59034 0
M  V30 25084 H 2343.39 -4.15209 -3.23897 0
M  V30 25085 H 2345.88 -3.21082 -1.99285 0
M  V30 25086 H 2346.2 -6.8743 -3.53072 0
M  V30 25087 H 2344.54 -6.17907 -3.18145 0
M  V30 25088 H 2347.73 -4.02099 -2.39654 0
M  V30 25089 H 2347.9 -5.69146 -3.09802 0
M  V30 25090 N 2341.31 0.937917 -1.26653 0
M  V30 25091 C 2342.26 2.05843 -1.08311 0
M  V30 25092 C 2343.25 1.69398 -0.00910548 0
M  V30 25093 O 2344.46 1.79233 -0.166039 0
M  V30 25094 H 2340.83 0.67404 -0.333428 0
M  V30 25095 H 2342.8 2.18463 -2.03265 0
M  V30 25096 C 2341.55 3.39815 -0.736289 0
M  V30 25097 H 2340.88 3.68337 -1.55459 0
M  V30 25098 H 2342.32 4.19023 -0.647764 0
M  V30 25099 C 2340.78 3.32234 0.558765 0
M  V30 25100 O 2341.31 3.68627 1.59615 0
M  V30 25101 N 2339.51 2.85336 0.550607 0
M  V30 25102 H 2339.06 2.55917 -0.293988 0
M  V30 25103 H 2339.02 2.80646 1.41721 0
M  V30 25104 N 2342.79 1.08509 1.14296 0
M  V30 25105 C 2344.02 0.836909 1.89218 0
M  V30 25106 C 2344.43 -0.611022 1.78639 0
M  V30 25107 O 2343.79 -1.41996 1.14645 0
M  V30 25108 C 2343.84 1.25122 3.39156 0
M  V30 25109 O 2343.56 2.64235 3.49444 0
M  V30 25110 C 2345.06 1.03405 4.31071 0
M  V30 25111 H 2342.28 0.30175 0.599323 0
M  V30 25112 H 2344.83 1.44463 1.44743 0
M  V30 25113 H 2342.98 0.687581 3.81249 0
M  V30 25114 H 2343.39 2.81459 4.42584 0
M  V30 25115 H 2344.87 1.37332 5.34644 0
M  V30 25116 H 2345.35 -0.0288487 4.39191 0
M  V30 25117 H 2345.95 1.58318 3.94735 0
M  V30 25118 N 2344.27 -1.31351 0.870907 0
M  V30 25119 C 2345.68 -1.78878 0.534745 0
M  V30 25120 C 2346.03 -1.71756 -0.948392 0
M  V30 25121 O 2345.15 -1.28587 -1.74053 0
M  V30 25122 C 2345.75 -3.24799 0.963896 0
M  V30 25123 C 2344.31 -3.70218 0.679376 0
M  V30 25124 C 2343.45 -2.52115 1.15469 0
M  V30 25125 H 2346.41 -1.18419 1.05653 0
M  V30 25126 H 2346.43 -3.79416 0.286958 0
M  V30 25127 H 2345.94 -3.29951 2.04338 0
M  V30 25128 H 2344.04 -3.70567 -0.388704 0
M  V30 25129 H 2344.15 -4.62315 1.25706 0
M  V30 25130 H 2342.52 -2.48138 0.574427 0
M  V30 25131 H 2343.3 -2.60012 2.24162 0
M  V30 25132 N 2345.74 -0.630439 -1.44441 0
M  V30 25133 C 2346.99 -0.134386 -2.01653 0
M  V30 25134 C 2347.31 1.24794 -1.49838 0
M  V30 25135 O 2346.58 1.82901 -0.701716 0
M  V30 25136 H 2345.16 -0.04669 -0.745539 0
M  V30 25137 H 2347.83 -0.816986 -1.7695 0
M  V30 25138 H 2346.92 -0.101552 -3.11935 0
M  V30 25139 N 2347.22 1.53172 -0.370945 0
M  V30 25140 C 2348.63 1.86393 0.107106 0
M  V30 25141 C 2348.98 1.29135 1.47712 0
M  V30 25142 O 2348.11 0.615475 2.07463 0
M  V30 25143 C 2348.7 3.38202 0.201127 0
M  V30 25144 C 2347.26 3.71201 0.623441 0
M  V30 25145 C 2346.41 2.76377 -0.226027 0
M  V30 25146 H 2349.36 1.47344 -0.589536 0
M  V30 25147 H 2349.38 3.6647 1.02371 0
M  V30 25148 H 2348.89 3.79847 -0.796124 0
M  V30 25149 H 2347 3.35117 1.62873 0
M  V30 25150 H 2347.11 4.77474 0.39433 0
M  V30 25151 H 2345.47 2.52856 0.305917 0
M  V30 25152 H 2346.26 3.20856 -1.22092 0
M  V30 25153 N 2348.7 0.100255 1.57281 0
M  V30 25154 C 2349.65 -0.867553 2.1085 0
M  V30 25155 C 2350.63 -1.24047 1.02475 0
M  V30 25156 O 2351.83 -1.21469 1.28741 0
M  V30 25157 C 2348.96 -2.12469 2.69651 0
M  V30 25158 C 2348.04 -1.77698 3.85077 0
M  V30 25159 N 2348.43 -1.13509 4.92899 0
M  V30 25160 C 2346.73 -2.07275 3.94909 0
M  V30 25161 C 2347.43 -0.974634 5.73477 0
M  V30 25162 N 2346.41 -1.49361 5.22678 0
M  V30 25163 H 2350.21 -0.36742 2.91594 0
M  V30 25164 H 2347.72 -0.102801 1.62074 0
M  V30 25165 H 2349.72 -2.82752 3.06361 0
M  V30 25166 H 2348.38 -2.63043 1.90364 0
M  V30 25167 H 2349.39 -0.801291 5.11664 0
M  V30 25168 H 2346.07 -2.60028 3.26637 0
M  V30 25169 H 2347.46 -0.472246 6.70238 0
M  V30 25170 N 2350.18 -1.56643 -0.17346 0
M  V30 25171 C 2351.43 -1.81513 -0.888674 0
M  V30 25172 C 2351.75 -0.676904 -1.82874 0
M  V30 25173 O 2351.02 0.30338 -1.93537 0
M  V30 25174 H 2349.6 -0.669588 -0.331152 0
M  V30 25175 H 2352.26 -1.94124 -0.173789 0
M  V30 25176 H 2351.36 -2.75481 -1.46686 0
M  V30 25177 N 2351.66 0.44194 -1.51277 0
M  V30 25178 C 2352.59 1.54358 -1.75203 0
M  V30 25179 C 2353.57 1.59102 -0.60171 0
M  V30 25180 O 2354.75 1.74903 -0.843944 0
M  V30 25181 C 2351.88 2.92474 -1.87287 0
M  V30 25182 C 2350.84 3.02591 -3.02692 0
M  V30 25183 C 2350.16 4.42641 -2.99955 0
M  V30 25184 C 2351.46 2.77098 -4.42735 0
M  V30 25185 H 2353.16 1.34587 -2.67445 0
M  V30 25186 H 2350.7 0.646026 -1.28695 0
M  V30 25187 H 2352.66 3.69497 -2.02609 0
M  V30 25188 H 2351.38 3.13465 -0.916899 0
M  V30 25189 H 2350.04 2.28007 -2.87069 0
M  V30 25190 H 2349.69 4.60594 -2.02144 0
M  V30 25191 H 2349.39 4.50341 -3.77447 0
M  V30 25192 H 2350.91 5.21644 -3.17363 0
M  V30 25193 H 2352.33 3.43856 -4.58733 0
M  V30 25194 H 2350.72 2.96213 -5.21899 0
M  V30 25195 H 2351.79 1.72736 -4.5309 0
M  V30 25196 N 2353.14 1.41345 0.697083 0
M  V30 25197 C 2354.36 1.43974 1.4859 0
M  V30 25198 C 2354.78 0.0445944 1.88747 0
M  V30 25199 O 2354.14 -0.935758 1.56684 0
M  V30 25200 C 2354.19 2.34711 2.74942 0
M  V30 25201 O 2353.91 3.68796 2.36477 0
M  V30 25202 C 2355.41 2.46127 3.68695 0
M  V30 25203 H 2352.63 0.490426 0.457956 0
M  V30 25204 H 2355.17 1.85612 0.858397 0
M  V30 25205 H 2353.33 1.96386 3.33933 0
M  V30 25206 H 2353.74 4.17173 3.1791 0
M  V30 25207 H 2355.22 3.13785 4.5414 0
M  V30 25208 H 2355.69 1.49206 4.13079 0
M  V30 25209 H 2356.3 2.85081 3.15608 0
M  V30 25210 N 2354.61 -0.931187 1.27148 0
M  V30 25211 C 2356.02 -1.4934 1.12046 0
M  V30 25212 C 2356.38 -1.93958 -0.295761 0
M  V30 25213 O 2355.5 -1.80854 -1.18831 0
M  V30 25214 C 2356.1 -2.7141 2.02786 0
M  V30 25215 C 2354.65 -3.23867 1.918 0
M  V30 25216 C 2353.8 -1.96613 1.95547 0
M  V30 25217 H 2356.75 -0.745648 1.40092 0
M  V30 25218 H 2356.77 -3.46071 1.58162 0
M  V30 25219 H 2356.29 -2.38905 3.05853 0
M  V30 25220 H 2354.39 -3.61138 0.917055 0
M  V30 25221 H 2354.5 -3.90297 2.77858 0
M  V30 25222 H 2352.86 -2.12952 1.39726 0
M  V30 25223 H 2353.65 -1.66427 3.00262 0
M  V30 25224 N 2356.09 -1.09114 -1.13719 0
M  V30 25225 C 2357.32 -0.845704 -1.88498 0
M  V30 25226 C 2357.73 0.6064 -1.79219 0
M  V30 25227 O 2357.07 1.42894 -1.15442 0
M  V30 25228 C 2357.13 -1.19799 -3.38952 0
M  V30 25229 C 2356.8 -2.65434 -3.72013 0
M  V30 25230 C 2357.8 -3.63684 -3.71524 0
M  V30 25231 C 2355.48 -3.01474 -4.0177 0
M  V30 25232 C 2357.47 -4.96001 -4.00327 0
M  V30 25233 C 2355.16 -4.33983 -4.30235 0
M  V30 25234 C 2356.16 -5.31056 -4.29498 0
M  V30 25235 O 2355.85 -6.61181 -4.57269 0
M  V30 25236 H 2355.58 -0.304182 -0.603697 0
M  V30 25237 H 2358.13 -1.45579 -1.449 0
M  V30 25238 H 2356.36 -0.530938 -3.83038 0
M  V30 25239 H 2358.05 -0.932215 -3.9505 0
M  V30 25240 H 2358.82 -3.37185 -3.48614 0
M  V30 25241 H 2354.7 -2.26551 -4.01492 0
M  V30 25242 H 2358.24 -5.71762 -3.99668 0
M  V30 25243 H 2354.14 -4.60227 -4.52616 0
M  V30 25244 H 2354.91 -6.66606 -4.74952 0
M  V30 25245 N 2357.57 1.30887 -0.877861 0
M  V30 25246 C 2358.48 2.32077 -0.343136 0
M  V30 25247 C 2359.5 1.65046 0.550993 0
M  V30 25248 O 2360.67 1.96404 0.445819 0
M  V30 25249 C 2357.74 3.43899 0.439845 0
M  V30 25250 C 2356.8 4.26572 -0.483186 0
M  V30 25251 C 2356.03 5.33054 0.262522 0
M  V30 25252 O 2356.25 5.50607 1.48958 0
M  V30 25253 O 2355.19 6.00676 -0.383698 0
M  V30 25254 H 2359.01 2.79751 -1.18208 0
M  V30 25255 H 2356.6 1.34928 -0.641473 0
M  V30 25256 H 2358.48 4.12036 0.883432 0
M  V30 25257 H 2357.16 2.98373 1.25521 0
M  V30 25258 H 2356.06 3.61159 -0.975437 0
M  V30 25259 H 2357.4 4.75684 -1.26436 0
M  V30 25260 N 2359.05 0.638091 1.44105 0
M  V30 25261 C 2360.3 0.14278 2.01194 0
M  V30 25262 C 2360.61 -1.2453 1.50837 0
M  V30 25263 O 2361.82 -1.835 2.001 0
M  V30 25264 C 2360.27 0.204484 3.59319 0
M  V30 25265 C 2359.88 1.59431 4.18671 0
M  V30 25266 C 2361.62 -0.234004 4.23855 0
M  V30 25267 C 2359.53 1.61075 5.69042 0
M  V30 25268 H 2358.46 0.0496131 0.752366 0
M  V30 25269 H 2361.11 0.79791 1.65244 0
M  V30 25270 H 2359.49 -0.517877 3.92599 0
M  V30 25271 H 2360.67 2.34081 3.96917 0
M  V30 25272 H 2358.98 1.97747 3.66449 0
M  V30 25273 H 2361.58 -0.241349 5.34155 0
M  V30 25274 H 2361.92 -1.26263 3.9669 0
M  V30 25275 H 2362.46 0.436095 3.95402 0
M  V30 25276 H 2359.19 2.61798 6.00951 0
M  V30 25277 H 2358.71 0.907285 5.92898 0
M  V30 25278 H 2360.39 1.34777 6.32807 0
M  V30 25279 N 2360.53 -1.52973 0.379063 0
M  V30 25280 C 2361.46 -2.2907 -0.452665 0
M  V30 25281 C 2362.44 -1.32041 -1.07235 0
M  V30 25282 O 2363.62 -1.60925 -1.08705 0
M  V30 25283 C 2360.75 -3.08995 -1.58554 0
M  V30 25284 C 2359.71 -4.13824 -1.09243 0
M  V30 25285 C 2359.03 -4.81911 -2.31659 0
M  V30 25286 C 2360.33 -5.22031 -0.16761 0
M  V30 25287 H 2362.03 -2.98845 0.182233 0
M  V30 25288 H 2359.57 -1.43724 0.0890845 0
M  V30 25289 H 2361.52 -3.60983 -2.17414 0
M  V30 25290 H 2360.25 -2.36935 -2.24788 0
M  V30 25291 H 2358.91 -3.62801 -0.526431 0
M  V30 25292 H 2358.56 -4.06409 -2.96379 0
M  V30 25293 H 2358.26 -5.52758 -1.9933 0
M  V30 25294 H 2359.78 -5.367 -2.9118 0
M  V30 25295 H 2361.19 -5.69441 -0.664086 0
M  V30 25296 H 2359.59 -6.00064 0.065432 0
M  V30 25297 H 2360.66 -4.7848 0.786431 0
M  V30 25298 N 2362 -0.108595 -1.57225 0
M  V30 25299 C 2363.23 0.559107 -1.98891 0
M  V30 25300 C 2363.64 1.6142 -0.986918 0
M  V30 25301 O 2362.98 1.83676 0.0298382 0
M  V30 25302 C 2363.05 1.25309 -3.36954 0
M  V30 25303 C 2362.71 0.347168 -4.55679 0
M  V30 25304 C 2363.71 -0.410087 -5.1828 0
M  V30 25305 C 2361.39 0.261279 -5.0162 0
M  V30 25306 C 2363.39 -1.24107 -6.25201 0
M  V30 25307 C 2361.07 -0.573345 -6.08404 0
M  V30 25308 C 2362.07 -1.32316 -6.70061 0
M  V30 25309 O 2361.76 -2.14394 -7.74784 0
M  V30 25310 H 2361.49 0.153481 -0.658346 0
M  V30 25311 H 2364.05 -0.18862 -2.04532 0
M  V30 25312 H 2362.28 2.04767 -3.28036 0
M  V30 25313 H 2363.96 1.81666 -3.62977 0
M  V30 25314 H 2364.73 -0.353542 -4.8371 0
M  V30 25315 H 2360.61 0.834577 -4.53383 0
M  V30 25316 H 2364.15 -1.82681 -6.73256 0
M  V30 25317 H 2360.05 -0.631321 -6.42405 0
M  V30 25318 H 2360.82 -2.07223 -7.91834 0
M  V30 25319 N 2363.48 1.56732 0.16515 0
M  V30 25320 C 2364.73 1.81982 0.879036 0
M  V30 25321 C 2365.05 0.686593 1.82513 0
M  V30 25322 O 2364.32 -0.293112 1.93695 0
M  V30 25323 H 2362.9 0.671334 0.327596 0
M  V30 25324 H 2365.56 1.94213 0.163492 0
M  V30 25325 H 2364.66 2.76255 1.45223 0
M  V30 25326 N 2364.96 -0.433911 1.51509 0
M  V30 25327 C 2365.92 -1.50946 1.72476 0
M  V30 25328 C 2366.92 -1.49397 0.594751 0
M  V30 25329 O 2368.11 -1.51358 0.862342 0
M  V30 25330 C 2365.24 -2.90471 1.78437 0
M  V30 25331 H 2366.44 -1.33658 2.68469 0
M  V30 25332 H 2363.99 -0.662811 1.4155 0
M  V30 25333 H 2364.73 -3.1316 0.8427 0
M  V30 25334 H 2364.51 -2.93 2.60563 0
M  V30 25335 H 2366 -3.68488 1.96485 0
M  V30 25336 N 2366.44 -1.41713 -0.689577 0
M  V30 25337 C 2367.85 -1.36877 -1.26971 0
M  V30 25338 C 2368.2 -0.0547825 -1.96124 0
M  V30 25339 O 2367.33 0.846835 -1.99142 0
M  V30 25340 C 2367.92 -2.47926 -2.30907 0
M  V30 25341 C 2366.48 -2.46469 -2.84482 0
M  V30 25342 C 2365.63 -2.27468 -1.58599 0
M  V30 25343 H 2368.58 -1.51142 -0.483933 0
M  V30 25344 H 2368.6 -2.17329 -3.12328 0
M  V30 25345 H 2368.11 -3.43546 -1.80548 0
M  V30 25346 H 2366.21 -1.54623 -3.39002 0
M  V30 25347 H 2366.32 -3.42992 -3.34504 0
M  V30 25348 H 2364.69 -1.75455 -1.84629 0
M  V30 25349 H 2365.47 -3.25123 -1.10227 0
M  V30 25350 N 2367.92 0.924431 -1.2764 0
M  V30 25351 C 2369.33 1.48744 -1.12837 0
M  V30 25352 C 2369.68 1.94112 0.285471 0
M  V30 25353 O 2368.8 1.81481 1.17871 0
M  V30 25354 C 2369.4 2.70331 -2.04222 0
M  V30 25355 C 2367.96 3.22845 -1.93515 0
M  V30 25356 C 2367.1 1.95573 -1.96587 0
M  V30 25357 H 2370.06 0.738208 -1.40486 0
M  V30 25358 H 2370.08 3.45227 -1.59995 0
M  V30 25359 H 2369.59 2.3728 -3.07115 0
M  V30 25360 H 2367.69 3.60647 -0.936194 0
M  V30 25361 H 2367.8 3.88818 -2.79924 0
M  V30 25362 H 2366.17 2.12208 -1.40854 0
M  V30 25363 H 2366.95 1.64832 -3.0114 0
M  V30 25364 N 2369.39 1.09715 1.13139 0
M  V30 25365 C 2370.81 0.853914 1.66028 0
M  V30 25366 C 2371.16 -0.617109 1.86242 0
M  V30 25367 O 2370.28 -1.47501 1.58343 0
M  V30 25368 C 2370.88 1.54355 3.01596 0
M  V30 25369 C 2369.44 1.34721 3.51465 0
M  V30 25370 C 2368.58 1.59773 2.26645 0
M  V30 25371 H 2371.53 1.2559 0.970204 0
M  V30 25372 H 2371.55 0.978331 3.67708 0
M  V30 25373 H 2371.07 2.61415 2.86851 0
M  V30 25374 H 2369.17 0.297903 3.71407 0
M  V30 25375 H 2369.28 2.08408 4.31396 0
M  V30 25376 H 2367.64 1.02002 2.33383 0
M  V30 25377 H 2368.43 2.68069 2.14462 0
M  V30 25378 N 2370.87 -1.30419 0.88479 0
M  V30 25379 C 2371.8 -2.30588 0.367614 0
M  V30 25380 C 2372.78 -1.60982 -0.549436 0
M  V30 25381 O 2373.97 -1.88592 -0.463327 0
M  V30 25382 C 2371.1 -3.44765 -0.418883 0
M  V30 25383 C 2370.05 -4.26066 0.406391 0
M  V30 25384 C 2369.38 -5.32294 -0.506699 0
M  V30 25385 C 2370.68 -4.95606 1.64841 0
M  V30 25386 H 2372.37 -2.74095 1.20467 0
M  V30 25387 H 2369.92 -1.31771 0.580718 0
M  V30 25388 H 2371.87 -4.13903 -0.791322 0
M  V30 25389 H 2370.6 -3.00062 -1.28958 0
M  V30 25390 H 2369.25 -3.58615 0.760967 0
M  V30 25391 H 2368.9 -4.83839 -1.3751 0
M  V30 25392 H 2368.6 -5.87585 0.041686 0
M  V30 25393 H 2370.13 -6.04288 -0.875658 0
M  V30 25394 H 2371.54 -5.57262 1.34656 0
M  V30 25395 H 2369.94 -5.60761 2.13698 0
M  V30 25396 H 2371.01 -4.21743 2.39292 0
M  V30 25397 N 2372.35 -0.645724 -1.43764 0
M  V30 25398 C 2373.6 -0.156306 -2.02197 0
M  V30 25399 C 2373.93 1.22391 -1.50779 0
M  V30 25400 O 2373.2 1.81552 -0.697803 0
M  V30 25401 C 2373.49 -0.158935 -3.59749 0
M  V30 25402 C 2373.34 -1.57253 -4.21416 0
M  V30 25403 C 2374.66 0.508713 -4.3715 0
M  V30 25404 H 2371.78 -0.0582732 -0.734693 0
M  V30 25405 H 2374.42 -0.824981 -1.71155 0
M  V30 25406 H 2372.57 0.410457 -3.86326 0
M  V30 25407 H 2374.24 -2.19193 -4.05897 0
M  V30 25408 H 2372.49 -2.12207 -3.78353 0
M  V30 25409 H 2373.16 -1.52628 -5.3048 0
M  V30 25410 H 2375.63 0.0243389 -4.16093 0
M  V30 25411 H 2374.51 0.476117 -5.46831 0
M  V30 25412 H 2374.77 1.58158 -4.12842 0
M  V30 25413 N 2373.83 1.5277 -0.38717 0
M  V30 25414 C 2374.78 2.27927 0.463912 0
M  V30 25415 C 2375.77 1.31743 1.0649 0
M  V30 25416 O 2376.98 1.49289 1.00562 0
M  V30 25417 H 2373.35 0.732912 0.168357 0
M  V30 25418 H 2375.32 2.97785 -0.191462 0
M  V30 25419 C 2374.07 3.09715 1.58024 0
M  V30 25420 H 2373.39 3.83583 1.12711 0
M  V30 25421 H 2374.83 3.65445 2.15002 0
M  V30 25422 C 2373.29 2.21894 2.53505 0
M  V30 25423 O 2373.82 1.84428 3.5686 0
M  V30 25424 N 2372.03 1.86097 2.23196 0
M  V30 25425 H 2371.58 2.16763 1.39181 0
M  V30 25426 H 2371.53 1.27626 2.87331 0
M  V30 25427 N 2375.31 0.116931 1.57166 0
M  V30 25428 C 2376.55 -0.541569 1.95124 0
M  V30 25429 C 2376.88 -1.66818 1.00009 0
M  V30 25430 O 2376.14 -1.95686 0.0236002 0
M  V30 25431 C 2376.44 -1.11658 3.3951 0
M  V30 25432 C 2376.1 -0.111526 4.50762 0
M  V30 25433 C 2374.76 0.164843 4.80918 0
M  V30 25434 C 2377.12 0.573529 5.18035 0
M  V30 25435 C 2374.44 1.13259 5.75664 0
M  V30 25436 C 2376.8 1.52989 6.13822 0
M  V30 25437 C 2375.46 1.81427 6.42371 0
M  V30 25438 H 2374.73 -0.198174 0.714008 0
M  V30 25439 H 2377.38 0.197398 1.9048 0
M  V30 25440 H 2375.68 -1.93226 3.40838 0
M  V30 25441 H 2377.38 -1.63416 3.66192 0
M  V30 25442 H 2373.97 -0.337117 4.27272 0
M  V30 25443 H 2378.15 0.373179 4.94895 0
M  V30 25444 H 2373.41 1.35968 5.96089 0
M  V30 25445 H 2377.58 2.06641 6.65036 0
M  V30 25446 H 2375.21 2.5657 7.15595 0
M  V30 25447 N 2376.78 -1.56818 -0.156836 0
M  V30 25448 C 2378.2 -1.72346 -0.717886 0
M  V30 25449 C 2378.55 -0.729779 -1.82123 0
M  V30 25450 O 2377.67 0.105743 -2.16141 0
M  V30 25451 C 2378.27 -3.12492 -1.30898 0
M  V30 25452 C 2376.83 -3.29656 -1.8167 0
M  V30 25453 C 2375.97 -2.68285 -0.701302 0
M  V30 25454 H 2378.92 -1.58551 0.0687268 0
M  V30 25455 H 2378.94 -3.11946 -2.17876 0
M  V30 25456 H 2378.46 -3.84791 -0.505728 0
M  V30 25457 H 2376.56 -2.62337 -2.64594 0
M  V30 25458 H 2376.67 -4.37523 -1.95218 0
M  V30 25459 H 2375.03 -2.28486 -1.12544 0
M  V30 25460 H 2375.82 -3.43181 0.0903449 0
M  V30 25461 N 2378.26 0.425871 -1.51737 0
M  V30 25462 C 2379.54 1.18627 -1.55522 0
M  V30 25463 C 2379.92 2.08564 -0.326256 0
M  V30 25464 O 2379.27 2.17897 0.687974 0
M  V30 25465 C 2379.48 1.97815 -2.87524 0
M  V30 25466 C 2380.83 2.54462 -3.39903 0
M  V30 25467 O 2381.85 2.08014 -2.89152 0
M  V30 25468 O 2380.71 3.39208 -4.28486 0
M  V30 25469 H 2377.8 0.54071 -0.625749 0
M  V30 25470 H 2380.35 0.434009 -1.64056 0
M  V30 25471 H 2379.12 1.3183 -3.68425 0
M  V30 25472 H 2378.74 2.80083 -2.82205 0
M  V30 25473 N 2379.74 1.42077 0.682052 0
M  V30 25474 C 2381.15 1.37548 1.26243 0
M  V30 25475 C 2381.5 0.0651826 1.96092 0
M  V30 25476 O 2380.63 -0.836262 1.99589 0
M  V30 25477 C 2381.22 2.49147 2.29589 0
M  V30 25478 C 2379.78 2.47974 2.83171 0
M  V30 25479 C 2378.93 2.28305 1.57391 0
M  V30 25480 H 2381.88 1.51396 0.475911 0
M  V30 25481 H 2381.9 2.18982 3.11171 0
M  V30 25482 H 2381.41 3.44499 1.78723 0
M  V30 25483 H 2379.51 1.56419 3.38177 0
M  V30 25484 H 2379.63 3.44761 3.32681 0
M  V30 25485 H 2377.99 1.76431 1.83696 0
M  V30 25486 H 2378.77 3.25703 1.08501 0
M  V30 25487 N 2381.22 -0.917649 1.28129 0
M  V30 25488 C 2382.5 -1.6454 1.05764 0
M  V30 25489 C 2382.88 -2.07192 -0.404308 0
M  V30 25490 O 2382.22 -1.8139 -1.3896 0
M  V30 25491 C 2382.43 -2.83986 2.02862 0
M  V30 25492 C 2383.78 -3.55096 2.32792 0
M  V30 25493 O 2384.81 -2.94128 2.00915 0
M  V30 25494 O 2383.67 -4.64964 2.87178 0
M  V30 25495 H 2380.76 -0.721645 0.403928 0
M  V30 25496 H 2383.31 -0.967298 1.39433 0
M  V30 25497 H 2382.08 -2.49533 3.01412 0
M  V30 25498 H 2381.7 -3.59511 1.69816 0
M  V30 25499 N 2382.7 -1.10314 -1.12555 0
M  V30 25500 C 2383.63 -0.694712 -2.17368 0
M  V30 25501 C 2384.61 0.303345 -1.59745 0
M  V30 25502 O 2385.79 0.202545 -1.87409 0
M  V30 25503 C 2382.92 -0.0248647 -3.38691 0
M  V30 25504 C 2381.97 -0.986194 -4.14942 0
M  V30 25505 S 2382.8 -2.5029 -4.73408 0
M  V30 25506 C 2383.95 -1.84572 -5.98067 0
M  V30 25507 H 2384.19 -1.58259 -2.51677 0
M  V30 25508 H 2381.72 -0.920014 -1.23996 0
M  V30 25509 H 2383.68 0.355289 -4.0896 0
M  V30 25510 H 2382.34 0.839797 -3.02665 0
M  V30 25511 H 2381.53 -0.464739 -5.01853 0
M  V30 25512 H 2381.13 -1.30819 -3.50374 0
M  V30 25513 H 2383.43 -1.17519 -6.6723 0
M  V30 25514 H 2384.37 -2.69435 -6.54836 0
M  V30 25515 H 2384.78 -1.31078 -5.49071 0
M  V30 25516 N 2384.18 1.29948 -0.891694 0
M  V30 25517 C 2385.4 2.00031 -0.528695 0
M  V30 25518 C 2385.82 1.66797 0.884545 0
M  V30 25519 O 2385.18 0.908697 1.58269 0
M  V30 25520 C 2385.23 3.54621 -0.701876 0
M  V30 25521 O 2384.95 3.86674 -2.05948 0
M  V30 25522 C 2386.45 4.41973 -0.342761 0
M  V30 25523 H 2383.67 0.639343 -0.20367 0
M  V30 25524 H 2386.21 1.65675 -1.19884 0
M  V30 25525 H 2384.37 3.87319 -0.0790149 0
M  V30 25526 H 2384.78 4.81364 -2.083 0
M  V30 25527 H 2386.26 5.49594 -0.514806 0
M  V30 25528 H 2386.73 4.33264 0.719674 0
M  V30 25529 H 2387.34 4.14731 -0.942227 0
M  V30 25530 N 2385.65 0.653339 1.4342 0
M  V30 25531 C 2387.07 0.320914 1.5634 0
M  V30 25532 C 2387.27 -1.17496 1.63698 0
M  V30 25533 O 2386.33 -1.95979 1.59212 0
M  V30 25534 C 2387.64 1.03238 2.82423 0
M  V30 25535 C 2389.19 1.01264 2.96167 0
M  V30 25536 C 2389.66 1.705 4.25081 0
M  V30 25537 N 2391.15 1.67264 4.31945 0
M  V30 25538 C 2391.89 2.1771 5.30462 0
M  V30 25539 N 2391.38 2.76445 6.35256 0
M  V30 25540 N 2393.18 2.08209 5.22116 0
M  V30 25541 H 2385.33 1.62406 1.36887 0
M  V30 25542 H 2387.59 0.682989 0.657442 0
M  V30 25543 H 2387.3 2.08749 2.83049 0
M  V30 25544 H 2387.17 0.584013 3.72651 0
M  V30 25545 H 2389.56 -0.0340717 2.9508 0
M  V30 25546 H 2389.64 1.49969 2.07227 0
M  V30 25547 H 2389.28 2.75128 4.26928 0
M  V30 25548 H 2389.21 1.1926 5.12918 0
M  V30 25549 H 2391.7 1.24404 3.56836 0
M  V30 25550 H 2392.02 3.12613 7.06748 0
M  V30 25551 H 2390.36 2.80506 6.35879 0
M  V30 25552 H 2393.55 1.62028 4.39163 0
M  V30 25553 H 2393.73 2.47832 5.98735 0
M  V30 25554 N 2387.13 -1.52563 0.395266 0
M  V30 25555 C 2388.38 -2.01952 -0.185282 0
M  V30 25556 C 2388.71 -1.28097 -1.45961 0
M  V30 25557 O 2387.99 -0.383183 -1.90688 0
M  V30 25558 C 2388.27 -3.57313 -0.447131 0
M  V30 25559 C 2388.12 -4.41832 0.842906 0
M  V30 25560 C 2389.44 -4.2241 -1.23522 0
M  V30 25561 H 2386.56 -0.734051 -0.0658659 0
M  V30 25562 H 2389.2 -1.82574 0.526007 0
M  V30 25563 H 2387.35 -3.73956 -1.05305 0
M  V30 25564 H 2389.02 -4.36928 1.47957 0
M  V30 25565 H 2387.27 -4.08603 1.45693 0
M  V30 25566 H 2387.94 -5.48572 0.614262 0
M  V30 25567 H 2390.41 -4.09782 -0.722373 0
M  V30 25568 H 2389.29 -5.31083 -1.38718 0
M  V30 25569 H 2389.55 -3.8044 -2.25207 0
M  V30 25570 N 2388.61 -0.125265 -1.57101 0
M  V30 25571 C 2389.84 0.538761 -1.99762 0
M  V30 25572 C 2390.25 1.59825 -1.00506 0
M  V30 25573 O 2389.61 1.825 0.00116266 0
M  V30 25574 C 2389.66 1.15921 -3.4241 0
M  V30 25575 O 2389.38 0.142066 -4.3787 0
M  V30 25576 C 2390.88 1.90595 -4.00235 0
M  V30 25577 H 2388.1 0.142129 -0.655775 0
M  V30 25578 H 2390.65 -0.213449 -2.03383 0
M  V30 25579 H 2388.8 1.86217 -3.39709 0
M  V30 25580 H 2389.22 0.593683 -5.21129 0
M  V30 25581 H 2390.69 2.29326 -5.02109 0
M  V30 25582 H 2391.17 2.78357 -3.39726 0
M  V30 25583 H 2391.77 1.25048 -4.06501 0
M  V30 25584 N 2390.09 1.56899 0.148518 0
M  V30 25585 C 2391.04 1.99098 1.20261 0
M  V30 25586 C 2392.03 0.883148 1.44557 0
M  V30 25587 O 2393.24 1.06833 1.44868 0
M  V30 25588 H 2389.61 0.633767 0.404775 0
M  V30 25589 H 2391.58 2.86912 0.81999 0
M  V30 25590 C 2390.33 2.38634 2.52882 0
M  V30 25591 H 2389.65 3.23431 2.35015 0
M  V30 25592 H 2391.09 2.71985 3.25269 0
M  V30 25593 C 2389.55 1.23842 3.13313 0
M  V30 25594 O 2390.08 0.538338 3.98076 0
M  V30 25595 N 2388.29 1.00306 2.7274 0
M  V30 25596 H 2387.84 1.57413 2.03909 0
M  V30 25597 H 2387.79 0.236893 3.13506 0
M  V30 25598 N 2391.57 -0.417818 1.51961 0
M  V30 25599 C 2392.79 -1.19207 1.69719 0
M  V30 25600 C 2393.22 -1.8375 0.40218 0
M  V30 25601 O 2392.57 -1.69645 -0.639563 0
M  V30 25602 C 2392.62 -2.23736 2.82798 0
M  V30 25603 O 2391.73 -3.29679 2.47761 0
M  V30 25604 H 2391.07 -0.348377 0.565269 0
M  V30 25605 H 2393.6 -0.49095 1.98622 0
M  V30 25606 H 2393.61 -2.68206 3.07456 0
M  V30 25607 H 2392.28 -1.76139 3.76759 0
M  V30 25608 H 2390.86 -2.90548 2.33744 0
M  V30 25609 N 2393.04 -1.42436 -0.674508 0
M  V30 25610 C 2394.45 -1.38216 -1.25512 0
M  V30 25611 C 2394.81 -0.0755809 -1.96054 0
M  V30 25612 O 2393.93 0.825665 -2.00029 0
M  V30 25613 C 2394.53 -2.50361 -2.28265 0
M  V30 25614 C 2393.08 -2.49472 -2.81852 0
M  V30 25615 C 2392.23 -2.29137 -1.56178 0
M  V30 25616 H 2395.18 -1.51646 -0.467875 0
M  V30 25617 H 2395.2 -2.20629 -3.10005 0
M  V30 25618 H 2394.72 -3.45442 -1.76894 0
M  V30 25619 H 2392.82 -1.5821 -3.37343 0
M  V30 25620 H 2392.93 -3.46521 -3.30848 0
M  V30 25621 H 2391.29 -1.77403 -1.82758 0
M  V30 25622 H 2392.08 -3.26274 -1.06773 0
M  V30 25623 N 2394.52 0.910841 -1.28614 0
M  V30 25624 C 2395.75 1.69925 -1.18913 0
M  V30 25625 C 2396.17 1.86453 0.248339 0
M  V30 25626 O 2395.53 1.37679 1.17959 0
M  V30 25627 C 2395.58 3.06742 -1.89583 0
M  V30 25628 O 2394.68 3.94394 -1.20528 0
M  V30 25629 H 2394.02 0.520215 -0.412641 0
M  V30 25630 H 2396.55 1.13867 -1.69987 0
M  V30 25631 H 2396.56 3.56955 -1.97603 0
M  V30 25632 H 2395.24 2.9403 -2.94142 0
M  V30 25633 H 2393.81 3.52829 -1.2069 0
M  V30 25634 N 2396 1.10909 1.11969 0
M  V30 25635 C 2396.93 0.784511 2.19927 0
M  V30 25636 C 2397.91 -0.244697 1.68331 0
M  V30 25637 O 2399.1 -0.109384 1.93892 0
M  V30 25638 C 2396.23 0.220888 3.46597 0
M  V30 25639 C 2395.18 1.18134 4.11374 0
M  V30 25640 C 2394.51 0.478688 5.32553 0
M  V30 25641 C 2395.81 2.52987 4.56941 0
M  V30 25642 H 2397.5 1.68719 2.47334 0
M  V30 25643 H 2395.05 0.812663 1.18877 0
M  V30 25644 H 2397 -0.0183538 4.21396 0
M  V30 25645 H 2395.72 -0.717057 3.18631 0
M  V30 25646 H 2394.38 1.40612 3.38561 0
M  V30 25647 H 2394.03 -0.463888 5.00856 0
M  V30 25648 H 2393.73 1.11922 5.76842 0
M  V30 25649 H 2395.25 0.248107 6.10096 0
M  V30 25650 H 2396.67 2.3463 5.23089 0
M  V30 25651 H 2395.07 3.12971 5.12025 0
M  V30 25652 H 2396.14 3.1262 3.70671 0
M  V30 25653 N 2397.48 -1.29474 0.898573 0
M  V30 25654 C 2398.41 -2.26771 0.332766 0
M  V30 25655 C 2399.42 -1.54262 -0.520296 0
M  V30 25656 O 2400.61 -1.75278 -0.337637 0
M  V30 25657 C 2397.71 -3.34501 -0.544275 0
M  V30 25658 C 2396.89 -4.36485 0.282804 0
M  V30 25659 C 2395.94 -5.23555 -0.526889 0
M  V30 25660 O 2394.97 -5.69173 0.0552166 0
M  V30 25661 N 2396.17 -5.50793 -1.83322 0
M  V30 25662 H 2398.94 -2.7596 1.16902 0
M  V30 25663 H 2396.5 -1.42796 0.762944 0
M  V30 25664 H 2398.49 -3.8968 -1.09232 0
M  V30 25665 H 2397.06 -2.85138 -1.28122 0
M  V30 25666 H 2396.28 -3.80981 1.01227 0
M  V30 25667 H 2397.57 -5.01662 0.849268 0
M  V30 25668 H 2396.97 -5.15538 -2.32889 0
M  V30 25669 H 2395.52 -6.08792 -2.32842 0
M  V30 25670 N 2398.96 -0.660936 -1.43071 0
M  V30 25671 C 2399.92 0.0166003 -2.29194 0
M  V30 25672 C 2400.92 0.742887 -1.42611 0
M  V30 25673 O 2402.11 0.582975 -1.64156 0
M  V30 25674 C 2399.24 1.03424 -3.24833 0
M  V30 25675 H 2400.43 -0.741259 -2.90595 0
M  V30 25676 H 2397.99 -0.422558 -1.5048 0
M  V30 25677 H 2398.72 1.82107 -2.68342 0
M  V30 25678 H 2398.51 0.517014 -3.88676 0
M  V30 25679 H 2400 1.50716 -3.89454 0
M  V30 25680 N 2400.43 1.52351 -0.403352 0
M  V30 25681 C 2401.38 2.23671 0.442205 0
M  V30 25682 C 2402.37 1.24585 1.0182 0
M  V30 25683 O 2403.56 1.49852 0.941978 0
M  V30 25684 C 2400.69 3.05735 1.56145 0
M  V30 25685 C 2399.78 4.12226 0.996503 0
M  V30 25686 N 2400.17 5.05554 0.157716 0
M  V30 25687 C 2398.46 4.27607 1.26759 0
M  V30 25688 C 2399.17 5.81491 -0.155956 0
M  V30 25689 N 2398.14 5.4172 0.45168 0
M  V30 25690 H 2401.94 2.93184 -0.205015 0
M  V30 25691 H 2399.46 1.60991 -0.213446 0
M  V30 25692 H 2401.45 3.55377 2.17975 0
M  V30 25693 H 2400.11 2.37759 2.21135 0
M  V30 25694 H 2401.13 5.1749 -0.20614 0
M  V30 25695 H 2397.8 3.70861 1.9175 0
M  V30 25696 H 2399.19 6.66673 -0.836446 0
M  V30 25697 N 2401.91 0.133594 1.57033 0
M  V30 25698 C 2402.84 -0.807528 2.19092 0
M  V30 25699 C 2403.82 -1.26679 1.13519 0
M  V30 25700 O 2405.01 -1.32677 1.41812 0
M  V30 25701 C 2402.14 -2.05207 2.80191 0
M  V30 25702 C 2401.09 -1.73008 3.91475 0
M  V30 25703 C 2400.42 -3.04614 4.39448 0
M  V30 25704 C 2401.72 -0.987077 5.12888 0
M  V30 25705 H 2403.41 -0.290351 2.97989 0
M  V30 25706 H 2400.96 -0.138214 1.43335 0
M  V30 25707 H 2402.91 -2.71515 3.22269 0
M  V30 25708 H 2401.64 -2.59275 1.98606 0
M  V30 25709 H 2400.29 -1.09083 3.49995 0
M  V30 25710 H 2399.94 -3.56645 3.54702 0
M  V30 25711 H 2399.64 -2.83838 5.145 0
M  V30 25712 H 2401.17 -3.72016 4.84187 0
M  V30 25713 H 2402.58 -1.55198 5.51894 0
M  V30 25714 H 2400.98 -0.879746 5.93616 0
M  V30 25715 H 2402.05 0.0236139 4.84894 0
M  V30 25716 N 2403.39 -1.56975 -0.140195 0
M  V30 25717 C 2404.32 -1.9539 -1.19814 0
M  V30 25718 C 2405.34 -0.85055 -1.38815 0
M  V30 25719 O 2406.52 -1.12894 -1.38265 0
M  V30 25720 C 2403.62 -2.21862 -2.56185 0
M  V30 25721 C 2402.8 -3.53154 -2.58071 0
M  V30 25722 C 2401.86 -3.68086 -3.7603 0
M  V30 25723 O 2400.88 -4.40412 -3.60591 0
M  V30 25724 N 2402.08 -3.0526 -4.93758 0
M  V30 25725 H 2404.85 -2.86747 -0.871559 0
M  V30 25726 H 2402.41 -1.58508 -0.329692 0
M  V30 25727 H 2404.4 -2.29086 -3.33619 0
M  V30 25728 H 2402.97 -1.36736 -2.81109 0
M  V30 25729 H 2402.19 -3.5731 -1.66504 0
M  V30 25730 H 2403.48 -4.39491 -2.56369 0
M  V30 25731 H 2402.88 -2.46428 -5.09205 0
M  V30 25732 H 2401.44 -3.18036 -5.68943 0
M  V30 25733 N 2404.87 0.409753 -1.5218 0
M  V30 25734 C 2405.83 1.48183 -1.74855 0
M  V30 25735 C 2406.83 1.48432 -0.618443 0
M  V30 25736 O 2408.02 1.49967 -0.886312 0
M  V30 25737 C 2405.15 2.87595 -1.83035 0
M  V30 25738 H 2406.35 1.2937 -2.70561 0
M  V30 25739 H 2403.9 0.640208 -1.42587 0
M  V30 25740 H 2404.63 3.11779 -0.892415 0
M  V30 25741 H 2404.42 2.88818 -2.65192 0
M  V30 25742 H 2405.91 3.65315 -2.02323 0
M  V30 25743 N 2406.35 1.42792 0.666944 0
M  V30 25744 C 2407.28 1.4968 1.79216 0
M  V30 25745 C 2408.26 0.352652 1.66404 0
M  V30 25746 O 2409.44 0.568026 1.85707 0
M  V30 25747 C 2406.57 1.40611 3.17562 0
M  V30 25748 C 2405.53 2.53133 3.45119 0
M  V30 25749 C 2404.85 2.2912 4.83123 0
M  V30 25750 C 2406.15 3.95424 3.41229 0
M  V30 25751 H 2407.85 2.43856 1.73709 0
M  V30 25752 H 2405.39 1.17369 0.834299 0
M  V30 25753 H 2407.35 1.44036 3.9602 0
M  V30 25754 H 2406.07 0.429327 3.23766 0
M  V30 25755 H 2404.73 2.49039 2.69027 0
M  V30 25756 H 2404.38 1.29717 4.85986 0
M  V30 25757 H 2404.08 3.0454 5.02523 0
M  V30 25758 H 2405.6 2.34307 5.63855 0
M  V30 25759 H 2407.01 4.0108 4.09644 0
M  V30 25760 H 2405.41 4.70758 3.72165 0
M  V30 25761 H 2406.48 4.21536 2.39657 0
M  V30 25762 N 2407.82 -0.904008 1.29095 0
M  V30 25763 C 2409.05 -1.6852 1.19519 0
M  V30 25764 C 2409.46 -1.87576 -0.247347 0
M  V30 25765 O 2408.81 -1.40961 -1.17795 0
M  V30 25766 C 2408.87 -3.09286 1.83254 0
M  V30 25767 C 2408.53 -3.13478 3.32537 0
M  V30 25768 C 2409.53 -2.93946 4.28826 0
M  V30 25769 C 2407.21 -3.35681 3.73662 0
M  V30 25770 C 2409.21 -2.96543 5.64217 0
M  V30 25771 C 2406.89 -3.3791 5.09176 0
M  V30 25772 C 2407.89 -3.18363 6.04263 0
M  V30 25773 O 2407.58 -3.20372 7.37304 0
M  V30 25774 H 2407.31 -0.53325 0.415476 0
M  V30 25775 H 2409.87 -1.13919 1.70914 0
M  V30 25776 H 2408.1 -3.65471 1.26365 0
M  V30 25777 H 2409.79 -3.69473 1.6806 0
M  V30 25778 H 2410.55 -2.76609 3.98387 0
M  V30 25779 H 2406.43 -3.49938 3.00108 0
M  V30 25780 H 2409.97 -2.81205 6.38412 0
M  V30 25781 H 2405.87 -3.54777 5.39262 0
M  V30 25782 H 2406.64 -3.36668 7.46054 0
M  V30 25783 N 2409.3 -1.11501 -1.11379 0
M  V30 25784 C 2410.23 -0.796163 -2.19507 0
M  V30 25785 C 2411.21 0.235766 -1.68458 0
M  V30 25786 O 2412.4 0.0991003 -1.93947 0
M  V30 25787 C 2409.53 -0.239266 -3.46475 0
M  V30 25788 C 2408.48 -1.20314 -4.10741 0
M  V30 25789 C 2407.81 -0.506924 -5.32292 0
M  V30 25790 C 2409.11 -2.55407 -4.55593 0
M  V30 25791 H 2410.8 -1.70028 -2.46436 0
M  V30 25792 H 2408.35 -0.818956 -1.18445 0
M  V30 25793 H 2410.3 -0.00399414 -4.214 0
M  V30 25794 H 2409.03 0.70015 -3.19007 0
M  V30 25795 H 2407.68 -1.42405 -3.37811 0
M  V30 25796 H 2407.33 0.43732 -5.01095 0
M  V30 25797 H 2407.03 -1.1498 -5.76241 0
M  V30 25798 H 2408.56 -0.280459 -6.09956 0
M  V30 25799 H 2409.97 -2.374 -5.21837 0
M  V30 25800 H 2408.37 -3.15682 -5.10358 0
M  V30 25801 H 2409.44 -3.14581 -3.69007 0
M  V30 25802 N 2410.78 1.28995 -0.905426 0
M  V30 25803 C 2412.03 1.95614 -0.535073 0
M  V30 25804 C 2412.36 1.71166 0.917374 0
M  V30 25805 O 2411.64 1.02788 1.65121 0
M  V30 25806 C 2411.92 3.50286 -0.83498 0
M  V30 25807 C 2411.77 3.84168 -2.33955 0
M  V30 25808 C 2413.09 4.38895 -0.325395 0
M  V30 25809 H 2410.21 0.710495 -0.195874 0
M  V30 25810 H 2412.85 1.52511 -1.13315 0
M  V30 25811 H 2411 3.8713 -0.325972 0
M  V30 25812 H 2412.67 3.57238 -2.91854 0
M  V30 25813 H 2410.92 3.31508 -2.79795 0
M  V30 25814 H 2411.59 4.92145 -2.49995 0
M  V30 25815 H 2414.06 4.09076 -0.761328 0
M  V30 25816 H 2412.94 5.45991 -0.564391 0
M  V30 25817 H 2413.2 4.35271 0.774067 0
M  V30 25818 N 2412.26 0.668514 1.42719 0
M  V30 25819 C 2413.19 -0.0525728 2.2914 0
M  V30 25820 C 2414.2 -0.771832 1.43341 0
M  V30 25821 O 2415.39 -0.627038 1.67124 0
M  V30 25822 C 2412.49 -1.09799 3.2062 0
M  V30 25823 C 2411.67 -0.453813 4.35039 0
M  V30 25824 C 2410.73 -1.39816 5.07285 0
M  V30 25825 O 2409.75 -0.90088 5.62026 0
M  V30 25826 N 2410.95 -2.73167 5.12211 0
M  V30 25827 H 2413.72 0.68926 2.91666 0
M  V30 25828 H 2411.28 0.512449 1.53576 0
M  V30 25829 H 2413.27 -1.73088 3.65818 0
M  V30 25830 H 2411.84 -1.74162 2.59589 0
M  V30 25831 H 2411.06 0.358465 3.92567 0
M  V30 25832 H 2412.35 -0.00478028 5.088 0
M  V30 25833 H 2411.75 -3.16114 4.69136 0
M  V30 25834 H 2410.3 -3.3172 5.61075 0
M  V30 25835 N 2413.74 -1.52135 0.411426 0
M  V30 25836 C 2414.69 -2.23902 -0.430337 0
M  V30 25837 C 2415.67 -1.25123 -1.01158 0
M  V30 25838 O 2416.86 -1.5035 -0.934018 0
M  V30 25839 C 2413.99 -3.06558 -1.54521 0
M  V30 25840 C 2413.08 -4.12749 -0.974627 0
M  V30 25841 N 2413.47 -5.05631 -0.130903 0
M  V30 25842 C 2411.77 -4.28274 -1.2449 0
M  V30 25843 C 2412.47 -5.814 0.186791 0
M  V30 25844 N 2411.44 -5.41952 -0.422945 0
M  V30 25845 H 2415.25 -2.93071 0.220561 0
M  V30 25846 H 2412.76 -1.60876 0.221981 0
M  V30 25847 H 2414.76 -3.56528 -2.16087 0
M  V30 25848 H 2413.42 -2.38929 -2.19871 0
M  V30 25849 H 2414.43 -5.17373 0.233581 0
M  V30 25850 H 2411.11 -3.71873 -1.89781 0
M  V30 25851 H 2412.5 -6.6622 0.87179 0
M  V30 25852 N 2415.22 -0.14192 -1.5696 0
M  V30 25853 C 2416.13 0.812866 -2.20067 0
M  V30 25854 C 2417.14 1.27554 -1.18346 0
M  V30 25855 O 2418.32 1.33379 -1.50904 0
M  V30 25856 C 2415.38 2.03647 -2.80586 0
M  V30 25857 C 2414.44 1.62352 -3.97417 0
M  V30 25858 C 2413.68 2.78879 -4.55041 0
M  V30 25859 O 2413.9 3.94952 -4.11545 0
M  V30 25860 O 2412.83 2.54644 -5.45381 0
M  V30 25861 H 2416.66 0.305693 -3.02158 0
M  V30 25862 H 2414.24 0.0848537 -1.49159 0
M  V30 25863 H 2416.13 2.75266 -3.19071 0
M  V30 25864 H 2414.8 2.53327 -2.01512 0
M  V30 25865 H 2413.71 0.877711 -3.63658 0
M  V30 25866 H 2415.04 1.17393 -4.77996 0
M  V30 25867 N 2416.69 1.57047 0.131868 0
M  V30 25868 C 2417.94 1.84442 0.843147 0
M  V30 25869 C 2418.27 0.725781 1.80128 0
M  V30 25870 O 2417.55 -0.269436 1.92625 0
M  V30 25871 C 2417.83 3.22385 1.60437 0
M  V30 25872 C 2417.68 4.44832 0.666704 0
M  V30 25873 C 2419 3.57735 2.56347 0
M  V30 25874 H 2416.12 0.670896 0.305069 0
M  V30 25875 H 2418.76 1.89694 0.107806 0
M  V30 25876 H 2416.91 3.18039 2.23122 0
M  V30 25877 H 2418.59 4.61273 0.0496835 0
M  V30 25878 H 2416.83 4.33794 -0.0226853 0
M  V30 25879 H 2417.5 5.37991 1.23569 0
M  V30 25880 H 2419.98 3.62789 2.03773 0
M  V30 25881 H 2418.85 4.55256 3.06649 0
M  V30 25882 H 2419.11 2.84479 3.38414 0
M  V30 25883 N 2418.17 -0.401677 1.52395 0
M  V30 25884 C 2419.42 -1.14632 1.68021 0
M  V30 25885 C 2419.77 -1.88008 0.408755 0
M  V30 25886 O 2419.07 -1.82058 -0.597101 0
M  V30 25887 C 2419.26 -2.16212 2.84582 0
M  V30 25888 C 2419.09 -1.52812 4.2294 0
M  V30 25889 C 2417.86 -1.29763 4.88354 0
M  V30 25890 C 2420.06 -0.985006 5.04779 0
M  V30 25891 N 2418.04 -0.623347 6.10727 0
M  V30 25892 C 2419.41 -0.438063 6.1845 0
M  V30 25893 C 2421.46 -0.880189 4.90058 0
M  V30 25894 C 2420.17 0.203433 7.19012 0
M  V30 25895 C 2422.19 -0.252535 5.90861 0
M  V30 25896 C 2421.56 0.283696 7.03828 0
M  V30 25897 H 2417.65 -0.40588 0.66842 0
M  V30 25898 H 2420.24 -0.437641 1.89718 0
M  V30 25899 H 2418.41 -2.84431 2.64488 0
M  V30 25900 H 2420.14 -2.83092 2.89207 0
M  V30 25901 H 2416.9 -1.56918 4.46848 0
M  V30 25902 H 2417.32 -0.302614 6.76323 0
M  V30 25903 H 2421.96 -1.28058 4.0294 0
M  V30 25904 H 2419.68 0.615868 8.0575 0
M  V30 25905 H 2423.27 -0.172852 5.81543 0
M  V30 25906 H 2422.15 0.761712 7.80492 0
M  V30 25907 N 2419.65 -1.43144 -0.659362 0
M  V30 25908 C 2421.07 -1.26409 -0.974315 0
M  V30 25909 C 2421.27 -0.179376 -2.007 0
M  V30 25910 O 2420.32 0.444251 -2.48561 0
M  V30 25911 C 2421.63 -2.62631 -1.46443 0
M  V30 25912 C 2423.18 -2.70113 -1.5814 0
M  V30 25913 C 2423.66 -4.06738 -2.10543 0
M  V30 25914 N 2425.15 -4.08771 -2.17854 0
M  V30 25915 C 2425.88 -5.11314 -2.5951 0
M  V30 25916 N 2425.38 -6.24234 -3.00507 0
M  V30 25917 N 2427.17 -4.98669 -2.59395 0
M  V30 25918 H 2419.32 -2.12386 0.0240901 0
M  V30 25919 H 2421.59 -0.946584 -0.0517899 0
M  V30 25920 H 2421.29 -3.4294 -0.780063 0
M  V30 25921 H 2421.17 -2.87608 -2.44053 0
M  V30 25922 H 2423.55 -1.9014 -2.25679 0
M  V30 25923 H 2423.63 -2.48908 -0.589784 0
M  V30 25924 H 2423.28 -4.87175 -1.43608 0
M  V30 25925 H 2423.21 -4.25303 -3.10523 0
M  V30 25926 H 2425.7 -3.2726 -1.88969 0
M  V30 25927 H 2426.01 -6.98315 -3.31023 0
M  V30 25928 H 2424.36 -6.27715 -2.98326 0
M  V30 25929 H 2427.55 -4.0952 -2.2674 0
M  V30 25930 H 2427.72 -5.78714 -2.91538 0
M  V30 25931 N 2421.13 0.897149 -1.29572 0
M  V30 25932 C 2422.54 1.46317 -1.15967 0
M  V30 25933 C 2422.89 1.94674 0.244233 0
M  V30 25934 O 2422.01 1.83941 1.13995 0
M  V30 25935 C 2422.61 2.65938 -2.0991 0
M  V30 25936 C 2421.17 3.18668 -2.00319 0
M  V30 25937 C 2420.32 1.9136 -2.00691 0
M  V30 25938 H 2423.27 0.708243 -1.4202 0
M  V30 25939 H 2423.29 3.41756 -1.67282 0
M  V30 25940 H 2422.8 2.30712 -3.12079 0
M  V30 25941 H 2420.9 3.5858 -1.01248 0
M  V30 25942 H 2421.01 3.82793 -2.88109 0
M  V30 25943 H 2419.38 2.09173 -1.45323 0
M  V30 25944 H 2420.16 1.58407 -3.04568 0
M  V30 25945 N 2422.61 1.1209 1.10786 0
M  V30 25946 C 2423.54 0.807793 2.19082 0
M  V30 25947 C 2424.52 -0.226829 1.68581 0
M  V30 25948 O 2425.7 -0.0888134 1.93997 0
M  V30 25949 C 2422.83 0.257637 3.46343 0
M  V30 25950 C 2421.79 1.22491 4.10098 0
M  V30 25951 C 2421.11 0.535145 5.32015 0
M  V30 25952 C 2422.41 2.57819 4.54232 0
M  V30 25953 H 2424.11 1.71333 2.45531 0
M  V30 25954 H 2421.65 0.825225 1.18009 0
M  V30 25955 H 2423.6 0.0263419 4.21392 0
M  V30 25956 H 2422.33 -0.683222 3.19374 0
M  V30 25957 H 2420.99 1.44195 3.37051 0
M  V30 25958 H 2420.64 -0.410739 5.0132 0
M  V30 25959 H 2420.34 1.18034 5.75623 0
M  V30 25960 H 2421.86 0.312802 6.09798 0
M  V30 25961 H 2423.27 2.40164 5.20571 0
M  V30 25962 H 2421.67 3.18384 5.08676 0
M  V30 25963 H 2422.74 3.16534 3.67334 0
M  V30 25964 N 2424.08 -1.28513 0.912254 0
M  V30 25965 C 2425.05 -2.25607 0.404263 0
M  V30 25966 C 2426.05 -1.53821 -0.468575 0
M  V30 25967 O 2427.24 -1.72066 -0.271843 0
M  V30 25968 C 2424.37 -3.38295 -0.420594 0
M  V30 25969 H 2425.56 -2.72058 1.26193 0
M  V30 25970 H 2423.11 -1.4017 0.691519 0
M  V30 25971 H 2423.85 -2.97203 -1.29772 0
M  V30 25972 H 2423.63 -3.91564 0.205004 0
M  V30 25973 H 2425.12 -4.10498 -0.766899 0
M  V30 25974 N 2425.56 -0.676073 -1.42362 0
M  V30 25975 C 2426.53 -0.00770969 -2.29199 0
M  V30 25976 C 2427.53 0.72772 -1.43391 0
M  V30 25977 O 2428.72 0.565531 -1.64765 0
M  V30 25978 C 2425.85 0.999727 -3.25911 0
M  V30 25979 H 2427.04 -0.772039 -2.89792 0
M  V30 25980 H 2424.59 -0.438495 -1.50023 0
M  V30 25981 H 2425.33 1.7925 -2.70259 0
M  V30 25982 H 2425.11 0.475761 -3.89203 0
M  V30 25983 H 2426.6 1.46577 -3.91031 0
M  V30 25984 N 2427.04 1.51915 -0.419488 0
M  V30 25985 C 2428 2.25874 0.389076 0
M  V30 25986 C 2429 1.28632 0.964901 0
M  V30 25987 O 2430.19 1.52491 0.842152 0
M  V30 25988 C 2427.33 3.03691 1.54869 0
M  V30 25989 H 2428.52 2.98781 -0.258851 0
M  V30 25990 H 2426.07 1.55348 -0.172236 0
M  V30 25991 H 2426.81 2.35158 2.23318 0
M  V30 25992 H 2426.59 3.75096 1.14217 0
M  V30 25993 H 2428.08 3.59762 2.1204 0
M  V30 25994 N 2428.52 0.150242 1.56882 0
M  V30 25995 C 2429.75 -0.506178 2.00303 0
M  V30 25996 C 2430.16 -1.58747 1.02937 0
M  V30 25997 O 2429.5 -1.8369 0.0188707 0
M  V30 25998 C 2429.56 -1.16331 3.40158 0
M  V30 25999 C 2429.23 -0.22623 4.5644 0
M  V30 26000 C 2430.22 0.547356 5.17011 0
M  V30 26001 C 2427.91 -0.128191 5.02136 0
M  V30 26002 C 2429.9 1.4064 6.21691 0
M  V30 26003 C 2427.59 0.734452 6.0667 0
M  V30 26004 C 2428.59 1.50035 6.66317 0
M  V30 26005 O 2428.27 2.34861 7.68827 0
M  V30 26006 H 2428.01 -0.135972 0.662184 0
M  V30 26007 H 2430.56 0.242782 2.0396 0
M  V30 26008 H 2428.79 -1.95998 3.33349 0
M  V30 26009 H 2430.48 -1.71979 3.67666 0
M  V30 26010 H 2431.25 0.481665 4.82602 0
M  V30 26011 H 2427.12 -0.714077 4.55436 0
M  V30 26012 H 2430.67 2.00467 6.68176 0
M  V30 26013 H 2426.57 0.801422 6.40506 0
M  V30 26014 H 2427.33 2.28144 7.86061 0
M  V30 26015 N 2430 -1.57115 -0.123538 0
M  V30 26016 C 2430.93 -1.9665 -1.17735 0
M  V30 26017 C 2431.94 -0.865225 -1.37905 0
M  V30 26018 O 2433.13 -1.14354 -1.3706 0
M  V30 26019 C 2430.23 -2.24566 -2.53817 0
M  V30 26020 C 2429.4 -3.55872 -2.54311 0
M  V30 26021 C 2428.46 -3.72054 -3.72105 0
M  V30 26022 O 2427.49 -4.44212 -3.55899 0
M  V30 26023 N 2428.69 -3.1048 -4.90492 0
M  V30 26024 H 2431.46 -2.87655 -0.841097 0
M  V30 26025 H 2429.02 -1.58848 -0.312862 0
M  V30 26026 H 2431.01 -2.32611 -3.31171 0
M  V30 26027 H 2429.58 -1.3971 -2.79642 0
M  V30 26028 H 2428.8 -3.59055 -1.62705 0
M  V30 26029 H 2430.09 -4.42185 -2.51693 0
M  V30 26030 H 2429.48 -2.51815 -5.06563 0
M  V30 26031 H 2428.04 -3.24053 -5.65538 0
M  V30 26032 N 2431.47 0.393589 -1.52606 0
M  V30 26033 C 2432.38 1.50489 -1.79973 0
M  V30 26034 C 2433.4 1.59897 -0.686209 0
M  V30 26035 O 2434.58 1.7632 -0.973305 0
M  V30 26036 C 2431.64 2.86068 -1.95872 0
M  V30 26037 C 2430.7 2.86419 -3.19786 0
M  V30 26038 C 2429.94 4.15532 -3.34916 0
M  V30 26039 O 2430.16 5.10248 -2.54957 0
M  V30 26040 O 2429.09 4.23052 -4.28148 0
M  V30 26041 H 2432.92 1.30294 -2.7433 0
M  V30 26042 H 2430.5 0.58098 -1.37641 0
M  V30 26043 H 2432.39 3.66453 -2.08062 0
M  V30 26044 H 2431.06 3.06298 -1.04704 0
M  V30 26045 H 2429.97 2.04831 -3.13041 0
M  V30 26046 H 2431.3 2.7114 -4.10784 0
M  V30 26047 N 2432.95 1.43492 0.651762 0
M  V30 26048 C 2433.88 1.44732 1.77723 0
M  V30 26049 C 2434.9 0.343259 1.5914 0
M  V30 26050 O 2436.09 0.607781 1.67834 0
M  V30 26051 C 2433.19 1.24584 3.1517 0
M  V30 26052 C 2432.36 2.47855 3.60398 0
M  V30 26053 C 2431.42 2.22911 4.76652 0
M  V30 26054 O 2430.44 2.96271 4.86016 0
M  V30 26055 N 2431.65 1.24666 5.66956 0
M  V30 26056 H 2434.41 2.41749 1.77136 0
M  V30 26057 H 2431.97 1.38667 0.835654 0
M  V30 26058 H 2433.96 1.05777 3.90632 0
M  V30 26059 H 2432.53 0.36007 3.10519 0
M  V30 26060 H 2431.75 2.82078 2.75364 0
M  V30 26061 H 2433.04 3.29891 3.87362 0
M  V30 26062 H 2432.44 0.640364 5.62064 0
M  V30 26063 H 2431 1.11841 6.42133 0
M  V30 26064 N 2434.43 -0.890264 1.30046 0
M  V30 26065 C 2435.36 -2.0117 1.18545 0
M  V30 26066 C 2436.34 -1.69924 0.0773655 0
M  V30 26067 O 2437.53 -1.92472 0.258484 0
M  V30 26068 C 2434.66 -3.36201 0.871 0
M  V30 26069 C 2433.61 -3.81688 1.93644 0
M  V30 26070 C 2432.94 -5.1395 1.47509 0
M  V30 26071 C 2434.24 -4.00988 3.34673 0
M  V30 26072 H 2435.93 -2.1105 2.12363 0
M  V30 26073 H 2433.48 -1.01405 1.0224 0
M  V30 26074 H 2435.43 -4.14171 0.777214 0
M  V30 26075 H 2434.15 -3.26438 -0.102868 0
M  V30 26076 H 2432.81 -3.05943 2.01977 0
M  V30 26077 H 2432.46 -5.00611 0.489639 0
M  V30 26078 H 2432.16 -5.45356 2.1877 0
M  V30 26079 H 2433.68 -5.94451 1.39499 0
M  V30 26080 H 2435.1 -4.69412 3.29128 0
M  V30 26081 H 2433.5 -4.43762 4.03974 0
M  V30 26082 H 2434.57 -3.05014 3.76954 0
M  V30 26083 N 2435.91 -1.12676 -1.1019 0
M  V30 26084 C 2437.19 -0.794997 -1.78715 0
M  V30 26085 C 2437.57 0.714818 -1.98629 0
M  V30 26086 O 2436.91 1.64939 -1.58138 0
M  V30 26087 C 2437.12 -1.57296 -3.11543 0
M  V30 26088 C 2438.47 -1.76059 -3.86379 0
M  V30 26089 O 2439.5 -1.53829 -3.21271 0
M  V30 26090 O 2438.35 -2.13096 -5.03242 0
M  V30 26091 H 2435.45 -0.289437 -0.774697 0
M  V30 26092 H 2437.99 -1.23093 -1.16817 0
M  V30 26093 H 2436.77 -2.5994 -2.92484 0
M  V30 26094 H 2436.39 -1.13144 -3.81162 0
M  V30 26095 N 2437.39 1.28028 -0.919057 0
M  V30 26096 C 2438.8 1.47149 -0.617998 0
M  V30 26097 C 2439 1.83375 0.83521 0
M  V30 26098 O 2438.06 1.94194 1.61385 0
M  V30 26099 C 2439.37 2.57042 -1.56045 0
M  V30 26100 C 2440.92 2.70907 -1.56774 0
M  V30 26101 C 2441.39 3.83948 -2.49695 0
M  V30 26102 N 2442.89 3.9131 -2.47852 0
M  V30 26103 C 2443.62 4.78174 -3.16445 0
M  V30 26104 N 2443.12 5.69589 -3.94386 0
M  V30 26105 N 2444.91 4.71829 -3.05506 0
M  V30 26106 H 2437.06 1.02795 -1.85868 0
M  V30 26107 H 2439.32 0.512517 -0.797515 0
M  V30 26108 H 2439.03 2.37195 -2.59675 0
M  V30 26109 H 2438.9 3.54252 -1.29557 0
M  V30 26110 H 2441.29 2.9014 -0.538796 0
M  V30 26111 H 2441.37 1.74211 -1.87308 0
M  V30 26112 H 2441.02 3.65471 -3.52695 0
M  V30 26113 H 2440.95 4.80054 -2.16461 0
M  V30 26114 H 2443.44 3.25938 -1.9124 0
M  V30 26115 H 2443.75 6.3271 -4.43732 0
M  V30 26116 H 2442.09 5.69412 -3.98491 0
M  V30 26117 H 2445.29 3.99406 -2.44115 0
M  V30 26118 H 2445.46 5.39309 -3.59234 0
M  V30 26119 N 2438.86 0.683613 1.42002 0
M  V30 26120 C 2440.28 0.285769 1.845 0
M  V30 26121 C 2440.63 -1.17379 1.57215 0
M  V30 26122 O 2439.75 -1.89965 1.03646 0
M  V30 26123 C 2440.35 0.51188 3.34911 0
M  V30 26124 C 2438.91 0.168071 3.76025 0
M  V30 26125 C 2438.05 0.80003 2.65509 0
M  V30 26126 H 2441 0.885142 1.31723 0
M  V30 26127 H 2441.02 -0.233226 3.79785 0
M  V30 26128 H 2440.54 1.57425 3.54738 0
M  V30 26129 H 2438.64 -0.890504 3.61802 0
M  V30 26130 H 2438.75 0.614744 4.7514 0
M  V30 26131 H 2437.11 0.230613 2.53654 0
M  V30 26132 H 2437.9 1.86603 2.88157 0
M  V30 26133 N 2440.34 -1.5169 0.427538 0
M  V30 26134 C 2441.59 -2.02299 -0.142404 0
M  V30 26135 C 2441.92 -1.31164 -1.43211 0
M  V30 26136 O 2441.2 -0.423545 -1.89832 0
M  V30 26137 C 2441.48 -3.58181 -0.371238 0
M  V30 26138 C 2441.33 -4.39944 0.936436 0
M  V30 26139 C 2442.65 -4.24935 -1.14534 0
M  V30 26140 H 2439.77 -0.735283 -0.0502808 0
M  V30 26141 H 2442.41 -1.81417 0.564616 0
M  V30 26142 H 2440.56 -3.76106 -0.973493 0
M  V30 26143 H 2442.24 -4.33692 1.57192 0
M  V30 26144 H 2440.48 -4.0542 1.54327 0
M  V30 26145 H 2441.15 -5.47145 0.730484 0
M  V30 26146 H 2443.63 -4.11222 -0.63529 0
M  V30 26147 H 2442.5 -5.33905 -1.27421 0
M  V30 26148 H 2442.76 -3.85131 -2.17086 0
M  V30 26149 N 2441.82 -0.15856 -1.568 0
M  V30 26150 C 2443.07 0.49037 -1.96782 0
M  V30 26151 C 2443.4 1.63751 -1.044 0
M  V30 26152 O 2442.68 1.94298 -0.0886146 0
M  V30 26153 C 2442.96 0.985533 -3.46351 0
M  V30 26154 C 2442.81 -0.160903 -4.49512 0
M  V30 26155 C 2444.13 1.86348 -3.98701 0
M  V30 26156 H 2441.25 0.176776 -0.715485 0
M  V30 26157 H 2443.89 -0.242121 -1.88451 0
M  V30 26158 H 2442.04 1.60972 -3.53582 0
M  V30 26159 H 2443.71 -0.797617 -4.54352 0
M  V30 26160 H 2441.96 -0.818331 -4.26011 0
M  V30 26161 H 2442.63 0.227472 -5.51531 0
M  V30 26162 H 2445.1 1.3374 -3.94021 0
M  V30 26163 H 2443.98 2.179 -5.03796 0
M  V30 26164 H 2444.24 2.80464 -3.41749 0
M  V30 26165 N 2443.3 1.57178 0.115204 0
M  V30 26166 C 2444.71 1.74189 0.671939 0
M  V30 26167 C 2445.06 0.777809 1.80124 0
M  V30 26168 O 2444.19 -0.0483996 2.16346 0
M  V30 26169 C 2444.78 3.15852 1.22567 0
M  V30 26170 C 2443.34 3.34356 1.72866 0
M  V30 26171 C 2442.49 2.7005 0.629924 0
M  V30 26172 H 2445.44 1.58313 -0.11074 0
M  V30 26173 H 2445.46 3.17613 2.09529 0
M  V30 26174 H 2444.97 3.85996 0.40353 0
M  V30 26175 H 2443.07 2.6926 2.57545 0
M  V30 26176 H 2443.19 4.42545 1.83549 0
M  V30 26177 H 2441.55 2.3139 1.06446 0
M  V30 26178 H 2442.33 3.42821 -0.181302 0
M  V30 26179 N 2444.78 -0.38549 1.52813 0
M  V30 26180 C 2445.73 -1.47075 1.74221 0
M  V30 26181 C 2446.71 -1.49441 0.596346 0
M  V30 26182 O 2447.9 -1.55018 0.854307 0
M  V30 26183 C 2445.03 -2.84747 1.91765 0
M  V30 26184 C 2444.12 -2.86937 3.12294 0
M  V30 26185 N 2444.51 -2.58794 4.34579 0
M  V30 26186 C 2442.81 -3.18104 3.12611 0
M  V30 26187 C 2443.51 -2.68156 5.16204 0
M  V30 26188 N 2442.48 -3.02035 4.51969 0
M  V30 26189 H 2446.29 -1.24148 2.66392 0
M  V30 26190 H 2443.8 -0.593478 1.51167 0
M  V30 26191 H 2445.8 -3.62889 2.05225 0
M  V30 26192 H 2444.46 -3.08654 1.0081 0
M  V30 26193 H 2445.47 -2.32751 4.62653 0
M  V30 26194 H 2442.15 -3.47454 2.31478 0
M  V30 26195 H 2443.54 -2.49912 6.23693 0
M  V30 26196 N 2446.26 -1.43835 -0.644143 0
M  V30 26197 C 2447.67 -1.40847 -1.22552 0
M  V30 26198 C 2448.02 -0.11715 -1.9585 0
M  V30 26199 O 2447.14 0.78305 -2.01736 0
M  V30 26200 C 2447.74 -2.55147 -2.22903 0
M  V30 26201 C 2446.3 -2.55395 -2.76497 0
M  V30 26202 C 2445.44 -2.32398 -1.51282 0
M  V30 26203 H 2448.39 -1.52605 -0.435604 0
M  V30 26204 H 2448.42 -2.27155 -3.05255 0
M  V30 26205 H 2447.93 -3.49116 -1.69527 0
M  V30 26206 H 2446.03 -1.6533 -3.33911 0
M  V30 26207 H 2446.14 -3.5346 -3.23423 0
M  V30 26208 H 2444.51 -1.8124 -1.78953 0
M  V30 26209 H 2445.29 -3.28465 -0.998279 0
M  V30 26210 N 2447.73 0.883355 -1.30517 0
M  V30 26211 C 2448.96 1.66597 -1.22184 0
M  V30 26212 C 2449.37 1.87946 0.217474 0
M  V30 26213 O 2448.71 1.42817 1.15538 0
M  V30 26214 C 2448.78 3.06332 -1.88152 0
M  V30 26215 C 2448.44 3.08148 -3.37482 0
M  V30 26216 C 2449.44 2.87086 -4.33448 0
M  V30 26217 C 2447.12 3.29694 -3.78955 0
M  V30 26218 C 2449.12 2.8753 -5.68863 0
M  V30 26219 C 2446.8 3.29767 -5.14487 0
M  V30 26220 C 2447.8 3.08709 -6.09252 0
M  V30 26221 O 2447.49 3.08601 -7.42307 0
M  V30 26222 H 2447.22 0.526572 -0.423907 0
M  V30 26223 H 2449.78 1.11185 -1.72705 0
M  V30 26224 H 2448.01 3.63414 -1.32163 0
M  V30 26225 H 2449.69 3.66753 -1.73917 0
M  V30 26226 H 2450.46 2.70236 -4.02738 0
M  V30 26227 H 2446.34 3.45119 -3.05637 0
M  V30 26228 H 2449.88 2.71012 -6.42805 0
M  V30 26229 H 2445.78 3.46153 -5.44838 0
M  V30 26230 H 2446.55 3.24756 -7.51316 0
M  V30 26231 N 2449.21 1.13259 1.09591 0
M  V30 26232 C 2450.63 0.870447 1.33774 0
M  V30 26233 C 2450.83 -0.494891 1.95328 0
M  V30 26234 O 2449.88 -1.24177 2.19855 0
M  V30 26235 C 2451.2 1.99373 2.25102 0
M  V30 26236 C 2452.74 2.02562 2.38616 0
M  V30 26237 C 2453.22 3.14148 3.33279 0
M  V30 26238 N 2454.71 3.13647 3.40851 0
M  V30 26239 C 2455.45 3.96628 4.14094 0
M  V30 26240 N 2454.94 4.89619 4.90148 0
M  V30 26241 N 2456.73 3.84733 4.09801 0
M  V30 26242 H 2448.89 2.01217 0.680101 0
M  V30 26243 H 2451.15 0.876113 0.362118 0
M  V30 26244 H 2450.85 2.97804 1.87098 0
M  V30 26245 H 2450.73 1.90641 3.25478 0
M  V30 26246 H 2453.12 1.04745 2.75885 0
M  V30 26247 H 2453.2 2.15367 1.38025 0
M  V30 26248 H 2452.84 4.12203 2.96734 0
M  V30 26249 H 2452.77 2.98581 4.3377 0
M  V30 26250 H 2455.26 2.46287 2.8662 0
M  V30 26251 H 2455.57 5.49427 5.43461 0
M  V30 26252 H 2453.92 4.93626 4.89243 0
M  V30 26253 H 2457.11 3.11414 3.49484 0
M  V30 26254 H 2457.28 4.49632 4.66621 0
M  V30 26255 N 2450.69 -1.27539 0.925834 0
M  V30 26256 C 2451.94 -1.94738 0.566126 0
M  V30 26257 C 2452.27 -1.72604 -0.890026 0
M  V30 26258 O 2451.54 -1.05402 -1.63465 0
M  V30 26259 C 2451.83 -3.48913 0.890601 0
M  V30 26260 C 2451.68 -3.80398 2.40037 0
M  V30 26261 C 2453 -4.38322 0.395178 0
M  V30 26262 H 2450.12 -0.707288 0.207152 0
M  V30 26263 H 2452.76 -1.50689 1.15727 0
M  V30 26264 H 2450.91 -3.86562 0.38752 0
M  V30 26265 H 2452.58 -3.5255 2.975 0
M  V30 26266 H 2450.82 -3.27015 2.85033 0
M  V30 26267 H 2451.5 -4.88105 2.57793 0
M  V30 26268 H 2453.97 -4.07813 0.826312 0
M  V30 26269 H 2452.85 -5.45024 0.651181 0
M  V30 26270 H 2453.11 -4.36447 -0.704721 0
M  V30 26271 N 2452.17 -0.691135 -1.41637 0
M  V30 26272 C 2453.42 -0.219793 -2.00901 0
M  V30 26273 C 2453.74 1.18326 -1.54996 0
M  V30 26274 O 2453.01 1.7976 -0.778659 0
M  V30 26275 H 2451.59 -0.0782689 -0.742888 0
M  V30 26276 H 2454.25 -0.891301 -1.73326 0
M  V30 26277 H 2453.34 -0.233763 -3.11223 0
M  V30 26278 N 2453.65 1.51461 -0.435577 0
M  V30 26279 C 2454.92 1.94662 0.19133 0
M  V30 26280 C 2455.3 1.37414 1.60252 0
M  V30 26281 O 2454.65 0.560497 2.21519 0
M  V30 26282 C 2454.86 3.48582 0.170849 0
M  V30 26283 C 2456.21 4.2292 0.377283 0
M  V30 26284 O 2457.23 3.55328 0.249042 0
M  V30 26285 O 2456.09 5.42829 0.632375 0
M  V30 26286 H 2453.19 0.816572 0.130918 0
M  V30 26287 H 2455.73 1.62368 -0.493429 0
M  V30 26288 H 2454.5 3.82701 -0.815805 0
M  V30 26289 H 2454.13 3.87313 0.898591 0
M  V30 26290 N 2455.12 0.166873 1.56714 0
M  V30 26291 C 2456.35 -0.485609 2.0112 0
M  V30 26292 C 2456.77 -1.57104 1.04708 0
M  V30 26293 O 2456.12 -1.82439 0.0472244 0
M  V30 26294 C 2456.18 -1.06802 3.45363 0
M  V30 26295 O 2455.9 -0.0259225 4.38092 0
M  V30 26296 C 2457.4 -1.79917 4.05148 0
M  V30 26297 H 2454.62 -0.124692 0.659312 0
M  V30 26298 H 2457.16 0.267298 2.02746 0
M  V30 26299 H 2455.32 -1.77144 3.44527 0
M  V30 26300 H 2455.73 -0.455306 5.2252 0
M  V30 26301 H 2457.2 -2.15933 5.08013 0
M  V30 26302 H 2457.68 -2.69252 3.46987 0
M  V30 26303 H 2458.29 -1.14226 4.09674 0
M  V30 26304 N 2456.6 -1.57237 -0.106866 0
M  V30 26305 C 2457.85 -1.8576 -0.813697 0
M  V30 26306 C 2458.18 -0.754346 -1.7895 0
M  V30 26307 O 2457.46 0.238757 -1.93029 0
M  V30 26308 C 2457.74 -3.24897 -1.55288 0
M  V30 26309 C 2457.59 -4.45836 -0.595851 0
M  V30 26310 C 2458.91 -3.61768 -2.50624 0
M  V30 26311 H 2456.03 -0.675665 -0.294357 0
M  V30 26312 H 2458.67 -1.89841 -0.0776138 0
M  V30 26313 H 2456.82 -3.21548 -2.18035 0
M  V30 26314 H 2458.49 -4.61294 0.0237073 0
M  V30 26315 H 2456.74 -4.33703 0.0916953 0
M  V30 26316 H 2457.41 -5.39889 -1.14995 0
M  V30 26317 H 2459.88 -3.65985 -1.97976 0
M  V30 26318 H 2458.76 -4.60076 -2.99368 0
M  V30 26319 H 2459.02 -2.89827 -3.33845 0
M  V30 26320 N 2458.08 0.377381 -1.53015 0
M  V30 26321 C 2459.33 1.11945 -1.69823 0
M  V30 26322 C 2459.68 1.87334 -0.438614 0
M  V30 26323 O 2458.97 1.82985 0.568062 0
M  V30 26324 C 2459.17 2.11657 -2.87986 0
M  V30 26325 C 2459 1.46064 -4.25318 0
M  V30 26326 C 2457.77 1.21978 -4.90357 0
M  V30 26327 C 2459.97 0.904575 -5.06282 0
M  V30 26328 N 2457.95 0.526107 -6.11641 0
M  V30 26329 C 2459.32 0.339617 -6.19069 0
M  V30 26330 C 2461.37 0.802113 -4.91397 0
M  V30 26331 C 2460.08 -0.317795 -7.18598 0
M  V30 26332 C 2462.1 0.158502 -5.91188 0
M  V30 26333 C 2461.46 -0.395633 -7.03288 0
M  V30 26334 H 2457.56 0.395195 -0.674792 0
M  V30 26335 H 2460.15 0.407403 -1.9039 0
M  V30 26336 H 2458.32 2.80187 -2.68979 0
M  V30 26337 H 2460.05 2.78456 -2.93674 0
M  V30 26338 H 2456.81 1.4979 -4.49288 0
M  V30 26339 H 2457.23 0.194979 -6.76719 0
M  V30 26340 H 2461.87 1.21631 -4.04927 0
M  V30 26341 H 2459.59 -0.743978 -8.04668 0
M  V30 26342 H 2463.18 0.0803115 -5.81745 0
M  V30 26343 H 2462.06 -0.885785 -7.79181 0
M  V30 26344 N 2459.56 1.44175 0.636506 0
M  V30 26345 C 2460.8 1.46892 1.39823 0
M  V30 26346 C 2461.14 0.0990926 1.93947 0
M  V30 26347 O 2460.41 -0.882514 1.73326 0
M  V30 26348 C 2460.7 2.52494 2.56746 0
M  V30 26349 C 2460.55 3.98815 2.08007 0
M  V30 26350 C 2461.87 2.54655 3.58941 0
M  V30 26351 H 2458.99 0.534839 0.507066 0
M  V30 26352 H 2461.63 1.75823 0.720157 0
M  V30 26353 H 2459.78 2.27955 3.14593 0
M  V30 26354 H 2461.45 4.34468 1.55032 0
M  V30 26355 H 2459.69 4.10848 1.39235 0
M  V30 26356 H 2460.36 4.68344 2.92161 0
M  V30 26357 H 2462.84 2.76568 3.10885 0
M  V30 26358 H 2461.72 3.30457 4.3828 0
M  V30 26359 H 2461.98 1.58653 4.12652 0
M  V30 26360 N 2461.04 -0.876421 1.30983 0
M  V30 26361 C 2462.45 -1.16111 1.095 0
M  V30 26362 C 2462.65 -2.01022 -0.138714 0
M  V30 26363 O 2461.71 -2.38472 -0.829893 0
M  V30 26364 C 2463.02 -1.8595 2.36312 0
M  V30 26365 C 2464.57 -1.98678 2.41859 0
M  V30 26366 C 2465.04 -2.7193 3.68535 0
M  V30 26367 N 2466.54 -2.7947 3.69392 0
M  V30 26368 C 2467.27 -3.36745 4.64101 0
M  V30 26369 N 2466.77 -3.95002 5.69162 0
M  V30 26370 N 2468.56 -3.34642 4.51632 0
M  V30 26371 H 2460.71 -0.310457 2.10119 0
M  V30 26372 H 2462.97 -0.200115 0.926638 0
M  V30 26373 H 2462.68 -1.31005 3.2639 0
M  V30 26374 H 2462.55 -2.86274 2.45615 0
M  V30 26375 H 2464.94 -2.5279 1.52254 0
M  V30 26376 H 2465.02 -0.974158 2.36524 0
M  V30 26377 H 2464.67 -2.18488 4.58503 0
M  V30 26378 H 2464.6 -3.73587 3.71134 0
M  V30 26379 H 2467.09 -2.38118 2.93442 0
M  V30 26380 H 2467.4 -4.36797 6.37517 0
M  V30 26381 H 2465.74 -3.93396 5.72944 0
M  V30 26382 H 2468.94 -2.88363 3.68733 0
M  V30 26383 H 2469.11 -3.78981 5.25621 0
M  V30 26384 N 2462.51 -1.13839 -1.08989 0
M  V30 26385 C 2463.93 -0.877529 -1.3331 0
M  V30 26386 C 2464.13 0.484526 -1.95588 0
M  V30 26387 O 2463.19 1.23009 -2.20511 0
M  V30 26388 C 2464.5 -2.00564 -2.24042 0
M  V30 26389 C 2466.05 -2.03825 -2.37538 0
M  V30 26390 C 2466.52 -3.15911 -3.31608 0
M  V30 26391 N 2468.01 -3.15451 -3.39183 0
M  V30 26392 C 2468.75 -3.98818 -4.11985 0
M  V30 26393 N 2468.24 -4.92211 -4.87545 0
M  V30 26394 N 2470.04 -3.86901 -4.07755 0
M  V30 26395 H 2462.19 -2.01575 -0.66942 0
M  V30 26396 H 2464.45 -0.878021 -0.357466 0
M  V30 26397 H 2464.16 -2.98792 -1.85516 0
M  V30 26398 H 2464.03 -1.92364 -3.24462 0
M  V30 26399 H 2466.42 -1.06207 -2.75326 0
M  V30 26400 H 2466.5 -2.16096 -1.36881 0
M  V30 26401 H 2466.14 -4.13771 -2.94543 0
M  V30 26402 H 2466.07 -3.00878 -4.32181 0
M  V30 26403 H 2468.56 -2.47804 -2.8531 0
M  V30 26404 H 2468.88 -5.52302 -5.40539 0
M  V30 26405 H 2467.22 -4.96214 -4.86618 0
M  V30 26406 H 2470.41 -3.13263 -3.47828 0
M  V30 26407 H 2470.59 -4.521 -4.6423 0
M  V30 26408 N 2463.99 1.27046 -0.932584 0
M  V30 26409 C 2464.94 2.24348 -0.406431 0
M  V30 26410 C 2465.93 1.53192 0.492039 0
M  V30 26411 O 2467.12 1.73921 0.328687 0
M  V30 26412 C 2464.25 3.4166 0.335154 0
M  V30 26413 C 2463.33 4.20114 -0.580114 0
M  V30 26414 N 2463.72 4.763 -1.70211 0
M  V30 26415 C 2462.02 4.44343 -0.384053 0
M  V30 26416 C 2462.72 5.35505 -2.27177 0
M  V30 26417 N 2461.7 5.20712 -1.56078 0
M  V30 26418 H 2465.5 2.65376 -1.26304 0
M  V30 26419 H 2463.02 1.42033 -0.787433 0
M  V30 26420 H 2465.01 4.10476 0.72907 0
M  V30 26421 H 2463.67 3.02162 1.18863 0
M  V30 26422 H 2464.68 4.74102 -2.08441 0
M  V30 26423 H 2461.36 4.15297 0.428363 0
M  V30 26424 H 2462.75 5.899 -3.21664 0
M  V30 26425 N 2465.47 0.698636 1.41269 0
M  V30 26426 C 2466.4 -0.00395702 2.292 0
M  V30 26427 C 2467.42 -0.741253 1.44946 0
M  V30 26428 O 2468.6 -0.591447 1.68417 0
M  V30 26429 C 2465.7 -1.02973 3.22877 0
M  V30 26430 C 2464.88 -0.361433 4.35904 0
M  V30 26431 C 2463.94 -1.29024 5.10136 0
M  V30 26432 O 2462.96 -0.781463 5.6381 0
M  V30 26433 N 2464.16 -2.62241 5.1789 0
M  V30 26434 H 2466.93 0.750972 2.90139 0
M  V30 26435 H 2464.49 0.544909 1.52454 0
M  V30 26436 H 2466.48 -1.65289 3.69407 0
M  V30 26437 H 2465.05 -1.68617 2.63224 0
M  V30 26438 H 2464.27 0.441653 3.91718 0
M  V30 26439 H 2465.56 0.103145 5.08695 0
M  V30 26440 H 2464.96 -3.06092 4.75736 0
M  V30 26441 H 2463.52 -3.19744 5.67985 0
M  V30 26442 N 2466.95 -1.51228 0.443603 0
M  V30 26443 C 2468.18 -2.06556 -0.119253 0
M  V30 26444 C 2468.59 -1.3104 -1.35919 0
M  V30 26445 O 2467.95 -0.371736 -1.78674 0
M  V30 26446 C 2468 -3.58871 -0.435165 0
M  V30 26447 O 2467.72 -4.31535 0.755562 0
M  V30 26448 C 2469.22 -4.30734 -1.04801 0
M  V30 26449 H 2466.44 -0.67098 -0.0051466 0
M  V30 26450 H 2468.99 -1.94732 0.624487 0
M  V30 26451 H 2467.14 -3.7059 -1.12881 0
M  V30 26452 H 2467.55 -5.22266 0.483582 0
M  V30 26453 H 2469.03 -5.38372 -1.21901 0
M  V30 26454 H 2469.51 -3.89432 -2.03074 0
M  V30 26455 H 2470.11 -4.23475 -0.393562 0
M  V30 26456 N 2468.43 -0.175182 -1.56623 0
M  V30 26457 C 2469.37 0.753596 -2.1815 0
M  V30 26458 C 2470.34 1.22415 -1.12267 0
M  V30 26459 O 2471.53 1.29162 -1.40434 0
M  V30 26460 C 2468.67 1.97587 -2.82937 0
M  V30 26461 C 2467.78 1.54853 -4.03292 0
M  V30 26462 C 2466.92 2.72477 -4.55993 0
M  V30 26463 C 2465.96 2.26252 -5.6875 0
M  V30 26464 N 2465.09 3.36983 -6.15944 0
M  V30 26465 H 2469.93 0.222143 -2.97171 0
M  V30 26466 H 2467.47 0.0979164 -1.46774 0
M  V30 26467 H 2469.43 2.69282 -3.18658 0
M  V30 26468 H 2468.06 2.48097 -2.06514 0
M  V30 26469 H 2467.11 0.728181 -3.73365 0
M  V30 26470 H 2468.42 1.16925 -4.84902 0
M  V30 26471 H 2467.58 3.52323 -4.93916 0
M  V30 26472 H 2466.31 3.13668 -3.73449 0
M  V30 26473 H 2465.32 1.44854 -5.30375 0
M  V30 26474 H 2466.54 1.86115 -6.53099 0
M  V30 26475 H 2464.49 3.77742 -5.36328 0
M  V30 26476 H 2464.41 3.0316 -6.92553 0
M  V30 26477 H 2465.68 4.17102 -6.58518 0
M  V30 26478 N 2469.91 1.57292 0.0985263 0
M  V30 26479 C 2470.85 2.02823 1.13866 0
M  V30 26480 C 2471.85 0.928691 1.41675 0
M  V30 26481 O 2473.05 1.11387 1.41396 0
M  V30 26482 H 2469.43 0.646324 0.384408 0
M  V30 26483 H 2471.4 2.89376 0.728296 0
M  V30 26484 C 2470.15 2.46558 2.45162 0
M  V30 26485 H 2469.47 3.30744 2.24607 0
M  V30 26486 H 2470.91 2.82196 3.16451 0
M  V30 26487 C 2469.37 1.33747 3.09214 0
M  V30 26488 O 2469.9 0.66471 3.96162 0
M  V30 26489 N 2468.11 1.08932 2.69411 0
M  V30 26490 H 2467.65 1.63821 1.98798 0
M  V30 26491 H 2467.61 0.336513 3.12594 0
M  V30 26492 N 2471.38 -0.369261 1.53213 0
M  V30 26493 C 2472.31 -1.45823 1.82368 0
M  V30 26494 C 2473.29 -1.5605 0.676935 0
M  V30 26495 O 2474.48 -1.70678 0.926431 0
M  V30 26496 C 2471.61 -2.83205 2.01028 0
M  V30 26497 C 2470.56 -2.87805 3.16785 0
M  V30 26498 C 2469.89 -4.27826 3.20732 0
M  V30 26499 C 2471.19 -2.55659 4.55451 0
M  V30 26500 H 2472.88 -1.21674 2.73562 0
M  V30 26501 H 2470.43 -0.583888 1.31631 0
M  V30 26502 H 2472.38 -3.59409 2.20007 0
M  V30 26503 H 2471.11 -3.08734 1.06541 0
M  V30 26504 H 2469.77 -2.14051 2.9762 0
M  V30 26505 H 2469.41 -4.50425 2.23889 0
M  V30 26506 H 2469.11 -4.3182 3.98504 0
M  V30 26507 H 2470.64 -5.05909 3.4189 0
M  V30 26508 H 2472.05 -3.21578 4.74616 0
M  V30 26509 H 2470.45 -2.70975 5.35437 0
M  V30 26510 H 2471.52 -1.50922 4.60815 0
M  V30 26511 N 2472.86 -1.4451 -0.628851 0
M  V30 26512 C 2473.77 -1.54047 -1.76937 0
M  V30 26513 C 2474.79 -0.426016 -1.68704 0
M  V30 26514 O 2475.96 -0.683689 -1.8944 0
M  V30 26515 C 2473.03 -1.4841 -3.13329 0
M  V30 26516 C 2472.09 -2.70725 -3.33176 0
M  V30 26517 C 2471.32 -2.65348 -4.63062 0
M  V30 26518 O 2471.55 -1.71478 -5.44014 0
M  V30 26519 O 2470.48 -3.56234 -4.85161 0
M  V30 26520 H 2474.31 -2.50406 -1.71844 0
M  V30 26521 H 2471.89 -1.26782 -0.790355 0
M  V30 26522 H 2473.77 -1.47798 -3.94631 0
M  V30 26523 H 2472.45 -0.551955 -3.18959 0
M  V30 26524 H 2471.35 -2.76905 -2.51544 0
M  V30 26525 H 2472.69 -3.62994 -3.32409 0
M  V30 26526 N 2474.34 0.869463 -1.31446 0
M  V30 26527 C 2475.75 1.43824 -1.19044 0
M  V30 26528 C 2476.1 1.95148 0.202884 0
M  V30 26529 O 2475.23 1.86317 1.10067 0
M  V30 26530 C 2475.82 2.61426 -2.15504 0
M  V30 26531 C 2474.38 3.14347 -2.07034 0
M  V30 26532 C 2473.53 1.8706 -2.04705 0
M  V30 26533 H 2476.48 0.677959 -1.4349 0
M  V30 26534 H 2476.5 3.38131 -1.74493 0
M  V30 26535 H 2476.01 2.24041 -3.16903 0
M  V30 26536 H 2474.11 3.56352 -1.08831 0
M  V30 26537 H 2474.23 3.76595 -2.96164 0
M  V30 26538 H 2472.59 2.06043 -1.49727 0
M  V30 26539 H 2473.37 1.51911 -3.0786 0
M  V30 26540 N 2475.82 1.14415 1.08383 0
M  V30 26541 C 2477.23 0.884586 1.32843 0
M  V30 26542 C 2477.43 -0.474146 1.95842 0
M  V30 26543 O 2476.49 -1.21838 2.2116 0
M  V30 26544 C 2477.8 2.01749 2.22975 0
M  V30 26545 C 2479.35 2.05082 2.36454 0
M  V30 26546 C 2479.83 3.17665 3.29928 0
M  V30 26547 N 2481.32 3.17245 3.37505 0
M  V30 26548 C 2482.05 4.00998 4.09864 0
M  V30 26549 N 2481.55 4.9479 4.84928 0
M  V30 26550 N 2483.34 3.89058 4.05698 0
M  V30 26551 H 2475.49 2.01927 0.658721 0
M  V30 26552 H 2477.75 0.879905 0.352805 0
M  V30 26553 H 2477.46 2.99772 1.83929 0
M  V30 26554 H 2477.33 1.94082 3.23438 0
M  V30 26555 H 2479.72 1.07665 2.74758 0
M  V30 26556 H 2479.8 2.16819 1.35733 0
M  V30 26557 H 2479.45 4.15327 2.92345 0
M  V30 26558 H 2479.38 3.03165 4.30579 0
M  V30 26559 H 2481.87 2.49313 2.83992 0
M  V30 26560 H 2482.18 5.55161 5.37603 0
M  V30 26561 H 2480.53 4.98787 4.8398 0
M  V30 26562 H 2483.72 3.15103 3.46161 0
M  V30 26563 H 2483.89 4.54555 4.61826 0
M  V30 26564 N 2477.3 -1.26549 0.939309 0
M  V30 26565 C 2478.54 -1.94464 0.596268 0
M  V30 26566 C 2478.9 -1.7236 -0.854983 0
M  V30 26567 O 2478.19 -1.04892 -1.60338 0
M  V30 26568 C 2478.38 -3.46595 0.872167 0
M  V30 26569 C 2478.21 -3.83493 2.34869 0
M  V30 26570 C 2476.98 -4.06347 3.00351 0
M  V30 26571 C 2479.18 -3.92189 3.32704 0
M  V30 26572 N 2477.16 -4.30115 4.38035 0
M  V30 26573 C 2478.53 -4.20468 4.55639 0
M  V30 26574 C 2480.59 -3.74809 3.27753 0
M  V30 26575 C 2479.29 -4.33175 5.7424 0
M  V30 26576 C 2481.32 -3.88747 4.45679 0
M  V30 26577 C 2480.68 -4.17423 5.67395 0
M  V30 26578 H 2476.78 -0.73445 0.268528 0
M  V30 26579 H 2479.36 -1.52668 1.20833 0
M  V30 26580 H 2477.53 -3.87322 0.28917 0
M  V30 26581 H 2479.27 -4.01716 0.490584 0
M  V30 26582 H 2476.02 -4.01632 2.50976 0
M  V30 26583 H 2476.44 -4.46035 5.09296 0
M  V30 26584 H 2481.09 -3.51669 2.34709 0
M  V30 26585 H 2478.8 -4.55137 6.67739 0
M  V30 26586 H 2482.39 -3.76705 4.43379 0
M  V30 26587 H 2481.27 -4.27972 6.57122 0
M  V30 26588 N 2478.77 -0.706118 -1.40896 0
M  V30 26589 C 2479.72 -0.0474879 -2.30751 0
M  V30 26590 C 2480.69 0.760264 -1.47679 0
M  V30 26591 O 2481.88 0.726146 -1.76442 0
M  V30 26592 C 2479.02 0.875251 -3.33816 0
M  V30 26593 C 2478.13 0.0579864 -4.31961 0
M  V30 26594 C 2477.26 0.979333 -5.22094 0
M  V30 26595 C 2476.3 0.155599 -6.11902 0
M  V30 26596 N 2475.44 1.03131 -6.94484 0
M  V30 26597 H 2480.28 -0.819463 -2.86511 0
M  V30 26598 H 2477.82 -0.415808 -1.41101 0
M  V30 26599 H 2479.77 1.42439 -3.92131 0
M  V30 26600 H 2478.4 1.61351 -2.79581 0
M  V30 26601 H 2477.46 -0.608213 -3.75506 0
M  V30 26602 H 2478.77 -0.580169 -4.95414 0
M  V30 26603 H 2477.92 1.59733 -5.85295 0
M  V30 26604 H 2476.66 1.65133 -4.58893 0
M  V30 26605 H 2475.67 -0.475405 -5.47741 0
M  V30 26606 H 2476.89 -0.512754 -6.77161 0
M  V30 26607 H 2474.84 1.68913 -6.3388 0
M  V30 26608 H 2474.75 0.448975 -7.54666 0
M  V30 26609 H 2476.02 1.63579 -7.62143 0
M  V30 26610 N 2480.25 1.50991 -0.451617 0
M  V30 26611 C 2481.5 2.01801 0.109821 0
M  V30 26612 C 2481.82 1.33692 1.41956 0
M  V30 26613 O 2481.09 0.475984 1.90029 0
M  V30 26614 H 2479.67 0.745728 0.0435753 0
M  V30 26615 H 2482.33 1.85512 -0.59759 0
M  V30 26616 H 2481.43 3.10882 0.275434 0
M  V30 26617 N 2481.73 0.183486 1.56528 0
M  V30 26618 C 2483.14 -0.331144 1.8374 0
M  V30 26619 C 2483.49 -1.62209 1.10375 0
M  V30 26620 O 2482.62 -2.13372 0.360747 0
M  V30 26621 C 2483.21 -0.607587 3.33307 0
M  V30 26622 C 2481.77 -1.06662 3.60971 0
M  V30 26623 C 2480.92 -0.10898 2.77086 0
M  V30 26624 H 2483.87 0.407511 1.53379 0
M  V30 26625 H 2483.89 -1.45826 3.51447 0
M  V30 26626 H 2483.4 0.332154 3.86676 0
M  V30 26627 H 2481.5 -2.02104 3.13025 0
M  V30 26628 H 2481.62 -0.967364 4.69232 0
M  V30 26629 H 2479.98 -0.60867 2.4732 0
M  V30 26630 H 2480.76 0.824998 3.3324 0
M  V30 26631 N 2483.21 -1.57342 -0.0901833 0
M  V30 26632 C 2484.44 -1.90271 -0.805022 0
M  V30 26633 C 2484.85 -0.775872 -1.7256 0
M  V30 26634 O 2484.19 0.260811 -1.81839 0
M  V30 26635 C 2484.25 -3.185 -1.66728 0
M  V30 26636 C 2483.91 -4.47685 -0.918013 0
M  V30 26637 C 2484.91 -5.1932 -0.245583 0
M  V30 26638 C 2482.6 -4.94341 -0.890637 0
M  V30 26639 C 2484.59 -6.3585 0.444199 0
M  V30 26640 C 2482.28 -6.10782 -0.197071 0
M  V30 26641 C 2483.28 -6.81387 0.469164 0
M  V30 26642 O 2482.96 -7.95609 1.1516 0
M  V30 26643 H 2482.7 -0.633789 -0.235132 0
M  V30 26644 H 2485.25 -2.0528 -0.0703444 0
M  V30 26645 H 2483.48 -2.9965 -2.44431 0
M  V30 26646 H 2485.17 -3.37221 -2.25913 0
M  V30 26647 H 2485.93 -4.84312 -0.258161 0
M  V30 26648 H 2481.81 -4.39271 -1.39865 0
M  V30 26649 H 2485.36 -6.90896 0.964788 0
M  V30 26650 H 2481.25 -6.45242 -0.182357 0
M  V30 26651 H 2482.02 -8.1162 1.05899 0
M  V30 26652 N 2484.69 0.36113 -1.53407 0
M  V30 26653 C 2485.91 1.1238 -1.73719 0
M  V30 26654 C 2486.33 1.82903 -0.468193 0
M  V30 26655 O 2485.69 1.73723 0.559167 0
M  V30 26656 C 2485.74 2.15073 -2.90561 0
M  V30 26657 O 2485.46 1.47421 -4.12551 0
M  V30 26658 C 2486.96 3.03852 -3.22783 0
M  V30 26659 H 2484.18 0.335848 -0.580902 0
M  V30 26660 H 2486.72 0.418693 -2.00168 0
M  V30 26661 H 2484.88 2.81175 -2.66494 0
M  V30 26662 H 2485.29 2.15879 -4.78013 0
M  V30 26663 H 2486.77 3.7188 -4.07933 0
M  V30 26664 H 2487.24 3.68908 -2.38335 0
M  V30 26665 H 2487.85 2.43361 -3.48792 0
M  V30 26666 N 2486.16 1.44842 0.621179 0
M  V30 26667 C 2487.41 1.48367 1.38257 0
M  V30 26668 C 2487.74 0.119658 1.93831 0
M  V30 26669 O 2487.02 -0.864081 1.74252 0
M  V30 26670 C 2487.3 2.55203 2.54054 0
M  V30 26671 C 2487.15 4.00999 2.03765 0
M  V30 26672 C 2488.47 2.58448 3.5622 0
M  V30 26673 H 2485.59 0.540187 0.501365 0
M  V30 26674 H 2488.23 1.76577 0.701469 0
M  V30 26675 H 2486.38 2.31279 3.12157 0
M  V30 26676 H 2488.06 4.36088 1.50415 0
M  V30 26677 H 2486.3 4.12302 1.34869 0
M  V30 26678 H 2486.97 4.71416 2.87177 0
M  V30 26679 H 2489.45 2.7985 3.07934 0
M  V30 26680 H 2488.32 3.35087 4.3475 0
M  V30 26681 H 2488.58 1.63021 4.10946 0
M  V30 26682 N 2487.64 -0.862479 1.31905 0
M  V30 26683 C 2488.57 -1.9861 1.22785 0
M  V30 26684 C 2489.55 -1.69722 0.113391 0
M  V30 26685 O 2490.74 -1.9188 0.299252 0
M  V30 26686 C 2487.87 -3.34278 0.942117 0
M  V30 26687 C 2486.82 -3.77495 2.01696 0
M  V30 26688 C 2486.15 -5.10706 1.58378 0
M  V30 26689 C 2487.45 -3.93799 3.43103 0
M  V30 26690 H 2489.14 -2.06498 2.16792 0
M  V30 26691 H 2486.69 -0.992136 1.04368 0
M  V30 26692 H 2488.64 -4.12429 0.86489 0
M  V30 26693 H 2487.37 -3.26583 -0.0336029 0
M  V30 26694 H 2486.02 -3.01589 2.08421 0
M  V30 26695 H 2485.67 -4.9946 0.595715 0
M  V30 26696 H 2485.37 -5.40593 2.30289 0
M  V30 26697 H 2486.9 -5.91359 1.52077 0
M  V30 26698 H 2488.31 -4.62325 3.39011 0
M  V30 26699 H 2486.71 -4.35094 4.13296 0
M  V30 26700 H 2487.78 -2.9695 3.83339 0
M  V30 26701 N 2489.12 -1.14988 -1.07775 0
M  V30 26702 C 2490.05 -0.865595 -2.16863 0
M  V30 26703 C 2491.03 0.182053 -1.69123 0
M  V30 26704 O 2492.22 0.0373473 -1.94164 0
M  V30 26705 C 2489.35 -0.349373 -3.45538 0
M  V30 26706 C 2488.3 -1.3332 -4.06706 0
M  V30 26707 C 2487.63 -0.676011 -5.30409 0
M  V30 26708 C 2488.93 -2.69772 -4.47236 0
M  V30 26709 H 2490.62 -1.77782 -2.40902 0
M  V30 26710 H 2488.17 -0.856223 -1.15779 0
M  V30 26711 H 2490.12 -0.138057 -4.21174 0
M  V30 26712 H 2488.84 0.598306 -3.21073 0
M  V30 26713 H 2487.5 -1.53081 -3.33109 0
M  V30 26714 H 2487.15 0.277679 -5.02233 0
M  V30 26715 H 2486.85 -1.33254 -5.72291 0
M  V30 26716 H 2488.37 -0.474369 -6.08755 0
M  V30 26717 H 2489.79 -2.53882 -5.1402 0
M  V30 26718 H 2488.19 -3.31759 -5.00056 0
M  V30 26719 H 2489.26 -3.26162 -3.58812 0
M  V30 26720 N 2490.6 1.26049 -0.946007 0
M  V30 26721 C 2491.83 1.97609 -0.613059 0
M  V30 26722 C 2492.24 1.70399 0.813005 0
M  V30 26723 O 2491.6 0.975006 1.54272 0
M  V30 26724 C 2491.65 3.51325 -0.851651 0
M  V30 26725 O 2491.37 3.77591 -2.22163 0
M  V30 26726 C 2492.87 4.40121 -0.529909 0
M  V30 26727 H 2490.09 0.630129 -0.230604 0
M  V30 26728 H 2492.64 1.60441 -1.26803 0
M  V30 26729 H 2490.79 3.86636 -0.243219 0
M  V30 26730 H 2491.2 4.72096 -2.28528 0
M  V30 26731 H 2492.68 5.46916 -0.747444 0
M  V30 26732 H 2493.16 4.35926 0.535264 0
M  V30 26733 H 2493.76 4.10362 -1.11728 0
M  V30 26734 N 2492.08 0.71358 1.4052 0
M  V30 26735 C 2493.3 0.261811 2.05237 0
M  V30 26736 C 2493.72 -1.09564 1.53757 0
M  V30 26737 O 2493.08 -1.68818 0.693298 0
M  V30 26738 C 2493.13 0.230769 3.60763 0
M  V30 26739 O 2492.85 1.53462 4.10343 0
M  V30 26740 C 2494.35 -0.239796 4.42651 0
M  V30 26741 H 2491.57 0.118069 0.660531 0
M  V30 26742 H 2494.11 0.971224 1.79965 0
M  V30 26743 H 2492.27 -0.429593 3.85011 0
M  V30 26744 H 2492.68 1.43375 5.04523 0
M  V30 26745 H 2494.16 -0.210371 5.51599 0
M  V30 26746 H 2494.63 -1.28163 4.20084 0
M  V30 26747 H 2495.24 0.390216 4.23506 0
M  V30 26748 N 2493.55 -1.50749 0.459618 0
M  V30 26749 C 2494.97 -1.867 0.00174828 0
M  V30 26750 C 2495.32 -1.37527 -1.39931 0
M  V30 26751 O 2494.44 -0.735385 -2.03522 0
M  V30 26752 C 2495.04 -3.388 -0.00360343 0
M  V30 26753 C 2493.6 -3.74204 -0.40596 0
M  V30 26754 C 2492.74 -2.74589 0.386778 0
M  V30 26755 H 2495.69 -1.43656 0.674438 0
M  V30 26756 H 2495.71 -3.71815 -0.808306 0
M  V30 26757 H 2495.23 -3.74559 1.01623 0
M  V30 26758 H 2493.33 -3.44043 -1.43057 0
M  V30 26759 H 2493.44 -4.78961 -0.115278 0
M  V30 26760 H 2491.8 -2.5421 -0.157974 0
M  V30 26761 H 2492.59 -3.13192 1.40591 0
M  V30 26762 N 2495.03 -0.191784 -1.56429 0
M  V30 26763 C 2496.26 0.453551 -2.01868 0
M  V30 26764 C 2496.68 1.55418 -1.07194 0
M  V30 26765 O 2496.03 1.82341 -0.0762429 0
M  V30 26766 C 2496.08 1.01294 -3.47018 0
M  V30 26767 O 2495.8 -0.0437775 -4.38078 0
M  V30 26768 C 2497.31 1.73448 -4.07959 0
M  V30 26769 H 2494.53 0.114187 -0.661213 0
M  V30 26770 H 2497.07 -0.299519 -2.02295 0
M  V30 26771 H 2495.22 1.71641 -3.47301 0
M  V30 26772 H 2495.64 0.37212 -5.23178 0
M  V30 26773 H 2497.11 2.07824 -5.11384 0
M  V30 26774 H 2497.59 2.63698 -3.51227 0
M  V30 26775 H 2498.2 1.07694 -4.11439 0
M  V30 26776 N 2496.51 1.57387 0.0818378 0
M  V30 26777 C 2497.47 2.0202 1.08262 0
M  V30 26778 C 2498.47 0.915687 1.32181 0
M  V30 26779 O 2499.66 1.18083 1.28071 0
M  V30 26780 C 2496.8 2.39225 2.42866 0
M  V30 26781 H 2497.99 2.9166 0.698153 0
M  V30 26782 H 2495.54 1.52835 0.327276 0
M  V30 26783 H 2496.28 1.5258 2.86164 0
M  V30 26784 H 2496.06 3.19815 2.2685 0
M  V30 26785 H 2497.55 2.74367 3.14821 0
M  V30 26786 N 2497.99 -0.35299 1.53596 0
M  V30 26787 C 2498.92 -1.4388 1.83904 0
M  V30 26788 C 2499.9 -1.55323 0.693448 0
M  V30 26789 O 2501.08 -1.69686 0.944482 0
M  V30 26790 C 2498.21 -2.81057 2.04021 0
M  V30 26791 C 2497.17 -2.84428 3.19819 0
M  V30 26792 C 2496.49 -4.244 3.25252 0
M  V30 26793 C 2497.79 -2.50814 4.58137 0
M  V30 26794 H 2499.49 -1.18765 2.74837 0
M  V30 26795 H 2497.03 -0.569894 1.32243 0
M  V30 26796 H 2498.99 -3.57055 2.23807 0
M  V30 26797 H 2497.71 -3.07586 1.0981 0
M  V30 26798 H 2496.37 -2.10882 2.99874 0
M  V30 26799 H 2496.02 -4.48025 2.28654 0
M  V30 26800 H 2495.72 -4.27569 4.03061 0
M  V30 26801 H 2497.24 -5.02254 3.47237 0
M  V30 26802 H 2498.66 -3.16526 4.78001 0
M  V30 26803 H 2497.05 -2.65281 5.38281 0
M  V30 26804 H 2498.12 -1.46026 4.6239 0
M  V30 26805 N 2499.47 -1.45169 -0.613489 0
M  V30 26806 C 2500.41 -1.5339 -1.72454 0
M  V30 26807 C 2501.38 -0.38022 -1.6169 0
M  V30 26808 O 2502.57 -0.592868 -1.81355 0
M  V30 26809 C 2499.71 -1.50094 -3.10751 0
M  V30 26810 C 2498.82 -2.75968 -3.32363 0
M  V30 26811 C 2497.96 -2.64384 -4.60732 0
M  V30 26812 C 2497 -3.8534 -4.75583 0
M  V30 26813 N 2496.13 -3.72326 -5.95246 0
M  V30 26814 H 2500.97 -2.48308 -1.64764 0
M  V30 26815 H 2498.51 -1.23218 -0.803481 0
M  V30 26816 H 2500.47 -1.46171 -3.90755 0
M  V30 26817 H 2499.1 -0.587299 -3.17412 0
M  V30 26818 H 2498.15 -2.90003 -2.46175 0
M  V30 26819 H 2499.46 -3.65701 -3.39212 0
M  V30 26820 H 2498.62 -2.58394 -5.48924 0
M  V30 26821 H 2497.36 -1.72241 -4.56272 0
M  V30 26822 H 2496.36 -3.91695 -3.85817 0
M  V30 26823 H 2497.59 -4.78541 -4.81845 0
M  V30 26824 H 2495.53 -2.82948 -5.91842 0
M  V30 26825 H 2495.45 -4.55688 -6.03228 0
M  V30 26826 H 2496.72 -3.70258 -6.85951 0
M  V30 26827 N 2500.95 0.855472 -1.32361 0
M  V30 26828 C 2502.19 1.61198 -1.23057 0
M  V30 26829 C 2502.52 1.9309 0.20737 0
M  V30 26830 O 2501.8 1.57278 1.14429 0
M  V30 26831 C 2502.08 2.93284 -2.08942 0
M  V30 26832 C 2501.94 2.68179 -3.6111 0
M  V30 26833 C 2503.25 3.94545 -1.94993 0
M  V30 26834 H 2500.37 0.584919 -0.448374 0
M  V30 26835 H 2503.02 0.987888 -1.62298 0
M  V30 26836 H 2501.17 3.46548 -1.75605 0
M  V30 26837 H 2502.84 2.21475 -4.04656 0
M  V30 26838 H 2501.08 2.02158 -3.83816 0
M  V30 26839 H 2501.75 3.62227 -4.16528 0
M  V30 26840 H 2504.23 3.50536 -2.24196 0
M  V30 26841 H 2503.1 4.84824 -2.57364 0
M  V30 26842 H 2503.36 4.32478 -0.917339 0
M  V30 26843 N 2502.42 1.15558 1.07164 0
M  V30 26844 C 2503.7 0.8421 1.76545 0
M  V30 26845 C 2504.08 -0.661904 2.00455 0
M  V30 26846 O 2503.43 -1.60688 1.62455 0
M  V30 26847 C 2503.64 1.65501 3.07263 0
M  V30 26848 C 2504.99 1.86241 3.81575 0
M  V30 26849 O 2506.01 1.62293 3.1708 0
M  V30 26850 O 2504.87 2.26364 4.97415 0
M  V30 26851 H 2501.96 0.309875 0.766751 0
M  V30 26852 H 2504.51 1.26147 1.13512 0
M  V30 26853 H 2503.28 2.67603 2.85489 0
M  V30 26854 H 2502.9 1.2321 3.78028 0
M  V30 26855 N 2503.9 -1.25546 0.952678 0
M  V30 26856 C 2505.15 -1.92825 0.605209 0
M  V30 26857 C 2505.47 -1.75 -0.860231 0
M  V30 26858 O 2504.74 -1.11247 -1.61248 0
M  V30 26859 H 2503.32 -0.713608 0.220844 0
M  V30 26860 H 2505.98 -1.52751 1.2105 0
M  V30 26861 H 2505.08 -3.00782 0.832851 0
M  V30 26862 N 2505.38 -0.721022 -1.40139 0
M  V30 26863 C 2506.63 -0.259839 -2.00019 0
M  V30 26864 C 2506.94 1.15524 -1.57841 0
M  V30 26865 O 2508.15 1.71522 -2.10458 0
M  V30 26866 C 2506.6 -0.413629 -3.57515 0
M  V30 26867 C 2506.21 -1.83569 -4.08664 0
M  V30 26868 C 2507.96 -0.0135133 -4.24498 0
M  V30 26869 C 2505.86 -1.93978 -5.58683 0
M  V30 26870 H 2504.79 -0.0933938 -0.748194 0
M  V30 26871 H 2507.44 -0.892894 -1.60311 0
M  V30 26872 H 2505.83 0.288099 -3.94951 0
M  V30 26873 H 2507 -2.56824 -3.82594 0
M  V30 26874 H 2505.31 -2.18776 -3.54297 0
M  V30 26875 H 2507.91 -0.0704894 -5.34654 0
M  V30 26876 H 2508.25 1.0292 -4.03377 0
M  V30 26877 H 2508.79 -0.665884 -3.92187 0
M  V30 26878 H 2505.53 -2.9639 -5.84665 0
M  V30 26879 H 2505.05 -1.25142 -5.866 0
M  V30 26880 H 2506.73 -1.71442 -6.23872 0
M  V30 26881 N 2506.86 1.50503 -0.467606 0
M  V30 26882 C 2507.82 2.26997 0.317019 0
M  V30 26883 C 2508.82 1.31637 0.92349 0
M  V30 26884 O 2510.01 1.55093 0.793212 0
M  V30 26885 C 2507.14 3.08465 1.45129 0
M  V30 26886 H 2508.34 2.97806 -0.353775 0
M  V30 26887 H 2505.89 1.54722 -0.221572 0
M  V30 26888 H 2506.62 2.42144 2.15724 0
M  V30 26889 H 2506.41 3.7854 1.02225 0
M  V30 26890 H 2507.9 3.66326 2.00487 0
M  V30 26891 N 2508.34 0.200077 1.56325 0
M  V30 26892 C 2509.3 -0.705094 2.18085 0
M  V30 26893 C 2510.3 -1.13738 1.13668 0
M  V30 26894 O 2511.49 -1.04966 1.39025 0
M  V30 26895 C 2508.62 -1.96324 2.78693 0
M  V30 26896 H 2509.81 -0.16697 2.99435 0
M  V30 26897 H 2507.37 -0.049545 1.56221 0
M  V30 26898 H 2508.1 -2.54376 2.01155 0
M  V30 26899 H 2507.89 -1.66196 3.55136 0
M  V30 26900 H 2509.38 -2.60861 3.261 0
M  V30 26901 N 2509.81 -1.57429 -0.0734901 0
M  V30 26902 C 2511.06 -1.88308 -0.768876 0
M  V30 26903 C 2511.41 -0.793566 -1.75272 0
M  V30 26904 O 2510.71 0.202433 -1.90528 0
M  V30 26905 C 2510.9 -3.23564 -1.51793 0
M  V30 26906 C 2510.73 -4.45569 -0.608139 0
M  V30 26907 C 2509.5 -5.04702 -0.24572 0
M  V30 26908 C 2511.7 -5.14213 0.0943808 0
M  V30 26909 N 2509.68 -6.10233 0.669977 0
M  V30 26910 C 2511.05 -6.13903 0.86733 0
M  V30 26911 C 2513.11 -4.97623 0.16603 0
M  V30 26912 C 2511.81 -6.98794 1.70527 0
M  V30 26913 C 2513.84 -5.83039 0.990939 0
M  V30 26914 C 2513.2 -6.82266 1.75194 0
M  V30 26915 H 2509.3 -0.738619 -0.256837 0
M  V30 26916 H 2511.88 -1.94676 -0.0304648 0
M  V30 26917 H 2510.05 -3.18207 -2.22708 0
M  V30 26918 H 2511.78 -3.42098 -2.1622 0
M  V30 26919 H 2508.54 -4.69807 -0.598201 0
M  V30 26920 H 2508.96 -6.67654 1.12102 0
M  V30 26921 H 2513.6 -4.20827 -0.40799 0
M  V30 26922 H 2511.32 -7.74966 2.29027 0
M  V30 26923 H 2514.91 -5.72259 1.04933 0
M  V30 26924 H 2513.79 -7.47213 2.37996 0
M  V30 26925 N 2511.29 0.344839 -1.53781 0
M  V30 26926 C 2512.54 1.08264 -1.70181 0
M  V30 26927 C 2512.85 1.89844 -0.471033 0
M  V30 26928 O 2514.06 2.66552 -0.515964 0
M  V30 26929 C 2512.52 1.97412 -3.00926 0
M  V30 26930 C 2512.12 1.21046 -4.31337 0
M  V30 26931 C 2513.87 2.71058 -3.26693 0
M  V30 26932 C 2511.77 2.09216 -5.53157 0
M  V30 26933 H 2510.7 0.407892 -0.634145 0
M  V30 26934 H 2513.36 0.342215 -1.80281 0
M  V30 26935 H 2511.74 2.75269 -2.84681 0
M  V30 26936 H 2512.91 0.481079 -4.58282 0
M  V30 26937 H 2511.23 0.59174 -4.12174 0
M  V30 26938 H 2513.82 3.37292 -4.14895 0
M  V30 26939 H 2514.17 3.37554 -2.43645 0
M  V30 26940 H 2514.7 2.00274 -3.43708 0
M  V30 26941 H 2511.44 1.47263 -6.38744 0
M  V30 26942 H 2510.96 2.79946 -5.30463 0
M  V30 26943 H 2512.64 2.68298 -5.88749 0
M  V30 26944 N 2512.77 1.45492 0.605781 0
M  V30 26945 C 2513.72 1.50727 1.71071 0
M  V30 26946 C 2514.7 0.370358 1.5658 0
M  V30 26947 O 2515.9 0.617328 1.65886 0
M  V30 26948 C 2513.02 1.47857 3.09828 0
M  V30 26949 C 2512.11 2.66757 3.29699 0
M  V30 26950 N 2512.5 3.9185 3.19824 0
M  V30 26951 C 2510.8 2.62492 3.60574 0
M  V30 26952 C 2511.5 4.71214 3.41075 0
M  V30 26953 N 2510.48 4.02699 3.6515 0
M  V30 26954 H 2514.28 2.45265 1.61932 0
M  V30 26955 H 2511.79 1.4081 0.809096 0
M  V30 26956 H 2513.79 1.49692 3.89099 0
M  V30 26957 H 2512.45 0.54377 3.20114 0
M  V30 26958 H 2513.46 4.23444 2.98187 0
M  V30 26959 H 2510.14 1.77928 3.77687 0
M  V30 26960 H 2511.53 5.80217 3.38818 0
M  V30 26961 N 2514.25 -0.848441 1.32813 0
M  V30 26962 C 2515.21 -1.93908 1.22198 0
M  V30 26963 C 2516.21 -1.60159 0.143432 0
M  V30 26964 O 2517.4 -1.69679 0.394283 0
M  V30 26965 C 2514.53 -3.29327 0.880728 0
M  V30 26966 H 2515.73 -2.04748 2.19131 0
M  V30 26967 H 2513.28 -1.03938 1.16733 0
M  V30 26968 H 2514.01 -3.24185 -0.0865206 0
M  V30 26969 H 2513.8 -3.552 1.66059 0
M  V30 26970 H 2515.29 -4.09249 0.830943 0
M  V30 26971 N 2515.73 -1.16125 -1.06549 0
M  V30 26972 C 2516.69 -0.867944 -2.12131 0
M  V30 26973 C 2517.69 0.135916 -1.60225 0
M  V30 26974 O 2518.88 -0.0946728 -1.73943 0
M  V30 26975 C 2516.01 -0.297479 -3.396 0
M  V30 26976 H 2517.2 -1.80389 -2.39583 0
M  V30 26977 H 2514.76 -0.969834 -1.22572 0
M  V30 26978 H 2515.49 0.646274 -3.17795 0
M  V30 26979 H 2515.28 -1.02079 -3.78579 0
M  V30 26980 H 2516.77 -0.110125 -4.17455 0
M  V30 26981 N 2517.2 1.25039 -0.959323 0
M  V30 26982 C 2518.15 2.23436 -0.453928 0
M  V30 26983 C 2519.14 1.54201 0.459434 0
M  V30 26984 O 2520.33 1.74579 0.291721 0
M  V30 26985 C 2517.46 3.42294 0.262607 0
M  V30 26986 C 2516.55 4.18789 -0.669096 0
M  V30 26987 N 2516.94 4.72583 -1.80276 0
M  V30 26988 C 2515.23 4.43429 -0.478218 0
M  V30 26989 C 2515.94 5.30566 -2.38484 0
M  V30 26990 N 2514.91 5.17284 -1.67088 0
M  V30 26991 H 2518.71 2.62637 -1.31904 0
M  V30 26992 H 2516.23 1.4033 -0.817383 0
M  V30 26993 H 2518.22 4.1193 0.641838 0
M  V30 26994 H 2516.88 3.04615 1.12427 0
M  V30 26995 H 2517.9 4.69574 -2.18451 0
M  V30 26996 H 2514.57 4.16112 0.340176 0
M  V30 26997 H 2515.96 5.82944 -3.34105 0
M  V30 26998 N 2518.68 0.728444 1.39755 0
M  V30 26999 C 2519.93 0.273927 2.00941 0
M  V30 27000 C 2520.26 -1.13392 1.57658 0
M  V30 27001 O 2519.54 -1.77174 0.802465 0
M  V30 27002 C 2519.82 0.368409 3.5821 0
M  V30 27003 C 2519.67 1.81555 4.11531 0
M  V30 27004 C 2520.99 -0.252977 4.39372 0
M  V30 27005 H 2518.11 0.101009 0.730045 0
M  V30 27006 H 2520.75 0.923366 1.66054 0
M  V30 27007 H 2518.9 -0.18452 3.88062 0
M  V30 27008 H 2520.57 2.42485 3.92426 0
M  V30 27009 H 2518.82 2.33905 3.65337 0
M  V30 27010 H 2519.49 1.83297 5.20679 0
M  V30 27011 H 2521.96 0.218297 4.15527 0
M  V30 27012 H 2520.84 -0.156489 5.48677 0
M  V30 27013 H 2521.1 -1.33819 4.21361 0
M  V30 27014 N 2520.16 -1.50253 0.475581 0
M  V30 27015 C 2521.11 -2.28623 -0.316253 0
M  V30 27016 C 2522.08 -1.33874 -0.983203 0
M  V30 27017 O 2523.26 -1.62815 -0.994776 0
M  V30 27018 C 2520.4 -3.15882 -1.38969 0
M  V30 27019 C 2519.52 -4.25666 -0.737071 0
M  V30 27020 C 2518.65 -5.00176 -1.78879 0
M  V30 27021 C 2517.69 -6.01828 -1.11665 0
M  V30 27022 N 2516.83 -6.696 -2.11142 0
M  V30 27023 H 2521.67 -2.95838 0.358349 0
M  V30 27024 H 2519.2 -1.45886 0.188566 0
M  V30 27025 H 2521.16 -3.64828 -2.02376 0
M  V30 27026 H 2519.79 -2.50704 -2.0334 0
M  V30 27027 H 2518.84 -3.80399 0.00967337 0
M  V30 27028 H 2520.16 -4.98371 -0.206729 0
M  V30 27029 H 2519.31 -5.52863 -2.49855 0
M  V30 27030 H 2518.05 -4.27186 -2.35294 0
M  V30 27031 H 2517.05 -5.48397 -0.392537 0
M  V30 27032 H 2518.28 -6.76793 -0.559331 0
M  V30 27033 H 2516.22 -5.99398 -2.66566 0
M  V30 27034 H 2516.14 -7.38196 -1.63105 0
M  V30 27035 H 2517.41 -7.26902 -2.81485 0
M  V30 27036 N 2521.64 -0.208365 -1.56217 0
M  V30 27037 C 2522.6 0.693518 -2.18456 0
M  V30 27038 C 2523.6 1.13133 -1.1427 0
M  V30 27039 O 2524.79 1.04227 -1.39579 0
M  V30 27040 C 2521.92 1.94843 -2.7973 0
M  V30 27041 H 2523.12 0.151088 -2.99519 0
M  V30 27042 H 2520.67 0.0412595 -1.56246 0
M  V30 27043 H 2521.4 2.53306 -2.02501 0
M  V30 27044 H 2521.19 1.6431 -3.56012 0
M  V30 27045 H 2522.68 2.59128 -3.27479 0
M  V30 27046 N 2523.12 1.57465 0.0651402 0
M  V30 27047 C 2524.08 2.03157 1.06113 0
M  V30 27048 C 2525.08 0.929655 1.31202 0
M  V30 27049 O 2526.27 1.19435 1.26811 0
M  V30 27050 C 2523.4 2.41788 2.40315 0
M  V30 27051 H 2524.59 2.92385 0.667179 0
M  V30 27052 H 2522.15 1.53174 0.311048 0
M  V30 27053 H 2522.88 1.55606 2.8453 0
M  V30 27054 H 2522.67 3.22203 2.23445 0
M  V30 27055 H 2524.16 2.77691 3.11893 0
M  V30 27056 N 2524.59 -0.336679 1.53962 0
M  V30 27057 C 2525.87 -1.09358 1.62173 0
M  V30 27058 C 2526.25 -2.06307 0.447299 0
M  V30 27059 O 2525.6 -2.21538 -0.559763 0
M  V30 27060 C 2525.81 -1.80715 2.98568 0
M  V30 27061 C 2527.16 -2.34212 3.54161 0
M  V30 27062 O 2528.18 -1.90802 3.00788 0
M  V30 27063 O 2527.04 -3.13649 4.47534 0
M  V30 27064 H 2524.13 -0.503308 0.656209 0
M  V30 27065 H 2526.68 -0.337621 1.66308 0
M  V30 27066 H 2525.45 -1.10125 3.75484 0
M  V30 27067 H 2525.08 -2.63153 2.98054 0
M  V30 27068 N 2526.07 -1.45812 -0.598057 0
M  V30 27069 C 2527.48 -1.44675 -1.18009 0
M  V30 27070 C 2527.83 -0.179399 -1.95378 0
M  V30 27071 O 2526.96 0.718473 -2.04125 0
M  V30 27072 C 2527.55 -2.62109 -2.14673 0
M  V30 27073 C 2526.11 -2.64062 -2.68232 0
M  V30 27074 C 2525.26 -2.37093 -1.43812 0
M  V30 27075 H 2528.21 -1.53913 -0.386833 0
M  V30 27076 H 2528.23 -2.36752 -2.97874 0
M  V30 27077 H 2527.74 -3.54333 -1.58334 0
M  V30 27078 H 2525.85 -1.75869 -3.28482 0
M  V30 27079 H 2525.96 -3.63571 -3.12014 0
M  V30 27080 H 2524.32 -1.86841 -1.73097 0
M  V30 27081 H 2525.11 -3.31475 -0.893275 0
M  V30 27082 N 2527.55 0.841385 -1.33261 0
M  V30 27083 C 2528.8 1.59332 -1.24329 0
M  V30 27084 C 2529.12 1.94057 0.19153 0
M  V30 27085 O 2528.39 1.60751 1.11964 0
M  V30 27086 H 2526.97 0.590755 -0.457184 0
M  V30 27087 H 2529.63 1.00569 -1.66949 0
M  V30 27088 H 2528.73 2.52439 -1.83524 0
M  V30 27089 N 2529.03 1.16688 1.05932 0
M  V30 27090 C 2530.28 0.948775 1.78445 0
M  V30 27091 C 2530.6 -0.52449 1.87814 0
M  V30 27092 O 2529.87 -1.38096 1.38948 0
M  V30 27093 H 2528.45 0.348044 0.660965 0
M  V30 27094 H 2531.11 1.47025 1.27944 0
M  V30 27095 H 2530.21 1.37066 2.80392 0
M  V30 27096 N 2530.51 -1.24529 0.96594 0
M  V30 27097 C 2531.76 -1.92173 0.625627 0
M  V30 27098 C 2532.08 -1.75903 -0.841621 0
M  V30 27099 O 2531.35 -1.12951 -1.60059 0
M  V30 27100 H 2529.93 -0.711226 0.228401 0
M  V30 27101 H 2532.59 -1.51459 1.22663 0
M  V30 27102 H 2531.68 -2.99882 0.864706 0
M  V30 27103 N 2531.99 -0.735845 -1.39367 0
M  V30 27104 C 2533.4 -0.354048 -1.83312 0
M  V30 27105 C 2533.75 1.11464 -1.61463 0
M  V30 27106 O 2532.87 1.85987 -1.10625 0
M  V30 27107 C 2533.47 -0.635827 -3.3278 0
M  V30 27108 C 2532.03 -0.307514 -3.75142 0
M  V30 27109 C 2531.17 -0.89802 -2.62356 0
M  V30 27110 H 2534.12 -0.93342 -1.28347 0
M  V30 27111 H 2534.15 0.0921105 -3.80388 0
M  V30 27112 H 2533.66 -1.70482 -3.48651 0
M  V30 27113 H 2531.76 0.755609 -3.64858 0
M  V30 27114 H 2531.87 -0.790666 -4.72531 0
M  V30 27115 H 2530.24 -0.324596 -2.52623 0
M  V30 27116 H 2531.02 -1.97169 -2.81033 0
M  V30 27117 N 2533.46 1.49999 -0.483543 0
M  V30 27118 C 2534.69 2.07293 0.0666755 0
M  V30 27119 C 2535.11 1.34362 1.31637 0
M  V30 27120 O 2534.47 0.395018 1.76944 0
M  V30 27121 C 2534.52 3.59168 0.321063 0
M  V30 27122 O 2533.62 3.87938 1.3992 0
M  V30 27123 H 2532.96 0.663743 -0.0184875 0
M  V30 27124 H 2535.49 1.93034 -0.678159 0
M  V30 27125 H 2535.5 4.04169 0.557835 0
M  V30 27126 H 2534.18 4.11664 -0.592079 0
M  V30 27127 H 2532.76 3.54765 1.14876 0
M  V30 27128 N 2534.94 0.216646 1.56104 0
M  V30 27129 C 2536.17 -0.424426 2.03011 0
M  V30 27130 C 2536.59 -1.52905 1.09553 0
M  V30 27131 O 2535.95 -1.81111 0.0828232 0
M  V30 27132 C 2536 -0.937822 3.48191 0
M  V30 27133 O 2535.1 -2.04948 3.57869 0
M  V30 27134 H 2534.44 -0.096664 0.656926 0
M  V30 27135 H 2536.97 0.333845 2.01858 0
M  V30 27136 H 2536.98 -1.2489 3.88415 0
M  V30 27137 H 2535.66 -0.129313 4.15699 0
M  V30 27138 H 2534.23 -1.74541 3.2953 0
M  V30 27139 N 2536.42 -1.57498 -0.0567885 0
M  V30 27140 C 2537.84 -1.54193 -0.411906 0
M  V30 27141 C 2538.04 -0.938973 -1.78285 0
M  V30 27142 O 2537.09 -0.547962 -2.46483 0
M  V30 27143 C 2538.4 -2.98781 -0.339191 0
M  V30 27144 C 2539.95 -3.10192 -0.418294 0
M  V30 27145 C 2540.43 -4.5646 -0.375327 0
M  V30 27146 N 2541.92 -4.61153 -0.434957 0
M  V30 27147 C 2542.65 -5.71829 -0.424164 0
M  V30 27148 N 2542.15 -6.91826 -0.367297 0
M  V30 27149 N 2543.94 -5.60116 -0.471839 0
M  V30 27150 H 2536.09 -1.95053 0.840718 0
M  V30 27151 H 2538.36 -0.893428 0.317003 0
M  V30 27152 H 2538.06 -3.46513 0.601803 0
M  V30 27153 H 2537.94 -3.59445 -1.14364 0
M  V30 27154 H 2540.32 -2.62425 -1.34971 0
M  V30 27155 H 2540.4 -2.52411 0.415006 0
M  V30 27156 H 2540.05 -5.04888 0.552308 0
M  V30 27157 H 2539.98 -5.12121 -1.22636 0
M  V30 27158 H 2542.47 -3.74806 -0.482546 0
M  V30 27159 H 2542.78 -7.71945 -0.3634 0
M  V30 27160 H 2541.13 -6.94198 -0.333757 0
M  V30 27161 H 2544.32 -4.65269 -0.514064 0
M  V30 27162 H 2544.49 -6.46366 -0.459959 0
M  V30 27163 N 2537.9 0.328509 -1.54138 0
M  V30 27164 C 2538.83 1.40936 -1.8617 0
M  V30 27165 C 2539.81 1.542 -0.718071 0
M  V30 27166 O 2540.99 1.68161 -0.971358 0
M  V30 27167 C 2538.12 2.77775 -2.08466 0
M  V30 27168 C 2537.08 2.79304 -3.24304 0
M  V30 27169 C 2536.4 4.19172 -3.31962 0
M  V30 27170 C 2537.7 2.43494 -4.62069 0
M  V30 27171 H 2539.4 1.14378 -2.76691 0
M  V30 27172 H 2536.94 0.548783 -1.33133 0
M  V30 27173 H 2538.9 3.5345 -2.29459 0
M  V30 27174 H 2537.62 3.058 -1.14689 0
M  V30 27175 H 2536.28 2.06085 -3.03191 0
M  V30 27176 H 2535.93 4.4433 -2.35753 0
M  V30 27177 H 2535.63 4.21103 -4.09813 0
M  V30 27178 H 2537.15 4.96666 -3.55183 0
M  V30 27179 H 2538.57 3.08881 -4.82976 0
M  V30 27180 H 2536.96 2.56683 -5.42433 0
M  V30 27181 H 2538.03 1.38651 -4.64655 0
M  V30 27182 N 2539.38 1.46127 0.590316 0
M  V30 27183 C 2540.6 1.546 1.37501 0
M  V30 27184 C 2541.02 0.18448 1.87897 0
M  V30 27185 O 2540.38 -0.816956 1.63193 0
M  V30 27186 C 2540.43 2.54458 2.56775 0
M  V30 27187 O 2540.15 3.85321 2.08469 0
M  V30 27188 C 2541.65 2.72798 3.49423 0
M  V30 27189 H 2538.87 0.523045 0.420316 0
M  V30 27190 H 2541.41 1.91468 0.71835 0
M  V30 27191 H 2539.57 2.20615 3.18446 0
M  V30 27192 H 2539.98 4.39605 2.8609 0
M  V30 27193 H 2541.46 3.46608 4.29613 0
M  V30 27194 H 2541.93 1.79436 4.00873 0
M  V30 27195 H 2542.54 3.07707 2.93592 0
M  V30 27196 N 2540.85 -0.834306 1.33705 0
M  V30 27197 C 2542.1 -1.59186 1.26615 0
M  V30 27198 C 2542.45 -1.91688 -0.165405 0
M  V30 27199 O 2541.75 -1.56264 -1.1087 0
M  V30 27200 C 2541.94 -2.90688 2.07931 0
M  V30 27201 C 2541.77 -2.71031 3.58848 0
M  V30 27202 C 2540.54 -2.68354 4.28152 0
M  V30 27203 C 2542.74 -2.43345 4.53087 0
M  V30 27204 N 2540.72 -2.40122 5.64991 0
M  V30 27205 C 2542.09 -2.24706 5.77847 0
M  V30 27206 C 2544.15 -2.2898 4.42123 0
M  V30 27207 C 2542.85 -1.93157 6.9288 0
M  V30 27208 C 2544.88 -1.98825 5.56976 0
M  V30 27209 C 2544.24 -1.81001 6.80748 0
M  V30 27210 H 2540.34 -0.585366 0.518528 0
M  V30 27211 H 2542.92 -0.979014 1.68296 0
M  V30 27212 H 2541.09 -3.49915 1.68564 0
M  V30 27213 H 2542.82 -3.55946 1.92574 0
M  V30 27214 H 2539.58 -2.82023 3.80474 0
M  V30 27215 H 2540 -2.28878 6.37137 0
M  V30 27216 H 2544.64 -2.4147 3.47062 0
M  V30 27217 H 2542.36 -1.79404 7.87934 0
M  V30 27218 H 2545.95 -1.88458 5.50432 0
M  V30 27219 H 2544.83 -1.58003 7.68118 0
M  V30 27220 N 2542.33 -1.17248 -1.05312 0
M  V30 27221 C 2543.75 -0.919496 -1.30451 0
M  V30 27222 C 2543.95 0.422056 -1.9703 0
M  V30 27223 O 2543 1.15931 -2.24313 0
M  V30 27224 C 2544.32 -2.0759 -2.17547 0
M  V30 27225 C 2545.86 -2.11279 -2.30934 0
M  V30 27226 C 2546.34 -3.26301 -3.2139 0
M  V30 27227 N 2547.83 -3.26082 -3.28976 0
M  V30 27228 C 2548.57 -4.11723 -3.99088 0
M  V30 27229 N 2548.06 -5.07473 -4.71639 0
M  V30 27230 N 2549.85 -3.99677 -3.9524 0
M  V30 27231 H 2542.01 -2.03603 -0.604952 0
M  V30 27232 H 2544.27 -0.88895 -0.329352 0
M  V30 27233 H 2543.97 -3.04543 -1.75916 0
M  V30 27234 H 2543.85 -2.02589 -3.18178 0
M  V30 27235 H 2546.24 -1.14912 -2.71807 0
M  V30 27236 H 2546.32 -2.20341 -1.29936 0
M  V30 27237 H 2545.96 -4.22932 -2.8123 0
M  V30 27238 H 2545.89 -3.14475 -4.2239 0
M  V30 27239 H 2548.38 -2.56755 -2.77282 0
M  V30 27240 H 2548.69 -5.69219 -5.22695 0
M  V30 27241 H 2547.04 -5.11444 -4.70585 0
M  V30 27242 H 2550.23 -3.2417 -3.37685 0
M  V30 27243 H 2550.4 -4.6664 -4.49612 0
M  V30 27244 N 2543.81 1.24015 -0.972531 0
M  V30 27245 C 2545.06 1.92503 -0.638012 0
M  V30 27246 C 2545.39 1.75788 0.825352 0
M  V30 27247 O 2544.66 1.11396 1.5944 0
M  V30 27248 C 2544.95 3.45367 -1.01948 0
M  V30 27249 C 2544.8 3.71227 -2.5399 0
M  V30 27250 C 2546.12 4.36554 -0.557587 0
M  V30 27251 H 2543.24 0.699113 -0.23326 0
M  V30 27252 H 2545.88 1.4629 -1.2124 0
M  V30 27253 H 2544.03 3.84858 -0.530723 0
M  V30 27254 H 2545.7 3.41266 -3.1038 0
M  V30 27255 H 2543.95 3.1621 -2.96974 0
M  V30 27256 H 2544.62 4.78201 -2.75731 0
M  V30 27257 H 2547.09 4.04465 -0.9771 0
M  V30 27258 H 2545.97 5.42231 -0.853015 0
M  V30 27259 H 2546.23 4.38762 0.542251 0
M  V30 27260 N 2545.29 0.743226 1.38974 0
M  V30 27261 C 2546.22 0.0689631 2.29096 0
M  V30 27262 C 2547.23 -0.694765 1.47231 0
M  V30 27263 O 2548.42 -0.537567 1.70213 0
M  V30 27264 C 2545.52 -0.92649 3.2599 0
M  V30 27265 C 2544.7 -0.22257 4.36833 0
M  V30 27266 C 2543.75 -1.1273 5.13983 0
M  V30 27267 O 2542.78 -0.601695 5.66011 0
M  V30 27268 N 2543.98 -2.45632 5.25971 0
M  V30 27269 H 2546.75 0.842897 2.87603 0
M  V30 27270 H 2544.31 0.593136 1.50644 0
M  V30 27271 H 2546.3 -1.53453 3.74479 0
M  V30 27272 H 2544.87 -1.60157 2.68456 0
M  V30 27273 H 2544.09 0.566052 3.90115 0
M  V30 27274 H 2545.38 0.26493 5.0811 0
M  V30 27275 H 2544.78 -2.90802 4.85233 0
M  V30 27276 H 2543.33 -3.01512 5.7787 0
M  V30 27277 N 2546.77 -1.4974 0.491491 0
M  V30 27278 C 2548.18 -1.58923 0.146863 0
M  V30 27279 C 2548.38 -1.49769 -1.34802 0
M  V30 27280 O 2547.44 -1.3667 -2.12314 0
M  V30 27281 C 2548.75 -2.92071 0.715208 0
M  V30 27282 C 2550.3 -3.05514 0.680461 0
M  V30 27283 C 2550.77 -4.41266 1.2267 0
M  V30 27284 N 2552.27 -4.47733 1.18699 0
M  V30 27285 C 2553 -5.51204 1.57994 0
M  V30 27286 N 2552.5 -6.61827 2.04835 0
M  V30 27287 N 2554.29 -5.41863 1.49469 0
M  V30 27288 H 2546.44 -1.53933 1.4635 0
M  V30 27289 H 2548.7 -0.728631 0.606466 0
M  V30 27290 H 2548.41 -3.04308 1.76322 0
M  V30 27291 H 2548.28 -3.76816 0.170246 0
M  V30 27292 H 2550.67 -2.92912 -0.358692 0
M  V30 27293 H 2550.75 -2.22476 1.26246 0
M  V30 27294 H 2550.4 -4.54619 2.26459 0
M  V30 27295 H 2550.33 -5.22929 0.620729 0
M  V30 27296 H 2552.82 -3.68362 0.84367 0
M  V30 27297 H 2553.13 -7.36866 2.32914 0
M  V30 27298 H 2551.47 -6.62892 2.08803 0
M  V30 27299 H 2554.67 -4.54331 1.127 0
M  V30 27300 H 2554.84 -6.22378 1.80417 0
M  V30 27301 N 2548.24 -0.224922 -1.55987 0
M  V30 27302 C 2549.47 0.413654 -2.03233 0
M  V30 27303 C 2549.89 1.52322 -1.10362 0
M  V30 27304 O 2549.25 1.81064 -0.0924268 0
M  V30 27305 C 2549.3 0.919343 -3.48684 0
M  V30 27306 O 2548.4 2.03047 -3.58951 0
M  V30 27307 H 2547.75 0.0931788 -0.65743 0
M  V30 27308 H 2550.28 -0.344545 -2.01678 0
M  V30 27309 H 2550.29 1.22829 -3.89072 0
M  V30 27310 H 2548.96 0.107266 -4.15762 0
M  V30 27311 H 2547.54 1.72791 -3.30451 0
M  V30 27312 N 2549.72 1.57526 0.0484352 0
M  V30 27313 C 2550.65 2.02043 1.08219 0
M  V30 27314 C 2551.67 0.930036 1.3362 0
M  V30 27315 O 2552.86 1.20763 1.31448 0
M  V30 27316 C 2549.96 2.36421 2.42814 0
M  V30 27317 C 2549.13 3.676 2.37042 0
M  V30 27318 C 2548.19 3.89384 3.5393 0
M  V30 27319 O 2547.21 4.60687 3.343 0
M  V30 27320 N 2548.42 3.33528 4.7512 0
M  V30 27321 H 2551.18 2.91341 0.702895 0
M  V30 27322 H 2548.74 1.6016 0.236717 0
M  V30 27323 H 2550.73 2.48147 3.19695 0
M  V30 27324 H 2549.3 1.52893 2.72658 0
M  V30 27325 H 2548.52 3.66409 1.45388 0
M  V30 27326 H 2549.81 4.5369 2.3031 0
M  V30 27327 H 2549.21 2.75697 4.93971 0
M  V30 27328 H 2547.77 3.50666 5.49433 0
M  V30 27329 N 2551.2 -0.32033 1.5431 0
M  V30 27330 C 2552.15 -1.41447 1.8465 0
M  V30 27331 C 2553.14 -1.53401 0.718651 0
M  V30 27332 O 2554.35 -1.55748 0.902362 0
M  V30 27333 H 2550.72 -0.472081 0.585358 0
M  V30 27334 H 2552.69 -1.13084 2.76142 0
M  V30 27335 C 2551.44 -2.77614 2.09346 0
M  V30 27336 H 2550.77 -2.69191 2.95595 0
M  V30 27337 H 2552.21 -3.53233 2.34526 0
M  V30 27338 C 2550.67 -3.25041 0.885996 0
M  V30 27339 O 2551.2 -4.01583 0.0968597 0
M  V30 27340 N 2549.4 -2.82124 0.696732 0
M  V30 27341 H 2548.95 -2.19998 1.3401 0
M  V30 27342 H 2548.91 -3.14209 -0.109657 0
M  V30 27343 N 2552.68 -1.46438 -0.582558 0
M  V30 27344 C 2554.09 -1.45918 -1.16468 0
M  V30 27345 C 2554.44 -0.200111 -1.95177 0
M  V30 27346 O 2553.57 0.696783 -2.04875 0
M  V30 27347 C 2554.16 -2.64371 -2.11881 0
M  V30 27348 C 2552.72 -2.66892 -2.65416 0
M  V30 27349 C 2551.87 -2.38605 -1.4129 0
M  V30 27350 H 2554.82 -1.54315 -0.370487 0
M  V30 27351 H 2554.84 -2.39898 -2.95346 0
M  V30 27352 H 2554.35 -3.55993 -1.54567 0
M  V30 27353 H 2552.45 -1.79343 -3.26599 0
M  V30 27354 H 2552.56 -3.6686 -3.08141 0
M  V30 27355 H 2550.93 -1.88666 -1.71105 0
M  V30 27356 H 2551.71 -3.32404 -0.858067 0
M  V30 27357 N 2554.16 0.827204 -1.34146 0
M  V30 27358 C 2555.09 1.95285 -1.28008 0
M  V30 27359 C 2556.07 1.69361 -0.15835 0
M  V30 27360 O 2557.25 1.9102 -0.35002 0
M  V30 27361 C 2554.38 3.31662 -1.03041 0
M  V30 27362 C 2553.34 3.72015 -2.11634 0
M  V30 27363 C 2552.66 5.06327 -1.71863 0
M  V30 27364 C 2553.96 3.84563 -3.53424 0
M  V30 27365 H 2555.66 2.00678 -2.22191 0
M  V30 27366 H 2553.2 0.964116 -1.06962 0
M  V30 27367 H 2555.16 4.09991 -0.973935 0
M  V30 27368 H 2553.88 3.26557 -0.0529965 0
M  V30 27369 H 2552.54 2.95958 -2.16344 0
M  V30 27370 H 2552.19 4.97705 -0.727929 0
M  V30 27371 H 2551.89 5.34297 -2.44541 0
M  V30 27372 H 2553.41 5.87119 -1.67702 0
M  V30 27373 H 2554.82 4.53174 -3.5115 0
M  V30 27374 H 2553.22 4.23983 -4.24687 0
M  V30 27375 H 2554.29 2.86682 -3.91077 0
M  V30 27376 N 2555.63 1.17805 1.04688 0
M  V30 27377 C 2556.58 0.899381 2.12555 0
M  V30 27378 C 2557.55 -0.158742 1.6534 0
M  V30 27379 O 2558.74 -0.0204462 1.90789 0
M  V30 27380 C 2555.88 0.424375 3.42481 0
M  V30 27381 C 2554.99 1.5472 4.03343 0
M  V30 27382 C 2554.12 1.02556 5.21206 0
M  V30 27383 C 2553.16 2.12349 5.74086 0
M  V30 27384 N 2552.3 1.61624 6.83244 0
M  V30 27385 H 2557.14 1.82305 2.35731 0
M  V30 27386 H 2554.68 0.909179 1.15639 0
M  V30 27387 H 2556.64 0.130495 4.16996 0
M  V30 27388 H 2555.27 -0.462321 3.19472 0
M  V30 27389 H 2554.32 1.9567 3.26217 0
M  V30 27390 H 2555.63 2.37509 4.38624 0
M  V30 27391 H 2554.78 0.685824 6.02811 0
M  V30 27392 H 2553.52 0.167169 4.87413 0
M  V30 27393 H 2552.53 2.47174 4.91106 0
M  V30 27394 H 2553.75 2.98612 6.09924 0
M  V30 27395 H 2551.7 0.780647 6.51339 0
M  V30 27396 H 2551.62 2.38016 7.17554 0
M  V30 27397 H 2552.88 1.30559 7.68489 0
M  V30 27398 N 2557.11 -1.23497 0.979094 0
M  V30 27399 C 2558.36 -1.91184 0.642784 0
M  V30 27400 C 2558.67 -1.77247 -0.827222 0
M  V30 27401 O 2559.88 -2.39724 -1.27454 0
M  V30 27402 C 2558.34 -3.42707 1.09907 0
M  V30 27403 C 2557.94 -3.65309 2.59333 0
M  V30 27404 C 2559.69 -4.16178 0.836444 0
M  V30 27405 C 2557.6 -5.10461 2.98636 0
M  V30 27406 H 2556.53 -0.71588 0.236711 0
M  V30 27407 H 2559.18 -1.39953 1.18682 0
M  V30 27408 H 2557.56 -3.9304 0.483259 0
M  V30 27409 H 2558.73 -3.25528 3.26142 0
M  V30 27410 H 2557.05 -3.05146 2.83328 0
M  V30 27411 H 2559.64 -5.23137 1.10595 0
M  V30 27412 H 2559.99 -4.15678 -0.227436 0
M  V30 27413 H 2560.52 -3.7183 1.41377 0
M  V30 27414 H 2557.26 -5.16091 4.04142 0
M  V30 27415 H 2556.78 -5.51197 2.3652 0
M  V30 27416 H 2558.46 -5.78783 2.89169 0
M  V30 27417 N 2558.59 -0.750586 -1.38578 0
M  V30 27418 C 2560.01 -0.427851 -1.53758 0
M  V30 27419 C 2560.21 1.0594 -1.71403 0
M  V30 27420 O 2559.26 1.84546 -1.72334 0
M  V30 27421 C 2560.58 -1.22448 -2.7464 0
M  V30 27422 C 2562.12 -1.21425 -2.88487 0
M  V30 27423 C 2562.6 -1.99378 -4.12326 0
M  V30 27424 N 2564.09 -1.96623 -4.19397 0
M  V30 27425 C 2564.83 -2.53736 -5.14204 0
M  V30 27426 N 2564.32 -3.1955 -6.14703 0
M  V30 27427 N 2566.11 -2.43682 -5.06533 0
M  V30 27428 H 2558.27 -1.7145 -1.25374 0
M  V30 27429 H 2560.53 -0.726656 -0.608831 0
M  V30 27430 H 2560.23 -2.27752 -2.67996 0
M  V30 27431 H 2560.11 -0.839338 -3.67743 0
M  V30 27432 H 2562.5 -0.169284 -2.94614 0
M  V30 27433 H 2562.58 -1.63888 -1.96403 0
M  V30 27434 H 2562.22 -3.03884 -4.0696 0
M  V30 27435 H 2562.15 -1.54311 -5.03484 0
M  V30 27436 H 2564.64 -1.4869 -3.47419 0
M  V30 27437 H 2564.95 -3.60557 -6.83534 0
M  V30 27438 H 2563.3 -3.23644 -6.15045 0
M  V30 27439 H 2566.49 -1.91896 -4.26958 0
M  V30 27440 H 2566.66 -2.88489 -5.8024 0
M  V30 27441 N 2560.07 1.49477 -0.499425 0
M  V30 27442 C 2561 2.31943 0.269203 0
M  V30 27443 C 2561.98 1.40144 0.96403 0
M  V30 27444 O 2563.17 1.69054 0.955737 0
M  V30 27445 C 2560.3 3.20617 1.33499 0
M  V30 27446 C 2559.25 4.21196 0.760128 0
M  V30 27447 C 2558.58 4.98796 1.92631 0
M  V30 27448 C 2559.88 5.21712 -0.247753 0
M  V30 27449 H 2561.57 2.96452 -0.419134 0
M  V30 27450 H 2559.12 1.42562 -0.203013 0
M  V30 27451 H 2561.07 3.77119 1.88041 0
M  V30 27452 H 2559.79 2.54048 2.05249 0
M  V30 27453 H 2558.45 3.65837 0.236466 0
M  V30 27454 H 2558.1 4.28676 2.63146 0
M  V30 27455 H 2557.8 5.6685 1.54775 0
M  V30 27456 H 2559.32 5.58141 2.4761 0
M  V30 27457 H 2560.74 5.72917 0.209479 0
M  V30 27458 H 2559.13 5.97647 -0.542067 0
M  V30 27459 H 2560.2 4.70718 -1.16417 0
M  V30 27460 N 2561.55 0.233191 1.55865 0
M  V30 27461 C 2562.78 -0.39987 2.02999 0
M  V30 27462 C 2563.19 -1.52522 1.11277 0
M  V30 27463 O 2562.55 -1.82074 0.12456 0
M  V30 27464 C 2562.6 -0.920578 3.49582 0
M  V30 27465 O 2562.32 0.159911 4.37808 0
M  V30 27466 C 2563.82 -1.62571 4.12414 0
M  V30 27467 H 2561.04 -0.0966164 0.664008 0
M  V30 27468 H 2563.58 0.353048 2.01429 0
M  V30 27469 H 2561.74 -1.62372 3.5173 0
M  V30 27470 H 2562.15 -0.233278 5.23981 0
M  V30 27471 H 2563.63 -1.94192 5.16714 0
M  V30 27472 H 2564.1 -2.54293 3.58095 0
M  V30 27473 H 2564.71 -0.96748 4.1415 0
M  V30 27474 N 2563.03 -1.57549 -0.0400806 0
M  V30 27475 C 2564.44 -1.54621 -0.395529 0
M  V30 27476 C 2564.64 -0.95783 -1.77279 0
M  V30 27477 O 2563.7 -0.574074 -2.45887 0
M  V30 27478 C 2565.01 -2.99124 -0.307482 0
M  V30 27479 C 2566.56 -3.10619 -0.38537 0
M  V30 27480 C 2567.03 -4.56832 -0.326892 0
M  V30 27481 N 2568.52 -4.61589 -0.386021 0
M  V30 27482 C 2569.26 -5.72247 -0.36349 0
M  V30 27483 N 2568.76 -6.92176 -0.293899 0
M  V30 27484 N 2570.55 -5.60585 -0.412405 0
M  V30 27485 H 2562.7 -1.9415 0.861359 0
M  V30 27486 H 2564.96 -0.890015 0.326461 0
M  V30 27487 H 2564.67 -3.45855 0.638522 0
M  V30 27488 H 2564.54 -3.60638 -1.10545 0
M  V30 27489 H 2566.93 -2.63842 -1.3218 0
M  V30 27490 H 2567.01 -2.51957 0.441755 0
M  V30 27491 H 2566.65 -5.04274 0.605827 0
M  V30 27492 H 2566.58 -5.13393 -1.17198 0
M  V30 27493 H 2569.08 -3.75297 -0.442766 0
M  V30 27494 H 2569.39 -7.72287 -0.281504 0
M  V30 27495 H 2567.73 -6.94513 -0.26011 0
M  V30 27496 H 2570.92 -4.65788 -0.464687 0
M  V30 27497 H 2571.1 -6.46817 -0.391378 0
M  V30 27498 N 2564.5 0.312142 -1.54478 0
M  V30 27499 C 2565.41 1.40737 -1.87697 0
M  V30 27500 C 2566.43 1.56035 -0.770002 0
M  V30 27501 O 2567.61 1.70913 -1.0654 0
M  V30 27502 C 2564.67 2.75283 -2.1076 0
M  V30 27503 C 2563.73 2.69065 -3.34519 0
M  V30 27504 C 2562.96 3.97194 -3.56472 0
M  V30 27505 O 2563.19 4.96016 -2.81646 0
M  V30 27506 O 2562.12 3.99762 -4.49971 0
M  V30 27507 H 2565.95 1.15569 -2.80851 0
M  V30 27508 H 2563.53 0.507203 -1.40527 0
M  V30 27509 H 2565.41 3.54909 -2.27194 0
M  V30 27510 H 2564.09 3.00318 -1.20793 0
M  V30 27511 H 2563 1.8795 -3.23459 0
M  V30 27512 H 2564.33 2.48984 -4.24579 0
M  V30 27513 N 2565.98 1.46745 0.574784 0
M  V30 27514 C 2566.94 1.57481 1.66531 0
M  V30 27515 C 2567.94 0.45129 1.54337 0
M  V30 27516 O 2569.13 0.715841 1.58812 0
M  V30 27517 C 2566.27 1.50264 3.05996 0
M  V30 27518 H 2567.46 2.54676 1.58367 0
M  V30 27519 H 2565.01 1.34673 0.793278 0
M  V30 27520 H 2565.75 0.543781 3.19708 0
M  V30 27521 H 2565.53 2.31787 3.16255 0
M  V30 27522 H 2567.02 1.60879 3.85367 0
M  V30 27523 N 2567.46 -0.820078 1.34583 0
M  V30 27524 C 2568.87 -1.39307 1.243 0
M  V30 27525 C 2569.22 -1.95767 -0.130317 0
M  V30 27526 O 2568.35 -1.90274 -1.03077 0
M  V30 27527 C 2568.94 -2.53247 2.25058 0
M  V30 27528 C 2567.5 -3.06446 2.18558 0
M  V30 27529 C 2566.65 -1.79333 2.11506 0
M  V30 27530 H 2569.6 -0.624236 1.45907 0
M  V30 27531 H 2569.62 -3.31421 1.86923 0
M  V30 27532 H 2569.13 -2.12125 3.25 0
M  V30 27533 H 2567.23 -3.52067 1.21982 0
M  V30 27534 H 2567.35 -3.65344 3.09937 0
M  V30 27535 H 2565.71 -2.00344 1.57271 0
M  V30 27536 H 2566.49 -1.40381 3.13286 0
M  V30 27537 O 2568.98 -1.29974 -0.958592 0
M  V30 27538 H 2569.67 -1.11175 -1.58618 0
M  V30 END ATOM
M  V30 BEGIN BOND
M  V30 END BOND
M  V30 END CTAB
M  END
$$$$
