drugbank_target|P03422 Phosphoprotein (DB03309)
 OpenBabel12092120273D

  0  0  0     0  0            999 V3000
M  V30 BEGIN CTAB
M  V30 COUNTS 7554 7609 0 0 0
M  V30 BEGIN ATOM
M  V30 1 H -0.908 1.98254 -0.117106 0
M  V30 2 N 0 1.576 0 0
M  V30 3 C 0.933 2.03868 1.02534 0
M  V30 4 C 1.911 0.928543 1.3348 0
M  V30 5 O 3.095 1.19667 1.45644 0
M  V30 6 C 0.222 2.43627 2.35294 0
M  V30 7 C -0.732 3.65373 2.2001 0
M  V30 8 S 0.101 5.13292 1.52614 0
M  V30 9 C 1.257 5.56322 2.86805 0
M  V30 10 H 1.49 2.90518 0.631377 0
M  V30 11 H -0.977 1.52953 0.210867 0
M  V30 12 H 0.981 2.67203 3.11629 0
M  V30 13 H -0.358 1.57376 2.7183 0
M  V30 14 H -1.165 3.90944 3.18086 0
M  V30 15 H -1.563 3.418 1.51819 0
M  V30 16 H 0.729 5.58782 3.83104 0
M  V30 17 H 1.672 6.56266 2.65933 0
M  V30 18 H 2.08 4.83886 2.90714 0
M  V30 19 N 1.4781 -0.272755 1.55222 0
M  V30 20 C 2.4411 -1.32041 1.87344 0
M  V30 21 C 3.4411 -1.42342 0.74803 0
M  V30 22 O 4.6311 -1.41488 1.0162 0
M  V30 23 C 1.7631 -2.70173 2.07893 0
M  V30 24 H 2.9561 -1.04789 2.80997 0
M  V30 25 H 0.5091 -0.51083 1.47717 0
M  V30 26 H 1.2441 -3.02605 1.16622 0
M  V30 27 H 1.0291 -2.64082 2.89833 0
M  V30 28 H 2.5191 -3.45869 2.34017 0
M  V30 29 N 2.9562 -1.48159 -0.537278 0
M  V30 30 C 3.8662 -1.64807 -1.6696 0
M  V30 31 C 4.8822 -0.530651 -1.65711 0
M  V30 32 O 6.0582 -0.800784 -1.84796 0
M  V30 33 C 3.1232 -1.67708 -3.03438 0
M  V30 34 C 2.1842 -2.91025 -3.156 0
M  V30 35 C 1.4172 -2.93778 -4.45567 0
M  V30 36 O 1.6402 -2.05153 -5.3223 0
M  V30 37 O 0.5742 -3.85868 -4.61941 0
M  V30 38 H 4.4002 -2.6066 -1.55853 0
M  V30 39 H 1.9852 -1.31475 -0.709549 0
M  V30 40 H 3.8672 -1.7218 -3.84619 0
M  V30 41 H 2.5422 -0.750278 -3.14885 0
M  V30 42 H 1.4492 -2.92089 -2.33741 0
M  V30 43 H 2.7822 -3.83065 -3.09066 0
M  V30 44 N 4.4343 0.785586 -1.36625 0
M  V30 45 C 5.3443 1.92964 -1.33425 0
M  V30 46 C 6.3603 1.72394 -0.235851 0
M  V30 47 O 7.5363 1.95866 -0.468878 0
M  V30 48 C 4.6013 3.27884 -1.12662 0
M  V30 49 C 3.6623 3.61204 -2.32013 0
M  V30 50 C 2.8953 4.89687 -2.12231 0
M  V30 51 O 3.1183 5.59704 -1.09945 0
M  V30 52 O 2.0523 5.21752 -3.00098 0
M  V30 53 H 5.8783 1.98613 -2.29753 0
M  V30 54 H 3.4633 0.926384 -1.17211 0
M  V30 55 H 5.3453 4.08614 -1.03016 0
M  V30 56 H 4.0203 3.23118 -0.193991 0
M  V30 57 H 2.9273 2.80765 -2.47228 0
M  V30 58 H 4.2603 3.70698 -3.23796 0
M  V30 59 N 5.9124 1.20967 1.01018 0
M  V30 60 C 6.8444 0.922059 2.09835 0
M  V30 61 C 7.8574 -0.0927106 1.62536 0
M  V30 62 O 9.0464 0.139127 1.77957 0
M  V30 63 C 6.1464 0.362004 3.36961 0
M  V30 64 C 5.3194 1.42986 4.13369 0
M  V30 65 C 4.3784 0.879976 5.1879 0
M  V30 66 O 3.4044 1.56219 5.47343 0
M  V30 67 N 4.6064 -0.307396 5.79686 0
M  V30 68 H 7.3714 1.8588 2.35093 0
M  V30 69 H 4.9324 1.11422 1.1746 0
M  V30 70 H 6.9244 -0.0201474 4.04695 0
M  V30 71 H 5.4944 -0.479437 3.08902 0
M  V30 72 H 4.7144 1.98608 3.40512 0
M  V30 73 H 6.0024 2.14885 4.61196 0
M  V30 74 H 5.4004 -0.878796 5.58832 0
M  V30 75 H 3.9574 -0.631115 6.48737 0
M  V30 76 N 7.3905 -1.2043 1.01659 0
M  V30 77 C 8.3535 -2.21433 0.591616 0
M  V30 78 C 9.3535 -1.57203 -0.338226 0
M  V30 79 O 10.5435 -1.73737 -0.126918 0
M  V30 80 C 7.6755 -3.40628 -0.136058 0
M  V30 81 H 8.8685 -2.60545 1.48514 0
M  V30 82 H 6.4215 -1.33893 0.806379 0
M  V30 83 H 7.1565 -3.07019 -1.04449 0
M  V30 84 H 6.9415 -3.88475 0.531917 0
M  V30 85 H 8.4315 -4.15475 -0.420735 0
M  V30 86 N 8.8686 -0.792821 -1.36206 0
M  V30 87 C 10.2846 -0.474903 -1.52371 0
M  V30 88 C 10.4846 1.00622 -1.74578 0
M  V30 89 O 9.5406 1.79162 -1.77924 0
M  V30 90 C 10.8536 -1.3083 -2.70747 0
M  V30 91 C 12.4016 -1.30234 -2.84619 0
M  V30 92 C 12.8766 -2.11956 -4.06004 0
M  V30 93 N 14.3676 -2.09419 -4.13156 0
M  V30 94 C 15.1026 -2.69419 -5.06163 0
M  V30 95 N 14.5986 -3.3829 -6.04592 0
M  V30 96 N 16.3916 -2.59134 -4.98804 0
M  V30 97 H 8.5426 -1.75222 -1.20046 0
M  V30 98 H 10.8056 -0.745024 -0.586211 0
M  V30 99 H 10.5116 -2.35881 -2.6087 0
M  V30 100 H 10.3856 -0.95196 -3.6499 0
M  V30 101 H 12.7726 -0.259748 -2.93955 0
M  V30 102 H 12.8536 -1.69847 -1.91274 0
M  V30 103 H 12.4976 -3.16248 -3.97429 0
M  V30 104 H 12.4276 -1.69711 -4.98503 0
M  V30 105 H 14.9186 -1.59297 -3.42685 0
M  V30 106 H 15.2316 -3.81394 -6.7213 0
M  V30 107 H 13.5766 -3.42393 -6.04807 0
M  V30 108 H 16.7676 -2.04927 -4.20859 0
M  V30 109 H 16.9406 -3.06185 -5.711 0
M  V30 110 N 10.3467 1.47872 -0.545128 0
M  V30 111 C 11.2967 2.26842 0.229456 0
M  V30 112 C 12.2807 1.33626 0.896267 0
M  V30 113 O 13.4727 1.58063 0.79657 0
M  V30 114 C 10.6017 3.19089 1.26638 0
M  V30 115 C 9.6877 4.19783 0.603598 0
M  V30 116 N 10.0787 5.0479 -0.319405 0
M  V30 117 C 8.3767 4.3765 0.858989 0
M  V30 118 C 9.0777 5.77433 -0.703241 0
M  V30 119 N 8.0537 5.43566 -0.0608309 0
M  V30 120 H 11.8557 2.89947 -0.480391 0
M  V30 121 H 9.3697 1.58263 -0.364209 0
M  V30 122 H 11.3667 3.74337 1.83515 0
M  V30 123 H 10.0267 2.5754 1.97745 0
M  V30 124 H 11.0377 5.13244 -0.692889 0
M  V30 125 H 7.7147 3.87281 1.55948 0
M  V30 126 H 9.1047 6.55824 -1.46098 0
M  V30 127 N 11.8248 0.280983 1.55075 0
M  V30 128 C 13.0708 -0.33461 2.00021 0
M  V30 129 C 13.4038 -1.55063 1.16915 0
M  V30 130 O 12.6788 -1.93006 0.240646 0
M  V30 131 C 12.9618 -0.711007 3.53011 0
M  V30 132 C 12.8148 0.512766 4.46868 0
M  V30 133 C 14.1338 -1.54522 4.12081 0
M  V30 134 H 11.2528 -0.120147 0.727141 0
M  V30 135 H 13.8948 0.389097 1.85973 0
M  V30 136 H 12.0448 -1.32761 3.65112 0
M  V30 137 H 13.7168 1.15131 4.46702 0
M  V30 138 H 11.9598 1.14975 4.18286 0
M  V30 139 H 12.6308 0.205556 5.51617 0
M  V30 140 H 15.1068 -1.02442 4.03293 0
M  V30 141 H 13.9828 -1.77739 5.19327 0
M  V30 142 H 14.2438 -2.52813 3.62682 0
M  V30 143 N 13.3029 -1.57598 0.00835791 0
M  V30 144 C 14.2499 -2.08945 -0.980346 0
M  V30 145 C 15.2199 -0.986738 -1.33614 0
M  V30 146 O 16.4049 -1.25968 -1.43306 0
M  V30 147 C 13.5449 -2.60425 -2.26435 0
M  V30 148 C 12.6579 -3.84628 -1.96685 0
M  V30 149 C 11.7929 -4.24579 -3.19228 0
M  V30 150 C 10.8319 -5.41596 -2.85202 0
M  V30 151 N 9.9689 -5.768 -4.00307 0
M  V30 152 H 14.8089 -2.93148 -0.535551 0
M  V30 153 H 12.3459 -1.44912 -0.252776 0
M  V30 154 H 14.3039 -2.88354 -3.01509 0
M  V30 155 H 12.9339 -1.79083 -2.68568 0
M  V30 156 H 11.9859 -3.63556 -1.11942 0
M  V30 157 H 13.2979 -4.69796 -1.67611 0
M  V30 158 H 12.4519 -4.53834 -4.02641 0
M  V30 159 H 11.1909 -3.38137 -3.51447 0
M  V30 160 H 10.1959 -5.12056 -2.00198 0
M  V30 161 H 11.4209 -6.29721 -2.54222 0
M  V30 162 H 9.3669 -4.93316 -4.32407 0
M  V30 163 H 9.2839 -6.5656 -3.74786 0
M  V30 164 H 10.5519 -6.10652 -4.84484 0
M  V30 165 N 14.781 0.264519 -1.55364 0
M  V30 166 C 15.729 1.34702 -1.89626 0
M  V30 167 C 16.723 1.50712 -0.773459 0
M  V30 168 O 17.929 1.52395 -0.957897 0
M  V30 169 H 14.304 0.450682 -0.601988 0
M  V30 170 H 16.275 1.0306 -2.80038 0
M  V30 171 C 15.024 2.6989 -2.19214 0
M  V30 172 H 14.347 2.58365 -3.05103 0
M  V30 173 H 15.787 3.44553 -2.47102 0
M  V30 174 C 14.246 3.21637 -1.00254 0
M  V30 175 O 14.776 4.00973 -0.241501 0
M  V30 176 N 12.982 2.7943 -0.797938 0
M  V30 177 H 12.529 2.15026 -1.4185 0
M  V30 178 H 12.487 3.144 -0.00363422 0
M  V30 179 N 16.2591 1.48442 0.529413 0
M  V30 180 C 17.5071 1.56179 1.28267 0
M  V30 181 C 17.8281 0.237721 1.93546 0
M  V30 182 O 17.0981 -0.740779 1.81354 0
M  V30 183 H 15.6781 0.575367 0.476405 0
M  V30 184 H 18.3401 1.84909 0.61602 0
M  V30 185 H 17.4361 2.34312 2.06165 0
M  V30 186 N 17.7372 -0.778329 1.37039 0
M  V30 187 C 18.6672 -1.90546 1.34962 0
M  V30 188 C 19.6482 -1.68681 0.219274 0
M  V30 189 O 20.8332 -1.89634 0.418624 0
M  V30 190 C 17.9632 -3.27734 1.14925 0
M  V30 191 C 16.9172 -3.64147 2.24902 0
M  V30 192 C 16.2432 -4.99806 1.89996 0
M  V30 193 C 17.5432 -3.71579 3.67051 0
M  V30 194 H 19.2372 -1.92541 2.29277 0
M  V30 195 H 16.7832 -0.924948 1.10366 0
M  V30 196 H 18.7362 -4.06215 1.12104 0
M  V30 197 H 17.4602 -3.26154 0.170631 0
M  V30 198 H 16.1192 -2.8797 2.26868 0
M  V30 199 H 15.7672 -4.94759 0.906796 0
M  V30 200 H 15.4672 -5.25139 2.63634 0
M  V30 201 H 16.9912 -5.80694 1.88749 0
M  V30 202 H 18.4052 -4.40227 3.67251 0
M  V30 203 H 16.8022 -4.08405 4.39688 0
M  V30 204 H 17.8722 -2.72404 4.01154 0
M  V30 205 N 19.2153 -1.21501 -1.00376 0
M  V30 206 C 20.1253 -0.991447 -2.12621 0
M  V30 207 C 21.1413 0.0568446 -1.73907 0
M  V30 208 O 22.3173 -0.13348 -2.00957 0
M  V30 209 C 19.3823 -0.560312 -3.42142 0
M  V30 210 C 18.4433 -1.68096 -3.95022 0
M  V30 211 C 17.6763 -1.2703 -5.18362 0
M  V30 212 O 17.8993 -0.144438 -5.70217 0
M  V30 213 O 16.8333 -2.08269 -5.64719 0
M  V30 214 H 20.6593 -1.93158 -2.34358 0
M  V30 215 H 18.2443 -0.999999 -1.10997 0
M  V30 216 H 20.1263 -0.329724 -4.20108 0
M  V30 217 H 18.8013 0.351089 -3.2179 0
M  V30 218 H 17.7083 -1.96597 -3.18278 0
M  V30 219 H 19.0413 -2.56983 -4.19786 0
M  V30 220 N 20.6934 1.19889 -1.02296 0
M  V30 221 C 21.9334 1.91125 -0.724602 0
M  V30 222 C 22.2974 1.77464 0.732835 0
M  V30 223 O 23.4984 2.43241 1.144 0
M  V30 224 C 21.7694 3.38187 -1.15604 0
M  V30 225 S 23.3284 4.27702 -0.980621 0
M  V30 226 H 20.1464 0.66018 -0.263976 0
M  V30 227 H 22.7484 1.44978 -1.31155 0
M  V30 228 H 21.4524 3.45653 -2.21251 0
M  V30 229 H 20.9834 3.89363 -0.562131 0
M  V30 230 H 22.9984 4.96073 0.112225 0
M  V30 231 N 22.1715 0.800033 1.35784 0
M  V30 232 C 23.4205 0.37387 1.98205 0
M  V30 233 C 23.7335 -1.06302 1.64193 0
M  V30 234 O 24.9395 -1.59198 2.19928 0
M  V30 235 C 23.3955 0.617532 3.54562 0
M  V30 236 C 23.0035 2.06654 3.9749 0
M  V30 237 C 24.7475 0.256401 4.23725 0
M  V30 238 C 22.6545 2.2563 5.46667 0
M  V30 239 H 21.5845 0.136055 0.741623 0
M  V30 240 H 24.2355 0.983166 1.54939 0
M  V30 241 H 22.6175 -0.0616248 3.95952 0
M  V30 242 H 23.7915 2.78296 3.67271 0
M  V30 243 H 22.1065 2.38691 3.41197 0
M  V30 244 H 24.7035 0.376318 5.33374 0
M  V30 245 H 25.0465 -0.796692 4.08606 0
M  V30 246 H 25.5795 0.889214 3.87734 0
M  V30 247 H 22.3185 3.2936 5.66747 0
M  V30 248 H 21.8385 1.58504 5.78478 0
M  V30 249 H 23.5175 2.06861 6.1304 0
M  V30 250 N 23.6496 -1.47581 0.552962 0
M  V30 251 C 25.0656 -1.5818 0.212424 0
M  V30 252 C 25.2656 -1.55213 -1.28496 0
M  V30 253 O 24.3216 -1.45329 -2.06484 0
M  V30 254 C 25.6346 -2.88865 0.835318 0
M  V30 255 C 27.1826 -3.0244 0.806156 0
M  V30 256 C 27.6576 -4.35819 1.40804 0
M  V30 257 N 29.1486 -4.42444 1.37103 0
M  V30 258 C 29.8836 -5.44202 1.80641 0
M  V30 259 N 29.3796 -6.52795 2.32015 0
M  V30 260 N 31.1726 -5.35222 1.71738 0
M  V30 261 H 23.3236 -1.47753 1.52587 0
M  V30 262 H 25.5866 -0.702941 0.636064 0
M  V30 263 H 25.2926 -2.9676 1.88749 0
M  V30 264 H 25.1666 -3.7579 0.325848 0
M  V30 265 H 27.5536 -2.94144 -0.237317 0
M  V30 266 H 27.6346 -2.17068 1.35334 0
M  V30 267 H 27.2786 -4.44871 2.45056 0
M  V30 268 H 27.2086 -5.19916 0.836338 0
M  V30 269 H 29.6996 -3.6456 0.995202 0
M  V30 270 H 30.0126 -7.26609 2.63171 0
M  V30 271 H 28.3576 -6.53696 2.36023 0
M  V30 272 H 31.5486 -4.49284 1.31382 0
M  V30 273 H 31.7216 -6.14389 2.05987 0
M  V30 274 N 25.1277 -0.289203 -1.54924 0
M  V30 275 C 26.0907 0.579144 -2.21762 0
M  V30 276 C 27.0907 1.07047 -1.1999 0
M  V30 277 O 28.2807 0.968384 -1.44803 0
M  V30 278 C 25.4127 1.80055 -2.8947 0
M  V30 279 H 26.6057 -0.00464908 -2.999 0
M  V30 280 H 24.1587 -0.0399306 -1.56249 0
M  V30 281 H 24.8937 2.42449 -2.15381 0
M  V30 282 H 24.6787 1.45602 -3.64064 0
M  V30 283 H 26.1687 2.41773 -3.40493 0
M  V30 284 N 26.6058 1.57591 -0.0167156 0
M  V30 285 C 27.5358 2.12496 0.967858 0
M  V30 286 C 28.5168 1.03807 1.34752 0
M  V30 287 O 29.7018 1.31577 1.42833 0
M  V30 288 C 26.8318 2.64194 2.25431 0
M  V30 289 C 25.7858 3.77559 2.01576 0
M  V30 290 C 25.1118 4.15636 3.36379 0
M  V30 291 C 26.4118 5.04151 1.36489 0
M  V30 292 H 28.1058 2.95013 0.510643 0
M  V30 293 H 25.6518 1.41915 0.244181 0
M  V30 294 H 27.6048 3.01236 2.94678 0
M  V30 295 H 26.3288 1.78821 2.73296 0
M  V30 296 H 24.9878 3.40937 1.34751 0
M  V30 297 H 24.6358 3.27263 3.81979 0
M  V30 298 H 24.3358 4.92022 3.21229 0
M  V30 299 H 25.8598 4.5525 4.06915 0
M  V30 300 H 27.2738 5.38857 1.95718 0
M  V30 301 H 25.6708 5.85453 1.31776 0
M  V30 302 H 26.7408 4.83733 0.336219 0
M  V30 303 N 28.0839 -0.256276 1.55502 0
M  V30 304 C 29.0309 -1.31714 1.89526 0
M  V30 305 C 30.0009 -1.4828 0.748479 0
M  V30 306 O 31.1859 -1.62416 1.00128 0
M  V30 307 C 28.3259 -2.66933 2.18725 0
M  V30 308 C 27.4389 -2.58452 3.4616 0
M  V30 309 C 26.5739 -3.85961 3.64976 0
M  V30 310 C 25.6129 -3.72059 4.86044 0
M  V30 311 N 24.7499 -4.9144 5.01429 0
M  V30 312 H 29.5899 -1.01998 2.80001 0
M  V30 313 H 27.1269 -0.492413 1.38613 0
M  V30 314 H 29.0849 -3.4563 2.33657 0
M  V30 315 H 27.7149 -2.94816 1.31466 0
M  V30 316 H 26.7669 -1.71374 3.3961 0
M  V30 317 H 28.0789 -2.44085 4.34999 0
M  V30 318 H 27.2329 -4.73101 3.79816 0
M  V30 319 H 25.9719 -4.03215 2.74353 0
M  V30 320 H 24.9769 -2.83302 4.7119 0
M  V30 321 H 26.2019 -3.56309 5.78118 0
M  V30 322 H 24.1479 -5.09072 4.13741 0
M  V30 323 H 24.0649 -4.79668 5.84341 0
M  V30 324 H 25.3329 -5.80104 5.20672 0
M  V30 325 N 29.562 -1.4872 -0.521534 0
M  V30 326 C 30.525 -1.63379 -1.60748 0
M  V30 327 C 31.525 -0.50661 -1.52611 0
M  V30 328 O 32.715 -0.772601 -1.5613 0
M  V30 329 C 29.847 -1.61192 -3.00383 0
M  V30 330 H 31.04 -2.60217 -1.49087 0
M  V30 331 H 28.593 -1.37444 -0.744235 0
M  V30 332 H 29.328 -0.65863 -3.17541 0
M  V30 333 H 29.113 -2.43032 -3.07698 0
M  V30 334 H 30.603 -1.7466 -3.7932 0
M  V30 335 N 31.0401 0.771051 -1.3745 0
M  V30 336 C 31.9501 1.91538 -1.35464 0
M  V30 337 C 32.9661 1.72134 -0.254123 0
M  V30 338 O 34.1421 1.95358 -0.489626 0
M  V30 339 C 31.2071 3.26671 -1.16134 0
M  V30 340 C 30.2681 3.58723 -2.35831 0
M  V30 341 C 29.5011 4.87409 -2.17413 0
M  V30 342 O 29.7241 5.58506 -1.15876 0
M  V30 343 O 28.6581 5.18539 -3.05615 0
M  V30 344 H 32.4841 1.96165 -2.31847 0
M  V30 345 H 30.0691 0.9139 -1.18187 0
M  V30 346 H 31.9511 4.07499 -1.07345 0
M  V30 347 H 30.6261 3.22894 -0.228251 0
M  V30 348 H 29.5331 2.78127 -2.50192 0
M  V30 349 H 30.8661 3.67243 -3.27709 0
M  V30 350 N 32.5182 1.22032 0.997298 0
M  V30 351 C 33.9292 1.0397 1.55071 0
M  V30 352 C 34.2802 -0.398192 1.92117 0
M  V30 353 O 33.4052 -1.28254 1.74298 0
M  V30 354 C 34.0002 1.88109 2.81781 0
M  V30 355 C 32.5592 1.74357 3.33581 0
M  V30 356 C 31.7062 1.84846 2.06706 0
M  V30 357 H 34.6572 1.35941 0.818883 0
M  V30 358 H 34.6782 1.39589 3.53971 0
M  V30 359 H 34.1902 2.92754 2.54787 0
M  V30 360 H 32.2912 0.72427 3.65493 0
M  V30 361 H 32.4042 2.56772 4.04481 0
M  V30 362 H 30.7682 1.28238 2.20062 0
M  V30 363 H 31.5512 2.91014 1.82114 0
M  V30 364 N 33.9963 -1.19345 1.0293 0
M  V30 365 C 35.2453 -1.88363 0.721256 0
M  V30 366 C 35.5583 -1.80514 -0.753254 0
M  V30 367 O 36.7643 -2.44788 -1.17436 0
M  V30 368 C 35.2203 -3.37872 1.23978 0
M  V30 369 C 34.8283 -3.54278 2.74211 0
M  V30 370 C 36.5723 -4.12365 1.00775 0
M  V30 371 C 34.4793 -4.97682 3.19479 0
M  V30 372 H 33.4093 -0.705484 0.266098 0
M  V30 373 H 36.0603 -1.34928 1.24365 0
M  V30 374 H 34.4423 -3.90707 0.6453 0
M  V30 375 H 35.6163 -3.11769 3.39318 0
M  V30 376 H 33.9313 -2.93174 2.95699 0
M  V30 377 H 36.5283 -5.18119 1.32123 0
M  V30 378 H 36.8713 -4.16263 -0.0554308 0
M  V30 379 H 37.4043 -3.65668 1.56625 0
M  V30 380 H 34.1433 -4.98945 4.25128 0
M  V30 381 H 33.6633 -5.4095 2.591 0
M  V30 382 H 35.3423 -5.66337 3.12845 0
M  V30 383 N 35.4744 -0.807222 -1.35358 0
M  V30 384 C 36.7224 -0.387122 -1.98358 0
M  V30 385 C 37.0434 1.04942 -1.64354 0
M  V30 386 O 36.3134 1.72615 -0.926339 0
M  V30 387 H 34.8934 -0.140154 -0.733734 0
M  V30 388 H 37.5554 -1.0332 -1.6526 0
M  V30 389 H 36.6514 -0.493352 -3.08176 0
M  V30 390 N 36.9525 1.47285 -0.560781 0
M  V30 391 C 38.1775 2.07359 -0.0410566 0
M  V30 392 C 38.6025 1.41017 1.24483 0
M  V30 393 O 37.9605 0.486368 1.74654 0
M  V30 394 C 38.0085 3.6035 0.134123 0
M  V30 395 O 37.1125 3.94681 1.19587 0
M  V30 396 H 36.4535 0.661887 -0.0529291 0
M  V30 397 H 38.9835 1.89252 -0.777482 0
M  V30 398 H 38.9935 4.0652 0.347207 0
M  V30 399 H 37.6685 4.08034 -0.805047 0
M  V30 400 H 36.2455 3.60251 0.962987 0
M  V30 401 N 38.4306 0.297415 1.54768 0
M  V30 402 C 39.3606 -0.573494 2.26348 0
M  V30 403 C 40.3416 -1.14085 1.26169 0
M  V30 404 O 41.5266 -1.17086 1.54934 0
M  V30 405 C 38.6566 -1.74716 3.00153 0
M  V30 406 C 37.6106 -1.31032 4.07449 0
M  V30 407 C 36.9366 -2.56887 4.68949 0
M  V30 408 C 38.2366 -0.444183 5.20408 0
M  V30 409 H 39.9306 0.0235131 2.99391 0
M  V30 410 H 37.4766 0.0127488 1.43994 0
M  V30 411 H 39.4296 -2.3625 3.48947 0
M  V30 412 H 38.1536 -2.37035 2.24682 0
M  V30 413 H 36.8126 -0.718066 3.59499 0
M  V30 414 H 36.4606 -3.17512 3.90122 0
M  V30 415 H 36.1606 -2.2836 5.41411 0
M  V30 416 H 37.6846 -3.19229 5.20505 0
M  V30 417 H 39.0986 -0.9651 5.65118 0
M  V30 418 H 37.4956 -0.252846 5.99567 0
M  V30 419 H 38.5656 0.531609 4.81977 0
M  V30 420 N 39.9087 -1.5758 0.0250728 0
M  V30 421 C 40.8717 -2.08896 -0.943139 0
M  V30 422 C 41.8717 -1.00321 -1.25668 0
M  V30 423 O 43.0617 -1.26495 -1.19769 0
M  V30 424 C 40.1937 -2.55143 -2.26086 0
M  V30 425 H 41.3867 -2.95723 -0.498775 0
M  V30 426 H 38.9397 -1.54703 -0.222888 0
M  V30 427 H 39.6747 -1.71633 -2.75159 0
M  V30 428 H 39.4597 -3.34461 -2.04641 0
M  V30 429 H 40.9497 -2.95083 -2.95492 0
M  V30 430 N 41.3868 0.248026 -1.55636 0
M  V30 431 C 42.6358 0.974134 -1.76617 0
M  V30 432 C 42.9488 1.86528 -0.588796 0
M  V30 433 O 44.1548 2.62805 -0.681594 0
M  V30 434 C 42.6108 1.78213 -3.12679 0
M  V30 435 C 42.2188 0.93843 -4.38061 0
M  V30 436 C 43.9628 2.50104 -3.42999 0
M  V30 437 C 41.8698 1.74225 -5.65155 0
M  V30 438 H 40.7998 0.36745 -0.658405 0
M  V30 439 H 43.4508 0.22884 -1.82067 0
M  V30 440 H 41.8328 2.56933 -3.01333 0
M  V30 441 H 43.0068 0.193635 -4.60393 0
M  V30 442 H 41.3218 0.332905 -4.15067 0
M  V30 443 H 43.9188 3.10694 -4.3517 0
M  V30 444 H 44.2618 3.21662 -2.64271 0
M  V30 445 H 44.7948 1.78395 -3.55556 0
M  V30 446 H 41.5338 1.07043 -6.46701 0
M  V30 447 H 41.0538 2.46235 -5.46926 0
M  V30 448 H 42.7328 2.30967 -6.0437 0
M  V30 449 N 42.8649 1.48995 0.513639 0
M  V30 450 C 43.7749 1.67443 1.64317 0
M  V30 451 C 44.7909 0.556947 1.64846 0
M  V30 452 O 45.9669 0.830082 1.83498 0
M  V30 453 C 43.0319 1.72515 3.00732 0
M  V30 454 C 42.0929 2.96009 3.1093 0
M  V30 455 C 41.3259 3.00829 4.40837 0
M  V30 456 O 41.5489 2.13594 5.28898 0
M  V30 457 O 40.4829 3.93168 4.55744 0
M  V30 458 H 44.3089 2.63106 1.51687 0
M  V30 459 H 41.8939 1.32588 0.688543 0
M  V30 460 H 43.7759 1.78277 3.81831 0
M  V30 461 H 42.4509 0.800278 3.13651 0
M  V30 462 H 41.3579 2.9577 2.29065 0
M  V30 463 H 42.6909 3.87934 3.02933 0
M  V30 464 N 44.343 -0.763751 1.37857 0
M  V30 465 C 45.253 -1.90817 1.36478 0
M  V30 466 C 46.269 -1.71997 0.263248 0
M  V30 467 O 47.445 -1.95095 0.499979 0
M  V30 468 C 44.51 -3.2605 1.17864 0
M  V30 469 C 43.571 -3.57467 2.3773 0
M  V30 470 C 42.804 -4.86249 2.19995 0
M  V30 471 O 43.027 -5.57884 1.18836 0
M  V30 472 O 41.961 -5.16911 3.08361 0
M  V30 473 H 45.787 -1.94933 2.32884 0
M  V30 474 H 43.372 -0.907619 1.1867 0
M  V30 475 H 45.254 -4.06924 1.09504 0
M  V30 476 H 43.929 -3.22769 0.245372 0
M  V30 477 H 42.836 -2.76796 2.51664 0
M  V30 478 H 44.169 -3.655 3.29652 0
M  V30 479 N 45.8211 -1.22559 -0.990812 0
M  V30 480 C 46.7841 -0.998863 -2.0629 0
M  V30 481 C 47.7841 0.0354834 -1.60761 0
M  V30 482 O 48.9741 -0.203231 -1.7301 0
M  V30 483 C 46.1061 -0.509203 -3.37076 0
M  V30 484 H 47.2991 -1.95014 -2.27837 0
M  V30 485 H 44.8521 -1.04456 -1.16269 0
M  V30 486 H 45.5871 0.446335 -3.21214 0
M  V30 487 H 45.3721 -1.25547 -3.71457 0
M  V30 488 H 46.8621 -0.370888 -4.1595 0
M  V30 489 N 47.2992 1.18797 -1.03562 0
M  V30 490 C 48.2322 2.2105 -0.56676 0
M  V30 491 C 49.2102 1.57704 0.395993 0
M  V30 492 O 50.3942 1.85908 0.311498 0
M  V30 493 C 47.5212 3.38259 0.172704 0
M  V30 494 C 46.5672 4.19987 -0.74252 0
M  V30 495 S 47.4002 4.87199 -2.22254 0
M  V30 496 C 48.5562 6.07813 -1.49379 0
M  V30 497 H 48.7892 2.60478 -1.43312 0
M  V30 498 H 46.3222 1.29151 -0.846133 0
M  V30 499 H 48.2802 4.06191 0.593191 0
M  V30 500 H 46.9412 2.97252 1.01488 0
M  V30 501 H 46.1342 5.03709 -0.171265 0
M  V30 502 H 45.7362 3.57408 -1.10163 0
M  V30 503 H 48.0282 6.72948 -0.784056 0
M  V30 504 H 48.9712 6.69435 -2.30786 0
M  V30 505 H 49.3792 5.55781 -0.988331 0
M  V30 506 N 48.7773 0.814389 1.34928 0
M  V30 507 C 49.7403 0.235759 2.27984 0
M  V30 508 C 50.7403 -0.581412 1.49921 0
M  V30 509 O 51.9303 -0.398758 1.69575 0
M  V30 510 C 49.0623 -0.670433 3.34242 0
M  V30 511 H 50.2553 1.05659 2.80671 0
M  V30 512 H 47.8083 0.585614 1.44915 0
M  V30 513 H 48.5433 -1.51466 2.86755 0
M  V30 514 H 48.3283 -0.0860822 3.92005 0
M  V30 515 H 49.8183 -1.06935 4.03676 0
M  V30 516 N 50.2554 -1.46986 0.568584 0
M  V30 517 C 51.2184 -2.28624 -0.162366 0
M  V30 518 C 52.2184 -1.37596 -0.832103 0
M  V30 519 O 53.4084 -1.60115 -0.68622 0
M  V30 520 C 50.5404 -3.17596 -1.23878 0
M  V30 521 H 51.7334 -2.94722 0.554899 0
M  V30 522 H 49.2864 -1.52863 0.325976 0
M  V30 523 H 50.0214 -2.56214 -1.98808 0
M  V30 524 H 49.8064 -3.846 -0.763219 0
M  V30 525 H 51.2964 -3.79078 -1.75185 0
M  V30 526 N 51.7335 -0.305618 -1.54608 0
M  V30 527 C 52.9795 0.295595 -2.01241 0
M  V30 528 C 53.3345 1.51171 -1.19018 0
M  V30 529 O 52.6275 1.89832 -0.259684 0
M  V30 530 C 52.8215 0.698983 -3.50498 0
M  V30 531 C 52.6505 -0.476491 -4.47168 0
M  V30 532 C 51.4205 -0.969963 -4.95903 0
M  V30 533 C 53.6185 -1.32294 -4.96994 0
M  V30 534 N 51.6005 -2.11172 -5.76437 0
M  V30 535 C 52.9715 -2.31212 -5.75275 0
M  V30 536 C 55.0265 -1.35278 -4.7917 0
M  V30 537 C 53.7295 -3.32896 -6.37631 0
M  V30 538 C 55.7555 -2.35823 -5.42348 0
M  V30 539 C 55.1175 -3.33469 -6.20466 0
M  V30 540 H 51.2165 0.0724992 -0.778632 0
M  V30 541 H 53.8005 -0.436583 -1.89742 0
M  V30 542 H 51.9715 1.40032 -3.62278 0
M  V30 543 H 53.7035 1.28013 -3.8392 0
M  V30 544 H 50.4585 -0.544178 -4.70463 0
M  V30 545 H 50.8825 -2.68714 -6.21387 0
M  V30 546 H 55.5245 -0.61157 -4.18354 0
M  V30 547 H 53.2425 -4.07933 -6.97579 0
M  V30 548 H 56.8285 -2.38911 -5.30484 0
M  V30 549 H 55.7085 -4.09996 -6.68485 0
M  V30 550 N 53.2116 1.57565 -0.0334293 0
M  V30 551 C 54.4366 1.96689 0.657895 0
M  V30 552 C 54.8616 0.910057 1.64619 0
M  V30 553 O 54.2196 -0.128598 1.80843 0
M  V30 554 C 54.2676 3.34905 1.33683 0
M  V30 555 O 53.3716 3.31574 2.45219 0
M  V30 556 H 52.7126 0.641205 0.172489 0
M  V30 557 H 55.2426 2.04372 -0.0965621 0
M  V30 558 H 55.2526 3.71234 1.69262 0
M  V30 559 H 53.9276 4.11366 0.612411 0
M  V30 560 H 52.5046 3.06968 2.11719 0
M  V30 561 N 54.6897 -0.239769 1.55765 0
M  V30 562 C 55.5997 -1.31831 1.94056 0
M  V30 563 C 56.6157 -1.52275 0.841925 0
M  V30 564 O 57.7917 -1.65759 1.14394 0
M  V30 565 C 54.8567 -2.65156 2.23368 0
M  V30 566 C 53.9177 -2.53173 3.46701 0
M  V30 567 C 53.1507 -3.8014 3.74606 0
M  V30 568 O 53.3737 -4.82343 3.04469 0
M  V30 569 O 52.3077 -3.78344 4.68123 0
M  V30 570 H 56.1337 -1.02347 2.85935 0
M  V30 571 H 53.7187 -0.441123 1.42739 0
M  V30 572 H 55.6007 -3.43929 2.43497 0
M  V30 573 H 54.2757 -2.94358 1.34666 0
M  V30 574 H 53.1827 -1.72662 3.31871 0
M  V30 575 H 54.5157 -2.28915 4.35728 0
M  V30 576 N 56.1678 -1.49265 -0.50573 0
M  V30 577 C 57.4168 -1.57761 -1.25675 0
M  V30 578 C 57.7298 -0.267371 -1.93764 0
M  V30 579 O 58.9358 -0.230827 -2.70517 0
M  V30 580 C 57.3918 -2.78332 -2.28165 0
M  V30 581 C 56.9998 -4.16096 -1.66037 0
M  V30 582 C 58.7438 -2.96155 -3.04125 0
M  V30 583 C 56.6508 -5.27895 -2.6661 0
M  V30 584 H 55.5808 -0.587391 -0.472745 0
M  V30 585 H 58.2318 -1.75644 -0.53118 0
M  V30 586 H 56.6138 -2.53934 -3.03865 0
M  V30 587 H 57.7878 -4.50612 -0.963622 0
M  V30 588 H 56.1028 -4.03591 -1.02484 0
M  V30 589 H 58.6998 -3.76849 -3.79327 0
M  V30 590 H 59.0428 -2.06534 -3.61455 0
M  V30 591 H 59.5758 -3.2057 -2.35541 0
M  V30 592 H 56.3148 -6.1956 -2.14068 0
M  V30 593 H 55.8348 -4.97839 -3.34539 0
M  V30 594 H 57.5138 -5.57031 -3.29129 0
M  V30 595 N 57.6459 0.756429 -1.3826 0
M  V30 596 C 58.8709 1.55077 -1.37717 0
M  V30 597 C 59.2959 1.88073 0.03164 0
M  V30 598 O 58.6539 1.50364 1.01293 0
M  V30 599 C 58.7019 2.8283 -2.23695 0
M  V30 600 O 57.8059 3.77862 -1.6521 0
M  V30 601 H 57.1469 0.469152 -0.469885 0
M  V30 602 H 59.6769 0.935019 -1.81985 0
M  V30 603 H 59.6869 3.31783 -2.37453 0
M  V30 604 H 58.3619 2.58144 -3.2609 0
M  V30 605 H 56.9389 3.36555 -1.60578 0
M  V30 606 N 59.124 1.23083 0.984299 0
M  V30 607 C 60.401 0.9689 1.69917 0
M  V30 608 C 60.781 -0.513604 2.04757 0
M  V30 609 O 60.129 -1.48383 1.73767 0
M  V30 610 C 60.339 1.87518 2.94343 0
M  V30 611 C 61.687 2.13636 3.6694 0
M  V30 612 O 62.711 1.85036 3.04368 0
M  V30 613 O 61.57 2.62119 4.79537 0
M  V30 614 H 58.664 0.365095 0.742048 0
M  V30 615 H 61.21 1.34107 1.03987 0
M  V30 616 H 59.982 2.87756 2.65164 0
M  V30 617 H 59.605 1.50514 3.6801 0
M  V30 618 N 60.6021 -1.18246 1.0419 0
M  V30 619 C 61.5501 -2.23968 0.627792 0
M  V30 620 C 62.5441 -1.65828 -0.346019 0
M  V30 621 O 63.7501 -1.78733 -0.213175 0
M  V30 622 H 60.1251 -0.728939 0.184802 0
M  V30 623 H 62.0961 -2.56202 1.52981 0
M  V30 624 C 60.8451 -3.47699 0.00796591 0
M  V30 625 H 60.1681 -3.92734 0.748347 0
M  V30 626 H 61.6081 -4.23294 -0.24455 0
M  V30 627 C 60.0671 -3.13153 -1.24246 0
M  V30 628 O 60.5971 -3.27003 -2.33307 0
M  V30 629 N 58.8031 -2.67467 -1.13622 0
M  V30 630 H 58.3501 -2.56396 -0.248734 0
M  V30 631 H 58.3081 -2.44724 -1.97377 0
M  V30 632 N 62.0802 -0.821533 -1.34494 0
M  V30 633 C 63.4912 -0.467956 -1.8074 0
M  V30 634 C 63.8422 1.01151 -1.68116 0
M  V30 635 O 62.9672 1.78707 -1.22036 0
M  V30 636 C 63.5622 -0.842627 -3.28154 0
M  V30 637 C 62.1212 -0.541439 -3.72485 0
M  V30 638 C 61.2682 -1.06028 -2.56229 0
M  V30 639 H 64.2192 -1.01183 -1.22261 0
M  V30 640 H 64.2402 -0.145876 -3.8022 0
M  V30 641 H 63.7522 -1.91945 -3.37311 0
M  V30 642 H 61.8532 0.526034 -3.68868 0
M  V30 643 H 61.9662 -1.08453 -4.66663 0
M  V30 644 H 60.3302 -0.481892 -2.501 0
M  V30 645 H 61.1132 -2.14352 -2.68157 0
M  V30 646 N 63.5583 1.46682 -0.576371 0
M  V30 647 C 64.8063 2.02013 -0.0594163 0
M  V30 648 C 65.1273 1.45101 1.30271 0
M  V30 649 O 64.3973 0.633317 1.8538 0
M  V30 650 H 62.9773 0.746759 -0.0189745 0
M  V30 651 H 65.6393 1.79862 -0.750717 0
M  V30 652 H 64.7353 3.12097 0.014345 0
M  V30 653 N 65.0364 0.313813 1.54444 0
M  V30 654 C 65.9684 -0.590425 2.21465 0
M  V30 655 C 66.9814 -1.08753 1.21147 0
M  V30 656 O 68.1704 -1.00278 1.4767 0
M  V30 657 C 65.2704 -1.82179 2.85769 0
M  V30 658 C 64.4434 -1.46502 4.12136 0
M  V30 659 C 63.5024 -2.55288 4.60124 0
M  V30 660 O 62.5284 -2.19842 5.25032 0
M  V30 661 N 63.7304 -3.86053 4.33525 0
M  V30 662 H 66.4954 -0.0166033 2.99695 0
M  V30 663 H 64.0564 0.136578 1.61323 0
M  V30 664 H 66.0484 -2.54328 3.14801 0
M  V30 665 H 64.6184 -2.30369 2.11303 0
M  V30 666 H 63.8384 -0.575595 3.89975 0
M  V30 667 H 65.1264 -1.20221 4.94393 0
M  V30 668 H 64.5244 -4.17654 3.81552 0
M  V30 669 H 63.0814 -4.54461 4.67235 0
M  V30 670 N 66.5145 -1.57545 0.0417849 0
M  V30 671 C 67.4245 -2.14451 -0.951213 0
M  V30 672 C 68.4405 -1.09992 -1.34825 0
M  V30 673 O 69.6165 -1.42114 -1.42708 0
M  V30 674 C 66.6815 -2.67063 -2.21084 0
M  V30 675 C 65.7425 -3.86284 -1.87304 0
M  V30 676 C 64.9755 -4.36378 -3.07261 0
M  V30 677 O 65.1985 -3.85587 -4.20332 0
M  V30 678 O 64.1325 -5.28077 -2.88822 0
M  V30 679 H 67.9585 -2.99601 -0.497287 0
M  V30 680 H 65.5435 -1.48317 -0.179567 0
M  V30 681 H 67.4255 -3.00914 -2.95006 0
M  V30 682 H 66.1005 -1.84989 -2.65633 0
M  V30 683 H 65.0075 -3.57338 -1.10727 0
M  V30 684 H 66.3405 -4.6956 -1.47562 0
M  V30 685 N 67.9926 0.231505 -1.5589 0
M  V30 686 C 69.4086 0.580748 -1.48659 0
M  V30 687 C 69.6086 1.87617 -0.73498 0
M  V30 688 O 68.6646 2.51046 -0.270586 0
M  V30 689 C 69.9776 0.669202 -2.93159 0
M  V30 690 C 71.5256 0.760499 -3.03621 0
M  V30 691 C 72.0006 0.880383 -4.49459 0
M  V30 692 N 73.4916 0.944861 -4.53461 0
M  V30 693 C 74.2266 1.05716 -5.63571 0
M  V30 694 N 73.7226 1.13403 -6.83456 0
M  V30 695 N 75.5156 1.09152 -5.514 0
M  V30 696 H 67.6666 -0.618695 -2.03189 0
M  V30 697 H 69.9296 -0.215728 -0.923128 0
M  V30 698 H 69.6356 -0.212904 -3.51055 0
M  V30 699 H 69.5096 1.5361 -3.44505 0
M  V30 700 H 71.8966 1.63305 -2.45796 0
M  V30 701 H 71.9776 -0.131864 -2.5546 0
M  V30 702 H 71.6216 0.0123284 -5.07899 0
M  V30 703 H 71.5516 1.78802 -4.95316 0
M  V30 704 H 74.0426 0.896176 -3.6712 0
M  V30 705 H 74.3556 1.21921 -7.63122 0
M  V30 706 H 72.7006 1.10333 -6.86186 0
M  V30 707 H 75.8916 1.02805 -4.56671 0
M  V30 708 H 76.0646 1.17558 -6.37247 0
M  V30 709 N 69.4707 1.49531 0.497807 0
M  V30 710 C 70.4337 1.65916 1.58128 0
M  V30 711 C 71.4337 0.530825 1.51786 0
M  V30 712 O 72.6237 0.797342 1.54881 0
M  V30 713 C 69.7557 1.65951 2.9778 0
M  V30 714 H 70.9487 2.62556 1.44929 0
M  V30 715 H 68.5017 1.38611 0.722275 0
M  V30 716 H 69.2367 0.709065 3.16453 0
M  V30 717 H 69.0217 2.47897 3.03792 0
M  V30 718 H 70.5117 1.80673 3.76493 0
M  V30 719 N 70.9488 -0.749086 1.3866 0
M  V30 720 C 72.1768 -1.53834 1.38358 0
M  V30 721 C 72.5918 -1.88783 -0.0255219 0
M  V30 722 O 71.9488 -1.53101 -0.993292 0
M  V30 723 C 71.9998 -2.83468 2.2434 0
M  V30 724 O 71.7208 -2.50008 3.5976 0
M  V30 725 C 73.2218 -3.7758 2.32267 0
M  V30 726 H 70.4418 -0.47585 0.473083 0
M  V30 727 H 72.9858 -0.926726 1.82297 0
M  V30 728 H 71.1408 -3.40995 1.83851 0
M  V30 729 H 71.5548 -3.33182 4.05081 0
M  V30 730 H 73.0288 -4.65478 2.96706 0
M  V30 731 H 73.5058 -4.18334 1.33765 0
M  V30 732 H 74.1118 -3.25976 2.73166 0
M  V30 733 N 72.4269 -1.23603 -0.977757 0
M  V30 734 C 73.6669 -1.08148 -1.73446 0
M  V30 735 C 74.0309 0.374785 -1.88307 0
M  V30 736 O 75.2319 0.650588 -2.60808 0
M  V30 737 C 73.5029 -1.78991 -3.0935 0
M  V30 738 S 75.0619 -1.79141 -4.00567 0
M  V30 739 H 71.8799 -0.386987 -0.596458 0
M  V30 740 H 74.4819 -1.5678 -1.16792 0
M  V30 741 H 73.1859 -2.8408 -2.96187 0
M  V30 742 H 72.7169 -1.30651 -3.71071 0
M  V30 743 H 74.7319 -0.851892 -4.88833 0
M  V30 744 N 73.905 1.17692 -1.04816 0
M  V30 745 C 75.321 1.39863 -0.768794 0
M  V30 746 C 75.521 1.91118 0.638451 0
M  V30 747 O 74.577 2.10036 1.40146 0
M  V30 748 C 75.89 2.39274 -1.82122 0
M  V30 749 C 77.438 2.52987 -1.843 0
M  V30 750 C 77.913 3.55669 -2.88555 0
M  V30 751 N 79.404 3.63183 -2.87493 0
M  V30 752 C 80.139 4.42381 -3.64811 0
M  V30 753 N 79.635 5.25125 -4.51903 0
M  V30 754 N 81.428 4.37217 -3.53267 0
M  V30 755 H 73.579 0.82752 -1.95617 0
M  V30 756 H 75.842 0.426123 -0.846831 0
M  V30 757 H 75.548 2.08678 -2.83102 0
M  V30 758 H 75.422 3.38725 -1.65967 0
M  V30 759 H 77.809 2.82896 -0.839869 0
M  V30 760 H 77.89 1.53623 -2.04532 0
M  V30 761 H 77.534 3.26499 -3.89051 0
M  V30 762 H 77.464 4.54728 -2.65575 0
M  V30 763 H 79.955 3.04103 -2.24343 0
M  V30 764 H 80.268 5.82728 -5.07591 0
M  V30 765 H 78.613 5.24519 -4.55966 0
M  V30 766 H 81.804 3.71626 -2.84625 0
M  V30 767 H 81.977 4.98696 -4.13771 0
M  V30 768 N 75.3831 0.828654 1.34056 0
M  V30 769 C 76.2931 0.256725 2.33191 0
M  V30 770 C 77.3091 -0.611898 1.62886 0
M  V30 771 O 78.4851 -0.51844 1.94613 0
M  V30 772 C 75.5501 -0.567238 3.42028 0
M  V30 773 C 74.6111 0.324458 4.28072 0
M  V30 774 C 73.8441 -0.460274 5.31712 0
M  V30 775 O 74.0671 -1.693 5.44696 0
M  V30 776 O 73.0011 0.160391 6.01686 0
M  V30 777 H 76.8271 1.07739 2.83947 0
M  V30 778 H 74.4121 0.59093 1.37217 0
M  V30 779 H 76.2941 -1.03582 4.08471 0
M  V30 780 H 74.9691 -1.36513 2.93506 0
M  V30 781 H 73.8761 0.840659 3.64532 0
M  V30 782 H 75.2091 1.08685 4.8005 0
M  V30 783 N 76.8612 -1.46375 0.584142 0
M  V30 784 C 77.7712 -2.34115 -0.150728 0
M  V30 785 C 78.7872 -1.49838 -0.884567 0
M  V30 786 O 79.9632 -1.82704 -0.847429 0
M  V30 787 C 77.0282 -3.2705 -1.15062 0
M  V30 788 C 76.0892 -4.27228 -0.421293 0
M  V30 789 C 75.3222 -5.15722 -1.37355 0
M  V30 790 O 75.5452 -5.07176 -2.61014 0
M  V30 791 O 74.4792 -5.95383 -0.883355 0
M  V30 792 H 78.3052 -2.98309 0.569708 0
M  V30 793 H 75.8902 -1.45373 0.344535 0
M  V30 794 H 77.7722 -3.84381 -1.72712 0
M  V30 795 H 76.4472 -2.65451 -1.8525 0
M  V30 796 H 75.3542 -3.7358 0.197085 0
M  V30 797 H 76.6872 -4.91616 0.239641 0
M  V30 798 N 78.3393 -0.321999 -1.54275 0
M  V30 799 C 79.2863 0.544664 -2.24281 0
M  V30 800 C 80.2563 1.1129 -1.23303 0
M  V30 801 O 81.4413 1.15354 -1.51981 0
M  V30 802 C 78.5813 1.70045 -3.00298 0
M  V30 803 C 77.6943 1.16159 -4.1609 0
M  V30 804 C 76.8293 2.28293 -4.79641 0
M  V30 805 C 75.8683 1.71648 -5.8754 0
M  V30 806 N 75.0053 2.77438 -6.44959 0
M  V30 807 H 79.8453 -0.0588907 -2.97942 0
M  V30 808 H 77.3823 -0.0408345 -1.47043 0
M  V30 809 H 79.3403 2.38054 -3.42616 0
M  V30 810 H 77.9703 2.27531 -2.28975 0
M  V30 811 H 77.0223 0.373092 -3.78566 0
M  V30 812 H 78.3343 0.707087 -4.93763 0
M  V30 813 H 77.4883 3.0421 -5.2492 0
M  V30 814 H 76.2273 2.77079 -4.01346 0
M  V30 815 H 75.2323 0.942282 -5.41665 0
M  V30 816 H 76.4573 1.23741 -6.67731 0
M  V30 817 H 74.4033 3.25519 -5.69538 0
M  V30 818 H 74.3203 2.36547 -7.1804 0
M  V30 819 H 75.5883 3.53189 -6.94894 0
M  V30 820 N 79.8174 1.5752 -0.0501392 0
M  V30 821 C 80.7804 2.1037 0.909786 0
M  V30 822 C 81.7804 1.02308 1.24056 0
M  V30 823 O 82.9704 1.28385 1.17741 0
M  V30 824 C 80.1024 2.58708 2.21998 0
M  V30 825 H 81.2954 2.96479 0.451665 0
M  V30 826 H 78.8484 1.55038 0.198248 0
M  V30 827 H 79.5834 1.75989 2.72394 0
M  V30 828 H 79.3684 3.37675 1.99295 0
M  V30 829 H 80.8584 2.99747 2.9076 0
M  V30 830 N 81.2955 -0.223234 1.56011 0
M  V30 831 C 82.5435 -0.946003 1.78592 0
M  V30 832 C 82.8645 -1.84936 0.618349 0
M  V30 833 O 82.1345 -1.92473 -0.364833 0
M  V30 834 H 80.7145 -0.352298 0.658707 0
M  V30 835 H 83.3765 -0.235494 1.93472 0
M  V30 836 H 82.4725 -1.55381 2.70672 0
M  V30 837 N 82.7736 -1.49793 -0.48987 0
M  V30 838 C 83.9986 -1.63836 -1.27172 0
M  V30 839 C 84.4236 -0.31402 -1.8546 0
M  V30 840 O 83.7816 0.719803 -1.66399 0
M  V30 841 C 83.8296 -2.71797 -2.36978 0
M  V30 842 O 82.9336 -2.31744 -3.41128 0
M  V30 843 H 82.2746 -0.547997 -0.37496 0
M  V30 844 H 84.8046 -1.96053 -0.585191 0
M  V30 845 H 84.8146 -2.94305 -2.82575 0
M  V30 846 H 83.4896 -3.67923 -1.93921 0
M  V30 847 H 82.0666 -2.1961 -3.01373 0
M  V30 848 N 84.2517 0.741722 -1.39055 0
M  V30 849 C 85.4767 1.53607 -1.39354 0
M  V30 850 C 85.9017 1.88096 0.0116905 0
M  V30 851 O 85.2597 1.5143 0.996924 0
M  V30 852 C 85.3077 2.80441 -2.26682 0
M  V30 853 O 84.4117 3.76088 -1.69208 0
M  V30 854 H 83.7527 0.464142 -0.474835 0
M  V30 855 H 86.2827 0.915665 -1.82967 0
M  V30 856 H 86.2927 3.29246 -2.40959 0
M  V30 857 H 84.9677 2.5467 -3.2881 0
M  V30 858 H 83.5447 3.34833 -1.64138 0
M  V30 859 N 85.7298 1.2412 0.971189 0
M  V30 860 C 86.9778 1.07668 1.71032 0
M  V30 861 C 87.2988 -0.385797 1.91146 0
M  V30 862 O 86.5688 -1.27569 1.4867 0
M  V30 863 H 85.1488 0.395429 0.633755 0
M  V30 864 H 87.8108 1.55984 1.16855 0
M  V30 865 H 86.9068 1.57195 2.69622 0
M  V30 866 N 87.2079 -1.17134 1.05439 0
M  V30 867 C 88.1379 -2.2342 0.678649 0
M  V30 868 C 89.1189 -1.66971 -0.32476 0
M  V30 869 O 90.3039 -1.93149 -0.201802 0
M  V30 870 C 87.4339 -3.47256 0.0552099 0
M  V30 871 C 86.3879 -4.16543 0.98365 0
M  V30 872 C 85.7139 -5.34231 0.223961 0
M  V30 873 C 87.0139 -4.68495 2.3089 0
M  V30 874 H 88.7079 -2.55105 1.56722 0
M  V30 875 H 86.2539 -1.2262 0.754998 0
M  V30 876 H 88.2069 -4.20828 -0.21946 0
M  V30 877 H 86.9309 -3.14846 -0.868319 0
M  V30 878 H 85.5899 -3.44887 1.24293 0
M  V30 879 H 85.2379 -4.98071 -0.702412 0
M  V30 880 H 84.9379 -5.81527 0.842627 0
M  V30 881 H 86.4619 -6.10585 -0.0433671 0
M  V30 882 H 87.8759 -5.33691 2.09396 0
M  V30 883 H 86.2729 -5.26379 2.88176 0
M  V30 884 H 87.3429 -3.85169 2.94572 0
M  V30 885 N 88.686 -0.835752 -1.33615 0
M  V30 886 C 89.911 -0.442389 -2.02627 0
M  V30 887 C 90.336 0.947735 -1.62479 0
M  V30 888 O 89.694 1.61907 -0.815826 0
M  V30 889 C 89.742 -0.567216 -3.56111 0
M  V30 890 O 88.846 0.407799 -4.10379 0
M  V30 891 H 88.187 -0.180278 -0.639059 0
M  V30 892 H 90.717 -1.12972 -1.70583 0
M  V30 893 H 90.727 -0.447708 -4.05536 0
M  V30 894 H 89.402 -1.58103 -3.84677 0
M  V30 895 H 87.979 0.246107 -3.72087 0
M  V30 896 N 90.1641 1.46063 -0.591896 0
M  V30 897 C 91.1111 2.30399 0.136069 0
M  V30 898 C 92.0811 1.41169 0.875238 0
M  V30 899 O 93.2661 1.70112 0.86409 0
M  V30 900 C 90.4061 3.25804 1.13781 0
M  V30 901 C 89.5191 4.30134 0.401137 0
M  V30 902 C 88.6541 5.12659 1.39121 0
M  V30 903 C 87.6931 6.0873 0.641462 0
M  V30 904 N 86.8301 6.8409 1.58004 0
M  V30 905 H 91.6701 2.92118 -0.589144 0
M  V30 906 H 89.2071 1.43959 -0.302342 0
M  V30 907 H 91.1651 3.79569 1.73156 0
M  V30 908 H 89.7951 2.65872 1.83062 0
M  V30 909 H 88.8471 3.79152 -0.307826 0
M  V30 910 H 90.1591 4.98458 -0.184565 0
M  V30 911 H 89.3131 5.70747 2.05749 0
M  V30 912 H 88.0521 4.44316 2.01084 0
M  V30 913 H 87.0571 5.49786 -0.0385419 0
M  V30 914 H 88.2821 6.79095 0.0270945 0
M  V30 915 H 86.2281 6.18449 2.18761 0
M  V30 916 H 86.1451 7.48709 1.04738 0
M  V30 917 H 87.4131 7.4673 2.23639 0
M  V30 918 N 91.6422 0.330177 1.54103 0
M  V30 919 C 93.0532 -0.15652 1.86043 0
M  V30 920 C 93.4042 -1.51086 1.2517 0
M  V30 921 O 92.5292 -2.09023 0.560217 0
M  V30 922 C 93.1242 -0.290784 3.3755 0
M  V30 923 C 91.6832 -0.721705 3.69416 0
M  V30 924 C 90.8302 0.152622 2.7688 0
M  V30 925 H 93.7812 0.550237 1.48856 0
M  V30 926 H 93.8022 -1.12058 3.63625 0
M  V30 927 H 93.3142 0.695068 3.81825 0
M  V30 928 H 91.4152 -1.71706 3.30678 0
M  V30 929 H 91.5282 -0.520869 4.7626 0
M  V30 930 H 89.8922 -0.372894 2.51956 0
M  V30 931 H 90.6752 1.13536 3.23982 0
M  V30 932 N 93.1203 -1.57491 0.0584922 0
M  V30 933 C 94.3603 -1.94851 -0.617458 0
M  V30 934 C 94.7243 -0.937165 -1.67575 0
M  V30 935 O 95.9253 -1.19795 -2.40629 0
M  V30 936 C 94.1963 -3.36955 -1.19147 0
M  V30 937 S 95.7553 -3.96277 -1.8844 0
M  V30 938 H 92.5733 -0.681539 -0.202547 0
M  V30 939 H 95.1753 -1.95073 0.129176 0
M  V30 940 H 93.8793 -4.08355 -0.409215 0
M  V30 941 H 93.4103 -3.40245 -1.97476 0
M  V30 942 H 95.4253 -3.82099 -3.16568 0
M  V30 943 N 94.5984 0.214957 -1.56127 0
M  V30 944 C 95.5284 1.2695 -1.95974 0
M  V30 945 C 96.5094 1.48539 -0.828868 0
M  V30 946 O 97.6944 1.60611 -1.09168 0
M  V30 947 C 94.8244 2.61794 -2.28214 0
M  V30 948 C 93.7784 2.54851 -3.43853 0
M  V30 949 C 93.1044 3.93785 -3.61715 0
M  V30 950 C 94.4044 2.09065 -4.78632 0
M  V30 951 H 96.0984 0.93846 -2.84312 0
M  V30 952 H 93.6444 0.449996 -1.36788 0
M  V30 953 H 95.5974 3.35731 -2.54682 0
M  V30 954 H 94.3214 2.96599 -1.36736 0
M  V30 955 H 92.9804 1.8337 -3.17444 0
M  V30 956 H 92.6284 4.25908 -2.67602 0
M  V30 957 H 92.3284 3.90019 -4.39498 0
M  V30 958 H 93.8524 4.69374 -3.90539 0
M  V30 959 H 95.2664 2.7275 -5.04262 0
M  V30 960 H 93.6634 2.16346 -5.59745 0
M  V30 961 H 94.7334 1.04315 -4.73547 0
M  V30 962 N 96.0765 1.50051 0.48192 0
M  V30 963 C 97.3015 1.64508 1.26301 0
M  V30 964 C 97.7265 0.323851 1.85291 0
M  V30 965 O 97.0845 -0.710969 1.66778 0
M  V30 966 C 97.1325 2.7305 2.35533 0
M  V30 967 O 96.2365 2.3355 3.39895 0
M  V30 968 H 95.5775 0.549978 0.372048 0
M  V30 969 H 98.1075 1.9636 0.574786 0
M  V30 970 H 98.1175 2.95799 2.8101 0
M  V30 971 H 96.7925 3.68946 1.91967 0
M  V30 972 H 95.3695 2.21205 3.00204 0
M  V30 973 N 97.5546 -0.734337 1.39446 0
M  V30 974 C 98.5176 -1.83004 1.37994 0
M  V30 975 C 99.5176 -1.58397 0.276938 0
M  V30 976 O 100.708 -1.65785 0.534875 0
M  V30 977 C 97.8396 -3.20802 1.1532 0
M  V30 978 H 99.0326 -1.85694 2.35494 0
M  V30 979 H 96.5856 -0.938059 1.25021 0
M  V30 980 H 97.3206 -3.23772 0.185036 0
M  V30 981 H 97.1056 -3.4006 1.95197 0
M  V30 982 H 98.5956 -4.00862 1.17046 0
M  V30 983 N 99.0327 -1.24633 -0.964593 0
M  V30 984 C 100.282 -1.08188 -1.7023 0
M  V30 985 C 100.595 0.37873 -1.91898 0
M  V30 986 O 101.801 0.663427 -2.6327 0
M  V30 987 C 100.257 -1.88773 -3.06419 0
M  V30 988 C 99.8647 -3.39263 -2.92582 0
M  V30 989 C 101.609 -1.80867 -3.84041 0
M  V30 990 C 99.5157 -4.1218 -4.24101 0
M  V30 991 H 98.4457 -0.401245 -0.638372 0
M  V30 992 H 101.097 -1.48742 -1.07462 0
M  V30 993 H 99.4787 -1.41035 -3.70034 0
M  V30 994 H 100.653 -3.94603 -2.37961 0
M  V30 995 H 98.9677 -3.48154 -2.28424 0
M  V30 996 H 101.565 -2.32646 -4.81435 0
M  V30 997 H 101.908 -0.774543 -4.09031 0
M  V30 998 H 102.441 -2.26301 -3.27159 0
M  V30 999 H 99.1797 -5.15965 -4.04303 0
M  V30 1000 H 98.6997 -3.61626 -4.78526 0
M  V30 1001 H 100.379 -4.19349 -4.92702 0
M  V30 1002 N 100.511 1.16574 -1.06058 0
M  V30 1003 C 101.759 1.86677 -0.77434 0
M  V30 1004 C 102.08 1.81959 0.701147 0
M  V30 1005 O 101.35 1.2515 1.50713 0
M  V30 1006 H 99.9298 0.691134 -0.283449 0
M  V30 1007 H 102.592 1.41378 -1.34158 0
M  V30 1008 H 101.688 2.92181 -1.09711 0
M  V30 1009 N 101.989 0.842826 1.3317 0
M  V30 1010 C 103.214 0.453129 2.02389 0
M  V30 1011 C 103.639 -0.939105 1.6298 0
M  V30 1012 O 102.997 -1.61472 0.8244 0
M  V30 1013 C 103.045 0.586094 3.55805 0
M  V30 1014 O 102.149 -0.386029 4.10589 0
M  V30 1015 H 101.49 0.183664 0.638094 0
M  V30 1016 H 104.02 1.13875 1.69981 0
M  V30 1017 H 104.03 0.469209 4.05293 0
M  V30 1018 H 102.705 1.6014 3.83833 0
M  V30 1019 H 101.282 -0.226371 3.72212 0
M  V30 1020 N 103.467 -1.45747 0.599634 0
M  V30 1021 C 104.695 -2.06668 0.0978551 0
M  V30 1022 C 105.11 -1.44562 -1.21439 0
M  V30 1023 O 104.467 -0.556923 -1.73795 0
M  V30 1024 C 104.518 -3.61456 -0.0567044 0
M  V30 1025 O 104.239 -4.21242 1.20361 0
M  V30 1026 C 105.74 -4.39345 -0.590869 0
M  V30 1027 H 102.96 -0.667825 0.0651943 0
M  V30 1028 H 105.504 -1.87115 0.82511 0
M  V30 1029 H 103.659 -3.80378 -0.734251 0
M  V30 1030 H 104.073 -5.14323 1.02821 0
M  V30 1031 H 105.547 -5.48182 -0.648131 0
M  V30 1032 H 106.024 -4.08568 -1.61147 0
M  V30 1033 H 106.63 -4.25268 0.0523679 0
M  V30 1034 N 104.945 -0.338344 -1.53925 0
M  V30 1035 C 105.855 0.529421 -2.28548 0
M  V30 1036 C 106.871 1.11645 -1.3346 0
M  V30 1037 O 108.047 1.13325 -1.66492 0
M  V30 1038 C 105.112 1.66713 -3.03987 0
M  V30 1039 C 104.173 1.11041 -4.14691 0
M  V30 1040 C 103.406 2.19389 -4.86522 0
M  V30 1041 O 103.629 3.40013 -4.57982 0
M  V30 1042 O 102.563 1.83976 -5.73094 0
M  V30 1043 H 106.389 -0.0770399 -3.03602 0
M  V30 1044 H 103.974 -0.103555 -1.49041 0
M  V30 1045 H 105.856 2.32918 -3.5118 0
M  V30 1046 H 104.531 2.25949 -2.31794 0
M  V30 1047 H 103.438 0.413024 -3.71813 0
M  V30 1048 H 104.771 0.562975 -4.8897 0
M  V30 1049 N 106.423 1.57458 -0.0668435 0
M  V30 1050 C 107.671 1.92919 0.602214 0
M  V30 1051 C 107.992 0.947215 1.70449 0
M  V30 1052 O 107.262 -0.00544117 1.95899 0
M  V30 1053 H 105.842 0.71217 0.22544 0
M  V30 1054 H 108.504 1.94508 -0.123535 0
M  V30 1055 H 107.6 2.94589 1.03073 0
M  V30 1056 N 107.901 -0.206675 1.56239 0
M  V30 1057 C 109.149 -0.927007 1.79586 0
M  V30 1058 C 109.47 -1.8427 0.637929 0
M  V30 1059 O 108.74 -1.92849 -0.344398 0
M  V30 1060 H 107.32 -0.345292 0.662407 0
M  V30 1061 H 109.982 -0.21496 1.93711 0
M  V30 1062 H 109.078 -1.52501 2.72305 0
M  V30 1063 N 109.379 -1.50304 -0.473955 0
M  V30 1064 C 110.342 -1.6841 -1.55469 0
M  V30 1065 C 111.342 -0.554905 -1.50922 0
M  V30 1066 O 112.532 -0.821882 -1.53593 0
M  V30 1067 C 109.664 -1.70667 -2.95102 0
M  V30 1068 H 110.857 -2.64828 -1.40733 0
M  V30 1069 H 108.41 -1.39742 -0.700132 0
M  V30 1070 H 109.145 -0.75932 -3.15285 0
M  V30 1071 H 108.93 -2.52698 -2.9981 0
M  V30 1072 H 110.42 -1.8664 -3.73571 0
M  V30 1073 N 110.857 0.726932 -1.39834 0
M  V30 1074 C 112.268 1.30558 -1.3346 0
M  V30 1075 C 112.619 1.962 -0.00273003 0
M  V30 1076 O 111.744 1.96826 0.899371 0
M  V30 1077 C 112.339 2.37404 -2.41713 0
M  V30 1078 C 110.898 2.90921 -2.38835 0
M  V30 1079 C 110.045 1.64578 -2.2318 0
M  V30 1080 H 112.996 0.523862 -1.49804 0
M  V30 1081 H 113.017 3.17984 -2.08966 0
M  V30 1082 H 112.529 1.89599 -3.38635 0
M  V30 1083 H 110.63 3.42985 -1.45575 0
M  V30 1084 H 110.743 3.43487 -3.33997 0
M  V30 1085 H 109.107 1.89219 -1.70494 0
M  V30 1086 H 109.89 1.18814 -3.22084 0
M  V30 1087 N 112.336 1.25143 0.95797 0
M  V30 1088 C 113.752 1.01892 1.22842 0
M  V30 1089 C 113.952 -0.266311 1.99732 0
M  V30 1090 O 113.008 -0.979913 2.3271 0
M  V30 1091 C 114.321 2.24004 2.00606 0
M  V30 1092 C 115.869 2.28731 2.13662 0
M  V30 1093 C 116.344 3.5049 2.94823 0
M  V30 1094 N 117.835 3.50866 3.02403 0
M  V30 1095 C 118.57 4.4174 3.65586 0
M  V30 1096 N 118.066 5.42882 4.30408 0
M  V30 1097 N 119.859 4.29429 3.62694 0
M  V30 1098 H 112.01 2.07718 0.443493 0
M  V30 1099 H 114.273 0.912031 0.258657 0
M  V30 1100 H 113.979 3.17395 1.51503 0
M  V30 1101 H 113.853 2.26907 3.01319 0
M  V30 1102 H 116.24 1.35865 2.61963 0
M  V30 1103 H 116.321 2.29848 1.12265 0
M  V30 1104 H 115.965 4.43676 2.47213 0
M  V30 1105 H 115.895 3.46617 3.96439 0
M  V30 1106 H 118.386 2.777 2.56302 0
M  V30 1107 H 118.699 6.0844 4.76467 0
M  V30 1108 H 117.044 5.46758 4.29047 0
M  V30 1109 H 120.235 3.49643 3.11236 0
M  V30 1110 H 120.408 5.00448 4.1165 0
M  V30 1111 N 113.814 -1.1601 1.06675 0
M  V30 1112 C 115.063 -1.85973 0.780818 0
M  V30 1113 C 115.376 -1.82819 -0.695444 0
M  V30 1114 O 116.582 -2.484 -1.09589 0
M  V30 1115 C 115.038 -3.33757 1.34665 0
M  V30 1116 C 114.646 -3.45374 2.85343 0
M  V30 1117 C 116.39 -4.0895 1.13843 0
M  V30 1118 C 114.297 -4.87266 3.35151 0
M  V30 1119 H 113.227 -0.696661 0.288407 0
M  V30 1120 H 115.878 -1.30903 1.28595 0
M  V30 1121 H 114.26 -3.88456 0.769274 0
M  V30 1122 H 115.434 -3.00816 3.49065 0
M  V30 1123 H 113.749 -2.83619 3.04876 0
M  V30 1124 H 116.346 -5.13654 1.4854 0
M  V30 1125 H 116.689 -4.16229 0.0770282 0
M  V30 1126 H 117.222 -3.605 1.68179 0
M  V30 1127 H 113.961 -4.85168 4.40786 0
M  V30 1128 H 113.481 -5.32433 2.76179 0
M  V30 1129 H 115.16 -5.56097 3.30704 0
M  V30 1130 N 115.292 -0.849877 -1.32721 0
M  V30 1131 C 116.708 -0.539102 -1.50219 0
M  V30 1132 C 116.908 0.931271 -1.78689 0
M  V30 1133 O 115.964 1.71455 -1.85363 0
M  V30 1134 C 117.277 -1.42196 -2.64954 0
M  V30 1135 C 118.825 -1.42189 -2.78839 0
M  V30 1136 C 119.3 -2.28985 -3.96648 0
M  V30 1137 N 120.791 -2.26754 -4.03902 0
M  V30 1138 C 121.526 -2.90644 -4.94281 0
M  V30 1139 N 121.022 -3.63629 -5.897 0
M  V30 1140 N 122.815 -2.80057 -4.87365 0
M  V30 1141 H 114.966 -1.80156 -1.12506 0
M  V30 1142 H 117.229 -0.769217 -0.554085 0
M  V30 1143 H 116.935 -2.46733 -2.50631 0
M  V30 1144 H 116.809 -1.10591 -3.60624 0
M  V30 1145 H 119.196 -0.38419 -2.92588 0
M  V30 1146 H 119.277 -1.77807 -1.83898 0
M  V30 1147 H 118.921 -3.32819 -3.83658 0
M  V30 1148 H 118.851 -1.90702 -4.90857 0
M  V30 1149 H 121.342 -1.73688 -3.3562 0
M  V30 1150 H 121.655 -4.09558 -6.55349 0
M  V30 1151 H 120 -3.67737 -5.89741 0
M  V30 1152 H 123.191 -2.22593 -4.11789 0
M  V30 1153 H 123.364 -3.30132 -5.57599 0
M  V30 1154 N 116.77 1.45427 -0.607355 0
M  V30 1155 C 118.018 2.01841 -0.102253 0
M  V30 1156 C 118.339 1.47832 1.27164 0
M  V30 1157 O 117.609 0.672497 1.83995 0
M  V30 1158 H 116.189 0.746188 -0.0348101 0
M  V30 1159 H 118.851 1.78229 -0.7887 0
M  V30 1160 H 117.947 3.12057 -0.0518585 0
M  V30 1161 N 118.248 0.346503 1.53744 0
M  V30 1162 C 119.18 -0.543316 2.22667 0
M  V30 1163 C 120.193 -1.06159 1.23427 0
M  V30 1164 O 121.382 -0.971235 1.49764 0
M  V30 1165 C 118.482 -1.76076 2.89569 0
M  V30 1166 C 117.655 -1.37727 4.15151 0
M  V30 1167 C 116.714 -2.45471 4.65436 0
M  V30 1168 O 115.74 -2.08655 5.29577 0
M  V30 1169 N 116.942 -3.7677 4.41616 0
M  V30 1170 H 119.707 0.0469703 2.99663 0
M  V30 1171 H 117.268 0.170766 1.60997 0
M  V30 1172 H 119.26 -2.47593 3.20125 0
M  V30 1173 H 117.83 -2.25835 2.16142 0
M  V30 1174 H 117.05 -0.492746 3.91108 0
M  V30 1175 H 118.338 -1.09708 4.96832 0
M  V30 1176 H 117.736 -4.09467 3.90325 0
M  V30 1177 H 116.293 -4.44448 4.7677 0
M  V30 1178 N 119.726 -1.57421 0.075193 0
M  V30 1179 C 120.974 -1.93236 -0.591974 0
M  V30 1180 C 121.295 -0.956241 -1.69944 0
M  V30 1181 O 120.565 -0.00494792 -1.95899 0
M  V30 1182 H 119.145 -0.713355 -0.22166 0
M  V30 1183 H 121.807 -1.9444 0.133848 0
M  V30 1184 H 120.903 -2.95131 -1.01509 0
M  V30 1185 N 121.204 0.198386 -1.56346 0
M  V30 1186 C 122.615 0.763358 -1.70381 0
M  V30 1187 C 122.966 1.83995 -0.681203 0
M  V30 1188 O 122.091 2.15785 0.16305 0
M  V30 1189 C 122.686 1.39143 -3.08909 0
M  V30 1190 C 121.245 1.90352 -3.2472 0
M  V30 1191 C 120.392 0.772233 -2.6633 0
M  V30 1192 H 123.343 -0.0266377 -1.58678 0
M  V30 1193 H 123.364 2.26076 -3.06055 0
M  V30 1194 H 122.876 0.607638 -3.83314 0
M  V30 1195 H 120.977 2.71461 -2.55225 0
M  V30 1196 H 121.09 2.06757 -4.3219 0
M  V30 1197 H 119.454 1.18566 -2.2542 0
M  V30 1198 H 120.237 0.00073556 -3.433 0
M  V30 1199 N 122.682 1.50554 0.465978 0
M  V30 1200 C 123.93 1.61479 1.21528 0
M  V30 1201 C 124.251 0.319596 1.92363 0
M  V30 1202 O 123.521 -0.663194 1.84333 0
M  V30 1203 H 122.101 0.595055 0.451573 0
M  V30 1204 H 124.763 1.87355 0.53704 0
M  V30 1205 H 123.859 2.42846 1.96042 0
M  V30 1206 N 124.16 -0.719506 1.40217 0
M  V30 1207 C 125.07 -1.86378 1.42479 0
M  V30 1208 C 126.086 -1.71073 0.317834 0
M  V30 1209 O 127.262 -1.93406 0.561794 0
M  V30 1210 C 124.327 -3.22136 1.28178 0
M  V30 1211 C 123.388 -3.49723 2.48982 0
M  V30 1212 C 122.621 -4.79004 2.35353 0
M  V30 1213 O 122.844 -5.53821 1.36524 0
M  V30 1214 O 121.778 -5.06839 3.2465 0
M  V30 1215 H 125.604 -1.87425 2.38968 0
M  V30 1216 H 123.189 -0.869405 1.21498 0
M  V30 1217 H 125.071 -4.03234 1.22395 0
M  V30 1218 H 123.746 -3.21825 0.347934 0
M  V30 1219 H 122.653 -2.6865 2.60342 0
M  V30 1220 H 123.986 -3.54828 3.41113 0
M  V30 1221 N 125.638 -1.25649 -0.95132 0
M  V30 1222 C 126.863 -1.13443 -1.73624 0
M  V30 1223 C 127.288 0.307565 -1.85568 0
M  V30 1224 O 126.646 1.22282 -1.33854 0
M  V30 1225 C 126.694 -1.79723 -3.12621 0
M  V30 1226 O 125.798 -1.07912 -3.98031 0
M  V30 1227 H 125.139 -0.395872 -0.533086 0
M  V30 1228 H 127.669 -1.66276 -1.1922 0
M  V30 1229 H 127.679 -1.86141 -3.63064 0
M  V30 1230 H 126.354 -2.84633 -3.03244 0
M  V30 1231 H 124.931 -1.09398 -3.56492 0
M  V30 1232 N 127.117 1.15442 -1.07289 0
M  V30 1233 C 128.394 1.82306 -0.708792 0
M  V30 1234 C 128.774 1.94991 0.808807 0
M  V30 1235 O 128.122 1.50085 1.72298 0
M  V30 1236 C 128.332 3.18695 -1.42247 0
M  V30 1237 C 129.68 3.94341 -1.57417 0
M  V30 1238 O 130.704 3.28247 -1.38319 0
M  V30 1239 O 129.563 5.12839 -1.88834 0
M  V30 1240 H 126.657 0.787628 -0.252132 0
M  V30 1241 H 129.203 1.22559 -1.17377 0
M  V30 1242 H 127.975 3.04557 -2.45684 0
M  V30 1243 H 127.598 3.86128 -0.948223 0
M  V30 1244 N 128.595 0.856903 1.32268 0
M  V30 1245 C 129.872 0.382583 1.91822 0
M  V30 1246 C 130.252 -1.13407 1.78051 0
M  V30 1247 O 129.6 -1.95673 1.18001 0
M  V30 1248 C 129.81 0.849446 3.38505 0
M  V30 1249 C 131.158 0.867936 4.15634 0
M  V30 1250 O 132.182 0.794232 3.47232 0
M  V30 1251 O 131.041 0.972286 5.37781 0
M  V30 1252 H 128.135 0.112014 0.819379 0
M  V30 1253 H 130.681 0.943952 1.41024 0
M  V30 1254 H 129.453 1.89267 3.42482 0
M  V30 1255 H 129.076 0.265652 3.96712 0
M  V30 1256 N 130.073 -1.45103 0.615059 0
M  V30 1257 C 131.35 -1.95549 0.0448276 0
M  V30 1258 C 131.73 -1.55737 -1.4251 0
M  V30 1259 O 131.078 -0.823556 -2.13143 0
M  V30 1260 C 131.288 -3.48098 0.250785 0
M  V30 1261 C 132.636 -4.24384 0.135509 0
M  V30 1262 O 133.66 -3.55738 0.181299 0
M  V30 1263 O 132.519 -5.46493 0.0268878 0
M  V30 1264 H 129.613 -0.8264 -0.0314845 0
M  V30 1265 H 132.159 -1.55232 0.685642 0
M  V30 1266 H 130.931 -3.7007 1.27139 0
M  V30 1267 H 130.554 -3.95323 -0.424937 0
M  V30 1268 N 131.551 -0.354651 -1.53558 0
M  V30 1269 C 132.514 0.484566 -2.24019 0
M  V30 1270 C 133.514 1.01861 -1.24422 0
M  V30 1271 O 134.704 0.906097 -1.4878 0
M  V30 1272 C 131.836 1.67615 -2.96847 0
M  V30 1273 H 133.029 -0.131843 -2.9961 0
M  V30 1274 H 130.582 -0.106165 -1.55939 0
M  V30 1275 H 131.317 2.33095 -2.25471 0
M  V30 1276 H 131.102 1.30029 -3.69912 0
M  V30 1277 H 132.592 2.27114 -3.50441 0
M  V30 1278 N 133.029 1.57378 -0.0835403 0
M  V30 1279 C 133.939 2.16897 0.894021 0
M  V30 1280 C 134.955 1.13528 1.31861 0
M  V30 1281 O 136.131 1.45848 1.3889 0
M  V30 1282 C 133.196 2.72831 2.13925 0
M  V30 1283 C 132.257 3.91115 1.76997 0
M  V30 1284 C 131.49 4.44371 2.95584 0
M  V30 1285 O 131.713 3.96596 4.09961 0
M  V30 1286 O 130.647 5.35549 2.74719 0
M  V30 1287 H 134.473 3.00814 0.417679 0
M  V30 1288 H 132.058 1.48741 0.140181 0
M  V30 1289 H 133.94 3.0863 2.86924 0
M  V30 1290 H 132.615 1.91967 2.60635 0
M  V30 1291 H 131.522 3.60148 1.01214 0
M  V30 1292 H 132.855 4.73307 1.3506 0
M  V30 1293 N 134.507 -0.190092 1.56449 0
M  V30 1294 C 135.735 -0.925772 1.85033 0
M  V30 1295 C 136.15 -1.76638 0.666658 0
M  V30 1296 O 135.507 -1.78822 -0.364565 0
M  V30 1297 C 135.558 -1.81786 3.12468 0
M  V30 1298 O 135.279 -1.01118 4.26271 0
M  V30 1299 C 136.78 -2.6648 3.54265 0
M  V30 1300 H 134 -0.269872 0.614337 0
M  V30 1301 H 136.544 -0.195837 2.0356 0
M  V30 1302 H 134.699 -2.50136 2.95822 0
M  V30 1303 H 135.113 -1.61956 4.98869 0
M  V30 1304 H 136.587 -3.24722 4.46385 0
M  V30 1305 H 137.064 -3.40434 2.77491 0
M  V30 1306 H 137.67 -2.03493 3.73458 0
M  V30 1307 N 135.985 -1.50799 -0.457987 0
M  V30 1308 C 136.915 -1.73553 -1.5621 0
M  V30 1309 C 137.896 -0.584774 -1.59732 0
M  V30 1310 O 139.081 -0.825314 -1.7579 0
M  V30 1311 C 136.211 -1.84169 -2.94447 0
M  V30 1312 C 135.165 -2.99461 -3.0579 0
M  V30 1313 C 134.491 -2.95235 -4.45803 0
M  V30 1314 C 135.791 -4.39766 -2.81786 0
M  V30 1315 H 137.485 -2.66 -1.37421 0
M  V30 1316 H 135.031 -1.28002 -0.659662 0
M  V30 1317 H 136.984 -1.98672 -3.71628 0
M  V30 1318 H 135.708 -0.883545 -3.14422 0
M  V30 1319 H 134.367 -2.8463 -2.31044 0
M  V30 1320 H 134.015 -1.97239 -4.62715 0
M  V30 1321 H 133.715 -3.72642 -4.54326 0
M  V30 1322 H 135.239 -3.11803 -5.24987 0
M  V30 1323 H 136.653 -4.55054 -3.4871 0
M  V30 1324 H 135.05 -5.18722 -3.0174 0
M  V30 1325 H 136.12 -4.51229 -1.7754 0
M  V30 1326 N 137.463 0.71206 -1.40597 0
M  V30 1327 C 138.711 1.46907 -1.38791 0
M  V30 1328 C 139.032 1.94998 0.00780391 0
M  V30 1329 O 138.302 1.70587 0.963174 0
M  V30 1330 H 136.882 0.545043 -0.51082 0
M  V30 1331 H 139.544 0.843882 -1.75683 0
M  V30 1332 H 138.64 2.34021 -2.06496 0
M  V30 1333 N 138.941 1.26152 0.944643 0
M  V30 1334 C 140.19 1.10883 1.68487 0
M  V30 1335 C 140.503 -0.348153 1.92477 0
M  V30 1336 O 141.709 -0.621459 2.64292 0
M  V30 1337 C 140.165 1.93624 3.03377 0
M  V30 1338 C 139.773 3.43875 2.87148 0
M  V30 1339 C 141.517 1.86954 3.81115 0
M  V30 1340 C 139.424 4.18875 4.1749 0
M  V30 1341 H 138.354 0.41135 0.631907 0
M  V30 1342 H 141.005 1.50433 1.05082 0
M  V30 1343 H 139.387 1.46904 3.67743 0
M  V30 1344 H 140.561 3.98338 2.31653 0
M  V30 1345 H 138.876 3.51744 2.22856 0
M  V30 1346 H 141.473 2.40275 4.77673 0
M  V30 1347 H 141.816 0.839518 4.07747 0
M  V30 1348 H 142.349 2.31477 3.23517 0
M  V30 1349 H 139.088 5.22332 3.96043 0
M  V30 1350 H 138.608 3.69193 4.72712 0
M  V30 1351 H 140.287 4.27134 4.85968 0
M  V30 1352 N 140.419 -1.14872 1.07899 0
M  V30 1353 C 141.83 -1.67367 0.827363 0
M  V30 1354 C 142.181 -1.85236 -0.646693 0
M  V30 1355 O 141.306 -1.55974 -1.50004 0
M  V30 1356 C 141.901 -3.04016 1.49532 0
M  V30 1357 C 140.46 -3.53566 1.29106 0
M  V30 1358 C 139.607 -2.29161 1.56143 0
M  V30 1359 H 142.558 -0.990083 1.24028 0
M  V30 1360 H 142.579 -3.69219 0.919643 0
M  V30 1361 H 142.091 -2.90978 2.56814 0
M  V30 1362 H 140.192 -3.71835 0.238713 0
M  V30 1363 H 140.305 -4.34661 2.01511 0
M  V30 1364 H 138.669 -2.34978 0.982717 0
M  V30 1365 H 139.452 -2.18705 2.64619 0
M  V30 1366 N 141.898 -0.863906 -1.31812 0
M  V30 1367 C 143.309 -0.52522 -1.7916 0
M  V30 1368 C 143.66 0.957518 -1.71248 0
M  V30 1369 O 142.785 1.74734 -1.27659 0
M  V30 1370 C 143.38 -0.9466 -3.25307 0
M  V30 1371 C 141.939 -0.659668 -3.70574 0
M  V30 1372 C 141.086 -1.14126 -2.52726 0
M  V30 1373 H 144.037 -1.05022 -1.1898 0
M  V30 1374 H 144.058 -0.266766 -3.79564 0
M  V30 1375 H 143.57 -2.02579 -3.31034 0
M  V30 1376 H 141.671 0.408416 -3.70355 0
M  V30 1377 H 141.784 -1.23245 -4.62977 0
M  V30 1378 H 140.148 -0.561216 -2.4844 0
M  V30 1379 H 140.931 -2.22775 -2.61201 0
M  V30 1380 N 143.376 1.44774 -0.622745 0
M  V30 1381 C 144.792 1.56986 -0.287652 0
M  V30 1382 C 144.992 1.61167 1.20944 0
M  V30 1383 O 144.048 1.55015 1.99315 0
M  V30 1384 C 145.361 2.84551 -0.972188 0
M  V30 1385 C 146.909 2.9825 -0.949536 0
M  V30 1386 C 147.384 4.28605 -1.61437 0
M  V30 1387 N 148.875 4.35399 -1.58057 0
M  V30 1388 C 149.61 5.34964 -2.064 0
M  V30 1389 N 149.106 6.40981 -2.62897 0
M  V30 1390 N 150.899 5.26419 -1.97078 0
M  V30 1391 H 143.05 1.40304 -1.59463 0
M  V30 1392 H 145.313 0.671794 -0.668878 0
M  V30 1393 H 145.019 2.87417 -2.02693 0
M  V30 1394 H 144.893 3.73807 -0.504771 0
M  V30 1395 H 147.28 2.94941 0.0967067 0
M  V30 1396 H 147.361 2.10364 -1.45536 0
M  V30 1397 H 147.005 4.32672 -2.66002 0
M  V30 1398 H 146.935 5.15334 -1.08344 0
M  V30 1399 H 149.426 3.59397 -1.16801 0
M  V30 1400 H 149.739 7.13225 -2.97539 0
M  V30 1401 H 148.084 6.4169 -2.66943 0
M  V30 1402 H 151.275 4.42504 -1.52669 0
M  V30 1403 H 151.448 6.03861 -2.35066 0
M  V30 1404 N 144.854 0.36279 1.53368 0
M  V30 1405 C 145.802 -0.500155 2.27159 0
M  V30 1406 C 146.796 -1.08575 1.3003 0
M  V30 1407 O 148.002 -1.02927 1.47668 0
M  V30 1408 H 144.377 -0.180009 0.730138 0
M  V30 1409 H 146.348 0.14401 2.98052 0
M  V30 1410 C 145.097 -1.62937 3.07159 0
M  V30 1411 H 144.42 -1.18806 3.8174 0
M  V30 1412 H 145.86 -2.20795 3.61975 0
M  V30 1413 C 144.319 -2.57007 2.17829 0
M  V30 1414 O 144.849 -3.59752 1.78721 0
M  V30 1415 N 143.055 -2.26131 1.82518 0
M  V30 1416 H 142.602 -1.42616 2.14519 0
M  V30 1417 H 142.56 -2.89327 1.23034 0
M  V30 1418 N 146.332 -1.57332 0.0918853 0
M  V30 1419 C 147.262 -2.16872 -0.865371 0
M  V30 1420 C 148.243 -1.10118 -1.29646 0
M  V30 1421 O 149.428 -1.38242 -1.36392 0
M  V30 1422 C 146.558 -2.74649 -2.12569 0
M  V30 1423 C 145.512 -3.86747 -1.83333 0
M  V30 1424 C 144.838 -4.31212 -3.16166 0
M  V30 1425 C 146.138 -5.10089 -1.1228 0
M  V30 1426 H 147.832 -2.97114 -0.369307 0
M  V30 1427 H 145.378 -1.42918 -0.176194 0
M  V30 1428 H 147.331 -3.14952 -2.7997 0
M  V30 1429 H 146.055 -1.91657 -2.64452 0
M  V30 1430 H 144.714 -3.46978 -1.18331 0
M  V30 1431 H 144.362 -3.45115 -3.6593 0
M  V30 1432 H 144.062 -5.06788 -2.97388 0
M  V30 1433 H 145.586 -4.74146 -3.84731 0
M  V30 1434 H 147 -5.47582 -1.69785 0
M  V30 1435 H 145.397 -5.91073 -1.03693 0
M  V30 1436 H 146.467 -4.84786 -0.105041 0
M  V30 1437 N 147.81 0.181792 -1.56548 0
M  V30 1438 C 148.742 1.24956 -1.92142 0
M  V30 1439 C 149.755 1.41022 -0.813422 0
M  V30 1440 O 150.944 1.41212 -1.09186 0
M  V30 1441 C 148.044 2.61981 -2.14987 0
M  V30 1442 C 147.217 2.6735 -3.46183 0
M  V30 1443 C 146.276 3.85664 -3.5798 0
M  V30 1444 O 145.302 3.72148 -4.30691 0
M  V30 1445 N 146.504 5.01683 -2.92053 0
M  V30 1446 H 149.269 0.947329 -2.84334 0
M  V30 1447 H 146.83 0.371629 -1.57577 0
M  V30 1448 H 148.822 3.3958 -2.20154 0
M  V30 1449 H 147.392 2.84637 -1.2923 0
M  V30 1450 H 146.612 1.75925 -3.52766 0
M  V30 1451 H 147.9 2.67939 -4.32534 0
M  V30 1452 H 147.298 5.15564 -2.32832 0
M  V30 1453 H 145.855 5.77181 -3.0283 0
M  V30 1454 N 149.288 1.51039 0.449983 0
M  V30 1455 C 150.251 1.70863 1.5277 0
M  V30 1456 C 151.251 0.578846 1.5002 0
M  V30 1457 O 152.441 0.846213 1.52266 0
M  V30 1458 C 149.573 1.75341 2.9235 0
M  V30 1459 H 150.766 2.67034 1.36502 0
M  V30 1460 H 148.319 1.40838 0.677812 0
M  V30 1461 H 149.054 0.809383 3.14037 0
M  V30 1462 H 148.839 2.57436 2.95752 0
M  V30 1463 H 150.329 1.92559 3.70555 0
M  V30 1464 N 150.766 -0.704594 1.40972 0
M  V30 1465 C 151.991 -1.49858 1.43378 0
M  V30 1466 C 152.416 -1.88061 0.038184 0
M  V30 1467 O 151.774 -1.5402 -0.956425 0
M  V30 1468 C 151.822 -2.74333 2.34038 0
M  V30 1469 O 150.926 -3.7147 1.7912 0
M  V30 1470 H 150.267 -0.45139 0.486974 0
M  V30 1471 H 152.797 -0.866832 1.8533 0
M  V30 1472 H 152.807 -3.22741 2.49604 0
M  V30 1473 H 151.482 -2.45863 3.35446 0
M  V30 1474 H 150.059 -3.30363 1.72958 0
M  V30 1475 N 152.244 -1.26651 -0.937939 0
M  V30 1476 C 153.469 -1.15279 -1.72411 0
M  V30 1477 C 153.894 0.287866 -1.85884 0
M  V30 1478 O 153.252 1.20855 -1.35143 0
M  V30 1479 C 153.3 -1.83028 -3.10698 0
M  V30 1480 O 152.404 -1.12128 -3.96864 0
M  V30 1481 H 151.745 -0.401504 -0.528858 0
M  V30 1482 H 154.275 -1.67531 -1.1745 0
M  V30 1483 H 154.285 -1.89981 -3.6107 0
M  V30 1484 H 152.96 -2.87833 -3.00208 0
M  V30 1485 H 151.537 -1.13173 -3.55312 0
M  V30 1486 N 153.722 1.14298 -1.08507 0
M  V30 1487 C 154.95 1.89219 -0.836876 0
M  V30 1488 C 155.365 1.78638 0.611054 0
M  V30 1489 O 154.722 1.14643 1.41998 0
M  V30 1490 C 154.773 3.39158 -1.25116 0
M  V30 1491 O 154.494 3.49449 -2.64229 0
M  V30 1492 C 155.995 4.31073 -1.03398 0
M  V30 1493 H 153.215 0.599328 -0.301739 0
M  V30 1494 H 155.759 1.44746 -1.44461 0
M  V30 1495 H 153.914 3.81251 -0.687514 0
M  V30 1496 H 154.328 4.42589 -2.81452 0
M  V30 1497 H 155.802 5.34646 -1.37323 0
M  V30 1498 H 156.279 4.3919 0.0289259 0
M  V30 1499 H 156.885 3.94738 -1.58311 0
M  V30 1500 N 155.201 0.870884 1.31352 0
M  V30 1501 C 156.449 0.48132 1.96285 0
M  V30 1502 C 156.77 -0.969813 1.69173 0
M  V30 1503 O 156.04 -1.67998 1.00764 0
M  V30 1504 H 154.62 0.175002 0.726212 0
M  V30 1505 H 157.282 1.11087 1.60143 0
M  V30 1506 H 156.378 0.639825 3.05471 0
M  V30 1507 N 156.679 -1.44442 0.630414 0
M  V30 1508 C 157.609 -2.33418 -0.0618083 0
M  V30 1509 C 158.59 -1.48165 -0.835541 0
M  V30 1510 O 159.775 -1.76886 -0.801564 0
M  V30 1511 C 156.905 -3.31222 -1.04449 0
M  V30 1512 C 155.859 -4.26288 -0.382436 0
M  V30 1513 C 155.185 -5.13954 -1.47497 0
M  V30 1514 C 156.485 -5.1744 0.710865 0
M  V30 1515 H 158.179 -2.91548 0.681184 0
M  V30 1516 H 155.725 -1.40191 0.329026 0
M  V30 1517 H 157.678 -3.92351 -1.53748 0
M  V30 1518 H 156.402 -2.71299 -1.81836 0
M  V30 1519 H 155.061 -3.6649 0.0899054 0
M  V30 1520 H 154.709 -4.50385 -2.2397 0
M  V30 1521 H 154.409 -5.7837 -1.03737 0
M  V30 1522 H 155.933 -5.77955 -1.96979 0
M  V30 1523 H 157.347 -5.72509 0.300996 0
M  V30 1524 H 155.744 -5.90455 1.07156 0
M  V30 1525 H 156.814 -4.58496 1.57829 0
M  V30 1526 N 158.157 -0.370918 -1.53173 0
M  V30 1527 C 159.089 0.507823 -2.23503 0
M  V30 1528 C 160.102 1.04182 -1.251 0
M  V30 1529 O 161.291 0.947286 -1.5129 0
M  V30 1530 C 158.391 1.71447 -2.92334 0
M  V30 1531 C 157.564 1.31105 -4.17289 0
M  V30 1532 C 156.623 2.38035 -4.69282 0
M  V30 1533 O 155.649 2.00204 -5.32829 0
M  V30 1534 N 156.851 3.69697 -4.47554 0
M  V30 1535 H 159.616 -0.0946382 -2.99551 0
M  V30 1536 H 157.177 -0.196358 -1.60705 0
M  V30 1537 H 159.169 2.42469 -3.24023 0
M  V30 1538 H 157.739 2.22368 -2.19707 0
M  V30 1539 H 156.959 0.430462 -3.91843 0
M  V30 1540 H 158.247 1.0179 -4.98514 0
M  V30 1541 H 157.645 4.03205 -3.9679 0
M  V30 1542 H 156.202 4.36807 -4.8378 0
M  V30 1543 N 159.635 1.57281 -0.100228 0
M  V30 1544 C 160.875 1.96419 0.56558 0
M  V30 1545 C 161.239 0.981265 1.65031 0
M  V30 1546 O 162.44 1.26133 2.37369 0
M  V30 1547 C 160.711 3.39996 1.10171 0
M  V30 1548 S 162.27 4.01134 1.77867 0
M  V30 1549 H 159.088 0.68667 0.184406 0
M  V30 1550 H 161.69 1.94662 -0.180851 0
M  V30 1551 H 160.394 4.09296 0.300803 0
M  V30 1552 H 159.925 3.45361 1.88385 0
M  V30 1553 H 161.94 3.90358 3.06326 0
M  V30 1554 N 161.113 -0.173488 1.56642 0
M  V30 1555 C 162.343 -0.904781 1.85734 0
M  V30 1556 C 162.751 -1.76431 0.68328 0
M  V30 1557 O 162.094 -1.802 -0.356865 0
M  V30 1558 C 162.156 -1.83382 3.09211 0
M  V30 1559 C 161.82 -1.15411 4.42187 0
M  V30 1560 C 162.817 -0.520609 5.17287 0
M  V30 1561 C 160.502 -1.15151 4.88923 0
M  V30 1562 C 162.496 0.106412 6.37311 0
M  V30 1563 C 160.183 -0.520664 6.08878 0
M  V30 1564 C 161.181 0.107196 6.82916 0
M  V30 1565 O 160.869 0.728102 8.00596 0
M  V30 1566 H 160.601 -0.268408 0.62043 0
M  V30 1567 H 163.155 -0.179096 2.04618 0
M  V30 1568 H 161.385 -2.59976 2.86268 0
M  V30 1569 H 163.074 -2.43476 3.24768 0
M  V30 1570 H 163.84 -0.514606 4.82262 0
M  V30 1571 H 159.719 -1.62961 4.31236 0
M  V30 1572 H 163.263 0.597081 6.9504 0
M  V30 1573 H 159.16 -0.524242 6.43368 0
M  V30 1574 H 159.928 0.627138 8.16094 0
M  V30 1575 N 162.591 -1.51276 -0.441967 0
M  V30 1576 C 163.821 -1.67273 -1.21257 0
M  V30 1577 C 164.229 -0.367624 -1.85594 0
M  V30 1578 O 163.572 0.663349 -1.71305 0
M  V30 1579 C 163.634 -2.72807 -2.34129 0
M  V30 1580 C 163.298 -4.1554 -1.90198 0
M  V30 1581 C 164.295 -5.00471 -1.40801 0
M  V30 1582 C 161.98 -4.61616 -1.9803 0
M  V30 1583 C 163.974 -6.29536 -0.998174 0
M  V30 1584 C 161.661 -5.90679 -1.56658 0
M  V30 1585 C 162.659 -6.74466 -1.07633 0
M  V30 1586 O 162.347 -8.01116 -0.668459 0
M  V30 1587 H 162.079 -0.564614 -0.371734 0
M  V30 1588 H 164.633 -1.9843 -0.530521 0
M  V30 1589 H 162.863 -2.36954 -3.05597 0
M  V30 1590 H 164.552 -2.77729 -2.96009 0
M  V30 1591 H 165.318 -4.66079 -1.34148 0
M  V30 1592 H 161.197 -3.96526 -2.35135 0
M  V30 1593 H 164.741 -6.94885 -0.61482 0
M  V30 1594 H 160.638 -6.24586 -1.62979 0
M  V30 1595 H 161.406 -8.14633 -0.794722 0
M  V30 1596 N 164.069 0.697108 -1.41344 0
M  V30 1597 C 165.315 1.4593 -1.40827 0
M  V30 1598 C 165.648 1.94193 -0.0167098 0
M  V30 1599 O 164.923 1.69425 0.955263 0
M  V30 1600 C 165.206 2.67229 -2.41373 0
M  V30 1601 C 165.059 2.24741 -3.8963 0
M  V30 1602 C 166.378 3.69423 -2.39196 0
M  V30 1603 H 163.497 0.529303 -0.512842 0
M  V30 1604 H 166.139 0.794112 -1.72609 0
M  V30 1605 H 164.289 3.23982 -2.14401 0
M  V30 1606 H 165.961 1.73327 -4.27499 0
M  V30 1607 H 164.204 1.56542 -4.0457 0
M  V30 1608 H 164.875 3.1177 -4.55525 0
M  V30 1609 H 167.351 3.2234 -2.63128 0
M  V30 1610 H 166.227 4.51907 -3.11563 0
M  V30 1611 H 166.488 4.19012 -1.41001 0
M  V30 1612 N 165.547 1.27147 0.931209 0
M  V30 1613 C 166.777 1.15914 1.71019 0
M  V30 1614 C 167.185 -0.287112 1.87009 0
M  V30 1615 O 166.528 -1.20761 1.38429 0
M  V30 1616 C 166.59 1.76647 3.13107 0
M  V30 1617 C 166.254 3.25807 3.20467 0
M  V30 1618 C 167.251 4.22489 3.02983 0
M  V30 1619 C 164.936 3.66452 3.43538 0
M  V30 1620 C 166.93 5.57794 3.08454 0
M  V30 1621 C 164.617 5.01888 3.48643 0
M  V30 1622 C 165.615 5.97369 3.31119 0
M  V30 1623 O 165.303 7.30337 3.35952 0
M  V30 1624 H 165.035 0.404062 0.54195 0
M  V30 1625 H 167.589 1.68457 1.17521 0
M  V30 1626 H 165.819 1.18578 3.68071 0
M  V30 1627 H 167.508 1.60179 3.72958 0
M  V30 1628 H 168.274 3.92425 2.85004 0
M  V30 1629 H 164.153 2.92611 3.5623 0
M  V30 1630 H 167.697 6.32298 2.94694 0
M  V30 1631 H 163.594 5.31609 3.66145 0
M  V30 1632 H 164.362 7.38739 3.5243 0
M  V30 1633 N 167.025 -1.13721 1.09112 0
M  V30 1634 C 168.302 -1.81155 0.737706 0
M  V30 1635 C 168.682 -1.96253 -0.777683 0
M  V30 1636 O 168.03 -1.52807 -1.69889 0
M  V30 1637 C 168.24 -3.16392 1.47299 0
M  V30 1638 C 169.588 -3.91787 1.63671 0
M  V30 1639 O 170.612 -3.26005 1.43524 0
M  V30 1640 O 169.471 -5.0977 1.96969 0
M  V30 1641 H 166.565 -0.783518 0.26463 0
M  V30 1642 H 169.111 -1.20676 1.19312 0
M  V30 1643 H 167.883 -3.0061 2.50498 0
M  V30 1644 H 167.506 -3.8457 1.00953 0
M  V30 1645 N 168.503 -0.877838 -1.30888 0
M  V30 1646 C 169.453 -0.310872 -2.25871 0
M  V30 1647 C 170.437 0.556596 -1.50966 0
M  V30 1648 O 171.629 0.402187 -1.7237 0
M  V30 1649 C 168.758 0.479821 -3.3993 0
M  V30 1650 C 167.844 -0.401333 -4.22197 0
M  V30 1651 N 168.235 -1.49848 -4.83093 0
M  V30 1652 C 166.533 -0.195167 -4.45573 0
M  V30 1653 C 167.234 -2.0425 -5.44662 0
M  V30 1654 N 166.21 -1.33843 -5.26865 0
M  V30 1655 H 170.012 -1.1493 -2.70496 0
M  V30 1656 H 167.526 -0.726458 -1.45246 0
M  V30 1657 H 169.523 0.902582 -4.07012 0
M  V30 1658 H 168.183 1.31577 -2.96846 0
M  V30 1659 H 169.194 -1.88137 -4.82519 0
M  V30 1660 H 165.871 0.604192 -4.13105 0
M  V30 1661 H 167.261 -2.96345 -6.03017 0
M  V30 1662 N 169.982 1.44106 -0.638065 0
M  V30 1663 C 171.207 2.0685 -0.150916 0
M  V30 1664 C 171.632 1.47417 1.16833 0
M  V30 1665 O 170.99 0.578264 1.71831 0
M  V30 1666 C 171.038 3.60555 -0.05708 0
M  V30 1667 O 170.142 4.00465 0.984972 0
M  V30 1668 H 169.483 0.658151 -0.0879399 0
M  V30 1669 H 172.013 1.84865 -0.876707 0
M  V30 1670 H 172.023 4.07789 0.131232 0
M  V30 1671 H 170.698 4.03193 -1.02021 0
M  V30 1672 H 169.275 3.64849 0.770672 0
M  V30 1673 N 171.46 0.379036 1.52974 0
M  V30 1674 C 172.708 -0.206014 2.01047 0
M  V30 1675 C 173.029 -1.48175 1.26765 0
M  V30 1676 O 172.299 -1.92085 0.384743 0
M  V30 1677 H 170.879 -0.0791184 0.742798 0
M  V30 1678 H 173.541 0.508366 1.88153 0
M  V30 1679 H 172.637 -0.423501 3.09213 0
M  V30 1680 N 172.938 -1.57226 0.108567 0
M  V30 1681 C 173.848 -2.18292 -0.859401 0
M  V30 1682 C 174.864 -1.15612 -1.30038 0
M  V30 1683 O 176.04 -1.48039 -1.36552 0
M  V30 1684 C 173.105 -2.762 -2.09558 0
M  V30 1685 C 172.166 -3.93881 -1.70752 0
M  V30 1686 C 171.399 -4.49018 -2.88477 0
M  V30 1687 O 171.622 -4.03068 -4.036 0
M  V30 1688 O 170.556 -5.39852 -2.66164 0
M  V30 1689 H 174.382 -3.01441 -0.369769 0
M  V30 1690 H 171.967 -1.48945 -0.1165 0
M  V30 1691 H 173.849 -3.13156 -2.81978 0
M  V30 1692 H 172.524 -1.96089 -2.57548 0
M  V30 1693 H 171.431 -3.61713 -0.954714 0
M  V30 1694 H 172.764 -4.75396 -1.27513 0
M  V30 1695 N 174.416 0.165178 -1.56732 0
M  V30 1696 C 175.379 1.18822 -1.95995 0
M  V30 1697 C 176.379 1.3685 -0.84431 0
M  V30 1698 O 177.569 1.34152 -1.11126 0
M  V30 1699 C 174.701 2.5521 -2.26011 0
M  V30 1700 H 175.894 0.851825 -2.87548 0
M  V30 1701 H 173.447 0.407857 -1.50885 0
M  V30 1702 H 174.182 2.93852 -1.37191 0
M  V30 1703 H 173.967 2.43489 -3.07336 0
M  V30 1704 H 175.457 3.28927 -2.57288 0
M  V30 1705 N 175.894 1.51508 0.433938 0
M  V30 1706 C 177.14 1.64588 1.18484 0
M  V30 1707 C 177.473 0.362666 1.90784 0
M  V30 1708 O 176.748 -0.637892 1.83742 0
M  V30 1709 C 177.031 2.85149 2.19913 0
M  V30 1710 C 176.884 4.23456 1.51674 0
M  V30 1711 C 178.203 3.01227 3.20858 0
M  V30 1712 H 175.322 0.598994 0.429389 0
M  V30 1713 H 177.964 1.84002 0.473647 0
M  V30 1714 H 176.114 2.68729 2.80566 0
M  V30 1715 H 177.786 4.51552 0.943322 0
M  V30 1716 H 176.029 4.25998 0.819035 0
M  V30 1717 H 176.7 5.03812 2.2556 0
M  V30 1718 H 179.176 3.16382 2.70263 0
M  V30 1719 H 178.052 3.87141 3.89118 0
M  V30 1720 H 178.313 2.13447 3.8716 0
M  V30 1721 N 177.372 -0.689602 1.41712 0
M  V30 1722 C 178.319 -1.80345 1.44029 0
M  V30 1723 C 179.289 -1.63478 0.293948 0
M  V30 1724 O 180.474 -1.84244 0.495869 0
M  V30 1725 C 177.614 -3.18272 1.33405 0
M  V30 1726 C 176.727 -3.46529 2.57956 0
M  V30 1727 C 175.862 -4.74103 2.39582 0
M  V30 1728 C 174.901 -4.95347 3.5958 0
M  V30 1729 N 174.038 -6.14151 3.40239 0
M  V30 1730 H 178.878 -1.77698 2.39222 0
M  V30 1731 H 176.415 -0.867688 1.18784 0
M  V30 1732 H 178.373 -3.97956 1.25246 0
M  V30 1733 H 177.003 -3.2008 0.418164 0
M  V30 1734 H 176.055 -2.61207 2.76542 0
M  V30 1735 H 177.367 -3.58126 3.47199 0
M  V30 1736 H 176.521 -5.61853 2.28924 0
M  V30 1737 H 175.26 -4.64763 1.47805 0
M  V30 1738 H 174.265 -4.06044 3.70686 0
M  V30 1739 H 175.49 -5.06542 4.52318 0
M  V30 1740 H 173.436 -6.06013 2.51167 0
M  V30 1741 H 173.353 -6.26543 4.23061 0
M  V30 1742 H 174.621 -7.04619 3.33365 0
M  V30 1743 N 178.85 -1.27639 -0.924453 0
M  V30 1744 C 180.098 -1.13941 -1.66918 0
M  V30 1745 C 180.419 0.314589 -1.92446 0
M  V30 1746 O 179.689 1.21964 -1.53303 0
M  V30 1747 H 178.269 -0.418678 -0.618642 0
M  V30 1748 H 180.931 -1.60213 -1.10985 0
M  V30 1749 H 180.027 -1.67094 -2.63602 0
M  V30 1750 N 180.328 1.1314 -1.09713 0
M  V30 1751 C 181.577 1.83838 -0.829851 0
M  V30 1752 C 181.89 1.84599 0.646728 0
M  V30 1753 O 183.096 2.51218 1.02965 0
M  V30 1754 C 181.552 3.30069 -1.43466 0
M  V30 1755 C 181.16 3.37688 -2.94399 0
M  V30 1756 C 182.904 4.05788 -1.24645 0
M  V30 1757 C 180.811 4.78209 -3.47952 0
M  V30 1758 H 179.741 0.68877 -0.306777 0
M  V30 1759 H 182.392 1.27448 -1.3202 0
M  V30 1760 H 180.774 3.8628 -0.871996 0
M  V30 1761 H 181.948 2.91456 -3.56918 0
M  V30 1762 H 180.263 2.75436 -3.12289 0
M  V30 1763 H 182.86 5.09535 -1.62107 0
M  V30 1764 H 183.203 4.15878 -0.187357 0
M  V30 1765 H 183.736 3.55915 -1.77678 0
M  V30 1766 H 180.475 4.73311 -4.53495 0
M  V30 1767 H 179.995 5.24924 -2.90198 0
M  V30 1768 H 181.674 5.47133 -3.45332 0
M  V30 1769 N 181.806 0.884767 1.30421 0
M  V30 1770 C 182.738 0.308655 2.27112 0
M  V30 1771 C 183.751 -0.536655 1.53701 0
M  V30 1772 O 184.94 -0.35624 1.74909 0
M  V30 1773 C 182.04 -0.579782 3.33904 0
M  V30 1774 C 181.213 0.236417 4.36761 0
M  V30 1775 C 180.272 -0.582482 5.22966 0
M  V30 1776 O 179.298 -0.00525502 5.692 0
M  V30 1777 N 180.5 -1.89163 5.48815 0
M  V30 1778 H 183.265 1.13964 2.77186 0
M  V30 1779 H 180.826 0.747731 1.43599 0
M  V30 1780 H 182.818 -1.13366 3.88497 0
M  V30 1781 H 181.388 -1.31144 2.83761 0
M  V30 1782 H 180.608 0.97174 3.82035 0
M  V30 1783 H 181.896 0.795924 5.02536 0
M  V30 1784 H 181.294 -2.38352 5.13035 0
M  V30 1785 H 179.851 -2.39296 6.06284 0
M  V30 1786 N 183.284 -1.43765 0.645699 0
M  V30 1787 C 184.561 -1.9541 0.0862963 0
M  V30 1788 C 184.941 -1.58725 -1.39175 0
M  V30 1789 O 184.289 -0.868581 -2.11348 0
M  V30 1790 C 184.499 -3.47488 0.324565 0
M  V30 1791 C 185.847 -4.24001 0.225497 0
M  V30 1792 O 186.871 -3.55274 0.256715 0
M  V30 1793 O 185.73 -5.46313 0.142801 0
M  V30 1794 H 182.824 -0.826882 -0.0139483 0
M  V30 1795 H 185.37 -1.53743 0.718415 0
M  V30 1796 H 184.142 -3.67289 1.3496 0
M  V30 1797 H 183.765 -3.96135 -0.340987 0
M  V30 1798 N 184.763 -0.387143 -1.52771 0
M  V30 1799 C 185.726 0.436939 -2.24997 0
M  V30 1800 C 186.726 0.991991 -1.26555 0
M  V30 1801 O 187.916 0.874335 -1.50669 0
M  V30 1802 C 185.048 1.61281 -3.00335 0
M  V30 1803 H 186.241 -0.195365 -2.99263 0
M  V30 1804 H 183.794 -0.139218 -1.55679 0
M  V30 1805 H 184.529 2.2826 -2.30364 0
M  V30 1806 H 184.314 1.22154 -3.72587 0
M  V30 1807 H 185.804 2.19629 -3.5518 0
M  V30 1808 N 186.241 1.57166 -0.116904 0
M  V30 1809 C 187.518 1.86645 0.585049 0
M  V30 1810 C 187.898 1.0177 1.84949 0
M  V30 1811 O 187.246 0.0960379 2.28298 0
M  V30 1812 C 187.456 3.37736 0.879507 0
M  V30 1813 C 188.804 4.06289 1.23348 0
M  V30 1814 O 189.828 3.42743 0.969836 0
M  V30 1815 O 188.687 5.18455 1.7282 0
M  V30 1816 H 185.781 0.772593 0.295007 0
M  V30 1817 H 188.327 1.69025 -0.151249 0
M  V30 1818 H 187.099 3.91296 -0.0166136 0
M  V30 1819 H 186.722 3.6078 1.67103 0
M  V30 1820 N 187.719 -0.156864 1.56817 0
M  V30 1821 C 188.944 -0.890331 1.87318 0
M  V30 1822 C 189.369 -1.74394 0.704855 0
M  V30 1823 O 188.727 -1.77972 -0.345786 0
M  V30 1824 C 188.775 -1.73102 3.16336 0
M  V30 1825 O 187.879 -2.83422 2.99576 0
M  V30 1826 H 187.22 -0.24857 0.615718 0
M  V30 1827 H 189.75 -0.150649 2.04045 0
M  V30 1828 H 189.76 -2.12803 3.48107 0
M  V30 1829 H 188.435 -1.10412 4.00976 0
M  V30 1830 H 187.012 -2.47199 2.7919 0
M  V30 1831 N 189.197 -1.51736 -0.425897 0
M  V30 1832 C 190.446 -1.64201 -1.17136 0
M  V30 1833 C 190.759 -0.369705 -1.92074 0
M  V30 1834 O 191.965 -0.373898 -2.68913 0
M  V30 1835 C 190.421 -2.90035 -2.13091 0
M  V30 1836 C 190.029 -4.24312 -1.43747 0
M  V30 1837 C 191.773 -3.1186 -2.87999 0
M  V30 1838 C 189.68 -5.41285 -2.38253 0
M  V30 1839 H 188.61 -0.611624 -0.440944 0
M  V30 1840 H 191.261 -1.78212 -0.437328 0
M  V30 1841 H 189.643 -2.69684 -2.89977 0
M  V30 1842 H 190.817 -4.55086 -0.723408 0
M  V30 1843 H 189.132 -4.08456 -0.809465 0
M  V30 1844 H 191.729 -3.96427 -3.58817 0
M  V30 1845 H 192.072 -2.25403 -3.49999 0
M  V30 1846 H 192.605 -3.32605 -2.18217 0
M  V30 1847 H 189.344 -6.30037 -1.80925 0
M  V30 1848 H 188.864 -5.14872 -3.0768 0
M  V30 1849 H 190.543 -5.73694 -2.99139 0
M  V30 1850 N 190.675 0.682077 -1.42076 0
M  V30 1851 C 191.608 1.80666 -1.3941 0
M  V30 1852 C 192.586 1.60518 -0.25939 0
M  V30 1853 O 193.77 1.83088 -0.448456 0
M  V30 1854 C 190.897 3.17556 -1.17796 0
M  V30 1855 C 189.943 3.56468 -2.34164 0
M  V30 1856 S 190.776 3.59729 -3.96681 0
M  V30 1857 C 191.932 4.99323 -3.77395 0
M  V30 1858 H 192.165 1.82652 -2.34575 0
M  V30 1859 H 189.698 0.852062 -1.2876 0
M  V30 1860 H 191.656 3.96575 -1.06012 0
M  V30 1861 H 190.317 3.13164 -0.242279 0
M  V30 1862 H 189.51 4.5595 -2.1477 0
M  V30 1863 H 189.112 2.84792 -2.42425 0
M  V30 1864 H 191.404 5.87202 -3.37935 0
M  V30 1865 H 192.347 5.23763 -4.76527 0
M  V30 1866 H 192.755 4.71498 -3.10403 0
M  V30 1867 N 192.153 1.28127 0.917671 0
M  V30 1868 C 193.399 1.15223 1.66888 0
M  V30 1869 C 193.732 -0.299293 1.9188 0
M  V30 1870 O 193.007 -1.21805 1.51637 0
M  V30 1871 C 193.29 1.94706 3.02922 0
M  V30 1872 C 193.143 3.47898 2.85109 0
M  V30 1873 C 194.462 1.75939 4.03402 0
M  V30 1874 H 191.581 0.419946 0.605652 0
M  V30 1875 H 194.223 1.57398 1.06423 0
M  V30 1876 H 192.373 1.58864 3.54534 0
M  V30 1877 H 194.045 3.93624 2.40537 0
M  V30 1878 H 192.288 3.7373 2.20246 0
M  V30 1879 H 192.959 3.98765 3.81694 0
M  V30 1880 H 195.435 2.07209 3.60837 0
M  V30 1881 H 194.311 2.33931 4.96556 0
M  V30 1882 H 194.572 0.709877 4.36364 0
M  V30 1883 N 193.631 -1.12557 1.10312 0
M  V30 1884 C 194.563 -2.17971 0.708625 0
M  V30 1885 C 195.576 -1.60806 -0.254027 0
M  V30 1886 O 196.765 -1.78458 -0.0386891 0
M  V30 1887 C 193.865 -3.38891 0.0248198 0
M  V30 1888 C 193.038 -4.25548 1.01132 0
M  V30 1889 C 192.097 -5.24972 0.35924 0
M  V30 1890 O 191.123 -5.60174 1.00965 0
M  V30 1891 N 192.325 -5.73747 -0.882847 0
M  V30 1892 H 195.09 -2.52427 1.61557 0
M  V30 1893 H 192.651 -1.27967 0.991771 0
M  V30 1894 H 194.643 -4.02485 -0.422852 0
M  V30 1895 H 193.213 -3.02596 -0.784514 0
M  V30 1896 H 192.433 -3.58589 1.6373 0
M  V30 1897 H 193.721 -4.80294 1.67914 0
M  V30 1898 H 193.119 -5.4731 -1.43065 0
M  V30 1899 H 191.676 -6.39234 -1.27369 0
M  V30 1900 N 195.109 -0.891671 -1.2995 0
M  V30 1901 C 196.334 -0.527932 -2.00568 0
M  V30 1902 C 196.759 0.877969 -1.66353 0
M  V30 1903 O 196.117 1.58301 -0.883762 0
M  V30 1904 C 196.165 -0.717745 -3.53385 0
M  V30 1905 O 195.269 0.233376 -4.11739 0
M  V30 1906 H 194.61 -0.20722 -0.630837 0
M  V30 1907 H 197.14 -1.20105 -1.65638 0
M  V30 1908 H 197.15 -0.619307 -4.03272 0
M  V30 1909 H 195.825 -1.74276 -3.77625 0
M  V30 1910 H 194.402 0.0880706 -3.72796 0
M  V30 1911 N 196.587 1.43421 -0.653314 0
M  V30 1912 C 197.835 2.01414 -0.166415 0
M  V30 1913 C 198.156 1.51803 1.22397 0
M  V30 1914 O 197.426 0.730693 1.81763 0
M  V30 1915 H 196.006 0.744703 -0.0585319 0
M  V30 1916 H 198.668 1.75629 -0.845003 0
M  V30 1917 H 197.764 3.11734 -0.151111 0
M  V30 1918 N 198.065 0.39524 1.52563 0
M  V30 1919 C 198.995 -0.428384 2.29537 0
M  V30 1920 C 199.976 -1.05831 1.33169 0
M  V30 1921 O 201.161 -1.06995 1.62067 0
M  V30 1922 C 198.291 -1.55274 3.10656 0
M  V30 1923 C 197.245 -1.04855 4.14957 0
M  V30 1924 C 196.571 -2.26543 4.84337 0
M  V30 1925 C 197.871 -0.112324 5.22179 0
M  V30 1926 H 199.565 0.213867 2.98635 0
M  V30 1927 H 197.111 0.104298 1.43622 0
M  V30 1928 H 199.064 -2.1358 3.63265 0
M  V30 1929 H 197.788 -2.22266 2.39302 0
M  V30 1930 H 196.447 -0.487985 3.63338 0
M  V30 1931 H 196.095 -2.92059 4.09525 0
M  V30 1932 H 195.795 -1.93466 5.54837 0
M  V30 1933 H 197.319 -2.85481 5.39753 0
M  V30 1934 H 198.733 -0.603752 5.70112 0
M  V30 1935 H 197.13 0.128968 5.99961 0
M  V30 1936 H 198.2 0.837052 4.77621 0
M  V30 1937 N 199.544 -1.57102 0.125237 0
M  V30 1938 C 200.821 -1.86953 -0.575142 0
M  V30 1939 C 201.201 -1.02749 -1.84407 0
M  V30 1940 O 200.549 -0.108144 -2.28244 0
M  V30 1941 C 200.759 -3.38198 -0.861583 0
M  V30 1942 C 202.107 -4.06937 -1.21192 0
M  V30 1943 O 203.131 -3.43252 -0.951645 0
M  V30 1944 O 201.99 -5.19364 -1.70068 0
M  V30 1945 H 199.084 -0.774147 -0.290906 0
M  V30 1946 H 201.63 -1.68942 0.160211 0
M  V30 1947 H 200.402 -3.91282 0.0373647 0
M  V30 1948 H 200.025 -3.61661 -1.65188 0
M  V30 1949 N 201.022 0.148545 -1.56898 0
M  V30 1950 C 202.27 0.859717 -1.82902 0
M  V30 1951 C 202.591 1.81775 -0.70588 0
M  V30 1952 O 201.861 1.93994 0.272586 0
M  V30 1953 H 200.441 0.320469 -0.674766 0
M  V30 1954 H 203.103 0.142918 -1.94375 0
M  V30 1955 H 202.199 1.4229 -2.77777 0
M  V30 1956 N 202.5 1.5196 0.417844 0
M  V30 1957 C 203.777 1.56146 1.17803 0
M  V30 1958 C 204.157 0.337275 2.08388 0
M  V30 1959 O 203.505 -0.676447 2.18258 0
M  V30 1960 C 203.715 2.88566 1.96293 0
M  V30 1961 C 205.063 3.41244 2.52662 0
M  V30 1962 O 206.087 2.90247 2.06483 0
M  V30 1963 O 204.946 4.30273 3.36938 0
M  V30 1964 H 202.04 0.628598 0.537395 0
M  V30 1965 H 204.586 1.64283 0.425331 0
M  V30 1966 H 203.358 3.69116 1.2988 0
M  V30 1967 H 202.981 2.83681 2.78587 0
M  V30 1968 N 203.978 -0.674533 1.42435 0
M  V30 1969 C 205.203 -1.46784 1.46524 0
M  V30 1970 C 205.628 -1.87938 0.078066 0
M  V30 1971 O 204.986 -1.56014 -0.92354 0
M  V30 1972 C 205.034 -2.69307 2.39805 0
M  V30 1973 O 204.138 -3.67587 1.86959 0
M  V30 1974 H 203.479 -0.440959 0.496439 0
M  V30 1975 H 206.009 -0.827326 1.87127 0
M  V30 1976 H 206.019 -3.17374 2.56393 0
M  V30 1977 H 204.694 -2.38692 3.40586 0
M  V30 1978 H 203.271 -3.2662 1.79927 0
M  V30 1979 N 205.456 -1.28612 -0.910864 0
M  V30 1980 C 206.684 -1.18792 -1.69399 0
M  V30 1981 C 207.099 0.253039 -1.87097 0
M  V30 1982 O 206.456 1.17071 -1.40003 0
M  V30 1983 C 206.507 -1.88511 -3.08457 0
M  V30 1984 O 206.228 -3.26979 -2.91576 0
M  V30 1985 C 207.729 -1.85029 -4.02839 0
M  V30 1986 H 204.949 -0.412233 -0.529438 0
M  V30 1987 H 207.493 -1.69788 -1.13984 0
M  V30 1988 H 205.648 -1.41379 -3.60681 0
M  V30 1989 H 206.062 -3.61936 -3.79608 0
M  V30 1990 H 207.536 -2.38395 -4.97867 0
M  V30 1991 H 208.013 -0.823303 -4.31414 0
M  V30 1992 H 208.619 -2.31853 -3.56545 0
M  V30 1993 N 206.934 1.1197 -1.10907 0
M  V30 1994 C 207.864 2.19928 -0.784473 0
M  V30 1995 C 208.845 1.6833 0.244726 0
M  V30 1996 O 210.03 1.93892 0.109418 0
M  V30 1997 C 207.16 3.46597 -0.220827 0
M  V30 1998 C 206.114 4.11376 -1.18127 0
M  V30 1999 C 205.44 5.32554 -0.478594 0
M  V30 2000 C 206.74 4.56945 -2.52979 0
M  V30 2001 H 208.434 2.47337 -1.68715 0
M  V30 2002 H 205.98 1.18879 -0.812642 0
M  V30 2003 H 207.933 4.21396 0.0184278 0
M  V30 2004 H 206.657 3.1863 0.717113 0
M  V30 2005 H 205.316 3.38564 -1.40606 0
M  V30 2006 H 204.964 5.00856 0.463976 0
M  V30 2007 H 204.664 5.76844 -1.11912 0
M  V30 2008 H 206.188 6.10096 -0.248 0
M  V30 2009 H 207.602 5.23093 -2.3462 0
M  V30 2010 H 205.999 5.1203 -3.12962 0
M  V30 2011 H 207.069 3.70676 -3.12614 0
M  V30 2012 N 208.412 0.89855 1.29475 0
M  V30 2013 C 209.637 0.538561 2.00285 0
M  V30 2014 C 210.062 -0.869135 1.66816 0
M  V30 2015 O 209.42 -1.57831 0.892145 0
M  V30 2016 C 209.468 0.736475 3.52999 0
M  V30 2017 O 208.572 -0.211537 4.11857 0
M  V30 2018 H 207.913 0.210563 0.62973 0
M  V30 2019 H 210.443 1.20982 1.64998 0
M  V30 2020 H 210.453 0.640685 4.02938 0
M  V30 2021 H 209.128 1.76276 3.76696 0
M  V30 2022 H 207.705 -0.0682991 3.72837 0
M  V30 2023 N 209.89 -1.43072 0.660911 0
M  V30 2024 C 211.138 -2.01323 0.177094 0
M  V30 2025 C 211.459 -1.5245 -1.2159 0
M  V30 2026 O 210.729 -0.740322 -1.81373 0
M  V30 2027 H 209.309 -0.744382 0.0624804 0
M  V30 2028 H 211.971 -1.75179 0.854305 0
M  V30 2029 H 211.067 -3.11649 0.167641 0
M  V30 2030 N 211.368 -0.403325 -1.52352 0
M  V30 2031 C 212.616 0.174003 -2.0135 0
M  V30 2032 C 212.937 1.46139 -1.29106 0
M  V30 2033 O 212.207 1.91448 -0.415253 0
M  V30 2034 H 210.787 0.0672911 -0.743963 0
M  V30 2035 H 213.449 -0.538235 -1.87321 0
M  V30 2036 H 212.545 0.374254 -3.09848 0
M  V30 2037 N 212.846 1.57033 -0.133567 0
M  V30 2038 C 214.123 1.87256 0.56522 0
M  V30 2039 C 214.503 1.03726 1.83859 0
M  V30 2040 O 213.851 0.120247 2.28183 0
M  V30 2041 C 214.061 3.3865 0.843636 0
M  V30 2042 C 215.409 4.07574 1.19032 0
M  V30 2043 O 216.433 3.43752 0.933429 0
M  V30 2044 O 215.292 5.20259 1.67312 0
M  V30 2045 H 212.386 0.775678 0.286796 0
M  V30 2046 H 214.932 1.68855 -0.169168 0
M  V30 2047 H 213.704 3.91257 -0.0581149 0
M  V30 2048 H 213.327 3.62532 1.63268 0
M  V30 2049 N 214.325 -0.140222 1.56975 0
M  V30 2050 C 215.273 -1.19207 1.99731 0
M  V30 2051 C 216.267 -1.44089 0.890777 0
M  V30 2052 O 217.473 -1.44301 1.07597 0
M  V30 2053 H 213.848 -0.40142 0.635898 0
M  V30 2054 H 215.819 -0.804813 2.87342 0
M  V30 2055 C 214.568 -2.51617 2.39967 0
M  V30 2056 H 213.891 -2.33303 3.24669 0
M  V30 2057 H 215.331 -3.23827 2.73701 0
M  V30 2058 C 213.79 -3.12654 1.25496 0
M  V30 2059 O 214.32 -3.97786 0.559371 0
M  V30 2060 N 212.526 -2.72206 1.01746 0
M  V30 2061 H 212.073 -2.03074 1.58489 0
M  V30 2062 H 212.031 -3.13377 0.253461 0
M  V30 2063 N 215.803 -1.52179 -0.40978 0
M  V30 2064 C 216.713 -1.78364 -1.52392 0
M  V30 2065 C 217.729 -0.669183 -1.60617 0
M  V30 2066 O 218.905 -0.954518 -1.77344 0
M  V30 2067 C 215.97 -1.92822 -2.88133 0
M  V30 2068 C 215.031 -3.16725 -2.898 0
M  V30 2069 C 214.264 -3.30483 -4.19067 0
M  V30 2070 O 214.487 -2.49522 -5.12928 0
M  V30 2071 O 213.421 -4.2363 -4.27576 0
M  V30 2072 H 217.247 -2.72931 -1.33201 0
M  V30 2073 H 214.832 -1.37016 -0.59557 0
M  V30 2074 H 216.714 -2.04157 -3.68643 0
M  V30 2075 H 215.389 -1.01444 -3.07393 0
M  V30 2076 H 214.296 -3.10848 -2.08146 0
M  V30 2077 H 215.629 -4.07881 -2.75489 0
M  V30 2078 N 217.281 0.66697 -1.42791 0
M  V30 2079 C 218.506 1.46004 -1.47301 0
M  V30 2080 C 218.931 1.87894 -0.0880317 0
M  V30 2081 O 218.289 1.56502 0.915253 0
M  V30 2082 C 218.337 2.68031 -2.41229 0
M  V30 2083 O 217.441 3.6659 -1.88906 0
M  V30 2084 H 216.782 0.43832 -0.49877 0
M  V30 2085 H 219.312 0.817391 -1.87563 0
M  V30 2086 H 219.322 3.1601 -2.58073 0
M  V30 2087 H 217.997 2.36883 -3.41847 0
M  V30 2088 H 216.574 3.25661 -1.81656 0
M  V30 2089 N 218.759 1.29093 0.90403 0
M  V30 2090 C 219.669 1.15727 2.0407 0
M  V30 2091 C 220.685 0.0815308 1.73809 0
M  V30 2092 O 221.861 0.292749 1.99261 0
M  V30 2093 C 218.926 0.830424 3.36608 0
M  V30 2094 C 217.987 1.98955 3.80415 0
M  V30 2095 C 217.22 1.6782 5.06628 0
M  V30 2096 O 217.443 0.597105 5.67266 0
M  V30 2097 O 216.377 2.52486 5.46383 0
M  V30 2098 H 220.203 2.11171 2.18267 0
M  V30 2099 H 217.788 1.08504 1.027 0
M  V30 2100 H 219.67 0.662521 4.16159 0
M  V30 2101 H 218.345 -0.0942678 3.23563 0
M  V30 2102 H 217.252 2.21267 3.01648 0
M  V30 2103 H 218.585 2.89529 3.98037 0
M  V30 2104 N 220.237 -1.11381 1.11499 0
M  V30 2105 C 221.185 -2.19522 0.768956 0
M  V30 2106 C 222.179 -1.67693 -0.239857 0
M  V30 2107 O 223.385 -1.79727 -0.0990755 0
M  V30 2108 H 219.76 -0.715711 0.230786 0
M  V30 2109 H 221.731 -2.45954 1.68964 0
M  V30 2110 C 220.48 -3.46945 0.229073 0
M  V30 2111 H 219.803 -3.8718 0.996596 0
M  V30 2112 H 221.243 -4.23993 0.0251441 0
M  V30 2113 C 219.702 -3.2042 -1.04079 0
M  V30 2114 O 220.232 -3.41178 -2.12038 0
M  V30 2115 N 218.438 -2.74151 -0.963823 0
M  V30 2116 H 217.985 -2.57459 -0.0851722 0
M  V30 2117 H 217.943 -2.56781 -1.81414 0
M  V30 2118 N 221.715 -0.905404 -1.28997 0
M  V30 2119 C 222.94 -0.549175 -1.99997 0
M  V30 2120 C 223.365 0.860276 -1.67275 0
M  V30 2121 O 222.723 1.57355 -0.900502 0
M  V30 2122 C 222.771 -0.755185 -3.52604 0
M  V30 2123 O 221.875 0.189692 -4.11964 0
M  V30 2124 H 221.216 -0.213899 -0.628604 0
M  V30 2125 H 223.746 -1.21856 -1.64354 0
M  V30 2126 H 223.756 -0.662045 -4.02593 0
M  V30 2127 H 222.431 -1.78271 -3.75755 0
M  V30 2128 H 221.008 0.0485257 -3.72868 0
M  V30 2129 N 223.193 1.4272 -0.668489 0
M  V30 2130 C 224.47 1.95248 -0.117373 0
M  V30 2131 C 224.85 1.60919 1.36632 0
M  V30 2132 O 224.198 0.902095 2.09939 0
M  V30 2133 C 224.408 3.46927 -0.379806 0
M  V30 2134 C 225.756 4.23588 -0.292923 0
M  V30 2135 O 226.78 3.5482 -0.313204 0
M  V30 2136 O 225.639 5.46017 -0.229697 0
M  V30 2137 H 222.733 0.827 0.00079152 0
M  V30 2138 H 225.279 1.52581 -0.742783 0
M  V30 2139 H 224.051 3.65096 -1.40786 0
M  V30 2140 H 223.674 3.96627 0.277923 0
M  V30 2141 N 224.671 0.411399 1.52136 0
M  V30 2142 C 225.917 -0.163888 2.02137 0
M  V30 2143 C 226.25 -1.44597 1.29636 0
M  V30 2144 O 225.525 -1.90272 0.403353 0
M  V30 2145 C 225.808 -0.40927 3.57767 0
M  V30 2146 C 225.661 0.889643 4.40914 0
M  V30 2147 C 226.98 -1.19042 4.23694 0
M  V30 2148 H 224.099 -0.0580896 0.734707 0
M  V30 2149 H 226.741 0.54531 1.82007 0
M  V30 2150 H 224.891 -1.0134 3.7505 0
M  V30 2151 H 226.563 1.52575 4.35337 0
M  V30 2152 H 224.806 1.50011 4.07037 0
M  V30 2153 H 225.477 0.672314 5.4789 0
M  V30 2154 H 227.953 -0.678942 4.10524 0
M  V30 2155 H 226.829 -1.33086 5.32522 0
M  V30 2156 H 227.09 -2.21166 3.82803 0
M  V30 2157 N 226.149 -1.5696 0.141893 0
M  V30 2158 C 227.426 -1.87553 -0.555281 0
M  V30 2159 C 227.806 -1.04699 -1.83306 0
M  V30 2160 O 227.154 -0.132346 -2.28116 0
M  V30 2161 C 227.364 -3.39093 -0.825664 0
M  V30 2162 C 228.712 -4.08199 -1.16869 0
M  V30 2163 O 229.736 -3.44242 -0.915185 0
M  V30 2164 O 228.595 -5.21139 -1.6455 0
M  V30 2165 H 225.689 -0.777188 -0.282679 0
M  V30 2166 H 228.235 -1.68763 0.17812 0
M  V30 2167 H 227.007 -3.91221 0.0788633 0
M  V30 2168 H 226.63 -3.63393 -1.61343 0
M  V30 2169 N 227.627 0.131896 -1.57047 0
M  V30 2170 C 228.876 0.84044 -1.83356 0
M  V30 2171 C 229.189 1.81646 -0.725535 0
M  V30 2172 O 230.395 2.57025 -0.874659 0
M  V30 2173 C 228.851 1.54528 -3.25037 0
M  V30 2174 C 228.459 0.610902 -4.43815 0
M  V30 2175 C 230.203 2.23972 -3.60606 0
M  V30 2176 C 228.11 1.31823 -5.76521 0
M  V30 2177 H 227.04 0.317599 -0.683847 0
M  V30 2178 H 229.691 0.0931561 -1.83263 0
M  V30 2179 H 228.073 2.33873 -3.19561 0
M  V30 2180 H 229.247 -0.148407 -4.60561 0
M  V30 2181 H 227.562 0.0241016 -4.16393 0
M  V30 2182 H 230.159 2.77558 -4.57018 0
M  V30 2183 H 230.502 3.01173 -2.87403 0
M  V30 2184 H 231.035 1.51529 -3.6781 0
M  V30 2185 H 227.774 0.587771 -6.52859 0
M  V30 2186 H 227.294 2.04987 -5.63685 0
M  V30 2187 H 228.973 1.855 -6.19838 0
M  V30 2188 N 229.106 1.52395 0.401703 0
M  V30 2189 C 230.354 1.66488 1.14569 0
M  V30 2190 C 230.675 0.400897 1.90835 0
M  V30 2191 O 229.945 -0.584415 1.8698 0
M  V30 2192 H 228.525 0.613672 0.425929 0
M  V30 2193 H 231.187 1.89464 0.457093 0
M  V30 2194 H 230.283 2.50942 1.85566 0
M  V30 2195 N 230.584 -0.659388 1.43143 0
M  V30 2196 C 231.494 -1.80167 1.50256 0
M  V30 2197 C 232.51 -1.69571 0.390106 0
M  V30 2198 O 233.686 -1.90849 0.643319 0
M  V30 2199 C 230.751 -3.16409 1.41725 0
M  V30 2200 C 229.812 -3.38848 2.63591 0
M  V30 2201 C 229.045 -4.68591 2.55458 0
M  V30 2202 O 229.268 -5.47532 1.59891 0
M  V30 2203 O 228.202 -4.92614 3.45854 0
M  V30 2204 H 232.028 -1.77121 2.46702 0
M  V30 2205 H 229.613 -0.817092 1.25076 0
M  V30 2206 H 231.495 -3.9768 1.39387 0
M  V30 2207 H 230.17 -3.20059 0.484118 0
M  V30 2208 H 229.077 -2.57366 2.71502 0
M  V30 2209 H 230.41 -3.4004 3.55856 0
M  V30 2210 N 232.062 -1.29571 -0.897171 0
M  V30 2211 C 233.473 -1.15964 -1.46319 0
M  V30 2212 C 233.824 0.244267 -1.94674 0
M  V30 2213 O 232.949 1.13998 -1.83939 0
M  V30 2214 C 233.544 -2.09906 -2.65942 0
M  V30 2215 C 232.103 -2.00314 -3.18671 0
M  V30 2216 C 231.25 -2.00687 -1.91363 0
M  V30 2217 H 234.201 -1.42019 -0.708268 0
M  V30 2218 H 234.222 -1.67276 -3.41759 0
M  V30 2219 H 233.734 -3.12075 -2.30718 0
M  V30 2220 H 231.835 -1.01242 -3.58582 0
M  V30 2221 H 231.948 -2.88102 -3.82798 0
M  V30 2222 H 230.312 -1.45319 -2.09175 0
M  V30 2223 H 231.095 -3.04566 -1.58413 0
M  V30 2224 N 233.54 1.10788 -1.12088 0
M  V30 2225 C 234.817 1.79136 -0.785476 0
M  V30 2226 C 235.197 1.98246 0.725377 0
M  V30 2227 O 234.545 1.57258 1.65778 0
M  V30 2228 C 234.755 3.12375 -1.55636 0
M  V30 2229 C 236.103 3.8731 -1.74001 0
M  V30 2230 O 237.127 3.22085 -1.52117 0
M  V30 2231 O 235.986 5.04369 -2.10415 0
M  V30 2232 H 233.08 0.776226 -0.285311 0
M  V30 2233 H 235.626 1.1747 -1.2247 0
M  V30 2234 H 234.398 2.93863 -2.5838 0
M  V30 2235 H 234.021 3.81758 -1.11114 0
M  V30 2236 N 235.018 0.912232 1.28515 0
M  V30 2237 C 236.246 0.560416 1.99166 0
M  V30 2238 C 236.661 -0.857927 1.68182 0
M  V30 2239 O 236.018 -1.56805 0.933733 0
M  V30 2240 C 236.069 0.758142 3.53461 0
M  V30 2241 O 235.79 2.12067 3.83352 0
M  V30 2242 C 237.291 0.412954 4.41372 0
M  V30 2243 H 234.511 0.213805 0.636026 0
M  V30 2244 H 237.055 1.22502 1.63749 0
M  V30 2245 H 235.21 0.140556 3.87145 0
M  V30 2246 H 235.624 2.15923 4.77993 0
M  V30 2247 H 237.098 0.60208 5.48707 0
M  V30 2248 H 237.575 -0.65073 4.34353 0
M  V30 2249 H 238.181 1.00802 4.13182 0
M  V30 2250 N 236.496 -1.42363 0.676048 0
M  V30 2251 C 237.406 -2.346 -0.00153389 0
M  V30 2252 C 238.422 -1.5516 -0.787485 0
M  V30 2253 O 239.598 -1.87723 -0.729521 0
M  V30 2254 C 236.663 -3.33705 -0.940298 0
M  V30 2255 C 235.724 -4.29042 -0.148739 0
M  V30 2256 C 234.957 -5.23413 -1.04279 0
M  V30 2257 O 235.18 -5.22749 -2.28232 0
M  V30 2258 O 234.114 -5.99795 -0.502925 0
M  V30 2259 H 237.94 -2.94082 0.758268 0
M  V30 2260 H 235.525 -1.42888 0.436289 0
M  V30 2261 H 237.407 -3.94586 -1.47917 0
M  V30 2262 H 236.082 -2.76695 -1.67993 0
M  V30 2263 H 234.989 -3.71571 0.43427 0
M  V30 2264 H 236.322 -4.89097 0.551805 0
M  V30 2265 N 237.974 -0.419461 -1.51915 0
M  V30 2266 C 239.222 0.152637 -2.01523 0
M  V30 2267 C 239.543 1.44762 -1.30649 0
M  V30 2268 O 238.813 1.90997 -0.435535 0
M  V30 2269 H 237.393 0.0593966 -0.744635 0
M  V30 2270 H 240.055 -0.558073 -1.86739 0
M  V30 2271 H 239.151 0.341369 -3.10227 0
M  V30 2272 N 239.452 1.56882 -0.150215 0
M  V30 2273 C 240.682 2.00302 0.506213 0
M  V30 2274 C 241.09 1.02934 1.58749 0
M  V30 2275 O 240.433 0.0188384 1.8369 0
M  V30 2276 C 240.495 3.40156 1.16337 0
M  V30 2277 C 240.159 4.56439 0.226311 0
M  V30 2278 C 241.156 5.17012 -0.547265 0
M  V30 2279 C 238.841 5.02136 0.128279 0
M  V30 2280 C 240.835 6.21693 -1.40629 0
M  V30 2281 C 238.522 6.06672 -0.734345 0
M  V30 2282 C 239.52 6.6632 -1.50023 0
M  V30 2283 O 239.208 7.68831 -2.34848 0
M  V30 2284 H 238.94 0.662182 0.135984 0
M  V30 2285 H 241.494 2.03961 -0.242746 0
M  V30 2286 H 239.724 3.33346 1.96004 0
M  V30 2287 H 241.413 3.67663 1.71985 0
M  V30 2288 H 242.179 4.82603 -0.48158 0
M  V30 2289 H 238.058 4.55435 0.714157 0
M  V30 2290 H 241.602 6.68179 -2.00455 0
M  V30 2291 H 237.499 6.40507 -0.801309 0
M  V30 2292 H 238.267 7.86065 -2.28131 0
M  V30 2293 N 240.93 -0.123565 1.57115 0
M  V30 2294 C 241.893 -1.13583 1.99076 0
M  V30 2295 C 242.893 -1.34564 0.880296 0
M  V30 2296 O 244.083 -1.31158 1.14644 0
M  V30 2297 C 241.215 -2.49128 2.32698 0
M  V30 2298 H 242.408 -0.775287 2.89706 0
M  V30 2299 H 239.961 -0.36771 1.51913 0
M  V30 2300 H 240.696 -2.90111 1.44934 0
M  V30 2301 H 240.481 -2.35255 3.13684 0
M  V30 2302 H 241.971 -3.2199 2.65918 0
M  V30 2303 N 242.408 -1.52605 -0.393616 0
M  V30 2304 C 243.657 -1.66649 -1.13627 0
M  V30 2305 C 243.97 -0.410364 -1.91247 0
M  V30 2306 O 245.176 -0.430854 -2.68059 0
M  V30 2307 C 243.632 -2.9449 -2.06891 0
M  V30 2308 C 243.24 -4.27266 -1.34714 0
M  V30 2309 C 244.984 -3.17899 -2.81319 0
M  V30 2310 C 242.891 -5.46217 -2.26717 0
M  V30 2311 H 241.821 -0.62084 -0.427871 0
M  V30 2312 H 244.472 -1.791 -0.399428 0
M  V30 2313 H 242.854 -2.75774 -2.84191 0
M  V30 2314 H 244.028 -4.56518 -0.626714 0
M  V30 2315 H 242.343 -4.10081 -0.722643 0
M  V30 2316 H 244.94 -4.03949 -3.50328 0
M  V30 2317 H 245.283 -2.32777 -3.45139 0
M  V30 2318 H 245.816 -3.37159 -2.11113 0
M  V30 2319 H 242.555 -6.33733 -1.67521 0
M  V30 2320 H 242.075 -5.21283 -2.96689 0
M  V30 2321 H 243.754 -5.7991 -2.86903 0
M  V30 2322 N 243.887 0.651787 -1.4349 0
M  V30 2323 C 245.115 1.43937 -1.48626 0
M  V30 2324 C 245.53 1.8851 -0.104587 0
M  V30 2325 O 244.887 1.5958 0.885464 0
M  V30 2326 C 244.938 2.6734 -2.43334 0
M  V30 2327 O 244.659 2.24631 -3.76128 0
M  V30 2328 C 246.16 3.60683 -2.57726 0
M  V30 2329 H 243.38 0.44213 -0.504739 0
M  V30 2330 H 245.924 0.798944 -1.88248 0
M  V30 2331 H 244.079 3.2752 -2.06904 0
M  V30 2332 H 244.493 3.04485 -4.2707 0
M  V30 2333 H 245.967 4.43933 -3.28067 0
M  V30 2334 H 246.444 4.08126 -1.62265 0
M  V30 2335 H 247.05 3.06384 -2.94973 0
M  V30 2336 N 245.365 1.30045 0.890287 0
M  V30 2337 C 246.642 1.09227 1.62262 0
M  V30 2338 C 247.022 -0.360305 2.08002 0
M  V30 2339 O 246.37 -1.35084 1.84295 0
M  V30 2340 C 246.58 2.08835 2.79623 0
M  V30 2341 C 247.928 2.40266 3.50082 0
M  V30 2342 O 248.952 2.07104 2.89804 0
M  V30 2343 O 247.811 2.96967 4.58773 0
M  V30 2344 H 244.905 0.419132 0.712922 0
M  V30 2345 H 247.451 1.41451 0.937529 0
M  V30 2346 H 246.223 3.06633 2.43089 0
M  V30 2347 H 245.846 1.77397 3.55832 0
M  V30 2348 N 246.843 -1.10192 1.12674 0
M  V30 2349 C 248.259 -1.34235 0.863317 0
M  V30 2350 C 248.459 -1.95062 -0.505277 0
M  V30 2351 O 247.515 -2.19192 -1.25345 0
M  V30 2352 C 248.828 -2.2616 1.98172 0
M  V30 2353 C 250.376 -2.3969 2.0129 0
M  V30 2354 C 250.851 -3.34946 3.1237 0
M  V30 2355 N 252.342 -3.42515 3.11829 0
M  V30 2356 C 253.077 -4.16199 3.94419 0
M  V30 2357 N 252.573 -4.92747 4.87004 0
M  V30 2358 N 254.366 -4.11843 3.82547 0
M  V30 2359 H 246.517 -0.690798 2.00853 0
M  V30 2360 H 248.78 -0.366774 0.874174 0
M  V30 2361 H 248.486 -1.8868 2.96804 0
M  V30 2362 H 248.36 -3.26488 1.88906 0
M  V30 2363 H 250.747 -2.76438 1.03276 0
M  V30 2364 H 250.828 -1.39169 2.14629 0
M  V30 2365 H 250.472 -2.98923 4.10619 0
M  V30 2366 H 250.402 -4.35353 2.96269 0
M  V30 2367 H 252.893 -2.87926 2.44759 0
M  V30 2368 H 253.206 -5.46376 5.46528 0
M  V30 2369 H 251.551 -4.91862 4.91016 0
M  V30 2370 H 254.742 -3.51136 3.0955 0
M  V30 2371 H 254.915 -4.69007 4.47142 0
M  V30 2372 N 248.321 -0.919034 -1.28029 0
M  V30 2373 C 249.569 -0.553838 -1.94363 0
M  V30 2374 C 249.89 0.906357 -1.72656 0
M  V30 2375 O 249.16 1.64143 -1.0693 0
M  V30 2376 H 247.74 -0.201834 -0.719216 0
M  V30 2377 H 250.402 -1.16954 -1.55909 0
M  V30 2378 H 249.498 -0.752758 -3.02886 0
M  V30 2379 N 249.799 1.42003 -0.683588 0
M  V30 2380 C 251.024 2.06265 -0.216647 0
M  V30 2381 C 251.449 1.51059 1.12083 0
M  V30 2382 O 250.807 0.632638 1.69904 0
M  V30 2383 C 250.855 3.60191 -0.171759 0
M  V30 2384 O 249.959 4.03396 0.857069 0
M  V30 2385 H 249.3 0.65502 -0.108834 0
M  V30 2386 H 251.83 1.81982 -0.935077 0
M  V30 2387 H 251.84 4.08 0.0014303 0
M  V30 2388 H 250.515 3.99743 -1.14796 0
M  V30 2389 H 249.092 3.67117 0.654208 0
M  V30 2390 N 251.277 0.427512 1.51691 0
M  V30 2391 C 252.24 -0.377132 2.26076 0
M  V30 2392 C 253.24 -0.958089 1.29141 0
M  V30 2393 O 254.43 -0.83408 1.52934 0
M  V30 2394 C 251.562 -1.53262 3.04506 0
M  V30 2395 H 252.755 0.27464 2.9864 0
M  V30 2396 H 250.308 0.180445 1.55255 0
M  V30 2397 H 251.043 -2.22072 2.36335 0
M  V30 2398 H 250.828 -1.12232 3.75694 0
M  V30 2399 H 252.318 -2.10135 3.60878 0
M  V30 2400 N 252.755 -1.56801 0.158532 0
M  V30 2401 C 254.166 -1.83189 -0.360366 0
M  V30 2402 C 254.517 -1.07778 -1.63946 0
M  V30 2403 O 253.642 -0.326718 -2.13919 0
M  V30 2404 C 254.237 -3.32297 -0.660595 0
M  V30 2405 C 252.796 -3.59227 -1.12398 0
M  V30 2406 C 251.943 -2.76877 -0.153097 0
M  V30 2407 H 254.894 -1.54008 0.383031 0
M  V30 2408 H 254.915 -3.4908 -1.51405 0
M  V30 2409 H 254.427 -3.87156 0.270527 0
M  V30 2410 H 252.528 -3.09766 -2.07064 0
M  V30 2411 H 252.641 -4.67632 -1.04197 0
M  V30 2412 H 251.005 -2.46319 -0.647983 0
M  V30 2413 H 251.788 -3.34511 0.77182 0
M  V30 2414 N 254.233 0.115231 -1.57178 0
M  V30 2415 C 255.482 0.820945 -1.84237 0
M  V30 2416 C 255.795 1.80866 -0.744761 0
M  V30 2417 O 257.001 2.56083 -0.901871 0
M  V30 2418 C 255.457 1.51072 -3.26658 0
M  V30 2419 C 255.065 0.563795 -4.44438 0
M  V30 2420 C 256.809 2.20134 -3.62962 0
M  V30 2421 C 254.716 1.25701 -5.77887 0
M  V30 2422 H 253.646 0.310328 -0.687177 0
M  V30 2423 H 256.297 0.0737134 -1.83352 0
M  V30 2424 H 254.679 2.30471 -3.22024 0
M  V30 2425 H 255.853 -0.197247 -4.60378 0
M  V30 2426 H 254.168 -0.0200638 -4.16395 0
M  V30 2427 H 256.765 2.72696 -4.59936 0
M  V30 2428 H 257.108 2.98107 -2.90582 0
M  V30 2429 H 257.641 1.47619 -3.69396 0
M  V30 2430 H 254.38 0.518493 -6.53446 0
M  V30 2431 H 253.9 1.98997 -5.65827 0
M  V30 2432 H 255.579 1.78915 -6.2177 0
M  V30 2433 N 255.711 1.52812 0.385517 0
M  V30 2434 C 256.936 1.72207 1.15583 0
M  V30 2435 C 257.361 0.441034 1.82857 0
M  V30 2436 O 256.719 -0.603465 1.70962 0
M  V30 2437 C 256.767 2.87476 2.17692 0
M  V30 2438 O 255.871 2.54693 3.24354 0
M  V30 2439 H 255.212 0.572526 0.336319 0
M  V30 2440 H 257.742 1.99618 0.448744 0
M  V30 2441 H 257.752 3.13072 2.6163 0
M  V30 2442 H 256.427 3.80408 1.68115 0
M  V30 2443 H 255.004 2.3985 2.85529 0
M  V30 2444 N 257.189 -0.644168 1.43834 0
M  V30 2445 C 258.122 -1.76906 1.44151 0
M  V30 2446 C 259.1 -1.59774 0.301857 0
M  V30 2447 O 260.284 -1.81834 0.496841 0
M  V30 2448 C 257.411 -3.14321 1.26174 0
M  V30 2449 C 256.457 -3.50134 2.43533 0
M  V30 2450 S 257.29 -3.49085 4.06079 0
M  V30 2451 C 258.446 -4.89142 3.90501 0
M  V30 2452 H 258.679 -1.76368 2.39336 0
M  V30 2453 H 256.212 -0.817624 1.30974 0
M  V30 2454 H 258.17 -3.93625 1.16489 0
M  V30 2455 H 256.831 -3.12412 0.325224 0
M  V30 2456 H 256.024 -4.50095 2.26783 0
M  V30 2457 H 255.626 -2.78264 2.4989 0
M  V30 2458 H 257.918 -5.78036 3.53385 0
M  V30 2459 H 258.861 -5.10945 4.90246 0
M  V30 2460 H 259.269 -4.63102 3.22795 0
M  V30 2461 N 258.668 -1.30515 -0.883378 0
M  V30 2462 C 259.916 -1.19194 -1.63209 0
M  V30 2463 C 260.237 0.253205 -1.93349 0
M  V30 2464 O 259.507 1.17025 -1.57105 0
M  V30 2465 H 258.087 -0.438148 -0.605009 0
M  V30 2466 H 260.749 -1.63663 -1.05832 0
M  V30 2467 H 259.845 -1.75396 -2.58153 0
M  V30 2468 N 260.146 1.09593 -1.13257 0
M  V30 2469 C 261.393 1.81734 -0.893257 0
M  V30 2470 C 261.721 1.8563 0.580656 0
M  V30 2471 O 260.976 1.31906 1.44566 0
M  V30 2472 C 261.275 3.27802 -1.42411 0
M  V30 2473 C 260.941 3.44041 -2.91456 0
M  V30 2474 C 259.603 3.48181 -3.3215 0
M  V30 2475 C 261.955 3.48719 -3.87356 0
M  V30 2476 C 259.283 3.54575 -4.67433 0
M  V30 2477 C 261.635 3.56648 -5.2248 0
M  V30 2478 C 260.299 3.59055 -5.62704 0
M  V30 2479 H 259.569 0.665011 -0.326866 0
M  V30 2480 H 262.216 1.2912 -1.41422 0
M  V30 2481 H 260.521 3.83042 -0.823795 0
M  V30 2482 H 262.218 3.82149 -1.21503 0
M  V30 2483 H 258.808 3.41502 -2.58987 0
M  V30 2484 H 262.992 3.44763 -3.57004 0
M  V30 2485 H 258.248 3.54725 -4.97976 0
M  V30 2486 H 262.422 3.59212 -5.96607 0
M  V30 2487 H 260.049 3.63763 -6.67518 0
M  V30 2488 N 261.624 0.925811 1.2754 0
M  V30 2489 C 263.04 0.625767 1.46821 0
M  V30 2490 C 263.24 -0.825506 1.83814 0
M  V30 2491 O 262.296 -1.60356 1.95044 0
M  V30 2492 C 263.609 1.57402 2.56213 0
M  V30 2493 C 265.157 1.58204 2.70075 0
M  V30 2494 C 265.632 2.51721 3.82623 0
M  V30 2495 N 267.123 2.49917 3.89994 0
M  V30 2496 C 267.858 3.18968 4.76494 0
M  V30 2497 N 267.354 3.97391 5.67496 0
M  V30 2498 N 269.147 3.07996 4.70208 0
M  V30 2499 H 261.298 1.86409 1.01811 0
M  V30 2500 H 263.561 0.800213 0.508295 0
M  V30 2501 H 263.267 2.60925 2.35819 0
M  V30 2502 H 263.141 1.31428 3.53563 0
M  V30 2503 H 265.528 0.554124 2.89851 0
M  V30 2504 H 265.609 1.88226 1.73218 0
M  V30 2505 H 265.253 3.54622 3.63601 0
M  V30 2506 H 265.183 2.18996 4.78903 0
M  V30 2507 H 267.674 1.9296 3.24923 0
M  V30 2508 H 267.987 4.4707 6.30356 0
M  V30 2509 H 266.332 4.01495 5.67298 0
M  V30 2510 H 269.523 2.46223 3.9811 0
M  V30 2511 H 269.696 3.6208 5.37403 0
M  V30 2512 N 263.102 -1.41638 0.69111 0
M  V30 2513 C 264.065 -2.29178 0.0319786 0
M  V30 2514 C 265.065 -1.44153 -0.712496 0
M  V30 2515 O 266.255 -1.65354 -0.548053 0
M  V30 2516 C 263.387 -3.26952 -0.965161 0
M  V30 2517 H 264.58 -2.88959 0.802681 0
M  V30 2518 H 262.133 -1.4955 0.454356 0
M  V30 2519 H 262.868 -2.72142 -1.76378 0
M  V30 2520 H 262.653 -3.89685 -0.434522 0
M  V30 2521 H 264.143 -3.92561 -1.42428 0
M  V30 2522 N 264.58 -0.43555 -1.51462 0
M  V30 2523 C 265.805 0.132627 -2.06976 0
M  V30 2524 C 266.23 1.35848 -1.30104 0
M  V30 2525 O 265.588 1.78112 -0.338493 0
M  V30 2526 C 265.636 0.43523 -3.57964 0
M  V30 2527 O 264.74 1.52198 -3.83288 0
M  V30 2528 H 264.081 0.00265 -0.663995 0
M  V30 2529 H 266.611 -0.616369 -1.95095 0
M  V30 2530 H 266.621 0.686206 -4.02188 0
M  V30 2531 H 265.296 -0.460739 -4.1334 0
M  V30 2532 H 263.873 1.2611 -3.50928 0
M  V30 2533 N 266.058 1.56714 -0.166846 0
M  V30 2534 C 267.335 1.88412 0.525373 0
M  V30 2535 C 267.715 1.07602 1.81618 0
M  V30 2536 O 267.063 0.168621 2.27877 0
M  V30 2537 C 267.273 3.40363 0.771613 0
M  V30 2538 C 268.621 4.10007 1.1036 0
M  V30 2539 O 269.645 3.45655 0.860304 0
M  V30 2540 O 268.504 5.2369 1.56239 0
M  V30 2541 H 265.598 0.781587 0.270278 0
M  V30 2542 H 268.144 1.68458 -0.204946 0
M  V30 2543 H 266.916 3.91046 -0.141093 0
M  V30 2544 H 266.539 3.65914 1.55541 0
M  V30 2545 N 267.536 -0.106894 1.57237 0
M  V30 2546 C 268.782 -0.81373 1.85759 0
M  V30 2547 C 269.115 -1.78952 0.754315 0
M  V30 2548 O 268.39 -1.93029 -0.23879 0
M  V30 2549 C 268.673 -1.55293 3.24894 0
M  V30 2550 C 268.526 -0.595929 4.45835 0
M  V30 2551 C 269.845 -2.5063 3.61763 0
M  V30 2552 H 266.964 -0.294369 0.67566 0
M  V30 2553 H 269.606 -0.0776472 1.89841 0
M  V30 2554 H 267.756 -2.1804 3.21544 0
M  V30 2555 H 269.428 0.0236262 4.61294 0
M  V30 2556 H 267.671 0.0916191 4.33703 0
M  V30 2557 H 268.342 -1.15004 5.39887 0
M  V30 2558 H 270.818 -1.97982 3.65981 0
M  V30 2559 H 269.694 -2.99376 4.60071 0
M  V30 2560 H 269.955 -3.3385 2.89821 0
M  V30 2561 N 269.014 -1.53014 -0.377408 0
M  V30 2562 C 269.924 -1.81557 -1.48574 0
M  V30 2563 C 270.94 -0.703102 -1.59162 0
M  V30 2564 O 272.116 -0.99192 -1.75279 0
M  V30 2565 C 269.181 -1.9889 -2.83978 0
M  V30 2566 C 268.242 -3.22801 -2.83016 0
M  V30 2567 C 267.475 -3.39298 -4.11962 0
M  V30 2568 O 267.698 -2.60345 -5.0752 0
M  V30 2569 O 266.632 -4.32604 -4.18494 0
M  V30 2570 H 270.458 -2.75695 -1.27382 0
M  V30 2571 H 268.043 -1.38248 -0.566373 0
M  V30 2572 H 269.925 -2.11931 -3.6423 0
M  V30 2573 H 268.6 -1.07942 -3.05172 0
M  V30 2574 H 267.507 -3.15193 -2.01505 0
M  V30 2575 H 268.84 -4.13632 -2.66775 0
M  V30 2576 N 270.492 0.636531 -1.44174 0
M  V30 2577 C 271.72 1.42353 -1.50144 0
M  V30 2578 C 272.135 1.88389 -0.124575 0
M  V30 2579 O 271.492 1.6051 0.868489 0
M  V30 2580 C 271.543 2.64744 -2.46156 0
M  V30 2581 O 271.264 2.20629 -3.7849 0
M  V30 2582 C 272.765 3.57929 -2.61537 0
M  V30 2583 H 269.985 0.436752 -0.5094 0
M  V30 2584 H 272.529 0.778933 -1.89084 0
M  V30 2585 H 270.684 3.25307 -2.10366 0
M  V30 2586 H 271.098 2.99938 -4.30276 0
M  V30 2587 H 272.572 4.40428 -3.32757 0
M  V30 2588 H 273.049 4.06382 -1.66585 0
M  V30 2589 H 273.655 3.03238 -2.98206 0
M  V30 2590 N 271.97 1.30982 0.876444 0
M  V30 2591 C 272.933 1.18054 1.96459 0
M  V30 2592 C 273.933 0.109399 1.60427 0
M  V30 2593 O 275.123 0.358173 1.70478 0
M  V30 2594 C 272.255 0.810616 3.31122 0
M  V30 2595 H 273.448 2.14735 2.09354 0
M  V30 2596 H 271.001 1.145 1.06392 0
M  V30 2597 H 271.736 -0.155322 3.23928 0
M  V30 2598 H 271.521 1.58481 3.58645 0
M  V30 2599 H 273.011 0.743876 4.10921 0
M  V30 2600 N 273.449 -1.08991 1.13837 0
M  V30 2601 C 274.359 -2.19301 0.833333 0
M  V30 2602 C 275.375 -1.73026 -0.183847 0
M  V30 2603 O 276.551 -2.01395 -0.0138092 0
M  V30 2604 C 273.616 -3.45323 0.308651 0
M  V30 2605 C 272.677 -4.06255 1.38764 0
M  V30 2606 C 271.91 -5.26262 0.887896 0
M  V30 2607 O 272.133 -5.69747 -0.27287 0
M  V30 2608 O 271.067 -5.78435 1.66421 0
M  V30 2609 H 274.893 -2.47854 1.75506 0
M  V30 2610 H 272.478 -1.18012 0.916166 0
M  V30 2611 H 274.36 -4.21394 0.0216739 0
M  V30 2612 H 273.035 -3.18362 -0.585431 0
M  V30 2613 H 271.942 -3.318 1.72799 0
M  V30 2614 H 273.275 -4.37452 2.25602 0
M  V30 2615 N 274.927 -0.932562 -1.27047 0
M  V30 2616 C 276.175 -0.574422 -1.93765 0
M  V30 2617 C 276.496 0.887993 -1.73608 0
M  V30 2618 O 275.766 1.62999 -1.08665 0
M  V30 2619 H 274.346 -0.209451 -0.717035 0
M  V30 2620 H 277.008 -1.18601 -1.5466 0
M  V30 2621 H 276.104 -0.784841 -3.02071 0
M  V30 2622 N 276.405 1.4127 -0.698611 0
M  V30 2623 C 277.653 2.00782 -0.230409 0
M  V30 2624 C 277.974 1.5562 1.17505 0
M  V30 2625 O 277.244 0.78815 1.79346 0
M  V30 2626 H 275.824 0.742464 -0.0821944 0
M  V30 2627 H 278.486 1.72852 -0.90045 0
M  V30 2628 H 277.582 3.11095 -0.25021 0
M  V30 2629 N 277.883 0.443576 1.51229 0
M  V30 2630 C 278.793 -0.370721 2.31652 0
M  V30 2631 C 279.809 -1.02186 1.40833 0
M  V30 2632 O 280.985 -1.01586 1.73903 0
M  V30 2633 C 278.05 -1.45376 3.14749 0
M  V30 2634 C 277.111 -0.822099 4.21355 0
M  V30 2635 C 276.344 -1.85353 5.0048 0
M  V30 2636 O 276.567 -3.07656 4.80316 0
M  V30 2637 O 275.501 -1.4406 5.84406 0
M  V30 2638 H 279.327 0.286002 3.0235 0
M  V30 2639 H 276.912 0.20598 1.47973 0
M  V30 2640 H 278.794 -2.08173 3.66391 0
M  V30 2641 H 277.469 -2.09445 2.46809 0
M  V30 2642 H 276.376 -0.155909 3.73775 0
M  V30 2643 H 277.709 -0.224797 4.91686 0
M  V30 2644 N 279.361 -1.56624 0.175154 0
M  V30 2645 C 280.61 -1.96173 -0.468921 0
M  V30 2646 C 280.923 -1.06401 -1.64128 0
M  V30 2647 O 282.129 -1.35648 -2.35185 0
M  V30 2648 C 280.585 -3.48833 -0.885633 0
M  V30 2649 C 280.193 -4.47237 0.261343 0
M  V30 2650 C 281.937 -3.97194 -1.49791 0
M  V30 2651 C 279.844 -5.9114 -0.175214 0
M  V30 2652 H 278.774 -0.732455 -0.178958 0
M  V30 2653 H 281.425 -1.81591 0.263997 0
M  V30 2654 H 279.807 -3.58848 -1.67464 0
M  V30 2655 H 280.981 -4.4894 1.03871 0
M  V30 2656 H 279.296 -4.08956 0.783827 0
M  V30 2657 H 281.893 -5.02167 -1.83665 0
M  V30 2658 H 282.236 -3.40351 -2.39722 0
M  V30 2659 H 282.769 -3.90212 -0.773267 0
M  V30 2660 H 279.508 -6.51865 0.689414 0
M  V30 2661 H 279.028 -5.92735 -0.91786 0
M  V30 2662 H 280.707 -6.44044 -0.617792 0
M  V30 2663 N 280.839 0.0985539 -1.57292 0
M  V30 2664 C 281.789 1.1261 -1.9825 0
M  V30 2665 C 282.773 1.35961 -0.860426 0
M  V30 2666 O 283.965 1.36711 -1.12424 0
M  V30 2667 C 281.094 2.44727 -2.40757 0
M  V30 2668 C 280.18 2.24764 -3.59642 0
M  V30 2669 N 280.571 1.74661 -4.74687 0
M  V30 2670 C 278.869 2.55344 -3.65672 0
M  V30 2671 C 279.57 1.68887 -5.56644 0
M  V30 2672 N 278.546 2.13976 -4.99715 0
M  V30 2673 H 282.348 0.731604 -2.84648 0
M  V30 2674 H 279.862 0.306029 -1.59491 0
M  V30 2675 H 281.859 3.19072 -2.68326 0
M  V30 2676 H 280.519 2.84917 -1.55733 0
M  V30 2677 H 281.53 1.43908 -4.97505 0
M  V30 2678 H 278.207 2.99081 -2.91302 0
M  V30 2679 H 279.597 1.3123 -6.5896 0
M  V30 2680 N 282.317 1.53212 0.369288 0
M  V30 2681 C 283.227 1.82342 1.47609 0
M  V30 2682 C 284.243 0.711532 1.58787 0
M  V30 2683 O 285.419 1.0012 1.74751 0
M  V30 2684 C 282.484 2.00393 2.8292 0
M  V30 2685 C 281.545 3.24297 2.81301 0
M  V30 2686 C 280.778 3.41478 4.10157 0
M  V30 2687 O 281.001 2.63033 5.06132 0
M  V30 2688 O 279.935 4.34817 4.16194 0
M  V30 2689 H 283.761 2.76366 1.25918 0
M  V30 2690 H 281.346 1.38547 0.559034 0
M  V30 2691 H 283.228 2.13859 3.63101 0
M  V30 2692 H 281.903 1.09559 3.04596 0
M  V30 2693 H 280.81 3.16257 1.99831 0
M  V30 2694 H 282.143 4.15041 2.64578 0
M  V30 2695 N 283.795 -0.628877 1.44509 0
M  V30 2696 C 284.725 -1.75187 1.54376 0
M  V30 2697 C 285.706 -1.65411 0.396618 0
M  V30 2698 O 286.891 -1.84137 0.617031 0
M  V30 2699 C 284.021 -3.13725 1.48976 0
M  V30 2700 C 282.975 -3.38291 2.62189 0
M  V30 2701 C 282.301 -4.76883 2.41841 0
M  V30 2702 C 283.601 -3.30632 4.04326 0
M  V30 2703 H 285.295 -1.67187 2.48373 0
M  V30 2704 H 282.841 -0.802909 1.19538 0
M  V30 2705 H 284.794 -3.92064 1.54478 0
M  V30 2706 H 283.518 -3.22515 0.514961 0
M  V30 2707 H 282.177 -2.62334 2.56079 0
M  V30 2708 H 281.825 -4.82378 1.42548 0
M  V30 2709 H 281.525 -4.94278 3.17747 0
M  V30 2710 H 283.049 -5.57449 2.49165 0
M  V30 2711 H 284.463 -3.98873 4.11793 0
M  V30 2712 H 282.86 -3.59561 4.80454 0
M  V30 2713 H 283.93 -2.28404 4.27738 0
M  V30 2714 N 285.273 -1.31445 -0.869486 0
M  V30 2715 C 286.203 -1.21727 -1.99261 0
M  V30 2716 C 287.184 -0.104359 -1.6978 0
M  V30 2717 O 288.369 -0.289038 -1.92037 0
M  V30 2718 C 285.499 -0.924317 -3.34774 0
M  V30 2719 C 284.453 -1.99685 -3.78563 0
M  V30 2720 C 283.779 -1.55658 -5.11541 0
M  V30 2721 C 285.079 -3.41003 -3.95619 0
M  V30 2722 H 286.773 -2.1569 -2.07649 0
M  V30 2723 H 284.319 -1.03839 -0.997675 0
M  V30 2724 H 286.272 -0.842934 -4.12883 0
M  V30 2725 H 284.996 0.0509793 -3.2656 0
M  V30 2726 H 283.655 -2.06813 -3.02694 0
M  V30 2727 H 283.303 -0.569132 -4.9977 0
M  V30 2728 H 283.003 -2.27409 -5.41811 0
M  V30 2729 H 284.527 -1.48928 -5.92159 0
M  V30 2730 H 285.941 -3.36547 -4.64122 0
M  V30 2731 H 284.338 -4.10975 -4.37286 0
M  V30 2732 H 285.408 -3.81754 -2.98985 0
M  V30 2733 N 286.751 1.08385 -1.14413 0
M  V30 2734 C 288.167 1.32844 -0.884563 0
M  V30 2735 C 288.367 1.95841 0.474181 0
M  V30 2736 O 287.423 2.21158 1.21842 0
M  V30 2737 C 288.736 2.22978 -2.01745 0
M  V30 2738 C 290.284 2.36458 -2.05077 0
M  V30 2739 C 290.759 3.29934 -3.1766 0
M  V30 2740 N 292.25 3.37511 -3.17239 0
M  V30 2741 C 292.985 4.09871 -4.0099 0
M  V30 2742 N 292.481 4.84936 -4.94781 0
M  V30 2743 N 294.274 4.05704 -3.89051 0
M  V30 2744 H 286.425 0.658756 -2.01926 0
M  V30 2745 H 288.688 0.352821 -0.879899 0
M  V30 2746 H 288.394 1.83934 -2.99769 0
M  V30 2747 H 288.268 3.23441 -1.94077 0
M  V30 2748 H 290.655 2.7476 -1.0766 0
M  V30 2749 H 290.736 1.35736 -2.16816 0
M  V30 2750 H 290.38 2.92352 -4.15322 0
M  V30 2751 H 290.31 4.30584 -3.03158 0
M  V30 2752 H 292.801 2.83996 -2.49308 0
M  V30 2753 H 293.114 5.37612 -5.55151 0
M  V30 2754 H 291.459 4.83988 -4.98779 0
M  V30 2755 H 294.65 3.46167 -3.15097 0
M  V30 2756 H 294.823 4.61834 -4.54547 0
M  V30 2757 N 288.23 0.939286 1.26551 0
M  V30 2758 C 289.16 0.465044 2.28822 0
M  V30 2759 C 290.141 -0.480692 1.63167 0
M  V30 2760 O 291.326 -0.382955 1.90387 0
M  V30 2761 C 288.456 -0.27234 3.46231 0
M  V30 2762 C 287.41 0.58666 4.2396 0
M  V30 2763 C 286.736 -0.280573 5.33963 0
M  V30 2764 C 288.036 1.85704 4.88171 0
M  V30 2765 H 289.73 1.31979 2.68741 0
M  V30 2766 H 287.276 0.636061 1.29191 0
M  V30 2767 H 289.229 -0.615133 4.16886 0
M  V30 2768 H 287.953 -1.16121 3.0526 0
M  V30 2769 H 286.612 0.91232 3.55067 0
M  V30 2770 H 286.26 -1.16874 4.89234 0
M  V30 2771 H 285.96 0.29076 5.8688 0
M  V30 2772 H 287.484 -0.618678 6.07458 0
M  V30 2773 H 288.898 1.58161 5.51052 0
M  V30 2774 H 287.295 2.37279 5.51197 0
M  V30 2775 H 288.365 2.56957 4.11219 0
M  V30 2776 N 289.708 -1.40897 0.706093 0
M  V30 2777 C 290.64 -2.29199 0.00815776 0
M  V30 2778 C 291.653 -1.45336 -0.733582 0
M  V30 2779 O 292.842 -1.68727 -0.582537 0
M  V30 2780 C 289.942 -3.23417 -1.01265 0
M  V30 2781 C 289.115 -4.36089 -0.338387 0
M  V30 2782 C 288.174 -5.10811 -1.26326 0
M  V30 2783 O 287.2 -5.64215 -0.751651 0
M  V30 2784 N 288.402 -5.19269 -2.595 0
M  V30 2785 H 291.167 -2.89738 0.766297 0
M  V30 2786 H 288.728 -1.52164 0.55296 0
M  V30 2787 H 290.72 -3.70276 -1.63334 0
M  V30 2788 H 289.29 -2.64112 -1.67223 0
M  V30 2789 H 288.51 -3.91479 0.462352 0
M  V30 2790 H 289.798 -5.08634 0.130031 0
M  V30 2791 H 289.196 -4.77347 -3.03573 0
M  V30 2792 H 287.753 -5.69667 -3.16737 0
M  V30 2793 N 291.186 -0.45159 -1.50991 0
M  V30 2794 C 292.411 0.110667 -2.07105 0
M  V30 2795 C 292.836 1.3446 -1.31538 0
M  V30 2796 O 292.194 1.77743 -0.357365 0
M  V30 2797 C 292.242 0.397238 -3.58405 0
M  V30 2798 O 291.346 1.48124 -3.84881 0
M  V30 2799 H 290.687 -0.00439271 -0.663985 0
M  V30 2800 H 293.217 -0.637026 -1.9443 0
M  V30 2801 H 293.227 0.64351 -4.02893 0
M  V30 2802 H 291.902 -0.504553 -4.12828 0
M  V30 2803 H 290.479 1.22381 -3.52246 0
M  V30 2804 N 292.664 1.56529 -0.183458 0
M  V30 2805 C 294.08 1.58664 0.172554 0
M  V30 2806 C 294.28 1.19925 1.61926 0
M  V30 2807 O 293.336 0.916534 2.35278 0
M  V30 2808 C 294.649 3.00463 -0.119262 0
M  V30 2809 C 296.197 3.12945 -0.0584396 0
M  V30 2810 C 296.672 4.56857 -0.323408 0
M  V30 2811 N 298.163 4.62403 -0.271612 0
M  V30 2812 C 298.898 5.71626 -0.450639 0
M  V30 2813 N 298.394 6.89362 -0.689384 0
M  V30 2814 N 300.187 5.60775 -0.385701 0
M  V30 2815 H 292.338 1.79994 -1.12765 0
M  V30 2816 H 294.601 0.834808 -0.449222 0
M  V30 2817 H 294.307 3.33326 -1.12192 0
M  V30 2818 H 294.181 3.72659 0.583544 0
M  V30 2819 H 296.568 2.79902 0.934805 0
M  V30 2820 H 296.649 2.4316 -0.794144 0
M  V30 2821 H 296.293 4.9061 -1.31392 0
M  V30 2822 H 296.223 5.24816 0.43305 0
M  V30 2823 H 298.714 3.77785 -0.0932256 0
M  V30 2824 H 299.027 7.68489 -0.815113 0
M  V30 2825 H 297.372 6.91196 -0.726142 0
M  V30 2826 H 300.563 4.67674 -0.199687 0
M  V30 2827 H 300.736 6.4584 -0.528646 0
M  V30 2828 N 294.142 -0.090211 1.57342 0
M  V30 2829 C 295.39 -0.791241 1.85967 0
M  V30 2830 C 295.711 -1.7903 0.772859 0
M  V30 2831 O 294.981 -1.94872 -0.200398 0
M  V30 2832 H 293.561 -0.295205 0.686195 0
M  V30 2833 H 296.223 -0.0706782 1.94772 0
M  V30 2834 H 295.319 -1.31882 2.82867 0
M  V30 2835 N 295.62 -1.53406 -0.361157 0
M  V30 2836 C 296.568 -1.80832 -1.46296 0
M  V30 2837 C 297.562 -0.677699 -1.55253 0
M  V30 2838 O 298.768 -0.860723 -1.58087 0
M  V30 2839 H 295.143 -0.572627 -0.487445 0
M  V30 2840 H 297.114 -2.73045 -1.20371 0
M  V30 2841 C 295.863 -2.01907 -2.8307 0
M  V30 2842 H 295.186 -2.88349 -2.76938 0
M  V30 2843 H 296.626 -2.25072 -3.59331 0
M  V30 2844 C 295.085 -0.799449 -3.27277 0
M  V30 2845 O 295.615 0.00971761 -4.01699 0
M  V30 2846 N 293.821 -0.621637 -2.83873 0
M  V30 2847 H 293.368 -1.28126 -2.23476 0
M  V30 2848 H 293.326 0.19298 -3.13807 0
M  V30 2849 N 297.098 0.621204 -1.44841 0
M  V30 2850 C 298.046 1.75385 -1.52784 0
M  V30 2851 C 299.04 1.64639 -0.398779 0
M  V30 2852 O 300.246 1.70598 -0.574137 0
M  V30 2853 H 296.621 0.579193 -0.479625 0
M  V30 2854 H 298.592 1.6581 -2.48092 0
M  V30 2855 C 297.341 3.13742 -1.4987 0
M  V30 2856 H 296.664 3.22663 -2.36069 0
M  V30 2857 H 298.104 3.92861 -1.59487 0
M  V30 2858 C 296.563 3.36175 -0.220973 0
M  V30 2859 O 297.093 3.95469 0.704782 0
M  V30 2860 N 295.299 2.90348 -0.120963 0
M  V30 2861 H 294.846 2.42278 -0.875162 0
M  V30 2862 H 294.804 3.05732 0.733168 0
M  V30 2863 N 298.576 1.31904 0.862503 0
M  V30 2864 C 299.823 1.22017 1.61611 0
M  V30 2865 C 300.151 -0.21991 1.93253 0
M  V30 2866 O 299.406 -1.17076 1.56817 0
M  V30 2867 C 299.705 2.01713 2.95037 0
M  V30 2868 C 299.371 3.51145 2.82857 0
M  V30 2869 C 298.033 3.91889 2.79243 0
M  V30 2870 C 300.385 4.46204 2.69353 0
M  V30 2871 C 297.713 5.25947 2.59993 0
M  V30 2872 C 300.065 5.80397 2.5164 0
M  V30 2873 C 298.729 6.20352 2.46413 0
M  V30 2874 H 297.999 0.44649 0.591378 0
M  V30 2875 H 300.646 1.63248 1.00111 0
M  V30 2876 H 298.951 1.53185 3.60613 0
M  V30 2877 H 300.648 1.91437 3.52353 0
M  V30 2878 H 297.238 3.1878 2.86491 0
M  V30 2879 H 301.422 4.15652 2.71196 0
M  V30 2880 H 296.678 5.5597 2.54376 0
M  V30 2881 H 300.852 6.53676 2.40169 0
M  V30 2882 H 298.479 7.24172 2.31256 0
M  V30 2883 N 300.054 -1.07777 1.14986 0
M  V30 2884 C 301.465 -1.61766 0.932127 0
M  V30 2885 C 301.816 -1.88974 -0.527581 0
M  V30 2886 O 300.941 -1.65198 -1.39781 0
M  V30 2887 C 301.536 -2.93891 1.68563 0
M  V30 2888 C 300.095 -3.44639 1.5133 0
M  V30 2889 C 299.242 -2.18767 1.704 0
M  V30 2890 H 302.193 -0.909201 1.30074 0
M  V30 2891 H 302.214 -3.62623 1.15259 0
M  V30 2892 H 301.726 -2.74057 2.74799 0
M  V30 2893 H 299.827 -3.69564 0.474702 0
M  V30 2894 H 299.94 -4.20966 2.28746 0
M  V30 2895 H 298.304 -2.28253 1.13016 0
M  V30 2896 H 299.087 -2.01433 2.77992 0
M  V30 2897 N 301.532 -0.945985 -1.26051 0
M  V30 2898 C 302.479 -0.45809 -2.26208 0
M  V30 2899 C 303.449 0.484816 -1.58867 0
M  V30 2900 O 304.634 0.399969 -1.86561 0
M  V30 2901 C 301.774 0.266131 -3.44072 0
M  V30 2902 C 300.887 -0.713005 -4.26075 0
M  V30 2903 C 300.022 0.0329013 -5.3119 0
M  V30 2904 C 299.061 -0.93774 -6.04874 0
M  V30 2905 N 298.198 -0.223274 -7.01745 0
M  V30 2906 H 303.038 -1.3171 -2.67313 0
M  V30 2907 H 300.575 -0.66069 -1.31428 0
M  V30 2908 H 302.533 0.702514 -4.11243 0
M  V30 2909 H 301.163 1.08925 -3.03867 0
M  V30 2910 H 300.215 -1.26789 -3.58648 0
M  V30 2911 H 301.527 -1.45406 -4.77136 0
M  V30 2912 H 300.681 0.528335 -6.04395 0
M  V30 2913 H 299.42 0.806801 -4.8098 0
M  V30 2914 H 298.425 -1.44425 -5.30492 0
M  V30 2915 H 299.65 -1.71172 -6.57173 0
M  V30 2916 H 297.596 0.532046 -6.53839 0
M  V30 2917 H 297.513 -0.90357 -7.50581 0
M  V30 2918 H 298.781 0.250907 -7.79096 0
M  V30 2919 N 303.011 1.40521 -0.713556 0
M  V30 2920 C 303.941 2.33381 -0.0743864 0
M  V30 2921 C 304.922 1.52784 0.747735 0
M  V30 2922 O 306.107 1.81258 0.697071 0
M  V30 2923 C 303.237 3.36748 0.849598 0
M  V30 2924 C 302.191 4.27793 0.133247 0
M  V30 2925 C 301.517 5.21679 1.17281 0
M  V30 2926 C 302.817 5.12415 -1.01134 0
M  V30 2927 H 304.511 2.87081 -0.850007 0
M  V30 2928 H 302.057 1.38034 -0.410201 0
M  V30 2929 H 304.01 4.00648 1.30612 0
M  V30 2930 H 302.734 2.81439 1.65709 0
M  V30 2931 H 301.393 3.65342 -0.303426 0
M  V30 2932 H 301.041 4.62677 1.9733 0
M  V30 2933 H 300.741 5.83435 0.698397 0
M  V30 2934 H 302.265 5.88456 1.62947 0
M  V30 2935 H 303.679 5.69781 -0.634274 0
M  V30 2936 H 302.076 5.83203 -1.41399 0
M  V30 2937 H 303.146 4.48514 -1.84292 0
M  V30 2938 N 304.489 0.459591 1.5075 0
M  V30 2939 C 305.737 -0.0991532 2.01857 0
M  V30 2940 C 306.058 -1.41247 1.34441 0
M  V30 2941 O 305.328 -1.89775 0.486022 0
M  V30 2942 H 303.908 -0.039633 0.745948 0
M  V30 2943 H 306.57 0.607387 1.85194 0
M  V30 2944 H 305.666 -0.258998 3.11023 0
M  V30 2945 N 305.967 -1.56429 0.191757 0
M  V30 2946 C 306.914 -2.18936 -0.730454 0
M  V30 2947 C 307.884 -1.13557 -1.21219 0
M  V30 2948 O 309.069 -1.41794 -1.27668 0
M  V30 2949 C 306.209 -2.85013 -1.9458 0
M  V30 2950 C 305.322 -4.04909 -1.50574 0
M  V30 2951 C 304.457 -4.58853 -2.67634 0
M  V30 2952 C 303.496 -5.71114 -2.20217 0
M  V30 2953 N 302.633 -6.19478 -3.30442 0
M  V30 2954 H 307.473 -2.97389 -0.190664 0
M  V30 2955 H 305.01 -1.46869 -0.0823694 0
M  V30 2956 H 306.968 -3.21492 -2.65893 0
M  V30 2957 H 305.598 -2.09129 -2.45896 0
M  V30 2958 H 304.65 -3.74115 -0.688605 0
M  V30 2959 H 305.962 -4.86113 -1.11784 0
M  V30 2960 H 305.116 -4.97619 -3.47074 0
M  V30 2961 H 303.855 -3.76749 -3.09696 0
M  V30 2962 H 302.86 -5.31879 -1.3923 0
M  V30 2963 H 304.085 -6.55033 -1.79189 0
M  V30 2964 H 302.031 -5.40297 -3.72041 0
M  V30 2965 H 301.948 -6.95725 -2.9581 0
M  V30 2966 H 303.216 -6.62898 -4.10106 0
M  V30 2967 N 307.445 0.0818655 -1.57387 0
M  V30 2968 C 308.673 0.796108 -1.9097 0
M  V30 2969 C 309.088 1.71626 -0.786757 0
M  V30 2970 O 308.445 1.80908 0.240513 0
M  V30 2971 C 308.496 1.59829 -3.24248 0
M  V30 2972 O 308.217 0.715131 -4.32224 0
M  V30 2973 C 309.718 2.41442 -3.7178 0
M  V30 2974 H 306.938 0.22691 -0.631469 0
M  V30 2975 H 309.482 0.0551439 -2.04426 0
M  V30 2976 H 307.637 2.29163 -3.12351 0
M  V30 2977 H 308.051 1.27205 -5.08841 0
M  V30 2978 H 309.525 2.932 -4.67694 0
M  V30 2979 H 310.002 3.2051 -3.00283 0
M  V30 2980 H 310.608 1.77283 -3.86589 0
M  V30 2981 N 308.923 1.53595 0.353017 0
M  V30 2982 C 309.853 1.83902 1.43883 0
M  V30 2983 C 310.834 0.693421 1.55324 0
M  V30 2984 O 312.019 0.944452 1.69687 0
M  V30 2985 C 309.149 2.04016 2.8106 0
M  V30 2986 C 308.103 3.19814 2.84434 0
M  V30 2987 C 307.429 3.25244 4.24406 0
M  V30 2988 C 308.729 4.58133 2.50822 0
M  V30 2989 H 310.423 2.74835 1.1877 0
M  V30 2990 H 307.969 1.32242 0.569917 0
M  V30 2991 H 309.922 2.238 3.57059 0
M  V30 2992 H 308.646 1.09804 3.07588 0
M  V30 2993 H 307.305 2.9987 2.10887 0
M  V30 2994 H 306.953 2.28646 4.48029 0
M  V30 2995 H 306.653 4.03054 4.27576 0
M  V30 2996 H 308.177 3.47228 5.0226 0
M  V30 2997 H 309.591 4.77995 3.16534 0
M  V30 2998 H 307.988 5.38276 2.6529 0
M  V30 2999 H 309.058 4.62387 1.46034 0
M  V30 3000 N 310.401 -0.613514 1.45168 0
M  V30 3001 C 311.349 -1.74572 1.53712 0
M  V30 3002 C 312.343 -1.64426 0.407505 0
M  V30 3003 O 313.549 -1.70291 0.583176 0
M  V30 3004 H 309.924 -0.576641 0.48269 0
M  V30 3005 H 311.895 -1.64492 2.48968 0
M  V30 3006 C 310.644 -3.12943 1.51532 0
M  V30 3007 H 309.967 -3.21407 2.37776 0
M  V30 3008 H 311.407 -3.9201 1.61569 0
M  V30 3009 C 309.866 -3.36053 0.238798 0
M  V30 3010 O 310.396 -3.95837 -0.6838 0
M  V30 3011 N 308.602 -2.9028 0.136359 0
M  V30 3012 H 308.149 -2.41811 0.887999 0
M  V30 3013 H 308.107 -3.06116 -0.716944 0
M  V30 3014 N 311.879 -1.3236 -0.855495 0
M  V30 3015 C 313.125 -1.23054 -1.612 0
M  V30 3016 C 313.458 0.207404 -1.93089 0
M  V30 3017 O 312.733 1.14432 -1.57275 0
M  V30 3018 C 313.016 -2.08937 -2.93287 0
M  V30 3019 C 312.869 -3.61105 -2.68185 0
M  V30 3020 C 314.188 -1.94986 -3.94549 0
M  V30 3021 H 311.307 -0.448364 -0.584926 0
M  V30 3022 H 313.949 -1.62297 -0.987917 0
M  V30 3023 H 312.099 -1.75599 -3.46551 0
M  V30 3024 H 313.771 -4.04652 -2.21483 0
M  V30 3025 H 312.014 -3.83813 -2.02164 0
M  V30 3026 H 312.685 -4.16522 -3.62234 0
M  V30 3027 H 315.161 -2.24189 -3.5054 0
M  V30 3028 H 314.037 -2.57356 -4.84829 0
M  V30 3029 H 314.298 -0.917263 -4.3248 0
M  V30 3030 N 313.357 1.07166 -1.15556 0
M  V30 3031 C 314.768 1.6127 -0.940693 0
M  V30 3032 C 315.119 1.89251 0.517551 0
M  V30 3033 O 314.244 1.65937 1.38903 0
M  V30 3034 C 314.839 2.92993 -1.7012 0
M  V30 3035 C 313.398 3.43832 -1.53156 0
M  V30 3036 C 312.545 2.1786 -1.71558 0
M  V30 3037 H 315.496 0.90229 -1.30554 0
M  V30 3038 H 315.517 3.62007 -1.17181 0
M  V30 3039 H 315.029 2.72596 -2.76248 0
M  V30 3040 H 313.13 3.69307 -0.494294 0
M  V30 3041 H 313.243 4.19747 -2.30975 0
M  V30 3042 H 311.607 2.2765 -1.14225 0
M  V30 3043 H 312.39 1.99956 -2.79056 0
M  V30 3044 N 314.835 0.952656 1.25548 0
M  V30 3045 C 316.246 0.647392 1.75116 0
M  V30 3046 C 316.597 -0.837274 1.77438 0
M  V30 3047 O 315.722 -1.65525 1.39393 0
M  V30 3048 C 316.317 1.16845 3.18014 0
M  V30 3049 C 314.876 0.913382 3.6515 0
M  V30 3050 C 314.023 1.31265 2.44264 0
M  V30 3051 H 316.974 1.12968 1.11462 0
M  V30 3052 H 316.995 0.527606 3.76824 0
M  V30 3053 H 316.507 2.24902 3.16292 0
M  V30 3054 H 314.608 -0.152316 3.72289 0
M  V30 3055 H 314.721 1.54845 4.53387 0
M  V30 3056 H 313.085 0.731028 2.43984 0
M  V30 3057 H 313.868 2.40239 2.45234 0
M  V30 3058 N 316.313 -1.40141 0.720998 0
M  V30 3059 C 317.724 -1.83678 0.334553 0
M  V30 3060 C 318.075 -1.6027 -1.13173 0
M  V30 3061 O 317.2 -1.08643 -1.87152 0
M  V30 3062 C 317.795 -3.33437 0.600437 0
M  V30 3063 C 316.354 -3.75447 0.267642 0
M  V30 3064 C 315.501 -2.63296 0.870097 0
M  V30 3065 H 318.452 -1.29331 0.919732 0
M  V30 3066 H 318.473 -3.80269 -0.132517 0
M  V30 3067 H 317.985 -3.50442 1.66768 0
M  V30 3068 H 316.086 -3.64035 -0.794329 0
M  V30 3069 H 316.199 -4.73344 0.74042 0
M  V30 3070 H 314.563 -2.52954 0.297739 0
M  V30 3071 H 315.346 -2.83112 1.94172 0
M  V30 3072 N 317.792 -0.46758 -1.50504 0
M  V30 3073 C 319.203 -0.0116166 -1.86696 0
M  V30 3074 C 319.554 1.39202 -1.38265 0
M  V30 3075 O 318.679 2.0313 -0.746132 0
M  V30 3076 C 319.274 -0.0143044 -3.38797 0
M  V30 3077 C 317.833 0.386175 -3.74414 0
M  V30 3078 C 316.98 -0.401287 -2.74381 0
M  V30 3079 H 319.931 -0.682022 -1.43297 0
M  V30 3080 H 319.952 0.788641 -3.72237 0
M  V30 3081 H 319.464 -1.03602 -3.74016 0
M  V30 3082 H 317.565 1.41237 -3.44794 0
M  V30 3083 H 317.678 0.0899596 -4.79016 0
M  V30 3084 H 316.042 0.144536 -2.5429 0
M  V30 3085 H 316.825 -1.42244 -3.12444 0
M  V30 3086 N 319.27 1.56325 -0.20005 0
M  V30 3087 C 320.547 1.89484 0.48529 0
M  V30 3088 C 320.927 1.1143 1.79294 0
M  V30 3089 O 320.275 0.216919 2.27468 0
M  V30 3090 C 320.485 3.41923 0.699243 0
M  V30 3091 C 321.833 4.12256 1.01638 0
M  V30 3092 O 322.857 3.47402 0.786792 0
M  V30 3093 O 321.716 5.26887 1.45095 0
M  V30 3094 H 318.81 0.787144 0.253639 0
M  V30 3095 H 321.356 1.67985 -0.240633 0
M  V30 3096 H 320.128 3.90658 -0.224008 0
M  V30 3097 H 319.751 3.69131 1.47744 0
M  V30 3098 N 320.748 -0.0735177 1.57428 0
M  V30 3099 C 322.159 -0.625551 1.75908 0
M  V30 3100 C 322.51 -1.78 0.825261 0
M  V30 3101 O 321.635 -2.16398 0.00893964 0
M  V30 3102 C 322.23 -1.14155 3.18989 0
M  V30 3103 C 320.789 -1.63946 3.38819 0
M  V30 3104 C 319.936 -0.558151 2.71625 0
M  V30 3105 H 322.887 0.152647 1.57964 0
M  V30 3106 H 322.908 -2.0104 3.23053 0
M  V30 3107 H 322.42 -0.301116 3.8693 0
M  V30 3108 H 320.521 -2.50321 2.7599 0
M  V30 3109 H 320.634 -1.71759 4.47253 0
M  V30 3110 H 318.998 -1.00278 2.34129 0
M  V30 3111 H 319.781 0.272071 3.4222 0
M  V30 3112 N 322.226 -1.5378 -0.344866 0
M  V30 3113 C 323.474 -1.70625 -1.08311 0
M  V30 3114 C 323.795 -0.471447 -1.89215 0
M  V30 3115 O 323.065 0.514616 -1.8902 0
M  V30 3116 H 321.645 -0.629058 -0.402859 0
M  V30 3117 H 324.307 -1.9103 -0.386459 0
M  V30 3118 H 323.403 -2.57656 -1.76124 0
M  V30 3119 N 323.704 0.605807 -1.45491 0
M  V30 3120 C 325.12 0.926751 -1.29936 0
M  V30 3121 C 325.32 1.99896 -0.253706 0
M  V30 3122 O 324.376 2.50038 0.351737 0
M  V30 3123 C 325.689 1.36599 -2.67883 0
M  V30 3124 C 327.237 1.4801 -2.75793 0
M  V30 3125 C 327.712 1.95309 -4.14268 0
M  V30 3126 N 329.203 2.0254 -4.16571 0
M  V30 3127 C 329.938 2.40363 -5.20589 0
M  V30 3128 N 329.434 2.77143 -6.34952 0
M  V30 3129 N 331.227 2.40718 -5.07948 0
M  V30 3130 H 323.378 -0.102862 -2.12151 0
M  V30 3131 H 325.641 0.016639 -0.947854 0
M  V30 3132 H 325.347 0.652306 -3.45598 0
M  V30 3133 H 325.221 2.33215 -2.96463 0
M  V30 3134 H 327.608 2.1847 -1.98381 0
M  V30 3135 H 327.689 0.497041 -2.50925 0
M  V30 3136 H 327.333 1.25436 -4.92167 0
M  V30 3137 H 327.263 2.94532 -4.3653 0
M  V30 3138 H 329.754 1.76699 -3.34045 0
M  V30 3139 H 330.067 3.0489 -7.10114 0
M  V30 3140 H 328.412 2.74834 -6.3835 0
M  V30 3141 H 331.603 2.11392 -4.1765 0
M  V30 3142 H 331.776 2.69869 -5.89131 0
M  V30 3143 N 325.182 1.32811 0.848464 0
M  V30 3144 C 326.145 1.22194 1.9391 0
M  V30 3145 C 327.145 0.143404 1.60159 0
M  V30 3146 O 328.335 0.394253 1.6968 0
M  V30 3147 C 325.467 0.88067 3.29328 0
M  V30 3148 H 326.66 2.19127 2.04752 0
M  V30 3149 H 324.213 1.16731 1.0394 0
M  V30 3150 H 324.948 -0.0865776 3.24184 0
M  V30 3151 H 324.733 1.66052 3.55203 0
M  V30 3152 H 326.223 0.830871 4.09251 0
M  V30 3153 N 326.66 -1.06551 1.16123 0
M  V30 3154 C 327.885 -1.83544 0.965735 0
M  V30 3155 C 328.31 -1.81843 -0.481102 0
M  V30 3156 O 327.668 -1.21732 -1.34354 0
M  V30 3157 C 327.716 -3.28169 1.49457 0
M  V30 3158 O 326.82 -4.0643 0.699157 0
M  V30 3159 H 326.161 -0.568026 0.343864 0
M  V30 3160 H 328.691 -1.34362 1.54299 0
M  V30 3161 H 328.701 -3.78992 1.51092 0
M  V30 3162 H 327.376 -3.28722 2.54784 0
M  V30 3163 H 325.953 -3.65216 0.7531 0
M  V30 3164 N 328.138 -0.959301 -1.25041 0
M  V30 3165 C 329.366 -0.633949 -1.96948 0
M  V30 3166 C 329.781 0.794916 -1.7125 0
M  V30 3167 O 329.138 1.53231 -0.991287 0
M  V30 3168 C 329.189 -0.888805 -3.50403 0
M  V30 3169 O 328.91 -2.26149 -3.75218 0
M  V30 3170 C 330.411 -0.576482 -4.39536 0
M  V30 3171 H 327.631 -0.237263 -0.627652 0
M  V30 3172 H 330.175 -1.28495 -1.59089 0
M  V30 3173 H 328.33 -0.284145 -3.86357 0
M  V30 3174 H 328.744 -2.33514 -4.6965 0
M  V30 3175 H 330.218 -0.805314 -5.46094 0
M  V30 3176 H 330.695 0.489075 -4.36468 0
M  V30 3177 H 331.301 -1.16067 -4.09156 0
M  V30 3178 N 329.616 1.39756 -0.72842 0
M  V30 3179 C 330.841 2.05472 -0.282159 0
M  V30 3180 C 331.266 1.54549 1.07221 0
M  V30 3181 O 330.624 0.686372 1.67805 0
M  V30 3182 C 330.672 3.59462 -0.286264 0
M  V30 3183 O 329.776 4.05918 0.728298 0
M  V30 3184 H 329.117 0.651226 -0.129618 0
M  V30 3185 H 331.647 1.78915 -0.992499 0
M  V30 3186 H 331.657 4.07798 -0.128373 0
M  V30 3187 H 330.332 3.95889 -1.27456 0
M  V30 3188 H 328.909 3.69012 0.537081 0
M  V30 3189 N 331.094 0.475555 1.50254 0
M  V30 3190 C 332.342 -0.077738 2.0195 0
M  V30 3191 C 332.663 -1.39813 1.35931 0
M  V30 3192 O 331.933 -1.89249 0.506123 0
M  V30 3193 H 330.513 -0.031719 0.746326 0
M  V30 3194 H 333.175 0.626995 1.84539 0
M  V30 3195 H 332.271 -0.225995 3.11281 0
M  V30 3196 N 332.573 -1.56217 0.208337 0
M  V30 3197 C 333.801 -2.02337 -0.43215 0
M  V30 3198 C 334.216 -1.08834 -1.54275 0
M  V30 3199 O 333.573 -0.0955462 -1.8225 0
M  V30 3200 C 333.624 -3.48072 -0.976138 0
M  V30 3201 O 333.345 -4.38007 0.0901621 0
M  V30 3202 C 334.846 -4.09773 -1.69119 0
M  V30 3203 H 332.066 -0.662385 -0.10718 0
M  V30 3204 H 334.61 -2.01966 0.320923 0
M  V30 3205 H 332.765 -3.49099 -1.67954 0
M  V30 3206 H 333.179 -5.23543 -0.316701 0
M  V30 3207 H 334.653 -5.13556 -2.02397 0
M  V30 3208 H 335.13 -3.53999 -2.59964 0
M  V30 3209 H 335.736 -4.12556 -1.03332 0
M  V30 3210 N 334.051 0.0651679 -1.57465 0
M  V30 3211 C 335.462 0.616213 -1.76238 0
M  V30 3212 C 335.813 1.7756 -0.834689 0
M  V30 3213 O 334.938 2.1639 -0.0204156 0
M  V30 3214 C 335.533 1.12462 -3.1959 0
M  V30 3215 C 334.092 1.62147 -3.39684 0
M  V30 3216 C 333.239 0.543739 -2.71917 0
M  V30 3217 H 336.19 -0.161022 -1.57881 0
M  V30 3218 H 336.211 1.99324 -3.24114 0
M  V30 3219 H 335.723 0.280592 -3.87084 0
M  V30 3220 H 333.824 2.48854 -2.77313 0
M  V30 3221 H 333.937 1.69385 -4.48158 0
M  V30 3222 H 332.301 0.990352 -2.34657 0
M  V30 3223 H 333.084 -0.290216 -3.42071 0
M  V30 3224 N 335.529 1.53961 0.336706 0
M  V30 3225 C 336.778 1.70751 1.07363 0
M  V30 3226 C 337.091 0.481061 1.89592 0
M  V30 3227 O 338.297 0.530046 2.66276 0
M  V30 3228 C 336.753 3.01965 1.95818 0
M  V30 3229 C 336.361 4.31971 1.18764 0
M  V30 3230 C 338.105 3.28121 2.69327 0
M  V30 3231 C 336.012 5.54255 2.06289 0
M  V30 3232 H 334.942 0.636292 0.404535 0
M  V30 3233 H 337.593 1.80459 0.332681 0
M  V30 3234 H 335.975 2.86132 2.7376 0
M  V30 3235 H 337.149 4.5853 0.456849 0
M  V30 3236 H 335.464 4.12481 0.569946 0
M  V30 3237 H 338.061 4.16673 3.35094 0
M  V30 3238 H 338.404 2.45426 3.36261 0
M  V30 3239 H 338.937 3.44762 1.98454 0
M  V30 3240 H 335.676 6.39513 1.43885 0
M  V30 3241 H 335.196 5.31935 2.77138 0
M  V30 3242 H 336.875 5.90159 2.65182 0
M  V30 3243 N 337.007 -0.598083 1.45811 0
M  V30 3244 C 337.954 -1.7082 1.55207 0
M  V30 3245 C 338.924 -1.61278 0.39732 0
M  V30 3246 O 340.109 -1.80717 0.612038 0
M  V30 3247 C 337.249 -3.09144 1.53376 0
M  V30 3248 C 336.362 -3.29423 2.79472 0
M  V30 3249 C 335.497 -4.57907 2.69248 0
M  V30 3250 C 334.536 -4.71476 3.90354 0
M  V30 3251 N 333.673 -5.9127 3.78608 0
M  V30 3252 H 338.513 -1.62125 2.50039 0
M  V30 3253 H 336.05 -0.790389 1.24062 0
M  V30 3254 H 338.008 -3.89186 1.50301 0
M  V30 3255 H 336.638 -3.16773 0.620876 0
M  V30 3256 H 335.69 -2.43091 2.92594 0
M  V30 3257 H 337.002 -3.3532 3.69272 0
M  V30 3258 H 336.156 -5.46157 2.64192 0
M  V30 3259 H 334.895 -4.54423 1.77063 0
M  V30 3260 H 333.9 -3.81648 3.95759 0
M  V30 3261 H 335.125 -4.76751 4.83617 0
M  V30 3262 H 333.071 -5.88813 2.89199 0
M  V30 3263 H 332.988 -5.98369 4.6205 0
M  V30 3264 H 334.256 -6.81992 3.77501 0
M  V30 3265 N 338.485 -1.33259 -0.841409 0
M  V30 3266 C 339.432 -1.23302 -1.95103 0
M  V30 3267 C 340.402 -0.112204 -1.65721 0
M  V30 3268 O 341.587 -0.290038 -1.88583 0
M  V30 3269 C 338.727 -0.975583 -3.31023 0
M  V30 3270 C 337.84 -2.18243 -3.72819 0
M  V30 3271 C 336.975 -1.85936 -4.97595 0
M  V30 3272 C 336.014 -3.02866 -5.3192 0
M  V30 3273 N 335.151 -2.70565 -6.47873 0
M  V30 3274 H 339.991 -2.18207 -2.02952 0
M  V30 3275 H 337.528 -1.0851 -0.993173 0
M  V30 3276 H 339.486 -0.80677 -4.09325 0
M  V30 3277 H 338.116 -0.0632755 -3.22738 0
M  V30 3278 H 337.168 -2.46107 -2.90061 0
M  V30 3279 H 338.48 -3.05666 -3.94169 0
M  V30 3280 H 337.634 -1.65684 -5.83638 0
M  V30 3281 H 336.373 -0.957452 -4.78209 0
M  V30 3282 H 335.378 -3.23736 -4.44382 0
M  V30 3283 H 336.603 -3.93809 -5.53255 0
M  V30 3284 H 334.549 -1.8293 -6.29978 0
M  V30 3285 H 334.466 -3.51519 -6.69306 0
M  V30 3286 H 335.734 -2.53774 -7.37034 0
M  V30 3287 N 339.963 1.05934 -1.16686 0
M  V30 3288 C 341.211 1.78447 -0.948744 0
M  V30 3289 C 341.532 1.87813 0.524523 0
M  V30 3290 O 340.802 1.38945 1.38098 0
M  V30 3291 H 339.382 0.660971 -0.348033 0
M  V30 3292 H 342.044 1.27947 -1.47022 0
M  V30 3293 H 341.14 2.80394 -1.37061 0
M  V30 3294 N 341.441 0.965919 1.2453 0
M  V30 3295 C 342.669 0.644385 1.96609 0
M  V30 3296 C 343.084 -0.785823 1.71669 0
M  V30 3297 O 342.441 -1.52703 0.999399 0
M  V30 3298 C 342.492 0.907375 3.49927 0
M  V30 3299 O 342.213 2.28136 3.74013 0
M  V30 3300 C 343.714 0.599784 4.39224 0
M  V30 3301 H 340.934 0.240588 0.626385 0
M  V30 3302 H 343.478 1.29337 1.58405 0
M  V30 3303 H 341.633 0.304631 3.862 0
M  V30 3304 H 342.047 2.36002 4.68405 0
M  V30 3305 H 343.521 0.834263 5.45659 0
M  V30 3306 H 343.998 -0.465921 4.36722 0
M  V30 3307 H 344.604 1.18235 4.08535 0
M  V30 3308 N 342.919 -1.39368 0.735821 0
M  V30 3309 C 343.829 -2.34395 0.0979693 0
M  V30 3310 C 344.845 -1.58361 -0.720968 0
M  V30 3311 O 346.021 -1.90648 -0.649245 0
M  V30 3312 C 343.086 -3.37393 -0.797916 0
M  V30 3313 C 342.147 -4.29287 0.0333662 0
M  V30 3314 C 341.38 -5.27365 -0.819854 0
M  V30 3315 O 341.603 -5.31959 -2.05855 0
M  V30 3316 O 340.537 -6.01389 -0.248079 0
M  V30 3317 H 344.363 -2.90601 0.882315 0
M  V30 3318 H 341.948 -1.40909 0.4965 0
M  V30 3319 H 343.83 -4.00505 -1.31048 0
M  V30 3320 H 342.505 -2.83571 -1.56106 0
M  V30 3321 H 341.412 -3.69395 0.591475 0
M  V30 3322 H 342.745 -4.86317 0.758752 0
M  V30 3323 N 344.397 -0.483516 -1.5 0
M  V30 3324 C 345.813 -0.138404 -1.58999 0
M  V30 3325 C 346.013 1.35597 -1.4905 0
M  V30 3326 O 345.069 2.13039 -1.35539 0
M  V30 3327 C 346.382 -0.699658 -2.92447 0
M  V30 3328 C 347.93 -0.664195 -3.05872 0
M  V30 3329 C 348.405 -1.20321 -4.41913 0
M  V30 3330 N 349.896 -1.16315 -4.48358 0
M  V30 3331 C 350.631 -1.55058 -5.52037 0
M  V30 3332 N 350.127 -2.01311 -6.62907 0
M  V30 3333 N 351.92 -1.46584 -5.42651 0
M  V30 3334 H 344.071 -1.45529 -1.5471 0
M  V30 3335 H 346.334 -0.60258 -0.731848 0
M  V30 3336 H 346.04 -1.747 -3.05242 0
M  V30 3337 H 345.914 -0.150194 -3.76901 0
M  V30 3338 H 348.301 0.374272 -2.92717 0
M  V30 3339 H 348.382 -1.25061 -2.23144 0
M  V30 3340 H 348.026 -2.24037 -4.55818 0
M  V30 3341 H 347.956 -0.592896 -5.23252 0
M  V30 3342 H 350.447 -0.824058 -3.68806 0
M  V30 3343 H 350.76 -2.2899 -7.38095 0
M  V30 3344 H 349.105 -2.05273 -6.63994 0
M  V30 3345 H 352.296 -1.10281 -4.54924 0
M  V30 3346 H 352.469 -1.77103 -6.23329 0
M  V30 3347 N 345.875 1.56104 -0.216619 0
M  V30 3348 C 347.291 1.58995 0.13886 0
M  V30 3349 C 347.491 1.23333 1.59346 0
M  V30 3350 O 346.547 0.966234 2.33281 0
M  V30 3351 C 347.86 3.00143 -0.182968 0
M  V30 3352 C 349.408 3.12751 -0.124807 0
M  V30 3353 C 349.883 4.56068 -0.420241 0
M  V30 3354 N 351.374 4.61723 -0.369634 0
M  V30 3355 C 352.109 5.70542 -0.571789 0
M  V30 3356 N 351.605 6.87744 -0.835453 0
M  V30 3357 N 353.398 5.59831 -0.504563 0
M  V30 3358 H 345.549 1.77562 -1.16557 0
M  V30 3359 H 347.812 0.825091 -0.466828 0
M  V30 3360 H 347.518 3.30871 -1.19237 0
M  V30 3361 H 347.392 3.73813 0.504367 0
M  V30 3362 H 349.779 2.81822 0.875223 0
M  V30 3363 H 349.86 2.41421 -0.845544 0
M  V30 3364 H 349.504 4.87713 -1.41769 0
M  V30 3365 H 349.434 5.25617 0.321631 0
M  V30 3366 H 351.925 3.77502 -0.173338 0
M  V30 3367 H 352.238 7.66587 -0.977938 0
M  V30 3368 H 350.583 6.895 -0.872592 0
M  V30 3369 H 353.774 4.67145 -0.298842 0
M  V30 3370 H 353.947 6.44573 -0.665519 0
M  V30 3371 N 347.353 -0.0568162 1.57498 0
M  V30 3372 C 348.283 -1.06593 2.0775 0
M  V30 3373 C 349.264 -1.39448 0.974082 0
M  V30 3374 O 350.449 -1.48815 1.24771 0
M  V30 3375 C 347.579 -2.37509 2.5339 0
M  V30 3376 C 346.533 -2.1897 3.67745 0
M  V30 3377 C 345.859 -3.55402 3.99492 0
M  V30 3378 C 347.159 -1.59859 4.97235 0
M  V30 3379 H 348.853 -0.647706 2.9231 0
M  V30 3380 H 346.399 -0.310116 1.40621 0
M  V30 3381 H 348.352 -3.08409 2.87162 0
M  V30 3382 H 347.076 -2.8134 1.65878 0
M  V30 3383 H 345.735 -1.50508 3.3428 0
M  V30 3384 H 345.383 -3.9683 3.09088 0
M  V30 3385 H 345.083 -3.43831 4.76502 0
M  V30 3386 H 346.607 -4.27708 4.35773 0
M  V30 3387 H 348.021 -2.20642 5.29141 0
M  V30 3388 H 346.418 -1.58942 5.78669 0
M  V30 3389 H 347.488 -0.561506 4.81638 0
M  V30 3390 N 348.832 -1.54138 -0.328536 0
M  V30 3391 C 349.795 -1.82462 -1.38709 0
M  V30 3392 C 350.795 -0.696229 -1.44946 0
M  V30 3393 O 351.985 -0.964535 -1.4506 0
M  V30 3394 C 349.117 -1.98018 -2.77492 0
M  V30 3395 H 350.31 -2.77037 -1.14851 0
M  V30 3396 H 347.863 -1.45779 -0.563751 0
M  V30 3397 H 348.598 -1.05637 -3.06613 0
M  V30 3398 H 348.383 -2.80124 -2.74359 0
M  V30 3399 H 349.873 -2.21396 -3.54081 0
M  V30 3400 N 350.31 0.590341 -1.46126 0
M  V30 3401 C 351.535 1.37991 -1.54833 0
M  V30 3402 C 351.96 1.87163 -0.187506 0
M  V30 3403 O 351.318 1.61133 0.831008 0
M  V30 3404 C 351.366 2.54867 -2.55098 0
M  V30 3405 O 350.47 3.56061 -2.08073 0
M  V30 3406 H 349.811 0.411265 -0.521303 0
M  V30 3407 H 352.341 0.716819 -1.91632 0
M  V30 3408 H 352.351 3.01886 -2.74461 0
M  V30 3409 H 351.026 2.18429 -3.53923 0
M  V30 3410 H 349.603 3.15574 -1.98664 0
M  V30 3411 N 351.788 1.33704 0.83433 0
M  V30 3412 C 353.035 1.25417 1.58987 0
M  V30 3413 C 353.363 -0.178869 1.93676 0
M  V30 3414 O 352.618 -1.13723 1.59265 0
M  V30 3415 C 352.917 2.07926 2.90692 0
M  V30 3416 C 352.583 3.57066 2.75345 0
M  V30 3417 C 351.245 3.97724 2.70867 0
M  V30 3418 C 353.597 4.51817 2.59828 0
M  V30 3419 C 350.925 5.31344 2.48778 0
M  V30 3420 C 353.277 5.85604 2.39272 0
M  V30 3421 C 351.941 6.25439 2.33199 0
M  V30 3422 H 351.211 0.458934 0.581774 0
M  V30 3423 H 353.858 1.65335 0.966261 0
M  V30 3424 H 352.163 1.608 3.57282 0
M  V30 3425 H 353.86 1.98868 3.48213 0
M  V30 3426 H 350.45 3.24785 2.79665 0
M  V30 3427 H 354.634 4.21311 2.62319 0
M  V30 3428 H 349.89 5.61241 2.42526 0
M  V30 3429 H 354.064 6.58623 2.2625 0
M  V30 3430 H 351.691 7.28914 2.15843 0
M  V30 3431 N 353.266 -1.05314 1.17247 0
M  V30 3432 C 354.514 -1.77941 0.958194 0
M  V30 3433 C 354.835 -1.88089 -0.514556 0
M  V30 3434 O 354.105 -1.39676 -1.37359 0
M  V30 3435 H 352.685 -0.659116 0.351533 0
M  V30 3436 H 355.347 -1.27166 1.47699 0
M  V30 3437 H 354.443 -2.79663 1.38546 0
M  V30 3438 N 354.744 -0.972509 -1.24016 0
M  V30 3439 C 355.972 -0.654803 -1.96265 0
M  V30 3440 C 356.387 0.776708 -1.72083 0
M  V30 3441 O 355.744 1.52171 -1.00748 0
M  V30 3442 C 355.795 -0.92592 -3.49441 0
M  V30 3443 O 355.516 -2.30116 -3.72798 0
M  V30 3444 C 357.017 -0.623068 -4.38899 0
M  V30 3445 H 354.237 -0.243907 -0.6251 0
M  V30 3446 H 356.781 -1.30175 -1.57717 0
M  V30 3447 H 354.936 -0.325108 -3.86033 0
M  V30 3448 H 355.35 -2.38483 -4.67147 0
M  V30 3449 H 356.824 -0.863189 -5.45209 0
M  V30 3450 H 357.301 0.442754 -4.36963 0
M  V30 3451 H 357.907 -1.204 -4.07902 0
M  V30 3452 N 356.222 1.38976 -0.743202 0
M  V30 3453 C 357.132 2.3434 -0.110399 0
M  V30 3454 C 358.148 1.58741 0.712559 0
M  V30 3455 O 359.324 1.9099 0.639125 0
M  V30 3456 C 356.389 3.37812 0.780012 0
M  V30 3457 C 355.45 4.29263 -0.0561319 0
M  V30 3458 C 354.683 5.27793 0.791875 0
M  V30 3459 O 354.906 5.33043 2.03031 0
M  V30 3460 O 353.84 6.01512 0.216183 0
M  V30 3461 H 357.666 2.90129 -0.897714 0
M  V30 3462 H 355.251 1.40643 -0.503966 0
M  V30 3463 H 357.133 4.01194 1.28923 0
M  V30 3464 H 355.808 2.84395 1.546 0
M  V30 3465 H 354.715 3.69076 -0.611056 0
M  V30 3466 H 356.048 4.85907 -0.784531 0
M  V30 3467 N 357.7 0.491464 1.49741 0
M  V30 3468 C 358.949 -0.0582189 2.01616 0
M  V30 3469 C 359.262 -1.38927 1.3769 0
M  V30 3470 O 360.468 -2.02509 1.80838 0
M  V30 3471 C 358.924 -0.154235 3.59569 0
M  V30 3472 C 358.532 1.1696 4.32463 0
M  V30 3473 C 360.276 -0.65479 4.1942 0
M  V30 3474 C 358.183 1.03627 5.8225 0
M  V30 3475 H 357.113 -0.0255317 0.753568 0
M  V30 3476 H 359.764 0.629445 1.72367 0
M  V30 3477 H 358.146 -0.906138 3.85493 0
M  V30 3478 H 359.32 1.93405 4.18248 0
M  V30 3479 H 357.635 1.60285 3.84315 0
M  V30 3480 H 360.232 -0.771903 5.29099 0
M  V30 3481 H 360.575 -1.65127 3.8215 0
M  V30 3482 H 361.108 0.040304 3.9778 0
M  V30 3483 H 357.847 2.00672 6.24028 0
M  V30 3484 H 357.367 0.312546 5.98985 0
M  V30 3485 H 359.046 0.711114 6.4308 0
M  V30 3486 N 359.178 -1.55987 0.224894 0
M  V30 3487 C 360.141 -2.19178 -0.670348 0
M  V30 3488 C 361.141 -1.15461 -1.11917 0
M  V30 3489 O 362.331 -1.40675 -1.02743 0
M  V30 3490 C 359.463 -2.81777 -1.9187 0
M  V30 3491 H 360.656 -2.99662 -0.119364 0
M  V30 3492 H 358.209 -1.5628 -0.0247128 0
M  V30 3493 H 358.944 -2.05172 -2.51147 0
M  V30 3494 H 358.729 -3.57732 -1.60531 0
M  V30 3495 H 360.219 -3.30205 -2.55645 0
M  V30 3496 N 360.656 0.0484629 -1.57525 0
M  V30 3497 C 361.881 0.759177 -1.93006 0
M  V30 3498 C 362.306 1.69125 -0.823317 0
M  V30 3499 O 361.664 1.79931 0.222364 0
M  V30 3500 C 361.712 1.50899 -3.27509 0
M  V30 3501 O 360.816 2.62112 -3.18388 0
M  V30 3502 H 360.157 0.205564 -0.631379 0
M  V30 3503 H 362.687 0.00972959 -2.04598 0
M  V30 3504 H 362.697 1.88317 -3.6194 0
M  V30 3505 H 361.372 0.825269 -4.0763 0
M  V30 3506 H 359.949 2.27379 -2.95556 0
M  V30 3507 N 362.134 1.5431 0.320358 0
M  V30 3508 C 363.064 1.86912 1.3995 0
M  V30 3509 C 364.045 0.726211 1.53819 0
M  V30 3510 O 365.23 0.980233 1.67646 0
M  V30 3511 C 362.36 2.09932 2.7667 0
M  V30 3512 C 361.314 3.25776 2.77586 0
M  V30 3513 C 360.64 3.34173 4.17412 0
M  V30 3514 C 361.94 4.6335 2.41048 0
M  V30 3515 H 363.634 2.77292 1.12914 0
M  V30 3516 H 361.18 1.33421 0.541738 0
M  V30 3517 H 363.133 2.31324 3.52232 0
M  V30 3518 H 361.857 1.16304 3.0519 0
M  V30 3519 H 360.516 3.04276 2.04479 0
M  V30 3520 H 360.164 2.38098 4.43078 0
M  V30 3521 H 359.864 4.12033 4.18931 0
M  V30 3522 H 361.388 3.57803 4.94782 0
M  V30 3523 H 362.802 4.84602 3.06324 0
M  V30 3524 H 361.199 5.43782 2.53813 0
M  V30 3525 H 362.269 4.65381 1.36193 0
M  V30 3526 N 363.613 -0.582584 1.46437 0
M  V30 3527 C 364.543 -1.70187 1.59871 0
M  V30 3528 C 365.524 -1.64066 0.449042 0
M  V30 3529 O 366.709 -1.82081 0.6753 0
M  V30 3530 C 363.839 -3.08827 1.58881 0
M  V30 3531 C 362.793 -3.29779 2.72819 0
M  V30 3532 C 362.119 -4.68947 2.5689 0
M  V30 3533 C 363.419 -3.17601 4.1464 0
M  V30 3534 H 365.113 -1.592 2.53566 0
M  V30 3535 H 362.659 -0.764472 1.22032 0
M  V30 3536 H 364.612 -3.86951 1.66873 0
M  V30 3537 H 363.336 -3.20713 0.617306 0
M  V30 3538 H 361.995 -2.54054 2.64296 0
M  V30 3539 H 361.643 -4.77599 1.57823 0
M  V30 3540 H 361.343 -4.83919 3.33312 0
M  V30 3541 H 362.867 -5.4924 2.66773 0
M  V30 3542 H 364.281 -3.8557 4.24274 0
M  V30 3543 H 362.678 -3.44094 4.9165 0
M  V30 3544 H 363.748 -2.14681 4.34788 0
M  V30 3545 N 365.091 -1.34144 -0.827227 0
M  V30 3546 C 366.319 -1.29325 -1.61501 0
M  V30 3547 C 366.734 0.13354 -1.88327 0
M  V30 3548 O 366.091 1.0793 -1.47164 0
M  V30 3549 C 366.142 -2.07746 -2.95844 0
M  V30 3550 O 365.863 -3.4486 -2.70191 0
M  V30 3551 C 367.364 -2.10273 -3.90256 0
M  V30 3552 H 364.584 -0.445069 -0.50215 0
M  V30 3553 H 367.128 -1.76693 -1.02955 0
M  V30 3554 H 365.283 -1.6403 -3.5096 0
M  V30 3555 H 365.697 -3.85345 -3.55822 0
M  V30 3556 H 367.171 -2.69575 -4.81698 0
M  V30 3557 H 367.648 -1.096 -4.25305 0
M  V30 3558 H 368.254 -2.54059 -3.41078 0
M  V30 3559 N 366.569 1.04691 -1.17803 0
M  V30 3560 C 367.817 1.7743 -0.967617 0
M  V30 3561 C 368.138 1.88359 0.504574 0
M  V30 3562 O 367.408 1.40402 1.36617 0
M  V30 3563 H 365.988 0.657242 -0.355024 0
M  V30 3564 H 368.65 1.2638 -1.48371 0
M  V30 3565 H 367.746 2.78924 -1.40027 0
M  V30 3566 N 368.047 0.979072 1.23499 0
M  V30 3567 C 369.295 0.645941 1.91499 0
M  V30 3568 C 369.616 -0.822948 1.76784 0
M  V30 3569 O 368.886 -1.58854 1.14639 0
M  V30 3570 H 367.466 0.235919 0.708767 0
M  V30 3571 H 370.128 1.2426 1.50152 0
M  V30 3572 H 369.224 0.896411 2.9895 0
M  V30 3573 N 369.525 -1.3858 0.750561 0
M  V30 3574 C 370.488 -2.28836 0.129152 0
M  V30 3575 C 371.488 -1.47045 -0.650714 0
M  V30 3576 O 372.678 -1.6753 -0.477428 0
M  V30 3577 C 369.81 -3.30751 -0.825622 0
M  V30 3578 H 371.003 -2.85294 0.924516 0
M  V30 3579 H 368.556 -1.47489 0.517376 0
M  V30 3580 H 369.291 -2.79378 -1.64677 0
M  V30 3581 H 369.076 -3.91177 -0.268852 0
M  V30 3582 H 370.566 -3.98249 -1.2565 0
M  V30 3583 N 371.003 -0.499398 -1.49478 0
M  V30 3584 C 372.231 0.0425456 -2.06856 0
M  V30 3585 C 372.646 1.30964 -1.35992 0
M  V30 3586 O 372.003 1.77172 -0.437762 0
M  V30 3587 C 372.054 0.301735 -3.60239 0
M  V30 3588 O 371.775 -0.915127 -4.28436 0
M  V30 3589 C 373.276 0.887499 -4.34325 0
M  V30 3590 H 370.496 -0.0197482 -0.670709 0
M  V30 3591 H 373.04 -0.696297 -1.92281 0
M  V30 3592 H 371.195 0.990556 -3.74522 0
M  V30 3593 H 371.609 -0.676993 -5.20113 0
M  V30 3594 H 373.083 1.01845 -5.42523 0
M  V30 3595 H 373.56 1.88488 -3.96698 0
M  V30 3596 H 374.166 0.236196 -4.24644 0
M  V30 3597 N 372.481 1.55866 -0.233164 0
M  V30 3598 C 373.413 2.18099 0.704668 0
M  V30 3599 C 374.426 1.15334 1.14899 0
M  V30 3600 O 375.615 1.42262 1.07814 0
M  V30 3601 C 372.715 2.7592 1.96777 0
M  V30 3602 C 371.888 4.03969 1.67713 0
M  V30 3603 C 370.947 4.46242 2.78845 0
M  V30 3604 O 369.973 5.12903 2.46818 0
M  V30 3605 N 371.175 4.12886 4.08051 0
M  V30 3606 H 373.94 2.99205 0.172258 0
M  V30 3607 H 371.501 1.61815 -0.0525945 0
M  V30 3608 H 373.493 3.01165 2.70337 0
M  V30 3609 H 372.063 1.99051 2.41034 0
M  V30 3610 H 371.283 3.86459 0.777391 0
M  V30 3611 H 372.571 4.8748 1.4574 0
M  V30 3612 H 371.969 3.59342 4.3691 0
M  V30 3613 H 370.526 4.42997 4.78118 0
M  V30 3614 N 373.959 -0.0401083 1.57549 0
M  V30 3615 C 375.199 -0.738098 1.90608 0
M  V30 3616 C 375.563 -1.73107 0.830539 0
M  V30 3617 O 376.764 -2.4765 1.04513 0
M  V30 3618 C 375.035 -1.39985 3.28845 0
M  V30 3619 S 376.594 -2.12852 3.83718 0
M  V30 3620 H 373.412 -0.24477 0.667539 0
M  V30 3621 H 376.014 0.00693599 1.95499 0
M  V30 3622 H 374.718 -0.663775 4.04997 0
M  V30 3623 H 374.249 -2.18366 3.2723 0
M  V30 3624 H 376.264 -3.39842 3.61555 0
M  V30 3625 N 375.437 -1.54477 -0.31217 0
M  V30 3626 C 376.4 -1.83923 -1.36766 0
M  V30 3627 C 377.4 -0.711563 -1.44199 0
M  V30 3628 O 378.59 -0.979866 -1.44029 0
M  V30 3629 C 375.722 -2.0095 -2.75376 0
M  V30 3630 H 376.915 -2.78239 -1.11906 0
M  V30 3631 H 374.468 -1.46369 -0.548257 0
M  V30 3632 H 375.203 -1.08883 -3.05475 0
M  V30 3633 H 374.988 -2.83018 -2.71373 0
M  V30 3634 H 376.478 -2.2514 -3.51713 0
M  V30 3635 N 376.915 0.57481 -1.46744 0
M  V30 3636 C 378.331 0.898981 -1.31873 0
M  V30 3637 C 378.531 1.99313 -0.29605 0
M  V30 3638 O 377.587 2.50728 0.298621 0
M  V30 3639 C 378.9 1.30886 -2.7072 0
M  V30 3640 C 380.448 1.42127 -2.78871 0
M  V30 3641 C 380.923 1.86478 -4.18318 0
M  V30 3642 N 382.414 1.93658 -4.20774 0
M  V30 3643 C 383.149 2.29267 -5.2557 0
M  V30 3644 N 382.645 2.63612 -6.40688 0
M  V30 3645 N 384.438 2.29889 -5.1294 0
M  V30 3646 H 376.589 -0.147839 -2.11885 0
M  V30 3647 H 378.852 -0.00347013 -0.947994 0
M  V30 3648 H 378.558 0.578853 -3.46904 0
M  V30 3649 H 378.432 2.26874 -3.01343 0
M  V30 3650 H 380.819 2.14213 -2.0297 0
M  V30 3651 H 380.9 0.443705 -2.51922 0
M  V30 3652 H 380.544 1.14968 -4.94717 0
M  V30 3653 H 380.474 2.85207 -4.42679 0
M  V30 3654 H 382.965 1.69574 -3.37718 0
M  V30 3655 H 383.278 2.89759 -7.16421 0
M  V30 3656 H 381.623 2.61232 -6.44036 0
M  V30 3657 H 384.814 2.02485 -4.22039 0
M  V30 3658 H 384.987 2.57312 -5.94722 0
M  V30 3659 N 378.394 1.34581 0.820102 0
M  V30 3660 C 379.341 1.2639 1.93117 0
M  V30 3661 C 380.311 0.138554 1.65521 0
M  V30 3662 O 381.496 0.320004 1.88097 0
M  V30 3663 C 378.636 1.02812 3.29429 0
M  V30 3664 C 377.749 2.24146 3.693 0
M  V30 3665 C 376.884 1.93829 4.94574 0
M  V30 3666 C 375.923 3.1129 5.27034 0
M  V30 3667 N 375.06 2.80838 6.43486 0
M  V30 3668 H 379.9 2.21408 1.99455 0
M  V30 3669 H 377.437 1.10077 0.975784 0
M  V30 3670 H 379.395 0.871788 4.0799 0
M  V30 3671 H 378.025 0.114612 3.22596 0
M  V30 3672 H 377.077 2.50691 2.86109 0
M  V30 3673 H 378.389 3.11899 3.89257 0
M  V30 3674 H 377.543 1.74948 5.80929 0
M  V30 3675 H 376.282 1.03341 4.76626 0
M  V30 3676 H 375.287 3.30764 4.39175 0
M  V30 3677 H 376.512 4.02561 5.4692 0
M  V30 3678 H 374.458 1.92929 6.26988 0
M  V30 3679 H 374.375 3.62123 6.63629 0
M  V30 3680 H 375.643 2.65467 7.32903 0
M  V30 3681 N 379.872 -1.04064 1.18357 0
M  V30 3682 C 381.097 -1.81454 1.00445 0
M  V30 3683 C 381.522 -1.82823 -0.442423 0
M  V30 3684 O 380.88 -1.24555 -1.31741 0
M  V30 3685 C 380.928 -3.24925 1.56384 0
M  V30 3686 O 380.032 -4.04856 0.785209 0
M  V30 3687 H 379.373 -0.560604 0.355835 0
M  V30 3688 H 381.903 -1.31059 1.57114 0
M  V30 3689 H 381.913 -3.75702 1.59097 0
M  V30 3690 H 380.588 -3.23244 2.61699 0
M  V30 3691 H 379.165 -3.63537 0.830399 0
M  V30 3692 N 381.35 -0.985608 -1.22978 0
M  V30 3693 C 382.761 -0.693593 -1.73338 0
M  V30 3694 C 383.112 0.789935 -1.79595 0
M  V30 3695 O 382.237 1.61771 -1.43733 0
M  V30 3696 C 382.832 -1.25235 -3.14804 0
M  V30 3697 C 381.391 -1.00987 -3.626 0
M  V30 3698 C 380.538 -1.37695 -2.40698 0
M  V30 3699 H 383.489 -1.15884 -1.08428 0
M  V30 3700 H 383.51 -0.627329 -3.75293 0
M  V30 3701 H 383.022 -2.33209 -3.10218 0
M  V30 3702 H 381.123 0.0535565 -3.72562 0
M  V30 3703 H 381.236 -1.66812 -4.49122 0
M  V30 3704 H 379.6 -0.795459 -2.4196 0
M  V30 3705 H 380.383 -2.46657 -2.38779 0
M  V30 3706 N 382.828 1.3818 -0.7579 0
M  V30 3707 C 384.053 2.04827 -0.325679 0
M  V30 3708 C 384.478 1.56788 1.03919 0
M  V30 3709 O 383.836 0.721811 1.66312 0
M  V30 3710 C 383.884 3.58774 -0.362447 0
M  V30 3711 O 382.988 4.07372 0.642033 0
M  V30 3712 H 382.329 0.64833 -0.143402 0
M  V30 3713 H 384.859 1.7677 -1.03023 0
M  V30 3714 H 384.869 4.07434 -0.214844 0
M  V30 3715 H 383.544 3.93096 -1.35824 0
M  V30 3716 H 382.121 3.70068 0.458688 0
M  V30 3717 N 384.306 0.507319 1.49211 0
M  V30 3718 C 385.216 -0.272136 2.33016 0
M  V30 3719 C 386.232 -0.961206 1.45041 0
M  V30 3720 O 387.408 -0.941191 1.78055 0
M  V30 3721 C 384.473 -1.31895 3.20631 0
M  V30 3722 C 383.534 -0.642648 4.24463 0
M  V30 3723 C 382.767 -1.63959 5.07891 0
M  V30 3724 O 382.99 -2.87007 4.92933 0
M  V30 3725 O 381.924 -1.19143 5.8999 0
M  V30 3726 H 385.75 0.413982 3.00865 0
M  V30 3727 H 383.335 0.268556 1.46966 0
M  V30 3728 H 385.217 -1.92446 3.7489 0
M  V30 3729 H 383.892 -1.98788 2.5547 0
M  V30 3730 H 382.799 0.00276252 3.741 0
M  V30 3731 H 384.132 -0.0160534 4.92197 0
M  V30 3732 N 385.784 -1.5574 0.241426 0
M  V30 3733 C 387.195 -1.84842 -0.262755 0
M  V30 3734 C 387.546 -1.16317 -1.58003 0
M  V30 3735 O 386.671 -0.439653 -2.11887 0
M  V30 3736 C 387.266 -3.35332 -0.483523 0
M  V30 3737 C 385.825 -3.6468 -0.931977 0
M  V30 3738 C 384.972 -2.77299 -0.0061151 0
M  V30 3739 H 387.923 -1.51761 0.464129 0
M  V30 3740 H 387.944 -3.56615 -1.32688 0
M  V30 3741 H 387.456 -3.85178 0.47537 0
M  V30 3742 H 385.557 -3.20307 -1.90353 0
M  V30 3743 H 385.67 -4.72498 -0.792628 0
M  V30 3744 H 384.034 -2.49408 -0.516503 0
M  V30 3745 H 384.817 -3.2995 0.948052 0
M  V30 3746 N 387.262 0.0317525 -1.57568 0
M  V30 3747 C 388.487 0.738664 -1.938 0
M  V30 3748 C 388.912 1.68242 -0.841208 0
M  V30 3749 O 388.27 1.80157 0.203267 0
M  V30 3750 C 388.318 1.47417 -3.29091 0
M  V30 3751 O 387.422 2.5872 -3.2115 0
M  V30 3752 H 386.763 0.198856 -0.633524 0
M  V30 3753 H 389.293 -0.0119713 -2.04596 0
M  V30 3754 H 389.303 1.84468 -3.63917 0
M  V30 3755 H 387.978 0.781988 -4.08482 0
M  V30 3756 H 386.555 2.24231 -2.97951 0
M  V30 3757 N 388.74 1.54641 0.303973 0
M  V30 3758 C 389.988 1.73437 1.0375 0
M  V30 3759 C 390.309 0.521449 1.87899 0
M  V30 3760 O 389.579 -0.46432 1.90318 0
M  V30 3761 H 388.159 0.639518 0.386039 0
M  V30 3762 H 390.821 1.91988 0.335675 0
M  V30 3763 H 389.917 2.62235 1.69231 0
M  V30 3764 N 390.218 -0.567019 1.47046 0
M  V30 3765 C 391.629 -1.14916 1.47143 0
M  V30 3766 C 391.98 -1.94954 0.220767 0
M  V30 3767 O 391.105 -2.05602 -0.67505 0
M  V30 3768 C 391.7 -2.09069 2.666 0
M  V30 3769 C 390.259 -2.62575 2.69687 0
M  V30 3770 C 389.406 -1.38755 2.40088 0
M  V30 3771 H 392.357 -0.354126 1.54699 0
M  V30 3772 H 392.378 -2.92789 2.43011 0
M  V30 3773 H 391.89 -1.50789 3.57609 0
M  V30 3774 H 389.991 -3.24681 1.82792 0
M  V30 3775 H 390.104 -3.04239 3.70102 0
M  V30 3776 H 388.468 -1.69098 1.90468 0
M  V30 3777 H 389.251 -0.822822 3.33293 0
M  V30 3778 N 391.696 -1.35014 -0.812953 0
M  V30 3779 C 392.944 -1.27678 -1.56661 0
M  V30 3780 C 393.265 0.150359 -1.94419 0
M  V30 3781 O 392.535 1.08532 -1.63088 0
M  V30 3782 H 391.115 -0.469602 -0.580933 0
M  V30 3783 H 393.777 -1.69043 -0.970076 0
M  V30 3784 H 392.873 -1.88833 -2.48492 0
M  V30 3785 N 393.175 1.03435 -1.18907 0
M  V30 3786 C 394.138 2.09756 -0.923844 0
M  V30 3787 C 395.138 1.60528 0.093416 0
M  V30 3788 O 396.328 1.73631 -0.140727 0
M  V30 3789 C 393.46 3.38692 -0.387354 0
M  V30 3790 H 394.653 2.34719 -1.86674 0
M  V30 3791 H 392.206 1.19959 -1.00197 0
M  V30 3792 H 392.941 3.19396 0.561845 0
M  V30 3793 H 392.726 3.75742 -1.12074 0
M  V30 3794 H 394.216 4.17016 -0.220694 0
M  V30 3795 N 394.653 0.992116 1.22453 0
M  V30 3796 C 396.064 0.702776 1.72968 0
M  V30 3797 C 396.415 -0.780399 1.80012 0
M  V30 3798 O 395.54 -1.61007 1.44589 0
M  V30 3799 C 396.135 1.26903 3.14135 0
M  V30 3800 C 394.694 1.02909 3.62059 0
M  V30 3801 C 393.841 1.38969 2.39964 0
M  V30 3802 H 396.792 1.16457 1.07812 0
M  V30 3803 H 396.813 0.647223 3.74955 0
M  V30 3804 H 396.325 2.34851 3.08977 0
M  V30 3805 H 394.426 -0.0337979 3.72585 0
M  V30 3806 H 394.539 1.69191 4.48231 0
M  V30 3807 H 392.903 0.808279 2.41535 0
M  V30 3808 H 393.686 2.4792 2.37467 0
M  V30 3809 N 396.131 -1.37776 0.765217 0
M  V30 3810 C 397.094 -2.28686 0.153416 0
M  V30 3811 C 398.094 -1.47727 -0.635081 0
M  V30 3812 O 399.284 -1.68027 -0.459632 0
M  V30 3813 C 396.416 -3.31608 -0.790495 0
M  V30 3814 H 397.609 -2.84297 0.954723 0
M  V30 3815 H 395.162 -1.46932 0.53299 0
M  V30 3816 H 395.897 -2.81109 -1.61705 0
M  V30 3817 H 395.682 -3.9144 -0.227348 0
M  V30 3818 H 397.172 -3.99559 -1.21419 0
M  V30 3819 N 397.609 -0.515225 -1.4894 0
M  V30 3820 C 398.857 0.0241671 -2.02086 0
M  V30 3821 C 399.178 1.3616 -1.3959 0
M  V30 3822 O 398.448 1.87841 -0.556121 0
M  V30 3823 H 397.028 0.0119203 -0.746905 0
M  V30 3824 H 399.69 -0.675702 -1.82812 0
M  V30 3825 H 398.786 0.143385 -3.1177 0
M  V30 3826 N 399.087 1.5561 -0.249682 0
M  V30 3827 C 400.035 2.22894 0.664906 0
M  V30 3828 C 401.029 1.21743 1.17792 0
M  V30 3829 O 402.235 1.39748 1.13449 0
M  V30 3830 H 398.61 0.715022 0.232912 0
M  V30 3831 H 400.581 2.98307 0.0742998 0
M  V30 3832 C 399.33 2.94424 1.84959 0
M  V30 3833 H 398.653 3.72031 1.46399 0
M  V30 3834 H 400.093 3.44862 2.4667 0
M  V30 3835 C 398.552 1.98454 2.72245 0
M  V30 3836 O 399.082 1.51939 3.71857 0
M  V30 3837 N 397.288 1.65496 2.38871 0
M  V30 3838 H 396.835 2.03517 1.57919 0
M  V30 3839 H 396.793 1.0155 2.97548 0
M  V30 3840 N 400.565 -0.0233959 1.57583 0
M  V30 3841 C 401.811 -0.714119 1.89811 0
M  V30 3842 C 402.144 -1.74702 0.848113 0
M  V30 3843 O 401.419 -1.94023 -0.136135 0
M  V30 3844 C 401.702 -1.37853 3.32669 0
M  V30 3845 C 401.555 -0.358764 4.48367 0
M  V30 3846 C 402.874 -2.31101 3.7454 0
M  V30 3847 H 399.993 -0.25814 0.690314 0
M  V30 3848 H 402.635 0.0230927 1.89986 0
M  V30 3849 H 400.785 -2.00689 3.3265 0
M  V30 3850 H 402.457 0.268115 4.6052 0
M  V30 3851 H 400.7 0.321387 4.32608 0
M  V30 3852 H 401.371 -0.862242 5.45224 0
M  V30 3853 H 403.847 -1.78304 3.75961 0
M  V30 3854 H 402.723 -2.74567 4.75294 0
M  V30 3855 H 402.984 -3.18018 3.0711 0
M  V30 3856 N 402.043 -1.548 -0.295768 0
M  V30 3857 C 403.454 -1.65274 -0.868411 0
M  V30 3858 C 403.805 -0.56481 -1.87894 0
M  V30 3859 O 402.93 0.29767 -2.14343 0
M  V30 3860 C 403.525 -2.99603 -1.58188 0
M  V30 3861 C 402.084 -3.12181 -2.10286 0
M  V30 3862 C 401.231 -2.6098 -0.93727 0
M  V30 3863 H 404.182 -1.58534 -0.0726422 0
M  V30 3864 H 404.203 -2.91319 -2.44772 0
M  V30 3865 H 403.715 -3.78764 -0.846151 0
M  V30 3866 H 401.816 -2.3775 -2.8689 0
M  V30 3867 H 401.929 -4.18415 -2.33379 0
M  V30 3868 H 400.293 -2.17564 -1.32431 0
M  V30 3869 H 401.076 -3.42623 -0.215414 0
M  V30 3870 N 403.521 0.559213 -1.47345 0
M  V30 3871 C 404.431 1.69388 -1.62311 0
M  V30 3872 C 405.447 1.6648 -0.505993 0
M  V30 3873 O 406.623 1.85964 -0.773262 0
M  V30 3874 C 403.688 3.05894 -1.63185 0
M  V30 3875 C 402.749 3.19885 -2.86307 0
M  V30 3876 C 401.982 4.49879 -2.87131 0
M  V30 3877 O 402.205 5.35217 -1.97229 0
M  V30 3878 O 401.139 4.67618 -3.78968 0
M  V30 3879 H 404.965 1.59706 -2.58317 0
M  V30 3880 H 402.55 0.728989 -1.30407 0
M  V30 3881 H 404.432 3.87133 -1.66451 0
M  V30 3882 H 403.107 3.15964 -0.70345 0
M  V30 3883 H 402.014 2.38052 -2.88587 0
M  V30 3884 H 403.347 3.14718 -3.78435 0
M  V30 3885 N 404.999 1.35443 0.805782 0
M  V30 3886 C 406.239 1.30127 1.57627 0
M  V30 3887 C 406.603 -0.122567 1.91608 0
M  V30 3888 O 407.804 -0.300107 2.67119 0
M  V30 3889 C 406.075 2.18314 2.82973 0
M  V30 3890 S 407.634 2.30521 3.7337 0
M  V30 3891 H 404.452 0.462439 0.540066 0
M  V30 3892 H 407.054 1.70843 0.95042 0
M  V30 3893 H 405.758 3.20741 2.56034 0
M  V30 3894 H 405.289 1.78558 3.50543 0
M  V30 3895 H 407.304 1.49062 4.73281 0
M  V30 3896 N 406.477 -1.02803 1.19454 0
M  V30 3897 C 407.723 -1.76478 0.999171 0
M  V30 3898 C 408.056 -1.88456 -0.468828 0
M  V30 3899 O 407.331 -1.40198 -1.34814 0
M  V30 3900 C 407.614 -3.19044 1.66981 0
M  V30 3901 C 407.467 -3.14932 3.21151 0
M  V30 3902 C 408.786 -4.17456 1.39349 0
M  V30 3903 H 405.905 -0.640614 0.364393 0
M  V30 3904 H 408.547 -1.20005 1.47305 0
M  V30 3905 H 406.697 -3.67263 1.2669 0
M  V30 3906 H 408.369 -2.74605 3.70661 0
M  V30 3907 H 406.612 -2.52625 3.52652 0
M  V30 3908 H 407.283 -4.1566 3.63223 0
M  V30 3909 H 409.759 -3.77842 1.74283 0
M  V30 3910 H 408.635 -5.154 1.88823 0
M  V30 3911 H 408.896 -4.40949 0.318813 0
M  V30 3912 N 407.956 -0.998596 -1.21925 0
M  V30 3913 C 409.181 -0.696015 -1.95372 0
M  V30 3914 C 409.606 0.733826 -1.73195 0
M  V30 3915 O 408.964 1.50242 -1.01474 0
M  V30 3916 C 409.012 -1.01466 -3.4603 0
M  V30 3917 O 408.116 -0.116415 -4.12236 0
M  V30 3918 H 407.457 -0.259938 -0.611006 0
M  V30 3919 H 409.987 -1.33711 -1.54863 0
M  V30 3920 H 409.997 -0.958855 -3.96573 0
M  V30 3921 H 408.672 -2.05653 -3.61497 0
M  V30 3922 H 407.249 -0.228193 -3.72201 0
M  V30 3923 N 409.434 1.37368 -0.772513 0
M  V30 3924 C 410.382 2.32134 -0.147111 0
M  V30 3925 C 411.376 1.54972 0.684106 0
M  V30 3926 O 412.582 1.70363 0.581083 0
M  V30 3927 H 408.957 0.751449 -0.028786 0
M  V30 3928 H 410.928 2.82464 -0.962112 0
M  V30 3929 C 409.677 3.40226 0.71703 0
M  V30 3930 H 409 3.99706 0.0867951 0
M  V30 3931 H 410.44 4.08897 1.12159 0
M  V30 3932 C 408.899 2.80372 1.86797 0
M  V30 3933 O 409.429 2.71183 2.96349 0
M  V30 3934 N 407.635 2.37904 1.66883 0
M  V30 3935 H 407.182 2.45578 0.777759 0
M  V30 3936 H 407.14 1.98202 2.44056 0
M  V30 3937 N 410.912 0.523116 1.48665 0
M  V30 3938 C 411.875 -0.232592 2.28017 0
M  V30 3939 C 412.875 -0.874021 1.34972 0
M  V30 3940 O 414.065 -0.735132 1.57929 0
M  V30 3941 C 411.197 -1.33586 3.13636 0
M  V30 3942 H 412.39 0.464008 2.96289 0
M  V30 3943 H 409.943 0.278816 1.53793 0
M  V30 3944 H 410.678 -2.06593 2.4998 0
M  V30 3945 H 410.463 -0.881125 3.82071 0
M  V30 3946 H 411.953 -1.86759 3.73511 0
M  V30 3947 N 412.39 -1.55475 0.257931 0
M  V30 3948 C 413.353 -2.20551 -0.623706 0
M  V30 3949 C 414.353 -1.17809 -1.09443 0
M  V30 3950 O 415.543 -1.42823 -0.997362 0
M  V30 3951 C 412.675 -2.85784 -1.8585 0
M  V30 3952 H 413.868 -2.99848 -0.0557743 0
M  V30 3953 H 411.421 -1.56298 0.0084422 0
M  V30 3954 H 412.156 -2.10453 -2.46739 0
M  V30 3955 H 411.941 -3.61057 -1.52907 0
M  V30 3956 H 413.431 -3.35553 -2.48584 0
M  V30 3957 N 413.868 0.0150385 -1.57593 0
M  V30 3958 C 414.798 1.01047 -2.10503 0
M  V30 3959 C 415.779 1.36816 -1.01071 0
M  V30 3960 O 416.964 1.45455 -1.28672 0
M  V30 3961 C 414.094 2.30708 -2.59598 0
M  V30 3962 C 413.048 2.09142 -3.73421 0
M  V30 3963 C 412.374 3.44685 -4.08774 0
M  V30 3964 C 413.674 1.46619 -5.01298 0
M  V30 3965 H 415.368 0.569978 -2.93925 0
M  V30 3966 H 412.914 0.272724 -1.41394 0
M  V30 3967 H 414.867 3.00687 -2.95238 0
M  V30 3968 H 413.591 2.76843 -1.73279 0
M  V30 3969 H 412.25 1.41592 -3.38153 0
M  V30 3970 H 411.898 3.88495 -3.195 0
M  V30 3971 H 411.598 3.31077 -4.8545 0
M  V30 3972 H 413.122 4.16004 -4.4696 0
M  V30 3973 H 414.536 2.06535 -5.34805 0
M  V30 3974 H 412.933 1.43544 -5.82679 0
M  V30 3975 H 414.003 0.433611 -4.82957 0
M  V30 3976 N 415.346 1.54954 0.287554 0
M  V30 3977 C 416.595 1.74081 1.01877 0
M  V30 3978 C 416.908 0.541135 1.87966 0
M  V30 3979 O 418.114 0.614491 2.64455 0
M  V30 3980 C 416.57 3.08042 1.86113 0
M  V30 3981 C 416.178 4.35531 1.04961 0
M  V30 3982 C 417.922 3.36523 2.58752 0
M  V30 3983 C 415.829 5.60538 1.88551 0
M  V30 3984 H 414.759 0.64884 0.384087 0
M  V30 3985 H 417.41 1.81426 0.275101 0
M  V30 3986 H 415.792 2.94696 2.64519 0
M  V30 3987 H 416.966 4.59751 0.31074 0
M  V30 3988 H 415.281 4.14085 0.43843 0
M  V30 3989 H 417.878 4.27122 3.21668 0
M  V30 3990 H 418.221 2.56 3.28283 0
M  V30 3991 H 418.754 3.50901 1.87386 0
M  V30 3992 H 415.493 6.43767 1.23466 0
M  V30 3993 H 415.013 5.40483 2.60074 0
M  V30 3994 H 416.692 5.98297 2.46273 0
M  V30 3995 N 416.824 -0.551391 1.4764 0
M  V30 3996 C 417.756 -1.67333 1.56628 0
M  V30 3997 C 418.769 -1.56398 0.452045 0
M  V30 3998 O 419.958 -1.6325 0.721926 0
M  V30 3999 C 417.058 -3.05841 1.45994 0
M  V30 4000 C 416.231 -3.42472 2.72088 0
M  V30 4001 C 415.29 -4.60168 2.55209 0
M  V30 4002 O 414.316 -4.64458 3.2904 0
M  V30 4003 N 415.518 -5.57024 1.63416 0
M  V30 4004 H 418.283 -1.60066 2.53375 0
M  V30 4005 H 415.844 -0.738169 1.44093 0
M  V30 4006 H 417.836 -3.8242 1.32428 0
M  V30 4007 H 416.406 -3.07302 0.573071 0
M  V30 4008 H 415.626 -2.55284 3.00373 0
M  V30 4009 H 416.914 -3.63723 3.55785 0
M  V30 4010 H 416.312 -5.56319 1.02594 0
M  V30 4011 H 414.869 -6.32906 1.558 0
M  V30 4012 N 418.302 -1.35869 -0.798587 0
M  V30 4013 C 419.212 -1.31578 -1.94228 0
M  V30 4014 C 420.228 -0.21939 -1.72611 0
M  V30 4015 O 421.404 -0.450167 -1.96305 0
M  V30 4016 C 418.469 -1.09528 -3.28944 0
M  V30 4017 C 417.53 -2.28556 -3.63402 0
M  V30 4018 C 416.763 -2.07549 -4.9169 0
M  V30 4019 O 416.986 -1.046 -5.60727 0
M  V30 4020 O 415.92 -2.95106 -5.24591 0
M  V30 4021 H 419.746 -2.27847 -2.00796 0
M  V30 4022 H 417.331 -1.16322 -0.937526 0
M  V30 4023 H 419.213 -0.991127 -4.09579 0
M  V30 4024 H 417.888 -0.16315 -3.23289 0
M  V30 4025 H 416.795 -2.44538 -2.83112 0
M  V30 4026 H 418.128 -3.20244 -3.73771 0
M  V30 4027 N 419.78 1.02168 -1.19998 0
M  V30 4028 C 421.026 1.7606 -1.01855 0
M  V30 4029 C 421.381 1.87178 0.445222 0
M  V30 4030 O 420.674 1.3828 1.32624 0
M  V30 4031 C 420.868 3.18081 -1.62969 0
M  V30 4032 C 420.697 3.20809 -3.15137 0
M  V30 4033 C 419.467 3.28342 -3.84083 0
M  V30 4034 C 421.665 3.07268 -4.1242 0
M  V30 4035 N 419.647 3.2052 -5.23584 0
M  V30 4036 C 421.018 3.0716 -5.38566 0
M  V30 4037 C 423.073 2.91448 -4.03686 0
M  V30 4038 C 421.776 2.92853 -6.56985 0
M  V30 4039 C 423.802 2.78494 -5.21723 0
M  V30 4040 C 423.164 2.79046 -6.46771 0
M  V30 4041 H 419.263 0.655192 -0.426905 0
M  V30 4042 H 421.847 1.21564 -1.52087 0
M  V30 4043 H 420.018 3.70882 -1.15329 0
M  V30 4044 H 421.75 3.80375 -1.38192 0
M  V30 4045 H 418.505 3.34859 -3.34913 0
M  V30 4046 H 418.929 3.19997 -5.96599 0
M  V30 4047 H 423.571 2.89838 -3.07821 0
M  V30 4048 H 421.289 2.93213 -7.53028 0
M  V30 4049 H 424.875 2.67278 -5.16773 0
M  V30 4050 H 423.755 2.69134 -7.36571 0
M  V30 4051 N 421.258 1.00505 1.21394 0
M  V30 4052 C 422.486 0.706609 1.9446 0
M  V30 4053 C 422.901 -0.73081 1.74082 0
M  V30 4054 O 422.258 -1.49446 1.04747 0
M  V30 4055 C 422.309 1.01824 3.46863 0
M  V30 4056 O 422.03 2.39919 3.66566 0
M  V30 4057 C 423.531 0.739216 4.37093 0
M  V30 4058 H 420.751 0.260394 0.618414 0
M  V30 4059 H 423.295 1.34311 1.54211 0
M  V30 4060 H 421.45 0.427343 3.85036 0
M  V30 4061 H 421.864 2.50784 4.6066 0
M  V30 4062 H 423.338 1.00744 5.42729 0
M  V30 4063 H 423.815 -0.326746 4.37983 0
M  V30 4064 H 424.421 1.31173 4.04566 0
M  V30 4065 N 422.737 -1.36956 0.779787 0
M  V30 4066 C 424.148 -1.82094 0.412156 0
M  V30 4067 C 424.499 -1.64926 -1.06273 0
M  V30 4068 O 423.624 -1.16483 -1.82375 0
M  V30 4069 C 424.219 -3.3059 0.741319 0
M  V30 4070 C 422.778 -3.73974 0.426641 0
M  V30 4071 C 421.925 -2.59368 0.980987 0
M  V30 4072 H 424.876 -1.25314 0.973758 0
M  V30 4073 H 424.897 -3.80489 0.028887 0
M  V30 4074 H 424.409 -3.43054 1.81482 0
M  V30 4075 H 422.51 -3.67076 -0.639215 0
M  V30 4076 H 422.623 -4.69778 0.940515 0
M  V30 4077 H 420.987 -2.51463 0.404757 0
M  V30 4078 H 421.77 -2.74621 2.06005 0
M  V30 4079 N 424.215 -0.530993 -1.48385 0
M  V30 4080 C 425.125 0.23503 -2.3342 0
M  V30 4081 C 426.141 0.93801 -1.46552 0
M  V30 4082 O 427.317 0.912745 -1.7953 0
M  V30 4083 C 424.382 1.26778 -3.22689 0
M  V30 4084 C 423.443 0.575038 -4.25431 0
M  V30 4085 C 422.676 1.55858 -5.10435 0
M  V30 4086 O 422.899 2.79129 -4.97437 0
M  V30 4087 O 421.833 1.09742 -5.91811 0
M  V30 4088 H 425.659 -0.461794 -3.00169 0
M  V30 4089 H 423.244 -0.291903 -1.46521 0
M  V30 4090 H 425.126 1.86457 -3.77904 0
M  V30 4091 H 423.801 1.94699 -2.586 0
M  V30 4092 H 422.708 -0.0622782 -3.74048 0
M  V30 4093 H 424.041 -0.062253 -4.92161 0
M  V30 4094 N 425.693 1.55336 -0.266172 0
M  V30 4095 C 426.918 2.04258 0.359661 0
M  V30 4096 C 427.343 1.14359 1.49344 0
M  V30 4097 O 426.701 0.140369 1.80756 0
M  V30 4098 C 426.749 3.50997 0.826635 0
M  V30 4099 O 425.853 3.64204 1.93466 0
M  V30 4100 H 425.194 0.659668 0.075727 0
M  V30 4101 H 427.724 2.00694 -0.39786 0
M  V30 4102 H 427.734 3.9219 1.12477 0
M  V30 4103 H 426.409 4.159 -0.00293032 0
M  V30 4104 H 424.986 3.34913 1.63974 0
M  V30 4105 N 427.171 -0.0066808 1.57599 0
M  V30 4106 C 428.419 -0.691552 1.899 0
M  V30 4107 C 428.74 -1.74682 0.866672 0
M  V30 4108 O 428.01 -1.95661 -0.0968189 0
M  V30 4109 H 426.59 -0.258416 0.700878 0
M  V30 4110 H 429.252 0.0326655 1.94873 0
M  V30 4111 H 428.348 -1.16702 2.8946 0
M  V30 4112 N 428.649 -1.55105 -0.279332 0
M  V30 4113 C 429.877 -1.7943 -1.03017 0
M  V30 4114 C 430.292 -0.564456 -1.80165 0
M  V30 4115 O 429.649 0.466326 -1.76442 0
M  V30 4116 C 429.7 -3.0155 -1.99374 0
M  V30 4117 O 429.421 -4.19784 -1.25352 0
M  V30 4118 C 430.922 -3.3843 -2.86321 0
M  V30 4119 H 428.142 -0.597882 -0.304594 0
M  V30 4120 H 430.686 -2.02105 -0.312035 0
M  V30 4121 H 428.841 -2.81019 -2.66659 0
M  V30 4122 H 429.255 -4.88781 -1.90246 0
M  V30 4123 H 430.729 -4.27066 -3.49741 0
M  V30 4124 H 431.206 -2.57549 -3.5576 0
M  V30 4125 H 431.812 -3.61197 -2.24536 0
M  V30 4126 N 430.127 0.543554 -1.4793 0
M  V30 4127 C 431.355 1.32516 -1.58894 0
M  V30 4128 C 431.77 1.87215 -0.244131 0
M  V30 4129 O 431.127 1.65709 0.764652 0
M  V30 4130 C 431.178 2.48554 -2.62494 0
M  V30 4131 O 430.899 1.96112 -3.91755 0
M  V30 4132 C 432.4 3.40572 -2.8377 0
M  V30 4133 H 429.62 0.403472 -0.536145 0
M  V30 4134 H 432.164 0.657106 -1.93655 0
M  V30 4135 H 430.319 3.1127 -2.30629 0
M  V30 4136 H 430.733 2.71967 -4.4848 0
M  V30 4137 H 432.207 4.18375 -3.60093 0
M  V30 4138 H 432.684 3.94965 -1.92092 0
M  V30 4139 H 433.29 2.8366 -3.16887 0
M  V30 4140 N 431.605 1.3629 0.791371 0
M  V30 4141 C 432.854 1.29742 1.54434 0
M  V30 4142 C 433.167 -0.121729 1.95221 0
M  V30 4143 O 434.373 -0.309579 2.69729 0
M  V30 4144 C 432.829 2.27623 2.78776 0
M  V30 4145 C 432.437 3.74963 2.45166 0
M  V30 4146 C 434.181 2.30047 3.56761 0
M  V30 4147 C 432.088 4.64626 3.65891 0
M  V30 4148 H 431.018 0.482113 0.579727 0
M  V30 4149 H 433.669 1.61642 0.868565 0
M  V30 4150 H 432.051 1.88714 3.48142 0
M  V30 4151 H 433.225 4.22596 1.83709 0
M  V30 4152 H 431.54 3.75295 1.80396 0
M  V30 4153 H 434.137 2.94247 4.46456 0
M  V30 4154 H 434.48 1.30846 3.95203 0
M  V30 4155 H 435.013 2.67563 2.94372 0
M  V30 4156 H 431.752 5.64883 3.32547 0
M  V30 4157 H 431.272 4.2171 4.26521 0
M  V30 4158 H 432.951 4.80801 4.32943 0
M  V30 4159 N 433.083 -1.0153 1.20538 0
M  V30 4160 C 434.308 -1.79283 1.04271 0
M  V30 4161 C 434.733 -1.8372 -0.403544 0
M  V30 4162 O 434.091 -1.27321 -1.2907 0
M  V30 4163 C 434.139 -3.21535 1.63241 0
M  V30 4164 O 433.243 -4.03099 0.870908 0
M  V30 4165 H 432.584 -0.55293 0.367647 0
M  V30 4166 H 435.114 -1.27696 1.59859 0
M  V30 4167 H 435.124 -3.72243 1.6703 0
M  V30 4168 H 433.799 -3.1762 2.68497 0
M  V30 4169 H 432.376 -3.61693 0.907323 0
M  V30 4170 N 434.561 -1.01147 -1.20859 0
M  V30 4171 C 435.972 -0.730205 -1.71828 0
M  V30 4172 C 436.323 0.751662 -1.8123 0
M  V30 4173 O 435.448 1.58686 -1.47132 0
M  V30 4174 C 436.043 -1.31885 -3.12077 0
M  V30 4175 C 434.602 -1.08656 -3.60376 0
M  V30 4176 C 433.749 -1.42769 -2.37723 0
M  V30 4177 H 436.7 -1.18158 -1.05945 0
M  V30 4178 H 436.721 -0.706793 -3.73878 0
M  V30 4179 H 436.233 -2.39737 -3.05201 0
M  V30 4180 H 434.334 -0.0254814 -3.72591 0
M  V30 4181 H 434.447 -1.76301 -4.45483 0
M  V30 4182 H 432.811 -0.846603 -2.40218 0
M  V30 4183 H 433.594 -2.51666 -2.33493 0
M  V30 4184 N 436.039 1.36541 -0.78704 0
M  V30 4185 C 437.455 1.52571 -0.46844 0
M  V30 4186 C 437.655 1.7415 1.01361 0
M  V30 4187 O 436.711 1.77163 1.79915 0
M  V30 4188 C 438.024 2.71299 -1.29682 0
M  V30 4189 C 439.572 2.85169 -1.29027 0
M  V30 4190 C 440.047 4.06898 -2.10233 0
M  V30 4191 N 441.538 4.1404 -2.07666 0
M  V30 4192 C 442.273 5.07301 -2.67271 0
M  V30 4193 N 441.769 6.06021 -3.35724 0
M  V30 4194 N 443.562 4.99898 -2.57018 0
M  V30 4195 H 435.713 1.20788 -1.74711 0
M  V30 4196 H 437.976 0.589364 -0.742532 0
M  V30 4197 H 437.682 2.61868 -2.34773 0
M  V30 4198 H 437.556 3.6539 -0.936479 0
M  V30 4199 H 439.943 2.94062 -0.247284 0
M  V30 4200 H 440.024 1.91992 -1.69035 0
M  V30 4201 H 439.668 3.98766 -3.1456 0
M  V30 4202 H 439.598 4.99218 -1.67597 0
M  V30 4203 H 442.089 3.43357 -1.57843 0
M  V30 4204 H 442.402 6.73741 -3.78541 0
M  V30 4205 H 440.747 6.06253 -3.39826 0
M  V30 4206 H 443.938 4.21724 -2.03142 0
M  V30 4207 H 444.111 5.72392 -3.03761 0
M  V30 4208 N 437.518 0.538854 1.48102 0
M  V30 4209 C 438.743 0.0102694 2.07397 0
M  V30 4210 C 439.168 -1.26562 1.39153 0
M  V30 4211 O 438.526 -1.75357 0.460387 0
M  V30 4212 C 438.574 -0.187602 3.60112 0
M  V30 4213 O 437.678 -1.25432 3.92862 0
M  V30 4214 H 437.019 0.0430975 0.6626 0
M  V30 4215 H 439.549 0.749301 1.90385 0
M  V30 4216 H 439.559 -0.407517 4.0596 0
M  V30 4217 H 438.234 0.744386 4.09184 0
M  V30 4218 H 436.811 -1.01636 3.58782 0
M  V30 4219 N 438.996 -1.55193 0.274407 0
M  V30 4220 C 439.928 -2.1989 -0.646595 0
M  V30 4221 C 440.941 -1.1834 -1.11801 0
M  V30 4222 O 442.13 -1.4507 -1.04004 0
M  V30 4223 C 439.23 -2.8104 -1.89393 0
M  V30 4224 C 438.403 -4.08274 -1.56943 0
M  V30 4225 C 437.462 -4.53478 -2.66916 0
M  V30 4226 O 436.488 -5.19267 -2.33132 0
M  V30 4227 N 437.69 -4.2356 -3.9696 0
M  V30 4228 H 440.455 -2.99556 -0.0928686 0
M  V30 4229 H 438.016 -1.61618 0.0954783 0
M  V30 4230 H 440.008 -3.08226 -2.62257 0
M  V30 4231 H 438.578 -2.05372 -2.35672 0
M  V30 4232 H 437.798 -3.88384 -0.674655 0
M  V30 4233 H 439.086 -4.91173 -1.32764 0
M  V30 4234 H 438.484 -3.70799 -4.27229 0
M  V30 4235 H 437.041 -4.55518 -4.66205 0
M  V30 4236 N 440.474 -0.00167713 -1.576 0
M  V30 4237 C 441.422 1.0074 -2.09652 0
M  V30 4238 C 442.416 1.35483 -1.01689 0
M  V30 4239 O 443.622 1.34028 -1.20152 0
M  V30 4240 H 439.997 0.342537 -0.669457 0
M  V30 4241 H 441.968 0.542841 -2.93421 0
M  V30 4242 C 440.717 2.2899 -2.61647 0
M  V30 4243 H 440.04 2.03124 -3.44355 0
M  V30 4244 H 441.48 2.9787 -3.01744 0
M  V30 4245 C 439.939 3.00085 -1.53136 0
M  V30 4246 O 440.469 3.91135 -0.91524 0
M  V30 4247 N 438.675 2.6194 -1.25841 0
M  V30 4248 H 438.222 1.8798 -1.76129 0
M  V30 4249 H 438.18 3.09822 -0.534576 0
M  V30 4250 N 441.952 1.55251 0.271103 0
M  V30 4251 C 442.9 1.89054 1.35504 0
M  V30 4252 C 443.894 0.767064 1.51038 0
M  V30 4253 O 445.1 0.951429 1.528 0
M  V30 4254 H 441.475 0.600072 0.45323 0
M  V30 4255 H 443.446 2.79598 1.04247 0
M  V30 4256 C 442.195 2.18068 2.70817 0
M  V30 4257 H 441.518 3.04005 2.59656 0
M  V30 4258 H 442.958 2.4564 3.45597 0
M  V30 4259 C 441.417 0.988901 3.2206 0
M  V30 4260 O 441.947 0.224501 4.01072 0
M  V30 4261 N 440.153 0.786085 2.79766 0
M  V30 4262 H 439.7 1.40937 2.15626 0
M  V30 4263 H 439.658 -0.00969349 3.14399 0
M  V30 4264 N 443.43 -0.535701 1.48216 0
M  V30 4265 C 444.34 -1.66785 1.64985 0
M  V30 4266 C 445.356 -1.65654 0.532414 0
M  V30 4267 O 446.532 -1.8471 0.80275 0
M  V30 4268 C 443.597 -3.0326 1.68031 0
M  V30 4269 C 442.658 -3.1529 2.9136 0
M  V30 4270 C 441.891 -4.45255 2.94252 0
M  V30 4271 O 442.114 -5.32011 2.05719 0
M  V30 4272 O 441.048 -4.6153 3.86359 0
M  V30 4273 H 444.874 -1.55576 2.60825 0
M  V30 4274 H 442.459 -0.70815 1.31551 0
M  V30 4275 H 444.341 -3.84436 1.72589 0
M  V30 4276 H 443.016 -3.14805 0.753628 0
M  V30 4277 H 441.923 -2.3343 2.92337 0
M  V30 4278 H 443.256 -3.08658 3.83394 0
M  V30 4279 N 444.908 -1.36708 -0.784132 0
M  V30 4280 C 445.818 -1.3363 -1.92822 0
M  V30 4281 C 446.834 -0.237686 -1.72369 0
M  V30 4282 O 448.01 -0.470962 -1.95816 0
M  V30 4283 C 445.075 -1.13011 -3.27764 0
M  V30 4284 C 444.136 -2.32397 -3.60957 0
M  V30 4285 C 443.369 -2.12752 -4.89461 0
M  V30 4286 O 443.592 -1.10541 -5.59586 0
M  V30 4287 O 442.526 -3.00653 -5.21432 0
M  V30 4288 H 446.352 -2.29964 -1.98369 0
M  V30 4289 H 443.937 -1.1731 -0.925136 0
M  V30 4290 H 445.819 -1.03451 -4.08504 0
M  V30 4291 H 444.494 -0.19743 -3.23097 0
M  V30 4292 H 443.401 -2.47527 -2.80502 0
M  V30 4293 H 444.734 -3.2419 -3.70354 0
M  V30 4294 N 446.386 1.0089 -1.21074 0
M  V30 4295 C 447.634 1.74262 -1.02358 0
M  V30 4296 C 447.955 1.89869 0.444393 0
M  V30 4297 O 447.225 1.44677 1.32081 0
M  V30 4298 H 445.805 0.645615 -0.375754 0
M  V30 4299 H 448.467 1.21596 -1.52317 0
M  V30 4300 H 447.563 2.74328 -1.4883 0
M  V30 4301 N 447.864 1.01787 1.20321 0
M  V30 4302 C 449.112 0.706538 1.89347 0
M  V30 4303 C 449.433 -0.766289 1.79313 0
M  V30 4304 O 448.703 -1.55126 1.19635 0
M  V30 4305 H 447.283 0.258348 0.700903 0
M  V30 4306 H 449.945 1.28974 1.46122 0
M  V30 4307 H 449.041 0.991066 2.95946 0
M  V30 4308 N 449.342 -1.36122 0.79427 0
M  V30 4309 C 450.619 -1.93398 0.292685 0
M  V30 4310 C 450.999 -1.72567 -1.21589 0
M  V30 4311 O 450.347 -1.08745 -2.00965 0
M  V30 4312 C 450.557 -3.42099 0.690614 0
M  V30 4313 C 451.905 -4.19231 0.673105 0
M  V30 4314 O 452.929 -3.50559 0.631389 0
M  V30 4315 O 451.788 -5.41732 0.720362 0
M  V30 4316 H 448.882 -0.823712 0.0736693 0
M  V30 4317 H 451.428 -1.45273 0.87714 0
M  V30 4318 H 450.2 -3.50938 1.73085 0
M  V30 4319 H 449.823 -3.97519 0.0803036 0
M  V30 4320 N 450.82 -0.546701 -1.47814 0
M  V30 4321 C 452.05 -0.0232519 -2.06587 0
M  V30 4322 C 452.458 1.2712 -1.40133 0
M  V30 4323 O 451.801 1.77091 -0.488305 0
M  V30 4324 C 451.863 0.254117 -3.58601 0
M  V30 4325 C 451.527 -0.949331 -4.47031 0
M  V30 4326 C 452.524 -1.85216 -4.85789 0
M  V30 4327 C 450.209 -1.16104 -4.88697 0
M  V30 4328 C 452.203 -2.95047 -5.65001 0
M  V30 4329 C 449.89 -2.26247 -5.67676 0
M  V30 4330 C 450.888 -3.1555 -6.05737 0
M  V30 4331 O 450.576 -4.23784 -6.83127 0
M  V30 4332 H 450.308 -0.0380082 -0.674931 0
M  V30 4333 H 452.862 -0.756631 -1.90956 0
M  V30 4334 H 451.092 1.04168 -3.72406 0
M  V30 4335 H 452.781 0.72167 -3.99433 0
M  V30 4336 H 453.547 -1.70061 -4.54207 0
M  V30 4337 H 449.426 -0.475159 -4.58545 0
M  V30 4338 H 452.97 -3.64778 -5.94628 0
M  V30 4339 H 448.867 -2.41379 -5.98671 0
M  V30 4340 H 449.635 -4.21701 -7.01506 0
M  V30 4341 N 452.299 1.55045 -0.282633 0
M  V30 4342 C 453.529 2.03872 0.334635 0
M  V30 4343 C 453.937 1.16018 1.49454 0
M  V30 4344 O 453.28 0.174449 1.8287 0
M  V30 4345 C 453.342 3.48791 0.870905 0
M  V30 4346 C 453.006 4.56715 -0.161338 0
M  V30 4347 C 454.003 5.10513 -0.983466 0
M  V30 4348 C 451.688 5.01417 -0.297745 0
M  V30 4349 C 453.682 6.07538 -1.92811 0
M  V30 4350 C 451.369 5.98265 -1.24586 0
M  V30 4351 C 452.367 6.51208 -2.05954 0
M  V30 4352 O 452.055 7.46162 -2.99162 0
M  V30 4353 H 451.787 0.671324 0.0793742 0
M  V30 4354 H 454.341 2.01169 -0.41473 0
M  V30 4355 H 452.571 3.48758 1.67047 0
M  V30 4356 H 454.26 3.80916 1.40207 0
M  V30 4357 H 455.026 4.76785 -0.888856 0
M  V30 4358 H 450.905 4.59849 0.325604 0
M  V30 4359 H 454.449 6.48787 -2.56363 0
M  V30 4360 H 450.346 6.31412 -1.34126 0
M  V30 4361 H 451.114 7.63903 -2.93929 0
M  V30 4362 N 453.777 0.010035 1.57597 0
M  V30 4363 C 455.054 -0.710296 1.82248 0
M  V30 4364 C 455.434 -1.91426 0.889911 0
M  V30 4365 O 454.782 -2.28424 -0.0590292 0
M  V30 4366 C 454.992 -1.10655 3.30993 0
M  V30 4367 C 456.34 -1.50621 3.96987 0
M  V30 4368 O 457.364 -1.20007 3.35375 0
M  V30 4369 O 456.223 -2.07587 5.05539 0
M  V30 4370 H 453.317 -0.34673 0.750804 0
M  V30 4371 H 455.863 0.0362578 1.69661 0
M  V30 4372 H 454.635 -0.248826 3.90508 0
M  V30 4373 H 454.258 -1.91189 3.48615 0
M  V30 4374 N 455.255 -1.55392 -0.262866 0
M  V30 4375 C 456.532 -1.67204 -1.01499 0
M  V30 4376 C 456.912 -0.545186 -2.03939 0
M  V30 4377 O 456.26 0.453467 -2.23955 0
M  V30 4378 C 456.47 -3.06847 -1.6627 0
M  V30 4379 C 457.818 -3.64928 -2.17054 0
M  V30 4380 O 458.842 -3.09545 -1.76239 0
M  V30 4381 O 457.701 -4.61984 -2.91947 0
M  V30 4382 H 454.795 -0.679467 -0.471438 0
M  V30 4383 H 457.341 -1.67729 -0.257918 0
M  V30 4384 H 456.113 -3.80309 -0.920915 0
M  V30 4385 H 455.736 -3.10266 -2.48638 0
M  V30 4386 N 456.733 0.527833 -1.48498 0
M  V30 4387 C 457.643 1.65907 -1.65867 0
M  V30 4388 C 458.659 1.6537 -0.541192 0
M  V30 4389 O 459.835 1.84282 -0.812534 0
M  V30 4390 C 456.9 3.02364 -1.69637 0
M  V30 4391 C 455.961 3.1374 -2.93028 0
M  V30 4392 C 455.194 4.43688 -2.96609 0
M  V30 4393 O 455.417 5.30913 -2.08538 0
M  V30 4394 O 454.351 4.59475 -3.88802 0
M  V30 4395 H 458.177 1.5419 -2.61647 0
M  V30 4396 H 455.762 0.701163 -1.31924 0
M  V30 4397 H 457.644 3.83515 -1.74625 0
M  V30 4398 H 456.319 3.14401 -0.770312 0
M  V30 4399 H 455.226 2.31877 -2.93571 0
M  V30 4400 H 456.559 3.06621 -3.85026 0
M  V30 4401 N 458.211 1.37122 0.776871 0
M  V30 4402 C 459.141 1.35164 1.90402 0
M  V30 4403 C 460.122 0.221069 1.68657 0
M  V30 4404 O 461.307 0.420642 1.8959 0
M  V30 4405 C 458.437 1.15274 3.27611 0
M  V30 4406 C 457.391 2.25289 3.63908 0
M  V30 4407 C 456.717 1.90527 4.99603 0
M  V30 4408 C 458.017 3.67446 3.71188 0
M  V30 4409 H 459.711 2.29482 1.92297 0
M  V30 4410 H 457.257 1.10465 0.923773 0
M  V30 4411 H 459.21 1.12536 4.06096 0
M  V30 4412 H 457.934 0.174102 3.26136 0
M  V30 4413 H 456.593 2.27174 2.87728 0
M  V30 4414 H 456.241 0.91206 4.94662 0
M  V30 4415 H 455.941 2.64193 5.24858 0
M  V30 4416 H 457.465 1.89367 5.80493 0
M  V30 4417 H 458.879 3.67719 4.39836 0
M  V30 4418 H 457.276 4.40123 4.07936 0
M  V30 4419 H 458.346 4.01443 2.71977 0
M  V30 4420 N 459.689 -1.00246 1.21608 0
M  V30 4421 C 460.936 -1.74061 1.03485 0
M  V30 4422 C 461.264 -1.89658 -0.431308 0
M  V30 4423 O 460.519 -1.42976 -1.33627 0
M  V30 4424 C 460.818 -3.15448 1.68009 0
M  V30 4425 C 460.484 -3.19792 3.17874 0
M  V30 4426 C 459.146 -3.20685 3.58768 0
M  V30 4427 C 461.498 -3.16835 4.13842 0
M  V30 4428 C 458.826 -3.16309 4.94131 0
M  V30 4429 C 461.178 -3.14001 5.49169 0
M  V30 4430 C 459.842 -3.13204 5.89457 0
M  V30 4431 H 459.112 -0.636934 0.378677 0
M  V30 4432 H 461.759 -1.17473 1.51236 0
M  V30 4433 H 460.064 -3.75284 1.12557 0
M  V30 4434 H 461.761 -3.71285 1.51487 0
M  V30 4435 H 458.351 -3.19842 2.85305 0
M  V30 4436 H 462.535 -3.15303 3.83272 0
M  V30 4437 H 457.791 -3.14032 5.24589 0
M  V30 4438 H 461.965 -3.10667 6.23265 0
M  V30 4439 H 459.592 -3.09568 6.94314 0
M  V30 4440 N 461.167 -1.02423 -1.1978 0
M  V30 4441 C 462.392 -0.7373 -1.93852 0
M  V30 4442 C 462.817 0.696923 -1.74713 0
M  V30 4443 O 462.175 1.48056 -1.04638 0
M  V30 4444 C 462.223 -1.08783 -3.438 0
M  V30 4445 O 461.327 -0.20383 -4.11896 0
M  V30 4446 H 460.668 -0.27284 -0.605355 0
M  V30 4447 H 463.198 -1.36966 -1.51992 0
M  V30 4448 H 463.208 -1.04276 -3.9445 0
M  V30 4449 H 461.883 -2.13274 -3.57053 0
M  V30 4450 H 460.46 -0.307091 -3.71633 0
M  V30 4451 N 462.645 1.35699 -0.801477 0
M  V30 4452 C 463.922 1.9324 -0.302937 0
M  V30 4453 C 464.302 1.73209 1.20672 0
M  V30 4454 O 463.65 1.09809 2.00385 0
M  V30 4455 C 463.86 3.41728 -0.708747 0
M  V30 4456 C 465.208 4.18868 -0.695328 0
M  V30 4457 O 466.232 3.5022 -0.649971 0
M  V30 4458 O 465.091 5.41342 -0.749081 0
M  V30 4459 H 462.185 0.82331 -0.0780367 0
M  V30 4460 H 464.731 1.44806 -0.884832 0
M  V30 4461 H 463.503 3.50015 -1.74944 0
M  V30 4462 H 463.126 3.97471 -0.101384 0
M  V30 4463 N 464.123 0.554532 1.47522 0
M  V30 4464 C 465.369 0.0295227 2.02779 0
M  V30 4465 C 465.702 -1.31582 1.42828 0
M  V30 4466 O 464.977 -1.85561 0.582872 0
M  V30 4467 C 465.26 -0.0664057 3.60039 0
M  V30 4468 C 465.113 1.30585 4.30427 0
M  V30 4469 C 466.432 -0.781162 4.33112 0
M  V30 4470 H 463.551 0.0122027 0.736899 0
M  V30 4471 H 466.193 0.716305 1.7598 0
M  V30 4472 H 464.343 -0.651307 3.83002 0
M  V30 4473 H 466.015 1.93374 4.18813 0
M  V30 4474 H 464.258 1.88125 3.90886 0
M  V30 4475 H 464.929 1.19147 5.38988 0
M  V30 4476 H 467.405 -0.284565 4.15126 0
M  V30 4477 H 466.281 -0.817237 5.42782 0
M  V30 4478 H 466.542 -1.83672 4.0214 0
M  V30 4479 N 465.601 -1.54893 0.290851 0
M  V30 4480 C 466.533 -2.20564 -0.623236 0
M  V30 4481 C 467.546 -1.19519 -1.1054 0
M  V30 4482 O 468.735 -1.46165 -1.02459 0
M  V30 4483 C 465.835 -2.83033 -1.86401 0
M  V30 4484 C 465.008 -4.09916 -1.52604 0
M  V30 4485 C 464.067 -4.56284 -2.62091 0
M  V30 4486 O 463.093 -5.2171 -2.27612 0
M  V30 4487 N 464.295 -4.27746 -3.92446 0
M  V30 4488 H 467.06 -2.99638 -0.0610915 0
M  V30 4489 H 464.621 -1.61508 0.112615 0
M  V30 4490 H 466.613 -3.1099 -2.58973 0
M  V30 4491 H 465.183 -2.0786 -2.33481 0
M  V30 4492 H 464.403 -3.89078 -0.633424 0
M  V30 4493 H 465.691 -4.92554 -1.27547 0
M  V30 4494 H 465.089 -3.7531 -4.23272 0
M  V30 4495 H 463.646 -4.60437 -4.61347 0
M  V30 4496 N 467.08 -0.0183926 -1.57589 0
M  V30 4497 C 468.357 0.700621 -1.82622 0
M  V30 4498 C 468.737 1.90951 -0.90005 0
M  V30 4499 O 468.085 2.28452 0.0469145 0
M  V30 4500 C 468.295 1.08899 -3.31575 0
M  V30 4501 C 469.643 1.48514 -3.9778 0
M  V30 4502 O 470.667 1.18227 -3.36007 0
M  V30 4503 O 469.526 2.04903 -5.06633 0
M  V30 4504 H 466.62 0.342743 -0.752633 0
M  V30 4505 H 469.166 -0.0452548 -1.6964 0
M  V30 4506 H 467.938 0.228113 -3.90635 0
M  V30 4507 H 467.561 1.89338 -3.49624 0
M  V30 4508 N 468.558 1.5553 0.254621 0
M  V30 4509 C 469.807 1.76202 0.981612 0
M  V30 4510 C 470.12 0.580883 1.86776 0
M  V30 4511 O 471.326 0.670448 2.63092 0
M  V30 4512 C 469.782 3.11921 1.79537 0
M  V30 4513 C 469.39 4.37659 0.956991 0
M  V30 4514 C 471.134 3.41936 2.51555 0
M  V30 4515 C 469.041 5.64411 1.76619 0
M  V30 4516 H 467.971 0.656841 0.370237 0
M  V30 4517 H 470.622 1.81969 0.236556 0
M  V30 4518 H 469.004 3.00241 2.58208 0
M  V30 4519 H 470.178 4.60307 0.21315 0
M  V30 4520 H 468.493 4.14922 0.350497 0
M  V30 4521 H 471.09 4.33849 3.12536 0
M  V30 4522 H 471.433 2.62905 3.22779 0
M  V30 4523 H 471.966 3.54797 1.799 0
M  V30 4524 H 468.705 6.46241 1.09783 0
M  V30 4525 H 468.225 5.45877 2.48551 0
M  V30 4526 H 469.904 6.03386 2.33527 0
M  V30 4527 N 470.036 -0.519951 1.48776 0
M  V30 4528 C 470.983 -1.62352 1.64044 0
M  V30 4529 C 471.953 -1.58945 0.482251 0
M  V30 4530 O 473.138 -1.77219 0.706971 0
M  V30 4531 C 470.278 -3.00579 1.69547 0
M  V30 4532 C 469.391 -3.14145 2.96541 0
M  V30 4533 C 468.526 -4.42991 2.93142 0
M  V30 4534 C 467.565 -4.50122 4.14797 0
M  V30 4535 N 466.702 -5.7037 4.09418 0
M  V30 4536 H 471.542 -1.48643 2.58281 0
M  V30 4537 H 469.079 -0.723516 1.28077 0
M  V30 4538 H 471.037 -3.80671 1.70719 0
M  V30 4539 H 469.667 -3.13036 0.787918 0
M  V30 4540 H 468.719 -2.27239 3.05068 0
M  V30 4541 H 470.031 -3.15275 3.86527 0
M  V30 4542 H 469.185 -5.31385 2.92772 0
M  V30 4543 H 467.924 -4.44398 2.00902 0
M  V30 4544 H 466.929 -3.60133 4.15433 0
M  V30 4545 H 468.154 -4.50445 5.08208 0
M  V30 4546 H 466.1 -5.72655 3.20004 0
M  V30 4547 H 466.017 -5.73036 4.93119 0
M  V30 4548 H 467.285 -6.61023 4.13121 0
M  V30 4549 N 471.514 -1.37532 -0.769588 0
M  V30 4550 C 472.742 -1.36059 -1.55871 0
M  V30 4551 C 473.157 0.053544 -1.88724 0
M  V30 4552 O 472.514 1.01591 -1.5161 0
M  V30 4553 C 472.565 -2.20107 -2.86767 0
M  V30 4554 O 472.286 -3.56009 -2.55321 0
M  V30 4555 C 473.787 -2.26636 -3.80987 0
M  V30 4556 H 471.007 -0.465967 -0.482821 0
M  V30 4557 H 473.551 -1.80901 -0.953686 0
M  V30 4558 H 471.706 -1.78768 -3.43687 0
M  V30 4559 H 472.12 -4.0009 -3.39158 0
M  V30 4560 H 473.594 -2.89763 -4.69831 0
M  V30 4561 H 474.071 -1.2754 -4.20274 0
M  V30 4562 H 474.677 -2.68296 -3.29996 0
M  V30 4563 N 472.992 0.995999 -1.22138 0
M  V30 4564 C 473.955 2.06711 -0.990109 0
M  V30 4565 C 474.955 1.60744 0.0422978 0
M  V30 4566 O 476.145 1.73095 -0.195895 0
M  V30 4567 C 473.277 3.37288 -0.49491 0
M  V30 4568 H 474.47 2.28661 -1.94047 0
M  V30 4569 H 472.023 1.16711 -1.03963 0
M  V30 4570 H 472.758 3.21022 0.459948 0
M  V30 4571 H 472.543 3.71986 -1.23971 0
M  V30 4572 H 474.033 4.16103 -0.353253 0
M  V30 4573 N 474.47 1.03057 1.19235 0
M  V30 4574 C 475.4 0.633497 2.24742 0
M  V30 4575 C 476.381 -0.358335 1.66283 0
M  V30 4576 O 477.566 -0.240676 1.92703 0
M  V30 4577 C 474.696 -0.0147648 3.47297 0
M  V30 4578 C 473.65 0.899527 4.18441 0
M  V30 4579 C 472.976 0.116281 5.34574 0
M  V30 4580 C 474.276 2.21404 4.73051 0
M  V30 4581 H 475.97 1.5155 2.58211 0
M  V30 4582 H 473.516 0.73014 1.24117 0
M  V30 4583 H 475.469 -0.304202 4.20301 0
M  V30 4584 H 474.193 -0.931577 3.13032 0
M  V30 4585 H 472.852 1.17319 3.47321 0
M  V30 4586 H 472.5 -0.802619 4.96555 0
M  V30 4587 H 472.2 0.725293 5.83107 0
M  V30 4588 H 473.724 -0.166376 6.10373 0
M  V30 4589 H 475.138 1.98601 5.37802 0
M  V30 4590 H 473.535 2.77512 5.32078 0
M  V30 4591 H 474.605 2.86752 3.91026 0
M  V30 4592 N 475.948 -1.35272 0.808662 0
M  V30 4593 C 476.911 -2.28082 0.226093 0
M  V30 4594 C 477.911 -1.49673 -0.587762 0
M  V30 4595 O 479.101 -1.69404 -0.405943 0
M  V30 4596 C 476.233 -3.33955 -0.684596 0
M  V30 4597 H 477.426 -2.81116 1.04469 0
M  V30 4598 H 474.979 -1.45162 0.579466 0
M  V30 4599 H 475.714 -2.86111 -1.5268 0
M  V30 4600 H 475.499 -3.91965 -0.102699 0
M  V30 4601 H 476.989 -4.03219 -1.08646 0
M  V30 4602 N 477.426 -0.562348 -1.47226 0
M  V30 4603 C 478.373 0.182461 -2.30078 0
M  V30 4604 C 479.343 0.903503 -1.39377 0
M  V30 4605 O 480.528 0.898188 -1.68337 0
M  V30 4606 C 477.668 1.20322 -3.23445 0
M  V30 4607 C 476.781 0.487717 -4.29238 0
M  V30 4608 C 475.916 1.49422 -5.09752 0
M  V30 4609 C 474.955 0.763976 -6.07314 0
M  V30 4610 N 474.092 1.71755 -6.80768 0
M  V30 4611 H 478.932 -0.530169 -2.93246 0
M  V30 4612 H 476.469 -0.273276 -1.44539 0
M  V30 4613 H 478.427 1.80768 -3.76004 0
M  V30 4614 H 477.057 1.88382 -2.6213 0
M  V30 4615 H 476.109 -0.231374 -3.79696 0
M  V30 4616 H 477.421 -0.0841003 -4.98729 0
M  V30 4617 H 476.575 2.17206 -5.66486 0
M  V30 4618 H 475.314 2.09995 -4.40174 0
M  V30 4619 H 474.319 0.0722344 -5.49753 0
M  V30 4620 H 475.544 0.16391 -6.78902 0
M  V30 4621 H 473.49 2.31177 -6.13916 0
M  V30 4622 H 473.407 1.19802 -7.46447 0
M  V30 4623 H 474.675 2.38638 -7.42073 0
M  V30 4624 N 478.904 1.54736 -0.299062 0
M  V30 4625 C 480.153 1.99279 0.311549 0
M  V30 4626 C 480.466 1.19107 1.55154 0
M  V30 4627 O 481.672 1.53908 2.23662 0
M  V30 4628 C 480.128 3.54768 0.605632 0
M  V30 4629 C 479.736 4.43746 -0.615914 0
M  V30 4630 C 481.48 4.07841 1.17754 0
M  V30 4631 C 479.387 5.90663 -0.29509 0
M  V30 4632 H 478.317 0.744359 0.120187 0
M  V30 4633 H 480.968 1.78919 -0.407464 0
M  V30 4634 H 479.35 3.71021 1.38419 0
M  V30 4635 H 480.524 4.39267 -1.39218 0
M  V30 4636 H 478.839 4.01434 -1.10633 0
M  V30 4637 H 481.436 5.15174 1.43179 0
M  V30 4638 H 481.779 3.58324 2.11918 0
M  V30 4639 H 482.312 3.95123 0.460739 0
M  V30 4640 H 479.051 6.44325 -1.20524 0
M  V30 4641 H 478.571 5.98155 0.44394 0
M  V30 4642 H 480.25 6.46916 0.104048 0
M  V30 4643 N 480.382 0.0267497 1.57577 0
M  V30 4644 C 481.332 -0.965003 2.06571 0
M  V30 4645 C 482.316 -1.28694 0.965746 0
M  V30 4646 O 483.508 -1.27345 1.22932 0
M  V30 4647 C 480.637 -2.24821 2.59443 0
M  V30 4648 C 479.723 -1.95474 3.76365 0
M  V30 4649 N 480.114 -1.36387 4.87065 0
M  V30 4650 C 478.412 -2.25478 3.84806 0
M  V30 4651 C 479.113 -1.24119 5.68304 0
M  V30 4652 N 478.089 -1.7359 5.15138 0
M  V30 4653 H 481.891 -0.503095 2.89562 0
M  V30 4654 H 479.405 -0.178322 1.61418 0
M  V30 4655 H 481.402 -2.9674 2.92833 0
M  V30 4656 H 480.062 -2.7164 1.77881 0
M  V30 4657 H 481.073 -1.03919 5.07367 0
M  V30 4658 H 477.75 -2.74987 3.14147 0
M  V30 4659 H 479.14 -0.784504 6.67304 0
M  V30 4660 N 481.861 -1.55662 -0.24637 0
M  V30 4661 C 482.771 -1.93495 -1.32653 0
M  V30 4662 C 483.787 -0.835462 -1.5263 0
M  V30 4663 O 484.963 -1.1369 -1.66242 0
M  V30 4664 C 482.028 -2.22242 -2.66101 0
M  V30 4665 C 481.089 -3.45625 -2.54641 0
M  V30 4666 C 480.322 -3.72991 -3.81724 0
M  V30 4667 O 480.545 -3.02421 -4.8363 0
M  V30 4668 O 479.479 -4.66515 -3.80325 0
M  V30 4669 H 483.305 -2.85498 -1.03559 0
M  V30 4670 H 480.89 -1.42551 -0.44717 0
M  V30 4671 H 482.772 -2.42037 -3.44958 0
M  V30 4672 H 481.447 -1.33417 -2.94926 0
M  V30 4673 H 480.354 -3.31136 -1.74067 0
M  V30 4674 H 481.687 -4.34754 -2.3076 0
M  V30 4675 N 483.339 0.512053 -1.4905 0
M  V30 4676 C 484.616 1.27337 -1.48474 0
M  V30 4677 C 484.996 2.1009 -0.206301 0
M  V30 4678 O 484.344 2.136 0.811609 0
M  V30 4679 C 484.554 2.13954 -2.75726 0
M  V30 4680 C 485.902 2.73507 -3.24776 0
M  V30 4681 O 486.926 2.24229 -2.76767 0
M  V30 4682 O 485.785 3.63186 -4.08361 0
M  V30 4683 H 482.879 0.575652 -0.593762 0
M  V30 4684 H 485.425 0.527232 -1.61302 0
M  V30 4685 H 484.197 1.52709 -3.60272 0
M  V30 4686 H 483.82 2.95782 -2.65705 0
M  V30 4687 N 484.817 1.37938 0.762283 0
M  V30 4688 C 485.765 1.34569 1.89721 0
M  V30 4689 C 486.759 0.232929 1.67791 0
M  V30 4690 O 487.965 0.401485 1.75465 0
M  V30 4691 H 484.34 0.419594 0.624055 0
M  V30 4692 H 486.311 2.30357 1.8968 0
M  V30 4693 C 485.06 1.17898 3.27101 0
M  V30 4694 H 484.383 2.02781 3.44558 0
M  V30 4695 H 485.823 1.19593 4.06784 0
M  V30 4696 C 484.282 -0.114728 3.36705 0
M  V30 4697 O 484.812 -1.0949 3.8649 0
M  V30 4698 N 483.018 -0.16863 2.9011 0
M  V30 4699 H 482.565 0.62967 2.49786 0
M  V30 4700 H 482.523 -1.03383 2.96916 0
M  V30 4701 N 486.295 -0.989507 1.22664 0
M  V30 4702 C 487.227 -2.0824 0.957542 0
M  V30 4703 C 488.24 -1.6267 -0.0651098 0
M  V30 4704 O 489.429 -1.77695 0.169312 0
M  V30 4705 C 486.529 -3.36298 0.419145 0
M  V30 4706 C 485.702 -4.10882 1.49982 0
M  V30 4707 C 484.761 -5.17221 0.967904 0
M  V30 4708 O 483.787 -5.44613 1.65487 0
M  V30 4709 N 484.989 -5.80124 -0.20896 0
M  V30 4710 H 487.754 -2.31904 1.89843 0
M  V30 4711 H 485.315 -1.15552 1.13399 0
M  V30 4712 H 487.307 -4.04671 0.0485451 0
M  V30 4713 H 485.877 -3.09671 -0.426937 0
M  V30 4714 H 485.097 -3.37092 2.04359 0
M  V30 4715 H 486.385 -4.57482 2.22682 0
M  V30 4716 H 485.783 -5.60244 -0.783818 0
M  V30 4717 H 484.34 -6.49715 -0.520913 0
M  V30 4718 N 487.773 -1.03688 -1.18687 0
M  V30 4719 C 488.72 -0.624624 -2.22187 0
M  V30 4720 C 489.69 0.365636 -1.62026 0
M  V30 4721 O 490.875 0.260481 -1.89014 0
M  V30 4722 C 488.015 0.0101738 -3.45099 0
M  V30 4723 C 487.128 -1.02709 -4.19613 0
M  V30 4724 C 486.263 -0.361213 -5.2997 0
M  V30 4725 C 485.302 -1.38384 -5.96252 0
M  V30 4726 N 484.439 -0.743196 -6.98155 0
M  V30 4727 H 489.279 -1.51176 -2.56807 0
M  V30 4728 H 486.816 -0.75636 -1.26165 0
M  V30 4729 H 488.774 0.395528 -4.15321 0
M  V30 4730 H 487.404 0.860848 -3.1111 0
M  V30 4731 H 486.456 -1.53043 -3.48256 0
M  V30 4732 H 487.768 -1.80398 -4.65036 0
M  V30 4733 H 486.922 0.0785537 -6.06649 0
M  V30 4734 H 485.661 0.447799 -4.8564 0
M  V30 4735 H 484.666 -1.83378 -5.18317 0
M  V30 4736 H 485.891 -2.19448 -6.42666 0
M  V30 4737 H 483.837 0.0455789 -6.55984 0
M  V30 4738 H 483.754 -1.45784 -7.41811 0
M  V30 4739 H 485.022 -0.327698 -7.78811 0
M  V30 4740 N 489.251 1.34841 -0.815825 0
M  V30 4741 C 490.5 1.97755 -0.396976 0
M  V30 4742 C 490.813 1.65422 1.04379 0
M  V30 4743 O 492.019 2.21771 1.5662 0
M  V30 4744 C 490.475 3.53818 -0.658869 0
M  V30 4745 C 490.083 3.95051 -2.11278 0
M  V30 4746 C 491.827 4.23397 -0.305834 0
M  V30 4747 C 489.734 5.43997 -2.31994 0
M  V30 4748 H 488.664 0.739985 -0.1447 0
M  V30 4749 H 491.315 1.53781 -1.00118 0
M  V30 4750 H 489.697 3.95997 0.0154112 0
M  V30 4751 H 490.871 3.63998 -2.82564 0
M  V30 4752 H 489.186 3.38388 -2.42657 0
M  V30 4753 H 491.783 5.32899 -0.43854 0
M  V30 4754 H 492.126 4.09508 0.748952 0
M  V30 4755 H 492.659 3.8667 -0.934403 0
M  V30 4756 H 489.398 5.62865 -3.35952 0
M  V30 4757 H 488.918 5.76589 -1.65244 0
M  V30 4758 H 490.597 6.10584 -2.14001 0
M  V30 4759 N 490.729 0.570148 1.46925 0
M  V30 4760 C 491.978 0.0487352 2.01641 0
M  V30 4761 C 492.291 -1.31433 1.44861 0
M  V30 4762 O 493.497 -1.92638 1.91318 0
M  V30 4763 C 491.953 0.0365817 3.59881 0
M  V30 4764 C 491.561 1.39719 4.25655 0
M  V30 4765 C 493.305 -0.431545 4.22301 0
M  V30 4766 C 491.212 1.34345 5.75939 0
M  V30 4767 H 490.142 0.0144492 0.753862 0
M  V30 4768 H 492.793 0.719928 1.68788 0
M  V30 4769 H 491.175 -0.700522 3.89755 0
M  V30 4770 H 492.349 2.15303 4.07408 0
M  V30 4771 H 490.664 1.80431 3.75278 0
M  V30 4772 H 493.261 -0.490354 5.32447 0
M  V30 4773 H 493.604 -1.44638 3.90366 0
M  V30 4774 H 494.137 0.251102 3.97007 0
M  V30 4775 H 490.876 2.33469 6.12513 0
M  V30 4776 H 490.396 0.629615 5.96486 0
M  V30 4777 H 492.075 1.051 6.38407 0
M  V30 4778 N 492.207 -1.54576 0.307264 0
M  V30 4779 C 493.432 -2.05139 -0.305379 0
M  V30 4780 C 493.857 -1.18278 -1.46259 0
M  V30 4781 O 493.215 -0.188243 -1.8032 0
M  V30 4782 C 493.263 -3.53066 -0.733283 0
M  V30 4783 O 492.367 -3.69206 -1.83741 0
M  V30 4784 H 491.708 -0.661444 -0.0582105 0
M  V30 4785 H 494.238 -1.99569 0.450931 0
M  V30 4786 H 494.248 -3.95034 -1.02039 0
M  V30 4787 H 492.923 -4.15746 0.113198 0
M  V30 4788 H 491.5 -3.39143 -1.55037 0
M  V30 4789 N 493.685 -0.035106 -1.57561 0
M  V30 4790 C 494.632 0.94474 -2.10578 0
M  V30 4791 C 495.602 1.3192 -1.00927 0
M  V30 4792 O 496.787 1.41147 -1.28382 0
M  V30 4793 C 493.927 2.21982 -2.64231 0
M  V30 4794 C 493.04 1.90128 -3.87911 0
M  V30 4795 C 492.175 3.11975 -4.29936 0
M  V30 4796 C 491.214 2.75968 -5.46359 0
M  V30 4797 N 490.351 3.90459 -5.83512 0
M  V30 4798 H 495.191 0.485717 -2.94015 0
M  V30 4799 H 492.728 0.228143 -1.4532 0
M  V30 4800 H 494.686 2.96572 -2.9343 0
M  V30 4801 H 493.316 2.6549 -1.83616 0
M  V30 4802 H 492.368 1.05755 -3.65404 0
M  V30 4803 H 493.68 1.59613 -4.72573 0
M  V30 4804 H 492.834 3.9488 -4.60603 0
M  V30 4805 H 491.573 3.45657 -3.44053 0
M  V30 4806 H 490.578 1.91478 -5.1538 0
M  V30 4807 H 491.803 2.43497 -6.33945 0
M  V30 4808 H 489.749 4.23971 -5.00584 0
M  V30 4809 H 489.666 3.63588 -6.62827 0
M  V30 4810 H 490.934 4.7405 -6.18787 0
M  V30 4811 N 495.163 1.55791 0.238111 0
M  V30 4812 C 496.093 1.94068 1.29846 0
M  V30 4813 C 497.074 0.806726 1.49753 0
M  V30 4814 O 498.259 1.06772 1.62214 0
M  V30 4815 C 495.389 2.24302 2.65153 0
M  V30 4816 C 494.343 3.40032 2.59927 0
M  V30 4817 C 493.669 3.55829 3.99111 0
M  V30 4818 C 494.969 4.75476 2.16148 0
M  V30 4819 H 496.663 2.82887 0.980563 0
M  V30 4820 H 494.209 1.36105 0.470253 0
M  V30 4821 H 496.162 2.4967 3.39475 0
M  V30 4822 H 494.886 1.32318 2.98596 0
M  V30 4823 H 493.545 3.14687 1.88063 0
M  V30 4824 H 493.193 2.6125 4.29834 0
M  V30 4825 H 492.893 4.3366 3.96501 0
M  V30 4826 H 494.417 3.83528 4.7512 0
M  V30 4827 H 495.831 5.00158 2.80205 0
M  V30 4828 H 494.228 5.56472 2.24631 0
M  V30 4829 H 495.298 4.71946 1.11333 0
M  V30 4830 N 496.642 -0.504142 1.49319 0
M  V30 4831 C 497.552 -1.63248 1.68486 0
M  V30 4832 C 498.568 -1.64488 0.567432 0
M  V30 4833 O 499.744 -1.82966 0.841749 0
M  V30 4834 C 496.809 -2.99627 1.74426 0
M  V30 4835 C 495.87 -3.09039 2.97982 0
M  V30 4836 C 495.103 -4.38913 3.0363 0
M  V30 4837 O 495.326 -5.27528 2.16958 0
M  V30 4838 O 494.26 -4.53231 3.96062 0
M  V30 4839 H 498.086 -1.50008 2.64067 0
M  V30 4840 H 495.671 -0.680086 1.33023 0
M  V30 4841 H 497.553 -3.80689 1.80705 0
M  V30 4842 H 496.228 -3.13136 0.820233 0
M  V30 4843 H 495.135 -2.27177 2.97223 0
M  V30 4844 H 496.468 -3.00456 3.89855 0
M  V30 4845 N 498.12 -1.38341 -0.754957 0
M  V30 4846 C 499.345 -1.37882 -1.5493 0
M  V30 4847 C 499.77 0.0296385 -1.88077 0
M  V30 4848 O 499.128 1.01133 -1.50472 0
M  V30 4849 C 499.176 -2.23996 -2.82592 0
M  V30 4850 O 498.28 -1.65612 -3.77686 0
M  V30 4851 H 497.621 -0.470384 -0.468652 0
M  V30 4852 H 500.151 -1.82084 -0.933082 0
M  V30 4853 H 500.161 -2.37806 -3.3153 0
M  V30 4854 H 498.836 -3.26365 -2.57796 0
M  V30 4855 H 497.413 -1.60936 -3.36384 0
M  V30 4856 N 499.598 0.982988 -1.23187 0
M  V30 4857 C 500.528 2.09301 -1.03515 0
M  V30 4858 C 501.509 1.70035 0.0471136 0
M  V30 4859 O 502.694 1.93847 -0.117029 0
M  V30 4860 C 499.824 3.4167 -0.622791 0
M  V30 4861 C 498.778 3.94828 -1.65211 0
M  V30 4862 C 498.104 5.23362 -1.09527 0
M  V30 4863 C 499.404 4.2439 -3.04451 0
M  V30 4864 H 501.098 2.26016 -1.96359 0
M  V30 4865 H 498.644 1.08611 -0.945501 0
M  V30 4866 H 500.597 4.18746 -0.472233 0
M  V30 4867 H 499.321 3.24811 0.341329 0
M  V30 4868 H 497.98 3.19895 -1.79061 0
M  V30 4869 H 497.628 5.02852 -0.122211 0
M  V30 4870 H 497.328 5.59895 -1.783 0
M  V30 4871 H 498.852 6.03062 -0.956511 0
M  V30 4872 H 500.266 4.92225 -2.93917 0
M  V30 4873 H 498.663 4.72118 -3.70438 0
M  V30 4874 H 499.733 3.31765 -3.53638 0
M  V30 4875 N 501.076 1.04316 1.18135 0
M  V30 4876 C 502.006 0.657299 2.24058 0
M  V30 4877 C 502.987 -0.340678 1.66654 0
M  V30 4878 O 504.172 -0.220223 1.92947 0
M  V30 4879 C 501.302 0.0220715 3.47293 0
M  V30 4880 C 500.256 0.943857 4.17463 0
M  V30 4881 C 499.582 0.172973 5.3442 0
M  V30 4882 C 500.882 2.26409 4.70677 0
M  V30 4883 H 502.576 1.5428 2.56589 0
M  V30 4884 H 500.122 0.743263 1.23335 0
M  V30 4885 H 502.075 -0.259607 4.206 0
M  V30 4886 H 500.799 -0.898323 3.14003 0
M  V30 4887 H 499.458 1.20996 3.46057 0
M  V30 4888 H 499.106 -0.749907 4.97379 0
M  V30 4889 H 498.806 0.787098 5.82304 0
M  V30 4890 H 500.33 -0.101628 6.10515 0
M  V30 4891 H 501.744 2.04294 5.35665 0
M  V30 4892 H 500.141 2.8314 5.29105 0
M  V30 4893 H 501.211 2.90883 3.87962 0
M  V30 4894 N 502.554 -1.34406 0.822964 0
M  V30 4895 C 503.484 -2.32052 0.259608 0
M  V30 4896 C 504.465 -1.58243 -0.623961 0
M  V30 4897 O 505.65 -1.86224 -0.55083 0
M  V30 4898 C 502.78 -3.42434 -0.579314 0
M  V30 4899 C 501.734 -4.27499 0.20712 0
M  V30 4900 C 501.06 -5.29349 -0.754547 0
M  V30 4901 C 502.36 -5.02758 1.41533 0
M  V30 4902 H 504.054 -2.79418 1.07545 0
M  V30 4903 H 501.6 -1.34338 0.518593 0
M  V30 4904 H 503.553 -4.0976 -0.983612 0
M  V30 4905 H 502.277 -2.93717 -1.4282 0
M  V30 4906 H 500.936 -3.61776 0.592787 0
M  V30 4907 H 500.584 -4.76895 -1.59939 0
M  V30 4908 H 500.284 -5.8714 -0.232561 0
M  V30 4909 H 501.808 -5.99544 -1.1567 0
M  V30 4910 H 503.222 -5.62938 1.08504 0
M  V30 4911 H 501.619 -5.70123 1.87296 0
M  V30 4912 H 502.689 -4.32451 2.1935 0
M  V30 4913 N 504.032 -0.577932 -1.46621 0
M  V30 4914 C 504.962 0.145917 -2.33044 0
M  V30 4915 C 505.943 0.888412 -1.45056 0
M  V30 4916 O 507.128 0.864812 -1.73881 0
M  V30 4917 C 504.258 1.16322 -3.27241 0
M  V30 4918 C 503.212 0.535868 -4.24632 0
M  V30 4919 C 502.538 1.65929 -5.08303 0
M  V30 4920 C 503.838 -0.523861 -5.19666 0
M  V30 4921 H 505.532 -0.575636 -2.93814 0
M  V30 4922 H 503.078 -0.278272 -1.41286 0
M  V30 4923 H 505.031 1.67793 -3.86553 0
M  V30 4924 H 503.755 1.91498 -2.64567 0
M  V30 4925 H 502.414 0.0422759 -3.66576 0
M  V30 4926 H 502.062 2.40061 -4.42018 0
M  V30 4927 H 501.762 1.2452 -5.74255 0
M  V30 4928 H 503.286 2.17686 -5.70478 0
M  V30 4929 H 504.7 -0.0944059 -5.73222 0
M  V30 4930 H 503.097 -0.858 -5.93935 0
M  V30 4931 H 504.167 -1.41197 -4.63887 0
M  V30 4932 N 505.51 1.54411 -0.315457 0
M  V30 4933 C 506.457 2.24048 0.554166 0
M  V30 4934 C 507.427 1.2283 1.11812 0
M  V30 4935 O 508.612 1.51491 1.15997 0
M  V30 4936 C 505.752 2.99574 1.71316 0
M  V30 4937 C 504.865 4.15594 1.17922 0
M  V30 4938 C 504 4.78669 2.30324 0
M  V30 4939 C 503.039 5.86807 1.74137 0
M  V30 4940 N 502.176 6.43777 2.8017 0
M  V30 4941 H 507.016 2.97964 -0.0462602 0
M  V30 4942 H 504.553 1.47059 -0.0346009 0
M  V30 4943 H 506.511 3.41604 2.39505 0
M  V30 4944 H 505.141 2.28008 2.285 0
M  V30 4945 H 504.193 3.78404 0.389136 0
M  V30 4946 H 505.505 4.93459 0.728012 0
M  V30 4947 H 504.659 5.23626 3.06433 0
M  V30 4948 H 503.398 4.00168 2.78778 0
M  V30 4949 H 502.403 5.41261 0.965236 0
M  V30 4950 H 503.628 6.67201 1.2657 0
M  V30 4951 H 501.574 5.68153 3.2793 0
M  V30 4952 H 501.491 7.17031 2.39588 0
M  V30 4953 H 502.759 6.9339 3.56132 0
M  V30 4954 N 506.988 0.0434614 1.5754 0
M  V30 4955 C 508.236 -0.630786 1.92004 0
M  V30 4956 C 508.557 -1.71836 0.921807 0
M  V30 4957 O 507.827 -1.9587 -0.034522 0
M  V30 4958 H 506.407 -0.235988 0.708745 0
M  V30 4959 H 509.069 0.0946462 1.9467 0
M  V30 4960 H 508.165 -1.07434 2.93026 0
M  V30 4961 N 508.466 -1.55915 -0.229846 0
M  V30 4962 C 509.376 -1.94891 -1.30593 0
M  V30 4963 C 510.392 -0.851604 -1.51736 0
M  V30 4964 O 511.568 -1.15447 -1.65027 0
M  V30 4965 C 508.633 -2.25052 -2.63728 0
M  V30 4966 C 507.694 -3.48306 -2.5096 0
M  V30 4967 C 506.927 -3.77019 -3.77747 0
M  V30 4968 O 507.15 -3.07534 -4.80395 0
M  V30 4969 O 506.084 -4.70523 -3.75356 0
M  V30 4970 H 509.91 -2.86581 -1.00525 0
M  V30 4971 H 507.495 -1.43017 -0.432025 0
M  V30 4972 H 509.377 -2.45682 -3.42372 0
M  V30 4973 H 508.052 -1.36538 -2.93495 0
M  V30 4974 H 506.959 -3.32964 -1.70546 0
M  V30 4975 H 508.292 -4.37177 -2.26136 0
M  V30 4976 N 509.944 0.496216 -1.49584 0
M  V30 4977 C 511.19 1.25189 -1.59548 0
M  V30 4978 C 511.523 1.9212 -0.283466 0
M  V30 4979 O 510.798 1.80947 0.713324 0
M  V30 4980 C 511.081 2.31516 -2.75812 0
M  V30 4981 C 510.934 1.69054 -4.16822 0
M  V30 4982 C 512.253 3.3304 -2.87702 0
M  V30 4983 H 509.372 0.45379 -0.580727 0
M  V30 4984 H 512.014 0.549327 -1.81886 0
M  V30 4985 H 510.164 2.91438 -2.56897 0
M  V30 4986 H 511.836 1.12923 -4.47265 0
M  V30 4987 H 510.079 0.994485 -4.22247 0
M  V30 4988 H 510.75 2.462 -4.94054 0
M  V30 4989 H 513.226 2.83114 -3.04936 0
M  V30 4990 H 512.102 4.04794 -3.7072 0
M  V30 4991 H 512.363 3.95655 -1.97255 0
M  V30 4992 N 511.423 1.38739 0.74761 0
M  V30 4993 C 512.333 1.38696 1.89211 0
M  V30 4994 C 513.349 0.283303 1.71678 0
M  V30 4995 O 514.525 0.522713 1.94498 0
M  V30 4996 C 511.59 1.21662 3.24653 0
M  V30 4997 C 510.651 2.41886 3.54669 0
M  V30 4998 C 509.884 2.25655 4.83648 0
M  V30 4999 O 510.107 1.25339 5.56459 0
M  V30 5000 O 509.041 3.14372 5.13277 0
M  V30 5001 H 512.867 2.35143 1.92202 0
M  V30 5002 H 510.452 1.19721 0.893708 0
M  V30 5003 H 512.334 1.14246 4.05618 0
M  V30 5004 H 511.009 0.283024 3.2246 0
M  V30 5005 H 509.916 2.54877 2.73841 0
M  V30 5006 H 511.249 3.33895 3.61628 0
M  V30 5007 N 512.901 -0.976442 1.23707 0
M  V30 5008 C 514.126 -1.75875 1.09922 0
M  V30 5009 C 514.551 -1.84911 -0.34489 0
M  V30 5010 O 513.909 -1.31363 -1.24954 0
M  V30 5011 C 513.957 -3.16179 1.73388 0
M  V30 5012 O 513.061 -4.00124 0.99871 0
M  V30 5013 H 512.402 -0.540954 0.385052 0
M  V30 5014 H 514.932 -1.22546 1.6384 0
M  V30 5015 H 514.942 -3.66741 1.78788 0
M  V30 5016 H 513.617 -3.08917 2.78466 0
M  V30 5017 H 512.194 -3.58624 1.02193 0
M  V30 5018 N 514.379 -1.04941 -1.1758 0
M  V30 5019 C 515.628 -0.753124 -1.87112 0
M  V30 5020 C 515.941 0.722507 -1.81767 0
M  V30 5021 O 517.147 1.13265 -2.46746 0
M  V30 5022 C 515.603 -1.29695 -3.35719 0
M  V30 5023 C 515.211 -2.80184 -3.49572 0
M  V30 5024 C 516.955 -1.07759 -4.10595 0
M  V30 5025 C 514.862 -3.2788 -4.92187 0
M  V30 5026 H 513.792 -0.278034 -0.700866 0
M  V30 5027 H 516.443 -1.26637 -1.32798 0
M  V30 5028 H 514.825 -0.711522 -3.89555 0
M  V30 5029 H 515.999 -3.44561 -3.05965 0
M  V30 5030 H 514.314 -3.00632 -2.88113 0
M  V30 5031 H 516.911 -1.40899 -5.15802 0
M  V30 5032 H 517.254 -0.0152302 -4.16297 0
M  V30 5033 H 517.787 -1.62809 -3.62957 0
M  V30 5034 H 514.526 -4.33535 -4.91658 0
M  V30 5035 H 514.046 -2.68245 -5.36475 0
M  V30 5036 H 515.725 -3.22412 -5.60945 0
M  V30 5037 N 515.857 1.33968 -0.830081 0
M  V30 5038 C 516.804 2.29387 -0.255008 0
M  V30 5039 C 517.774 1.53923 0.624243 0
M  V30 5040 O 518.959 1.82262 0.564372 0
M  V30 5041 C 516.099 3.4034 0.571209 0
M  V30 5042 C 515.212 4.30729 -0.331083 0
M  V30 5043 C 514.347 5.2879 0.505389 0
M  V30 5044 C 513.386 6.10819 -0.395843 0
M  V30 5045 N 512.523 7.00948 0.401979 0
M  V30 5046 H 517.363 2.77972 -1.07404 0
M  V30 5047 H 514.9 1.36785 -0.541133 0
M  V30 5048 H 516.858 4.03361 1.06562 0
M  V30 5049 H 515.488 2.9297 1.35529 0
M  V30 5050 H 514.54 3.68507 -0.943759 0
M  V30 5051 H 515.852 4.88181 -1.02377 0
M  V30 5052 H 515.006 5.97297 1.06399 0
M  V30 5053 H 513.745 4.71894 1.23155 0
M  V30 5054 H 512.75 5.41238 -0.966529 0
M  V30 5055 H 513.975 6.69797 -1.12023 0
M  V30 5056 H 511.921 6.46512 1.11168 0
M  V30 5057 H 511.838 7.55643 -0.232167 0
M  V30 5058 H 513.106 7.73774 0.943102 0
M  V30 5059 N 517.335 0.585699 1.46312 0
M  V30 5060 C 518.282 -0.145835 2.30339 0
M  V30 5061 C 519.252 -0.881215 1.40797 0
M  V30 5062 O 520.437 -0.871293 1.69744 0
M  V30 5063 C 517.577 -1.15161 3.25318 0
M  V30 5064 C 516.69 -0.419367 4.2996 0
M  V30 5065 C 515.825 -1.41293 5.12064 0
M  V30 5066 C 514.864 -0.667261 6.08452 0
M  V30 5067 N 514.001 -1.60903 6.83414 0
M  V30 5068 H 518.841 0.576755 2.92365 0
M  V30 5069 H 516.378 0.296237 1.44086 0
M  V30 5070 H 518.336 -1.74763 3.78832 0
M  V30 5071 H 516.966 -1.84188 2.65094 0
M  V30 5072 H 516.018 0.291751 3.7928 0
M  V30 5073 H 517.33 0.163433 4.98532 0
M  V30 5074 H 516.484 -2.08167 5.6987 0
M  V30 5075 H 515.223 -2.02966 4.43459 0
M  V30 5076 H 514.228 0.0152356 5.49798 0
M  V30 5077 H 515.453 -0.0558817 6.79077 0
M  V30 5078 H 513.399 -2.21381 6.17516 0
M  V30 5079 H 513.316 -1.07911 7.48259 0
M  V30 5080 H 514.584 -2.26802 7.45775 0
M  V30 5081 N 518.813 -1.54241 0.323641 0
M  V30 5082 C 519.745 -2.21836 -0.576311 0
M  V30 5083 C 520.758 -1.21837 -1.07979 0
M  V30 5084 O 521.947 -1.48306 -0.99336 0
M  V30 5085 C 519.047 -2.86923 -1.80356 0
M  V30 5086 C 518.22 -4.1306 -1.43875 0
M  V30 5087 C 517.279 -4.6174 -2.52353 0
M  V30 5088 O 516.305 -5.26421 -2.16494 0
M  V30 5089 N 517.507 -4.35974 -3.83284 0
M  V30 5090 H 520.272 -2.997 0.00247987 0
M  V30 5091 H 517.833 -1.61233 0.146848 0
M  V30 5092 H 519.825 -3.16414 -2.52318 0
M  V30 5093 H 518.395 -2.12765 -2.29019 0
M  V30 5094 H 517.615 -3.90334 -0.550752 0
M  V30 5095 H 518.903 -4.95148 -1.17071 0
M  V30 5096 H 518.301 -3.84203 -4.15216 0
M  V30 5097 H 516.858 -4.70119 -4.51477 0
M  V30 5098 N 520.291 -0.0518155 -1.57515 0
M  V30 5099 C 521.54 0.621286 -1.91893 0
M  V30 5100 C 521.853 1.71966 -0.932052 0
M  V30 5101 O 523.059 2.45096 -1.16791 0
M  V30 5102 C 521.515 1.15641 -3.40816 0
M  V30 5103 C 521.123 0.0901146 -4.47909 0
M  V30 5104 C 522.867 1.80472 -3.84227 0
M  V30 5105 C 520.774 0.638154 -5.87947 0
M  V30 5106 H 519.704 0.235835 -0.716169 0
M  V30 5107 H 522.355 -0.120809 -1.83102 0
M  V30 5108 H 520.737 1.95084 -3.44613 0
M  V30 5109 H 521.911 -0.683525 -4.55702 0
M  V30 5110 H 520.226 -0.460774 -4.13843 0
M  V30 5111 H 522.823 2.22471 -4.86221 0
M  V30 5112 H 523.166 2.65669 -3.20508 0
M  V30 5113 H 523.699 1.07683 -3.82948 0
M  V30 5114 H 520.438 -0.176202 -6.55263 0
M  V30 5115 H 519.958 1.37976 -5.83714 0
M  V30 5116 H 521.637 1.12085 -6.37217 0
M  V30 5117 N 521.769 1.56035 0.221574 0
M  V30 5118 C 522.717 1.93269 1.29421 0
M  V30 5119 C 523.711 0.814727 1.48521 0
M  V30 5120 O 524.917 0.999559 1.49696 0
M  V30 5121 H 521.292 0.614188 0.43391 0
M  V30 5122 H 523.263 2.82773 0.952987 0
M  V30 5123 C 522.012 2.26573 2.63742 0
M  V30 5124 H 521.335 3.12112 2.49853 0
M  V30 5125 H 522.775 2.5651 3.37607 0
M  V30 5126 C 521.234 1.09086 3.1875 0
M  V30 5127 O 521.764 0.351985 4.00155 0
M  V30 5128 N 519.97 0.874693 2.77124 0
M  V30 5129 H 519.517 1.47726 2.11033 0
M  V30 5130 H 519.475 0.0903349 3.1427 0
M  V30 5131 N 523.247 -0.488276 1.49845 0
M  V30 5132 C 524.663 -0.820566 1.3689 0
M  V30 5133 C 524.863 -1.97248 0.411752 0
M  V30 5134 O 523.919 -2.52042 -0.151931 0
M  V30 5135 C 525.232 -1.1488 2.77891 0
M  V30 5136 C 526.78 -1.25626 2.86683 0
M  V30 5137 C 527.255 -1.61772 4.28479 0
M  V30 5138 N 528.746 -1.68797 4.31349 0
M  V30 5139 C 529.481 -1.98235 5.38043 0
M  V30 5140 N 528.977 -2.2581 6.54967 0
M  V30 5141 N 530.77 -1.99593 5.2547 0
M  V30 5142 H 522.921 0.271123 2.10662 0
M  V30 5143 H 525.184 0.058735 0.946179 0
M  V30 5144 H 524.89 -0.375614 3.49688 0
M  V30 5145 H 524.764 -2.08919 3.14058 0
M  V30 5146 H 527.151 -2.02014 2.15114 0
M  V30 5147 H 527.232 -0.296072 2.54081 0
M  V30 5148 H 526.876 -0.859295 5.00578 0
M  V30 5149 H 526.806 -2.58912 4.58554 0
M  V30 5150 H 529.297 -1.49595 3.4703 0
M  V30 5151 H 529.61 -2.47497 7.32096 0
M  V30 5152 H 527.955 -2.23239 6.58171 0
M  V30 5153 H 531.146 -1.77535 4.33127 0
M  V30 5154 H 531.319 -2.222 6.08713 0
M  V30 5155 N 524.725 -1.39134 -0.740242 0
M  V30 5156 C 525.657 -1.33332 -1.86428 0
M  V30 5157 C 526.67 -0.243042 -1.60976 0
M  V30 5158 O 527.859 -0.501608 -1.71307 0
M  V30 5159 C 524.959 -1.04626 -3.22346 0
M  V30 5160 C 524.132 -2.24826 -3.75196 0
M  V30 5161 C 523.191 -1.92659 -4.89662 0
M  V30 5162 O 522.217 -2.6529 -5.03597 0
M  V30 5163 N 523.419 -0.889575 -5.73643 0
M  V30 5164 H 526.184 -2.30196 -1.91911 0
M  V30 5165 H 523.745 -1.33168 -0.920756 0
M  V30 5166 H 525.737 -0.811347 -3.96484 0
M  V30 5167 H 524.307 -0.165129 -3.12164 0
M  V30 5168 H 523.527 -2.64301 -2.9247 0
M  V30 5169 H 524.815 -3.05015 -4.07239 0
M  V30 5170 H 524.213 -0.287529 -5.64969 0
M  V30 5171 H 522.77 -0.714557 -6.47871 0
M  V30 5172 N 526.204 0.969867 -1.24223 0
M  V30 5173 C 527.152 2.08535 -1.03034 0
M  V30 5174 C 528.146 1.69366 0.0340379 0
M  V30 5175 O 529.352 1.79597 -0.12034 0
M  V30 5176 H 525.727 0.682313 -0.316154 0
M  V30 5177 H 527.698 2.23569 -1.97635 0
M  V30 5178 C 526.447 3.4158 -0.649509 0
M  V30 5179 H 525.77 3.72177 -1.46028 0
M  V30 5180 H 527.21 4.20536 -0.540841 0
M  V30 5181 C 525.669 3.30703 0.643194 0
M  V30 5182 O 526.199 3.64443 1.68951 0
M  V30 5183 N 524.405 2.83841 0.623095 0
M  V30 5184 H 523.952 2.56583 -0.228719 0
M  V30 5185 H 523.91 2.76946 1.48823 0
M  V30 5186 N 527.682 1.05563 1.17022 0
M  V30 5187 C 528.931 0.763036 1.8671 0
M  V30 5188 C 529.244 -0.712857 1.82147 0
M  V30 5189 O 530.45 -1.11955 2.47343 0
M  V30 5190 C 528.906 1.31474 3.35026 0
M  V30 5191 C 528.514 2.82034 3.48081 0
M  V30 5192 C 530.258 1.09935 4.10018 0
M  V30 5193 C 528.165 3.30486 4.90442 0
M  V30 5194 H 527.095 0.281747 0.699382 0
M  V30 5195 H 529.746 1.2734 1.32124 0
M  V30 5196 H 528.128 0.732171 3.89173 0
M  V30 5197 H 529.302 3.46178 3.04133 0
M  V30 5198 H 527.617 3.02156 2.86515 0
M  V30 5199 H 530.214 1.43632 5.15048 0
M  V30 5200 H 530.557 0.0373072 4.16283 0
M  V30 5201 H 531.09 1.64732 3.62089 0
M  V30 5202 H 527.829 4.36137 4.89352 0
M  V30 5203 H 527.349 2.71086 5.35044 0
M  V30 5204 H 529.028 3.25382 5.59227 0
M  V30 5205 N 529.16 -1.33526 0.837174 0
M  V30 5206 C 530.385 -2.0258 0.444545 0
M  V30 5207 C 530.81 -1.6258 -0.946006 0
M  V30 5208 O 530.168 -0.817548 -1.6182 0
M  V30 5209 C 530.216 -3.5605 0.571006 0
M  V30 5210 O 529.32 -4.10422 -0.403431 0
M  V30 5211 H 528.661 -0.638866 0.180958 0
M  V30 5212 H 531.191 -1.70462 1.13154 0
M  V30 5213 H 531.201 -4.05488 0.452024 0
M  V30 5214 H 529.876 -3.84509 1.58512 0
M  V30 5215 H 528.453 -3.72113 -0.242147 0
M  V30 5216 N 530.638 -0.59345 -1.46 0
M  V30 5217 C 531.887 -0.0808084 -2.01538 0
M  V30 5218 C 532.2 1.29112 -1.46934 0
M  V30 5219 O 533.406 1.8957 -1.94359 0
M  V30 5220 C 531.862 -0.0938311 -3.59778 0
M  V30 5221 C 531.47 -1.46474 -4.23379 0
M  V30 5222 C 533.214 0.364306 -4.22934 0
M  V30 5223 C 531.121 -1.4349 -5.73729 0
M  V30 5224 H 530.051 -0.0264407 -0.753536 0
M  V30 5225 H 532.702 -0.746689 -1.67621 0
M  V30 5226 H 531.084 0.638427 -3.9082 0
M  V30 5227 H 532.258 -2.21758 -4.03931 0
M  V30 5228 H 530.573 -1.86379 -3.7236 0
M  V30 5229 H 533.17 0.405584 -5.3316 0
M  V30 5230 H 533.513 1.38409 -3.92618 0
M  V30 5231 H 534.046 -0.31423 -3.96557 0
M  V30 5232 H 530.785 -2.43184 -6.08722 0
M  V30 5233 H 530.305 -0.724431 -5.95409 0
M  V30 5234 H 531.984 -1.15243 -6.36654 0
M  V30 5235 N 532.116 1.54067 -0.331816 0
M  V30 5236 C 533.341 2.05599 0.272705 0
M  V30 5237 C 533.766 1.2059 1.44359 0
M  V30 5238 O 533.124 0.216907 1.79998 0
M  V30 5239 C 533.172 3.54188 0.677021 0
M  V30 5240 O 532.276 3.72082 1.77844 0
M  V30 5241 H 531.617 0.662286 0.0476801 0
M  V30 5242 H 534.147 1.98826 -0.482624 0
M  V30 5243 H 534.157 3.96608 0.957415 0
M  V30 5244 H 532.832 4.15513 -0.179325 0
M  V30 5245 H 531.409 3.41566 1.49622 0
M  V30 5246 N 533.594 0.0601682 1.57485 0
M  V30 5247 C 534.822 -0.620937 1.97363 0
M  V30 5248 C 535.237 -1.63846 0.938082 0
M  V30 5249 O 534.594 -1.82339 -0.0766578 0
M  V30 5250 C 534.645 -1.29987 3.37321 0
M  V30 5251 O 534.366 -0.323081 4.36907 0
M  V30 5252 C 535.867 -2.06989 3.92008 0
M  V30 5253 H 533.087 -0.169135 0.649334 0
M  V30 5254 H 535.631 0.129132 2.04092 0
M  V30 5255 H 533.786 -2.0011 3.31715 0
M  V30 5256 H 534.2 -0.808754 5.18227 0
M  V30 5257 H 535.674 -2.49901 4.92192 0
M  V30 5258 H 536.151 -2.92173 3.2792 0
M  V30 5259 H 536.757 -1.41757 4.0098 0
M  V30 5260 N 535.072 -1.5615 -0.213296 0
M  V30 5261 C 536.002 -1.96109 -1.26742 0
M  V30 5262 C 536.983 -0.830448 -1.48451 0
M  V30 5263 O 538.168 -1.09339 -1.60495 0
M  V30 5264 C 535.298 -2.28492 -2.61551 0
M  V30 5265 C 534.252 -3.44124 -2.54485 0
M  V30 5266 C 533.578 -3.62134 -3.93399 0
M  V30 5267 C 534.878 -4.78855 -2.08556 0
M  V30 5268 H 536.572 -2.84412 -0.935434 0
M  V30 5269 H 534.118 -1.36836 -0.44854 0
M  V30 5270 H 536.071 -2.55039 -3.3546 0
M  V30 5271 H 534.795 -1.37052 -2.96453 0
M  V30 5272 H 533.454 -3.17639 -1.83033 0
M  V30 5273 H 533.102 -2.68055 -4.25623 0
M  V30 5274 H 532.802 -4.39913 -3.89551 0
M  V30 5275 H 534.326 -3.91038 -4.68958 0
M  V30 5276 H 535.74 -5.04552 -2.72213 0
M  V30 5277 H 534.137 -5.59975 -2.1575 0
M  V30 5278 H 535.207 -4.73657 -1.03811 0
M  V30 5279 N 536.55 0.480323 -1.50102 0
M  V30 5280 C 537.46 1.60547 -1.71061 0
M  V30 5281 C 538.476 1.63564 -0.593529 0
M  V30 5282 O 539.652 1.81604 -0.870751 0
M  V30 5283 C 536.717 2.96814 -1.79171 0
M  V30 5284 C 535.778 3.04259 -3.02861 0
M  V30 5285 C 535.011 4.34027 -3.10574 0
M  V30 5286 O 535.234 5.24009 -2.25323 0
M  V30 5287 O 534.168 4.46873 -4.03223 0
M  V30 5288 H 537.994 1.45788 -2.6642 0
M  V30 5289 H 535.579 0.658838 -1.34088 0
M  V30 5290 H 537.461 3.77765 -1.86738 0
M  V30 5291 H 536.136 3.11791 -0.869947 0
M  V30 5292 H 535.043 2.22419 -3.008 0
M  V30 5293 H 536.376 2.94216 -3.94586 0
M  V30 5294 N 538.028 1.39524 0.732853 0
M  V30 5295 C 539.276 1.36594 1.48951 0
M  V30 5296 C 539.597 -0.0367507 1.94965 0
M  V30 5297 O 538.867 -0.988391 1.69138 0
M  V30 5298 H 537.447 0.502673 0.552566 0
M  V30 5299 H 540.109 1.74411 0.869869 0
M  V30 5300 H 539.205 2.03 2.3706 0
M  V30 5301 N 539.506 -0.963266 1.24736 0
M  V30 5302 C 540.456 -2.0438 1.01058 0
M  V30 5303 C 541.44 -1.60824 -0.0495354 0
M  V30 5304 O 542.632 -1.76232 0.164741 0
M  V30 5305 C 539.761 -3.37617 0.622067 0
M  V30 5306 C 538.847 -3.87722 1.7185 0
M  V30 5307 N 539.238 -4.10715 2.95207 0
M  V30 5308 C 537.536 -4.16426 1.59703 0
M  V30 5309 C 538.237 -4.51872 3.66315 0
M  V30 5310 N 537.213 -4.57302 2.93897 0
M  V30 5311 H 541.015 -2.20138 1.94721 0
M  V30 5312 H 538.529 -1.14741 1.14927 0
M  V30 5313 H 540.526 -4.14638 0.43366 0
M  V30 5314 H 539.186 -3.23242 -0.307327 0
M  V30 5315 H 540.197 -3.98037 3.31341 0
M  V30 5316 H 536.874 -4.10962 0.73598 0
M  V30 5317 H 538.264 -4.78037 4.72155 0
M  V30 5318 N 540.985 -1.06182 -1.16461 0
M  V30 5319 C 541.915 -0.692861 -2.22984 0
M  V30 5320 C 542.896 0.314122 -1.67174 0
M  V30 5321 O 544.081 0.189499 -1.93273 0
M  V30 5322 C 541.211 -0.07732 -3.47214 0
M  V30 5323 C 540.165 -1.01015 -4.15909 0
M  V30 5324 C 539.491 -0.257973 -5.34077 0
M  V30 5325 C 540.791 -2.33868 -4.67015 0
M  V30 5326 H 542.485 -1.58343 -2.54102 0
M  V30 5327 H 540.031 -0.76279 -1.22137 0
M  V30 5328 H 541.984 0.19266 -4.20959 0
M  V30 5329 H 540.708 0.848254 -3.15392 0
M  V30 5330 H 539.367 -1.26486 -3.44088 0
M  V30 5331 H 539.015 0.670684 -4.98509 0
M  V30 5332 H 538.715 -0.879638 -5.80979 0
M  V30 5333 H 540.239 0.00448788 -6.106 0
M  V30 5334 H 541.653 -2.1279 -5.32347 0
M  V30 5335 H 540.05 -2.91522 -5.24533 0
M  V30 5336 H 541.12 -2.97019 -3.83286 0
M  V30 5337 N 542.463 1.3308 -0.844243 0
M  V30 5338 C 543.688 2.02341 -0.455282 0
M  V30 5339 C 544.113 1.6308 0.93737 0
M  V30 5340 O 543.471 0.826118 1.61385 0
M  V30 5341 C 543.519 3.55743 -0.58988 0
M  V30 5342 O 542.623 4.1063 0.38166 0
M  V30 5343 H 541.964 0.637898 -0.184343 0
M  V30 5344 H 544.494 1.6986 -1.14056 0
M  V30 5345 H 544.504 4.05243 -0.473522 0
M  V30 5346 H 543.179 3.83662 -1.60549 0
M  V30 5347 H 541.756 3.72236 0.22241 0
M  V30 5348 N 543.941 0.601185 1.45683 0
M  V30 5349 C 545.166 0.0982245 2.07167 0
M  V30 5350 C 545.591 -1.20546 1.44396 0
M  V30 5351 O 544.949 -1.73247 0.534347 0
M  V30 5352 C 544.997 -0.0346976 3.60583 0
M  V30 5353 O 544.101 -1.08657 3.97828 0
M  V30 5354 H 543.442 0.0711618 0.660176 0
M  V30 5355 H 545.972 0.829376 1.87036 0
M  V30 5356 H 545.982 -0.234969 4.07323 0
M  V30 5357 H 544.657 0.917265 4.05659 0
M  V30 5358 H 543.234 -0.863275 3.6277 0
M  V30 5359 N 545.419 -1.53889 0.339982 0
M  V30 5360 C 546.668 -2.00035 -0.258604 0
M  V30 5361 C 546.981 -1.23179 -1.51942 0
M  V30 5362 O 548.187 -1.59784 -2.19503 0
M  V30 5363 C 546.643 -3.56249 -0.511359 0
M  V30 5364 C 546.251 -4.41957 0.733349 0
M  V30 5365 C 547.995 -4.1082 -1.069 0
M  V30 5366 C 545.902 -5.89673 0.451591 0
M  V30 5367 H 544.832 -0.747284 -0.10041 0
M  V30 5368 H 547.483 -1.77776 0.454758 0
M  V30 5369 H 545.865 -3.7456 -1.28533 0
M  V30 5370 H 547.039 -4.35421 1.50815 0
M  V30 5371 H 545.354 -3.9836 1.21237 0
M  V30 5372 H 547.951 -5.18789 -1.2947 0
M  V30 5373 H 548.294 -3.63817 -2.02343 0
M  V30 5374 H 548.827 -3.96205 -0.355817 0
M  V30 5375 H 545.566 -6.40903 1.37565 0
M  V30 5376 H 545.086 -5.99122 -0.285193 0
M  V30 5377 H 546.765 -6.46965 0.0675067 0
M  V30 5378 N 546.897 -0.0685191 -1.57451 0
M  V30 5379 C 547.83 0.935736 -2.08133 0
M  V30 5380 C 548.808 1.29317 -0.985698 0
M  V30 5381 O 549.992 1.40304 -1.25886 0
M  V30 5382 C 547.119 2.2448 -2.53627 0
M  V30 5383 C 546.165 2.03917 -3.74593 0
M  V30 5384 S 546.998 1.30154 -5.19442 0
M  V30 5385 C 548.154 2.62346 -5.68265 0
M  V30 5386 H 548.387 0.504473 -2.92989 0
M  V30 5387 H 545.92 0.144169 -1.53725 0
M  V30 5388 H 547.878 2.99718 -2.80499 0
M  V30 5389 H 546.539 2.64731 -1.69045 0
M  V30 5390 H 545.732 3.00788 -4.04404 0
M  V30 5391 H 545.334 1.36815 -3.48077 0
M  V30 5392 H 547.626 3.58448 -5.7491 0
M  V30 5393 H 548.569 2.3715 -6.67207 0
M  V30 5394 H 548.977 2.69401 -4.96068 0
M  V30 5395 N 548.375 1.56261 0.205012 0
M  V30 5396 C 549.624 1.79236 0.925058 0
M  V30 5397 C 549.937 0.640011 1.84833 0
M  V30 5398 O 551.143 0.753809 2.60826 0
M  V30 5399 C 549.599 3.17475 1.69522 0
M  V30 5400 C 549.207 4.40482 0.817269 0
M  V30 5401 C 550.951 3.49766 2.4055 0
M  V30 5402 C 548.858 5.69744 1.58573 0
M  V30 5403 H 547.788 0.668287 0.349153 0
M  V30 5404 H 550.439 1.82629 0.178544 0
M  V30 5405 H 548.821 3.08304 2.48526 0
M  V30 5406 H 549.995 4.60752 0.0665988 0
M  V30 5407 H 548.31 4.15827 0.218316 0
M  V30 5408 H 550.907 4.43573 2.98575 0
M  V30 5409 H 551.25 2.73041 3.14252 0
M  V30 5410 H 551.783 3.60341 1.68522 0
M  V30 5411 H 548.522 6.49407 0.891679 0
M  V30 5412 H 548.042 5.53509 2.31059 0
M  V30 5413 H 549.721 6.1051 2.14212 0
M  V30 5414 N 549.853 -0.472356 1.50355 0
M  V30 5415 C 550.816 -1.5529 1.68576 0
M  V30 5416 C 551.816 -1.50863 0.556511 0
M  V30 5417 O 553.006 -1.53505 0.823516 0
M  V30 5418 C 550.138 -2.94921 1.70981 0
M  V30 5419 H 551.331 -1.40451 2.64978 0
M  V30 5420 H 548.884 -0.698645 1.39816 0
M  V30 5421 H 549.619 -3.15204 0.762675 0
M  V30 5422 H 549.404 -2.99541 2.53017 0
M  V30 5423 H 550.894 -3.73372 1.87037 0
M  V30 5424 N 551.331 -1.39911 -0.725443 0
M  V30 5425 C 552.58 -1.36963 -1.48068 0
M  V30 5426 C 552.893 0.0284478 -1.95579 0
M  V30 5427 O 554.099 0.180535 -2.70899 0
M  V30 5428 C 552.555 -2.40664 -2.67598 0
M  V30 5429 C 552.163 -3.86234 -2.26997 0
M  V30 5430 C 553.907 -2.46807 -3.45379 0
M  V30 5431 C 551.814 -4.81554 -3.43307 0
M  V30 5432 H 550.744 -0.509223 -0.556065 0
M  V30 5433 H 553.395 -1.65602 -0.790454 0
M  V30 5434 H 551.777 -2.05109 -3.38742 0
M  V30 5435 H 552.951 -4.3088 -1.63337 0
M  V30 5436 H 551.266 -3.83475 -1.62284 0
M  V30 5437 H 553.863 -3.15213 -4.31909 0
M  V30 5438 H 554.206 -1.49552 -3.8851 0
M  V30 5439 H 554.739 -2.81303 -2.81271 0
M  V30 5440 H 551.478 -5.80106 -3.05217 0
M  V30 5441 H 550.998 -4.4158 -4.05915 0
M  V30 5442 H 552.677 -5.0091 -4.0951 0
M  V30 5443 N 552.809 0.956637 -1.25245 0
M  V30 5444 C 554.22 1.51569 -1.09012 0
M  V30 5445 C 554.571 1.93322 0.334813 0
M  V30 5446 O 553.696 1.78421 1.22454 0
M  V30 5447 C 554.291 2.75444 -1.97271 0
M  V30 5448 C 552.85 3.27669 -1.8523 0
M  V30 5449 C 551.997 2.00517 -1.91542 0
M  V30 5450 H 554.948 0.773746 -1.3856 0
M  V30 5451 H 554.969 3.4919 -1.51151 0
M  V30 5452 H 554.481 2.45024 -3.00973 0
M  V30 5453 H 552.582 3.62914 -0.844045 0
M  V30 5454 H 552.695 3.9582 -2.69932 0
M  V30 5455 H 551.059 2.15727 -1.35404 0
M  V30 5456 H 551.842 1.72448 -2.96844 0
M  V30 5457 N 554.287 1.06798 1.15896 0
M  V30 5458 C 555.535 0.786211 1.8618 0
M  V30 5459 C 555.856 -0.689547 1.82401 0
M  V30 5460 O 555.126 -1.49913 1.26107 0
M  V30 5461 H 553.706 0.287843 0.689315 0
M  V30 5462 H 556.368 1.35055 1.40521 0
M  V30 5463 H 555.464 1.1157 2.91477 0
M  V30 5464 N 555.766 -1.3263 0.851289 0
M  V30 5465 C 556.696 -2.31449 0.308771 0
M  V30 5466 C 557.677 -1.59531 -0.590255 0
M  V30 5467 O 558.862 -1.87351 -0.511205 0
M  V30 5468 C 555.992 -3.43586 -0.506548 0
M  V30 5469 C 554.946 -4.26963 0.297753 0
M  V30 5470 C 554.272 -5.30831 -0.642094 0
M  V30 5471 C 555.572 -4.99643 1.52166 0
M  V30 5472 H 557.266 -2.77074 1.13447 0
M  V30 5473 H 554.812 -1.33207 0.546971 0
M  V30 5474 H 556.765 -4.11754 -0.896474 0
M  V30 5475 H 555.489 -2.96681 -1.36558 0
M  V30 5476 H 554.148 -3.60437 0.669391 0
M  V30 5477 H 553.796 -4.8018 -1.49788 0
M  V30 5478 H 553.496 -5.87501 -0.107968 0
M  V30 5479 H 555.02 -6.01862 -1.02927 0
M  V30 5480 H 556.434 -5.6051 1.20421 0
M  V30 5481 H 554.831 -5.66022 1.99347 0
M  V30 5482 H 555.901 -4.27701 2.28474 0
M  V30 5483 N 557.244 -0.608902 -1.45362 0
M  V30 5484 C 558.492 -0.104401 -2.0183 0
M  V30 5485 C 558.813 1.27007 -1.47967 0
M  V30 5486 O 558.083 1.83924 -0.674455 0
M  V30 5487 H 556.663 -0.0356042 -0.746151 0
M  V30 5488 H 559.325 -0.790596 -1.78145 0
M  V30 5489 H 558.421 -0.0551793 -3.12051 0
M  V30 5490 N 558.722 1.53707 -0.348139 0
M  V30 5491 C 559.669 2.25173 0.506518 0
M  V30 5492 C 560.639 1.25174 1.09182 0
M  V30 5493 O 561.824 1.53917 1.12757 0
M  V30 5494 C 558.964 3.03141 1.64923 0
M  V30 5495 C 558.077 4.18002 1.0908 0
M  V30 5496 C 557.212 4.83447 2.20119 0
M  V30 5497 C 556.251 5.90369 1.61651 0
M  V30 5498 N 555.388 6.49575 2.66451 0
M  V30 5499 H 560.228 2.97799 -0.109452 0
M  V30 5500 H 557.765 1.46953 -0.0657866 0
M  V30 5501 H 559.723 3.46607 2.32205 0
M  V30 5502 H 558.353 2.32803 2.23612 0
M  V30 5503 H 557.405 3.79145 0.308783 0
M  V30 5504 H 558.717 4.94892 0.623178 0
M  V30 5505 H 557.871 5.30008 2.95257 0
M  V30 5506 H 556.61 4.05991 2.70227 0
M  V30 5507 H 555.615 5.43186 0.850209 0
M  V30 5508 H 556.84 6.69735 1.1239 0
M  V30 5509 H 554.786 5.74981 3.15805 0
M  V30 5510 H 554.703 7.21952 2.24325 0
M  V30 5511 H 555.971 7.00789 3.41344 0
M  V30 5512 N 560.2 0.0768682 1.57412 0
M  V30 5513 C 561.477 -0.632359 1.85096 0
M  V30 5514 C 561.857 -1.87479 0.9703 0
M  V30 5515 O 561.205 -2.28469 0.0379062 0
M  V30 5516 C 561.415 -0.965174 3.35388 0
M  V30 5517 C 562.763 -1.33648 4.03018 0
M  V30 5518 O 563.787 -1.05675 3.40164 0
M  V30 5519 O 562.646 -1.85959 5.13889 0
M  V30 5520 H 559.74 -0.314574 0.764835 0
M  V30 5521 H 562.286 0.108184 1.69355 0
M  V30 5522 H 561.058 -0.0829745 3.91212 0
M  V30 5523 H 560.681 -1.76231 3.5641 0
M  V30 5524 N 561.678 -1.56367 -0.196722 0
M  V30 5525 C 563.089 -1.70462 -0.761545 0
M  V30 5526 C 563.44 -0.683161 -1.83922 0
M  V30 5527 O 562.565 0.160753 -2.15802 0
M  V30 5528 C 563.16 -3.09057 -1.38814 0
M  V30 5529 C 561.719 -3.24922 -1.90007 0
M  V30 5530 C 560.866 -2.66412 -0.769399 0
M  V30 5531 H 563.817 -1.58675 0.0283263 0
M  V30 5532 H 563.838 -3.06296 -2.2575 0
M  V30 5533 H 563.35 -3.83378 -0.603559 0
M  V30 5534 H 561.451 -2.55514 -2.71189 0
M  V30 5535 H 561.564 -4.3241 -2.06297 0
M  V30 5536 H 559.928 -2.25546 -1.18326 0
M  V30 5537 H 560.711 -3.433 0.00291773 0
M  V30 5538 N 563.156 0.464375 -1.50603 0
M  V30 5539 C 564.104 1.58224 -1.70493 0
M  V30 5540 C 565.098 1.59492 -0.570836 0
M  V30 5541 O 566.304 1.63561 -0.751517 0
M  V30 5542 H 562.679 0.525161 -0.538247 0
M  V30 5543 H 564.65 1.38613 -2.64252 0
M  V30 5544 C 563.399 2.96113 -1.82243 0
M  V30 5545 H 562.722 2.95858 -2.68901 0
M  V30 5546 H 564.162 3.73769 -2.00182 0
M  V30 5547 C 562.621 3.31946 -0.575628 0
M  V30 5548 O 563.151 4.00708 0.282152 0
M  V30 5549 N 561.357 2.87436 -0.427665 0
M  V30 5550 H 560.904 2.31652 -1.12674 0
M  V30 5551 H 560.862 3.11776 0.405379 0
M  V30 5552 N 564.634 1.40294 0.718013 0
M  V30 5553 C 565.911 1.2894 1.47084 0
M  V30 5554 C 566.291 -0.0933625 2.10893 0
M  V30 5555 O 565.639 -1.10598 1.99951 0
M  V30 5556 C 565.849 2.4264 2.50852 0
M  V30 5557 C 567.197 2.8276 3.16752 0
M  V30 5558 O 568.221 2.42215 2.61171 0
M  V30 5559 O 567.08 3.528 4.17366 0
M  V30 5560 H 564.174 0.506236 0.653952 0
M  V30 5561 H 566.72 1.52208 0.750394 0
M  V30 5562 H 565.492 3.35009 2.022 0
M  V30 5563 H 565.115 2.21129 3.30435 0
M  V30 5564 N 566.112 -0.949982 1.2575 0
M  V30 5565 C 567.523 -1.50989 1.09815 0
M  V30 5566 C 567.874 -1.93497 -0.324556 0
M  V30 5567 O 566.999 -1.79068 -1.21506 0
M  V30 5568 C 567.594 -2.74394 1.98729 0
M  V30 5569 C 566.153 -3.26682 1.86965 0
M  V30 5570 C 565.3 -1.99498 1.92603 0
M  V30 5571 H 568.251 -0.766387 1.38968 0
M  V30 5572 H 568.272 -3.48383 1.53001 0
M  V30 5573 H 567.784 -2.43425 3.02268 0
M  V30 5574 H 565.885 -3.62461 0.863279 0
M  V30 5575 H 565.998 -3.94383 2.72027 0
M  V30 5576 H 564.362 -2.15005 1.36546 0
M  V30 5577 H 565.145 -1.70871 2.97755 0
M  V30 5578 N 567.59 -1.07411 -1.15328 0
M  V30 5579 C 568.818 -0.818782 -1.90009 0
M  V30 5580 C 569.233 0.628072 -1.78047 0
M  V30 5581 O 568.59 1.43085 -1.13282 0
M  V30 5582 C 568.641 -1.21874 -3.40337 0
M  V30 5583 O 568.362 -2.60883 -3.51954 0
M  V30 5584 C 569.863 -0.992796 -4.3204 0
M  V30 5585 H 567.083 -0.296007 -0.60218 0
M  V30 5586 H 569.627 -1.43073 -1.46117 0
M  V30 5587 H 567.782 -0.651103 -3.81889 0
M  V30 5588 H 568.196 -2.77216 -4.45255 0
M  V30 5589 H 569.67 -1.32215 -5.35932 0
M  V30 5590 H 570.147 0.0708331 -4.39143 0
M  V30 5591 H 570.753 -1.54537 -3.9623 0
M  V30 5592 N 569.068 1.32177 -0.85831 0
M  V30 5593 C 570.031 2.27086 -0.310588 0
M  V30 5594 C 571.031 1.51751 0.531806 0
M  V30 5595 O 572.221 1.70794 0.34279 0
M  V30 5596 C 569.353 3.36266 0.560179 0
M  V30 5597 H 570.546 2.77045 -1.1483 0
M  V30 5598 H 568.099 1.42911 -0.632942 0
M  V30 5599 H 568.834 2.9158 1.41956 0
M  V30 5600 H 568.619 3.92077 -0.0428473 0
M  V30 5601 H 570.109 4.06974 0.936056 0
M  V30 5602 N 570.547 0.616602 1.45037 0
M  V30 5603 C 571.824 0.0469086 1.95544 0
M  V30 5604 C 572.204 -1.42345 1.55888 0
M  V30 5605 O 571.552 -2.13055 0.825824 0
M  V30 5606 C 571.762 0.254489 3.48071 0
M  V30 5607 C 573.11 0.140025 4.24369 0
M  V30 5608 O 574.134 0.185084 3.55719 0
M  V30 5609 O 572.993 0.0327034 5.4649 0
M  V30 5610 H 570.087 -0.0306051 0.826433 0
M  V30 5611 H 572.633 0.687293 1.55159 0
M  V30 5612 H 571.405 1.27532 3.69934 0
M  V30 5613 H 571.028 -0.42073 3.95368 0
M  V30 5614 N 572.025 -1.5352 0.356285 0
M  V30 5615 C 573.271 -2.01414 -0.236653 0
M  V30 5616 C 573.604 -1.24339 -1.49176 0
M  V30 5617 O 572.879 -0.334496 -1.91602 0
M  V30 5618 C 573.162 -3.56059 -0.537982 0
M  V30 5619 C 573.015 -4.43835 0.730112 0
M  V30 5620 C 574.334 -4.19127 -1.34239 0
M  V30 5621 H 571.453 -0.732135 -0.0845386 0
M  V30 5622 H 574.095 -1.83854 0.479341 0
M  V30 5623 H 572.245 -3.71153 -1.14795 0
M  V30 5624 H 573.917 -4.40555 1.36782 0
M  V30 5625 H 572.16 -4.1218 1.3524 0
M  V30 5626 H 572.831 -5.49958 0.474358 0
M  V30 5627 H 575.307 -4.07809 -0.826498 0
M  V30 5628 H 574.183 -5.27378 -1.52198 0
M  V30 5629 H 574.444 -3.74581 -2.34822 0
M  V30 5630 N 573.503 -0.0852151 -1.57369 0
M  V30 5631 C 574.413 0.891712 -2.16992 0
M  V30 5632 C 575.429 1.3174 -1.13669 0
M  V30 5633 O 576.605 1.38735 -1.45995 0
M  V30 5634 C 573.67 2.13635 -2.73059 0
M  V30 5635 C 572.731 1.7658 -3.91303 0
M  V30 5636 C 571.964 2.95111 -4.44686 0
M  V30 5637 O 572.187 4.09539 -3.97032 0
M  V30 5638 O 571.121 2.74149 -5.35841 0
M  V30 5639 H 574.947 0.414477 -3.00858 0
M  V30 5640 H 572.532 0.138598 -1.48756 0
M  V30 5641 H 574.414 2.86595 -3.08935 0
M  V30 5642 H 573.089 2.6043 -1.92244 0
M  V30 5643 H 571.996 1.00831 -3.60255 0
M  V30 5644 H 573.329 1.34557 -4.7345 0
M  V30 5645 N 574.981 1.5647 0.188427 0
M  V30 5646 C 576.23 1.80207 0.905995 0
M  V30 5647 C 576.543 0.659579 1.84144 0
M  V30 5648 O 577.749 0.781431 2.60011 0
M  V30 5649 C 576.205 3.19255 1.66145 0
M  V30 5650 C 575.813 4.41324 0.770504 0
M  V30 5651 C 577.557 3.52298 2.36826 0
M  V30 5652 C 575.464 5.71394 1.52521 0
M  V30 5653 H 574.394 0.671953 0.342045 0
M  V30 5654 H 577.045 1.82808 0.159164 0
M  V30 5655 H 575.427 3.10922 2.45242 0
M  V30 5656 H 576.601 4.60797 0.0177261 0
M  V30 5657 H 574.916 4.16035 0.174199 0
M  V30 5658 H 577.513 4.46715 2.93854 0
M  V30 5659 H 577.856 2.76359 3.11338 0
M  V30 5660 H 578.389 3.62108 1.6469 0
M  V30 5661 H 575.128 6.50316 0.82275 0
M  V30 5662 H 574.648 5.55928 2.25175 0
M  V30 5663 H 576.327 6.12747 2.07725 0
M  V30 5664 N 576.459 -0.456382 1.50847 0
M  V30 5665 C 577.407 -1.57318 1.71329 0
M  V30 5666 C 578.401 -1.59187 0.579287 0
M  V30 5667 O 579.607 -1.6316 0.76018 0
M  V30 5668 H 575.982 -0.5223 0.541024 0
M  V30 5669 H 577.953 -1.3721 2.64983 0
M  V30 5670 C 576.702 -2.95142 1.83811 0
M  V30 5671 H 576.025 -2.94428 2.70467 0
M  V30 5672 H 577.465 -3.72702 2.02161 0
M  V30 5673 C 575.924 -3.31636 0.593224 0
M  V30 5674 O 576.454 -4.00852 -0.260898 0
M  V30 5675 N 574.66 -2.87205 0.442902 0
M  V30 5676 H 574.207 -2.31051 1.13901 0
M  V30 5677 H 574.165 -3.11986 -0.38884 0
M  V30 5678 N 577.937 -1.40673 -0.710563 0
M  V30 5679 C 579.348 -1.34975 -1.28991 0
M  V30 5680 C 579.699 -0.0256272 -1.96183 0
M  V30 5681 O 578.824 0.876339 -1.97862 0
M  V30 5682 C 579.419 -2.44467 -2.34567 0
M  V30 5683 C 577.978 -2.42213 -2.88114 0
M  V30 5684 C 577.125 -2.25085 -1.61963 0
M  V30 5685 H 580.076 -1.50406 -0.506343 0
M  V30 5686 H 580.097 -2.12663 -3.15523 0
M  V30 5687 H 579.609 -3.40825 -1.85634 0
M  V30 5688 H 577.71 -1.49568 -3.41263 0
M  V30 5689 H 577.823 -3.37983 -3.39565 0
M  V30 5690 H 576.187 -1.72691 -1.87216 0
M  V30 5691 H 576.97 -3.23449 -1.15047 0
M  V30 5692 N 579.415 0.9433 -1.26252 0
M  V30 5693 C 580.692 1.66639 -1.02424 0
M  V30 5694 C 581.072 2.06335 0.446006 0
M  V30 5695 O 580.42 1.78551 1.42589 0
M  V30 5696 C 580.63 2.88019 -1.97094 0
M  V30 5697 C 581.978 3.59718 -2.25584 0
M  V30 5698 O 583.002 2.9812 -1.94943 0
M  V30 5699 O 581.861 4.7066 -2.77743 0
M  V30 5700 H 578.955 0.729643 -0.389294 0
M  V30 5701 H 581.501 0.995218 -1.37454 0
M  V30 5702 H 580.273 2.5556 -2.96319 0
M  V30 5703 H 579.896 3.62863 -1.62532 0
M  V30 5704 N 580.893 1.08022 1.14757 0
M  V30 5705 C 581.823 0.728248 2.21853 0
M  V30 5706 C 582.804 -0.287486 1.67653 0
M  V30 5707 O 583.989 -0.158727 1.9355 0
M  V30 5708 C 581.119 0.132549 3.47047 0
M  V30 5709 C 580.073 1.07619 4.14249 0
M  V30 5710 C 579.399 0.342907 5.33599 0
M  V30 5711 C 580.699 2.41268 4.63235 0
M  V30 5712 H 582.393 1.62365 2.51551 0
M  V30 5713 H 579.939 0.782125 1.20908 0
M  V30 5714 H 581.892 -0.125665 4.21213 0
M  V30 5715 H 580.616 -0.797971 3.16702 0
M  V30 5716 H 579.275 1.31944 3.42033 0
M  V30 5717 H 578.923 -0.59129 4.99513 0
M  V30 5718 H 578.623 0.971955 5.79506 0
M  V30 5719 H 580.147 0.0926538 6.1053 0
M  V30 5720 H 581.561 2.21232 5.28894 0
M  V30 5721 H 579.958 2.9983 5.19829 0
M  V30 5722 H 581.028 3.03079 3.78512 0
M  V30 5723 N 582.371 -1.3172 0.865308 0
M  V30 5724 C 583.318 -2.2863 0.315736 0
M  V30 5725 C 584.288 -1.55524 -0.583213 0
M  V30 5726 O 585.473 -1.83694 -0.51585 0
M  V30 5727 C 582.613 -3.41735 -0.480773 0
M  V30 5728 C 581.726 -4.297 0.445167 0
M  V30 5729 C 580.861 -5.29944 -0.365012 0
M  V30 5730 C 579.9 -6.09554 0.557651 0
M  V30 5731 N 579.037 -7.01768 -0.215994 0
M  V30 5732 H 583.877 -2.75026 1.14736 0
M  V30 5733 H 581.414 -1.35302 0.577209 0
M  V30 5734 H 583.372 -4.06045 -0.958306 0
M  V30 5735 H 582.002 -2.96461 -1.27714 0
M  V30 5736 H 581.054 -3.65875 1.04113 0
M  V30 5737 H 582.366 -4.85295 1.15284 0
M  V30 5738 H 581.52 -5.99908 -0.905255 0
M  V30 5739 H 580.259 -4.74994 -1.106 0
M  V30 5740 H 579.264 -5.38485 1.10969 0
M  V30 5741 H 580.489 -6.66591 1.29742 0
M  V30 5742 H 578.435 -6.49232 -0.939878 0
M  V30 5743 H 578.352 -7.54762 0.432431 0
M  V30 5744 H 579.62 -7.76002 -0.737618 0
M  V30 5745 N 583.85 -0.624285 -1.44708 0
M  V30 5746 C 585.26 -0.2092 -1.85524 0
M  V30 5747 C 585.611 1.23783 -1.52225 0
M  V30 5748 O 584.736 1.94089 -0.956986 0
M  V30 5749 C 585.332 -0.372897 -3.36742 0
M  V30 5750 C 583.891 -0.012374 -3.76398 0
M  V30 5751 C 583.038 -0.68951 -2.68591 0
M  V30 5752 H 585.989 -0.829894 -1.35272 0
M  V30 5753 H 586.01 0.390134 -3.78495 0
M  V30 5754 H 585.522 -1.42615 -3.60947 0
M  V30 5755 H 583.623 1.03941 -3.57809 0
M  V30 5756 H 583.736 -0.417663 -4.77276 0
M  V30 5757 H 582.1 -0.125484 -2.54391 0
M  V30 5758 H 582.883 -1.74522 -2.9563 0
M  V30 5759 N 585.328 1.53329 -0.364422 0
M  V30 5760 C 586.577 2.00421 0.226747 0
M  V30 5761 C 586.89 1.25581 1.49963 0
M  V30 5762 O 588.096 1.63256 2.16933 0
M  V30 5763 C 586.552 3.57017 0.454618 0
M  V30 5764 C 586.16 4.40734 -0.803568 0
M  V30 5765 C 587.904 4.12468 1.00351 0
M  V30 5766 C 585.811 5.8888 -0.545345 0
M  V30 5767 H 584.741 0.748787 0.0885082 0
M  V30 5768 H 587.392 1.7703 -0.482983 0
M  V30 5769 H 585.774 3.76558 1.22558 0
M  V30 5770 H 586.948 4.32967 -1.57723 0
M  V30 5771 H 585.263 3.96381 -1.27559 0
M  V30 5772 H 587.86 5.20783 1.212 0
M  V30 5773 H 588.203 3.6699 1.9653 0
M  V30 5774 H 588.736 3.96721 0.29274 0
M  V30 5775 H 585.475 6.38633 -1.47743 0
M  V30 5776 H 584.995 5.99499 0.189842 0
M  V30 5777 H 586.674 6.46776 -0.170425 0
M  V30 5778 N 586.806 0.0935595 1.57322 0
M  V30 5779 C 588.055 -0.570191 1.93473 0
M  V30 5780 C 588.368 -1.69434 0.977318 0
M  V30 5781 O 589.574 -2.41914 1.23248 0
M  V30 5782 C 588.03 -1.06564 3.43762 0
M  V30 5783 C 587.638 0.0286723 4.47991 0
M  V30 5784 C 589.382 -1.70221 3.88877 0
M  V30 5785 C 587.289 -0.482046 5.89432 0
M  V30 5786 H 586.219 -0.216764 0.72217 0
M  V30 5787 H 588.87 0.169313 1.82717 0
M  V30 5788 H 587.252 -1.85878 3.49664 0
M  V30 5789 H 588.426 0.804106 4.5373 0
M  V30 5790 H 586.741 0.570336 4.12476 0
M  V30 5791 H 589.338 -2.09502 4.91948 0
M  V30 5792 H 589.681 -2.57078 3.27439 0
M  V30 5793 H 590.214 -0.974919 3.85668 0
M  V30 5794 H 586.953 0.349871 6.54566 0
M  V30 5795 H 586.473 -1.22452 5.87167 0
M  V30 5796 H 588.152 -0.951508 6.39965 0
M  V30 5797 N 588.284 -1.56567 -0.180126 0
M  V30 5798 C 589.532 -1.81133 -0.896392 0
M  V30 5799 C 589.853 -0.669114 -1.83161 0
M  V30 5800 O 589.123 0.311616 -1.93406 0
M  V30 5801 H 587.703 -0.668172 -0.333999 0
M  V30 5802 H 590.365 -1.94048 -0.182051 0
M  V30 5803 H 589.461 -2.74854 -1.47857 0
M  V30 5804 N 589.762 0.448376 -1.51087 0
M  V30 5805 C 591.178 0.783984 -1.39017 0
M  V30 5806 C 591.378 1.96087 -0.463904 0
M  V30 5807 O 590.434 2.52357 0.0850534 0
M  V30 5808 C 591.747 1.07471 -2.80839 0
M  V30 5809 C 593.295 1.17981 -2.89913 0
M  V30 5810 C 593.77 1.50354 -4.32617 0
M  V30 5811 N 595.261 1.57301 -4.35673 0
M  V30 5812 C 595.996 1.839 -5.4311 0
M  V30 5813 N 595.492 2.08365 -6.60724 0
M  V30 5814 N 597.285 1.8559 -5.30578 0
M  V30 5815 H 589.436 -0.326881 -2.0987 0
M  V30 5816 H 591.699 -0.0838006 -0.944289 0
M  V30 5817 H 591.405 0.282768 -3.50561 0
M  V30 5818 H 591.279 2.00519 -3.19487 0
M  V30 5819 H 593.666 1.9624 -2.20395 0
M  V30 5820 H 593.747 0.228603 -2.54776 0
M  V30 5821 H 593.391 0.726273 -5.0268 0
M  V30 5822 H 593.321 2.46663 -4.65258 0
M  V30 5823 H 595.812 1.40342 -3.50874 0
M  V30 5824 H 596.125 2.27999 -7.38401 0
M  V30 5825 H 594.47 2.0571 -6.63859 0
M  V30 5826 H 597.661 1.65989 -4.37682 0
M  V30 5827 H 597.834 2.05983 -6.1439 0
M  V30 5828 N 591.24 1.41047 0.703093 0
M  V30 5829 C 592.517 1.30493 1.45708 0
M  V30 5830 C 592.897 -0.0709892 2.10981 0
M  V30 5831 O 592.245 -1.08471 2.01113 0
M  V30 5832 C 592.455 2.45287 2.48265 0
M  V30 5833 C 593.803 2.86104 3.13735 0
M  V30 5834 O 594.827 2.44971 2.58587 0
M  V30 5835 O 593.686 3.57206 4.13601 0
M  V30 5836 H 590.78 0.513144 0.648546 0
M  V30 5837 H 593.326 1.52995 0.734208 0
M  V30 5838 H 592.098 3.37135 1.98635 0
M  V30 5839 H 591.721 2.24622 3.28071 0
M  V30 5840 N 592.718 -0.936591 1.26751 0
M  V30 5841 C 593.943 -1.72288 1.15462 0
M  V30 5842 C 594.368 -1.85915 -0.285887 0
M  V30 5843 O 593.726 -1.35272 -1.20711 0
M  V30 5844 C 593.774 -3.10503 1.83359 0
M  V30 5845 O 592.878 -3.96745 1.1255 0
M  V30 5846 H 592.219 -0.52843 0.402067 0
M  V30 5847 H 594.749 -1.17271 1.67656 0
M  V30 5848 H 594.759 -3.60867 1.90365 0
M  V30 5849 H 593.434 -2.99901 2.88153 0
M  V30 5850 H 592.011 -3.55191 1.13551 0
M  V30 5851 N 594.196 -1.08629 -1.14182 0
M  V30 5852 C 595.444 -0.815731 -1.84906 0
M  V30 5853 C 595.765 0.660441 -1.83475 0
M  V30 5854 O 595.035 1.47888 -1.28476 0
M  V30 5855 H 593.615 -0.298773 -0.684648 0
M  V30 5856 H 596.277 -1.37274 -1.38354 0
M  V30 5857 H 595.373 -1.16193 -2.89665 0
M  V30 5858 N 595.674 1.31259 -0.872281 0
M  V30 5859 C 597.09 1.49283 -0.564521 0
M  V30 5860 C 597.29 1.80243 0.900807 0
M  V30 5861 O 596.346 1.88246 1.68284 0
M  V30 5862 C 597.659 2.62503 -1.46673 0
M  V30 5863 C 599.207 2.76386 -1.46901 0
M  V30 5864 C 599.682 3.92705 -2.35684 0
M  V30 5865 N 601.173 3.99995 -2.33577 0
M  V30 5866 C 601.908 4.89276 -2.98992 0
M  V30 5867 N 601.404 5.83443 -3.73585 0
M  V30 5868 N 603.197 4.82541 -2.88289 0
M  V30 5869 H 595.348 1.09432 -1.82039 0
M  V30 5870 H 597.611 0.540949 -0.77851 0
M  V30 5871 H 597.317 2.46407 -2.50951 0
M  V30 5872 H 597.191 3.58695 -1.16696 0
M  V30 5873 H 599.578 2.91894 -0.433796 0
M  V30 5874 H 599.659 1.80853 -1.80903 0
M  V30 5875 H 599.303 3.77954 -3.39283 0
M  V30 5876 H 599.233 4.87549 -1.99006 0
M  V30 5877 H 601.724 3.32624 -1.7936 0
M  V30 5878 H 602.037 6.48303 -4.20622 0
M  V30 5879 H 600.382 5.83415 -3.77694 0
M  V30 5880 H 603.573 4.07951 -2.2955 0
M  V30 5881 H 603.746 5.51916 -3.39549 0
M  V30 5882 N 597.152 0.631951 1.44375 0
M  V30 5883 C 598.115 -0.0628142 2.29114 0
M  V30 5884 C 599.115 -0.771494 1.41084 0
M  V30 5885 O 600.305 -0.615959 1.62947 0
M  V30 5886 C 597.437 -1.09953 3.22681 0
M  V30 5887 H 598.63 0.682509 2.92031 0
M  V30 5888 H 596.183 0.392128 1.51301 0
M  V30 5889 H 596.918 -1.87481 2.64616 0
M  V30 5890 H 596.703 -0.595286 3.87555 0
M  V30 5891 H 598.193 -1.58538 3.86336 0
M  V30 5892 N 598.631 -1.53133 0.372548 0
M  V30 5893 C 599.561 -2.28876 -0.462412 0
M  V30 5894 C 600.542 -1.31583 -1.07796 0
M  V30 5895 O 601.727 -1.60461 -1.09389 0
M  V30 5896 C 598.857 -3.08317 -1.59868 0
M  V30 5897 C 597.811 -4.13355 -1.11003 0
M  V30 5898 C 597.137 -4.8092 -2.33708 0
M  V30 5899 C 598.437 -5.21955 -0.18983 0
M  V30 5900 H 600.131 -2.9892 0.169511 0
M  V30 5901 H 597.677 -1.43761 0.0829658 0
M  V30 5902 H 599.63 -3.60055 -2.18949 0
M  V30 5903 H 598.354 -2.35976 -2.25794 0
M  V30 5904 H 597.013 -3.62573 -0.541869 0
M  V30 5905 H 596.661 -4.05144 -2.98106 0
M  V30 5906 H 596.361 -5.51904 -2.01682 0
M  V30 5907 H 597.885 -5.35455 -2.93462 0
M  V30 5908 H 599.299 -5.69153 -0.688319 0
M  V30 5909 H 597.696 -6.00087 0.0398887 0
M  V30 5910 H 598.766 -4.78811 0.766057 0
M  V30 5911 N 600.109 -0.101901 -1.5727 0
M  V30 5912 C 601.072 0.840129 -2.13247 0
M  V30 5913 C 602.072 1.20625 -1.06331 0
M  V30 5914 O 603.262 1.13456 -1.32186 0
M  V30 5915 C 600.394 2.13372 -2.65867 0
M  V30 5916 H 601.587 0.353945 -2.97804 0
M  V30 5917 H 599.14 0.147167 -1.55606 0
M  V30 5918 H 599.875 2.66461 -1.84849 0
M  V30 5919 H 599.66 1.88085 -3.44044 0
M  V30 5920 H 601.15 2.80748 -3.09145 0
M  V30 5921 N 601.587 1.56661 0.17182 0
M  V30 5922 C 602.497 1.99604 1.2327 0
M  V30 5923 C 603.513 0.907333 1.4847 0
M  V30 5924 O 604.689 1.21492 1.60629 0
M  V30 5925 C 601.754 2.34685 2.55194 0
M  V30 5926 C 600.815 3.57381 2.3786 0
M  V30 5927 C 600.048 3.90779 3.63494 0
M  V30 5928 O 600.271 3.25152 4.6865 0
M  V30 5929 O 599.205 4.84129 3.57634 0
M  V30 5930 H 603.031 2.90114 0.898192 0
M  V30 5931 H 600.616 1.44522 0.378647 0
M  V30 5932 H 602.498 2.5822 3.33017 0
M  V30 5933 H 601.173 1.47336 2.88225 0
M  V30 5934 H 600.08 3.39064 1.5807 0
M  V30 5935 H 601.413 4.45268 2.09754 0
M  V30 5936 N 603.065 -0.440357 1.51323 0
M  V30 5937 C 604.311 -1.19181 1.64085 0
M  V30 5938 C 604.644 -1.90936 0.354575 0
M  V30 5939 O 603.919 -1.8347 -0.645675 0
M  V30 5940 C 604.202 -2.2112 2.84215 0
M  V30 5941 C 604.055 -1.53468 4.22809 0
M  V30 5942 C 605.374 -3.22133 2.99864 0
M  V30 5943 H 602.493 -0.431924 0.597169 0
M  V30 5944 H 605.135 -0.481443 1.83799 0
M  V30 5945 H 603.285 -2.81703 2.67537 0
M  V30 5946 H 604.957 -0.962455 4.51148 0
M  V30 5947 H 603.2 -0.837086 4.25647 0
M  V30 5948 H 603.871 -2.27694 5.02852 0
M  V30 5949 H 606.347 -2.71601 3.15233 0
M  V30 5950 H 605.223 -3.90756 3.85488 0
M  V30 5951 H 605.484 -3.88061 2.11804 0
M  V30 5952 N 604.543 -1.41418 -0.695603 0
M  V30 5953 C 605.473 -1.46035 -1.82197 0
M  V30 5954 C 606.454 -0.319025 -1.67082 0
M  V30 5955 O 607.639 -0.530462 -1.86815 0
M  V30 5956 C 604.769 -1.34179 -3.20333 0
M  V30 5957 C 603.723 -2.46123 -3.50154 0
M  V30 5958 C 603.049 -2.19332 -4.87645 0
M  V30 5959 C 604.349 -3.88463 -3.49133 0
M  V30 5960 H 606.043 -2.40303 -1.78591 0
M  V30 5961 H 603.589 -1.15663 -0.857797 0
M  V30 5962 H 605.542 -1.36021 -3.98844 0
M  V30 5963 H 604.266 -0.363952 -3.24566 0
M  V30 5964 H 602.925 -2.43563 -2.73994 0
M  V30 5965 H 602.573 -1.19891 -4.88503 0
M  V30 5966 H 602.273 -2.94344 -5.08562 0
M  V30 5967 H 603.797 -2.22889 -5.68465 0
M  V30 5968 H 605.211 -3.92738 -4.17648 0
M  V30 5969 H 603.608 -4.63158 -3.81582 0
M  V30 5970 H 604.678 -4.16617 -2.48109 0
M  V30 5971 N 606.021 0.929856 -1.27246 0
M  V30 5972 C 606.968 2.03017 -1.09785 0
M  V30 5973 C 607.938 1.661 0.000456744 0
M  V30 5974 O 609.123 1.90116 -0.161462 0
M  V30 5975 C 606.263 3.36878 -0.748816 0
M  V30 5976 C 605.376 3.86763 -1.92453 0
M  V30 5977 C 604.511 5.09061 -1.51758 0
M  V30 5978 C 603.55 5.51237 -2.66091 0
M  V30 5979 N 602.687 6.64732 -2.25999 0
M  V30 5980 H 607.527 2.17285 -2.03939 0
M  V30 5981 H 605.064 1.06448 -1.01524 0
M  V30 5982 H 607.022 4.13855 -0.527283 0
M  V30 5983 H 605.652 3.22424 0.155771 0
M  V30 5984 H 604.704 3.06086 -2.25867 0
M  V30 5985 H 606.016 4.13994 -2.78227 0
M  V30 5986 H 605.17 5.93532 -1.25716 0
M  V30 5987 H 603.909 4.83602 -0.630896 0
M  V30 5988 H 602.914 4.65316 -2.92849 0
M  V30 5989 H 604.139 5.78692 -3.55377 0
M  V30 5990 H 602.085 6.40935 -1.3978 0
M  V30 5991 H 602.002 6.91607 -3.05313 0
M  V30 5992 H 603.27 7.52549 -2.03199 0
M  V30 5993 N 607.499 1.09233 1.13605 0
M  V30 5994 C 608.446 0.729921 2.18954 0
M  V30 5995 C 609.416 -0.287916 1.63586 0
M  V30 5996 O 610.601 -0.170003 1.90041 0
M  V30 5997 C 607.741 0.154489 3.44754 0
M  V30 5998 C 606.854 1.22613 4.14234 0
M  V30 5999 C 605.989 0.613657 5.27644 0
M  V30 6000 C 605.028 1.66674 5.8897 0
M  V30 6001 N 604.165 1.07545 6.93814 0
M  V30 6002 H 609.005 1.63257 2.49302 0
M  V30 6003 H 606.542 0.815693 1.22413 0
M  V30 6004 H 608.5 -0.196923 4.16735 0
M  V30 6005 H 607.13 -0.711433 3.14863 0
M  V30 6006 H 606.182 1.69485 3.40557 0
M  V30 6007 H 607.494 2.0238 4.55899 0
M  V30 6008 H 606.648 0.210976 6.06333 0
M  V30 6009 H 605.387 -0.215584 4.87223 0
M  V30 6010 H 604.392 2.07899 5.08978 0
M  V30 6011 H 605.617 2.49861 6.31464 0
M  V30 6012 H 603.563 0.267451 6.55455 0
M  V30 6013 H 603.48 1.81011 7.3401 0
M  V30 6014 H 604.748 0.698906 7.7636 0
M  V30 6015 N 608.977 -1.30795 0.87923 0
M  V30 6016 C 610.388 -1.78535 0.546093 0
M  V30 6017 C 610.739 -1.72354 -0.937467 0
M  V30 6018 O 609.864 -1.2969 -1.73233 0
M  V30 6019 C 610.459 -3.24181 0.9845 0
M  V30 6020 C 609.018 -3.69779 0.702871 0
M  V30 6021 C 608.165 -2.51377 1.17068 0
M  V30 6022 H 611.116 -1.17746 1.06403 0
M  V30 6023 H 611.137 -3.79227 0.311045 0
M  V30 6024 H 610.649 -3.28647 2.06429 0
M  V30 6025 H 608.75 -3.70806 -0.365166 0
M  V30 6026 H 608.863 -4.61507 1.28639 0
M  V30 6027 H 607.227 -2.47768 0.590172 0
M  V30 6028 H 608.01 -2.58584 2.25808 0
M  V30 6029 N 610.455 -0.639598 -1.44038 0
M  V30 6030 C 611.701 -0.147698 -2.02261 0
M  V30 6031 C 612.034 1.23031 -1.50256 0
M  V30 6032 O 611.309 1.81847 -0.690068 0
M  V30 6033 C 611.592 -0.14362 -3.59813 0
M  V30 6034 C 611.445 -1.55458 -4.22082 0
M  V30 6035 C 612.764 0.527317 -4.36929 0
M  V30 6036 H 609.883 -0.0551453 -0.734934 0
M  V30 6037 H 612.525 -0.817688 -1.71505 0
M  V30 6038 H 610.675 0.426898 -3.86147 0
M  V30 6039 H 612.347 -2.17464 -4.06826 0
M  V30 6040 H 610.59 -2.10594 -3.79253 0
M  V30 6041 H 611.261 -1.50369 -5.31124 0
M  V30 6042 H 613.737 0.0420504 -4.16079 0
M  V30 6043 H 612.613 0.499389 -5.46624 0
M  V30 6044 H 612.874 1.59914 -4.12165 0
M  V30 6045 N 611.933 1.52934 -0.380664 0
M  V30 6046 C 612.896 2.24809 0.446473 0
M  V30 6047 C 613.896 1.26133 0.997347 0
M  V30 6048 O 615.086 1.50297 0.880714 0
M  V30 6049 C 612.218 2.99649 1.62553 0
M  V30 6050 H 613.411 2.99343 -0.182677 0
M  V30 6051 H 610.964 1.55736 -0.132618 0
M  V30 6052 H 611.699 2.29395 2.29235 0
M  V30 6053 H 611.484 3.72066 1.23732 0
M  V30 6054 H 612.974 3.54246 2.21133 0
M  V30 6055 N 613.412 0.11024 1.57214 0
M  V30 6056 C 614.637 -0.561179 1.99664 0
M  V30 6057 C 615.062 -1.59985 0.989266 0
M  V30 6058 O 614.42 -1.81255 -0.0402399 0
M  V30 6059 C 614.468 -1.17189 3.41027 0
M  V30 6060 O 613.572 -2.28755 3.4314 0
M  V30 6061 H 612.913 -0.14101 0.648855 0
M  V30 6062 H 615.443 0.196128 2.03658 0
M  V30 6063 H 615.453 -1.50954 3.79047 0
M  V30 6064 H 614.128 -0.411041 4.13864 0
M  V30 6065 H 612.705 -1.96495 3.16929 0
M  V30 6066 N 614.89 -1.56749 -0.16351 0
M  V30 6067 C 616.306 -1.51043 -0.515567 0
M  V30 6068 C 616.506 -0.815855 -1.84245 0
M  V30 6069 O 615.562 -0.379477 -2.49632 0
M  V30 6070 C 616.875 -2.95791 -0.541114 0
M  V30 6071 C 618.423 -3.0664 -0.627776 0
M  V30 6072 C 618.898 -4.52861 -0.684141 0
M  V30 6073 N 620.389 -4.5714 -0.746818 0
M  V30 6074 C 621.124 -5.67634 -0.811137 0
M  V30 6075 N 620.62 -6.8774 -0.835811 0
M  V30 6076 N 622.413 -5.55624 -0.850756 0
M  V30 6077 H 614.564 -2.00307 0.70645 0
M  V30 6078 H 616.827 -0.912876 0.255659 0
M  V30 6079 H 616.533 -3.49797 0.365329 0
M  V30 6080 H 616.407 -3.50858 -1.38487 0
M  V30 6081 H 618.794 -2.52663 -1.52464 0
M  V30 6082 H 618.875 -2.54645 0.242805 0
M  V30 6083 H 618.519 -5.07472 0.2085 0
M  V30 6084 H 618.449 -5.02621 -1.57098 0
M  V30 6085 H 620.94 -3.70669 -0.735717 0
M  V30 6086 H 621.253 -7.67701 -0.886279 0
M  V30 6087 H 619.598 -6.90334 -0.803958 0
M  V30 6088 H 622.789 -4.60709 -0.828535 0
M  V30 6089 H 622.962 -6.41756 -0.897418 0
M  V30 6090 N 616.368 0.432326 -1.51554 0
M  V30 6091 C 617.3 1.54357 -1.6943 0
M  V30 6092 C 618.313 1.52311 -0.574897 0
M  V30 6093 O 619.502 1.56997 -0.849369 0
M  V30 6094 C 616.602 2.93273 -1.69836 0
M  V30 6095 C 615.775 3.19768 -2.98442 0
M  V30 6096 C 614.834 4.38433 -2.90969 0
M  V30 6097 O 613.86 4.36842 -3.64908 0
M  V30 6098 N 615.062 5.42276 -2.07163 0
M  V30 6099 H 617.827 1.39426 -2.65293 0
M  V30 6100 H 615.388 0.621331 -1.49503 0
M  V30 6101 H 617.38 3.70687 -1.62399 0
M  V30 6102 H 615.95 3.01777 -0.815456 0
M  V30 6103 H 615.17 2.30607 -3.19709 0
M  V30 6104 H 616.458 3.343 -3.83563 0
M  V30 6105 H 615.856 5.46407 -1.46477 0
M  V30 6106 H 614.413 6.18524 -2.05601 0
M  V30 6107 N 617.846 1.41785 0.688094 0
M  V30 6108 C 618.776 1.47 1.8142 0
M  V30 6109 C 619.757 0.327881 1.6691 0
M  V30 6110 O 620.942 0.540362 1.86531 0
M  V30 6111 C 618.072 1.35876 3.19617 0
M  V30 6112 C 617.026 2.47976 3.48844 0
M  V30 6113 C 616.352 2.21915 4.86475 0
M  V30 6114 C 617.652 3.90309 3.47068 0
M  V30 6115 H 619.346 2.41247 1.77314 0
M  V30 6116 H 616.892 1.16116 0.851651 0
M  V30 6117 H 618.845 1.38134 3.98117 0
M  V30 6118 H 617.569 0.38116 3.24368 0
M  V30 6119 H 616.228 2.45013 2.72698 0
M  V30 6120 H 615.876 1.2248 4.8786 0
M  V30 6121 H 615.576 2.97037 5.06994 0
M  V30 6122 H 617.1 2.25901 5.67275 0
M  V30 6123 H 618.514 3.94947 4.1556 0
M  V30 6124 H 616.911 4.65175 3.7912 0
M  V30 6125 H 617.981 4.17927 2.45896 0
M  V30 6126 N 619.324 -0.923095 1.27737 0
M  V30 6127 C 620.256 -2.02871 1.06658 0
M  V30 6128 C 621.269 -1.62786 0.0212095 0
M  V30 6129 O 622.458 -1.76548 0.263267 0
M  V30 6130 C 619.558 -3.33603 0.59682 0
M  V30 6131 C 618.731 -4.02354 1.71551 0
M  V30 6132 C 617.79 -5.11364 1.24071 0
M  V30 6133 O 616.816 -5.35075 1.94123 0
M  V30 6134 N 618.018 -5.80416 0.0988444 0
M  V30 6135 H 620.783 -2.21515 2.01869 0
M  V30 6136 H 618.344 -1.09378 1.19365 0
M  V30 6137 H 620.336 -4.03845 0.262984 0
M  V30 6138 H 618.906 -3.11499 -0.262187 0
M  V30 6139 H 618.126 -3.25786 2.2194 0
M  V30 6140 H 619.414 -4.45035 2.46619 0
M  V30 6141 H 618.812 -5.63611 -0.485743 0
M  V30 6142 H 617.369 -6.51563 -0.17578 0
M  V30 6143 N 620.802 -1.09834 -1.13024 0
M  V30 6144 C 622.05 -0.835297 -1.8403 0
M  V30 6145 C 622.371 0.640944 -1.84165 0
M  V30 6146 O 621.641 1.46517 -1.30037 0
M  V30 6147 H 620.221 -0.306018 -0.681441 0
M  V30 6148 H 622.883 -1.38734 -1.36891 0
M  V30 6149 H 621.979 -1.19258 -2.88416 0
M  V30 6150 N 622.28 1.30327 -0.886154 0
M  V30 6151 C 623.213 2.26241 -0.298407 0
M  V30 6152 C 624.191 1.51839 0.581704 0
M  V30 6153 O 625.375 1.80851 0.531536 0
M  V30 6154 C 622.502 3.33768 0.575888 0
M  V30 6155 C 621.548 4.25852 -0.235057 0
M  V30 6156 S 622.381 5.10277 -1.62411 0
M  V30 6157 C 623.537 6.21313 -0.756368 0
M  V30 6158 H 623.77 2.75744 -1.11141 0
M  V30 6159 H 621.303 1.38341 -0.685651 0
M  V30 6160 H 623.261 3.96186 1.07458 0
M  V30 6161 H 621.922 2.82986 1.363 0
M  V30 6162 H 621.115 5.02143 0.432198 0
M  V30 6163 H 620.717 3.68015 -0.666409 0
M  V30 6164 H 623.009 6.77495 0.0261451 0
M  V30 6165 H 623.952 6.92226 -1.49093 0
M  V30 6166 H 624.36 5.63611 -0.316749 0
M  V30 6167 N 623.758 0.647228 1.43697 0
M  V30 6168 C 624.986 0.16575 2.06235 0
M  V30 6169 C 625.401 -1.1662 1.48476 0
M  V30 6170 O 624.758 -1.7187 0.613762 0
M  V30 6171 C 624.809 0.0621651 3.61447 0
M  V30 6172 O 624.53 1.34146 4.17057 0
M  V30 6173 C 626.031 -0.446102 4.4105 0
M  V30 6174 H 623.251 0.0871158 0.665321 0
M  V30 6175 H 625.795 0.886183 1.84301 0
M  V30 6176 H 623.95 -0.608794 3.82587 0
M  V30 6177 H 624.364 1.19675 5.10664 0
M  V30 6178 H 625.838 -0.46755 5.50016 0
M  V30 6179 H 626.315 -1.47627 4.13646 0
M  V30 6180 H 626.921 0.192159 4.24866 0
M  V30 6181 N 625.236 -1.5273 0.388769 0
M  V30 6182 C 626.184 -2.27975 -0.461527 0
M  V30 6183 C 627.178 -1.31854 -1.06352 0
M  V30 6184 O 628.384 -1.49394 -1.00406 0
M  V30 6185 H 624.759 -0.733088 -0.16759 0
M  V30 6186 H 626.73 -2.97765 0.194579 0
M  V30 6187 C 625.479 -3.09881 -1.577 0
M  V30 6188 H 624.802 -3.83701 -1.12309 0
M  V30 6189 H 626.242 -3.6567 -2.14619 0
M  V30 6190 C 624.701 -2.22159 -2.53272 0
M  V30 6191 O 625.231 -1.84802 -3.56667 0
M  V30 6192 N 623.437 -1.8633 -2.23001 0
M  V30 6193 H 622.984 -2.16909 -1.38954 0
M  V30 6194 H 622.942 -1.27927 -2.87197 0
M  V30 6195 N 626.714 -0.118576 -1.57153 0
M  V30 6196 C 627.962 0.538461 -1.94795 0
M  V30 6197 C 628.283 1.67243 -1.00274 0
M  V30 6198 O 627.553 1.95811 -0.0589692 0
M  V30 6199 H 626.133 0.201904 -0.719197 0
M  V30 6200 H 628.795 -0.187418 -1.93997 0
M  V30 6201 H 627.891 0.933315 -2.97818 0
M  V30 6202 N 628.193 1.56834 0.155195 0
M  V30 6203 C 629.609 1.51315 0.50755 0
M  V30 6204 C 629.809 0.825614 1.83809 0
M  V30 6205 O 628.865 0.39271 2.49427 0
M  V30 6206 C 630.178 2.96074 0.52542 0
M  V30 6207 C 631.726 3.06968 0.611505 0
M  V30 6208 C 632.201 4.53218 0.660115 0
M  V30 6209 N 633.692 4.5753 0.722564 0
M  V30 6210 C 634.427 5.68056 0.781023 0
M  V30 6211 N 633.923 6.88173 0.799327 0
M  V30 6212 N 635.716 5.56068 0.821278 0
M  V30 6213 H 627.867 1.9993 -0.717063 0
M  V30 6214 H 630.13 0.911507 -0.260496 0
M  V30 6215 H 629.836 3.49599 -0.383875 0
M  V30 6216 H 629.71 3.51587 1.36624 0
M  V30 6217 H 632.097 2.53468 1.51122 0
M  V30 6218 H 632.178 2.54513 -0.256306 0
M  V30 6219 H 631.822 5.07354 -0.23541 0
M  V30 6220 H 631.752 5.03447 1.5443 0
M  V30 6221 H 634.243 3.71054 0.716049 0
M  V30 6222 H 634.556 7.6816 0.845553 0
M  V30 6223 H 632.901 6.90751 0.767337 0
M  V30 6224 H 636.092 4.61142 0.804091 0
M  V30 6225 H 636.265 6.42223 0.863372 0
M  V30 6226 N 629.671 -0.424282 1.51781 0
M  V30 6227 C 630.899 -1.1947 1.68921 0
M  V30 6228 C 631.314 -1.84683 0.39213 0
M  V30 6229 O 630.671 -1.71261 -0.630554 0
M  V30 6230 C 630.722 -2.26909 2.81416 0
M  V30 6231 O 630.443 -1.64361 4.061 0
M  V30 6232 C 631.944 -3.16945 3.09937 0
M  V30 6233 H 629.164 -0.359591 0.566511 0
M  V30 6234 H 631.708 -0.501139 1.98265 0
M  V30 6235 H 629.863 -2.91959 2.54635 0
M  V30 6236 H 630.277 -2.35468 4.68674 0
M  V30 6237 H 631.751 -3.88437 3.922 0
M  V30 6238 H 632.228 -3.78451 2.22871 0
M  V30 6239 H 632.834 -2.57581 3.38426 0
M  V30 6240 N 631.149 -1.42148 -0.680565 0
M  V30 6241 C 632.374 -1.45901 -1.47403 0
M  V30 6242 C 632.799 -0.0700985 -1.87969 0
M  V30 6243 O 632.157 0.930145 -1.55621 0
M  V30 6244 C 632.205 -2.38661 -2.70321 0
M  V30 6245 O 631.309 -1.85399 -3.68376 0
M  V30 6246 H 630.65 -0.494565 -0.443059 0
M  V30 6247 H 633.18 -1.86774 -0.835251 0
M  V30 6248 H 633.19 -2.55046 -3.18458 0
M  V30 6249 H 631.865 -3.39571 -2.40134 0
M  V30 6250 H 630.442 -1.78541 -3.2738 0
M  V30 6251 N 632.627 0.916307 -1.28225 0
M  V30 6252 C 633.852 1.7043 -1.18188 0
M  V30 6253 C 634.277 1.86346 0.256274 0
M  V30 6254 O 633.635 1.37175 1.18544 0
M  V30 6255 C 633.683 3.07546 -1.88275 0
M  V30 6256 O 632.787 3.94904 -1.18848 0
M  V30 6257 H 632.128 0.521967 -0.410423 0
M  V30 6258 H 634.658 1.14589 -1.69501 0
M  V30 6259 H 634.668 3.57793 -1.96082 0
M  V30 6260 H 633.343 2.95279 -2.92887 0
M  V30 6261 H 631.92 3.53339 -1.19187 0
M  V30 6262 N 634.105 1.10431 1.1244 0
M  V30 6263 C 635.521 0.836096 1.35947 0
M  V30 6264 C 635.721 -0.544475 1.94004 0
M  V30 6265 O 634.777 -1.29735 2.16622 0
M  V30 6266 C 636.09 1.93575 2.30107 0
M  V30 6267 C 637.638 1.9642 2.43697 0
M  V30 6268 C 638.113 3.05559 3.41171 0
M  V30 6269 N 639.604 3.04865 3.48728 0
M  V30 6270 C 640.339 3.85954 4.24061 0
M  V30 6271 N 639.835 4.76977 5.02458 0
M  V30 6272 N 641.628 3.74172 4.19466 0
M  V30 6273 H 633.779 1.9942 0.731124 0
M  V30 6274 H 636.042 0.866607 0.384312 0
M  V30 6275 H 635.748 2.92943 1.94621 0
M  V30 6276 H 635.622 1.8229 3.30227 0
M  V30 6277 H 638.009 0.97685 2.78463 0
M  V30 6278 H 638.09 2.11782 1.43465 0
M  V30 6279 H 637.734 4.04513 3.07135 0
M  V30 6280 H 637.664 2.87438 4.41234 0
M  V30 6281 H 640.155 2.38908 2.92799 0
M  V30 6282 H 640.468 5.35409 5.57277 0
M  V30 6283 H 638.813 4.81006 5.01655 0
M  V30 6284 H 642.004 3.02412 3.57302 0
M  V30 6285 H 642.177 4.37602 4.77921 0
M  V30 6286 N 635.583 -1.29855 0.893053 0
M  V30 6287 C 636.831 -1.9544 0.514566 0
M  V30 6288 C 637.152 -1.70795 -0.940959 0
M  V30 6289 O 636.422 -1.03601 -1.66264 0
M  V30 6290 H 635.002 -0.723137 0.187302 0
M  V30 6291 H 637.664 -1.58234 1.13789 0
M  V30 6292 H 636.76 -3.04341 0.691581 0
M  V30 6293 N 637.061 -0.65484 -1.43351 0
M  V30 6294 C 637.993 0.0744757 -2.29079 0
M  V30 6295 C 639.006 0.7855 -1.42596 0
M  V30 6296 O 640.195 0.642986 -1.66517 0
M  V30 6297 C 637.295 1.12859 -3.19556 0
M  V30 6298 C 636.468 0.495381 -4.34586 0
M  V30 6299 C 635.527 1.44659 -5.05925 0
M  V30 6300 O 634.553 0.954567 -5.61139 0
M  V30 6301 N 635.755 2.78051 -5.09576 0
M  V30 6302 H 638.52 -0.661346 -2.92312 0
M  V30 6303 H 636.081 -0.497744 -1.54059 0
M  V30 6304 H 638.073 1.76577 -3.64147 0
M  V30 6305 H 636.643 1.76636 -2.57912 0
M  V30 6306 H 635.863 -0.32092 -3.92892 0
M  V30 6307 H 637.151 0.0534203 -5.08772 0
M  V30 6308 H 636.549 3.20584 -4.66093 0
M  V30 6309 H 635.106 3.37068 -5.57878 0
M  V30 6310 N 638.539 1.52521 -0.396863 0
M  V30 6311 C 639.469 2.29582 0.425941 0
M  V30 6312 C 640.45 1.33281 1.05689 0
M  V30 6313 O 641.635 1.62181 1.06823 0
M  V30 6314 C 638.765 3.10821 1.54943 0
M  V30 6315 C 637.719 4.15069 1.04413 0
M  V30 6316 C 637.045 4.84578 2.26028 0
M  V30 6317 C 638.345 5.22191 0.106767 0
M  V30 6318 H 640.039 2.98612 -0.217045 0
M  V30 6319 H 637.585 1.43611 -0.105826 0
M  V30 6320 H 639.538 3.63492 2.13193 0
M  V30 6321 H 638.262 2.39538 2.22011 0
M  V30 6322 H 636.921 3.63389 0.484118 0
M  V30 6323 H 636.569 4.09835 2.91623 0
M  V30 6324 H 636.269 5.55043 1.92876 0
M  V30 6325 H 637.793 5.40056 2.84906 0
M  V30 6326 H 639.207 5.70176 0.597685 0
M  V30 6327 H 637.604 5.99947 -0.135352 0
M  V30 6328 H 638.674 4.77531 -0.842134 0
M  V30 6329 N 640.017 0.126909 1.57088 0
M  V30 6330 C 640.947 -0.816847 2.18746 0
M  V30 6331 C 641.928 -1.27161 1.12979 0
M  V30 6332 O 643.113 -1.33279 1.41246 0
M  V30 6333 C 640.243 -2.06398 2.79315 0
M  V30 6334 C 639.197 -1.74673 3.90735 0
M  V30 6335 C 638.523 -3.06482 4.38147 0
M  V30 6336 C 639.823 -1.0089 5.12463 0
M  V30 6337 H 641.517 -0.303032 2.97863 0
M  V30 6338 H 639.063 -0.144314 1.43275 0
M  V30 6339 H 641.016 -2.72885 3.2111 0
M  V30 6340 H 639.74 -2.60118 1.975 0
M  V30 6341 H 638.399 -1.10572 3.49527 0
M  V30 6342 H 638.047 -3.58152 3.5318 0
M  V30 6343 H 637.747 -2.86025 5.13287 0
M  V30 6344 H 639.271 -3.74073 4.82599 0
M  V30 6345 H 640.685 -1.57546 5.51228 0
M  V30 6346 H 639.082 -0.905006 5.93237 0
M  V30 6347 H 640.152 0.00297335 4.849 0
M  V30 6348 N 641.495 -1.56914 -0.146875 0
M  V30 6349 C 642.442 -1.98275 -1.18134 0
M  V30 6350 C 643.412 -0.850367 -1.42681 0
M  V30 6351 O 644.597 -1.11244 -1.55014 0
M  V30 6352 C 641.737 -2.36861 -2.5098 0
M  V30 6353 C 640.85 -3.63391 -2.33605 0
M  V30 6354 C 639.985 -3.91079 -3.59486 0
M  V30 6355 C 639.024 -5.10879 -3.37149 0
M  V30 6356 N 638.161 -5.34577 -4.55161 0
M  V30 6357 H 643.001 -2.8645 -0.821622 0
M  V30 6358 H 640.538 -1.41718 -0.394248 0
M  V30 6359 H 642.496 -2.57262 -3.28439 0
M  V30 6360 H 641.126 -1.51766 -2.84898 0
M  V30 6361 H 640.178 -3.50766 -1.47199 0
M  V30 6362 H 641.49 -4.51007 -2.13059 0
M  V30 6363 H 640.644 -4.11979 -4.45374 0
M  V30 6364 H 639.383 -3.01885 -3.83036 0
M  V30 6365 H 638.388 -4.89853 -2.49649 0
M  V30 6366 H 639.613 -6.01626 -3.14997 0
M  V30 6367 H 637.559 -4.48337 -4.78884 0
M  V30 6368 H 637.476 -6.16463 -4.37618 0
M  V30 6369 H 638.744 -5.59975 -5.42263 0
M  V30 6370 N 642.974 0.416227 -1.52004 0
M  V30 6371 C 643.884 1.53147 -1.77717 0
M  V30 6372 C 644.9 1.609 -0.662368 0
M  V30 6373 O 646.076 1.77747 -0.946991 0
M  V30 6374 C 643.141 2.88948 -1.91598 0
M  V30 6375 C 642.202 2.9114 -3.15493 0
M  V30 6376 C 641.435 4.20464 -3.28703 0
M  V30 6377 O 641.658 5.13981 -2.47345 0
M  V30 6378 O 640.592 4.29368 -4.21813 0
M  V30 6379 H 644.418 1.34357 -2.72363 0
M  V30 6380 H 642.003 0.601373 -1.36762 0
M  V30 6381 H 643.885 3.69505 -2.02593 0
M  V30 6382 H 642.56 3.07821 -1.00141 0
M  V30 6383 H 641.467 2.09461 -3.09962 0
M  V30 6384 H 642.8 2.77216 -4.06709 0
M  V30 6385 N 644.452 1.42507 0.673017 0
M  V30 6386 C 645.699 1.43072 1.43306 0
M  V30 6387 C 646.027 0.0478004 1.94441 0
M  V30 6388 O 645.282 -0.944106 1.71421 0
M  V30 6389 C 645.581 2.40351 2.64511 0
M  V30 6390 C 645.247 3.8669 2.31908 0
M  V30 6391 C 643.909 4.26551 2.22728 0
M  V30 6392 C 646.261 4.78991 2.05467 0
M  V30 6393 C 643.589 5.56691 1.85234 0
M  V30 6394 C 645.941 6.09476 1.69477 0
M  V30 6395 C 644.605 6.48334 1.58808 0
M  V30 6396 H 643.875 0.523536 0.524395 0
M  V30 6397 H 646.522 1.75459 0.76723 0
M  V30 6398 H 644.827 2.01297 3.36135 0
M  V30 6399 H 646.524 2.38051 3.22696 0
M  V30 6400 H 643.114 3.55132 2.39956 0
M  V30 6401 H 647.298 4.48982 2.11492 0
M  V30 6402 H 642.554 5.85657 1.75545 0
M  V30 6403 H 646.728 6.80482 1.48043 0
M  V30 6404 H 644.355 7.49084 1.29525 0
M  V30 6405 N 645.93 -0.909495 1.28709 0
M  V30 6406 C 646.862 -2.01729 1.08804 0
M  V30 6407 C 647.875 -1.62755 0.0384739 0
M  V30 6408 O 649.064 -1.76259 0.281977 0
M  V30 6409 C 646.164 -3.32952 0.63217 0
M  V30 6410 C 645.337 -4.00512 1.75809 0
M  V30 6411 C 644.396 -5.10019 1.29488 0
M  V30 6412 O 643.422 -5.32986 1.99787 0
M  V30 6413 N 644.624 -5.80278 0.1604 0
M  V30 6414 H 647.389 -2.19362 2.04207 0
M  V30 6415 H 644.95 -1.08106 1.20518 0
M  V30 6416 H 646.942 -4.03543 0.305802 0
M  V30 6417 H 645.512 -3.11759 -0.229134 0
M  V30 6418 H 644.732 -3.23413 2.25383 0
M  V30 6419 H 646.02 -4.42395 2.51325 0
M  V30 6420 H 645.418 -5.64094 -0.425937 0
M  V30 6421 H 643.975 -6.51713 -0.106663 0
M  V30 6422 N 647.408 -1.11026 -1.11852 0
M  V30 6423 C 648.338 -0.786812 -2.19844 0
M  V30 6424 C 649.319 0.242935 -1.68356 0
M  V30 6425 O 650.504 0.107355 -1.93903 0
M  V30 6426 C 647.634 -0.224516 -3.46574 0
M  V30 6427 C 646.588 -1.18564 -4.1125 0
M  V30 6428 C 645.914 -0.484261 -5.32503 0
M  V30 6429 C 647.214 -2.53465 -4.56676 0
M  V30 6430 H 648.908 -1.68978 -2.47158 0
M  V30 6431 H 646.454 -0.813906 -1.18792 0
M  V30 6432 H 648.407 0.0139435 -4.21398 0
M  V30 6433 H 647.131 0.713722 -3.18706 0
M  V30 6434 H 645.79 -1.40966 -3.38414 0
M  V30 6435 H 645.438 0.458646 -5.00905 0
M  V30 6436 H 645.138 -1.12526 -5.76725 0
M  V30 6437 H 646.662 -0.254492 -6.10069 0
M  V30 6438 H 648.076 -2.35177 -5.22843 0
M  V30 6439 H 646.473 -3.13507 -5.11697 0
M  V30 6440 H 647.543 -3.13008 -3.70343 0
M  V30 6441 N 648.886 1.2938 -0.899927 0
M  V30 6442 C 649.833 2.27713 -0.376243 0
M  V30 6443 C 650.803 1.57016 0.541774 0
M  V30 6444 O 651.988 1.84997 0.466966 0
M  V30 6445 C 649.128 3.42889 0.39 0
M  V30 6446 C 648.241 4.28369 -0.558938 0
M  V30 6447 C 647.376 5.30726 0.224379 0
M  V30 6448 C 646.415 6.07862 -0.719068 0
M  V30 6449 N 645.552 7.02094 0.0298569 0
M  V30 6450 H 650.392 2.71888 -1.21988 0
M  V30 6451 H 647.929 1.33724 -0.612879 0
M  V30 6452 H 649.887 4.08443 0.850314 0
M  V30 6453 H 648.517 2.99743 1.19809 0
M  V30 6454 H 647.569 3.62986 -1.13777 0
M  V30 6455 H 648.881 4.82068 -1.2811 0
M  V30 6456 H 648.035 6.02098 0.745881 0
M  V30 6457 H 646.774 4.77759 0.979674 0
M  V30 6458 H 645.779 5.35353 -1.25207 0
M  V30 6459 H 647.004 6.62917 -1.4737 0
M  V30 6460 H 644.95 6.51496 0.767415 0
M  V30 6461 H 644.867 7.5335 -0.632391 0
M  V30 6462 H 646.135 7.77685 0.531615 0
M  V30 6463 N 650.364 0.662433 1.43002 0
M  V30 6464 C 651.775 0.258315 1.84904 0
M  V30 6465 C 652.126 -1.19703 1.55453 0
M  V30 6466 O 651.251 -1.91484 1.00811 0
M  V30 6467 C 651.846 0.462047 3.35635 0
M  V30 6468 C 650.405 0.112165 3.76233 0
M  V30 6469 C 649.552 0.760479 2.66668 0
M  V30 6470 H 652.503 0.865467 1.33024 0
M  V30 6471 H 652.524 -0.289646 3.79396 0
M  V30 6472 H 652.036 1.52135 3.57039 0
M  V30 6473 H 650.137 -0.944179 3.60439 0
M  V30 6474 H 650.25 0.544058 4.76001 0
M  V30 6475 H 648.614 0.192887 2.53969 0
M  V30 6476 H 649.397 1.82299 2.90898 0
M  V30 6477 N 651.842 -1.52309 0.404946 0
M  V30 6478 C 653.091 -2.00952 -0.173529 0
M  V30 6479 C 653.404 -1.29512 -1.46581 0
M  V30 6480 O 654.61 -1.6895 -2.12528 0
M  V30 6481 C 653.066 -3.58097 -0.359801 0
M  V30 6482 C 652.674 -4.38449 0.920138 0
M  V30 6483 C 654.418 -4.14984 -0.893794 0
M  V30 6484 C 652.325 -5.87227 0.701285 0
M  V30 6485 H 651.255 -0.750871 -0.0686244 0
M  V30 6486 H 653.906 -1.75687 0.529749 0
M  V30 6487 H 652.288 -3.79675 -1.12531 0
M  V30 6488 H 653.462 -4.28633 1.69147 0
M  V30 6489 H 651.777 -3.92859 1.38024 0
M  V30 6490 H 654.374 -5.23813 -1.0735 0
M  V30 6491 H 654.717 -3.72072 -1.8673 0
M  V30 6492 H 655.25 -3.97358 -0.187453 0
M  V30 6493 H 651.989 -6.34491 1.64624 0
M  V30 6494 H 651.509 -5.99792 -0.0308288 0
M  V30 6495 H 653.188 -6.46096 0.341846 0
M  V30 6496 N 653.32 -0.135238 -1.57019 0
M  V30 6497 C 654.568 0.51777 -1.95355 0
M  V30 6498 C 654.889 1.6617 -1.02042 0
M  V30 6499 O 654.159 1.95738 -0.0797343 0
M  V30 6500 H 652.739 0.194264 -0.721298 0
M  V30 6501 H 655.401 -0.207983 -1.93787 0
M  V30 6502 H 654.497 0.901675 -2.98791 0
M  V30 6503 N 654.798 1.5699 0.138552 0
M  V30 6504 C 655.745 1.98899 1.17081 0
M  V30 6505 C 656.715 0.857922 1.42228 0
M  V30 6506 O 657.9 1.12065 1.54422 0
M  V30 6507 C 655.04 2.38189 2.4972 0
M  V30 6508 C 654.153 3.64624 2.31674 0
M  V30 6509 C 653.288 3.9298 3.57407 0
M  V30 6510 C 652.327 5.1266 3.34435 0
M  V30 6511 N 651.464 5.36983 4.5232 0
M  V30 6512 H 656.304 2.86881 0.80642 0
M  V30 6513 H 653.841 1.41925 0.386727 0
M  V30 6514 H 655.799 2.59 3.2707 0
M  V30 6515 H 654.429 1.53275 2.84089 0
M  V30 6516 H 653.481 3.51542 1.45337 0
M  V30 6517 H 654.793 4.52131 2.10664 0
M  V30 6518 H 653.947 4.14335 4.43183 0
M  V30 6519 H 652.686 3.03912 3.8143 0
M  V30 6520 H 651.691 4.9117 2.47048 0
M  V30 6521 H 652.916 6.03288 3.11802 0
M  V30 6522 H 650.862 4.50871 4.76499 0
M  V30 6523 H 650.779 6.18775 4.34343 0
M  V30 6524 H 652.047 5.62842 5.39285 0
M  V30 6525 N 656.276 -0.40816 1.52223 0
M  V30 6526 C 657.223 -1.49737 1.75635 0
M  V30 6527 C 658.193 -1.5493 0.598824 0
M  V30 6528 O 659.378 -1.71487 0.83648 0
M  V30 6529 C 656.518 -2.87174 1.91376 0
M  V30 6530 C 655.631 -2.91283 3.19027 0
M  V30 6531 C 654.766 -4.20026 3.25195 0
M  V30 6532 C 653.805 -4.18113 4.47044 0
M  V30 6533 N 652.942 -5.38429 4.50598 0
M  V30 6534 H 657.782 -1.29075 2.68596 0
M  V30 6535 H 655.319 -0.626518 1.33091 0
M  V30 6536 H 657.277 -3.66959 1.98486 0
M  V30 6537 H 655.907 -3.06329 1.01795 0
M  V30 6538 H 654.959 -2.03984 3.21084 0
M  V30 6539 H 656.271 -2.85734 4.08849 0
M  V30 6540 H 655.425 -5.08204 3.31382 0
M  V30 6541 H 654.164 -4.28271 2.33313 0
M  V30 6542 H 653.169 -3.28325 4.41002 0
M  V30 6543 H 654.394 -4.11507 5.40221 0
M  V30 6544 H 652.34 -5.4734 3.616 0
M  V30 6545 H 652.257 -5.34879 5.34266 0
M  V30 6546 H 653.525 -6.28557 4.61016 0
M  V30 6547 N 657.755 -1.42862 -0.66545 0
M  V30 6548 C 658.688 -1.41509 -1.79026 0
M  V30 6549 C 659.666 -0.278106 -1.60204 0
M  V30 6550 O 660.85 -0.469792 -1.82552 0
M  V30 6551 C 657.977 -1.21494 -3.1616 0
M  V30 6552 C 657.023 -2.38308 -3.53711 0
M  V30 6553 S 657.856 -4.00852 -3.55075 0
M  V30 6554 C 659.012 -3.83197 -4.94885 0
M  V30 6555 H 659.245 -2.36691 -1.79902 0
M  V30 6556 H 656.778 -1.29746 -0.836977 0
M  V30 6557 H 658.736 -1.10633 -3.95311 0
M  V30 6558 H 657.397 -0.27881 -3.1286 0
M  V30 6559 H 656.59 -2.20076 -4.53412 0
M  V30 6560 H 656.192 -2.45732 -2.81943 0
M  V30 6561 H 658.484 -3.44765 -5.83218 0
M  V30 6562 H 659.427 -4.82607 -5.18166 0
M  V30 6563 H 659.835 -3.15884 -4.67843 0
M  V30 6564 N 659.233 0.902656 -1.29189 0
M  V30 6565 C 660.458 1.69167 -1.19989 0
M  V30 6566 C 660.883 1.86607 0.236495 0
M  V30 6567 O 660.241 1.38425 1.17082 0
M  V30 6568 C 660.289 3.05532 -1.91527 0
M  V30 6569 O 659.393 3.93621 -1.2303 0
M  V30 6570 H 658.734 0.517584 -0.415936 0
M  V30 6571 H 661.264 1.12785 -1.70706 0
M  V30 6572 H 661.274 3.55693 -1.99866 0
M  V30 6573 H 659.949 2.92156 -2.96003 0
M  V30 6574 H 658.526 3.52055 -1.22928 0
M  V30 6575 N 660.711 1.11618 1.11262 0
M  V30 6576 C 661.936 0.889013 1.8738 0
M  V30 6577 C 662.361 -0.555884 1.79698 0
M  V30 6578 O 661.719 -1.39272 1.16073 0
M  V30 6579 C 661.767 1.35759 3.34069 0
M  V30 6580 O 660.871 0.530499 4.08974 0
M  V30 6581 H 660.212 0.320082 0.581759 0
M  V30 6582 H 662.742 1.48611 1.40627 0
M  V30 6583 H 662.752 1.35291 3.84916 0
M  V30 6584 H 661.427 2.40973 3.38976 0
M  V30 6585 H 660.004 0.601439 3.68018 0
M  V30 6586 N 662.189 -1.289 0.906776 0
M  V30 6587 C 663.152 -2.25777 0.394656 0
M  V30 6588 C 664.152 -1.53621 -0.475119 0
M  V30 6589 O 665.342 -1.71949 -0.279165 0
M  V30 6590 C 662.474 -3.38113 -0.43499 0
M  V30 6591 H 663.667 -2.72592 1.25033 0
M  V30 6592 H 661.22 -1.40463 0.685547 0
M  V30 6593 H 661.955 -2.96648 -1.31036 0
M  V30 6594 H 661.74 -3.91647 0.188334 0
M  V30 6595 H 663.23 -4.10168 -0.784365 0
M  V30 6596 N 663.667 -0.670007 -1.42649 0
M  V30 6597 C 664.913 -0.190568 -2.01903 0
M  V30 6598 C 665.246 1.19817 -1.52832 0
M  V30 6599 O 664.521 1.80342 -0.728485 0
M  V30 6600 C 664.804 -0.21991 -3.59428 0
M  V30 6601 C 664.657 -1.64376 -4.18689 0
M  V30 6602 C 665.976 0.434519 -4.3795 0
M  V30 6603 H 663.095 -0.0707219 -0.733599 0
M  V30 6604 H 665.737 -0.853883 -1.69732 0
M  V30 6605 H 663.887 0.344894 -3.86966 0
M  V30 6606 H 665.559 -2.26044 -4.02122 0
M  V30 6607 H 663.802 -2.18591 -3.747 0
M  V30 6608 H 664.473 -1.61601 -5.27815 0
M  V30 6609 H 666.949 -0.0462156 -4.16074 0
M  V30 6610 H 665.825 0.38333 -5.4756 0
M  V30 6611 H 666.086 1.51135 -4.15464 0
M  V30 6612 N 665.145 1.52092 -0.413018 0
M  V30 6613 C 666.393 2.01456 0.161178 0
M  V30 6614 C 666.714 1.30034 1.45314 0
M  V30 6615 O 665.984 0.427435 1.9118 0
M  V30 6616 H 664.564 0.744376 0.0625526 0
M  V30 6617 H 667.226 1.86974 -0.550151 0
M  V30 6618 H 666.322 3.1008 0.354517 0
M  V30 6619 N 666.623 0.143563 1.56945 0
M  V30 6620 C 667.87 -0.508407 1.96014 0
M  V30 6621 C 668.198 -1.65099 1.02824 0
M  V30 6622 O 667.453 -1.95618 0.0567764 0
M  V30 6623 C 667.752 -1.05885 3.41355 0
M  V30 6624 C 667.418 -0.0350809 4.50886 0
M  V30 6625 C 666.08 0.246362 4.80569 0
M  V30 6626 C 668.432 0.661282 5.16988 0
M  V30 6627 C 665.76 1.23003 5.73661 0
M  V30 6628 C 668.112 1.63375 6.11139 0
M  V30 6629 C 666.776 1.92292 6.39203 0
M  V30 6630 H 666.046 -0.186039 0.717266 0
M  V30 6631 H 668.693 0.229667 1.90118 0
M  V30 6632 H 666.998 -1.87419 3.44066 0
M  V30 6633 H 668.695 -1.57183 3.6891 0
M  V30 6634 H 665.285 -0.264622 4.27782 0
M  V30 6635 H 669.469 0.457038 4.94191 0
M  V30 6636 H 664.725 1.46056 5.93698 0
M  V30 6637 H 668.899 2.17887 6.61436 0
M  V30 6638 H 666.526 2.68666 7.11142 0
M  V30 6639 N 668.101 -1.57061 -0.130224 0
M  V30 6640 C 669.347 -1.8453 -0.841216 0
M  V30 6641 C 669.68 -0.727666 -1.80052 0
M  V30 6642 O 668.955 0.267419 -1.92653 0
M  V30 6643 C 669.238 -3.22553 -1.60099 0
M  V30 6644 C 669.091 -4.44901 -0.662048 0
M  V30 6645 C 670.41 -3.58003 -2.55973 0
M  V30 6646 H 667.529 -0.671215 -0.304366 0
M  V30 6647 H 670.171 -1.89705 -0.105821 0
M  V30 6648 H 668.321 -3.18272 -2.22789 0
M  V30 6649 H 669.993 -4.61278 -0.0448559 0
M  V30 6650 H 668.236 -4.33791 0.0272253 0
M  V30 6651 H 668.907 -5.3812 -1.23006 0
M  V30 6652 H 671.383 -3.63002 -2.03393 0
M  V30 6653 H 670.259 -4.55576 -3.06172 0
M  V30 6654 H 670.52 -2.84833 -3.38116 0
M  V30 6655 N 669.579 0.400081 -1.52437 0
M  V30 6656 C 670.99 0.97851 -1.59003 0
M  V30 6657 C 671.341 1.91293 -0.436068 0
M  V30 6658 O 670.466 2.1183 0.442365 0
M  V30 6659 C 671.061 1.78145 -2.88184 0
M  V30 6660 C 669.62 2.30976 -2.97199 0
M  V30 6661 C 668.767 1.11212 -2.54022 0
M  V30 6662 H 671.718 0.180002 -1.57676 0
M  V30 6663 H 671.739 2.63968 -2.74046 0
M  V30 6664 H 671.251 1.1011 -3.72152 0
M  V30 6665 H 669.352 3.02355 -2.17744 0
M  V30 6666 H 669.465 2.61221 -4.01622 0
M  V30 6667 H 667.829 1.46882 -2.08081 0
M  V30 6668 H 668.612 0.447307 -3.40373 0
M  V30 6669 N 671.057 1.43213 0.657864 0
M  V30 6670 C 672.334 1.35063 1.41483 0
M  V30 6671 C 672.714 -0.0038314 2.111 0
M  V30 6672 O 672.062 -1.02018 2.04462 0
M  V30 6673 C 672.272 2.53061 2.40335 0
M  V30 6674 C 673.62 2.9594 3.04474 0
M  V30 6675 O 674.644 2.53074 2.50663 0
M  V30 6676 O 673.503 3.70184 4.02027 0
M  V30 6677 H 670.597 0.533517 0.631893 0
M  V30 6678 H 673.143 1.55253 0.685162 0
M  V30 6679 H 671.915 3.43283 1.87809 0
M  V30 6680 H 671.538 2.34945 3.20759 0
M  V30 6681 N 672.536 -0.895792 1.29666 0
M  V30 6682 C 673.764 -1.68001 1.20761 0
M  V30 6683 C 674.179 -1.87379 -0.231187 0
M  V30 6684 O 673.536 -1.41359 -1.15429 0
M  V30 6685 C 673.587 -3.06236 1.92098 0
M  V30 6686 O 673.308 -2.8774 3.30359 0
M  V30 6687 C 674.809 -4.00652 1.89717 0
M  V30 6688 H 672.029 -0.524591 0.418384 0
M  V30 6689 H 674.573 -1.11995 1.71106 0
M  V30 6690 H 672.728 -3.59007 1.45578 0
M  V30 6691 H 673.142 -3.75359 3.66342 0
M  V30 6692 H 674.616 -4.95051 2.44189 0
M  V30 6693 H 675.093 -4.30424 0.873595 0
M  V30 6694 H 675.699 -3.53815 2.35998 0
M  V30 6695 N 674.014 -1.12206 -1.10668 0
M  V30 6696 C 675.262 -0.874144 -1.82217 0
M  V30 6697 C 675.583 0.601736 -1.85484 0
M  V30 6698 O 674.853 1.43725 -1.33116 0
M  V30 6699 H 673.433 -0.320404 -0.674797 0
M  V30 6700 H 676.095 -1.41606 -1.33917 0
M  V30 6701 H 675.191 -1.25349 -2.85822 0
M  V30 6702 N 675.492 1.28418 -0.913599 0
M  V30 6703 C 676.903 1.77024 -0.593237 0
M  V30 6704 C 677.254 1.74779 0.891441 0
M  V30 6705 O 676.379 1.34237 1.69733 0
M  V30 6706 C 676.974 3.21456 -1.07011 0
M  V30 6707 C 675.533 3.67786 -0.800664 0
M  V30 6708 C 674.68 2.48185 -1.23691 0
M  V30 6709 H 677.631 1.14883 -1.09487 0
M  V30 6710 H 677.652 3.78269 -0.411481 0
M  V30 6711 H 677.164 3.23058 -2.1507 0
M  V30 6712 H 675.265 3.71644 0.266725 0
M  V30 6713 H 675.378 4.57934 -1.4083 0
M  V30 6714 H 673.742 2.46116 -0.655655 0
M  V30 6715 H 674.525 2.52506 -2.32585 0
M  V30 6716 N 676.97 0.677563 1.42291 0
M  V30 6717 C 677.933 0.0101085 2.29198 0
M  V30 6718 C 678.933 -0.726219 1.43467 0
M  V30 6719 O 680.123 -0.563807 1.64824 0
M  V30 6720 C 677.255 -0.996316 3.26016 0
M  V30 6721 H 678.448 0.775071 2.89711 0
M  V30 6722 H 676.001 0.440065 1.49977 0
M  V30 6723 H 676.736 -1.78967 2.70446 0
M  V30 6724 H 676.521 -0.471687 3.89253 0
M  V30 6725 H 678.011 -1.46167 3.91184 0
M  V30 6726 N 678.448 -1.51871 0.421078 0
M  V30 6727 C 679.673 -2.0684 -0.152371 0
M  V30 6728 C 680.098 -1.28802 -1.37083 0
M  V30 6729 O 679.456 -0.321482 -1.78427 0
M  V30 6730 C 679.504 -3.57532 -0.469368 0
M  V30 6731 O 678.608 -3.81818 -1.55848 0
M  V30 6732 H 677.949 -0.663939 -0.00898586 0
M  V30 6733 H 680.479 -1.95674 0.597724 0
M  V30 6734 H 680.489 -4.01515 -0.724553 0
M  V30 6735 H 679.164 -4.13761 0.421276 0
M  V30 6736 H 677.741 -3.49709 -1.29453 0
M  V30 6737 N 679.926 -0.151884 -1.56866 0
M  V30 6738 C 681.342 0.204486 -1.58285 0
M  V30 6739 C 681.542 1.6431 -1.16639 0
M  V30 6740 O 680.598 2.37077 -0.868946 0
M  V30 6741 C 681.911 -0.0587019 -3.00643 0
M  V30 6742 C 683.459 0.00462303 -3.13 0
M  V30 6743 C 683.934 -0.231297 -4.57416 0
M  V30 6744 N 685.425 -0.178394 -4.62856 0
M  V30 6745 C 686.16 -0.335379 -5.72418 0
M  V30 6746 N 685.656 -0.550355 -6.90611 0
M  V30 6747 N 687.449 -0.272641 -5.61438 0
M  V30 6748 H 679.6 -1.09116 -1.82229 0
M  V30 6749 H 681.863 -0.432311 -0.843689 0
M  V30 6750 H 681.569 -1.05453 -3.35518 0
M  V30 6751 H 681.443 0.658508 -3.71407 0
M  V30 6752 H 683.83 0.991009 -2.77962 0
M  V30 6753 H 683.911 -0.744992 -2.44711 0
M  V30 6754 H 683.555 -1.2148 -4.93158 0
M  V30 6755 H 683.485 0.5387 -5.23837 0
M  V30 6756 H 685.976 -0.0170923 -3.77896 0
M  V30 6757 H 686.289 -0.660116 -7.69976 0
M  V30 6758 H 684.634 -0.586736 -6.92519 0
M  V30 6759 H 687.825 -0.105421 -4.67981 0
M  V30 6760 H 687.998 -0.398418 -6.46774 0
M  V30 6761 N 681.404 1.57128 0.121893 0
M  V30 6762 C 682.629 1.89254 0.848385 0
M  V30 6763 C 683.054 0.743527 1.72781 0
M  V30 6764 O 682.412 -0.306056 1.78698 0
M  V30 6765 C 682.46 3.20113 1.66012 0
M  V30 6766 O 681.564 3.05815 2.76679 0
M  V30 6767 H 680.905 0.621103 0.234793 0
M  V30 6768 H 683.435 2.0433 0.10516 0
M  V30 6769 H 683.445 3.52761 2.04996 0
M  V30 6770 H 682.12 4.03336 1.01452 0
M  V30 6771 H 680.697 2.84627 2.40918 0
M  V30 6772 N 682.882 -0.391992 1.52647 0
M  V30 6773 C 684.128 -1.139 1.67793 0
M  V30 6774 C 684.461 -1.89711 0.41514 0
M  V30 6775 O 683.736 -1.85431 -0.586979 0
M  V30 6776 C 684.019 -2.11966 2.91105 0
M  V30 6777 C 683.872 -1.39939 4.27478 0
M  V30 6778 C 685.191 -3.1243 3.09961 0
M  V30 6779 H 682.31 -0.412707 0.610608 0
M  V30 6780 H 684.952 -0.422725 1.85238 0
M  V30 6781 H 683.102 -2.73048 2.76364 0
M  V30 6782 H 684.774 -0.818439 4.53982 0
M  V30 6783 H 683.017 -0.701246 4.28095 0
M  V30 6784 H 683.688 -2.1158 5.09841 0
M  V30 6785 H 686.164 -2.61435 3.23714 0
M  V30 6786 H 685.04 -3.78294 3.97725 0
M  V30 6787 H 685.301 -3.81127 2.24042 0
M  V30 6788 N 684.36 -1.4356 -0.65026 0
M  V30 6789 C 685.609 -1.44619 -1.406 0
M  V30 6790 C 685.922 -0.0752645 -1.95455 0
M  V30 6791 O 687.128 0.0366832 -2.71475 0
M  V30 6792 C 685.584 -2.54511 -2.54465 0
M  V30 6793 C 685.192 -3.97723 -2.06204 0
M  V30 6794 C 686.936 -2.64768 -3.31811 0
M  V30 6795 C 684.843 -4.99075 -3.17298 0
M  V30 6796 H 683.773 -0.537983 -0.52829 0
M  V30 6797 H 686.424 -1.69559 -0.701561 0
M  V30 6798 H 684.806 -2.22777 -3.27393 0
M  V30 6799 H 685.98 -4.38932 -1.40267 0
M  V30 6800 H 684.295 -3.91538 -1.41729 0
M  V30 6801 H 686.892 -3.37664 -4.14593 0
M  V30 6802 H 687.235 -1.69936 -3.80036 0
M  V30 6803 H 687.768 -2.95817 -2.65964 0
M  V30 6804 H 684.507 -5.95469 -2.74038 0
M  V30 6805 H 684.027 -4.62476 -3.81937 0
M  V30 6806 H 685.706 -5.21913 -3.82382 0
M  V30 6807 N 685.838 0.888903 -1.30139 0
M  V30 6808 C 687.254 1.17153 -1.08385 0
M  V30 6809 C 687.454 2.0088 0.157925 0
M  V30 6810 O 686.51 2.37668 0.852652 0
M  V30 6811 C 687.823 1.882 -2.34523 0
M  V30 6812 C 689.371 2.00981 -2.39949 0
M  V30 6813 C 689.846 2.75441 -3.65918 0
M  V30 6814 N 691.337 2.82989 -3.66704 0
M  V30 6815 C 692.072 3.41167 -4.60861 0
M  V30 6816 N 691.568 4.00425 -5.6536 0
M  V30 6817 N 693.361 3.38944 -4.48412 0
M  V30 6818 H 685.512 0.33053 -2.09812 0
M  V30 6819 H 687.775 0.208964 -0.924683 0
M  V30 6820 H 687.481 1.34119 -3.25123 0
M  V30 6821 H 687.355 2.88609 -2.42868 0
M  V30 6822 H 689.742 2.54234 -1.4983 0
M  V30 6823 H 689.823 0.996725 -2.35582 0
M  V30 6824 H 689.467 2.22861 -4.56394 0
M  V30 6825 H 689.397 3.77118 -3.67546 0
M  V30 6826 H 691.888 2.40912 -2.91153 0
M  V30 6827 H 692.201 4.42871 -6.33313 0
M  V30 6828 H 690.546 3.98856 -5.69157 0
M  V30 6829 H 693.737 2.91875 -3.6596 0
M  V30 6830 H 693.91 3.83989 -5.21974 0
M  V30 6831 N 687.317 1.12792 1.10072 0
M  V30 6832 C 688.542 0.908838 1.86427 0
M  V30 6833 C 688.967 -0.536793 1.80278 0
M  V30 6834 O 688.325 -1.38033 1.17543 0
M  V30 6835 C 688.373 1.39295 3.3261 0
M  V30 6836 O 687.477 0.573846 4.08388 0
M  V30 6837 H 686.818 0.326234 0.578331 0
M  V30 6838 H 689.348 1.50094 1.39043 0
M  V30 6839 H 689.358 1.39366 3.83459 0
M  V30 6840 H 688.033 2.44555 3.36401 0
M  V30 6841 H 686.61 0.640438 3.67359 0
M  V30 6842 N 688.795 -1.27931 0.920396 0
M  V30 6843 C 690.044 -1.93975 0.552867 0
M  V30 6844 C 690.357 -1.73193 -0.909035 0
M  V30 6845 O 691.563 -2.33515 -1.38502 0
M  V30 6846 C 690.019 -3.47463 0.937947 0
M  V30 6847 C 689.627 -3.77013 2.42003 0
M  V30 6848 C 691.371 -4.19628 0.64132 0
M  V30 6849 C 689.278 -5.23841 2.74489 0
M  V30 6850 H 688.208 -0.726146 0.203046 0
M  V30 6851 H 690.859 -1.45339 1.12022 0
M  V30 6852 H 689.241 -3.94867 0.299317 0
M  V30 6853 H 690.415 -3.40393 3.10595 0
M  V30 6854 H 688.73 -3.18035 2.6878 0
M  V30 6855 H 691.327 -5.27729 0.860622 0
M  V30 6856 H 691.67 -4.14164 -0.421168 0
M  V30 6857 H 692.203 -3.78022 1.23872 0
M  V30 6858 H 688.942 -5.34388 3.79618 0
M  V30 6859 H 688.462 -5.61634 2.1054 0
M  V30 6860 H 690.141 -5.91647 2.61845 0
M  V30 6861 N 690.273 -0.685099 -1.4193 0
M  V30 6862 C 691.522 -0.208816 -2.00616 0
M  V30 6863 C 691.835 1.19506 -1.54847 0
M  V30 6864 O 693.041 1.76826 -2.06021 0
M  V30 6865 C 691.497 -0.322446 -3.58453 0
M  V30 6866 C 691.105 -1.73102 -4.13206 0
M  V30 6867 C 692.849 0.0945979 -4.24395 0
M  V30 6868 C 690.756 -1.79687 -5.63442 0
M  V30 6869 H 689.686 -0.0743092 -0.750329 0
M  V30 6870 H 692.337 -0.851778 -1.62533 0
M  V30 6871 H 690.719 0.388588 -3.94089 0
M  V30 6872 H 691.893 -2.46997 -3.8901 0
M  V30 6873 H 690.208 -2.09682 -3.59753 0
M  V30 6874 H 692.805 0.0656937 -5.3466 0
M  V30 6875 H 693.148 1.1316 -4.00625 0
M  V30 6876 H 693.681 -0.56579 -3.93756 0
M  V30 6877 H 690.42 -2.81404 -5.92024 0
M  V30 6878 H 689.94 -1.10162 -5.89597 0
M  V30 6879 H 691.619 -1.55498 -6.28036 0
M  V30 6880 N 691.751 1.51645 -0.429126 0
M  V30 6881 C 692.698 2.27542 0.386446 0
M  V30 6882 C 693.668 1.30786 1.02393 0
M  V30 6883 O 694.853 1.59678 1.0444 0
M  V30 6884 C 691.993 3.11457 1.48623 0
M  V30 6885 C 691.106 4.23196 0.867691 0
M  V30 6886 C 690.241 4.94435 1.94183 0
M  V30 6887 C 689.28 5.98108 1.30129 0
M  V30 6888 N 688.417 6.62786 2.31644 0
M  V30 6889 H 693.257 2.968 -0.267155 0
M  V30 6890 H 690.794 1.46397 -0.143591 0
M  V30 6891 H 692.752 3.58429 2.13506 0
M  V30 6892 H 691.382 2.44329 2.10957 0
M  V30 6893 H 690.434 3.80248 0.107373 0
M  V30 6894 H 691.746 4.97499 0.35997 0
M  V30 6895 H 690.9 5.44914 2.66747 0
M  V30 6896 H 689.639 4.19744 2.48326 0
M  V30 6897 H 688.644 5.4693 0.561082 0
M  V30 6898 H 689.869 6.74751 0.767303 0
M  V30 6899 H 687.815 5.90913 2.84883 0
M  V30 6900 H 687.732 7.32828 1.85741 0
M  V30 6901 H 689 7.17897 3.03717 0
M  V30 6902 N 693.229 0.160201 1.56784 0
M  V30 6903 C 694.454 -0.497373 2.01348 0
M  V30 6904 C 694.879 -1.56757 1.03966 0
M  V30 6905 O 694.237 -1.81292 0.0174455 0
M  V30 6906 C 694.285 -1.0628 3.44582 0
M  V30 6907 O 693.389 -2.17723 3.50244 0
M  V30 6908 H 692.73 -0.120295 0.653012 0
M  V30 6909 H 695.26 0.260821 2.02931 0
M  V30 6910 H 695.27 -1.38819 3.83658 0
M  V30 6911 H 693.945 -0.279166 4.14962 0
M  V30 6912 H 692.522 -1.86313 3.2302 0
M  V30 6913 N 694.707 -1.5719 -0.113559 0
M  V30 6914 C 695.932 -1.89702 -0.838336 0
M  V30 6915 C 696.357 -0.752679 -1.72384 0
M  V30 6916 O 695.715 0.296575 -1.78858 0
M  V30 6917 C 695.763 -3.20989 -1.64312 0
M  V30 6918 O 694.867 -3.07278 -2.75053 0
M  V30 6919 H 694.208 -0.622339 -0.231496 0
M  V30 6920 H 696.738 -2.04382 -0.0943228 0
M  V30 6921 H 696.748 -3.53843 -2.03123 0
M  V30 6922 H 695.423 -4.03869 -0.993119 0
M  V30 6923 H 694 -2.85901 -2.39406 0
M  V30 6924 N 696.185 0.383891 -1.52853 0
M  V30 6925 C 697.601 0.724316 -1.42218 0
M  V30 6926 C 697.801 1.93943 -0.546654 0
M  V30 6927 O 696.857 2.5249 -0.0220562 0
M  V30 6928 C 698.17 0.954635 -2.85144 0
M  V30 6929 C 699.718 1.05579 -2.94656 0
M  V30 6930 C 700.193 1.3187 -4.38605 0
M  V30 6931 N 701.684 1.38681 -4.41952 0
M  V30 6932 C 702.419 1.60699 -5.50421 0
M  V30 6933 N 701.915 1.80154 -6.68967 0
M  V30 6934 N 703.708 1.6292 -5.37972 0
M  V30 6935 H 695.859 -0.4156 -2.08294 0
M  V30 6936 H 698.122 -0.123776 -0.939885 0
M  V30 6937 H 697.828 0.133829 -3.51445 0
M  V30 6938 H 697.702 1.86788 -3.27704 0
M  V30 6939 H 700.089 1.86716 -2.2852 0
M  V30 6940 H 700.17 0.120338 -2.55517 0
M  V30 6941 H 699.814 0.512416 -5.05309 0
M  V30 6942 H 699.744 2.26708 -4.75301 0
M  V30 6943 H 702.235 1.25334 -3.56511 0
M  V30 6944 H 702.548 1.96476 -7.47407 0
M  V30 6945 H 700.893 1.77368 -6.71986 0
M  V30 6946 H 704.084 1.47276 -4.44328 0
M  V30 6947 H 704.257 1.79739 -6.22574 0
M  V30 6948 N 697.663 1.43903 0.642637 0
M  V30 6949 C 698.593 1.52697 1.76652 0
M  V30 6950 C 699.574 0.380816 1.65782 0
M  V30 6951 O 700.759 0.599432 1.84717 0
M  V30 6952 C 697.889 1.45975 3.15133 0
M  V30 6953 C 696.843 2.58949 3.40778 0
M  V30 6954 C 696.169 2.37279 4.79169 0
M  V30 6955 C 697.469 4.01153 3.34475 0
M  V30 6956 H 699.163 2.46766 1.69549 0
M  V30 6957 H 696.709 1.18767 0.814279 0
M  V30 6958 H 698.662 1.5073 3.93521 0
M  V30 6959 H 697.386 0.484162 3.22991 0
M  V30 6960 H 696.045 2.53564 2.64765 0
M  V30 6961 H 695.693 1.37939 4.83717 0
M  V30 6962 H 695.393 3.13016 4.97287 0
M  V30 6963 H 696.917 2.43834 5.59801 0
M  V30 6964 H 698.331 4.07968 4.02784 0
M  V30 6965 H 696.728 4.77001 3.64129 0
M  V30 6966 H 697.798 4.25539 2.32475 0
M  V30 6967 N 699.141 -0.881989 1.30609 0
M  V30 6968 C 700.051 -2.02076 1.19174 0
M  V30 6969 C 701.067 -1.73645 0.11102 0
M  V30 6970 O 702.243 -1.98735 0.326528 0
M  V30 6971 C 699.308 -3.3515 0.887438 0
M  V30 6972 C 698.369 -3.76983 2.05383 0
M  V30 6973 C 697.602 -5.03707 1.76395 0
M  V30 6974 O 697.825 -5.66171 0.693302 0
M  V30 6975 O 696.759 -5.42019 2.61723 0
M  V30 6976 H 700.585 -2.14652 2.14845 0
M  V30 6977 H 698.17 -1.00843 1.10232 0
M  V30 6978 H 700.052 -4.14975 0.73306 0
M  V30 6979 H 698.727 -3.23676 -0.0393354 0
M  V30 6980 H 697.634 -2.97849 2.26355 0
M  V30 6981 H 698.967 -3.93066 2.96243 0
M  V30 6982 N 700.619 -1.13374 -1.09472 0
M  V30 6983 C 701.529 -0.824029 -2.19652 0
M  V30 6984 C 702.545 0.19118 -1.72947 0
M  V30 6985 O 703.721 0.0223464 -2.01388 0
M  V30 6986 C 700.786 -0.294009 -3.45451 0
M  V30 6987 C 699.847 -1.3704 -4.0684 0
M  V30 6988 C 699.08 -0.86558 -5.26634 0
M  V30 6989 O 699.303 0.29702 -5.69626 0
M  V30 6990 O 698.237 -1.63968 -5.79136 0
M  V30 6991 H 702.063 -1.74454 -2.48595 0
M  V30 6992 H 699.648 -0.911155 -1.18399 0
M  V30 6993 H 701.53 -0.00381039 -4.214 0
M  V30 6994 H 700.205 0.598921 -3.18111 0
M  V30 6995 H 699.112 -1.71391 -3.3253 0
M  V30 6996 H 700.445 -2.23746 -4.38405 0
M  V30 6997 N 702.098 1.27442 -0.927168 0
M  V30 6998 C 703.375 1.89473 -0.485742 0
M  V30 6999 C 703.755 1.83922 1.03614 0
M  V30 7000 O 703.103 1.28409 1.89007 0
M  V30 7001 C 703.313 3.33417 -1.03123 0
M  V30 7002 C 704.661 4.10333 -1.0914 0
M  V30 7003 O 705.685 3.4243 -0.98082 0
M  V30 7004 O 704.544 5.31737 -1.26165 0
M  V30 7005 H 701.638 0.812124 -0.156154 0
M  V30 7006 H 704.184 1.35713 -1.01882 0
M  V30 7007 H 702.956 3.31747 -2.07508 0
M  V30 7008 H 702.579 3.94695 -0.479767 0
M  V30 7009 N 703.576 0.692616 1.41565 0
M  V30 7010 C 704.992 0.363878 1.55397 0
M  V30 7011 C 705.192 -1.1294 1.66874 0
M  V30 7012 O 704.248 -1.91517 1.64552 0
M  V30 7013 C 705.561 1.10982 2.7947 0
M  V30 7014 C 707.109 1.09387 2.93263 0
M  V30 7015 C 707.584 1.8215 4.20221 0
M  V30 7016 N 709.075 1.79105 4.27172 0
M  V30 7017 C 709.81 2.32247 5.2426 0
M  V30 7018 N 709.306 2.93847 6.27396 0
M  V30 7019 N 711.099 2.22519 5.1618 0
M  V30 7020 H 703.25 1.66116 1.3236 0
M  V30 7021 H 705.513 0.700848 0.63837 0
M  V30 7022 H 705.219 2.1647 2.77188 0
M  V30 7023 H 705.093 0.686492 3.709 0
M  V30 7024 H 707.48 0.0472638 2.95062 0
M  V30 7025 H 707.561 1.55623 2.03015 0
M  V30 7026 H 707.205 2.86789 4.19183 0
M  V30 7027 H 707.135 1.33351 5.09436 0
M  V30 7028 H 709.626 1.34191 3.53272 0
M  V30 7029 H 709.939 3.31972 6.97864 0
M  V30 7030 H 708.284 2.97924 6.27906 0
M  V30 7031 H 711.475 1.7407 4.34531 0
M  V30 7032 H 711.648 2.64239 5.91677 0
M  V30 7033 N 705.054 -1.51416 0.437162 0
M  V30 7034 C 706.001 -2.27743 -0.374374 0
M  V30 7035 C 706.971 -1.31327 -1.01698 0
M  V30 7036 O 708.156 -1.60229 -1.03592 0
M  V30 7037 C 705.296 -3.12241 -1.46969 0
M  V30 7038 C 704.409 -4.23651 -0.845236 0
M  V30 7039 C 703.544 -4.95458 -1.91559 0
M  V30 7040 C 702.583 -5.98789 -1.26956 0
M  V30 7041 N 701.72 -6.64005 -2.28126 0
M  V30 7042 H 706.56 -2.96654 0.282892 0
M  V30 7043 H 704.097 -1.46319 0.151352 0
M  V30 7044 H 706.055 -3.59556 -2.11602 0
M  V30 7045 H 704.685 -2.45445 -2.09659 0
M  V30 7046 H 703.737 -3.803 -0.0872059 0
M  V30 7047 H 705.049 -4.97683 -0.333582 0
M  V30 7048 H 704.203 -5.46321 -2.63854 0
M  V30 7049 H 702.942 -4.21055 -2.46097 0
M  V30 7050 H 701.947 -5.47219 -0.53207 0
M  V30 7051 H 703.172 -6.75149 -0.731509 0
M  V30 7052 H 701.118 -5.92415 -2.81745 0
M  V30 7053 H 701.035 -7.33802 -1.81852 0
M  V30 7054 H 702.303 -7.19498 -2.99905 0
M  V30 7055 N 706.532 -0.168513 -1.56696 0
M  V30 7056 C 707.948 0.187686 -1.58493 0
M  V30 7057 C 708.148 1.63063 -1.18375 0
M  V30 7058 O 707.204 2.36142 -0.894042 0
M  V30 7059 C 708.517 -0.0905858 -3.00564 0
M  V30 7060 C 710.065 -0.028575 -3.12987 0
M  V30 7061 C 710.54 -0.279799 -4.57145 0
M  V30 7062 N 712.031 -0.227476 -4.62641 0
M  V30 7063 C 712.766 -0.396073 -5.7203 0
M  V30 7064 N 712.262 -0.623572 -6.89988 0
M  V30 7065 N 714.055 -0.332173 -5.61118 0
M  V30 7066 H 706.206 -1.11042 -1.81062 0
M  V30 7067 H 708.469 -0.441235 -0.839056 0
M  V30 7068 H 708.175 -1.09006 -3.34381 0
M  V30 7069 H 708.049 0.619078 -3.72085 0
M  V30 7070 H 710.436 0.961471 -2.78998 0
M  V30 7071 H 710.517 -0.770905 -2.43907 0
M  V30 7072 H 710.161 -1.26704 -4.91842 0
M  V30 7073 H 710.091 0.48311 -5.24379 0
M  V30 7074 H 712.582 -0.0571723 -3.77857 0
M  V30 7075 H 712.895 -0.741745 -7.69232 0
M  V30 7076 H 711.24 -0.660153 -6.91858 0
M  V30 7077 H 714.431 -0.155051 -4.67843 0
M  V30 7078 H 714.604 -0.466994 -6.46315 0
M  V30 7079 N 708.01 1.57248 0.105221 0
M  V30 7080 C 709.24 1.89492 0.823175 0
M  V30 7081 C 709.648 0.75934 1.73294 0
M  V30 7082 O 708.991 -0.278182 1.81581 0
M  V30 7083 C 709.053 3.16891 1.69765 0
M  V30 7084 C 708.717 4.46787 0.960769 0
M  V30 7085 C 709.714 5.19061 0.295218 0
M  V30 7086 C 707.399 4.93467 0.937854 0
M  V30 7087 C 709.393 6.36246 -0.383393 0
M  V30 7088 C 707.08 6.10566 0.255452 0
M  V30 7089 C 708.078 6.81804 -0.404003 0
M  V30 7090 O 707.766 7.96673 -1.07549 0
M  V30 7091 H 707.498 0.631512 0.24118 0
M  V30 7092 H 710.052 2.05203 0.0899655 0
M  V30 7093 H 708.282 2.973 2.47285 0
M  V30 7094 H 709.971 3.35046 2.29126 0
M  V30 7095 H 710.737 4.84044 0.304448 0
M  V30 7096 H 706.616 4.37913 1.44058 0
M  V30 7097 H 710.16 6.91787 -0.898696 0
M  V30 7098 H 706.057 6.45039 0.244032 0
M  V30 7099 H 706.825 8.12596 -0.981355 0
M  V30 7100 N 709.488 -0.375779 1.53054 0
M  V30 7101 C 710.418 -1.46598 1.81745 0
M  V30 7102 C 711.399 -1.56337 0.670286 0
M  V30 7103 O 712.584 -1.71071 0.919158 0
M  V30 7104 C 709.714 -2.84058 1.99821 0
M  V30 7105 C 708.668 -2.8915 3.15557 0
M  V30 7106 C 707.994 -4.29187 3.18908 0
M  V30 7107 C 709.294 -2.57595 4.54359 0
M  V30 7108 H 710.988 -1.22837 2.73041 0
M  V30 7109 H 708.534 -0.589485 1.31381 0
M  V30 7110 H 710.487 -3.60342 2.18475 0
M  V30 7111 H 709.211 -3.09184 1.05226 0
M  V30 7112 H 707.87 -2.15316 2.96706 0
M  V30 7113 H 707.518 -4.51374 2.2197 0
M  V30 7114 H 707.218 -4.33512 3.96662 0
M  V30 7115 H 708.742 -5.07359 3.39734 0
M  V30 7116 H 710.156 -3.23595 4.73243 0
M  V30 7117 H 708.553 -2.73252 5.34279 0
M  V30 7118 H 709.623 -1.52882 4.60169 0
M  V30 7119 N 710.966 -1.44241 -0.634997 0
M  V30 7120 C 711.899 -1.45274 -1.75985 0
M  V30 7121 C 712.877 -0.312025 -1.59578 0
M  V30 7122 O 714.061 -0.508409 -1.81514 0
M  V30 7123 C 711.188 -1.28173 -3.13511 0
M  V30 7124 C 710.234 -2.45757 -3.48576 0
M  V30 7125 S 711.067 -4.08293 -3.46492 0
M  V30 7126 C 712.223 -3.93608 -4.86645 0
M  V30 7127 H 712.456 -2.40454 -1.74841 0
M  V30 7128 H 709.989 -1.31492 -0.809268 0
M  V30 7129 H 711.947 -1.18993 -3.92875 0
M  V30 7130 H 710.608 -0.34511 -3.12198 0
M  V30 7131 H 709.801 -2.29644 -4.48642 0
M  V30 7132 H 709.403 -2.51657 -2.76667 0
M  V30 7133 H 711.695 -3.57059 -5.75774 0
M  V30 7134 H 712.638 -4.9349 -5.07813 0
M  V30 7135 H 713.046 -3.25737 -4.61038 0
M  V30 7136 N 712.444 0.87505 -1.31075 0
M  V30 7137 C 713.672 1.66058 -1.23419 0
M  V30 7138 C 714.087 1.87723 0.201347 0
M  V30 7139 O 713.444 1.43178 1.13165 0
M  V30 7140 C 713.495 3.03142 -1.96945 0
M  V30 7141 O 713.216 2.82448 -3.34895 0
M  V30 7142 C 714.717 3.97583 -1.96067 0
M  V30 7143 H 711.937 0.517868 -0.426677 0
M  V30 7144 H 714.481 1.09258 -1.72867 0
M  V30 7145 H 712.636 3.56645 -1.51271 0
M  V30 7146 H 713.05 3.69483 -3.72267 0
M  V30 7147 H 714.524 4.91104 -2.52034 0
M  V30 7148 H 715.001 4.2898 -0.941961 0
M  V30 7149 H 715.607 3.50015 -2.41597 0
M  V30 7150 N 713.922 1.13953 1.08869 0
M  V30 7151 C 714.852 0.844824 2.17681 0
M  V30 7152 C 715.833 -0.198213 1.68941 0
M  V30 7153 O 717.018 -0.0559073 1.9412 0
M  V30 7154 C 714.148 0.316325 3.45856 0
M  V30 7155 C 713.102 1.29426 4.07962 0
M  V30 7156 C 712.428 0.625275 5.31031 0
M  V30 7157 C 713.728 2.65484 4.49795 0
M  V30 7158 H 715.422 1.75471 2.42591 0
M  V30 7159 H 712.968 0.845116 1.16592 0
M  V30 7160 H 714.921 0.0977876 4.21287 0
M  V30 7161 H 713.645 -0.628972 3.20486 0
M  V30 7162 H 712.304 1.49889 3.34558 0
M  V30 7163 H 711.952 -0.325678 5.01945 0
M  V30 7164 H 711.652 1.27777 5.73539 0
M  V30 7165 H 713.176 0.416152 6.0918 0
M  V30 7166 H 714.59 2.48957 5.16424 0
M  V30 7167 H 712.987 3.26963 5.03205 0
M  V30 7168 H 714.057 3.22717 3.61914 0
M  V30 7169 N 715.4 -1.26948 0.933913 0
M  V30 7170 C 716.33 -2.29017 0.45534 0
M  V30 7171 C 717.311 -1.62961 -0.487605 0
M  V30 7172 O 718.496 -1.90223 -0.391022 0
M  V30 7173 C 715.626 -3.46112 -0.287015 0
M  V30 7174 C 714.58 -4.24205 0.568682 0
M  V30 7175 C 713.906 -5.3384 -0.303206 0
M  V30 7176 C 715.206 -4.88954 1.83633 0
M  V30 7177 H 716.9 -2.69298 1.30839 0
M  V30 7178 H 714.446 -1.29459 0.630579 0
M  V30 7179 H 716.399 -4.16622 -0.6328 0
M  V30 7180 H 715.123 -3.04765 -1.17414 0
M  V30 7181 H 713.782 -3.5545 0.897261 0
M  V30 7182 H 713.43 -4.88734 -1.18947 0
M  V30 7183 H 713.13 -5.86998 0.265879 0
M  V30 7184 H 714.654 -6.0719 -0.644423 0
M  V30 7185 H 716.068 -5.51717 1.55823 0
M  V30 7186 H 714.465 -5.52198 2.34941 0
M  V30 7187 H 715.535 -4.12305 2.55211 0
M  V30 7188 N 716.879 -0.700114 -1.41195 0
M  V30 7189 C 718.156 -0.160836 -1.94938 0
M  V30 7190 C 718.536 1.33014 -1.63922 0
M  V30 7191 O 717.884 2.07878 -0.948636 0
M  V30 7192 C 718.094 -0.456991 -3.45995 0
M  V30 7193 C 719.442 -0.387207 -4.22831 0
M  V30 7194 O 720.466 -0.392164 -3.54035 0
M  V30 7195 O 719.325 -0.351267 -5.4537 0
M  V30 7196 H 716.419 -0.0176304 -0.826812 0
M  V30 7197 H 718.965 -0.776586 -1.50888 0
M  V30 7198 H 717.737 -1.48884 -3.61869 0
M  V30 7199 H 717.36 0.189503 -3.97148 0
M  V30 7200 N 718.357 1.51182 -0.445186 0
M  V30 7201 C 719.634 1.9478 0.178965 0
M  V30 7202 C 720.014 1.38428 1.59376 0
M  V30 7203 O 719.362 0.574552 2.21159 0
M  V30 7204 C 719.572 3.48683 0.148711 0
M  V30 7205 C 720.92 4.23152 0.35042 0
M  V30 7206 O 721.944 3.55479 0.226474 0
M  V30 7207 O 720.803 5.4322 0.597893 0
M  V30 7208 H 717.897 0.817387 0.12573 0
M  V30 7209 H 720.443 1.62051 -0.503729 0
M  V30 7210 H 719.215 3.82176 -0.84009 0
M  V30 7211 H 718.838 3.87875 0.873979 0
M  V30 7212 N 719.835 0.176821 1.56605 0
M  V30 7213 C 721.084 -0.466833 1.96223 0
M  V30 7214 C 721.397 -1.64015 1.06576 0
M  V30 7215 O 722.603 -2.3504 1.35898 0
M  V30 7216 C 721.059 -0.881921 3.48927 0
M  V30 7217 C 720.667 0.266102 4.47209 0
M  V30 7218 C 722.411 -1.49368 3.97353 0
M  V30 7219 C 720.318 -0.168923 5.91159 0
M  V30 7220 H 719.248 -0.178178 0.732645 0
M  V30 7221 H 721.899 0.265929 1.81563 0
M  V30 7222 H 720.281 -1.67082 3.59026 0
M  V30 7223 H 721.455 1.04349 4.4883 0
M  V30 7224 H 719.77 0.788178 4.08872 0
M  V30 7225 H 722.367 -1.8313 5.02362 0
M  V30 7226 H 722.71 -2.3936 3.40606 0
M  V30 7227 H 723.243 -0.769114 3.90294 0
M  V30 7228 H 719.982 0.696351 6.51791 0
M  V30 7229 H 719.502 -0.911552 5.92833 0
M  V30 7230 H 721.181 -0.610938 6.44109 0
M  V30 7231 N 721.313 -1.57302 -0.09688 0
M  V30 7232 C 722.26 -2.01933 -1.11766 0
M  V30 7233 C 723.23 -0.895329 -1.39904 0
M  V30 7234 O 724.415 -1.16119 -1.51397 0
M  V30 7235 C 721.555 -2.44726 -2.43317 0
M  V30 7236 C 720.668 -3.70639 -2.21925 0
M  V30 7237 C 719.803 -4.02318 -3.46862 0
M  V30 7238 C 718.842 -5.21346 -3.20725 0
M  V30 7239 N 717.979 -5.48787 -4.37924 0
M  V30 7240 H 722.819 -2.88919 -0.730075 0
M  V30 7241 H 720.356 -1.42901 -0.348962 0
M  V30 7242 H 722.314 -2.6758 -3.20088 0
M  V30 7243 H 720.944 -1.60753 -2.79926 0
M  V30 7244 H 719.996 -3.55271 -1.35965 0
M  V30 7245 H 721.308 -4.57557 -1.98603 0
M  V30 7246 H 720.462 -4.25939 -4.32042 0
M  V30 7247 H 719.201 -3.13918 -3.73238 0
M  V30 7248 H 718.206 -4.97547 -2.33938 0
M  V30 7249 H 719.431 -6.11343 -2.95697 0
M  V30 7250 H 717.377 -4.63346 -4.64378 0
M  V30 7251 H 717.294 -6.30073 -4.17785 0
M  V30 7252 H 718.562 -5.76943 -5.24173 0
M  V30 7253 N 722.791 0.367657 -1.53252 0
M  V30 7254 C 724.039 1.10832 -1.68999 0
M  V30 7255 C 724.36 1.89894 -0.443306 0
M  V30 7256 O 723.63 1.88235 0.54262 0
M  V30 7257 H 722.21 0.412153 -0.623008 0
M  V30 7258 H 724.872 0.414775 -1.90435 0
M  V30 7259 H 723.968 1.7993 -2.55013 0
M  V30 7260 N 724.269 1.44576 0.627338 0
M  V30 7261 C 725.232 1.51372 1.72102 0
M  V30 7262 C 726.232 0.395329 1.55865 0
M  V30 7263 O 727.422 0.658094 1.61291 0
M  V30 7264 C 724.554 1.39129 3.11217 0
M  V30 7265 H 725.747 2.48798 1.6745 0
M  V30 7266 H 723.3 1.31724 0.841336 0
M  V30 7267 H 724.035 0.428114 3.21462 0
M  V30 7268 H 723.82 2.20229 3.24409 0
M  V30 7269 H 725.31 1.46874 3.90919 0
M  V30 7270 N 725.747 -0.868086 1.31537 0
M  V30 7271 C 726.695 -1.99688 1.1928 0
M  V30 7272 C 727.689 -1.69101 0.100656 0
M  V30 7273 O 728.895 -1.78073 0.262677 0
M  V30 7274 H 725.27 -0.655032 0.369374 0
M  V30 7275 H 727.241 -2.07157 2.14776 0
M  V30 7276 C 725.99 -3.35338 0.918892 0
M  V30 7277 H 725.313 -3.59396 1.75142 0
M  V30 7278 H 726.753 -4.14909 0.873311 0
M  V30 7279 C 725.212 -3.34769 -0.378366 0
M  V30 7280 O 725.742 -3.76716 -1.39456 0
M  V30 7281 N 723.948 -2.87895 -0.39557 0
M  V30 7282 H 723.495 -2.53954 0.431889 0
M  V30 7283 H 723.453 -2.87897 -1.26344 0
M  V30 7284 N 727.225 -1.14528 -1.08264 0
M  V30 7285 C 728.502 -0.825185 -1.77342 0
M  V30 7286 C 728.882 0.681037 -1.99813 0
M  V30 7287 O 728.23 1.62234 -1.60912 0
M  V30 7288 C 728.44 -1.62556 -3.08831 0
M  V30 7289 C 729.788 -1.82585 -3.83338 0
M  V30 7290 O 730.812 -1.59254 -3.18617 0
M  V30 7291 O 729.671 -2.21598 -4.99556 0
M  V30 7292 H 726.765 -0.302531 -0.769678 0
M  V30 7293 H 729.311 -1.25056 -1.14713 0
M  V30 7294 H 728.083 -2.64862 -2.88035 0
M  V30 7295 H 727.706 -1.1959 -3.79189 0
M  V30 7296 N 728.703 1.26451 -0.940633 0
M  V30 7297 C 729.633 2.28773 -0.467479 0
M  V30 7298 C 730.614 1.63218 0.478955 0
M  V30 7299 O 731.799 1.90427 0.380929 0
M  V30 7300 C 728.929 3.46259 0.268656 0
M  V30 7301 C 727.883 4.23898 -0.591171 0
M  V30 7302 C 727.209 5.33993 0.274891 0
M  V30 7303 C 728.509 4.87974 -1.86223 0
M  V30 7304 H 730.203 2.68601 -1.32265 0
M  V30 7305 H 727.749 1.29123 -0.637436 0
M  V30 7306 H 729.702 4.16951 0.610696 0
M  V30 7307 H 728.426 3.05383 1.15796 0
M  V30 7308 H 727.085 3.54969 -0.916098 0
M  V30 7309 H 726.733 4.89358 1.16353 0
M  V30 7310 H 726.433 5.86849 -0.297006 0
M  V30 7311 H 727.957 6.07523 0.612213 0
M  V30 7312 H 729.371 5.50883 -1.58747 0
M  V30 7313 H 727.768 5.50945 -2.37866 0
M  V30 7314 H 728.838 4.10945 -2.57394 0
M  V30 7315 N 730.181 0.707592 1.40822 0
M  V30 7316 C 731.144 0.0587224 2.29125 0
M  V30 7317 C 732.144 -0.695624 1.44975 0
M  V30 7318 O 733.334 -0.528718 1.65983 0
M  V30 7319 C 730.466 -0.926939 3.28056 0
M  V30 7320 H 731.659 0.836349 2.88002 0
M  V30 7321 H 729.212 0.471778 1.4901 0
M  V30 7322 H 729.947 -1.7319 2.74182 0
M  V30 7323 H 729.732 -0.389015 3.90165 0
M  V30 7324 H 731.222 -1.37837 3.94196 0
M  V30 7325 N 731.66 -1.50943 0.453197 0
M  V30 7326 C 732.607 -2.28128 -0.350197 0
M  V30 7327 C 733.577 -1.32398 -1.00299 0
M  V30 7328 O 734.762 -1.61319 -1.01887 0
M  V30 7329 C 731.902 -3.13782 -1.43649 0
M  V30 7330 C 731.015 -4.24523 -0.800255 0
M  V30 7331 C 730.15 -4.97462 -1.86293 0
M  V30 7332 C 729.189 -6.00102 -1.20598 0
M  V30 7333 N 728.326 -6.66387 -2.21071 0
M  V30 7334 H 733.166 -2.96337 0.31434 0
M  V30 7335 H 730.703 -1.46151 0.166863 0
M  V30 7336 H 732.661 -3.6178 -2.07776 0
M  V30 7337 H 731.291 -2.47655 -2.07044 0
M  V30 7338 H 730.343 -3.80371 -0.0468651 0
M  V30 7339 H 731.655 -4.98009 -0.280777 0
M  V30 7340 H 730.809 -5.49088 -2.58044 0
M  V30 7341 H 729.548 -4.23642 -2.41617 0
M  V30 7342 H 728.553 -5.47753 -0.474 0
M  V30 7343 H 729.778 -6.75887 -0.659859 0
M  V30 7344 H 727.724 -5.9537 -2.75446 0
M  V30 7345 H 727.641 -7.3569 -1.74058 0
M  V30 7346 H 728.909 -7.22638 -2.92257 0
M  V30 7347 N 733.138 -0.185124 -1.56509 0
M  V30 7348 C 734.385 0.456258 -1.97293 0
M  V30 7349 C 734.713 1.62314 -1.07165 0
M  V30 7350 O 733.968 1.95398 -0.108621 0
M  V30 7351 C 734.267 0.967977 -3.44042 0
M  V30 7352 C 733.933 -0.084476 -4.50821 0
M  V30 7353 C 732.595 -0.373689 -4.79747 0
M  V30 7354 C 734.947 -0.79812 -5.15053 0
M  V30 7355 C 732.275 -1.3817 -5.70198 0
M  V30 7356 C 734.627 -1.79521 -6.06593 0
M  V30 7357 C 733.291 -2.09172 -6.3388 0
M  V30 7358 H 732.561 0.166957 -0.721946 0
M  V30 7359 H 735.208 -0.279992 -1.89442 0
M  V30 7360 H 733.513 1.78231 -3.48914 0
M  V30 7361 H 735.21 1.47347 -3.72948 0
M  V30 7362 H 731.8 0.15111 -4.28334 0
M  V30 7363 H 735.984 -0.587903 -4.92806 0
M  V30 7364 H 731.24 -1.61745 -5.89617 0
M  V30 7365 H 735.414 -2.35347 -6.55427 0
M  V30 7366 H 733.041 -2.87427 -7.03768 0
M  V30 7367 N 734.616 1.57351 0.0885366 0
M  V30 7368 C 735.566 1.98963 1.11346 0
M  V30 7369 C 736.55 0.869065 1.35411 0
M  V30 7370 O 737.742 1.13292 1.35992 0
M  V30 7371 C 734.871 2.4231 2.43189 0
M  V30 7372 C 733.957 3.61065 2.22469 0
M  V30 7373 N 734.348 4.75789 1.71635 0
M  V30 7374 C 732.646 3.6729 2.5301 0
M  V30 7375 C 733.347 5.57708 1.65339 0
M  V30 7376 N 732.323 5.01067 2.1079 0
M  V30 7377 H 736.125 2.85109 0.713465 0
M  V30 7378 H 733.639 1.59682 0.295868 0
M  V30 7379 H 735.636 2.70352 3.17357 0
M  V30 7380 H 734.296 1.57544 2.83919 0
M  V30 7381 H 735.307 4.98411 1.40738 0
M  V30 7382 H 731.984 2.932 2.9722 0
M  V30 7383 H 733.374 6.59782 1.27031 0
M  V30 7384 N 736.094 -0.359525 1.53444 0
M  V30 7385 C 737.026 -1.46098 1.76602 0
M  V30 7386 C 738.039 -1.49395 0.646912 0
M  V30 7387 O 739.228 -1.52765 0.923307 0
M  V30 7388 C 736.328 -2.84836 1.83635 0
M  V30 7389 C 735.501 -3.05164 3.13358 0
M  V30 7390 C 734.56 -4.24051 3.11556 0
M  V30 7391 O 733.586 -4.18935 3.85334 0
M  V30 7392 N 734.788 -5.31775 2.328 0
M  V30 7393 H 737.553 -1.2661 2.71643 0
M  V30 7394 H 735.114 -0.549294 1.52297 0
M  V30 7395 H 737.106 -3.62516 1.799 0
M  V30 7396 H 735.676 -2.97542 0.958509 0
M  V30 7397 H 734.896 -2.15091 3.30348 0
M  V30 7398 H 736.184 -3.15619 3.99076 0
M  V30 7399 H 735.582 -5.38796 1.7238 0
M  V30 7400 H 734.139 -6.0801 2.34877 0
M  V30 7401 N 737.572 -1.44907 -0.619662 0
M  V30 7402 C 738.505 -1.47133 -1.74434 0
M  V30 7403 C 739.483 -0.328933 -1.59238 0
M  V30 7404 O 740.667 -0.527632 -1.80965 0
M  V30 7405 C 737.794 -1.31491 -3.12134 0
M  V30 7406 C 736.84 -2.49441 -3.4595 0
M  V30 7407 S 737.673 -4.11945 -3.42142 0
M  V30 7408 C 738.829 -3.98747 -4.82443 0
M  V30 7409 H 739.062 -2.42295 -1.7228 0
M  V30 7410 H 736.595 -1.32343 -0.795276 0
M  V30 7411 H 738.553 -1.23153 -3.91591 0
M  V30 7412 H 737.214 -0.378203 -3.11815 0
M  V30 7413 H 736.407 -2.3439 -4.46181 0
M  V30 7414 H 736.009 -2.54577 -2.73982 0
M  V30 7415 H 738.301 -3.63145 -5.71954 0
M  V30 7416 H 739.244 -4.98848 -5.0255 0
M  V30 7417 H 739.652 -3.30608 -4.57557 0
M  V30 7418 N 739.05 0.861098 -1.31996 0
M  V30 7419 C 739.98 1.98482 -1.22993 0
M  V30 7420 C 740.961 1.6971 -0.115168 0
M  V30 7421 O 742.146 1.91849 -0.30126 0
M  V30 7422 C 739.276 3.34179 -0.945615 0
M  V30 7423 C 738.23 3.77284 -2.02091 0
M  V30 7424 C 737.556 5.1054 -1.58912 0
M  V30 7425 C 738.856 3.93439 -3.43515 0
M  V30 7426 H 740.55 2.06271 -2.17008 0
M  V30 7427 H 738.096 0.991043 -1.04472 0
M  V30 7428 H 740.049 4.12338 -0.869206 0
M  V30 7429 H 738.773 3.26586 0.0301849 0
M  V30 7430 H 737.432 3.01371 -2.08737 0
M  V30 7431 H 737.08 4.99397 -0.600942 0
M  V30 7432 H 736.78 5.40352 -2.30854 0
M  V30 7433 H 738.304 5.91199 -1.52696 0
M  V30 7434 H 739.718 4.6197 -3.39495 0
M  V30 7435 H 738.115 4.34661 -4.13751 0
M  V30 7436 H 739.185 2.96548 -3.8365 0
M  V30 7437 N 740.528 1.15101 1.07655 0
M  V30 7438 C 741.461 0.788522 2.14144 0
M  V30 7439 C 742.439 -0.233635 1.60913 0
M  V30 7440 O 743.623 -0.120908 1.88112 0
M  V30 7441 C 740.75 0.172033 3.38263 0
M  V30 7442 C 739.796 1.16559 4.10264 0
M  V30 7443 S 740.629 2.70627 4.62084 0
M  V30 7444 C 741.785 2.10389 5.8948 0
M  V30 7445 H 742.018 1.69047 2.44561 0
M  V30 7446 H 739.551 0.973033 1.19881 0
M  V30 7447 H 741.509 -0.177223 4.10117 0
M  V30 7448 H 740.17 -0.707468 3.06029 0
M  V30 7449 H 739.363 0.6824 4.99359 0
M  V30 7450 H 738.965 1.45923 3.44358 0
M  V30 7451 H 741.257 1.46405 6.61492 0
M  V30 7452 H 742.2 2.97639 6.42508 0
M  V30 7453 H 742.608 1.54816 5.42856 0
M  V30 7454 N 742.006 -1.2595 0.947325 0
M  V30 7455 C 742.953 -2.26159 0.460497 0
M  V30 7456 C 743.923 -1.58919 -0.483125 0
M  V30 7457 O 745.108 -1.86603 -0.397983 0
M  V30 7458 C 742.248 -3.441 -0.26247 0
M  V30 7459 C 741.361 -4.25999 0.717539 0
M  V30 7460 C 740.496 -5.31193 -0.0272486 0
M  V30 7461 C 739.535 -6.04774 0.944177 0
M  V30 7462 N 738.672 -7.01721 0.230741 0
M  V30 7463 H 743.512 -2.67173 1.31995 0
M  V30 7464 H 741.049 -1.31358 0.662088 0
M  V30 7465 H 743.007 -4.11317 -0.698137 0
M  V30 7466 H 741.637 -3.03983 -1.08602 0
M  V30 7467 H 740.689 -3.58513 1.27171 0
M  V30 7468 H 742.001 -4.76981 1.45913 0
M  V30 7469 H 741.155 -6.04451 -0.521903 0
M  V30 7470 H 739.894 -4.81066 -0.801682 0
M  V30 7471 H 738.899 -5.30338 1.4499 0
M  V30 7472 H 740.124 -6.56991 1.71872 0
M  V30 7473 H 738.07 -6.53895 -0.525088 0
M  V30 7474 H 737.987 -7.50484 0.911556 0
M  V30 7475 H 739.255 -7.79122 -0.242616 0
M  V30 7476 N 743.484 -0.715051 -1.40445 0
M  V30 7477 C 744.733 -0.251322 -2.00128 0
M  V30 7478 C 745.046 1.16194 -1.57347 0
M  V30 7479 O 746.252 1.72416 -2.09726 0
M  V30 7480 C 744.708 -0.398407 -3.57688 0
M  V30 7481 C 744.316 -1.81828 -4.09442 0
M  V30 7482 C 746.06 0.00455625 -4.245 0
M  V30 7483 C 743.967 -1.91598 -5.59503 0
M  V30 7484 H 742.897 -0.0902081 -0.748584 0
M  V30 7485 H 745.548 -0.886062 -1.6069 0
M  V30 7486 H 743.93 0.304908 -3.94824 0
M  V30 7487 H 745.104 -2.55193 -3.83684 0
M  V30 7488 H 743.419 -2.17266 -3.55225 0
M  V30 7489 H 746.016 -0.0477303 -5.34679 0
M  V30 7490 H 746.359 1.04636 -4.02935 0
M  V30 7491 H 746.892 -0.649184 -3.92467 0
M  V30 7492 H 743.631 -2.93898 -5.85922 0
M  V30 7493 H 743.151 -1.22644 -5.87127 0
M  V30 7494 H 744.83 -1.68785 -6.24596 0
M  V30 7495 N 744.962 1.50701 -0.461195 0
M  V30 7496 C 746.211 2.01458 0.0988277 0
M  V30 7497 C 746.524 1.34863 1.41673 0
M  V30 7498 O 747.73 1.76721 2.06111 0
M  V30 7499 C 746.186 3.59186 0.226648 0
M  V30 7500 C 745.794 4.34732 -1.08223 0
M  V30 7501 C 747.538 4.18015 0.73916 0
M  V30 7502 C 745.445 5.8422 -0.918747 0
M  V30 7503 H 744.375 0.7529 0.040709 0
M  V30 7504 H 747.026 1.736 -0.594589 0
M  V30 7505 H 745.408 3.83589 0.983621 0
M  V30 7506 H 746.582 4.22059 -1.84939 0
M  V30 7507 H 744.897 3.87466 -1.52509 0
M  V30 7508 H 747.494 5.27436 0.878347 0
M  V30 7509 H 747.837 3.78746 1.72793 0
M  V30 7510 H 748.37 3.9778 0.0398469 0
M  V30 7511 H 745.109 6.27944 -1.88059 0
M  V30 7512 H 744.629 5.99493 -0.191801 0
M  V30 7513 H 746.308 6.44382 -0.581405 0
M  V30 7514 N 746.441 0.193421 1.56409 0
M  V30 7515 C 747.374 -0.767384 2.1491 0
M  V30 7516 C 748.352 -1.21075 1.08534 0
M  V30 7517 O 749.536 -1.29856 1.36637 0
M  V30 7518 C 746.663 -2.03615 2.70663 0
M  V30 7519 C 745.709 -1.73505 3.89613 0
M  V30 7520 S 746.542 -0.884645 5.28142 0
M  V30 7521 C 747.698 -2.1636 5.87315 0
M  V30 7522 H 747.931 -0.270053 2.96071 0
M  V30 7523 H 745.464 -0.0215546 1.54385 0
M  V30 7524 H 747.422 -2.7648 3.03429 0
M  V30 7525 H 746.083 -2.50461 1.89547 0
M  V30 7526 H 745.276 -2.67701 4.27027 0
M  V30 7527 H 744.878 -1.08723 3.57848 0
M  V30 7528 H 747.17 -3.11629 6.01576 0
M  V30 7529 H 748.113 -1.8338 6.83943 0
M  V30 7530 H 748.521 -2.29129 5.15907 0
M  V30 7531 N 747.919 -1.57396 -0.0801906 0
M  V30 7532 C 748.866 -2.03107 -1.09618 0
M  V30 7533 C 749.836 -0.910118 -1.38946 0
M  V30 7534 O 751.021 -1.17719 -1.50156 0
M  V30 7535 C 748.161 -2.47293 -2.40708 0
M  V30 7536 C 747.274 -3.72972 -2.17982 0
M  V30 7537 C 746.409 -4.05975 -3.42576 0
M  V30 7538 C 745.448 -5.24719 -3.15177 0
M  V30 7539 N 744.585 -5.53401 -4.32078 0
M  V30 7540 H 749.425 -2.89677 -0.69939 0
M  V30 7541 H 746.962 -1.43263 -0.333785 0
M  V30 7542 H 748.92 -2.7096 -3.17232 0
M  V30 7543 H 747.55 -1.63713 -2.78205 0
M  V30 7544 H 746.602 -3.56693 -1.32189 0
M  V30 7545 H 747.914 -4.59638 -1.93738 0
M  V30 7546 H 747.068 -4.30498 -4.275 0
M  V30 7547 H 745.807 -3.17859 -3.69887 0
M  V30 7548 H 744.812 -5 -2.28648 0
M  V30 7549 H 746.037 -6.14445 -2.89197 0
M  V30 7550 H 743.983 -4.68245 -4.59437 0
M  V30 7551 H 743.9 -6.34469 -4.11078 0
M  V30 7552 H 745.168 -5.8247 -5.18024 0
M  V30 7553 O 749.436 0.223936 -1.5994 0
M  V30 7554 H 750.127 0.865318 -1.73297 0
M  V30 END ATOM
M  V30 BEGIN BOND
M  V30 END BOND
M  V30 END CTAB
M  END
$$$$
