drugbank_target|P03437 Hemagglutinin (DB07726)
 OpenBabel12092120263D

  0  0  0     0  0            999 V3000
M  V30 BEGIN CTAB
M  V30 COUNTS 8824 8918 0 0 0
M  V30 BEGIN ATOM
M  V30 1 H -0.908 1.98254 -0.117106 0
M  V30 2 N 0 1.576 0 0
M  V30 3 C 0.933 2.03868 1.02534 0
M  V30 4 C 1.911 0.928543 1.3348 0
M  V30 5 O 3.095 1.19667 1.45644 0
M  V30 6 C 0.222 2.43627 2.35294 0
M  V30 7 C -0.732 3.65373 2.2001 0
M  V30 8 S 0.101 5.13292 1.52614 0
M  V30 9 C 1.257 5.56322 2.86805 0
M  V30 10 H 1.49 2.90518 0.631377 0
M  V30 11 H -0.977 1.52953 0.210867 0
M  V30 12 H 0.981 2.67203 3.11629 0
M  V30 13 H -0.358 1.57376 2.7183 0
M  V30 14 H -1.165 3.90944 3.18086 0
M  V30 15 H -1.563 3.418 1.51819 0
M  V30 16 H 0.729 5.58782 3.83104 0
M  V30 17 H 1.672 6.56266 2.65933 0
M  V30 18 H 2.08 4.83886 2.90714 0
M  V30 19 N 1.4781 -0.272755 1.55222 0
M  V30 20 C 2.4251 -1.33716 1.88119 0
M  V30 21 C 3.3951 -1.49066 0.73271 0
M  V30 22 O 4.5801 -1.63469 0.984002 0
M  V30 23 C 1.7201 -2.69238 2.15882 0
M  V30 24 C 0.8331 -2.62108 3.43399 0
M  V30 25 C -0.0319 -3.89811 3.60861 0
M  V30 26 C -0.9929 -3.77193 4.8207 0
M  V30 27 N -1.8559 -4.9673 4.96189 0
M  V30 28 H 2.9841 -1.04962 2.78903 0
M  V30 29 H 0.5211 -0.507088 1.38083 0
M  V30 30 H 2.4791 -3.48089 2.29978 0
M  V30 31 H 1.1091 -2.96194 1.28331 0
M  V30 32 H 0.1611 -1.74967 3.37773 0
M  V30 33 H 1.4731 -2.48685 4.32386 0
M  V30 34 H 0.6271 -4.77103 3.74777 0
M  V30 35 H -0.6339 -4.06102 2.7006 0
M  V30 36 H -1.6289 -2.88284 4.68159 0
M  V30 37 H -0.4039 -3.62421 5.74307 0
M  V30 38 H -2.4579 -5.13431 4.08319 0
M  V30 39 H -2.5409 -4.85839 5.79221 0
M  V30 40 H -1.2729 -5.85594 5.1449 0
M  V30 41 N 2.9562 -1.48159 -0.537278 0
M  V30 42 C 4.1842 -1.59454 -1.31841 0
M  V30 43 C 4.5992 -0.252065 -1.8711 0
M  V30 44 O 3.9562 0.757621 -1.66031 0
M  V30 45 C 4.0072 -2.63546 -2.47439 0
M  V30 46 O 3.7282 -3.92583 -1.94449 0
M  V30 47 C 5.2292 -2.85212 -3.39366 0
M  V30 48 H 2.4492 -0.53785 -0.401196 0
M  V30 49 H 4.9932 -1.93932 -0.648891 0
M  V30 50 H 3.1482 -2.31946 -3.1029 0
M  V30 51 H 3.5622 -4.49629 -2.70063 0
M  V30 52 H 5.0362 -3.61863 -4.16844 0
M  V30 53 H 5.5132 -1.93765 -3.94147 0
M  V30 54 H 6.1192 -3.18086 -2.82314 0
M  V30 55 N 4.4343 0.785586 -1.36625 0
M  V30 56 C 5.6833 1.53883 -1.30396 0
M  V30 57 C 5.9963 1.95271 0.113452 0
M  V30 58 O 7.2023 2.69858 0.298142 0
M  V30 59 C 5.6583 2.77808 -2.28802 0
M  V30 60 C 5.2663 2.43574 -3.75999 0
M  V30 61 C 7.0103 3.55783 -2.31558 0
M  V30 62 C 4.9173 3.63919 -4.66173 0
M  V30 63 H 3.8473 0.577678 -0.484566 0
M  V30 64 H 6.4983 0.861705 -1.62009 0
M  V30 65 H 4.8803 3.47339 -1.90188 0
M  V30 66 H 6.0543 1.81916 -4.23371 0
M  V30 67 H 4.3693 1.78803 -3.76056 0
M  V30 68 H 6.9663 4.45205 -2.96137 0
M  V30 69 H 7.3093 3.94644 -1.3252 0
M  V30 70 H 7.8423 2.93235 -2.68809 0
M  V30 71 H 4.5813 3.3015 -5.66287 0
M  V30 72 H 4.1013 4.2473 -4.23515 0
M  V30 73 H 5.7803 4.30901 -4.82632 0
M  V30 74 N 5.9124 1.20967 1.01018 0
M  V30 75 C 7.1614 1.01796 1.74128 0
M  V30 76 C 7.4744 -0.449691 1.90361 0
M  V30 77 O 8.6804 -0.76068 2.60626 0
M  V30 78 C 7.1364 1.7727 3.13215 0
M  V30 79 C 6.7444 3.28171 3.04972 0
M  V30 80 C 8.4884 1.66489 3.90489 0
M  V30 81 C 6.3954 3.96156 4.39107 0
M  V30 82 H 5.3254 0.377276 0.652824 0
M  V30 83 H 7.9764 1.44651 1.12909 0
M  V30 84 H 6.3584 1.27205 3.75013 0
M  V30 85 H 7.5324 3.85499 2.52443 0
M  V30 86 H 5.8474 3.39437 2.41188 0
M  V30 87 H 8.4444 2.14617 4.89738 0
M  V30 88 H 8.7874 0.6222 4.11624 0
M  V30 89 H 9.3204 2.14003 3.35332 0
M  V30 90 H 6.0594 5.00604 4.23174 0
M  V30 91 H 5.5794 3.43617 4.91617 0
M  V30 92 H 7.2584 4.00774 5.07926 0
M  V30 93 N 7.3905 -1.2043 1.01659 0
M  V30 94 C 8.3535 -2.21433 0.591616 0
M  V30 95 C 9.3535 -1.57203 -0.338226 0
M  V30 96 O 10.5435 -1.73737 -0.126918 0
M  V30 97 C 7.6755 -3.40628 -0.136058 0
M  V30 98 H 8.8685 -2.60545 1.48514 0
M  V30 99 H 6.4215 -1.33893 0.806379 0
M  V30 100 H 7.1565 -3.07019 -1.04449 0
M  V30 101 H 6.9415 -3.88475 0.531917 0
M  V30 102 H 8.4315 -4.15475 -0.420735 0
M  V30 103 N 8.8686 -0.792821 -1.36206 0
M  V30 104 C 9.7986 -0.207853 -2.32573 0
M  V30 105 C 10.7796 0.659055 -1.56813 0
M  V30 106 O 11.9646 0.592176 -1.84951 0
M  V30 107 C 9.0946 0.655449 -3.41059 0
M  V30 108 C 8.0486 -0.111842 -4.27854 0
M  V30 109 C 7.3746 0.872274 -5.27537 0
M  V30 110 C 8.6746 -1.30299 -5.05786 0
M  V30 111 H 10.3686 -1.01294 -2.81744 0
M  V30 112 H 7.9146 -0.48854 -1.3546 0
M  V30 113 H 9.8676 1.07464 -4.07467 0
M  V30 114 H 8.5916 1.49328 -2.90463 0
M  V30 115 H 7.2506 -0.512053 -3.63006 0
M  V30 116 H 6.8986 1.70523 -4.73214 0
M  V30 117 H 6.5986 0.363291 -5.86476 0
M  V30 118 H 8.1226 1.28996 -5.96818 0
M  V30 119 H 9.5366 -0.959379 -5.65216 0
M  V30 120 H 7.9336 -1.7455 -5.74154 0
M  V30 121 H 9.0036 -2.09663 -4.37229 0
M  V30 122 N 10.3467 1.47872 -0.545128 0
M  V30 123 C 11.5717 2.07391 -0.0190611 0
M  V30 124 C 11.9967 1.39688 1.25971 0
M  V30 125 O 11.3547 0.467816 1.7516 0
M  V30 126 C 11.4027 3.60188 0.172335 0
M  V30 127 O 10.5067 3.9339 1.23766 0
M  V30 128 H 9.8477 0.662411 -0.0459059 0
M  V30 129 H 12.3777 1.90066 -0.757365 0
M  V30 130 H 12.3877 4.06129 0.390305 0
M  V30 131 H 11.0627 4.08865 -0.761725 0
M  V30 132 H 9.6397 3.5921 1.00114 0
M  V30 133 N 11.8248 0.280983 1.55075 0
M  V30 134 C 13.0548 -0.336804 2.03836 0
M  V30 135 C 13.4628 -1.49577 1.15859 0
M  V30 136 O 12.8058 -1.82888 0.172503 0
M  V30 137 C 12.8678 -0.874616 3.48699 0
M  V30 138 C 12.5318 0.156478 4.56732 0
M  V30 139 C 13.5288 0.978032 5.10618 0
M  V30 140 C 11.2138 0.292409 5.01448 0
M  V30 141 C 13.2078 1.92165 6.07743 0
M  V30 142 C 10.8948 1.23949 5.98398 0
M  V30 143 C 11.8928 2.05261 6.51427 0
M  V30 144 O 11.5808 2.98367 7.4648 0
M  V30 145 H 11.3128 -0.0800885 0.671239 0
M  V30 146 H 13.8668 0.412589 2.01213 0
M  V30 147 H 12.0968 -1.67418 3.4858 0
M  V30 148 H 13.7858 -1.40612 3.80766 0
M  V30 149 H 14.5518 0.883782 4.7688 0
M  V30 150 H 10.4308 -0.330498 4.59814 0
M  V30 151 H 13.9748 2.55672 6.49059 0
M  V30 152 H 9.8718 1.33454 6.31554 0
M  V30 153 H 10.6398 2.93116 7.64215 0
M  V30 154 N 13.3029 -1.57598 0.00835791 0
M  V30 155 C 14.5519 -1.90107 -0.673968 0
M  V30 156 C 14.8649 -0.884275 -1.7447 0
M  V30 157 O 16.0709 -1.09987 -2.48224 0
M  V30 158 C 14.5269 -3.37497 -1.24995 0
M  V30 159 C 14.1349 -4.47491 -0.2136 0
M  V30 160 C 15.8789 -3.79104 -1.90999 0
M  V30 161 C 13.7859 -5.85963 -0.80005 0
M  V30 162 H 12.7159 -0.709393 -0.255495 0
M  V30 163 H 15.3669 -1.83365 0.0702693 0
M  V30 164 H 13.7489 -3.39102 -2.04513 0
M  V30 165 H 14.9229 -4.57414 0.557596 0
M  V30 166 H 13.2379 -4.14956 0.346474 0
M  V30 167 H 15.8349 -4.79901 -2.35795 0
M  V30 168 H 16.1779 -3.1306 -2.74407 0
M  V30 169 H 16.7109 -3.79833 -1.18203 0
M  V30 170 H 13.4499 -6.555 -0.00456708 0
M  V30 171 H 12.9699 -5.79687 -1.54021 0
M  V30 172 H 14.6489 -6.33884 -1.29615 0
M  V30 173 N 14.781 0.264519 -1.55364 0
M  V30 174 C 16.028 0.994986 -1.7637 0
M  V30 175 C 16.356 1.85976 -0.5695 0
M  V30 176 O 15.611 1.90509 0.44776 0
M  V30 177 C 15.91 1.9004 -3.02687 0
M  V30 178 C 15.576 1.19243 -4.34847 0
M  V30 179 C 14.238 0.996709 -4.70764 0
M  V30 180 C 16.59 0.689296 -5.16622 0
M  V30 181 C 13.918 0.285261 -5.86006 0
M  V30 182 C 16.27 -0.00860079 -6.32599 0
M  V30 183 C 14.934 -0.215963 -6.67151 0
M  V30 184 H 14.204 0.364091 -0.645383 0
M  V30 185 H 16.851 0.266543 -1.89636 0
M  V30 186 H 15.156 2.69533 -2.84357 0
M  V30 187 H 16.853 2.46695 -3.16137 0
M  V30 188 H 13.443 1.3549 -4.06621 0
M  V30 189 H 17.627 0.828108 -4.89342 0
M  V30 190 H 12.883 0.113961 -6.11294 0
M  V30 191 H 17.057 -0.406186 -6.95214 0
M  V30 192 H 14.684 -0.769217 -7.56298 0
M  V30 193 N 16.2591 1.48442 0.529413 0
M  V30 194 C 17.4991 1.58086 1.29569 0
M  V30 195 C 17.8631 0.249302 1.90375 0
M  V30 196 O 19.0641 0.220738 2.67892 0
M  V30 197 C 17.3351 2.68793 2.35552 0
M  V30 198 S 18.8941 2.98207 3.21898 0
M  V30 199 H 15.7121 0.557922 0.440732 0
M  V30 200 H 18.3141 1.85966 0.603059 0
M  V30 201 H 17.0181 3.64102 1.89363 0
M  V30 202 H 16.5491 2.42817 3.09522 0
M  V30 203 H 18.5641 2.37548 4.35644 0
M  V30 204 N 17.7372 -0.778329 1.37039 0
M  V30 205 C 18.6672 -1.90546 1.34962 0
M  V30 206 C 19.6482 -1.68681 0.219274 0
M  V30 207 O 20.8332 -1.89634 0.418624 0
M  V30 208 C 17.9632 -3.27734 1.14925 0
M  V30 209 C 16.9172 -3.64147 2.24902 0
M  V30 210 C 16.2432 -4.99806 1.89996 0
M  V30 211 C 17.5432 -3.71579 3.67051 0
M  V30 212 H 19.2372 -1.92541 2.29277 0
M  V30 213 H 16.7832 -0.924948 1.10366 0
M  V30 214 H 18.7362 -4.06215 1.12104 0
M  V30 215 H 17.4602 -3.26154 0.170631 0
M  V30 216 H 16.1192 -2.8797 2.26868 0
M  V30 217 H 15.7672 -4.94759 0.906796 0
M  V30 218 H 15.4672 -5.25139 2.63634 0
M  V30 219 H 16.9912 -5.80694 1.88749 0
M  V30 220 H 18.4052 -4.40227 3.67251 0
M  V30 221 H 16.8022 -4.08405 4.39688 0
M  V30 222 H 17.8722 -2.72404 4.01154 0
M  V30 223 N 19.2153 -1.21501 -1.00376 0
M  V30 224 C 20.1783 -0.976927 -2.07337 0
M  V30 225 C 21.1783 0.0525322 -1.60714 0
M  V30 226 O 22.3683 -0.184869 -1.73216 0
M  V30 227 C 19.5003 -0.473423 -3.37597 0
M  V30 228 H 20.6933 -1.92587 -2.29892 0
M  V30 229 H 18.2463 -1.03217 -1.17371 0
M  V30 230 H 18.9813 0.480379 -3.20722 0
M  V30 231 H 18.7663 -1.216 -3.72768 0
M  V30 232 H 20.2563 -0.32675 -4.1632 0
M  V30 233 N 20.6934 1.19889 -1.02296 0
M  V30 234 C 21.6234 2.25141 -0.619174 0
M  V30 235 C 22.6044 1.66051 0.368915 0
M  V30 236 O 23.7894 1.92546 0.252941 0
M  V30 237 C 20.9194 3.4728 0.0368783 0
M  V30 238 C 19.8734 4.19005 -0.872865 0
M  V30 239 C 19.1994 5.34637 -0.0822402 0
M  V30 240 C 20.4994 4.74452 -2.18387 0
M  V30 241 H 22.1934 2.59171 -1.49903 0
M  V30 242 H 19.7394 1.24579 -0.722222 0
M  V30 243 H 21.6924 4.20098 0.330958 0
M  V30 244 H 20.4164 3.12433 0.95149 0
M  V30 245 H 19.0754 3.48061 -1.15105 0
M  V30 246 H 18.7234 4.96034 0.83422 0
M  V30 247 H 18.4234 5.83557 -0.688149 0
M  V30 248 H 19.9474 6.10255 0.205238 0
M  V30 249 H 21.3614 5.39055 -1.95172 0
M  V30 250 H 19.7584 5.33834 -2.74119 0
M  V30 251 H 20.8284 3.92844 -2.84257 0
M  V30 252 N 22.1715 0.800033 1.35784 0
M  V30 253 C 23.4195 0.376597 1.9856 0
M  V30 254 C 23.7405 -1.05812 1.63795 0
M  V30 255 O 23.0105 -1.73103 0.917171 0
M  V30 256 H 21.5905 0.136261 0.734467 0
M  V30 257 H 24.2525 1.02442 1.65806 0
M  V30 258 H 23.3485 0.477002 3.08433 0
M  V30 259 N 23.6496 -1.47581 0.552962 0
M  V30 260 C 24.5816 -2.27997 -0.234533 0
M  V30 261 C 25.5946 -1.36753 -0.883321 0
M  V30 262 O 26.7836 -1.61612 -0.757889 0
M  V30 263 C 23.8836 -3.10879 -1.34935 0
M  V30 264 C 23.0566 -4.30056 -0.798158 0
M  V30 265 C 22.1156 -4.94567 -1.79694 0
M  V30 266 O 21.1416 -5.53087 -1.34474 0
M  V30 267 N 22.3436 -4.88878 -3.13015 0
M  V30 268 H 25.1086 -2.96222 0.455255 0
M  V30 269 H 22.6696 -1.57163 0.388761 0
M  V30 270 H 24.6616 -3.50903 -2.01616 0
M  V30 271 H 23.2316 -2.44924 -1.94244 0
M  V30 272 H 22.4516 -3.94174 0.0453079 0
M  V30 273 H 23.7396 -5.07152 -0.409173 0
M  V30 274 H 23.1376 -4.42526 -3.52402 0
M  V30 275 H 21.6946 -5.32934 -3.75266 0
M  V30 276 N 25.1277 -0.289203 -1.54924 0
M  V30 277 C 26.4047 0.376032 -1.91951 0
M  V30 278 C 26.7847 1.72622 -1.21511 0
M  V30 279 O 26.1327 2.25853 -0.346767 0
M  V30 280 C 26.3427 0.502378 -3.45365 0
M  V30 281 C 27.6907 0.778741 -4.17398 0
M  V30 282 O 28.7147 0.586647 -3.51336 0
M  V30 283 O 27.5737 1.14698 -5.34328 0
M  V30 284 H 24.6677 0.208167 -0.800372 0
M  V30 285 H 27.2137 -0.336394 -1.66332 0
M  V30 286 H 25.9857 -0.447255 -3.88736 0
M  V30 287 H 25.6087 1.26373 -3.76982 0
M  V30 288 N 26.6058 1.57591 -0.0167156 0
M  V30 289 C 27.5358 2.12496 0.967858 0
M  V30 290 C 28.5168 1.03807 1.34752 0
M  V30 291 O 29.7018 1.31577 1.42833 0
M  V30 292 C 26.8318 2.64194 2.25431 0
M  V30 293 C 25.7858 3.77559 2.01576 0
M  V30 294 C 25.1118 4.15636 3.36379 0
M  V30 295 C 26.4118 5.04151 1.36489 0
M  V30 296 H 28.1058 2.95013 0.510643 0
M  V30 297 H 25.6518 1.41915 0.244181 0
M  V30 298 H 27.6048 3.01236 2.94678 0
M  V30 299 H 26.3288 1.78821 2.73296 0
M  V30 300 H 24.9878 3.40937 1.34751 0
M  V30 301 H 24.6358 3.27263 3.81979 0
M  V30 302 H 24.3358 4.92022 3.21229 0
M  V30 303 H 25.8598 4.5525 4.06915 0
M  V30 304 H 27.2738 5.38857 1.95718 0
M  V30 305 H 25.6708 5.85453 1.31776 0
M  V30 306 H 26.7408 4.83733 0.336219 0
M  V30 307 N 28.0839 -0.256276 1.55502 0
M  V30 308 C 29.4949 -0.826068 1.67431 0
M  V30 309 C 29.8459 -1.86396 0.612446 0
M  V30 310 O 28.9709 -2.15031 -0.243025 0
M  V30 311 C 29.5659 -1.50512 3.03532 0
M  V30 312 C 28.1249 -2.02273 3.17431 0
M  V30 313 C 27.2719 -0.870548 2.63281 0
M  V30 314 H 30.2229 -0.0322728 1.58667 0
M  V30 315 H 30.2439 -2.37279 2.97454 0
M  V30 316 H 29.7559 -0.749484 3.80794 0
M  V30 317 H 27.8569 -2.80746 2.44974 0
M  V30 318 H 27.9699 -2.22655 4.24219 0
M  V30 319 H 26.3339 -1.26851 2.20864 0
M  V30 320 H 27.1169 -0.128149 3.43061 0
M  V30 321 N 29.562 -1.4872 -0.521534 0
M  V30 322 C 30.81 -1.56857 -1.27437 0
M  V30 323 C 31.131 -0.247982 -1.93417 0
M  V30 324 O 30.401 0.731151 -1.81744 0
M  V30 325 H 28.981 -0.577885 -0.473347 0
M  V30 326 H 31.643 -1.85233 -0.606205 0
M  V30 327 H 30.739 -2.35402 -2.0492 0
M  V30 328 N 31.0401 0.771051 -1.3745 0
M  V30 329 C 31.9881 1.90574 -1.33358 0
M  V30 330 C 32.9821 1.67936 -0.22224 0
M  V30 331 O 34.1881 1.75717 -0.390304 0
M  V30 332 H 30.5631 0.626714 -0.415612 0
M  V30 333 H 32.5341 1.91142 -2.29144 0
M  V30 334 C 31.2831 3.27845 -1.15813 0
M  V30 335 H 30.6061 3.45842 -2.00583 0
M  V30 336 H 32.0461 4.07538 -1.17 0
M  V30 337 C 30.5051 3.36625 0.136165 0
M  V30 338 O 31.0351 3.85785 1.11949 0
M  V30 339 N 29.2411 2.89997 0.187099 0
M  V30 340 H 28.7881 2.50182 -0.613753 0
M  V30 341 H 28.7461 2.96252 1.05272 0
M  V30 342 N 32.5182 1.22032 0.997298 0
M  V30 343 C 33.7952 0.950823 1.70935 0
M  V30 344 C 34.1752 -0.535292 2.042 0
M  V30 345 O 33.5232 -1.50217 1.72183 0
M  V30 346 C 33.7332 1.84386 2.96315 0
M  V30 347 C 35.0812 2.09732 3.69185 0
M  V30 348 O 36.1052 1.81798 3.06314 0
M  V30 349 O 34.9642 2.57018 4.82291 0
M  V30 350 H 32.0582 0.357204 0.745878 0
M  V30 351 H 34.6042 1.32997 1.05404 0
M  V30 352 H 33.3762 2.84928 2.68201 0
M  V30 353 H 32.9992 1.46602 3.69586 0
M  V30 354 N 33.9963 -1.19345 1.0293 0
M  V30 355 C 34.9443 -2.24621 0.604001 0
M  V30 356 C 35.9383 -1.65452 -0.363587 0
M  V30 357 O 37.1443 -1.78497 -0.23212 0
M  V30 358 H 33.5193 -0.730858 0.177061 0
M  V30 359 H 35.4903 -2.5781 1.50255 0
M  V30 360 C 34.2393 -3.47688 -0.0289127 0
M  V30 361 H 33.5623 -3.93505 0.706651 0
M  V30 362 H 35.0023 -4.23011 -0.289432 0
M  V30 363 C 33.4613 -3.11817 -1.2756 0
M  V30 364 O 33.9913 -3.2451 -2.36762 0
M  V30 365 N 32.1973 -2.66246 -1.16453 0
M  V30 366 H 31.7443 -2.56118 -0.275914 0
M  V30 367 H 31.7023 -2.42617 -1.99961 0
M  V30 368 N 35.4744 -0.807222 -1.35358 0
M  V30 369 C 36.6994 -0.399309 -2.0352 0
M  V30 370 C 37.1244 0.981986 -1.60433 0
M  V30 371 O 36.4824 1.63601 -0.781299 0
M  V30 372 C 36.5304 -0.491552 -3.57234 0
M  V30 373 O 35.6344 0.494754 -4.09421 0
M  V30 374 H 34.9754 -0.166682 -0.642739 0
M  V30 375 H 37.5054 -1.09328 -1.72941 0
M  V30 376 H 37.5154 -0.361588 -4.06395 0
M  V30 377 H 36.1904 -1.49907 -3.87944 0
M  V30 378 H 34.7674 0.324977 -3.71481 0
M  V30 379 N 36.9525 1.47285 -0.560781 0
M  V30 380 C 38.1805 2.06855 -0.0430262 0
M  V30 381 C 38.5955 1.41291 1.25229 0
M  V30 382 O 37.9525 0.510648 1.7521 0
M  V30 383 C 38.0035 3.61178 0.152518 0
M  V30 384 O 37.7245 4.24285 -1.0915 0
M  V30 385 C 39.2255 4.37624 0.707145 0
M  V30 386 H 36.4455 0.669319 -0.0474652 0
M  V30 387 H 38.9895 1.89237 -0.77521 0
M  V30 388 H 37.1445 3.78298 0.834843 0
M  V30 389 H 37.5585 5.16868 -0.891482 0
M  V30 390 H 39.0325 5.46271 0.793244 0
M  V30 391 H 39.5095 4.04152 1.71923 0
M  V30 392 H 40.1155 4.25257 0.0604027 0
M  V30 393 N 38.4306 0.297415 1.54768 0
M  V30 394 C 39.3936 -0.567375 2.22066 0
M  V30 395 C 40.3936 -1.06409 1.20556 0
M  V30 396 O 41.5836 -0.960691 1.45315 0
M  V30 397 C 38.7156 -1.78517 2.90421 0
M  V30 398 H 39.9086 0.0205534 2.99893 0
M  V30 399 H 37.4616 0.0482163 1.56226 0
M  V30 400 H 38.1966 -2.41303 2.16664 0
M  V30 401 H 37.9816 -1.43669 3.64831 0
M  V30 402 H 39.4716 -2.39964 3.41771 0
M  V30 403 N 39.9087 -1.5758 0.0250728 0
M  V30 404 C 41.1367 -1.9593 -0.664747 0
M  V30 405 C 41.5517 -0.901352 -1.65895 0
M  V30 406 O 40.9087 0.117255 -1.82123 0
M  V30 407 C 40.9597 -3.34342 -1.37468 0
M  V30 408 O 40.6807 -4.36079 -0.420324 0
M  V30 409 C 42.1817 -3.873 -2.1567 0
M  V30 410 H 39.4017 -0.645405 -0.183557 0
M  V30 411 H 41.9457 -2.04329 0.0836372 0
M  V30 412 H 40.1007 -3.27175 -2.0745 0
M  V30 413 H 40.5147 -5.16297 -0.923991 0
M  V30 414 H 41.9887 -4.86504 -2.60803 0
M  V30 415 H 42.4657 -3.21331 -2.99405 0
M  V30 416 H 43.0717 -3.97723 -1.50654 0
M  V30 417 N 41.3868 0.248026 -1.55636 0
M  V30 418 C 42.3168 1.31079 -1.93237 0
M  V30 419 C 43.2978 1.50264 -0.797174 0
M  V30 420 O 44.4828 1.62891 -1.05737 0
M  V30 421 C 41.6128 2.66575 -2.22609 0
M  V30 422 C 40.5668 2.62087 -3.3837 0
M  V30 423 C 39.8928 4.01369 -3.53281 0
M  V30 424 C 41.1928 2.19171 -4.7409 0
M  V30 425 H 42.8868 0.998556 -2.82257 0
M  V30 426 H 40.4328 0.47891 -1.35803 0
M  V30 427 H 42.3858 3.41057 -2.47503 0
M  V30 428 H 41.1098 2.99432 -1.30414 0
M  V30 429 H 39.7688 1.90063 -3.13483 0
M  V30 430 H 39.4168 4.31489 -2.58508 0
M  V30 431 H 39.1168 3.99254 -4.31127 0
M  V30 432 H 40.6408 4.77552 -3.80495 0
M  V30 433 H 42.0548 2.83384 -4.98363 0
M  V30 434 H 40.4518 2.2817 -5.5503 0
M  V30 435 H 41.5218 1.14336 -4.71227 0
M  V30 436 N 42.8649 1.48995 0.513639 0
M  V30 437 C 44.1049 1.59452 1.27885 0
M  V30 438 C 44.4689 0.269479 1.90099 0
M  V30 439 O 45.6699 0.249139 2.67643 0
M  V30 440 C 43.9409 2.71277 2.32688 0
M  V30 441 S 45.4999 3.01604 3.18717 0
M  V30 442 H 42.3179 0.562565 0.434789 0
M  V30 443 H 44.9199 1.86595 0.583301 0
M  V30 444 H 43.6239 3.66089 1.8549 0
M  V30 445 H 43.1549 2.46086 3.06929 0
M  V30 446 H 45.1699 2.42155 4.331 0
M  V30 447 N 44.343 -0.763751 1.37857 0
M  V30 448 C 45.273 -1.89103 1.36975 0
M  V30 449 C 46.254 -1.68439 0.237152 0
M  V30 450 O 47.439 -1.8918 0.438713 0
M  V30 451 C 44.569 -3.26496 1.18395 0
M  V30 452 C 43.523 -3.61741 2.28751 0
M  V30 453 C 42.849 -4.97762 1.95286 0
M  V30 454 C 44.149 -3.67665 3.70972 0
M  V30 455 H 45.843 -1.90099 2.31307 0
M  V30 456 H 43.389 -0.91319 1.11341 0
M  V30 457 H 45.342 -4.05003 1.16406 0
M  V30 458 H 44.066 -3.25955 0.205215 0
M  V30 459 H 42.725 -2.85547 2.29909 0
M  V30 460 H 42.373 -4.93769 0.959221 0
M  V30 461 H 42.073 -5.22313 2.69189 0
M  V30 462 H 43.597 -5.7866 1.94898 0
M  V30 463 H 45.011 -4.36307 3.719 0
M  V30 464 H 43.408 -4.03718 4.43995 0
M  V30 465 H 44.478 -2.68134 4.0402 0
M  V30 466 N 45.8211 -1.22559 -0.990812 0
M  V30 467 C 47.0691 -1.04933 -1.72724 0
M  V30 468 C 47.3901 0.416158 -1.90508 0
M  V30 469 O 46.6601 1.29918 -1.46622 0
M  V30 470 H 45.2401 -0.385296 -0.639965 0
M  V30 471 H 47.9021 -1.54105 -1.19322 0
M  V30 472 H 46.9981 -1.52886 -2.72089 0
M  V30 473 N 47.2992 1.18797 -1.03562 0
M  V30 474 C 48.2492 2.20161 -0.592724 0
M  V30 475 C 49.2332 1.56772 0.362133 0
M  V30 476 O 50.4252 1.76062 0.182009 0
M  V30 477 C 47.5542 3.43266 0.0481024 0
M  V30 478 C 46.6402 4.13786 -0.9296 0
M  V30 479 N 47.0312 4.60388 -2.09467 0
M  V30 480 C 45.3292 4.39572 -0.754499 0
M  V30 481 C 46.0302 5.14619 -2.71187 0
M  V30 482 N 45.0062 5.05826 -1.991 0
M  V30 483 H 48.8082 2.53877 -1.48066 0
M  V30 484 H 46.3222 1.34946 -0.903514 0
M  V30 485 H 48.3192 4.15136 0.383058 0
M  V30 486 H 46.9792 3.11048 0.931636 0
M  V30 487 H 47.9902 4.54999 -2.47379 0
M  V30 488 H 44.6672 4.17425 0.0793713 0
M  V30 489 H 46.0572 5.60917 -3.69895 0
M  V30 490 N 48.7773 0.814389 1.34928 0
M  V30 491 C 49.7273 0.202752 2.27097 0
M  V30 492 C 50.7113 -0.62799 1.48139 0
M  V30 493 O 51.9033 -0.483969 1.70255 0
M  V30 494 C 49.0323 -0.64146 3.37254 0
M  V30 495 C 48.1183 0.19944 4.23631 0
M  V30 496 N 48.5093 1.26628 4.89693 0
M  V30 497 C 46.8073 -0.0176433 4.45997 0
M  V30 498 C 47.5083 1.78031 5.53787 0
M  V30 499 N 46.4843 1.08553 5.32651 0
M  V30 500 H 50.2863 1.01893 2.75672 0
M  V30 501 H 47.8003 0.656332 1.48546 0
M  V30 502 H 49.7973 -1.09575 4.02243 0
M  V30 503 H 48.4573 -1.4559 2.9023 0
M  V30 504 H 49.4683 1.64901 4.90946 0
M  V30 505 H 46.1453 -0.800601 4.09752 0
M  V30 506 H 47.5353 2.67236 6.16469 0
M  V30 507 N 50.2554 -1.46986 0.568584 0
M  V30 508 C 51.2184 -2.28624 -0.162366 0
M  V30 509 C 52.2184 -1.37596 -0.832103 0
M  V30 510 O 53.4084 -1.60115 -0.68622 0
M  V30 511 C 50.5404 -3.17596 -1.23878 0
M  V30 512 H 51.7334 -2.94722 0.554899 0
M  V30 513 H 49.2864 -1.52863 0.325976 0
M  V30 514 H 50.0214 -2.56214 -1.98808 0
M  V30 515 H 49.8064 -3.846 -0.763219 0
M  V30 516 H 51.2964 -3.79078 -1.75185 0
M  V30 517 N 51.7335 -0.305618 -1.54608 0
M  V30 518 C 52.9795 0.302746 -2.00528 0
M  V30 519 C 53.3125 1.53184 -1.19367 0
M  V30 520 O 52.5875 1.92598 -0.271321 0
M  V30 521 C 52.8705 0.654756 -3.54097 0
M  V30 522 C 52.7235 -0.583793 -4.45995 0
M  V30 523 C 54.0425 1.47947 -4.14487 0
M  V30 524 H 51.1615 0.108564 -0.72896 0
M  V30 525 H 53.8035 -0.418634 -1.85331 0
M  V30 526 H 51.9535 1.26935 -3.67178 0
M  V30 527 H 53.6255 -1.22224 -4.44814 0
M  V30 528 H 51.8685 -1.21615 -4.16404 0
M  V30 529 H 52.5395 -0.293287 -5.5122 0
M  V30 530 H 55.0155 0.96013 -4.04871 0
M  V30 531 H 53.8915 1.69454 -5.22088 0
M  V30 532 H 54.1525 2.47011 -3.66658 0
M  V30 533 N 53.2116 1.57565 -0.0334293 0
M  V30 534 C 54.6226 1.79746 0.504798 0
M  V30 535 C 54.9736 0.944091 1.71992 0
M  V30 536 O 54.0986 0.155694 2.15839 0
M  V30 537 C 54.6936 3.25997 0.922567 0
M  V30 538 C 53.2526 3.49159 1.40588 0
M  V30 539 C 52.3996 2.74785 0.372633 0
M  V30 540 H 55.3506 1.56565 -0.259436 0
M  V30 541 H 55.3716 3.35945 1.78666 0
M  V30 542 H 54.8836 3.88081 0.0379825 0
M  V30 543 H 52.9846 2.92332 2.31025 0
M  V30 544 H 53.0976 4.57873 1.41028 0
M  V30 545 H 51.4616 2.40391 0.841672 0
M  V30 546 H 52.2446 3.39587 -0.503559 0
M  V30 547 N 54.6897 -0.239769 1.55765 0
M  V30 548 C 55.6377 -1.31668 1.91745 0
M  V30 549 C 56.6317 -1.49462 0.797338 0
M  V30 550 O 57.8377 -1.50852 0.982021 0
M  V30 551 H 54.2127 -0.441048 0.609082 0
M  V30 552 H 56.1837 -0.985923 2.81642 0
M  V30 553 C 54.9327 -2.66368 2.2348 0
M  V30 554 H 54.2557 -2.53478 3.09175 0
M  V30 555 H 55.6957 -3.40578 2.52553 0
M  V30 556 C 54.1547 -3.20002 1.05359 0
M  V30 557 O 54.6847 -4.00538 0.305261 0
M  V30 558 N 52.8907 -2.78126 0.842292 0
M  V30 559 H 52.4377 -2.12742 1.45253 0
M  V30 560 H 52.3957 -3.14354 0.053652 0
M  V30 561 N 56.1678 -1.49265 -0.50573 0
M  V30 562 C 57.4158 -1.582 -1.25766 0
M  V30 563 C 57.7368 -0.268482 -1.93143 0
M  V30 564 O 57.0068 0.711833 -1.8251 0
M  V30 565 H 55.5868 -0.582873 -0.467191 0
M  V30 566 H 58.2488 -1.85865 -0.586525 0
M  V30 567 H 57.3448 -2.37563 -2.02412 0
M  V30 568 N 57.6459 0.756429 -1.3826 0
M  V30 569 C 58.8739 1.54565 -1.3754 0
M  V30 570 C 59.2889 1.88767 0.0355331 0
M  V30 571 O 58.6459 1.52572 1.0014 0
M  V30 572 C 58.6969 2.84654 -2.22833 0
M  V30 573 O 58.4179 2.51912 -3.5843 0
M  V30 574 C 59.9189 3.78807 -2.30261 0
M  V30 575 H 57.1389 0.478353 -0.470553 0
M  V30 576 H 59.6829 0.936381 -1.81803 0
M  V30 577 H 57.8379 3.41965 -1.8204 0
M  V30 578 H 58.2519 3.35325 -4.03308 0
M  V30 579 H 59.7259 4.67045 -2.94233 0
M  V30 580 H 60.2029 4.19038 -1.31545 0
M  V30 581 H 60.8089 3.2742 -2.71433 0
M  V30 582 N 59.124 1.23083 0.984299 0
M  V30 583 C 60.054 1.03292 2.09411 0
M  V30 584 C 61.035 -0.048923 1.7003 0
M  V30 585 O 62.22 0.114967 1.93859 0
M  V30 586 C 59.35 0.619155 3.41736 0
M  V30 587 C 58.304 1.64791 3.95004 0
M  V30 588 C 57.63 1.0897 5.23478 0
M  V30 589 C 58.93 3.03999 4.24714 0
M  V30 590 H 60.624 1.96119 2.26225 0
M  V30 591 H 58.17 0.944344 1.08711 0
M  V30 592 H 60.123 0.467777 4.18796 0
M  V30 593 H 58.847 -0.344786 3.24775 0
M  V30 594 H 57.506 1.78721 3.20085 0
M  V30 595 H 57.154 0.11686 5.02864 0
M  V30 596 H 56.854 1.77704 5.60085 0
M  V30 597 H 58.378 0.950093 6.03163 0
M  V30 598 H 59.792 2.93393 4.92538 0
M  V30 599 H 58.189 3.69936 4.72512 0
M  V30 600 H 59.259 3.53285 3.32142 0
M  V30 601 N 60.6021 -1.18246 1.0419 0
M  V30 602 C 61.8481 -1.88536 0.747122 0
M  V30 603 C 62.1811 -1.80223 -0.723409 0
M  V30 604 O 61.4561 -1.20337 -1.52804 0
M  V30 605 C 61.7391 -3.38968 1.21544 0
M  V30 606 C 61.5921 -3.56084 2.74816 0
M  V30 607 C 62.9111 -4.32648 0.806482 0
M  V30 608 H 60.0301 -0.684619 0.272883 0
M  V30 609 H 62.6721 -1.39113 1.29413 0
M  V30 610 H 60.8221 -3.8119 0.750081 0
M  V30 611 H 62.4941 -3.22946 3.29399 0
M  V30 612 H 60.7371 -2.98699 3.14582 0
M  V30 613 H 61.4081 -4.61639 3.02644 0
M  V30 614 H 63.8841 -3.98211 1.20695 0
M  V30 615 H 62.7601 -5.36462 1.1619 0
M  V30 616 H 63.0211 -4.41146 -0.29029 0
M  V30 617 N 62.0802 -0.821533 -1.34494 0
M  V30 618 C 63.0272 -0.240397 -2.29545 0
M  V30 619 C 63.9972 0.634031 -1.53523 0
M  V30 620 O 65.1822 0.575966 -1.81899 0
M  V30 621 C 62.3222 0.592869 -3.39969 0
M  V30 622 C 61.4352 -0.30365 -4.30932 0
M  V30 623 C 60.5702 0.539049 -5.28458 0
M  V30 624 C 59.6092 -0.356942 -6.11058 0
M  V30 625 N 58.7462 0.446603 -7.00678 0
M  V30 626 H 63.5862 -1.05632 -2.7865 0
M  V30 627 H 61.1232 -0.532413 -1.37127 0
M  V30 628 H 63.0812 1.09129 -4.02675 0
M  V30 629 H 61.7112 1.37392 -2.92102 0
M  V30 630 H 60.7632 -0.920276 -3.691 0
M  V30 631 H 62.0752 -0.992661 -4.88823 0
M  V30 632 H 61.2292 1.102 -5.96608 0
M  V30 633 H 59.9682 1.26157 -4.71101 0
M  V30 634 H 58.9732 -0.932047 -5.41842 0
M  V30 635 H 60.1982 -1.07755 -6.70497 0
M  V30 636 H 58.1442 1.15282 -6.45791 0
M  V30 637 H 58.0612 -0.184048 -7.55776 0
M  V30 638 H 59.3292 0.992352 -7.73158 0
M  V30 639 N 63.5583 1.46682 -0.576371 0
M  V30 640 C 64.7863 2.06798 -0.0649635 0
M  V30 641 C 65.2013 1.42612 1.23723 0
M  V30 642 O 64.5583 0.529203 1.74659 0
M  V30 643 C 64.6093 3.6132 0.114202 0
M  V30 644 O 64.3303 4.23104 -1.13644 0
M  V30 645 C 65.8313 4.38349 0.66069 0
M  V30 646 H 63.0513 0.668778 -0.0545616 0
M  V30 647 H 65.5953 1.88404 -0.795237 0
M  V30 648 H 63.7503 3.79162 0.794673 0
M  V30 649 H 64.1643 5.15894 -0.946253 0
M  V30 650 H 65.6383 5.47081 0.73526 0
M  V30 651 H 66.1153 4.05953 1.67627 0
M  V30 652 H 66.7213 4.25297 0.0152951 0
M  V30 653 N 65.0364 0.313813 1.54444 0
M  V30 654 C 66.2854 -0.292519 1.99568 0
M  V30 655 C 66.5984 -1.54011 1.20582 0
M  V30 656 O 67.8044 -2.22183 1.56035 0
M  V30 657 C 66.2604 -0.571752 3.55329 0
M  V30 658 C 65.8684 0.658229 4.43138 0
M  V30 659 C 67.6124 -1.13857 4.08946 0
M  V30 660 C 65.5194 0.351439 5.90355 0
M  V30 661 H 64.4494 -0.113079 0.745472 0
M  V30 662 H 67.1004 0.424518 1.78522 0
M  V30 663 H 65.4824 -1.34872 3.72325 0
M  V30 664 H 66.6564 1.43403 4.37918 0
M  V30 665 H 64.9714 1.14458 4.0036 0
M  V30 666 H 67.5684 -1.38257 5.16516 0
M  V30 667 H 67.9114 -2.08489 3.6033 0
M  V30 668 H 68.4444 -0.423015 3.95544 0
M  V30 669 H 65.1834 1.26667 6.43145 0
M  V30 670 H 64.7034 -0.386842 5.98551 0
M  V30 671 H 66.3824 -0.0423134 6.46986 0
M  V30 672 N 66.5145 -1.57545 0.0417849 0
M  V30 673 C 67.7425 -1.96624 -0.643928 0
M  V30 674 C 68.1575 -0.918897 -1.64929 0
M  V30 675 O 67.5145 0.0979323 -1.82237 0
M  V30 676 C 67.5655 -3.35781 -1.33914 0
M  V30 677 O 67.2865 -4.365 -0.374048 0
M  V30 678 C 68.7875 -3.89566 -2.1155 0
M  V30 679 H 66.0075 -0.647316 -0.176702 0
M  V30 680 H 68.5515 -2.04229 0.105304 0
M  V30 681 H 66.7065 -3.29357 -2.03968 0
M  V30 682 H 67.1205 -5.17248 -0.869179 0
M  V30 683 H 68.5945 -4.89242 -2.55628 0
M  V30 684 H 69.0715 -3.24488 -2.9598 0
M  V30 685 H 69.6775 -3.99298 -1.46427 0
M  V30 686 N 67.9926 0.231505 -1.5589 0
M  V30 687 C 69.2696 0.981096 -1.69215 0
M  V30 688 C 69.6496 2.02799 -0.586164 0
M  V30 689 O 68.9976 2.24823 0.408253 0
M  V30 690 C 69.2076 1.60054 -3.10135 0
M  V30 691 C 70.5556 2.09658 -3.69227 0
M  V30 692 O 71.5796 1.69967 -3.13033 0
M  V30 693 O 70.4386 2.8258 -4.67772 0
M  V30 694 H 67.5326 0.457653 -0.688827 0
M  V30 695 H 70.0786 0.224073 -1.68214 0
M  V30 696 H 68.8506 0.844105 -3.82087 0
M  V30 697 H 68.4736 2.42336 -3.15212 0
M  V30 698 N 69.4707 1.49531 0.497807 0
M  V30 699 C 70.7477 1.49682 1.25915 0
M  V30 700 C 71.1277 0.226339 2.09883 0
M  V30 701 O 70.4757 -0.791189 2.14365 0
M  V30 702 C 70.6857 2.77755 2.11313 0
M  V30 703 C 72.0337 3.27371 2.70395 0
M  V30 704 O 73.0577 2.78894 2.21578 0
M  V30 705 O 71.9167 4.11808 3.59272 0
M  V30 706 H 69.0107 0.599228 0.56996 0
M  V30 707 H 71.5567 1.61798 0.511816 0
M  V30 708 H 70.3287 3.61713 1.49264 0
M  V30 709 H 69.9517 2.68515 2.93233 0
M  V30 710 N 70.9488 -0.749086 1.3866 0
M  V30 711 C 71.8808 -1.87273 1.32142 0
M  V30 712 C 72.8938 -1.61127 0.232787 0
M  V30 713 O 74.0828 -1.71623 0.49069 0
M  V30 714 C 71.1828 -3.23005 1.02571 0
M  V30 715 C 70.3558 -3.7662 2.22433 0
M  V30 716 C 69.4148 -4.90879 1.89537 0
M  V30 717 O 68.4408 -5.05276 2.62078 0
M  V30 718 N 69.6428 -5.74198 0.853031 0
M  V30 719 H 72.4078 -1.93373 2.28969 0
M  V30 720 H 69.9688 -0.929216 1.32579 0
M  V30 721 H 71.9608 -3.96992 0.786085 0
M  V30 722 H 70.5308 -3.12262 0.145249 0
M  V30 723 H 69.7508 -2.94147 2.62434 0
M  V30 724 H 71.0388 -4.09173 3.02415 0
M  V30 725 H 70.4368 -5.6514 0.25155 0
M  V30 726 H 68.9938 -6.48313 0.67329 0
M  V30 727 N 72.4269 -1.23603 -0.977757 0
M  V30 728 C 73.6759 -1.06377 -1.71368 0
M  V30 729 C 73.9889 0.399062 -1.91486 0
M  V30 730 O 75.1949 0.691312 -2.62551 0
M  V30 731 C 73.6509 -1.85512 -3.08404 0
M  V30 732 C 73.2589 -3.36141 -2.96164 0
M  V30 733 C 75.0029 -1.76783 -3.85938 0
M  V30 734 C 72.9099 -4.07659 -4.28449 0
M  V30 735 H 71.8399 -0.394452 -0.642591 0
M  V30 736 H 74.4909 -1.47594 -1.09034 0
M  V30 737 H 72.8729 -1.37103 -3.71509 0
M  V30 738 H 74.0469 -3.92056 -2.42133 0
M  V30 739 H 72.3619 -3.45712 -2.32104 0
M  V30 740 H 74.9589 -2.27526 -4.83876 0
M  V30 741 H 75.3019 -0.731116 -4.0983 0
M  V30 742 H 75.8349 -2.22818 -3.2954 0
M  V30 743 H 72.5739 -5.11648 -4.09752 0
M  V30 744 H 72.0939 -3.5653 -4.82334 0
M  V30 745 H 73.7729 -4.141 -4.97122 0
M  V30 746 N 73.905 1.17692 -1.04816 0
M  V30 747 C 74.815 2.25229 -0.65643 0
M  V30 748 C 75.831 1.71018 0.320761 0
M  V30 749 O 77.007 2.00649 0.173805 0
M  V30 750 C 74.072 3.46684 -0.0332629 0
M  V30 751 C 73.133 4.15997 -1.06042 0
M  V30 752 C 72.366 5.31654 -0.466893 0
M  V30 753 O 72.589 5.65777 0.724758 0
M  V30 754 O 71.523 5.89831 -1.1993 0
M  V30 755 H 75.349 2.61016 -1.55255 0
M  V30 756 H 72.934 1.24919 -0.81949 0
M  V30 757 H 74.816 4.20234 0.313256 0
M  V30 758 H 73.491 3.12703 0.836566 0
M  V30 759 H 72.398 3.44482 -1.45886 0
M  V30 760 H 73.731 4.53996 -1.90127 0
M  V30 761 N 75.3831 0.828654 1.34056 0
M  V30 762 C 76.6291 0.42008 1.98402 0
M  V30 763 C 76.9621 -1.01564 1.65525 0
M  V30 764 O 76.2371 -1.70834 0.929831 0
M  V30 765 C 76.5201 0.62927 3.54559 0
M  V30 766 C 76.3731 2.11152 3.97159 0
M  V30 767 C 77.6921 0.0688756 4.40046 0
M  V30 768 H 74.8111 0.154104 0.720709 0
M  V30 769 H 77.4531 1.04228 1.5886 0
M  V30 770 H 75.6031 0.0996418 3.88372 0
M  V30 771 H 77.2751 2.70522 3.73651 0
M  V30 772 H 75.5181 2.59985 3.47261 0
M  V30 773 H 76.1891 2.20868 5.05887 0
M  V30 774 H 78.6651 0.521458 4.1282 0
M  V30 775 H 77.5411 0.245006 5.48353 0
M  V30 776 H 77.8021 -1.0266 4.30015 0
M  V30 777 N 76.8612 -1.46375 0.584142 0
M  V30 778 C 78.0892 -2.06761 0.0759296 0
M  V30 779 C 78.5042 -1.43266 -1.22965 0
M  V30 780 O 77.8612 -0.538458 -1.74376 0
M  V30 781 C 77.9122 -3.61375 -0.0950384 0
M  V30 782 O 77.6332 -4.22495 1.15887 0
M  V30 783 C 79.1342 -4.38693 -0.637434 0
M  V30 784 H 76.3542 -0.668479 0.0581075 0
M  V30 785 H 78.8982 -1.8798 0.805218 0
M  V30 786 H 77.0532 -3.79578 -0.774554 0
M  V30 787 H 77.4672 -5.15385 0.973598 0
M  V30 788 H 78.9412 -5.47464 -0.706237 0
M  V30 789 H 79.4182 -4.06836 -1.65472 0
M  V30 790 H 80.0242 -4.25299 0.00725967 0
M  V30 791 N 78.3393 -0.321999 -1.54275 0
M  V30 792 C 79.2873 0.560206 -2.25753 0
M  V30 793 C 80.2813 1.11984 -1.27106 0
M  V30 794 O 81.4873 1.06806 -1.44888 0
M  V30 795 H 77.8623 0.199304 -0.725108 0
M  V30 796 H 79.8333 -0.0649365 -2.98329 0
M  V30 797 C 78.5823 1.71023 -3.02731 0
M  V30 798 H 77.9053 1.28885 -3.78456 0
M  V30 799 H 79.3453 2.30314 -3.55993 0
M  V30 800 C 77.8043 2.62692 -2.10938 0
M  V30 801 O 78.3343 3.64364 -1.6912 0
M  V30 802 N 76.5403 2.30891 -1.76459 0
M  V30 803 H 76.0873 1.48253 -2.10663 0
M  V30 804 H 76.0453 2.92487 -1.1532 0
M  V30 805 N 79.8174 1.5752 -0.0501392 0
M  V30 806 C 80.7804 2.1037 0.909786 0
M  V30 807 C 81.7804 1.02308 1.24056 0
M  V30 808 O 82.9704 1.28385 1.17741 0
M  V30 809 C 80.1024 2.58708 2.21998 0
M  V30 810 H 81.2954 2.96479 0.451665 0
M  V30 811 H 78.8484 1.55038 0.198248 0
M  V30 812 H 79.5834 1.75989 2.72394 0
M  V30 813 H 79.3684 3.37675 1.99295 0
M  V30 814 H 80.8584 2.99747 2.9076 0
M  V30 815 N 81.2955 -0.223234 1.56011 0
M  V30 816 C 82.5235 -0.964812 1.83027 0
M  V30 817 C 82.9385 -1.78013 0.62904 0
M  V30 818 O 82.2955 -1.78008 -0.402414 0
M  V30 819 C 82.3465 -1.88373 3.08542 0
M  V30 820 O 82.0675 -1.10137 4.2403 0
M  V30 821 C 83.5685 -2.73934 3.48533 0
M  V30 822 H 80.7885 -0.282842 0.608475 0
M  V30 823 H 83.3325 -0.238971 2.03099 0
M  V30 824 H 81.4875 -2.56354 2.9045 0
M  V30 825 H 81.9015 -1.72501 4.95322 0
M  V30 826 H 83.3755 -3.34117 4.39397 0
M  V30 827 H 83.8525 -3.46244 2.70207 0
M  V30 828 H 84.4585 -2.11369 3.69057 0
M  V30 829 N 82.7736 -1.49793 -0.48987 0
M  V30 830 C 83.6836 -1.70036 -1.61632 0
M  V30 831 C 84.6996 -0.583102 -1.63939 0
M  V30 832 O 85.8756 -0.859169 -1.82154 0
M  V30 833 C 82.9406 -1.77277 -2.97949 0
M  V30 834 C 82.0016 -3.00918 -3.06181 0
M  V30 835 C 81.2346 -3.07804 -4.35996 0
M  V30 836 O 81.4576 -2.21982 -5.25433 0
M  V30 837 O 80.3916 -4.00369 -4.49431 0
M  V30 838 H 84.2176 -2.65486 -1.47482 0
M  V30 839 H 81.8026 -1.33666 -0.667362 0
M  V30 840 H 83.6846 -1.84329 -3.78947 0
M  V30 841 H 82.3596 -0.850076 -3.12339 0
M  V30 842 H 81.2666 -2.99377 -2.2433 0
M  V30 843 H 82.5996 -3.92704 -2.96723 0
M  V30 844 N 84.2517 0.741722 -1.39055 0
M  V30 845 C 85.1817 1.869 -1.39966 0
M  V30 846 C 86.1627 1.6804 -0.26392 0
M  V30 847 O 87.3477 1.88458 -0.468755 0
M  V30 848 C 84.4777 3.24572 -1.23574 0
M  V30 849 C 83.4317 3.58056 -2.34477 0
M  V30 850 C 82.7577 4.94593 -2.0318 0
M  V30 851 C 84.0577 3.61716 -3.76774 0
M  V30 852 H 85.7517 1.86395 -2.34302 0
M  V30 853 H 83.2977 0.895361 -1.1278 0
M  V30 854 H 85.2507 4.031 -1.22834 0
M  V30 855 H 83.9747 3.25587 -0.257045 0
M  V30 856 H 82.6337 2.81854 -2.34423 0
M  V30 857 H 82.2817 4.92181 -1.03765 0
M  V30 858 H 81.9817 5.17964 -2.77465 0
M  V30 859 H 83.5057 5.75486 -2.04079 0
M  V30 860 H 84.9197 4.30335 -3.78794 0
M  V30 861 H 83.3167 3.96603 -4.50362 0
M  V30 862 H 84.3867 2.61672 -4.08235 0
M  V30 863 N 85.7298 1.2412 0.971189 0
M  V30 864 C 86.9758 1.08041 1.71625 0
M  V30 865 C 87.3088 -0.380407 1.90438 0
M  V30 866 O 86.5838 -1.28127 1.46334 0
M  V30 867 C 86.8668 1.81682 3.10908 0
M  V30 868 C 86.7198 3.35493 2.99608 0
M  V30 869 C 88.0388 1.58671 4.10501 0
M  V30 870 H 85.1578 0.39388 0.622919 0
M  V30 871 H 87.7998 1.52743 1.13003 0
M  V30 872 H 85.9498 1.43684 3.60953 0
M  V30 873 H 87.6218 3.83068 2.57015 0
M  V30 874 H 85.8648 3.64052 2.35899 0
M  V30 875 H 86.5358 3.82217 3.98264 0
M  V30 876 H 89.0118 1.91719 3.69301 0
M  V30 877 H 87.8878 2.1266 5.06031 0
M  V30 878 H 88.1488 0.524161 4.38982 0
M  V30 879 N 87.2079 -1.17134 1.05439 0
M  V30 880 C 88.1399 -2.2078 0.615539 0
M  V30 881 C 89.1529 -1.59584 -0.322001 0
M  V30 882 O 90.3419 -1.78133 -0.114344 0
M  V30 883 C 87.4419 -3.38691 -0.118938 0
M  V30 884 C 86.6149 -4.29454 0.829924 0
M  V30 885 C 85.6739 -5.26024 0.136258 0
M  V30 886 O 84.6999 -5.63952 0.77115 0
M  V30 887 N 85.9019 -5.69487 -1.1254 0
M  V30 888 H 88.6669 -2.59052 1.50705 0
M  V30 889 H 86.2279 -1.32058 0.936603 0
M  V30 890 H 88.2199 -4.00329 -0.593179 0
M  V30 891 H 86.7899 -2.98996 -0.91215 0
M  V30 892 H 86.0099 -3.65211 1.48373 0
M  V30 893 H 87.2979 -4.86984 1.47392 0
M  V30 894 H 86.6959 -5.4075 -1.6615 0
M  V30 895 H 85.2529 -6.33257 -1.54366 0
M  V30 896 N 88.686 -0.835752 -1.33615 0
M  V30 897 C 89.911 -0.442389 -2.02627 0
M  V30 898 C 90.336 0.947735 -1.62479 0
M  V30 899 O 89.694 1.61907 -0.815826 0
M  V30 900 C 89.742 -0.567216 -3.56111 0
M  V30 901 O 88.846 0.407799 -4.10379 0
M  V30 902 H 88.187 -0.180278 -0.639059 0
M  V30 903 H 90.717 -1.12972 -1.70583 0
M  V30 904 H 90.727 -0.447708 -4.05536 0
M  V30 905 H 89.402 -1.58103 -3.84677 0
M  V30 906 H 87.979 0.246107 -3.72087 0
M  V30 907 N 90.1641 1.46063 -0.591896 0
M  V30 908 C 91.3891 2.07226 -0.0850314 0
M  V30 909 C 91.8141 1.43625 1.21463 0
M  V30 910 O 91.1721 0.523305 1.73583 0
M  V30 911 C 91.2201 3.60554 0.0576567 0
M  V30 912 O 90.3241 3.97128 1.11188 0
M  V30 913 H 89.6651 0.660615 -0.0669568 0
M  V30 914 H 92.1951 1.8756 -0.81745 0
M  V30 915 H 92.2051 4.07165 0.2609 0
M  V30 916 H 90.8801 4.06235 -0.891416 0
M  V30 917 H 89.4571 3.62213 0.886356 0
M  V30 918 N 91.6422 0.330177 1.54103 0
M  V30 919 C 92.8672 -0.274893 2.0557 0
M  V30 920 C 93.2922 -1.44487 1.20437 0
M  V30 921 O 92.6502 -1.80021 0.214991 0
M  V30 922 C 92.6982 -0.68079 3.54115 0
M  V30 923 O 91.8022 -1.7824 3.71893 0
M  V30 924 H 91.1432 -0.0483849 0.662235 0
M  V30 925 H 93.6732 0.480508 1.98878 0
M  V30 926 H 93.6832 -0.961635 3.96505 0
M  V30 927 H 92.3582 0.174903 4.15532 0
M  V30 928 H 90.9352 -1.49985 3.41407 0
M  V30 929 N 93.1203 -1.57491 0.0584922 0
M  V30 930 C 94.3483 -1.97296 -0.623037 0
M  V30 931 C 94.7633 -0.936338 -1.63946 0
M  V30 932 O 94.1203 0.0785981 -1.82331 0
M  V30 933 C 94.1713 -3.37183 -1.30345 0
M  V30 934 O 93.8923 -4.36872 -0.32773 0
M  V30 935 C 95.3933 -3.91788 -2.07406 0
M  V30 936 H 92.6133 -0.649153 -0.169826 0
M  V30 937 H 95.1573 -2.04106 0.12696 0
M  V30 938 H 93.3123 -3.31502 -2.00463 0
M  V30 939 H 93.7263 -5.18141 -0.814269 0
M  V30 940 H 95.2003 -4.91926 -2.50425 0
M  V30 941 H 95.6773 -3.27609 -2.92521 0
M  V30 942 H 96.2833 -4.00829 -1.42184 0
M  V30 943 N 94.5984 0.214957 -1.56127 0
M  V30 944 C 95.8464 0.936518 -1.79091 0
M  V30 945 C 96.1674 1.84606 -0.628148 0
M  V30 946 O 95.4374 1.92664 0.35462 0
M  V30 947 H 94.0174 0.3488 -0.660566 0
M  V30 948 H 96.6794 0.22523 -1.93594 0
M  V30 949 H 95.7754 1.53943 -2.71492 0
M  V30 950 N 96.0765 1.50051 0.48192 0
M  V30 951 C 97.0235 1.68122 1.58125 0
M  V30 952 C 97.9935 0.522545 1.57666 0
M  V30 953 O 99.1785 0.751844 1.75362 0
M  V30 954 C 96.3185 1.77142 2.96167 0
M  V30 955 C 95.4315 3.0444 3.06497 0
M  V30 956 C 94.5665 3.04321 4.35387 0
M  V30 957 C 93.6055 4.26118 4.3942 0
M  V30 958 N 92.7425 4.238 5.59766 0
M  V30 959 H 97.5825 2.6198 1.42022 0
M  V30 960 H 95.1195 1.29877 0.690687 0
M  V30 961 H 97.0775 1.80352 3.76203 0
M  V30 962 H 95.7075 0.867329 3.1093 0
M  V30 963 H 94.7595 3.10752 2.19402 0
M  V30 964 H 96.0715 3.94426 3.05336 0
M  V30 965 H 95.2255 3.062 5.23762 0
M  V30 966 H 93.9645 2.12147 4.39141 0
M  V30 967 H 92.9695 4.24463 3.49444 0
M  V30 968 H 94.1945 5.19507 4.37366 0
M  V30 969 H 92.1405 3.34474 5.64326 0
M  V30 970 H 92.0575 5.07542 5.60301 0
M  V30 971 H 93.3255 4.2981 6.50295 0
M  V30 972 N 97.5546 -0.734337 1.39446 0
M  V30 973 C 98.8036 -1.48937 1.36017 0
M  V30 974 C 99.1166 -1.95557 -0.0409005 0
M  V30 975 O 100.323 -2.70779 -0.19778 0
M  V30 976 C 98.7786 -2.69125 2.38955 0
M  V30 977 C 98.3866 -2.29452 3.8478 0
M  V30 978 C 100.131 -3.46944 2.44603 0
M  V30 979 C 98.0376 -3.46366 4.79358 0
M  V30 980 H 96.9676 -0.559296 0.505672 0
M  V30 981 H 99.6186 -0.800983 1.65095 0
M  V30 982 H 98.0006 -3.40041 2.02948 0
M  V30 983 H 99.1746 -1.66077 4.29831 0
M  V30 984 H 97.4896 -1.64723 3.82433 0
M  V30 985 H 100.087 -4.33907 3.12456 0
M  V30 986 H 100.43 -3.89454 1.47076 0
M  V30 987 H 100.963 -2.83056 2.79507 0
M  V30 988 H 97.7016 -3.08905 5.78151 0
M  V30 989 H 97.2216 -4.08719 4.38986 0
M  V30 990 H 98.9006 -4.12691 4.98292 0
M  V30 991 N 99.0327 -1.24633 -0.964593 0
M  V30 992 C 100.273 -1.09981 -1.72289 0
M  V30 993 C 100.637 0.354792 -1.88693 0
M  V30 994 O 101.838 0.62289 -2.61483 0
M  V30 995 C 100.109 -1.82262 -3.07434 0
M  V30 996 S 101.668 -1.83379 -3.98645 0
M  V30 997 H 98.4857 -0.393292 -0.59232 0
M  V30 998 H 101.088 -1.58009 -1.15123 0
M  V30 999 H 99.7917 -2.87206 -2.93157 0
M  V30 1000 H 99.3227 -1.3458 -3.69664 0
M  V30 1001 H 101.338 -0.903691 -4.87901 0
M  V30 1002 N 100.511 1.16574 -1.06058 0
M  V30 1003 C 101.459 2.22941 -0.663343 0
M  V30 1004 C 102.453 1.66358 0.319593 0
M  V30 1005 O 103.659 1.7905 0.184713 0
M  V30 1006 H 100.034 0.725907 -0.196376 0
M  V30 1007 H 102.005 2.53736 -1.57037 0
M  V30 1008 C 100.754 3.47642 -0.0632808 0
M  V30 1009 H 100.077 3.91493 -0.810733 0
M  V30 1010 H 101.517 4.2363 0.177177 0
M  V30 1011 C 99.9758 3.1509 1.19248 0
M  V30 1012 O 100.506 3.30673 2.28075 0
M  V30 1013 N 98.7118 2.6924 1.09353 0
M  V30 1014 H 98.2588 2.5676 0.207912 0
M  V30 1015 H 98.2168 2.47833 1.93458 0
M  V30 1016 N 101.989 0.842826 1.3317 0
M  V30 1017 C 102.937 0.267495 2.31057 0
M  V30 1018 C 103.931 -0.602682 1.58316 0
M  V30 1019 O 105.137 -0.491803 1.73151 0
M  V30 1020 H 101.512 0.0677813 0.748939 0
M  V30 1021 H 103.483 1.10754 2.77085 0
M  V30 1022 C 102.232 -0.539331 3.43492 0
M  V30 1023 H 101.555 0.12095 3.99617 0
M  V30 1024 H 102.995 -0.90767 4.14171 0
M  V30 1025 C 101.454 -1.71981 2.89697 0
M  V30 1026 O 101.984 -2.81862 2.86211 0
M  V30 1027 N 100.19 -1.54299 2.46252 0
M  V30 1028 H 99.7369 -0.649143 2.49287 0
M  V30 1029 H 99.6949 -2.33431 2.10612 0
M  V30 1030 N 103.467 -1.45747 0.599634 0
M  V30 1031 C 104.878 -1.85853 0.177681 0
M  V30 1032 C 105.229 -1.50102 -1.26348 0
M  V30 1033 O 104.354 -0.923905 -1.95686 0
M  V30 1034 C 104.949 -3.37326 0.315688 0
M  V30 1035 C 103.508 -3.76365 -0.0515144 0
M  V30 1036 C 102.655 -2.69722 0.643822 0
M  V30 1037 H 105.606 -1.36661 0.806814 0
M  V30 1038 H 105.627 -3.77778 -0.454321 0
M  V30 1039 H 105.139 -3.63315 1.36468 0
M  V30 1040 H 103.24 -3.55993 -1.09999 0
M  V30 1041 H 103.353 -4.77916 0.336594 0
M  V30 1042 H 101.717 -2.54567 0.0822881 0
M  V30 1043 H 102.5 -2.98549 1.6948 0
M  V30 1044 N 104.945 -0.338344 -1.53925 0
M  V30 1045 C 105.895 0.536712 -2.21593 0
M  V30 1046 C 106.879 1.07015 -1.20153 0
M  V30 1047 O 108.071 1.00471 -1.45721 0
M  V30 1048 C 105.2 1.68977 -2.98834 0
M  V30 1049 C 104.286 1.17052 -4.07627 0
M  V30 1050 N 104.677 0.372085 -5.0443 0
M  V30 1051 C 102.975 1.44789 -4.21844 0
M  V30 1052 C 103.676 0.0909171 -5.81629 0
M  V30 1053 N 102.652 0.681131 -5.39316 0
M  V30 1054 H 106.454 -0.0804298 -2.9379 0
M  V30 1055 H 103.968 -0.144943 -1.61752 0
M  V30 1056 H 105.965 2.32857 -3.45808 0
M  V30 1057 H 104.625 2.31024 -2.28162 0
M  V30 1058 H 105.636 0.0136217 -5.17898 0
M  V30 1059 H 102.313 2.07313 -3.62391 0
M  V30 1060 H 103.703 -0.552817 -6.69622 0
M  V30 1061 N 106.423 1.57458 -0.0668435 0
M  V30 1062 C 107.839 1.56947 0.289772 0
M  V30 1063 C 108.039 1.07584 1.70376 0
M  V30 1064 O 107.095 0.739486 2.41429 0
M  V30 1065 C 108.408 3.0052 0.103943 0
M  V30 1066 C 109.956 3.12517 0.173857 0
M  V30 1067 C 110.431 4.57997 0.0163682 0
M  V30 1068 N 111.922 4.63144 0.0721352 0
M  V30 1069 C 112.657 5.73394 -0.0253794 0
M  V30 1070 N 112.153 6.92576 -0.176133 0
M  V30 1071 N 113.946 5.62091 0.0313305 0
M  V30 1072 H 106.097 1.87863 -0.991027 0
M  V30 1073 H 108.36 0.86583 -0.38606 0
M  V30 1074 H 108.066 3.40729 -0.871572 0
M  V30 1075 H 107.94 3.67304 0.858366 0
M  V30 1076 H 110.327 2.72197 1.13985 0
M  V30 1077 H 110.408 2.48381 -0.611586 0
M  V30 1078 H 110.052 4.99005 -0.946374 0
M  V30 1079 H 109.982 5.20158 0.821153 0
M  V30 1080 H 112.473 3.77436 0.187263 0
M  V30 1081 H 112.786 7.72418 -0.242821 0
M  V30 1082 H 111.131 6.94678 -0.211429 0
M  V30 1083 H 114.322 4.67867 0.147773 0
M  V30 1084 H 114.495 6.47982 -0.048121 0
M  V30 1085 N 107.901 -0.206675 1.56239 0
M  V30 1086 C 109.15 -0.926964 1.79138 0
M  V30 1087 C 109.463 -1.84901 0.638043 0
M  V30 1088 O 110.669 -2.60906 0.751033 0
M  V30 1089 C 109.125 -1.6986 3.17294 0
M  V30 1090 C 108.733 -0.821956 4.40395 0
M  V30 1091 C 110.477 -2.40922 3.4951 0
M  V30 1092 C 108.384 -1.59179 5.69575 0
M  V30 1093 H 107.314 -0.349864 0.667915 0
M  V30 1094 H 109.965 -0.180487 1.8261 0
M  V30 1095 H 108.347 -2.48853 3.08039 0
M  V30 1096 H 109.521 -0.0715019 4.60745 0
M  V30 1097 H 107.836 -0.222741 4.15804 0
M  V30 1098 H 110.433 -2.99047 4.43255 0
M  V30 1099 H 110.776 -3.14542 2.72707 0
M  V30 1100 H 111.309 -1.68905 3.60161 0
M  V30 1101 H 108.048 -0.898589 6.49312 0
M  V30 1102 H 107.568 -2.31648 5.53262 0
M  V30 1103 H 109.247 -2.14862 6.10281 0
M  V30 1104 N 109.379 -1.50304 -0.473955 0
M  V30 1105 C 110.309 -1.71886 -1.58042 0
M  V30 1106 C 111.29 -0.567799 -1.60344 0
M  V30 1107 O 112.475 -0.806623 -1.76656 0
M  V30 1108 C 109.605 -1.81036 -2.96384 0
M  V30 1109 C 108.559 -2.962 -3.08949 0
M  V30 1110 C 107.885 -2.9049 -4.48909 0
M  V30 1111 C 109.185 -4.36752 -2.86434 0
M  V30 1112 H 110.879 -2.64527 -1.40234 0
M  V30 1113 H 108.425 -1.27295 -0.673201 0
M  V30 1114 H 110.378 -1.94719 -3.73714 0
M  V30 1115 H 109.102 -0.850147 -3.15341 0
M  V30 1116 H 107.761 -2.82164 -2.3405 0
M  V30 1117 H 107.409 -1.92321 -4.64781 0
M  V30 1118 H 107.109 -3.67802 -4.58253 0
M  V30 1119 H 108.633 -3.06218 -5.28264 0
M  V30 1120 H 110.047 -4.5133 -3.53517 0
M  V30 1121 H 108.444 -5.15493 -3.07225 0
M  V30 1122 H 109.514 -4.49321 -1.82316 0
M  V30 1123 N 110.857 0.726932 -1.39834 0
M  V30 1124 C 112.134 1.47902 -1.28001 0
M  V30 1125 C 112.514 2.1083 0.106789 0
M  V30 1126 O 111.862 1.99242 1.11869 0
M  V30 1127 C 112.072 2.52392 -2.41038 0
M  V30 1128 C 113.42 3.18546 -2.80737 0
M  V30 1129 O 114.444 2.62708 -2.40547 0
M  V30 1130 O 113.303 4.19604 -3.50135 0
M  V30 1131 H 110.397 0.657163 -0.502062 0
M  V30 1132 H 112.943 0.760071 -1.51727 0
M  V30 1133 H 111.715 2.04329 -3.33715 0
M  V30 1134 H 111.338 3.31837 -2.19021 0
M  V30 1135 N 112.336 1.25143 0.95797 0
M  V30 1136 C 113.584 1.09476 1.69881 0
M  V30 1137 C 113.905 -0.365502 1.91544 0
M  V30 1138 O 113.175 -1.25985 1.50015 0
M  V30 1139 H 111.755 0.402128 0.629525 0
M  V30 1140 H 114.417 1.57214 1.15194 0
M  V30 1141 H 113.513 1.60046 2.6794 0
M  V30 1142 N 113.814 -1.1601 1.06675 0
M  V30 1143 C 115.063 -1.85973 0.780818 0
M  V30 1144 C 115.376 -1.82819 -0.695444 0
M  V30 1145 O 116.582 -2.484 -1.09589 0
M  V30 1146 C 115.038 -3.33757 1.34665 0
M  V30 1147 C 114.646 -3.45374 2.85343 0
M  V30 1148 C 116.39 -4.0895 1.13843 0
M  V30 1149 C 114.297 -4.87266 3.35151 0
M  V30 1150 H 113.227 -0.696661 0.288407 0
M  V30 1151 H 115.878 -1.30903 1.28595 0
M  V30 1152 H 114.26 -3.88456 0.769274 0
M  V30 1153 H 115.434 -3.00816 3.49065 0
M  V30 1154 H 113.749 -2.83619 3.04876 0
M  V30 1155 H 116.346 -5.13654 1.4854 0
M  V30 1156 H 116.689 -4.16229 0.0770282 0
M  V30 1157 H 117.222 -3.605 1.68179 0
M  V30 1158 H 113.961 -4.85168 4.40786 0
M  V30 1159 H 113.481 -5.32433 2.76179 0
M  V30 1160 H 115.16 -5.56097 3.30704 0
M  V30 1161 N 115.292 -0.849877 -1.32721 0
M  V30 1162 C 116.569 -0.372405 -1.92022 0
M  V30 1163 C 116.949 1.1435 -1.77447 0
M  V30 1164 O 116.297 1.96296 -1.16962 0
M  V30 1165 C 116.507 -0.831482 -3.3895 0
M  V30 1166 C 117.855 -0.845882 -4.16089 0
M  V30 1167 O 118.879 -0.775806 -3.47649 0
M  V30 1168 O 117.738 -0.943753 -5.38289 0
M  V30 1169 H 114.832 -0.107667 -0.819961 0
M  V30 1170 H 117.378 -0.93646 -1.41522 0
M  V30 1171 H 116.15 -1.87448 -3.4348 0
M  V30 1172 H 115.773 -0.24461 -3.96847 0
M  V30 1173 N 116.77 1.45427 -0.607355 0
M  V30 1174 C 118.01 2.04128 -0.105458 0
M  V30 1175 C 118.374 1.46555 1.24039 0
M  V30 1176 O 119.575 1.96608 1.833 0
M  V30 1177 C 117.846 3.57338 -0.0665324 0
M  V30 1178 S 119.405 4.37201 0.374207 0
M  V30 1179 H 116.223 0.709278 -0.0494575 0
M  V30 1180 H 118.825 1.78139 -0.805404 0
M  V30 1181 H 117.529 3.96752 -1.04957 0
M  V30 1182 H 117.06 3.87902 0.655415 0
M  V30 1183 H 119.075 4.6888 1.62377 0
M  V30 1184 N 118.248 0.346503 1.53744 0
M  V30 1185 C 119.476 -0.25041 2.05379 0
M  V30 1186 C 119.891 -1.43979 1.22129 0
M  V30 1187 O 119.248 -1.80677 0.257321 0
M  V30 1188 C 119.299 -0.662575 3.55376 0
M  V30 1189 O 119.02 0.479515 4.35468 0
M  V30 1190 C 120.521 -1.31989 4.23195 0
M  V30 1191 H 117.741 -0.0478198 0.669294 0
M  V30 1192 H 120.285 0.499346 1.9831 0
M  V30 1193 H 118.44 -1.36227 3.62658 0
M  V30 1194 H 118.854 0.15037 5.24284 0
M  V30 1195 H 120.328 -1.55902 5.29527 0
M  V30 1196 H 120.805 -2.27436 3.75725 0
M  V30 1197 H 121.411 -0.662154 4.20114 0
M  V30 1198 N 119.726 -1.57421 0.075193 0
M  V30 1199 C 120.656 -2.15942 -0.888324 0
M  V30 1200 C 121.637 -1.08737 -1.30806 0
M  V30 1201 O 122.822 -1.36787 -1.37851 0
M  V30 1202 C 119.952 -2.72379 -2.1547 0
M  V30 1203 C 118.906 -3.8478 -1.87425 0
M  V30 1204 C 118.232 -4.27834 -3.20721 0
M  V30 1205 C 119.532 -5.08869 -1.17684 0
M  V30 1206 H 121.226 -2.96705 -0.400799 0
M  V30 1207 H 118.772 -1.42723 -0.191342 0
M  V30 1208 H 120.725 -3.11965 -2.83295 0
M  V30 1209 H 119.449 -1.88841 -2.6647 0
M  V30 1210 H 118.108 -3.45703 -1.22004 0
M  V30 1211 H 117.756 -3.41214 -3.6957 0
M  V30 1212 H 117.456 -5.03605 -3.02746 0
M  V30 1213 H 118.98 -4.70039 -3.89738 0
M  V30 1214 H 120.394 -5.4575 -1.75584 0
M  V30 1215 H 118.791 -5.8994 -1.09956 0
M  V30 1216 H 119.861 -4.84648 -0.156453 0
M  V30 1217 N 121.204 0.198386 -1.56346 0
M  V30 1218 C 122.453 0.917451 -1.79627 0
M  V30 1219 C 122.766 1.8456 -0.64784 0
M  V30 1220 O 123.972 2.60504 -0.764859 0
M  V30 1221 C 122.428 1.68175 -3.18191 0
M  V30 1222 C 122.036 0.798589 -4.40825 0
M  V30 1223 C 123.78 2.39065 -3.50782 0
M  V30 1224 C 121.687 1.56157 -5.70411 0
M  V30 1225 H 120.617 0.346317 -0.669762 0
M  V30 1226 H 123.268 0.170801 -1.82703 0
M  V30 1227 H 121.65 2.47216 -3.09354 0
M  V30 1228 H 122.824 0.0470665 -4.60776 0
M  V30 1229 H 121.139 0.200686 -4.15916 0
M  V30 1230 H 123.736 2.96692 -4.44835 0
M  V30 1231 H 124.079 3.13091 -2.74371 0
M  V30 1232 H 124.612 1.66993 -3.61052 0
M  V30 1233 H 121.351 0.864142 -6.49779 0
M  V30 1234 H 120.871 2.2871 -5.54483 0
M  V30 1235 H 122.55 2.11622 -6.11412 0
M  V30 1236 N 122.682 1.50554 0.465978 0
M  V30 1237 C 123.959 1.5232 1.22712 0
M  V30 1238 C 124.339 0.270807 2.09356 0
M  V30 1239 O 123.687 -0.745541 2.15995 0
M  V30 1240 C 123.897 2.82175 2.05374 0
M  V30 1241 C 125.245 3.33033 2.6339 0
M  V30 1242 O 126.269 2.83531 2.15612 0
M  V30 1243 O 125.128 4.19336 3.50456 0
M  V30 1244 H 122.222 0.611183 0.557122 0
M  V30 1245 H 124.768 1.62847 0.477381 0
M  V30 1246 H 123.54 3.64797 1.41558 0
M  V30 1247 H 123.163 2.74675 2.87471 0
M  V30 1248 N 124.16 -0.719506 1.40217 0
M  V30 1249 C 125.123 -1.8153 1.39927 0
M  V30 1250 C 126.123 -1.58095 0.293723 0
M  V30 1251 O 127.313 -1.65209 0.552429 0
M  V30 1252 C 124.445 -3.19561 1.18716 0
M  V30 1253 H 125.638 -1.83186 2.37451 0
M  V30 1254 H 123.191 -0.924746 1.26008 0
M  V30 1255 H 123.926 -3.23557 0.219366 0
M  V30 1256 H 123.711 -3.3797 1.98793 0
M  V30 1257 H 125.201 -3.99598 1.21291 0
M  V30 1258 N 125.638 -1.25649 -0.95132 0
M  V30 1259 C 126.568 -1.08808 -2.06599 0
M  V30 1260 C 127.549 0.00382547 -1.701 0
M  V30 1261 O 128.734 -0.166325 -1.93486 0
M  V30 1262 C 125.864 -0.709542 -3.39975 0
M  V30 1263 C 124.818 -1.75206 -3.90496 0
M  V30 1264 C 124.144 -1.22811 -5.20405 0
M  V30 1265 C 125.444 -3.15153 -4.16504 0
M  V30 1266 H 127.138 -2.02048 -2.20946 0
M  V30 1267 H 124.684 -0.972835 -1.06169 0
M  V30 1268 H 126.637 -0.578649 -4.17408 0
M  V30 1269 H 125.361 0.258556 -3.25575 0
M  V30 1270 H 124.02 -1.87145 -3.15234 0
M  V30 1271 H 123.668 -0.250145 -5.02378 0
M  V30 1272 H 123.368 -1.92492 -5.55176 0
M  V30 1273 H 124.892 -1.10968 -6.00432 0
M  V30 1274 H 126.306 -3.06349 -4.84586 0
M  V30 1275 H 124.703 -3.82333 -4.62538 0
M  V30 1276 H 125.773 -3.61966 -3.22658 0
M  V30 1277 N 127.117 1.15442 -1.07289 0
M  V30 1278 C 128.047 2.22312 -0.714107 0
M  V30 1279 C 129.028 1.67467 0.298155 0
M  V30 1280 O 130.213 1.93445 0.171048 0
M  V30 1281 C 127.343 3.47124 -0.110448 0
M  V30 1282 C 126.297 4.14926 -1.04979 0
M  V30 1283 C 125.623 5.33807 -0.308924 0
M  V30 1284 C 126.923 4.64762 -2.38314 0
M  V30 1285 H 128.617 2.5258 -1.6076 0
M  V30 1286 H 126.163 1.21404 -0.77441 0
M  V30 1287 H 128.116 4.21124 0.152482 0
M  V30 1288 H 126.84 3.16187 0.81812 0
M  V30 1289 H 125.499 3.42866 -1.29764 0
M  V30 1290 H 125.147 4.99126 0.623084 0
M  V30 1291 H 124.847 5.80113 -0.935036 0
M  V30 1292 H 126.371 6.10576 -0.0537771 0
M  V30 1293 H 127.785 5.30292 -2.1786 0
M  V30 1294 H 126.182 5.21728 -2.96514 0
M  V30 1295 H 127.252 3.80434 -3.00663 0
M  V30 1296 N 128.595 0.856903 1.32268 0
M  V30 1297 C 129.843 0.460474 1.96784 0
M  V30 1298 C 130.164 -0.987701 1.68135 0
M  V30 1299 O 129.434 -1.69058 0.989765 0
M  V30 1300 H 128.014 0.167289 0.728027 0
M  V30 1301 H 130.676 1.09383 1.61312 0
M  V30 1302 H 129.772 0.60739 3.06133 0
M  V30 1303 N 130.073 -1.45103 0.615059 0
M  V30 1304 C 131.35 -1.95549 0.0448276 0
M  V30 1305 C 131.73 -1.55737 -1.4251 0
M  V30 1306 O 131.078 -0.823556 -2.13143 0
M  V30 1307 C 131.288 -3.48098 0.250785 0
M  V30 1308 C 132.636 -4.24384 0.135509 0
M  V30 1309 O 133.66 -3.55738 0.181299 0
M  V30 1310 O 132.519 -5.46493 0.0268878 0
M  V30 1311 H 129.613 -0.8264 -0.0314845 0
M  V30 1312 H 132.159 -1.55232 0.685642 0
M  V30 1313 H 130.931 -3.7007 1.27139 0
M  V30 1314 H 130.554 -3.95323 -0.424937 0
M  V30 1315 N 131.551 -0.354651 -1.53558 0
M  V30 1316 C 132.962 0.126902 -1.86268 0
M  V30 1317 C 133.313 1.49075 -1.27558 0
M  V30 1318 O 132.438 2.08105 -0.5934 0
M  V30 1319 C 133.033 0.237046 -3.3797 0
M  V30 1320 C 131.592 0.662842 -3.70518 0
M  V30 1321 C 130.739 -0.196652 -2.76602 0
M  V30 1322 H 133.69 -0.573849 -1.47962 0
M  V30 1323 H 133.711 1.06259 -3.65362 0
M  V30 1324 H 133.223 -0.755725 -3.80671 0
M  V30 1325 H 131.324 1.66424 -3.33367 0
M  V30 1326 H 131.437 0.445034 -4.77029 0
M  V30 1327 H 129.801 0.332763 -2.52517 0
M  V30 1328 H 130.584 -1.18676 -3.22135 0
M  V30 1329 N 133.029 1.57378 -0.0835403 0
M  V30 1330 C 133.979 2.09916 0.889905 0
M  V30 1331 C 134.963 1.01151 1.25129 0
M  V30 1332 O 136.155 1.27443 1.2283 0
M  V30 1333 C 133.284 2.67379 2.15322 0
M  V30 1334 C 132.37 3.83167 1.81779 0
M  V30 1335 N 132.761 4.91665 1.18739 0
M  V30 1336 C 131.059 3.92685 2.11459 0
M  V30 1337 C 131.76 5.72409 1.0355 0
M  V30 1338 N 130.736 5.21062 1.54906 0
M  V30 1339 H 134.538 2.91188 0.398378 0
M  V30 1340 H 132.052 1.61956 0.120013 0
M  V30 1341 H 134.049 3.0334 2.8599 0
M  V30 1342 H 132.709 1.87558 2.65051 0
M  V30 1343 H 133.72 5.10784 0.855604 0
M  V30 1344 H 130.397 3.23856 2.63483 0
M  V30 1345 H 131.787 6.69699 0.543425 0
M  V30 1346 N 134.507 -0.190092 1.56449 0
M  V30 1347 C 135.747 -0.916414 1.82705 0
M  V30 1348 C 136.111 -1.80235 0.661763 0
M  V30 1349 O 137.312 -2.56484 0.80433 0
M  V30 1350 C 135.583 -1.70691 3.14005 0
M  V30 1351 S 137.142 -2.48457 3.61683 0
M  V30 1352 H 133.96 -0.307281 0.64117 0
M  V30 1353 H 136.562 -0.179433 1.94675 0
M  V30 1354 H 135.266 -1.04677 3.96826 0
M  V30 1355 H 134.797 -2.48562 3.04927 0
M  V30 1356 H 136.812 -3.72756 3.27517 0
M  V30 1357 N 135.985 -1.50799 -0.457987 0
M  V30 1358 C 137.262 -1.52968 -1.21902 0
M  V30 1359 C 137.642 -0.281906 -2.09209 0
M  V30 1360 O 136.99 0.734076 -2.16388 0
M  V30 1361 C 137.2 -2.8326 -2.03875 0
M  V30 1362 C 138.548 -3.34425 -2.6162 0
M  V30 1363 O 139.572 -2.8467 -2.14106 0
M  V30 1364 O 138.431 -4.21188 -3.48228 0
M  V30 1365 H 135.525 -0.614129 -0.553873 0
M  V30 1366 H 138.071 -1.63098 -0.468739 0
M  V30 1367 H 136.843 -3.65543 -1.39621 0
M  V30 1368 H 136.466 -2.76195 -2.8601 0
M  V30 1369 N 137.463 0.71206 -1.40597 0
M  V30 1370 C 138.709 1.47416 -1.39271 0
M  V30 1371 C 139.042 1.942 0.00388791 0
M  V30 1372 O 138.317 1.68403 0.973179 0
M  V30 1373 C 138.6 2.69774 -2.38525 0
M  V30 1374 C 138.453 2.28861 -3.87224 0
M  V30 1375 C 139.772 3.71939 -2.35264 0
M  V30 1376 H 136.891 0.534713 -0.5072 0
M  V30 1377 H 139.533 0.812375 -1.71757 0
M  V30 1378 H 137.683 3.26238 -2.10953 0
M  V30 1379 H 139.355 1.77852 -4.25636 0
M  V30 1380 H 137.598 1.60824 -4.02887 0
M  V30 1381 H 138.269 3.16584 -4.52193 0
M  V30 1382 H 140.745 3.25113 -2.59694 0
M  V30 1383 H 139.621 4.55186 -3.06753 0
M  V30 1384 H 139.882 4.20484 -1.36549 0
M  V30 1385 N 138.941 1.26152 0.944643 0
M  V30 1386 C 140.188 1.11492 1.69044 0
M  V30 1387 C 140.516 -0.342366 1.91463 0
M  V30 1388 O 139.771 -1.26812 1.49054 0
M  V30 1389 C 140.07 1.82541 3.07268 0
M  V30 1390 C 139.736 3.32445 3.04616 0
M  V30 1391 C 138.398 3.73337 3.036 0
M  V30 1392 C 140.75 4.28171 2.97185 0
M  V30 1393 C 138.078 5.08348 2.92915 0
M  V30 1394 C 140.43 5.63218 2.88041 0
M  V30 1395 C 139.094 6.03426 2.85366 0
M  V30 1396 H 138.364 0.407977 0.618576 0
M  V30 1397 H 141.011 1.56551 1.10291 0
M  V30 1398 H 139.316 1.29941 3.69625 0
M  V30 1399 H 141.013 1.68642 3.63815 0
M  V30 1400 H 137.603 2.99915 3.06185 0
M  V30 1401 H 141.787 3.97563 2.97081 0
M  V30 1402 H 137.043 5.38667 2.89219 0
M  V30 1403 H 141.217 6.37078 2.81254 0
M  V30 1404 H 138.844 7.07999 2.76842 0
M  V30 1405 N 140.419 -1.14872 1.07899 0
M  V30 1406 C 141.351 -2.19425 0.662231 0
M  V30 1407 C 142.364 -1.60231 -0.288079 0
M  V30 1408 O 143.553 -1.78336 -0.076534 0
M  V30 1409 C 140.653 -3.38867 -0.0470695 0
M  V30 1410 C 139.826 -4.27597 0.920831 0
M  V30 1411 C 138.885 -5.25616 0.247805 0
M  V30 1412 O 137.911 -5.62189 0.890599 0
M  V30 1413 N 139.113 -5.71746 -1.00435 0
M  V30 1414 H 141.878 -2.55797 1.56166 0
M  V30 1415 H 139.439 -1.30042 0.964404 0
M  V30 1416 H 141.431 -4.01497 -0.50813 0
M  V30 1417 H 140.001 -3.00864 -0.848523 0
M  V30 1418 H 139.221 -3.61982 1.56087 0
M  V30 1419 H 140.509 -4.83748 1.57688 0
M  V30 1420 H 139.907 -5.44153 -1.54642 0
M  V30 1421 H 138.464 -6.36389 -1.40899 0
M  V30 1422 N 141.898 -0.863906 -1.31812 0
M  V30 1423 C 142.846 -0.30422 -2.30602 0
M  V30 1424 C 143.84 0.577419 -1.59255 0
M  V30 1425 O 145.046 0.464194 -1.73912 0
M  V30 1426 H 141.421 -0.0796877 -0.747766 0
M  V30 1427 H 143.392 -1.15148 -2.75288 0
M  V30 1428 C 142.141 0.484617 -3.44306 0
M  V30 1429 H 141.464 -0.18451 -3.99374 0
M  V30 1430 H 142.904 0.841664 -4.15562 0
M  V30 1431 C 141.363 1.6735 -2.92396 0
M  V30 1432 O 141.893 2.77273 -2.90659 0
M  V30 1433 N 140.099 1.50362 -2.48676 0
M  V30 1434 H 139.646 0.609402 -2.50288 0
M  V30 1435 H 139.604 2.30051 -2.14299 0
M  V30 1436 N 143.376 1.44774 -0.622745 0
M  V30 1437 C 144.286 2.34433 0.0886031 0
M  V30 1438 C 145.302 1.52131 0.844529 0
M  V30 1439 O 146.478 1.84886 0.798691 0
M  V30 1440 C 143.543 3.29986 1.0635 0
M  V30 1441 C 142.604 4.28195 0.307873 0
M  V30 1442 C 141.837 5.19183 1.23633 0
M  V30 1443 O 142.06 5.13918 2.47476 0
M  V30 1444 O 140.994 5.97515 0.725189 0
M  V30 1445 H 144.82 2.96693 -0.648599 0
M  V30 1446 H 142.405 1.44408 -0.382957 0
M  V30 1447 H 144.287 3.88825 1.6246 0
M  V30 1448 H 142.962 2.70269 1.78146 0
M  V30 1449 H 141.869 3.72927 -0.296064 0
M  V30 1450 H 143.202 4.90808 -0.3699 0
M  V30 1451 N 144.854 0.36279 1.53368 0
M  V30 1452 C 146.082 -0.228613 2.05633 0
M  V30 1453 C 146.497 -1.42676 1.23649 0
M  V30 1454 O 145.854 -1.80394 0.27647 0
M  V30 1455 C 145.905 -0.624845 3.56059 0
M  V30 1456 O 145.626 0.525675 4.34935 0
M  V30 1457 C 147.127 -1.27493 4.24571 0
M  V30 1458 H 144.347 -0.0407183 0.669763 0
M  V30 1459 H 146.891 0.520352 1.97769 0
M  V30 1460 H 145.046 -1.32373 3.64083 0
M  V30 1461 H 145.46 0.205969 5.24095 0
M  V30 1462 H 146.934 -1.50277 5.31151 0
M  V30 1463 H 147.411 -2.23439 3.78116 0
M  V30 1464 H 148.017 -0.617558 4.20792 0
M  V30 1465 N 146.332 -1.57332 0.0918853 0
M  V30 1466 C 147.578 -1.95328 -0.567313 0
M  V30 1467 C 147.933 -0.972866 -1.65991 0
M  V30 1468 O 147.226 0.00166256 -1.916 0
M  V30 1469 C 147.42 -3.37689 -1.17051 0
M  V30 1470 C 147.249 -4.49489 -0.137875 0
M  V30 1471 C 146.019 -5.04498 0.284515 0
M  V30 1472 C 148.217 -5.10393 0.63271 0
M  V30 1473 N 146.199 -5.99853 1.30576 0
M  V30 1474 C 147.57 -6.01435 1.50587 0
M  V30 1475 C 149.625 -4.93143 0.68658 0
M  V30 1476 C 148.328 -6.77077 2.42815 0
M  V30 1477 C 150.354 -5.69445 1.59645 0
M  V30 1478 C 149.716 -6.60151 2.45725 0
M  V30 1479 H 145.815 -0.761467 -0.178023 0
M  V30 1480 H 148.399 -1.93924 0.173706 0
M  V30 1481 H 146.57 -3.39793 -1.88136 0
M  V30 1482 H 148.302 -3.62872 -1.79181 0
M  V30 1483 H 145.057 -4.73489 -0.102593 0
M  V30 1484 H 145.481 -6.52231 1.81449 0
M  V30 1485 H 150.123 -4.22785 0.035244 0
M  V30 1486 H 147.841 -7.46699 3.08975 0
M  V30 1487 H 151.427 -5.58112 1.64323 0
M  V30 1488 H 150.307 -7.18159 3.14987 0
M  V30 1489 N 147.81 0.181792 -1.56548 0
M  V30 1490 C 149.087 0.926765 -1.72251 0
M  V30 1491 C 149.467 2.00831 -0.650386 0
M  V30 1492 O 148.815 2.26008 0.336521 0
M  V30 1493 C 149.025 1.50106 -3.1507 0
M  V30 1494 C 150.373 1.97805 -3.75711 0
M  V30 1495 O 151.397 1.59922 -3.18282 0
M  V30 1496 O 150.256 2.67555 -4.76525 0
M  V30 1497 H 147.35 0.435506 -0.703039 0
M  V30 1498 H 149.896 0.170443 -1.68842 0
M  V30 1499 H 148.668 0.72212 -3.84579 0
M  V30 1500 H 148.291 2.32186 -3.22763 0
M  V30 1501 N 149.288 1.51039 0.449983 0
M  V30 1502 C 150.218 1.74379 1.55288 0
M  V30 1503 C 151.199 0.593236 1.5942 0
M  V30 1504 O 152.384 0.834625 1.7535 0
M  V30 1505 C 149.514 1.85728 2.93466 0
M  V30 1506 C 148.468 3.01078 3.04197 0
M  V30 1507 C 147.794 2.97595 4.44231 0
M  V30 1508 C 149.094 4.41254 2.7945 0
M  V30 1509 H 150.788 2.66725 1.36008 0
M  V30 1510 H 148.334 1.2835 0.652864 0
M  V30 1511 H 150.287 2.0064 3.70569 0
M  V30 1512 H 149.011 0.900207 3.13949 0
M  V30 1513 H 147.67 2.85851 2.29531 0
M  V30 1514 H 147.318 1.99691 4.61663 0
M  V30 1515 H 147.018 3.75046 4.52343 0
M  V30 1516 H 148.542 3.14583 5.23326 0
M  V30 1517 H 149.956 4.56897 3.46292 0
M  V30 1518 H 148.353 5.20315 2.98985 0
M  V30 1519 H 149.423 4.52164 1.75144 0
M  V30 1520 N 150.766 -0.704594 1.40972 0
M  V30 1521 C 152.013 -1.46458 1.39844 0
M  V30 1522 C 152.341 -1.94499 0.00447594 0
M  V30 1523 O 151.596 -1.69275 -0.982057 0
M  V30 1524 C 151.895 -2.698 2.34399 0
M  V30 1525 C 151.561 -2.40464 3.81429 0
M  V30 1526 C 150.223 -2.32174 4.21484 0
M  V30 1527 C 152.575 -2.16086 4.74296 0
M  V30 1528 C 149.903 -1.97589 5.52427 0
M  V30 1529 C 152.255 -1.83011 6.05549 0
M  V30 1530 C 150.919 -1.7321 6.44635 0
M  V30 1531 H 150.189 -0.535927 0.511725 0
M  V30 1532 H 152.836 -0.806124 1.73706 0
M  V30 1533 H 151.141 -3.40536 1.93759 0
M  V30 1534 H 152.838 -3.27919 2.30804 0
M  V30 1535 H 149.428 -2.47808 3.49699 0
M  V30 1536 H 153.612 -2.2144 4.4416 0
M  V30 1537 H 148.868 -1.88547 5.81601 0
M  V30 1538 H 153.042 -1.63164 6.77016 0
M  V30 1539 H 150.669 -1.46179 7.46013 0
M  V30 1540 N 152.244 -1.26651 -0.937939 0
M  V30 1541 C 153.49 -1.12553 -1.687 0
M  V30 1542 C 153.823 0.329782 -1.91379 0
M  V30 1543 O 153.098 1.24202 -1.4968 0
M  V30 1544 C 153.381 -1.89862 -3.05981 0
M  V30 1545 C 153.234 -3.43318 -2.90607 0
M  V30 1546 C 154.553 -1.69499 -4.0615 0
M  V30 1547 H 151.672 -0.410257 -0.612257 0
M  V30 1548 H 154.314 -1.55685 -1.08913 0
M  V30 1549 H 152.464 -1.53204 -3.57017 0
M  V30 1550 H 154.136 -3.89747 -2.46769 0
M  V30 1551 H 152.379 -3.70179 -2.26164 0
M  V30 1552 H 153.05 -3.92642 -3.8799 0
M  V30 1553 H 155.526 -2.01442 -3.64088 0
M  V30 1554 H 154.402 -2.26002 -5.00214 0
M  V30 1555 H 154.663 -0.640365 -4.37438 0
M  V30 1556 N 153.722 1.14298 -1.08507 0
M  V30 1557 C 154.632 2.23027 -0.727753 0
M  V30 1558 C 155.648 1.71952 0.26619 0
M  V30 1559 O 156.824 2.011 0.109882 0
M  V30 1560 C 153.889 3.46403 -0.143541 0
M  V30 1561 C 152.95 4.12413 -1.19223 0
M  V30 1562 C 152.183 5.29899 -0.635798 0
M  V30 1563 O 152.406 5.67796 0.544393 0
M  V30 1564 O 151.34 5.85717 -1.38634 0
M  V30 1565 H 155.166 2.55945 -1.63481 0
M  V30 1566 H 152.751 1.22248 -0.858817 0
M  V30 1567 H 154.633 4.21018 0.179404 0
M  V30 1568 H 153.308 3.15206 0.736659 0
M  V30 1569 H 152.215 3.39667 -1.56772 0
M  V30 1570 H 153.548 4.47718 -2.04474 0
M  V30 1571 N 155.201 0.870884 1.31352 0
M  V30 1572 C 156.617 0.562932 1.49343 0
M  V30 1573 C 156.817 -0.902725 1.80148 0
M  V30 1574 O 155.873 -1.68484 1.88067 0
M  V30 1575 C 157.186 1.46393 2.62659 0
M  V30 1576 C 158.734 1.46607 2.76542 0
M  V30 1577 C 159.209 2.35266 3.92955 0
M  V30 1578 N 160.7 2.33151 4.00243 0
M  V30 1579 C 161.435 2.98471 4.89594 0
M  V30 1580 N 160.931 3.72964 5.8384 0
M  V30 1581 N 162.724 2.87775 4.82848 0
M  V30 1582 H 154.875 1.81923 1.09626 0
M  V30 1583 H 157.138 0.777934 0.541777 0
M  V30 1584 H 156.844 2.50689 2.46674 0
M  V30 1585 H 156.718 1.16314 3.58819 0
M  V30 1586 H 159.105 0.43069 2.9194 0
M  V30 1587 H 159.186 1.8071 1.81046 0
M  V30 1588 H 158.83 3.38881 3.78315 0
M  V30 1589 H 158.76 1.98487 4.87761 0
M  V30 1590 H 161.251 1.79006 3.32814 0
M  V30 1591 H 161.564 4.19932 6.4875 0
M  V30 1592 H 159.909 3.77073 5.83816 0
M  V30 1593 H 163.1 2.29116 4.08195 0
M  V30 1594 H 163.273 3.38961 5.52277 0
M  V30 1595 N 156.679 -1.44442 0.630414 0
M  V30 1596 C 157.904 -2.06927 0.139944 0
M  V30 1597 C 158.329 -1.46795 -1.17613 0
M  V30 1598 O 157.687 -0.569144 -1.72135 0
M  V30 1599 C 157.735 -3.6058 0.0379581 0
M  V30 1600 O 156.839 -3.99937 -1.0062 0
M  V30 1601 H 156.18 -0.658608 0.0844483 0
M  V30 1602 H 158.71 -1.85327 0.866891 0
M  V30 1603 H 158.72 -4.07714 -0.152856 0
M  V30 1604 H 157.395 -4.03728 0.998809 0
M  V30 1605 H 155.972 -3.64436 -0.79001 0
M  V30 1606 N 158.157 -0.370918 -1.53173 0
M  V30 1607 C 159.104 0.473035 -2.259 0
M  V30 1608 C 160.074 1.07311 -1.26781 0
M  V30 1609 O 161.259 1.1046 -1.55574 0
M  V30 1610 C 158.399 1.60405 -3.05556 0
M  V30 1611 C 157.512 1.02863 -4.19575 0
M  V30 1612 C 156.647 2.12918 -4.86661 0
M  V30 1613 C 155.686 1.52869 -5.92704 0
M  V30 1614 N 154.823 2.56779 -6.53459 0
M  V30 1615 H 159.663 -0.153649 -2.97604 0
M  V30 1616 H 157.2 -0.0875946 -1.46839 0
M  V30 1617 H 159.158 2.27034 -3.50016 0
M  V30 1618 H 157.788 2.20131 -2.36097 0
M  V30 1619 H 156.84 0.252465 -3.79561 0
M  V30 1620 H 158.152 0.549642 -4.95762 0
M  V30 1621 H 157.306 2.87356 -5.34333 0
M  V30 1622 H 156.045 2.6417 -4.09958 0
M  V30 1623 H 155.05 0.769479 -5.44389 0
M  V30 1624 H 156.275 1.02435 -6.7133 0
M  V30 1625 H 154.221 3.07235 -5.79606 0
M  V30 1626 H 154.138 2.13583 -7.25202 0
M  V30 1627 H 155.406 3.30903 -7.05779 0
M  V30 1628 N 159.635 1.57281 -0.100228 0
M  V30 1629 C 160.598 2.13158 0.842398 0
M  V30 1630 C 161.598 1.06202 1.20738 0
M  V30 1631 O 162.788 1.32066 1.13597 0
M  V30 1632 C 159.92 2.65639 2.13655 0
M  V30 1633 H 161.113 2.97766 0.357114 0
M  V30 1634 H 158.666 1.5559 0.148823 0
M  V30 1635 H 159.401 1.84566 2.66657 0
M  V30 1636 H 159.186 3.43844 1.88451 0
M  V30 1637 H 160.676 3.08846 2.81077 0
M  V30 1638 N 161.113 -0.173488 1.56642 0
M  V30 1639 C 162.36 -0.890465 1.81871 0
M  V30 1640 C 162.688 -1.82339 0.67696 0
M  V30 1641 O 161.943 -1.92795 -0.335926 0
M  V30 1642 C 162.242 -1.72069 3.13252 0
M  V30 1643 C 161.908 -0.936878 4.41059 0
M  V30 1644 C 160.57 -0.720545 4.75775 0
M  V30 1645 C 162.922 -0.386919 5.19762 0
M  V30 1646 C 160.25 0.0568829 5.86672 0
M  V30 1647 C 162.602 0.37741 6.31473 0
M  V30 1648 C 161.266 0.604563 6.64757 0
M  V30 1649 H 160.536 -0.325844 0.665512 0
M  V30 1650 H 163.183 -0.155527 1.90867 0
M  V30 1651 H 161.488 -2.52496 2.99588 0
M  V30 1652 H 163.185 -2.27844 3.29982 0
M  V30 1653 H 159.775 -1.11553 4.13828 0
M  V30 1654 H 163.959 -0.541398 4.93338 0
M  V30 1655 H 159.215 0.242635 6.10918 0
M  V30 1656 H 163.389 0.810825 6.91664 0
M  V30 1657 H 161.016 1.20885 7.50527 0
M  V30 1658 N 162.591 -1.51276 -0.441967 0
M  V30 1659 C 163.816 -1.67799 -1.21895 0
M  V30 1660 C 164.241 -0.372864 -1.84367 0
M  V30 1661 O 163.599 0.666501 -1.68604 0
M  V30 1662 C 163.647 -2.79199 -2.28211 0
M  V30 1663 O 162.751 -2.42479 -3.33583 0
M  V30 1664 H 162.092 -0.559649 -0.357336 0
M  V30 1665 H 164.622 -1.97815 -0.522522 0
M  V30 1666 H 164.632 -3.03146 -2.73069 0
M  V30 1667 H 163.307 -3.73906 -1.82118 0
M  V30 1668 H 161.884 -2.29087 -2.94234 0
M  V30 1669 N 164.069 0.697108 -1.41344 0
M  V30 1670 C 165.017 1.83237 -1.43272 0
M  V30 1671 C 166.011 1.66522 -0.310947 0
M  V30 1672 O 167.217 1.73402 -0.482899 0
M  V30 1673 H 163.592 0.603802 -0.448249 0
M  V30 1674 H 165.563 1.78727 -2.38954 0
M  V30 1675 C 164.312 3.21245 -1.33029 0
M  V30 1676 H 163.635 3.34723 -2.18633 0
M  V30 1677 H 165.075 4.00763 -1.38439 0
M  V30 1678 C 163.534 3.36873 -0.0424635 0
M  V30 1679 O 164.064 3.91177 0.913421 0
M  V30 1680 N 162.27 2.90581 0.0331145 0
M  V30 1681 H 161.817 2.46577 -0.745506 0
M  V30 1682 H 161.775 3.01416 0.894199 0
M  V30 1683 N 165.547 1.27147 0.931209 0
M  V30 1684 C 166.787 1.14511 1.69312 0
M  V30 1685 C 167.151 -0.304638 1.89568 0
M  V30 1686 O 168.352 -0.553343 2.63043 0
M  V30 1687 C 166.623 1.90349 3.02493 0
M  V30 1688 S 168.182 1.93884 3.93642 0
M  V30 1689 H 165 0.408858 0.581684 0
M  V30 1690 H 167.602 1.61006 1.10893 0
M  V30 1691 H 166.306 2.94877 2.85439 0
M  V30 1692 H 165.837 1.44333 3.65966 0
M  V30 1693 H 167.852 1.03273 4.85334 0
M  V30 1694 N 167.025 -1.13721 1.09112 0
M  V30 1695 C 168.255 -1.88499 0.845671 0
M  V30 1696 C 168.663 -1.79218 -0.606432 0
M  V30 1697 O 168.006 -1.1544 -1.42896 0
M  V30 1698 C 168.068 -3.38954 1.19793 0
M  V30 1699 C 167.732 -3.72018 2.65428 0
M  V30 1700 C 168.729 -3.7153 3.63677 0
M  V30 1701 C 166.414 -4.01775 3.01467 0
M  V30 1702 C 168.408 -4.00336 4.95994 0
M  V30 1703 C 166.095 -4.30243 4.33975 0
M  V30 1704 C 167.093 -4.29508 5.31048 0
M  V30 1705 O 166.781 -4.5728 6.61173 0
M  V30 1706 H 166.513 -0.603702 0.304171 0
M  V30 1707 H 169.067 -1.44903 1.45576 0
M  V30 1708 H 167.297 -3.83039 0.530871 0
M  V30 1709 H 168.986 -3.95052 0.932146 0
M  V30 1710 H 169.752 -3.4862 3.37179 0
M  V30 1711 H 165.631 -4.01496 2.26544 0
M  V30 1712 H 169.175 -3.99678 5.71755 0
M  V30 1713 H 165.072 -4.52625 4.60219 0
M  V30 1714 H 165.84 -4.74964 6.66597 0
M  V30 1715 N 168.503 -0.877838 -1.30888 0
M  V30 1716 C 169.914 -0.544193 -1.78593 0
M  V30 1717 C 170.265 0.939301 -1.72254 0
M  V30 1718 O 169.39 1.7337 -1.29505 0
M  V30 1719 C 169.985 -0.98105 -3.24285 0
M  V30 1720 C 168.544 -0.698935 -3.69854 0
M  V30 1721 C 167.691 -1.168 -2.51502 0
M  V30 1722 H 170.642 -1.06278 -1.17859 0
M  V30 1723 H 170.663 -0.307009 -3.79259 0
M  V30 1724 H 170.175 -2.06079 -3.28866 0
M  V30 1725 H 168.276 0.369112 -3.70767 0
M  V30 1726 H 168.389 -1.28148 -4.61644 0
M  V30 1727 H 166.753 -0.587535 -2.47831 0
M  V30 1728 H 167.536 -2.25533 -2.58824 0
M  V30 1729 N 169.982 1.44106 -0.638065 0
M  V30 1730 C 171.212 2.06037 -0.152394 0
M  V30 1731 C 171.62 1.47808 1.18108 0
M  V30 1732 O 170.963 0.598092 1.73691 0
M  V30 1733 C 171.025 3.59488 0.0293714 0
M  V30 1734 C 170.689 4.4022 -1.22702 0
M  V30 1735 C 171.686 4.73256 -2.15232 0
M  V30 1736 C 169.371 4.8048 -1.46437 0
M  V30 1737 C 171.365 5.45444 -3.29802 0
M  V30 1738 C 169.052 5.52417 -2.61303 0
M  V30 1739 C 170.05 5.84819 -3.52811 0
M  V30 1740 O 169.738 6.55289 -4.65673 0
M  V30 1741 H 169.47 0.671233 -0.0801401 0
M  V30 1742 H 172.024 1.85851 -0.874563 0
M  V30 1743 H 170.254 3.78191 0.806758 0
M  V30 1744 H 171.943 4.03164 0.470475 0
M  V30 1745 H 172.709 4.42684 -1.98131 0
M  V30 1746 H 168.588 4.54676 -0.760977 0
M  V30 1747 H 172.132 5.70653 -4.01249 0
M  V30 1748 H 168.029 5.82404 -2.78344 0
M  V30 1749 H 168.797 6.73762 -4.64744 0
M  V30 1750 N 171.46 0.379036 1.52974 0
M  V30 1751 C 172.737 -0.263479 1.93817 0
M  V30 1752 C 173.117 -1.65244 1.31368 0
M  V30 1753 O 172.465 -2.23448 0.477856 0
M  V30 1754 C 172.675 -0.300166 3.47707 0
M  V30 1755 C 174.023 -0.534061 4.21228 0
M  V30 1756 O 175.047 -0.38081 3.54159 0
M  V30 1757 O 173.906 -0.833501 5.40106 0
M  V30 1758 H 171 -0.161149 0.811147 0
M  V30 1759 H 173.546 0.432798 1.64088 0
M  V30 1760 H 172.318 0.673138 3.85467 0
M  V30 1761 H 171.941 -1.04179 3.83709 0
M  V30 1762 N 172.938 -1.57226 0.108567 0
M  V30 1763 C 174.184 -1.95121 -0.552761 0
M  V30 1764 C 174.517 -0.991345 -1.66991 0
M  V30 1765 O 173.792 -0.0267211 -1.94482 0
M  V30 1766 C 174.075 -3.43039 -1.09528 0
M  V30 1767 C 173.928 -4.49797 0.0177332 0
M  V30 1768 C 175.247 -3.92567 -1.98945 0
M  V30 1769 H 172.366 -0.709496 -0.199461 0
M  V30 1770 H 175.008 -1.89126 0.182011 0
M  V30 1771 H 173.158 -3.48279 -1.72146 0
M  V30 1772 H 174.83 -4.56661 0.652584 0
M  V30 1773 H 173.073 -4.284 0.682309 0
M  V30 1774 H 173.744 -5.50528 -0.402919 0
M  V30 1775 H 176.22 -3.89565 -1.46214 0
M  V30 1776 H 175.096 -4.96605 -2.33827 0
M  V30 1777 H 175.357 -3.32648 -2.91201 0
M  V30 1778 N 174.416 0.165178 -1.56732 0
M  V30 1779 C 175.827 0.727046 -1.71962 0
M  V30 1780 C 176.178 1.82508 -0.720078 0
M  V30 1781 O 175.303 2.16082 0.117242 0
M  V30 1782 C 175.898 1.32559 -3.11791 0
M  V30 1783 C 174.457 1.83422 -3.28684 0
M  V30 1784 C 173.604 0.715567 -2.67908 0
M  V30 1785 H 176.555 -0.0602896 -1.58585 0
M  V30 1786 H 176.576 2.19533 -3.10782 0
M  V30 1787 H 176.088 0.526195 -3.84516 0
M  V30 1788 H 174.189 2.65986 -2.60926 0
M  V30 1789 H 174.302 1.97543 -4.36478 0
M  V30 1790 H 172.666 1.13758 -2.27884 0
M  V30 1791 H 173.449 -0.0720836 -3.43224 0
M  V30 1792 N 175.894 1.51508 0.433938 0
M  V30 1793 C 177.171 1.54888 1.19453 0
M  V30 1794 C 177.551 0.315154 2.08734 0
M  V30 1795 O 176.899 -0.699558 2.17528 0
M  V30 1796 C 177.109 2.86467 1.99342 0
M  V30 1797 C 178.457 3.38545 2.56267 0
M  V30 1798 O 179.481 2.88041 2.0955 0
M  V30 1799 O 178.34 4.26675 3.41483 0
M  V30 1800 H 175.434 0.622863 0.544032 0
M  V30 1801 H 177.98 1.63823 0.442732 0
M  V30 1802 H 176.752 3.67718 1.33788 0
M  V30 1803 H 176.375 2.8071 2.8158 0
M  V30 1804 N 177.372 -0.689602 1.41712 0
M  V30 1805 C 178.602 -1.47613 1.44548 0
M  V30 1806 C 179.01 -1.89132 0.0509034 0
M  V30 1807 O 178.353 -1.57741 -0.94146 0
M  V30 1808 C 178.415 -2.76596 2.2964 0
M  V30 1809 C 178.079 -2.57245 3.77722 0
M  V30 1810 C 179.076 -2.22804 4.69739 0
M  V30 1811 C 176.761 -2.727 4.2183 0
M  V30 1812 C 178.755 -2.04064 6.03851 0
M  V30 1813 C 176.442 -2.53576 5.56006 0
M  V30 1814 C 177.44 -2.1931 6.46832 0
M  V30 1815 O 177.128 -2.00359 7.78532 0
M  V30 1816 H 176.86 -0.461227 0.494212 0
M  V30 1817 H 179.414 -0.856045 1.86711 0
M  V30 1818 H 177.644 -3.41033 1.82301 0
M  V30 1819 H 179.333 -3.38424 2.24107 0
M  V30 1820 H 180.099 -2.10473 4.36951 0
M  V30 1821 H 175.978 -2.98353 3.51435 0
M  V30 1822 H 179.522 -1.77241 6.74708 0
M  V30 1823 H 175.419 -2.65499 5.88371 0
M  V30 1824 H 176.187 -2.15075 7.89737 0
M  V30 1825 N 178.85 -1.27639 -0.924453 0
M  V30 1826 C 179.813 -1.10681 -2.00705 0
M  V30 1827 C 180.813 -0.0497823 -1.60723 0
M  V30 1828 O 182.003 -0.294654 -1.7169 0
M  V30 1829 C 179.135 -0.687164 -3.33902 0
M  V30 1830 H 180.328 -2.06817 -2.17179 0
M  V30 1831 H 177.881 -1.10473 -1.10569 0
M  V30 1832 H 178.616 0.275439 -3.23128 0
M  V30 1833 H 178.401 -1.45061 -3.6428 0
M  V30 1834 H 179.891 -0.590853 -4.13399 0
M  V30 1835 N 180.328 1.1314 -1.09713 0
M  V30 1836 C 181.553 1.88862 -0.857081 0
M  V30 1837 C 181.978 1.78729 0.586304 0
M  V30 1838 O 181.336 1.13692 1.41222 0
M  V30 1839 C 181.384 3.36325 -1.30069 0
M  V30 1840 O 180.488 4.09815 -0.461007 0
M  V30 1841 H 179.829 0.587108 -0.310162 0
M  V30 1842 H 182.359 1.43129 -1.46203 0
M  V30 1843 H 182.369 3.87157 -1.28738 0
M  V30 1844 H 181.044 3.43017 -2.35185 0
M  V30 1845 H 179.621 3.68986 -0.538888 0
M  V30 1846 N 181.806 0.884767 1.30421 0
M  V30 1847 C 182.736 0.367574 2.30589 0
M  V30 1848 C 183.717 -0.549464 1.60981 0
M  V30 1849 O 184.902 -0.46336 1.88591 0
M  V30 1850 C 182.032 -0.418944 3.44764 0
M  V30 1851 C 180.986 0.406316 4.26067 0
M  V30 1852 C 180.312 -0.506793 5.32293 0
M  V30 1853 C 181.612 1.64832 4.95608 0
M  V30 1854 H 183.306 1.20462 2.74097 0
M  V30 1855 H 180.852 0.580695 1.31772 0
M  V30 1856 H 182.805 -0.791395 4.13902 0
M  V30 1857 H 181.529 -1.28964 3.0006 0
M  V30 1858 H 180.188 0.760903 3.58617 0
M  V30 1859 H 179.836 -1.37519 4.83836 0
M  V30 1860 H 179.536 0.0415828 5.87585 0
M  V30 1861 H 181.06 -0.875764 6.04287 0
M  V30 1862 H 182.474 1.34646 5.57264 0
M  V30 1863 H 180.871 2.13688 5.60765 0
M  V30 1864 H 181.941 2.39284 4.21748 0
M  V30 1865 N 183.284 -1.43765 0.645699 0
M  V30 1866 C 184.7 -1.56509 0.312591 0
M  V30 1867 C 184.9 -1.6307 -1.18365 0
M  V30 1868 O 183.956 -1.58167 -1.96824 0
M  V30 1869 C 185.269 -2.82968 1.01733 0
M  V30 1870 C 186.817 -2.96701 0.996865 0
M  V30 1871 C 187.292 -4.25982 1.68236 0
M  V30 1872 N 188.783 -4.32829 1.64964 0
M  V30 1873 C 189.518 -5.31613 2.14885 0
M  V30 1874 N 189.014 -6.36718 2.73061 0
M  V30 1875 N 190.807 -5.23217 2.05428 0
M  V30 1876 H 182.958 -1.3775 1.61675 0
M  V30 1877 H 185.221 -0.661067 0.679481 0
M  V30 1878 H 184.927 -2.84156 2.0724 0
M  V30 1879 H 184.801 -3.72957 0.564177 0
M  V30 1880 H 187.188 -2.95058 -0.0497719 0
M  V30 1881 H 187.269 -2.08022 1.48865 0
M  V30 1882 H 186.913 -4.28386 2.72852 0
M  V30 1883 H 186.843 -5.13545 1.16529 0
M  V30 1884 H 189.334 -3.57493 1.22503 0
M  V30 1885 H 189.647 -7.08401 3.08848 0
M  V30 1886 H 187.992 -6.37362 2.77118 0
M  V30 1887 H 191.183 -4.40019 1.59689 0
M  V30 1888 H 191.356 -6.00045 2.44643 0
M  V30 1889 N 184.763 -0.387143 -1.52771 0
M  V30 1890 C 185.988 0.198407 -2.06449 0
M  V30 1891 C 186.413 1.39918 -1.25716 0
M  V30 1892 O 185.771 1.79099 -0.281657 0
M  V30 1893 C 185.819 0.548893 -3.56398 0
M  V30 1894 O 184.923 1.64315 -3.78252 0
M  V30 1895 H 184.264 0.0237731 -0.663574 0
M  V30 1896 H 186.794 -0.553989 -1.96957 0
M  V30 1897 H 186.804 0.813812 -3.99801 0
M  V30 1898 H 185.479 -0.329005 -4.14597 0
M  V30 1899 H 184.056 1.37211 -3.46738 0
M  V30 1900 N 186.241 1.57166 -0.116904 0
M  V30 1901 C 187.171 2.18222 0.830759 0
M  V30 1902 C 188.152 1.12167 1.27877 0
M  V30 1903 O 189.337 1.40394 1.34176 0
M  V30 1904 C 186.467 2.77996 2.08172 0
M  V30 1905 C 185.421 3.89614 1.77157 0
M  V30 1906 C 184.747 4.36187 3.09265 0
M  V30 1907 C 186.047 5.1181 1.04151 0
M  V30 1908 H 187.741 2.97664 0.321992 0
M  V30 1909 H 185.287 1.4318 0.153434 0
M  V30 1910 H 187.24 3.19366 2.74924 0
M  V30 1911 H 185.964 1.9584 2.6137 0
M  V30 1912 H 184.623 3.48816 1.12796 0
M  V30 1913 H 184.271 3.50893 3.60393 0
M  V30 1914 H 183.971 5.11455 2.89288 0
M  V30 1915 H 185.495 4.80207 3.77139 0
M  V30 1916 H 186.909 5.50214 1.61052 0
M  V30 1917 H 185.306 5.92648 0.942762 0
M  V30 1918 H 186.376 4.84892 0.0279022 0
M  V30 1919 N 187.719 -0.156864 1.56817 0
M  V30 1920 C 188.965 -0.872416 1.83076 0
M  V30 1921 C 189.298 -1.81261 0.697001 0
M  V30 1922 O 188.573 -1.92171 -0.30008 0
M  V30 1923 C 188.856 -1.65551 3.19789 0
M  V30 1924 C 188.709 -0.737467 4.43713 0
M  V30 1925 C 190.028 -2.62012 3.53606 0
M  V30 1926 H 187.147 -0.315715 0.665953 0
M  V30 1927 H 189.789 -0.138004 1.89498 0
M  V30 1928 H 187.939 -2.28159 3.14445 0
M  V30 1929 H 189.611 -0.123143 4.61136 0
M  V30 1930 H 187.854 -0.0464067 4.33775 0
M  V30 1931 H 188.525 -1.32122 5.35955 0
M  V30 1932 H 191.001 -2.09525 3.59497 0
M  V30 1933 H 189.877 -3.13861 4.50314 0
M  V30 1934 H 190.138 -3.42902 2.79053 0
M  V30 1935 N 189.197 -1.51736 -0.425897 0
M  V30 1936 C 190.16 -1.73271 -1.50032 0
M  V30 1937 C 191.16 -0.602639 -1.4908 0
M  V30 1938 O 192.35 -0.87033 -1.509 0
M  V30 1939 C 189.482 -1.79969 -2.89523 0
M  V30 1940 H 190.675 -2.69172 -1.32237 0
M  V30 1941 H 188.228 -1.41899 -0.65532 0
M  V30 1942 H 188.963 -0.859241 -3.1271 0
M  V30 1943 H 188.748 -2.62109 -2.91619 0
M  V30 1944 H 190.238 -1.9843 -3.67444 0
M  V30 1945 N 190.675 0.682077 -1.42076 0
M  V30 1946 C 191.9 1.47558 -1.45744 0
M  V30 1947 C 192.325 1.87977 -0.0680981 0
M  V30 1948 O 191.683 1.55522 0.9318 0
M  V30 1949 C 191.731 2.70575 -2.38373 0
M  V30 1950 O 190.835 3.68573 -1.85007 0
M  V30 1951 H 190.176 0.443585 -0.494093 0
M  V30 1952 H 192.706 0.837238 -1.86686 0
M  V30 1953 H 192.716 3.18729 -2.54707 0
M  V30 1954 H 191.391 2.40495 -3.39315 0
M  V30 1955 H 189.968 3.2757 -1.78192 0
M  V30 1956 N 192.153 1.28127 0.917671 0
M  V30 1957 C 193.378 1.18007 1.70555 0
M  V30 1958 C 193.803 -0.258257 1.86319 0
M  V30 1959 O 193.161 -1.1869 1.37049 0
M  V30 1960 C 193.209 1.87948 3.07746 0
M  V30 1961 O 192.313 1.18427 3.9503 0
M  V30 1962 H 191.654 0.409867 0.522403 0
M  V30 1963 H 194.184 1.69379 1.1477 0
M  V30 1964 H 194.194 1.95701 3.58001 0
M  V30 1965 H 192.869 2.92573 2.95591 0
M  V30 1966 H 191.446 1.18811 3.53466 0
M  V30 1967 N 193.631 -1.12557 1.10312 0
M  V30 1968 C 194.879 -1.83675 0.843091 0
M  V30 1969 C 195.2 -1.84435 -0.633131 0
M  V30 1970 O 194.47 -1.30657 -1.45964 0
M  V30 1971 H 193.05 -0.680138 0.308904 0
M  V30 1972 H 195.712 -1.36301 1.39313 0
M  V30 1973 H 194.808 -2.87908 1.2048 0
M  V30 1974 N 195.109 -0.891671 -1.2995 0
M  V30 1975 C 196.337 -0.52866 -2.00032 0
M  V30 1976 C 196.752 0.884574 -1.66795 0
M  V30 1977 O 196.109 1.5827 -0.908669 0
M  V30 1978 C 196.16 -0.701814 -3.54622 0
M  V30 1979 O 195.881 -2.05942 -3.86678 0
M  V30 1980 C 197.382 -0.342683 -4.41973 0
M  V30 1981 H 194.602 -0.203659 -0.639347 0
M  V30 1982 H 197.146 -1.19881 -1.65677 0
M  V30 1983 H 195.301 -0.0789468 -3.8732 0
M  V30 1984 H 195.715 -2.08291 -4.81368 0
M  V30 1985 H 197.189 -0.514709 -5.49595 0
M  V30 1986 H 197.666 0.71975 -4.33262 0
M  V30 1987 H 198.272 -0.942154 -4.14733 0
M  V30 1988 N 196.587 1.43421 -0.653314 0
M  V30 1989 C 197.517 2.33487 0.0246656 0
M  V30 1990 C 198.498 1.49475 0.811863 0
M  V30 1991 O 199.683 1.78139 0.773322 0
M  V30 1992 C 196.813 3.32841 0.99166 0
M  V30 1993 C 195.767 4.26842 0.314568 0
M  V30 1994 C 195.093 5.16236 1.39302 0
M  V30 1995 C 196.393 5.16243 -0.793095 0
M  V30 1996 H 198.087 2.90427 -0.727481 0
M  V30 1997 H 195.633 1.39649 -0.351287 0
M  V30 1998 H 197.586 3.94747 1.47487 0
M  V30 1999 H 196.31 2.74158 1.77497 0
M  V30 2000 H 194.969 3.663 -0.148199 0
M  V30 2001 H 194.617 4.53891 2.16776 0
M  V30 2002 H 194.317 5.79948 0.945223 0
M  V30 2003 H 195.841 5.81015 1.87759 0
M  V30 2004 H 197.255 5.71958 -0.392039 0
M  V30 2005 H 195.652 5.88676 -1.16536 0
M  V30 2006 H 196.722 4.55927 -1.65103 0
M  V30 2007 N 198.065 0.39524 1.52563 0
M  V30 2008 C 198.975 -0.444232 2.30356 0
M  V30 2009 C 199.991 -1.06615 1.37511 0
M  V30 2010 O 201.167 -1.07067 1.70583 0
M  V30 2011 C 198.232 -1.55315 3.09964 0
M  V30 2012 C 197.293 -0.955734 4.18526 0
M  V30 2013 C 196.526 -2.01181 4.9433 0
M  V30 2014 O 196.749 -3.22781 4.70285 0
M  V30 2015 O 195.683 -1.62579 5.79527 0
M  V30 2016 H 199.509 0.189667 3.03107 0
M  V30 2017 H 197.094 0.1588 1.48554 0
M  V30 2018 H 198.976 -2.19724 3.59582 0
M  V30 2019 H 197.651 -2.17191 2.4002 0
M  V30 2020 H 196.558 -0.274743 3.7309 0
M  V30 2021 H 197.891 -0.381109 4.90722 0
M  V30 2022 N 199.544 -1.57102 0.125237 0
M  V30 2023 C 200.791 -1.95407 -0.531248 0
M  V30 2024 C 201.119 -1.0089 -1.66287 0
M  V30 2025 O 200.374 -0.0339431 -1.95671 0
M  V30 2026 C 200.673 -3.40096 -1.09862 0
M  V30 2027 C 200.339 -4.50815 -0.0876989 0
M  V30 2028 C 199.001 -4.80824 0.19026 0
M  V30 2029 C 201.353 -5.17724 0.600902 0
M  V30 2030 C 198.681 -5.75058 1.163 0
M  V30 2031 C 201.033 -6.13005 1.56231 0
M  V30 2032 C 199.697 -6.41403 1.8482 0
M  V30 2033 H 198.967 -0.715046 -0.194397 0
M  V30 2034 H 201.614 -1.90373 0.207463 0
M  V30 2035 H 199.919 -3.41855 -1.91422 0
M  V30 2036 H 201.616 -3.6705 -1.61478 0
M  V30 2037 H 198.206 -4.27444 -0.314528 0
M  V30 2038 H 202.39 -4.94691 0.399333 0
M  V30 2039 H 197.646 -5.95362 1.39117 0
M  V30 2040 H 201.82 -6.63934 2.10153 0
M  V30 2041 H 199.447 -7.14229 2.60349 0
M  V30 2042 N 201.022 0.148545 -1.56898 0
M  V30 2043 C 202.271 0.85984 -1.82454 0
M  V30 2044 C 202.584 1.82406 -0.706229 0
M  V30 2045 O 203.79 2.57938 -0.847349 0
M  V30 2046 C 202.246 1.57967 -3.2338 0
M  V30 2047 C 201.854 0.65794 -4.43142 0
M  V30 2048 C 203.598 2.27784 -3.58211 0
M  V30 2049 C 201.505 1.3793 -5.75091 0
M  V30 2050 H 200.435 0.324834 -0.68044 0
M  V30 2051 H 203.086 0.112588 -1.83154 0
M  V30 2052 H 201.468 2.37249 -3.17063 0
M  V30 2053 H 202.642 -0.0995497 -4.60692 0
M  V30 2054 H 200.957 0.0682643 -4.16344 0
M  V30 2055 H 203.554 2.8239 -4.54048 0
M  V30 2056 H 203.897 3.04204 -2.84193 0
M  V30 2057 H 204.43 1.55421 -3.66182 0
M  V30 2058 H 201.169 0.656982 -6.52199 0
M  V30 2059 H 200.689 2.10954 -5.61479 0
M  V30 2060 H 202.368 1.92063 -6.17835 0
M  V30 2061 N 202.5 1.5196 0.417844 0
M  V30 2062 C 203.728 1.69426 1.18753 0
M  V30 2063 C 204.143 0.399955 1.84515 0
M  V30 2064 O 203.5 -0.623288 1.71527 0
M  V30 2065 C 203.551 2.82375 2.25714 0
M  V30 2066 O 203.272 4.06793 1.62638 0
M  V30 2067 C 204.773 3.11277 3.15628 0
M  V30 2068 H 201.993 0.568031 0.357186 0
M  V30 2069 H 204.537 1.98475 0.49273 0
M  V30 2070 H 202.692 2.5587 2.90877 0
M  V30 2071 H 203.106 4.69667 2.3348 0
M  V30 2072 H 204.58 3.93843 3.86771 0
M  V30 2073 H 205.057 2.24473 3.77503 0
M  V30 2074 H 205.663 3.39515 2.56144 0
M  V30 2075 N 203.978 -0.674533 1.42435 0
M  V30 2076 C 204.888 -1.81751 1.48337 0
M  V30 2077 C 205.904 -1.69975 0.372099 0
M  V30 2078 O 207.08 -1.91521 0.62304 0
M  V30 2079 C 204.145 -3.17895 1.38361 0
M  V30 2080 C 203.206 -3.41625 2.59982 0
M  V30 2081 C 202.439 -4.71274 2.50473 0
M  V30 2082 O 202.662 -5.49197 1.54075 0
M  V30 2083 O 201.596 -4.96254 3.4061 0
M  V30 2084 H 205.422 -1.79728 2.44809 0
M  V30 2085 H 203.007 -0.830312 1.24202 0
M  V30 2086 H 204.889 -3.99136 1.35161 0
M  V30 2087 H 203.564 -3.20555 0.450144 0
M  V30 2088 H 202.471 -2.60231 2.68757 0
M  V30 2089 H 203.804 -3.43796 3.52229 0
M  V30 2090 N 205.456 -1.28612 -0.910864 0
M  V30 2091 C 206.704 -1.15705 -1.65701 0
M  V30 2092 C 207.025 0.29416 -1.92769 0
M  V30 2093 O 206.295 1.20331 -1.54588 0
M  V30 2094 H 204.875 -0.425216 -0.614167 0
M  V30 2095 H 207.537 -1.61381 -1.0928 0
M  V30 2096 H 206.633 -1.6988 -2.61815 0
M  V30 2097 N 206.934 1.1197 -1.10907 0
M  V30 2098 C 208.181 1.83588 -0.854507 0
M  V30 2099 C 208.509 1.84357 0.6199 0
M  V30 2100 O 207.764 1.28809 1.47332 0
M  V30 2101 C 208.063 3.30749 -1.35425 0
M  V30 2102 C 207.729 3.50146 -2.84093 0
M  V30 2103 C 206.391 3.55148 -3.2469 0
M  V30 2104 C 208.743 3.56857 -3.79872 0
M  V30 2105 C 206.071 3.6441 -4.59806 0
M  V30 2106 C 208.423 3.6765 -5.14797 0
M  V30 2107 C 207.087 3.7091 -5.54961 0
M  V30 2108 H 206.357 0.671795 -0.312686 0
M  V30 2109 H 209.004 1.32091 -1.38652 0
M  V30 2110 H 207.309 3.84703 -0.742361 0
M  V30 2111 H 209.006 3.8464 -1.1337 0
M  V30 2112 H 205.596 3.46919 -2.51685 0
M  V30 2113 H 209.78 3.52258 -3.49611 0
M  V30 2114 H 205.036 3.65208 -4.9034 0
M  V30 2115 H 209.21 3.71786 -5.88853 0
M  V30 2116 H 206.837 3.7784 -6.59652 0
M  V30 2117 N 208.412 0.89855 1.29475 0
M  V30 2118 C 209.64 0.539261 1.99749 0
M  V30 2119 C 210.055 -0.875716 1.67262 0
M  V30 2120 O 209.412 -1.57786 0.917049 0
M  V30 2121 C 209.463 0.72061 3.54245 0
M  V30 2122 O 209.184 2.07989 3.8558 0
M  V30 2123 C 210.685 0.366118 4.41786 0
M  V30 2124 H 207.905 0.207047 0.638258 0
M  V30 2125 H 210.449 1.20758 1.65039 0
M  V30 2126 H 208.604 0.0994862 3.87272 0
M  V30 2127 H 209.018 2.10841 4.80257 0
M  V30 2128 H 210.492 0.543848 5.49314 0
M  V30 2129 H 210.969 -0.696763 4.33638 0
M  V30 2130 H 211.575 0.964135 4.14228 0
M  V30 2131 N 209.89 -1.43072 0.660911 0
M  V30 2132 C 211.136 -2.02545 0.186337 0
M  V30 2133 C 211.491 -1.51253 -1.18913 0
M  V30 2134 O 210.784 -0.699167 -1.78388 0
M  V30 2135 C 210.978 -3.57103 0.145563 0
M  V30 2136 C 210.807 -4.23393 1.51554 0
M  V30 2137 C 209.577 -4.59144 2.10984 0
M  V30 2138 C 211.775 -4.51897 2.45548 0
M  V30 2139 N 209.757 -5.10545 3.40907 0
M  V30 2140 C 211.128 -5.04698 3.6011 0
M  V30 2141 C 213.183 -4.33872 2.44253 0
M  V30 2142 C 211.886 -5.41371 4.73613 0
M  V30 2143 C 213.912 -4.71612 3.56842 0
M  V30 2144 C 213.274 -5.24553 4.70131 0
M  V30 2145 H 209.373 -0.773823 0.112792 0
M  V30 2146 H 211.957 -1.74137 0.870885 0
M  V30 2147 H 210.128 -3.85059 -0.508353 0
M  V30 2148 H 211.86 -4.03264 -0.340598 0
M  V30 2149 H 208.615 -4.4444 1.63615 0
M  V30 2150 H 209.039 -5.40689 4.07411 0
M  V30 2151 H 213.681 -3.92208 1.579 0
M  V30 2152 H 211.399 -5.81975 5.60652 0
M  V30 2153 H 214.985 -4.59354 3.57051 0
M  V30 2154 H 213.865 -5.53213 5.5581 0
M  V30 2155 N 211.368 -0.403325 -1.52352 0
M  V30 2156 C 212.596 0.174012 -2.06167 0
M  V30 2157 C 213.011 1.39347 -1.27388 0
M  V30 2158 O 212.368 1.79597 -0.324201 0
M  V30 2159 C 212.419 0.530223 -3.5759 0
M  V30 2160 O 212.14 -0.640806 -4.33388 0
M  V30 2161 C 213.641 1.16192 -4.27802 0
M  V30 2162 H 210.861 0.0229464 -0.670608 0
M  V30 2163 H 213.405 -0.572604 -1.9632 0
M  V30 2164 H 211.56 1.22673 -3.67464 0
M  V30 2165 H 211.974 -0.344851 -5.23365 0
M  V30 2166 H 213.448 1.36141 -5.34948 0
M  V30 2167 H 213.925 2.13335 -3.83907 0
M  V30 2168 H 214.531 0.505775 -4.22282 0
M  V30 2169 N 212.846 1.57033 -0.133567 0
M  V30 2170 C 214.094 1.953 0.519848 0
M  V30 2171 C 214.415 1.01866 1.66278 0
M  V30 2172 O 213.685 0.0776513 1.95746 0
M  V30 2173 H 212.265 0.721091 0.195032 0
M  V30 2174 H 214.927 1.93809 -0.205921 0
M  V30 2175 H 214.023 2.98695 0.904854 0
M  V30 2176 N 214.325 -0.140222 1.56975 0
M  V30 2177 C 215.571 -0.852949 1.83991 0
M  V30 2178 C 215.904 -1.80512 0.716187 0
M  V30 2179 O 215.179 -1.92479 -0.279681 0
M  V30 2180 C 215.462 -1.6215 3.21527 0
M  V30 2181 C 215.315 -0.690363 4.4447 0
M  V30 2182 C 216.634 -2.58247 3.56366 0
M  V30 2183 H 213.753 -0.308634 0.669264 0
M  V30 2184 H 216.395 -0.117898 1.89634 0
M  V30 2185 H 214.545 -2.24812 3.16847 0
M  V30 2186 H 216.217 -0.0742264 4.6124 0
M  V30 2187 H 214.46 -0.000396433 4.338 0
M  V30 2188 H 215.131 -1.2643 5.37326 0
M  V30 2189 H 217.607 -2.05701 3.61699 0
M  V30 2190 H 216.483 -3.09067 4.53617 0
M  V30 2191 H 216.744 -3.39923 2.82674 0
M  V30 2192 N 215.803 -1.52179 -0.40978 0
M  V30 2193 C 217.031 -1.70054 -1.17853 0
M  V30 2194 C 217.446 -0.409735 -1.843 0
M  V30 2195 O 216.803 0.614183 -1.71855 0
M  V30 2196 C 216.854 -2.83568 -2.24213 0
M  V30 2197 O 216.575 -4.0765 -1.60478 0
M  V30 2198 C 218.076 -3.12947 -3.13973 0
M  V30 2199 H 215.296 -0.569917 -0.354169 0
M  V30 2200 H 217.84 -1.98734 -0.482198 0
M  V30 2201 H 215.995 -2.57409 -2.89516 0
M  V30 2202 H 216.409 -4.70899 -2.30986 0
M  V30 2203 H 217.883 -3.95889 -3.84677 0
M  V30 2204 H 218.36 -2.26472 -3.76307 0
M  V30 2205 H 218.966 -3.40868 -2.5434 0
M  V30 2206 N 217.281 0.66697 -1.42791 0
M  V30 2207 C 218.213 1.7925 -1.42836 0
M  V30 2208 C 219.226 1.59496 -0.326333 0
M  V30 2209 O 220.415 1.6847 -0.589916 0
M  V30 2210 C 217.515 3.16476 -1.21229 0
M  V30 2211 C 216.688 3.63011 -2.44013 0
M  V30 2212 C 215.747 4.78993 -2.17834 0
M  V30 2213 O 214.773 4.89137 -2.91091 0
M  V30 2214 N 215.975 5.68248 -1.18635 0
M  V30 2215 H 218.74 1.79695 -2.39854 0
M  V30 2216 H 216.301 0.850338 -1.37771 0
M  V30 2217 H 218.293 3.91734 -1.01621 0
M  V30 2218 H 216.863 3.10884 -0.32706 0
M  V30 2219 H 216.083 2.78346 -2.79137 0
M  V30 2220 H 217.371 3.90845 -3.25757 0
M  V30 2221 H 216.769 5.62712 -0.580615 0
M  V30 2222 H 215.326 6.43285 -1.05013 0
M  V30 2223 N 218.759 1.29093 0.90403 0
M  V30 2224 C 219.707 1.13727 2.02901 0
M  V30 2225 C 220.701 0.0539853 1.69314 0
M  V30 2226 O 221.907 0.213469 1.7873 0
M  V30 2227 H 218.282 0.35117 0.664969 0
M  V30 2228 H 220.253 2.08982 2.13001 0
M  V30 2229 C 219.002 0.826066 3.37745 0
M  V30 2230 H 218.325 1.65164 3.64089 0
M  V30 2231 H 219.765 0.758559 4.17159 0
M  V30 2232 C 218.224 -0.470541 3.33598 0
M  V30 2233 O 218.754 -1.49792 3.72727 0
M  V30 2234 N 216.96 -0.474812 2.86695 0
M  V30 2235 H 216.507 0.361692 2.55048 0
M  V30 2236 H 216.465 -1.34236 2.84303 0
M  V30 2237 N 220.237 -1.11381 1.11499 0
M  V30 2238 C 221.485 -1.8277 0.862524 0
M  V30 2239 C 221.806 -1.85097 -0.613534 0
M  V30 2240 O 221.076 -1.32198 -1.4457 0
M  V30 2241 H 219.656 -0.676823 0.316101 0
M  V30 2242 H 222.318 -1.34816 1.4075 0
M  V30 2243 H 221.414 -2.86614 1.23527 0
M  V30 2244 N 221.715 -0.905404 -1.28997 0
M  V30 2245 C 222.963 -0.533192 -1.9494 0
M  V30 2246 C 223.284 0.924618 -1.71685 0
M  V30 2247 O 222.554 1.65268 -1.05183 0
M  V30 2248 H 221.134 -0.194194 -0.721317 0
M  V30 2249 H 223.796 -1.15294 -1.57141 0
M  V30 2250 H 222.892 -0.72059 -3.03667 0
M  V30 2251 N 223.193 1.4272 -0.668489 0
M  V30 2252 C 224.418 2.06484 -0.194758 0
M  V30 2253 C 224.843 1.49862 1.13679 0
M  V30 2254 O 224.201 0.614582 1.70565 0
M  V30 2255 C 224.249 3.60353 -0.133546 0
M  V30 2256 O 223.353 4.02464 0.899806 0
M  V30 2257 H 222.694 0.656137 -0.10188 0
M  V30 2258 H 225.224 1.82964 -0.915722 0
M  V30 2259 H 225.234 4.07976 0.0447041 0
M  V30 2260 H 223.909 4.00938 -1.1055 0
M  V30 2261 H 222.486 3.66402 0.693109 0
M  V30 2262 N 224.671 0.411399 1.52136 0
M  V30 2263 C 225.619 -0.427633 2.28635 0
M  V30 2264 C 226.613 -1.04383 1.33419 0
M  V30 2265 O 227.819 -0.981772 1.50868 0
M  V30 2266 H 224.194 -0.156689 0.735495 0
M  V30 2267 H 226.165 0.238761 2.97443 0
M  V30 2268 C 224.914 -1.53082 3.12188 0
M  V30 2269 H 224.237 -1.06601 3.85326 0
M  V30 2270 H 225.677 -2.09167 3.68816 0
M  V30 2271 C 224.136 -2.49946 2.25895 0
M  V30 2272 O 224.666 -3.53884 1.90076 0
M  V30 2273 N 222.872 -2.2021 1.8962 0
M  V30 2274 H 222.419 -1.35719 2.18948 0
M  V30 2275 H 222.377 -2.85266 1.32176 0
M  V30 2276 N 226.149 -1.5696 0.141893 0
M  V30 2277 C 227.112 -2.15316 -0.785587 0
M  V30 2278 C 228.112 -1.09366 -1.1788 0
M  V30 2279 O 229.302 -1.35031 -1.10056 0
M  V30 2280 C 226.434 -2.71211 -2.06537 0
M  V30 2281 H 227.627 -2.98608 -0.278041 0
M  V30 2282 H 225.18 -1.5593 -0.107519 0
M  V30 2283 H 225.915 -1.91571 -2.6167 0
M  V30 2284 H 225.7 -3.4872 -1.79268 0
M  V30 2285 H 227.19 -3.16189 -2.72789 0
M  V30 2286 N 227.627 0.131896 -1.57047 0
M  V30 2287 C 228.867 0.847972 -1.85981 0
M  V30 2288 C 229.231 1.77655 -0.7282 0
M  V30 2289 O 230.432 2.53322 -0.898968 0
M  V30 2290 C 228.703 1.58919 -3.20124 0
M  V30 2291 S 230.262 2.34862 -3.70655 0
M  V30 2292 H 227.08 0.283273 -0.652133 0
M  V30 2293 H 229.682 0.107057 -1.95207 0
M  V30 2294 H 228.386 0.898771 -4.00438 0
M  V30 2295 H 227.917 2.37073 -3.13942 0
M  V30 2296 H 229.932 3.60344 -3.41126 0
M  V30 2297 N 229.106 1.52395 0.401703 0
M  V30 2298 C 230.053 1.76268 1.48991 0
M  V30 2299 C 231.023 0.605386 1.54675 0
M  V30 2300 O 232.208 0.843742 1.7113 0
M  V30 2301 C 229.348 1.92592 2.86361 0
M  V30 2302 C 228.461 3.20259 2.89928 0
M  V30 2303 C 227.596 3.26972 4.18644 0
M  V30 2304 C 226.635 4.48812 4.16214 0
M  V30 2305 N 225.772 4.52877 5.36514 0
M  V30 2306 H 230.612 2.6914 1.27935 0
M  V30 2307 H 228.149 1.33355 0.620871 0
M  V30 2308 H 230.107 2.0004 3.66115 0
M  V30 2309 H 228.737 1.03093 3.05895 0
M  V30 2310 H 227.789 3.21945 2.02621 0
M  V30 2311 H 229.101 4.10056 2.83999 0
M  V30 2312 H 228.255 3.33533 5.06794 0
M  V30 2313 H 226.994 2.35126 4.27278 0
M  V30 2314 H 225.999 4.4239 3.26453 0
M  V30 2315 H 227.224 5.41961 4.09213 0
M  V30 2316 H 225.17 3.63917 5.45802 0
M  V30 2317 H 225.087 5.36529 5.32609 0
M  V30 2318 H 226.355 4.63676 6.26597 0
M  V30 2319 N 230.584 -0.659388 1.43143 0
M  V30 2320 C 232 -0.974337 1.26407 0
M  V30 2321 C 232.2 -2.007 0.179341 0
M  V30 2322 O 231.256 -2.4856 -0.444295 0
M  V30 2323 C 232.569 -1.46447 2.62628 0
M  V30 2324 C 234.117 -1.58144 2.7011 0
M  V30 2325 C 234.592 -2.1055 4.06734 0
M  V30 2326 N 236.083 -2.17861 4.08767 0
M  V30 2327 C 236.818 -2.59519 5.1131 0
M  V30 2328 N 236.314 -3.00518 6.24228 0
M  V30 2329 N 238.107 -2.59404 4.98664 0
M  V30 2330 H 230.258 0.0240528 2.12386 0
M  V30 2331 H 232.521 -0.0518065 0.946583 0
M  V30 2332 H 232.227 -0.780123 3.42939 0
M  V30 2333 H 232.101 -2.44058 2.87603 0
M  V30 2334 H 234.488 -2.25682 1.90136 0
M  V30 2335 H 234.569 -0.589828 2.48907 0
M  V30 2336 H 234.213 -1.43616 4.87172 0
M  V30 2337 H 234.143 -3.10531 4.25298 0
M  V30 2338 H 236.634 -1.88975 3.27257 0
M  V30 2339 H 236.947 -3.31036 6.98309 0
M  V30 2340 H 235.292 -2.98337 6.2771 0
M  V30 2341 H 238.483 -2.26747 4.09516 0
M  V30 2342 H 238.656 -2.91548 5.78709 0
M  V30 2343 N 232.062 -1.29571 -0.897171 0
M  V30 2344 C 233.31 -1.17456 -1.64464 0
M  V30 2345 C 233.631 0.273698 -1.9307 0
M  V30 2346 O 232.901 1.18684 -1.55855 0
M  V30 2347 H 231.481 -0.431706 -0.609622 0
M  V30 2348 H 234.143 -1.62531 -1.07562 0
M  V30 2349 H 233.239 -1.72648 -2.59998 0
M  V30 2350 N 233.54 1.10788 -1.12088 0
M  V30 2351 C 234.951 1.64181 -0.88891 0
M  V30 2352 C 235.302 1.87508 0.577498 0
M  V30 2353 O 234.427 1.61434 1.44112 0
M  V30 2354 C 235.022 2.98257 -1.60712 0
M  V30 2355 C 233.581 3.4853 -1.42139 0
M  V30 2356 C 232.728 2.23208 -1.6454 0
M  V30 2357 H 235.679 0.943368 -1.27618 0
M  V30 2358 H 235.7 3.65552 -1.05604 0
M  V30 2359 H 235.212 2.81246 -2.67436 0
M  V30 2360 H 233.313 3.70692 -0.376552 0
M  V30 2361 H 233.426 4.26882 -2.17505 0
M  V30 2362 H 231.79 2.31169 -1.06925 0
M  V30 2363 H 232.573 2.08733 -2.72554 0
M  V30 2364 N 235.018 0.912232 1.28515 0
M  V30 2365 C 236.266 0.543523 1.94654 0
M  V30 2366 C 236.587 -0.9155 1.72173 0
M  V30 2367 O 235.857 -1.64708 1.06058 0
M  V30 2368 H 234.437 0.198017 0.720277 0
M  V30 2369 H 237.099 1.16126 1.56527 0
M  V30 2370 H 236.195 0.736684 3.03281 0
M  V30 2371 N 236.496 -1.42363 0.676048 0
M  V30 2372 C 237.721 -2.06377 0.205705 0
M  V30 2373 C 238.146 -1.50463 -1.12883 0
M  V30 2374 O 237.504 -0.623619 -1.70237 0
M  V30 2375 C 237.552 -3.60277 0.152655 0
M  V30 2376 O 236.656 -4.02935 -0.87845 0
M  V30 2377 H 235.997 -0.655588 0.105359 0
M  V30 2378 H 238.527 -1.82475 0.925412 0
M  V30 2379 H 238.537 -4.07993 -0.0230675 0
M  V30 2380 H 237.212 -4.00346 1.12675 0
M  V30 2381 H 235.789 -3.66764 -0.673668 0
M  V30 2382 N 237.974 -0.419461 -1.51915 0
M  V30 2383 C 239.222 0.152637 -2.01523 0
M  V30 2384 C 239.543 1.44762 -1.30649 0
M  V30 2385 O 238.813 1.90997 -0.435535 0
M  V30 2386 H 237.393 0.0593966 -0.744635 0
M  V30 2387 H 240.055 -0.558073 -1.86739 0
M  V30 2388 H 239.151 0.341369 -3.10227 0
M  V30 2389 N 239.452 1.56882 -0.150215 0
M  V30 2390 C 240.699 1.96228 0.500093 0
M  V30 2391 C 241.027 1.03522 1.64661 0
M  V30 2392 O 240.282 0.0650683 1.95592 0
M  V30 2393 C 240.581 3.41801 1.04437 0
M  V30 2394 C 240.247 4.50897 0.0159671 0
M  V30 2395 C 238.909 4.8046 -0.266731 0
M  V30 2396 C 241.261 5.16703 -0.683192 0
M  V30 2397 C 238.589 5.73135 -1.25434 0
M  V30 2398 C 240.941 6.10441 -1.65964 0
M  V30 2399 C 239.605 6.38382 -1.95 0
M  V30 2400 H 238.875 0.718048 0.182997 0
M  V30 2401 H 241.522 1.90019 -0.237724 0
M  V30 2402 H 239.827 3.44857 1.85959 0
M  V30 2403 H 241.524 3.69573 1.55618 0
M  V30 2404 H 238.114 4.27891 0.246485 0
M  V30 2405 H 242.298 4.93993 -0.477983 0
M  V30 2406 H 237.554 5.93074 -1.48571 0
M  V30 2407 H 241.728 6.60507 -2.20689 0
M  V30 2408 H 239.355 7.09996 -2.71679 0
M  V30 2409 N 240.93 -0.123565 1.57115 0
M  V30 2410 C 242.177 -0.832153 1.84612 0
M  V30 2411 C 242.505 -1.80093 0.734627 0
M  V30 2412 O 241.76 -1.93766 -0.27442 0
M  V30 2413 C 242.059 -1.62016 3.18568 0
M  V30 2414 C 241.725 -0.796084 4.43817 0
M  V30 2415 C 240.387 -0.568816 4.77826 0
M  V30 2416 C 242.739 -0.221364 5.2073 0
M  V30 2417 C 240.067 0.243499 5.86194 0
M  V30 2418 C 242.419 0.578117 6.29953 0
M  V30 2419 C 241.083 0.815744 6.62497 0
M  V30 2420 H 240.353 -0.304507 0.675542 0
M  V30 2421 H 243 -0.0947248 1.91266 0
M  V30 2422 H 241.305 -2.42837 3.0747 0
M  V30 2423 H 243.002 -2.17231 3.37064 0
M  V30 2424 H 239.592 -0.983307 4.17168 0
M  V30 2425 H 243.776 -0.384173 4.94811 0
M  V30 2426 H 239.032 0.436871 6.09837 0
M  V30 2427 H 243.206 1.03046 6.88734 0
M  V30 2428 H 240.833 1.44701 7.46301 0
M  V30 2429 N 242.408 -1.52605 -0.393616 0
M  V30 2430 C 243.633 -1.71592 -1.16495 0
M  V30 2431 C 244.058 -0.43133 -1.83088 0
M  V30 2432 O 243.416 0.612523 -1.7064 0
M  V30 2433 C 243.464 -2.86318 -2.19213 0
M  V30 2434 O 242.568 -2.52969 -3.257 0
M  V30 2435 H 241.909 -0.570734 -0.33935 0
M  V30 2436 H 244.439 -1.99377 -0.459324 0
M  V30 2437 H 244.449 -3.1168 -2.63286 0
M  V30 2438 H 243.124 -3.79511 -1.7013 0
M  V30 2439 H 241.701 -2.38332 -2.86797 0
M  V30 2440 N 243.887 0.651787 -1.4349 0
M  V30 2441 C 245.303 0.96762 -1.26922 0
M  V30 2442 C 245.503 2.00602 -0.189982 0
M  V30 2443 O 244.559 2.48793 0.431107 0
M  V30 2444 C 245.872 1.45052 -2.63401 0
M  V30 2445 C 247.42 1.5671 -2.70945 0
M  V30 2446 C 247.895 2.0839 -4.07845 0
M  V30 2447 N 249.386 2.1569 -4.09917 0
M  V30 2448 C 250.121 2.56804 -5.12679 0
M  V30 2449 N 249.617 2.97203 -6.25813 0
M  V30 2450 N 251.41 2.56756 -5.00033 0
M  V30 2451 H 243.561 -0.0353158 -2.12371 0
M  V30 2452 H 245.824 0.0467858 -0.946845 0
M  V30 2453 H 245.53 0.761926 -3.43348 0
M  V30 2454 H 245.404 2.42529 -2.88894 0
M  V30 2455 H 247.791 2.2467 -1.9133 0
M  V30 2456 H 247.872 0.57662 -2.49216 0
M  V30 2457 H 247.516 1.41031 -4.87927 0
M  V30 2458 H 247.446 3.08271 -4.26938 0
M  V30 2459 H 249.937 1.87237 -3.28254 0
M  V30 2460 H 250.25 3.27328 -7.00055 0
M  V30 2461 H 248.595 2.95004 -6.29283 0
M  V30 2462 H 251.786 2.24572 -4.10713 0
M  V30 2463 H 251.959 2.88475 -5.80247 0
M  V30 2464 N 245.365 1.30045 0.890287 0
M  V30 2465 C 246.295 1.18541 2.01172 0
M  V30 2466 C 247.276 0.0773356 1.69924 0
M  V30 2467 O 248.461 0.25845 1.92473 0
M  V30 2468 C 245.591 0.870941 3.36202 0
M  V30 2469 C 244.545 1.93637 3.81692 0
M  V30 2470 C 243.871 1.475 5.13953 0
M  V30 2471 C 245.171 3.34666 4.00994 0
M  V30 2472 H 246.865 2.12359 2.11054 0
M  V30 2473 H 244.411 1.02238 1.01407 0
M  V30 2474 H 246.364 0.777141 4.14172 0
M  V30 2475 H 245.088 -0.102926 3.26438 0
M  V30 2476 H 243.747 2.01972 3.05946 0
M  V30 2477 H 243.395 0.489551 5.00612 0
M  V30 2478 H 243.095 2.1876 5.4536 0
M  V30 2479 H 244.619 1.39489 5.94454 0
M  V30 2480 H 246.033 3.2912 4.69417 0
M  V30 2481 H 244.43 4.03966 4.43769 0
M  V30 2482 H 245.5 3.76949 3.05021 0
M  V30 2483 N 246.843 -1.10192 1.12674 0
M  V30 2484 C 247.791 -2.18694 0.792196 0
M  V30 2485 C 248.785 -1.67938 -0.222058 0
M  V30 2486 O 249.991 -1.79822 -0.0800074 0
M  V30 2487 H 246.366 -0.713223 0.238364 0
M  V30 2488 H 248.337 -2.44149 1.71564 0
M  V30 2489 C 247.086 -3.46682 0.265859 0
M  V30 2490 H 246.409 -3.86101 1.03761 0
M  V30 2491 H 247.849 -4.23942 0.0701128 0
M  V30 2492 C 246.308 -3.21506 -1.00675 0
M  V30 2493 O 246.838 -3.43408 -2.08408 0
M  V30 2494 N 245.044 -2.75158 -0.934692 0
M  V30 2495 H 244.591 -2.57535 -0.0578604 0
M  V30 2496 H 244.549 -2.58691 -1.7868 0
M  V30 2497 N 248.321 -0.919034 -1.28029 0
M  V30 2498 C 249.567 -0.565221 -1.95389 0
M  V30 2499 C 249.922 0.882325 -1.70976 0
M  V30 2500 O 249.215 1.61988 -1.02325 0
M  V30 2501 C 249.409 -0.816855 -3.4794 0
M  V30 2502 C 249.238 -2.28731 -3.87185 0
M  V30 2503 C 248.008 -2.93841 -4.11079 0
M  V30 2504 C 250.206 -3.26415 -3.97439 0
M  V30 2505 N 248.188 -4.31129 -4.37037 0
M  V30 2506 C 249.559 -4.48884 -4.27672 0
M  V30 2507 C 251.614 -3.21742 -3.79982 0
M  V30 2508 C 250.317 -5.67268 -4.42266 0
M  V30 2509 C 252.343 -4.39431 -3.95796 0
M  V30 2510 C 251.705 -5.60675 -4.26407 0
M  V30 2511 H 247.804 -0.256797 -0.738633 0
M  V30 2512 H 250.388 -1.18386 -1.54573 0
M  V30 2513 H 248.559 -0.227445 -3.87733 0
M  V30 2514 H 250.291 -0.426542 -4.02446 0
M  V30 2515 H 247.046 -2.44547 -4.05578 0
M  V30 2516 H 247.47 -5.02127 -4.5409 0
M  V30 2517 H 252.112 -2.29079 -3.55363 0
M  V30 2518 H 249.83 -6.60406 -4.65714 0
M  V30 2519 H 253.416 -4.37323 -3.83719 0
M  V30 2520 H 252.296 -6.50223 -4.38383 0
M  V30 2521 N 249.799 1.42003 -0.683588 0
M  V30 2522 C 250.729 2.33487 -0.024866 0
M  V30 2523 C 251.71 1.51163 0.779975 0
M  V30 2524 O 252.895 1.79739 0.735362 0
M  V30 2525 C 250.025 3.3487 0.920836 0
M  V30 2526 C 248.979 4.27414 0.223958 0
M  V30 2527 C 248.305 5.19074 1.2832 0
M  V30 2528 C 249.605 5.14445 -0.90242 0
M  V30 2529 H 251.299 2.88819 -0.788921 0
M  V30 2530 H 248.845 1.38873 -0.38083 0
M  V30 2531 H 250.798 3.97787 1.39081 0
M  V30 2532 H 249.522 2.77861 1.71642 0
M  V30 2533 H 248.181 3.65904 -0.225864 0
M  V30 2534 H 247.829 4.58387 2.071 0
M  V30 2535 H 247.529 5.81822 0.821995 0
M  V30 2536 H 249.053 5.84867 1.75392 0
M  V30 2537 H 250.467 5.70998 -0.513272 0
M  V30 2538 H 248.864 5.86072 -1.28997 0
M  V30 2539 H 249.934 4.52322 -1.74737 0
M  V30 2540 N 251.277 0.427512 1.51691 0
M  V30 2541 C 252.505 -0.141191 2.06418 0
M  V30 2542 C 252.92 -1.37303 1.29589 0
M  V30 2543 O 252.277 -1.79059 0.352732 0
M  V30 2544 C 252.328 -0.473266 3.58389 0
M  V30 2545 O 252.049 0.709673 4.32314 0
M  V30 2546 C 253.55 -1.09371 4.29596 0
M  V30 2547 H 250.77 -0.0122747 0.670888 0
M  V30 2548 H 253.314 0.603764 1.95384 0
M  V30 2549 H 251.469 -1.16812 3.69369 0
M  V30 2550 H 251.883 0.42807 5.2275 0
M  V30 2551 H 253.357 -1.27613 5.37046 0
M  V30 2552 H 253.834 -2.072 3.87253 0
M  V30 2553 H 254.44 -0.43853 4.23033 0
M  V30 2554 N 252.755 -1.56801 0.158532 0
M  V30 2555 C 253.702 -2.17337 -0.776729 0
M  V30 2556 C 254.672 -1.1096 -1.23601 0
M  V30 2557 O 255.857 -1.39054 -1.30647 0
M  V30 2558 C 252.997 -2.80822 -2.00582 0
M  V30 2559 C 252.11 -4.01624 -1.59129 0
M  V30 2560 C 251.245 -4.53072 -2.77306 0
M  V30 2561 C 250.284 -5.66314 -2.32282 0
M  V30 2562 N 249.421 -6.12329 -3.43508 0
M  V30 2563 H 254.261 -2.96918 -0.253701 0
M  V30 2564 H 251.798 -1.46661 -0.113504 0
M  V30 2565 H 253.756 -3.15779 -2.72652 0
M  V30 2566 H 252.386 -2.03866 -2.50277 0
M  V30 2567 H 251.438 -3.72571 -0.767806 0
M  V30 2568 H 252.75 -4.83633 -1.2207 0
M  V30 2569 H 251.904 -4.90145 -3.57551 0
M  V30 2570 H 250.643 -3.70095 -3.17617 0
M  V30 2571 H 249.648 -5.28806 -1.5048 0
M  V30 2572 H 250.873 -6.51085 -1.93043 0
M  V30 2573 H 248.819 -5.32284 -3.83418 0
M  V30 2574 H 248.736 -6.89293 -3.105 0
M  V30 2575 H 250.004 -6.5405 -4.24075 0
M  V30 2576 N 254.233 0.115231 -1.57178 0
M  V30 2577 C 255.458 0.840354 -1.89612 0
M  V30 2578 C 255.883 1.72464 -0.750845 0
M  V30 2579 O 255.241 1.78826 0.298478 0
M  V30 2580 C 255.289 1.64654 -3.20814 0
M  V30 2581 O 254.393 2.7538 -3.06985 0
M  V30 2582 H 253.734 0.232158 -0.622092 0
M  V30 2583 H 256.264 0.0964977 -2.04372 0
M  V30 2584 H 256.274 2.03499 -3.53627 0
M  V30 2585 H 254.949 0.997416 -4.03763 0
M  V30 2586 H 253.526 2.3971 -2.85646 0
M  V30 2587 N 255.711 1.52812 0.385517 0
M  V30 2588 C 256.959 1.67694 1.12797 0
M  V30 2589 C 257.28 0.421115 1.90399 0
M  V30 2590 O 256.55 -0.564551 1.87589 0
M  V30 2591 H 255.13 0.618155 0.419396 0
M  V30 2592 H 257.792 1.89938 0.436972 0
M  V30 2593 H 256.888 2.52896 1.82894 0
M  V30 2594 N 257.189 -0.644168 1.43834 0
M  V30 2595 C 258.414 -1.43642 1.49605 0
M  V30 2596 C 258.839 -1.8773 0.117913 0
M  V30 2597 O 258.197 -1.57938 -0.890239 0
M  V30 2598 C 258.245 -2.6416 2.45463 0
M  V30 2599 O 257.349 -3.63538 1.94714 0
M  V30 2600 H 256.69 -0.430329 0.50568 0
M  V30 2601 H 259.22 -0.787448 1.8884 0
M  V30 2602 H 259.23 -3.11864 2.63068 0
M  V30 2603 H 257.905 -2.31414 3.45572 0
M  V30 2604 H 256.482 -3.2273 1.86814 0
M  V30 2605 N 258.668 -1.30515 -0.883378 0
M  V30 2606 C 259.896 -1.22359 -1.66841 0
M  V30 2607 C 260.311 0.213296 -1.87591 0
M  V30 2608 O 259.668 1.14075 -1.42454 0
M  V30 2609 C 259.719 -1.95011 -3.04389 0
M  V30 2610 O 259.44 -3.3309 -2.84575 0
M  V30 2611 C 260.941 -1.93532 -3.98824 0
M  V30 2612 H 258.161 -0.423371 -0.520575 0
M  V30 2613 H 260.705 -1.72167 -1.10357 0
M  V30 2614 H 258.86 -1.48997 -3.57601 0
M  V30 2615 H 259.274 -3.69907 -3.71846 0
M  V30 2616 H 260.748 -2.48902 -4.92699 0
M  V30 2617 H 261.225 -0.914627 -4.29571 0
M  V30 2618 H 261.831 -2.39364 -3.51547 0
M  V30 2619 N 260.146 1.09593 -1.13257 0
M  V30 2620 C 261.376 1.85231 -0.915049 0
M  V30 2621 C 261.784 1.81345 0.539498 0
M  V30 2622 O 261.127 1.20664 1.38513 0
M  V30 2623 C 261.189 3.34275 -1.3229 0
M  V30 2624 C 260.853 3.6191 -2.79052 0
M  V30 2625 C 261.85 3.57777 -3.77216 0
M  V30 2626 C 259.535 3.90309 -3.16171 0
M  V30 2627 C 261.529 3.81652 -5.1051 0
M  V30 2628 C 259.216 4.13839 -4.49644 0
M  V30 2629 C 260.214 4.09502 -5.46623 0
M  V30 2630 O 259.902 4.32426 -6.77689 0
M  V30 2631 H 259.634 0.591997 -0.326367 0
M  V30 2632 H 262.188 1.394 -1.50854 0
M  V30 2633 H 260.418 3.80805 -0.672667 0
M  V30 2634 H 262.107 3.9132 -1.07812 0
M  V30 2635 H 262.873 3.35865 -3.49885 0
M  V30 2636 H 258.752 3.92811 -2.41289 0
M  V30 2637 H 262.296 3.78182 -5.86195 0
M  V30 2638 H 258.193 4.35232 -4.767 0
M  V30 2639 H 258.961 4.49896 -6.83766 0
M  V30 2640 N 261.624 0.925811 1.2754 0
M  V30 2641 C 263.035 0.610102 1.7645 0
M  V30 2642 C 263.386 -0.874723 1.75622 0
M  V30 2643 O 262.511 -1.68444 1.35851 0
M  V30 2644 C 263.106 1.10073 3.20421 0
M  V30 2645 C 261.665 0.835723 3.67005 0
M  V30 2646 C 260.812 1.26054 2.46993 0
M  V30 2647 H 263.763 1.10579 1.13833 0
M  V30 2648 H 263.784 0.447557 3.77859 0
M  V30 2649 H 263.296 2.18143 3.20991 0
M  V30 2650 H 261.397 -0.231249 3.71882 0
M  V30 2651 H 261.51 1.45193 4.56569 0
M  V30 2652 H 259.874 0.679111 2.45479 0
M  V30 2653 H 260.657 2.34984 2.50275 0
M  V30 2654 N 263.102 -1.41638 0.69111 0
M  V30 2655 C 264.348 -2.01598 0.220519 0
M  V30 2656 C 264.681 -1.54594 -1.17535 0
M  V30 2657 O 263.956 -0.755177 -1.79241 0
M  V30 2658 C 264.239 -3.59062 0.273243 0
M  V30 2659 C 264.092 -4.16203 1.70573 0
M  V30 2660 C 265.411 -4.38546 -0.369457 0
M  V30 2661 H 262.53 -0.732468 0.0816045 0
M  V30 2662 H 265.172 -1.68445 0.878986 0
M  V30 2663 H 263.322 -3.87435 -0.287411 0
M  V30 2664 H 264.994 -3.98722 2.31989 0
M  V30 2665 H 263.237 -3.71414 2.2413 0
M  V30 2666 H 263.908 -5.25358 1.69419 0
M  V30 2667 H 266.384 -4.1596 0.107977 0
M  V30 2668 H 265.26 -5.48069 -0.302002 0
M  V30 2669 H 265.521 -4.17662 -1.44951 0
M  V30 2670 N 264.58 -0.43555 -1.51462 0
M  V30 2671 C 265.51 0.367376 -2.30592 0
M  V30 2672 C 266.491 1.02263 -1.35928 0
M  V30 2673 O 267.676 1.02661 -1.64847 0
M  V30 2674 C 264.806 1.46983 -3.14664 0
M  V30 2675 C 263.76 0.938161 -4.17591 0
M  V30 2676 C 263.086 2.13622 -4.90173 0
M  V30 2677 C 264.386 -0.0261621 -5.22293 0
M  V30 2678 H 266.08 -0.292969 -2.97963 0
M  V30 2679 H 263.626 -0.14234 -1.43295 0
M  V30 2680 H 265.579 2.03873 -3.688 0
M  V30 2681 H 264.303 2.15843 -2.4511 0
M  V30 2682 H 262.962 0.391481 -3.64504 0
M  V30 2683 H 262.61 2.81098 -4.17124 0
M  V30 2684 H 262.31 1.78688 -5.59772 0
M  V30 2685 H 263.834 2.7107 -5.47132 0
M  V30 2686 H 265.248 0.452384 -5.71512 0
M  V30 2687 H 263.645 -0.287992 -5.99409 0
M  V30 2688 H 264.715 -0.963391 -4.75233 0
M  V30 2689 N 266.058 1.56714 -0.166846 0
M  V30 2690 C 267.006 2.19056 0.782123 0
M  V30 2691 C 268 1.15328 1.24079 0
M  V30 2692 O 269.206 1.33537 1.20697 0
M  V30 2693 H 265.581 0.70167 0.270486 0
M  V30 2694 H 267.552 2.97494 0.232322 0
M  V30 2695 C 266.301 2.84206 2.00306 0
M  V30 2696 H 265.624 3.63748 1.65914 0
M  V30 2697 H 267.064 3.31302 2.64604 0
M  V30 2698 C 265.523 1.83744 2.82382 0
M  V30 2699 O 266.053 1.32014 3.79388 0
M  V30 2700 N 264.259 1.52601 2.47308 0
M  V30 2701 H 263.806 1.9486 1.68485 0
M  V30 2702 H 263.764 0.856351 3.02513 0
M  V30 2703 N 267.536 -0.106894 1.57237 0
M  V30 2704 C 268.782 -0.81373 1.85759 0
M  V30 2705 C 269.115 -1.78952 0.754315 0
M  V30 2706 O 268.39 -1.93029 -0.23879 0
M  V30 2707 C 268.673 -1.55293 3.24894 0
M  V30 2708 C 268.526 -0.595929 4.45835 0
M  V30 2709 C 269.845 -2.5063 3.61763 0
M  V30 2710 H 266.964 -0.294369 0.67566 0
M  V30 2711 H 269.606 -0.0776472 1.89841 0
M  V30 2712 H 267.756 -2.1804 3.21544 0
M  V30 2713 H 269.428 0.0236262 4.61294 0
M  V30 2714 H 267.671 0.0916191 4.33703 0
M  V30 2715 H 268.342 -1.15004 5.39887 0
M  V30 2716 H 270.818 -1.97982 3.65981 0
M  V30 2717 H 269.694 -2.99376 4.60071 0
M  V30 2718 H 269.955 -3.3385 2.89821 0
M  V30 2719 N 269.014 -1.53014 -0.377408 0
M  V30 2720 C 270.242 -1.72515 -1.14219 0
M  V30 2721 C 270.657 -0.448735 -1.8339 0
M  V30 2722 O 270.014 0.577592 -1.73119 0
M  V30 2723 C 270.065 -2.8826 -2.18148 0
M  V30 2724 O 269.786 -4.10962 -1.51795 0
M  V30 2725 C 271.287 -3.19536 -3.07264 0
M  V30 2726 H 268.507 -0.577301 -0.342001 0
M  V30 2727 H 271.051 -1.99712 -0.439935 0
M  V30 2728 H 269.206 -2.63492 -2.83991 0
M  V30 2729 H 269.62 -4.75693 -2.20945 0
M  V30 2730 H 271.094 -4.03959 -3.76193 0
M  V30 2731 H 271.571 -2.34403 -3.71419 0
M  V30 2732 H 272.177 -3.46186 -2.47053 0
M  V30 2733 N 270.492 0.636531 -1.44174 0
M  V30 2734 C 271.425 1.76139 -1.45087 0
M  V30 2735 C 272.403 1.59611 -0.310326 0
M  V30 2736 O 273.587 1.81568 -0.506477 0
M  V30 2737 C 270.714 3.13648 -1.27839 0
M  V30 2738 C 269.76 3.48838 -2.45386 0
M  V30 2739 S 270.593 3.46927 -4.07924 0
M  V30 2740 C 271.749 4.87064 -3.9309 0
M  V30 2741 H 271.982 1.75096 -2.40268 0
M  V30 2742 H 269.515 0.810666 -1.31406 0
M  V30 2743 H 271.473 3.93002 -1.18575 0
M  V30 2744 H 270.134 3.12235 -0.341787 0
M  V30 2745 H 269.327 4.48886 -2.29167 0
M  V30 2746 H 268.929 2.76935 -2.51362 0
M  V30 2747 H 271.221 5.76153 -3.56446 0
M  V30 2748 H 272.164 5.08337 -4.92949 0
M  V30 2749 H 272.572 4.61384 -3.25246 0
M  V30 2750 N 271.97 1.30982 0.876444 0
M  V30 2751 C 273.381 1.18277 1.44456 0
M  V30 2752 C 273.732 -0.213265 1.95037 0
M  V30 2753 O 272.857 -1.11057 1.85729 0
M  V30 2754 C 273.452 2.1411 2.62569 0
M  V30 2755 C 272.011 2.05358 3.15444 0
M  V30 2756 C 271.158 2.03706 1.88146 0
M  V30 2757 H 274.109 1.43127 0.685584 0
M  V30 2758 H 274.13 1.72692 3.39054 0
M  V30 2759 H 273.642 3.15706 2.25724 0
M  V30 2760 H 271.743 1.06934 3.56926 0
M  V30 2761 H 271.856 2.94156 3.78166 0
M  V30 2762 H 270.22 1.48629 2.06837 0
M  V30 2763 H 271.003 3.07047 1.53547 0
M  V30 2764 N 273.449 -1.08991 1.13837 0
M  V30 2765 C 274.397 -2.17841 0.815347 0
M  V30 2766 C 275.391 -1.68164 -0.204233 0
M  V30 2767 O 276.597 -1.79897 -0.0609304 0
M  V30 2768 H 272.972 -0.710654 0.245915 0
M  V30 2769 H 274.943 -2.42315 1.74143 0
M  V30 2770 C 273.692 -3.46381 0.302614 0
M  V30 2771 H 273.015 -3.84979 1.0785 0
M  V30 2772 H 274.455 -4.23844 0.115074 0
M  V30 2773 C 272.914 -3.22556 -0.972591 0
M  V30 2774 O 273.444 -3.45599 -2.04754 0
M  V30 2775 N 271.65 -2.76134 -0.905455 0
M  V30 2776 H 271.197 -2.57582 -0.0305421 0
M  V30 2777 H 271.155 -2.60571 -1.75926 0
M  V30 2778 N 274.927 -0.932562 -1.27047 0
M  V30 2779 C 275.875 -0.42603 -2.28665 0
M  V30 2780 C 276.869 0.49219 -1.62092 0
M  V30 2781 O 278.075 0.371355 -1.76128 0
M  V30 2782 H 274.45 -0.119213 -0.742491 0
M  V30 2783 H 276.421 -1.29579 -2.68797 0
M  V30 2784 C 275.17 0.301426 -3.46391 0
M  V30 2785 H 274.493 -0.39595 -3.97834 0
M  V30 2786 H 275.933 0.6202 -4.1944 0
M  V30 2787 C 274.392 1.51616 -3.00856 0
M  V30 2788 O 274.922 2.61476 -3.04948 0
M  V30 2789 N 273.128 1.36969 -2.56296 0
M  V30 2790 H 272.675 0.475873 -2.53166 0
M  V30 2791 H 272.633 2.18368 -2.26192 0
M  V30 2792 N 276.405 1.4127 -0.698611 0
M  V30 2793 C 277.682 1.94955 -0.158762 0
M  V30 2794 C 278.062 1.63781 1.33188 0
M  V30 2795 O 277.41 0.946423 2.07979 0
M  V30 2796 C 277.62 3.46044 -0.453309 0
M  V30 2797 C 278.968 4.22872 -0.382707 0
M  V30 2798 O 279.992 3.54076 -0.388396 0
M  V30 2799 O 278.851 5.45407 -0.345463 0
M  V30 2800 H 275.945 0.82683 -0.0167505 0
M  V30 2801 H 278.491 1.50971 -0.77498 0
M  V30 2802 H 277.263 3.62028 -1.48498 0
M  V30 2803 H 276.886 3.97128 0.19373 0
M  V30 2804 N 277.883 0.443576 1.51229 0
M  V30 2805 C 278.831 -0.37904 2.29491 0
M  V30 2806 C 279.825 -1.0153 1.35603 0
M  V30 2807 O 281.031 -0.94955 1.52917 0
M  V30 2808 H 277.406 -0.141053 0.738653 0
M  V30 2809 H 279.377 0.301799 2.9687 0
M  V30 2810 C 278.126 -1.46426 3.15364 0
M  V30 2811 H 277.449 -0.984037 3.87501 0
M  V30 2812 H 278.889 -2.01297 3.7317 0
M  V30 2813 C 277.348 -2.45099 2.31146 0
M  V30 2814 O 277.878 -3.49773 1.9754 0
M  V30 2815 N 276.084 -2.16139 1.94249 0
M  V30 2816 H 275.631 -1.31044 2.21777 0
M  V30 2817 H 275.589 -2.82398 1.38198 0
M  V30 2818 N 279.361 -1.56624 0.175154 0
M  V30 2819 C 280.608 -1.96999 -0.468811 0
M  V30 2820 C 280.936 -1.06129 -1.62994 0
M  V30 2821 O 280.191 -0.0961771 -1.95464 0
M  V30 2822 C 280.49 -3.43419 -0.989864 0
M  V30 2823 C 280.156 -4.50866 0.0557687 0
M  V30 2824 C 278.818 -4.79975 0.343134 0
M  V30 2825 C 281.17 -5.15551 0.765308 0
M  V30 2826 C 278.498 -5.71066 1.34536 0
M  V30 2827 C 280.85 -6.07724 1.75654 0
M  V30 2828 C 279.514 -6.35199 2.05132 0
M  V30 2829 H 278.784 -0.720869 -0.17155 0
M  V30 2830 H 281.431 -1.89616 0.267924 0
M  V30 2831 H 279.736 -3.47772 -1.80449 0
M  V30 2832 H 281.433 -3.72002 -1.49719 0
M  V30 2833 H 278.023 -4.28229 -0.178381 0
M  V30 2834 H 282.207 -4.9317 0.556513 0
M  V30 2835 H 277.463 -5.90635 1.57988 0
M  V30 2836 H 281.637 -6.56912 2.31169 0
M  V30 2837 H 279.264 -7.05584 2.8294 0
M  V30 2838 N 280.839 0.0985539 -1.57292 0
M  V30 2839 C 282.116 0.834155 -1.76921 0
M  V30 2840 C 282.496 1.97101 -0.755928 0
M  V30 2841 O 281.844 2.27474 0.216245 0
M  V30 2842 C 282.054 1.33194 -3.22584 0
M  V30 2843 C 283.402 1.77611 -3.85668 0
M  V30 2844 O 284.426 1.42825 -3.26312 0
M  V30 2845 O 283.285 2.4192 -4.90038 0
M  V30 2846 H 280.379 0.397628 -0.725135 0
M  V30 2847 H 282.925 0.0807044 -1.69508 0
M  V30 2848 H 281.697 0.517248 -3.87866 0
M  V30 2849 H 281.32 2.1475 -3.34616 0
M  V30 2850 N 282.317 1.53212 0.369288 0
M  V30 2851 C 283.264 1.79388 1.45219 0
M  V30 2852 C 284.234 0.638059 1.53356 0
M  V30 2853 O 285.419 0.879852 1.69302 0
M  V30 2854 C 282.559 1.98623 2.82211 0
M  V30 2855 C 281.672 3.26337 2.8307 0
M  V30 2856 C 280.807 3.35779 4.11614 0
M  V30 2857 C 279.846 4.5754 4.06601 0
M  V30 2858 N 278.983 4.64155 5.26787 0
M  V30 2859 H 283.823 2.71794 1.22198 0
M  V30 2860 H 281.36 1.34642 0.592444 0
M  V30 2861 H 283.318 2.07761 3.61789 0
M  V30 2862 H 281.948 1.09558 3.03639 0
M  V30 2863 H 281 3.26171 1.95747 0
M  V30 2864 H 282.312 4.15988 2.75237 0
M  V30 2865 H 281.466 3.44208 4.99606 0
M  V30 2866 H 280.205 2.44137 4.22195 0
M  V30 2867 H 279.21 4.49215 3.16996 0
M  V30 2868 H 280.435 5.50519 3.97625 0
M  V30 2869 H 278.381 3.75413 5.3796 0
M  V30 2870 H 278.298 5.47706 5.21109 0
M  V30 2871 H 279.566 4.76863 6.16621 0
M  V30 2872 N 283.795 -0.628877 1.44509 0
M  V30 2873 C 284.725 -1.75187 1.54376 0
M  V30 2874 C 285.706 -1.65411 0.396618 0
M  V30 2875 O 286.891 -1.84137 0.617031 0
M  V30 2876 C 284.021 -3.13725 1.48976 0
M  V30 2877 C 282.975 -3.38291 2.62189 0
M  V30 2878 C 282.301 -4.76883 2.41841 0
M  V30 2879 C 283.601 -3.30632 4.04326 0
M  V30 2880 H 285.295 -1.67187 2.48373 0
M  V30 2881 H 282.841 -0.802909 1.19538 0
M  V30 2882 H 284.794 -3.92064 1.54478 0
M  V30 2883 H 283.518 -3.22515 0.514961 0
M  V30 2884 H 282.177 -2.62334 2.56079 0
M  V30 2885 H 281.825 -4.82378 1.42548 0
M  V30 2886 H 281.525 -4.94278 3.17747 0
M  V30 2887 H 283.049 -5.57449 2.49165 0
M  V30 2888 H 284.463 -3.98873 4.11793 0
M  V30 2889 H 282.86 -3.59561 4.80454 0
M  V30 2890 H 283.93 -2.28404 4.27738 0
M  V30 2891 N 285.273 -1.31445 -0.869486 0
M  V30 2892 C 286.503 -1.23942 -1.65294 0
M  V30 2893 C 286.911 0.197561 -1.88166 0
M  V30 2894 O 286.254 1.14019 -1.44033 0
M  V30 2895 C 286.316 -1.91385 -3.04322 0
M  V30 2896 C 285.98 -3.40726 -3.04557 0
M  V30 2897 C 286.977 -4.36464 -2.82481 0
M  V30 2898 C 284.662 -3.82425 -3.25663 0
M  V30 2899 C 286.656 -5.71876 -2.8149 0
M  V30 2900 C 284.343 -5.1795 -3.243 0
M  V30 2901 C 285.341 -6.12486 -3.02241 0
M  V30 2902 O 285.029 -7.45534 -3.00724 0
M  V30 2903 H 284.761 -0.429459 -0.522054 0
M  V30 2904 H 287.315 -1.73873 -1.0935 0
M  V30 2905 H 285.545 -1.36004 -3.61994 0
M  V30 2906 H 287.234 -1.77791 -3.64891 0
M  V30 2907 H 288 -4.05576 -2.65956 0
M  V30 2908 H 283.879 -3.09274 -3.41863 0
M  V30 2909 H 287.423 -6.45638 -2.64191 0
M  V30 2910 H 283.32 -5.48473 -3.40365 0
M  V30 2911 H 284.088 -7.54713 -3.16782 0
M  V30 2912 N 286.751 1.08385 -1.14413 0
M  V30 2913 C 288 1.80153 -0.907076 0
M  V30 2914 C 288.313 1.87176 0.567851 0
M  V30 2915 O 289.519 2.55359 0.922172 0
M  V30 2916 C 287.975 3.23687 -1.57336 0
M  V30 2917 C 287.583 3.24897 -3.08457 0
M  V30 2918 C 289.327 4.00136 -1.41744 0
M  V30 2919 C 287.234 4.6302 -3.67921 0
M  V30 2920 H 286.164 0.675139 -0.335714 0
M  V30 2921 H 288.815 1.21733 -1.37307 0
M  V30 2922 H 287.197 3.82234 -1.03505 0
M  V30 2923 H 288.371 2.76055 -3.68958 0
M  V30 2924 H 286.686 2.61943 -3.2369 0
M  V30 2925 H 289.283 5.02201 -1.83572 0
M  V30 2926 H 289.626 4.14709 -0.363576 0
M  V30 2927 H 290.159 3.48058 -1.92614 0
M  V30 2928 H 286.898 4.5365 -4.73161 0
M  V30 2929 H 286.418 5.12143 -3.12201 0
M  V30 2930 H 288.097 5.31994 -3.68227 0
M  V30 2931 N 288.23 0.939286 1.26551 0
M  V30 2932 C 289.476 0.596234 1.94465 0
M  V30 2933 C 289.831 -0.855013 1.72358 0
M  V30 2934 O 289.124 -1.6034 1.04889 0
M  V30 2935 C 289.318 0.872106 3.46596 0
M  V30 2936 C 289.147 2.34862 3.83497 0
M  V30 2937 C 287.917 3.00344 4.06352 0
M  V30 2938 C 290.115 3.32697 3.92195 0
M  V30 2939 N 288.097 4.38027 4.30123 0
M  V30 2940 C 289.468 4.55631 4.20476 0
M  V30 2941 C 291.523 3.27747 3.74815 0
M  V30 2942 C 290.226 5.74233 4.33185 0
M  V30 2943 C 292.252 4.45672 3.88755 0
M  V30 2944 C 291.614 5.67388 4.17433 0
M  V30 2945 H 287.713 0.268515 0.734455 0
M  V30 2946 H 290.297 1.2083 1.5267 0
M  V30 2947 H 288.468 0.289102 3.87323 0
M  V30 2948 H 290.2 0.490513 4.01716 0
M  V30 2949 H 286.955 2.50969 4.01636 0
M  V30 2950 H 287.379 5.09288 4.46044 0
M  V30 2951 H 292.021 2.34703 3.51673 0
M  V30 2952 H 289.739 6.67731 4.55149 0
M  V30 2953 H 293.325 4.43372 3.76713 0
M  V30 2954 H 292.205 6.57115 4.27983 0
M  V30 2955 N 289.708 -1.40897 0.706093 0
M  V30 2956 C 290.956 -2.00657 0.241054 0
M  V30 2957 C 291.277 -1.56241 -1.16678 0
M  V30 2958 O 290.547 -0.79765 -1.78926 0
M  V30 2959 H 289.127 -0.742018 0.0861308 0
M  V30 2960 H 291.789 -1.72372 0.909604 0
M  V30 2961 H 290.885 -3.10958 0.266705 0
M  V30 2962 N 291.186 -0.45159 -1.50991 0
M  V30 2963 C 292.435 0.111653 -2.01391 0
M  V30 2964 C 292.748 1.42529 -1.33959 0
M  V30 2965 O 293.954 2.07232 -1.75405 0
M  V30 2966 C 292.41 0.249514 -3.59034 0
M  V30 2967 C 292.018 -1.05453 -4.35412 0
M  V30 2968 C 293.762 0.765762 -4.17536 0
M  V30 2969 C 291.669 -0.881529 -5.84793 0
M  V30 2970 H 290.599 0.0455022 -0.752626 0
M  V30 2971 H 293.25 -0.583524 -1.73975 0
M  V30 2972 H 291.632 1.00803 -3.82955 0
M  V30 2973 H 292.806 -1.82248 -4.23229 0
M  V30 2974 H 291.121 -1.50039 -3.88429 0
M  V30 2975 H 293.718 0.911913 -5.26866 0
M  V30 2976 H 294.061 1.75201 -3.77638 0
M  V30 2977 H 294.594 0.0651744 -3.97747 0
M  V30 2978 H 291.333 -1.84057 -6.29129 0
M  V30 2979 H 290.853 -0.153625 -5.99603 0
M  V30 2980 H 292.532 -0.540363 -6.4474 0
M  V30 2981 N 292.664 1.56529 -0.183458 0
M  V30 2982 C 293.614 2.1515 0.754605 0
M  V30 2983 C 294.598 1.08904 1.18443 0
M  V30 2984 O 295.79 1.34997 1.14476 0
M  V30 2985 C 292.919 2.80531 1.97881 0
M  V30 2986 C 292.005 3.93952 1.57043 0
M  V30 2987 N 292.396 4.98221 0.87231 0
M  V30 2988 C 290.694 4.05338 1.86057 0
M  V30 2989 C 291.395 5.77836 0.669377 0
M  V30 2990 N 290.371 5.29858 1.21454 0
M  V30 2991 H 294.173 2.93132 0.212387 0
M  V30 2992 H 291.687 1.62391 0.0167725 0
M  V30 2993 H 293.684 3.20914 2.6612 0
M  V30 2994 H 292.344 2.04035 2.52586 0
M  V30 2995 H 293.355 5.15191 0.529033 0
M  V30 2996 H 290.032 3.39957 2.42354 0
M  V30 2997 H 291.422 6.71799 0.116422 0
M  V30 2998 N 294.142 -0.090211 1.57342 0
M  V30 2999 C 295.092 -1.11557 1.98844 0
M  V30 3000 C 296.076 -1.35503 0.867624 0
M  V30 3001 O 297.268 -1.36113 1.13148 0
M  V30 3002 C 294.397 -2.43446 2.42051 0
M  V30 3003 C 293.483 -2.22853 3.60828 0
M  V30 3004 N 293.874 -1.72141 4.75606 0
M  V30 3005 C 292.172 -2.53401 3.67021 0
M  V30 3006 C 292.873 -1.65932 5.57531 0
M  V30 3007 N 291.849 -2.11323 5.00843 0
M  V30 3008 H 295.651 -0.716499 2.85032 0
M  V30 3009 H 293.165 -0.297567 1.59651 0
M  V30 3010 H 295.162 -3.17644 2.70014 0
M  V30 3011 H 293.822 -2.84087 1.57241 0
M  V30 3012 H 294.833 -1.41268 4.98261 0
M  V30 3013 H 291.51 -2.97532 2.92884 0
M  V30 3014 H 292.9 -1.27733 6.59647 0
M  V30 3015 N 295.62 -1.53406 -0.361157 0
M  V30 3016 C 297.031 -1.61442 -0.937728 0
M  V30 3017 C 297.382 -0.48461 -1.90121 0
M  V30 3018 O 296.507 0.388312 -2.12888 0
M  V30 3019 C 297.102 -2.92624 -1.70753 0
M  V30 3020 C 295.661 -3.02981 -2.23337 0
M  V30 3021 C 294.808 -2.5677 -1.04712 0
M  V30 3022 H 297.759 -1.58083 -0.139816 0
M  V30 3023 H 297.78 -2.80675 -2.56908 0
M  V30 3024 H 297.292 -3.74834 -1.00604 0
M  V30 3025 H 295.393 -2.25368 -2.96715 0
M  V30 3026 H 295.506 -4.0814 -2.50916 0
M  V30 3027 H 293.87 -2.11752 -1.41539 0
M  V30 3028 H 294.653 -3.41402 -0.360539 0
M  V30 3029 N 297.098 0.621204 -1.44841 0
M  V30 3030 C 298.323 1.41244 -1.51871 0
M  V30 3031 C 298.748 1.87519 -0.147764 0
M  V30 3032 O 298.106 1.59334 0.865 0
M  V30 3033 C 298.154 2.60221 -2.49634 0
M  V30 3034 O 297.258 3.60395 -2.00473 0
M  V30 3035 H 296.599 0.42223 -0.512463 0
M  V30 3036 H 299.129 0.757305 -1.90069 0
M  V30 3037 H 299.139 3.0764 -2.67996 0
M  V30 3038 H 297.814 2.25887 -3.4921 0
M  V30 3039 H 296.391 3.19717 -1.91925 0
M  V30 3040 N 298.576 1.31904 0.862503 0
M  V30 3041 C 299.804 1.24998 1.64873 0
M  V30 3042 C 300.219 -0.183425 1.87907 0
M  V30 3043 O 299.576 -1.11794 1.44251 0
M  V30 3044 C 299.627 1.99829 3.01248 0
M  V30 3045 O 299.348 3.37575 2.79239 0
M  V30 3046 C 300.849 1.99852 3.95694 0
M  V30 3047 H 298.069 0.431599 0.513773 0
M  V30 3048 H 300.613 1.73901 1.07604 0
M  V30 3049 H 298.768 1.54668 3.55185 0
M  V30 3050 H 299.182 3.75776 3.65914 0
M  V30 3051 H 300.656 2.56709 4.88676 0
M  V30 3052 H 301.133 0.982852 4.28062 0
M  V30 3053 H 301.739 2.44926 3.47694 0
M  V30 3054 N 300.054 -1.07777 1.14986 0
M  V30 3055 C 301.002 -2.16964 0.838406 0
M  V30 3056 C 301.996 -1.68372 -0.186386 0
M  V30 3057 O 303.202 -1.79951 -0.0418465 0
M  V30 3058 H 299.577 -0.708006 0.253439 0
M  V30 3059 H 301.548 -2.40454 1.76704 0
M  V30 3060 C 300.297 -3.4604 0.339335 0
M  V30 3061 H 299.62 -3.83813 1.11927 0
M  V30 3062 H 301.06 -4.23698 0.160021 0
M  V30 3063 C 299.519 -3.23569 -0.938325 0
M  V30 3064 O 300.049 -3.47752 -2.01077 0
M  V30 3065 N 298.255 -2.77079 -0.876117 0
M  V30 3066 H 297.802 -2.576 -0.00322037 0
M  V30 3067 H 297.76 -2.62422 -1.73153 0
M  V30 3068 N 301.532 -0.945985 -1.26051 0
M  V30 3069 C 302.464 -0.416662 -2.25381 0
M  V30 3070 C 303.477 0.462712 -1.56086 0
M  V30 3071 O 304.666 0.272383 -1.7641 0
M  V30 3072 C 301.766 0.419812 -3.3629 0
M  V30 3073 C 300.939 -0.444531 -4.35135 0
M  V30 3074 C 299.998 0.332305 -5.2515 0
M  V30 3075 O 299.024 -0.266324 -5.68577 0
M  V30 3076 N 300.226 1.62763 -5.57215 0
M  V30 3077 H 302.991 -1.27059 -2.71433 0
M  V30 3078 H 300.552 -0.815392 -1.39868 0
M  V30 3079 H 302.544 0.947013 -3.93464 0
M  V30 3080 H 301.114 1.17456 -2.89694 0
M  V30 3081 H 300.334 -1.15291 -3.76964 0
M  V30 3082 H 301.622 -1.03478 -4.98166 0
M  V30 3083 H 301.02 2.13603 -5.23823 0
M  V30 3084 H 299.577 2.10097 -6.17011 0
M  V30 3085 N 303.011 1.40521 -0.713556 0
M  V30 3086 C 303.921 2.34522 -0.0606667 0
M  V30 3087 C 304.937 1.57193 0.74607 0
M  V30 3088 O 306.113 1.89591 0.679493 0
M  V30 3089 C 303.178 3.36081 0.851491 0
M  V30 3090 C 302.239 4.29286 0.0349339 0
M  V30 3091 C 301.472 5.25994 0.903649 0
M  V30 3092 O 301.695 5.28616 2.14292 0
M  V30 3093 O 300.629 6.00918 0.343723 0
M  V30 3094 H 304.455 2.91968 -0.835972 0
M  V30 3095 H 302.04 1.41681 -0.47402 0
M  V30 3096 H 303.922 3.98369 1.37404 0
M  V30 3097 H 302.597 2.81052 1.60598 0
M  V30 3098 H 301.504 3.70289 -0.532633 0
M  V30 3099 H 302.837 4.87462 -0.681287 0
M  V30 3100 N 304.489 0.459591 1.5075 0
M  V30 3101 C 305.421 -0.37665 2.26084 0
M  V30 3102 C 306.434 -0.967109 1.30961 0
M  V30 3103 O 307.623 -0.857468 1.56556 0
M  V30 3104 C 304.723 -1.54112 3.01832 0
M  V30 3105 C 303.896 -1.06553 4.24223 0
M  V30 3106 C 302.955 -2.1027 4.82362 0
M  V30 3107 O 301.981 -1.68798 5.43595 0
M  V30 3108 N 303.183 -3.42974 4.68347 0
M  V30 3109 H 305.948 0.269124 2.98489 0
M  V30 3110 H 303.509 0.28972 1.59287 0
M  V30 3111 H 305.501 -2.23165 3.37608 0
M  V30 3112 H 304.071 -2.0918 2.32298 0
M  V30 3113 H 303.291 -0.201274 3.93686 0
M  V30 3114 H 304.579 -0.725516 5.03601 0
M  V30 3115 H 303.977 -3.79385 4.19623 0
M  V30 3116 H 302.534 -4.07858 5.08424 0
M  V30 3117 N 305.967 -1.56429 0.191757 0
M  V30 3118 C 307.195 -2.01867 -0.453586 0
M  V30 3119 C 307.61 -1.07191 -1.5542 0
M  V30 3120 O 306.967 -0.0762108 -1.82341 0
M  V30 3121 C 307.018 -3.47017 -1.013 0
M  V30 3122 O 306.739 -4.38078 0.0437005 0
M  V30 3123 C 308.24 -4.07956 -1.73456 0
M  V30 3124 H 305.46 -0.661211 -0.114199 0
M  V30 3125 H 308.004 -2.02295 0.299483 0
M  V30 3126 H 306.159 -3.47298 -1.71647 0
M  V30 3127 H 306.573 -5.23178 -0.372212 0
M  V30 3128 H 308.047 -5.1138 -2.07833 0
M  V30 3129 H 308.524 -3.51222 -2.63704 0
M  V30 3130 H 309.13 -4.11437 -1.07702 0
M  V30 3131 N 307.445 0.0818655 -1.57387 0
M  V30 3132 C 308.67 0.799946 -1.91352 0
M  V30 3133 C 309.095 1.70833 -0.787258 0
M  V30 3134 O 308.453 1.79419 0.26048 0
M  V30 3135 C 308.501 1.57812 -3.24234 0
M  V30 3136 O 307.605 2.68806 -3.12757 0
M  V30 3137 H 306.946 0.21891 -0.626877 0
M  V30 3138 H 309.476 0.0531256 -2.04531 0
M  V30 3139 H 309.486 1.95952 -3.57864 0
M  V30 3140 H 308.161 0.911548 -4.05788 0
M  V30 3141 H 306.738 2.33597 -2.90666 0
M  V30 3142 N 308.923 1.53595 0.353017 0
M  V30 3143 C 309.853 1.83902 1.43883 0
M  V30 3144 C 310.834 0.693421 1.55324 0
M  V30 3145 O 312.019 0.944452 1.69687 0
M  V30 3146 C 309.149 2.04016 2.8106 0
M  V30 3147 C 308.103 3.19814 2.84434 0
M  V30 3148 C 307.429 3.25244 4.24406 0
M  V30 3149 C 308.729 4.58133 2.50822 0
M  V30 3150 H 310.423 2.74835 1.1877 0
M  V30 3151 H 307.969 1.32242 0.569917 0
M  V30 3152 H 309.922 2.238 3.57059 0
M  V30 3153 H 308.646 1.09804 3.07588 0
M  V30 3154 H 307.305 2.9987 2.10887 0
M  V30 3155 H 306.953 2.28646 4.48029 0
M  V30 3156 H 306.653 4.03054 4.27576 0
M  V30 3157 H 308.177 3.47228 5.0226 0
M  V30 3158 H 309.591 4.77995 3.16534 0
M  V30 3159 H 307.988 5.38276 2.6529 0
M  V30 3160 H 309.058 4.62387 1.46034 0
M  V30 3161 N 310.401 -0.613514 1.45168 0
M  V30 3162 C 311.631 -1.39743 1.52169 0
M  V30 3163 C 312.039 -1.88596 0.151086 0
M  V30 3164 O 311.382 -1.6251 -0.856521 0
M  V30 3165 C 311.444 -2.64035 2.43979 0
M  V30 3166 C 311.108 -2.36861 3.90827 0
M  V30 3167 C 312.105 -1.97591 4.80889 0
M  V30 3168 C 309.79 -2.49956 4.35692 0
M  V30 3169 C 311.784 -1.71768 6.1382 0
M  V30 3170 C 309.471 -2.23747 5.68665 0
M  V30 3171 C 310.469 -1.84714 6.57548 0
M  V30 3172 O 310.157 -1.58809 7.88058 0
M  V30 3173 H 309.889 -0.434382 0.517966 0
M  V30 3174 H 312.443 -0.75587 1.90986 0
M  V30 3175 H 310.673 -3.3089 2.00122 0
M  V30 3176 H 312.362 -3.26069 2.41731 0
M  V30 3177 H 313.128 -1.87015 4.47493 0
M  V30 3178 H 309.007 -2.79305 3.66756 0
M  V30 3179 H 312.551 -1.41227 6.83155 0
M  V30 3180 H 308.448 -2.33938 6.01617 0
M  V30 3181 H 309.216 -1.7291 8.00028 0
M  V30 3182 N 311.879 -1.3236 -0.855495 0
M  V30 3183 C 313.125 -1.23054 -1.612 0
M  V30 3184 C 313.458 0.207404 -1.93089 0
M  V30 3185 O 312.733 1.14432 -1.57275 0
M  V30 3186 C 313.016 -2.08937 -2.93287 0
M  V30 3187 C 312.869 -3.61105 -2.68185 0
M  V30 3188 C 314.188 -1.94986 -3.94549 0
M  V30 3189 H 311.307 -0.448364 -0.584926 0
M  V30 3190 H 313.949 -1.62297 -0.987917 0
M  V30 3191 H 312.099 -1.75599 -3.46551 0
M  V30 3192 H 313.771 -4.04652 -2.21483 0
M  V30 3193 H 312.014 -3.83813 -2.02164 0
M  V30 3194 H 312.685 -4.16522 -3.62234 0
M  V30 3195 H 315.161 -2.24189 -3.5054 0
M  V30 3196 H 314.037 -2.57356 -4.84829 0
M  V30 3197 H 314.298 -0.917263 -4.3248 0
M  V30 3198 N 313.357 1.07166 -1.15556 0
M  V30 3199 C 314.289 2.14341 -0.811815 0
M  V30 3200 C 315.302 1.61835 0.177015 0
M  V30 3201 O 316.491 1.78439 -0.0464996 0
M  V30 3202 C 313.591 3.38387 -0.186481 0
M  V30 3203 C 312.764 4.20238 -1.21321 0
M  V30 3204 C 311.823 5.2266 -0.609302 0
M  V30 3205 O 310.849 5.54719 -1.27576 0
M  V30 3206 N 312.051 5.77306 0.608099 0
M  V30 3207 H 314.816 2.44431 -1.73417 0
M  V30 3208 H 312.377 1.23089 -1.0517 0
M  V30 3209 H 314.369 4.04044 0.230339 0
M  V30 3210 H 312.939 3.05994 0.639249 0
M  V30 3211 H 312.159 3.50369 -1.80652 0
M  V30 3212 H 313.447 4.71736 -1.90638 0
M  V30 3213 H 312.845 5.53513 1.1679 0
M  V30 3214 H 311.402 6.44583 0.96725 0
M  V30 3215 N 314.835 0.952656 1.25548 0
M  V30 3216 C 315.798 0.475794 2.24207 0
M  V30 3217 C 316.798 -0.419428 1.55234 0
M  V30 3218 O 317.988 -0.216994 1.72843 0
M  V30 3219 C 315.12 -0.312814 3.39462 0
M  V30 3220 H 316.313 1.34779 2.67908 0
M  V30 3221 H 313.866 0.735739 1.37901 0
M  V30 3222 H 314.601 -1.20257 3.01179 0
M  V30 3223 H 314.386 0.329404 3.90714 0
M  V30 3224 H 315.876 -0.635986 4.12729 0
M  V30 3225 N 316.313 -1.40141 0.720998 0
M  V30 3226 C 317.538 -2.05618 0.271258 0
M  V30 3227 C 317.963 -1.53978 -1.08039 0
M  V30 3228 O 317.321 -0.677463 -1.68167 0
M  V30 3229 C 317.369 -3.59609 0.267197 0
M  V30 3230 O 316.473 -4.05526 -0.749814 0
M  V30 3231 H 315.814 -0.651904 0.126162 0
M  V30 3232 H 318.344 -1.79439 0.982997 0
M  V30 3233 H 318.354 -4.0786 0.106744 0
M  V30 3234 H 317.029 -3.96559 1.25354 0
M  V30 3235 H 315.606 -3.68722 -0.556644 0
M  V30 3236 N 317.792 -0.46758 -1.50504 0
M  V30 3237 C 319.04 0.0884469 -2.01906 0
M  V30 3238 C 319.361 1.40532 -1.35188 0
M  V30 3239 O 318.631 1.89515 -0.496079 0
M  V30 3240 H 317.211 0.0356765 -0.746148 0
M  V30 3241 H 319.873 -0.6172 -1.84869 0
M  V30 3242 H 318.969 0.2425 -3.11156 0
M  V30 3243 N 319.27 1.56325 -0.20005 0
M  V30 3244 C 320.686 1.58839 0.155716 0
M  V30 3245 C 320.886 1.21636 1.60645 0
M  V30 3246 O 319.942 0.941437 2.34293 0
M  V30 3247 C 321.255 3.0032 -0.151124 0
M  V30 3248 C 322.803 3.12866 -0.0916284 0
M  V30 3249 C 323.278 4.56488 -0.371845 0
M  V30 3250 N 324.769 4.62089 -0.320641 0
M  V30 3251 C 325.504 5.71116 -0.511243 0
M  V30 3252 N 325 6.88592 -0.762461 0
M  V30 3253 N 326.793 5.60335 -0.445157 0
M  V30 3254 H 318.944 1.78788 -1.14668 0
M  V30 3255 H 321.207 0.829996 -0.458051 0
M  V30 3256 H 320.913 3.32117 -1.15721 0
M  V30 3257 H 320.787 3.73257 0.543986 0
M  V30 3258 H 323.174 2.80878 0.905065 0
M  V30 3259 H 323.255 2.42304 -0.81989 0
M  V30 3260 H 322.899 4.89189 -1.36588 0
M  V30 3261 H 322.829 5.25246 0.377362 0
M  V30 3262 H 325.32 3.77665 -0.13329 0
M  V30 3263 H 325.633 7.67581 -0.896576 0
M  V30 3264 H 323.978 6.90387 -0.799412 0
M  V30 3265 H 327.169 4.67436 -0.249278 0
M  V30 3266 H 327.342 6.45243 -0.597116 0
M  V30 3267 N 320.748 -0.0735177 1.57428 0
M  V30 3268 C 321.994 -0.774145 1.87443 0
M  V30 3269 C 322.327 -1.77311 0.792103 0
M  V30 3270 O 321.602 -1.93492 -0.197793 0
M  V30 3271 C 321.885 -1.48367 3.28115 0
M  V30 3272 C 321.738 -0.501227 4.46999 0
M  V30 3273 C 323.057 -2.429 3.66998 0
M  V30 3274 H 320.176 -0.279971 0.681752 0
M  V30 3275 H 322.818 -0.0373616 1.89963 0
M  V30 3276 H 320.968 -2.11171 3.26097 0
M  V30 3277 H 322.64 0.121468 4.6114 0
M  V30 3278 H 320.883 0.183593 4.33411 0
M  V30 3279 H 321.554 -1.03526 5.42205 0
M  V30 3280 H 324.03 -1.90175 3.70098 0
M  V30 3281 H 322.906 -2.89549 4.66318 0
M  V30 3282 H 323.167 -3.27628 2.96837 0
M  V30 3283 N 322.226 -1.5378 -0.344866 0
M  V30 3284 C 323.454 -1.74899 -1.10534 0
M  V30 3285 C 323.869 -0.487534 -1.82397 0
M  V30 3286 O 323.226 0.540741 -1.74305 0
M  V30 3287 C 323.277 -2.92822 -2.11984 0
M  V30 3288 O 322.998 -4.14089 -1.43044 0
M  V30 3289 C 324.499 -3.25982 -3.00417 0
M  V30 3290 H 321.719 -0.584426 -0.329678 0
M  V30 3291 H 324.263 -2.006 -0.397474 0
M  V30 3292 H 322.418 -2.69457 -2.78338 0
M  V30 3293 H 322.832 -4.80272 -2.10805 0
M  V30 3294 H 324.306 -4.11848 -3.67539 0
M  V30 3295 H 324.783 -2.42228 -3.66363 0
M  V30 3296 H 325.389 -3.51349 -2.39654 0
M  V30 3297 N 323.704 0.605807 -1.45491 0
M  V30 3298 C 324.95 1.36679 -1.49823 0
M  V30 3299 C 325.283 1.93693 -0.140175 0
M  V30 3300 O 324.558 1.75158 0.845581 0
M  V30 3301 C 324.841 2.51337 -2.57879 0
M  V30 3302 C 324.694 1.99508 -4.03134 0
M  V30 3303 C 326.013 3.53463 -2.62205 0
M  V30 3304 H 323.132 0.495617 -0.545466 0
M  V30 3305 H 325.774 0.682732 -1.7731 0
M  V30 3306 H 323.924 3.09691 -2.34571 0
M  V30 3307 H 325.596 1.45789 -4.37656 0
M  V30 3308 H 323.839 1.30496 -4.13707 0
M  V30 3309 H 324.51 2.82169 -4.74431 0
M  V30 3310 H 326.986 3.04953 -2.83095 0
M  V30 3311 H 325.862 4.31178 -3.39672 0
M  V30 3312 H 326.123 4.09197 -1.67363 0
M  V30 3313 N 325.182 1.32811 0.848464 0
M  V30 3314 C 326.407 1.26882 1.6406 0
M  V30 3315 C 326.832 -0.15913 1.87426 0
M  V30 3316 O 326.19 -1.11258 1.43148 0
M  V30 3317 C 326.238 2.03997 2.97351 0
M  V30 3318 O 325.342 1.39201 3.88197 0
M  V30 3319 H 324.683 0.436982 0.499943 0
M  V30 3320 H 327.213 1.75224 1.0563 0
M  V30 3321 H 327.223 2.14403 3.47124 0
M  V30 3322 H 325.898 3.0783 2.79666 0
M  V30 3323 H 324.475 1.37381 3.46671 0
M  V30 3324 N 326.66 -1.06551 1.16123 0
M  V30 3325 C 327.888 -1.83005 0.965237 0
M  V30 3326 C 328.303 -1.82423 -0.486542 0
M  V30 3327 O 327.66 -1.24152 -1.33763 0
M  V30 3328 C 327.711 -3.29733 1.48183 0
M  V30 3329 O 327.432 -3.30416 2.87674 0
M  V30 3330 C 328.933 -4.22926 1.32848 0
M  V30 3331 H 326.153 -0.577118 0.342309 0
M  V30 3332 H 328.697 -1.3445 1.54089 0
M  V30 3333 H 326.852 -3.75609 0.948517 0
M  V30 3334 H 327.266 -4.22149 3.11272 0
M  V30 3335 H 328.74 -5.23916 1.73827 0
M  V30 3336 H 329.217 -4.38346 0.273692 0
M  V30 3337 H 329.823 -3.82894 1.85127 0
M  V30 3338 N 328.138 -0.959301 -1.25041 0
M  V30 3339 C 329.554 -0.664474 -1.4511 0
M  V30 3340 C 329.754 0.776481 -1.85938 0
M  V30 3341 O 328.81 1.55128 -1.99227 0
M  V30 3342 C 330.123 -1.64139 -2.5195 0
M  V30 3343 C 331.671 -1.65309 -2.65786 0
M  V30 3344 C 332.146 -2.61777 -3.75815 0
M  V30 3345 N 333.637 -2.60169 -3.83231 0
M  V30 3346 C 334.372 -3.31489 -4.6787 0
M  V30 3347 N 333.868 -4.12298 -5.56761 0
M  V30 3348 N 335.661 -3.20354 -4.61876 0
M  V30 3349 H 327.812 -1.89043 -0.968332 0
M  V30 3350 H 330.075 -0.813408 -0.4869 0
M  V30 3351 H 329.781 -2.67086 -2.28819 0
M  V30 3352 H 329.655 -1.40756 -3.49954 0
M  V30 3353 H 332.042 -0.630778 -2.8828 0
M  V30 3354 H 332.123 -1.92753 -1.68167 0
M  V30 3355 H 331.767 -3.64137 -3.54071 0
M  V30 3356 H 331.697 -2.31616 -4.72929 0
M  V30 3357 H 334.188 -2.01507 -3.19692 0
M  V30 3358 H 334.501 -4.63625 -6.18281 0
M  V30 3359 H 332.846 -4.16395 -5.56454 0
M  V30 3360 H 336.037 -2.56692 -3.91442 0
M  V30 3361 H 336.21 -3.76201 -5.27614 0
M  V30 3362 N 329.616 1.39756 -0.72842 0
M  V30 3363 C 331.032 1.5442 -0.403308 0
M  V30 3364 C 331.232 1.69694 1.08656 0
M  V30 3365 O 330.288 1.69373 1.87267 0
M  V30 3366 C 331.601 2.76555 -1.18058 0
M  V30 3367 C 333.149 2.90384 -1.16815 0
M  V30 3368 C 333.624 4.15449 -1.92785 0
M  V30 3369 N 335.115 4.22475 -1.89918 0
M  V30 3370 C 335.85 5.1818 -2.45514 0
M  V30 3371 N 335.346 6.19714 -3.09719 0
M  V30 3372 N 337.139 5.1035 -2.35584 0
M  V30 3373 H 329.29 1.28089 -1.69431 0
M  V30 3374 H 331.553 0.620327 -0.716867 0
M  V30 3375 H 331.259 2.7159 -2.23455 0
M  V30 3376 H 331.133 3.69033 -0.780662 0
M  V30 3377 H 333.52 2.94846 -0.12234 0
M  V30 3378 H 333.601 1.98988 -1.6074 0
M  V30 3379 H 333.245 4.11749 -2.97364 0
M  V30 3380 H 333.175 5.05877 -1.46272 0
M  V30 3381 H 335.666 3.49743 -1.43138 0
M  V30 3382 H 335.979 6.8919 -3.49625 0
M  V30 3383 H 334.324 6.20121 -3.13807 0
M  V30 3384 H 337.515 4.2996 -1.85072 0
M  V30 3385 H 337.688 5.84761 -2.79211 0
M  V30 3386 N 331.094 0.475555 1.50254 0
M  V30 3387 C 332.319 -0.0777042 2.07254 0
M  V30 3388 C 332.744 -1.3235 1.3366 0
M  V30 3389 O 332.102 -1.77152 0.385597 0
M  V30 3390 C 332.15 -0.340169 3.58992 0
M  V30 3391 O 331.254 -1.41982 3.87188 0
M  V30 3392 H 330.595 0.0149556 0.663832 0
M  V30 3393 H 333.125 0.667878 1.93392 0
M  V30 3394 H 333.135 -0.579332 4.03866 0
M  V30 3395 H 331.81 0.570167 4.11973 0
M  V30 3396 H 330.387 -1.16762 3.54148 0
M  V30 3397 N 332.573 -1.56217 0.208337 0
M  V30 3398 C 333.505 -2.1695 -0.739276 0
M  V30 3399 C 334.518 -1.13492 -1.1672 0
M  V30 3400 O 335.707 -1.40529 -1.10063 0
M  V30 3401 C 332.807 -2.72755 -2.01142 0
M  V30 3402 C 331.98 -4.0125 -1.74118 0
M  V30 3403 C 331.039 -4.41749 -2.85909 0
M  V30 3404 O 330.065 -5.08912 -2.54946 0
M  V30 3405 N 331.267 -4.06342 -4.14568 0
M  V30 3406 H 334.032 -2.98893 -0.219837 0
M  V30 3407 H 331.593 -1.61878 0.0268445 0
M  V30 3408 H 333.585 -2.96826 -2.75094 0
M  V30 3409 H 332.155 -1.95191 -2.4417 0
M  V30 3410 H 331.375 -3.85173 -0.838775 0
M  V30 3411 H 332.663 -4.851 -1.53477 0
M  V30 3412 H 332.061 -3.52345 -4.42571 0
M  V30 3413 H 330.618 -4.35335 -4.85105 0
M  V30 3414 N 334.051 0.0651679 -1.57465 0
M  V30 3415 C 334.983 1.10359 -2.00882 0
M  V30 3416 C 335.996 1.346 -0.915788 0
M  V30 3417 O 337.185 1.32723 -1.1936 0
M  V30 3418 C 334.285 2.45312 -2.33828 0
M  V30 3419 C 333.458 2.40934 -3.65061 0
M  V30 3420 C 332.517 3.58047 -3.85602 0
M  V30 3421 O 331.543 3.39175 -4.57109 0
M  V30 3422 N 332.745 4.78637 -3.28462 0
M  V30 3423 H 335.51 0.733807 -2.90578 0
M  V30 3424 H 333.071 0.253719 -1.599 0
M  V30 3425 H 335.063 3.22314 -2.44737 0
M  V30 3426 H 333.633 2.74267 -1.49988 0
M  V30 3427 H 332.853 1.49273 -3.64844 0
M  V30 3428 H 334.141 2.35117 -4.51218 0
M  V30 3429 H 333.539 4.96872 -2.70433 0
M  V30 3430 H 332.096 5.53127 -3.44809 0
M  V30 3431 N 335.529 1.53961 0.336706 0
M  V30 3432 C 336.757 1.75483 1.09605 0
M  V30 3433 C 337.172 0.4972 1.82136 0
M  V30 3434 O 336.529 -0.53149 1.74589 0
M  V30 3435 C 336.58 2.93943 2.10428 0
M  V30 3436 O 336.301 4.14842 1.40846 0
M  V30 3437 C 337.802 3.27571 2.98684 0
M  V30 3438 H 335.022 0.586166 0.326574 0
M  V30 3439 H 337.566 2.00808 0.38683 0
M  V30 3440 H 335.721 2.70929 2.76905 0
M  V30 3441 H 336.135 4.81383 2.08255 0
M  V30 3442 H 337.609 4.13791 3.6535 0
M  V30 3443 H 338.086 2.44168 3.65074 0
M  V30 3444 H 338.692 3.52615 2.37787 0
M  V30 3445 N 337.007 -0.598083 1.45811 0
M  V30 3446 C 338.256 -1.35295 1.49594 0
M  V30 3447 C 338.569 -1.95057 0.145679 0
M  V30 3448 O 339.775 -2.71431 0.0612099 0
M  V30 3449 C 338.231 -2.45124 2.63519 0
M  V30 3450 C 337.839 -1.91732 4.04899 0
M  V30 3451 C 339.583 -3.2205 2.76558 0
M  V30 3452 C 337.49 -2.991 5.1019 0
M  V30 3453 H 336.42 -0.508552 0.556679 0
M  V30 3454 H 339.071 -0.639977 1.71978 0
M  V30 3455 H 337.453 -3.19149 2.34435 0
M  V30 3456 H 338.627 -1.24352 4.43704 0
M  V30 3457 H 336.942 -1.27522 3.96393 0
M  V30 3458 H 339.539 -4.0215 3.52391 0
M  V30 3459 H 339.882 -3.73663 1.83526 0
M  V30 3460 H 340.415 -2.55127 3.05213 0
M  V30 3461 H 337.154 -2.52393 6.04961 0
M  V30 3462 H 336.674 -3.65017 4.75944 0
M  V30 3463 H 338.353 -3.63318 5.35359 0
M  V30 3464 N 338.485 -1.33259 -0.841409 0
M  V30 3465 C 339.734 -1.23921 -1.59143 0
M  V30 3466 C 340.047 0.1941 -1.94635 0
M  V30 3467 O 341.253 0.409474 -2.68394 0
M  V30 3468 C 339.709 -2.17119 -2.87032 0
M  V30 3469 C 339.317 -3.65606 -2.58914 0
M  V30 3470 C 341.061 -2.16648 -3.65053 0
M  V30 3471 C 338.968 -4.50726 -3.82884 0
M  V30 3472 H 337.898 -0.460264 -0.597221 0
M  V30 3473 H 340.549 -1.58307 -0.927959 0
M  V30 3474 H 338.931 -1.75663 -3.54906 0
M  V30 3475 H 340.105 -4.15487 -1.99267 0
M  V30 3476 H 338.42 -3.68341 -1.942 0
M  V30 3477 H 341.017 -2.77474 -4.57069 0
M  V30 3478 H 341.36 -1.16088 -3.99787 0
M  V30 3479 H 341.893 -2.56453 -3.041 0
M  V30 3480 H 338.632 -5.52151 -3.53283 0
M  V30 3481 H 338.152 -4.0559 -4.41879 0
M  V30 3482 H 339.831 -4.64401 -4.50489 0
M  V30 3483 N 339.963 1.05934 -1.16686 0
M  V30 3484 C 341.374 1.60263 -0.957745 0
M  V30 3485 C 341.725 1.89789 0.49745 0
M  V30 3486 O 340.85 1.67401 1.37135 0
M  V30 3487 C 341.445 2.91172 -1.73218 0
M  V30 3488 C 340.004 3.42188 -1.56794 0
M  V30 3489 C 339.151 2.16028 -1.73859 0
M  V30 3490 H 342.102 0.888392 -1.31504 0
M  V30 3491 H 342.123 3.60744 -1.21014 0
M  V30 3492 H 341.635 2.6965 -2.79124 0
M  V30 3493 H 339.736 3.68762 -0.533437 0
M  V30 3494 H 339.849 4.17273 -2.35414 0
M  V30 3495 H 338.213 2.26426 -1.16633 0
M  V30 3496 H 338.996 1.96985 -2.81161 0
M  V30 3497 N 341.441 0.965919 1.2453 0
M  V30 3498 C 342.389 0.486506 2.27455 0
M  V30 3499 C 343.383 -0.449041 1.6334 0
M  V30 3500 O 344.589 -0.324527 1.7705 0
M  V30 3501 H 340.964 0.138857 0.739069 0
M  V30 3502 H 342.935 1.3666 2.65267 0
M  V30 3503 C 341.684 -0.209481 3.47068 0
M  V30 3504 H 341.007 0.50129 3.96645 0
M  V30 3505 H 342.447 -0.508775 4.20936 0
M  V30 3506 C 340.906 -1.43586 3.0477 0
M  V30 3507 O 341.436 -2.53299 3.11773 0
M  V30 3508 N 339.642 -1.30126 2.59838 0
M  V30 3509 H 339.189 -0.408583 2.54339 0
M  V30 3510 H 339.147 -2.12294 2.31902 0
M  V30 3511 N 342.919 -1.39368 0.735821 0
M  V30 3512 C 344.168 -1.99733 0.281004 0
M  V30 3513 C 344.481 -1.59055 -1.13846 0
M  V30 3514 O 345.687 -2.12262 -1.69284 0
M  V30 3515 C 344.143 -3.57057 0.451462 0
M  V30 3516 C 343.751 -4.06697 1.87886 0
M  V30 3517 C 345.495 -4.2446 0.0584616 0
M  V30 3518 C 343.402 -5.56598 1.99883 0
M  V30 3519 H 342.332 -0.747163 0.101311 0
M  V30 3520 H 344.983 -1.59357 0.909819 0
M  V30 3521 H 343.365 -3.95234 -0.246263 0
M  V30 3522 H 344.539 -3.79853 2.60861 0
M  V30 3523 H 342.854 -3.5196 2.22515 0
M  V30 3524 H 345.451 -5.34549 0.127099 0
M  V30 3525 H 345.794 -4.04444 -0.986433 0
M  V30 3526 H 346.327 -3.9146 0.707374 0
M  V30 3527 H 343.066 -5.81494 3.02564 0
M  V30 3528 H 342.586 -5.85242 1.31346 0
M  V30 3529 H 344.265 -6.22022 1.78039 0
M  V30 3530 N 344.397 -0.483516 -1.5 0
M  V30 3531 C 345.645 0.067027 -2.01989 0
M  V30 3532 C 345.966 1.3909 -1.36671 0
M  V30 3533 O 345.236 1.88978 -0.516152 0
M  V30 3534 H 343.816 0.0277606 -0.746484 0
M  V30 3535 H 346.478 -0.636773 -1.84204 0
M  V30 3536 H 345.574 0.209484 -3.11396 0
M  V30 3537 N 345.875 1.56104 -0.216619 0
M  V30 3538 C 347.1 2.0301 0.424462 0
M  V30 3539 C 347.525 1.0955 1.52907 0
M  V30 3540 O 346.883 0.0827914 1.81111 0
M  V30 3541 C 346.931 3.4819 0.937883 0
M  V30 3542 O 346.035 3.57865 2.04955 0
M  V30 3543 H 345.376 0.656925 0.0966755 0
M  V30 3544 H 347.906 2.01859 -0.33381 0
M  V30 3545 H 347.916 3.88413 1.24897 0
M  V30 3546 H 346.591 4.15699 0.129387 0
M  V30 3547 H 345.168 3.29527 1.74546 0
M  V30 3548 N 347.353 -0.0568162 1.57498 0
M  V30 3549 C 348.769 -0.411933 1.54192 0
M  V30 3550 C 348.969 -1.78287 0.938942 0
M  V30 3551 O 348.025 -2.46483 0.547919 0
M  V30 3552 C 349.338 -0.339244 2.9878 0
M  V30 3553 C 350.886 -0.418348 3.10192 0
M  V30 3554 C 351.361 -0.375407 4.56459 0
M  V30 3555 N 352.852 -0.435038 4.61153 0
M  V30 3556 C 353.587 -0.424265 5.71828 0
M  V30 3557 N 353.083 -0.367418 6.91825 0
M  V30 3558 N 354.876 -0.471938 5.60115 0
M  V30 3559 H 347.027 0.840684 1.95055 0
M  V30 3560 H 349.29 0.316987 0.893433 0
M  V30 3561 H 348.996 0.601742 3.46514 0
M  V30 3562 H 348.87 -1.14371 3.59443 0
M  V30 3563 H 351.257 -1.34976 2.62422 0
M  V30 3564 H 351.338 0.414962 2.52412 0
M  V30 3565 H 350.982 0.552219 5.04889 0
M  V30 3566 H 350.912 -1.22645 5.12119 0
M  V30 3567 H 353.403 -0.482612 3.74806 0
M  V30 3568 H 353.716 -0.363535 7.71944 0
M  V30 3569 H 352.061 -0.333879 6.94198 0
M  V30 3570 H 355.252 -0.514145 4.65268 0
M  V30 3571 H 355.425 -0.460073 6.46365 0
M  V30 3572 N 348.832 -1.54138 -0.328536 0
M  V30 3573 C 350.243 -1.63395 -0.903272 0
M  V30 3574 C 350.594 -0.524828 -1.8905 0
M  V30 3575 O 349.719 0.343068 -2.13663 0
M  V30 3576 C 350.314 -2.9618 -1.64507 0
M  V30 3577 C 348.873 -3.0765 -2.1686 0
M  V30 3578 C 348.02 -2.58933 -0.992416 0
M  V30 3579 H 350.971 -1.58344 -0.106253 0
M  V30 3580 H 350.992 -2.86061 -2.50897 0
M  V30 3581 H 350.504 -3.76884 -0.926302 0
M  V30 3582 H 348.605 -2.31611 -2.91868 0
M  V30 3583 H 348.718 -4.1337 -2.42202 0
M  V30 3584 H 347.082 -2.14706 -1.37016 0
M  V30 3585 H 347.865 -3.42089 -0.288041 0
M  V30 3586 N 350.31 0.590341 -1.46126 0
M  V30 3587 C 351.556 1.34874 -1.52252 0
M  V30 3588 C 351.911 1.91658 -0.168807 0
M  V30 3589 O 351.204 1.73093 0.821556 0
M  V30 3590 C 351.398 2.5032 -2.55097 0
M  V30 3591 C 351.227 2.04843 -4.00337 0
M  V30 3592 C 349.997 1.90213 -4.68132 0
M  V30 3593 C 352.195 1.61267 -4.88362 0
M  V30 3594 N 350.177 1.38727 -5.9802 0
M  V30 3595 C 351.548 1.21319 -6.08015 0
M  V30 3596 C 353.603 1.49015 -4.75078 0
M  V30 3597 C 352.306 0.7034 -7.15852 0
M  V30 3598 C 354.332 0.994401 -5.8298 0
M  V30 3599 C 353.694 0.604659 -7.018 0
M  V30 3600 H 349.793 0.486803 -0.612002 0
M  V30 3601 H 352.377 0.673007 -1.82698 0
M  V30 3602 H 350.548 3.15466 -2.26574 0
M  V30 3603 H 352.28 3.1725 -2.51266 0
M  V30 3604 H 349.035 2.11927 -4.23537 0
M  V30 3605 H 349.459 1.15168 -6.67132 0
M  V30 3606 H 354.101 1.77768 -3.83612 0
M  V30 3607 H 351.819 0.403446 -8.07092 0
M  V30 3608 H 355.405 0.903621 -5.7474 0
M  V30 3609 H 354.285 0.226963 -7.83871 0
M  V30 3610 N 351.788 1.33704 0.83433 0
M  V30 3611 C 353.034 1.25603 1.59222 0
M  V30 3612 C 353.367 -0.176659 1.93395 0
M  V30 3613 O 352.642 -1.11915 1.59076 0
M  V30 3614 C 352.925 2.13576 2.89926 0
M  V30 3615 C 352.778 3.65326 2.62406 0
M  V30 3616 C 354.097 2.01238 3.91397 0
M  V30 3617 H 351.216 0.457613 0.577719 0
M  V30 3618 H 353.858 1.63848 0.961972 0
M  V30 3619 H 352.008 1.8109 3.43713 0
M  V30 3620 H 353.68 4.08124 2.15017 0
M  V30 3621 H 351.923 3.8698 1.96033 0
M  V30 3622 H 352.594 4.22232 3.55562 0
M  V30 3623 H 355.07 2.29738 3.46929 0
M  V30 3624 H 353.946 2.65036 4.80673 0
M  V30 3625 H 354.207 0.985951 4.30966 0
M  V30 3626 N 353.266 -1.05314 1.17247 0
M  V30 3627 C 354.682 -1.30452 0.919473 0
M  V30 3628 C 354.882 -1.9703 -0.42209 0
M  V30 3629 O 353.938 -2.24311 -1.15935 0
M  V30 3630 C 355.251 -2.17551 2.07586 0
M  V30 3631 C 356.799 -2.30937 2.11275 0
M  V30 3632 C 357.274 -3.21396 3.26296 0
M  V30 3633 N 358.765 -3.28981 3.26076 0
M  V30 3634 C 359.5 -3.99095 4.11716 0
M  V30 3635 N 358.996 -4.71648 5.07465 0
M  V30 3636 N 360.789 -3.95247 3.9967 0
M  V30 3637 H 352.94 -0.604988 2.03602 0
M  V30 3638 H 355.203 -0.329368 0.888944 0
M  V30 3639 H 354.909 -1.75921 3.0454 0
M  V30 3640 H 354.783 -3.18182 2.02584 0
M  V30 3641 H 357.17 -2.71809 1.14907 0
M  V30 3642 H 357.251 -1.2994 2.20339 0
M  V30 3643 H 356.895 -2.81238 4.22927 0
M  V30 3644 H 356.825 -4.22395 3.14467 0
M  V30 3645 H 359.316 -2.77286 2.5675 0
M  V30 3646 H 359.629 -5.22705 5.6921 0
M  V30 3647 H 357.974 -4.70594 5.11435 0
M  V30 3648 H 361.165 -3.37691 3.24164 0
M  V30 3649 H 361.338 -4.4962 4.66632 0
M  V30 3650 N 354.744 -0.972509 -1.24016 0
M  V30 3651 C 355.992 -0.635776 -1.91839 0
M  V30 3652 C 356.313 0.832312 -1.76345 0
M  V30 3653 O 355.583 1.5946 -1.13795 0
M  V30 3654 H 354.163 -0.232157 -0.710009 0
M  V30 3655 H 356.825 -1.23462 -1.50809 0
M  V30 3656 H 355.921 -0.880545 -2.99421 0
M  V30 3657 N 356.222 1.38976 -0.743202 0
M  V30 3658 C 357.152 2.33171 -0.123873 0
M  V30 3659 C 358.133 1.54336 0.71516 0
M  V30 3660 O 359.318 1.82696 0.658467 0
M  V30 3661 C 356.448 3.38474 0.777978 0
M  V30 3662 C 355.402 4.27979 0.0424758 0
M  V30 3663 C 354.728 5.2405 1.06189 0
M  V30 3664 C 356.028 5.10155 -1.1198 0
M  V30 3665 H 357.722 2.85213 -0.910709 0
M  V30 3666 H 355.268 1.37133 -0.439388 0
M  V30 3667 H 357.221 4.03328 1.22084 0
M  V30 3668 H 355.945 2.84891 1.59702 0
M  V30 3669 H 354.604 3.64616 -0.380853 0
M  V30 3670 H 354.252 4.66758 1.87472 0
M  V30 3671 H 353.952 5.84785 0.574485 0
M  V30 3672 H 355.476 5.9178 1.50428 0
M  V30 3673 H 356.89 5.68307 -0.75499 0
M  V30 3674 H 355.287 5.80073 -1.53738 0
M  V30 3675 H 356.357 4.44504 -1.93764 0
M  V30 3676 N 357.7 0.491464 1.49741 0
M  V30 3677 C 358.925 -0.0557177 2.07325 0
M  V30 3678 C 359.35 -1.30925 1.35056 0
M  V30 3679 O 358.708 -1.76733 0.404365 0
M  V30 3680 C 358.756 -0.302074 3.59333 0
M  V30 3681 O 357.86 -1.37868 3.88672 0
M  V30 3682 H 357.201 0.0219956 0.663636 0
M  V30 3683 H 359.731 0.688352 1.92673 0
M  V30 3684 H 359.741 -0.536464 4.04458 0
M  V30 3685 H 358.416 0.61383 4.11345 0
M  V30 3686 H 356.993 -1.12999 3.55367 0
M  V30 3687 N 359.178 -1.55987 0.224894 0
M  V30 3688 C 360.403 -2.03232 -0.41369 0
M  V30 3689 C 360.828 -1.10359 -1.52323 0
M  V30 3690 O 360.186 -0.092395 -1.81064 0
M  V30 3691 C 360.234 -3.48682 -0.919405 0
M  V30 3692 O 359.338 -3.58947 -2.03054 0
M  V30 3693 H 358.679 -0.657428 -0.0931903 0
M  V30 3694 H 361.209 -2.01679 0.34451 0
M  V30 3695 H 361.219 -3.8907 -1.22835 0
M  V30 3696 H 359.894 -4.15761 -0.107339 0
M  V30 3697 H 358.471 -3.30448 -1.72796 0
M  V30 3698 N 360.656 0.0484629 -1.57525 0
M  V30 3699 C 362.072 0.40375 -1.54409 0
M  V30 3700 C 362.272 1.77786 -0.948384 0
M  V30 3701 O 361.328 2.46189 -0.560983 0
M  V30 3702 C 362.641 0.323394 -2.98956 0
M  V30 3703 C 364.189 0.401892 -3.10409 0
M  V30 3704 C 364.664 0.351195 -4.56652 0
M  V30 3705 N 366.155 0.410576 -4.61377 0
M  V30 3706 C 366.89 0.393933 -5.72045 0
M  V30 3707 N 366.386 0.330724 -6.9201 0
M  V30 3708 N 368.179 0.442227 -5.60358 0
M  V30 3709 H 360.33 -0.851016 -1.94606 0
M  V30 3710 H 362.593 -0.321721 -0.89174 0
M  V30 3711 H 362.299 -0.62011 -3.4619 0
M  V30 3712 H 362.173 1.12463 -3.60044 0
M  V30 3713 H 364.56 1.33582 -2.63134 0
M  V30 3714 H 364.641 -0.428342 -2.52188 0
M  V30 3715 H 364.285 -0.578987 -5.04589 0
M  V30 3716 H 364.215 1.19928 -5.12762 0
M  V30 3717 H 366.706 0.462729 -3.75056 0
M  V30 3718 H 367.019 0.322592 -7.72126 0
M  V30 3719 H 365.364 0.29706 -6.94365 0
M  V30 3720 H 368.555 0.489464 -4.65534 0
M  V30 3721 H 368.728 0.425788 -6.466 0
M  V30 3722 N 362.134 1.5431 0.320358 0
M  V30 3723 C 363.383 1.7188 1.05546 0
M  V30 3724 C 363.696 0.501143 1.89071 0
M  V30 3725 O 364.902 0.558258 2.65699 0
M  V30 3726 C 363.358 3.04025 1.92605 0
M  V30 3727 C 362.966 4.33207 1.14176 0
M  V30 3728 C 364.71 3.30959 2.65832 0
M  V30 3729 C 362.617 5.56412 2.00399 0
M  V30 3730 H 361.547 0.640547 0.397763 0
M  V30 3731 H 364.198 1.80802 0.313522 0
M  V30 3732 H 362.58 2.89019 2.7071 0
M  V30 3733 H 363.754 4.58989 0.40819 0
M  V30 3734 H 362.069 4.13062 0.526165 0
M  V30 3735 H 364.666 4.20203 3.30656 0
M  V30 3736 H 365.009 2.48979 3.33639 0
M  V30 3737 H 365.542 3.46847 1.94787 0
M  V30 3738 H 362.281 6.41004 1.37094 0
M  V30 3739 H 361.801 5.34844 2.7148 0
M  V30 3740 H 363.48 5.92938 2.58908 0
M  V30 3741 N 363.613 -0.582584 1.46437 0
M  V30 3742 C 364.838 -1.37168 1.55563 0
M  V30 3743 C 365.263 -1.87061 0.19743 0
M  V30 3744 O 364.621 -1.61572 -0.822451 0
M  V30 3745 C 364.669 -2.53511 2.56446 0
M  V30 3746 O 363.773 -3.54953 2.09958 0
M  V30 3747 H 363.114 -0.408494 0.523477 0
M  V30 3748 H 365.644 -0.706646 1.9201 0
M  V30 3749 H 365.654 -3.00426 2.76058 0
M  V30 3750 H 364.329 -2.16549 3.55076 0
M  V30 3751 H 362.906 -3.14516 2.00334 0
M  V30 3752 N 365.091 -1.34144 -0.827227 0
M  V30 3753 C 366.34 -1.25602 -1.5782 0
M  V30 3754 C 366.653 0.173445 -1.94829 0
M  V30 3755 O 367.859 0.380984 -2.68814 0
M  V30 3756 C 366.315 -2.20151 -2.84713 0
M  V30 3757 C 365.923 -3.68331 -2.55021 0
M  V30 3758 C 367.667 -2.20508 -3.62735 0
M  V30 3759 C 365.574 -4.54762 -3.78082 0
M  V30 3760 H 364.504 -0.466573 -0.592306 0
M  V30 3761 H 367.155 -1.59283 -0.911116 0
M  V30 3762 H 365.537 -1.79417 -3.53023 0
M  V30 3763 H 366.711 -4.17577 -1.94849 0
M  V30 3764 H 365.026 -3.7038 -1.90283 0
M  V30 3765 H 367.623 -2.82306 -4.54101 0
M  V30 3766 H 367.966 -1.20322 -3.98533 0
M  V30 3767 H 368.499 -2.59664 -3.01362 0
M  V30 3768 H 365.238 -5.55867 -3.47407 0
M  V30 3769 H 364.758 -4.10254 -4.37552 0
M  V30 3770 H 366.437 -4.69153 -4.45538 0
M  V30 3771 N 366.569 1.04691 -1.17803 0
M  V30 3772 C 367.799 1.81183 -0.992788 0
M  V30 3773 C 368.207 1.8347 0.462098 0
M  V30 3774 O 367.55 1.2643 1.33271 0
M  V30 3775 C 367.612 3.28363 -1.46349 0
M  V30 3776 C 367.276 3.49749 -2.94151 0
M  V30 3777 C 368.273 3.41456 -3.92051 0
M  V30 3778 C 365.958 3.76548 -3.32441 0
M  V30 3779 C 367.952 3.59656 -5.26238 0
M  V30 3780 C 365.639 3.94396 -4.66792 0
M  V30 3781 C 366.637 3.8595 -5.635 0
M  V30 3782 O 366.325 4.03294 -6.9542 0
M  V30 3783 H 366.057 0.577622 -0.351182 0
M  V30 3784 H 368.611 1.32876 -1.5663 0
M  V30 3785 H 366.841 3.77609 -0.833574 0
M  V30 3786 H 368.53 3.86395 -1.24313 0
M  V30 3787 H 369.296 3.20723 -3.63815 0
M  V30 3788 H 365.175 3.82224 -2.57732 0
M  V30 3789 H 368.719 3.52979 -6.01707 0
M  V30 3790 H 364.616 4.14622 -4.94731 0
M  V30 3791 H 365.384 4.2049 -7.02232 0
M  V30 3792 N 368.047 0.979072 1.23499 0
M  V30 3793 C 369.293 0.6578 1.9247 0
M  V30 3794 C 369.648 -0.799746 1.74991 0
M  V30 3795 O 368.941 -1.56922 1.09937 0
M  V30 3796 C 369.135 0.981932 3.43646 0
M  V30 3797 C 368.964 2.46944 3.75831 0
M  V30 3798 C 367.734 3.13119 3.96591 0
M  V30 3799 C 369.932 3.45006 3.81412 0
M  V30 3800 N 367.914 4.51489 4.15969 0
M  V30 3801 C 369.285 4.68778 4.05768 0
M  V30 3802 C 371.34 3.39505 3.64198 0
M  V30 3803 C 370.043 5.87723 4.14697 0
M  V30 3804 C 372.069 4.57814 3.7438 0
M  V30 3805 C 371.431 5.80381 3.99171 0
M  V30 3806 H 367.53 0.291746 0.72554 0
M  V30 3807 H 370.114 1.25626 1.48749 0
M  V30 3808 H 368.285 0.412179 3.86207 0
M  V30 3809 H 370.017 0.618068 3.99953 0
M  V30 3810 H 366.772 2.63619 3.93449 0
M  V30 3811 H 367.196 5.23221 4.29615 0
M  V30 3812 H 371.838 2.45773 3.44029 0
M  V30 3813 H 369.556 6.81874 4.33675 0
M  V30 3814 H 373.142 4.55132 3.62417 0
M  V30 3815 H 372.022 6.70398 4.06861 0
M  V30 3816 N 369.525 -1.3858 0.750561 0
M  V30 3817 C 370.753 -2.04471 0.316098 0
M  V30 3818 C 371.168 -1.56606 -1.05452 0
M  V30 3819 O 370.525 -0.737784 -1.66922 0
M  V30 3820 C 370.576 -3.60025 0.326275 0
M  V30 3821 O 370.297 -4.06133 1.6428 0
M  V30 3822 C 371.798 -4.43131 -0.122429 0
M  V30 3823 H 369.018 -0.65717 0.135528 0
M  V30 3824 H 371.562 -1.77329 1.01857 0
M  V30 3825 H 369.717 -3.86014 -0.327431 0
M  V30 3826 H 370.131 -5.00547 1.56693 0
M  V30 3827 H 371.605 -5.51963 -0.0641473 0
M  V30 3828 H 372.082 -4.23333 -1.16988 0
M  V30 3829 H 372.688 -4.22323 0.50229 0
M  V30 3830 N 371.003 -0.499398 -1.49478 0
M  V30 3831 C 372.252 0.0475259 -2.01644 0
M  V30 3832 C 372.565 1.38195 -1.38425 0
M  V30 3833 O 373.771 2.01547 -1.8191 0
M  V30 3834 C 372.227 0.135164 -3.59646 0
M  V30 3835 C 371.835 -1.19252 -4.31837 0
M  V30 3836 C 373.579 0.632538 -4.19761 0
M  V30 3837 C 371.486 -1.06713 -5.81693 0
M  V30 3838 H 370.416 0.0215349 -0.753692 0
M  V30 3839 H 373.067 -0.638577 -1.7203 0
M  V30 3840 H 371.449 0.885681 -3.85969 0
M  V30 3841 H 372.623 -1.9562 -4.17216 0
M  V30 3842 H 370.938 -1.62321 -3.83459 0
M  V30 3843 H 373.535 0.743833 -5.29501 0
M  V30 3844 H 373.878 1.63098 -3.83021 0
M  V30 3845 H 374.411 -0.0613987 -3.97753 0
M  V30 3846 H 371.15 -2.03979 -6.22955 0
M  V30 3847 H 370.67 -0.344307 -5.98811 0
M  V30 3848 H 372.349 -0.745208 -6.42694 0
M  V30 3849 N 372.481 1.55866 -0.233164 0
M  V30 3850 C 373.727 1.98897 0.395959 0
M  V30 3851 C 374.06 1.12091 1.58585 0
M  V30 3852 O 373.335 0.181182 1.93654 0
M  V30 3853 C 373.618 3.50658 0.819224 0
M  V30 3854 C 373.471 4.48233 -0.375109 0
M  V30 3855 C 374.79 4.07135 1.67121 0
M  V30 3856 H 371.909 0.723102 0.142451 0
M  V30 3857 H 374.551 1.87082 -0.331725 0
M  V30 3858 H 372.701 3.60857 1.43925 0
M  V30 3859 H 374.373 4.50031 -1.01341 0
M  V30 3860 H 372.616 4.21624 -1.02058 0
M  V30 3861 H 373.287 5.51988 -0.0358328 0
M  V30 3862 H 375.763 3.99952 1.14795 0
M  V30 3863 H 374.639 5.13615 1.93625 0
M  V30 3864 H 374.9 3.54736 2.63846 0
M  V30 3865 N 373.959 -0.0401083 1.57549 0
M  V30 3866 C 374.906 -1.04413 2.05831 0
M  V30 3867 C 375.876 -1.36585 0.945184 0
M  V30 3868 O 377.061 -1.47112 1.21502 0
M  V30 3869 C 374.201 -2.34336 2.53339 0
M  V30 3870 C 373.314 -2.08419 3.78398 0
M  V30 3871 C 372.449 -3.32133 4.14561 0
M  V30 3872 C 371.488 -3.01721 5.3257 0
M  V30 3873 N 370.625 -4.17855 5.64218 0
M  V30 3874 H 375.465 -0.625442 2.91363 0
M  V30 3875 H 373.002 -0.297218 1.44066 0
M  V30 3876 H 374.96 -3.10234 2.78946 0
M  V30 3877 H 373.59 -2.73948 1.7074 0
M  V30 3878 H 372.642 -1.23069 3.59942 0
M  V30 3879 H 373.954 -1.81978 4.64419 0
M  V30 3880 H 373.108 -4.16406 4.41238 0
M  V30 3881 H 371.847 -3.61678 3.2717 0
M  V30 3882 H 370.852 -2.15849 5.05657 0
M  V30 3883 H 372.077 -2.73466 6.21605 0
M  V30 3884 H 370.023 -4.47372 4.79786 0
M  V30 3885 H 369.94 -3.94798 6.44725 0
M  V30 3886 H 371.208 -5.03033 5.95465 0
M  V30 3887 N 375.437 -1.54477 -0.31217 0
M  V30 3888 C 376.848 -1.64344 -0.885891 0
M  V30 3889 C 377.199 -0.54485 -1.88483 0
M  V30 3890 O 376.324 0.320387 -2.14015 0
M  V30 3891 C 376.919 -2.97908 -1.61357 0
M  V30 3892 C 375.478 -3.09933 -2.13585 0
M  V30 3893 C 374.625 -2.59971 -0.964897 0
M  V30 3894 H 377.576 -1.58448 -0.0894528 0
M  V30 3895 H 377.597 -2.88706 -2.47848 0
M  V30 3896 H 377.109 -3.77845 -0.886277 0
M  V30 3897 H 375.21 -2.34694 -2.89395 0
M  V30 3898 H 375.323 -4.15916 -2.37804 0
M  V30 3899 H 373.687 -2.16147 -1.34731 0
M  V30 3900 H 374.47 -3.42376 -0.251742 0
M  V30 3901 N 376.915 0.57481 -1.46744 0
M  V30 3902 C 378.163 1.33009 -1.52161 0
M  V30 3903 C 378.484 1.94185 -0.178092 0
M  V30 3904 O 377.754 1.7899 0.796196 0
M  V30 3905 H 376.334 0.493873 -0.560445 0
M  V30 3906 H 378.996 0.672589 -1.82927 0
M  V30 3907 H 378.092 2.13273 -2.27862 0
M  V30 3908 N 378.394 1.34581 0.820102 0
M  V30 3909 C 379.671 1.17675 1.56244 0
M  V30 3910 C 380.051 -0.249541 2.0962 0
M  V30 3911 O 379.399 -1.25125 1.91196 0
M  V30 3912 C 379.609 2.23364 2.6816 0
M  V30 3913 C 380.957 2.58485 3.36854 0
M  V30 3914 O 381.981 2.22175 2.78418 0
M  V30 3915 O 380.84 3.20868 4.42386 0
M  V30 3916 H 377.934 0.456333 0.689702 0
M  V30 3917 H 380.48 1.46222 0.861231 0
M  V30 3918 H 379.252 3.19087 2.26493 0
M  V30 3919 H 378.875 1.96009 3.45928 0
M  V30 3920 N 379.872 -1.04064 1.18357 0
M  V30 3921 C 381.118 -1.77528 0.980397 0
M  V30 3922 C 381.451 -1.87948 -0.48879 0
M  V30 3923 O 380.726 -1.3876 -1.36293 0
M  V30 3924 C 381.009 -3.20797 1.63588 0
M  V30 3925 C 380.862 -3.1832 3.17793 0
M  V30 3926 C 382.181 -4.18911 1.34914 0
M  V30 3927 H 379.3 -0.644443 0.357578 0
M  V30 3928 H 381.942 -1.2156 1.46024 0
M  V30 3929 H 380.092 -3.68586 1.22788 0
M  V30 3930 H 381.764 -2.78521 3.67728 0
M  V30 3931 H 380.007 -2.56351 3.49952 0
M  V30 3932 H 380.678 -4.19489 3.58794 0
M  V30 3933 H 383.154 -3.7967 1.70265 0
M  V30 3934 H 382.03 -5.17374 1.83346 0
M  V30 3935 H 382.291 -4.41262 0.272027 0
M  V30 3936 N 381.35 -0.985608 -1.22978 0
M  V30 3937 C 382.28 -0.549649 -2.26939 0
M  V30 3938 C 383.261 0.419803 -1.64838 0
M  V30 3939 O 384.446 0.31203 -1.91677 0
M  V30 3940 C 381.576 0.143652 -3.47003 0
M  V30 3941 C 380.53 -0.743606 -4.21491 0
M  V30 3942 C 379.856 0.0822027 -5.34637 0
M  V30 3943 C 381.156 -2.03694 -4.80943 0
M  V30 3944 H 382.85 -1.41862 -2.63658 0
M  V30 3945 H 380.396 -0.683571 -1.26741 0
M  V30 3946 H 382.349 0.459985 -4.18882 0
M  V30 3947 H 381.073 1.04711 -3.09359 0
M  V30 3948 H 379.732 -1.04347 -3.51436 0
M  V30 3949 H 379.38 0.986359 -4.93234 0
M  V30 3950 H 379.08 -0.508377 -5.85397 0
M  V30 3951 H 380.604 0.392797 -6.09335 0
M  V30 3952 H 382.018 -1.78504 -5.44802 0
M  V30 3953 H 380.415 -2.57573 -5.42011 0
M  V30 3954 H 381.485 -2.72042 -4.01399 0
M  V30 3955 N 382.828 1.3818 -0.7579 0
M  V30 3956 C 384.074 2.00316 -0.316453 0
M  V30 3957 C 384.407 1.60026 1.10025 0
M  V30 3958 O 383.682 0.839835 1.75434 0
M  V30 3959 C 383.965 3.57349 -0.444245 0
M  V30 3960 C 383.818 4.07591 -1.90236 0
M  V30 3961 C 385.137 4.3981 0.1598 0
M  V30 3962 H 382.256 0.727741 -0.116459 0
M  V30 3963 H 384.898 1.6406 -0.958352 0
M  V30 3964 H 383.048 3.88365 0.102233 0
M  V30 3965 H 384.72 3.87199 -2.50748 0
M  V30 3966 H 382.963 3.60297 -2.41595 0
M  V30 3967 H 383.634 5.16677 -1.94291 0
M  V30 3968 H 386.11 4.14971 -0.306314 0
M  V30 3969 H 384.986 5.48885 0.0401675 0
M  V30 3970 H 385.247 4.24102 1.24859 0
M  V30 3971 N 384.306 0.507319 1.49211 0
M  V30 3972 C 385.555 -0.0368315 2.01666 0
M  V30 3973 C 385.868 -1.37459 1.39156 0
M  V30 3974 O 387.074 -2.00579 1.82976 0
M  V30 3975 C 385.53 -0.116089 3.59713 0
M  V30 3976 C 385.138 1.2154 4.31198 0
M  V30 3977 C 386.882 -0.610268 4.2009 0
M  V30 3978 C 384.789 1.09796 5.81119 0
M  V30 3979 H 383.719 -0.0175376 0.753796 0
M  V30 3980 H 386.37 0.647691 1.71689 0
M  V30 3981 H 384.752 -0.8652 3.86433 0
M  V30 3982 H 385.926 1.9783 4.16173 0
M  V30 3983 H 384.241 1.64352 3.82593 0
M  V30 3984 H 386.838 -0.715742 5.29888 0
M  V30 3985 H 387.181 -1.61064 3.8388 0
M  V30 3986 H 387.714 0.0824916 3.97714 0
M  V30 3987 H 384.453 2.0728 6.21864 0
M  V30 3988 H 383.973 0.376058 5.9862 0
M  V30 3989 H 385.652 0.779281 6.4229 0
M  V30 3990 N 385.784 -1.5574 0.241426 0
M  V30 3991 C 386.732 -2.22538 -0.676718 0
M  V30 3992 C 387.726 -1.21117 -1.18436 0
M  V30 3993 O 388.932 -1.39144 -1.14188 0
M  V30 3994 H 385.307 -0.713776 -0.236701 0
M  V30 3995 H 387.278 -2.98264 -0.0901187 0
M  V30 3996 C 386.027 -2.93439 -1.86518 0
M  V30 3997 H 385.35 -3.7125 -1.4837 0
M  V30 3998 H 386.79 -3.43549 -2.48495 0
M  V30 3999 C 385.249 -1.97008 -2.73294 0
M  V30 4000 O 385.779 -1.49965 -3.72657 0
M  V30 4001 N 383.985 -1.64227 -2.39745 0
M  V30 4002 H 383.532 -2.02677 -1.58996 0
M  V30 4003 H 383.49 -0.999708 -2.98083 0
M  V30 4004 N 387.262 0.0317525 -1.57568 0
M  V30 4005 C 388.487 0.738664 -1.938 0
M  V30 4006 C 388.912 1.68242 -0.841208 0
M  V30 4007 O 388.27 1.80157 0.203267 0
M  V30 4008 C 388.318 1.47417 -3.29091 0
M  V30 4009 O 387.422 2.5872 -3.2115 0
M  V30 4010 H 386.763 0.198856 -0.633524 0
M  V30 4011 H 389.293 -0.0119713 -2.04596 0
M  V30 4012 H 389.303 1.84468 -3.63917 0
M  V30 4013 H 387.978 0.781988 -4.08482 0
M  V30 4014 H 386.555 2.24231 -2.97951 0
M  V30 4015 N 388.74 1.54641 0.303973 0
M  V30 4016 C 389.688 1.86137 1.39484 0
M  V30 4017 C 390.682 0.734854 1.52631 0
M  V30 4018 O 391.888 0.918803 1.54784 0
M  V30 4019 H 388.263 0.590324 0.465856 0
M  V30 4020 H 390.234 2.77324 1.10154 0
M  V30 4021 C 388.983 2.12274 2.75382 0
M  V30 4022 H 388.306 2.98429 2.66046 0
M  V30 4023 H 389.746 2.38254 3.5073 0
M  V30 4024 C 388.205 0.920365 3.24085 0
M  V30 4025 O 388.735 0.139377 4.01458 0
M  V30 4026 N 386.941 0.726566 2.81371 0
M  V30 4027 H 386.488 1.36332 2.18567 0
M  V30 4028 H 386.446 -0.0763799 3.14307 0
M  V30 4029 N 390.218 -0.567019 1.47046 0
M  V30 4030 C 391.466 -1.322 1.52864 0
M  V30 4031 C 391.787 -1.94088 0.188388 0
M  V30 4032 O 391.057 -1.7941 -0.786693 0
M  V30 4033 H 389.637 -0.490894 0.563056 0
M  V30 4034 H 392.299 -0.662879 1.83281 0
M  V30 4035 H 391.395 -2.12062 2.2899 0
M  V30 4036 N 391.696 -1.35014 -0.812953 0
M  V30 4037 C 392.644 -1.27435 -1.94585 0
M  V30 4038 C 393.638 -0.170494 -1.6854 0
M  V30 4039 O 394.844 -0.336085 -1.76835 0
M  V30 4040 H 391.219 -0.396144 -0.639198 0
M  V30 4041 H 393.19 -2.23158 -1.98098 0
M  V30 4042 C 391.939 -1.05677 -3.31252 0
M  V30 4043 H 391.262 -1.89853 -3.51846 0
M  V30 4044 H 392.702 -1.04413 -4.10943 0
M  V30 4045 C 391.161 0.239615 -3.36047 0
M  V30 4046 O 391.691 1.23759 -3.8216 0
M  V30 4047 N 389.897 0.276186 -2.89285 0
M  V30 4048 H 389.444 -0.53653 -2.51951 0
M  V30 4049 H 389.402 1.14332 -2.92875 0
M  V30 4050 N 393.175 1.03435 -1.18907 0
M  V30 4051 C 394.105 2.13503 -0.945448 0
M  V30 4052 C 395.086 1.69682 0.119189 0
M  V30 4053 O 396.271 1.94169 -0.034707 0
M  V30 4054 C 393.401 3.44004 -0.477316 0
M  V30 4055 C 392.355 4.0148 -1.48316 0
M  V30 4056 C 391.681 5.27537 -0.872311 0
M  V30 4057 C 392.981 4.36921 -2.86177 0
M  V30 4058 H 394.675 2.34141 -1.86597 0
M  V30 4059 H 392.221 1.12523 -0.898584 0
M  V30 4060 H 394.174 4.20372 -0.294204 0
M  V30 4061 H 392.898 3.23072 0.478786 0
M  V30 4062 H 391.557 3.27201 -1.65332 0
M  V30 4063 H 391.205 5.02917 0.0911752 0
M  V30 4064 H 390.905 5.66954 -1.54393 0
M  V30 4065 H 392.429 6.06576 -0.699871 0
M  V30 4066 H 393.843 5.04248 -2.72776 0
M  V30 4067 H 392.24 4.87405 -3.50081 0
M  V30 4068 H 393.31 3.46466 -3.39248 0
M  V30 4069 N 394.653 0.992116 1.22453 0
M  V30 4070 C 395.902 0.662992 1.90492 0
M  V30 4071 C 396.215 -0.808407 1.78113 0
M  V30 4072 O 397.421 -1.24908 2.41061 0
M  V30 4073 C 395.877 1.1353 3.41524 0
M  V30 4074 C 395.485 2.63187 3.62542 0
M  V30 4075 C 397.229 0.880465 4.15269 0
M  V30 4076 C 395.136 3.04024 5.0727 0
M  V30 4077 H 394.066 0.244278 0.713333 0
M  V30 4078 H 396.717 1.20157 1.38688 0
M  V30 4079 H 395.099 0.52485 3.92506 0
M  V30 4080 H 396.273 3.2957 3.22056 0
M  V30 4081 H 394.588 2.86543 3.02129 0
M  V30 4082 H 397.185 1.16128 5.21937 0
M  V30 4083 H 397.528 -0.183408 4.15896 0
M  V30 4084 H 398.061 1.45307 3.70312 0
M  V30 4085 H 394.8 4.09584 5.11782 0
M  V30 4086 H 394.32 2.42343 5.48662 0
M  V30 4087 H 395.999 2.95282 5.75689 0
M  V30 4088 N 396.131 -1.37776 0.765217 0
M  V30 4089 C 397.094 -2.28686 0.153416 0
M  V30 4090 C 398.094 -1.47727 -0.635081 0
M  V30 4091 O 399.284 -1.68027 -0.459632 0
M  V30 4092 C 396.416 -3.31608 -0.790495 0
M  V30 4093 H 397.609 -2.84297 0.954723 0
M  V30 4094 H 395.162 -1.46932 0.53299 0
M  V30 4095 H 395.897 -2.81109 -1.61705 0
M  V30 4096 H 395.682 -3.9144 -0.227348 0
M  V30 4097 H 397.172 -3.99559 -1.21419 0
M  V30 4098 N 397.609 -0.515225 -1.4894 0
M  V30 4099 C 399.02 -0.0710067 -1.86565 0
M  V30 4100 C 399.371 1.34733 -1.42623 0
M  V30 4101 O 398.496 2.00653 -0.810379 0
M  V30 4102 C 399.091 -0.122083 -3.3858 0
M  V30 4103 C 397.65 0.266863 -3.75453 0
M  V30 4104 C 396.797 -0.488376 -2.72966 0
M  V30 4105 H 399.748 -0.727266 -1.41055 0
M  V30 4106 H 399.769 0.669818 -3.74558 0
M  V30 4107 H 399.281 -1.15448 -3.70531 0
M  V30 4108 H 397.382 1.30196 -3.49113 0
M  V30 4109 H 397.495 -0.0624811 -4.79059 0
M  V30 4110 H 395.859 0.0635622 -2.54621 0
M  V30 4111 H 396.642 -1.52113 -3.07761 0
M  V30 4112 N 399.087 1.5561 -0.249682 0
M  V30 4113 C 400.503 1.59254 0.105103 0
M  V30 4114 C 400.703 1.26685 1.56694 0
M  V30 4115 O 399.759 1.0155 2.31179 0
M  V30 4116 C 401.072 2.99687 -0.246592 0
M  V30 4117 C 402.62 3.12416 -0.191118 0
M  V30 4118 C 403.095 4.55074 -0.516885 0
M  V30 4119 N 404.586 4.60835 -0.467489 0
M  V30 4120 C 405.321 5.69201 -0.69268 0
M  V30 4121 N 404.817 6.85817 -0.981146 0
M  V30 4122 N 406.61 5.58635 -0.623198 0
M  V30 4123 H 398.761 1.75049 -1.20298 0
M  V30 4124 H 401.024 0.815003 -0.484225 0
M  V30 4125 H 400.73 3.28267 -1.26228 0
M  V30 4126 H 400.604 3.74798 0.424962 0
M  V30 4127 H 402.991 2.83615 0.815247 0
M  V30 4128 H 403.072 2.39573 -0.896563 0
M  V30 4129 H 402.716 4.84596 -1.52082 0
M  V30 4130 H 402.646 5.26181 0.210068 0
M  V30 4131 H 405.137 3.7705 -0.253373 0
M  V30 4132 H 405.45 7.64341 -1.14032 0
M  V30 4133 H 403.795 6.87494 -1.01865 0
M  V30 4134 H 406.986 4.66406 -0.397863 0
M  V30 4135 H 407.159 6.43017 -0.802093 0
M  V30 4136 N 400.565 -0.0233959 1.57583 0
M  V30 4137 C 401.813 -0.711654 1.89156 0
M  V30 4138 C 402.134 -1.75591 0.848096 0
M  V30 4139 O 401.404 -1.95547 -0.117566 0
M  V30 4140 H 399.984 -0.265835 0.698098 0
M  V30 4141 H 402.646 0.0119948 1.94896 0
M  V30 4142 H 401.742 -1.19766 2.88206 0
M  V30 4143 N 402.043 -1.548 -0.295768 0
M  V30 4144 C 403.273 -1.78069 -1.04762 0
M  V30 4145 C 403.681 -0.542847 -1.81245 0
M  V30 4146 O 403.024 0.497051 -1.76848 0
M  V30 4147 C 403.086 -2.93881 -2.07061 0
M  V30 4148 C 402.75 -4.31777 -1.49725 0
M  V30 4149 C 403.747 -5.11613 -0.924581 0
M  V30 4150 C 401.432 -4.78389 -1.5313 0
M  V30 4151 C 403.426 -6.36184 -0.393594 0
M  V30 4152 C 401.113 -6.02921 -0.996447 0
M  V30 4153 C 402.111 -6.81654 -0.428569 0
M  V30 4154 O 401.799 -8.0384 0.0981593 0
M  V30 4155 H 401.531 -0.597475 -0.316226 0
M  V30 4156 H 404.085 -2.02584 -0.338973 0
M  V30 4157 H 402.315 -2.65003 -2.81621 0
M  V30 4158 H 404.004 -3.04679 -2.6819 0
M  V30 4159 H 404.77 -4.76743 -0.891136 0
M  V30 4160 H 400.649 -4.17132 -1.9627 0
M  V30 4161 H 404.193 -6.97582 0.0503014 0
M  V30 4162 H 400.09 -6.37277 -1.02706 0
M  V30 4163 H 400.858 -8.18499 -0.0146455 0
M  V30 4164 N 403.521 0.559213 -1.47345 0
M  V30 4165 C 404.768 1.31648 -1.53867 0
M  V30 4166 C 405.096 1.93468 -0.200104 0
M  V30 4167 O 404.351 1.78295 0.806799 0
M  V30 4168 C 404.65 2.44853 -2.6035 0
M  V30 4169 C 404.316 2.00876 -4.03683 0
M  V30 4170 C 402.978 1.88599 -4.42701 0
M  V30 4171 C 405.33 1.67279 -4.93626 0
M  V30 4172 C 402.658 1.41017 -5.69501 0
M  V30 4173 C 405.01 1.21169 -6.20887 0
M  V30 4174 C 403.674 1.07487 -6.58789 0
M  V30 4175 H 402.944 0.481734 -0.56304 0
M  V30 4176 H 405.591 0.627301 -1.80934 0
M  V30 4177 H 403.896 3.19318 -2.27032 0
M  V30 4178 H 405.593 3.03039 -2.62619 0
M  V30 4179 H 402.183 2.11374 -3.72853 0
M  V30 4180 H 406.367 1.75638 -4.64182 0
M  V30 4181 H 401.623 1.29086 -5.97618 0
M  V30 4182 H 405.797 0.942345 -6.89995 0
M  V30 4183 H 403.424 0.703946 -7.56934 0
M  V30 4184 N 404.999 1.35443 0.805782 0
M  V30 4185 C 405.946 1.28431 1.91766 0
M  V30 4186 C 406.916 0.156102 1.65365 0
M  V30 4187 O 408.101 0.339936 1.87747 0
M  V30 4188 C 405.241 1.06301 3.2832 0
M  V30 4189 C 404.354 2.2805 3.66902 0
M  V30 4190 C 403.489 1.99064 4.92491 0
M  V30 4191 C 402.528 3.16863 5.23703 0
M  V30 4192 N 401.665 2.87647 6.40471 0
M  V30 4193 H 406.505 2.23511 1.97096 0
M  V30 4194 H 404.042 1.11105 0.964054 0
M  V30 4195 H 406 0.915012 4.07042 0
M  V30 4196 H 404.63 0.148822 3.22457 0
M  V30 4197 H 403.682 2.53711 2.83434 0
M  V30 4198 H 404.994 3.1601 3.85927 0
M  V30 4199 H 404.148 1.81099 5.7904 0
M  V30 4200 H 402.887 1.0839 4.75503 0
M  V30 4201 H 401.892 3.35404 4.35642 0
M  V30 4202 H 403.117 4.08339 5.4262 0
M  V30 4203 H 401.063 1.99568 6.24907 0
M  V30 4204 H 400.98 3.69141 6.59751 0
M  V30 4205 H 402.248 2.73226 7.30047 0
M  V30 4206 N 406.477 -1.02803 1.19454 0
M  V30 4207 C 407.41 -2.107 0.876396 0
M  V30 4208 C 408.388 -1.61741 -0.166897 0
M  V30 4209 O 409.572 -1.88451 -0.0430195 0
M  V30 4210 C 406.699 -3.37262 0.311758 0
M  V30 4211 C 405.745 -4.05093 1.33424 0
M  V30 4212 S 406.578 -4.50498 2.89503 0
M  V30 4213 C 407.734 -5.80277 2.34584 0
M  V30 4214 H 407.967 -2.37362 1.79016 0
M  V30 4215 H 405.5 -1.15755 1.02177 0
M  V30 4216 H 407.458 -4.10499 -0.00748752 0
M  V30 4217 H 406.119 -3.08693 -0.58032 0
M  V30 4218 H 405.312 -4.9611 0.888302 0
M  V30 4219 H 404.914 -3.3803 1.60037 0
M  V30 4220 H 407.206 -6.54873 1.73633 0
M  V30 4221 H 408.149 -6.29651 3.23952 0
M  V30 4222 H 408.557 -5.3599 1.77131 0
M  V30 4223 N 407.956 -0.998596 -1.21925 0
M  V30 4224 C 409.372 -0.710303 -1.42923 0
M  V30 4225 C 409.572 0.716933 -1.88314 0
M  V30 4226 O 408.628 1.48712 -2.04062 0
M  V30 4227 C 409.941 -1.72072 -2.466 0
M  V30 4228 C 411.489 -1.73681 -2.60392 0
M  V30 4229 C 411.964 -2.73601 -3.67296 0
M  V30 4230 N 413.455 -2.7223 -3.7476 0
M  V30 4231 C 414.19 -3.46206 -4.57087 0
M  V30 4232 N 413.686 -4.29802 -5.43362 0
M  V30 4233 N 415.479 -3.34886 -4.51451 0
M  V30 4234 H 407.63 -1.92028 -0.9077 0
M  V30 4235 H 409.893 -0.828487 -0.460775 0
M  V30 4236 H 409.599 -2.74231 -2.20206 0
M  V30 4237 H 409.473 -1.51818 -3.45299 0
M  V30 4238 H 411.86 -0.722173 -2.86127 0
M  V30 4239 H 411.941 -1.98005 -1.61949 0
M  V30 4240 H 411.585 -3.75217 -3.42307 0
M  V30 4241 H 411.515 -2.46545 -4.65321 0
M  V30 4242 H 414.006 -2.11576 -3.1312 0
M  V30 4243 H 414.319 -4.83061 -6.03218 0
M  V30 4244 H 412.664 -4.33887 -5.42925 0
M  V30 4245 H 415.855 -2.69015 -3.83078 0
M  V30 4246 H 416.028 -3.92796 -5.15379 0
M  V30 4247 N 409.434 1.37368 -0.772513 0
M  V30 4248 C 410.662 2.03942 -0.348588 0
M  V30 4249 C 411.077 1.58264 1.02947 0
M  V30 4250 O 410.434 0.764246 1.65727 0
M  V30 4251 C 410.485 3.5946 -0.38351 0
M  V30 4252 O 410.206 4.03468 -1.70721 0
M  V30 4253 C 411.707 4.4327 0.0519152 0
M  V30 4254 H 408.927 0.654931 -0.145966 0
M  V30 4255 H 411.471 1.75686 -1.04665 0
M  V30 4256 H 409.626 3.86486 0.265978 0
M  V30 4257 H 410.04 4.97991 -1.64636 0
M  V30 4258 H 411.514 5.51995 -0.0236733 0
M  V30 4259 H 411.991 4.2514 1.10238 0
M  V30 4260 H 412.597 4.21471 -0.569415 0
M  V30 4261 N 410.912 0.523116 1.48665 0
M  V30 4262 C 412.16 -0.0134497 2.02096 0
M  V30 4263 C 412.481 -1.35418 1.40311 0
M  V30 4264 O 411.751 -1.87543 0.566074 0
M  V30 4265 H 410.331 -0.00795915 0.746958 0
M  V30 4266 H 412.993 0.685388 1.82451 0
M  V30 4267 H 412.089 -0.126849 3.11842 0
M  V30 4268 N 412.39 -1.55475 0.257931 0
M  V30 4269 C 413.337 -2.21837 -0.636939 0
M  V30 4270 C 414.307 -1.18596 -1.16294 0
M  V30 4271 O 415.492 -1.47081 -1.21539 0
M  V30 4272 C 412.632 -2.9301 -1.82317 0
M  V30 4273 C 411.745 -4.10931 -1.33265 0
M  V30 4274 C 410.88 -4.69791 -2.47931 0
M  V30 4275 C 409.919 -5.7994 -1.95796 0
M  V30 4276 N 409.056 -6.32935 -3.0387 0
M  V30 4277 H 413.896 -2.9793 -0.0643591 0
M  V30 4278 H 411.433 -1.47086 -0.0200031 0
M  V30 4279 H 413.391 -3.3248 -2.52018 0
M  V30 4280 H 412.021 -2.1937 -2.36805 0
M  V30 4281 H 411.073 -3.76699 -0.52931 0
M  V30 4282 H 412.385 -4.90417 -0.910654 0
M  V30 4283 H 411.539 -5.11892 -3.25656 0
M  V30 4284 H 410.278 -3.89545 -2.93438 0
M  V30 4285 H 409.283 -5.37305 -1.16546 0
M  V30 4286 H 410.508 -6.62043 -1.51246 0
M  V30 4287 H 408.454 -5.55591 -3.48791 0
M  V30 4288 H 408.371 -7.07645 -2.66035 0
M  V30 4289 H 409.639 -6.79695 -3.81621 0
M  V30 4290 N 413.868 0.0150385 -1.57593 0
M  V30 4291 C 415.093 0.718067 -1.94573 0
M  V30 4292 C 415.518 1.6734 -0.859005 0
M  V30 4293 O 414.876 1.80362 0.184147 0
M  V30 4294 C 414.924 1.43918 -3.30636 0
M  V30 4295 O 414.028 2.55299 -3.23876 0
M  V30 4296 H 413.369 0.192125 -0.635597 0
M  V30 4297 H 415.899 -0.0336708 -2.04572 0
M  V30 4298 H 415.909 1.80598 -3.65853 0
M  V30 4299 H 414.584 0.738619 -4.09289 0
M  V30 4300 H 413.161 2.21058 -3.00312 0
M  V30 4301 N 415.346 1.54954 0.287554 0
M  V30 4302 C 416.571 1.79209 1.04397 0
M  V30 4303 C 416.996 0.556431 1.79682 0
M  V30 4304 O 416.354 -0.493518 1.74454 0
M  V30 4305 C 416.402 3.00739 1.98969 0
M  V30 4306 O 415.506 2.74805 3.075 0
M  V30 4307 H 414.847 0.592755 0.299227 0
M  V30 4308 H 417.377 2.02068 0.320886 0
M  V30 4309 H 417.387 3.29077 2.4119 0
M  V30 4310 H 416.062 3.90329 1.43582 0
M  V30 4311 H 414.639 2.57523 2.69697 0
M  V30 4312 N 416.824 -0.551391 1.4764 0
M  V30 4313 C 418.073 -1.30467 1.53822 0
M  V30 4314 C 418.386 -1.94495 0.207661 0
M  V30 4315 O 419.592 -2.71099 0.147533 0
M  V30 4316 C 418.048 -2.36616 2.71184 0
M  V30 4317 C 417.656 -1.78754 4.10793 0
M  V30 4318 C 419.4 -3.13088 2.86663 0
M  V30 4319 C 417.307 -2.82717 5.19447 0
M  V30 4320 H 416.237 -0.490584 0.572576 0
M  V30 4321 H 418.888 -0.58494 1.73927 0
M  V30 4322 H 417.27 -3.11529 2.4447 0
M  V30 4323 H 418.444 -1.10173 4.47435 0
M  V30 4324 H 416.759 -1.14846 4.00249 0
M  V30 4325 H 419.356 -3.90736 3.65007 0
M  V30 4326 H 419.699 -3.67635 1.95321 0
M  V30 4327 H 420.232 -2.45288 3.13175 0
M  V30 4328 H 416.971 -2.33018 6.12685 0
M  V30 4329 H 416.491 -3.4969 4.87316 0
M  V30 4330 H 418.17 -3.46102 5.46646 0
M  V30 4331 N 418.302 -1.35869 -0.798587 0
M  V30 4332 C 419.235 -1.23801 -1.91699 0
M  V30 4333 C 420.213 -0.124143 -1.62125 0
M  V30 4334 O 421.397 -0.293656 -1.86199 0
M  V30 4335 C 418.524 -0.908063 -3.263 0
M  V30 4336 C 417.57 -2.0351 -3.74815 0
M  V30 4337 S 418.403 -3.65183 -3.91665 0
M  V30 4338 C 419.559 -3.34283 -5.29156 0
M  V30 4339 H 419.792 -2.18466 -2.01643 0
M  V30 4340 H 417.325 -1.21178 -0.956833 0
M  V30 4341 H 419.283 -0.724506 -4.04056 0
M  V30 4342 H 417.944 0.0206584 -3.14093 0
M  V30 4343 H 417.137 -1.75858 -4.72324 0
M  V30 4344 H 416.739 -2.1774 -3.04081 0
M  V30 4345 H 419.031 -2.87607 -6.13424 0
M  V30 4346 H 419.974 -4.31022 -5.61806 0
M  V30 4347 H 420.382 -2.69854 -4.95822 0
M  V30 4348 N 419.78 1.02168 -1.19998 0
M  V30 4349 C 421.196 1.27969 -0.953737 0
M  V30 4350 C 421.396 1.98079 0.369703 0
M  V30 4351 O 420.452 2.27306 1.09947 0
M  V30 4352 C 421.765 2.11971 -2.13281 0
M  V30 4353 C 423.313 2.25255 -2.17323 0
M  V30 4354 C 423.788 3.12632 -3.34702 0
M  V30 4355 N 425.279 3.2022 -3.34684 0
M  V30 4356 C 426.014 3.88039 -4.22153 0
M  V30 4357 N 425.51 4.58027 -5.19791 0
M  V30 4358 N 427.303 3.84511 -4.10009 0
M  V30 4359 H 419.454 0.550794 -2.05134 0
M  V30 4360 H 421.717 0.305683 -0.897364 0
M  V30 4361 H 421.423 1.67785 -3.09097 0
M  V30 4362 H 421.297 3.12699 -2.10949 0
M  V30 4363 H 423.684 2.68667 -1.22073 0
M  V30 4364 H 423.765 1.24053 -2.23706 0
M  V30 4365 H 423.409 2.69926 -4.30235 0
M  V30 4366 H 423.339 4.13909 -3.25556 0
M  V30 4367 H 425.83 2.70382 -2.64012 0
M  V30 4368 H 426.143 5.07429 -5.82868 0
M  V30 4369 H 424.488 4.56869 -5.23733 0
M  V30 4370 H 427.679 3.28978 -3.33003 0
M  V30 4371 H 427.852 4.3709 -4.78389 0
M  V30 4372 N 421.258 1.00505 1.21394 0
M  V30 4373 C 422.483 0.706367 1.95001 0
M  V30 4374 C 422.908 -0.72463 1.73582 0
M  V30 4375 O 422.266 -1.49702 1.0227 0
M  V30 4376 C 422.314 1.03299 3.45487 0
M  V30 4377 O 421.418 0.138275 4.12168 0
M  V30 4378 H 420.759 0.263175 0.609619 0
M  V30 4379 H 423.289 1.34531 1.54151 0
M  V30 4380 H 423.299 0.979872 3.96059 0
M  V30 4381 H 421.974 2.07567 3.60401 0
M  V30 4382 H 420.551 0.247928 3.72075 0
M  V30 4383 N 422.737 -1.36956 0.779787 0
M  V30 4384 C 424.014 -1.93697 0.272156 0
M  V30 4385 C 424.394 -1.71267 -1.23413 0
M  V30 4386 O 423.742 -1.06607 -2.02107 0
M  V30 4387 C 423.952 -3.42812 0.654291 0
M  V30 4388 C 425.3 -4.19921 0.628602 0
M  V30 4389 O 426.324 -3.51209 0.594172 0
M  V30 4390 O 425.183 -5.42465 0.662864 0
M  V30 4391 H 422.277 -0.824447 0.0649286 0
M  V30 4392 H 424.823 -1.46196 0.861682 0
M  V30 4393 H 423.595 -3.52754 1.69353 0
M  V30 4394 H 423.218 -3.97582 0.0381369 0
M  V30 4395 N 424.215 -0.530993 -1.48385 0
M  V30 4396 C 425.178 0.220497 -2.28137 0
M  V30 4397 C 426.178 0.866851 -1.35434 0
M  V30 4398 O 427.368 0.726746 -1.58316 0
M  V30 4399 C 424.5 1.31921 -3.1434 0
M  V30 4400 H 425.693 -0.479714 -2.96038 0
M  V30 4401 H 423.246 -0.286968 -1.53643 0
M  V30 4402 H 423.981 2.05264 -2.51072 0
M  V30 4403 H 423.766 0.86085 -3.82533 0
M  V30 4404 H 425.256 1.84776 -3.74497 0
M  V30 4405 N 425.693 1.55336 -0.266172 0
M  V30 4406 C 427.104 1.85236 0.233315 0
M  V30 4407 C 427.455 1.18816 1.56132 0
M  V30 4408 O 426.58 0.473307 2.11161 0
M  V30 4409 C 427.175 3.36059 0.430113 0
M  V30 4410 C 425.734 3.66116 0.873842 0
M  V30 4411 C 424.881 2.77274 -0.0380016 0
M  V30 4412 H 427.832 1.51004 -0.488214 0
M  V30 4413 H 427.853 3.58681 1.26998 0
M  V30 4414 H 427.365 3.84373 -0.536588 0
M  V30 4415 H 425.466 3.23295 1.85233 0
M  V30 4416 H 425.579 4.73699 0.717358 0
M  V30 4417 H 423.943 2.50198 0.476759 0
M  V30 4418 H 424.726 3.284 -1.00042 0
M  V30 4419 N 427.171 -0.0066808 1.57599 0
M  V30 4420 C 428.42 -0.692078 1.89455 0
M  V30 4421 C 428.733 -1.75306 0.867586 0
M  V30 4422 O 429.939 -2.49262 1.07614 0
M  V30 4423 C 428.395 -1.2821 3.36289 0
M  V30 4424 C 428.003 -0.256291 4.47266 0
M  V30 4425 C 429.747 -1.94608 3.77264 0
M  V30 4426 C 427.654 -0.855927 5.85173 0
M  V30 4427 H 426.584 -0.262252 0.706923 0
M  V30 4428 H 429.235 0.052769 1.83424 0
M  V30 4429 H 427.617 -2.0774 3.37135 0
M  V30 4430 H 428.791 0.513923 4.57925 0
M  V30 4431 H 427.106 0.306862 4.15268 0
M  V30 4432 H 429.703 -2.40364 4.77629 0
M  V30 4433 H 430.046 -2.77382 3.10427 0
M  V30 4434 H 430.579 -1.21822 3.78688 0
M  V30 4435 H 427.318 -0.0671161 6.55466 0
M  V30 4436 H 426.838 -1.59546 5.78191 0
M  V30 4437 H 428.517 -1.35658 6.32618 0
M  V30 4438 N 428.649 -1.55105 -0.279332 0
M  V30 4439 C 429.926 -1.66119 -1.03267 0
M  V30 4440 C 430.306 -0.523525 -2.04505 0
M  V30 4441 O 429.654 0.477194 -2.23462 0
M  V30 4442 C 429.864 -3.05067 -1.69515 0
M  V30 4443 C 431.212 -3.62606 -2.20912 0
M  V30 4444 O 432.236 -3.07659 -1.79512 0
M  V30 4445 O 431.095 -4.58861 -2.96831 0
M  V30 4446 H 428.189 -0.674429 -0.478618 0
M  V30 4447 H 430.735 -1.67446 -0.275694 0
M  V30 4448 H 429.507 -3.79311 -0.9612 0
M  V30 4449 H 429.13 -3.07611 -2.51915 0
M  V30 4450 N 430.127 0.543554 -1.4793 0
M  V30 4451 C 431.355 1.32516 -1.58894 0
M  V30 4452 C 431.77 1.87215 -0.244131 0
M  V30 4453 O 431.127 1.65709 0.764652 0
M  V30 4454 C 431.178 2.48554 -2.62494 0
M  V30 4455 O 430.899 1.96112 -3.91755 0
M  V30 4456 C 432.4 3.40572 -2.8377 0
M  V30 4457 H 429.62 0.403472 -0.536145 0
M  V30 4458 H 432.164 0.657106 -1.93655 0
M  V30 4459 H 430.319 3.1127 -2.30629 0
M  V30 4460 H 430.733 2.71967 -4.4848 0
M  V30 4461 H 432.207 4.18375 -3.60093 0
M  V30 4462 H 432.684 3.94965 -1.92092 0
M  V30 4463 H 433.29 2.8366 -3.16887 0
M  V30 4464 N 431.605 1.3629 0.791371 0
M  V30 4465 C 432.845 1.31792 1.56238 0
M  V30 4466 C 433.209 -0.102237 1.91728 0
M  V30 4467 O 434.41 -0.271759 2.67423 0
M  V30 4468 C 432.681 2.21303 2.80642 0
M  V30 4469 S 434.24 2.34468 3.70904 0
M  V30 4470 H 431.058 0.468141 0.535131 0
M  V30 4471 H 433.66 1.71841 0.932246 0
M  V30 4472 H 432.364 3.23439 2.52617 0
M  V30 4473 H 431.895 1.82266 3.4863 0
M  V30 4474 H 433.91 1.54074 4.71673 0
M  V30 4475 N 433.083 -1.0153 1.20538 0
M  V30 4476 C 434.332 -1.74558 1.01057 0
M  V30 4477 C 434.645 -1.90168 -0.457756 0
M  V30 4478 O 435.851 -2.60301 -0.771722 0
M  V30 4479 C 434.307 -3.13963 1.75941 0
M  V30 4480 C 433.915 -3.06361 3.26875 0
M  V30 4481 C 435.659 -3.91191 1.64832 0
M  V30 4482 C 433.566 -4.40782 3.94291 0
M  V30 4483 H 432.496 -0.654417 0.374505 0
M  V30 4484 H 435.147 -1.13521 1.44171 0
M  V30 4485 H 433.529 -3.75549 1.25614 0
M  V30 4486 H 434.703 -2.54074 3.84425 0
M  V30 4487 H 433.018 -2.42625 3.38411 0
M  V30 4488 H 435.615 -4.90644 2.12539 0
M  V30 4489 H 435.958 -4.11884 0.604745 0
M  V30 4490 H 436.491 -3.36236 2.12579 0
M  V30 4491 H 433.23 -4.25292 4.98805 0
M  V30 4492 H 432.75 -4.9307 3.41529 0
M  V30 4493 H 434.429 -5.09621 3.98617 0
M  V30 4494 N 434.561 -1.01147 -1.20859 0
M  V30 4495 C 435.786 -0.716698 -1.94623 0
M  V30 4496 C 436.211 0.715415 -1.73964 0
M  V30 4497 O 435.569 1.49157 -1.03062 0
M  V30 4498 C 435.617 -1.0513 -3.44935 0
M  V30 4499 O 434.721 -0.160131 -4.12089 0
M  V30 4500 H 434.062 -0.266404 -0.608214 0
M  V30 4501 H 436.592 -1.35346 -1.53436 0
M  V30 4502 H 436.602 -1.00086 -3.95533 0
M  V30 4503 H 435.277 -2.09475 -3.59295 0
M  V30 4504 H 433.854 -0.267657 -3.71938 0
M  V30 4505 N 436.039 1.36541 -0.78704 0
M  V30 4506 C 436.949 2.3387 -0.184896 0
M  V30 4507 C 437.965 1.60927 0.661697 0
M  V30 4508 O 439.141 1.92927 0.57804 0
M  V30 4509 C 436.206 3.40122 0.672145 0
M  V30 4510 C 435.267 4.28867 -0.19267 0
M  V30 4511 C 434.5 5.30045 0.623561 0
M  V30 4512 O 434.723 5.39232 1.8597 0
M  V30 4513 O 433.657 6.01895 0.0247068 0
M  V30 4514 H 437.483 2.87126 -0.989562 0
M  V30 4515 H 435.068 1.38969 -0.548455 0
M  V30 4516 H 436.95 4.05093 1.16094 0
M  V30 4517 H 435.625 2.89169 1.45474 0
M  V30 4518 H 434.532 3.66945 -0.728166 0
M  V30 4519 H 435.865 4.83165 -0.938722 0
M  V30 4520 N 437.518 0.538854 1.48102 0
M  V30 4521 C 438.758 0.0101209 2.04397 0
M  V30 4522 C 439.122 -1.30741 1.40609 0
M  V30 4523 O 440.323 -1.92272 1.87843 0
M  V30 4524 C 438.594 -0.100232 3.57259 0
M  V30 4525 S 440.153 -0.577746 4.3498 0
M  V30 4526 H 436.971 0.0163171 0.710813 0
M  V30 4527 H 439.573 0.721429 1.81702 0
M  V30 4528 H 438.277 0.863351 4.01216 0
M  V30 4529 H 437.808 -0.835651 3.84422 0
M  V30 4530 H 439.823 -1.84073 4.60794 0
M  V30 4531 N 438.996 -1.55193 0.274407 0
M  V30 4532 C 440.245 -1.98758 -0.343213 0
M  V30 4533 C 440.558 -1.16624 -1.5703 0
M  V30 4534 O 441.764 -1.5033 -2.26082 0
M  V30 4535 C 440.22 -3.53759 -0.661996 0
M  V30 4536 C 439.828 -4.4467 0.54524 0
M  V30 4537 C 441.572 -4.05916 -1.24228 0
M  V30 4538 C 439.479 -5.91058 0.201084 0
M  V30 4539 H 438.409 -0.742353 -0.132014 0
M  V30 4540 H 441.06 -1.79545 0.378948 0
M  V30 4541 H 439.442 -3.68772 -1.44304 0
M  V30 4542 H 440.616 -4.41426 1.32212 0
M  V30 4543 H 438.931 -4.03143 1.04232 0
M  V30 4544 H 441.528 -5.12831 -1.51357 0
M  V30 4545 H 441.871 -3.54908 -2.17592 0
M  V30 4546 H 442.404 -3.9434 -0.523542 0
M  V30 4547 H 439.143 -6.46161 1.10258 0
M  V30 4548 H 438.663 -5.97373 -0.539045 0
M  V30 4549 H 440.342 -6.46669 -0.206954 0
M  V30 4550 N 440.474 -0.00167713 -1.576 0
M  V30 4551 C 441.702 0.693759 -1.94922 0
M  V30 4552 C 442.117 1.67215 -0.876626 0
M  V30 4553 O 441.474 1.81929 0.144279 0
M  V30 4554 C 441.525 1.42416 -3.32265 0
M  V30 4555 O 441.246 0.485014 -4.35407 0
M  V30 4556 C 442.747 2.21395 -3.84056 0
M  V30 4557 H 439.967 0.193118 -0.642609 0
M  V30 4558 H 442.511 -0.0532952 -2.04431 0
M  V30 4559 H 440.666 2.12284 -3.24059 0
M  V30 4560 H 441.08 1.00053 -5.14868 0
M  V30 4561 H 442.554 2.67996 -4.82578 0
M  V30 4562 H 443.031 3.04142 -3.16851 0
M  V30 4563 H 443.637 1.56542 -3.95443 0
M  V30 4564 N 441.952 1.55251 0.271103 0
M  V30 4565 C 443.363 1.66635 0.842007 0
M  V30 4566 C 443.714 0.594631 1.86972 0
M  V30 4567 O 442.839 -0.263532 2.14789 0
M  V30 4568 C 443.434 3.02082 1.53401 0
M  V30 4569 C 441.993 3.15487 2.05293 0
M  V30 4570 C 441.14 2.62438 0.895631 0
M  V30 4571 H 444.091 1.58629 0.0474117 0
M  V30 4572 H 444.112 2.95176 2.40107 0
M  V30 4573 H 443.624 3.80062 0.785786 0
M  V30 4574 H 441.725 2.42284 2.83071 0
M  V30 4575 H 441.838 4.22075 2.26693 0
M  V30 4576 H 440.202 2.19644 1.28953 0
M  V30 4577 H 440.985 3.42923 0.160878 0
M  V30 4578 N 443.43 -0.535701 1.48216 0
M  V30 4579 C 444.378 -1.66179 1.62749 0
M  V30 4580 C 445.372 -1.62034 0.49409 0
M  V30 4581 O 446.578 -1.6696 0.672624 0
M  V30 4582 H 442.953 -0.550244 0.512578 0
M  V30 4583 H 444.924 -1.51063 2.57337 0
M  V30 4584 C 443.673 -3.04471 1.67907 0
M  V30 4585 H 442.996 -3.08351 2.54479 0
M  V30 4586 H 444.436 -3.82894 1.82121 0
M  V30 4587 C 442.895 -3.34314 0.416596 0
M  V30 4588 O 443.425 -3.98905 -0.473014 0
M  V30 4589 N 441.631 -2.89149 0.290038 0
M  V30 4590 H 441.178 -2.36764 1.01493 0
M  V30 4591 H 441.136 -3.09486 -0.55367 0
M  V30 4592 N 444.908 -1.36708 -0.784132 0
M  V30 4593 C 446.156 -1.30972 -1.53918 0
M  V30 4594 C 446.477 0.109086 -1.94695 0
M  V30 4595 O 445.747 1.05048 -1.65353 0
M  V30 4596 H 444.327 -0.481819 -0.570841 0
M  V30 4597 H 446.989 -1.71063 -0.934002 0
M  V30 4598 H 446.085 -1.94061 -2.44431 0
M  V30 4599 N 446.386 1.0089 -1.21074 0
M  V30 4600 C 447.611 1.78727 -1.05221 0
M  V30 4601 C 448.036 1.83932 0.393795 0
M  V30 4602 O 447.394 1.28004 1.28393 0
M  V30 4603 C 447.442 3.20665 -1.64944 0
M  V30 4604 O 446.546 4.02632 -0.892273 0
M  V30 4605 H 445.887 0.550973 -0.370574 0
M  V30 4606 H 448.417 1.26847 -1.60534 0
M  V30 4607 H 448.427 3.71352 -1.69002 0
M  V30 4608 H 447.102 3.16191 -2.70177 0
M  V30 4609 H 445.679 3.61207 -0.926492 0
M  V30 4610 N 447.864 1.01787 1.20321 0
M  V30 4611 C 449.113 0.703249 1.89043 0
M  V30 4612 C 449.426 -0.770445 1.79787 0
M  V30 4613 O 450.632 -1.19767 2.43656 0
M  V30 4614 C 449.088 1.20749 3.3904 0
M  V30 4615 C 448.696 2.70817 3.56878 0
M  V30 4616 C 450.44 0.968352 4.13308 0
M  V30 4617 C 448.347 3.14716 5.00708 0
M  V30 4618 H 447.277 0.259354 0.707991 0
M  V30 4619 H 449.928 1.23072 1.36108 0
M  V30 4620 H 448.31 0.607989 3.91305 0
M  V30 4621 H 449.484 3.36327 3.14993 0
M  V30 4622 H 447.799 2.92888 2.95983 0
M  V30 4623 H 450.396 1.27173 5.19356 0
M  V30 4624 H 450.739 -0.095149 4.16191 0
M  V30 4625 H 451.272 1.53129 3.67146 0
M  V30 4626 H 448.011 4.20347 5.02979 0
M  V30 4627 H 447.531 2.53927 5.43398 0
M  V30 4628 H 449.21 3.07426 5.69296 0
M  V30 4629 N 449.342 -1.36122 0.79427 0
M  V30 4630 C 450.753 -1.81646 0.431446 0
M  V30 4631 C 451.104 -1.66043 -1.04518 0
M  V30 4632 O 450.229 -1.1841 -1.8113 0
M  V30 4633 C 450.824 -3.29785 0.776341 0
M  V30 4634 C 449.383 -3.73501 0.466282 0
M  V30 4635 C 448.53 -2.58313 1.00844 0
M  V30 4636 H 451.481 -1.24274 0.986995 0
M  V30 4637 H 451.502 -3.80437 0.0692413 0
M  V30 4638 H 451.014 -3.4111 1.8511 0
M  V30 4639 H 449.115 -3.67733 -0.600245 0
M  V30 4640 H 449.228 -4.68754 0.990288 0
M  V30 4641 H 447.592 -2.5102 0.431406 0
M  V30 4642 H 448.375 -2.72421 2.08906 0
M  V30 4643 N 450.82 -0.546701 -1.47814 0
M  V30 4644 C 451.768 0.220048 -2.31557 0
M  V30 4645 C 452.762 0.919472 -1.42275 0
M  V30 4646 O 453.968 0.841953 -1.59095 0
M  V30 4647 H 450.343 0.0898334 -0.746615 0
M  V30 4648 H 452.314 -0.505589 -2.94086 0
M  V30 4649 C 451.063 1.24353 -3.24702 0
M  V30 4650 H 450.386 0.714758 -3.93359 0
M  V30 4651 H 451.826 1.75112 -3.8615 0
M  V30 4652 C 450.285 2.28593 -2.47481 0
M  V30 4653 O 450.815 3.35334 -2.21165 0
M  V30 4654 N 449.021 2.02244 -2.08676 0
M  V30 4655 H 448.568 1.15455 -2.30278 0
M  V30 4656 H 448.526 2.72207 -1.57323 0
M  V30 4657 N 452.299 1.55045 -0.282633 0
M  V30 4658 C 453.576 1.9179 0.384166 0
M  V30 4659 C 453.956 1.20778 1.73136 0
M  V30 4660 O 453.304 0.33719 2.25998 0
M  V30 4661 C 453.514 3.45149 0.517014 0
M  V30 4662 C 454.862 4.17064 0.796427 0
M  V30 4663 O 455.886 3.51084 0.601535 0
M  V30 4664 O 454.745 5.33837 1.16962 0
M  V30 4665 H 451.839 0.799483 0.211558 0
M  V30 4666 H 454.385 1.66474 -0.32934 0
M  V30 4667 H 453.157 3.88922 -0.430772 0
M  V30 4668 H 452.78 3.76443 1.2797 0
M  V30 4669 N 453.777 0.010035 1.57597 0
M  V30 4670 C 454.724 -0.978122 2.09049 0
M  V30 4671 C 455.694 -1.33509 0.988159 0
M  V30 4672 O 456.879 -1.43172 1.26121 0
M  V30 4673 C 454.019 -2.26158 2.60666 0
M  V30 4674 C 453.132 -1.96275 3.84838 0
M  V30 4675 C 452.267 -3.18776 4.24918 0
M  V30 4676 C 451.306 -2.84625 5.41899 0
M  V30 4677 N 450.443 -3.99693 5.77226 0
M  V30 4678 H 455.283 -0.532431 2.93205 0
M  V30 4679 H 452.82 -0.251234 1.44939 0
M  V30 4680 H 454.778 -3.01202 2.88675 0
M  V30 4681 H 453.408 -2.68378 1.79369 0
M  V30 4682 H 452.46 -1.11555 3.63675 0
M  V30 4683 H 453.772 -1.67111 4.69974 0
M  V30 4684 H 452.926 -4.02157 4.54262 0
M  V30 4685 H 451.665 -3.51087 3.38511 0
M  V30 4686 H 450.67 -1.99653 5.12268 0
M  V30 4687 H 451.895 -2.53551 6.29991 0
M  V30 4688 H 449.841 -4.31882 4.93776 0
M  V30 4689 H 449.758 -3.74087 6.56959 0
M  V30 4690 H 451.026 -4.83834 6.11167 0
M  V30 4691 N 455.255 -1.55392 -0.262866 0
M  V30 4692 C 456.666 -1.67079 -0.833158 0
M  V30 4693 C 457.017 -0.604539 -1.86654 0
M  V30 4694 O 456.142 0.252138 -2.14926 0
M  V30 4695 C 456.737 -3.02891 -1.51797 0
M  V30 4696 C 455.296 -3.16571 -2.03617 0
M  V30 4697 C 454.443 -2.62909 -0.881701 0
M  V30 4698 H 457.394 -1.58652 -0.0389986 0
M  V30 4699 H 457.415 -2.96445 -2.38538 0
M  V30 4700 H 456.927 -3.80473 -0.765619 0
M  V30 4701 H 455.028 -2.43782 -2.81782 0
M  V30 4702 H 455.141 -4.23271 -2.24452 0
M  V30 4703 H 453.505 -2.20324 -1.27786 0
M  V30 4704 H 454.288 -3.43003 -0.14269 0
M  V30 4705 N 456.733 0.527833 -1.48498 0
M  V30 4706 C 457.98 1.28354 -1.56625 0
M  V30 4707 C 458.308 1.93 -0.241096 0
M  V30 4708 O 457.563 1.79967 0.768798 0
M  V30 4709 C 457.862 2.39275 -2.65485 0
M  V30 4710 C 457.528 1.92268 -4.07853 0
M  V30 4711 C 456.19 1.79166 -4.46602 0
M  V30 4712 C 458.542 1.56771 -4.97064 0
M  V30 4713 C 455.87 1.28905 -5.72364 0
M  V30 4714 C 458.222 1.07972 -6.23318 0
M  V30 4715 C 456.886 0.934887 -6.60921 0
M  V30 4716 H 456.156 0.469682 -0.573131 0
M  V30 4717 H 458.803 0.588781 -1.82224 0
M  V30 4718 H 457.108 3.1443 -2.33754 0
M  V30 4719 H 458.805 2.974 -2.68988 0
M  V30 4720 H 455.395 2.03417 -3.77252 0
M  V30 4721 H 459.579 1.65753 -4.67803 0
M  V30 4722 H 454.835 1.16381 -6.00221 0
M  V30 4723 H 459.009 0.795775 -6.91838 0
M  V30 4724 H 456.636 0.543231 -7.58257 0
M  V30 4725 N 458.211 1.37122 0.776871 0
M  V30 4726 C 459.143 1.28342 1.89897 0
M  V30 4727 C 460.156 0.200277 1.61563 0
M  V30 4728 O 461.345 0.456012 1.72577 0
M  V30 4729 C 458.445 0.960427 3.25006 0
M  V30 4730 C 457.618 2.148 3.81025 0
M  V30 4731 C 456.677 1.79608 4.94598 0
M  V30 4732 O 455.703 2.51845 5.10454 0
M  V30 4733 N 456.905 0.737171 5.758 0
M  V30 4734 H 459.67 2.25027 1.97947 0
M  V30 4735 H 457.231 1.3068 0.955739 0
M  V30 4736 H 459.223 0.705942 3.98495 0
M  V30 4737 H 457.793 0.0823066 3.12492 0
M  V30 4738 H 457.013 2.56454 2.99374 0
M  V30 4739 H 458.301 2.9411 4.15183 0
M  V30 4740 H 457.699 0.137637 5.65533 0
M  V30 4741 H 456.256 0.542534 6.49538 0
M  V30 4742 N 459.689 -1.00246 1.21608 0
M  V30 4743 C 460.637 -2.11193 0.97469 0
M  V30 4744 C 461.631 -1.69216 -0.0789303 0
M  V30 4745 O 462.837 -1.79853 0.0726806 0
M  V30 4746 H 459.212 -0.690455 0.297953 0
M  V30 4747 H 461.183 -2.2873 1.91638 0
M  V30 4748 C 459.932 -3.43182 0.558717 0
M  V30 4749 H 459.255 -3.75918 1.3611 0
M  V30 4750 H 460.695 -4.21823 0.429154 0
M  V30 4751 C 459.154 -3.28882 -0.730648 0
M  V30 4752 O 459.684 -3.59835 -1.78554 0
M  V30 4753 N 457.89 -2.8209 -0.698131 0
M  V30 4754 H 457.437 -2.57099 0.16061 0
M  V30 4755 H 457.395 -2.72903 -1.56113 0
M  V30 4756 N 461.167 -1.02423 -1.1978 0
M  V30 4757 C 462.413 -0.719051 -1.89625 0
M  V30 4758 C 462.746 0.750083 -1.7913 0
M  V30 4759 O 462.021 1.54574 -1.18056 0
M  V30 4760 C 462.304 -1.16499 -3.40735 0
M  V30 4761 C 462.157 -2.695 -3.60125 0
M  V30 4762 C 463.476 -0.742166 -4.33797 0
M  V30 4763 H 460.595 -0.26269 -0.688595 0
M  V30 4764 H 463.237 -1.27333 -1.41018 0
M  V30 4765 H 461.387 -0.69341 -3.82262 0
M  V30 4766 H 463.059 -3.24569 -3.278 0
M  V30 4767 H 461.302 -3.10113 -3.03336 0
M  V30 4768 H 461.973 -2.95757 -4.66081 0
M  V30 4769 H 464.449 -1.1477 -3.99959 0
M  V30 4770 H 463.325 -1.08213 -5.38127 0
M  V30 4771 H 463.586 0.355747 -4.40666 0
M  V30 4772 N 462.645 1.35699 -0.801477 0
M  V30 4773 C 463.593 2.3177 -0.196317 0
M  V30 4774 C 464.587 1.56388 0.651081 0
M  V30 4775 O 465.793 1.71557 0.544815 0
M  V30 4776 H 462.168 0.750669 -0.0447189 0
M  V30 4777 H 464.139 2.8036 -1.02181 0
M  V30 4778 C 462.888 3.41671 0.644702 0
M  V30 4779 H 462.211 3.998 0.0019921 0
M  V30 4780 H 463.651 4.11184 1.0346 0
M  V30 4781 C 462.11 2.84271 1.80808 0
M  V30 4782 O 462.64 2.77408 2.9053 0
M  V30 4783 N 460.846 2.41391 1.61799 0
M  V30 4784 H 460.393 2.47173 0.725493 0
M  V30 4785 H 460.351 2.03334 2.39797 0
M  V30 4786 N 464.123 0.554532 1.47522 0
M  V30 4787 C 465.07 -0.19466 2.29978 0
M  V30 4788 C 466.04 -0.910882 1.38896 0
M  V30 4789 O 467.225 -0.907102 1.67858 0
M  V30 4790 C 464.365 -1.22035 3.22802 0
M  V30 4791 C 463.478 -0.510474 4.28973 0
M  V30 4792 C 462.613 -1.52123 5.08952 0
M  V30 4793 C 461.652 -0.796173 6.069 0
M  V30 4794 N 460.789 -1.75363 6.79847 0
M  V30 4795 H 465.629 0.51461 2.93523 0
M  V30 4796 H 463.166 0.265607 1.44682 0
M  V30 4797 H 465.124 -1.8276 3.7504 0
M  V30 4798 H 463.754 -1.89769 2.61127 0
M  V30 4799 H 462.806 0.211234 3.79813 0
M  V30 4800 H 464.118 0.0576503 4.98767 0
M  V30 4801 H 463.272 -2.20207 5.65326 0
M  V30 4802 H 462.011 -2.12327 4.39054 0
M  V30 4803 H 461.016 -0.101388 5.49707 0
M  V30 4804 H 462.241 -0.199911 6.78806 0
M  V30 4805 H 460.187 -2.3443 6.12682 0
M  V30 4806 H 460.104 -1.23759 7.45801 0
M  V30 4807 H 461.372 -2.4257 7.40797 0
M  V30 4808 N 465.601 -1.54893 0.290851 0
M  V30 4809 C 466.85 -1.99111 -0.322113 0
M  V30 4810 C 467.163 -1.18283 -1.55784 0
M  V30 4811 O 468.369 -1.5272 -2.24475 0
M  V30 4812 C 466.825 -3.54442 -0.624438 0
M  V30 4813 C 466.433 -4.44066 0.592373 0
M  V30 4814 C 468.177 -4.07211 -1.19916 0
M  V30 4815 C 466.084 -5.90812 0.263762 0
M  V30 4816 H 465.014 -0.743712 -0.124133 0
M  V30 4817 H 467.665 -1.79132 0.39797 0
M  V30 4818 H 466.047 -3.70281 -1.40384 0
M  V30 4819 H 467.221 -4.39999 1.36886 0
M  V30 4820 H 465.536 -4.02015 1.08502 0
M  V30 4821 H 468.133 -5.14407 -1.45909 0
M  V30 4822 H 468.476 -3.57196 -2.13815 0
M  V30 4823 H 469.009 -3.94873 -0.481687 0
M  V30 4824 H 465.748 -6.44955 1.17105 0
M  V30 4825 H 465.268 -5.97911 -0.475655 0
M  V30 4826 H 466.947 -6.46852 -0.138354 0
M  V30 4827 N 467.08 -0.0183926 -1.57589 0
M  V30 4828 C 468.308 0.673046 -1.95647 0
M  V30 4829 C 468.723 1.66275 -0.894312 0
M  V30 4830 O 468.08 1.82072 0.124975 0
M  V30 4831 C 468.131 1.38884 -3.33756 0
M  V30 4832 O 467.852 0.438806 -4.35897 0
M  V30 4833 C 469.353 2.1731 -3.86383 0
M  V30 4834 H 466.573 0.186292 -0.644621 0
M  V30 4835 H 469.117 -0.0749748 -2.04363 0
M  V30 4836 H 467.272 2.08835 -3.26293 0
M  V30 4837 H 467.686 0.945869 -5.15901 0
M  V30 4838 H 469.16 2.62863 -4.85394 0
M  V30 4839 H 469.637 3.00764 -3.20059 0
M  V30 4840 H 470.243 1.52339 -3.97081 0
M  V30 4841 N 468.558 1.5553 0.254621 0
M  V30 4842 C 469.788 1.80784 1.00004 0
M  V30 4843 C 470.196 0.59071 1.79742 0
M  V30 4844 O 469.539 -0.449988 1.78103 0
M  V30 4845 C 469.601 2.99268 1.99196 0
M  V30 4846 C 469.265 4.35595 1.38224 0
M  V30 4847 C 470.262 5.13884 0.788611 0
M  V30 4848 C 467.947 4.82281 1.40393 0
M  V30 4849 C 469.941 6.37004 0.224783 0
M  V30 4850 C 467.628 6.05351 0.836243 0
M  V30 4851 C 468.626 6.82551 0.24769 0
M  V30 4852 O 468.314 8.03297 -0.311249 0
M  V30 4853 H 468.046 0.60565 0.300274 0
M  V30 4854 H 470.6 2.03411 0.285143 0
M  V30 4855 H 468.83 2.72377 2.74496 0
M  V30 4856 H 470.519 3.11682 2.60018 0
M  V30 4857 H 471.285 4.78938 0.764423 0
M  V30 4858 H 467.164 4.22189 1.85142 0
M  V30 4859 H 470.708 6.97203 -0.235235 0
M  V30 4860 H 466.605 6.39776 0.857733 0
M  V30 4861 H 467.373 8.1825 -0.20237 0
M  V30 4862 N 470.036 -0.519951 1.48776 0
M  V30 4863 C 471.284 -1.2727 1.56993 0
M  V30 4864 C 471.605 -1.9339 0.25004 0
M  V30 4865 O 470.875 -1.81822 -0.729216 0
M  V30 4866 H 469.455 -0.472732 0.578389 0
M  V30 4867 H 472.117 -0.604234 1.85297 0
M  V30 4868 H 471.213 -2.04669 2.3562 0
M  V30 4869 N 471.514 -1.37532 -0.769588 0
M  V30 4870 C 472.477 -1.33292 -1.86456 0
M  V30 4871 C 473.477 -0.236537 -1.59051 0
M  V30 4872 O 474.667 -0.492511 -1.67093 0
M  V30 4873 C 471.799 -1.07118 -3.23633 0
M  V30 4874 H 472.992 -2.30692 -1.91628 0
M  V30 4875 H 470.545 -1.22593 -0.969572 0
M  V30 4876 H 471.28 -0.102578 -3.24138 0
M  V30 4877 H 471.065 -1.86479 -3.44917 0
M  V30 4878 H 472.555 -1.06806 -4.03711 0
M  V30 4879 N 472.992 0.995999 -1.22138 0
M  V30 4880 C 474.232 1.75032 -1.05561 0
M  V30 4881 C 474.596 1.87729 0.402698 0
M  V30 4882 O 475.797 2.59813 0.689234 0
M  V30 4883 C 474.068 3.11973 -1.74379 0
M  V30 4884 S 475.627 4.03182 -1.73175 0
M  V30 4885 H 472.445 0.602137 -0.37809 0
M  V30 4886 H 475.047 1.19107 -1.55028 0
M  V30 4887 H 473.751 3.00371 -2.79652 0
M  V30 4888 H 473.282 3.7297 -1.25128 0
M  V30 4889 H 475.297 4.90043 -0.77923 0
M  V30 4890 N 474.47 1.03057 1.19235 0
M  V30 4891 C 475.881 0.757449 1.70645 0
M  V30 4892 C 476.232 -0.722735 1.82403 0
M  V30 4893 O 475.357 -1.56325 1.49638 0
M  V30 4894 C 475.952 1.36833 3.09939 0
M  V30 4895 C 474.511 1.14375 3.58602 0
M  V30 4896 C 473.658 1.46533 2.35422 0
M  V30 4897 H 476.609 1.19828 1.04052 0
M  V30 4898 H 476.63 0.766184 3.72706 0
M  V30 4899 H 476.142 2.44562 3.01349 0
M  V30 4900 H 474.243 0.0847542 3.72504 0
M  V30 4901 H 474.356 1.83366 4.42622 0
M  V30 4902 H 472.72 0.884712 2.38841 0
M  V30 4903 H 473.503 2.55349 2.2946 0
M  V30 4904 N 475.948 -1.35272 0.808662 0
M  V30 4905 C 476.895 -2.29764 0.218482 0
M  V30 4906 C 477.865 -1.52911 -0.648652 0
M  V30 4907 O 479.05 -1.81341 -0.593297 0
M  V30 4908 C 476.19 -3.39388 -0.625282 0
M  V30 4909 C 475.303 -4.31202 0.262516 0
M  V30 4910 C 474.438 -5.27919 -0.589451 0
M  V30 4911 C 473.477 -6.11371 0.298617 0
M  V30 4912 N 472.614 -7.0022 -0.513443 0
M  V30 4913 H 477.454 -2.79645 1.02968 0
M  V30 4914 H 474.991 -1.37629 0.519303 0
M  V30 4915 H 476.949 -4.01615 -1.12966 0
M  V30 4916 H 475.579 -2.90777 -1.40173 0
M  V30 4917 H 474.631 -3.69962 0.885013 0
M  V30 4918 H 475.943 -4.89748 0.945971 0
M  V30 4919 H 475.097 -5.95529 -1.15888 0
M  V30 4920 H 473.836 -4.69875 -1.30647 0
M  V30 4921 H 472.841 -5.42707 0.880301 0
M  V30 4922 H 474.066 -6.71494 1.01352 0
M  V30 4923 H 472.012 -6.44662 -1.21439 0
M  V30 4924 H 471.929 -7.55917 0.111922 0
M  V30 4925 H 473.197 -7.72175 -1.06608 0
M  V30 4926 N 477.426 -0.562348 -1.47226 0
M  V30 4927 C 478.656 -0.0451619 -2.06551 0
M  V30 4928 C 479.064 1.25626 -1.41473 0
M  V30 4929 O 478.407 1.76563 -0.507061 0
M  V30 4930 C 478.469 0.216068 -3.5885 0
M  V30 4931 C 478.133 -0.996691 -4.45999 0
M  V30 4932 C 479.13 -1.90358 -4.83797 0
M  V30 4933 C 476.815 -1.21281 -4.87438 0
M  V30 4934 C 478.809 -3.01023 -5.6184 0
M  V30 4935 C 476.496 -2.32255 -5.65244 0
M  V30 4936 C 477.494 -3.21956 -6.02356 0
M  V30 4937 O 477.182 -4.31005 -6.78594 0
M  V30 4938 H 476.914 -0.0451646 -0.67449 0
M  V30 4939 H 479.468 -0.776842 -1.90143 0
M  V30 4940 H 477.698 1.00212 -3.7349 0
M  V30 4941 H 479.387 0.679264 -4.00176 0
M  V30 4942 H 480.153 -1.74868 -4.52378 0
M  V30 4943 H 476.032 -0.523767 -4.58015 0
M  V30 4944 H 479.576 -3.71064 -5.90726 0
M  V30 4945 H 475.473 -2.47715 -5.96077 0
M  V30 4946 H 476.241 -4.29118 -6.96994 0
M  V30 4947 N 478.904 1.54736 -0.299062 0
M  V30 4948 C 480.15 2.00397 0.311244 0
M  V30 4949 C 480.483 1.18716 1.53688 0
M  V30 4950 O 479.758 0.263154 1.92712 0
M  V30 4951 C 480.041 3.53817 0.669761 0
M  V30 4952 C 479.894 4.46239 -0.564882 0
M  V30 4953 C 481.213 4.13856 1.49702 0
M  V30 4954 H 478.332 0.728493 0.111653 0
M  V30 4955 H 480.974 1.85506 -0.410774 0
M  V30 4956 H 479.124 3.66637 1.28491 0
M  V30 4957 H 480.796 4.45328 -1.20337 0
M  V30 4958 H 479.039 4.16916 -1.19849 0
M  V30 4959 H 479.71 5.5134 -0.269918 0
M  V30 4960 H 482.186 4.04461 0.977284 0
M  V30 4961 H 481.062 5.21365 1.71666 0
M  V30 4962 H 481.323 3.65608 2.48563 0
M  V30 4963 N 480.382 0.0267497 1.57577 0
M  V30 4964 C 481.329 -0.955894 2.10075 0
M  V30 4965 C 482.299 -1.32453 1.00226 0
M  V30 4966 O 483.484 -1.41826 1.27632 0
M  V30 4967 C 480.624 -2.2338 2.6305 0
M  V30 4968 C 479.737 -1.92183 3.86898 0
M  V30 4969 C 478.872 -3.14251 4.28275 0
M  V30 4970 C 477.911 -2.78862 5.44888 0
M  V30 4971 N 477.048 -3.93548 5.81433 0
M  V30 4972 H 481.888 -0.501303 2.93753 0
M  V30 4973 H 479.425 -0.235847 1.45197 0
M  V30 4974 H 481.383 -2.98124 2.91853 0
M  V30 4975 H 480.013 -2.6646 1.82205 0
M  V30 4976 H 479.065 -1.07692 3.64838 0
M  V30 4977 H 480.377 -1.62117 4.7172 0
M  V30 4978 H 479.531 -3.97317 4.58502 0
M  V30 4979 H 478.27 -3.47476 3.42215 0
M  V30 4980 H 477.275 -1.94208 5.14357 0
M  V30 4981 H 478.5 -2.46855 6.32645 0
M  V30 4982 H 476.446 -4.2662 4.98328 0
M  V30 4983 H 476.363 -3.67098 6.6089 0
M  V30 4984 H 477.631 -4.77325 6.16264 0
M  V30 4985 N 481.861 -1.55662 -0.24637 0
M  V30 4986 C 482.793 -1.86811 -1.32794 0
M  V30 4987 C 483.806 -0.754413 -1.44265 0
M  V30 4988 O 484.995 -1.03253 -1.45606 0
M  V30 4989 C 482.095 -2.0397 -2.70646 0
M  V30 4990 C 481.268 -3.34832 -2.81436 0
M  V30 4991 C 480.327 -3.41727 -4.00136 0
M  V30 4992 O 479.353 -4.14934 -3.89639 0
M  V30 4993 N 480.555 -2.71058 -5.1333 0
M  V30 4994 H 483.32 -2.80174 -1.06409 0
M  V30 4995 H 480.881 -1.55906 -0.43647 0
M  V30 4996 H 482.873 -2.05924 -3.48393 0
M  V30 4997 H 481.443 -1.1735 -2.89738 0
M  V30 4998 H 480.663 -3.4519 -1.90361 0
M  V30 4999 H 481.951 -4.21085 -2.85595 0
M  V30 5000 H 481.349 -2.11314 -5.2475 0
M  V30 5001 H 479.906 -2.78704 -5.89209 0
M  V30 5002 N 483.339 0.512053 -1.4905 0
M  V30 5003 C 484.287 1.63568 -1.65373 0
M  V30 5004 C 485.281 1.61228 -0.519806 0
M  V30 5005 O 486.487 1.65869 -0.699101 0
M  V30 5006 H 482.862 0.542019 -0.521267 0
M  V30 5007 H 484.833 1.4695 -2.59708 0
M  V30 5008 C 483.582 3.01761 -1.7273 0
M  V30 5009 H 482.905 3.04263 -2.59353 0
M  V30 5010 H 484.345 3.79948 -1.8819 0
M  V30 5011 C 482.804 3.33609 -0.46973 0
M  V30 5012 O 483.334 3.99607 0.409492 0
M  V30 5013 N 481.54 2.88651 -0.336003 0
M  V30 5014 H 481.087 2.35119 -1.05247 0
M  V30 5015 H 481.045 3.10328 0.504363 0
M  V30 5016 N 484.817 1.37938 0.762283 0
M  V30 5017 C 486.045 1.36883 1.55147 0
M  V30 5018 C 486.46 -0.0435348 1.8875 0
M  V30 5019 O 485.817 -1.00786 1.52146 0
M  V30 5020 C 485.868 2.21624 2.85596 0
M  V30 5021 O 485.589 3.57358 2.5343 0
M  V30 5022 C 487.09 2.28653 3.7978 0
M  V30 5023 H 484.31 0.468521 0.480343 0
M  V30 5024 H 486.854 1.81404 0.944079 0
M  V30 5025 H 485.009 1.80588 3.42734 0
M  V30 5026 H 485.423 4.01883 3.37032 0
M  V30 5027 H 486.897 2.9225 4.68288 0
M  V30 5028 H 487.374 1.29767 4.19592 0
M  V30 5029 H 487.98 2.70043 3.28568 0
M  V30 5030 N 486.295 -0.989507 1.22664 0
M  V30 5031 C 487.225 -2.09847 1.02404 0
M  V30 5032 C 488.206 -1.70007 -0.0561303 0
M  V30 5033 O 489.391 -1.93906 0.106748 0
M  V30 5034 C 486.521 -3.41996 0.604663 0
M  V30 5035 C 485.475 -3.95699 1.63115 0
M  V30 5036 C 484.801 -5.23936 1.0675 0
M  V30 5037 C 486.101 -4.25999 3.02196 0
M  V30 5038 H 487.795 -2.27054 1.95158 0
M  V30 5039 H 485.341 -1.09111 0.939727 0
M  V30 5040 H 487.294 -4.1899 0.45002 0
M  V30 5041 H 486.018 -3.24626 -0.35855 0
M  V30 5042 H 484.677 -3.2084 1.77362 0
M  V30 5043 H 484.325 -5.02909 0.0955422 0
M  V30 5044 H 484.025 -5.60833 1.75328 0
M  V30 5045 H 485.549 -6.0356 0.924516 0
M  V30 5046 H 486.963 -4.93777 2.91303 0
M  V30 5047 H 485.36 -4.74076 3.67929 0
M  V30 5048 H 486.43 -3.33636 3.51873 0
M  V30 5049 N 487.773 -1.03688 -1.18687 0
M  V30 5050 C 488.72 -0.624624 -2.22187 0
M  V30 5051 C 489.69 0.365636 -1.62026 0
M  V30 5052 O 490.875 0.260481 -1.89014 0
M  V30 5053 C 488.015 0.0101738 -3.45099 0
M  V30 5054 C 487.128 -1.02709 -4.19613 0
M  V30 5055 C 486.263 -0.361213 -5.2997 0
M  V30 5056 C 485.302 -1.38384 -5.96252 0
M  V30 5057 N 484.439 -0.743196 -6.98155 0
M  V30 5058 H 489.279 -1.51176 -2.56807 0
M  V30 5059 H 486.816 -0.75636 -1.26165 0
M  V30 5060 H 488.774 0.395528 -4.15321 0
M  V30 5061 H 487.404 0.860848 -3.1111 0
M  V30 5062 H 486.456 -1.53043 -3.48256 0
M  V30 5063 H 487.768 -1.80398 -4.65036 0
M  V30 5064 H 486.922 0.0785537 -6.06649 0
M  V30 5065 H 485.661 0.447799 -4.8564 0
M  V30 5066 H 484.666 -1.83378 -5.18317 0
M  V30 5067 H 485.891 -2.19448 -6.42666 0
M  V30 5068 H 483.837 0.0455789 -6.55984 0
M  V30 5069 H 483.754 -1.45784 -7.41811 0
M  V30 5070 H 485.022 -0.327698 -7.78811 0
M  V30 5071 N 489.251 1.34841 -0.815825 0
M  V30 5072 C 490.181 2.32187 -0.247298 0
M  V30 5073 C 491.162 1.5791 0.632344 0
M  V30 5074 O 492.347 1.8593 0.560698 0
M  V30 5075 C 489.477 3.42122 0.597466 0
M  V30 5076 C 488.431 4.27602 -0.184446 0
M  V30 5077 C 487.757 5.28942 0.782609 0
M  V30 5078 C 489.057 5.03502 -1.38865 0
M  V30 5079 H 490.751 2.79985 -1.06061 0
M  V30 5080 H 488.297 1.34611 -0.511461 0
M  V30 5081 H 490.25 4.09232 1.00533 0
M  V30 5082 H 488.974 2.92956 1.44376 0
M  V30 5083 H 487.633 3.62085 -0.573592 0
M  V30 5084 H 487.281 4.7604 1.62466 0
M  V30 5085 H 486.981 5.87008 0.263695 0
M  V30 5086 H 488.505 5.98922 1.18848 0
M  V30 5087 H 489.919 5.63506 -1.05518 0
M  V30 5088 H 488.316 5.71108 -1.8427 0
M  V30 5089 H 489.386 4.33608 -2.17054 0
M  V30 5090 N 490.729 0.570148 1.46925 0
M  V30 5091 C 491.692 -0.159933 2.28641 0
M  V30 5092 C 492.692 -0.830638 1.37685 0
M  V30 5093 O 493.882 -0.684516 1.60187 0
M  V30 5094 C 491.014 -1.2354 3.17727 0
M  V30 5095 H 492.207 0.558035 2.94662 0
M  V30 5096 H 489.76 0.327603 1.52828 0
M  V30 5097 H 490.495 -1.98535 2.56426 0
M  V30 5098 H 490.28 -0.759125 3.84681 0
M  V30 5099 H 491.77 -1.74782 3.79264 0
M  V30 5100 N 492.207 -1.54576 0.307264 0
M  V30 5101 C 493.435 -2.04675 -0.302597 0
M  V30 5102 C 493.85 -1.18425 -1.47041 0
M  V30 5103 O 493.207 -0.211257 -1.81273 0
M  V30 5104 C 493.258 -3.53575 -0.752801 0
M  V30 5105 O 492.979 -4.36547 0.368536 0
M  V30 5106 C 494.48 -4.19699 -1.42717 0
M  V30 5107 H 491.7 -0.66786 -0.0648374 0
M  V30 5108 H 494.244 -1.99516 0.448716 0
M  V30 5109 H 492.399 -3.59074 -1.45412 0
M  V30 5110 H 492.813 -5.24497 0.0168937 0
M  V30 5111 H 494.287 -5.25388 -1.69327 0
M  V30 5112 H 494.764 -3.69815 -2.36925 0
M  V30 5113 H 495.37 -4.18293 -0.768856 0
M  V30 5114 N 493.685 -0.035106 -1.57561 0
M  V30 5115 C 494.933 0.64096 -1.91667 0
M  V30 5116 C 495.254 1.72323 -0.912681 0
M  V30 5117 O 494.524 1.95849 0.0449089 0
M  V30 5118 H 493.104 0.239743 -0.707483 0
M  V30 5119 H 495.766 -0.084321 -1.94718 0
M  V30 5120 H 494.862 1.08987 -2.92452 0
M  V30 5121 N 495.163 1.55791 0.238111 0
M  V30 5122 C 496.096 1.86036 1.32158 0
M  V30 5123 C 497.074 0.716216 1.45976 0
M  V30 5124 O 498.258 0.962882 1.62052 0
M  V30 5125 C 495.385 2.05281 2.69402 0
M  V30 5126 C 494.431 3.27939 2.72687 0
M  V30 5127 S 495.264 4.84342 2.28413 0
M  V30 5128 C 496.42 5.06604 3.67565 0
M  V30 5129 H 496.653 2.77644 1.06306 0
M  V30 5130 H 494.186 1.48012 0.439537 0
M  V30 5131 H 496.144 2.17053 3.48423 0
M  V30 5132 H 494.805 1.14499 2.92487 0
M  V30 5133 H 493.998 3.38398 3.73501 0
M  V30 5134 H 493.6 3.14938 2.01717 0
M  V30 5135 H 495.892 4.94486 4.6313 0
M  V30 5136 H 496.835 6.08554 3.62033 0
M  V30 5137 H 497.243 4.34409 3.60485 0
M  V30 5138 N 496.642 -0.504142 1.49319 0
M  V30 5139 C 498.058 -0.835039 1.36012 0
M  V30 5140 C 498.258 -1.97674 0.390808 0
M  V30 5141 O 497.314 -2.51867 -0.178655 0
M  V30 5142 C 498.627 -1.17821 2.76656 0
M  V30 5143 C 500.175 -1.2866 2.85334 0
M  V30 5144 C 500.65 -1.66307 4.26739 0
M  V30 5145 N 502.141 -1.73362 4.29534 0
M  V30 5146 C 502.876 -2.0393 5.35911 0
M  V30 5147 N 502.372 -2.32744 6.52535 0
M  V30 5148 N 504.165 -2.05155 5.23324 0
M  V30 5149 H 496.316 0.248764 2.10938 0
M  V30 5150 H 498.579 0.0486962 0.946748 0
M  V30 5151 H 498.285 -0.412682 3.4927 0
M  V30 5152 H 498.159 -2.12239 3.11825 0
M  V30 5153 H 500.546 -2.04285 2.1296 0
M  V30 5154 H 500.627 -0.323004 2.53752 0
M  V30 5155 H 500.271 -0.91234 4.99639 0
M  V30 5156 H 500.201 -2.63761 4.55782 0
M  V30 5157 H 502.692 -1.53268 3.45424 0
M  V30 5158 H 503.005 -2.55248 7.2943 0
M  V30 5159 H 501.35 -2.30207 6.55767 0
M  V30 5160 H 504.541 -1.82119 4.3122 0
M  V30 5161 H 504.714 -2.28644 6.06322 0
M  V30 5162 N 498.12 -1.38341 -0.754957 0
M  V30 5163 C 499.068 -1.35573 -1.89005 0
M  V30 5164 C 500.062 -0.241824 -1.67665 0
M  V30 5165 O 501.268 -0.410785 -1.7525 0
M  V30 5166 H 497.643 -0.422898 -0.621821 0
M  V30 5167 H 499.614 -2.31359 -1.88455 0
M  V30 5168 C 498.363 -1.19631 -3.26471 0
M  V30 5169 H 497.686 -2.04605 -3.43477 0
M  V30 5170 H 499.126 -1.21748 -4.06144 0
M  V30 5171 C 497.585 0.0968705 -3.36761 0
M  V30 5172 O 498.115 1.07439 -3.87066 0
M  V30 5173 N 496.321 0.153242 -2.90196 0
M  V30 5174 H 495.868 -0.642908 -2.49448 0
M  V30 5175 H 495.826 1.01807 -2.9746 0
M  V30 5176 N 499.598 0.982988 -1.23187 0
M  V30 5177 C 500.844 1.72648 -1.06398 0
M  V30 5178 C 501.177 1.90066 0.398561 0
M  V30 5179 O 500.452 1.45105 1.29518 0
M  V30 5180 C 500.735 3.12627 -1.78707 0
M  V30 5181 C 500.588 3.02795 -3.32618 0
M  V30 5182 C 501.907 4.11997 -1.54747 0
M  V30 5183 H 499.026 0.626649 -0.387918 0
M  V30 5184 H 501.668 1.14455 -1.51658 0
M  V30 5185 H 499.818 3.62308 -1.40234 0
M  V30 5186 H 501.49 2.60659 -3.80598 0
M  V30 5187 H 499.733 2.39362 -3.61785 0
M  V30 5188 H 500.404 4.01893 -3.78399 0
M  V30 5189 H 502.88 3.71114 -1.88186 0
M  V30 5190 H 501.756 5.08037 -2.07821 0
M  V30 5191 H 502.017 4.39462 -0.482249 0
M  V30 5192 N 501.076 1.04316 1.18135 0
M  V30 5193 C 502.487 0.775505 1.69832 0
M  V30 5194 C 502.838 -0.703348 1.8316 0
M  V30 5195 O 501.963 -1.54729 1.51287 0
M  V30 5196 C 502.558 1.40112 3.0847 0
M  V30 5197 C 501.117 1.18172 3.57368 0
M  V30 5198 C 500.264 1.49022 2.33854 0
M  V30 5199 H 503.215 1.20925 1.02775 0
M  V30 5200 H 503.236 0.805672 3.71873 0
M  V30 5201 H 502.748 2.47744 2.98738 0
M  V30 5202 H 500.849 0.124258 3.72393 0
M  V30 5203 H 500.962 1.8805 4.40652 0
M  V30 5204 H 499.326 0.909995 2.37889 0
M  V30 5205 H 500.109 2.57768 2.26738 0
M  V30 5206 N 502.554 -1.34406 0.822964 0
M  V30 5207 C 503.464 -2.33298 0.246838 0
M  V30 5208 C 504.48 -1.62625 -0.618797 0
M  V30 5209 O 505.656 -1.94391 -0.526685 0
M  V30 5210 C 502.721 -3.41785 -0.581731 0
M  V30 5211 C 501.782 -4.28206 0.306309 0
M  V30 5212 C 501.015 -5.31512 -0.48281 0
M  V30 5213 O 501.238 -5.43973 -1.71607 0
M  V30 5214 O 500.172 -6.01749 0.134884 0
M  V30 5215 H 503.998 -2.84401 1.06534 0
M  V30 5216 H 501.583 -1.37466 0.585108 0
M  V30 5217 H 503.465 -4.08028 -1.05313 0
M  V30 5218 H 502.14 -2.92925 -1.37756 0
M  V30 5219 H 501.047 -3.64885 0.825199 0
M  V30 5220 H 502.38 -4.80507 1.06649 0
M  V30 5221 N 504.032 -0.577932 -1.46621 0
M  V30 5222 C 504.979 0.158048 -2.30258 0
M  V30 5223 C 505.949 0.888669 -1.40328 0
M  V30 5224 O 507.134 0.880283 -1.6928 0
M  V30 5225 C 504.274 1.16884 -3.24703 0
M  V30 5226 C 503.387 0.442163 -4.29731 0
M  V30 5227 C 502.522 1.44007 -5.11308 0
M  V30 5228 C 501.561 0.69952 -6.0809 0
M  V30 5229 N 500.698 1.64525 -6.82551 0
M  V30 5230 H 505.538 -0.561242 -2.92667 0
M  V30 5231 H 503.075 -0.288591 -1.44241 0
M  V30 5232 H 505.033 1.7677 -3.779 0
M  V30 5233 H 503.663 1.85591 -2.64113 0
M  V30 5234 H 502.715 -0.271632 -3.79429 0
M  V30 5235 H 504.027 -0.136992 -4.98612 0
M  V30 5236 H 503.181 2.11186 -5.68758 0
M  V30 5237 H 501.92 2.05315 -4.42377 0
M  V30 5238 H 500.925 0.0139217 -5.49798 0
M  V30 5239 H 502.15 0.091894 -6.79038 0
M  V30 5240 H 500.096 2.24653 -6.16334 0
M  V30 5241 H 500.013 1.11878 -7.47676 0
M  V30 5242 H 501.281 2.30754 -7.44562 0
M  V30 5243 N 505.51 1.54411 -0.315457 0
M  V30 5244 C 506.442 2.21527 0.588067 0
M  V30 5245 C 507.455 1.21263 1.08624 0
M  V30 5246 O 508.644 1.47777 1.00121 0
M  V30 5247 C 505.744 2.85963 1.81875 0
M  V30 5248 C 504.917 4.12291 1.46063 0
M  V30 5249 C 503.976 4.60396 2.54799 0
M  V30 5250 O 503.002 5.25265 2.19283 0
M  V30 5251 N 504.204 4.33935 3.85591 0
M  V30 5252 H 506.969 2.99697 0.013414 0
M  V30 5253 H 504.53 1.61308 -0.138295 0
M  V30 5254 H 506.522 3.15071 2.53993 0
M  V30 5255 H 505.092 2.11548 2.30144 0
M  V30 5256 H 504.312 3.90036 0.571445 0
M  V30 5257 H 505.6 4.9452 1.19695 0
M  V30 5258 H 504.998 3.81996 4.17248 0
M  V30 5259 H 503.555 4.67718 4.53964 0
M  V30 5260 N 506.988 0.0434614 1.5754 0
M  V30 5261 C 508.216 -0.641835 1.96693 0
M  V30 5262 C 508.631 -1.64832 0.920652 0
M  V30 5263 O 507.988 -1.82247 -0.095993 0
M  V30 5264 C 508.039 -1.33557 3.35924 0
M  V30 5265 O 507.76 -0.369403 4.3654 0
M  V30 5266 C 509.261 -2.11135 3.89791 0
M  V30 5267 H 506.481 -0.176013 0.647503 0
M  V30 5268 H 509.025 0.107478 2.04217 0
M  V30 5269 H 507.18 -2.03617 3.29574 0
M  V30 5270 H 507.594 -0.863674 5.1734 0
M  V30 5271 H 509.068 -2.55107 4.89514 0
M  V30 5272 H 509.545 -2.95634 3.24803 0
M  V30 5273 H 510.151 -1.46002 3.99454 0
M  V30 5274 N 508.466 -1.55915 -0.229846 0
M  V30 5275 C 509.882 -1.48721 -0.579166 0
M  V30 5276 C 510.082 -0.736976 -1.87539 0
M  V30 5277 O 509.138 -0.273258 -2.51017 0
M  V30 5278 C 510.451 -2.9323 -0.666082 0
M  V30 5279 C 511.999 -3.03701 -0.757267 0
M  V30 5280 C 512.474 -4.49552 -0.8756 0
M  V30 5281 N 513.965 -4.53561 -0.940035 0
M  V30 5282 C 514.7 -5.63683 -1.05116 0
M  V30 5283 N 514.196 -6.83576 -1.12675 0
M  V30 5284 N 515.989 -5.51516 -1.08565 0
M  V30 5285 H 508.14 -2.03123 0.620857 0
M  V30 5286 H 510.403 -0.922898 0.21671 0
M  V30 5287 H 510.109 -3.51032 0.21664 0
M  V30 5288 H 509.983 -3.44668 -1.53243 0
M  V30 5289 H 512.37 -2.45969 -1.63043 0
M  V30 5290 H 512.451 -2.55446 0.134583 0
M  V30 5291 H 512.095 -5.079 -0.00692351 0
M  V30 5292 H 512.025 -4.95506 -1.78274 0
M  V30 5293 H 514.516 -3.67215 -0.892269 0
M  V30 5294 H 514.829 -7.63251 -1.21109 0
M  V30 5295 H 513.174 -6.86303 -1.09603 0
M  V30 5296 H 516.365 -4.5678 -1.02319 0
M  V30 5297 H 516.538 -6.37372 -1.1688 0
M  V30 5298 N 509.944 0.496216 -1.49584 0
M  V30 5299 C 511.192 1.24756 -1.58998 0
M  V30 5300 C 511.513 1.92968 -0.280775 0
M  V30 5301 O 510.783 1.82959 0.700198 0
M  V30 5302 H 509.363 0.463471 -0.585836 0
M  V30 5303 H 512.025 0.574678 -1.86235 0
M  V30 5304 H 511.121 2.00895 -2.38847 0
M  V30 5305 N 511.423 1.38739 0.74761 0
M  V30 5306 C 512.353 1.39173 1.87492 0
M  V30 5307 C 513.334 0.256794 1.6815 0
M  V30 5308 O 514.519 0.460762 1.88655 0
M  V30 5309 C 511.649 1.22197 3.25093 0
M  V30 5310 C 510.603 2.32957 3.59047 0
M  V30 5311 C 509.929 2.01082 4.95449 0
M  V30 5312 C 511.229 3.75237 3.6331 0
M  V30 5313 H 512.923 2.3351 1.87386 0
M  V30 5314 H 510.469 1.12399 0.900134 0
M  V30 5315 H 512.422 1.21124 4.03617 0
M  V30 5316 H 511.146 0.243241 3.25693 0
M  V30 5317 H 509.805 2.33226 2.82845 0
M  V30 5318 H 509.453 1.01678 4.92616 0
M  V30 5319 H 509.153 2.75267 5.19136 0
M  V30 5320 H 510.677 2.01638 5.76346 0
M  V30 5321 H 512.091 3.76966 4.31937 0
M  V30 5322 H 510.488 4.48677 3.98509 0
M  V30 5323 H 511.558 4.07122 2.634 0
M  V30 5324 N 512.901 -0.976442 1.23707 0
M  V30 5325 C 514.148 -1.71827 1.07153 0
M  V30 5326 C 514.476 -1.9053 -0.390982 0
M  V30 5327 O 513.731 -1.45779 -1.30564 0
M  V30 5328 C 514.03 -3.11814 1.74662 0
M  V30 5329 C 513.696 -3.12978 3.24585 0
M  V30 5330 C 512.358 -3.13003 3.6549 0
M  V30 5331 C 514.71 -3.07986 4.20469 0
M  V30 5332 C 512.038 -3.05757 5.00729 0
M  V30 5333 C 514.39 -3.02282 5.55705 0
M  V30 5334 C 513.054 -3.00631 5.95968 0
M  V30 5335 H 512.324 -0.628758 0.392102 0
M  V30 5336 H 514.971 -1.14239 1.53693 0
M  V30 5337 H 513.276 -3.72812 1.20492 0
M  V30 5338 H 514.973 -3.67989 1.59328 0
M  V30 5339 H 511.563 -3.13718 2.92026 0
M  V30 5340 H 515.747 -3.07103 3.89874 0
M  V30 5341 H 511.003 -3.02834 5.31132 0
M  V30 5342 H 515.177 -2.97376 6.29714 0
M  V30 5343 H 512.804 -2.94771 7.00724 0
M  V30 5344 N 514.379 -1.04941 -1.1758 0
M  V30 5345 C 515.627 -0.756492 -1.87408 0
M  V30 5346 C 515.948 0.718478 -1.81281 0
M  V30 5347 O 515.218 1.519 -1.23706 0
M  V30 5348 H 513.798 -0.276841 -0.693807 0
M  V30 5349 H 516.46 -1.32803 -1.42652 0
M  V30 5350 H 515.556 -1.06918 -2.93215 0
M  V30 5351 N 515.857 1.33968 -0.830081 0
M  V30 5352 C 516.82 2.27694 -0.26235 0
M  V30 5353 C 517.82 1.50589 0.563876 0
M  V30 5354 O 519.01 1.70028 0.378941 0
M  V30 5355 C 516.142 3.35002 0.63138 0
M  V30 5356 H 517.335 2.79419 -1.08928 0
M  V30 5357 H 514.888 1.44221 -0.602486 0
M  V30 5358 H 515.623 2.88504 1.48109 0
M  V30 5359 H 515.408 3.92079 0.0403276 0
M  V30 5360 H 516.898 4.04897 1.02217 0
M  V30 5361 N 517.335 0.585699 1.46312 0
M  V30 5362 C 518.584 0.0701192 2.01578 0
M  V30 5363 C 518.897 -1.29889 1.46247 0
M  V30 5364 O 520.103 -1.90598 1.93351 0
M  V30 5365 C 518.559 0.0747499 3.59822 0
M  V30 5366 C 518.167 1.44226 4.24149 0
M  V30 5367 C 519.911 -0.38673 4.22735 0
M  V30 5368 C 517.818 1.40446 5.74481 0
M  V30 5369 H 516.748 0.0224441 0.753666 0
M  V30 5370 H 519.399 0.737789 1.68015 0
M  V30 5371 H 517.781 -0.659144 3.90476 0
M  V30 5372 H 518.955 2.19612 4.05101 0
M  V30 5373 H 517.27 1.84401 3.73343 0
M  V30 5374 H 519.867 -0.433853 5.32937 0
M  V30 5375 H 520.21 -1.40489 3.91878 0
M  V30 5376 H 520.743 0.293195 3.96718 0
M  V30 5377 H 517.482 2.39952 6.10003 0
M  V30 5378 H 517.002 0.692845 5.95785 0
M  V30 5379 H 518.681 1.11865 6.37256 0
M  V30 5380 N 518.813 -1.54241 0.323641 0
M  V30 5381 C 519.776 -2.22997 -0.529602 0
M  V30 5382 C 520.776 -1.22345 -1.04347 0
M  V30 5383 O 521.966 -1.46924 -0.935889 0
M  V30 5384 C 519.098 -2.93409 -1.73562 0
M  V30 5385 H 520.291 -2.99815 0.0714518 0
M  V30 5386 H 517.844 -1.56121 0.0747258 0
M  V30 5387 H 518.579 -2.20729 -2.37591 0
M  V30 5388 H 518.364 -3.67217 -1.37456 0
M  V30 5389 H 519.854 -3.45794 -2.34128 0
M  V30 5390 N 520.291 -0.0518155 -1.57515 0
M  V30 5391 C 521.539 0.620595 -1.92336 0
M  V30 5392 C 521.86 1.71345 -0.930907 0
M  V30 5393 O 521.13 1.95885 0.0241341 0
M  V30 5394 H 519.71 0.232226 -0.709986 0
M  V30 5395 H 522.372 -0.104969 -1.94617 0
M  V30 5396 H 521.468 1.05879 -2.93592 0
M  V30 5397 N 521.769 1.56035 0.221574 0
M  V30 5398 C 523.016 1.79047 0.94597 0
M  V30 5399 C 523.344 0.62057 1.84334 0
M  V30 5400 O 522.599 -0.395053 1.91671 0
M  V30 5401 C 522.898 3.07813 1.8162 0
M  V30 5402 C 522.564 4.3797 1.07206 0
M  V30 5403 C 521.226 4.73334 0.866508 0
M  V30 5404 C 523.578 5.18326 0.546565 0
M  V30 5405 C 520.906 5.8657 0.123549 0
M  V30 5406 C 523.258 6.32335 -0.18305 0
M  V30 5407 C 521.922 6.66301 -0.399861 0
M  V30 5408 H 521.192 0.655178 0.346155 0
M  V30 5409 H 523.839 1.90299 0.214146 0
M  V30 5410 H 522.144 2.91682 2.61589 0
M  V30 5411 H 523.841 3.2282 2.37884 0
M  V30 5412 H 520.431 4.10202 1.24226 0
M  V30 5413 H 524.615 4.9144 0.692847 0
M  V30 5414 H 519.871 6.11376 -0.0546591 0
M  V30 5415 H 524.045 6.9383 -0.59775 0
M  V30 5416 H 521.672 7.53889 -0.977489 0
M  V30 5417 N 523.247 -0.488276 1.49845 0
M  V30 5418 C 524.496 -1.23826 1.59217 0
M  V30 5419 C 524.809 -1.93439 0.289966 0
M  V30 5420 O 526.015 -2.70229 0.262382 0
M  V30 5421 C 524.471 -2.24902 2.80976 0
M  V30 5422 C 524.079 -1.6117 4.18005 0
M  V30 5423 C 525.823 -3.00648 2.99685 0
M  V30 5424 C 523.73 -2.60431 5.3097 0
M  V30 5425 H 522.66 -0.465858 0.592868 0
M  V30 5426 H 525.311 -0.510645 1.76252 0
M  V30 5427 H 523.693 -3.0088 2.57463 0
M  V30 5428 H 524.867 -0.910968 4.51706 0
M  V30 5429 H 523.182 -0.97767 4.0476 0
M  V30 5430 H 525.779 -3.74903 3.81251 0
M  V30 5431 H 526.122 -3.5902 2.10738 0
M  V30 5432 H 526.655 -2.31784 3.23297 0
M  V30 5433 H 523.394 -2.06823 6.22017 0
M  V30 5434 H 522.914 -3.28707 5.01709 0
M  V30 5435 H 524.593 -3.22606 5.60834 0
M  V30 5436 N 524.725 -1.39134 -0.740242 0
M  V30 5437 C 525.635 -1.39697 -1.88473 0
M  V30 5438 C 526.651 -0.292403 -1.71526 0
M  V30 5439 O 527.827 -0.533021 -1.94219 0
M  V30 5440 C 524.892 -1.23382 -3.24003 0
M  V30 5441 C 523.953 -2.43763 -3.53381 0
M  V30 5442 C 523.186 -2.28216 -4.82445 0
M  V30 5443 O 523.409 -1.28288 -5.55786 0
M  V30 5444 O 522.343 -3.1709 -5.11603 0
M  V30 5445 H 526.169 -2.36159 -1.90952 0
M  V30 5446 H 523.754 -1.20194 -0.887346 0
M  V30 5447 H 525.636 -1.16395 -4.05006 0
M  V30 5448 H 524.311 -0.300121 -3.22306 0
M  V30 5449 H 523.218 -2.56325 -2.72485 0
M  V30 5450 H 524.551 -3.35808 -3.59852 0
M  V30 5451 N 526.204 0.969867 -1.24223 0
M  V30 5452 C 527.152 2.08535 -1.03034 0
M  V30 5453 C 528.146 1.69366 0.0340379 0
M  V30 5454 O 529.352 1.79597 -0.12034 0
M  V30 5455 H 525.727 0.682313 -0.316154 0
M  V30 5456 H 527.698 2.23569 -1.97635 0
M  V30 5457 C 526.447 3.4158 -0.649509 0
M  V30 5458 H 525.77 3.72177 -1.46028 0
M  V30 5459 H 527.21 4.20536 -0.540841 0
M  V30 5460 C 525.669 3.30703 0.643194 0
M  V30 5461 O 526.199 3.64443 1.68951 0
M  V30 5462 N 524.405 2.83841 0.623095 0
M  V30 5463 H 523.952 2.56583 -0.228719 0
M  V30 5464 H 523.91 2.76946 1.48823 0
M  V30 5465 N 527.682 1.05563 1.17022 0
M  V30 5466 C 528.93 0.76642 1.87004 0
M  V30 5467 C 529.251 -0.708854 1.8166 0
M  V30 5468 O 528.521 -1.51242 1.2451 0
M  V30 5469 H 527.101 0.280516 0.692329 0
M  V30 5470 H 529.763 1.33557 1.41945 0
M  V30 5471 H 528.859 1.08472 2.92644 0
M  V30 5472 N 529.16 -1.33526 0.837174 0
M  V30 5473 C 530.406 -1.98541 0.44193 0
M  V30 5474 C 530.761 -1.65124 -0.987517 0
M  V30 5475 O 530.054 -0.919948 -1.6807 0
M  V30 5476 C 530.248 -3.52367 0.597675 0
M  V30 5477 C 530.077 -4.00731 2.04071 0
M  V30 5478 C 528.847 -4.28649 2.67559 0
M  V30 5479 C 531.045 -4.17073 3.00923 0
M  V30 5480 N 529.027 -4.63142 4.02955 0
M  V30 5481 C 530.398 -4.54905 4.21261 0
M  V30 5482 C 532.453 -3.99358 2.97351 0
M  V30 5483 C 531.156 -4.76874 5.38501 0
M  V30 5484 C 533.182 -4.22501 4.1382 0
M  V30 5485 C 532.544 -4.60634 5.32912 0
M  V30 5486 H 528.643 -0.753246 0.210105 0
M  V30 5487 H 531.227 -1.61674 1.08488 0
M  V30 5488 H 529.398 -3.88397 -0.0154658 0
M  V30 5489 H 531.13 -4.04326 0.17404 0
M  V30 5490 H 527.885 -4.20077 2.18706 0
M  V30 5491 H 528.309 -4.84601 4.72748 0
M  V30 5492 H 532.951 -3.68993 2.06408 0
M  V30 5493 H 530.669 -5.06101 6.2999 0
M  V30 5494 H 534.255 -4.10316 4.12471 0
M  V30 5495 H 533.135 -4.78187 6.21536 0
M  V30 5496 N 530.638 -0.59345 -1.46 0
M  V30 5497 C 531.548 0.135817 -2.34207 0
M  V30 5498 C 532.564 0.875008 -1.50398 0
M  V30 5499 O 533.74 0.835778 -1.83239 0
M  V30 5500 C 530.805 1.12977 -3.27776 0
M  V30 5501 C 529.866 0.394081 -4.27487 0
M  V30 5502 C 529.099 1.34068 -5.16586 0
M  V30 5503 O 529.322 2.5778 -5.08828 0
M  V30 5504 O 528.256 0.845426 -5.95933 0
M  V30 5505 H 532.082 -0.588691 -2.9794 0
M  V30 5506 H 529.667 -0.353784 -1.45151 0
M  V30 5507 H 531.549 1.70261 -3.85473 0
M  V30 5508 H 530.224 1.83556 -2.66625 0
M  V30 5509 H 529.131 -0.220869 -3.73447 0
M  V30 5510 H 530.464 -0.270939 -4.91454 0
M  V30 5511 N 532.116 1.54067 -0.331816 0
M  V30 5512 C 533.364 2.00319 0.267739 0
M  V30 5513 C 533.685 1.22148 1.52003 0
M  V30 5514 O 532.955 0.325494 1.93177 0
M  V30 5515 H 531.535 0.740014 0.101922 0
M  V30 5516 H 534.197 1.89628 -0.450267 0
M  V30 5517 H 533.293 3.07765 0.518385 0
M  V30 5518 N 533.594 0.0601682 1.57485 0
M  V30 5519 C 534.527 -0.94676 2.07634 0
M  V30 5520 C 535.505 -1.29837 0.978826 0
M  V30 5521 O 536.689 -1.40969 1.2514 0
M  V30 5522 C 533.816 -2.25822 2.52433 0
M  V30 5523 C 532.862 -2.05901 3.73507 0
M  V30 5524 S 533.695 -1.32907 5.18745 0
M  V30 5525 C 534.851 -2.65356 5.66866 0
M  V30 5526 H 535.084 -0.520003 2.92717 0
M  V30 5527 H 532.617 -0.152319 1.53647 0
M  V30 5528 H 534.575 -3.01201 2.78905 0
M  V30 5529 H 533.236 -2.65624 1.67639 0
M  V30 5530 H 532.429 -3.02929 4.02803 0
M  V30 5531 H 532.031 -1.38659 3.47347 0
M  V30 5532 H 534.323 -3.61492 5.73001 0
M  V30 5533 H 535.266 -2.40685 6.6594 0
M  V30 5534 H 535.674 -2.72028 4.94632 0
M  V30 5535 N 535.072 -1.5615 -0.213296 0
M  V30 5536 C 536.321 -1.78743 -0.93455 0
M  V30 5537 C 536.634 -0.630199 -1.8517 0
M  V30 5538 O 537.84 -0.739966 -2.61222 0
M  V30 5539 C 536.296 -3.16571 -1.71203 0
M  V30 5540 C 535.904 -4.40043 -0.840617 0
M  V30 5541 C 537.648 -3.48485 -2.42401 0
M  V30 5542 C 535.555 -5.68895 -1.61592 0
M  V30 5543 H 534.485 -0.666426 -0.352692 0
M  V30 5544 H 537.136 -1.82532 -0.188227 0
M  V30 5545 H 535.518 -3.06981 -2.50157 0
M  V30 5546 H 536.692 -4.6071 -0.0910326 0
M  V30 5547 H 535.007 -4.15706 -0.240365 0
M  V30 5548 H 537.604 -4.41983 -3.00924 0
M  V30 5549 H 537.947 -2.71371 -3.15695 0
M  V30 5550 H 538.48 -3.59442 -1.7043 0
M  V30 5551 H 535.219 -6.48925 -0.926106 0
M  V30 5552 H 534.739 -5.52275 -2.33991 0
M  V30 5553 H 536.418 -6.09365 -2.17447 0
M  V30 5554 N 536.55 0.480323 -1.50102 0
M  V30 5555 C 537.827 1.24159 -1.51142 0
M  V30 5556 C 538.207 2.09605 -0.250818 0
M  V30 5557 O 537.555 2.15274 0.766118 0
M  V30 5558 C 537.765 2.08057 -2.80202 0
M  V30 5559 C 539.113 2.66556 -3.30504 0
M  V30 5560 O 540.137 2.18308 -2.81461 0
M  V30 5561 O 538.996 3.54442 -4.15973 0
M  V30 5562 H 536.09 0.562928 -0.605839 0
M  V30 5563 H 538.636 0.492899 -1.62384 0
M  V30 5564 H 537.408 1.45032 -3.6343 0
M  V30 5565 H 537.031 2.90079 -2.71919 0
M  V30 5566 N 538.028 1.39524 0.732853 0
M  V30 5567 C 539.276 1.36594 1.48951 0
M  V30 5568 C 539.597 -0.0367507 1.94965 0
M  V30 5569 O 538.867 -0.988391 1.69138 0
M  V30 5570 H 537.447 0.502673 0.552566 0
M  V30 5571 H 540.109 1.74411 0.869869 0
M  V30 5572 H 539.205 2.03 2.3706 0
M  V30 5573 N 539.506 -0.963266 1.24736 0
M  V30 5574 C 540.752 -1.71 1.10139 0
M  V30 5575 C 541.107 -1.89089 -0.35541 0
M  V30 5576 O 540.4 -1.44451 -1.25875 0
M  V30 5577 C 540.594 -3.09944 1.7796 0
M  V30 5578 C 540.423 -3.05408 3.30085 0
M  V30 5579 C 539.193 -3.09643 3.99311 0
M  V30 5580 C 541.391 -2.87241 4.26611 0
M  V30 5581 N 539.373 -2.95174 5.3828 0
M  V30 5582 C 540.744 -2.81114 5.52607 0
M  V30 5583 C 542.799 -2.71856 4.17132 0
M  V30 5584 C 541.502 -2.61174 6.70209 0
M  V30 5585 C 543.528 -2.53284 5.34417 0
M  V30 5586 C 542.89 -2.4787 6.59348 0
M  V30 5587 H 538.989 -0.634078 0.457678 0
M  V30 5588 H 541.573 -1.14169 1.57713 0
M  V30 5589 H 539.744 -3.64958 1.32893 0
M  V30 5590 H 541.476 -3.73348 1.56183 0
M  V30 5591 H 538.231 -3.18498 3.50508 0
M  V30 5592 H 538.655 -2.91168 6.11188 0
M  V30 5593 H 543.297 -2.74821 3.21299 0
M  V30 5594 H 541.015 -2.56952 7.6616 0
M  V30 5595 H 544.601 -2.42317 5.28936 0
M  V30 5596 H 543.481 -2.33685 7.48573 0
M  V30 5597 N 540.985 -1.06182 -1.16461 0
M  V30 5598 C 542.215 -0.797425 -1.9059 0
M  V30 5599 C 542.623 0.651845 -1.77616 0
M  V30 5600 O 541.966 1.45788 -1.11766 0
M  V30 5601 C 542.028 -1.11128 -3.41893 0
M  V30 5602 C 541.692 -2.55874 -3.78652 0
M  V30 5603 C 542.689 -3.54104 -3.80665 0
M  V30 5604 C 540.374 -2.91144 -4.09317 0
M  V30 5605 C 542.368 -4.85645 -4.12829 0
M  V30 5606 C 540.055 -4.22885 -4.41148 0
M  V30 5607 C 541.053 -5.19945 -4.42883 0
M  V30 5608 O 540.741 -6.49322 -4.73959 0
M  V30 5609 H 540.473 -0.288709 -0.611247 0
M  V30 5610 H 543.027 -1.41841 -1.4856 0
M  V30 5611 H 541.257 -0.433217 -3.84266 0
M  V30 5612 H 542.946 -0.831306 -3.97296 0
M  V30 5613 H 543.712 -3.28197 -3.57088 0
M  V30 5614 H 539.591 -2.16252 -4.07131 0
M  V30 5615 H 543.135 -5.61398 -4.14099 0
M  V30 5616 H 539.032 -4.48551 -4.6419 0
M  V30 5617 H 539.8 -6.54294 -4.91774 0
M  V30 5618 N 542.463 1.3308 -0.844243 0
M  V30 5619 C 543.711 1.97215 -0.441676 0
M  V30 5620 C 544.032 1.67185 1.0037 0
M  V30 5621 O 543.302 0.973588 1.69994 0
M  V30 5622 H 541.882 0.72959 -0.160335 0
M  V30 5623 H 544.544 1.62348 -1.07838 0
M  V30 5624 H 543.64 3.06698 -0.57815 0
M  V30 5625 N 543.941 0.601185 1.45683 0
M  V30 5626 C 545.188 0.0938811 2.02282 0
M  V30 5627 C 545.516 -1.27315 1.47041 0
M  V30 5628 O 544.771 -1.85193 0.632623 0
M  V30 5629 C 545.07 -0.00222425 3.574 0
M  V30 5630 C 544.736 1.29963 4.31764 0
M  V30 5631 C 543.398 1.65625 4.51798 0
M  V30 5632 C 545.75 2.1603 4.74321 0
M  V30 5633 C 543.078 2.87119 5.11644 0
M  V30 5634 C 545.43 3.36766 5.3551 0
M  V30 5635 C 544.094 3.72689 5.53768 0
M  V30 5636 H 543.364 0.0343535 0.740203 0
M  V30 5637 H 546.011 0.781522 1.74827 0
M  V30 5638 H 544.316 -0.773096 3.84097 0
M  V30 5639 H 546.013 -0.410794 3.9889 0
M  V30 5640 H 542.603 1.01204 4.1648 0
M  V30 5641 H 546.787 1.89778 4.58582 0
M  V30 5642 H 542.043 3.15065 5.2397 0
M  V30 5643 H 546.217 4.03713 5.67441 0
M  V30 5644 H 543.844 4.66918 5.99909 0
M  V30 5645 N 545.419 -1.53889 0.339982 0
M  V30 5646 C 546.835 -1.59595 -0.0120752 0
M  V30 5647 C 547.035 -1.35605 -1.49042 0
M  V30 5648 O 546.091 -1.14856 -2.24865 0
M  V30 5649 C 547.404 -2.9774 0.420898 0
M  V30 5650 C 548.952 -3.1077 0.37294 0
M  V30 5651 C 549.427 -4.51286 0.781327 0
M  V30 5652 N 550.918 -4.57325 0.735374 0
M  V30 5653 C 551.653 -5.64194 1.02336 0
M  V30 5654 N 551.149 -6.7893 1.37933 0
M  V30 5655 N 552.942 -5.54051 0.947838 0
M  V30 5656 H 545.093 -1.67738 1.30299 0
M  V30 5657 H 547.356 -0.785385 0.530918 0
M  V30 5658 H 547.062 -3.20349 1.45152 0
M  V30 5659 H 546.936 -3.76639 -0.205721 0
M  V30 5660 H 549.323 -2.87886 -0.648505 0
M  V30 5661 H 549.404 -2.33939 1.03472 0
M  V30 5662 H 549.048 -4.74905 1.80077 0
M  V30 5663 H 548.978 -5.26511 0.0970679 0
M  V30 5664 H 551.469 -3.74931 0.472773 0
M  V30 5665 H 551.782 -7.56392 1.58402 0
M  V30 5666 H 550.127 -6.80386 1.41774 0
M  V30 5667 H 553.318 -4.63293 0.669115 0
M  V30 5668 H 553.491 -6.37246 1.17563 0
M  V30 5669 N 546.897 -0.0685191 -1.57451 0
M  V30 5670 C 547.847 0.909895 -2.09057 0
M  V30 5671 C 548.831 1.26088 -0.999528 0
M  V30 5672 O 550.023 1.24041 -1.26265 0
M  V30 5673 C 547.152 2.17863 -2.65312 0
M  V30 5674 C 546.238 1.85427 -3.81415 0
M  V30 5675 N 546.629 1.23426 -4.9051 0
M  V30 5676 C 544.927 2.15196 -3.90649 0
M  V30 5677 C 545.628 1.09008 -5.71395 0
M  V30 5678 N 544.604 1.59871 -5.1956 0
M  V30 5679 H 548.406 0.426145 -2.90794 0
M  V30 5680 H 545.92 0.135462 -1.61834 0
M  V30 5681 H 547.917 2.88872 -3.00597 0
M  V30 5682 H 546.577 2.66829 -1.85021 0
M  V30 5683 H 547.588 0.904305 -5.09944 0
M  V30 5684 H 544.265 2.66562 -3.21327 0
M  V30 5685 H 545.655 0.607305 -6.6915 0
M  V30 5686 N 548.375 1.56261 0.205012 0
M  V30 5687 C 549.307 1.90266 1.27795 0
M  V30 5688 C 550.32 0.792397 1.42214 0
M  V30 5689 O 551.509 1.07077 1.42817 0
M  V30 5690 C 548.609 2.11074 2.65143 0
M  V30 5691 C 547.782 3.42176 2.7246 0
M  V30 5692 C 546.841 3.52216 3.90936 0
M  V30 5693 O 545.867 4.25119 3.78501 0
M  V30 5694 N 547.069 2.84573 5.05963 0
M  V30 5695 H 549.834 2.82896 0.989434 0
M  V30 5696 H 547.395 1.57008 0.394981 0
M  V30 5697 H 549.387 2.15089 3.4281 0
M  V30 5698 H 547.957 1.2499 2.86524 0
M  V30 5699 H 547.177 3.50116 1.81142 0
M  V30 5700 H 548.465 4.28509 2.74331 0
M  V30 5701 H 547.863 2.25152 5.18963 0
M  V30 5702 H 546.42 2.94228 5.81613 0
M  V30 5703 N 549.853 -0.472356 1.50355 0
M  V30 5704 C 550.801 -1.59126 1.69651 0
M  V30 5705 C 551.795 -1.59793 0.56237 0
M  V30 5706 O 553.001 -1.63957 0.742832 0
M  V30 5707 H 549.376 -0.528008 0.535454 0
M  V30 5708 H 551.347 -1.40013 2.63513 0
M  V30 5709 C 550.096 -2.97075 1.8067 0
M  V30 5710 H 549.419 -2.9728 2.67329 0
M  V30 5711 H 550.859 -3.74825 1.98197 0
M  V30 5712 C 549.318 -3.32247 0.558016 0
M  V30 5713 O 549.848 -4.00553 -0.303399 0
M  V30 5714 N 548.054 -2.87659 0.412415 0
M  V30 5715 H 547.601 -2.32246 1.11443 0
M  V30 5716 H 547.559 -3.11556 -0.421908 0
M  V30 5717 N 551.331 -1.39911 -0.725443 0
M  V30 5718 C 552.556 -1.41137 -1.5197 0
M  V30 5719 C 552.981 -0.010262 -1.88097 0
M  V30 5720 O 552.339 0.979184 -1.52583 0
M  V30 5721 C 552.387 -2.2994 -2.77777 0
M  V30 5722 O 551.491 -1.73586 -3.74088 0
M  V30 5723 H 550.832 -0.480219 -0.458569 0
M  V30 5724 H 553.362 -1.84023 -0.894249 0
M  V30 5725 H 553.372 -2.44785 -3.26411 0
M  V30 5726 H 552.047 -3.31759 -2.50816 0
M  V30 5727 H 550.624 -1.68035 -3.32894 0
M  V30 5728 N 552.809 0.956637 -1.25245 0
M  V30 5729 C 553.719 2.0868 -1.0719 0
M  V30 5730 C 554.735 1.73997 -0.00959074 0
M  V30 5731 O 555.911 2.00301 -0.210104 0
M  V30 5732 C 552.976 3.39754 -0.690526 0
M  V30 5733 C 552.037 3.88316 -1.83055 0
M  V30 5734 C 551.27 5.13134 -1.46728 0
M  V30 5735 O 551.493 5.6925 -0.362029 0
M  V30 5736 O 550.427 5.56356 -2.29677 0
M  V30 5737 H 554.253 2.26813 -2.01965 0
M  V30 5738 H 551.838 1.07098 -1.04165 0
M  V30 5739 H 553.72 4.18543 -0.489871 0
M  V30 5740 H 552.395 3.22896 0.227981 0
M  V30 5741 H 551.302 3.1054 -2.08604 0
M  V30 5742 H 552.635 4.09669 -2.72822 0
M  V30 5743 N 554.287 1.06798 1.15896 0
M  V30 5744 C 555.535 0.786211 1.8618 0
M  V30 5745 C 555.856 -0.689547 1.82401 0
M  V30 5746 O 555.126 -1.49913 1.26107 0
M  V30 5747 H 553.706 0.287843 0.689315 0
M  V30 5748 H 556.368 1.35055 1.40521 0
M  V30 5749 H 555.464 1.1157 2.91477 0
M  V30 5750 N 555.766 -1.3263 0.851289 0
M  V30 5751 C 556.994 -2.01563 0.466899 0
M  V30 5752 C 557.409 -1.63996 -0.935447 0
M  V30 5753 O 556.766 -0.85957 -1.6099 0
M  V30 5754 C 556.817 -3.56613 0.592433 0
M  V30 5755 O 556.538 -3.92828 1.93954 0
M  V30 5756 C 558.039 -4.42818 0.206612 0
M  V30 5757 H 555.259 -0.645307 0.183902 0
M  V30 5758 H 557.803 -1.69285 1.1473 0
M  V30 5759 H 555.958 -3.87379 -0.0401936 0
M  V30 5760 H 556.372 -4.87545 1.9339 0
M  V30 5761 H 557.846 -5.50918 0.345462 0
M  V30 5762 H 558.323 -4.30844 -0.85264 0
M  V30 5763 H 558.929 -4.17434 0.814176 0
M  V30 5764 N 557.244 -0.608902 -1.45362 0
M  V30 5765 C 558.492 -0.104401 -2.0183 0
M  V30 5766 C 558.813 1.27007 -1.47967 0
M  V30 5767 O 558.083 1.83924 -0.674455 0
M  V30 5768 H 556.663 -0.0356042 -0.746151 0
M  V30 5769 H 559.325 -0.790596 -1.78145 0
M  V30 5770 H 558.421 -0.0551793 -3.12051 0
M  V30 5771 N 558.722 1.53707 -0.348139 0
M  V30 5772 C 559.654 2.22725 0.540946 0
M  V30 5773 C 560.667 1.2354 1.06027 0
M  V30 5774 O 561.856 1.49867 0.96964 0
M  V30 5775 C 558.956 2.89756 1.75768 0
M  V30 5776 C 558.129 4.15297 1.37285 0
M  V30 5777 C 557.188 4.65697 2.44976 0
M  V30 5778 O 556.214 5.29798 2.08092 0
M  V30 5779 N 557.416 4.42017 3.763 0
M  V30 5780 H 560.181 2.99658 -0.0501592 0
M  V30 5781 H 557.742 1.60979 -0.17248 0
M  V30 5782 H 559.734 3.20388 2.47252 0
M  V30 5783 H 558.304 2.16382 2.25605 0
M  V30 5784 H 557.524 3.9116 0.488584 0
M  V30 5785 H 558.812 4.96948 1.09179 0
M  V30 5786 H 558.21 3.9076 4.09051 0
M  V30 5787 H 556.767 4.77242 4.4394 0
M  V30 5788 N 560.2 0.0768682 1.57412 0
M  V30 5789 C 561.163 -0.873949 2.11884 0
M  V30 5790 C 562.163 -1.22301 1.04398 0
M  V30 5791 O 563.353 -1.15545 1.30365 0
M  V30 5792 C 560.485 -2.17575 2.62438 0
M  V30 5793 H 561.678 -0.401278 2.97203 0
M  V30 5794 H 559.231 -0.171904 1.55352 0
M  V30 5795 H 559.966 -2.69368 1.80587 0
M  V30 5796 H 559.751 -1.93534 3.41009 0
M  V30 5797 H 561.241 -2.85631 3.04639 0
M  V30 5798 N 561.678 -1.56367 -0.196722 0
M  V30 5799 C 562.641 -1.93561 -1.22746 0
M  V30 5800 C 563.641 -0.816566 -1.38524 0
M  V30 5801 O 564.831 -1.084 -1.36363 0
M  V30 5802 C 561.963 -2.20823 -2.59712 0
M  V30 5803 H 563.156 -2.85774 -0.909586 0
M  V30 5804 H 560.709 -1.50032 -0.438174 0
M  V30 5805 H 561.444 -1.31243 -2.96557 0
M  V30 5806 H 561.229 -3.02368 -2.49632 0
M  V30 5807 H 562.719 -2.50608 -3.34044 0
M  V30 5808 N 563.156 0.464375 -1.50603 0
M  V30 5809 C 564.433 1.22549 -1.5245 0
M  V30 5810 C 564.813 2.09327 -0.273035 0
M  V30 5811 O 564.161 2.16074 0.743242 0
M  V30 5812 C 564.371 2.05074 -2.82393 0
M  V30 5813 C 565.719 2.63036 -3.33313 0
M  V30 5814 O 566.743 2.1531 -2.8376 0
M  V30 5815 O 565.602 3.5001 -4.19709 0
M  V30 5816 H 562.696 0.556471 -0.611775 0
M  V30 5817 H 565.242 0.475648 -1.62898 0
M  V30 5818 H 564.014 1.41169 -3.64948 0
M  V30 5819 H 563.637 2.87179 -2.7498 0
M  V30 5820 N 564.634 1.40294 0.718013 0
M  V30 5821 C 565.564 1.43118 1.84498 0
M  V30 5822 C 566.545 0.292403 1.67568 0
M  V30 5823 O 567.73 0.500675 1.87635 0
M  V30 5824 C 564.86 1.29065 3.22427 0
M  V30 5825 C 563.814 2.40521 3.54025 0
M  V30 5826 C 563.14 2.11546 4.91073 0
M  V30 5827 C 564.44 3.82859 3.55269 0
M  V30 5828 H 566.134 2.37432 1.82391 0
M  V30 5829 H 563.68 1.14283 0.87609 0
M  V30 5830 H 565.633 1.29658 4.00957 0
M  V30 5831 H 564.357 0.312271 3.25104 0
M  V30 5832 H 563.016 2.39173 2.77834 0
M  V30 5833 H 562.664 1.12104 4.90348 0
M  V30 5834 H 562.364 2.86216 5.1318 0
M  V30 5835 H 563.888 2.13817 5.71939 0
M  V30 5836 H 565.302 3.86044 4.23843 0
M  V30 5837 H 563.699 4.57029 3.88902 0
M  V30 5838 H 564.769 4.12617 2.54706 0
M  V30 5839 N 566.112 -0.949982 1.2575 0
M  V30 5840 C 567.059 -2.04738 1.06541 0
M  V30 5841 C 568.029 -1.66078 -0.0268818 0
M  V30 5842 O 569.214 -1.90348 0.131196 0
M  V30 5843 C 566.354 -3.38027 0.695127 0
M  V30 5844 C 565.467 -3.89776 1.86276 0
M  V30 5845 C 564.602 -5.11411 1.4364 0
M  V30 5846 C 563.641 -5.554 2.57287 0
M  V30 5847 N 562.778 -6.68244 2.15395 0
M  V30 5848 H 567.618 -2.20502 2.00457 0
M  V30 5849 H 565.155 -1.0805 0.998178 0
M  V30 5850 H 567.113 -4.14641 0.461375 0
M  V30 5851 H 565.743 -3.22135 -0.207046 0
M  V30 5852 H 564.795 -3.0964 2.20969 0
M  V30 5853 H 566.107 -4.18368 2.71606 0
M  V30 5854 H 565.261 -5.95457 1.16257 0
M  V30 5855 H 564 -4.84545 0.553879 0
M  V30 5856 H 563.005 -4.69916 2.85409 0
M  V30 5857 H 564.23 -5.84272 3.46125 0
M  V30 5858 H 562.176 -6.43078 1.29565 0
M  V30 5859 H 562.093 -6.96377 2.94272 0
M  V30 5860 H 563.361 -7.55687 1.91201 0
M  V30 5861 N 567.59 -1.07411 -1.15328 0
M  V30 5862 C 568.815 -0.818856 -1.90551 0
M  V30 5863 C 569.24 0.622194 -1.77512 0
M  V30 5864 O 568.598 1.43484 -1.10824 0
M  V30 5865 C 568.646 -1.23267 -3.38877 0
M  V30 5866 O 567.75 -0.378345 -4.10661 0
M  V30 5867 H 567.091 -0.29827 -0.593238 0
M  V30 5868 H 569.621 -1.43289 -1.46046 0
M  V30 5869 H 569.631 -1.20912 -3.89672 0
M  V30 5870 H 568.306 -2.28226 -3.47686 0
M  V30 5871 H 566.883 -0.464437 -3.69996 0
M  V30 5872 N 569.068 1.32177 -0.85831 0
M  V30 5873 C 570.296 2.01313 -0.477582 0
M  V30 5874 C 570.711 1.6449 0.926736 0
M  V30 5875 O 570.068 0.868096 1.60531 0
M  V30 5876 C 570.119 3.56293 -0.611337 0
M  V30 5877 O 569.84 3.91794 -1.96034 0
M  V30 5878 C 571.341 4.42702 -0.230093 0
M  V30 5879 H 568.561 0.644323 -0.187322 0
M  V30 5880 H 571.105 1.68674 -1.15626 0
M  V30 5881 H 569.26 3.87395 0.0196494 0
M  V30 5882 H 569.674 4.86513 -1.95973 0
M  V30 5883 H 571.148 5.50727 -0.374674 0
M  V30 5884 H 571.625 4.3129 0.829779 0
M  V30 5885 H 572.231 4.16997 -0.836302 0
M  V30 5886 N 570.547 0.616602 1.45037 0
M  V30 5887 C 571.479 -0.135186 2.28801 0
M  V30 5888 C 572.492 -0.82303 1.40464 0
M  V30 5889 O 573.681 -0.686909 1.64754 0
M  V30 5890 C 570.781 -1.21292 3.16451 0
M  V30 5891 C 569.954 -0.61043 4.3312 0
M  V30 5892 C 569.013 -1.58022 5.01912 0
M  V30 5893 O 568.039 -1.10301 5.58411 0
M  V30 5894 N 569.241 -2.91464 5.02025 0
M  V30 5895 H 572.006 0.583612 2.93963 0
M  V30 5896 H 569.567 0.456723 1.55324 0
M  V30 5897 H 571.559 -1.86169 3.59337 0
M  V30 5898 H 570.129 -1.83412 2.53138 0
M  V30 5899 H 569.349 0.216638 3.93604 0
M  V30 5900 H 570.637 -0.188293 5.08451 0
M  V30 5901 H 570.035 -3.32829 4.57429 0
M  V30 5902 H 568.592 -3.51741 5.48745 0
M  V30 5903 N 572.025 -1.5352 0.356285 0
M  V30 5904 C 572.988 -2.24071 -0.482182 0
M  V30 5905 C 573.988 -1.24531 -1.01729 0
M  V30 5906 O 575.178 -1.48876 -0.904513 0
M  V30 5907 C 572.31 -2.97025 -1.67299 0
M  V30 5908 H 573.503 -2.99596 0.135031 0
M  V30 5909 H 571.056 -1.55928 0.107825 0
M  V30 5910 H 571.791 -2.25719 -2.32855 0
M  V30 5911 H 571.576 -3.7005 -1.29636 0
M  V30 5912 H 573.066 -3.50683 -2.26741 0
M  V30 5913 N 573.503 -0.0852151 -1.57369 0
M  V30 5914 C 574.466 0.8627 -2.12344 0
M  V30 5915 C 575.466 1.21746 -1.05046 0
M  V30 5916 O 576.656 1.14852 -1.30976 0
M  V30 5917 C 573.788 2.1618 -2.63589 0
M  V30 5918 H 574.981 0.385511 -2.97412 0
M  V30 5919 H 572.534 0.163663 -1.55441 0
M  V30 5920 H 573.269 2.68406 -1.82013 0
M  V30 5921 H 573.054 1.91723 -3.4203 0
M  V30 5922 H 574.544 2.84011 -3.06149 0
M  V30 5923 N 574.981 1.5647 0.188427 0
M  V30 5924 C 576.23 1.80207 0.905995 0
M  V30 5925 C 576.543 0.659579 1.84144 0
M  V30 5926 O 577.749 0.781431 2.60011 0
M  V30 5927 C 576.205 3.19255 1.66145 0
M  V30 5928 C 575.813 4.41324 0.770504 0
M  V30 5929 C 577.557 3.52298 2.36826 0
M  V30 5930 C 575.464 5.71394 1.52521 0
M  V30 5931 H 574.394 0.671953 0.342045 0
M  V30 5932 H 577.045 1.82808 0.159164 0
M  V30 5933 H 575.427 3.10922 2.45242 0
M  V30 5934 H 576.601 4.60797 0.0177261 0
M  V30 5935 H 574.916 4.16035 0.174199 0
M  V30 5936 H 577.513 4.46715 2.93854 0
M  V30 5937 H 577.856 2.76359 3.11338 0
M  V30 5938 H 578.389 3.62108 1.6469 0
M  V30 5939 H 575.128 6.50316 0.82275 0
M  V30 5940 H 574.648 5.55928 2.25175 0
M  V30 5941 H 576.327 6.12747 2.07725 0
M  V30 5942 N 576.459 -0.456382 1.50847 0
M  V30 5943 C 577.736 -1.21739 1.53098 0
M  V30 5944 C 578.116 -2.09179 0.284132 0
M  V30 5945 O 577.464 -2.16466 -0.731773 0
M  V30 5946 C 577.674 -2.03573 2.83477 0
M  V30 5947 C 579.022 -2.61264 3.34703 0
M  V30 5948 O 580.046 -2.13802 2.84898 0
M  V30 5949 O 578.905 -3.47779 4.21559 0
M  V30 5950 H 575.999 -0.553219 0.614718 0
M  V30 5951 H 578.545 -0.467003 1.63148 0
M  V30 5952 H 577.317 -1.39232 3.65691 0
M  V30 5953 H 576.94 -2.85716 2.76499 0
M  V30 5954 N 577.937 -1.40673 -0.710563 0
M  V30 5955 C 578.869 -1.37256 -1.83558 0
M  V30 5956 C 579.882 -0.277133 -1.60424 0
M  V30 5957 O 581.071 -0.537831 -1.70205 0
M  V30 5958 C 578.171 -1.1144 -3.20054 0
M  V30 5959 C 577.344 -2.32734 -3.70342 0
M  V30 5960 C 576.403 -2.03002 -4.85465 0
M  V30 5961 O 575.429 -2.75912 -4.97857 0
M  V30 5962 N 576.631 -1.01105 -5.71627 0
M  V30 5963 H 579.396 -2.34215 -1.86985 0
M  V30 5964 H 576.957 -1.35091 -0.892301 0
M  V30 5965 H 578.949 -0.895265 -3.94673 0
M  V30 5966 H 577.519 -0.231307 -3.11743 0
M  V30 5967 H 576.739 -2.70446 -2.86798 0
M  V30 5968 H 578.027 -3.13584 -4.00678 0
M  V30 5969 H 577.425 -0.407303 -5.64232 0
M  V30 5970 H 575.982 -0.85182 -6.4621 0
M  V30 5971 N 579.415 0.9433 -1.26252 0
M  V30 5972 C 580.664 1.68369 -1.11062 0
M  V30 5973 C 580.977 1.92514 0.346104 0
M  V30 5974 O 582.183 2.64358 0.618646 0
M  V30 5975 C 580.639 3.03171 -1.93946 0
M  V30 5976 C 580.247 2.86782 -3.4418 0
M  V30 5977 C 581.991 3.80916 -1.87359 0
M  V30 5978 C 579.898 4.17044 -4.19319 0
M  V30 5979 H 578.828 0.631469 -0.412023 0
M  V30 5980 H 581.479 1.04922 -1.50544 0
M  V30 5981 H 579.861 3.67587 -1.47296 0
M  V30 5982 H 581.035 2.31229 -3.98585 0
M  V30 5983 H 579.35 2.22482 -3.51981 0
M  V30 5984 H 581.947 4.77417 -2.40784 0
M  V30 5985 H 582.29 4.07658 -0.843857 0
M  V30 5986 H 582.823 3.2327 -2.31821 0
M  V30 5987 H 579.562 3.95487 -5.22753 0
M  V30 5988 H 579.082 4.72319 -3.69696 0
M  V30 5989 H 580.761 4.85513 -4.27651 0
M  V30 5990 N 580.893 1.08022 1.14757 0
M  V30 5991 C 581.841 0.701088 2.21783 0
M  V30 5992 C 582.835 -0.291311 1.66876 0
M  V30 5993 O 584.041 -0.154296 1.79337 0
M  V30 5994 H 580.416 0.208668 0.722469 0
M  V30 5995 H 582.387 1.61321 2.51034 0
M  V30 5996 C 581.136 0.122278 3.47485 0
M  V30 5997 H 580.459 0.877065 3.90061 0
M  V30 5998 H 581.899 -0.105248 4.23869 0
M  V30 5999 C 580.358 -1.13883 3.17068 0
M  V30 6000 O 580.888 -2.22429 3.34497 0
M  V30 6001 N 579.094 -1.04767 2.71058 0
M  V30 6002 H 578.641 -0.164302 2.57075 0
M  V30 6003 H 578.599 -1.89224 2.51081 0
M  V30 6004 N 582.371 -1.3172 0.865308 0
M  V30 6005 C 583.619 -1.96487 0.472995 0
M  V30 6006 C 583.94 -1.68761 -0.976975 0
M  V30 6007 O 583.21 -1.00051 -1.68424 0
M  V30 6008 H 581.79 -0.726947 0.171922 0
M  V30 6009 H 584.452 -1.60612 1.10407 0
M  V30 6010 H 583.548 -3.0574 0.62687 0
M  V30 6011 N 583.85 -0.624285 -1.44708 0
M  V30 6012 C 584.797 0.0847135 -2.30644 0
M  V30 6013 C 585.767 0.843575 -1.43084 0
M  V30 6014 O 586.952 0.825982 -1.71995 0
M  V30 6015 C 584.091 1.06495 -3.28257 0
M  V30 6016 C 583.205 0.305224 -4.3092 0
M  V30 6017 C 582.34 1.27667 -5.1563 0
M  V30 6018 C 581.379 0.505706 -6.10007 0
M  V30 6019 N 580.516 1.42727 -6.8744 0
M  V30 6020 H 585.356 -0.654068 -2.90733 0
M  V30 6021 H 582.893 -0.334334 -1.4325 0
M  V30 6022 H 584.851 1.64658 -3.83332 0
M  V30 6023 H 583.481 1.77094 -2.69884 0
M  V30 6024 H 582.533 -0.392207 -3.78373 0
M  V30 6025 H 583.845 -0.295553 -4.97924 0
M  V30 6026 H 582.999 1.92984 -5.75189 0
M  V30 6027 H 581.738 1.91137 -4.48685 0
M  V30 6028 H 580.743 -0.160999 -5.49564 0
M  V30 6029 H 581.968 -0.124183 -6.78986 0
M  V30 6030 H 579.913 2.04931 -6.23169 0
M  V30 6031 H 579.831 0.880345 -7.50857 0
M  V30 6032 H 581.099 2.0695 -7.51526 0
M  V30 6033 N 585.328 1.53329 -0.364422 0
M  V30 6034 C 586.258 2.28627 0.474543 0
M  V30 6035 C 587.239 1.31009 1.08492 0
M  V30 6036 O 588.424 1.59878 1.10239 0
M  V30 6037 C 585.554 3.07465 1.61501 0
M  V30 6038 C 584.508 4.1276 1.13194 0
M  V30 6039 C 583.834 4.79674 2.36255 0
M  V30 6040 C 585.134 5.21847 0.217507 0
M  V30 6041 H 586.828 2.99005 -0.153656 0
M  V30 6042 H 584.374 1.43803 -0.0753406 0
M  V30 6043 H 586.327 3.58889 2.20855 0
M  V30 6044 H 585.051 2.34775 2.27042 0
M  V30 6045 H 583.71 3.62281 0.56109 0
M  V30 6046 H 583.358 4.03557 3.00251 0
M  V30 6047 H 583.058 5.50827 2.04606 0
M  V30 6048 H 584.582 5.33892 2.96297 0
M  V30 6049 H 585.996 5.6878 0.718493 0
M  V30 6050 H 584.393 6.00099 -0.00806408 0
M  V30 6051 H 585.463 4.7921 -0.740653 0
M  V30 6052 N 586.806 0.0935595 1.57322 0
M  V30 6053 C 587.754 -0.883457 2.15169 0
M  V30 6054 C 588.748 -1.29324 1.09415 0
M  V30 6055 O 589.954 -1.26795 1.27762 0
M  V30 6056 H 586.329 -0.302923 0.688289 0
M  V30 6057 H 588.3 -0.370845 2.96087 0
M  V30 6058 C 587.049 -2.13345 2.74552 0
M  V30 6059 H 586.372 -1.82702 3.55612 0
M  V30 6060 H 587.812 -2.7977 3.18598 0
M  V30 6061 C 586.271 -2.90646 1.70371 0
M  V30 6062 O 586.801 -3.85133 1.14173 0
M  V30 6063 N 585.007 -2.54157 1.40899 0
M  V30 6064 H 584.554 -1.77391 1.86789 0
M  V30 6065 H 584.512 -3.06178 0.714301 0
M  V30 6066 N 588.284 -1.56567 -0.180126 0
M  V30 6067 C 589.7 -1.50488 -0.531559 0
M  V30 6068 C 589.9 -0.796267 -1.851 0
M  V30 6069 O 588.956 -0.352978 -2.50021 0
M  V30 6070 C 590.269 -2.95201 -0.572456 0
M  V30 6071 C 591.817 -3.05957 -0.660264 0
M  V30 6072 C 592.292 -4.5211 -0.732135 0
M  V30 6073 N 593.783 -4.56322 -0.795262 0
M  V30 6074 C 594.518 -5.66742 -0.871296 0
M  V30 6075 N 594.014 -6.86815 -0.908708 0
M  V30 6076 N 595.807 -5.54691 -0.909639 0
M  V30 6077 H 587.958 -2.01045 0.685165 0
M  V30 6078 H 590.221 -0.915536 0.245962 0
M  V30 6079 H 589.927 -3.50165 0.328208 0
M  V30 6080 H 589.801 -3.49369 -1.422 0
M  V30 6081 H 592.188 -2.51032 -1.55136 0
M  V30 6082 H 592.269 -2.54888 0.215783 0
M  V30 6083 H 591.913 -5.07664 0.154664 0
M  V30 6084 H 591.843 -5.00926 -1.6242 0
M  V30 6085 H 594.334 -3.69868 -0.77499 0
M  V30 6086 H 594.647 -7.66718 -0.967654 0
M  V30 6087 H 592.992 -6.89443 -0.877132 0
M  V30 6088 H 596.183 -4.59804 -0.877353 0
M  V30 6089 H 596.356 -6.40768 -0.965434 0
M  V30 6090 N 589.762 0.448376 -1.51087 0
M  V30 6091 C 591.008 1.20049 -1.6345 0
M  V30 6092 C 591.341 1.91121 -0.344444 0
M  V30 6093 O 590.616 1.83125 0.655396 0
M  V30 6094 C 590.899 2.22624 -2.83038 0
M  V30 6095 C 590.752 1.55708 -4.21989 0
M  V30 6096 C 592.071 3.23718 -2.98152 0
M  V30 6097 H 589.19 0.435085 -0.59487 0
M  V30 6098 H 591.832 0.491183 -1.83541 0
M  V30 6099 H 589.982 2.83117 -2.66039 0
M  V30 6100 H 591.654 0.986367 -4.50631 0
M  V30 6101 H 589.897 0.859647 -4.25197 0
M  V30 6102 H 590.568 2.30357 -5.01637 0
M  V30 6103 H 593.044 2.73269 -3.13788 0
M  V30 6104 H 591.92 3.92795 -3.83411 0
M  V30 6105 H 592.181 3.89179 -2.09743 0
M  V30 6106 N 591.24 1.41047 0.703093 0
M  V30 6107 C 592.489 1.39301 1.4587 0
M  V30 6108 C 592.802 0.00267077 1.956 0
M  V30 6109 O 594.008 -0.137414 2.71152 0
M  V30 6110 C 592.464 2.44891 2.63735 0
M  V30 6111 C 592.072 3.89796 2.20824 0
M  V30 6112 C 593.816 2.5227 3.41409 0
M  V30 6113 C 591.723 4.86955 3.35602 0
M  V30 6114 H 590.653 0.518005 0.547893 0
M  V30 6115 H 593.304 1.66839 0.764009 0
M  V30 6116 H 591.686 2.10472 3.35436 0
M  V30 6117 H 592.86 4.33424 1.56461 0
M  V30 6118 H 591.175 3.86008 1.56163 0
M  V30 6119 H 593.772 3.22044 4.26839 0
M  V30 6120 H 594.115 1.55714 3.86081 0
M  V30 6121 H 594.648 2.85742 2.7676 0
M  V30 6122 H 591.387 5.84888 2.9595 0
M  V30 6123 H 590.907 4.47982 3.98839 0
M  V30 6124 H 592.586 5.07361 4.01489 0
M  V30 6125 N 592.718 -0.936591 1.26751 0
M  V30 6126 C 593.628 -2.06949 1.10496 0
M  V30 6127 C 594.644 -1.7396 0.037271 0
M  V30 6128 O 595.82 -1.99941 0.241944 0
M  V30 6129 C 592.885 -3.38612 0.744491 0
M  V30 6130 C 591.946 -3.85355 1.89209 0
M  V30 6131 C 591.179 -5.10735 1.54873 0
M  V30 6132 O 591.402 -5.68602 0.452546 0
M  V30 6133 O 590.336 -5.52632 2.38499 0
M  V30 6134 H 594.162 -2.23571 2.05547 0
M  V30 6135 H 591.747 -1.05428 1.05855 0
M  V30 6136 H 593.629 -4.17711 0.556396 0
M  V30 6137 H 592.304 -3.23218 -0.176582 0
M  V30 6138 H 591.211 -3.07182 2.13518 0
M  V30 6139 H 592.544 -4.05277 2.79305 0
M  V30 6140 N 594.196 -1.08629 -1.14182 0
M  V30 6141 C 595.143 -0.718299 -2.19338 0
M  V30 6142 C 596.113 0.296587 -1.63431 0
M  V30 6143 O 597.298 0.180079 -1.89948 0
M  V30 6144 C 594.438 -0.136203 -3.44831 0
M  V30 6145 C 593.551 -1.20414 -4.14879 0
M  V30 6146 C 592.686 -0.585666 -5.27962 0
M  V30 6147 C 591.725 -1.63548 -5.89846 0
M  V30 6148 N 590.862 -1.03864 -6.94375 0
M  V30 6149 H 595.702 -1.61932 -2.50164 0
M  V30 6150 H 593.239 -0.80919 -1.22844 0
M  V30 6151 H 595.197 0.219021 -4.16625 0
M  V30 6152 H 593.827 0.728121 -3.14481 0
M  V30 6153 H 592.879 -1.67676 -3.41451 0
M  V30 6154 H 594.191 -1.99959 -4.56966 0
M  V30 6155 H 593.345 -0.178818 -6.06436 0
M  V30 6156 H 592.084 0.24142 -4.87102 0
M  V30 6157 H 591.089 -2.05197 -5.10073 0
M  V30 6158 H 592.314 -2.46509 -6.3278 0
M  V30 6159 H 590.26 -0.232687 -6.55587 0
M  V30 6160 H 590.177 -1.77116 -7.3496 0
M  V30 6161 H 591.445 -0.657724 -7.7672 0
M  V30 6162 N 595.674 1.31259 -0.872281 0
M  V30 6163 C 596.902 2.00795 -0.498907 0
M  V30 6164 C 597.317 1.65464 0.909238 0
M  V30 6165 O 596.674 0.885073 1.59602 0
M  V30 6166 C 596.725 3.55625 -0.649092 0
M  V30 6167 O 596.446 3.89692 -2.00179 0
M  V30 6168 C 597.947 4.42434 -0.277034 0
M  V30 6169 H 595.167 0.642299 -0.194145 0
M  V30 6170 H 597.711 1.67438 -1.17408 0
M  V30 6171 H 595.866 3.87394 -0.0214402 0
M  V30 6172 H 596.28 4.84407 -2.01122 0
M  V30 6173 H 597.754 5.50299 -0.433064 0
M  V30 6174 H 598.231 4.32146 0.783989 0
M  V30 6175 H 598.837 4.16086 -0.880483 0
M  V30 6176 N 597.152 0.631951 1.44375 0
M  V30 6177 C 598.1 -0.0846693 2.32446 0
M  V30 6178 C 599.094 -0.834957 1.47393 0
M  V30 6179 O 600.3 -0.747764 1.63733 0
M  V30 6180 H 596.675 -0.0461508 0.750583 0
M  V30 6181 H 598.646 0.67619 2.90638 0
M  V30 6182 C 597.395 -1.05211 3.314 0
M  V30 6183 H 596.718 -0.484203 3.96857 0
M  V30 6184 H 598.158 -1.523 3.95703 0
M  V30 6185 C 596.617 -2.13776 2.60387 0
M  V30 6186 O 597.147 -3.21869 2.4034 0
M  V30 6187 N 595.353 -1.89733 2.20113 0
M  V30 6188 H 594.9 -1.01833 2.36618 0
M  V30 6189 H 594.858 -2.62572 1.72926 0
M  V30 6190 N 598.631 -1.53133 0.372548 0
M  V30 6191 C 599.541 -2.29671 -0.478379 0
M  V30 6192 C 600.557 -1.35913 -1.08644 0
M  V30 6193 O 601.733 -1.68975 -1.09588 0
M  V30 6194 C 598.798 -3.07625 -1.599 0
M  V30 6195 C 597.859 -4.17061 -1.01776 0
M  V30 6196 C 597.092 -4.91289 -2.08497 0
M  V30 6197 O 597.315 -4.65442 -3.29727 0
M  V30 6198 O 596.249 -5.7705 -1.71164 0
M  V30 6199 H 600.075 -3.03355 0.144649 0
M  V30 6200 H 597.66 -1.48773 0.136729 0
M  V30 6201 H 599.542 -3.56281 -2.25038 0
M  V30 6202 H 598.217 -2.3677 -2.2073 0
M  V30 6203 H 597.124 -3.72641 -0.330098 0
M  V30 6204 H 598.457 -4.90102 -0.453915 0
M  V30 6205 N 600.109 -0.101901 -1.5727 0
M  V30 6206 C 601.056 0.854577 -2.14396 0
M  V30 6207 C 602.026 1.27521 -1.06432 0
M  V30 6208 O 603.211 1.35575 -1.34253 0
M  V30 6209 C 600.351 2.10576 -2.73408 0
M  V30 6210 C 599.464 1.73504 -3.95626 0
M  V30 6211 C 598.599 2.9346 -4.42781 0
M  V30 6212 C 597.638 2.52547 -5.57572 0
M  V30 6213 N 596.775 3.65359 -5.99547 0
M  V30 6214 H 601.615 0.360578 -2.9581 0
M  V30 6215 H 599.152 0.166303 -1.46157 0
M  V30 6216 H 601.11 2.83859 -3.05745 0
M  V30 6217 H 599.74 2.57463 -1.94711 0
M  V30 6218 H 598.792 0.901622 -3.6956 0
M  V30 6219 H 600.104 1.39426 -4.78917 0
M  V30 6220 H 599.258 3.74988 -4.76937 0
M  V30 6221 H 597.997 3.30753 -3.58404 0
M  V30 6222 H 597.002 1.69446 -5.23037 0
M  V30 6223 H 598.227 2.1639 -6.43702 0
M  V30 6224 H 596.173 4.02358 -5.18116 0
M  V30 6225 H 596.09 3.35148 -6.77652 0
M  V30 6226 H 597.358 4.47378 -6.38336 0
M  V30 6227 N 601.587 1.56661 0.17182 0
M  V30 6228 C 602.834 1.81965 0.888529 0
M  V30 6229 C 603.162 0.6789 1.82267 0
M  V30 6230 O 602.417 -0.333875 1.92831 0
M  V30 6231 C 602.716 3.13435 1.71736 0
M  V30 6232 C 602.382 4.41159 0.932184 0
M  V30 6233 C 601.044 4.75851 0.715481 0
M  V30 6234 C 603.396 5.19803 0.381387 0
M  V30 6235 C 600.724 5.86666 -0.063126 0
M  V30 6236 C 603.076 6.31433 -0.384129 0
M  V30 6237 C 601.74 6.64692 -0.611637 0
M  V30 6238 H 601.01 0.665859 0.325136 0
M  V30 6239 H 603.657 1.90884 0.153495 0
M  V30 6240 H 601.962 2.99857 2.52177 0
M  V30 6241 H 603.659 3.30224 2.27493 0
M  V30 6242 H 600.249 4.13947 1.11112 0
M  V30 6243 H 604.433 4.93396 0.536148 0
M  V30 6244 H 599.689 6.10892 -0.249136 0
M  V30 6245 H 603.863 6.91577 -0.818185 0
M  V30 6246 H 601.49 7.50398 -1.21684 0
M  V30 6247 N 603.065 -0.440357 1.51323 0
M  V30 6248 C 604.015 -1.53263 1.68803 0
M  V30 6249 C 604.999 -1.51494 0.542057 0
M  V30 6250 O 606.191 -1.57999 0.797839 0
M  V30 6251 C 603.32 -2.91479 1.8137 0
M  V30 6252 C 602.406 -2.98015 3.01742 0
M  V30 6253 N 602.797 -2.743 4.24962 0
M  V30 6254 C 601.095 -3.29173 3.00934 0
M  V30 6255 C 601.796 -2.86601 5.06197 0
M  V30 6256 N 600.772 -3.1814 4.40781 0
M  V30 6257 H 604.574 -1.33675 2.61741 0
M  V30 6258 H 602.088 -0.647616 1.48929 0
M  V30 6259 H 604.085 -3.70055 1.92002 0
M  V30 6260 H 602.745 -3.12089 0.896117 0
M  V30 6261 H 603.756 -2.49287 4.53957 0
M  V30 6262 H 600.433 -3.55577 2.18796 0
M  V30 6263 H 601.823 -2.72246 6.14274 0
M  V30 6264 N 604.543 -1.41418 -0.695603 0
M  V30 6265 C 605.475 -1.39195 -1.82092 0
M  V30 6266 C 606.488 -0.294132 -1.60121 0
M  V30 6267 O 607.677 -0.555854 -1.69625 0
M  V30 6268 C 604.777 -1.14828 -3.18854 0
M  V30 6269 C 603.95 -2.36649 -3.67853 0
M  V30 6270 C 603.009 -2.08139 -4.83285 0
M  V30 6271 O 602.035 -2.81177 -4.94902 0
M  V30 6272 N 603.237 -1.07162 -5.70523 0
M  V30 6273 H 606.002 -2.36185 -1.84491 0
M  V30 6274 H 603.563 -1.3603 -0.877923 0
M  V30 6275 H 605.555 -0.937075 -3.93702 0
M  V30 6276 H 604.125 -0.264358 -3.1148 0
M  V30 6277 H 603.345 -2.73472 -2.83913 0
M  V30 6278 H 604.633 -3.17816 -3.97329 0
M  V30 6279 H 604.031 -0.467124 -5.63768 0
M  V30 6280 H 602.588 -0.920311 -6.4527 0
M  V30 6281 N 606.021 0.929856 -1.27246 0
M  V30 6282 C 607.27 1.67182 -1.12842 0
M  V30 6283 C 607.583 1.9287 0.325666 0
M  V30 6284 O 608.789 2.64999 0.590572 0
M  V30 6285 C 607.245 3.01097 -1.97151 0
M  V30 6286 C 606.853 2.83115 -3.47203 0
M  V30 6287 C 608.597 3.78907 -1.91389 0
M  V30 6288 C 606.504 4.12573 -4.23719 0
M  V30 6289 H 605.434 0.627064 -0.418697 0
M  V30 6290 H 608.085 1.0332 -1.51649 0
M  V30 6291 H 606.467 3.66004 -1.51186 0
M  V30 6292 H 607.641 2.26989 -4.01015 0
M  V30 6293 H 605.956 2.18736 -3.54321 0
M  V30 6294 H 608.553 4.74837 -2.45834 0
M  V30 6295 H 608.896 4.0674 -0.887047 0
M  V30 6296 H 609.429 3.20794 -2.35237 0
M  V30 6297 H 606.168 3.8992 -5.26918 0
M  V30 6298 H 605.688 4.68371 -3.74685 0
M  V30 6299 H 607.367 4.8095 -4.32777 0
M  V30 6300 N 607.499 1.09233 1.13605 0
M  V30 6301 C 608.409 0.741939 2.22559 0
M  V30 6302 C 609.425 -0.255236 1.72118 0
M  V30 6303 O 610.601 -0.0970747 2.01166 0
M  V30 6304 C 607.666 0.165595 3.46304 0
M  V30 6305 C 606.727 1.21846 4.11645 0
M  V30 6306 C 605.96 0.669526 5.29484 0
M  V30 6307 O 606.183 -0.508228 5.68131 0
M  V30 6308 O 605.117 1.42361 5.84822 0
M  V30 6309 H 608.943 1.65107 2.54899 0
M  V30 6310 H 606.528 0.866584 1.21699 0
M  V30 6311 H 608.41 -0.152592 4.21124 0
M  V30 6312 H 607.085 -0.716573 3.15669 0
M  V30 6313 H 605.992 1.58931 3.38662 0
M  V30 6314 H 607.325 2.07321 4.46407 0
M  V30 6315 N 608.977 -1.30795 0.87923 0
M  V30 6316 C 609.924 -2.28282 0.339968 0
M  V30 6317 C 610.894 -1.56134 -0.566685 0
M  V30 6318 O 612.079 -1.84231 -0.496338 0
M  V30 6319 C 609.219 -3.42225 -0.444501 0
M  V30 6320 C 608.332 -4.29204 0.490717 0
M  V30 6321 C 607.467 -5.30302 -0.308784 0
M  V30 6322 C 606.506 -6.08929 0.622272 0
M  V30 6323 N 605.643 -7.01957 -0.14155 0
M  V30 6324 H 610.483 -2.73794 1.17647 0
M  V30 6325 H 608.02 -1.34682 0.591527 0
M  V30 6326 H 609.978 -4.07038 -0.915186 0
M  V30 6327 H 608.608 -2.97799 -1.24562 0
M  V30 6328 H 607.66 -3.6475 1.07988 0
M  V30 6329 H 608.972 -4.84045 1.20425 0
M  V30 6330 H 608.126 -6.00835 -0.841575 0
M  V30 6331 H 606.865 -4.7614 -1.05556 0
M  V30 6332 H 605.87 -5.37278 1.16674 0
M  V30 6333 H 607.095 -6.65178 1.36804 0
M  V30 6334 H 605.041 -6.50192 -0.870966 0
M  V30 6335 H 604.958 -7.54261 0.51246 0
M  V30 6336 H 606.226 -7.76741 -0.655271 0
M  V30 6337 N 610.455 -0.639598 -1.44038 0
M  V30 6338 C 611.365 0.0612377 -2.3452 0
M  V30 6339 C 612.381 0.826717 -1.53106 0
M  V30 6340 O 613.557 0.777059 -1.85806 0
M  V30 6341 C 610.622 1.02492 -3.31204 0
M  V30 6342 C 609.683 0.25788 -4.28525 0
M  V30 6343 C 608.916 1.17566 -5.2059 0
M  V30 6344 O 609.139 2.41461 -5.16771 0
M  V30 6345 O 608.073 0.655407 -5.98321 0
M  V30 6346 H 611.899 -0.68318 -2.95916 0
M  V30 6347 H 609.484 -0.399784 -1.43952 0
M  V30 6348 H 611.366 1.57911 -3.90694 0
M  V30 6349 H 610.041 1.7498 -2.7233 0
M  V30 6350 H 608.948 -0.339566 -3.72556 0
M  V30 6351 H 610.281 -0.427154 -4.90343 0
M  V30 6352 N 611.933 1.52934 -0.380664 0
M  V30 6353 C 613.18 2.01467 0.204278 0
M  V30 6354 C 613.508 1.26744 1.47533 0
M  V30 6355 O 612.763 0.353723 1.92477 0
M  V30 6356 C 613.062 3.5349 0.527199 0
M  V30 6357 C 612.728 4.46171 -0.651295 0
M  V30 6358 C 611.39 4.71227 -0.974619 0
M  V30 6359 C 613.742 5.00909 -1.44012 0
M  V30 6360 C 611.07 5.4827 -2.08847 0
M  V30 6361 C 613.422 5.7917 -2.5445 0
M  V30 6362 C 612.086 6.02507 -2.87301 0
M  V30 6363 H 611.356 0.73722 0.0747504 0
M  V30 6364 H 614.003 1.84411 -0.516234 0
M  V30 6365 H 612.308 3.68574 1.32892 0
M  V30 6366 H 614.005 3.88529 0.992283 0
M  V30 6367 H 610.595 4.26829 -0.389276 0
M  V30 6368 H 614.779 4.81485 -1.20357 0
M  V30 6369 H 610.035 5.64567 -2.34679 0
M  V30 6370 H 614.209 6.20588 -3.1598 0
M  V30 6371 H 611.836 6.61989 -3.7373 0
M  V30 6372 N 613.412 0.11024 1.57214 0
M  V30 6373 C 614.637 -0.561179 1.99664 0
M  V30 6374 C 615.062 -1.59985 0.989266 0
M  V30 6375 O 614.42 -1.81255 -0.0402399 0
M  V30 6376 C 614.468 -1.17189 3.41027 0
M  V30 6377 O 613.572 -2.28755 3.4314 0
M  V30 6378 H 612.913 -0.14101 0.648855 0
M  V30 6379 H 615.443 0.196128 2.03658 0
M  V30 6380 H 615.453 -1.50954 3.79047 0
M  V30 6381 H 614.128 -0.411041 4.13864 0
M  V30 6382 H 612.705 -1.96495 3.16929 0
M  V30 6383 N 614.89 -1.56749 -0.16351 0
M  V30 6384 C 615.8 -2.00255 -1.2221 0
M  V30 6385 C 616.816 -0.915194 -1.47987 0
M  V30 6386 O 617.992 -1.22342 -1.59982 0
M  V30 6387 C 615.057 -2.36035 -2.53946 0
M  V30 6388 C 614.118 -3.58637 -2.35962 0
M  V30 6389 C 613.351 -3.92701 -3.61416 0
M  V30 6390 O 613.574 -3.27632 -4.66919 0
M  V30 6391 O 612.508 -4.86019 -3.55062 0
M  V30 6392 H 616.334 -2.90586 -0.882794 0
M  V30 6393 H 613.919 -1.44721 -0.370978 0
M  V30 6394 H 615.801 -2.59982 -3.31643 0
M  V30 6395 H 614.476 -1.48863 -2.8744 0
M  V30 6396 H 613.383 -3.39898 -1.5627 0
M  V30 6397 H 614.716 -4.46374 -2.0739 0
M  V30 6398 N 616.368 0.432326 -1.51554 0
M  V30 6399 C 617.614 1.18309 -1.64714 0
M  V30 6400 C 617.947 1.90745 -0.364696 0
M  V30 6401 O 617.222 1.8381 0.635936 0
M  V30 6402 C 617.505 2.1961 -2.85383 0
M  V30 6403 C 617.358 1.51223 -4.23617 0
M  V30 6404 C 618.677 3.20538 -3.01569 0
M  V30 6405 H 615.796 0.428751 -0.599451 0
M  V30 6406 H 618.438 0.471689 -1.84052 0
M  V30 6407 H 616.588 2.8028 -2.69027 0
M  V30 6408 H 618.26 0.938516 -4.51652 0
M  V30 6409 H 616.503 0.814501 -4.26085 0
M  V30 6410 H 617.174 2.25024 -5.04052 0
M  V30 6411 H 619.65 2.69926 -3.16669 0
M  V30 6412 H 618.526 3.88706 -3.87555 0
M  V30 6413 H 618.787 3.86933 -2.13859 0
M  V30 6414 N 617.846 1.41785 0.688094 0
M  V30 6415 C 618.756 1.46596 1.83158 0
M  V30 6416 C 619.772 0.355862 1.70322 0
M  V30 6417 O 620.948 0.604737 1.92106 0
M  V30 6418 C 618.013 1.35322 3.192 0
M  V30 6419 C 617.074 2.56711 3.4409 0
M  V30 6420 C 616.307 2.45965 4.73642 0
M  V30 6421 O 616.53 1.48827 5.50642 0
M  V30 6422 O 615.464 3.35859 4.99482 0
M  V30 6423 H 619.29 2.43083 1.82056 0
M  V30 6424 H 616.875 1.23404 0.842126 0
M  V30 6425 H 618.757 1.31347 4.00407 0
M  V30 6426 H 617.432 0.419536 3.2097 0
M  V30 6427 H 616.339 2.66262 2.62784 0
M  V30 6428 H 617.672 3.48933 3.47141 0
M  V30 6429 N 619.324 -0.923095 1.27737 0
M  V30 6430 C 620.572 -1.66797 1.14119 0
M  V30 6431 C 620.893 -1.92479 -0.312541 0
M  V30 6432 O 620.163 -1.53432 -1.218 0
M  V30 6433 H 618.743 -0.618196 0.419336 0
M  V30 6434 H 621.405 -1.10815 1.60331 0
M  V30 6435 H 620.501 -2.63424 1.67374 0
M  V30 6436 N 620.802 -1.09834 -1.13024 0
M  V30 6437 C 622.218 -0.828875 -1.36388 0
M  V30 6438 C 622.418 0.554756 -1.93713 0
M  V30 6439 O 621.474 1.30882 -2.15931 0
M  V30 6440 C 622.787 -1.92352 -2.3113 0
M  V30 6441 C 624.335 -1.95124 -2.44735 0
M  V30 6442 C 624.81 -3.03745 -3.42787 0
M  V30 6443 N 626.301 -3.03012 -3.5034 0
M  V30 6444 C 627.036 -3.83699 -4.26101 0
M  V30 6445 N 626.532 -4.74306 -5.04981 0
M  V30 6446 N 628.325 -3.71942 -4.21445 0
M  V30 6447 H 620.476 -1.99029 -0.74169 0
M  V30 6448 H 622.739 -0.864557 -0.388903 0
M  V30 6449 H 622.445 -2.91906 -1.96172 0
M  V30 6450 H 622.319 -1.80536 -3.3119 0
M  V30 6451 H 624.706 -0.962069 -2.78977 0
M  V30 6452 H 624.787 -2.11018 -1.44586 0
M  V30 6453 H 624.431 -4.02878 -3.09276 0
M  V30 6454 H 624.361 -2.85094 -4.42752 0
M  V30 6455 H 626.852 -2.37352 -2.94062 0
M  V30 6456 H 627.165 -5.32446 -5.60108 0
M  V30 6457 H 625.51 -4.78339 -5.04199 0
M  V30 6458 H 628.701 -3.00513 -3.589 0
M  V30 6459 H 628.874 -4.35062 -4.80235 0
M  V30 6460 N 622.28 1.30327 -0.886154 0
M  V30 6461 C 623.529 1.95373 -0.501243 0
M  V30 6462 C 623.842 1.70722 0.954634 0
M  V30 6463 O 625.048 2.29761 1.44644 0
M  V30 6464 C 623.504 3.49828 -0.845493 0
M  V30 6465 C 623.112 3.83296 -2.31922 0
M  V30 6466 C 624.856 4.2118 -0.529838 0
M  V30 6467 C 622.763 5.30935 -2.60504 0
M  V30 6468 H 621.693 0.731274 -0.183722 0
M  V30 6469 H 624.344 1.48258 -1.08129 0
M  V30 6470 H 622.726 3.95522 -0.19452 0
M  V30 6471 H 623.9 3.48508 -3.01461 0
M  V30 6472 H 622.215 3.2505 -2.60253 0
M  V30 6473 H 624.812 5.29825 -0.720401 0
M  V30 6474 H 625.155 4.12902 0.530828 0
M  V30 6475 H 625.688 3.81173 -1.13806 0
M  V30 6476 H 622.427 5.44265 -3.65316 0
M  V30 6477 H 621.947 5.67019 -1.95575 0
M  V30 6478 H 623.626 5.98381 -2.46066 0
M  V30 6479 N 623.758 0.647228 1.43697 0
M  V30 6480 C 624.69 -0.0866232 2.29036 0
M  V30 6481 C 625.703 -0.793051 1.42178 0
M  V30 6482 O 626.892 -0.651807 1.66174 0
M  V30 6483 C 623.992 -1.14552 3.18953 0
M  V30 6484 C 623.165 -0.518422 4.34317 0
M  V30 6485 C 622.224 -1.4734 5.05151 0
M  V30 6486 O 621.25 -0.984312 5.60625 0
M  V30 6487 N 622.452 -2.8075 5.08094 0
M  V30 6488 H 625.217 0.645834 2.92659 0
M  V30 6489 H 622.778 0.489567 1.54321 0
M  V30 6490 H 624.77 -1.78505 3.63205 0
M  V30 6491 H 623.34 -1.78001 2.56971 0
M  V30 6492 H 622.56 0.300079 3.93056 0
M  V30 6493 H 623.848 -0.080401 5.08736 0
M  V30 6494 H 623.246 -3.23052 4.64386 0
M  V30 6495 H 621.803 -3.40022 5.56083 0
M  V30 6496 N 625.236 -1.5273 0.388769 0
M  V30 6497 C 626.513 -1.93981 -0.251133 0
M  V30 6498 C 626.893 -1.32418 -1.64404 0
M  V30 6499 O 626.241 -0.492074 -2.23139 0
M  V30 6500 C 626.451 -3.47891 -0.27802 0
M  V30 6501 C 627.799 -4.21559 -0.507229 0
M  V30 6502 O 628.823 -3.54394 -0.358252 0
M  V30 6503 O 627.682 -5.40626 -0.799094 0
M  V30 6504 H 624.776 -0.812157 -0.15598 0
M  V30 6505 H 627.322 -1.63809 0.443237 0
M  V30 6506 H 626.094 -3.8503 0.697669 0
M  V30 6507 H 625.717 -3.84364 -1.01733 0
M  V30 6508 N 626.714 -0.118576 -1.57153 0
M  V30 6509 C 627.644 0.828436 -2.1831 0
M  V30 6510 C 628.625 1.27758 -1.12303 0
M  V30 6511 O 629.81 1.34026 -1.40537 0
M  V30 6512 C 626.94 2.07876 -2.78217 0
M  V30 6513 C 625.894 1.76742 -3.89803 0
M  V30 6514 C 625.22 3.08801 -4.36516 0
M  V30 6515 C 626.52 1.03606 -5.11921 0
M  V30 6516 H 628.214 0.318824 -2.97698 0
M  V30 6517 H 625.76 0.151911 -1.43196 0
M  V30 6518 H 627.713 2.74584 -3.19659 0
M  V30 6519 H 626.437 2.61161 -1.96118 0
M  V30 6520 H 625.096 1.12424 -3.48936 0
M  V30 6521 H 624.744 3.6002 -3.51276 0
M  V30 6522 H 624.444 2.88743 -5.11763 0
M  V30 6523 H 625.968 3.76627 -4.80608 0
M  V30 6524 H 627.382 1.60467 -5.50385 0
M  V30 6525 H 625.779 0.936454 -5.92748 0
M  V30 6526 H 626.849 0.0227421 -4.84895 0
M  V30 6527 N 628.193 1.56834 0.155195 0
M  V30 6528 C 629.103 2.009 1.21146 0
M  V30 6529 C 630.119 0.923029 1.475 0
M  V30 6530 O 631.295 1.23189 1.59331 0
M  V30 6531 C 628.36 2.37378 2.52691 0
M  V30 6532 C 627.421 3.59883 2.34057 0
M  V30 6533 C 626.654 3.94612 3.59329 0
M  V30 6534 O 626.877 3.30104 4.65175 0
M  V30 6535 O 625.811 4.87895 3.52479 0
M  V30 6536 H 629.637 2.9105 0.867371 0
M  V30 6537 H 627.222 1.44916 0.363298 0
M  V30 6538 H 629.104 2.61737 3.3026 0
M  V30 6539 H 627.779 1.50385 2.86646 0
M  V30 6540 H 626.686 3.40722 1.54465 0
M  V30 6541 H 628.019 4.47468 2.0502 0
M  V30 6542 N 629.671 -0.424282 1.51781 0
M  V30 6543 C 630.618 -1.51591 1.74037 0
M  V30 6544 C 631.588 -1.55556 0.582358 0
M  V30 6545 O 632.773 -1.72364 0.818245 0
M  V30 6546 C 629.913 -2.89188 1.8832 0
M  V30 6547 C 629.026 -2.9465 3.1592 0
M  V30 6548 C 628.161 -4.23452 3.20721 0
M  V30 6549 C 627.2 -4.22831 4.42584 0
M  V30 6550 N 626.337 -5.43178 4.44862 0
M  V30 6551 H 631.177 -1.31917 2.67212 0
M  V30 6552 H 628.714 -0.640599 1.32419 0
M  V30 6553 H 630.672 -3.69044 1.94583 0
M  V30 6554 H 629.302 -3.07392 0.985402 0
M  V30 6555 H 628.354 -2.07378 3.18902 0
M  V30 6556 H 629.666 -2.90055 4.05795 0
M  V30 6557 H 628.82 -5.1169 3.25973 0
M  V30 6558 H 627.559 -4.30722 2.28757 0
M  V30 6559 H 626.564 -3.32984 4.37495 0
M  V30 6560 H 627.789 -4.17213 5.35826 0
M  V30 6561 H 625.735 -5.51145 3.55775 0
M  V30 6562 H 625.652 -5.40515 5.28563 0
M  V30 6563 H 626.92 -6.33412 4.54324 0
M  V30 6564 N 631.149 -1.42148 -0.680565 0
M  V30 6565 C 632.379 -1.45485 -1.46689 0
M  V30 6566 C 632.787 -0.0629451 -1.89095 0
M  V30 6567 O 632.13 0.931397 -1.58337 0
M  V30 6568 C 632.192 -2.31397 -2.75129 0
M  V30 6569 C 631.856 -3.79353 -2.54834 0
M  V30 6570 C 632.853 -4.71148 -2.19808 0
M  V30 6571 C 630.538 -4.23557 -2.70008 0
M  V30 6572 C 632.532 -6.05139 -2.00215 0
M  V30 6573 C 630.219 -5.57609 -2.50031 0
M  V30 6574 C 631.217 -6.48216 -2.15187 0
M  V30 6575 O 630.905 -7.79792 -1.95397 0
M  V30 6576 H 630.637 -0.497139 -0.458071 0
M  V30 6577 H 633.191 -1.87252 -0.844139 0
M  V30 6578 H 631.421 -1.84468 -3.39865 0
M  V30 6579 H 633.11 -2.26257 -3.36991 0
M  V30 6580 H 633.876 -4.38282 -2.07686 0
M  V30 6581 H 629.755 -3.53327 -2.96109 0
M  V30 6582 H 633.299 -6.75823 -1.72941 0
M  V30 6583 H 629.196 -5.9005 -2.61748 0
M  V30 6584 H 629.964 -7.91091 -2.10042 0
M  V30 6585 N 632.627 0.916307 -1.28225 0
M  V30 6586 C 633.873 1.66765 -1.154 0
M  V30 6587 C 634.206 1.91912 0.297251 0
M  V30 6588 O 633.481 1.51766 1.21644 0
M  V30 6589 C 633.764 3.02715 -1.95028 0
M  V30 6590 C 633.617 2.84738 -3.48201 0
M  V30 6591 C 634.936 4.03215 -1.76369 0
M  V30 6592 H 632.055 0.605205 -0.42059 0
M  V30 6593 H 634.697 1.06255 -1.57512 0
M  V30 6594 H 632.847 3.54365 -1.59242 0
M  V30 6595 H 634.519 2.40118 -3.9388 0
M  V30 6596 H 632.762 2.19848 -3.73964 0
M  V30 6597 H 633.433 3.8127 -3.99171 0
M  V30 6598 H 635.909 3.60617 -2.07593 0
M  V30 6599 H 634.785 4.96306 -2.34459 0
M  V30 6600 H 635.046 4.36288 -0.71452 0
M  V30 6601 N 634.105 1.10431 1.1244 0
M  V30 6602 C 635.015 0.765502 2.21759 0
M  V30 6603 C 636.031 -0.236966 1.72379 0
M  V30 6604 O 637.207 -0.0757329 2.01258 0
M  V30 6605 C 634.272 0.202316 3.46109 0
M  V30 6606 C 633.333 1.26205 4.1033 0
M  V30 6607 C 632.566 0.725648 5.28744 0
M  V30 6608 O 632.789 -0.447942 5.68638 0
M  V30 6609 O 631.723 1.48555 5.83279 0
M  V30 6610 H 635.549 1.67801 2.53133 0
M  V30 6611 H 633.134 0.879443 1.20773 0
M  V30 6612 H 635.016 -0.107918 4.21262 0
M  V30 6613 H 633.691 -0.683052 3.16411 0
M  V30 6614 H 632.598 1.62514 3.36957 0
M  V30 6615 H 633.931 2.12044 4.44183 0
M  V30 6616 N 635.583 -1.29855 0.893053 0
M  V30 6617 C 636.86 -1.90694 0.435336 0
M  V30 6618 C 637.24 -1.8111 -1.08454 0
M  V30 6619 O 636.588 -1.23352 -1.92345 0
M  V30 6620 C 636.798 -3.36033 0.942472 0
M  V30 6621 C 638.146 -4.13083 0.982226 0
M  V30 6622 O 639.17 -3.4491 0.889686 0
M  V30 6623 O 638.029 -5.34896 1.12022 0
M  V30 6624 H 635.123 -0.815978 0.134567 0
M  V30 6625 H 637.669 -1.38367 0.982484 0
M  V30 6626 H 636.441 -3.37132 1.9864 0
M  V30 6627 H 636.064 -3.95828 0.374952 0
M  V30 6628 N 637.061 -0.65484 -1.43351 0
M  V30 6629 C 638.289 -0.176685 -2.06144 0
M  V30 6630 C 638.704 1.15831 -1.49093 0
M  V30 6631 O 638.061 1.71542 -0.622868 0
M  V30 6632 C 638.112 -0.0813326 -3.61408 0
M  V30 6633 O 637.833 -1.36355 -4.1634 0
M  V30 6634 C 639.334 0.422706 -4.4128 0
M  V30 6635 H 636.554 -0.0906429 -0.66485 0
M  V30 6636 H 639.098 -0.895945 -1.83829 0
M  V30 6637 H 637.253 0.588496 -3.82904 0
M  V30 6638 H 637.667 -1.22381 -5.10023 0
M  V30 6639 H 639.141 0.438375 -5.50257 0
M  V30 6640 H 639.618 1.45432 -4.14423 0
M  V30 6641 H 640.224 -0.214687 -4.24758 0
M  V30 6642 N 638.539 1.52521 -0.396863 0
M  V30 6643 C 639.486 2.26671 0.434624 0
M  V30 6644 C 640.456 1.28584 1.05144 0
M  V30 6645 O 641.641 1.57426 1.07804 0
M  V30 6646 C 638.781 3.08234 1.55196 0
M  V30 6647 C 637.894 4.21261 0.957262 0
M  V30 6648 C 637.029 4.90205 2.04627 0
M  V30 6649 C 636.068 5.95213 1.42787 0
M  V30 6650 N 635.205 6.57723 2.45651 0
M  V30 6651 H 640.045 2.973 -0.204139 0
M  V30 6652 H 637.582 1.46669 -0.112505 0
M  V30 6653 H 639.54 3.53819 2.2106 0
M  V30 6654 H 638.17 2.398 2.16092 0
M  V30 6655 H 637.222 3.79935 0.188005 0
M  V30 6656 H 638.534 4.96624 0.465416 0
M  V30 6657 H 637.688 5.39133 2.78246 0
M  V30 6658 H 636.427 4.14383 2.57174 0
M  V30 6659 H 635.432 5.45616 0.676968 0
M  V30 6660 H 636.657 6.72972 0.910255 0
M  V30 6661 H 634.603 5.84737 2.97353 0
M  V30 6662 H 634.52 7.28723 2.01243 0
M  V30 6663 H 635.788 7.11293 3.18876 0
M  V30 6664 N 640.017 0.126909 1.57088 0
M  V30 6665 C 641.266 -0.529024 1.94639 0
M  V30 6666 C 641.579 -1.67323 1.01304 0
M  V30 6667 O 642.785 -2.39245 1.28352 0
M  V30 6668 C 641.241 -0.992483 3.45945 0
M  V30 6669 C 640.849 0.123691 4.47829 0
M  V30 6670 C 642.593 -1.61934 3.924 0
M  V30 6671 C 640.5 -0.356911 5.90322 0
M  V30 6672 H 639.43 -0.201397 0.726605 0
M  V30 6673 H 642.081 0.208032 1.82317 0
M  V30 6674 H 640.463 -1.7842 3.53528 0
M  V30 6675 H 641.637 0.900168 4.51922 0
M  V30 6676 H 639.952 0.657699 4.11173 0
M  V30 6677 H 642.549 -1.9902 4.96281 0
M  V30 6678 H 642.892 -2.50075 3.32819 0
M  V30 6679 H 643.425 -0.892894 3.8765 0
M  V30 6680 H 640.164 0.488636 6.53676 0
M  V30 6681 H 639.684 -1.0997 5.89633 0
M  V30 6682 H 641.363 -0.815547 6.41839 0
M  V30 6683 N 641.495 -1.56914 -0.146875 0
M  V30 6684 C 642.772 -1.74273 -0.888165 0
M  V30 6685 C 643.152 -0.69496 -1.99333 0
M  V30 6686 O 642.5 0.286093 -2.26702 0
M  V30 6687 C 642.71 -3.18336 -1.43051 0
M  V30 6688 C 644.058 -3.80024 -1.89387 0
M  V30 6689 O 645.082 -3.21765 -1.52792 0
M  V30 6690 O 643.941 -4.82367 -2.56874 0
M  V30 6691 H 641.035 -0.712565 -0.419738 0
M  V30 6692 H 643.581 -1.6918 -0.132791 0
M  V30 6693 H 642.353 -3.86092 -0.636274 0
M  V30 6694 H 641.976 -3.27854 -2.24938 0
M  V30 6695 N 642.974 0.416227 -1.52004 0
M  V30 6696 C 643.904 1.51365 -1.77795 0
M  V30 6697 C 644.885 1.58059 -0.628601 0
M  V30 6698 O 646.07 1.73447 -0.873478 0
M  V30 6699 C 643.2 2.89256 -1.92219 0
M  V30 6700 C 642.154 2.97415 -3.0778 0
M  V30 6701 C 641.48 4.37492 -3.07417 0
M  V30 6702 C 642.78 2.69551 -4.47369 0
M  V30 6703 H 644.474 1.30033 -2.69688 0
M  V30 6704 H 642.02 0.624112 -1.29772 0
M  V30 6705 H 643.973 3.66008 -2.08845 0
M  V30 6706 H 642.697 3.11866 -0.969917 0
M  V30 6707 H 641.356 2.23107 -2.90893 0
M  V30 6708 H 641.004 4.571 -2.09925 0
M  V30 6709 H 640.704 4.43877 -3.85029 0
M  V30 6710 H 642.228 5.16188 -3.26162 0
M  V30 6711 H 643.642 3.36028 -4.64497 0
M  V30 6712 H 642.039 2.87321 -5.26846 0
M  V30 6713 H 643.109 1.65029 -4.55953 0
M  V30 6714 N 644.452 1.42507 0.673017 0
M  V30 6715 C 645.698 1.44282 1.43367 0
M  V30 6716 C 646.053 0.0588239 1.9231 0
M  V30 6717 O 645.346 -0.919288 1.68106 0
M  V30 6718 C 645.54 2.40351 2.64511 0
M  V30 6719 C 645.369 3.87955 2.27423 0
M  V30 6720 C 644.139 4.56476 2.16697 0
M  V30 6721 C 646.337 4.7833 1.88957 0
M  V30 6722 N 644.319 5.89099 1.72731 0
M  V30 6723 C 645.69 6.00073 1.55923 0
M  V30 6724 C 647.745 4.65769 1.75965 0
M  V30 6725 C 646.448 7.10652 1.112 0
M  V30 6726 C 648.474 5.76332 1.32647 0
M  V30 6727 C 647.836 6.97188 1.00538 0
M  V30 6728 H 643.935 0.583134 0.521036 0
M  V30 6729 H 646.519 1.78547 0.776481 0
M  V30 6730 H 644.69 2.08145 3.27918 0
M  V30 6731 H 646.422 2.32694 3.31113 0
M  V30 6732 H 643.177 4.10712 2.35823 0
M  V30 6733 H 643.601 6.59446 1.53166 0
M  V30 6734 H 648.243 3.72808 1.99435 0
M  V30 6735 H 645.961 8.0346 0.864768 0
M  V30 6736 H 649.547 5.68625 1.23112 0
M  V30 6737 H 648.427 7.81287 0.675283 0
M  V30 6738 N 645.93 -0.909495 1.28709 0
M  V30 6739 C 647.155 -1.69801 1.1909 0
M  V30 6740 C 647.58 -1.86479 -0.246388 0
M  V30 6741 O 646.938 -1.37802 -1.17815 0
M  V30 6742 C 646.986 -3.06543 1.89904 0
M  V30 6743 O 646.09 -3.94268 1.2094 0
M  V30 6744 H 645.431 -0.519783 0.413185 0
M  V30 6745 H 647.961 -1.13689 1.70106 0
M  V30 6746 H 647.971 -3.56748 1.97977 0
M  V30 6747 H 646.646 -2.93722 2.94449 0
M  V30 6748 H 645.223 -3.52702 1.2106 0
M  V30 6749 N 647.408 -1.11026 -1.11852 0
M  V30 6750 C 648.638 -0.877544 -1.87037 0
M  V30 6751 C 649.046 0.575925 -1.80221 0
M  V30 6752 O 648.389 1.40916 -1.17849 0
M  V30 6753 C 648.451 -1.25529 -3.36872 0
M  V30 6754 C 648.115 -2.71704 -3.67459 0
M  V30 6755 C 649.112 -3.69931 -3.65304 0
M  V30 6756 C 646.797 -3.08243 -3.966 0
M  V30 6757 C 648.791 -5.02717 -3.9186 0
M  V30 6758 C 646.478 -4.41215 -4.22815 0
M  V30 6759 C 647.476 -5.38262 -4.20432 0
M  V30 6760 O 647.164 -6.68839 -4.45992 0
M  V30 6761 H 646.896 -0.314374 -0.598452 0
M  V30 6762 H 649.45 -1.48015 -1.42411 0
M  V30 6763 H 647.68 -0.595808 -3.82082 0
M  V30 6764 H 649.369 -0.999064 -3.93413 0
M  V30 6765 H 650.135 -3.43047 -3.42846 0
M  V30 6766 H 646.014 -2.33326 -3.97593 0
M  V30 6767 H 649.558 -5.78456 -3.89916 0
M  V30 6768 H 645.455 -4.67835 -4.44748 0
M  V30 6769 H 646.223 -6.74563 -4.63581 0
M  V30 6770 N 648.886 1.2938 -0.899927 0
M  V30 6771 C 649.834 2.29675 -0.367698 0
M  V30 6772 C 650.828 1.60787 0.533282 0
M  V30 6773 O 652.034 1.75126 0.416058 0
M  V30 6774 H 648.409 0.745284 -0.100279 0
M  V30 6775 H 650.38 2.72008 -1.22696 0
M  V30 6776 C 649.129 3.45512 0.389483 0
M  V30 6777 H 648.452 3.98713 -0.294575 0
M  V30 6778 H 649.892 4.17725 0.726744 0
M  V30 6779 C 648.351 2.969 1.59223 0
M  V30 6780 O 648.881 2.98195 2.69152 0
M  V30 6781 N 647.087 2.52728 1.43447 0
M  V30 6782 H 646.634 2.51873 0.540148 0
M  V30 6783 H 646.592 2.20561 2.24054 0
M  V30 6784 N 650.364 0.662433 1.43002 0
M  V30 6785 C 651.327 -0.0142016 2.29196 0
M  V30 6786 C 652.327 -0.741394 1.42688 0
M  V30 6787 O 653.517 -0.581257 1.64216 0
M  V30 6788 C 650.649 -1.03084 3.24941 0
M  V30 6789 H 651.842 0.7443 2.90517 0
M  V30 6790 H 649.395 0.424133 1.50435 0
M  V30 6791 H 650.13 -1.81826 2.68533 0
M  V30 6792 H 649.915 -0.512946 3.8873 0
M  V30 6793 H 651.405 -1.50308 3.89612 0
M  V30 6794 N 651.842 -1.52309 0.404946 0
M  V30 6795 C 652.752 -2.30634 -0.429555 0
M  V30 6796 C 653.768 -1.38187 -1.05737 0
M  V30 6797 O 654.944 -1.71261 -1.05979 0
M  V30 6798 C 652.009 -3.10947 -1.53339 0
M  V30 6799 C 651.07 -4.19126 -0.929065 0
M  V30 6800 C 650.303 -4.95601 -1.9803 0
M  V30 6801 O 650.526 -4.72331 -3.1978 0
M  V30 6802 O 649.46 -5.80551 -1.58886 0
M  V30 6803 H 653.286 -3.0298 0.208963 0
M  V30 6804 H 650.871 -1.4845 0.168255 0
M  V30 6805 H 652.753 -3.60974 -2.1743 0
M  V30 6806 H 651.428 -2.41399 -2.15658 0
M  V30 6807 H 650.335 -3.73257 -0.250982 0
M  V30 6808 H 651.668 -4.90955 -0.349855 0
M  V30 6809 N 653.32 -0.135238 -1.57019 0
M  V30 6810 C 654.25 0.805235 -2.19176 0
M  V30 6811 C 655.231 1.2656 -1.13651 0
M  V30 6812 O 656.416 1.32528 -1.4195 0
M  V30 6813 C 653.546 2.04914 -2.80406 0
M  V30 6814 C 652.5 1.72598 -3.91655 0
M  V30 6815 C 651.826 3.04154 -4.39766 0
M  V30 6816 C 653.126 0.981709 -5.12991 0
M  V30 6817 H 654.82 0.287232 -2.98019 0
M  V30 6818 H 652.366 0.136714 -1.4335 0
M  V30 6819 H 654.319 2.71178 -3.22553 0
M  V30 6820 H 653.043 2.59067 -1.98877 0
M  V30 6821 H 651.702 1.08717 -3.50109 0
M  V30 6822 H 651.35 3.56274 -3.55075 0
M  V30 6823 H 651.05 2.83299 -5.14796 0
M  V30 6824 H 652.574 3.71509 -4.84576 0
M  V30 6825 H 653.988 1.5462 -5.52056 0
M  V30 6826 H 652.385 0.873533 -5.93708 0
M  V30 6827 H 653.455 -0.0286887 -4.84892 0
M  V30 6828 N 654.798 1.5699 0.138552 0
M  V30 6829 C 655.728 2.01933 1.17241 0
M  V30 6830 C 656.709 0.90033 1.44319 0
M  V30 6831 O 657.894 1.16872 1.55095 0
M  V30 6832 C 655.024 2.40711 2.50351 0
M  V30 6833 C 653.978 3.55874 2.37776 0
M  V30 6834 C 653.304 3.80491 3.75674 0
M  V30 6835 C 654.604 4.8826 1.85472 0
M  V30 6836 H 656.298 2.88551 0.798672 0
M  V30 6837 H 653.844 1.3882 0.382743 0
M  V30 6838 H 655.797 2.70754 3.22909 0
M  V30 6839 H 654.521 1.5104 2.89576 0
M  V30 6840 H 653.18 3.2601 1.67669 0
M  V30 6841 H 652.828 2.88057 4.12349 0
M  V30 6842 H 652.528 4.57998 3.68119 0
M  V30 6843 H 654.052 4.12967 4.49767 0
M  V30 6844 H 655.466 5.16965 2.4783 0
M  V30 6845 H 653.863 5.69631 1.88787 0
M  V30 6846 H 654.933 4.78071 0.810935 0
M  V30 6847 N 656.276 -0.40816 1.52223 0
M  V30 6848 C 657.522 -1.15673 1.66576 0
M  V30 6849 C 657.855 -1.90141 0.394996 0
M  V30 6850 O 657.13 -1.84798 -0.606613 0
M  V30 6851 C 657.413 -2.15042 2.88841 0
M  V30 6852 C 657.266 -1.44465 4.25969 0
M  V30 6853 C 658.585 -3.15699 3.0663 0
M  V30 6854 H 655.704 -0.41916 0.606196 0
M  V30 6855 H 658.346 -0.442348 1.84779 0
M  V30 6856 H 656.496 -2.75964 2.73452 0
M  V30 6857 H 658.168 -0.866544 4.53088 0
M  V30 6858 H 656.411 -0.746612 4.27327 0
M  V30 6859 H 657.082 -2.16976 5.07568 0
M  V30 6860 H 659.558 -2.64854 3.20923 0
M  V30 6861 H 658.434 -3.82491 3.9369 0
M  V30 6862 H 658.695 -3.83481 2.19987 0
M  V30 6863 N 657.755 -1.42862 -0.66545 0
M  V30 6864 C 658.718 -1.46756 -1.76055 0
M  V30 6865 C 659.718 -0.353866 -1.56858 0
M  V30 6866 O 660.908 -0.615099 -1.62979 0
M  V30 6867 C 658.04 -1.30829 -3.14796 0
M  V30 6868 H 659.233 -2.44271 -1.73987 0
M  V30 6869 H 656.786 -1.29447 -0.875965 0
M  V30 6870 H 657.521 -0.342733 -3.22484 0
M  V30 6871 H 657.306 -2.11551 -3.30134 0
M  V30 6872 H 658.796 -1.36458 -3.94676 0
M  V30 6873 N 659.233 0.902656 -1.29189 0
M  V30 6874 C 660.163 2.02294 -1.16616 0
M  V30 6875 C 661.144 1.6999 -0.0611175 0
M  V30 6876 O 662.329 1.9271 -0.240072 0
M  V30 6877 C 659.459 3.37018 -0.83882 0
M  V30 6878 C 658.413 3.83522 -1.89986 0
M  V30 6879 C 657.739 5.15337 -1.42589 0
M  V30 6880 C 659.039 4.04169 -3.30824 0
M  V30 6881 H 660.733 2.13071 -2.10336 0
M  V30 6882 H 658.279 1.02378 -1.01266 0
M  V30 6883 H 660.232 4.14895 -0.737584 0
M  V30 6884 H 658.956 3.26325 0.134071 0
M  V30 6885 H 657.615 3.07859 -1.99043 0
M  V30 6886 H 657.263 5.01056 -0.441759 0
M  V30 6887 H 656.963 5.47423 -2.13547 0
M  V30 6888 H 658.487 5.95758 -1.3381 0
M  V30 6889 H 659.901 4.72537 -3.24626 0
M  V30 6890 H 658.298 4.47604 -3.99713 0
M  V30 6891 H 659.368 3.08604 -3.74021 0
M  V30 6892 N 660.711 1.11618 1.11262 0
M  V30 6893 C 661.621 0.78898 2.20935 0
M  V30 6894 C 662.637 -0.21867 1.7262 0
M  V30 6895 O 663.813 -0.0543826 2.01327 0
M  V30 6896 C 660.878 0.239014 3.45875 0
M  V30 6897 C 659.939 1.3055 4.08968 0
M  V30 6898 C 659.172 0.781687 5.27944 0
M  V30 6899 O 659.395 -0.387605 5.69082 0
M  V30 6900 O 658.329 1.54734 5.81671 0
M  V30 6901 H 662.155 1.70477 2.51339 0
M  V30 6902 H 659.74 0.892203 1.19834 0
M  V30 6903 H 661.622 -0.0632312 4.21353 0
M  V30 6904 H 660.297 -0.649454 3.17118 0
M  V30 6905 H 659.204 1.66079 3.35214 0
M  V30 6906 H 660.537 2.16743 4.41909 0
M  V30 6907 N 662.189 -1.289 0.906776 0
M  V30 6908 C 663.137 -2.29477 0.379873 0
M  V30 6909 C 664.131 -1.61068 -0.524747 0
M  V30 6910 O 665.337 -1.75344 -0.406765 0
M  V30 6911 H 661.712 -0.744742 0.10423 0
M  V30 6912 H 663.683 -2.71353 1.24137 0
M  V30 6913 C 662.432 -3.45713 -0.371154 0
M  V30 6914 H 661.755 -3.98551 0.315716 0
M  V30 6915 H 663.195 -4.18105 -0.704581 0
M  V30 6916 C 661.654 -2.9774 -1.57646 0
M  V30 6917 O 662.184 -2.99618 -2.67567 0
M  V30 6918 N 660.39 -2.53485 -1.42105 0
M  V30 6919 H 659.937 -2.52156 -0.526783 0
M  V30 6920 H 659.895 -2.21747 -2.22881 0
M  V30 6921 N 663.667 -0.670007 -1.42649 0
M  V30 6922 C 664.599 0.0501746 -2.29145 0
M  V30 6923 C 665.612 0.770331 -1.43422 0
M  V30 6924 O 666.801 0.625288 -1.6719 0
M  V30 6925 C 663.901 1.09463 -3.20735 0
M  V30 6926 C 663.074 0.44926 -4.35087 0
M  V30 6927 C 662.133 1.39285 -5.07431 0
M  V30 6928 O 661.159 0.894997 -5.6212 0
M  V30 6929 N 662.361 2.72631 -5.12496 0
M  V30 6930 H 665.126 -0.692312 -2.91594 0
M  V30 6931 H 662.687 -0.514056 -1.53522 0
M  V30 6932 H 664.679 1.72705 -3.65999 0
M  V30 6933 H 663.249 1.73891 -2.59771 0
M  V30 6934 H 662.469 -0.362573 -3.92529 0
M  V30 6935 H 663.757 -0.000544776 -5.088 0
M  V30 6936 H 663.155 3.15623 -4.69467 0
M  V30 6937 H 661.712 3.31132 -5.61422 0
M  V30 6938 N 665.145 1.52092 -0.413018 0
M  V30 6939 C 666.095 2.23947 0.427993 0
M  V30 6940 C 667.079 1.25229 1.01027 0
M  V30 6941 O 668.271 1.50448 0.932444 0
M  V30 6942 C 665.4 3.0672 1.542 0
M  V30 6943 C 664.486 4.12851 0.970307 0
M  V30 6944 N 664.877 5.05644 0.125611 0
M  V30 6945 C 663.175 4.28404 1.24042 0
M  V30 6946 C 663.876 5.8138 -0.192876 0
M  V30 6947 N 662.852 5.41996 0.417273 0
M  V30 6948 H 666.654 2.93048 -0.223628 0
M  V30 6949 H 664.168 1.60852 -0.223664 0
M  V30 6950 H 666.165 3.56754 2.15714 0
M  V30 6951 H 664.825 2.39159 2.19621 0
M  V30 6952 H 665.836 5.17348 -0.238995 0
M  V30 6953 H 662.513 3.72071 1.89391 0
M  V30 6954 H 663.903 6.66129 -0.878762 0
M  V30 6955 N 666.623 0.143563 1.56945 0
M  V30 6956 C 667.851 -0.515447 2.00377 0
M  V30 6957 C 668.266 -1.58643 1.02361 0
M  V30 6958 O 667.623 -1.82489 0.0201039 0
M  V30 6959 C 667.674 -1.11923 3.43737 0
M  V30 6960 O 667.395 -0.0910318 4.38005 0
M  V30 6961 C 668.896 -1.85918 4.02429 0
M  V30 6962 H 666.116 -0.134478 0.657386 0
M  V30 6963 H 668.66 0.237135 2.0312 0
M  V30 6964 H 666.815 -1.82245 3.41856 0
M  V30 6965 H 667.229 -0.532916 5.21786 0
M  V30 6966 H 668.703 -2.2346 5.04747 0
M  V30 6967 H 669.18 -2.7438 3.42947 0
M  V30 6968 H 669.786 -1.20303 4.07931 0
M  V30 6969 N 668.101 -1.57061 -0.130224 0
M  V30 6970 C 669.35 -1.83446 -0.838488 0
M  V30 6971 C 669.663 -0.727468 -1.81569 0
M  V30 6972 O 670.869 -0.877394 -2.56932 0
M  V30 6973 C 669.325 -3.25201 -1.54182 0
M  V30 6974 C 668.933 -4.4388 -0.606178 0
M  V30 6975 C 670.677 -3.60844 -2.23588 0
M  V30 6976 C 668.584 -5.76661 -1.31209 0
M  V30 6977 H 667.514 -0.684185 -0.316871 0
M  V30 6978 H 670.165 -1.83273 -0.0912059 0
M  V30 6979 H 668.547 -3.1981 -2.33533 0
M  V30 6980 H 669.721 -4.60545 0.153308 0
M  V30 6981 H 668.036 -4.16395 -0.0196705 0
M  V30 6982 H 670.633 -4.57313 -2.77072 0
M  V30 6983 H 670.976 -2.87724 -3.00867 0
M  V30 6984 H 671.509 -3.67971 -1.51137 0
M  V30 6985 H 668.248 -6.52922 -0.580823 0
M  V30 6986 H 667.768 -5.63902 -2.04387 0
M  V30 6987 H 669.447 -6.20035 -1.8484 0
M  V30 6988 N 669.579 0.400081 -1.52437 0
M  V30 6989 C 670.856 1.15973 -1.57511 0
M  V30 6990 C 671.236 2.0798 -0.361572 0
M  V30 6991 O 670.584 2.19032 0.650929 0
M  V30 6992 C 670.794 1.92912 -2.90837 0
M  V30 6993 C 672.142 2.48662 -3.44169 0
M  V30 6994 O 673.166 2.03081 -2.92637 0
M  V30 6995 O 672.025 3.31894 -4.34176 0
M  V30 6996 H 669.119 0.530023 -0.634827 0
M  V30 6997 H 671.665 0.40613 -1.64769 0
M  V30 6998 H 670.437 1.25564 -3.70607 0
M  V30 6999 H 670.06 2.75257 -2.86913 0
M  V30 7000 N 671.057 1.43213 0.657864 0
M  V30 7001 C 671.987 1.50815 1.78262 0
M  V30 7002 C 672.968 0.363211 1.66177 0
M  V30 7003 O 674.153 0.579806 1.85343 0
M  V30 7004 C 671.283 1.42625 3.16663 0
M  V30 7005 C 670.237 2.5532 3.43505 0
M  V30 7006 C 669.563 2.32184 4.81658 0
M  V30 7007 C 670.863 3.97583 3.38711 0
M  V30 7008 H 672.557 2.44954 1.72157 0
M  V30 7009 H 670.103 1.17896 0.82683 0
M  V30 7010 H 672.056 1.46548 3.95097 0
M  V30 7011 H 670.78 0.449877 3.23487 0
M  V30 7012 H 669.439 2.50742 2.6744 0
M  V30 7013 H 669.087 1.32801 4.85153 0
M  V30 7014 H 668.787 3.07724 5.00579 0
M  V30 7015 H 670.311 2.37883 5.62356 0
M  V30 7016 H 671.725 4.03673 4.07089 0
M  V30 7017 H 670.122 4.73112 3.69168 0
M  V30 7018 H 671.192 4.23049 2.36976 0
M  V30 7019 N 672.536 -0.895792 1.29666 0
M  V30 7020 C 673.764 -1.68001 1.20761 0
M  V30 7021 C 674.179 -1.87379 -0.231187 0
M  V30 7022 O 673.536 -1.41359 -1.15429 0
M  V30 7023 C 673.587 -3.06236 1.92098 0
M  V30 7024 O 673.308 -2.8774 3.30359 0
M  V30 7025 C 674.809 -4.00652 1.89717 0
M  V30 7026 H 672.029 -0.524591 0.418384 0
M  V30 7027 H 674.573 -1.11995 1.71106 0
M  V30 7028 H 672.728 -3.59007 1.45578 0
M  V30 7029 H 673.142 -3.75359 3.66342 0
M  V30 7030 H 674.616 -4.95051 2.44189 0
M  V30 7031 H 675.093 -4.30424 0.873595 0
M  V30 7032 H 675.699 -3.53815 2.35998 0
M  V30 7033 N 674.014 -1.12206 -1.10668 0
M  V30 7034 C 675.291 -0.787382 -1.79052 0
M  V30 7035 C 675.671 0.723267 -1.98323 0
M  V30 7036 O 675.019 1.6561 -1.57434 0
M  V30 7037 C 675.229 -1.55968 -3.1221 0
M  V30 7038 C 676.577 -1.74413 -3.87125 0
M  V30 7039 O 677.601 -1.5246 -3.21923 0
M  V30 7040 O 676.46 -2.10952 -5.04144 0
M  V30 7041 H 673.554 -0.286137 -0.775922 0
M  V30 7042 H 676.1 -1.22595 -1.1734 0
M  V30 7043 H 674.872 -2.58692 -2.93588 0
M  V30 7044 H 674.495 -1.1152 -3.8164 0
M  V30 7045 N 675.492 1.28418 -0.913599 0
M  V30 7046 C 676.717 1.99643 -0.561899 0
M  V30 7047 C 677.142 1.67819 0.849608 0
M  V30 7048 O 676.5 0.910503 1.56779 0
M  V30 7049 C 676.548 3.52116 -0.777622 0
M  V30 7050 O 675.652 4.12076 0.163457 0
M  V30 7051 H 674.993 0.627229 -0.217898 0
M  V30 7052 H 677.523 1.63575 -1.229 0
M  V30 7053 H 677.533 4.02163 -0.687666 0
M  V30 7054 H 676.208 3.74613 -1.8066 0
M  V30 7055 H 674.785 3.72892 0.0247827 0
M  V30 7056 N 676.97 0.677563 1.42291 0
M  V30 7057 C 677.88 0.000962654 2.346 0
M  V30 7058 C 678.896 -0.785833 1.55244 0
M  V30 7059 O 680.072 -0.727523 1.87801 0
M  V30 7060 C 677.137 -0.936746 3.33805 0
M  V30 7061 C 676.198 -0.144173 4.29058 0
M  V30 7062 C 675.431 -1.03722 5.23524 0
M  V30 7063 O 675.654 -2.27675 5.22992 0
M  V30 7064 O 674.588 -0.496542 5.99848 0
M  V30 7065 H 678.414 0.761397 2.94001 0
M  V30 7066 H 675.999 0.43781 1.42841 0
M  V30 7067 H 677.881 -1.47497 3.94744 0
M  V30 7068 H 676.556 -1.67698 2.76874 0
M  V30 7069 H 675.463 0.438224 3.71524 0
M  V30 7070 H 676.796 0.55701 4.89038 0
M  V30 7071 N 678.448 -1.51871 0.421078 0
M  V30 7072 C 679.381 -2.23851 -0.443369 0
M  V30 7073 C 680.359 -1.25142 -1.03818 0
M  V30 7074 O 681.543 -1.5423 -1.08377 0
M  V30 7075 C 678.67 -2.97637 -1.61648 0
M  V30 7076 C 677.716 -4.10873 -1.14391 0
M  V30 7077 S 678.549 -5.35408 -0.0992403 0
M  V30 7078 C 679.705 -6.12726 -1.27739 0
M  V30 7079 H 679.938 -2.96826 0.167786 0
M  V30 7080 H 677.471 -1.53027 0.205461 0
M  V30 7081 H 679.429 -3.40751 -2.28909 0
M  V30 7082 H 678.09 -2.24282 -2.199 0
M  V30 7083 H 677.283 -4.61718 -2.02069 0
M  V30 7084 H 676.885 -3.69937 -0.549775 0
M  V30 7085 H 679.177 -6.40827 -2.19881 0
M  V30 7086 H 680.12 -7.03461 -0.809239 0
M  V30 7087 H 680.528 -5.43968 -1.5086 0
M  V30 7088 N 679.926 -0.151884 -1.56866 0
M  V30 7089 C 680.874 0.80299 -2.183 0
M  V30 7090 C 681.868 1.25174 -1.14139 0
M  V30 7091 O 683.074 1.21966 -1.3238 0
M  V30 7092 H 679.449 0.277169 -0.699057 0
M  V30 7093 H 681.42 0.260699 -2.97259 0
M  V30 7094 C 680.169 2.03009 -2.82281 0
M  V30 7095 H 679.492 1.69377 -3.62148 0
M  V30 7096 H 680.932 2.67753 -3.28762 0
M  V30 7097 C 679.391 2.84123 -1.81041 0
M  V30 7098 O 679.921 3.8063 -1.28388 0
M  V30 7099 N 678.127 2.48753 -1.50234 0
M  V30 7100 H 677.674 1.70337 -1.93244 0
M  V30 7101 H 677.632 3.03316 -0.827445 0
M  V30 7102 N 681.404 1.57128 0.121893 0
M  V30 7103 C 682.351 2.0013 1.14964 0
M  V30 7104 C 683.321 0.872959 1.4131 0
M  V30 7105 O 684.506 1.13696 1.53225 0
M  V30 7106 C 681.646 2.40824 2.4718 0
M  V30 7107 C 680.759 3.67061 2.27794 0
M  V30 7108 C 679.894 3.96749 3.53219 0
M  V30 7109 C 678.933 5.16178 3.28978 0
M  V30 7110 N 678.07 5.41751 4.46599 0
M  V30 7111 H 682.91 2.8772 0.775947 0
M  V30 7112 H 680.447 1.42328 0.371652 0
M  V30 7113 H 682.405 2.62454 3.24305 0
M  V30 7114 H 681.035 1.56279 2.82448 0
M  V30 7115 H 680.087 3.53063 1.416 0
M  V30 7116 H 681.399 4.5434 2.05857 0
M  V30 7117 H 680.553 4.19012 4.38764 0
M  V30 7118 H 679.292 3.07941 3.78185 0
M  V30 7119 H 678.297 4.93762 2.41824 0
M  V30 7120 H 679.522 6.06561 3.05386 0
M  V30 7121 H 677.468 4.55899 4.71691 0
M  V30 7122 H 677.385 6.23347 4.27756 0
M  V30 7123 H 678.653 5.68531 5.33285 0
M  V30 7124 N 682.882 -0.391992 1.52647 0
M  V30 7125 C 683.812 -1.48517 1.8018 0
M  V30 7126 C 684.793 -1.57039 0.653667 0
M  V30 7127 O 685.978 -1.72036 0.900962 0
M  V30 7128 C 683.108 -2.86161 1.96797 0
M  V30 7129 C 682.062 -2.92481 3.12472 0
M  V30 7130 C 681.388 -4.32546 3.14338 0
M  V30 7131 C 682.688 -2.624 4.51601 0
M  V30 7132 H 684.382 -1.25726 2.71723 0
M  V30 7133 H 681.928 -0.603387 1.30749 0
M  V30 7134 H 683.881 -3.62639 2.14641 0
M  V30 7135 H 682.605 -3.10283 1.01941 0
M  V30 7136 H 681.264 -2.18451 2.94406 0
M  V30 7137 H 680.912 -4.53703 2.1717 0
M  V30 7138 H 680.612 -4.37695 3.92042 0
M  V30 7139 H 682.136 -5.10934 3.34333 0
M  V30 7140 H 683.55 -3.28596 4.69785 0
M  V30 7141 H 681.947 -2.78903 5.3135 0
M  V30 7142 H 683.017 -1.57754 4.58521 0
M  V30 7143 N 684.36 -1.4356 -0.65026 0
M  V30 7144 C 685.607 -1.45333 -1.41012 0
M  V30 7145 C 685.935 -0.0787282 -1.94341 0
M  V30 7146 O 685.19 0.916715 -1.72901 0
M  V30 7147 C 685.489 -2.44528 -2.60654 0
M  V30 7148 C 685.155 -3.90331 -2.25727 0
M  V30 7149 C 683.817 -4.3004 -2.15914 0
M  V30 7150 C 686.169 -4.822 -1.97821 0
M  V30 7151 C 683.497 -5.59568 -1.76354 0
M  V30 7152 C 685.849 -6.12095 -1.59759 0
M  V30 7153 C 684.513 -6.50778 -1.48473 0
M  V30 7154 H 683.783 -0.531813 -0.516 0
M  V30 7155 H 686.43 -1.76657 -0.739219 0
M  V30 7156 H 684.735 -2.06619 -3.3289 0
M  V30 7157 H 686.432 -2.43155 -3.18868 0
M  V30 7158 H 683.022 -3.58905 -2.34276 0
M  V30 7159 H 687.206 -4.5229 -2.04322 0
M  V30 7160 H 682.462 -5.88376 -1.66205 0
M  V30 7161 H 686.636 -6.82751 -1.37198 0
M  V30 7162 H 684.263 -7.5105 -1.17591 0
M  V30 7163 N 685.838 0.888903 -1.30139 0
M  V30 7164 C 686.748 2.02705 -1.18101 0
M  V30 7165 C 687.764 1.73702 -0.101809 0
M  V30 7166 O 688.94 1.98906 -0.315984 0
M  V30 7167 C 686.005 3.35616 -0.869651 0
M  V30 7168 C 685.066 3.78067 -2.03381 0
M  V30 7169 C 684.299 5.04635 -1.73721 0
M  V30 7170 O 684.522 5.66531 -0.663267 0
M  V30 7171 O 683.456 5.43399 -2.58845 0
M  V30 7172 H 687.282 2.15788 -2.13704 0
M  V30 7173 H 684.867 1.01426 -1.09695 0
M  V30 7174 H 686.749 4.15358 -0.711043 0
M  V30 7175 H 685.424 3.23651 0.0565002 0
M  V30 7176 H 684.331 2.99046 -2.24772 0
M  V30 7177 H 685.664 3.94631 -2.94155 0
M  V30 7178 N 687.317 1.12792 1.10072 0
M  V30 7179 C 688.264 0.79921 2.16521 0
M  V30 7180 C 689.234 -0.235726 1.64419 0
M  V30 7181 O 690.419 -0.109457 1.90486 0
M  V30 7182 C 687.559 0.264091 3.44088 0
M  V30 7183 C 686.672 1.35729 4.10124 0
M  V30 7184 C 685.807 0.781212 5.25424 0
M  V30 7185 C 684.846 1.85327 5.8337 0
M  V30 7186 N 683.983 1.29564 6.90042 0
M  V30 7187 H 688.823 1.71105 2.43981 0
M  V30 7188 H 686.36 0.854225 1.19756 0
M  V30 7189 H 688.318 -0.0642423 4.17151 0
M  V30 7190 H 686.948 -0.610901 3.16967 0
M  V30 7191 H 686 1.80234 3.34993 0
M  V30 7192 H 687.312 2.16782 4.4923 0
M  V30 7193 H 686.466 0.403769 6.05355 0
M  V30 7194 H 685.205 -0.0604686 4.87663 0
M  V30 7195 H 684.21 2.23986 5.02106 0
M  V30 7196 H 685.435 2.69824 6.23195 0
M  V30 7197 H 683.381 0.475844 6.54272 0
M  V30 7198 H 683.298 2.04271 7.2788 0
M  V30 7199 H 684.566 0.945545 7.73744 0
M  V30 7200 N 688.795 -1.27931 0.920396 0
M  V30 7201 C 690.023 -1.98805 0.573087 0
M  V30 7202 C 690.438 -1.68724 -0.847201 0
M  V30 7203 O 689.795 -0.943699 -1.56207 0
M  V30 7204 C 689.846 -3.52971 0.780633 0
M  V30 7205 O 689.567 -3.81994 2.14504 0
M  V30 7206 C 691.068 -4.411 0.44105 0
M  V30 7207 H 688.288 -0.634651 0.21785 0
M  V30 7208 H 690.832 -1.62965 1.23542 0
M  V30 7209 H 688.987 -3.87048 0.165204 0
M  V30 7210 H 689.401 -4.76609 2.18962 0
M  V30 7211 H 690.875 -5.48312 0.637006 0
M  V30 7212 H 691.352 -4.34758 -0.62306 0
M  V30 7213 H 691.958 -4.12532 1.0343 0
M  V30 7214 N 690.273 -0.685099 -1.4193 0
M  V30 7215 C 691.689 -0.355632 -1.55587 0
M  V30 7216 C 691.889 1.13823 -1.66273 0
M  V30 7217 O 690.945 1.92387 -1.63534 0
M  V30 7218 C 692.258 -1.09498 -2.80055 0
M  V30 7219 C 693.806 -1.07831 -2.93839 0
M  V30 7220 C 694.281 -1.79919 -4.21181 0
M  V30 7221 N 695.772 -1.76837 -4.28115 0
M  V30 7222 C 696.507 -2.29463 -5.25485 0
M  V30 7223 N 696.003 -2.90516 -6.28945 0
M  V30 7224 N 697.796 -2.19779 -5.17353 0
M  V30 7225 H 689.947 -1.65412 -1.33239 0
M  V30 7226 H 692.21 -0.697453 -0.642078 0
M  V30 7227 H 691.916 -2.14997 -2.78333 0
M  V30 7228 H 691.79 -0.666813 -3.71259 0
M  V30 7229 H 694.177 -0.0316152 -2.95083 0
M  V30 7230 H 694.258 -1.54545 -2.03837 0
M  V30 7231 H 693.902 -2.84562 -4.20698 0
M  V30 7232 H 693.832 -1.30647 -5.10136 0
M  V30 7233 H 696.323 -1.32315 -3.53979 0
M  V30 7234 H 696.636 -3.28266 -6.99615 0
M  V30 7235 H 694.981 -2.94589 -6.29478 0
M  V30 7236 H 698.172 -1.71763 -4.35448 0
M  V30 7237 H 698.345 -2.61097 -5.9307 0
M  V30 7238 N 691.751 1.51645 -0.429126 0
M  V30 7239 C 693.167 1.59394 -0.080994 0
M  V30 7240 C 693.367 1.44064 1.40882 0
M  V30 7241 O 692.423 1.27771 2.17786 0
M  V30 7242 C 693.736 2.94779 -0.593773 0
M  V30 7243 C 695.284 3.08067 -0.553494 0
M  V30 7244 C 695.759 4.45963 -1.04311 0
M  V30 7245 N 697.25 4.5226 -1.00076 0
M  V30 7246 C 697.985 5.57268 -1.35056 0
M  V30 7247 N 697.481 6.69734 -1.77282 0
M  V30 7248 N 699.274 5.47582 -1.26925 0
M  V30 7249 H 691.425 1.59856 -1.39857 0
M  V30 7250 H 693.688 0.753095 -0.575805 0
M  V30 7251 H 693.394 3.11342 -1.63583 0
M  V30 7252 H 693.268 3.77197 -0.0142202 0
M  V30 7253 H 695.655 2.91177 0.479556 0
M  V30 7254 H 695.736 2.27508 -1.16935 0
M  V30 7255 H 695.38 4.63598 -2.07459 0
M  V30 7256 H 695.31 5.25049 -0.403873 0
M  V30 7257 H 697.801 3.71537 -0.690564 0
M  V30 7258 H 698.114 7.4587 -2.02232 0
M  V30 7259 H 696.459 6.70963 -1.81202 0
M  V30 7260 H 699.65 4.58604 -0.93809 0
M  V30 7261 H 699.823 6.29308 -1.54516 0
M  V30 7262 N 693.229 0.160201 1.56784 0
M  V30 7263 C 694.161 -0.80564 2.14574 0
M  V30 7264 C 695.174 -1.20154 1.09849 0
M  V30 7265 O 696.363 -1.14333 1.37078 0
M  V30 7266 C 693.463 -2.09434 2.6644 0
M  V30 7267 C 692.636 -1.86375 3.95706 0
M  V30 7268 C 691.695 -2.99358 4.32749 0
M  V30 7269 O 690.721 -2.70475 5.00831 0
M  V30 7270 N 691.923 -4.26867 3.93402 0
M  V30 7271 H 694.688 -0.311644 2.98075 0
M  V30 7272 H 692.249 -0.0229465 1.61884 0
M  V30 7273 H 694.241 -2.84091 2.88226 0
M  V30 7274 H 692.811 -2.50057 1.8759 0
M  V30 7275 H 692.031 -0.956821 3.82412 0
M  V30 7276 H 693.319 -1.68322 4.80151 0
M  V30 7277 H 692.717 -4.53197 3.38569 0
M  V30 7278 H 691.274 -4.98263 4.20211 0
M  V30 7279 N 694.707 -1.5719 -0.113559 0
M  V30 7280 C 695.637 -2.03772 -1.14013 0
M  V30 7281 C 696.618 -0.923176 -1.42869 0
M  V30 7282 O 697.803 -1.19325 -1.53216 0
M  V30 7283 C 694.933 -2.44663 -2.4649 0
M  V30 7284 C 693.887 -3.59612 -2.32085 0
M  V30 7285 C 693.213 -3.8642 -3.69573 0
M  V30 7286 C 694.513 -4.91149 -1.7768 0
M  V30 7287 H 696.207 -2.89785 -0.752665 0
M  V30 7288 H 693.753 -1.39412 -0.360609 0
M  V30 7289 H 695.706 -2.75857 -3.18561 0
M  V30 7290 H 694.43 -1.55628 -2.87137 0
M  V30 7291 H 693.089 -3.28636 -1.62461 0
M  V30 7292 H 692.737 -2.94581 -4.07715 0
M  V30 7293 H 692.437 -4.63797 -3.60786 0
M  V30 7294 H 693.961 -4.2007 -4.4314 0
M  V30 7295 H 695.375 -5.20843 -2.39574 0
M  V30 7296 H 693.772 -5.72562 -1.79701 0
M  V30 7297 H 694.842 -4.79301 -0.734776 0
M  V30 7298 N 696.185 0.383891 -1.52853 0
M  V30 7299 C 697.601 0.724316 -1.42218 0
M  V30 7300 C 697.801 1.93943 -0.546654 0
M  V30 7301 O 696.857 2.5249 -0.0220562 0
M  V30 7302 C 698.17 0.954635 -2.85144 0
M  V30 7303 C 699.718 1.05579 -2.94656 0
M  V30 7304 C 700.193 1.3187 -4.38605 0
M  V30 7305 N 701.684 1.38681 -4.41952 0
M  V30 7306 C 702.419 1.60699 -5.50421 0
M  V30 7307 N 701.915 1.80154 -6.68967 0
M  V30 7308 N 703.708 1.6292 -5.37972 0
M  V30 7309 H 695.859 -0.4156 -2.08294 0
M  V30 7310 H 698.122 -0.123776 -0.939885 0
M  V30 7311 H 697.828 0.133829 -3.51445 0
M  V30 7312 H 697.702 1.86788 -3.27704 0
M  V30 7313 H 700.089 1.86716 -2.2852 0
M  V30 7314 H 700.17 0.120338 -2.55517 0
M  V30 7315 H 699.814 0.512416 -5.05309 0
M  V30 7316 H 699.744 2.26708 -4.75301 0
M  V30 7317 H 702.235 1.25334 -3.56511 0
M  V30 7318 H 702.548 1.96476 -7.47407 0
M  V30 7319 H 700.893 1.77368 -6.71986 0
M  V30 7320 H 704.084 1.47276 -4.44328 0
M  V30 7321 H 704.257 1.79739 -6.22574 0
M  V30 7322 N 697.663 1.43903 0.642637 0
M  V30 7323 C 698.573 1.52349 1.78401 0
M  V30 7324 C 699.589 0.409869 1.69104 0
M  V30 7325 O 700.765 0.665548 1.90085 0
M  V30 7326 C 697.83 1.45408 3.14734 0
M  V30 7327 C 696.891 2.67528 3.35749 0
M  V30 7328 C 696.124 2.60909 4.65577 0
M  V30 7329 O 696.347 1.6627 5.45628 0
M  V30 7330 O 695.281 3.5158 4.88544 0
M  V30 7331 H 699.107 2.48752 1.7423 0
M  V30 7332 H 696.692 1.26021 0.802439 0
M  V30 7333 H 698.574 1.44019 3.96026 0
M  V30 7334 H 697.249 0.521437 3.19473 0
M  V30 7335 H 696.156 2.74487 2.5418 0
M  V30 7336 H 697.489 3.598 3.35864 0
M  V30 7337 N 699.141 -0.881989 1.30609 0
M  V30 7338 C 700.089 -2.00942 1.17155 0
M  V30 7339 C 701.083 -1.69198 0.0827154 0
M  V30 7340 O 702.289 -1.78342 0.243775 0
M  V30 7341 H 698.664 -0.658913 0.362406 0
M  V30 7342 H 700.635 -2.09423 2.12567 0
M  V30 7343 C 699.384 -3.36294 0.883273 0
M  V30 7344 H 698.707 -3.61233 1.7132 0
M  V30 7345 H 700.147 -4.15812 0.829255 0
M  V30 7346 C 698.606 -3.34348 -0.413851 0
M  V30 7347 O 699.136 -3.75216 -1.43444 0
M  V30 7348 N 697.342 -2.87459 -0.426082 0
M  V30 7349 H 696.889 -2.54397 0.40493 0
M  V30 7350 H 696.847 -2.8654 -1.29391 0
M  V30 7351 N 700.619 -1.13374 -1.09472 0
M  V30 7352 C 701.582 -0.813639 -2.14272 0
M  V30 7353 C 702.582 0.176677 -1.59826 0
M  V30 7354 O 703.772 -0.0503441 -1.74127 0
M  V30 7355 C 700.904 -0.210897 -3.40247 0
M  V30 7356 H 702.097 -1.74229 -2.44099 0
M  V30 7357 H 699.65 -0.938304 -1.25002 0
M  V30 7358 H 700.385 0.726998 -3.16046 0
M  V30 7359 H 700.17 -0.924048 -3.81056 0
M  V30 7360 H 701.66 -0.00377603 -4.176 0
M  V30 7361 N 702.098 1.27442 -0.927168 0
M  V30 7362 C 703.008 2.30599 -0.431448 0
M  V30 7363 C 704.024 1.67028 0.48761 0
M  V30 7364 O 705.2 1.97962 0.370546 0
M  V30 7365 C 702.265 3.45327 0.308292 0
M  V30 7366 C 701.326 4.24418 -0.645615 0
M  V30 7367 C 700.559 5.33667 0.0589164 0
M  V30 7368 O 700.782 5.5589 1.27838 0
M  V30 7369 O 699.716 5.98774 -0.612638 0
M  V30 7370 H 703.542 2.75036 -1.28797 0
M  V30 7371 H 701.127 1.32382 -0.692495 0
M  V30 7372 H 703.009 4.15107 0.725555 0
M  V30 7373 H 701.684 3.02945 1.14043 0
M  V30 7374 H 700.591 3.57174 -1.11255 0
M  V30 7375 H 701.924 4.70512 -1.44496 0
M  V30 7376 N 703.576 0.692616 1.41565 0
M  V30 7377 C 704.486 0.0258451 2.34586 0
M  V30 7378 C 705.502 -0.769324 1.56069 0
M  V30 7379 O 706.678 -0.707563 1.88562 0
M  V30 7380 C 703.743 -0.901289 3.3478 0
M  V30 7381 C 702.804 -0.0986579 4.29187 0
M  V30 7382 C 702.037 -0.981634 5.24595 0
M  V30 7383 O 702.26 -2.22115 5.25377 0
M  V30 7384 O 701.194 -0.432892 6.00341 0
M  V30 7385 H 705.02 0.792537 2.93177 0
M  V30 7386 H 702.605 0.452935 1.42369 0
M  V30 7387 H 704.487 -1.43302 3.96286 0
M  V30 7388 H 703.162 -1.64752 2.78637 0
M  V30 7389 H 702.069 0.477604 3.71039 0
M  V30 7390 H 703.402 0.608848 4.8842 0
M  V30 7391 N 705.054 -1.51416 0.437162 0
M  V30 7392 C 705.987 -2.24309 -0.419602 0
M  V30 7393 C 706.965 -1.26236 -1.02485 0
M  V30 7394 O 708.149 -1.5537 -1.06735 0
M  V30 7395 C 705.276 -2.99335 -1.58482 0
M  V30 7396 C 704.322 -4.12064 -1.10027 0
M  V30 7397 S 705.155 -5.35483 -0.0424476 0
M  V30 7398 C 706.311 -6.14047 -1.21234 0
M  V30 7399 H 706.544 -2.96632 0.199259 0
M  V30 7400 H 704.077 -1.528 0.22168 0
M  V30 7401 H 706.035 -3.43159 -2.25282 0
M  V30 7402 H 704.696 -2.26602 -2.17509 0
M  V30 7403 H 703.889 -4.63836 -1.97161 0
M  V30 7404 H 703.491 -3.70499 -0.510507 0
M  V30 7405 H 705.783 -6.43123 -2.13072 0
M  V30 7406 H 706.726 -7.04279 -0.734582 0
M  V30 7407 H 707.134 -5.45538 -1.45082 0
M  V30 7408 N 706.532 -0.168513 -1.56696 0
M  V30 7409 C 707.78 0.476216 -1.96409 0
M  V30 7410 C 708.101 1.63968 -1.05544 0
M  V30 7411 O 707.371 1.95525 -0.121235 0
M  V30 7412 H 705.951 0.178921 -0.725256 0
M  V30 7413 H 708.613 -0.249042 -1.93302 0
M  V30 7414 H 707.709 0.838094 -3.00637 0
M  V30 7415 N 708.01 1.57248 0.105221 0
M  V30 7416 C 708.958 2.02337 1.14728 0
M  V30 7417 C 709.952 0.922652 1.42069 0
M  V30 7418 O 711.158 1.10785 1.41869 0
M  V30 7419 H 707.533 0.644682 0.387155 0
M  V30 7420 H 709.504 2.89063 0.740607 0
M  V30 7421 C 708.253 2.45513 2.46209 0
M  V30 7422 H 707.576 3.29785 2.26013 0
M  V30 7423 H 709.016 2.80846 3.1765 0
M  V30 7424 C 707.475 1.3243 3.09781 0
M  V30 7425 O 708.005 0.647841 3.96442 0
M  V30 7426 N 706.211 1.07785 2.69872 0
M  V30 7427 H 705.758 1.62973 1.99493 0
M  V30 7428 H 705.716 0.323204 3.12734 0
M  V30 7429 N 709.488 -0.375779 1.53054 0
M  V30 7430 C 710.736 -1.11727 1.68409 0
M  V30 7431 C 711.057 -1.90127 0.43323 0
M  V30 7432 O 710.327 -1.87945 -0.552595 0
M  V30 7433 H 708.907 -0.415451 0.620813 0
M  V30 7434 H 711.569 -0.424869 1.90213 0
M  V30 7435 H 710.665 -1.8128 2.54055 0
M  V30 7436 N 710.966 -1.44241 -0.634997 0
M  V30 7437 C 712.206 -1.48339 -1.40623 0
M  V30 7438 C 712.57 -0.111479 -1.91676 0
M  V30 7439 O 713.771 -0.0271345 -2.68786 0
M  V30 7440 C 712.042 -2.51122 -2.54308 0
M  V30 7441 S 713.601 -2.74237 -3.42548 0
M  V30 7442 H 710.419 -0.524715 -0.479787 0
M  V30 7443 H 713.021 -1.81138 -0.735489 0
M  V30 7444 H 711.725 -3.49511 -2.15106 0
M  V30 7445 H 711.256 -2.19883 -3.26213 0
M  V30 7446 H 713.271 -2.0554 -4.51628 0
M  V30 7447 N 712.444 0.87505 -1.31075 0
M  V30 7448 C 713.691 1.62768 -1.20469 0
M  V30 7449 C 714.019 1.93034 0.23834 0
M  V30 7450 O 713.274 1.55693 1.18567 0
M  V30 7451 C 713.573 2.96948 -1.98888 0
M  V30 7452 C 713.239 2.86195 -3.4843 0
M  V30 7453 C 711.901 2.82969 -3.89207 0
M  V30 7454 C 714.253 2.73599 -4.43614 0
M  V30 7455 C 711.581 2.64999 -5.23443 0
M  V30 7456 C 713.933 2.57166 -5.77969 0
M  V30 7457 C 712.597 2.52321 -6.17973 0
M  V30 7458 H 711.867 0.595611 -0.440827 0
M  V30 7459 H 714.514 1.01665 -1.62285 0
M  V30 7460 H 712.819 3.62058 -1.49737 0
M  V30 7461 H 714.516 3.54164 -1.88067 0
M  V30 7462 H 711.106 2.8952 -3.16032 0
M  V30 7463 H 715.29 2.7515 -4.13045 0
M  V30 7464 H 710.546 2.5967 -5.53517 0
M  V30 7465 H 714.72 2.46396 -6.51354 0
M  V30 7466 H 712.347 2.38156 -7.21932 0
M  V30 7467 N 713.922 1.13953 1.08869 0
M  V30 7468 C 714.869 0.82213 2.15661 0
M  V30 7469 C 715.839 -0.218274 1.6466 0
M  V30 7470 O 717.024 -0.0892475 1.90591 0
M  V30 7471 C 714.164 0.300572 3.43789 0
M  V30 7472 C 713.277 1.40071 4.08661 0
M  V30 7473 C 712.412 0.836897 5.24566 0
M  V30 7474 C 711.451 1.91504 5.81371 0
M  V30 7475 N 710.588 1.36875 6.88629 0
M  V30 7476 H 715.428 1.73683 2.42153 0
M  V30 7477 H 712.965 0.866879 1.18843 0
M  V30 7478 H 714.923 -0.0199943 4.17195 0
M  V30 7479 H 713.553 -0.577248 3.17597 0
M  V30 7480 H 712.605 1.83776 3.33062 0
M  V30 7481 H 713.917 2.21534 4.46905 0
M  V30 7482 H 713.071 0.467953 6.04893 0
M  V30 7483 H 711.81 -0.00874207 4.87699 0
M  V30 7484 H 710.815 2.29299 4.99702 0
M  V30 7485 H 712.04 2.76419 6.20298 0
M  V30 7486 H 709.986 0.545211 6.5373 0
M  V30 7487 H 709.903 2.1198 7.25672 0
M  V30 7488 H 711.171 1.02756 7.72698 0
M  V30 7489 N 715.4 -1.26948 0.933913 0
M  V30 7490 C 716.649 -1.93378 0.573409 0
M  V30 7491 C 716.962 -1.74148 -0.890614 0
M  V30 7492 O 718.168 -2.34971 -1.36017 0
M  V30 7493 C 716.624 -3.46449 0.974747 0
M  V30 7494 C 716.232 -3.74425 2.45988 0
M  V30 7495 C 717.976 -4.18924 0.685791 0
M  V30 7496 C 715.883 -5.209 2.8003 0
M  V30 7497 H 714.813 -0.723952 0.210736 0
M  V30 7498 H 717.464 -1.44143 1.13557 0
M  V30 7499 H 715.846 -3.94528 0.341181 0
M  V30 7500 H 717.02 -3.37079 3.14188 0
M  V30 7501 H 715.335 -3.15167 2.72138 0
M  V30 7502 H 717.932 -5.26786 0.916546 0
M  V30 7503 H 718.275 -4.14587 -0.377217 0
M  V30 7504 H 718.808 -3.76687 1.27874 0
M  V30 7505 H 715.547 -5.30332 3.85264 0
M  V30 7506 H 715.067 -5.59369 2.16485 0
M  V30 7507 H 716.746 -5.88837 2.68105 0
M  V30 7508 N 716.879 -0.700114 -1.41195 0
M  V30 7509 C 718.109 -0.241828 -2.0518 0
M  V30 7510 C 718.517 1.1157 -1.52803 0
M  V30 7511 O 717.86 1.70926 -0.673042 0
M  V30 7512 C 717.922 -0.12695 -3.59276 0
M  V30 7513 C 717.586 -1.41725 -4.34469 0
M  V30 7514 C 718.583 -2.35604 -4.63451 0
M  V30 7515 C 716.268 -1.67189 -4.73659 0
M  V30 7516 C 718.262 -3.53204 -5.3059 0
M  V30 7517 C 715.949 -2.85073 -5.40534 0
M  V30 7518 C 716.947 -3.77904 -5.68927 0
M  V30 7519 O 716.635 -4.93723 -6.34424 0
M  V30 7520 H 716.367 -0.109247 -0.667114 0
M  V30 7521 H 718.921 -0.954538 -1.81873 0
M  V30 7522 H 717.151 0.641571 -3.81341 0
M  V30 7523 H 718.84 0.294748 -4.04828 0
M  V30 7524 H 719.606 -2.1719 -4.33651 0
M  V30 7525 H 715.485 -0.957935 -4.50937 0
M  V30 7526 H 719.029 -4.25679 -5.52669 0
M  V30 7527 H 714.926 -3.03402 -5.69752 0
M  V30 7528 H 715.694 -4.93597 -6.5292 0
M  V30 7529 N 718.357 1.51182 -0.445186 0
M  V30 7530 C 719.307 2.24804 0.380394 0
M  V30 7531 C 720.291 1.27344 0.983482 0
M  V30 7532 O 721.483 1.52392 0.900322 0
M  V30 7533 C 718.612 3.09922 1.4766 0
M  V30 7534 C 717.698 4.14816 0.882517 0
M  V30 7535 N 718.089 5.05797 0.0183278 0
M  V30 7536 C 716.387 4.30938 1.14927 0
M  V30 7537 C 717.088 5.8084 -0.316152 0
M  V30 7538 N 716.064 5.42759 0.302214 0
M  V30 7539 H 719.866 2.92508 -0.285737 0
M  V30 7540 H 717.38 1.60342 -0.257733 0
M  V30 7541 H 719.377 3.61249 2.08098 0
M  V30 7542 H 718.037 2.43763 2.14498 0
M  V30 7543 H 719.048 5.16725 -0.348679 0
M  V30 7544 H 715.725 3.76005 1.81457 0
M  V30 7545 H 717.115 6.64115 -1.01986 0
M  V30 7546 N 719.835 0.176821 1.56605 0
M  V30 7547 C 720.782 -0.751312 2.18229 0
M  V30 7548 C 721.752 -1.22297 1.12395 0
M  V30 7549 O 722.937 -1.29015 1.40569 0
M  V30 7550 C 720.077 -1.97291 2.83143 0
M  V30 7551 C 719.19 -1.54431 4.03454 0
M  V30 7552 C 718.325 -2.72 4.56278 0
M  V30 7553 C 717.364 -2.25657 5.68986 0
M  V30 7554 N 716.501 -3.36338 6.16296 0
M  V30 7555 H 721.341 -0.219033 2.97194 0
M  V30 7556 H 718.878 -0.0963803 1.46784 0
M  V30 7557 H 720.836 -2.68949 3.1894 0
M  V30 7558 H 719.466 -2.4788 2.06773 0
M  V30 7559 H 718.518 -0.724273 3.73441 0
M  V30 7560 H 719.83 -1.16417 4.85024 0
M  V30 7561 H 718.984 -3.51806 4.94285 0
M  V30 7562 H 717.723 -3.13277 3.73777 0
M  V30 7563 H 716.728 -1.44299 5.30526 0
M  V30 7564 H 717.953 -1.85432 6.53293 0
M  V30 7565 H 715.899 -3.7718 5.36723 0
M  V30 7566 H 715.816 -3.02435 6.9287 0
M  V30 7567 H 717.084 -4.16413 6.58954 0
M  V30 7568 N 721.313 -1.57302 -0.09688 0
M  V30 7569 C 722.553 -1.87823 -0.806334 0
M  V30 7570 C 722.917 -0.767593 -1.75989 0
M  V30 7571 O 724.118 -0.955173 -2.51257 0
M  V30 7572 C 722.389 -3.23585 -1.51749 0
M  V30 7573 S 723.948 -3.75795 -2.26547 0
M  V30 7574 H 720.766 -0.658281 -0.268676 0
M  V30 7575 H 723.368 -1.95397 -0.0635476 0
M  V30 7576 H 722.072 -4.0234 -0.809348 0
M  V30 7577 H 721.603 -3.19145 -2.30021 0
M  V30 7578 H 723.618 -3.49068 -3.52656 0
M  V30 7579 N 722.791 0.367657 -1.53252 0
M  V30 7580 C 724.068 1.12606 -1.59935 0
M  V30 7581 C 724.448 2.07167 -0.405606 0
M  V30 7582 O 723.796 2.20364 0.604323 0
M  V30 7583 C 724.006 1.86699 -2.94863 0
M  V30 7584 C 725.354 2.41306 -3.49366 0
M  V30 7585 O 726.378 1.96828 -2.96879 0
M  V30 7586 O 725.237 3.2261 -4.41118 0
M  V30 7587 H 722.331 0.516438 -0.645926 0
M  V30 7588 H 724.877 0.371088 -1.65593 0
M  V30 7589 H 723.649 1.17674 -3.73187 0
M  V30 7590 H 723.272 2.6911 -2.92687 0
M  V30 7591 N 724.269 1.44576 0.627338 0
M  V30 7592 C 725.217 1.52039 1.76031 0
M  V30 7593 C 726.211 0.391796 1.64807 0
M  V30 7594 O 727.417 0.5669 1.7084 0
M  V30 7595 H 723.792 0.477165 0.581221 0
M  V30 7596 H 725.763 2.47387 1.6686 0
M  V30 7597 C 724.512 1.48539 3.14375 0
M  V30 7598 H 723.835 2.34699 3.23661 0
M  V30 7599 H 725.275 1.57821 3.93534 0
M  V30 7600 C 723.734 0.20672 3.36265 0
M  V30 7601 O 724.264 -0.72154 3.95167 0
M  V30 7602 N 722.47 0.108654 2.90397 0
M  V30 7603 H 722.017 0.864884 2.42647 0
M  V30 7604 H 721.975 -0.746121 3.05418 0
M  V30 7605 N 725.747 -0.868086 1.31537 0
M  V30 7606 C 726.71 -1.95703 1.19302 0
M  V30 7607 C 727.71 -1.60355 0.119612 0
M  V30 7608 O 728.9 -1.70247 0.36902 0
M  V30 7609 C 726.032 -3.30599 0.831684 0
M  V30 7610 H 727.225 -2.07982 2.16064 0
M  V30 7611 H 724.778 -1.05661 1.15176 0
M  V30 7612 H 725.513 -3.2402 -0.134694 0
M  V30 7613 H 725.298 -3.57629 1.60761 0
M  V30 7614 H 726.788 -4.10439 0.770026 0
M  V30 7615 N 727.225 -1.14528 -1.08264 0
M  V30 7616 C 728.465 -0.924808 -1.82282 0
M  V30 7617 C 728.829 0.538881 -1.84283 0
M  V30 7618 O 730.03 0.877355 -2.54079 0
M  V30 7619 C 728.301 -1.51102 -3.23887 0
M  V30 7620 S 729.86 -1.43232 -4.14765 0
M  V30 7621 H 726.678 -0.333052 -0.62817 0
M  V30 7622 H 729.28 -1.45905 -1.30123 0
M  V30 7623 H 727.984 -2.56942 -3.20014 0
M  V30 7624 H 727.515 -0.975234 -3.8112 0
M  V30 7625 H 729.53 -0.418843 -4.94429 0
M  V30 7626 N 728.703 1.26451 -0.940633 0
M  V30 7627 C 729.952 1.93071 -0.583656 0
M  V30 7628 C 730.265 1.74618 0.881366 0
M  V30 7629 O 731.471 2.35689 1.34769 0
M  V30 7630 C 729.927 3.45927 -0.993106 0
M  V30 7631 C 729.535 3.73115 -2.4797 0
M  V30 7632 C 731.279 4.18554 -0.707998 0
M  V30 7633 C 729.186 5.19408 -2.82788 0
M  V30 7634 H 728.116 0.722824 -0.214572 0
M  V30 7635 H 730.767 1.43538 -1.1432 0
M  V30 7636 H 729.149 3.94341 -0.362099 0
M  V30 7637 H 730.323 3.35408 -3.15971 0
M  V30 7638 H 728.638 3.13719 -2.73805 0
M  V30 7639 H 731.235 5.26293 -0.94447 0
M  V30 7640 H 731.578 4.14782 0.355225 0
M  V30 7641 H 732.111 3.76003 -1.2987 0
M  V30 7642 H 728.85 5.28281 -3.88071 0
M  V30 7643 H 728.37 5.58214 -2.19449 0
M  V30 7644 H 730.049 5.87407 -2.71224 0
M  V30 7645 N 730.181 0.707592 1.40822 0
M  V30 7646 C 731.091 0.0507246 2.34545 0
M  V30 7647 C 732.107 -0.752727 1.56876 0
M  V30 7648 O 733.283 -0.687524 1.89302 0
M  V30 7649 C 730.348 -0.865731 3.35717 0
M  V30 7650 C 729.409 -0.0531313 4.29267 0
M  V30 7651 C 728.642 -0.925939 5.25606 0
M  V30 7652 O 728.865 -2.16531 5.27703 0
M  V30 7653 O 727.799 -0.369194 6.00767 0
M  V30 7654 H 731.625 0.823587 2.9232 0
M  V30 7655 H 729.21 0.46801 1.4188 0
M  V30 7656 H 731.092 -1.39091 3.97783 0
M  V30 7657 H 729.767 -1.61788 2.80368 0
M  V30 7658 H 728.674 0.516931 3.70511 0
M  V30 7659 H 730.007 0.660617 4.87747 0
M  V30 7660 N 731.66 -1.50943 0.453197 0
M  V30 7661 C 732.885 -2.07116 -0.108463 0
M  V30 7662 C 733.31 -1.31681 -1.3432 0
M  V30 7663 O 732.668 -0.359256 -1.77705 0
M  V30 7664 C 732.716 -3.58447 -0.393424 0
M  V30 7665 O 731.82 -3.85038 -1.47714 0
M  V30 7666 H 731.161 -0.66398 0.0050993 0
M  V30 7667 H 733.691 -1.94362 0.639095 0
M  V30 7668 H 733.701 -4.02961 -0.639222 0
M  V30 7669 H 732.376 -4.12774 0.508946 0
M  V30 7670 H 730.953 -3.52376 -1.22006 0
M  V30 7671 N 733.138 -0.185124 -1.56509 0
M  V30 7672 C 734.387 0.456421 -1.96468 0
M  V30 7673 C 734.7 1.63448 -1.07444 0
M  V30 7674 O 735.906 2.34316 -1.37143 0
M  V30 7675 C 734.362 0.863404 -3.4939 0
M  V30 7676 C 733.97 -0.289815 -4.47062 0
M  V30 7677 C 735.714 1.47259 -3.98139 0
M  V30 7678 C 733.621 0.137571 -5.9124 0
M  V30 7679 H 732.551 0.17429 -0.733579 0
M  V30 7680 H 735.202 -0.275554 -1.81419 0
M  V30 7681 H 733.584 1.65176 -3.59907 0
M  V30 7682 H 734.758 -1.06728 -4.4827 0
M  V30 7683 H 733.073 -0.809851 -4.08449 0
M  V30 7684 H 735.67 1.80463 -5.03326 0
M  V30 7685 H 736.013 2.3755 -3.41871 0
M  V30 7686 H 736.546 0.748405 -3.90696 0
M  V30 7687 H 733.285 -0.730907 -6.51412 0
M  V30 7688 H 732.805 0.8801 -5.93308 0
M  V30 7689 H 734.484 0.576771 -6.44424 0
M  V30 7690 N 734.616 1.57351 0.0885366 0
M  V30 7691 C 736.032 1.53331 0.442916 0
M  V30 7692 C 736.232 0.902831 1.80142 0
M  V30 7693 O 735.288 0.498147 2.47537 0
M  V30 7694 C 736.601 2.98036 0.399372 0
M  V30 7695 C 738.149 3.09286 0.480759 0
M  V30 7696 C 738.624 4.5561 0.467296 0
M  V30 7697 N 740.115 4.60182 0.52786 0
M  V30 7698 C 740.85 5.70857 0.539388 0
M  V30 7699 N 740.346 6.90944 0.506729 0
M  V30 7700 N 742.139 5.59051 0.584691 0
M  V30 7701 H 734.29 1.96709 -0.801215 0
M  V30 7702 H 736.553 0.899639 -0.298922 0
M  V30 7703 H 736.259 3.47656 -0.531806 0
M  V30 7704 H 736.133 3.57066 1.21589 0
M  V30 7705 H 738.52 2.5965 1.40236 0
M  V30 7706 H 738.601 2.53197 -0.364023 0
M  V30 7707 H 738.245 5.05899 -0.450384 0
M  V30 7708 H 738.175 5.09544 1.32938 0
M  V30 7709 H 740.666 3.73757 0.558028 0
M  V30 7710 H 740.979 7.71055 0.518989 0
M  V30 7711 H 739.324 6.93384 0.473675 0
M  V30 7712 H 742.515 4.64138 0.607781 0
M  V30 7713 H 742.688 6.45307 0.590206 0
M  V30 7714 N 736.094 -0.359525 1.53444 0
M  V30 7715 C 737.042 -1.46104 1.80987 0
M  V30 7716 C 738.036 -1.55181 0.679351 0
M  V30 7717 O 739.242 -1.57995 0.862405 0
M  V30 7718 H 735.617 -0.486835 0.573145 0
M  V30 7719 H 737.588 -1.2008 2.73173 0
M  V30 7720 C 736.337 -2.82855 2.02208 0
M  V30 7721 H 735.66 -2.76631 2.88644 0
M  V30 7722 H 737.1 -3.59091 2.25455 0
M  V30 7723 C 735.559 -3.27192 0.802931 0
M  V30 7724 O 736.089 -4.017 -0.00544286 0
M  V30 7725 N 734.295 -2.83807 0.624657 0
M  V30 7726 H 733.842 -2.23339 1.28364 0
M  V30 7727 H 733.8 -3.13828 -0.189641 0
M  V30 7728 N 737.572 -1.44907 -0.619662 0
M  V30 7729 C 738.82 -1.47999 -1.37625 0
M  V30 7730 C 739.141 -0.118295 -1.94641 0
M  V30 7731 O 738.411 0.85086 -1.76457 0
M  V30 7732 H 736.991 -0.544993 -0.510873 0
M  V30 7733 H 739.653 -1.80772 -0.728522 0
M  V30 7734 H 738.749 -2.21196 -2.20179 0
M  V30 7735 N 739.05 0.861098 -1.31996 0
M  V30 7736 C 740.278 1.6474 -1.25173 0
M  V30 7737 C 740.693 1.87926 0.181425 0
M  V30 7738 O 740.05 1.4437 1.1164 0
M  V30 7739 C 740.101 3.01036 -2.0015 0
M  V30 7740 O 739.822 2.7888 -3.37872 0
M  V30 7741 C 741.323 3.95481 -2.00273 0
M  V30 7742 H 738.543 0.513314 -0.432146 0
M  V30 7743 H 741.087 1.07419 -1.74016 0
M  V30 7744 H 739.242 3.55021 -1.55046 0
M  V30 7745 H 739.656 3.65514 -3.76165 0
M  V30 7746 H 741.13 4.88403 -2.57229 0
M  V30 7747 H 741.607 4.27957 -0.987407 0
M  V30 7748 H 742.213 3.47433 -2.45296 0
M  V30 7749 N 740.528 1.15101 1.07655 0
M  V30 7750 C 741.758 0.946357 1.83651 0
M  V30 7751 C 742.166 -0.508641 1.82235 0
M  V30 7752 O 741.509 -1.36445 1.22997 0
M  V30 7753 C 741.571 1.37945 3.31981 0
M  V30 7754 C 741.235 2.85155 3.57122 0
M  V30 7755 C 742.232 3.83234 3.51323 0
M  V30 7756 C 739.917 3.2275 3.84887 0
M  V30 7757 C 741.911 5.16914 3.72932 0
M  V30 7758 C 739.598 4.56604 4.06148 0
M  V30 7759 C 740.596 5.53495 4.00165 0
M  V30 7760 O 740.284 6.84931 4.20861 0
M  V30 7761 H 740.016 0.336368 0.586372 0
M  V30 7762 H 742.57 1.53198 1.36819 0
M  V30 7763 H 740.8 0.737205 3.79608 0
M  V30 7764 H 742.489 1.14439 3.89434 0
M  V30 7765 H 743.255 3.55535 3.29878 0
M  V30 7766 H 739.134 2.47921 3.88659 0
M  V30 7767 H 742.678 5.92529 3.68178 0
M  V30 7768 H 738.575 4.84019 4.27078 0
M  V30 7769 H 739.343 6.91304 4.38226 0
M  V30 7770 N 742.006 -1.2595 0.947325 0
M  V30 7771 C 743.283 -1.88676 0.515824 0
M  V30 7772 C 743.663 -1.85547 -1.00675 0
M  V30 7773 O 743.011 -1.31399 -1.8694 0
M  V30 7774 C 743.221 -3.31734 1.08415 0
M  V30 7775 C 744.569 -4.08545 1.15654 0
M  V30 7776 O 745.593 -3.40826 1.03517 0
M  V30 7777 O 744.452 -5.29663 1.34608 0
M  V30 7778 H 741.546 -0.809537 0.169055 0
M  V30 7779 H 744.092 -1.34075 1.04029 0
M  V30 7780 H 742.864 -3.28404 2.1276 0
M  V30 7781 H 742.487 -3.93882 0.542499 0
M  V30 7782 N 743.484 -0.715051 -1.40445 0
M  V30 7783 C 744.434 -0.038591 -2.27967 0
M  V30 7784 C 745.418 0.733099 -1.43229 0
M  V30 7785 O 746.61 0.605388 -1.66325 0
M  V30 7786 C 743.739 0.882801 -3.31755 0
M  V30 7787 C 742.825 0.106325 -4.23967 0
M  V30 7788 N 743.216 -0.910143 -4.97544 0
M  V30 7789 C 741.514 0.33896 -4.4471 0
M  V30 7790 C 742.215 -1.37665 -5.65175 0
M  V30 7791 N 741.191 -0.698905 -5.39088 0
M  V30 7792 H 744.993 -0.81765 -2.82297 0
M  V30 7793 H 742.507 -0.547591 -1.5289 0
M  V30 7794 H 744.504 1.38273 -3.93302 0
M  V30 7795 H 743.164 1.66124 -2.78985 0
M  V30 7796 H 744.175 -1.29097 -5.01552 0
M  V30 7797 H 740.852 1.09377 -4.02918 0
M  V30 7798 H 742.242 -2.22122 -6.34123 0
M  V30 7799 N 744.962 1.50701 -0.461195 0
M  V30 7800 C 746.239 1.94958 0.158296 0
M  V30 7801 C 746.619 1.40111 1.57899 0
M  V30 7802 O 745.967 0.597976 2.20537 0
M  V30 7803 C 746.177 3.48821 0.11172 0
M  V30 7804 C 747.525 4.23499 0.30552 0
M  V30 7805 O 748.549 3.557 0.188758 0
M  V30 7806 O 747.408 5.43823 0.540244 0
M  V30 7807 H 744.502 0.818674 0.117054 0
M  V30 7808 H 747.048 1.61508 -0.520888 0
M  V30 7809 H 745.82 3.81263 -0.880577 0
M  V30 7810 H 745.443 3.88781 0.832791 0
M  V30 7811 N 746.441 0.193421 1.56409 0
M  V30 7812 C 747.687 -0.446449 1.97825 0
M  V30 7813 C 748.02 -1.61386 1.08019 0
M  V30 7814 O 747.295 -1.94053 0.131839 0
M  V30 7815 C 747.578 -0.908199 3.48459 0
M  V30 7816 C 747.431 0.260914 4.49043 0
M  V30 7817 C 748.75 -1.77428 4.0275 0
M  V30 7818 H 745.869 -0.160807 0.719243 0
M  V30 7819 H 748.511 0.284006 1.87865 0
M  V30 7820 H 746.661 -1.53062 3.57077 0
M  V30 7821 H 748.333 0.898548 4.52464 0
M  V30 7822 H 746.576 0.912949 4.24085 0
M  V30 7823 H 747.247 -0.104657 5.51901 0
M  V30 7824 H 749.723 -1.24936 3.96901 0
M  V30 7825 H 748.599 -2.06633 5.08521 0
M  V30 7826 H 748.86 -2.72788 3.47907 0
M  V30 7827 N 747.919 -1.57396 -0.0801906 0
M  V30 7828 C 749.149 -1.90778 -0.792924 0
M  V30 7829 C 749.557 -0.786814 -1.72064 0
M  V30 7830 O 748.9 0.249259 -1.82001 0
M  V30 7831 C 748.962 -3.19552 -1.64702 0
M  V30 7832 C 748.626 -4.48259 -0.889567 0
M  V30 7833 C 749.623 -5.19465 -0.212602 0
M  V30 7834 C 747.308 -4.94896 -0.859229 0
M  V30 7835 C 749.302 -6.35555 0.484566 0
M  V30 7836 C 746.989 -6.10895 -0.158284 0
M  V30 7837 C 747.987 -6.81075 0.512421 0
M  V30 7838 O 747.675 -7.94862 1.20209 0
M  V30 7839 H 747.407 -0.63527 -0.231103 0
M  V30 7840 H 749.961 -2.0532 -0.0573081 0
M  V30 7841 H 748.191 -3.01196 -2.42524 0
M  V30 7842 H 749.88 -3.38649 -2.23767 0
M  V30 7843 H 750.646 -4.84467 -0.227403 0
M  V30 7844 H 746.525 -4.4015 -1.37073 0
M  V30 7845 H 750.069 -6.9027 1.00864 0
M  V30 7846 H 745.966 -6.45345 -0.141381 0
M  V30 7847 H 746.734 -8.10932 1.11051 0
M  V30 7848 N 749.397 0.351382 -1.53633 0
M  V30 7849 C 750.813 0.693987 -1.43722 0
M  V30 7850 C 751.013 1.9274 -0.587669 0
M  V30 7851 O 750.069 2.52387 -0.0756082 0
M  V30 7852 C 751.382 0.893937 -2.87105 0
M  V30 7853 C 752.93 0.993051 -2.96829 0
M  V30 7854 C 753.405 1.22537 -4.41303 0
M  V30 7855 N 754.896 1.29275 -4.44795 0
M  V30 7856 C 755.631 1.48988 -5.53706 0
M  V30 7857 N 755.127 1.65924 -6.72637 0
M  V30 7858 N 756.92 1.51472 -5.41306 0
M  V30 7859 H 749.071 -0.459688 -2.07366 0
M  V30 7860 H 751.334 -0.143684 -0.937048 0
M  V30 7861 H 751.04 0.0592517 -3.5165 0
M  V30 7862 H 750.914 1.79795 -3.31592 0
M  V30 7863 H 753.301 1.81827 -2.32429 0
M  V30 7864 H 753.382 0.0661119 -2.55715 0
M  V30 7865 H 753.026 0.405117 -5.06282 0
M  V30 7866 H 752.956 2.16575 -4.80003 0
M  V30 7867 H 755.447 1.17743 -3.59089 0
M  V30 7868 H 755.76 1.80578 -7.51406 0
M  V30 7869 H 754.105 1.63075 -6.75597 0
M  V30 7870 H 757.296 1.37818 -4.47352 0
M  V30 7871 H 757.469 1.66493 -6.26246 0
M  V30 7872 N 750.875 1.45233 0.611969 0
M  V30 7873 C 752.152 1.39495 1.37115 0
M  V30 7874 C 752.532 0.0633303 2.11005 0
M  V30 7875 O 751.88 -0.954617 2.07604 0
M  V30 7876 C 752.09 2.60579 2.32163 0
M  V30 7877 C 753.438 3.05477 2.94905 0
M  V30 7878 O 754.462 2.60921 2.42485 0
M  V30 7879 O 753.321 3.82787 3.90047 0
M  V30 7880 H 750.415 0.55335 0.614599 0
M  V30 7881 H 752.961 1.57355 0.635423 0
M  V30 7882 H 751.733 3.49085 1.76793 0
M  V30 7883 H 751.356 2.45031 3.13122 0
M  V30 7884 N 752.353 -0.854086 1.3245 0
M  V30 7885 C 753.263 -1.99503 1.23434 0
M  V30 7886 C 754.279 -1.73371 0.147828 0
M  V30 7887 O 755.455 -1.97998 0.368609 0
M  V30 7888 C 752.52 -3.33192 0.958328 0
M  V30 7889 C 751.581 -3.72542 2.13333 0
M  V30 7890 C 750.814 -4.99852 1.8704 0
M  V30 7891 O 751.037 -5.64573 0.813239 0
M  V30 7892 O 749.971 -5.36345 2.73161 0
M  V30 7893 H 753.797 -2.10046 2.1935 0
M  V30 7894 H 751.382 -0.984823 1.12346 0
M  V30 7895 H 753.264 -4.13327 0.820918 0
M  V30 7896 H 751.939 -3.23687 0.0293299 0
M  V30 7897 H 750.846 -2.92981 2.32622 0
M  V30 7898 H 752.179 -3.86694 3.04514 0
M  V30 7899 N 753.831 -1.1567 -1.07043 0
M  V30 7900 C 754.794 -0.858906 -2.12498 0
M  V30 7901 C 755.794 0.142735 -1.60165 0
M  V30 7902 O 756.984 -0.0872678 -1.73981 0
M  V30 7903 C 754.116 -0.283021 -3.39723 0
M  V30 7904 H 755.309 -1.79368 -2.40348 0
M  V30 7905 H 752.862 -0.964608 -1.22984 0
M  V30 7906 H 753.597 0.659796 -3.17517 0
M  V30 7907 H 753.382 -1.00467 -3.7901 0
M  V30 7908 H 754.872 -0.0923543 -4.17498 0
M  V30 7909 N 755.309 1.25446 -0.953992 0
M  V30 7910 C 756.239 2.28264 -0.491717 0
M  V30 7911 C 757.22 1.63717 0.461617 0
M  V30 7912 O 758.405 1.90821 0.36071 0
M  V30 7913 C 755.535 3.46525 0.231915 0
M  V30 7914 C 754.489 4.23247 -0.636098 0
M  V30 7915 C 753.815 5.34254 0.218238 0
M  V30 7916 C 755.115 4.85971 -1.91389 0
M  V30 7917 H 756.809 2.67183 -1.35106 0
M  V30 7918 H 754.355 1.2844 -0.651095 0
M  V30 7919 H 756.308 4.17576 0.566439 0
M  V30 7920 H 755.032 3.06594 1.12551 0
M  V30 7921 H 753.691 3.53978 -0.953696 0
M  V30 7922 H 753.339 4.90564 1.11156 0
M  V30 7923 H 753.039 5.86501 -0.359232 0
M  V30 7924 H 754.563 6.08138 0.547743 0
M  V30 7925 H 755.977 5.49168 -1.64581 0
M  V30 7926 H 754.374 5.48391 -2.43696 0
M  V30 7927 H 755.444 4.08192 -2.61738 0
M  V30 7928 N 756.787 0.722489 1.40064 0
M  V30 7929 C 757.735 0.063329 2.32514 0
M  V30 7930 C 758.729 -0.73953 1.52405 0
M  V30 7931 O 759.935 -0.642122 1.68157 0
M  V30 7932 H 756.31 0.00167692 0.751998 0
M  V30 7933 H 758.281 0.859656 2.85749 0
M  V30 7934 C 757.03 -0.839219 3.3742 0
M  V30 7935 H 756.353 -0.230836 3.99133 0
M  V30 7936 H 757.793 -1.26827 4.04587 0
M  V30 7937 C 756.252 -1.96783 2.73456 0
M  V30 7938 O 756.782 -3.05933 2.60323 0
M  V30 7939 N 754.988 -1.75351 2.31734 0
M  V30 7940 H 754.535 -0.865787 2.42615 0
M  V30 7941 H 754.493 -2.51043 1.89275 0
M  V30 7942 N 758.265 -1.50454 0.469181 0
M  V30 7943 C 759.213 -2.30101 -0.340033 0
M  V30 7944 C 760.207 -1.37306 -0.992135 0
M  V30 7945 O 761.413 -1.54506 -0.923458 0
M  V30 7946 H 757.788 -0.740941 -0.128495 0
M  V30 7947 H 759.759 -2.96315 0.352144 0
M  V30 7948 C 758.508 -3.17804 -1.41052 0
M  V30 7949 H 757.831 -3.89115 -0.918124 0
M  V30 7950 H 759.271 -3.76533 -1.94934 0
M  V30 7951 C 757.73 -2.35272 -2.4114 0
M  V30 7952 O 758.26 -2.03448 -3.4637 0
M  V30 7953 N 756.466 -1.97889 -2.1281 0
M  V30 7954 H 756.013 -2.2397 -1.27261 0
M  V30 7955 H 755.971 -1.42971 -2.80012 0
M  V30 7956 N 759.743 -0.201713 -1.56304 0
M  V30 7957 C 761.159 0.154025 -1.58855 0
M  V30 7958 C 761.359 1.60516 -1.21807 0
M  V30 7959 O 760.415 2.34193 -0.94393 0
M  V30 7960 C 761.728 -0.154319 -3.00304 0
M  V30 7961 C 763.276 -0.0949578 -3.12856 0
M  V30 7962 C 763.751 -0.376703 -4.56448 0
M  V30 7963 N 765.242 -0.325558 -4.62054 0
M  V30 7964 C 765.977 -0.51732 -5.71062 0
M  V30 7965 N 765.473 -0.769789 -6.8851 0
M  V30 7966 N 767.266 -0.45112 -5.60287 0
M  V30 7967 H 759.417 -1.14858 -1.78666 0
M  V30 7968 H 761.68 -0.458934 -0.829508 0
M  V30 7969 H 761.386 -1.16074 -3.31994 0
M  V30 7970 H 761.26 0.540014 -3.73314 0
M  V30 7971 H 763.647 0.902075 -2.80974 0
M  V30 7972 H 763.728 -0.822468 -2.42217 0
M  V30 7973 H 763.372 -1.37108 -4.89044 0
M  V30 7974 H 763.302 0.371772 -5.25286 0
M  V30 7975 H 765.793 -0.137308 -3.7765 0
M  V30 7976 H 766.106 -0.904744 -7.67486 0
M  V30 7977 H 764.451 -0.806758 -6.90302 0
M  V30 7978 H 767.642 -0.254253 -4.67409 0
M  V30 7979 H 767.815 -0.603982 -6.45179 0
M  V30 7980 N 761.222 1.57436 0.0718424 0
M  V30 7981 C 762.469 1.87248 0.771007 0
M  V30 7982 C 762.797 0.793441 1.7758 0
M  V30 7983 O 762.052 -0.210565 1.94564 0
M  V30 7984 C 762.351 3.23723 1.51455 0
M  V30 7985 C 762.017 4.46194 0.649736 0
M  V30 7986 C 760.679 4.79438 0.411409 0
M  V30 7987 C 763.031 5.21176 0.05004 0
M  V30 7988 C 760.359 5.85077 -0.436096 0
M  V30 7989 C 762.711 6.27712 -0.784919 0
M  V30 7990 C 761.375 6.59457 -1.03312 0
M  V30 7991 H 760.645 0.685188 0.282132 0
M  V30 7992 H 763.292 1.91474 0.0317896 0
M  V30 7993 H 761.597 3.15287 2.32597 0
M  V30 7994 H 763.294 3.44023 2.06031 0
M  V30 7995 H 759.884 4.20175 0.84562 0
M  V30 7996 H 764.068 4.95806 0.221282 0
M  V30 7997 H 759.324 6.08071 -0.637136 0
M  V30 7998 H 763.498 6.84974 -1.25635 0
M  V30 7999 H 761.125 7.4114 -1.6916 0
M  V30 8000 N 762.7 -0.34323 1.53817 0
M  V30 8001 C 763.632 -1.44216 1.78141 0
M  V30 8002 C 764.645 -1.48701 0.662721 0
M  V30 8003 O 765.834 -1.51778 0.939458 0
M  V30 8004 C 762.934 -2.82872 1.86646 0
M  V30 8005 C 762.107 -3.01824 3.16577 0
M  V30 8006 C 761.166 -4.20723 3.16036 0
M  V30 8007 O 760.192 -4.14824 3.89756 0
M  V30 8008 N 761.394 -5.29276 2.38427 0
M  V30 8009 H 764.159 -1.23721 2.72971 0
M  V30 8010 H 761.72 -0.53311 1.52871 0
M  V30 8011 H 763.712 -3.60588 1.83735 0
M  V30 8012 H 762.282 -2.96509 0.990014 0
M  V30 8013 H 761.502 -2.11575 3.3261 0
M  V30 8014 H 762.79 -3.11369 4.02402 0
M  V30 8015 H 762.188 -5.36938 1.78085 0
M  V30 8016 H 760.745 -6.05484 2.41313 0
M  V30 8017 N 764.178 -1.45556 -0.604258 0
M  V30 8018 C 765.427 -1.49019 -1.35928 0
M  V30 8019 C 765.74 -0.137409 -1.95117 0
M  V30 8020 O 766.946 -0.0497032 -2.71455 0
M  V30 8021 C 765.402 -2.62477 -2.46239 0
M  V30 8022 C 765.01 -4.04082 -1.93447 0
M  V30 8023 C 766.754 -2.7519 -3.23219 0
M  V30 8024 C 764.661 -5.08917 -3.0126 0
M  V30 8025 H 763.591 -0.554518 -0.510907 0
M  V30 8026 H 766.242 -1.71705 -0.647262 0
M  V30 8027 H 764.624 -2.3308 -3.2014 0
M  V30 8028 H 765.798 -4.43173 -1.26232 0
M  V30 8029 H 764.113 -3.95849 -1.29201 0
M  V30 8030 H 766.71 -3.50683 -4.0364 0
M  V30 8031 H 767.053 -1.81941 -3.74437 0
M  V30 8032 H 767.586 -3.04129 -2.56418 0
M  V30 8033 H 764.325 -6.03886 -2.54955 0
M  V30 8034 H 763.845 -4.74393 -3.67031 0
M  V30 8035 H 765.524 -5.33814 -3.65584 0
M  V30 8036 N 765.656 0.84705 -1.32902 0
M  V30 8037 C 766.603 1.95624 -1.22473 0
M  V30 8038 C 767.573 1.65767 -0.105178 0
M  V30 8039 O 768.758 1.88704 -0.282042 0
M  V30 8040 C 765.898 3.31434 -0.961542 0
M  V30 8041 C 765.011 3.73741 -2.1666 0
M  V30 8042 C 764.146 4.98379 -1.83825 0
M  V30 8043 C 763.185 5.33199 -3.00609 0
M  V30 8044 N 762.322 6.49014 -2.67816 0
M  V30 8045 H 767.162 2.03875 -2.17345 0
M  V30 8046 H 764.699 0.997764 -1.08088 0
M  V30 8047 H 766.657 4.09663 -0.789411 0
M  V30 8048 H 765.287 3.22762 -0.0495938 0
M  V30 8049 H 764.339 2.91102 -2.44875 0
M  V30 8050 H 765.651 3.95462 -3.03993 0
M  V30 8051 H 764.805 5.84336 -1.63208 0
M  V30 8052 H 763.544 4.78611 -0.937172 0
M  V30 8053 H 762.549 4.4575 -3.21849 0
M  V30 8054 H 763.774 5.5492 -3.9146 0
M  V30 8055 H 761.72 6.30748 -1.80258 0
M  V30 8056 H 761.637 6.7079 -3.48679 0
M  V30 8057 H 762.905 7.38103 -2.50647 0
M  V30 8058 N 767.134 1.16236 1.06428 0
M  V30 8059 C 768.382 0.941171 1.78847 0
M  V30 8060 C 768.703 -0.53248 1.87589 0
M  V30 8061 O 767.973 -1.38686 1.38358 0
M  V30 8062 H 766.553 0.345228 0.66244 0
M  V30 8063 H 769.215 1.46479 1.28569 0
M  V30 8064 H 768.311 1.35871 2.80972 0
M  V30 8065 N 768.612 -1.24939 0.960631 0
M  V30 8066 C 769.858 -1.93104 0.61958 0
M  V30 8067 C 770.191 -1.74991 -0.84212 0
M  V30 8068 O 769.466 -1.09867 -1.60498 0
M  V30 8069 C 769.749 -3.46326 0.986422 0
M  V30 8070 C 769.602 -3.73638 2.50429 0
M  V30 8071 C 770.921 -4.37067 0.515827 0
M  V30 8072 H 768.04 -0.701311 0.226566 0
M  V30 8073 H 770.682 -1.47442 1.19836 0
M  V30 8074 H 768.832 -3.85348 0.493907 0
M  V30 8075 H 770.504 -3.44217 3.07103 0
M  V30 8076 H 768.747 -3.19035 2.93937 0
M  V30 8077 H 769.418 -4.80815 2.71147 0
M  V30 8078 H 771.894 -4.05381 0.938389 0
M  V30 8079 H 770.77 -5.43022 0.80114 0
M  V30 8080 H 771.031 -4.38224 -0.584171 0
M  V30 8081 N 770.09 -0.729906 -1.39679 0
M  V30 8082 C 771 -0.0880322 -2.34435 0
M  V30 8083 C 772.016 0.727674 -1.58053 0
M  V30 8084 O 773.192 0.657321 -1.90371 0
M  V30 8085 C 770.257 0.812211 -3.37052 0
M  V30 8086 C 769.318 -0.0151681 -4.29297 0
M  V30 8087 C 768.551 0.842202 -5.27013 0
M  V30 8088 O 768.774 2.08108 -5.31081 0
M  V30 8089 O 767.708 0.27357 -6.01278 0
M  V30 8090 H 771.534 -0.869989 -2.90972 0
M  V30 8091 H 769.119 -0.490522 -1.41118 0
M  V30 8092 H 771.001 1.32745 -3.99946 0
M  V30 8093 H 769.676 1.57307 -2.82907 0
M  V30 8094 H 768.583 -0.575811 -3.69642 0
M  V30 8095 H 769.916 -0.738129 -4.86634 0
M  V30 8096 N 771.568 1.50203 -0.477153 0
M  V30 8097 C 772.498 2.31517 0.303646 0
M  V30 8098 C 773.479 1.38696 0.984753 0
M  V30 8099 O 774.664 1.67615 0.980758 0
M  V30 8100 C 771.794 3.18598 1.38249 0
M  V30 8101 C 770.748 4.2002 0.822645 0
M  V30 8102 C 770.074 4.95878 2.00024 0
M  V30 8103 C 771.374 5.22023 -0.170185 0
M  V30 8104 H 773.068 2.97042 -0.375027 0
M  V30 8105 H 770.614 1.42848 -0.181802 0
M  V30 8106 H 772.567 3.74282 1.93625 0
M  V30 8107 H 771.291 2.5097 2.09002 0
M  V30 8108 H 769.95 3.65445 0.290813 0
M  V30 8109 H 769.598 4.24717 2.69489 0
M  V30 8110 H 769.298 5.64487 1.63183 0
M  V30 8111 H 770.822 5.54399 2.55878 0
M  V30 8112 H 772.236 5.72543 0.294606 0
M  V30 8113 H 770.633 5.98386 -0.453181 0
M  V30 8114 H 771.703 4.72396 -1.09408 0
M  V30 8115 N 773.046 0.209999 1.56195 0
M  V30 8116 C 773.993 -0.704854 2.19774 0
M  V30 8117 C 774.963 -1.19886 1.14964 0
M  V30 8118 O 776.148 -1.26005 1.43274 0
M  V30 8119 C 773.288 -1.91241 2.87265 0
M  V30 8120 C 772.401 -1.45838 4.06639 0
M  V30 8121 C 771.536 -2.6226 4.61945 0
M  V30 8122 C 770.575 -2.13537 5.73645 0
M  V30 8123 N 769.712 -3.2319 6.23292 0
M  V30 8124 H 774.552 -0.155944 2.97592 0
M  V30 8125 H 772.089 -0.0652235 1.46955 0
M  V30 8126 H 774.047 -2.62123 3.24573 0
M  V30 8127 H 772.677 -2.43439 2.11985 0
M  V30 8128 H 771.729 -0.644897 3.74894 0
M  V30 8129 H 773.041 -1.06103 4.87384 0
M  V30 8130 H 772.195 -3.41243 5.01636 0
M  V30 8131 H 770.934 -3.05278 3.80338 0
M  V30 8132 H 769.939 -1.33013 5.33468 0
M  V30 8133 H 771.164 -1.71533 6.57079 0
M  V30 8134 H 769.11 -3.65711 5.44602 0
M  V30 8135 H 769.027 -2.8767 6.99129 0
M  V30 8136 H 770.295 -4.02342 6.67639 0
M  V30 8137 N 774.524 -1.57472 -0.0634922 0
M  V30 8138 C 775.749 -1.92273 -0.77756 0
M  V30 8139 C 776.174 -0.807141 -1.69902 0
M  V30 8140 O 775.532 0.239523 -1.79711 0
M  V30 8141 C 775.58 -3.26054 -1.54017 0
M  V30 8142 O 774.684 -3.15873 -2.65138 0
M  V30 8143 H 774.025 -0.629389 -0.211579 0
M  V30 8144 H 776.555 -2.04579 -0.0292523 0
M  V30 8145 H 776.565 -3.60127 -1.91763 0
M  V30 8146 H 775.24 -4.06824 -0.864128 0
M  V30 8147 H 773.817 -2.93373 -2.30189 0
M  V30 8148 N 776.003 0.335068 -1.53997 0
M  V30 8149 C 777.251 1.07223 -1.71312 0
M  V30 8150 C 777.572 1.88911 -0.483486 0
M  V30 8151 O 776.842 1.89344 0.50257 0
M  V30 8152 H 775.422 0.398846 -0.63161 0
M  V30 8153 H 778.084 0.374288 -1.91272 0
M  V30 8154 H 777.18 1.7448 -2.58772 0
M  V30 8155 N 777.481 1.45874 0.596531 0
M  V30 8156 C 778.711 1.5379 1.37958 0
M  V30 8157 C 779.119 0.173086 1.88407 0
M  V30 8158 O 778.462 -0.837498 1.63498 0
M  V30 8159 C 778.524 2.47044 2.61169 0
M  V30 8160 C 778.188 3.93565 2.32283 0
M  V30 8161 C 779.185 4.83162 1.91965 0
M  V30 8162 C 776.87 4.38579 2.44854 0
M  V30 8163 C 778.864 6.15782 1.64593 0
M  V30 8164 C 776.551 5.71238 2.17095 0
M  V30 8165 C 777.549 6.59659 1.77028 0
M  V30 8166 O 777.237 7.89857 1.49601 0
M  V30 8167 H 776.969 0.523 0.428307 0
M  V30 8168 H 779.523 1.91855 0.733529 0
M  V30 8169 H 777.753 2.0397 3.28532 0
M  V30 8170 H 779.442 2.4552 3.23226 0
M  V30 8171 H 780.208 4.49646 1.8178 0
M  V30 8172 H 776.087 3.6999 2.75006 0
M  V30 8173 H 779.631 6.84757 1.33245 0
M  V30 8174 H 775.528 6.04306 2.26901 0
M  V30 8175 H 776.296 8.01991 1.63561 0
M  V30 8176 N 778.959 -0.83999 1.33349 0
M  V30 8177 C 779.906 -1.94972 1.23509 0
M  V30 8178 C 780.876 -1.65709 0.113967 0
M  V30 8179 O 782.061 -1.88552 0.292045 0
M  V30 8180 C 779.201 -3.30919 0.979105 0
M  V30 8181 C 778.314 -3.72587 2.18639 0
M  V30 8182 C 777.449 -4.97397 1.86465 0
M  V30 8183 C 776.488 -5.31597 3.03432 0
M  V30 8184 N 775.625 -6.47584 2.71254 0
M  V30 8185 H 780.465 -2.0272 2.18423 0
M  V30 8186 H 778.002 -0.992017 1.08616 0
M  V30 8187 H 779.96 -4.09239 0.811126 0
M  V30 8188 H 778.59 -3.22731 0.0667099 0
M  V30 8189 H 777.642 -2.89799 2.46416 0
M  V30 8190 H 778.954 -3.93844 3.06086 0
M  V30 8191 H 778.108 -5.83462 1.66305 0
M  V30 8192 H 776.847 -4.78107 0.96254 0
M  V30 8193 H 775.852 -4.44037 3.24208 0
M  V30 8194 H 777.077 -5.52836 3.94397 0
M  V30 8195 H 775.023 -6.29783 1.836 0
M  V30 8196 H 774.94 -6.68931 3.52231 0
M  V30 8197 H 776.208 -7.36764 2.54558 0
M  V30 8198 N 780.437 -1.16799 -1.0581 0
M  V30 8199 C 781.714 -0.862616 -1.75551 0
M  V30 8200 C 782.094 0.6385 -2.01212 0
M  V30 8201 O 781.442 1.58784 -1.64317 0
M  V30 8202 C 781.652 -1.6907 -3.05314 0
M  V30 8203 C 783 -1.90675 -3.79379 0
M  V30 8204 O 784.024 -1.65976 -3.15167 0
M  V30 8205 O 782.883 -2.32145 -4.94743 0
M  V30 8206 H 779.977 -0.318789 -0.763088 0
M  V30 8207 H 782.523 -1.27461 -1.12034 0
M  V30 8208 H 781.295 -2.70912 -2.82352 0
M  V30 8209 H 780.918 -1.27606 -3.76567 0
M  V30 8210 N 781.915 1.24427 -0.967243 0
M  V30 8211 C 783.161 1.93089 -0.639404 0
M  V30 8212 C 783.516 1.7422 0.816407 0
M  V30 8213 O 782.809 1.08435 1.57964 0
M  V30 8214 C 783.003 3.44568 -0.949096 0
M  V30 8215 C 782.832 3.7817 -2.43346 0
M  V30 8216 C 781.602 3.99561 -3.09321 0
M  V30 8217 C 783.8 3.84687 -3.41351 0
M  V30 8218 N 781.782 4.20259 -4.475 0
M  V30 8219 C 783.153 4.10223 -4.64884 0
M  V30 8220 C 785.208 3.67421 -3.36015 0
M  V30 8221 C 783.911 4.20286 -5.8374 0
M  V30 8222 C 785.937 3.78731 -4.54221 0
M  V30 8223 C 785.299 4.04691 -5.76545 0
M  V30 8224 H 781.398 0.728291 -0.284809 0
M  V30 8225 H 783.982 1.49941 -1.24201 0
M  V30 8226 H 782.153 3.86582 -0.375308 0
M  V30 8227 H 783.885 4.00524 -0.579876 0
M  V30 8228 H 780.64 3.95946 -2.59853 0
M  V30 8229 H 781.064 4.34588 -5.19097 0
M  V30 8230 H 785.706 3.46358 -2.42479 0
M  V30 8231 H 783.424 4.40162 -6.77704 0
M  V30 8232 H 787.01 3.66743 -4.51653 0
M  V30 8233 H 785.89 4.1324 -6.66485 0
M  V30 8234 N 783.393 0.737304 1.3929 0
M  V30 8235 C 784.642 0.283129 1.99703 0
M  V30 8236 C 784.955 -1.13677 1.59176 0
M  V30 8237 O 786.161 -1.69058 2.12442 0
M  V30 8238 C 784.617 0.455262 3.57009 0
M  V30 8239 C 784.225 1.88319 4.06497 0
M  V30 8240 C 785.969 0.0629786 4.24453 0
M  V30 8241 C 783.876 2.00475 5.56385 0
M  V30 8242 H 782.806 0.102106 0.747054 0
M  V30 8243 H 785.457 0.911515 1.5926 0
M  V30 8244 H 783.839 -0.242057 3.9526 0
M  V30 8245 H 785.013 2.61265 3.79575 0
M  V30 8246 H 783.328 2.2289 3.51723 0
M  V30 8247 H 785.925 0.132787 5.34535 0
M  V30 8248 H 786.268 -0.982128 4.04549 0
M  V30 8249 H 786.801 0.71154 3.91385 0
M  V30 8250 H 783.54 3.03182 5.81172 0
M  V30 8251 H 783.06 1.31969 5.85102 0
M  V30 8252 H 784.739 1.787 6.21832 0
M  V30 8253 N 784.871 -1.49948 0.485112 0
M  V30 8254 C 785.801 -2.31675 -0.291364 0
M  V30 8255 C 786.782 -1.39216 -0.977383 0
M  V30 8256 O 787.967 -1.68133 -0.971855 0
M  V30 8257 C 785.097 -3.19326 -1.36558 0
M  V30 8258 C 784.051 -4.2045 -0.800359 0
M  V30 8259 C 783.377 -4.96931 -1.97391 0
M  V30 8260 C 784.677 -5.21925 0.197867 0
M  V30 8261 H 786.371 -2.96839 0.390775 0
M  V30 8262 H 783.917 -1.42749 0.189375 0
M  V30 8263 H 785.87 -3.75304 -1.91638 0
M  V30 8264 H 784.594 -2.52074 -2.07668 0
M  V30 8265 H 783.253 -3.65594 -0.271428 0
M  V30 8266 H 782.901 -4.26141 -2.67232 0
M  V30 8267 H 782.601 -5.65344 -1.60187 0
M  V30 8268 H 784.125 -5.55749 -2.52935 0
M  V30 8269 H 785.539 -5.72691 -0.264239 0
M  V30 8270 H 783.936 -5.98138 0.484908 0
M  V30 8271 H 785.006 -4.71809 1.11912 0
M  V30 8272 N 786.349 -0.21828 -1.56081 0
M  V30 8273 C 787.595 0.408181 -1.99262 0
M  V30 8274 C 787.95 1.57618 -1.10337 0
M  V30 8275 O 787.243 1.90991 -0.15263 0
M  V30 8276 C 787.437 0.894782 -3.46018 0
M  V30 8277 C 787.266 -0.224528 -4.49139 0
M  V30 8278 C 786.036 -0.689843 -5.00569 0
M  V30 8279 C 788.234 -1.04165 -5.03641 0
M  V30 8280 N 786.216 -1.78455 -5.8739 0
M  V30 8281 C 787.587 -1.98529 -5.87355 0
M  V30 8282 C 789.642 -1.08146 -4.86013 0
M  V30 8283 C 788.345 -2.96549 -6.55325 0
M  V30 8284 C 790.371 -2.04982 -5.5474 0
M  V30 8285 C 789.733 -2.98086 -6.38219 0
M  V30 8286 H 785.832 0.116127 -0.77333 0
M  V30 8287 H 788.416 -0.3293 -1.91895 0
M  V30 8288 H 786.587 1.60163 -3.53839 0
M  V30 8289 H 788.319 1.49379 -3.76122 0
M  V30 8290 H 785.074 -0.279021 -4.72777 0
M  V30 8291 H 785.498 -2.33381 -6.35502 0
M  V30 8292 H 790.14 -0.375581 -4.21129 0
M  V30 8293 H 787.858 -3.68101 -7.19394 0
M  V30 8294 H 791.444 -2.08732 -5.43067 0
M  V30 8295 H 790.324 -3.71794 -6.90463 0
M  V30 8296 N 787.827 1.57504 0.0551401 0
M  V30 8297 C 789.076 1.87237 0.750009 0
M  V30 8298 C 789.389 0.813268 1.77891 0
M  V30 8299 O 790.595 0.99898 2.52453 0
M  V30 8300 C 789.051 3.32187 1.38491 0
M  V30 8301 C 788.659 4.46267 0.393707 0
M  V30 8302 C 790.403 3.71101 2.06117 0
M  V30 8303 C 788.31 5.82265 1.03547 0
M  V30 8304 H 787.24 0.698524 0.283866 0
M  V30 8305 H 789.891 1.835 0.00365997 0
M  V30 8306 H 788.273 3.30588 2.18008 0
M  V30 8307 H 789.447 4.59289 -0.372865 0
M  V30 8308 H 787.762 4.16015 -0.17902 0
M  V30 8309 H 790.359 4.70012 2.54937 0
M  V30 8310 H 790.702 3.01751 2.86796 0
M  V30 8311 H 791.235 3.74762 1.33409 0
M  V30 8312 H 787.974 6.54949 0.268644 0
M  V30 8313 H 787.494 5.73012 1.7725 0
M  V30 8314 H 789.173 6.28148 1.55047 0
M  V30 8315 N 789.305 -0.326896 1.54172 0
M  V30 8316 C 790.53 -1.08924 1.76494 0
M  V30 8317 C 790.955 -1.81039 0.510523 0
M  V30 8318 O 790.313 -1.73141 -0.537756 0
M  V30 8319 C 790.361 -2.06558 2.95578 0
M  V30 8320 O 789.465 -3.14394 2.6689 0
M  V30 8321 H 788.806 -0.314216 0.584948 0
M  V30 8322 H 791.336 -0.372207 2.01186 0
M  V30 8323 H 791.346 -2.49487 3.22832 0
M  V30 8324 H 790.021 -1.53469 3.86549 0
M  V30 8325 H 788.598 -2.76164 2.50576 0
M  V30 8326 N 790.784 -1.46188 -0.588786 0
M  V30 8327 C 792.031 -1.51184 -1.34721 0
M  V30 8328 C 792.359 -0.161084 -1.93832 0
M  V30 8329 O 791.614 0.842557 -1.76634 0
M  V30 8330 C 791.913 -2.55364 -2.50048 0
M  V30 8331 C 791.579 -3.99553 -2.08969 0
M  V30 8332 C 790.241 -4.38811 -1.9748 0
M  V30 8333 C 792.593 -4.90156 -1.77191 0
M  V30 8334 C 789.921 -5.66544 -1.52463 0
M  V30 8335 C 792.273 -6.1832 -1.33654 0
M  V30 8336 C 790.937 -6.5649 -1.20738 0
M  V30 8337 H 790.207 -0.55322 -0.49298 0
M  V30 8338 H 792.854 -1.79634 -0.663627 0
M  V30 8339 H 791.159 -2.20552 -3.23827 0
M  V30 8340 H 792.856 -2.5646 -3.08268 0
M  V30 8341 H 789.446 -3.68518 -2.18843 0
M  V30 8342 H 793.63 -4.60549 -1.84955 0
M  V30 8343 H 788.886 -5.94895 -1.411 0
M  V30 8344 H 793.06 -6.87956 -1.08117 0
M  V30 8345 H 790.687 -7.55362 -0.856307 0
M  V30 8346 N 792.262 0.832906 -1.33792 0
M  V30 8347 C 793.225 1.92471 -1.24449 0
M  V30 8348 C 794.225 1.59981 -0.162085 0
M  V30 8349 O 795.415 1.69208 -0.414029 0
M  V30 8350 C 792.547 3.28278 -0.919044 0
M  V30 8351 H 793.74 2.0218 -2.21502 0
M  V30 8352 H 791.293 1.0257 -1.17936 0
M  V30 8353 H 792.028 3.24263 0.048738 0
M  V30 8354 H 791.813 3.53241 -1.70187 0
M  V30 8355 H 793.303 4.08253 -0.878576 0
M  V30 8356 N 793.74 1.17359 1.05189 0
M  V30 8357 C 794.989 0.956412 1.77583 0
M  V30 8358 C 795.302 -0.516018 1.88671 0
M  V30 8359 O 796.508 -0.851401 2.57805 0
M  V30 8360 C 794.964 1.66203 3.19225 0
M  V30 8361 C 794.572 3.17299 3.16267 0
M  V30 8362 C 796.316 1.52725 3.96075 0
M  V30 8363 C 794.223 3.8055 4.52698 0
M  V30 8364 H 793.153 0.354204 0.665624 0
M  V30 8365 H 795.804 1.40612 1.17901 0
M  V30 8366 H 794.186 1.14006 3.79234 0
M  V30 8367 H 795.36 3.76431 2.65776 0
M  V30 8368 H 793.675 3.3079 2.52917 0
M  V30 8369 H 796.272 1.97351 4.96947 0
M  V30 8370 H 796.615 0.477803 4.13549 0
M  V30 8371 H 797.148 2.02139 3.42614 0
M  V30 8372 H 793.887 4.85492 4.4043 0
M  V30 8373 H 793.407 3.26206 5.03339 0
M  V30 8374 H 795.086 3.82757 5.21638 0
M  V30 8375 N 795.218 -1.23913 0.973828 0
M  V30 8376 C 796.443 -1.96735 0.656511 0
M  V30 8377 C 796.868 -1.71682 -0.768571 0
M  V30 8378 O 796.226 -0.984267 -1.52256 0
M  V30 8379 C 796.274 -3.48004 0.944735 0
M  V30 8380 O 795.378 -4.12387 0.0333357 0
M  V30 8381 H 794.719 -0.616119 0.247575 0
M  V30 8382 H 797.249 -1.57525 1.30564 0
M  V30 8383 H 797.259 -3.98424 0.87876 0
M  V30 8384 H 795.934 -3.65567 1.98328 0
M  V30 8385 H 794.511 -3.72585 0.153157 0
M  V30 8386 N 796.696 -0.74468 -1.38897 0
M  V30 8387 C 797.936 -0.301691 -2.02161 0
M  V30 8388 C 798.3 1.09338 -1.57826 0
M  V30 8389 O 799.501 1.63499 -2.13358 0
M  V30 8390 C 797.772 -0.410601 -3.55034 0
M  V30 8391 S 799.331 -0.0488802 -4.38773 0
M  V30 8392 H 796.149 -0.117583 -0.70121 0
M  V30 8393 H 798.751 -0.973334 -1.69548 0
M  V30 8394 H 797.455 -1.42705 -3.8479 0
M  V30 8395 H 796.986 0.278531 -3.92413 0
M  V30 8396 H 799.001 1.16434 -4.82346 0
M  V30 8397 N 798.174 1.49689 -0.493057 0
M  V30 8398 C 799.421 2.02427 0.0542714 0
M  V30 8399 C 799.749 1.37339 1.37725 0
M  V30 8400 O 799.004 0.495523 1.89323 0
M  V30 8401 C 799.303 3.56427 0.263536 0
M  V30 8402 C 798.969 4.40111 -0.98046 0
M  V30 8403 C 797.631 4.62699 -1.32148 0
M  V30 8404 C 799.983 4.88847 -1.80771 0
M  V30 8405 C 797.311 5.31268 -2.48941 0
M  V30 8406 C 799.663 5.587 -2.96711 0
M  V30 8407 C 798.327 5.79536 -3.31202 0
M  V30 8408 H 797.597 0.740734 0.0198593 0
M  V30 8409 H 800.244 1.80073 -0.651603 0
M  V30 8410 H 798.549 3.77416 1.05186 0
M  V30 8411 H 800.246 3.94819 0.701348 0
M  V30 8412 H 796.836 4.22765 -0.704814 0
M  V30 8413 H 801.02 4.71231 -1.55741 0
M  V30 8414 H 796.276 5.45603 -2.75911 0
M  V30 8415 H 800.45 5.9544 -3.61143 0
M  V30 8416 H 798.077 6.32443 -4.21805 0
M  V30 8417 N 799.652 0.226554 1.55963 0
M  V30 8418 C 800.582 -0.676079 2.23498 0
M  V30 8419 C 801.563 -1.19718 1.20837 0
M  V30 8420 O 802.748 -1.24027 1.49436 0
M  V30 8421 C 799.878 -1.88217 2.91876 0
M  V30 8422 C 798.832 -1.4947 4.01052 0
M  V30 8423 C 798.158 -2.77997 4.56751 0
M  V30 8424 C 799.458 -0.680951 5.17842 0
M  V30 8425 H 801.152 -0.112989 2.99187 0
M  V30 8426 H 798.698 -0.0529046 1.43903 0
M  V30 8427 H 800.651 -2.51911 3.37815 0
M  V30 8428 H 799.375 -2.47031 2.13643 0
M  V30 8429 H 798.034 -0.881199 3.55852 0
M  V30 8430 H 797.682 -3.34966 3.75243 0
M  V30 8431 H 797.382 -2.52803 5.30438 0
M  V30 8432 H 798.906 -3.42625 5.05411 0
M  V30 8433 H 800.32 -1.22171 5.60131 0
M  V30 8434 H 798.717 -0.525898 5.97791 0
M  V30 8435 H 799.787 0.311346 4.83899 0
M  V30 8436 N 801.13 -1.57531 -0.0467866 0
M  V30 8437 C 802.06 -2.08425 -1.05268 0
M  V30 8438 C 803.041 -0.982941 -1.38825 0
M  V30 8439 O 804.226 -1.25716 -1.48018 0
M  V30 8440 C 801.356 -2.54897 -2.35891 0
M  V30 8441 C 800.31 -3.69132 -2.16623 0
M  V30 8442 C 799.636 -4.01747 -3.52851 0
M  V30 8443 C 800.936 -4.98243 -1.56689 0
M  V30 8444 H 802.63 -2.92716 -0.62908 0
M  V30 8445 H 800.176 -1.40816 -0.301156 0
M  V30 8446 H 802.129 -2.8912 -3.06574 0
M  V30 8447 H 800.853 -1.67666 -2.80278 0
M  V30 8448 H 799.512 -3.35231 -1.48377 0
M  V30 8449 H 799.16 -3.11608 -3.94853 0
M  V30 8450 H 798.86 -4.78681 -3.4079 0
M  V30 8451 H 800.384 -4.38487 -4.24925 0
M  V30 8452 H 801.798 -5.30535 -2.17268 0
M  V30 8453 H 800.195 -5.79669 -1.55255 0
M  V30 8454 H 801.265 -4.81986 -0.530827 0
M  V30 8455 N 802.608 0.318715 -1.54344 0
M  V30 8456 C 803.848 1.06425 -1.74508 0
M  V30 8457 C 804.212 1.85087 -0.510572 0
M  V30 8458 O 805.413 2.62253 -0.589647 0
M  V30 8459 C 803.684 1.96054 -2.98827 0
M  V30 8460 S 805.243 2.77493 -3.39916 0
M  V30 8461 H 802.061 0.35921 -0.613587 0
M  V30 8462 H 804.663 0.339679 -1.92526 0
M  V30 8463 H 803.367 1.37109 -3.8682 0
M  V30 8464 H 802.898 2.72908 -2.83346 0
M  V30 8465 H 804.913 3.98544 -2.95596 0
M  V30 8466 N 804.086 1.46499 0.581025 0
M  V30 8467 C 805.332 1.52121 1.34116 0
M  V30 8468 C 805.665 0.173031 1.93428 0
M  V30 8469 O 804.94 -0.815729 1.76568 0
M  V30 8470 C 805.223 2.62108 2.46924 0
M  V30 8471 C 805.076 4.06462 1.92636 0
M  V30 8472 C 806.395 2.68167 3.48962 0
M  V30 8473 H 803.514 0.5538 0.486287 0
M  V30 8474 H 806.156 1.78443 0.652538 0
M  V30 8475 H 804.306 2.39794 3.05665 0
M  V30 8476 H 805.978 4.40068 1.3834 0
M  V30 8477 H 804.221 4.15862 1.23455 0
M  V30 8478 H 804.892 4.79152 2.74076 0
M  V30 8479 H 807.368 2.8823 3.00104 0
M  V30 8480 H 806.244 3.46942 4.2535 0
M  V30 8481 H 806.505 1.74284 4.06297 0
M  V30 8482 N 805.565 -0.825799 1.34232 0
M  V30 8483 C 806.811 -1.58419 1.26614 0
M  V30 8484 C 807.144 -1.93503 -0.164341 0
M  V30 8485 O 806.419 -1.59785 -1.109 0
M  V30 8486 C 806.702 -2.8856 2.15418 0
M  V30 8487 C 806.555 -2.60075 3.66989 0
M  V30 8488 C 807.874 -3.90107 2.03726 0
M  V30 8489 H 804.993 -0.574794 0.461282 0
M  V30 8490 H 807.635 -0.951519 1.64457 0
M  V30 8491 H 805.785 -3.42553 1.83275 0
M  V30 8492 H 807.457 -2.12414 4.09485 0
M  V30 8493 H 805.7 -1.93565 3.88221 0
M  V30 8494 H 806.371 -3.52866 4.24488 0
M  V30 8495 H 808.847 -3.45459 2.31942 0
M  V30 8496 H 807.723 -4.78976 2.68092 0
M  V30 8497 H 807.984 -4.30329 1.01337 0
M  V30 8498 N 807.043 -1.17915 -1.04565 0
M  V30 8499 C 807.973 -0.925033 -2.14395 0
M  V30 8500 C 808.954 0.135375 -1.6956 0
M  V30 8501 O 810.139 -0.0161774 -1.94193 0
M  V30 8502 C 807.269 -0.444469 -3.44444 0
M  V30 8503 C 806.223 -1.44478 -4.02877 0
M  V30 8504 C 805.549 -0.821933 -5.28345 0
M  V30 8505 C 806.849 -2.81995 -4.39632 0
M  V30 8506 H 808.543 -1.84354 -2.35911 0
M  V30 8507 H 806.089 -0.887806 -1.13375 0
M  V30 8508 H 808.042 -0.254078 -4.20633 0
M  V30 8509 H 806.766 0.509592 -3.226 0
M  V30 8510 H 805.425 -1.62203 -3.28764 0
M  V30 8511 H 805.073 0.139161 -5.02807 0
M  V30 8512 H 804.773 -1.48976 -5.68401 0
M  V30 8513 H 806.297 -0.641959 -6.07216 0
M  V30 8514 H 807.711 -2.67952 -5.06828 0
M  V30 8515 H 806.108 -3.45414 -4.90723 0
M  V30 8516 H 807.178 -3.35927 -3.49687 0
M  V30 8517 N 808.521 1.23394 -0.980386 0
M  V30 8518 C 809.451 2.2717 -0.540024 0
M  V30 8519 C 810.432 1.64659 0.426787 0
M  V30 8520 O 811.617 1.91543 0.320153 0
M  V30 8521 C 808.747 3.46939 0.15836 0
M  V30 8522 C 807.701 4.21802 -0.725732 0
M  V30 8523 C 807.027 5.34597 0.104866 0
M  V30 8524 C 808.327 4.81802 -2.01654 0
M  V30 8525 H 810.021 2.64257 -1.40743 0
M  V30 8526 H 807.567 1.2703 -0.678193 0
M  V30 8527 H 809.52 4.18683 0.477737 0
M  V30 8528 H 808.244 3.08912 1.06022 0
M  V30 8529 H 806.903 3.51875 -1.02857 0
M  V30 8530 H 806.551 4.92812 1.00726 0
M  V30 8531 H 806.251 5.85607 -0.483557 0
M  V30 8532 H 807.775 6.09163 0.418624 0
M  V30 8533 H 809.189 5.45554 -1.76193 0
M  V30 8534 H 807.586 5.43098 -2.55273 0
M  V30 8535 H 808.656 4.02549 -2.70338 0
M  V30 8536 N 809.999 0.752036 1.385 0
M  V30 8537 C 811.247 0.306895 1.99756 0
M  V30 8538 C 811.568 -1.11478 1.59992 0
M  V30 8539 O 810.838 -1.76206 0.856045 0
M  V30 8540 H 809.418 0.11048 0.738785 0
M  V30 8541 H 812.08 0.965785 1.69289 0
M  V30 8542 H 811.176 0.368797 3.09913 0
M  V30 8543 N 811.477 -1.49425 0.500989 0
M  V30 8544 C 812.724 -2.02453 -0.0435355 0
M  V30 8545 C 813.052 -1.38067 -1.36995 0
M  V30 8546 O 812.307 -0.505557 -1.89057 0
M  V30 8547 C 812.606 -3.56562 -0.24463 0
M  V30 8548 C 812.272 -4.39585 1.00379 0
M  V30 8549 C 810.934 -4.61992 1.346 0
M  V30 8550 C 813.286 -4.87881 1.83361 0
M  V30 8551 C 810.614 -5.2994 2.51755 0
M  V30 8552 C 812.966 -5.57119 2.99669 0
M  V30 8553 C 811.63 -5.77771 3.3427 0
M  V30 8554 H 810.9 -0.740829 -0.0159308 0
M  V30 8555 H 813.547 -1.79725 0.661143 0
M  V30 8556 H 811.852 -3.77969 -1.03183 0
M  V30 8557 H 813.549 -3.95185 -0.6804 0
M  V30 8558 H 810.139 -4.22385 0.727225 0
M  V30 8559 H 814.323 -4.70398 1.58237 0
M  V30 8560 H 809.579 -5.44133 2.788 0
M  V30 8561 H 813.753 -5.93516 3.64296 0
M  V30 8562 H 811.38 -6.30197 4.25154 0
M  V30 8563 N 812.955 -0.234822 -1.55841 0
M  V30 8564 C 814.204 0.393685 -1.97821 0
M  V30 8565 C 814.517 1.59947 -1.1259 0
M  V30 8566 O 815.723 2.29835 -1.44528 0
M  V30 8567 C 814.179 0.751811 -3.5196 0
M  V30 8568 C 813.787 -0.431898 -4.45913 0
M  V30 8569 C 815.531 1.34518 -4.02623 0
M  V30 8570 C 813.438 -0.0505976 -5.91378 0
M  V30 8571 H 812.368 0.150864 -0.738753 0
M  V30 8572 H 815.019 -0.333132 -1.80451 0
M  V30 8573 H 813.401 1.53642 -3.6498 0
M  V30 8574 H 814.575 -1.20935 -4.44647 0
M  V30 8575 H 812.89 -0.939385 -4.05666 0
M  V30 8576 H 815.487 1.64359 -5.08813 0
M  V30 8577 H 815.83 2.26554 -3.49255 0
M  V30 8578 H 816.363 0.623729 -3.9288 0
M  V30 8579 H 813.102 -0.937779 -6.48757 0
M  V30 8580 H 812.622 0.690898 -5.95808 0
M  V30 8581 H 814.301 0.37146 -6.45933 0
M  V30 8582 N 814.433 1.57553 0.0384317 0
M  V30 8583 C 815.366 2.01307 1.07475 0
M  V30 8584 C 816.344 0.895717 1.35704 0
M  V30 8585 O 817.528 1.16079 1.48519 0
M  V30 8586 C 814.655 2.37817 2.41165 0
M  V30 8587 C 813.701 3.599 2.28855 0
M  V30 8588 S 814.534 5.09418 1.65086 0
M  V30 8589 C 815.69 5.49162 3.00286 0
M  V30 8590 H 815.923 2.88892 0.702034 0
M  V30 8591 H 813.456 1.52394 0.248103 0
M  V30 8592 H 815.414 2.59524 3.18053 0
M  V30 8593 H 814.075 1.507 2.75587 0
M  V30 8594 H 813.268 3.83071 3.27525 0
M  V30 8595 H 812.87 3.37996 1.60109 0
M  V30 8596 H 815.162 5.49274 3.96617 0
M  V30 8597 H 816.105 6.49586 2.81858 0
M  V30 8598 H 816.513 4.76653 3.02427 0
M  V30 8599 N 815.911 -0.310526 1.54511 0
M  V30 8600 C 817.157 -1.04459 1.74528 0
M  V30 8601 C 817.512 -1.85251 0.519613 0
M  V30 8602 O 816.805 -1.85281 -0.488001 0
M  V30 8603 C 816.999 -1.98942 2.96912 0
M  V30 8604 C 816.828 -1.27442 4.31264 0
M  V30 8605 C 815.598 -1.00552 4.95194 0
M  V30 8606 C 817.796 -0.683695 5.09735 0
M  V30 8607 N 815.778 -0.259797 6.1335 0
M  V30 8608 C 817.149 -0.0702549 6.1996 0
M  V30 8609 C 819.204 -0.587799 4.94418 0
M  V30 8610 C 817.907 0.629791 7.16538 0
M  V30 8611 C 819.933 0.0985719 5.91318 0
M  V30 8612 C 819.295 0.700902 7.00904 0
M  V30 8613 H 815.394 -0.365496 0.69133 0
M  V30 8614 H 817.978 -0.324277 1.91981 0
M  V30 8615 H 816.149 -2.68233 2.80902 0
M  V30 8616 H 817.881 -2.6543 3.05498 0
M  V30 8617 H 814.636 -1.30123 4.55374 0
M  V30 8618 H 815.06 0.099301 6.76927 0
M  V30 8619 H 819.702 -1.03919 4.0983 0
M  V30 8620 H 817.42 1.09298 8.00674 0
M  V30 8621 H 821.006 0.172585 5.81544 0
M  V30 8622 H 819.886 1.22357 7.74596 0
M  V30 8623 N 817.389 -1.46805 -0.573248 0
M  V30 8624 C 818.352 -1.57655 -1.66366 0
M  V30 8625 C 819.352 -0.452905 -1.5429 0
M  V30 8626 O 820.542 -0.717502 -1.58737 0
M  V30 8627 C 817.674 -1.50584 -3.05839 0
M  V30 8628 H 818.867 -2.54842 -1.581 0
M  V30 8629 H 816.42 -1.34756 -0.791868 0
M  V30 8630 H 817.155 -0.547127 -3.19651 0
M  V30 8631 H 816.94 -2.32118 -3.16012 0
M  V30 8632 H 818.43 -1.61282 -3.85199 0
M  V30 8633 N 818.867 0.818669 -1.34668 0
M  V30 8634 C 820.107 1.58862 -1.28617 0
M  V30 8635 C 820.471 1.91483 0.140845 0
M  V30 8636 O 821.672 2.66821 0.325583 0
M  V30 8637 C 819.943 2.85044 -2.15604 0
M  V30 8638 S 821.502 3.75553 -2.26948 0
M  V30 8639 H 818.32 0.544454 -0.457265 0
M  V30 8640 H 820.922 0.966679 -1.69928 0
M  V30 8641 H 819.626 2.59083 -3.18284 0
M  V30 8642 H 819.157 3.52231 -1.75205 0
M  V30 8643 H 821.172 4.74682 -1.44539 0
M  V30 8644 N 820.346 1.18468 1.03938 0
M  V30 8645 C 821.278 0.870615 2.12021 0
M  V30 8646 C 822.291 -0.132318 1.62261 0
M  V30 8647 O 823.48 0.0956901 1.78243 0
M  V30 8648 C 820.58 0.279727 3.37744 0
M  V30 8649 C 819.753 1.32863 4.16733 0
M  V30 8650 C 818.812 0.753204 5.20781 0
M  V30 8651 O 817.838 1.42825 5.5099 0
M  V30 8652 N 819.04 -0.448664 5.78764 0
M  V30 8653 H 821.805 1.80091 2.39556 0
M  V30 8654 H 819.366 1.08524 1.20142 0
M  V30 8655 H 821.358 -0.118829 4.04526 0
M  V30 8656 H 819.928 -0.554621 3.07641 0
M  V30 8657 H 819.148 1.90245 3.45254 0
M  V30 8658 H 820.436 2.03574 4.66299 0
M  V30 8659 H 819.834 -1.01481 5.56523 0
M  V30 8660 H 818.391 -0.789125 6.47005 0
M  V30 8661 N 821.824 -1.22873 0.986916 0
M  V30 8662 C 823.24 -1.43594 0.696633 0
M  V30 8663 C 823.44 -1.87622 -0.734869 0
M  V30 8664 O 822.496 -2.02633 -1.50652 0
M  V30 8665 C 823.809 -2.48231 1.69711 0
M  V30 8666 C 825.357 -2.62037 1.71188 0
M  V30 8667 C 825.832 -3.6989 2.70084 0
M  V30 8668 N 827.323 -3.77341 2.68641 0
M  V30 8669 C 828.058 -4.6037 3.41829 0
M  V30 8670 N 827.554 -5.47438 4.24598 0
M  V30 8671 N 829.347 -4.54626 3.30563 0
M  V30 8672 H 821.498 -0.925982 1.91153 0
M  V30 8673 H 823.761 -0.46866 0.824052 0
M  V30 8674 H 823.467 -2.22812 2.72117 0
M  V30 8675 H 823.341 -3.46731 1.48516 0
M  V30 8676 H 825.728 -2.86803 0.694837 0
M  V30 8677 H 825.809 -1.63831 1.96451 0
M  V30 8678 H 825.453 -3.45872 3.71934 0
M  V30 8679 H 825.383 -4.67652 2.42093 0
M  V30 8680 H 827.874 -3.15124 2.08578 0
M  V30 8681 H 828.187 -6.078 4.77283 0
M  V30 8682 H 826.532 -5.4704 4.28687 0
M  V30 8683 H 829.723 -3.85627 2.65347 0
M  V30 8684 H 829.896 -5.19103 3.8786 0
M  V30 8685 N 823.302 -0.75937 -1.38099 0
M  V30 8686 C 824.55 -0.317485 -1.99591 0
M  V30 8687 C 824.871 1.10628 -1.60581 0
M  V30 8688 O 824.141 1.7575 -0.865378 0
M  V30 8689 H 822.721 -0.114397 -0.738189 0
M  V30 8690 H 825.383 -0.974749 -1.68774 0
M  V30 8691 H 824.479 -0.385227 -3.09713 0
M  V30 8692 N 824.78 1.49157 -0.508906 0
M  V30 8693 C 825.728 2.30922 0.278906 0
M  V30 8694 C 826.722 1.39889 0.955382 0
M  V30 8695 O 827.928 1.56901 0.882169 0
M  V30 8696 H 824.303 0.744087 0.108805 0
M  V30 8697 H 826.274 2.95277 -0.430583 0
M  V30 8698 C 825.023 3.21432 1.32576 0
M  V30 8699 H 824.346 3.91413 0.814634 0
M  V30 8700 H 825.786 3.81568 1.84882 0
M  V30 8701 C 824.245 2.41583 2.34817 0
M  V30 8702 O 824.775 2.1256 3.40854 0
M  V30 8703 N 822.981 2.03462 2.07489 0
M  V30 8704 H 822.528 2.27265 1.21278 0
M  V30 8705 H 822.486 1.50345 2.76123 0
M  V30 8706 N 826.258 0.243083 1.55714 0
M  V30 8707 C 827.507 -0.383188 1.98027 0
M  V30 8708 C 827.82 -1.59347 1.13436 0
M  V30 8709 O 829.026 -2.29065 1.45745 0
M  V30 8710 C 827.482 -0.733135 3.52354 0
M  V30 8711 C 827.09 0.455539 4.45678 0
M  V30 8712 C 828.834 -1.32381 4.03331 0
M  V30 8713 C 826.741 0.0819591 5.91343 0
M  V30 8714 H 825.671 -0.146944 0.739543 0
M  V30 8715 H 828.322 0.342697 1.80272 0
M  V30 8716 H 826.704 -1.51704 3.65789 0
M  V30 8717 H 827.878 1.23291 4.44 0
M  V30 8718 H 826.193 0.960886 4.05162 0
M  V30 8719 H 828.79 -1.61658 5.09677 0
M  V30 8720 H 829.133 -2.24698 3.50452 0
M  V30 8721 H 829.666 -0.602885 3.93205 0
M  V30 8722 H 826.405 0.972171 6.48251 0
M  V30 8723 H 825.925 -0.659291 5.96166 0
M  V30 8724 H 827.604 -0.3372 6.46121 0
M  V30 8725 N 827.736 -1.57571 -0.0300757 0
M  V30 8726 C 829.152 -1.54869 -0.385703 0
M  V30 8727 C 829.352 -0.969068 -1.76667 0
M  V30 8728 O 828.408 -0.589676 -2.45518 0
M  V30 8729 C 829.721 -2.99313 -0.288482 0
M  V30 8730 C 831.269 -3.10857 -0.365638 0
M  V30 8731 C 831.744 -4.5703 -0.297878 0
M  V30 8732 N 833.235 -4.61825 -0.356703 0
M  V30 8733 C 833.97 -5.72466 -0.327146 0
M  V30 8734 N 833.466 -6.92349 -0.249941 0
M  V30 8735 N 835.259 -5.60836 -0.376801 0
M  V30 8736 H 827.41 -1.936 0.87367 0
M  V30 8737 H 829.673 -0.887924 0.332106 0
M  V30 8738 H 829.379 -3.45443 0.66047 0
M  V30 8739 H 829.253 -3.61332 -1.08253 0
M  V30 8740 H 831.64 -2.64676 -1.30502 0
M  V30 8741 H 831.721 -2.51671 0.457744 0
M  V30 8742 H 831.365 -5.03879 0.637835 0
M  V30 8743 H 831.295 -5.14127 -1.13935 0
M  V30 8744 H 833.786 -3.75571 -0.418926 0
M  V30 8745 H 834.099 -7.7245 -0.23246 0
M  V30 8746 H 832.444 -6.94664 -0.216004 0
M  V30 8747 H 835.635 -4.66073 -0.435101 0
M  V30 8748 H 835.808 -6.47052 -0.350298 0
M  V30 8749 N 829.214 0.302327 -1.54673 0
M  V30 8750 C 830.454 1.04568 -1.75627 0
M  V30 8751 C 830.818 1.84535 -0.530175 0
M  V30 8752 O 832.019 2.61613 -0.61743 0
M  V30 8753 C 830.29 1.92873 -3.0089 0
M  V30 8754 S 831.849 2.73872 -3.4284 0
M  V30 8755 H 828.667 0.352682 -0.617362 0
M  V30 8756 H 831.269 0.319239 -1.92876 0
M  V30 8757 H 829.973 1.32998 -3.88252 0
M  V30 8758 H 829.504 2.69887 -2.86225 0
M  V30 8759 H 831.519 3.95386 -2.99807 0
M  V30 8760 N 830.692 1.47107 0.565454 0
M  V30 8761 C 831.64 1.59368 1.69424 0
M  V30 8762 C 832.634 0.461344 1.62997 0
M  V30 8763 O 833.84 0.638849 1.68282 0
M  V30 8764 H 830.215 0.501387 0.560459 0
M  V30 8765 H 832.186 2.54242 1.56217 0
M  V30 8766 C 830.935 1.61739 3.07792 0
M  V30 8767 H 830.258 2.48215 3.13416 0
M  V30 8768 H 831.698 1.7437 3.86486 0
M  V30 8769 C 830.157 0.349156 3.35086 0
M  V30 8770 O 830.687 -0.553287 3.97871 0
M  V30 8771 N 828.893 0.231723 2.89675 0
M  V30 8772 H 828.44 0.967021 2.3876 0
M  V30 8773 H 828.398 -0.615911 3.08308 0
M  V30 8774 N 832.17 -0.811516 1.35101 0
M  V30 8775 C 833.419 -1.56343 1.27435 0
M  V30 8776 C 833.732 -1.95019 -0.150696 0
M  V30 8777 O 834.938 -2.6924 -0.349586 0
M  V30 8778 C 833.394 -2.82124 2.23459 0
M  V30 8779 C 833.002 -2.50706 3.71283 0
M  V30 8780 C 834.746 -3.60137 2.24726 0
M  V30 8781 C 832.653 -3.72748 4.59143 0
M  V30 8782 H 831.583 -0.58682 0.473453 0
M  V30 8783 H 834.234 -0.892465 1.60335 0
M  V30 8784 H 832.616 -3.50905 1.83525 0
M  V30 8785 H 833.79 -1.89962 4.19823 0
M  V30 8786 H 832.105 -1.85947 3.72576 0
M  V30 8787 H 834.702 -4.50775 2.87587 0
M  V30 8788 H 835.045 -3.97101 1.24965 0
M  V30 8789 H 835.578 -2.98311 2.63164 0
M  V30 8790 H 832.317 -3.40896 5.59884 0
M  V30 8791 H 831.837 -4.32735 4.15332 0
M  V30 8792 H 833.516 -4.40033 4.74321 0
M  V30 8793 N 833.648 -1.19017 -1.03309 0
M  V30 8794 C 834.888 -1.00129 -1.78195 0
M  V30 8795 C 835.252 0.460236 -1.86402 0
M  V30 8796 O 836.453 0.768802 -2.57571 0
M  V30 8797 C 834.724 -1.64703 -3.17187 0
M  V30 8798 S 836.283 -1.60695 -4.08317 0
M  V30 8799 H 833.101 -0.359395 -0.613479 0
M  V30 8800 H 835.703 -1.51293 -1.23818 0
M  V30 8801 H 834.407 -2.70283 -3.08829 0
M  V30 8802 H 833.938 -1.136 -3.76641 0
M  V30 8803 H 835.953 -0.628171 -4.92208 0
M  V30 8804 N 835.127 1.22348 -0.993418 0
M  V30 8805 C 836.376 1.90422 -0.665019 0
M  V30 8806 C 836.689 1.78199 0.806512 0
M  V30 8807 O 837.895 2.41193 1.24652 0
M  V30 8808 C 836.351 3.41403 -1.13893 0
M  V30 8809 C 835.959 3.62262 -2.63572 0
M  V30 8810 C 837.703 4.15175 -0.884884 0
M  V30 8811 C 835.61 5.06947 -3.04564 0
M  V30 8812 H 834.54 0.713073 -0.245037 0
M  V30 8813 H 837.191 1.3856 -1.20305 0
M  V30 8814 H 835.573 3.9245 -0.529027 0
M  V30 8815 H 836.747 3.21705 -3.29913 0
M  V30 8816 H 835.062 3.01824 -2.86865 0
M  V30 8817 H 837.659 5.21813 -1.16684 0
M  V30 8818 H 838.002 4.15915 0.178982 0
M  V30 8819 H 838.535 3.70157 -1.45701 0
M  V30 8820 H 835.274 5.11346 -4.10128 0
M  V30 8821 H 834.794 5.48404 -2.42927 0
M  V30 8822 H 836.473 5.75374 -2.95894 0
M  V30 8823 O 836.644 0.903602 1.33855 0
M  V30 8824 H 837.335 0.516266 1.86693 0
M  V30 END ATOM
M  V30 BEGIN BOND
M  V30 END BOND
M  V30 END CTAB
M  END
$$$$
