drugbank_target|P03692 DNA primase/helicase (DB02452; DB03222)
 OpenBabel12092120003D

  0  0  0     0  0            999 V3000
M  V30 BEGIN CTAB
M  V30 COUNTS 22915 24567 0 0 0
M  V30 BEGIN ATOM
M  V30 1 H -1.547 9.37743 -1.21644 0
M  V30 2 O -1.44 8.89599 -0.40059 0
M  V30 3 P 0 8.91 0 0
M  V30 4 O 0.22 10.1746 0.733838 0
M  V30 5 O 0.79 8.73346 -1.23964 0
M  V30 6 O 0.25 7.66872 0.971405 0
M  V30 7 C -0.69 7.42405 2.04668 0
M  V30 8 C 0.04 6.86059 3.24661 0
M  V30 9 O 0.25 5.42934 3.03695 0
M  V30 10 C 1.44 7.41287 3.50796 0
M  V30 11 O 1.83 7.27073 4.86816 0
M  V30 12 C 2.32 6.5273 2.63741 0
M  V30 13 C 1.61 5.1842 2.73198 0
M  V30 14 N 1.66 4.38762 1.4784 0
M  V30 15 H -1.178 8.36899 2.3252 0
M  V30 16 H -1.45 6.70391 1.71179 0
M  V30 17 H -0.582 7.03638 4.13219 0
M  V30 18 H 2.073 4.59931 3.54016 0
M  V30 19 H 2.353 6.88995 1.59871 0
M  V30 20 H 3.344 6.4684 3.0373 0
M  V30 21 H 1.51 8.47002 3.20749 0
M  V30 22 P 3.37998 7.20834 5.23717 0
M  V30 23 O 3.59998 7.79853 6.57286 0
M  V30 24 O 4.16998 7.79239 4.12957 0
M  V30 25 O 3.62998 5.63315 5.29344 0
M  V30 26 C 2.68998 4.80255 6.01876 0
M  V30 27 C 3.41998 3.64202 6.65911 0
M  V30 28 O 3.62998 2.60694 5.64732 0
M  V30 29 C 4.81998 3.93473 7.1943 0
M  V30 30 O 5.20998 3.02071 8.21205 0
M  V30 31 C 5.69998 3.73047 5.97036 0
M  V30 32 C 4.98998 2.58828 5.25741 0
M  V30 33 N 5.03998 2.68068 3.77503 0
M  V30 34 H 2.20098 5.40332 6.79951 0
M  V30 35 H 1.93098 4.41613 5.32378 0
M  V30 36 H 2.79798 3.26331 7.47797 0
M  V30 37 P 6.75996 2.75334 8.47391 0
M  V30 38 O 6.97996 2.44571 9.90142 0
M  V30 39 O 7.54996 3.87688 7.92115 0
M  V30 40 O 7.00996 1.4459 7.59357 0
M  V30 41 C 6.06996 0.347608 7.69215 0
M  V30 42 C 6.79996 -0.96767 7.52806 0
M  V30 43 O 7.00996 -1.21036 6.1011 0
M  V30 44 C 8.19996 -1.04544 8.13308 0
M  V30 45 O 8.58996 -2.38311 8.41922 0
M  V30 46 C 9.07996 -0.491279 7.02284 0
M  V30 47 C 8.36996 -0.996264 5.77469 0
M  V30 48 N 8.41996 -0.0501916 4.62973 0
M  V30 49 H 5.58096 0.374722 8.67691 0
M  V30 50 H 5.31096 0.443485 6.90277 0
M  V30 51 H 6.17796 -1.75537 7.96793 0
M  V30 52 P 10.1399 -2.75334 8.47391 0
M  V30 53 O 10.3599 -3.84128 9.44797 0
M  V30 54 O 10.9299 -1.51947 8.68712 0
M  V30 55 O 10.3899 -3.29363 6.99321 0
M  V30 56 C 9.44994 -4.24011 6.4274 0
M  V30 57 C 10.1799 -5.20775 5.52155 0
M  V30 58 O 10.3899 -4.56534 4.22446 0
M  V30 59 C 11.5799 -5.62629 5.96531 0
M  V30 60 O 11.9699 -6.87667 5.41053 0
M  V30 61 C 12.4599 -4.52537 5.39283 0
M  V30 62 C 11.7499 -4.20027 4.08623 0
M  V30 63 N 11.7999 -2.76189 3.71603 0
M  V30 64 H 8.96094 -4.797 7.24003 0
M  V30 65 H 8.69094 -3.69856 5.84513 0
M  V30 66 H 9.55794 -6.10356 5.41441 0
M  V30 67 P 13.5199 -7.20834 5.23717 0
M  V30 68 O 13.7399 -8.66274 5.38678 0
M  V30 69 O 14.3099 -6.33687 6.13629 0
M  V30 70 O 13.7699 -6.7751 3.72168 0
M  V30 71 C 12.8299 -7.20919 2.70795 0
M  V30 72 C 13.5599 -7.45864 1.40599 0
M  V30 73 O 13.7699 -6.17751 0.734343 0
M  V30 74 C 14.9599 -8.05906 1.51917 0
M  V30 75 O 15.3499 -8.74358 0.335205 0
M  V30 76 C 15.8399 -6.83093 1.70294 0
M  V30 77 C 15.1299 -5.79992 0.836974 0
M  V30 78 N 15.1799 -4.41864 1.38293 0
M  V30 79 H 12.3419 -8.13738 3.03804 0
M  V30 80 H 12.0699 -6.42974 2.55559 0
M  V30 81 H 12.9379 -8.12139 0.792866 0
M  V30 82 H 15.5929 -5.80178 -0.160643 0
M  V30 83 H 15.8729 -6.51379 2.75643 0
M  V30 84 H 16.8639 -7.01832 1.3448 0
M  V30 85 H 15.0299 -8.73771 2.38364 0
M  V30 86 P 16.8999 -8.91 1.09116e-15 0
M  V30 87 O 17.1199 -10.1726 -0.733694 0
M  V30 88 O 17.6899 -8.73148 1.23936 0
M  V30 89 O 17.1499 -7.66872 -0.971405 0
M  V30 90 C 16.2099 -7.42309 -2.04641 0
M  V30 91 C 16.9399 -6.86059 -3.24661 0
M  V30 92 O 17.1499 -5.42847 -3.03646 0
M  V30 93 C 18.3399 -7.41196 -3.50753 0
M  V30 94 O 18.7299 -7.27073 -4.86816 0
M  V30 95 C 19.2199 -6.5273 -2.63741 0
M  V30 96 C 18.5099 -5.1842 -2.73198 0
M  V30 97 N 18.5599 -4.38762 -1.4784 0
M  V30 98 H 15.7209 -8.36803 -2.32493 0
M  V30 99 H 15.4509 -6.70197 -1.71129 0
M  V30 100 H 16.3179 -7.03551 -4.13168 0
M  V30 101 P 20.2799 -7.20834 -5.23717 0
M  V30 102 O 20.4999 -7.79853 -6.57286 0
M  V30 103 O 21.0699 -7.79239 -4.12957 0
M  V30 104 O 20.5299 -5.63315 -5.29344 0
M  V30 105 C 19.5899 -4.80255 -6.01876 0
M  V30 106 C 20.3199 -3.64202 -6.65911 0
M  V30 107 O 20.5299 -2.60694 -5.64732 0
M  V30 108 C 21.7199 -3.93473 -7.1943 0
M  V30 109 O 22.1099 -3.02071 -8.21205 0
M  V30 110 C 22.5999 -3.73047 -5.97036 0
M  V30 111 C 21.8899 -2.58828 -5.25741 0
M  V30 112 N 21.9399 -2.68068 -3.77503 0
M  V30 113 H 19.1009 -5.40332 -6.79951 0
M  V30 114 H 18.8309 -4.41613 -5.32378 0
M  V30 115 H 19.6979 -3.26331 -7.47797 0
M  V30 116 P 23.6599 -2.75334 -8.47391 0
M  V30 117 O 23.8799 -2.44571 -9.90142 0
M  V30 118 O 24.4499 -3.87688 -7.92115 0
M  V30 119 O 23.9099 -1.4459 -7.59357 0
M  V30 120 C 22.9699 -0.347608 -7.69215 0
M  V30 121 C 23.6999 0.96767 -7.52806 0
M  V30 122 O 23.9099 1.21036 -6.1011 0
M  V30 123 C 25.0999 1.04544 -8.13308 0
M  V30 124 O 25.4899 2.38311 -8.41922 0
M  V30 125 C 25.9799 0.491279 -7.02284 0
M  V30 126 C 25.2699 0.996264 -5.77469 0
M  V30 127 N 25.3199 0.0501916 -4.62973 0
M  V30 128 H 22.4809 -0.374722 -8.67691 0
M  V30 129 H 22.2109 -0.443485 -6.90277 0
M  V30 130 H 23.0779 1.75537 -7.96793 0
M  V30 131 P 27.0398 2.75334 -8.47391 0
M  V30 132 O 27.2598 3.84128 -9.44797 0
M  V30 133 O 27.8298 1.51947 -8.68712 0
M  V30 134 O 27.2898 3.29363 -6.99321 0
M  V30 135 C 26.3498 4.24011 -6.4274 0
M  V30 136 C 27.0798 5.20775 -5.52155 0
M  V30 137 O 27.2898 4.56534 -4.22446 0
M  V30 138 C 28.4798 5.62629 -5.96531 0
M  V30 139 O 28.8698 6.87667 -5.41053 0
M  V30 140 C 29.3598 4.52537 -5.39283 0
M  V30 141 C 28.6498 4.20027 -4.08623 0
M  V30 142 N 28.6998 2.76189 -3.71603 0
M  V30 143 H 25.8608 4.797 -7.24003 0
M  V30 144 H 25.5908 3.69856 -5.84513 0
M  V30 145 H 26.4578 6.10356 -5.41441 0
M  V30 146 P 30.4198 7.20834 -5.23717 0
M  V30 147 O 30.6398 8.66104 -5.38572 0
M  V30 148 O 31.2098 6.33544 -6.1349 0
M  V30 149 O 30.6698 6.7751 -3.72168 0
M  V30 150 C 29.7298 7.20825 -2.7076 0
M  V30 151 C 30.4598 7.45864 -1.40599 0
M  V30 152 O 30.6698 6.17651 -0.734225 0
M  V30 153 C 31.8598 8.05808 -1.51899 0
M  V30 154 O 32.2498 8.74358 -0.335205 0
M  V30 155 C 32.7398 6.83093 -1.70294 0
M  V30 156 C 32.0298 5.79992 -0.836974 0
M  V30 157 N 32.0798 4.41864 -1.38293 0
M  V30 158 H 29.2408 8.13644 -3.0377 0
M  V30 159 H 28.9708 6.42788 -2.55485 0
M  V30 160 H 29.8378 8.12039 -0.792769 0
M  V30 161 P 33.7998 8.91 -2.18232e-15 0
M  V30 162 O 34.0198 10.1726 0.733694 0
M  V30 163 O 34.5898 8.73148 -1.23936 0
M  V30 164 O 34.0498 7.66872 0.971405 0
M  V30 165 C 33.1098 7.42309 2.04641 0
M  V30 166 C 33.8398 6.86059 3.24661 0
M  V30 167 O 34.0498 5.42847 3.03646 0
M  V30 168 C 35.2398 7.41196 3.50753 0
M  V30 169 O 35.6298 7.27073 4.86816 0
M  V30 170 C 36.1198 6.5273 2.63741 0
M  V30 171 C 35.4098 5.1842 2.73198 0
M  V30 172 N 35.4598 4.38762 1.4784 0
M  V30 173 H 32.6208 8.36803 2.32493 0
M  V30 174 H 32.3508 6.70197 1.71129 0
M  V30 175 H 33.2178 7.03551 4.13168 0
M  V30 176 P 37.1798 7.20834 5.23717 0
M  V30 177 O 37.3998 7.79853 6.57286 0
M  V30 178 O 37.9698 7.79239 4.12957 0
M  V30 179 O 37.4298 5.63315 5.29344 0
M  V30 180 C 36.4898 4.80255 6.01876 0
M  V30 181 C 37.2198 3.64202 6.65911 0
M  V30 182 O 37.4298 2.60694 5.64732 0
M  V30 183 C 38.6198 3.93473 7.1943 0
M  V30 184 O 39.0098 3.02071 8.21205 0
M  V30 185 C 39.4998 3.73047 5.97036 0
M  V30 186 C 38.7898 2.58828 5.25741 0
M  V30 187 N 38.8398 2.68068 3.77503 0
M  V30 188 H 36.0008 5.40332 6.79951 0
M  V30 189 H 35.7308 4.41613 5.32378 0
M  V30 190 H 36.5978 3.26331 7.47797 0
M  V30 191 P 40.5598 2.75334 8.47391 0
M  V30 192 O 40.7798 2.44595 9.90239 0
M  V30 193 O 41.3498 3.87732 7.92204 0
M  V30 194 O 40.8098 1.4459 7.59357 0
M  V30 195 C 39.8698 0.347563 7.69115 0
M  V30 196 C 40.5998 -0.96767 7.52806 0
M  V30 197 O 40.8098 -1.21036 6.1011 0
M  V30 198 C 41.9998 -1.04544 8.13308 0
M  V30 199 O 42.3898 -2.38311 8.41922 0
M  V30 200 C 42.8798 -0.491279 7.02284 0
M  V30 201 C 42.1698 -0.996264 5.77469 0
M  V30 202 N 42.2198 -0.0501808 4.62873 0
M  V30 203 C 42.3698 -0.588177 3.36904 0
M  V30 204 O 42.4598 -1.78598 3.17173 0
M  V30 205 N 42.4098 0.329694 2.33686 0
M  V30 206 C 42.3198 1.6953 2.45079 0
M  V30 207 C 42.1698 2.16933 3.80505 0
M  V30 208 C 42.1198 1.30326 4.83752 0
M  V30 209 H 39.3798 0.374722 8.67691 0
M  V30 210 H 39.1108 0.443421 6.90177 0
M  V30 211 H 39.9778 -1.75537 7.96793 0
M  V30 212 H 42.6328 -1.94496 5.46629 0
M  V30 213 H 42.9118 0.608651 7.04676 0
M  V30 214 H 43.9038 -0.889672 7.08939 0
M  V30 215 H 42.0698 -0.43308 9.04564 0
M  V30 216 H 41.9988 1.68366 5.8516 0
M  V30 217 P 43.9397 -2.75334 8.47391 0
M  V30 218 O 44.1597 -3.84204 9.44982 0
M  V30 219 O 44.7297 -1.51982 8.68909 0
M  V30 220 O 44.1897 -3.29363 6.99321 0
M  V30 221 C 43.2497 -4.24066 6.42823 0
M  V30 222 C 43.9797 -5.20775 5.52155 0
M  V30 223 O 44.1897 -4.56607 4.22514 0
M  V30 224 C 45.3797 -5.62697 5.96604 0
M  V30 225 O 45.7697 -6.87667 5.41053 0
M  V30 226 C 46.2597 -4.52537 5.39283 0
M  V30 227 C 45.5497 -4.20027 4.08623 0
M  V30 228 N 45.5997 -2.76189 3.71603 0
M  V30 229 H 42.7617 -4.79756 7.24086 0
M  V30 230 H 42.4897 -3.69963 5.84682 0
M  V30 231 H 43.3577 -6.10431 5.41508 0
M  V30 232 H 46.0127 -4.78816 3.28024 0
M  V30 233 H 46.2927 -3.64957 6.05871 0
M  V30 234 H 47.2837 -4.88748 5.21323 0
M  V30 235 H 45.4497 -5.66789 7.0643 0
M  V30 236 P 47.3197 -7.20834 5.23717 0
M  V30 237 O 47.5397 -8.66104 5.38572 0
M  V30 238 O 48.1097 -6.33544 6.1349 0
M  V30 239 O 47.5697 -6.7751 3.72168 0
M  V30 240 C 46.6297 -7.20825 2.7076 0
M  V30 241 C 47.3597 -7.45864 1.40599 0
M  V30 242 O 47.5697 -6.17651 0.734225 0
M  V30 243 C 48.7597 -8.05808 1.51899 0
M  V30 244 O 49.1497 -8.74358 0.335205 0
M  V30 245 C 49.6397 -6.83093 1.70294 0
M  V30 246 C 48.9297 -5.79992 0.836974 0
M  V30 247 N 48.9797 -4.41864 1.38293 0
M  V30 248 H 46.1407 -8.13644 3.0377 0
M  V30 249 H 45.8707 -6.42788 2.55485 0
M  V30 250 H 46.7377 -8.12039 0.792769 0
M  V30 251 P 50.6997 -8.91 3.27348e-15 0
M  V30 252 O 50.9197 -10.1726 -0.733694 0
M  V30 253 O 51.4897 -8.73148 1.23936 0
M  V30 254 O 50.9497 -7.66872 -0.971405 0
M  V30 255 C 50.0097 -7.42309 -2.04641 0
M  V30 256 C 50.7397 -6.86059 -3.24661 0
M  V30 257 O 50.9497 -5.42847 -3.03646 0
M  V30 258 C 52.1397 -7.41196 -3.50753 0
M  V30 259 O 52.5297 -7.27073 -4.86816 0
M  V30 260 C 53.0197 -6.5273 -2.63741 0
M  V30 261 C 52.3097 -5.1842 -2.73198 0
M  V30 262 N 52.3597 -4.38762 -1.4784 0
M  V30 263 H 49.5207 -8.36803 -2.32493 0
M  V30 264 H 49.2507 -6.70197 -1.71129 0
M  V30 265 H 50.1177 -7.03551 -4.13168 0
M  V30 266 P 54.0797 -7.20834 -5.23717 0
M  V30 267 O 54.2997 -7.7993 -6.57351 0
M  V30 268 O 54.8697 -7.79328 -4.13004 0
M  V30 269 O 54.3297 -5.63315 -5.29344 0
M  V30 270 C 53.3897 -4.80255 -6.01876 0
M  V30 271 C 54.1197 -3.64202 -6.65911 0
M  V30 272 O 54.3297 -2.60694 -5.64732 0
M  V30 273 C 55.5197 -3.93473 -7.1943 0
M  V30 274 O 55.9097 -3.02071 -8.21205 0
M  V30 275 C 56.3997 -3.73047 -5.97036 0
M  V30 276 C 55.6897 -2.58828 -5.25741 0
M  V30 277 N 55.7397 -2.6801 -3.77422 0
M  V30 278 C 55.8897 -1.50173 -3.05038 0
M  V30 279 O 55.9797 -0.428832 -3.665 0
M  V30 280 N 55.9397 -1.70922 -1.55541 0
M  V30 281 C 55.8397 -2.7407 -1.06402 0
M  V30 282 N 55.8897 -2.74764 0.260931 0
M  V30 283 C 55.6897 -3.96781 -1.78296 0
M  V30 284 C 55.6397 -3.87909 -3.13891 0
M  V30 285 H 52.8997 -5.4027 -6.79873 0
M  V30 286 H 52.6307 -4.41549 -5.32301 0
M  V30 287 H 53.4977 -3.26371 -7.47889 0
M  V30 288 H 56.1527 -1.63978 -5.5665 0
M  V30 289 H 56.4317 -4.63439 -5.3432 0
M  V30 290 H 57.4237 -3.44728 -6.25838 0
M  V30 291 H 55.5897 -4.96652 -7.57263 0
M  V30 292 H 55.5177 -4.78425 -3.73088 0
M  V30 293 H 55.6197 -4.92593 -1.26997 0
M  V30 294 H 56.0077 -1.86285 0.77595 0
M  V30 295 H 55.8107 -3.63657 0.773896 0
M  V30 296 P 57.4597 -2.75334 -8.47391 0
M  V30 297 O 57.6797 -2.44571 -9.90142 0
M  V30 298 O 58.2497 -3.87688 -7.92115 0
M  V30 299 O 57.7097 -1.4459 -7.59357 0
M  V30 300 C 56.7697 -0.347608 -7.69215 0
M  V30 301 C 57.4997 0.96767 -7.52806 0
M  V30 302 O 57.7097 1.21036 -6.1011 0
M  V30 303 C 58.8997 1.04544 -8.13308 0
M  V30 304 O 59.2897 2.38311 -8.41922 0
M  V30 305 C 59.7797 0.491279 -7.02284 0
M  V30 306 C 59.0697 0.996264 -5.77469 0
M  V30 307 N 59.1197 0.0501916 -4.62973 0
M  V30 308 H 56.2807 -0.374722 -8.67691 0
M  V30 309 H 56.0107 -0.443485 -6.90277 0
M  V30 310 H 56.8777 1.75537 -7.96793 0
M  V30 311 P 60.8396 2.75334 -8.47391 0
M  V30 312 O 61.0596 3.84128 -9.44797 0
M  V30 313 O 61.6296 1.51947 -8.68712 0
M  V30 314 O 61.0896 3.29363 -6.99321 0
M  V30 315 C 60.1496 4.24011 -6.4274 0
M  V30 316 C 60.8796 5.20775 -5.52155 0
M  V30 317 O 61.0896 4.56534 -4.22446 0
M  V30 318 C 62.2796 5.62629 -5.96531 0
M  V30 319 O 62.6696 6.87667 -5.41053 0
M  V30 320 C 63.1596 4.52537 -5.39283 0
M  V30 321 C 62.4496 4.20027 -4.08623 0
M  V30 322 N 62.4996 2.76189 -3.71603 0
M  V30 323 H 59.6606 4.797 -7.24003 0
M  V30 324 H 59.3906 3.69856 -5.84513 0
M  V30 325 H 60.2576 6.10356 -5.41441 0
M  V30 326 P 64.2196 7.20834 -5.23717 0
M  V30 327 O 64.4396 8.66189 -5.38625 0
M  V30 328 O 65.0096 6.33615 -6.1356 0
M  V30 329 O 64.4696 6.7751 -3.72168 0
M  V30 330 C 63.5296 7.20825 -2.7076 0
M  V30 331 C 64.2596 7.45864 -1.40599 0
M  V30 332 O 64.4696 6.17651 -0.734225 0
M  V30 333 C 65.6596 8.05808 -1.51899 0
M  V30 334 O 66.0496 8.74358 -0.335205 0
M  V30 335 C 66.5396 6.83093 -1.70294 0
M  V30 336 C 65.8296 5.79992 -0.836974 0
M  V30 337 N 65.8796 4.41769 -1.38263 0
M  V30 338 C 66.0296 3.36514 -0.485617 0
M  V30 339 O 66.1196 3.61814 0.724703 0
M  V30 340 N 66.0796 2.00746 -1.14492 0
M  V30 341 C 65.9796 1.85887 -2.27776 0
M  V30 342 N 66.0296 0.600907 -2.69379 0
M  V30 343 C 65.8296 2.92182 -3.22265 0
M  V30 344 C 65.7796 4.18399 -2.71925 0
M  V30 345 H 63.0396 8.1355 -3.03735 0
M  V30 346 H 62.7706 6.42695 -2.55448 0
M  V30 347 H 63.6376 8.12139 -0.792866 0
M  V30 348 H 66.2926 5.80078 0.160615 0
M  V30 349 H 66.5716 6.51379 -2.75643 0
M  V30 350 H 67.5636 7.01734 -1.34462 0
M  V30 351 H 65.7296 8.73674 -2.38337 0
M  V30 352 H 65.6576 5.02669 -3.39718 0
M  V30 353 H 65.7596 2.73001 -4.29239 0
M  V30 354 H 66.1476 -0.162318 -2.01146 0
M  V30 355 H 65.9506 0.387742 -3.69773 0
M  V30 356 P 67.5996 8.91 -4.36464e-15 0
M  V30 357 O 67.8196 10.1726 0.733694 0
M  V30 358 O 68.3896 8.73148 -1.23936 0
M  V30 359 O 67.8496 7.66872 0.971405 0
M  V30 360 C 66.9096 7.42309 2.04641 0
M  V30 361 C 67.6396 6.86059 3.24661 0
M  V30 362 O 67.8496 5.42847 3.03646 0
M  V30 363 C 69.0396 7.41196 3.50753 0
M  V30 364 O 69.4296 7.27073 4.86816 0
M  V30 365 C 69.9196 6.5273 2.63741 0
M  V30 366 C 69.2096 5.1842 2.73198 0
M  V30 367 N 69.2596 4.38762 1.4784 0
M  V30 368 C 69.1796 4.81605 0.168631 0
M  V30 369 N 69.2596 3.85454 -0.713363 0
M  V30 370 C 69.3996 2.6994 0.0566958 0
M  V30 371 C 69.5296 1.34815 -0.338502 0
M  V30 372 O 69.5496 0.869548 -1.47125 0
M  V30 373 N 69.6496 0.496304 0.77465 0
M  V30 374 C 69.6496 0.908403 2.09122 0
M  V30 375 N 69.7796 -0.0517805 3.00955 0
M  V30 376 N 69.5196 2.17875 2.46519 0
M  V30 377 C 69.3996 3.01988 1.4033 0
M  V30 378 H 66.4206 8.36803 2.32493 0
M  V30 379 H 66.1506 6.70197 1.71129 0
M  V30 380 H 67.0176 7.03551 4.13168 0
M  V30 381 H 69.6726 4.59498 3.54415 0
M  V30 382 H 69.9516 6.88898 1.59848 0
M  V30 383 H 70.9436 6.46749 3.03687 0
M  V30 384 H 69.1096 8.46908 3.20714 0
M  V30 385 H 69.0606 5.86405 -0.105564 0
M  V30 386 H 69.7426 -0.483664 0.597855 0
M  V30 387 H 69.7796 0.187865 4.0116 0
M  V30 388 H 69.8806 -1.03585 2.71726 0
M  V30 389 P 70.9796 7.20834 5.23717 0
M  V30 390 O 71.1996 7.79853 6.57286 0
M  V30 391 O 71.7696 7.79239 4.12957 0
M  V30 392 O 71.2296 5.63315 5.29344 0
M  V30 393 C 70.2896 4.80255 6.01876 0
M  V30 394 C 71.0196 3.64202 6.65911 0
M  V30 395 O 71.2296 2.60694 5.64732 0
M  V30 396 C 72.4196 3.93473 7.1943 0
M  V30 397 O 72.8096 3.02071 8.21205 0
M  V30 398 C 73.2996 3.73047 5.97036 0
M  V30 399 C 72.5896 2.58828 5.25741 0
M  V30 400 N 72.6396 2.68068 3.77503 0
M  V30 401 H 69.8006 5.40332 6.79951 0
M  V30 402 H 69.5306 4.41613 5.32378 0
M  V30 403 H 70.3976 3.26331 7.47797 0
M  V30 404 P 74.3596 2.75334 8.47391 0
M  V30 405 O 74.5796 2.44571 9.90142 0
M  V30 406 O 75.1496 3.87688 7.92115 0
M  V30 407 O 74.6096 1.4459 7.59357 0
M  V30 408 C 73.6696 0.347608 7.69215 0
M  V30 409 C 74.3996 -0.96767 7.52806 0
M  V30 410 O 74.6096 -1.21036 6.1011 0
M  V30 411 C 75.7996 -1.04544 8.13308 0
M  V30 412 O 76.1896 -2.38311 8.41922 0
M  V30 413 C 76.6796 -0.491279 7.02284 0
M  V30 414 C 75.9696 -0.996264 5.77469 0
M  V30 415 N 76.0196 -0.0501916 4.62973 0
M  V30 416 H 73.1806 0.374722 8.67691 0
M  V30 417 H 72.9106 0.443485 6.90277 0
M  V30 418 H 73.7776 -1.75537 7.96793 0
M  V30 419 P 77.7395 -2.75334 8.47391 0
M  V30 420 O 77.9595 -3.84128 9.44797 0
M  V30 421 O 78.5295 -1.51947 8.68712 0
M  V30 422 O 77.9895 -3.29363 6.99321 0
M  V30 423 C 77.0495 -4.24011 6.4274 0
M  V30 424 C 77.7795 -5.20775 5.52155 0
M  V30 425 O 77.9895 -4.56534 4.22446 0
M  V30 426 C 79.1795 -5.62629 5.96531 0
M  V30 427 O 79.5695 -6.87667 5.41053 0
M  V30 428 C 80.0595 -4.52537 5.39283 0
M  V30 429 C 79.3495 -4.20027 4.08623 0
M  V30 430 N 79.3995 -2.76189 3.71603 0
M  V30 431 H 76.5605 -4.797 7.24003 0
M  V30 432 H 76.2905 -3.69856 5.84513 0
M  V30 433 H 77.1575 -6.10356 5.41441 0
M  V30 434 P 81.1195 -7.20834 5.23717 0
M  V30 435 O 81.3395 -8.66104 5.38572 0
M  V30 436 O 81.9095 -6.33544 6.1349 0
M  V30 437 O 81.3695 -6.7751 3.72168 0
M  V30 438 C 80.4295 -7.20825 2.7076 0
M  V30 439 C 81.1595 -7.45864 1.40599 0
M  V30 440 O 81.3695 -6.17651 0.734225 0
M  V30 441 C 82.5595 -8.05808 1.51899 0
M  V30 442 O 82.9495 -8.74358 0.335205 0
M  V30 443 C 83.4395 -6.83093 1.70294 0
M  V30 444 C 82.7295 -5.79992 0.836974 0
M  V30 445 N 82.7795 -4.41864 1.38293 0
M  V30 446 C 82.6995 -3.99538 2.69438 0
M  V30 447 N 82.7795 -2.69909 2.84277 0
M  V30 448 C 82.9195 -2.21719 1.5408 0
M  V30 449 C 83.0495 -0.891712 1.06628 0
M  V30 450 O 83.0695 0.161298 1.70137 0
M  V30 451 N 83.1695 -0.856846 -0.334985 0
M  V30 452 C 83.1695 -1.9641 -1.15789 0
M  V30 453 N 83.2995 -1.72708 -2.46522 0
M  V30 454 N 83.0395 -3.21165 -0.713741 0
M  V30 455 C 82.9195 -3.26797 0.639748 0
M  V30 456 H 79.9405 -8.13644 3.0377 0
M  V30 457 H 79.6705 -6.42788 2.55485 0
M  V30 458 H 80.5375 -8.12039 0.792769 0
M  V30 459 H 83.1925 -5.80061 -0.166416 0
M  V30 460 H 83.4715 -6.51287 2.75604 0
M  V30 461 H 84.4635 -7.01734 1.34462 0
M  V30 462 H 82.6295 -8.73674 2.38337 0
M  V30 463 H 82.5805 -4.68207 3.53221 0
M  V30 464 H 83.2625 0.0398818 -0.767965 0
M  V30 465 H 83.2995 -2.50995 -3.13503 0
M  V30 466 H 83.4005 -0.759148 -2.80716 0
M  V30 467 P 84.4995 -8.91 5.4558e-15 0
M  V30 468 O 84.7195 -10.1726 -0.733694 0
M  V30 469 O 85.2895 -8.73148 1.23936 0
M  V30 470 O 84.7495 -7.66872 -0.971405 0
M  V30 471 C 83.8095 -7.42309 -2.04641 0
M  V30 472 C 84.5395 -6.86059 -3.24661 0
M  V30 473 O 84.7495 -5.42847 -3.03646 0
M  V30 474 C 85.9395 -7.41196 -3.50753 0
M  V30 475 O 86.3295 -7.27073 -4.86816 0
M  V30 476 C 86.8195 -6.5273 -2.63741 0
M  V30 477 C 86.1095 -5.1842 -2.73198 0
M  V30 478 N 86.1595 -4.38762 -1.4784 0
M  V30 479 H 83.3205 -8.36803 -2.32493 0
M  V30 480 H 83.0505 -6.70197 -1.71129 0
M  V30 481 H 83.9175 -7.03551 -4.13168 0
M  V30 482 P 87.8795 -7.20834 -5.23717 0
M  V30 483 O 88.0995 -7.79853 -6.57286 0
M  V30 484 O 88.6695 -7.79239 -4.12957 0
M  V30 485 O 88.1295 -5.63315 -5.29344 0
M  V30 486 C 87.1895 -4.80255 -6.01876 0
M  V30 487 C 87.9195 -3.64202 -6.65911 0
M  V30 488 O 88.1295 -2.60694 -5.64732 0
M  V30 489 C 89.3195 -3.93473 -7.1943 0
M  V30 490 O 89.7095 -3.02071 -8.21205 0
M  V30 491 C 90.1995 -3.73047 -5.97036 0
M  V30 492 C 89.4895 -2.58828 -5.25741 0
M  V30 493 N 89.5395 -2.68068 -3.77503 0
M  V30 494 H 86.7005 -5.40332 -6.79951 0
M  V30 495 H 86.4305 -4.41613 -5.32378 0
M  V30 496 H 87.2975 -3.26331 -7.47797 0
M  V30 497 P 91.2595 -2.75334 -8.47391 0
M  V30 498 O 91.4795 -2.44571 -9.90142 0
M  V30 499 O 92.0495 -3.87688 -7.92115 0
M  V30 500 O 91.5095 -1.4459 -7.59357 0
M  V30 501 C 90.5695 -0.347608 -7.69215 0
M  V30 502 C 91.2995 0.96767 -7.52806 0
M  V30 503 O 91.5095 1.21036 -6.1011 0
M  V30 504 C 92.6995 1.04544 -8.13308 0
M  V30 505 O 93.0895 2.38311 -8.41922 0
M  V30 506 C 93.5795 0.491279 -7.02284 0
M  V30 507 C 92.8695 0.996264 -5.77469 0
M  V30 508 N 92.9195 0.0501916 -4.62973 0
M  V30 509 H 90.0805 -0.374722 -8.67691 0
M  V30 510 H 89.8105 -0.443485 -6.90277 0
M  V30 511 H 90.6775 1.75537 -7.96793 0
M  V30 512 P 94.6394 2.75334 -8.47391 0
M  V30 513 O 94.8594 3.84128 -9.44797 0
M  V30 514 O 95.4294 1.51947 -8.68712 0
M  V30 515 O 94.8894 3.29363 -6.99321 0
M  V30 516 C 93.9494 4.24011 -6.4274 0
M  V30 517 C 94.6794 5.20775 -5.52155 0
M  V30 518 O 94.8894 4.56534 -4.22446 0
M  V30 519 C 96.0794 5.62629 -5.96531 0
M  V30 520 O 96.4694 6.87667 -5.41053 0
M  V30 521 C 96.9594 4.52537 -5.39283 0
M  V30 522 C 96.2494 4.20027 -4.08623 0
M  V30 523 N 96.2994 2.76189 -3.71603 0
M  V30 524 H 93.4604 4.797 -7.24003 0
M  V30 525 H 93.1904 3.69856 -5.84513 0
M  V30 526 H 94.0574 6.10356 -5.41441 0
M  V30 527 P 98.0194 7.20834 -5.23717 0
M  V30 528 O 98.2394 8.66104 -5.38572 0
M  V30 529 O 98.8094 6.33544 -6.1349 0
M  V30 530 O 98.2694 6.7751 -3.72168 0
M  V30 531 C 97.3294 7.20825 -2.7076 0
M  V30 532 C 98.0594 7.45864 -1.40599 0
M  V30 533 O 98.2694 6.17651 -0.734225 0
M  V30 534 C 99.4594 8.05808 -1.51899 0
M  V30 535 O 99.8494 8.74358 -0.335205 0
M  V30 536 C 100.339 6.83093 -1.70294 0
M  V30 537 C 99.6294 5.79992 -0.836974 0
M  V30 538 N 99.6794 4.41864 -1.38293 0
M  V30 539 H 96.8404 8.13644 -3.0377 0
M  V30 540 H 96.5704 6.42788 -2.55485 0
M  V30 541 H 97.4374 8.12039 -0.792769 0
M  V30 542 P 101.399 8.91 -6.54696e-15 0
M  V30 543 O 101.619 10.1726 0.733694 0
M  V30 544 O 102.189 8.73148 -1.23936 0
M  V30 545 O 101.649 7.66872 0.971405 0
M  V30 546 C 100.709 7.42309 2.04641 0
M  V30 547 C 101.439 6.86059 3.24661 0
M  V30 548 O 101.649 5.42847 3.03646 0
M  V30 549 C 102.839 7.41196 3.50753 0
M  V30 550 O 103.229 7.27073 4.86816 0
M  V30 551 C 103.719 6.5273 2.63741 0
M  V30 552 C 103.009 5.1842 2.73198 0
M  V30 553 N 103.059 4.38762 1.4784 0
M  V30 554 H 100.22 8.36803 2.32493 0
M  V30 555 H 99.9504 6.70197 1.71129 0
M  V30 556 H 100.817 7.03551 4.13168 0
M  V30 557 P 104.779 7.20834 5.23717 0
M  V30 558 O 104.999 7.79853 6.57286 0
M  V30 559 O 105.569 7.79239 4.12957 0
M  V30 560 O 105.029 5.63315 5.29344 0
M  V30 561 C 104.089 4.80255 6.01876 0
M  V30 562 C 104.819 3.64202 6.65911 0
M  V30 563 O 105.029 2.60694 5.64732 0
M  V30 564 C 106.219 3.93473 7.1943 0
M  V30 565 O 106.609 3.02071 8.21205 0
M  V30 566 C 107.099 3.73047 5.97036 0
M  V30 567 C 106.389 2.58828 5.25741 0
M  V30 568 N 106.439 2.68068 3.77503 0
M  V30 569 C 106.359 3.79715 2.96723 0
M  V30 570 N 106.439 3.5377 1.68852 0
M  V30 571 C 106.579 2.15054 1.63254 0
M  V30 572 C 106.709 1.28964 0.518571 0
M  V30 573 O 106.729 1.56826 -0.679156 0
M  V30 574 N 106.829 -0.0538097 0.918425 0
M  V30 575 C 106.829 -0.494275 2.22578 0
M  V30 576 N 106.959 -1.81086 2.40434 0
M  V30 577 N 106.699 0.313645 3.27502 0
M  V30 578 C 106.579 1.61829 2.91033 0
M  V30 579 H 103.6 5.40332 6.79951 0
M  V30 580 H 103.33 4.41613 5.32378 0
M  V30 581 H 104.197 3.26331 7.47797 0
M  V30 582 H 106.852 1.63422 5.56814 0
M  V30 583 H 107.131 4.63374 5.34244 0
M  V30 584 H 108.123 3.44728 6.25838 0
M  V30 585 H 106.289 4.96652 7.57263 0
M  V30 586 H 106.24 4.80617 3.3614 0
M  V30 587 H 106.922 -0.742702 0.199384 0
M  V30 588 H 106.959 -2.20598 3.35588 0
M  V30 589 H 107.06 -2.43518 1.58945 0
M  V30 590 P 108.159 2.75334 8.47391 0
M  V30 591 O 108.379 2.44619 9.90336 0
M  V30 592 O 108.949 3.87776 7.92294 0
M  V30 593 O 108.409 1.4459 7.59357 0
M  V30 594 C 107.469 0.347653 7.69315 0
M  V30 595 C 108.199 -0.96767 7.52806 0
M  V30 596 O 108.409 -1.21055 6.10208 0
M  V30 597 C 109.599 -1.04557 8.13408 0
M  V30 598 O 109.989 -2.38311 8.41922 0
M  V30 599 C 110.479 -0.491279 7.02284 0
M  V30 600 C 109.769 -0.996264 5.77469 0
M  V30 601 N 109.819 -0.0501916 4.62973 0
M  V30 602 H 106.981 0.374765 8.67791 0
M  V30 603 H 106.709 0.443613 6.90476 0
M  V30 604 H 107.577 -1.75559 7.96891 0
M  V30 605 H 110.232 -1.94563 5.46818 0
M  V30 606 H 110.512 0.608651 7.04676 0
M  V30 607 H 111.503 -0.889796 7.09039 0
M  V30 608 H 109.669 -0.433128 9.04664 0
M  V30 609 P 111.539 -2.75334 8.47391 0
M  V30 610 O 111.759 -3.84166 9.4489 0
M  V30 611 O 112.329 -1.51964 8.6881 0
M  V30 612 O 111.789 -3.29363 6.99321 0
M  V30 613 C 110.849 -4.23956 6.42656 0
M  V30 614 C 111.579 -5.20775 5.52155 0
M  V30 615 O 111.789 -4.56534 4.22446 0
M  V30 616 C 112.979 -5.62629 5.96531 0
M  V30 617 O 113.369 -6.87667 5.41053 0
M  V30 618 C 113.859 -4.52537 5.39283 0
M  V30 619 C 113.149 -4.20027 4.08623 0
M  V30 620 N 113.199 -2.7613 3.71522 0
M  V30 621 C 113.349 -2.45612 2.37989 0
M  V30 622 O 113.439 -3.30919 1.51621 0
M  V30 623 N 113.389 -1.10684 2.08435 0
M  V30 624 C 113.299 -0.0690084 2.9792 0
M  V30 625 O 113.349 1.10553 2.59426 0
M  V30 626 C 113.149 -0.481522 4.35345 0
M  V30 627 C 113.039 0.618778 5.36443 0
M  V30 628 C 113.099 -1.78906 4.67968 0
M  V30 629 H 110.359 -4.797 7.24003 0
M  V30 630 H 110.09 -3.69802 5.84429 0
M  V30 631 H 110.957 -6.10356 5.41441 0
M  V30 632 H 113.612 -4.78651 3.27911 0
M  V30 633 H 113.891 -3.64957 6.05871 0
M  V30 634 H 114.883 -4.8868 5.2125 0
M  V30 635 H 113.049 -5.66726 7.06352 0
M  V30 636 H 112.978 -2.07737 5.72367 0
M  V30 637 H 114.008 0.754375 5.86871 0
M  V30 638 H 112.271 0.359721 6.10641 0
M  V30 639 H 112.759 1.55533 4.8581 0
M  V30 640 H 113.495 -0.862651 1.12037 0
M  V30 641 P 114.919 -7.20834 5.23717 0
M  V30 642 O 115.139 -8.66104 5.38572 0
M  V30 643 O 115.709 -6.33544 6.1349 0
M  V30 644 O 115.169 -6.7751 3.72168 0
M  V30 645 C 114.229 -7.20825 2.7076 0
M  V30 646 C 114.959 -7.45864 1.40599 0
M  V30 647 O 115.169 -6.17651 0.734225 0
M  V30 648 C 116.359 -8.05808 1.51899 0
M  V30 649 O 116.749 -8.74358 0.335205 0
M  V30 650 C 117.239 -6.83093 1.70294 0
M  V30 651 C 116.529 -5.79992 0.836974 0
M  V30 652 N 116.579 -4.41864 1.38293 0
M  V30 653 H 113.74 -8.13644 3.0377 0
M  V30 654 H 113.47 -6.42788 2.55485 0
M  V30 655 H 114.337 -8.12039 0.792769 0
M  V30 656 P 118.299 -8.91 7.63812e-15 0
M  V30 657 O 118.519 -10.1736 -0.733766 0
M  V30 658 O 119.089 -8.73247 1.2395 0
M  V30 659 O 118.549 -7.66872 -0.971405 0
M  V30 660 C 117.609 -7.42309 -2.04641 0
M  V30 661 C 118.339 -6.86059 -3.24661 0
M  V30 662 O 118.549 -5.42847 -3.03646 0
M  V30 663 C 119.739 -7.41196 -3.50753 0
M  V30 664 O 120.129 -7.27073 -4.86816 0
M  V30 665 C 120.619 -6.5273 -2.63741 0
M  V30 666 C 119.909 -5.1842 -2.73198 0
M  V30 667 N 119.959 -4.38668 -1.47808 0
M  V30 668 C 120.109 -3.00789 -1.58511 0
M  V30 669 O 120.199 -2.50116 -2.71298 0
M  V30 670 N 120.159 -2.29703 -0.253698 0
M  V30 671 C 120.059 -2.84269 0.750133 0
M  V30 672 N 120.109 -2.06951 1.82612 0
M  V30 673 C 119.909 -4.25803 0.889776 0
M  V30 674 C 119.859 -4.98326 -0.259363 0
M  V30 675 H 117.119 -8.36707 -2.32466 0
M  V30 676 H 116.85 -6.701 -1.71105 0
M  V30 677 H 117.717 -7.03638 -4.13219 0
M  V30 678 H 120.372 -4.59852 -3.53955 0
M  V30 679 H 120.651 -6.88995 -1.59871 0
M  V30 680 H 121.643 -6.46749 -3.03687 0
M  V30 681 H 119.809 -8.46908 -3.20714 0
M  V30 682 H 119.737 -6.06349 -0.206238 0
M  V30 683 H 119.839 -4.73163 1.86796 0
M  V30 684 H 120.227 -1.05099 1.72271 0
M  V30 685 H 120.03 -2.48716 2.76361 0
M  V30 686 P 121.679 -7.20834 -5.23717 0
M  V30 687 O 121.899 -7.7993 -6.57351 0
M  V30 688 O 122.469 -7.79328 -4.13004 0
M  V30 689 O 121.929 -5.63315 -5.29344 0
M  V30 690 C 120.989 -4.80193 -6.01798 0
M  V30 691 C 121.719 -3.64202 -6.65911 0
M  V30 692 O 121.929 -2.60694 -5.64732 0
M  V30 693 C 123.119 -3.93473 -7.1943 0
M  V30 694 O 123.509 -3.02071 -8.21205 0
M  V30 695 C 123.999 -3.73047 -5.97036 0
M  V30 696 C 123.289 -2.58828 -5.25741 0
M  V30 697 N 123.339 -2.6801 -3.77422 0
M  V30 698 C 123.489 -1.50443 -3.07133 0
M  V30 699 O 123.579 -0.419406 -3.61576 0
M  V30 700 N 123.529 -1.6403 -1.69677 0
M  V30 701 C 123.439 -2.81206 -0.986255 0
M  V30 702 C 123.289 -3.99158 -1.80325 0
M  V30 703 C 123.239 -3.89779 -3.1476 0
M  V30 704 H 120.499 -5.40332 -6.79951 0
M  V30 705 H 120.23 -4.41549 -5.32301 0
M  V30 706 H 121.097 -3.26331 -7.47797 0
M  V30 707 H 123.752 -1.6395 -5.56554 0
M  V30 708 H 124.031 -4.63439 -5.3432 0
M  V30 709 H 125.023 -3.44728 -6.25838 0
M  V30 710 H 123.189 -4.96652 -7.57263 0
M  V30 711 H 123.118 -4.80159 -3.74441 0
M  V30 712 P 125.059 -2.75334 -8.47391 0
M  V30 713 O 125.279 -2.44571 -9.90142 0
M  V30 714 O 125.849 -3.87688 -7.92115 0
M  V30 715 O 125.309 -1.4459 -7.59357 0
M  V30 716 C 124.369 -0.347608 -7.69215 0
M  V30 717 C 125.099 0.96767 -7.52806 0
M  V30 718 O 125.309 1.21036 -6.1011 0
M  V30 719 C 126.499 1.04544 -8.13308 0
M  V30 720 O 126.889 2.38311 -8.41922 0
M  V30 721 C 127.379 0.491279 -7.02284 0
M  V30 722 C 126.669 0.996264 -5.77469 0
M  V30 723 N 126.719 0.0501916 -4.62973 0
M  V30 724 H 123.88 -0.374722 -8.67691 0
M  V30 725 H 123.61 -0.443485 -6.90277 0
M  V30 726 H 124.477 1.75537 -7.96793 0
M  V30 727 P 128.439 2.75334 -8.47391 0
M  V30 728 O 128.659 3.84166 -9.4489 0
M  V30 729 O 129.229 1.51964 -8.6881 0
M  V30 730 O 128.689 3.29363 -6.99321 0
M  V30 731 C 127.749 4.24011 -6.4274 0
M  V30 732 C 128.479 5.20775 -5.52155 0
M  V30 733 O 128.689 4.56534 -4.22446 0
M  V30 734 C 129.879 5.62629 -5.96531 0
M  V30 735 O 130.269 6.87667 -5.41053 0
M  V30 736 C 130.759 4.52537 -5.39283 0
M  V30 737 C 130.049 4.20027 -4.08623 0
M  V30 738 N 130.099 2.7613 -3.71522 0
M  V30 739 C 130.249 2.43702 -2.37085 0
M  V30 740 O 130.339 3.3531 -1.54039 0
M  V30 741 N 130.299 0.951103 -2.10621 0
M  V30 742 C 130.199 0.165021 -2.93537 0
M  V30 743 N 130.249 -1.09723 -2.53253 0
M  V30 744 C 130.049 0.469576 -4.32458 0
M  V30 745 C 129.999 1.78658 -4.65921 0
M  V30 746 H 127.259 4.79645 -7.23919 0
M  V30 747 H 126.99 3.69802 -5.84429 0
M  V30 748 H 127.857 6.10431 -5.41508 0
M  V30 749 H 130.512 4.78733 -3.27967 0
M  V30 750 H 130.791 3.64957 -6.05871 0
M  V30 751 H 131.783 4.8868 -5.2125 0
M  V30 752 H 129.949 5.66726 -7.06352 0
M  V30 753 H 129.877 2.06987 -5.70299 0
M  V30 754 H 129.979 -0.314383 -5.07728 0
M  V30 755 H 130.367 -1.31363 -1.5319 0
M  V30 756 H 130.17 -1.85978 -3.21943 0
M  V30 757 P 131.819 7.20834 -5.23717 0
M  V30 758 O 132.039 8.66104 -5.38572 0
M  V30 759 O 132.609 6.33544 -6.1349 0
M  V30 760 O 132.069 6.7751 -3.72168 0
M  V30 761 C 131.129 7.20825 -2.7076 0
M  V30 762 C 131.859 7.45864 -1.40599 0
M  V30 763 O 132.069 6.17651 -0.734225 0
M  V30 764 C 133.259 8.05808 -1.51899 0
M  V30 765 O 133.649 8.74358 -0.335205 0
M  V30 766 C 134.139 6.83093 -1.70294 0
M  V30 767 C 133.429 5.79992 -0.836974 0
M  V30 768 N 133.479 4.41864 -1.38293 0
M  V30 769 H 130.64 8.13644 -3.0377 0
M  V30 770 H 130.37 6.42788 -2.55485 0
M  V30 771 H 131.237 8.12039 -0.792769 0
M  V30 772 P 135.199 8.91 -8.72928e-15 0
M  V30 773 O 135.419 10.1726 0.733694 0
M  V30 774 O 135.989 8.73148 -1.23936 0
M  V30 775 O 135.449 7.66872 0.971405 0
M  V30 776 C 134.509 7.42309 2.04641 0
M  V30 777 C 135.239 6.86059 3.24661 0
M  V30 778 O 135.449 5.42847 3.03646 0
M  V30 779 C 136.639 7.41196 3.50753 0
M  V30 780 O 137.029 7.27073 4.86816 0
M  V30 781 C 137.519 6.5273 2.63741 0
M  V30 782 C 136.809 5.1842 2.73198 0
M  V30 783 N 136.859 4.38762 1.4784 0
M  V30 784 H 134.02 8.36803 2.32493 0
M  V30 785 H 133.75 6.70197 1.71129 0
M  V30 786 H 134.617 7.03551 4.13168 0
M  V30 787 P 138.579 7.20834 5.23717 0
M  V30 788 O 138.799 7.80006 6.57415 0
M  V30 789 O 139.369 7.79416 4.13051 0
M  V30 790 O 138.829 5.63315 5.29344 0
M  V30 791 C 137.889 4.80318 6.01954 0
M  V30 792 C 138.619 3.64202 6.65911 0
M  V30 793 O 138.829 2.60736 5.64823 0
M  V30 794 C 140.019 3.93521 7.19518 0
M  V30 795 O 140.409 3.02071 8.21205 0
M  V30 796 C 140.899 3.73047 5.97036 0
M  V30 797 C 140.189 2.58828 5.25741 0
M  V30 798 N 140.239 2.68068 3.77503 0
M  V30 799 H 137.401 5.40394 6.8003 0
M  V30 800 H 137.129 4.41741 5.32532 0
M  V30 801 H 137.997 3.26371 7.47889 0
M  V30 802 H 140.652 1.64007 5.56746 0
M  V30 803 H 140.932 4.63439 5.3432 0
M  V30 804 H 141.923 3.44776 6.25925 0
M  V30 805 H 140.089 4.96707 7.57347 0
M  V30 806 P 141.959 2.75334 8.47391 0
M  V30 807 O 142.179 2.44595 9.90239 0
M  V30 808 O 142.749 3.87732 7.92204 0
M  V30 809 O 142.209 1.4459 7.59357 0
M  V30 810 C 141.269 0.347563 7.69115 0
M  V30 811 C 141.999 -0.96767 7.52806 0
M  V30 812 O 142.209 -1.21036 6.1011 0
M  V30 813 C 143.399 -1.04544 8.13308 0
M  V30 814 O 143.789 -2.38311 8.41922 0
M  V30 815 C 144.279 -0.491279 7.02284 0
M  V30 816 C 143.569 -0.996264 5.77469 0
M  V30 817 N 143.619 -0.0501808 4.62873 0
M  V30 818 C 143.769 -0.588177 3.36904 0
M  V30 819 O 143.859 -1.78598 3.17173 0
M  V30 820 N 143.809 0.329694 2.33686 0
M  V30 821 C 143.719 1.6953 2.45079 0
M  V30 822 O 143.769 2.41926 1.44899 0
M  V30 823 C 143.569 2.16933 3.80505 0
M  V30 824 C 143.459 3.65373 3.97621 0
M  V30 825 C 143.519 1.30326 4.83752 0
M  V30 826 H 140.779 0.374722 8.67691 0
M  V30 827 H 140.51 0.443421 6.90177 0
M  V30 828 H 141.377 -1.75537 7.96793 0
M  V30 829 H 144.032 -1.94496 5.46629 0
M  V30 830 H 144.311 0.608651 7.04676 0
M  V30 831 H 145.303 -0.889672 7.08939 0
M  V30 832 H 143.469 -0.43308 9.04564 0
M  V30 833 H 143.398 1.68366 5.8516 0
M  V30 834 H 144.428 4.05985 4.30448 0
M  V30 835 H 142.691 3.88028 4.72875 0
M  V30 836 H 143.179 4.11381 3.01609 0
M  V30 837 H 143.915 -0.0393617 1.41345 0
M  V30 838 P 145.339 -2.75334 8.47391 0
M  V30 839 O 145.559 -3.84204 9.44982 0
M  V30 840 O 146.129 -1.51982 8.68909 0
M  V30 841 O 145.589 -3.29363 6.99321 0
M  V30 842 C 144.649 -4.24066 6.42823 0
M  V30 843 C 145.379 -5.20775 5.52155 0
M  V30 844 O 145.589 -4.56607 4.22514 0
M  V30 845 C 146.779 -5.62697 5.96604 0
M  V30 846 O 147.169 -6.87667 5.41053 0
M  V30 847 C 147.659 -4.52537 5.39283 0
M  V30 848 C 146.949 -4.20027 4.08623 0
M  V30 849 N 146.999 -2.76189 3.71603 0
M  V30 850 C 146.919 -1.66944 4.54297 0
M  V30 851 N 146.989 -0.536169 3.91344 0
M  V30 852 C 147.139 -0.901569 2.58849 0
M  V30 853 C 147.269 -0.146599 1.40236 0
M  V30 854 N 147.279 1.18234 1.37046 0
M  V30 855 N 147.389 -0.822941 0.249738 0
M  V30 856 C 147.379 -2.15179 0.280525 0
M  V30 857 N 147.259 -2.96414 1.30822 0
M  V30 858 C 147.139 -2.25804 2.44748 0
M  V30 859 H 144.161 -4.79756 7.24086 0
M  V30 860 H 143.889 -3.69963 5.84682 0
M  V30 861 H 144.757 -6.10431 5.41508 0
M  V30 862 H 147.412 -4.78816 3.28024 0
M  V30 863 H 147.692 -3.64957 6.05871 0
M  V30 864 H 148.683 -4.88748 5.21323 0
M  V30 865 H 146.849 -5.66789 7.0643 0
M  V30 866 H 146.808 -1.74684 5.62396 0
M  V30 867 H 147.189 1.71949 2.24394 0
M  V30 868 H 147.378 1.67511 0.470742 0
M  V30 869 H 147.486 -2.63704 -0.6828 0
M  V30 870 P 148.719 -7.20834 5.23717 0
M  V30 871 O 148.939 -8.66104 5.38572 0
M  V30 872 O 149.509 -6.33544 6.1349 0
M  V30 873 O 148.969 -6.7751 3.72168 0
M  V30 874 C 148.029 -7.20825 2.7076 0
M  V30 875 C 148.759 -7.45864 1.40599 0
M  V30 876 O 148.969 -6.17651 0.734225 0
M  V30 877 C 150.159 -8.05808 1.51899 0
M  V30 878 O 150.549 -8.74358 0.335205 0
M  V30 879 C 151.039 -6.83093 1.70294 0
M  V30 880 C 150.329 -5.79992 0.836974 0
M  V30 881 N 150.379 -4.41864 1.38293 0
M  V30 882 C 150.299 -3.99538 2.69438 0
M  V30 883 N 150.379 -2.69909 2.84277 0
M  V30 884 C 150.519 -2.21719 1.5408 0
M  V30 885 C 150.649 -0.891712 1.06628 0
M  V30 886 O 150.669 0.161298 1.70137 0
M  V30 887 N 150.769 -0.856846 -0.334985 0
M  V30 888 C 150.769 -1.9641 -1.15789 0
M  V30 889 N 150.899 -1.72708 -2.46522 0
M  V30 890 N 150.639 -3.21165 -0.713741 0
M  V30 891 C 150.519 -3.26797 0.639748 0
M  V30 892 H 147.54 -8.13644 3.0377 0
M  V30 893 H 147.27 -6.42788 2.55485 0
M  V30 894 H 148.137 -8.12039 0.792769 0
M  V30 895 H 150.792 -5.80061 -0.166416 0
M  V30 896 H 151.071 -6.51287 2.75604 0
M  V30 897 H 152.063 -7.01734 1.34462 0
M  V30 898 H 150.229 -8.73674 2.38337 0
M  V30 899 H 150.18 -4.68207 3.53221 0
M  V30 900 H 150.862 0.0398818 -0.767965 0
M  V30 901 H 150.899 -2.50995 -3.13503 0
M  V30 902 H 151 -0.759148 -2.80716 0
M  V30 903 P 152.099 -8.91 9.82044e-15 0
M  V30 904 O 152.319 -10.1726 -0.733694 0
M  V30 905 O 152.889 -8.73148 1.23936 0
M  V30 906 O 152.349 -7.66872 -0.971405 0
M  V30 907 C 151.409 -7.42309 -2.04641 0
M  V30 908 C 152.139 -6.86059 -3.24661 0
M  V30 909 O 152.349 -5.42847 -3.03646 0
M  V30 910 C 153.539 -7.41196 -3.50753 0
M  V30 911 O 153.929 -7.27073 -4.86816 0
M  V30 912 C 154.419 -6.5273 -2.63741 0
M  V30 913 C 153.709 -5.1842 -2.73198 0
M  V30 914 N 153.759 -4.38762 -1.4784 0
M  V30 915 H 150.92 -8.36803 -2.32493 0
M  V30 916 H 150.65 -6.70197 -1.71129 0
M  V30 917 H 151.517 -7.03551 -4.13168 0
M  V30 918 P 155.479 -7.20834 -5.23717 0
M  V30 919 O 155.699 -7.79853 -6.57286 0
M  V30 920 O 156.269 -7.79239 -4.12957 0
M  V30 921 O 155.729 -5.63315 -5.29344 0
M  V30 922 C 154.789 -4.80255 -6.01876 0
M  V30 923 C 155.519 -3.64202 -6.65911 0
M  V30 924 O 155.729 -2.60694 -5.64732 0
M  V30 925 C 156.919 -3.93473 -7.1943 0
M  V30 926 O 157.309 -3.02071 -8.21205 0
M  V30 927 C 157.799 -3.73047 -5.97036 0
M  V30 928 C 157.089 -2.58828 -5.25741 0
M  V30 929 N 157.139 -2.68068 -3.77503 0
M  V30 930 H 154.3 -5.40332 -6.79951 0
M  V30 931 H 154.03 -4.41613 -5.32378 0
M  V30 932 H 154.897 -3.26331 -7.47797 0
M  V30 933 P 158.859 -2.75334 -8.47391 0
M  V30 934 O 159.079 -2.44571 -9.90142 0
M  V30 935 O 159.649 -3.87688 -7.92115 0
M  V30 936 O 159.109 -1.4459 -7.59357 0
M  V30 937 C 158.169 -0.347608 -7.69215 0
M  V30 938 C 158.899 0.96767 -7.52806 0
M  V30 939 O 159.109 1.21036 -6.1011 0
M  V30 940 C 160.299 1.04544 -8.13308 0
M  V30 941 O 160.689 2.38311 -8.41922 0
M  V30 942 C 161.179 0.491279 -7.02284 0
M  V30 943 C 160.469 0.996264 -5.77469 0
M  V30 944 N 160.519 0.0501916 -4.62973 0
M  V30 945 H 157.68 -0.374722 -8.67691 0
M  V30 946 H 157.41 -0.443485 -6.90277 0
M  V30 947 H 158.277 1.75537 -7.96793 0
M  V30 948 P 162.239 2.75334 -8.47391 0
M  V30 949 O 162.459 3.84166 -9.4489 0
M  V30 950 O 163.029 1.51964 -8.6881 0
M  V30 951 O 162.489 3.29363 -6.99321 0
M  V30 952 C 161.549 4.23956 -6.42656 0
M  V30 953 C 162.279 5.20775 -5.52155 0
M  V30 954 O 162.489 4.56534 -4.22446 0
M  V30 955 C 163.679 5.62629 -5.96531 0
M  V30 956 O 164.069 6.87667 -5.41053 0
M  V30 957 C 164.559 4.52537 -5.39283 0
M  V30 958 C 163.849 4.20027 -4.08623 0
M  V30 959 N 163.899 2.7613 -3.71522 0
M  V30 960 C 164.049 2.45612 -2.37989 0
M  V30 961 O 164.139 3.30919 -1.51621 0
M  V30 962 N 164.089 1.10684 -2.08435 0
M  V30 963 C 163.999 0.0690084 -2.9792 0
M  V30 964 O 164.049 -1.10553 -2.59426 0
M  V30 965 C 163.849 0.481522 -4.35345 0
M  V30 966 C 163.739 -0.618778 -5.36443 0
M  V30 967 C 163.799 1.78906 -4.67968 0
M  V30 968 H 161.059 4.797 -7.24003 0
M  V30 969 H 160.79 3.69802 -5.84429 0
M  V30 970 H 161.657 6.10356 -5.41441 0
M  V30 971 H 164.312 4.78651 -3.27911 0
M  V30 972 H 164.591 3.64957 -6.05871 0
M  V30 973 H 165.583 4.8868 -5.2125 0
M  V30 974 H 163.749 5.66726 -7.06352 0
M  V30 975 H 163.678 2.07737 -5.72367 0
M  V30 976 H 164.708 -0.754375 -5.86871 0
M  V30 977 H 162.971 -0.359721 -6.10641 0
M  V30 978 H 163.459 -1.55533 -4.8581 0
M  V30 979 H 164.195 0.862651 -1.12037 0
M  V30 980 P 165.619 7.20834 -5.23717 0
M  V30 981 O 165.839 8.66104 -5.38572 0
M  V30 982 O 166.409 6.33544 -6.1349 0
M  V30 983 O 165.869 6.7751 -3.72168 0
M  V30 984 C 164.929 7.20825 -2.7076 0
M  V30 985 C 165.659 7.45864 -1.40599 0
M  V30 986 O 165.869 6.17651 -0.734225 0
M  V30 987 C 167.059 8.05808 -1.51899 0
M  V30 988 O 167.449 8.74358 -0.335205 0
M  V30 989 C 167.939 6.83093 -1.70294 0
M  V30 990 C 167.229 5.79992 -0.836974 0
M  V30 991 N 167.279 4.41864 -1.38293 0
M  V30 992 H 164.44 8.13644 -3.0377 0
M  V30 993 H 164.17 6.42788 -2.55485 0
M  V30 994 H 165.037 8.12039 -0.792769 0
M  V30 995 P 168.999 8.91 -1.09116e-14 0
M  V30 996 O 169.219 10.1726 0.733694 0
M  V30 997 O 169.789 8.73148 -1.23936 0
M  V30 998 O 169.249 7.66872 0.971405 0
M  V30 999 C 168.309 7.42309 2.04641 0
M  V30 1000 C 169.039 6.86059 3.24661 0
M  V30 1001 O 169.249 5.42847 3.03646 0
M  V30 1002 C 170.439 7.41196 3.50753 0
M  V30 1003 O 170.829 7.27073 4.86816 0
M  V30 1004 C 171.319 6.5273 2.63741 0
M  V30 1005 C 170.609 5.1842 2.73198 0
M  V30 1006 N 170.659 4.38762 1.4784 0
M  V30 1007 H 167.82 8.36803 2.32493 0
M  V30 1008 H 167.55 6.70197 1.71129 0
M  V30 1009 H 168.417 7.03551 4.13168 0
M  V30 1010 P 172.379 7.20834 5.23717 0
M  V30 1011 O 172.599 7.79853 6.57286 0
M  V30 1012 O 173.169 7.79239 4.12957 0
M  V30 1013 O 172.629 5.63315 5.29344 0
M  V30 1014 C 171.689 4.80255 6.01876 0
M  V30 1015 C 172.419 3.64202 6.65911 0
M  V30 1016 O 172.629 2.60694 5.64732 0
M  V30 1017 C 173.819 3.93473 7.1943 0
M  V30 1018 O 174.209 3.02071 8.21205 0
M  V30 1019 C 174.699 3.73047 5.97036 0
M  V30 1020 C 173.989 2.58828 5.25741 0
M  V30 1021 N 174.039 2.68068 3.77503 0
M  V30 1022 C 173.959 3.79715 2.96723 0
M  V30 1023 N 174.039 3.5377 1.68852 0
M  V30 1024 C 174.179 2.15054 1.63254 0
M  V30 1025 C 174.309 1.28964 0.518571 0
M  V30 1026 N 174.429 -0.0538097 0.918425 0
M  V30 1027 C 174.429 -0.494275 2.22578 0
M  V30 1028 N 174.559 -1.81086 2.40434 0
M  V30 1029 N 174.299 0.313645 3.27502 0
M  V30 1030 C 174.179 1.61829 2.91033 0
M  V30 1031 H 171.2 5.40332 6.79951 0
M  V30 1032 H 170.93 4.41613 5.32378 0
M  V30 1033 H 171.797 3.26331 7.47797 0
M  V30 1034 P 175.759 2.75334 8.47391 0
M  V30 1035 O 175.979 2.44619 9.90336 0
M  V30 1036 O 176.549 3.87776 7.92294 0
M  V30 1037 O 176.009 1.4459 7.59357 0
M  V30 1038 C 175.069 0.347653 7.69315 0
M  V30 1039 C 175.799 -0.96767 7.52806 0
M  V30 1040 O 176.009 -1.21055 6.10208 0
M  V30 1041 C 177.199 -1.04557 8.13408 0
M  V30 1042 O 177.589 -2.38311 8.41922 0
M  V30 1043 C 178.079 -0.491279 7.02284 0
M  V30 1044 C 177.369 -0.996264 5.77469 0
M  V30 1045 N 177.419 -0.0501916 4.62973 0
M  V30 1046 C 177.339 1.31969 4.65661 0
M  V30 1047 N 177.409 1.86649 3.48119 0
M  V30 1048 C 177.559 0.792089 2.62406 0
M  V30 1049 C 177.689 0.705684 1.2207 0
M  V30 1050 N 177.699 1.76207 0.413762 0
M  V30 1051 N 177.809 -0.518981 0.685754 0
M  V30 1052 C 177.799 -1.57595 1.49174 0
M  V30 1053 N 177.679 -1.62909 2.80066 0
M  V30 1054 C 177.559 -0.388195 3.3073 0
M  V30 1055 H 174.581 0.374765 8.67791 0
M  V30 1056 H 174.309 0.443613 6.90476 0
M  V30 1057 H 175.177 -1.75559 7.96891 0
M  V30 1058 H 177.832 -1.94563 5.46818 0
M  V30 1059 H 178.112 0.608651 7.04676 0
M  V30 1060 H 179.103 -0.889796 7.09039 0
M  V30 1061 H 177.269 -0.433128 9.04664 0
M  V30 1062 H 177.228 1.89246 5.57664 0
M  V30 1063 H 177.609 2.71005 0.804694 0
M  V30 1064 H 177.798 1.63189 -0.603768 0
M  V30 1065 H 177.906 -2.53475 0.997614 0
M  V30 1066 P 179.139 -2.75334 8.47391 0
M  V30 1067 O 179.359 -3.84128 9.44797 0
M  V30 1068 O 179.929 -1.51947 8.68712 0
M  V30 1069 O 179.389 -3.29363 6.99321 0
M  V30 1070 C 178.449 -4.24011 6.4274 0
M  V30 1071 C 179.179 -5.20775 5.52155 0
M  V30 1072 O 179.389 -4.56534 4.22446 0
M  V30 1073 C 180.579 -5.62629 5.96531 0
M  V30 1074 O 180.969 -6.87667 5.41053 0
M  V30 1075 C 181.459 -4.52537 5.39283 0
M  V30 1076 C 180.749 -4.20027 4.08623 0
M  V30 1077 N 180.799 -2.76189 3.71603 0
M  V30 1078 H 177.96 -4.797 7.24003 0
M  V30 1079 H 177.69 -3.69856 5.84513 0
M  V30 1080 H 178.557 -6.10356 5.41441 0
M  V30 1081 P 182.519 -7.20834 5.23717 0
M  V30 1082 O 182.739 -8.66104 5.38572 0
M  V30 1083 O 183.309 -6.33544 6.1349 0
M  V30 1084 O 182.769 -6.7751 3.72168 0
M  V30 1085 C 181.829 -7.20825 2.7076 0
M  V30 1086 C 182.559 -7.45864 1.40599 0
M  V30 1087 O 182.769 -6.17651 0.734225 0
M  V30 1088 C 183.959 -8.05808 1.51899 0
M  V30 1089 O 184.349 -8.74358 0.335205 0
M  V30 1090 C 184.839 -6.83093 1.70294 0
M  V30 1091 C 184.129 -5.79992 0.836974 0
M  V30 1092 N 184.179 -4.41864 1.38293 0
M  V30 1093 H 181.34 -8.13644 3.0377 0
M  V30 1094 H 181.07 -6.42788 2.55485 0
M  V30 1095 H 181.937 -8.12039 0.792769 0
M  V30 1096 P 185.899 -8.91 -8.29613e-14 0
M  V30 1097 O 186.119 -10.1726 -0.733694 0
M  V30 1098 O 186.689 -8.73148 1.23936 0
M  V30 1099 O 186.149 -7.66872 -0.971405 0
M  V30 1100 C 185.209 -7.42309 -2.04641 0
M  V30 1101 C 185.939 -6.86059 -3.24661 0
M  V30 1102 O 186.149 -5.42847 -3.03646 0
M  V30 1103 C 187.339 -7.41196 -3.50753 0
M  V30 1104 O 187.729 -7.27073 -4.86816 0
M  V30 1105 C 188.219 -6.5273 -2.63741 0
M  V30 1106 C 187.509 -5.1842 -2.73198 0
M  V30 1107 N 187.559 -4.38762 -1.4784 0
M  V30 1108 C 187.479 -4.81605 -0.168631 0
M  V30 1109 N 187.559 -3.85454 0.713363 0
M  V30 1110 C 187.699 -2.6994 -0.0566958 0
M  V30 1111 C 187.829 -1.34815 0.338502 0
M  V30 1112 N 187.949 -0.496304 -0.77465 0
M  V30 1113 C 187.949 -0.908403 -2.09122 0
M  V30 1114 N 188.079 0.0517805 -3.00955 0
M  V30 1115 N 187.819 -2.17875 -2.46519 0
M  V30 1116 C 187.699 -3.01988 -1.4033 0
M  V30 1117 H 184.72 -8.36803 -2.32493 0
M  V30 1118 H 184.45 -6.70197 -1.71129 0
M  V30 1119 H 185.317 -7.03551 -4.13168 0
M  V30 1120 P 189.279 -7.20834 -5.23717 0
M  V30 1121 O 189.499 -7.79853 -6.57286 0
M  V30 1122 O 190.069 -7.79239 -4.12957 0
M  V30 1123 O 189.529 -5.63315 -5.29344 0
M  V30 1124 C 188.589 -4.80255 -6.01876 0
M  V30 1125 C 189.319 -3.64202 -6.65911 0
M  V30 1126 O 189.529 -2.60694 -5.64732 0
M  V30 1127 C 190.719 -3.93473 -7.1943 0
M  V30 1128 O 191.109 -3.02071 -8.21205 0
M  V30 1129 C 191.599 -3.73047 -5.97036 0
M  V30 1130 C 190.889 -2.58828 -5.25741 0
M  V30 1131 N 190.939 -2.68068 -3.77503 0
M  V30 1132 H 188.1 -5.40332 -6.79951 0
M  V30 1133 H 187.83 -4.41613 -5.32378 0
M  V30 1134 H 188.697 -3.26331 -7.47797 0
M  V30 1135 P 192.659 -2.75334 -8.47391 0
M  V30 1136 O 192.879 -2.44571 -9.90142 0
M  V30 1137 O 193.449 -3.87688 -7.92115 0
M  V30 1138 O 192.909 -1.4459 -7.59357 0
M  V30 1139 C 191.969 -0.347608 -7.69215 0
M  V30 1140 C 192.699 0.96767 -7.52806 0
M  V30 1141 O 192.909 1.21036 -6.1011 0
M  V30 1142 C 194.099 1.04544 -8.13308 0
M  V30 1143 O 194.489 2.38311 -8.41922 0
M  V30 1144 C 194.979 0.491279 -7.02284 0
M  V30 1145 C 194.269 0.996264 -5.77469 0
M  V30 1146 N 194.319 0.0501916 -4.62973 0
M  V30 1147 H 191.48 -0.374722 -8.67691 0
M  V30 1148 H 191.21 -0.443485 -6.90277 0
M  V30 1149 H 192.077 1.75537 -7.96793 0
M  V30 1150 P 196.039 2.75334 -8.47391 0
M  V30 1151 O 196.259 3.84128 -9.44797 0
M  V30 1152 O 196.829 1.51947 -8.68712 0
M  V30 1153 O 196.289 3.29363 -6.99321 0
M  V30 1154 C 195.349 4.24011 -6.4274 0
M  V30 1155 C 196.079 5.20775 -5.52155 0
M  V30 1156 O 196.289 4.56534 -4.22446 0
M  V30 1157 C 197.479 5.62629 -5.96531 0
M  V30 1158 O 197.869 6.87667 -5.41053 0
M  V30 1159 C 198.359 4.52537 -5.39283 0
M  V30 1160 C 197.649 4.20027 -4.08623 0
M  V30 1161 N 197.699 2.76189 -3.71603 0
M  V30 1162 H 194.86 4.797 -7.24003 0
M  V30 1163 H 194.59 3.69856 -5.84513 0
M  V30 1164 H 195.457 6.10356 -5.41441 0
M  V30 1165 P 199.419 7.20834 -5.23717 0
M  V30 1166 O 199.639 8.66104 -5.38572 0
M  V30 1167 O 200.209 6.33544 -6.1349 0
M  V30 1168 O 199.669 6.7751 -3.72168 0
M  V30 1169 C 198.729 7.20825 -2.7076 0
M  V30 1170 C 199.459 7.45864 -1.40599 0
M  V30 1171 O 199.669 6.17651 -0.734225 0
M  V30 1172 C 200.859 8.05808 -1.51899 0
M  V30 1173 O 201.249 8.74358 -0.335205 0
M  V30 1174 C 201.739 6.83093 -1.70294 0
M  V30 1175 C 201.029 5.79992 -0.836974 0
M  V30 1176 N 201.079 4.41864 -1.38293 0
M  V30 1177 C 200.999 3.99538 -2.69438 0
M  V30 1178 N 201.079 2.69909 -2.84277 0
M  V30 1179 C 201.219 2.21719 -1.5408 0
M  V30 1180 C 201.349 0.891712 -1.06628 0
M  V30 1181 O 201.369 -0.161298 -1.70137 0
M  V30 1182 N 201.469 0.856846 0.334985 0
M  V30 1183 C 201.469 1.9641 1.15789 0
M  V30 1184 N 201.599 1.72708 2.46522 0
M  V30 1185 N 201.339 3.21165 0.713741 0
M  V30 1186 C 201.219 3.26797 -0.639748 0
M  V30 1187 H 198.24 8.13644 -3.0377 0
M  V30 1188 H 197.97 6.42788 -2.55485 0
M  V30 1189 H 198.837 8.12039 -0.792769 0
M  V30 1190 H 201.492 5.80061 0.166416 0
M  V30 1191 H 201.771 6.51287 -2.75604 0
M  V30 1192 H 202.763 7.01734 -1.34462 0
M  V30 1193 H 200.929 8.73674 -2.38337 0
M  V30 1194 H 200.88 4.68207 -3.53221 0
M  V30 1195 H 201.562 -0.0398818 0.767965 0
M  V30 1196 H 201.599 2.50995 3.13503 0
M  V30 1197 H 201.7 0.759148 2.80716 0
M  V30 1198 P 202.799 8.91 2.40144e-13 0
M  V30 1199 O 203.019 10.1726 0.733694 0
M  V30 1200 O 203.589 8.73148 -1.23936 0
M  V30 1201 O 203.049 7.66872 0.971405 0
M  V30 1202 C 202.109 7.42309 2.04641 0
M  V30 1203 C 202.839 6.86059 3.24661 0
M  V30 1204 O 203.049 5.42847 3.03646 0
M  V30 1205 C 204.239 7.41196 3.50753 0
M  V30 1206 O 204.629 7.27073 4.86816 0
M  V30 1207 C 205.119 6.5273 2.63741 0
M  V30 1208 C 204.409 5.1842 2.73198 0
M  V30 1209 N 204.459 4.38762 1.4784 0
M  V30 1210 C 204.379 4.81605 0.168631 0
M  V30 1211 N 204.459 3.85454 -0.713363 0
M  V30 1212 C 204.599 2.6994 0.0566958 0
M  V30 1213 C 204.729 1.34815 -0.338502 0
M  V30 1214 O 204.749 0.869548 -1.47125 0
M  V30 1215 N 204.849 0.496304 0.77465 0
M  V30 1216 C 204.849 0.908403 2.09122 0
M  V30 1217 N 204.979 -0.0517805 3.00955 0
M  V30 1218 N 204.719 2.17875 2.46519 0
M  V30 1219 C 204.599 3.01988 1.4033 0
M  V30 1220 H 201.62 8.36803 2.32493 0
M  V30 1221 H 201.35 6.70197 1.71129 0
M  V30 1222 H 202.217 7.03551 4.13168 0
M  V30 1223 H 204.872 4.59498 3.54415 0
M  V30 1224 H 205.151 6.88898 1.59848 0
M  V30 1225 H 206.143 6.46749 3.03687 0
M  V30 1226 H 204.309 8.46908 3.20714 0
M  V30 1227 H 204.26 5.86405 -0.105564 0
M  V30 1228 H 204.942 -0.483664 0.597855 0
M  V30 1229 H 204.979 0.187865 4.0116 0
M  V30 1230 H 205.08 -1.03585 2.71726 0
M  V30 1231 P 206.179 7.20834 5.23717 0
M  V30 1232 O 206.399 7.79853 6.57286 0
M  V30 1233 O 206.969 7.79239 4.12957 0
M  V30 1234 O 206.429 5.63315 5.29344 0
M  V30 1235 C 205.489 4.80255 6.01876 0
M  V30 1236 C 206.219 3.64202 6.65911 0
M  V30 1237 O 206.429 2.60694 5.64732 0
M  V30 1238 C 207.619 3.93473 7.1943 0
M  V30 1239 O 208.009 3.02071 8.21205 0
M  V30 1240 C 208.499 3.73047 5.97036 0
M  V30 1241 C 207.789 2.58828 5.25741 0
M  V30 1242 N 207.839 2.68068 3.77503 0
M  V30 1243 H 205 5.40332 6.79951 0
M  V30 1244 H 204.73 4.41613 5.32378 0
M  V30 1245 H 205.597 3.26331 7.47797 0
M  V30 1246 P 209.559 2.75334 8.47391 0
M  V30 1247 O 209.779 2.44571 9.90142 0
M  V30 1248 O 210.349 3.87688 7.92115 0
M  V30 1249 O 209.809 1.4459 7.59357 0
M  V30 1250 C 208.869 0.347608 7.69215 0
M  V30 1251 C 209.599 -0.96767 7.52806 0
M  V30 1252 O 209.809 -1.21036 6.1011 0
M  V30 1253 C 210.999 -1.04544 8.13308 0
M  V30 1254 O 211.389 -2.38311 8.41922 0
M  V30 1255 C 211.879 -0.491279 7.02284 0
M  V30 1256 C 211.169 -0.996264 5.77469 0
M  V30 1257 N 211.219 -0.0501916 4.62973 0
M  V30 1258 H 208.38 0.374722 8.67691 0
M  V30 1259 H 208.11 0.443485 6.90277 0
M  V30 1260 H 208.977 -1.75537 7.96793 0
M  V30 1261 P 212.939 -2.75334 8.47391 0
M  V30 1262 O 213.159 -3.84204 9.44982 0
M  V30 1263 O 213.729 -1.51982 8.68909 0
M  V30 1264 O 213.189 -3.29363 6.99321 0
M  V30 1265 C 212.249 -4.24066 6.42823 0
M  V30 1266 C 212.979 -5.20775 5.52155 0
M  V30 1267 O 213.189 -4.56607 4.22514 0
M  V30 1268 C 214.379 -5.62697 5.96604 0
M  V30 1269 O 214.769 -6.87667 5.41053 0
M  V30 1270 C 215.259 -4.52537 5.39283 0
M  V30 1271 C 214.549 -4.20027 4.08623 0
M  V30 1272 N 214.599 -2.76189 3.71603 0
M  V30 1273 H 211.761 -4.79756 7.24086 0
M  V30 1274 H 211.489 -3.69963 5.84682 0
M  V30 1275 H 212.357 -6.10431 5.41508 0
M  V30 1276 H 215.012 -4.78816 3.28024 0
M  V30 1277 H 215.292 -3.64957 6.05871 0
M  V30 1278 H 216.283 -4.88748 5.21323 0
M  V30 1279 H 214.449 -5.66789 7.0643 0
M  V30 1280 P 216.319 -7.20834 5.23717 0
M  V30 1281 O 216.539 -8.66189 5.38625 0
M  V30 1282 O 217.109 -6.33615 6.1356 0
M  V30 1283 O 216.569 -6.7751 3.72168 0
M  V30 1284 C 215.629 -7.20732 2.70725 0
M  V30 1285 C 216.359 -7.45864 1.40599 0
M  V30 1286 O 216.569 -6.17651 0.734225 0
M  V30 1287 C 217.759 -8.05808 1.51899 0
M  V30 1288 O 218.149 -8.74358 0.335205 0
M  V30 1289 C 218.639 -6.83093 1.70294 0
M  V30 1290 C 217.929 -5.79992 0.836974 0
M  V30 1291 N 217.979 -4.41769 1.38263 0
M  V30 1292 C 218.129 -3.38591 0.481702 0
M  V30 1293 O 218.219 -3.56839 -0.718452 0
M  V30 1294 N 218.169 -2.1206 1.03569 0
M  V30 1295 C 218.079 -1.80696 2.36966 0
M  V30 1296 O 218.129 -0.630473 2.74862 0
M  V30 1297 C 217.929 -2.94845 3.23898 0
M  V30 1298 C 217.819 -2.65253 4.70362 0
M  V30 1299 C 217.879 -4.19803 2.73435 0
M  V30 1300 H 215.139 -8.13644 3.0377 0
M  V30 1301 H 214.87 -6.42695 2.55448 0
M  V30 1302 H 215.737 -8.12039 0.792769 0
M  V30 1303 H 218.392 -5.79978 -0.160587 0
M  V30 1304 H 218.671 -6.51379 2.75643 0
M  V30 1305 H 219.663 -7.01734 1.34462 0
M  V30 1306 H 217.829 -8.73674 2.38337 0
M  V30 1307 H 217.758 -5.04492 3.4095 0
M  V30 1308 H 218.788 -2.83924 5.1913 0
M  V30 1309 H 217.051 -3.29824 5.15163 0
M  V30 1310 H 217.539 -1.59723 4.84449 0
M  V30 1311 H 218.275 -1.35644 0.399345 0
M  V30 1312 P 219.699 -8.91 -3.97326e-13 0
M  V30 1313 O 219.919 -10.1736 -0.733766 0
M  V30 1314 O 220.489 -8.73247 1.2395 0
M  V30 1315 O 219.949 -7.66872 -0.971405 0
M  V30 1316 C 219.009 -7.42212 -2.04614 0
M  V30 1317 C 219.739 -6.86059 -3.24661 0
M  V30 1318 O 219.949 -5.42847 -3.03646 0
M  V30 1319 C 221.139 -7.41196 -3.50753 0
M  V30 1320 O 221.529 -7.27073 -4.86816 0
M  V30 1321 C 222.019 -6.5273 -2.63741 0
M  V30 1322 C 221.309 -5.1842 -2.73198 0
M  V30 1323 N 221.359 -4.38668 -1.47808 0
M  V30 1324 C 221.509 -3.02239 -1.60048 0
M  V30 1325 O 221.599 -2.46459 -2.67869 0
M  V30 1326 N 221.549 -2.32436 -0.408571 0
M  V30 1327 C 221.459 -2.85471 0.854993 0
M  V30 1328 C 221.309 -4.28918 0.887335 0
M  V30 1329 C 221.259 -5.00349 -0.255399 0
M  V30 1330 H 218.519 -8.36803 -2.32493 0
M  V30 1331 H 218.25 -6.701 -1.71105 0
M  V30 1332 H 219.117 -7.03551 -4.13168 0
M  V30 1333 H 221.772 -4.59773 -3.53894 0
M  V30 1334 H 222.051 -6.88995 -1.59871 0
M  V30 1335 H 223.043 -6.46749 -3.03687 0
M  V30 1336 H 221.209 -8.46908 -3.20714 0
M  V30 1337 H 221.138 -6.08548 -0.206986 0
M  V30 1338 P 223.079 -7.20834 -5.23717 0
M  V30 1339 O 223.299 -7.79853 -6.57286 0
M  V30 1340 O 223.869 -7.79239 -4.12957 0
M  V30 1341 O 223.329 -5.63315 -5.29344 0
M  V30 1342 C 222.389 -4.80255 -6.01876 0
M  V30 1343 C 223.119 -3.64202 -6.65911 0
M  V30 1344 O 223.329 -2.60694 -5.64732 0
M  V30 1345 C 224.519 -3.93473 -7.1943 0
M  V30 1346 O 224.909 -3.02071 -8.21205 0
M  V30 1347 C 225.399 -3.73047 -5.97036 0
M  V30 1348 C 224.689 -2.58828 -5.25741 0
M  V30 1349 N 224.739 -2.68068 -3.77503 0
M  V30 1350 H 221.9 -5.40332 -6.79951 0
M  V30 1351 H 221.63 -4.41613 -5.32378 0
M  V30 1352 H 222.497 -3.26331 -7.47797 0
M  V30 1353 P 226.459 -2.75334 -8.47391 0
M  V30 1354 O 226.679 -2.44571 -9.90142 0
M  V30 1355 O 227.249 -3.87688 -7.92115 0
M  V30 1356 O 226.709 -1.4459 -7.59357 0
M  V30 1357 C 225.769 -0.347608 -7.69215 0
M  V30 1358 C 226.499 0.96767 -7.52806 0
M  V30 1359 O 226.709 1.21036 -6.1011 0
M  V30 1360 C 227.899 1.04544 -8.13308 0
M  V30 1361 O 228.289 2.38311 -8.41922 0
M  V30 1362 C 228.779 0.491279 -7.02284 0
M  V30 1363 C 228.069 0.996264 -5.77469 0
M  V30 1364 N 228.119 0.0501916 -4.62973 0
M  V30 1365 H 225.28 -0.374722 -8.67691 0
M  V30 1366 H 225.01 -0.443485 -6.90277 0
M  V30 1367 H 225.877 1.75537 -7.96793 0
M  V30 1368 P 229.839 2.75334 -8.47391 0
M  V30 1369 O 230.059 3.84204 -9.44982 0
M  V30 1370 O 230.629 1.51982 -8.68909 0
M  V30 1371 O 230.089 3.29363 -6.99321 0
M  V30 1372 C 229.149 4.24066 -6.42823 0
M  V30 1373 C 229.879 5.20775 -5.52155 0
M  V30 1374 O 230.089 4.56607 -4.22514 0
M  V30 1375 C 231.279 5.62697 -5.96604 0
M  V30 1376 O 231.669 6.87667 -5.41053 0
M  V30 1377 C 232.159 4.52537 -5.39283 0
M  V30 1378 C 231.449 4.20027 -4.08623 0
M  V30 1379 N 231.499 2.76189 -3.71603 0
M  V30 1380 H 228.661 4.79756 -7.24086 0
M  V30 1381 H 228.389 3.69963 -5.84682 0
M  V30 1382 H 229.257 6.10431 -5.41508 0
M  V30 1383 H 231.912 4.78816 -3.28024 0
M  V30 1384 H 232.192 3.64957 -6.05871 0
M  V30 1385 H 233.183 4.88748 -5.21323 0
M  V30 1386 H 231.349 5.66789 -7.0643 0
M  V30 1387 P 233.219 7.20834 -5.23717 0
M  V30 1388 O 233.439 8.66104 -5.38572 0
M  V30 1389 O 234.009 6.33544 -6.1349 0
M  V30 1390 O 233.469 6.7751 -3.72168 0
M  V30 1391 C 232.529 7.20825 -2.7076 0
M  V30 1392 C 233.259 7.45864 -1.40599 0
M  V30 1393 O 233.469 6.17651 -0.734225 0
M  V30 1394 C 234.659 8.05808 -1.51899 0
M  V30 1395 O 235.049 8.74358 -0.335205 0
M  V30 1396 C 235.539 6.83093 -1.70294 0
M  V30 1397 C 234.829 5.79992 -0.836974 0
M  V30 1398 N 234.879 4.41864 -1.38293 0
M  V30 1399 H 232.04 8.13644 -3.0377 0
M  V30 1400 H 231.77 6.42788 -2.55485 0
M  V30 1401 H 232.637 8.12039 -0.792769 0
M  V30 1402 P 236.599 8.91 5.54508e-13 0
M  V30 1403 O 236.819 10.1726 0.733694 0
M  V30 1404 O 237.389 8.73148 -1.23936 0
M  V30 1405 O 236.849 7.66872 0.971405 0
M  V30 1406 C 235.909 7.42309 2.04641 0
M  V30 1407 C 236.639 6.86059 3.24661 0
M  V30 1408 O 236.849 5.42847 3.03646 0
M  V30 1409 C 238.039 7.41196 3.50753 0
M  V30 1410 O 238.429 7.27073 4.86816 0
M  V30 1411 C 238.919 6.5273 2.63741 0
M  V30 1412 C 238.209 5.1842 2.73198 0
M  V30 1413 N 238.259 4.38762 1.4784 0
M  V30 1414 H 235.42 8.36803 2.32493 0
M  V30 1415 H 235.15 6.70197 1.71129 0
M  V30 1416 H 236.017 7.03551 4.13168 0
M  V30 1417 P 239.979 7.20834 5.23717 0
M  V30 1418 O 240.199 7.79853 6.57286 0
M  V30 1419 O 240.769 7.79239 4.12957 0
M  V30 1420 O 240.229 5.63315 5.29344 0
M  V30 1421 C 239.289 4.80255 6.01876 0
M  V30 1422 C 240.019 3.64202 6.65911 0
M  V30 1423 O 240.229 2.60694 5.64732 0
M  V30 1424 C 241.419 3.93473 7.1943 0
M  V30 1425 O 241.809 3.02071 8.21205 0
M  V30 1426 C 242.299 3.73047 5.97036 0
M  V30 1427 C 241.589 2.58828 5.25741 0
M  V30 1428 N 241.639 2.68068 3.77503 0
M  V30 1429 C 241.559 3.79715 2.96723 0
M  V30 1430 N 241.639 3.5377 1.68852 0
M  V30 1431 C 241.779 2.15054 1.63254 0
M  V30 1432 C 241.909 1.28964 0.518571 0
M  V30 1433 O 241.929 1.56826 -0.679156 0
M  V30 1434 N 242.029 -0.0538097 0.918425 0
M  V30 1435 C 242.029 -0.494275 2.22578 0
M  V30 1436 N 242.159 -1.81086 2.40434 0
M  V30 1437 N 241.899 0.313645 3.27502 0
M  V30 1438 C 241.779 1.61829 2.91033 0
M  V30 1439 H 238.8 5.40332 6.79951 0
M  V30 1440 H 238.53 4.41613 5.32378 0
M  V30 1441 H 239.397 3.26331 7.47797 0
M  V30 1442 H 242.052 1.63422 5.56814 0
M  V30 1443 H 242.331 4.63374 5.34244 0
M  V30 1444 H 243.323 3.44728 6.25838 0
M  V30 1445 H 241.489 4.96652 7.57263 0
M  V30 1446 H 241.44 4.80617 3.3614 0
M  V30 1447 H 242.122 -0.742702 0.199384 0
M  V30 1448 H 242.159 -2.20598 3.35588 0
M  V30 1449 H 242.26 -2.43518 1.58945 0
M  V30 1450 P 243.359 2.75334 8.47391 0
M  V30 1451 O 243.579 2.44571 9.90142 0
M  V30 1452 O 244.149 3.87688 7.92115 0
M  V30 1453 O 243.609 1.4459 7.59357 0
M  V30 1454 C 242.669 0.347608 7.69215 0
M  V30 1455 C 243.399 -0.96767 7.52806 0
M  V30 1456 O 243.609 -1.21036 6.1011 0
M  V30 1457 C 244.799 -1.04544 8.13308 0
M  V30 1458 O 245.189 -2.38311 8.41922 0
M  V30 1459 C 245.679 -0.491279 7.02284 0
M  V30 1460 C 244.969 -0.996264 5.77469 0
M  V30 1461 N 245.019 -0.0501916 4.62973 0
M  V30 1462 H 242.18 0.374722 8.67691 0
M  V30 1463 H 241.91 0.443485 6.90277 0
M  V30 1464 H 242.777 -1.75537 7.96793 0
M  V30 1465 P 246.739 -2.75334 8.47391 0
M  V30 1466 O 246.959 -3.84128 9.44797 0
M  V30 1467 O 247.529 -1.51947 8.68712 0
M  V30 1468 O 246.989 -3.29363 6.99321 0
M  V30 1469 C 246.049 -4.24011 6.4274 0
M  V30 1470 C 246.779 -5.20775 5.52155 0
M  V30 1471 O 246.989 -4.56534 4.22446 0
M  V30 1472 C 248.179 -5.62629 5.96531 0
M  V30 1473 O 248.569 -6.87667 5.41053 0
M  V30 1474 C 249.059 -4.52537 5.39283 0
M  V30 1475 C 248.349 -4.20027 4.08623 0
M  V30 1476 N 248.399 -2.76189 3.71603 0
M  V30 1477 H 245.56 -4.797 7.24003 0
M  V30 1478 H 245.29 -3.69856 5.84513 0
M  V30 1479 H 246.157 -6.10356 5.41441 0
M  V30 1480 P 250.119 -7.20834 5.23717 0
M  V30 1481 O 250.339 -8.66104 5.38572 0
M  V30 1482 O 250.909 -6.33544 6.1349 0
M  V30 1483 O 250.369 -6.7751 3.72168 0
M  V30 1484 C 249.429 -7.20825 2.7076 0
M  V30 1485 C 250.159 -7.45864 1.40599 0
M  V30 1486 O 250.369 -6.17651 0.734225 0
M  V30 1487 C 251.559 -8.05808 1.51899 0
M  V30 1488 O 251.949 -8.74358 0.335205 0
M  V30 1489 C 252.439 -6.83093 1.70294 0
M  V30 1490 C 251.729 -5.79992 0.836974 0
M  V30 1491 N 251.779 -4.41864 1.38293 0
M  V30 1492 H 248.94 -8.13644 3.0377 0
M  V30 1493 H 248.67 -6.42788 2.55485 0
M  V30 1494 H 249.537 -8.12039 0.792769 0
M  V30 1495 P 253.498 -8.91 -7.1169e-13 0
M  V30 1496 O 253.718 -10.1726 -0.733694 0
M  V30 1497 O 254.288 -8.73148 1.23936 0
M  V30 1498 O 253.748 -7.66872 -0.971405 0
M  V30 1499 C 252.808 -7.42309 -2.04641 0
M  V30 1500 C 253.538 -6.86059 -3.24661 0
M  V30 1501 O 253.748 -5.42847 -3.03646 0
M  V30 1502 C 254.938 -7.41196 -3.50753 0
M  V30 1503 O 255.328 -7.27073 -4.86816 0
M  V30 1504 C 255.818 -6.5273 -2.63741 0
M  V30 1505 C 255.108 -5.1842 -2.73198 0
M  V30 1506 N 255.158 -4.38762 -1.4784 0
M  V30 1507 C 255.078 -4.81605 -0.168631 0
M  V30 1508 N 255.158 -3.85454 0.713363 0
M  V30 1509 C 255.298 -2.6994 -0.0566958 0
M  V30 1510 C 255.428 -1.34815 0.338502 0
M  V30 1511 O 255.448 -0.869548 1.47125 0
M  V30 1512 N 255.548 -0.496304 -0.77465 0
M  V30 1513 C 255.548 -0.908403 -2.09122 0
M  V30 1514 N 255.678 0.0517805 -3.00955 0
M  V30 1515 N 255.418 -2.17875 -2.46519 0
M  V30 1516 C 255.298 -3.01988 -1.4033 0
M  V30 1517 H 252.319 -8.36803 -2.32493 0
M  V30 1518 H 252.049 -6.70197 -1.71129 0
M  V30 1519 H 252.916 -7.03551 -4.13168 0
M  V30 1520 H 255.571 -4.59498 -3.54415 0
M  V30 1521 H 255.85 -6.88898 -1.59848 0
M  V30 1522 H 256.842 -6.46749 -3.03687 0
M  V30 1523 H 255.008 -8.46908 -3.20714 0
M  V30 1524 H 254.959 -5.86405 0.105564 0
M  V30 1525 H 255.641 0.483664 -0.597855 0
M  V30 1526 H 255.678 -0.187865 -4.0116 0
M  V30 1527 H 255.779 1.03585 -2.71726 0
M  V30 1528 P 256.878 -7.20834 -5.23717 0
M  V30 1529 O 257.098 -7.79853 -6.57286 0
M  V30 1530 O 257.668 -7.79239 -4.12957 0
M  V30 1531 O 257.128 -5.63315 -5.29344 0
M  V30 1532 C 256.188 -4.80255 -6.01876 0
M  V30 1533 C 256.918 -3.64202 -6.65911 0
M  V30 1534 O 257.128 -2.60694 -5.64732 0
M  V30 1535 C 258.318 -3.93473 -7.1943 0
M  V30 1536 O 258.708 -3.02071 -8.21205 0
M  V30 1537 C 259.198 -3.73047 -5.97036 0
M  V30 1538 C 258.488 -2.58828 -5.25741 0
M  V30 1539 N 258.538 -2.68068 -3.77503 0
M  V30 1540 C 258.458 -3.79715 -2.96723 0
M  V30 1541 N 258.538 -3.5377 -1.68852 0
M  V30 1542 C 258.678 -2.15054 -1.63254 0
M  V30 1543 C 258.808 -1.28964 -0.518571 0
M  V30 1544 N 258.928 0.0538097 -0.918425 0
M  V30 1545 C 258.928 0.494275 -2.22578 0
M  V30 1546 N 259.058 1.81086 -2.40434 0
M  V30 1547 N 258.798 -0.313645 -3.27502 0
M  V30 1548 C 258.678 -1.61829 -2.91033 0
M  V30 1549 H 255.699 -5.40332 -6.79951 0
M  V30 1550 H 255.429 -4.41613 -5.32378 0
M  V30 1551 H 256.296 -3.26331 -7.47797 0
M  V30 1552 P 260.258 -2.75334 -8.47391 0
M  V30 1553 O 260.478 -2.44595 -9.90239 0
M  V30 1554 O 261.048 -3.87732 -7.92204 0
M  V30 1555 O 260.508 -1.4459 -7.59357 0
M  V30 1556 C 259.568 -0.347563 -7.69115 0
M  V30 1557 C 260.298 0.96767 -7.52806 0
M  V30 1558 O 260.508 1.21036 -6.1011 0
M  V30 1559 C 261.698 1.04544 -8.13308 0
M  V30 1560 O 262.088 2.38311 -8.41922 0
M  V30 1561 C 262.578 0.491279 -7.02284 0
M  V30 1562 C 261.868 0.996264 -5.77469 0
M  V30 1563 N 261.918 0.0501808 -4.62873 0
M  V30 1564 C 262.068 0.588177 -3.36904 0
M  V30 1565 O 262.158 1.78598 -3.17173 0
M  V30 1566 N 262.108 -0.329694 -2.33686 0
M  V30 1567 C 262.018 -1.6953 -2.45079 0
M  V30 1568 C 261.868 -2.16933 -3.80505 0
M  V30 1569 C 261.818 -1.30326 -4.83752 0
M  V30 1570 H 259.078 -0.374722 -8.67691 0
M  V30 1571 H 258.809 -0.443421 -6.90177 0
M  V30 1572 H 259.676 1.75537 -7.96793 0
M  V30 1573 H 262.331 1.94496 -5.46629 0
M  V30 1574 H 262.61 -0.608651 -7.04676 0
M  V30 1575 H 263.602 0.889672 -7.08939 0
M  V30 1576 H 261.768 0.43308 -9.04564 0
M  V30 1577 H 261.697 -1.68366 -5.8516 0
M  V30 1578 P 263.638 2.75334 -8.47391 0
M  V30 1579 O 263.858 3.84128 -9.44797 0
M  V30 1580 O 264.428 1.51947 -8.68712 0
M  V30 1581 O 263.888 3.29363 -6.99321 0
M  V30 1582 C 262.948 4.24011 -6.4274 0
M  V30 1583 C 263.678 5.20775 -5.52155 0
M  V30 1584 O 263.888 4.56534 -4.22446 0
M  V30 1585 C 265.078 5.62629 -5.96531 0
M  V30 1586 O 265.468 6.87667 -5.41053 0
M  V30 1587 C 265.958 4.52537 -5.39283 0
M  V30 1588 C 265.248 4.20027 -4.08623 0
M  V30 1589 N 265.298 2.76189 -3.71603 0
M  V30 1590 H 262.459 4.797 -7.24003 0
M  V30 1591 H 262.189 3.69856 -5.84513 0
M  V30 1592 H 263.056 6.10356 -5.41441 0
M  V30 1593 P 267.018 7.20834 -5.23717 0
M  V30 1594 O 267.238 8.66274 -5.38678 0
M  V30 1595 O 267.808 6.33687 -6.13629 0
M  V30 1596 O 267.268 6.7751 -3.72168 0
M  V30 1597 C 266.328 7.20919 -2.70795 0
M  V30 1598 C 267.058 7.45864 -1.40599 0
M  V30 1599 O 267.268 6.17751 -0.734343 0
M  V30 1600 C 268.458 8.05906 -1.51917 0
M  V30 1601 O 268.848 8.74358 -0.335205 0
M  V30 1602 C 269.338 6.83093 -1.70294 0
M  V30 1603 C 268.628 5.79992 -0.836974 0
M  V30 1604 N 268.678 4.41864 -1.38293 0
M  V30 1605 C 268.598 4.02089 -2.69407 0
M  V30 1606 N 268.668 2.73403 -2.85089 0
M  V30 1607 C 268.818 2.25086 -1.5642 0
M  V30 1608 C 268.948 0.942887 -1.04836 0
M  V30 1609 N 268.958 -0.150999 -1.80369 0
M  V30 1610 N 269.068 0.812565 0.28167 0
M  V30 1611 C 269.058 1.90572 1.03784 0
M  V30 1612 N 268.938 3.167 0.683905 0
M  V30 1613 C 268.818 3.26538 -0.652815 0
M  V30 1614 H 265.84 8.13738 -3.03804 0
M  V30 1615 H 265.568 6.42974 -2.55559 0
M  V30 1616 H 266.436 8.12139 -0.792866 0
M  V30 1617 H 269.091 5.80178 0.160643 0
M  V30 1618 H 269.371 6.51379 -2.75643 0
M  V30 1619 H 270.362 7.01832 -1.3448 0
M  V30 1620 H 268.528 8.73771 -2.38364 0
M  V30 1621 H 268.487 4.7189 -3.52311 0
M  V30 1622 H 268.868 -0.0721434 -2.82608 0
M  V30 1623 H 269.057 -1.0785 -1.36544 0
M  V30 1624 H 269.165 1.73207 2.10241 0
M  V30 1625 P 270.398 8.91 8.68872e-13 0
M  V30 1626 O 270.618 10.1726 0.733694 0
M  V30 1627 O 271.188 8.73148 -1.23936 0
M  V30 1628 O 270.648 7.66872 0.971405 0
M  V30 1629 C 269.708 7.42309 2.04641 0
M  V30 1630 C 270.438 6.86059 3.24661 0
M  V30 1631 O 270.648 5.42847 3.03646 0
M  V30 1632 C 271.838 7.41196 3.50753 0
M  V30 1633 O 272.228 7.27073 4.86816 0
M  V30 1634 C 272.718 6.5273 2.63741 0
M  V30 1635 C 272.008 5.1842 2.73198 0
M  V30 1636 N 272.058 4.38762 1.4784 0
M  V30 1637 H 269.219 8.36803 2.32493 0
M  V30 1638 H 268.949 6.70197 1.71129 0
M  V30 1639 H 269.816 7.03551 4.13168 0
M  V30 1640 P 273.778 7.20834 5.23717 0
M  V30 1641 O 273.998 7.7993 6.57351 0
M  V30 1642 O 274.568 7.79328 4.13004 0
M  V30 1643 O 274.028 5.63315 5.29344 0
M  V30 1644 C 273.088 4.80193 6.01798 0
M  V30 1645 C 273.818 3.64202 6.65911 0
M  V30 1646 O 274.028 2.60694 5.64732 0
M  V30 1647 C 275.218 3.93473 7.1943 0
M  V30 1648 O 275.608 3.02071 8.21205 0
M  V30 1649 C 276.098 3.73047 5.97036 0
M  V30 1650 C 275.388 2.58828 5.25741 0
M  V30 1651 N 275.438 2.6801 3.77422 0
M  V30 1652 C 275.588 1.50443 3.07133 0
M  V30 1653 O 275.678 0.419406 3.61576 0
M  V30 1654 N 275.628 1.6403 1.69677 0
M  V30 1655 C 275.538 2.81206 0.986255 0
M  V30 1656 O 275.588 2.80892 -0.249754 0
M  V30 1657 C 275.388 3.99158 1.80325 0
M  V30 1658 C 275.278 5.29309 1.06921 0
M  V30 1659 C 275.338 3.89779 3.1476 0
M  V30 1660 H 272.598 5.40332 6.79951 0
M  V30 1661 H 272.329 4.41549 5.32301 0
M  V30 1662 H 273.196 3.26331 7.47797 0
M  V30 1663 H 275.851 1.6395 5.56554 0
M  V30 1664 H 276.13 4.63439 5.3432 0
M  V30 1665 H 277.122 3.44728 6.25838 0
M  V30 1666 H 275.288 4.96652 7.57263 0
M  V30 1667 H 275.217 4.80159 3.74441 0
M  V30 1668 H 276.247 5.81459 1.09608 0
M  V30 1669 H 274.51 5.9187 1.54487 0
M  V30 1670 H 274.998 5.10095 0.0220288 0
M  V30 1671 H 275.734 0.798962 1.16664 0
M  V30 1672 P 277.158 2.75334 8.47391 0
M  V30 1673 O 277.378 2.44619 9.90336 0
M  V30 1674 O 277.948 3.87776 7.92294 0
M  V30 1675 O 277.408 1.4459 7.59357 0
M  V30 1676 C 276.468 0.347653 7.69315 0
M  V30 1677 C 277.198 -0.96767 7.52806 0
M  V30 1678 O 277.408 -1.21055 6.10208 0
M  V30 1679 C 278.598 -1.04557 8.13408 0
M  V30 1680 O 278.988 -2.38311 8.41922 0
M  V30 1681 C 279.478 -0.491279 7.02284 0
M  V30 1682 C 278.768 -0.996264 5.77469 0
M  V30 1683 N 278.818 -0.0501916 4.62973 0
M  V30 1684 C 278.738 1.31969 4.65661 0
M  V30 1685 N 278.808 1.86649 3.48119 0
M  V30 1686 C 278.958 0.792089 2.62406 0
M  V30 1687 C 279.088 0.705684 1.2207 0
M  V30 1688 N 279.098 1.76207 0.413762 0
M  V30 1689 N 279.208 -0.518981 0.685754 0
M  V30 1690 C 279.198 -1.57595 1.49174 0
M  V30 1691 N 279.078 -1.62909 2.80066 0
M  V30 1692 C 278.958 -0.388195 3.3073 0
M  V30 1693 H 275.98 0.374765 8.67791 0
M  V30 1694 H 275.708 0.443613 6.90476 0
M  V30 1695 H 276.576 -1.75559 7.96891 0
M  V30 1696 H 279.231 -1.94563 5.46818 0
M  V30 1697 H 279.511 0.608651 7.04676 0
M  V30 1698 H 280.502 -0.889796 7.09039 0
M  V30 1699 H 278.668 -0.433128 9.04664 0
M  V30 1700 H 278.627 1.89246 5.57664 0
M  V30 1701 H 279.008 2.71005 0.804694 0
M  V30 1702 H 279.197 1.63189 -0.603768 0
M  V30 1703 H 279.305 -2.53475 0.997614 0
M  V30 1704 P 280.538 -2.75334 8.47391 0
M  V30 1705 O 280.758 -3.84128 9.44797 0
M  V30 1706 O 281.328 -1.51947 8.68712 0
M  V30 1707 O 280.788 -3.29363 6.99321 0
M  V30 1708 C 279.848 -4.24011 6.4274 0
M  V30 1709 C 280.578 -5.20775 5.52155 0
M  V30 1710 O 280.788 -4.56534 4.22446 0
M  V30 1711 C 281.978 -5.62629 5.96531 0
M  V30 1712 O 282.368 -6.87667 5.41053 0
M  V30 1713 C 282.858 -4.52537 5.39283 0
M  V30 1714 C 282.148 -4.20027 4.08623 0
M  V30 1715 N 282.198 -2.76189 3.71603 0
M  V30 1716 C 282.118 -1.64862 4.52822 0
M  V30 1717 N 282.198 -0.512671 3.88633 0
M  V30 1718 C 282.338 -0.888083 2.54977 0
M  V30 1719 C 282.468 -0.094668 1.38677 0
M  V30 1720 N 282.588 -0.890102 0.232633 0
M  V30 1721 C 282.588 -2.26958 0.21772 0
M  V30 1722 N 282.718 -2.84626 -0.97925 0
M  V30 1723 N 282.458 -3.0178 1.31033 0
M  V30 1724 C 282.338 -2.26781 2.43843 0
M  V30 1725 H 279.359 -4.797 7.24003 0
M  V30 1726 H 279.089 -3.69856 5.84513 0
M  V30 1727 H 279.956 -6.10356 5.41441 0
M  V30 1728 P 283.918 -7.20834 5.23717 0
M  V30 1729 O 284.138 -8.66104 5.38572 0
M  V30 1730 O 284.708 -6.33544 6.1349 0
M  V30 1731 O 284.168 -6.7751 3.72168 0
M  V30 1732 C 283.228 -7.20825 2.7076 0
M  V30 1733 C 283.958 -7.45864 1.40599 0
M  V30 1734 O 284.168 -6.17651 0.734225 0
M  V30 1735 C 285.358 -8.05808 1.51899 0
M  V30 1736 O 285.748 -8.74358 0.335205 0
M  V30 1737 C 286.238 -6.83093 1.70294 0
M  V30 1738 C 285.528 -5.79992 0.836974 0
M  V30 1739 N 285.578 -4.41864 1.38293 0
M  V30 1740 C 285.498 -3.99538 2.69438 0
M  V30 1741 N 285.578 -2.69909 2.84277 0
M  V30 1742 C 285.718 -2.21719 1.5408 0
M  V30 1743 C 285.848 -0.891712 1.06628 0
M  V30 1744 O 285.868 0.161298 1.70137 0
M  V30 1745 N 285.968 -0.856846 -0.334985 0
M  V30 1746 C 285.968 -1.9641 -1.15789 0
M  V30 1747 N 286.098 -1.72708 -2.46522 0
M  V30 1748 N 285.838 -3.21165 -0.713741 0
M  V30 1749 C 285.718 -3.26797 0.639748 0
M  V30 1750 H 282.739 -8.13644 3.0377 0
M  V30 1751 H 282.469 -6.42788 2.55485 0
M  V30 1752 H 283.336 -8.12039 0.792769 0
M  V30 1753 H 285.991 -5.80061 -0.166416 0
M  V30 1754 H 286.27 -6.51287 2.75604 0
M  V30 1755 H 287.262 -7.01734 1.34462 0
M  V30 1756 H 285.428 -8.73674 2.38337 0
M  V30 1757 H 285.379 -4.68207 3.53221 0
M  V30 1758 H 286.061 0.0398818 -0.767965 0
M  V30 1759 H 286.098 -2.50995 -3.13503 0
M  V30 1760 H 286.199 -0.759148 -2.80716 0
M  V30 1761 P 287.298 -8.91 -1.02605e-12 0
M  V30 1762 O 287.518 -10.1726 -0.733694 0
M  V30 1763 O 288.088 -8.73148 1.23936 0
M  V30 1764 O 287.548 -7.66872 -0.971405 0
M  V30 1765 C 286.608 -7.42309 -2.04641 0
M  V30 1766 C 287.338 -6.86059 -3.24661 0
M  V30 1767 O 287.548 -5.42847 -3.03646 0
M  V30 1768 C 288.738 -7.41196 -3.50753 0
M  V30 1769 O 289.128 -7.27073 -4.86816 0
M  V30 1770 C 289.618 -6.5273 -2.63741 0
M  V30 1771 C 288.908 -5.1842 -2.73198 0
M  V30 1772 N 288.958 -4.38762 -1.4784 0
M  V30 1773 H 286.119 -8.36803 -2.32493 0
M  V30 1774 H 285.849 -6.70197 -1.71129 0
M  V30 1775 H 286.716 -7.03551 -4.13168 0
M  V30 1776 P 290.678 -7.20834 -5.23717 0
M  V30 1777 O 290.898 -7.79853 -6.57286 0
M  V30 1778 O 291.468 -7.79239 -4.12957 0
M  V30 1779 O 290.928 -5.63315 -5.29344 0
M  V30 1780 C 289.988 -4.80255 -6.01876 0
M  V30 1781 C 290.718 -3.64202 -6.65911 0
M  V30 1782 O 290.928 -2.60694 -5.64732 0
M  V30 1783 C 292.118 -3.93473 -7.1943 0
M  V30 1784 O 292.508 -3.02071 -8.21205 0
M  V30 1785 C 292.998 -3.73047 -5.97036 0
M  V30 1786 C 292.288 -2.58828 -5.25741 0
M  V30 1787 N 292.338 -2.68068 -3.77503 0
M  V30 1788 H 289.499 -5.40332 -6.79951 0
M  V30 1789 H 289.229 -4.41613 -5.32378 0
M  V30 1790 H 290.096 -3.26331 -7.47797 0
M  V30 1791 P 294.058 -2.75334 -8.47391 0
M  V30 1792 O 294.278 -2.44571 -9.90142 0
M  V30 1793 O 294.848 -3.87688 -7.92115 0
M  V30 1794 O 294.308 -1.4459 -7.59357 0
M  V30 1795 C 293.368 -0.347608 -7.69215 0
M  V30 1796 C 294.098 0.96767 -7.52806 0
M  V30 1797 O 294.308 1.21036 -6.1011 0
M  V30 1798 C 295.498 1.04544 -8.13308 0
M  V30 1799 O 295.888 2.38311 -8.41922 0
M  V30 1800 C 296.378 0.491279 -7.02284 0
M  V30 1801 C 295.668 0.996264 -5.77469 0
M  V30 1802 N 295.718 0.0501916 -4.62973 0
M  V30 1803 H 292.879 -0.374722 -8.67691 0
M  V30 1804 H 292.609 -0.443485 -6.90277 0
M  V30 1805 H 293.476 1.75537 -7.96793 0
M  V30 1806 P 297.438 2.75334 -8.47391 0
M  V30 1807 O 297.658 3.84128 -9.44797 0
M  V30 1808 O 298.228 1.51947 -8.68712 0
M  V30 1809 O 297.688 3.29363 -6.99321 0
M  V30 1810 C 296.748 4.24011 -6.4274 0
M  V30 1811 C 297.478 5.20775 -5.52155 0
M  V30 1812 O 297.688 4.56534 -4.22446 0
M  V30 1813 C 298.878 5.62629 -5.96531 0
M  V30 1814 O 299.268 6.87667 -5.41053 0
M  V30 1815 C 299.758 4.52537 -5.39283 0
M  V30 1816 C 299.048 4.20027 -4.08623 0
M  V30 1817 N 299.098 2.76189 -3.71603 0
M  V30 1818 H 296.259 4.797 -7.24003 0
M  V30 1819 H 295.989 3.69856 -5.84513 0
M  V30 1820 H 296.856 6.10356 -5.41441 0
M  V30 1821 P 300.818 7.20834 -5.23717 0
M  V30 1822 O 301.038 8.66189 -5.38625 0
M  V30 1823 O 301.608 6.33615 -6.1356 0
M  V30 1824 O 301.068 6.7751 -3.72168 0
M  V30 1825 C 300.128 7.20732 -2.70725 0
M  V30 1826 C 300.858 7.45864 -1.40599 0
M  V30 1827 O 301.068 6.17651 -0.734225 0
M  V30 1828 C 302.258 8.05808 -1.51899 0
M  V30 1829 O 302.648 8.74358 -0.335205 0
M  V30 1830 C 303.138 6.83093 -1.70294 0
M  V30 1831 C 302.428 5.79992 -0.836974 0
M  V30 1832 N 302.478 4.41769 -1.38263 0
M  V30 1833 C 302.628 3.38591 -0.481702 0
M  V30 1834 O 302.718 3.56839 0.718452 0
M  V30 1835 N 302.668 2.1206 -1.03569 0
M  V30 1836 C 302.578 1.80696 -2.36966 0
M  V30 1837 O 302.628 0.630473 -2.74862 0
M  V30 1838 C 302.428 2.94845 -3.23898 0
M  V30 1839 C 302.318 2.65253 -4.70362 0
M  V30 1840 C 302.378 4.19803 -2.73435 0
M  V30 1841 H 299.638 8.13644 -3.0377 0
M  V30 1842 H 299.369 6.42695 -2.55448 0
M  V30 1843 H 300.236 8.12039 -0.792769 0
M  V30 1844 H 302.891 5.79978 0.160587 0
M  V30 1845 H 303.17 6.51379 -2.75643 0
M  V30 1846 H 304.162 7.01734 -1.34462 0
M  V30 1847 H 302.328 8.73674 -2.38337 0
M  V30 1848 H 302.257 5.04492 -3.4095 0
M  V30 1849 H 303.287 2.83924 -5.1913 0
M  V30 1850 H 301.55 3.29824 -5.15163 0
M  V30 1851 H 302.038 1.59723 -4.84449 0
M  V30 1852 H 302.774 1.35644 -0.399345 0
M  V30 1853 P 304.198 8.91 1.18324e-12 0
M  V30 1854 O 304.418 10.1736 0.733766 0
M  V30 1855 O 304.988 8.73247 -1.2395 0
M  V30 1856 O 304.448 7.66872 0.971405 0
M  V30 1857 C 303.508 7.42309 2.04641 0
M  V30 1858 C 304.238 6.86059 3.24661 0
M  V30 1859 O 304.448 5.42847 3.03646 0
M  V30 1860 C 305.638 7.41196 3.50753 0
M  V30 1861 O 306.028 7.27073 4.86816 0
M  V30 1862 C 306.518 6.5273 2.63741 0
M  V30 1863 C 305.808 5.1842 2.73198 0
M  V30 1864 N 305.858 4.38668 1.47808 0
M  V30 1865 C 306.008 3.00789 1.58511 0
M  V30 1866 O 306.098 2.50116 2.71298 0
M  V30 1867 N 306.058 2.29703 0.253698 0
M  V30 1868 C 305.958 2.84269 -0.750133 0
M  V30 1869 N 306.008 2.06951 -1.82612 0
M  V30 1870 C 305.808 4.25803 -0.889776 0
M  V30 1871 C 305.758 4.98326 0.259363 0
M  V30 1872 H 303.018 8.36707 2.32466 0
M  V30 1873 H 302.749 6.701 1.71105 0
M  V30 1874 H 303.616 7.03638 4.13219 0
M  V30 1875 H 306.271 4.59852 3.53955 0
M  V30 1876 H 306.55 6.88995 1.59871 0
M  V30 1877 H 307.542 6.46749 3.03687 0
M  V30 1878 H 305.708 8.46908 3.20714 0
M  V30 1879 H 305.636 6.06349 0.206238 0
M  V30 1880 H 305.738 4.73163 -1.86796 0
M  V30 1881 H 306.126 1.05099 -1.72271 0
M  V30 1882 H 305.929 2.48716 -2.76361 0
M  V30 1883 P 307.578 7.20834 5.23717 0
M  V30 1884 O 307.798 7.79853 6.57286 0
M  V30 1885 O 308.368 7.79239 4.12957 0
M  V30 1886 O 307.828 5.63315 5.29344 0
M  V30 1887 C 306.888 4.80255 6.01876 0
M  V30 1888 C 307.618 3.64202 6.65911 0
M  V30 1889 O 307.828 2.60694 5.64732 0
M  V30 1890 C 309.018 3.93473 7.1943 0
M  V30 1891 O 309.408 3.02071 8.21205 0
M  V30 1892 C 309.898 3.73047 5.97036 0
M  V30 1893 C 309.188 2.58828 5.25741 0
M  V30 1894 N 309.238 2.68068 3.77503 0
M  V30 1895 H 306.399 5.40332 6.79951 0
M  V30 1896 H 306.129 4.41613 5.32378 0
M  V30 1897 H 306.996 3.26331 7.47797 0
M  V30 1898 P 310.958 2.75334 8.47391 0
M  V30 1899 O 311.178 2.44571 9.90142 0
M  V30 1900 O 311.748 3.87688 7.92115 0
M  V30 1901 O 311.208 1.4459 7.59357 0
M  V30 1902 C 310.268 0.347608 7.69215 0
M  V30 1903 C 310.998 -0.96767 7.52806 0
M  V30 1904 O 311.208 -1.21036 6.1011 0
M  V30 1905 C 312.398 -1.04544 8.13308 0
M  V30 1906 O 312.788 -2.38311 8.41922 0
M  V30 1907 C 313.278 -0.491279 7.02284 0
M  V30 1908 C 312.568 -0.996264 5.77469 0
M  V30 1909 N 312.618 -0.0501916 4.62973 0
M  V30 1910 H 309.779 0.374722 8.67691 0
M  V30 1911 H 309.509 0.443485 6.90277 0
M  V30 1912 H 310.376 -1.75537 7.96793 0
M  V30 1913 P 314.338 -2.75334 8.47391 0
M  V30 1914 O 314.558 -3.84204 9.44982 0
M  V30 1915 O 315.128 -1.51982 8.68909 0
M  V30 1916 O 314.588 -3.29363 6.99321 0
M  V30 1917 C 313.648 -4.24066 6.42823 0
M  V30 1918 C 314.378 -5.20775 5.52155 0
M  V30 1919 O 314.588 -4.56607 4.22514 0
M  V30 1920 C 315.778 -5.62697 5.96604 0
M  V30 1921 O 316.168 -6.87667 5.41053 0
M  V30 1922 C 316.658 -4.52537 5.39283 0
M  V30 1923 C 315.948 -4.20027 4.08623 0
M  V30 1924 N 315.998 -2.76189 3.71603 0
M  V30 1925 C 315.918 -1.66944 4.54297 0
M  V30 1926 N 315.988 -0.536169 3.91344 0
M  V30 1927 C 316.138 -0.901569 2.58849 0
M  V30 1928 C 316.268 -0.146599 1.40236 0
M  V30 1929 N 316.278 1.18234 1.37046 0
M  V30 1930 N 316.388 -0.822941 0.249738 0
M  V30 1931 C 316.378 -2.15179 0.280525 0
M  V30 1932 N 316.258 -2.96414 1.30822 0
M  V30 1933 C 316.138 -2.25804 2.44748 0
M  V30 1934 H 313.16 -4.79756 7.24086 0
M  V30 1935 H 312.888 -3.69963 5.84682 0
M  V30 1936 H 313.756 -6.10431 5.41508 0
M  V30 1937 H 316.411 -4.78816 3.28024 0
M  V30 1938 H 316.691 -3.64957 6.05871 0
M  V30 1939 H 317.682 -4.88748 5.21323 0
M  V30 1940 H 315.848 -5.66789 7.0643 0
M  V30 1941 H 315.807 -1.74684 5.62396 0
M  V30 1942 H 316.188 1.71949 2.24394 0
M  V30 1943 H 316.377 1.67511 0.470742 0
M  V30 1944 H 316.485 -2.63704 -0.6828 0
M  V30 1945 P 317.718 -7.20834 5.23717 0
M  V30 1946 O 317.938 -8.66104 5.38572 0
M  V30 1947 O 318.508 -6.33544 6.1349 0
M  V30 1948 O 317.968 -6.7751 3.72168 0
M  V30 1949 C 317.028 -7.20825 2.7076 0
M  V30 1950 C 317.758 -7.45864 1.40599 0
M  V30 1951 O 317.968 -6.17651 0.734225 0
M  V30 1952 C 319.158 -8.05808 1.51899 0
M  V30 1953 O 319.548 -8.74358 0.335205 0
M  V30 1954 C 320.038 -6.83093 1.70294 0
M  V30 1955 C 319.328 -5.79992 0.836974 0
M  V30 1956 N 319.378 -4.41864 1.38293 0
M  V30 1957 C 319.298 -3.99538 2.69438 0
M  V30 1958 N 319.378 -2.69909 2.84277 0
M  V30 1959 C 319.518 -2.21719 1.5408 0
M  V30 1960 C 319.648 -0.891712 1.06628 0
M  V30 1961 O 319.668 0.161298 1.70137 0
M  V30 1962 N 319.768 -0.856846 -0.334985 0
M  V30 1963 C 319.768 -1.9641 -1.15789 0
M  V30 1964 N 319.898 -1.72708 -2.46522 0
M  V30 1965 N 319.638 -3.21165 -0.713741 0
M  V30 1966 C 319.518 -3.26797 0.639748 0
M  V30 1967 H 316.539 -8.13644 3.0377 0
M  V30 1968 H 316.269 -6.42788 2.55485 0
M  V30 1969 H 317.136 -8.12039 0.792769 0
M  V30 1970 H 319.791 -5.80061 -0.166416 0
M  V30 1971 H 320.07 -6.51287 2.75604 0
M  V30 1972 H 321.062 -7.01734 1.34462 0
M  V30 1973 H 319.228 -8.73674 2.38337 0
M  V30 1974 H 319.179 -4.68207 3.53221 0
M  V30 1975 H 319.861 0.0398818 -0.767965 0
M  V30 1976 H 319.898 -2.50995 -3.13503 0
M  V30 1977 H 319.999 -0.759148 -2.80716 0
M  V30 1978 P 321.098 -8.91 -1.34042e-12 0
M  V30 1979 O 321.318 -10.1736 -0.733766 0
M  V30 1980 O 321.888 -8.73247 1.2395 0
M  V30 1981 O 321.348 -7.66872 -0.971405 0
M  V30 1982 C 320.408 -7.42212 -2.04614 0
M  V30 1983 C 321.138 -6.86059 -3.24661 0
M  V30 1984 O 321.348 -5.42847 -3.03646 0
M  V30 1985 C 322.538 -7.41196 -3.50753 0
M  V30 1986 O 322.928 -7.27073 -4.86816 0
M  V30 1987 C 323.418 -6.5273 -2.63741 0
M  V30 1988 C 322.708 -5.1842 -2.73198 0
M  V30 1989 N 322.758 -4.38668 -1.47808 0
M  V30 1990 C 322.908 -3.02239 -1.60048 0
M  V30 1991 O 322.998 -2.46459 -2.67869 0
M  V30 1992 N 322.948 -2.32436 -0.408571 0
M  V30 1993 C 322.858 -2.85471 0.854993 0
M  V30 1994 C 322.708 -4.28918 0.887335 0
M  V30 1995 C 322.658 -5.00349 -0.255399 0
M  V30 1996 H 319.918 -8.36803 -2.32493 0
M  V30 1997 H 319.649 -6.701 -1.71105 0
M  V30 1998 H 320.516 -7.03551 -4.13168 0
M  V30 1999 H 323.171 -4.59773 -3.53894 0
M  V30 2000 H 323.45 -6.88995 -1.59871 0
M  V30 2001 H 324.442 -6.46749 -3.03687 0
M  V30 2002 H 322.608 -8.46908 -3.20714 0
M  V30 2003 H 322.537 -6.08548 -0.206986 0
M  V30 2004 P 324.478 -7.20834 -5.23717 0
M  V30 2005 O 324.698 -7.80006 -6.57415 0
M  V30 2006 O 325.268 -7.79416 -4.13051 0
M  V30 2007 O 324.728 -5.63315 -5.29344 0
M  V30 2008 C 323.788 -4.80318 -6.01954 0
M  V30 2009 C 324.518 -3.64202 -6.65911 0
M  V30 2010 O 324.728 -2.60736 -5.64823 0
M  V30 2011 C 325.918 -3.93521 -7.19518 0
M  V30 2012 O 326.308 -3.02071 -8.21205 0
M  V30 2013 C 326.798 -3.73047 -5.97036 0
M  V30 2014 C 326.088 -2.58828 -5.25741 0
M  V30 2015 N 326.138 -2.68068 -3.77503 0
M  V30 2016 H 323.3 -5.40394 -6.8003 0
M  V30 2017 H 323.028 -4.41741 -5.32532 0
M  V30 2018 H 323.896 -3.26371 -7.47889 0
M  V30 2019 H 326.551 -1.64007 -5.56746 0
M  V30 2020 H 326.831 -4.63439 -5.3432 0
M  V30 2021 H 327.822 -3.44776 -6.25925 0
M  V30 2022 H 325.988 -4.96707 -7.57347 0
M  V30 2023 P 327.858 -2.75334 -8.47391 0
M  V30 2024 O 328.078 -2.44571 -9.90142 0
M  V30 2025 O 328.648 -3.87688 -7.92115 0
M  V30 2026 O 328.108 -1.4459 -7.59357 0
M  V30 2027 C 327.168 -0.347608 -7.69215 0
M  V30 2028 C 327.898 0.96767 -7.52806 0
M  V30 2029 O 328.108 1.21036 -6.1011 0
M  V30 2030 C 329.298 1.04544 -8.13308 0
M  V30 2031 O 329.688 2.38311 -8.41922 0
M  V30 2032 C 330.178 0.491279 -7.02284 0
M  V30 2033 C 329.468 0.996264 -5.77469 0
M  V30 2034 N 329.518 0.0501916 -4.62973 0
M  V30 2035 H 326.679 -0.374722 -8.67691 0
M  V30 2036 H 326.409 -0.443485 -6.90277 0
M  V30 2037 H 327.276 1.75537 -7.96793 0
M  V30 2038 P 331.238 2.75334 -8.47391 0
M  V30 2039 O 331.458 3.84204 -9.44982 0
M  V30 2040 O 332.028 1.51982 -8.68909 0
M  V30 2041 O 331.488 3.29363 -6.99321 0
M  V30 2042 C 330.548 4.24066 -6.42823 0
M  V30 2043 C 331.278 5.20775 -5.52155 0
M  V30 2044 O 331.488 4.56607 -4.22514 0
M  V30 2045 C 332.678 5.62697 -5.96604 0
M  V30 2046 O 333.068 6.87667 -5.41053 0
M  V30 2047 C 333.558 4.52537 -5.39283 0
M  V30 2048 C 332.848 4.20027 -4.08623 0
M  V30 2049 N 332.898 2.76189 -3.71603 0
M  V30 2050 C 332.818 1.66944 -4.54297 0
M  V30 2051 N 332.888 0.536169 -3.91344 0
M  V30 2052 C 333.038 0.901569 -2.58849 0
M  V30 2053 C 333.168 0.146599 -1.40236 0
M  V30 2054 N 333.178 -1.18234 -1.37046 0
M  V30 2055 N 333.288 0.822941 -0.249738 0
M  V30 2056 C 333.278 2.15179 -0.280525 0
M  V30 2057 N 333.158 2.96414 -1.30822 0
M  V30 2058 C 333.038 2.25804 -2.44748 0
M  V30 2059 H 330.06 4.79756 -7.24086 0
M  V30 2060 H 329.788 3.69963 -5.84682 0
M  V30 2061 H 330.656 6.10431 -5.41508 0
M  V30 2062 H 333.311 4.78816 -3.28024 0
M  V30 2063 H 333.591 3.64957 -6.05871 0
M  V30 2064 H 334.582 4.88748 -5.21323 0
M  V30 2065 H 332.748 5.66789 -7.0643 0
M  V30 2066 H 332.707 1.74684 -5.62396 0
M  V30 2067 H 333.088 -1.71949 -2.24394 0
M  V30 2068 H 333.277 -1.67511 -0.470742 0
M  V30 2069 H 333.385 2.63704 0.6828 0
M  V30 2070 P 334.618 7.20834 -5.23717 0
M  V30 2071 O 334.838 8.66104 -5.38572 0
M  V30 2072 O 335.408 6.33544 -6.1349 0
M  V30 2073 O 334.868 6.7751 -3.72168 0
M  V30 2074 C 333.928 7.20825 -2.7076 0
M  V30 2075 C 334.658 7.45864 -1.40599 0
M  V30 2076 O 334.868 6.17651 -0.734225 0
M  V30 2077 C 336.058 8.05808 -1.51899 0
M  V30 2078 O 336.448 8.74358 -0.335205 0
M  V30 2079 C 336.938 6.83093 -1.70294 0
M  V30 2080 C 336.228 5.79992 -0.836974 0
M  V30 2081 N 336.278 4.41864 -1.38293 0
M  V30 2082 H 333.439 8.13644 -3.0377 0
M  V30 2083 H 333.169 6.42788 -2.55485 0
M  V30 2084 H 334.036 8.12039 -0.792769 0
M  V30 2085 P 337.998 8.91 1.4976e-12 0
M  V30 2086 O 338.218 10.1726 0.733694 0
M  V30 2087 O 338.788 8.73148 -1.23936 0
M  V30 2088 O 338.248 7.66872 0.971405 0
M  V30 2089 C 337.308 7.42309 2.04641 0
M  V30 2090 C 338.038 6.86059 3.24661 0
M  V30 2091 O 338.248 5.42847 3.03646 0
M  V30 2092 C 339.438 7.41196 3.50753 0
M  V30 2093 O 339.828 7.27073 4.86816 0
M  V30 2094 C 340.318 6.5273 2.63741 0
M  V30 2095 C 339.608 5.1842 2.73198 0
M  V30 2096 N 339.658 4.38762 1.4784 0
M  V30 2097 H 336.819 8.36803 2.32493 0
M  V30 2098 H 336.549 6.70197 1.71129 0
M  V30 2099 H 337.416 7.03551 4.13168 0
M  V30 2100 P 341.378 7.20834 5.23717 0
M  V30 2101 O 341.598 7.79853 6.57286 0
M  V30 2102 O 342.168 7.79239 4.12957 0
M  V30 2103 O 341.628 5.63315 5.29344 0
M  V30 2104 C 340.688 4.80255 6.01876 0
M  V30 2105 C 341.418 3.64202 6.65911 0
M  V30 2106 O 341.628 2.60694 5.64732 0
M  V30 2107 C 342.818 3.93473 7.1943 0
M  V30 2108 O 343.208 3.02071 8.21205 0
M  V30 2109 C 343.698 3.73047 5.97036 0
M  V30 2110 C 342.988 2.58828 5.25741 0
M  V30 2111 N 343.038 2.68068 3.77503 0
M  V30 2112 H 340.199 5.40332 6.79951 0
M  V30 2113 H 339.929 4.41613 5.32378 0
M  V30 2114 H 340.796 3.26331 7.47797 0
M  V30 2115 P 344.758 2.75334 8.47391 0
M  V30 2116 O 344.978 2.44571 9.90142 0
M  V30 2117 O 345.548 3.87688 7.92115 0
M  V30 2118 O 345.008 1.4459 7.59357 0
M  V30 2119 C 344.068 0.347608 7.69215 0
M  V30 2120 C 344.798 -0.96767 7.52806 0
M  V30 2121 O 345.008 -1.21036 6.1011 0
M  V30 2122 C 346.198 -1.04544 8.13308 0
M  V30 2123 O 346.588 -2.38311 8.41922 0
M  V30 2124 C 347.078 -0.491279 7.02284 0
M  V30 2125 C 346.368 -0.996264 5.77469 0
M  V30 2126 N 346.418 -0.0501916 4.62973 0
M  V30 2127 C 346.338 1.32786 4.63244 0
M  V30 2128 N 346.418 1.86957 3.44545 0
M  V30 2129 C 346.558 0.780241 2.58481 0
M  V30 2130 C 346.688 0.738536 1.17757 0
M  V30 2131 O 346.708 1.66794 0.372349 0
M  V30 2132 N 346.808 -0.58337 0.711393 0
M  V30 2133 C 346.808 -1.70816 1.51017 0
M  V30 2134 N 346.938 -2.87826 0.880757 0
M  V30 2135 N 346.678 -1.67126 2.8339 0
M  V30 2136 C 346.558 -0.401421 3.30572 0
M  V30 2137 H 343.579 0.374722 8.67691 0
M  V30 2138 H 343.309 0.443485 6.90277 0
M  V30 2139 H 344.176 -1.75537 7.96793 0
M  V30 2140 H 346.831 -1.95076 5.46529 0
M  V30 2141 H 347.11 0.608565 7.04577 0
M  V30 2142 H 348.102 -0.889672 7.08939 0
M  V30 2143 H 346.268 -0.43308 9.04564 0
M  V30 2144 H 346.219 1.91249 5.54442 0
M  V30 2145 H 346.901 -0.718054 -0.275244 0
M  V30 2146 H 346.938 -3.75721 1.41832 0
M  V30 2147 H 347.039 -2.90436 -0.145468 0
M  V30 2148 P 348.138 -2.75334 8.47391 0
M  V30 2149 O 348.358 -3.84128 9.44797 0
M  V30 2150 O 348.928 -1.51947 8.68712 0
M  V30 2151 O 348.388 -3.29363 6.99321 0
M  V30 2152 C 347.448 -4.24011 6.4274 0
M  V30 2153 C 348.178 -5.20775 5.52155 0
M  V30 2154 O 348.388 -4.56534 4.22446 0
M  V30 2155 C 349.578 -5.62629 5.96531 0
M  V30 2156 O 349.968 -6.87667 5.41053 0
M  V30 2157 C 350.458 -4.52537 5.39283 0
M  V30 2158 C 349.748 -4.20027 4.08623 0
M  V30 2159 N 349.798 -2.76189 3.71603 0
M  V30 2160 H 346.959 -4.797 7.24003 0
M  V30 2161 H 346.689 -3.69856 5.84513 0
M  V30 2162 H 347.556 -6.10356 5.41441 0
M  V30 2163 P 351.518 -7.20834 5.23717 0
M  V30 2164 O 351.738 -8.66274 5.38678 0
M  V30 2165 O 352.308 -6.33687 6.13629 0
M  V30 2166 O 351.768 -6.7751 3.72168 0
M  V30 2167 C 350.828 -7.20919 2.70795 0
M  V30 2168 C 351.558 -7.45864 1.40599 0
M  V30 2169 O 351.768 -6.17751 0.734343 0
M  V30 2170 C 352.958 -8.05906 1.51917 0
M  V30 2171 O 353.348 -8.74358 0.335205 0
M  V30 2172 C 353.838 -6.83093 1.70294 0
M  V30 2173 C 353.128 -5.79992 0.836974 0
M  V30 2174 N 353.178 -4.41864 1.38293 0
M  V30 2175 H 350.34 -8.13738 3.03804 0
M  V30 2176 H 350.068 -6.42974 2.55559 0
M  V30 2177 H 350.936 -8.12139 0.792866 0
M  V30 2178 H 353.591 -5.80178 -0.160643 0
M  V30 2179 H 353.871 -6.51379 2.75643 0
M  V30 2180 H 354.862 -7.01832 1.3448 0
M  V30 2181 H 353.028 -8.73771 2.38364 0
M  V30 2182 P 354.898 -8.91 -1.65478e-12 0
M  V30 2183 O 355.118 -10.1736 -0.733766 0
M  V30 2184 O 355.688 -8.73247 1.2395 0
M  V30 2185 O 355.148 -7.66872 -0.971405 0
M  V30 2186 C 354.208 -7.42212 -2.04614 0
M  V30 2187 C 354.938 -6.86059 -3.24661 0
M  V30 2188 O 355.148 -5.42847 -3.03646 0
M  V30 2189 C 356.338 -7.41196 -3.50753 0
M  V30 2190 O 356.728 -7.27073 -4.86816 0
M  V30 2191 C 357.218 -6.5273 -2.63741 0
M  V30 2192 C 356.508 -5.1842 -2.73198 0
M  V30 2193 N 356.558 -4.38668 -1.47808 0
M  V30 2194 C 356.708 -3.02239 -1.60048 0
M  V30 2195 O 356.798 -2.46459 -2.67869 0
M  V30 2196 N 356.748 -2.32436 -0.408571 0
M  V30 2197 C 356.658 -2.85471 0.854993 0
M  V30 2198 C 356.508 -4.28918 0.887335 0
M  V30 2199 C 356.458 -5.00349 -0.255399 0
M  V30 2200 H 353.718 -8.36803 -2.32493 0
M  V30 2201 H 353.449 -6.701 -1.71105 0
M  V30 2202 H 354.316 -7.03551 -4.13168 0
M  V30 2203 H 356.971 -4.59773 -3.53894 0
M  V30 2204 H 357.25 -6.88995 -1.59871 0
M  V30 2205 H 358.242 -6.46749 -3.03687 0
M  V30 2206 H 356.408 -8.46908 -3.20714 0
M  V30 2207 H 356.337 -6.08548 -0.206986 0
M  V30 2208 P 358.278 -7.20834 -5.23717 0
M  V30 2209 O 358.498 -7.79853 -6.57286 0
M  V30 2210 O 359.068 -7.79239 -4.12957 0
M  V30 2211 O 358.528 -5.63315 -5.29344 0
M  V30 2212 C 357.588 -4.80255 -6.01876 0
M  V30 2213 C 358.318 -3.64202 -6.65911 0
M  V30 2214 O 358.528 -2.60694 -5.64732 0
M  V30 2215 C 359.718 -3.93473 -7.1943 0
M  V30 2216 O 360.108 -3.02071 -8.21205 0
M  V30 2217 C 360.598 -3.73047 -5.97036 0
M  V30 2218 C 359.888 -2.58828 -5.25741 0
M  V30 2219 N 359.938 -2.68068 -3.77503 0
M  V30 2220 H 357.099 -5.40332 -6.79951 0
M  V30 2221 H 356.829 -4.41613 -5.32378 0
M  V30 2222 H 357.696 -3.26331 -7.47797 0
M  V30 2223 P 361.658 -2.75334 -8.47391 0
M  V30 2224 O 361.878 -2.44571 -9.90142 0
M  V30 2225 O 362.448 -3.87688 -7.92115 0
M  V30 2226 O 361.908 -1.4459 -7.59357 0
M  V30 2227 C 360.968 -0.347608 -7.69215 0
M  V30 2228 C 361.698 0.96767 -7.52806 0
M  V30 2229 O 361.908 1.21036 -6.1011 0
M  V30 2230 C 363.098 1.04544 -8.13308 0
M  V30 2231 O 363.488 2.38311 -8.41922 0
M  V30 2232 C 363.978 0.491279 -7.02284 0
M  V30 2233 C 363.268 0.996264 -5.77469 0
M  V30 2234 N 363.318 0.0501916 -4.62973 0
M  V30 2235 H 360.479 -0.374722 -8.67691 0
M  V30 2236 H 360.209 -0.443485 -6.90277 0
M  V30 2237 H 361.076 1.75537 -7.96793 0
M  V30 2238 P 365.038 2.75334 -8.47391 0
M  V30 2239 O 365.258 3.84204 -9.44982 0
M  V30 2240 O 365.828 1.51982 -8.68909 0
M  V30 2241 O 365.288 3.29363 -6.99321 0
M  V30 2242 C 364.348 4.24066 -6.42823 0
M  V30 2243 C 365.078 5.20775 -5.52155 0
M  V30 2244 O 365.288 4.56607 -4.22514 0
M  V30 2245 C 366.478 5.62697 -5.96604 0
M  V30 2246 O 366.868 6.87667 -5.41053 0
M  V30 2247 C 367.358 4.52537 -5.39283 0
M  V30 2248 C 366.648 4.20027 -4.08623 0
M  V30 2249 N 366.698 2.76189 -3.71603 0
M  V30 2250 C 366.618 1.66944 -4.54297 0
M  V30 2251 N 366.688 0.536169 -3.91344 0
M  V30 2252 C 366.838 0.901569 -2.58849 0
M  V30 2253 C 366.968 0.146599 -1.40236 0
M  V30 2254 N 366.978 -1.18234 -1.37046 0
M  V30 2255 N 367.088 0.822941 -0.249738 0
M  V30 2256 C 367.078 2.15179 -0.280525 0
M  V30 2257 N 366.958 2.96414 -1.30822 0
M  V30 2258 C 366.838 2.25804 -2.44748 0
M  V30 2259 H 363.86 4.79756 -7.24086 0
M  V30 2260 H 363.588 3.69963 -5.84682 0
M  V30 2261 H 364.456 6.10431 -5.41508 0
M  V30 2262 H 367.111 4.78816 -3.28024 0
M  V30 2263 H 367.391 3.64957 -6.05871 0
M  V30 2264 H 368.382 4.88748 -5.21323 0
M  V30 2265 H 366.548 5.66789 -7.0643 0
M  V30 2266 H 366.507 1.74684 -5.62396 0
M  V30 2267 H 366.888 -1.71949 -2.24394 0
M  V30 2268 H 367.077 -1.67511 -0.470742 0
M  V30 2269 H 367.185 2.63704 0.6828 0
M  V30 2270 P 368.418 7.20834 -5.23717 0
M  V30 2271 O 368.638 8.66104 -5.38572 0
M  V30 2272 O 369.208 6.33544 -6.1349 0
M  V30 2273 O 368.668 6.7751 -3.72168 0
M  V30 2274 C 367.728 7.20825 -2.7076 0
M  V30 2275 C 368.458 7.45864 -1.40599 0
M  V30 2276 O 368.668 6.17651 -0.734225 0
M  V30 2277 C 369.858 8.05808 -1.51899 0
M  V30 2278 O 370.248 8.74358 -0.335205 0
M  V30 2279 C 370.738 6.83093 -1.70294 0
M  V30 2280 C 370.028 5.79992 -0.836974 0
M  V30 2281 N 370.078 4.41864 -1.38293 0
M  V30 2282 H 367.239 8.13644 -3.0377 0
M  V30 2283 H 366.969 6.42788 -2.55485 0
M  V30 2284 H 367.836 8.12039 -0.792769 0
M  V30 2285 P 371.798 8.91 1.81197e-12 0
M  V30 2286 O 372.018 10.1736 0.733766 0
M  V30 2287 O 372.588 8.73247 -1.2395 0
M  V30 2288 O 372.048 7.66872 0.971405 0
M  V30 2289 C 371.108 7.42212 2.04614 0
M  V30 2290 C 371.838 6.86059 3.24661 0
M  V30 2291 O 372.048 5.42847 3.03646 0
M  V30 2292 C 373.238 7.41196 3.50753 0
M  V30 2293 O 373.628 7.27073 4.86816 0
M  V30 2294 C 374.118 6.5273 2.63741 0
M  V30 2295 C 373.408 5.1842 2.73198 0
M  V30 2296 N 373.458 4.38668 1.47808 0
M  V30 2297 C 373.608 3.02239 1.60048 0
M  V30 2298 O 373.698 2.46459 2.67869 0
M  V30 2299 N 373.648 2.32436 0.408571 0
M  V30 2300 C 373.558 2.85471 -0.854993 0
M  V30 2301 C 373.408 4.28918 -0.887335 0
M  V30 2302 C 373.358 5.00349 0.255399 0
M  V30 2303 H 370.618 8.36803 2.32493 0
M  V30 2304 H 370.349 6.701 1.71105 0
M  V30 2305 H 371.216 7.03551 4.13168 0
M  V30 2306 H 373.871 4.59773 3.53894 0
M  V30 2307 H 374.15 6.88995 1.59871 0
M  V30 2308 H 375.142 6.46749 3.03687 0
M  V30 2309 H 373.308 8.46908 3.20714 0
M  V30 2310 H 373.237 6.08548 0.206986 0
M  V30 2311 P 375.178 7.20834 5.23717 0
M  V30 2312 O 375.398 7.79853 6.57286 0
M  V30 2313 O 375.968 7.79239 4.12957 0
M  V30 2314 O 375.428 5.63315 5.29344 0
M  V30 2315 C 374.488 4.80255 6.01876 0
M  V30 2316 C 375.218 3.64202 6.65911 0
M  V30 2317 O 375.428 2.60694 5.64732 0
M  V30 2318 C 376.618 3.93473 7.1943 0
M  V30 2319 O 377.008 3.02071 8.21205 0
M  V30 2320 C 377.498 3.73047 5.97036 0
M  V30 2321 C 376.788 2.58828 5.25741 0
M  V30 2322 N 376.838 2.68068 3.77503 0
M  V30 2323 C 376.758 3.79715 2.96723 0
M  V30 2324 N 376.838 3.5377 1.68852 0
M  V30 2325 C 376.978 2.15054 1.63254 0
M  V30 2326 C 377.108 1.28964 0.518571 0
M  V30 2327 N 377.228 -0.0538097 0.918425 0
M  V30 2328 C 377.228 -0.494275 2.22578 0
M  V30 2329 N 377.358 -1.81086 2.40434 0
M  V30 2330 N 377.098 0.313645 3.27502 0
M  V30 2331 C 376.978 1.61829 2.91033 0
M  V30 2332 H 373.999 5.40332 6.79951 0
M  V30 2333 H 373.729 4.41613 5.32378 0
M  V30 2334 H 374.596 3.26331 7.47797 0
M  V30 2335 P 378.558 2.75334 8.47391 0
M  V30 2336 O 378.778 2.44571 9.90142 0
M  V30 2337 O 379.348 3.87688 7.92115 0
M  V30 2338 O 378.808 1.4459 7.59357 0
M  V30 2339 C 377.868 0.347608 7.69215 0
M  V30 2340 C 378.598 -0.96767 7.52806 0
M  V30 2341 O 378.808 -1.21036 6.1011 0
M  V30 2342 C 379.998 -1.04544 8.13308 0
M  V30 2343 O 380.388 -2.38311 8.41922 0
M  V30 2344 C 380.878 -0.491279 7.02284 0
M  V30 2345 C 380.168 -0.996264 5.77469 0
M  V30 2346 N 380.218 -0.0501916 4.62973 0
M  V30 2347 H 377.379 0.374722 8.67691 0
M  V30 2348 H 377.109 0.443485 6.90277 0
M  V30 2349 H 377.976 -1.75537 7.96793 0
M  V30 2350 P 381.938 -2.75334 8.47391 0
M  V30 2351 O 382.158 -3.84128 9.44797 0
M  V30 2352 O 382.728 -1.51947 8.68712 0
M  V30 2353 O 382.188 -3.29363 6.99321 0
M  V30 2354 C 381.248 -4.24011 6.4274 0
M  V30 2355 C 381.978 -5.20775 5.52155 0
M  V30 2356 O 382.188 -4.56534 4.22446 0
M  V30 2357 C 383.378 -5.62629 5.96531 0
M  V30 2358 O 383.768 -6.87667 5.41053 0
M  V30 2359 C 384.258 -4.52537 5.39283 0
M  V30 2360 C 383.548 -4.20027 4.08623 0
M  V30 2361 N 383.598 -2.76189 3.71603 0
M  V30 2362 H 380.759 -4.797 7.24003 0
M  V30 2363 H 380.489 -3.69856 5.84513 0
M  V30 2364 H 381.356 -6.10356 5.41441 0
M  V30 2365 P 385.318 -7.20834 5.23717 0
M  V30 2366 O 385.538 -8.66104 5.38572 0
M  V30 2367 O 386.108 -6.33544 6.1349 0
M  V30 2368 O 385.568 -6.7751 3.72168 0
M  V30 2369 C 384.628 -7.20825 2.7076 0
M  V30 2370 C 385.358 -7.45864 1.40599 0
M  V30 2371 O 385.568 -6.17651 0.734225 0
M  V30 2372 C 386.758 -8.05808 1.51899 0
M  V30 2373 O 387.148 -8.74358 0.335205 0
M  V30 2374 C 387.638 -6.83093 1.70294 0
M  V30 2375 C 386.928 -5.79992 0.836974 0
M  V30 2376 N 386.978 -4.41864 1.38293 0
M  V30 2377 H 384.139 -8.13644 3.0377 0
M  V30 2378 H 383.869 -6.42788 2.55485 0
M  V30 2379 H 384.736 -8.12039 0.792769 0
M  V30 2380 P 388.698 -8.91 -1.96915e-12 0
M  V30 2381 O 388.918 -10.1726 -0.733694 0
M  V30 2382 O 389.488 -8.73148 1.23936 0
M  V30 2383 O 388.948 -7.66872 -0.971405 0
M  V30 2384 C 388.008 -7.42309 -2.04641 0
M  V30 2385 C 388.738 -6.86059 -3.24661 0
M  V30 2386 O 388.948 -5.42847 -3.03646 0
M  V30 2387 C 390.138 -7.41196 -3.50753 0
M  V30 2388 O 390.528 -7.27073 -4.86816 0
M  V30 2389 C 391.018 -6.5273 -2.63741 0
M  V30 2390 C 390.308 -5.1842 -2.73198 0
M  V30 2391 N 390.358 -4.38762 -1.4784 0
M  V30 2392 C 390.278 -4.81605 -0.168631 0
M  V30 2393 N 390.358 -3.85454 0.713363 0
M  V30 2394 C 390.498 -2.6994 -0.0566958 0
M  V30 2395 C 390.628 -1.34815 0.338502 0
M  V30 2396 O 390.648 -0.869548 1.47125 0
M  V30 2397 N 390.748 -0.496304 -0.77465 0
M  V30 2398 C 390.748 -0.908403 -2.09122 0
M  V30 2399 N 390.878 0.0517805 -3.00955 0
M  V30 2400 N 390.618 -2.17875 -2.46519 0
M  V30 2401 C 390.498 -3.01988 -1.4033 0
M  V30 2402 H 387.519 -8.36803 -2.32493 0
M  V30 2403 H 387.249 -6.70197 -1.71129 0
M  V30 2404 H 388.116 -7.03551 -4.13168 0
M  V30 2405 H 390.771 -4.59498 -3.54415 0
M  V30 2406 H 391.05 -6.88898 -1.59848 0
M  V30 2407 H 392.042 -6.46749 -3.03687 0
M  V30 2408 H 390.208 -8.46908 -3.20714 0
M  V30 2409 H 390.159 -5.86405 0.105564 0
M  V30 2410 H 390.841 0.483664 -0.597855 0
M  V30 2411 H 390.878 -0.187865 -4.0116 0
M  V30 2412 H 390.979 1.03585 -2.71726 0
M  V30 2413 P 392.078 -7.20834 -5.23717 0
M  V30 2414 O 392.298 -7.79853 -6.57286 0
M  V30 2415 O 392.868 -7.79239 -4.12957 0
M  V30 2416 O 392.328 -5.63315 -5.29344 0
M  V30 2417 C 391.388 -4.80255 -6.01876 0
M  V30 2418 C 392.118 -3.64202 -6.65911 0
M  V30 2419 O 392.328 -2.60694 -5.64732 0
M  V30 2420 C 393.518 -3.93473 -7.1943 0
M  V30 2421 O 393.908 -3.02071 -8.21205 0
M  V30 2422 C 394.398 -3.73047 -5.97036 0
M  V30 2423 C 393.688 -2.58828 -5.25741 0
M  V30 2424 N 393.738 -2.68068 -3.77503 0
M  V30 2425 H 390.899 -5.40332 -6.79951 0
M  V30 2426 H 390.629 -4.41613 -5.32378 0
M  V30 2427 H 391.496 -3.26331 -7.47797 0
M  V30 2428 P 395.458 -2.75334 -8.47391 0
M  V30 2429 O 395.678 -2.44571 -9.90142 0
M  V30 2430 O 396.248 -3.87688 -7.92115 0
M  V30 2431 O 395.708 -1.4459 -7.59357 0
M  V30 2432 C 394.768 -0.347608 -7.69215 0
M  V30 2433 C 395.498 0.96767 -7.52806 0
M  V30 2434 O 395.708 1.21036 -6.1011 0
M  V30 2435 C 396.898 1.04544 -8.13308 0
M  V30 2436 O 397.288 2.38311 -8.41922 0
M  V30 2437 C 397.778 0.491279 -7.02284 0
M  V30 2438 C 397.068 0.996264 -5.77469 0
M  V30 2439 N 397.118 0.0501916 -4.62973 0
M  V30 2440 H 394.279 -0.374722 -8.67691 0
M  V30 2441 H 394.009 -0.443485 -6.90277 0
M  V30 2442 H 394.876 1.75537 -7.96793 0
M  V30 2443 P 398.838 2.75334 -8.47391 0
M  V30 2444 O 399.058 3.84128 -9.44797 0
M  V30 2445 O 399.628 1.51947 -8.68712 0
M  V30 2446 O 399.088 3.29363 -6.99321 0
M  V30 2447 C 398.148 4.24011 -6.4274 0
M  V30 2448 C 398.878 5.20775 -5.52155 0
M  V30 2449 O 399.088 4.56534 -4.22446 0
M  V30 2450 C 400.278 5.62629 -5.96531 0
M  V30 2451 O 400.668 6.87667 -5.41053 0
M  V30 2452 C 401.158 4.52537 -5.39283 0
M  V30 2453 C 400.448 4.20027 -4.08623 0
M  V30 2454 N 400.498 2.76189 -3.71603 0
M  V30 2455 H 397.659 4.797 -7.24003 0
M  V30 2456 H 397.389 3.69856 -5.84513 0
M  V30 2457 H 398.256 6.10356 -5.41441 0
M  V30 2458 P 402.218 7.20834 -5.23717 0
M  V30 2459 O 402.438 8.66104 -5.38572 0
M  V30 2460 O 403.008 6.33544 -6.1349 0
M  V30 2461 O 402.468 6.7751 -3.72168 0
M  V30 2462 C 401.528 7.20825 -2.7076 0
M  V30 2463 C 402.258 7.45864 -1.40599 0
M  V30 2464 O 402.468 6.17651 -0.734225 0
M  V30 2465 C 403.658 8.05808 -1.51899 0
M  V30 2466 O 404.048 8.74358 -0.335205 0
M  V30 2467 C 404.538 6.83093 -1.70294 0
M  V30 2468 C 403.828 5.79992 -0.836974 0
M  V30 2469 N 403.878 4.41864 -1.38293 0
M  V30 2470 H 401.039 8.13644 -3.0377 0
M  V30 2471 H 400.769 6.42788 -2.55485 0
M  V30 2472 H 401.636 8.12039 -0.792769 0
M  V30 2473 P 405.598 8.91 2.12633e-12 0
M  V30 2474 O 405.818 10.1726 0.733694 0
M  V30 2475 O 406.388 8.73148 -1.23936 0
M  V30 2476 O 405.848 7.66872 0.971405 0
M  V30 2477 C 404.908 7.42309 2.04641 0
M  V30 2478 C 405.638 6.86059 3.24661 0
M  V30 2479 O 405.848 5.42847 3.03646 0
M  V30 2480 C 407.038 7.41196 3.50753 0
M  V30 2481 O 407.428 7.27073 4.86816 0
M  V30 2482 C 407.918 6.5273 2.63741 0
M  V30 2483 C 407.208 5.1842 2.73198 0
M  V30 2484 N 407.258 4.38762 1.4784 0
M  V30 2485 H 404.419 8.36803 2.32493 0
M  V30 2486 H 404.149 6.70197 1.71129 0
M  V30 2487 H 405.016 7.03551 4.13168 0
M  V30 2488 P 408.978 7.20834 5.23717 0
M  V30 2489 O 409.198 7.79853 6.57286 0
M  V30 2490 O 409.768 7.79239 4.12957 0
M  V30 2491 O 409.228 5.63315 5.29344 0
M  V30 2492 C 408.288 4.80255 6.01876 0
M  V30 2493 C 409.018 3.64202 6.65911 0
M  V30 2494 O 409.228 2.60694 5.64732 0
M  V30 2495 C 410.418 3.93473 7.1943 0
M  V30 2496 O 410.808 3.02071 8.21205 0
M  V30 2497 C 411.298 3.73047 5.97036 0
M  V30 2498 C 410.588 2.58828 5.25741 0
M  V30 2499 N 410.638 2.68068 3.77503 0
M  V30 2500 H 407.799 5.40332 6.79951 0
M  V30 2501 H 407.529 4.41613 5.32378 0
M  V30 2502 H 408.396 3.26331 7.47797 0
M  V30 2503 P 412.358 2.75334 8.47391 0
M  V30 2504 O 412.578 2.44571 9.90142 0
M  V30 2505 O 413.148 3.87688 7.92115 0
M  V30 2506 O 412.608 1.4459 7.59357 0
M  V30 2507 C 411.668 0.347608 7.69215 0
M  V30 2508 C 412.398 -0.96767 7.52806 0
M  V30 2509 O 412.608 -1.21036 6.1011 0
M  V30 2510 C 413.798 -1.04544 8.13308 0
M  V30 2511 O 414.188 -2.38311 8.41922 0
M  V30 2512 C 414.678 -0.491279 7.02284 0
M  V30 2513 C 413.968 -0.996264 5.77469 0
M  V30 2514 N 414.018 -0.0501916 4.62973 0
M  V30 2515 H 411.179 0.374722 8.67691 0
M  V30 2516 H 410.909 0.443485 6.90277 0
M  V30 2517 H 411.776 -1.75537 7.96793 0
M  V30 2518 P 415.738 -2.75334 8.47391 0
M  V30 2519 O 415.958 -3.84128 9.44797 0
M  V30 2520 O 416.528 -1.51947 8.68712 0
M  V30 2521 O 415.988 -3.29363 6.99321 0
M  V30 2522 C 415.048 -4.24011 6.4274 0
M  V30 2523 C 415.778 -5.20775 5.52155 0
M  V30 2524 O 415.988 -4.56534 4.22446 0
M  V30 2525 C 417.178 -5.62629 5.96531 0
M  V30 2526 O 417.568 -6.87667 5.41053 0
M  V30 2527 C 418.058 -4.52537 5.39283 0
M  V30 2528 C 417.348 -4.20027 4.08623 0
M  V30 2529 N 417.398 -2.76189 3.71603 0
M  V30 2530 C 417.318 -1.64862 4.52822 0
M  V30 2531 N 417.398 -0.512671 3.88633 0
M  V30 2532 C 417.538 -0.888083 2.54977 0
M  V30 2533 C 417.668 -0.094668 1.38677 0
M  V30 2534 N 417.788 -0.890102 0.232633 0
M  V30 2535 C 417.788 -2.26958 0.21772 0
M  V30 2536 N 417.918 -2.84626 -0.97925 0
M  V30 2537 N 417.658 -3.0178 1.31033 0
M  V30 2538 C 417.538 -2.26781 2.43843 0
M  V30 2539 H 414.559 -4.797 7.24003 0
M  V30 2540 H 414.289 -3.69856 5.84513 0
M  V30 2541 H 415.156 -6.10356 5.41441 0
M  V30 2542 P 419.118 -7.20834 5.23717 0
M  V30 2543 O 419.338 -8.66104 5.38572 0
M  V30 2544 O 419.908 -6.33544 6.1349 0
M  V30 2545 O 419.368 -6.7751 3.72168 0
M  V30 2546 C 418.428 -7.20825 2.7076 0
M  V30 2547 C 419.158 -7.45864 1.40599 0
M  V30 2548 O 419.368 -6.17651 0.734225 0
M  V30 2549 C 420.558 -8.05808 1.51899 0
M  V30 2550 O 420.948 -8.74358 0.335205 0
M  V30 2551 C 421.438 -6.83093 1.70294 0
M  V30 2552 C 420.728 -5.79992 0.836974 0
M  V30 2553 N 420.778 -4.41864 1.38293 0
M  V30 2554 H 417.939 -8.13644 3.0377 0
M  V30 2555 H 417.669 -6.42788 2.55485 0
M  V30 2556 H 418.536 -8.12039 0.792769 0
M  V30 2557 P 422.497 -8.91 -2.28351e-12 0
M  V30 2558 O 422.717 -10.1726 -0.733694 0
M  V30 2559 O 423.287 -8.73148 1.23936 0
M  V30 2560 O 422.747 -7.66872 -0.971405 0
M  V30 2561 C 421.807 -7.42309 -2.04641 0
M  V30 2562 C 422.537 -6.86059 -3.24661 0
M  V30 2563 O 422.747 -5.42847 -3.03646 0
M  V30 2564 C 423.937 -7.41196 -3.50753 0
M  V30 2565 O 424.327 -7.27073 -4.86816 0
M  V30 2566 C 424.817 -6.5273 -2.63741 0
M  V30 2567 C 424.107 -5.1842 -2.73198 0
M  V30 2568 N 424.157 -4.38762 -1.4784 0
M  V30 2569 H 421.318 -8.36803 -2.32493 0
M  V30 2570 H 421.048 -6.70197 -1.71129 0
M  V30 2571 H 421.915 -7.03551 -4.13168 0
M  V30 2572 P 425.877 -7.20834 -5.23717 0
M  V30 2573 O 426.097 -7.79853 -6.57286 0
M  V30 2574 O 426.667 -7.79239 -4.12957 0
M  V30 2575 O 426.127 -5.63315 -5.29344 0
M  V30 2576 C 425.187 -4.80255 -6.01876 0
M  V30 2577 C 425.917 -3.64202 -6.65911 0
M  V30 2578 O 426.127 -2.60694 -5.64732 0
M  V30 2579 C 427.317 -3.93473 -7.1943 0
M  V30 2580 O 427.707 -3.02071 -8.21205 0
M  V30 2581 C 428.197 -3.73047 -5.97036 0
M  V30 2582 C 427.487 -2.58828 -5.25741 0
M  V30 2583 N 427.537 -2.68068 -3.77503 0
M  V30 2584 H 424.698 -5.40332 -6.79951 0
M  V30 2585 H 424.428 -4.41613 -5.32378 0
M  V30 2586 H 425.295 -3.26331 -7.47797 0
M  V30 2587 P 429.257 -2.75334 -8.47391 0
M  V30 2588 O 429.477 -2.44571 -9.90142 0
M  V30 2589 O 430.047 -3.87688 -7.92115 0
M  V30 2590 O 429.507 -1.4459 -7.59357 0
M  V30 2591 C 428.567 -0.347608 -7.69215 0
M  V30 2592 C 429.297 0.96767 -7.52806 0
M  V30 2593 O 429.507 1.21036 -6.1011 0
M  V30 2594 C 430.697 1.04544 -8.13308 0
M  V30 2595 O 431.087 2.38311 -8.41922 0
M  V30 2596 C 431.577 0.491279 -7.02284 0
M  V30 2597 C 430.867 0.996264 -5.77469 0
M  V30 2598 N 430.917 0.0501916 -4.62973 0
M  V30 2599 H 428.078 -0.374722 -8.67691 0
M  V30 2600 H 427.808 -0.443485 -6.90277 0
M  V30 2601 H 428.675 1.75537 -7.96793 0
M  V30 2602 P 432.637 2.75334 -8.47391 0
M  V30 2603 O 432.857 3.84128 -9.44797 0
M  V30 2604 O 433.427 1.51947 -8.68712 0
M  V30 2605 O 432.887 3.29363 -6.99321 0
M  V30 2606 C 431.947 4.24011 -6.4274 0
M  V30 2607 C 432.677 5.20775 -5.52155 0
M  V30 2608 O 432.887 4.56534 -4.22446 0
M  V30 2609 C 434.077 5.62629 -5.96531 0
M  V30 2610 O 434.467 6.87667 -5.41053 0
M  V30 2611 C 434.957 4.52537 -5.39283 0
M  V30 2612 C 434.247 4.20027 -4.08623 0
M  V30 2613 N 434.297 2.76189 -3.71603 0
M  V30 2614 H 431.458 4.797 -7.24003 0
M  V30 2615 H 431.188 3.69856 -5.84513 0
M  V30 2616 H 432.055 6.10356 -5.41441 0
M  V30 2617 P 436.017 7.20834 -5.23717 0
M  V30 2618 O 436.237 8.66104 -5.38572 0
M  V30 2619 O 436.807 6.33544 -6.1349 0
M  V30 2620 O 436.267 6.7751 -3.72168 0
M  V30 2621 C 435.327 7.20825 -2.7076 0
M  V30 2622 C 436.057 7.45864 -1.40599 0
M  V30 2623 O 436.267 6.17651 -0.734225 0
M  V30 2624 C 437.457 8.05808 -1.51899 0
M  V30 2625 O 437.847 8.74358 -0.335205 0
M  V30 2626 C 438.337 6.83093 -1.70294 0
M  V30 2627 C 437.627 5.79992 -0.836974 0
M  V30 2628 N 437.677 4.41864 -1.38293 0
M  V30 2629 H 434.838 8.13644 -3.0377 0
M  V30 2630 H 434.568 6.42788 -2.55485 0
M  V30 2631 H 435.435 8.12039 -0.792769 0
M  V30 2632 P 439.397 8.91 2.44069e-12 0
M  V30 2633 O 439.617 10.1726 0.733694 0
M  V30 2634 O 440.187 8.73148 -1.23936 0
M  V30 2635 O 439.647 7.66872 0.971405 0
M  V30 2636 C 438.707 7.42309 2.04641 0
M  V30 2637 C 439.437 6.86059 3.24661 0
M  V30 2638 O 439.647 5.42847 3.03646 0
M  V30 2639 C 440.837 7.41196 3.50753 0
M  V30 2640 O 441.227 7.27073 4.86816 0
M  V30 2641 C 441.717 6.5273 2.63741 0
M  V30 2642 C 441.007 5.1842 2.73198 0
M  V30 2643 N 441.057 4.38762 1.4784 0
M  V30 2644 H 438.218 8.36803 2.32493 0
M  V30 2645 H 437.948 6.70197 1.71129 0
M  V30 2646 H 438.815 7.03551 4.13168 0
M  V30 2647 P 442.777 7.20834 5.23717 0
M  V30 2648 O 442.997 7.7993 6.57351 0
M  V30 2649 O 443.567 7.79328 4.13004 0
M  V30 2650 O 443.027 5.63315 5.29344 0
M  V30 2651 C 442.087 4.80193 6.01798 0
M  V30 2652 C 442.817 3.64202 6.65911 0
M  V30 2653 O 443.027 2.60694 5.64732 0
M  V30 2654 C 444.217 3.93473 7.1943 0
M  V30 2655 O 444.607 3.02071 8.21205 0
M  V30 2656 C 445.097 3.73047 5.97036 0
M  V30 2657 C 444.387 2.58828 5.25741 0
M  V30 2658 N 444.437 2.6801 3.77422 0
M  V30 2659 C 444.587 1.50443 3.07133 0
M  V30 2660 O 444.677 0.419406 3.61576 0
M  V30 2661 N 444.627 1.6403 1.69677 0
M  V30 2662 C 444.537 2.81206 0.986255 0
M  V30 2663 O 444.587 2.80892 -0.249754 0
M  V30 2664 C 444.387 3.99158 1.80325 0
M  V30 2665 C 444.277 5.29309 1.06921 0
M  V30 2666 C 444.337 3.89779 3.1476 0
M  V30 2667 H 441.597 5.40332 6.79951 0
M  V30 2668 H 441.328 4.41549 5.32301 0
M  V30 2669 H 442.195 3.26331 7.47797 0
M  V30 2670 H 444.85 1.6395 5.56554 0
M  V30 2671 H 445.129 4.63439 5.3432 0
M  V30 2672 H 446.121 3.44728 6.25838 0
M  V30 2673 H 444.287 4.96652 7.57263 0
M  V30 2674 H 444.216 4.80159 3.74441 0
M  V30 2675 H 445.246 5.81459 1.09608 0
M  V30 2676 H 443.509 5.9187 1.54487 0
M  V30 2677 H 443.997 5.10095 0.0220288 0
M  V30 2678 H 444.733 0.798962 1.16664 0
M  V30 2679 P 446.157 2.75334 8.47391 0
M  V30 2680 O 446.377 2.44595 9.90239 0
M  V30 2681 O 446.947 3.87732 7.92204 0
M  V30 2682 O 446.407 1.4459 7.59357 0
M  V30 2683 C 445.467 0.347563 7.69115 0
M  V30 2684 C 446.197 -0.96767 7.52806 0
M  V30 2685 O 446.407 -1.21036 6.1011 0
M  V30 2686 C 447.597 -1.04544 8.13308 0
M  V30 2687 O 447.987 -2.38311 8.41922 0
M  V30 2688 C 448.477 -0.491279 7.02284 0
M  V30 2689 C 447.767 -0.996264 5.77469 0
M  V30 2690 N 447.817 -0.0501808 4.62873 0
M  V30 2691 C 447.967 -0.588177 3.36904 0
M  V30 2692 O 448.057 -1.78598 3.17173 0
M  V30 2693 N 448.007 0.329694 2.33686 0
M  V30 2694 C 447.917 1.6953 2.45079 0
M  V30 2695 O 447.967 2.41926 1.44899 0
M  V30 2696 C 447.767 2.16933 3.80505 0
M  V30 2697 C 447.657 3.65373 3.97621 0
M  V30 2698 C 447.717 1.30326 4.83752 0
M  V30 2699 H 444.977 0.374722 8.67691 0
M  V30 2700 H 444.708 0.443421 6.90177 0
M  V30 2701 H 445.575 -1.75537 7.96793 0
M  V30 2702 H 448.23 -1.94496 5.46629 0
M  V30 2703 H 448.509 0.608651 7.04676 0
M  V30 2704 H 449.501 -0.889672 7.08939 0
M  V30 2705 H 447.667 -0.43308 9.04564 0
M  V30 2706 H 447.596 1.68366 5.8516 0
M  V30 2707 H 448.626 4.05985 4.30448 0
M  V30 2708 H 446.889 3.88028 4.72875 0
M  V30 2709 H 447.377 4.11381 3.01609 0
M  V30 2710 H 448.113 -0.0393617 1.41345 0
M  V30 2711 P 449.537 -2.75334 8.47391 0
M  V30 2712 O 449.757 -3.84128 9.44797 0
M  V30 2713 O 450.327 -1.51947 8.68712 0
M  V30 2714 O 449.787 -3.29363 6.99321 0
M  V30 2715 C 448.847 -4.24011 6.4274 0
M  V30 2716 C 449.577 -5.20775 5.52155 0
M  V30 2717 O 449.787 -4.56534 4.22446 0
M  V30 2718 C 450.977 -5.62629 5.96531 0
M  V30 2719 O 451.367 -6.87667 5.41053 0
M  V30 2720 C 451.857 -4.52537 5.39283 0
M  V30 2721 C 451.147 -4.20027 4.08623 0
M  V30 2722 N 451.197 -2.76189 3.71603 0
M  V30 2723 C 451.117 -1.64862 4.52822 0
M  V30 2724 N 451.197 -0.512671 3.88633 0
M  V30 2725 C 451.337 -0.888083 2.54977 0
M  V30 2726 C 451.467 -0.094668 1.38677 0
M  V30 2727 O 451.487 1.13053 1.28163 0
M  V30 2728 N 451.587 -0.890102 0.232633 0
M  V30 2729 C 451.587 -2.26958 0.21772 0
M  V30 2730 N 451.717 -2.84626 -0.97925 0
M  V30 2731 N 451.457 -3.0178 1.31033 0
M  V30 2732 C 451.337 -2.26781 2.43843 0
M  V30 2733 H 448.358 -4.797 7.24003 0
M  V30 2734 H 448.088 -3.69856 5.84513 0
M  V30 2735 H 448.955 -6.10356 5.41441 0
M  V30 2736 H 451.61 -4.79061 3.27488 0
M  V30 2737 H 451.889 -3.64906 6.05785 0
M  V30 2738 H 452.881 -4.8868 5.2125 0
M  V30 2739 H 451.047 -5.66726 7.06352 0
M  V30 2740 H 450.998 -1.71169 5.60966 0
M  V30 2741 H 451.68 -0.419134 -0.644739 0
M  V30 2742 H 451.717 -3.87332 -1.06098 0
M  V30 2743 H 451.818 -2.26417 -1.82483 0
M  V30 2744 P 452.917 -7.20834 5.23717 0
M  V30 2745 O 453.137 -8.66104 5.38572 0
M  V30 2746 O 453.707 -6.33544 6.1349 0
M  V30 2747 O 453.167 -6.7751 3.72168 0
M  V30 2748 C 452.227 -7.20825 2.7076 0
M  V30 2749 C 452.957 -7.45864 1.40599 0
M  V30 2750 O 453.167 -6.17651 0.734225 0
M  V30 2751 C 454.357 -8.05808 1.51899 0
M  V30 2752 O 454.747 -8.74358 0.335205 0
M  V30 2753 C 455.237 -6.83093 1.70294 0
M  V30 2754 C 454.527 -5.79992 0.836974 0
M  V30 2755 N 454.577 -4.41864 1.38293 0
M  V30 2756 H 451.738 -8.13644 3.0377 0
M  V30 2757 H 451.468 -6.42788 2.55485 0
M  V30 2758 H 452.335 -8.12039 0.792769 0
M  V30 2759 P 456.297 -8.91 -2.59788e-12 0
M  V30 2760 O 456.517 -10.1746 -0.733838 0
M  V30 2761 O 457.087 -8.73346 1.23964 0
M  V30 2762 O 456.547 -7.66872 -0.971405 0
M  V30 2763 C 455.607 -7.42405 -2.04668 0
M  V30 2764 C 456.337 -6.86059 -3.24661 0
M  V30 2765 O 456.547 -5.42934 -3.03695 0
M  V30 2766 C 457.737 -7.41287 -3.50796 0
M  V30 2767 O 458.127 -7.27073 -4.86816 0
M  V30 2768 C 458.617 -6.5273 -2.63741 0
M  V30 2769 C 457.907 -5.1842 -2.73198 0
M  V30 2770 N 457.957 -4.38762 -1.4784 0
M  V30 2771 H 455.119 -8.36899 -2.3252 0
M  V30 2772 H 454.847 -6.70391 -1.71179 0
M  V30 2773 H 455.715 -7.03638 -4.13219 0
M  V30 2774 H 458.37 -4.59931 -3.54016 0
M  V30 2775 H 458.65 -6.88995 -1.59871 0
M  V30 2776 H 459.641 -6.4684 -3.0373 0
M  V30 2777 H 457.807 -8.47002 -3.20749 0
M  V30 2778 P 459.677 -7.20834 -5.23717 0
M  V30 2779 O 459.897 -7.79853 -6.57286 0
M  V30 2780 O 460.467 -7.79239 -4.12957 0
M  V30 2781 O 459.927 -5.63315 -5.29344 0
M  V30 2782 C 458.987 -4.80255 -6.01876 0
M  V30 2783 C 459.717 -3.64202 -6.65911 0
M  V30 2784 O 459.927 -2.60694 -5.64732 0
M  V30 2785 C 461.117 -3.93473 -7.1943 0
M  V30 2786 O 461.507 -3.02071 -8.21205 0
M  V30 2787 C 461.997 -3.73047 -5.97036 0
M  V30 2788 C 461.287 -2.58828 -5.25741 0
M  V30 2789 N 461.337 -2.68068 -3.77503 0
M  V30 2790 H 458.498 -5.40332 -6.79951 0
M  V30 2791 H 458.228 -4.41613 -5.32378 0
M  V30 2792 H 459.095 -3.26331 -7.47797 0
M  V30 2793 P 463.057 -2.75334 -8.47391 0
M  V30 2794 O 463.277 -2.44571 -9.90142 0
M  V30 2795 O 463.847 -3.87688 -7.92115 0
M  V30 2796 O 463.307 -1.4459 -7.59357 0
M  V30 2797 C 462.367 -0.347608 -7.69215 0
M  V30 2798 C 463.097 0.96767 -7.52806 0
M  V30 2799 O 463.307 1.21036 -6.1011 0
M  V30 2800 C 464.497 1.04544 -8.13308 0
M  V30 2801 O 464.887 2.38311 -8.41922 0
M  V30 2802 C 465.377 0.491279 -7.02284 0
M  V30 2803 C 464.667 0.996264 -5.77469 0
M  V30 2804 N 464.717 0.0501916 -4.62973 0
M  V30 2805 H 461.878 -0.374722 -8.67691 0
M  V30 2806 H 461.608 -0.443485 -6.90277 0
M  V30 2807 H 462.475 1.75537 -7.96793 0
M  V30 2808 P 466.437 2.75334 -8.47391 0
M  V30 2809 O 466.657 3.84128 -9.44797 0
M  V30 2810 O 467.227 1.51947 -8.68712 0
M  V30 2811 O 466.687 3.29363 -6.99321 0
M  V30 2812 C 465.747 4.24011 -6.4274 0
M  V30 2813 C 466.477 5.20775 -5.52155 0
M  V30 2814 O 466.687 4.56534 -4.22446 0
M  V30 2815 C 467.877 5.62629 -5.96531 0
M  V30 2816 O 468.267 6.87667 -5.41053 0
M  V30 2817 C 468.757 4.52537 -5.39283 0
M  V30 2818 C 468.047 4.20027 -4.08623 0
M  V30 2819 N 468.097 2.76189 -3.71603 0
M  V30 2820 H 465.258 4.797 -7.24003 0
M  V30 2821 H 464.988 3.69856 -5.84513 0
M  V30 2822 H 465.855 6.10356 -5.41441 0
M  V30 2823 P 469.817 7.20834 -5.23717 0
M  V30 2824 O 470.037 8.66274 -5.38678 0
M  V30 2825 O 470.607 6.33687 -6.13629 0
M  V30 2826 O 470.067 6.7751 -3.72168 0
M  V30 2827 C 469.127 7.20919 -2.70795 0
M  V30 2828 C 469.857 7.45864 -1.40599 0
M  V30 2829 O 470.067 6.17751 -0.734343 0
M  V30 2830 C 471.257 8.05906 -1.51917 0
M  V30 2831 O 471.647 8.74358 -0.335205 0
M  V30 2832 C 472.137 6.83093 -1.70294 0
M  V30 2833 C 471.427 5.79992 -0.836974 0
M  V30 2834 N 471.477 4.41864 -1.38293 0
M  V30 2835 C 471.397 4.02089 -2.69407 0
M  V30 2836 N 471.467 2.73403 -2.85089 0
M  V30 2837 C 471.617 2.25086 -1.5642 0
M  V30 2838 C 471.747 0.942887 -1.04836 0
M  V30 2839 N 471.757 -0.150999 -1.80369 0
M  V30 2840 N 471.867 0.812565 0.28167 0
M  V30 2841 C 471.857 1.90572 1.03784 0
M  V30 2842 N 471.737 3.167 0.683905 0
M  V30 2843 C 471.617 3.26538 -0.652815 0
M  V30 2844 H 468.639 8.13738 -3.03804 0
M  V30 2845 H 468.367 6.42974 -2.55559 0
M  V30 2846 H 469.235 8.12139 -0.792866 0
M  V30 2847 H 471.89 5.80178 0.160643 0
M  V30 2848 H 472.17 6.51379 -2.75643 0
M  V30 2849 H 473.161 7.01832 -1.3448 0
M  V30 2850 H 471.327 8.73771 -2.38364 0
M  V30 2851 H 471.286 4.7189 -3.52311 0
M  V30 2852 H 471.667 -0.0721434 -2.82608 0
M  V30 2853 H 471.856 -1.0785 -1.36544 0
M  V30 2854 H 471.964 1.73207 2.10241 0
M  V30 2855 P 473.197 8.91 2.75506e-12 0
M  V30 2856 O 473.417 10.1726 0.733694 0
M  V30 2857 O 473.987 8.73148 -1.23936 0
M  V30 2858 O 473.447 7.66872 0.971405 0
M  V30 2859 C 472.507 7.42309 2.04641 0
M  V30 2860 C 473.237 6.86059 3.24661 0
M  V30 2861 O 473.447 5.42847 3.03646 0
M  V30 2862 C 474.637 7.41196 3.50753 0
M  V30 2863 O 475.027 7.27073 4.86816 0
M  V30 2864 C 475.517 6.5273 2.63741 0
M  V30 2865 C 474.807 5.1842 2.73198 0
M  V30 2866 N 474.857 4.38762 1.4784 0
M  V30 2867 H 472.018 8.36803 2.32493 0
M  V30 2868 H 471.748 6.70197 1.71129 0
M  V30 2869 H 472.615 7.03551 4.13168 0
M  V30 2870 P 476.577 7.20834 5.23717 0
M  V30 2871 O 476.797 7.79853 6.57286 0
M  V30 2872 O 477.367 7.79239 4.12957 0
M  V30 2873 O 476.827 5.63315 5.29344 0
M  V30 2874 C 475.887 4.80255 6.01876 0
M  V30 2875 C 476.617 3.64202 6.65911 0
M  V30 2876 O 476.827 2.60694 5.64732 0
M  V30 2877 C 478.017 3.93473 7.1943 0
M  V30 2878 O 478.407 3.02071 8.21205 0
M  V30 2879 C 478.897 3.73047 5.97036 0
M  V30 2880 C 478.187 2.58828 5.25741 0
M  V30 2881 N 478.237 2.68068 3.77503 0
M  V30 2882 H 475.398 5.40332 6.79951 0
M  V30 2883 H 475.128 4.41613 5.32378 0
M  V30 2884 H 475.995 3.26331 7.47797 0
M  V30 2885 P 479.957 2.75334 8.47391 0
M  V30 2886 O 480.177 2.44571 9.90142 0
M  V30 2887 O 480.747 3.87688 7.92115 0
M  V30 2888 O 480.207 1.4459 7.59357 0
M  V30 2889 C 479.267 0.347608 7.69215 0
M  V30 2890 C 479.997 -0.96767 7.52806 0
M  V30 2891 O 480.207 -1.21036 6.1011 0
M  V30 2892 C 481.397 -1.04544 8.13308 0
M  V30 2893 O 481.787 -2.38311 8.41922 0
M  V30 2894 C 482.277 -0.491279 7.02284 0
M  V30 2895 C 481.567 -0.996264 5.77469 0
M  V30 2896 N 481.617 -0.0501916 4.62973 0
M  V30 2897 C 481.537 1.32786 4.63244 0
M  V30 2898 N 481.617 1.86957 3.44545 0
M  V30 2899 C 481.757 0.780241 2.58481 0
M  V30 2900 C 481.887 0.738536 1.17757 0
M  V30 2901 O 481.907 1.66794 0.372349 0
M  V30 2902 N 482.007 -0.58337 0.711393 0
M  V30 2903 C 482.007 -1.70816 1.51017 0
M  V30 2904 N 482.137 -2.87826 0.880757 0
M  V30 2905 N 481.877 -1.67126 2.8339 0
M  V30 2906 C 481.757 -0.401421 3.30572 0
M  V30 2907 H 478.778 0.374722 8.67691 0
M  V30 2908 H 478.508 0.443485 6.90277 0
M  V30 2909 H 479.375 -1.75537 7.96793 0
M  V30 2910 H 482.03 -1.95076 5.46529 0
M  V30 2911 H 482.309 0.608565 7.04577 0
M  V30 2912 H 483.301 -0.889672 7.08939 0
M  V30 2913 H 481.467 -0.43308 9.04564 0
M  V30 2914 H 481.418 1.91249 5.54442 0
M  V30 2915 H 482.1 -0.718054 -0.275244 0
M  V30 2916 H 482.137 -3.75721 1.41832 0
M  V30 2917 H 482.238 -2.90436 -0.145468 0
M  V30 2918 P 483.337 -2.75334 8.47391 0
M  V30 2919 O 483.557 -3.84128 9.44797 0
M  V30 2920 O 484.127 -1.51947 8.68712 0
M  V30 2921 O 483.587 -3.29363 6.99321 0
M  V30 2922 C 482.647 -4.24011 6.4274 0
M  V30 2923 C 483.377 -5.20775 5.52155 0
M  V30 2924 O 483.587 -4.56534 4.22446 0
M  V30 2925 C 484.777 -5.62629 5.96531 0
M  V30 2926 O 485.167 -6.87667 5.41053 0
M  V30 2927 C 485.657 -4.52537 5.39283 0
M  V30 2928 C 484.947 -4.20027 4.08623 0
M  V30 2929 N 484.997 -2.76189 3.71603 0
M  V30 2930 H 482.158 -4.797 7.24003 0
M  V30 2931 H 481.888 -3.69856 5.84513 0
M  V30 2932 H 482.755 -6.10356 5.41441 0
M  V30 2933 P 486.717 -7.20834 5.23717 0
M  V30 2934 O 486.937 -8.66274 5.38678 0
M  V30 2935 O 487.507 -6.33687 6.13629 0
M  V30 2936 O 486.967 -6.7751 3.72168 0
M  V30 2937 C 486.027 -7.20919 2.70795 0
M  V30 2938 C 486.757 -7.45864 1.40599 0
M  V30 2939 O 486.967 -6.17751 0.734343 0
M  V30 2940 C 488.157 -8.05906 1.51917 0
M  V30 2941 O 488.547 -8.74358 0.335205 0
M  V30 2942 C 489.037 -6.83093 1.70294 0
M  V30 2943 C 488.327 -5.79992 0.836974 0
M  V30 2944 N 488.377 -4.41864 1.38293 0
M  V30 2945 H 485.539 -8.13738 3.03804 0
M  V30 2946 H 485.267 -6.42974 2.55559 0
M  V30 2947 H 486.135 -8.12139 0.792866 0
M  V30 2948 H 488.79 -5.80178 -0.160643 0
M  V30 2949 H 489.07 -6.51379 2.75643 0
M  V30 2950 H 490.061 -7.01832 1.3448 0
M  V30 2951 H 488.227 -8.73771 2.38364 0
M  V30 2952 P 490.097 -8.91 -2.91224e-12 0
M  V30 2953 O 490.317 -10.1726 -0.733694 0
M  V30 2954 O 490.887 -8.73148 1.23936 0
M  V30 2955 O 490.347 -7.66872 -0.971405 0
M  V30 2956 C 489.407 -7.42309 -2.04641 0
M  V30 2957 C 490.137 -6.86059 -3.24661 0
M  V30 2958 O 490.347 -5.42847 -3.03646 0
M  V30 2959 C 491.537 -7.41196 -3.50753 0
M  V30 2960 O 491.927 -7.27073 -4.86816 0
M  V30 2961 C 492.417 -6.5273 -2.63741 0
M  V30 2962 C 491.707 -5.1842 -2.73198 0
M  V30 2963 N 491.757 -4.38762 -1.4784 0
M  V30 2964 H 488.918 -8.36803 -2.32493 0
M  V30 2965 H 488.648 -6.70197 -1.71129 0
M  V30 2966 H 489.515 -7.03551 -4.13168 0
M  V30 2967 P 493.477 -7.20834 -5.23717 0
M  V30 2968 O 493.697 -7.80006 -6.57415 0
M  V30 2969 O 494.267 -7.79416 -4.13051 0
M  V30 2970 O 493.727 -5.63315 -5.29344 0
M  V30 2971 C 492.787 -4.80318 -6.01954 0
M  V30 2972 C 493.517 -3.64202 -6.65911 0
M  V30 2973 O 493.727 -2.60736 -5.64823 0
M  V30 2974 C 494.917 -3.93521 -7.19518 0
M  V30 2975 O 495.307 -3.02071 -8.21205 0
M  V30 2976 C 495.797 -3.73047 -5.97036 0
M  V30 2977 C 495.087 -2.58828 -5.25741 0
M  V30 2978 N 495.137 -2.68068 -3.77503 0
M  V30 2979 H 492.299 -5.40394 -6.8003 0
M  V30 2980 H 492.027 -4.41741 -5.32532 0
M  V30 2981 H 492.895 -3.26371 -7.47889 0
M  V30 2982 H 495.55 -1.64007 -5.56746 0
M  V30 2983 H 495.83 -4.63439 -5.3432 0
M  V30 2984 H 496.821 -3.44776 -6.25925 0
M  V30 2985 H 494.987 -4.96707 -7.57347 0
M  V30 2986 P 496.857 -2.75334 -8.47391 0
M  V30 2987 O 497.077 -2.44571 -9.90142 0
M  V30 2988 O 497.647 -3.87688 -7.92115 0
M  V30 2989 O 497.107 -1.4459 -7.59357 0
M  V30 2990 C 496.167 -0.347608 -7.69215 0
M  V30 2991 C 496.897 0.96767 -7.52806 0
M  V30 2992 O 497.107 1.21036 -6.1011 0
M  V30 2993 C 498.297 1.04544 -8.13308 0
M  V30 2994 O 498.687 2.38311 -8.41922 0
M  V30 2995 C 499.177 0.491279 -7.02284 0
M  V30 2996 C 498.467 0.996264 -5.77469 0
M  V30 2997 N 498.517 0.0501916 -4.62973 0
M  V30 2998 H 495.678 -0.374722 -8.67691 0
M  V30 2999 H 495.408 -0.443485 -6.90277 0
M  V30 3000 H 496.275 1.75537 -7.96793 0
M  V30 3001 P 500.237 2.75334 -8.47391 0
M  V30 3002 O 500.457 3.84128 -9.44797 0
M  V30 3003 O 501.027 1.51947 -8.68712 0
M  V30 3004 O 500.487 3.29363 -6.99321 0
M  V30 3005 C 499.547 4.24011 -6.4274 0
M  V30 3006 C 500.277 5.20775 -5.52155 0
M  V30 3007 O 500.487 4.56534 -4.22446 0
M  V30 3008 C 501.677 5.62629 -5.96531 0
M  V30 3009 O 502.067 6.87667 -5.41053 0
M  V30 3010 C 502.557 4.52537 -5.39283 0
M  V30 3011 C 501.847 4.20027 -4.08623 0
M  V30 3012 N 501.897 2.76189 -3.71603 0
M  V30 3013 C 501.817 1.64862 -4.52822 0
M  V30 3014 N 501.897 0.512671 -3.88633 0
M  V30 3015 C 502.037 0.888083 -2.54977 0
M  V30 3016 C 502.167 0.094668 -1.38677 0
M  V30 3017 O 502.187 -1.13053 -1.28163 0
M  V30 3018 N 502.287 0.890102 -0.232633 0
M  V30 3019 C 502.287 2.26958 -0.21772 0
M  V30 3020 N 502.417 2.84626 0.97925 0
M  V30 3021 N 502.157 3.0178 -1.31033 0
M  V30 3022 C 502.037 2.26781 -2.43843 0
M  V30 3023 H 499.058 4.797 -7.24003 0
M  V30 3024 H 498.788 3.69856 -5.84513 0
M  V30 3025 H 499.655 6.10356 -5.41441 0
M  V30 3026 H 502.31 4.79061 -3.27488 0
M  V30 3027 H 502.589 3.64906 -6.05785 0
M  V30 3028 H 503.581 4.8868 -5.2125 0
M  V30 3029 H 501.747 5.66726 -7.06352 0
M  V30 3030 H 501.698 1.71169 -5.60966 0
M  V30 3031 H 502.38 0.419134 0.644739 0
M  V30 3032 H 502.417 3.87332 1.06098 0
M  V30 3033 H 502.518 2.26417 1.82483 0
M  V30 3034 P 503.617 7.20834 -5.23717 0
M  V30 3035 O 503.837 8.66104 -5.38572 0
M  V30 3036 O 504.407 6.33544 -6.1349 0
M  V30 3037 O 503.867 6.7751 -3.72168 0
M  V30 3038 C 502.927 7.20825 -2.7076 0
M  V30 3039 C 503.657 7.45864 -1.40599 0
M  V30 3040 O 503.867 6.17651 -0.734225 0
M  V30 3041 C 505.057 8.05808 -1.51899 0
M  V30 3042 O 505.447 8.74358 -0.335205 0
M  V30 3043 C 505.937 6.83093 -1.70294 0
M  V30 3044 C 505.227 5.79992 -0.836974 0
M  V30 3045 N 505.277 4.41864 -1.38293 0
M  V30 3046 C 505.197 3.99538 -2.69438 0
M  V30 3047 N 505.277 2.69909 -2.84277 0
M  V30 3048 C 505.417 2.21719 -1.5408 0
M  V30 3049 C 505.547 0.891712 -1.06628 0
M  V30 3050 O 505.567 -0.161298 -1.70137 0
M  V30 3051 N 505.667 0.856846 0.334985 0
M  V30 3052 C 505.667 1.9641 1.15789 0
M  V30 3053 N 505.797 1.72708 2.46522 0
M  V30 3054 N 505.537 3.21165 0.713741 0
M  V30 3055 C 505.417 3.26797 -0.639748 0
M  V30 3056 H 502.438 8.13644 -3.0377 0
M  V30 3057 H 502.168 6.42788 -2.55485 0
M  V30 3058 H 503.035 8.12039 -0.792769 0
M  V30 3059 H 505.69 5.80061 0.166416 0
M  V30 3060 H 505.969 6.51287 -2.75604 0
M  V30 3061 H 506.961 7.01734 -1.34462 0
M  V30 3062 H 505.127 8.73674 -2.38337 0
M  V30 3063 H 505.078 4.68207 -3.53221 0
M  V30 3064 H 505.76 -0.0398818 0.767965 0
M  V30 3065 H 505.797 2.50995 3.13503 0
M  V30 3066 H 505.898 0.759148 2.80716 0
M  V30 3067 P 506.997 8.91 3.06942e-12 0
M  V30 3068 O 507.217 10.1726 0.733694 0
M  V30 3069 O 507.787 8.73148 -1.23936 0
M  V30 3070 O 507.247 7.66872 0.971405 0
M  V30 3071 C 506.307 7.42309 2.04641 0
M  V30 3072 C 507.037 6.86059 3.24661 0
M  V30 3073 O 507.247 5.42847 3.03646 0
M  V30 3074 C 508.437 7.41196 3.50753 0
M  V30 3075 O 508.827 7.27073 4.86816 0
M  V30 3076 C 509.317 6.5273 2.63741 0
M  V30 3077 C 508.607 5.1842 2.73198 0
M  V30 3078 N 508.657 4.38762 1.4784 0
M  V30 3079 H 505.818 8.36803 2.32493 0
M  V30 3080 H 505.548 6.70197 1.71129 0
M  V30 3081 H 506.415 7.03551 4.13168 0
M  V30 3082 P 510.377 7.20834 5.23717 0
M  V30 3083 O 510.597 7.79853 6.57286 0
M  V30 3084 O 511.167 7.79239 4.12957 0
M  V30 3085 O 510.627 5.63315 5.29344 0
M  V30 3086 C 509.687 4.80255 6.01876 0
M  V30 3087 C 510.417 3.64202 6.65911 0
M  V30 3088 O 510.627 2.60694 5.64732 0
M  V30 3089 C 511.817 3.93473 7.1943 0
M  V30 3090 O 512.207 3.02071 8.21205 0
M  V30 3091 C 512.697 3.73047 5.97036 0
M  V30 3092 C 511.987 2.58828 5.25741 0
M  V30 3093 N 512.037 2.68068 3.77503 0
M  V30 3094 H 509.198 5.40332 6.79951 0
M  V30 3095 H 508.928 4.41613 5.32378 0
M  V30 3096 H 509.795 3.26331 7.47797 0
M  V30 3097 P 513.757 2.75334 8.47391 0
M  V30 3098 O 513.977 2.44571 9.90142 0
M  V30 3099 O 514.547 3.87688 7.92115 0
M  V30 3100 O 514.007 1.4459 7.59357 0
M  V30 3101 C 513.067 0.347608 7.69215 0
M  V30 3102 C 513.797 -0.96767 7.52806 0
M  V30 3103 O 514.007 -1.21036 6.1011 0
M  V30 3104 C 515.197 -1.04544 8.13308 0
M  V30 3105 O 515.587 -2.38311 8.41922 0
M  V30 3106 C 516.077 -0.491279 7.02284 0
M  V30 3107 C 515.367 -0.996264 5.77469 0
M  V30 3108 N 515.417 -0.0501916 4.62973 0
M  V30 3109 H 512.578 0.374722 8.67691 0
M  V30 3110 H 512.308 0.443485 6.90277 0
M  V30 3111 H 513.175 -1.75537 7.96793 0
M  V30 3112 P 517.137 -2.75334 8.47391 0
M  V30 3113 O 517.357 -3.84128 9.44797 0
M  V30 3114 O 517.927 -1.51947 8.68712 0
M  V30 3115 O 517.387 -3.29363 6.99321 0
M  V30 3116 C 516.447 -4.24011 6.4274 0
M  V30 3117 C 517.177 -5.20775 5.52155 0
M  V30 3118 O 517.387 -4.56534 4.22446 0
M  V30 3119 C 518.577 -5.62629 5.96531 0
M  V30 3120 O 518.967 -6.87667 5.41053 0
M  V30 3121 C 519.457 -4.52537 5.39283 0
M  V30 3122 C 518.747 -4.20027 4.08623 0
M  V30 3123 N 518.797 -2.76189 3.71603 0
M  V30 3124 H 515.958 -4.797 7.24003 0
M  V30 3125 H 515.688 -3.69856 5.84513 0
M  V30 3126 H 516.555 -6.10356 5.41441 0
M  V30 3127 P 520.517 -7.20834 5.23717 0
M  V30 3128 O 520.737 -8.66104 5.38572 0
M  V30 3129 O 521.307 -6.33544 6.1349 0
M  V30 3130 O 520.767 -6.7751 3.72168 0
M  V30 3131 C 519.827 -7.20825 2.7076 0
M  V30 3132 C 520.557 -7.45864 1.40599 0
M  V30 3133 O 520.767 -6.17651 0.734225 0
M  V30 3134 C 521.957 -8.05808 1.51899 0
M  V30 3135 O 522.347 -8.74358 0.335205 0
M  V30 3136 C 522.837 -6.83093 1.70294 0
M  V30 3137 C 522.127 -5.79992 0.836974 0
M  V30 3138 N 522.177 -4.41864 1.38293 0
M  V30 3139 H 519.338 -8.13644 3.0377 0
M  V30 3140 H 519.068 -6.42788 2.55485 0
M  V30 3141 H 519.935 -8.12039 0.792769 0
M  V30 3142 P 523.897 -8.91 -3.22661e-12 0
M  V30 3143 O 524.117 -10.1736 -0.733766 0
M  V30 3144 O 524.687 -8.73247 1.2395 0
M  V30 3145 O 524.147 -7.66872 -0.971405 0
M  V30 3146 C 523.207 -7.42212 -2.04614 0
M  V30 3147 C 523.937 -6.86059 -3.24661 0
M  V30 3148 O 524.147 -5.42847 -3.03646 0
M  V30 3149 C 525.337 -7.41196 -3.50753 0
M  V30 3150 O 525.727 -7.27073 -4.86816 0
M  V30 3151 C 526.217 -6.5273 -2.63741 0
M  V30 3152 C 525.507 -5.1842 -2.73198 0
M  V30 3153 N 525.557 -4.38668 -1.47808 0
M  V30 3154 C 525.707 -3.02239 -1.60048 0
M  V30 3155 O 525.797 -2.46459 -2.67869 0
M  V30 3156 N 525.747 -2.32436 -0.408571 0
M  V30 3157 C 525.657 -2.85471 0.854993 0
M  V30 3158 O 525.707 -2.12566 1.8531 0
M  V30 3159 C 525.507 -4.28918 0.887335 0
M  V30 3160 C 525.397 -4.91066 2.24619 0
M  V30 3161 C 525.457 -5.00349 -0.255399 0
M  V30 3162 H 522.717 -8.36803 -2.32493 0
M  V30 3163 H 522.448 -6.701 -1.71105 0
M  V30 3164 H 523.315 -7.03551 -4.13168 0
M  V30 3165 H 525.97 -4.59773 -3.53894 0
M  V30 3166 H 526.249 -6.88995 -1.59871 0
M  V30 3167 H 527.241 -6.46749 -3.03687 0
M  V30 3168 H 525.407 -8.46908 -3.20714 0
M  V30 3169 H 525.336 -6.08548 -0.206986 0
M  V30 3170 H 526.366 -5.34836 2.53099 0
M  V30 3171 H 524.629 -5.69638 2.2291 0
M  V30 3172 H 525.117 -4.13971 2.98044 0
M  V30 3173 H 525.853 -1.33211 -0.474216 0
M  V30 3174 P 527.277 -7.20834 -5.23717 0
M  V30 3175 O 527.497 -7.79853 -6.57286 0
M  V30 3176 O 528.067 -7.79239 -4.12957 0
M  V30 3177 O 527.527 -5.63315 -5.29344 0
M  V30 3178 C 526.587 -4.80255 -6.01876 0
M  V30 3179 C 527.317 -3.64202 -6.65911 0
M  V30 3180 O 527.527 -2.60694 -5.64732 0
M  V30 3181 C 528.717 -3.93473 -7.1943 0
M  V30 3182 O 529.107 -3.02071 -8.21205 0
M  V30 3183 C 529.597 -3.73047 -5.97036 0
M  V30 3184 C 528.887 -2.58828 -5.25741 0
M  V30 3185 N 528.937 -2.68068 -3.77503 0
M  V30 3186 H 526.098 -5.40332 -6.79951 0
M  V30 3187 H 525.828 -4.41613 -5.32378 0
M  V30 3188 H 526.695 -3.26331 -7.47797 0
M  V30 3189 P 530.657 -2.75334 -8.47391 0
M  V30 3190 O 530.877 -2.44571 -9.90142 0
M  V30 3191 O 531.447 -3.87688 -7.92115 0
M  V30 3192 O 530.907 -1.4459 -7.59357 0
M  V30 3193 C 529.967 -0.347608 -7.69215 0
M  V30 3194 C 530.697 0.96767 -7.52806 0
M  V30 3195 O 530.907 1.21036 -6.1011 0
M  V30 3196 C 532.097 1.04544 -8.13308 0
M  V30 3197 O 532.487 2.38311 -8.41922 0
M  V30 3198 C 532.977 0.491279 -7.02284 0
M  V30 3199 C 532.267 0.996264 -5.77469 0
M  V30 3200 N 532.317 0.0501916 -4.62973 0
M  V30 3201 C 532.237 -1.32786 -4.63244 0
M  V30 3202 N 532.317 -1.86957 -3.44545 0
M  V30 3203 C 532.457 -0.780241 -2.58481 0
M  V30 3204 C 532.587 -0.738536 -1.17757 0
M  V30 3205 O 532.607 -1.66794 -0.372349 0
M  V30 3206 N 532.707 0.58337 -0.711393 0
M  V30 3207 C 532.707 1.70816 -1.51017 0
M  V30 3208 N 532.837 2.87826 -0.880757 0
M  V30 3209 N 532.577 1.67126 -2.8339 0
M  V30 3210 C 532.457 0.401421 -3.30572 0
M  V30 3211 H 529.478 -0.374722 -8.67691 0
M  V30 3212 H 529.208 -0.443485 -6.90277 0
M  V30 3213 H 530.075 1.75537 -7.96793 0
M  V30 3214 H 532.73 1.95076 -5.46529 0
M  V30 3215 H 533.009 -0.608565 -7.04577 0
M  V30 3216 H 534.001 0.889672 -7.08939 0
M  V30 3217 H 532.167 0.43308 -9.04564 0
M  V30 3218 H 532.118 -1.91249 -5.54442 0
M  V30 3219 H 532.8 0.718054 0.275244 0
M  V30 3220 H 532.837 3.75721 -1.41832 0
M  V30 3221 H 532.938 2.90436 0.145468 0
M  V30 3222 P 534.037 2.75334 -8.47391 0
M  V30 3223 O 534.257 3.84128 -9.44797 0
M  V30 3224 O 534.827 1.51947 -8.68712 0
M  V30 3225 O 534.287 3.29363 -6.99321 0
M  V30 3226 C 533.347 4.24011 -6.4274 0
M  V30 3227 C 534.077 5.20775 -5.52155 0
M  V30 3228 O 534.287 4.56534 -4.22446 0
M  V30 3229 C 535.477 5.62629 -5.96531 0
M  V30 3230 O 535.867 6.87667 -5.41053 0
M  V30 3231 C 536.357 4.52537 -5.39283 0
M  V30 3232 C 535.647 4.20027 -4.08623 0
M  V30 3233 N 535.697 2.76189 -3.71603 0
M  V30 3234 H 532.858 4.797 -7.24003 0
M  V30 3235 H 532.588 3.69856 -5.84513 0
M  V30 3236 H 533.455 6.10356 -5.41441 0
M  V30 3237 P 537.417 7.20834 -5.23717 0
M  V30 3238 O 537.637 8.66104 -5.38572 0
M  V30 3239 O 538.207 6.33544 -6.1349 0
M  V30 3240 O 537.667 6.7751 -3.72168 0
M  V30 3241 C 536.727 7.20825 -2.7076 0
M  V30 3242 C 537.457 7.45864 -1.40599 0
M  V30 3243 O 537.667 6.17651 -0.734225 0
M  V30 3244 C 538.857 8.05808 -1.51899 0
M  V30 3245 O 539.247 8.74358 -0.335205 0
M  V30 3246 C 539.737 6.83093 -1.70294 0
M  V30 3247 C 539.027 5.79992 -0.836974 0
M  V30 3248 N 539.077 4.41864 -1.38293 0
M  V30 3249 H 536.238 8.13644 -3.0377 0
M  V30 3250 H 535.968 6.42788 -2.55485 0
M  V30 3251 H 536.835 8.12039 -0.792769 0
M  V30 3252 P 540.797 8.91 3.38379e-12 0
M  V30 3253 O 541.017 10.1726 0.733694 0
M  V30 3254 O 541.587 8.73148 -1.23936 0
M  V30 3255 O 541.047 7.66872 0.971405 0
M  V30 3256 C 540.107 7.42309 2.04641 0
M  V30 3257 C 540.837 6.86059 3.24661 0
M  V30 3258 O 541.047 5.42847 3.03646 0
M  V30 3259 C 542.237 7.41196 3.50753 0
M  V30 3260 O 542.627 7.27073 4.86816 0
M  V30 3261 C 543.117 6.5273 2.63741 0
M  V30 3262 C 542.407 5.1842 2.73198 0
M  V30 3263 N 542.457 4.38762 1.4784 0
M  V30 3264 H 539.618 8.36803 2.32493 0
M  V30 3265 H 539.348 6.70197 1.71129 0
M  V30 3266 H 540.215 7.03551 4.13168 0
M  V30 3267 P 544.177 7.20834 5.23717 0
M  V30 3268 O 544.397 7.80006 6.57415 0
M  V30 3269 O 544.967 7.79416 4.13051 0
M  V30 3270 O 544.427 5.63315 5.29344 0
M  V30 3271 C 543.487 4.80318 6.01954 0
M  V30 3272 C 544.217 3.64202 6.65911 0
M  V30 3273 O 544.427 2.60736 5.64823 0
M  V30 3274 C 545.617 3.93521 7.19518 0
M  V30 3275 O 546.007 3.02071 8.21205 0
M  V30 3276 C 546.497 3.73047 5.97036 0
M  V30 3277 C 545.787 2.58828 5.25741 0
M  V30 3278 N 545.837 2.68068 3.77503 0
M  V30 3279 H 542.999 5.40394 6.8003 0
M  V30 3280 H 542.727 4.41741 5.32532 0
M  V30 3281 H 543.595 3.26371 7.47889 0
M  V30 3282 H 546.25 1.64007 5.56746 0
M  V30 3283 H 546.53 4.63439 5.3432 0
M  V30 3284 H 547.521 3.44776 6.25925 0
M  V30 3285 H 545.687 4.96707 7.57347 0
M  V30 3286 P 547.557 2.75334 8.47391 0
M  V30 3287 O 547.777 2.44571 9.90142 0
M  V30 3288 O 548.347 3.87688 7.92115 0
M  V30 3289 O 547.807 1.4459 7.59357 0
M  V30 3290 C 546.867 0.347608 7.69215 0
M  V30 3291 C 547.597 -0.96767 7.52806 0
M  V30 3292 O 547.807 -1.21036 6.1011 0
M  V30 3293 C 548.997 -1.04544 8.13308 0
M  V30 3294 O 549.387 -2.38311 8.41922 0
M  V30 3295 C 549.877 -0.491279 7.02284 0
M  V30 3296 C 549.167 -0.996264 5.77469 0
M  V30 3297 N 549.217 -0.0501916 4.62973 0
M  V30 3298 H 546.378 0.374722 8.67691 0
M  V30 3299 H 546.108 0.443485 6.90277 0
M  V30 3300 H 546.975 -1.75537 7.96793 0
M  V30 3301 P 550.937 -2.75334 8.47391 0
M  V30 3302 O 551.157 -3.84166 9.4489 0
M  V30 3303 O 551.727 -1.51964 8.6881 0
M  V30 3304 O 551.187 -3.29363 6.99321 0
M  V30 3305 C 550.247 -4.23956 6.42656 0
M  V30 3306 C 550.977 -5.20775 5.52155 0
M  V30 3307 O 551.187 -4.56534 4.22446 0
M  V30 3308 C 552.377 -5.62629 5.96531 0
M  V30 3309 O 552.767 -6.87667 5.41053 0
M  V30 3310 C 553.257 -4.52537 5.39283 0
M  V30 3311 C 552.547 -4.20027 4.08623 0
M  V30 3312 N 552.597 -2.7613 3.71522 0
M  V30 3313 C 552.747 -2.45612 2.37989 0
M  V30 3314 O 552.837 -3.30919 1.51621 0
M  V30 3315 N 552.787 -1.10684 2.08435 0
M  V30 3316 C 552.697 -0.0690084 2.9792 0
M  V30 3317 O 552.747 1.10553 2.59426 0
M  V30 3318 C 552.547 -0.481522 4.35345 0
M  V30 3319 C 552.437 0.618778 5.36443 0
M  V30 3320 C 552.497 -1.78906 4.67968 0
M  V30 3321 H 549.757 -4.797 7.24003 0
M  V30 3322 H 549.488 -3.69802 5.84429 0
M  V30 3323 H 550.355 -6.10356 5.41441 0
M  V30 3324 H 553.01 -4.78651 3.27911 0
M  V30 3325 H 553.289 -3.64957 6.05871 0
M  V30 3326 H 554.281 -4.8868 5.2125 0
M  V30 3327 H 552.447 -5.66726 7.06352 0
M  V30 3328 H 552.376 -2.07737 5.72367 0
M  V30 3329 H 553.406 0.754375 5.86871 0
M  V30 3330 H 551.669 0.359721 6.10641 0
M  V30 3331 H 552.157 1.55533 4.8581 0
M  V30 3332 H 552.893 -0.862651 1.12037 0
M  V30 3333 P 554.317 -7.20834 5.23717 0
M  V30 3334 O 554.537 -8.66104 5.38572 0
M  V30 3335 O 555.107 -6.33544 6.1349 0
M  V30 3336 O 554.567 -6.7751 3.72168 0
M  V30 3337 C 553.627 -7.20825 2.7076 0
M  V30 3338 C 554.357 -7.45864 1.40599 0
M  V30 3339 O 554.567 -6.17651 0.734225 0
M  V30 3340 C 555.757 -8.05808 1.51899 0
M  V30 3341 O 556.147 -8.74358 0.335205 0
M  V30 3342 C 556.637 -6.83093 1.70294 0
M  V30 3343 C 555.927 -5.79992 0.836974 0
M  V30 3344 N 555.977 -4.41864 1.38293 0
M  V30 3345 H 553.138 -8.13644 3.0377 0
M  V30 3346 H 552.868 -6.42788 2.55485 0
M  V30 3347 H 553.735 -8.12039 0.792769 0
M  V30 3348 P 557.697 -8.91 -3.54097e-12 0
M  V30 3349 O 557.917 -10.1746 -0.733838 0
M  V30 3350 O 558.487 -8.73346 1.23964 0
M  V30 3351 O 557.947 -7.66872 -0.971405 0
M  V30 3352 C 557.007 -7.42405 -2.04668 0
M  V30 3353 C 557.737 -6.86059 -3.24661 0
M  V30 3354 O 557.947 -5.42934 -3.03695 0
M  V30 3355 C 559.137 -7.41287 -3.50796 0
M  V30 3356 O 559.527 -7.27073 -4.86816 0
M  V30 3357 C 560.017 -6.5273 -2.63741 0
M  V30 3358 C 559.307 -5.1842 -2.73198 0
M  V30 3359 N 559.357 -4.38762 -1.4784 0
M  V30 3360 H 556.519 -8.36899 -2.3252 0
M  V30 3361 H 556.247 -6.70391 -1.71179 0
M  V30 3362 H 557.115 -7.03638 -4.13219 0
M  V30 3363 H 559.77 -4.59931 -3.54016 0
M  V30 3364 H 560.05 -6.88995 -1.59871 0
M  V30 3365 H 561.041 -6.4684 -3.0373 0
M  V30 3366 H 559.207 -8.47002 -3.20749 0
M  V30 3367 P 561.077 -7.20834 -5.23717 0
M  V30 3368 O 561.297 -7.79853 -6.57286 0
M  V30 3369 O 561.867 -7.79239 -4.12957 0
M  V30 3370 O 561.327 -5.63315 -5.29344 0
M  V30 3371 C 560.387 -4.80255 -6.01876 0
M  V30 3372 C 561.117 -3.64202 -6.65911 0
M  V30 3373 O 561.327 -2.60694 -5.64732 0
M  V30 3374 C 562.517 -3.93473 -7.1943 0
M  V30 3375 O 562.907 -3.02071 -8.21205 0
M  V30 3376 C 563.397 -3.73047 -5.97036 0
M  V30 3377 C 562.687 -2.58828 -5.25741 0
M  V30 3378 N 562.737 -2.68068 -3.77503 0
M  V30 3379 H 559.898 -5.40332 -6.79951 0
M  V30 3380 H 559.628 -4.41613 -5.32378 0
M  V30 3381 H 560.495 -3.26331 -7.47797 0
M  V30 3382 P 564.457 -2.75334 -8.47391 0
M  V30 3383 O 564.677 -2.44571 -9.90142 0
M  V30 3384 O 565.247 -3.87688 -7.92115 0
M  V30 3385 O 564.707 -1.4459 -7.59357 0
M  V30 3386 C 563.767 -0.347608 -7.69215 0
M  V30 3387 C 564.497 0.96767 -7.52806 0
M  V30 3388 O 564.707 1.21036 -6.1011 0
M  V30 3389 C 565.897 1.04544 -8.13308 0
M  V30 3390 O 566.287 2.38311 -8.41922 0
M  V30 3391 C 566.777 0.491279 -7.02284 0
M  V30 3392 C 566.067 0.996264 -5.77469 0
M  V30 3393 N 566.117 0.0501916 -4.62973 0
M  V30 3394 H 563.278 -0.374722 -8.67691 0
M  V30 3395 H 563.008 -0.443485 -6.90277 0
M  V30 3396 H 563.875 1.75537 -7.96793 0
M  V30 3397 P 567.837 2.75334 -8.47391 0
M  V30 3398 O 568.057 3.84128 -9.44797 0
M  V30 3399 O 568.627 1.51947 -8.68712 0
M  V30 3400 O 568.087 3.29363 -6.99321 0
M  V30 3401 C 567.147 4.24011 -6.4274 0
M  V30 3402 C 567.877 5.20775 -5.52155 0
M  V30 3403 O 568.087 4.56534 -4.22446 0
M  V30 3404 C 569.277 5.62629 -5.96531 0
M  V30 3405 O 569.667 6.87667 -5.41053 0
M  V30 3406 C 570.157 4.52537 -5.39283 0
M  V30 3407 C 569.447 4.20027 -4.08623 0
M  V30 3408 N 569.497 2.76189 -3.71603 0
M  V30 3409 H 566.658 4.797 -7.24003 0
M  V30 3410 H 566.388 3.69856 -5.84513 0
M  V30 3411 H 567.255 6.10356 -5.41441 0
M  V30 3412 P 571.217 7.20834 -5.23717 0
M  V30 3413 O 571.437 8.66104 -5.38572 0
M  V30 3414 O 572.007 6.33544 -6.1349 0
M  V30 3415 O 571.467 6.7751 -3.72168 0
M  V30 3416 C 570.527 7.20825 -2.7076 0
M  V30 3417 C 571.257 7.45864 -1.40599 0
M  V30 3418 O 571.467 6.17651 -0.734225 0
M  V30 3419 C 572.657 8.05808 -1.51899 0
M  V30 3420 O 573.047 8.74358 -0.335205 0
M  V30 3421 C 573.537 6.83093 -1.70294 0
M  V30 3422 C 572.827 5.79992 -0.836974 0
M  V30 3423 N 572.877 4.41864 -1.38293 0
M  V30 3424 H 570.038 8.13644 -3.0377 0
M  V30 3425 H 569.768 6.42788 -2.55485 0
M  V30 3426 H 570.635 8.12039 -0.792769 0
M  V30 3427 P 574.597 8.91 3.69815e-12 0
M  V30 3428 O 574.817 10.1736 0.733766 0
M  V30 3429 O 575.387 8.73247 -1.2395 0
M  V30 3430 O 574.847 7.66872 0.971405 0
M  V30 3431 C 573.907 7.42309 2.04641 0
M  V30 3432 C 574.637 6.86059 3.24661 0
M  V30 3433 O 574.847 5.42847 3.03646 0
M  V30 3434 C 576.037 7.41196 3.50753 0
M  V30 3435 O 576.427 7.27073 4.86816 0
M  V30 3436 C 576.917 6.5273 2.63741 0
M  V30 3437 C 576.207 5.1842 2.73198 0
M  V30 3438 N 576.257 4.38668 1.47808 0
M  V30 3439 C 576.407 3.00789 1.58511 0
M  V30 3440 O 576.497 2.50116 2.71298 0
M  V30 3441 N 576.457 2.29703 0.253698 0
M  V30 3442 C 576.357 2.84269 -0.750133 0
M  V30 3443 N 576.407 2.06951 -1.82612 0
M  V30 3444 C 576.207 4.25803 -0.889776 0
M  V30 3445 C 576.157 4.98326 0.259363 0
M  V30 3446 H 573.417 8.36707 2.32466 0
M  V30 3447 H 573.148 6.701 1.71105 0
M  V30 3448 H 574.015 7.03638 4.13219 0
M  V30 3449 H 576.67 4.59852 3.53955 0
M  V30 3450 H 576.949 6.88995 1.59871 0
M  V30 3451 H 577.941 6.46749 3.03687 0
M  V30 3452 H 576.107 8.46908 3.20714 0
M  V30 3453 H 576.035 6.06349 0.206238 0
M  V30 3454 H 576.137 4.73163 -1.86796 0
M  V30 3455 H 576.525 1.05099 -1.72271 0
M  V30 3456 H 576.328 2.48716 -2.76361 0
M  V30 3457 P 577.977 7.20834 5.23717 0
M  V30 3458 O 578.197 7.79853 6.57286 0
M  V30 3459 O 578.767 7.79239 4.12957 0
M  V30 3460 O 578.227 5.63315 5.29344 0
M  V30 3461 C 577.287 4.80255 6.01876 0
M  V30 3462 C 578.017 3.64202 6.65911 0
M  V30 3463 O 578.227 2.60694 5.64732 0
M  V30 3464 C 579.417 3.93473 7.1943 0
M  V30 3465 O 579.807 3.02071 8.21205 0
M  V30 3466 C 580.297 3.73047 5.97036 0
M  V30 3467 C 579.587 2.58828 5.25741 0
M  V30 3468 N 579.637 2.68068 3.77503 0
M  V30 3469 H 576.798 5.40332 6.79951 0
M  V30 3470 H 576.528 4.41613 5.32378 0
M  V30 3471 H 577.395 3.26331 7.47797 0
M  V30 3472 P 581.357 2.75334 8.47391 0
M  V30 3473 O 581.577 2.44595 9.90239 0
M  V30 3474 O 582.147 3.87732 7.92204 0
M  V30 3475 O 581.607 1.4459 7.59357 0
M  V30 3476 C 580.667 0.347563 7.69115 0
M  V30 3477 C 581.397 -0.96767 7.52806 0
M  V30 3478 O 581.607 -1.21036 6.1011 0
M  V30 3479 C 582.797 -1.04544 8.13308 0
M  V30 3480 O 583.187 -2.38311 8.41922 0
M  V30 3481 C 583.677 -0.491279 7.02284 0
M  V30 3482 C 582.967 -0.996264 5.77469 0
M  V30 3483 N 583.017 -0.0501808 4.62873 0
M  V30 3484 C 583.167 -0.588177 3.36904 0
M  V30 3485 O 583.257 -1.78598 3.17173 0
M  V30 3486 N 583.207 0.329694 2.33686 0
M  V30 3487 C 583.117 1.6953 2.45079 0
M  V30 3488 C 582.967 2.16933 3.80505 0
M  V30 3489 C 582.917 1.30326 4.83752 0
M  V30 3490 H 580.177 0.374722 8.67691 0
M  V30 3491 H 579.908 0.443421 6.90177 0
M  V30 3492 H 580.775 -1.75537 7.96793 0
M  V30 3493 H 583.43 -1.94496 5.46629 0
M  V30 3494 H 583.709 0.608651 7.04676 0
M  V30 3495 H 584.701 -0.889672 7.08939 0
M  V30 3496 H 582.867 -0.43308 9.04564 0
M  V30 3497 H 582.796 1.68366 5.8516 0
M  V30 3498 P 584.737 -2.75334 8.47391 0
M  V30 3499 O 584.957 -3.84128 9.44797 0
M  V30 3500 O 585.527 -1.51947 8.68712 0
M  V30 3501 O 584.987 -3.29363 6.99321 0
M  V30 3502 C 584.047 -4.24011 6.4274 0
M  V30 3503 C 584.777 -5.20775 5.52155 0
M  V30 3504 O 584.987 -4.56534 4.22446 0
M  V30 3505 C 586.177 -5.62629 5.96531 0
M  V30 3506 O 586.567 -6.87667 5.41053 0
M  V30 3507 C 587.057 -4.52537 5.39283 0
M  V30 3508 C 586.347 -4.20027 4.08623 0
M  V30 3509 N 586.397 -2.76189 3.71603 0
M  V30 3510 H 583.558 -4.797 7.24003 0
M  V30 3511 H 583.288 -3.69856 5.84513 0
M  V30 3512 H 584.155 -6.10356 5.41441 0
M  V30 3513 P 588.117 -7.20834 5.23717 0
M  V30 3514 O 588.337 -8.66104 5.38572 0
M  V30 3515 O 588.907 -6.33544 6.1349 0
M  V30 3516 O 588.367 -6.7751 3.72168 0
M  V30 3517 C 587.427 -7.20825 2.7076 0
M  V30 3518 C 588.157 -7.45864 1.40599 0
M  V30 3519 O 588.367 -6.17651 0.734225 0
M  V30 3520 C 589.557 -8.05808 1.51899 0
M  V30 3521 O 589.947 -8.74358 0.335205 0
M  V30 3522 C 590.437 -6.83093 1.70294 0
M  V30 3523 C 589.727 -5.79992 0.836974 0
M  V30 3524 N 589.777 -4.41864 1.38293 0
M  V30 3525 H 586.938 -8.13644 3.0377 0
M  V30 3526 H 586.668 -6.42788 2.55485 0
M  V30 3527 H 587.535 -8.12039 0.792769 0
M  V30 3528 P 591.496 -8.91 -3.85533e-12 0
M  V30 3529 O 591.716 -10.1726 -0.733694 0
M  V30 3530 O 592.286 -8.73148 1.23936 0
M  V30 3531 O 591.746 -7.66872 -0.971405 0
M  V30 3532 C 590.806 -7.42309 -2.04641 0
M  V30 3533 C 591.536 -6.86059 -3.24661 0
M  V30 3534 O 591.746 -5.42847 -3.03646 0
M  V30 3535 C 592.937 -7.41196 -3.50753 0
M  V30 3536 O 593.327 -7.27073 -4.86816 0
M  V30 3537 C 593.817 -6.5273 -2.63741 0
M  V30 3538 C 593.106 -5.1842 -2.73198 0
M  V30 3539 N 593.156 -4.38762 -1.4784 0
M  V30 3540 H 590.317 -8.36803 -2.32493 0
M  V30 3541 H 590.048 -6.70197 -1.71129 0
M  V30 3542 H 590.914 -7.03551 -4.13168 0
M  V30 3543 P 594.876 -7.20834 -5.23717 0
M  V30 3544 O 595.096 -7.79853 -6.57286 0
M  V30 3545 O 595.666 -7.79239 -4.12957 0
M  V30 3546 O 595.126 -5.63315 -5.29344 0
M  V30 3547 C 594.186 -4.80255 -6.01876 0
M  V30 3548 C 594.916 -3.64202 -6.65911 0
M  V30 3549 O 595.126 -2.60694 -5.64732 0
M  V30 3550 C 596.316 -3.93473 -7.1943 0
M  V30 3551 O 596.706 -3.02071 -8.21205 0
M  V30 3552 C 597.196 -3.73047 -5.97036 0
M  V30 3553 C 596.486 -2.58828 -5.25741 0
M  V30 3554 N 596.536 -2.68068 -3.77503 0
M  V30 3555 H 593.697 -5.40332 -6.79951 0
M  V30 3556 H 593.427 -4.41613 -5.32378 0
M  V30 3557 H 594.294 -3.26331 -7.47797 0
M  V30 3558 P 598.256 -2.75334 -8.47391 0
M  V30 3559 O 598.476 -2.44571 -9.90142 0
M  V30 3560 O 599.046 -3.87688 -7.92115 0
M  V30 3561 O 598.506 -1.4459 -7.59357 0
M  V30 3562 C 597.566 -0.347608 -7.69215 0
M  V30 3563 C 598.296 0.96767 -7.52806 0
M  V30 3564 O 598.506 1.21036 -6.1011 0
M  V30 3565 C 599.696 1.04544 -8.13308 0
M  V30 3566 O 600.086 2.38311 -8.41922 0
M  V30 3567 C 600.576 0.491279 -7.02284 0
M  V30 3568 C 599.866 0.996264 -5.77469 0
M  V30 3569 N 599.916 0.0501916 -4.62973 0
M  V30 3570 H 597.077 -0.374722 -8.67691 0
M  V30 3571 H 596.807 -0.443485 -6.90277 0
M  V30 3572 H 597.674 1.75537 -7.96793 0
M  V30 3573 P 601.636 2.75334 -8.47391 0
M  V30 3574 O 601.856 3.84128 -9.44797 0
M  V30 3575 O 602.426 1.51947 -8.68712 0
M  V30 3576 O 601.886 3.29363 -6.99321 0
M  V30 3577 C 600.946 4.24011 -6.4274 0
M  V30 3578 C 601.676 5.20775 -5.52155 0
M  V30 3579 O 601.886 4.56534 -4.22446 0
M  V30 3580 C 603.076 5.62629 -5.96531 0
M  V30 3581 O 603.466 6.87667 -5.41053 0
M  V30 3582 C 603.956 4.52537 -5.39283 0
M  V30 3583 C 603.246 4.20027 -4.08623 0
M  V30 3584 N 603.296 2.76189 -3.71603 0
M  V30 3585 C 603.216 1.64862 -4.52822 0
M  V30 3586 N 603.296 0.512671 -3.88633 0
M  V30 3587 C 603.436 0.888083 -2.54977 0
M  V30 3588 C 603.566 0.094668 -1.38677 0
M  V30 3589 O 603.586 -1.13053 -1.28163 0
M  V30 3590 N 603.686 0.890102 -0.232633 0
M  V30 3591 C 603.686 2.26958 -0.21772 0
M  V30 3592 N 603.816 2.84626 0.97925 0
M  V30 3593 N 603.556 3.0178 -1.31033 0
M  V30 3594 C 603.436 2.26781 -2.43843 0
M  V30 3595 H 600.457 4.797 -7.24003 0
M  V30 3596 H 600.187 3.69856 -5.84513 0
M  V30 3597 H 601.054 6.10356 -5.41441 0
M  V30 3598 H 603.709 4.79061 -3.27488 0
M  V30 3599 H 603.988 3.64906 -6.05785 0
M  V30 3600 H 604.98 4.8868 -5.2125 0
M  V30 3601 H 603.146 5.66726 -7.06352 0
M  V30 3602 H 603.097 1.71169 -5.60966 0
M  V30 3603 H 603.779 0.419134 0.644739 0
M  V30 3604 H 603.816 3.87332 1.06098 0
M  V30 3605 H 603.917 2.26417 1.82483 0
M  V30 3606 P 605.016 7.20834 -5.23717 0
M  V30 3607 O 605.236 8.66274 -5.38678 0
M  V30 3608 O 605.806 6.33687 -6.13629 0
M  V30 3609 O 605.266 6.7751 -3.72168 0
M  V30 3610 C 604.326 7.20919 -2.70795 0
M  V30 3611 C 605.056 7.45864 -1.40599 0
M  V30 3612 O 605.266 6.17751 -0.734343 0
M  V30 3613 C 606.456 8.05906 -1.51917 0
M  V30 3614 O 606.846 8.74358 -0.335205 0
M  V30 3615 C 607.336 6.83093 -1.70294 0
M  V30 3616 C 606.626 5.79992 -0.836974 0
M  V30 3617 N 606.676 4.41864 -1.38293 0
M  V30 3618 H 603.838 8.13738 -3.03804 0
M  V30 3619 H 603.566 6.42974 -2.55559 0
M  V30 3620 H 604.434 8.12139 -0.792866 0
M  V30 3621 H 607.089 5.80178 0.160643 0
M  V30 3622 H 607.369 6.51379 -2.75643 0
M  V30 3623 H 608.36 7.01832 -1.3448 0
M  V30 3624 H 606.526 8.73771 -2.38364 0
M  V30 3625 P 608.396 8.91 4.01252e-12 0
M  V30 3626 O 608.616 10.1726 0.733694 0
M  V30 3627 O 609.186 8.73148 -1.23936 0
M  V30 3628 O 608.646 7.66872 0.971405 0
M  V30 3629 C 607.706 7.42309 2.04641 0
M  V30 3630 C 608.436 6.86059 3.24661 0
M  V30 3631 O 608.646 5.42847 3.03646 0
M  V30 3632 C 609.836 7.41196 3.50753 0
M  V30 3633 O 610.226 7.27073 4.86816 0
M  V30 3634 C 610.716 6.5273 2.63741 0
M  V30 3635 C 610.006 5.1842 2.73198 0
M  V30 3636 N 610.056 4.38762 1.4784 0
M  V30 3637 C 609.976 4.81605 0.168631 0
M  V30 3638 N 610.056 3.85454 -0.713363 0
M  V30 3639 C 610.196 2.6994 0.0566958 0
M  V30 3640 C 610.326 1.34815 -0.338502 0
M  V30 3641 O 610.346 0.869548 -1.47125 0
M  V30 3642 N 610.446 0.496304 0.77465 0
M  V30 3643 C 610.446 0.908403 2.09122 0
M  V30 3644 N 610.576 -0.0517805 3.00955 0
M  V30 3645 N 610.316 2.17875 2.46519 0
M  V30 3646 C 610.196 3.01988 1.4033 0
M  V30 3647 H 607.217 8.36803 2.32493 0
M  V30 3648 H 606.947 6.70197 1.71129 0
M  V30 3649 H 607.814 7.03551 4.13168 0
M  V30 3650 H 610.469 4.59498 3.54415 0
M  V30 3651 H 610.748 6.88898 1.59848 0
M  V30 3652 H 611.74 6.46749 3.03687 0
M  V30 3653 H 609.906 8.46908 3.20714 0
M  V30 3654 H 609.857 5.86405 -0.105564 0
M  V30 3655 H 610.539 -0.483664 0.597855 0
M  V30 3656 H 610.576 0.187865 4.0116 0
M  V30 3657 H 610.677 -1.03585 2.71726 0
M  V30 3658 P 611.776 7.20834 5.23717 0
M  V30 3659 O 611.996 7.80006 6.57415 0
M  V30 3660 O 612.566 7.79416 4.13051 0
M  V30 3661 O 612.026 5.63315 5.29344 0
M  V30 3662 C 611.086 4.80318 6.01954 0
M  V30 3663 C 611.816 3.64202 6.65911 0
M  V30 3664 O 612.026 2.60736 5.64823 0
M  V30 3665 C 613.216 3.93521 7.19518 0
M  V30 3666 O 613.606 3.02071 8.21205 0
M  V30 3667 C 614.096 3.73047 5.97036 0
M  V30 3668 C 613.386 2.58828 5.25741 0
M  V30 3669 N 613.436 2.68068 3.77503 0
M  V30 3670 C 613.356 3.80474 2.99159 0
M  V30 3671 N 613.426 3.55622 1.71925 0
M  V30 3672 C 613.576 2.1832 1.65733 0
M  V30 3673 C 613.706 1.28842 0.572777 0
M  V30 3674 N 613.716 1.66875 -0.70098 0
M  V30 3675 N 613.826 -0.016788 0.859836 0
M  V30 3676 C 613.816 -0.398145 2.13316 0
M  V30 3677 N 613.696 0.328224 3.22333 0
M  V30 3678 C 613.576 1.62992 2.90383 0
M  V30 3679 H 610.598 5.40394 6.8003 0
M  V30 3680 H 610.326 4.41741 5.32532 0
M  V30 3681 H 611.194 3.26371 7.47889 0
M  V30 3682 H 613.849 1.64007 5.56746 0
M  V30 3683 H 614.129 4.63439 5.3432 0
M  V30 3684 H 615.12 3.44776 6.25925 0
M  V30 3685 H 613.286 4.96707 7.57347 0
M  V30 3686 H 613.245 4.8089 3.39924 0
M  V30 3687 H 613.626 2.66547 -0.941919 0
M  V30 3688 H 613.815 0.965341 -1.44766 0
M  V30 3689 H 613.923 -1.46427 2.29697 0
M  V30 3690 P 615.156 2.75334 8.47391 0
M  V30 3691 O 615.376 2.44571 9.90142 0
M  V30 3692 O 615.946 3.87688 7.92115 0
M  V30 3693 O 615.406 1.4459 7.59357 0
M  V30 3694 C 614.466 0.347608 7.69215 0
M  V30 3695 C 615.196 -0.96767 7.52806 0
M  V30 3696 O 615.406 -1.21036 6.1011 0
M  V30 3697 C 616.596 -1.04544 8.13308 0
M  V30 3698 O 616.986 -2.38311 8.41922 0
M  V30 3699 C 617.476 -0.491279 7.02284 0
M  V30 3700 C 616.766 -0.996264 5.77469 0
M  V30 3701 N 616.816 -0.0501916 4.62973 0
M  V30 3702 H 613.977 0.374722 8.67691 0
M  V30 3703 H 613.707 0.443485 6.90277 0
M  V30 3704 H 614.574 -1.75537 7.96793 0
M  V30 3705 P 618.536 -2.75334 8.47391 0
M  V30 3706 O 618.756 -3.84204 9.44982 0
M  V30 3707 O 619.326 -1.51982 8.68909 0
M  V30 3708 O 618.786 -3.29363 6.99321 0
M  V30 3709 C 617.846 -4.24066 6.42823 0
M  V30 3710 C 618.576 -5.20775 5.52155 0
M  V30 3711 O 618.786 -4.56607 4.22514 0
M  V30 3712 C 619.976 -5.62697 5.96604 0
M  V30 3713 O 620.366 -6.87667 5.41053 0
M  V30 3714 C 620.856 -4.52537 5.39283 0
M  V30 3715 C 620.146 -4.20027 4.08623 0
M  V30 3716 N 620.196 -2.76189 3.71603 0
M  V30 3717 C 620.116 -1.66944 4.54297 0
M  V30 3718 N 620.186 -0.536169 3.91344 0
M  V30 3719 C 620.336 -0.901569 2.58849 0
M  V30 3720 C 620.466 -0.146599 1.40236 0
M  V30 3721 N 620.476 1.18234 1.37046 0
M  V30 3722 N 620.586 -0.822941 0.249738 0
M  V30 3723 C 620.576 -2.15179 0.280525 0
M  V30 3724 N 620.456 -2.96414 1.30822 0
M  V30 3725 C 620.336 -2.25804 2.44748 0
M  V30 3726 H 617.358 -4.79756 7.24086 0
M  V30 3727 H 617.086 -3.69963 5.84682 0
M  V30 3728 H 617.954 -6.10431 5.41508 0
M  V30 3729 H 620.609 -4.78816 3.28024 0
M  V30 3730 H 620.889 -3.64957 6.05871 0
M  V30 3731 H 621.88 -4.88748 5.21323 0
M  V30 3732 H 620.046 -5.66789 7.0643 0
M  V30 3733 H 620.005 -1.74684 5.62396 0
M  V30 3734 H 620.386 1.71949 2.24394 0
M  V30 3735 H 620.575 1.67511 0.470742 0
M  V30 3736 H 620.683 -2.63704 -0.6828 0
M  V30 3737 P 621.916 -7.20834 5.23717 0
M  V30 3738 O 622.136 -8.66274 5.38678 0
M  V30 3739 O 622.706 -6.33687 6.13629 0
M  V30 3740 O 622.166 -6.7751 3.72168 0
M  V30 3741 C 621.226 -7.20919 2.70795 0
M  V30 3742 C 621.956 -7.45864 1.40599 0
M  V30 3743 O 622.166 -6.17751 0.734343 0
M  V30 3744 C 623.356 -8.05906 1.51917 0
M  V30 3745 O 623.746 -8.74358 0.335205 0
M  V30 3746 C 624.236 -6.83093 1.70294 0
M  V30 3747 C 623.526 -5.79992 0.836974 0
M  V30 3748 N 623.576 -4.41864 1.38293 0
M  V30 3749 C 623.496 -4.02089 2.69407 0
M  V30 3750 N 623.566 -2.73403 2.85089 0
M  V30 3751 C 623.716 -2.25086 1.5642 0
M  V30 3752 C 623.846 -0.942887 1.04836 0
M  V30 3753 N 623.856 0.150999 1.80369 0
M  V30 3754 N 623.966 -0.812565 -0.28167 0
M  V30 3755 C 623.956 -1.90572 -1.03784 0
M  V30 3756 N 623.836 -3.167 -0.683905 0
M  V30 3757 C 623.716 -3.26538 0.652815 0
M  V30 3758 H 620.738 -8.13738 3.03804 0
M  V30 3759 H 620.466 -6.42974 2.55559 0
M  V30 3760 H 621.334 -8.12139 0.792866 0
M  V30 3761 H 623.989 -5.80178 -0.160643 0
M  V30 3762 H 624.269 -6.51379 2.75643 0
M  V30 3763 H 625.26 -7.01832 1.3448 0
M  V30 3764 H 623.426 -8.73771 2.38364 0
M  V30 3765 H 623.385 -4.7189 3.52311 0
M  V30 3766 H 623.766 0.0721434 2.82608 0
M  V30 3767 H 623.955 1.0785 1.36544 0
M  V30 3768 H 624.063 -1.73207 -2.10241 0
M  V30 3769 P 625.296 -8.91 -4.1697e-12 0
M  V30 3770 O 625.516 -10.1726 -0.733694 0
M  V30 3771 O 626.086 -8.73148 1.23936 0
M  V30 3772 O 625.546 -7.66872 -0.971405 0
M  V30 3773 C 624.606 -7.42309 -2.04641 0
M  V30 3774 C 625.336 -6.86059 -3.24661 0
M  V30 3775 O 625.546 -5.42847 -3.03646 0
M  V30 3776 C 626.736 -7.41196 -3.50753 0
M  V30 3777 O 627.126 -7.27073 -4.86816 0
M  V30 3778 C 627.616 -6.5273 -2.63741 0
M  V30 3779 C 626.906 -5.1842 -2.73198 0
M  V30 3780 N 626.956 -4.38762 -1.4784 0
M  V30 3781 H 624.117 -8.36803 -2.32493 0
M  V30 3782 H 623.847 -6.70197 -1.71129 0
M  V30 3783 H 624.714 -7.03551 -4.13168 0
M  V30 3784 P 628.676 -7.20834 -5.23717 0
M  V30 3785 O 628.896 -7.79853 -6.57286 0
M  V30 3786 O 629.466 -7.79239 -4.12957 0
M  V30 3787 O 628.926 -5.63315 -5.29344 0
M  V30 3788 C 627.986 -4.80255 -6.01876 0
M  V30 3789 C 628.716 -3.64202 -6.65911 0
M  V30 3790 O 628.926 -2.60694 -5.64732 0
M  V30 3791 C 630.116 -3.93473 -7.1943 0
M  V30 3792 O 630.506 -3.02071 -8.21205 0
M  V30 3793 C 630.996 -3.73047 -5.97036 0
M  V30 3794 C 630.286 -2.58828 -5.25741 0
M  V30 3795 N 630.336 -2.68068 -3.77503 0
M  V30 3796 H 627.497 -5.40332 -6.79951 0
M  V30 3797 H 627.227 -4.41613 -5.32378 0
M  V30 3798 H 628.094 -3.26331 -7.47797 0
M  V30 3799 P 632.056 -2.75334 -8.47391 0
M  V30 3800 O 632.276 -2.44595 -9.90239 0
M  V30 3801 O 632.846 -3.87732 -7.92204 0
M  V30 3802 O 632.306 -1.4459 -7.59357 0
M  V30 3803 C 631.366 -0.347563 -7.69115 0
M  V30 3804 C 632.096 0.96767 -7.52806 0
M  V30 3805 O 632.306 1.21036 -6.1011 0
M  V30 3806 C 633.496 1.04544 -8.13308 0
M  V30 3807 O 633.886 2.38311 -8.41922 0
M  V30 3808 C 634.376 0.491279 -7.02284 0
M  V30 3809 C 633.666 0.996264 -5.77469 0
M  V30 3810 N 633.716 0.0501808 -4.62873 0
M  V30 3811 C 633.866 0.588177 -3.36904 0
M  V30 3812 O 633.956 1.78598 -3.17173 0
M  V30 3813 N 633.906 -0.329694 -2.33686 0
M  V30 3814 C 633.816 -1.6953 -2.45079 0
M  V30 3815 O 633.866 -2.41926 -1.44899 0
M  V30 3816 C 633.666 -2.16933 -3.80505 0
M  V30 3817 C 633.556 -3.65373 -3.97621 0
M  V30 3818 C 633.616 -1.30326 -4.83752 0
M  V30 3819 H 630.876 -0.374722 -8.67691 0
M  V30 3820 H 630.607 -0.443421 -6.90177 0
M  V30 3821 H 631.474 1.75537 -7.96793 0
M  V30 3822 H 634.129 1.94496 -5.46629 0
M  V30 3823 H 634.408 -0.608651 -7.04676 0
M  V30 3824 H 635.4 0.889672 -7.08939 0
M  V30 3825 H 633.566 0.43308 -9.04564 0
M  V30 3826 H 633.495 -1.68366 -5.8516 0
M  V30 3827 H 634.525 -4.05985 -4.30448 0
M  V30 3828 H 632.788 -3.88028 -4.72875 0
M  V30 3829 H 633.276 -4.11381 -3.01609 0
M  V30 3830 H 634.012 0.0393617 -1.41345 0
M  V30 3831 P 635.436 2.75334 -8.47391 0
M  V30 3832 O 635.656 3.84166 -9.4489 0
M  V30 3833 O 636.226 1.51964 -8.6881 0
M  V30 3834 O 635.686 3.29363 -6.99321 0
M  V30 3835 C 634.746 4.24011 -6.4274 0
M  V30 3836 C 635.476 5.20775 -5.52155 0
M  V30 3837 O 635.686 4.56534 -4.22446 0
M  V30 3838 C 636.876 5.62629 -5.96531 0
M  V30 3839 O 637.266 6.87667 -5.41053 0
M  V30 3840 C 637.756 4.52537 -5.39283 0
M  V30 3841 C 637.046 4.20027 -4.08623 0
M  V30 3842 N 637.096 2.7613 -3.71522 0
M  V30 3843 C 637.246 2.43702 -2.37085 0
M  V30 3844 O 637.336 3.3531 -1.54039 0
M  V30 3845 N 637.296 0.951103 -2.10621 0
M  V30 3846 C 637.196 0.165021 -2.93537 0
M  V30 3847 N 637.246 -1.09723 -2.53253 0
M  V30 3848 C 637.046 0.469576 -4.32458 0
M  V30 3849 C 636.996 1.78658 -4.65921 0
M  V30 3850 H 634.256 4.79645 -7.23919 0
M  V30 3851 H 633.987 3.69802 -5.84429 0
M  V30 3852 H 634.854 6.10431 -5.41508 0
M  V30 3853 H 637.509 4.78733 -3.27967 0
M  V30 3854 H 637.788 3.64957 -6.05871 0
M  V30 3855 H 638.78 4.8868 -5.2125 0
M  V30 3856 H 636.946 5.66726 -7.06352 0
M  V30 3857 H 636.874 2.06987 -5.70299 0
M  V30 3858 H 636.976 -0.314383 -5.07728 0
M  V30 3859 H 637.364 -1.31363 -1.5319 0
M  V30 3860 H 637.167 -1.85978 -3.21943 0
M  V30 3861 P 638.816 7.20834 -5.23717 0
M  V30 3862 O 639.036 8.66274 -5.38678 0
M  V30 3863 O 639.606 6.33687 -6.13629 0
M  V30 3864 O 639.066 6.7751 -3.72168 0
M  V30 3865 C 638.126 7.20919 -2.70795 0
M  V30 3866 C 638.856 7.45864 -1.40599 0
M  V30 3867 O 639.066 6.17751 -0.734343 0
M  V30 3868 C 640.256 8.05906 -1.51917 0
M  V30 3869 O 640.646 8.74358 -0.335205 0
M  V30 3870 C 641.136 6.83093 -1.70294 0
M  V30 3871 C 640.426 5.79992 -0.836974 0
M  V30 3872 N 640.476 4.41864 -1.38293 0
M  V30 3873 C 640.396 4.02089 -2.69407 0
M  V30 3874 N 640.466 2.73403 -2.85089 0
M  V30 3875 C 640.616 2.25086 -1.5642 0
M  V30 3876 C 640.746 0.942887 -1.04836 0
M  V30 3877 N 640.756 -0.150999 -1.80369 0
M  V30 3878 N 640.866 0.812565 0.28167 0
M  V30 3879 C 640.856 1.90572 1.03784 0
M  V30 3880 N 640.736 3.167 0.683905 0
M  V30 3881 C 640.616 3.26538 -0.652815 0
M  V30 3882 H 637.638 8.13738 -3.03804 0
M  V30 3883 H 637.366 6.42974 -2.55559 0
M  V30 3884 H 638.234 8.12139 -0.792866 0
M  V30 3885 H 640.889 5.80178 0.160643 0
M  V30 3886 H 641.169 6.51379 -2.75643 0
M  V30 3887 H 642.16 7.01832 -1.3448 0
M  V30 3888 H 640.326 8.73771 -2.38364 0
M  V30 3889 H 640.285 4.7189 -3.52311 0
M  V30 3890 H 640.666 -0.0721434 -2.82608 0
M  V30 3891 H 640.855 -1.0785 -1.36544 0
M  V30 3892 H 640.963 1.73207 2.10241 0
M  V30 3893 P 642.196 8.91 4.32688e-12 0
M  V30 3894 O 642.416 10.1746 0.733838 0
M  V30 3895 O 642.986 8.73346 -1.23964 0
M  V30 3896 O 642.446 7.66872 0.971405 0
M  V30 3897 C 641.506 7.42405 2.04668 0
M  V30 3898 C 642.236 6.86059 3.24661 0
M  V30 3899 O 642.446 5.42934 3.03695 0
M  V30 3900 C 643.636 7.41287 3.50796 0
M  V30 3901 O 644.026 7.27073 4.86816 0
M  V30 3902 C 644.516 6.5273 2.63741 0
M  V30 3903 C 643.806 5.1842 2.73198 0
M  V30 3904 N 643.856 4.38762 1.4784 0
M  V30 3905 C 643.776 4.83651 0.183876 0
M  V30 3906 N 643.846 3.88759 -0.699393 0
M  V30 3907 C 643.996 2.7404 0.0575568 0
M  V30 3908 C 644.126 1.37902 -0.293928 0
M  V30 3909 N 644.136 0.938021 -1.54797 0
M  V30 3910 N 644.246 0.491817 0.70549 0
M  V30 3911 C 644.236 0.931735 1.95979 0
M  V30 3912 N 644.116 2.16017 2.41481 0
M  V30 3913 C 643.996 3.02547 1.39121 0
M  V30 3914 H 641.018 8.36899 2.3252 0
M  V30 3915 H 640.746 6.70391 1.71179 0
M  V30 3916 H 641.614 7.03638 4.13219 0
M  V30 3917 H 644.269 4.59931 3.54016 0
M  V30 3918 H 644.549 6.88995 1.59871 0
M  V30 3919 H 645.54 6.4684 3.0373 0
M  V30 3920 H 643.706 8.47002 3.20749 0
M  V30 3921 H 643.665 5.8885 -0.0765548 0
M  V30 3922 H 644.046 1.60276 -2.32875 0
M  V30 3923 H 644.235 -0.0699355 -1.73859 0
M  V30 3924 H 644.343 0.165507 2.71897 0
M  V30 3925 P 645.576 7.20834 5.23717 0
M  V30 3926 O 645.796 7.79853 6.57286 0
M  V30 3927 O 646.366 7.79239 4.12957 0
M  V30 3928 O 645.826 5.63315 5.29344 0
M  V30 3929 C 644.886 4.80255 6.01876 0
M  V30 3930 C 645.616 3.64202 6.65911 0
M  V30 3931 O 645.826 2.60694 5.64732 0
M  V30 3932 C 647.016 3.93473 7.1943 0
M  V30 3933 O 647.406 3.02071 8.21205 0
M  V30 3934 C 647.896 3.73047 5.97036 0
M  V30 3935 C 647.186 2.58828 5.25741 0
M  V30 3936 N 647.236 2.68068 3.77503 0
M  V30 3937 H 644.397 5.40332 6.79951 0
M  V30 3938 H 644.127 4.41613 5.32378 0
M  V30 3939 H 644.994 3.26331 7.47797 0
M  V30 3940 P 648.956 2.75334 8.47391 0
M  V30 3941 O 649.176 2.44595 9.90239 0
M  V30 3942 O 649.746 3.87732 7.92204 0
M  V30 3943 O 649.206 1.4459 7.59357 0
M  V30 3944 C 648.266 0.347563 7.69115 0
M  V30 3945 C 648.996 -0.96767 7.52806 0
M  V30 3946 O 649.206 -1.21036 6.1011 0
M  V30 3947 C 650.396 -1.04544 8.13308 0
M  V30 3948 O 650.786 -2.38311 8.41922 0
M  V30 3949 C 651.276 -0.491279 7.02284 0
M  V30 3950 C 650.566 -0.996264 5.77469 0
M  V30 3951 N 650.616 -0.0501808 4.62873 0
M  V30 3952 C 650.766 -0.588177 3.36904 0
M  V30 3953 O 650.856 -1.78598 3.17173 0
M  V30 3954 N 650.806 0.329694 2.33686 0
M  V30 3955 C 650.716 1.6953 2.45079 0
M  V30 3956 C 650.566 2.16933 3.80505 0
M  V30 3957 C 650.516 1.30326 4.83752 0
M  V30 3958 H 647.776 0.374722 8.67691 0
M  V30 3959 H 647.507 0.443421 6.90177 0
M  V30 3960 H 648.374 -1.75537 7.96793 0
M  V30 3961 H 651.029 -1.94496 5.46629 0
M  V30 3962 H 651.308 0.608651 7.04676 0
M  V30 3963 H 652.3 -0.889672 7.08939 0
M  V30 3964 H 650.466 -0.43308 9.04564 0
M  V30 3965 H 650.395 1.68366 5.8516 0
M  V30 3966 P 652.336 -2.75334 8.47391 0
M  V30 3967 O 652.556 -3.84128 9.44797 0
M  V30 3968 O 653.126 -1.51947 8.68712 0
M  V30 3969 O 652.586 -3.29363 6.99321 0
M  V30 3970 C 651.646 -4.24011 6.4274 0
M  V30 3971 C 652.376 -5.20775 5.52155 0
M  V30 3972 O 652.586 -4.56534 4.22446 0
M  V30 3973 C 653.776 -5.62629 5.96531 0
M  V30 3974 O 654.166 -6.87667 5.41053 0
M  V30 3975 C 654.656 -4.52537 5.39283 0
M  V30 3976 C 653.946 -4.20027 4.08623 0
M  V30 3977 N 653.996 -2.76189 3.71603 0
M  V30 3978 H 651.157 -4.797 7.24003 0
M  V30 3979 H 650.887 -3.69856 5.84513 0
M  V30 3980 H 651.754 -6.10356 5.41441 0
M  V30 3981 P 655.716 -7.20834 5.23717 0
M  V30 3982 O 655.936 -8.66189 5.38625 0
M  V30 3983 O 656.506 -6.33615 6.1356 0
M  V30 3984 O 655.966 -6.7751 3.72168 0
M  V30 3985 C 655.026 -7.20732 2.70725 0
M  V30 3986 C 655.756 -7.45864 1.40599 0
M  V30 3987 O 655.966 -6.17651 0.734225 0
M  V30 3988 C 657.156 -8.05808 1.51899 0
M  V30 3989 O 657.546 -8.74358 0.335205 0
M  V30 3990 C 658.036 -6.83093 1.70294 0
M  V30 3991 C 657.326 -5.79992 0.836974 0
M  V30 3992 N 657.376 -4.41769 1.38263 0
M  V30 3993 C 657.526 -3.38591 0.481702 0
M  V30 3994 O 657.616 -3.56839 -0.718452 0
M  V30 3995 N 657.566 -2.1206 1.03569 0
M  V30 3996 C 657.476 -1.80696 2.36966 0
M  V30 3997 C 657.326 -2.94845 3.23898 0
M  V30 3998 C 657.276 -4.19803 2.73435 0
M  V30 3999 H 654.536 -8.13644 3.0377 0
M  V30 4000 H 654.267 -6.42695 2.55448 0
M  V30 4001 H 655.134 -8.12039 0.792769 0
M  V30 4002 H 657.789 -5.79978 -0.160587 0
M  V30 4003 H 658.068 -6.51379 2.75643 0
M  V30 4004 H 659.06 -7.01734 1.34462 0
M  V30 4005 H 657.226 -8.73674 2.38337 0
M  V30 4006 H 657.155 -5.04492 3.4095 0
M  V30 4007 P 659.096 -8.91 -4.48406e-12 0
M  V30 4008 O 659.316 -10.1726 -0.733694 0
M  V30 4009 O 659.886 -8.73148 1.23936 0
M  V30 4010 O 659.346 -7.66872 -0.971405 0
M  V30 4011 C 658.406 -7.42309 -2.04641 0
M  V30 4012 C 659.136 -6.86059 -3.24661 0
M  V30 4013 O 659.346 -5.42847 -3.03646 0
M  V30 4014 C 660.536 -7.41196 -3.50753 0
M  V30 4015 O 660.926 -7.27073 -4.86816 0
M  V30 4016 C 661.416 -6.5273 -2.63741 0
M  V30 4017 C 660.706 -5.1842 -2.73198 0
M  V30 4018 N 660.756 -4.38762 -1.4784 0
M  V30 4019 H 657.917 -8.36803 -2.32493 0
M  V30 4020 H 657.647 -6.70197 -1.71129 0
M  V30 4021 H 658.514 -7.03551 -4.13168 0
M  V30 4022 P 662.476 -7.20834 -5.23717 0
M  V30 4023 O 662.696 -7.79853 -6.57286 0
M  V30 4024 O 663.266 -7.79239 -4.12957 0
M  V30 4025 O 662.726 -5.63315 -5.29344 0
M  V30 4026 C 661.786 -4.80255 -6.01876 0
M  V30 4027 C 662.516 -3.64202 -6.65911 0
M  V30 4028 O 662.726 -2.60694 -5.64732 0
M  V30 4029 C 663.916 -3.93473 -7.1943 0
M  V30 4030 O 664.306 -3.02071 -8.21205 0
M  V30 4031 C 664.796 -3.73047 -5.97036 0
M  V30 4032 C 664.086 -2.58828 -5.25741 0
M  V30 4033 N 664.136 -2.68068 -3.77503 0
M  V30 4034 H 661.297 -5.40332 -6.79951 0
M  V30 4035 H 661.027 -4.41613 -5.32378 0
M  V30 4036 H 661.894 -3.26331 -7.47797 0
M  V30 4037 P 665.856 -2.75334 -8.47391 0
M  V30 4038 O 666.076 -2.44571 -9.90142 0
M  V30 4039 O 666.646 -3.87688 -7.92115 0
M  V30 4040 O 666.106 -1.4459 -7.59357 0
M  V30 4041 C 665.166 -0.347608 -7.69215 0
M  V30 4042 C 665.896 0.96767 -7.52806 0
M  V30 4043 O 666.106 1.21036 -6.1011 0
M  V30 4044 C 667.296 1.04544 -8.13308 0
M  V30 4045 O 667.686 2.38311 -8.41922 0
M  V30 4046 C 668.176 0.491279 -7.02284 0
M  V30 4047 C 667.466 0.996264 -5.77469 0
M  V30 4048 N 667.516 0.0501916 -4.62973 0
M  V30 4049 H 664.677 -0.374722 -8.67691 0
M  V30 4050 H 664.407 -0.443485 -6.90277 0
M  V30 4051 H 665.274 1.75537 -7.96793 0
M  V30 4052 P 669.236 2.75334 -8.47391 0
M  V30 4053 O 669.456 3.84128 -9.44797 0
M  V30 4054 O 670.026 1.51947 -8.68712 0
M  V30 4055 O 669.486 3.29363 -6.99321 0
M  V30 4056 C 668.546 4.24011 -6.4274 0
M  V30 4057 C 669.276 5.20775 -5.52155 0
M  V30 4058 O 669.486 4.56534 -4.22446 0
M  V30 4059 C 670.676 5.62629 -5.96531 0
M  V30 4060 O 671.066 6.87667 -5.41053 0
M  V30 4061 C 671.556 4.52537 -5.39283 0
M  V30 4062 C 670.846 4.20027 -4.08623 0
M  V30 4063 N 670.896 2.76189 -3.71603 0
M  V30 4064 H 668.057 4.797 -7.24003 0
M  V30 4065 H 667.787 3.69856 -5.84513 0
M  V30 4066 H 668.654 6.10356 -5.41441 0
M  V30 4067 P 672.616 7.20834 -5.23717 0
M  V30 4068 O 672.836 8.66104 -5.38572 0
M  V30 4069 O 673.406 6.33544 -6.1349 0
M  V30 4070 O 672.866 6.7751 -3.72168 0
M  V30 4071 C 671.926 7.20825 -2.7076 0
M  V30 4072 C 672.656 7.45864 -1.40599 0
M  V30 4073 O 672.866 6.17651 -0.734225 0
M  V30 4074 C 674.056 8.05808 -1.51899 0
M  V30 4075 O 674.446 8.74358 -0.335205 0
M  V30 4076 C 674.936 6.83093 -1.70294 0
M  V30 4077 C 674.226 5.79992 -0.836974 0
M  V30 4078 N 674.276 4.41864 -1.38293 0
M  V30 4079 H 671.437 8.13644 -3.0377 0
M  V30 4080 H 671.167 6.42788 -2.55485 0
M  V30 4081 H 672.034 8.12039 -0.792769 0
M  V30 4082 P 675.996 8.91 4.64125e-12 0
M  V30 4083 O 676.216 10.1726 0.733694 0
M  V30 4084 O 676.786 8.73148 -1.23936 0
M  V30 4085 O 676.246 7.66872 0.971405 0
M  V30 4086 C 675.306 7.42309 2.04641 0
M  V30 4087 C 676.036 6.86059 3.24661 0
M  V30 4088 O 676.246 5.42847 3.03646 0
M  V30 4089 C 677.436 7.41196 3.50753 0
M  V30 4090 O 677.826 7.27073 4.86816 0
M  V30 4091 C 678.316 6.5273 2.63741 0
M  V30 4092 C 677.606 5.1842 2.73198 0
M  V30 4093 N 677.656 4.38762 1.4784 0
M  V30 4094 H 674.817 8.36803 2.32493 0
M  V30 4095 H 674.547 6.70197 1.71129 0
M  V30 4096 H 675.414 7.03551 4.13168 0
M  V30 4097 P 679.376 7.20834 5.23717 0
M  V30 4098 O 679.596 7.79853 6.57286 0
M  V30 4099 O 680.166 7.79239 4.12957 0
M  V30 4100 O 679.626 5.63315 5.29344 0
M  V30 4101 C 678.686 4.80255 6.01876 0
M  V30 4102 C 679.416 3.64202 6.65911 0
M  V30 4103 O 679.626 2.60694 5.64732 0
M  V30 4104 C 680.816 3.93473 7.1943 0
M  V30 4105 O 681.206 3.02071 8.21205 0
M  V30 4106 C 681.696 3.73047 5.97036 0
M  V30 4107 C 680.986 2.58828 5.25741 0
M  V30 4108 N 681.036 2.68068 3.77503 0
M  V30 4109 H 678.197 5.40332 6.79951 0
M  V30 4110 H 677.927 4.41613 5.32378 0
M  V30 4111 H 678.794 3.26331 7.47797 0
M  V30 4112 P 682.756 2.75334 8.47391 0
M  V30 4113 O 682.976 2.44571 9.90142 0
M  V30 4114 O 683.546 3.87688 7.92115 0
M  V30 4115 O 683.006 1.4459 7.59357 0
M  V30 4116 C 682.066 0.347608 7.69215 0
M  V30 4117 C 682.796 -0.96767 7.52806 0
M  V30 4118 O 683.006 -1.21036 6.1011 0
M  V30 4119 C 684.196 -1.04544 8.13308 0
M  V30 4120 O 684.586 -2.38311 8.41922 0
M  V30 4121 C 685.076 -0.491279 7.02284 0
M  V30 4122 C 684.366 -0.996264 5.77469 0
M  V30 4123 N 684.416 -0.0501916 4.62973 0
M  V30 4124 H 681.577 0.374722 8.67691 0
M  V30 4125 H 681.307 0.443485 6.90277 0
M  V30 4126 H 682.174 -1.75537 7.96793 0
M  V30 4127 P 686.136 -2.75334 8.47391 0
M  V30 4128 O 686.356 -3.84128 9.44797 0
M  V30 4129 O 686.926 -1.51947 8.68712 0
M  V30 4130 O 686.386 -3.29363 6.99321 0
M  V30 4131 C 685.446 -4.24011 6.4274 0
M  V30 4132 C 686.176 -5.20775 5.52155 0
M  V30 4133 O 686.386 -4.56534 4.22446 0
M  V30 4134 C 687.576 -5.62629 5.96531 0
M  V30 4135 O 687.966 -6.87667 5.41053 0
M  V30 4136 C 688.456 -4.52537 5.39283 0
M  V30 4137 C 687.746 -4.20027 4.08623 0
M  V30 4138 N 687.796 -2.76189 3.71603 0
M  V30 4139 H 684.957 -4.797 7.24003 0
M  V30 4140 H 684.687 -3.69856 5.84513 0
M  V30 4141 H 685.554 -6.10356 5.41441 0
M  V30 4142 P 689.516 -7.20834 5.23717 0
M  V30 4143 O 689.736 -8.66274 5.38678 0
M  V30 4144 O 690.306 -6.33687 6.13629 0
M  V30 4145 O 689.766 -6.7751 3.72168 0
M  V30 4146 C 688.826 -7.20919 2.70795 0
M  V30 4147 C 689.556 -7.45864 1.40599 0
M  V30 4148 O 689.766 -6.17751 0.734343 0
M  V30 4149 C 690.956 -8.05906 1.51917 0
M  V30 4150 O 691.346 -8.74358 0.335205 0
M  V30 4151 C 691.836 -6.83093 1.70294 0
M  V30 4152 C 691.126 -5.79992 0.836974 0
M  V30 4153 N 691.176 -4.41864 1.38293 0
M  V30 4154 H 688.338 -8.13738 3.03804 0
M  V30 4155 H 688.066 -6.42974 2.55559 0
M  V30 4156 H 688.934 -8.12139 0.792866 0
M  V30 4157 H 691.589 -5.80178 -0.160643 0
M  V30 4158 H 691.869 -6.51379 2.75643 0
M  V30 4159 H 692.86 -7.01832 1.3448 0
M  V30 4160 H 691.026 -8.73771 2.38364 0
M  V30 4161 P 692.896 -8.91 -4.67181e-12 0
M  V30 4162 O 693.116 -10.1726 -0.733694 0
M  V30 4163 O 693.686 -8.73148 1.23936 0
M  V30 4164 O 693.146 -7.66872 -0.971405 0
M  V30 4165 C 692.206 -7.42309 -2.04641 0
M  V30 4166 C 692.936 -6.86059 -3.24661 0
M  V30 4167 O 693.146 -5.42847 -3.03646 0
M  V30 4168 C 694.336 -7.41196 -3.50753 0
M  V30 4169 O 694.726 -7.27073 -4.86816 0
M  V30 4170 C 695.216 -6.5273 -2.63741 0
M  V30 4171 C 694.506 -5.1842 -2.73198 0
M  V30 4172 N 694.556 -4.38762 -1.4784 0
M  V30 4173 H 691.717 -8.36803 -2.32493 0
M  V30 4174 H 691.447 -6.70197 -1.71129 0
M  V30 4175 H 692.314 -7.03551 -4.13168 0
M  V30 4176 P 696.276 -7.20834 -5.23717 0
M  V30 4177 O 696.496 -7.79853 -6.57286 0
M  V30 4178 O 697.066 -7.79239 -4.12957 0
M  V30 4179 O 696.526 -5.63315 -5.29344 0
M  V30 4180 C 695.586 -4.80255 -6.01876 0
M  V30 4181 C 696.316 -3.64202 -6.65911 0
M  V30 4182 O 696.526 -2.60694 -5.64732 0
M  V30 4183 C 697.716 -3.93473 -7.1943 0
M  V30 4184 O 698.106 -3.02071 -8.21205 0
M  V30 4185 C 698.596 -3.73047 -5.97036 0
M  V30 4186 C 697.886 -2.58828 -5.25741 0
M  V30 4187 N 697.936 -2.68068 -3.77503 0
M  V30 4188 H 695.097 -5.40332 -6.79951 0
M  V30 4189 H 694.827 -4.41613 -5.32378 0
M  V30 4190 H 695.694 -3.26331 -7.47797 0
M  V30 4191 P 699.656 -2.75334 -8.47391 0
M  V30 4192 O 699.876 -2.44619 -9.90336 0
M  V30 4193 O 700.446 -3.87776 -7.92294 0
M  V30 4194 O 699.906 -1.4459 -7.59357 0
M  V30 4195 C 698.966 -0.347653 -7.69315 0
M  V30 4196 C 699.696 0.96767 -7.52806 0
M  V30 4197 O 699.906 1.21055 -6.10208 0
M  V30 4198 C 701.096 1.04557 -8.13408 0
M  V30 4199 O 701.486 2.38311 -8.41922 0
M  V30 4200 C 701.976 0.491279 -7.02284 0
M  V30 4201 C 701.266 0.996264 -5.77469 0
M  V30 4202 N 701.316 0.0501916 -4.62973 0
M  V30 4203 H 698.478 -0.374765 -8.67791 0
M  V30 4204 H 698.206 -0.443613 -6.90476 0
M  V30 4205 H 699.074 1.75559 -7.96891 0
M  V30 4206 H 701.729 1.94563 -5.46818 0
M  V30 4207 H 702.009 -0.608651 -7.04676 0
M  V30 4208 H 703 0.889796 -7.09039 0
M  V30 4209 H 701.166 0.433128 -9.04664 0
M  V30 4210 P 703.036 2.75334 -8.47391 0
M  V30 4211 O 703.256 3.84128 -9.44797 0
M  V30 4212 O 703.826 1.51947 -8.68712 0
M  V30 4213 O 703.286 3.29363 -6.99321 0
M  V30 4214 C 702.346 4.24011 -6.4274 0
M  V30 4215 C 703.076 5.20775 -5.52155 0
M  V30 4216 O 703.286 4.56534 -4.22446 0
M  V30 4217 C 704.476 5.62629 -5.96531 0
M  V30 4218 O 704.866 6.87667 -5.41053 0
M  V30 4219 C 705.356 4.52537 -5.39283 0
M  V30 4220 C 704.646 4.20027 -4.08623 0
M  V30 4221 N 704.696 2.76189 -3.71603 0
M  V30 4222 H 701.857 4.797 -7.24003 0
M  V30 4223 H 701.587 3.69856 -5.84513 0
M  V30 4224 H 702.454 6.10356 -5.41441 0
M  V30 4225 P 706.416 7.20834 -5.23717 0
M  V30 4226 O 706.636 8.66104 -5.38572 0
M  V30 4227 O 707.206 6.33544 -6.1349 0
M  V30 4228 O 706.666 6.7751 -3.72168 0
M  V30 4229 C 705.726 7.20825 -2.7076 0
M  V30 4230 C 706.456 7.45864 -1.40599 0
M  V30 4231 O 706.666 6.17651 -0.734225 0
M  V30 4232 C 707.856 8.05808 -1.51899 0
M  V30 4233 O 708.246 8.74358 -0.335205 0
M  V30 4234 C 708.736 6.83093 -1.70294 0
M  V30 4235 C 708.026 5.79992 -0.836974 0
M  V30 4236 N 708.076 4.41864 -1.38293 0
M  V30 4237 H 705.237 8.13644 -3.0377 0
M  V30 4238 H 704.967 6.42788 -2.55485 0
M  V30 4239 H 705.834 8.12039 -0.792769 0
M  V30 4240 P 709.796 8.91 4.82899e-12 0
M  V30 4241 O 710.016 10.1746 0.733838 0
M  V30 4242 O 710.586 8.73346 -1.23964 0
M  V30 4243 O 710.046 7.66872 0.971405 0
M  V30 4244 C 709.106 7.42405 2.04668 0
M  V30 4245 C 709.836 6.86059 3.24661 0
M  V30 4246 O 710.046 5.42934 3.03695 0
M  V30 4247 C 711.236 7.41287 3.50796 0
M  V30 4248 O 711.626 7.27073 4.86816 0
M  V30 4249 C 712.116 6.5273 2.63741 0
M  V30 4250 C 711.406 5.1842 2.73198 0
M  V30 4251 N 711.456 4.38762 1.4784 0
M  V30 4252 C 711.376 4.83651 0.183876 0
M  V30 4253 N 711.446 3.88759 -0.699393 0
M  V30 4254 C 711.596 2.7404 0.0575568 0
M  V30 4255 C 711.726 1.37902 -0.293928 0
M  V30 4256 N 711.736 0.938021 -1.54797 0
M  V30 4257 N 711.846 0.491817 0.70549 0
M  V30 4258 C 711.836 0.931735 1.95979 0
M  V30 4259 N 711.716 2.16017 2.41481 0
M  V30 4260 C 711.596 3.02547 1.39121 0
M  V30 4261 H 708.618 8.36899 2.3252 0
M  V30 4262 H 708.346 6.70391 1.71179 0
M  V30 4263 H 709.214 7.03638 4.13219 0
M  V30 4264 H 711.869 4.59931 3.54016 0
M  V30 4265 H 712.149 6.88995 1.59871 0
M  V30 4266 H 713.14 6.4684 3.0373 0
M  V30 4267 H 711.306 8.47002 3.20749 0
M  V30 4268 H 711.265 5.8885 -0.0765548 0
M  V30 4269 H 711.646 1.60276 -2.32875 0
M  V30 4270 H 711.835 -0.0699355 -1.73859 0
M  V30 4271 H 711.943 0.165507 2.71897 0
M  V30 4272 P 713.176 7.20834 5.23717 0
M  V30 4273 O 713.396 7.79853 6.57286 0
M  V30 4274 O 713.966 7.79239 4.12957 0
M  V30 4275 O 713.426 5.63315 5.29344 0
M  V30 4276 C 712.486 4.80255 6.01876 0
M  V30 4277 C 713.216 3.64202 6.65911 0
M  V30 4278 O 713.426 2.60694 5.64732 0
M  V30 4279 C 714.616 3.93473 7.1943 0
M  V30 4280 O 715.006 3.02071 8.21205 0
M  V30 4281 C 715.496 3.73047 5.97036 0
M  V30 4282 C 714.786 2.58828 5.25741 0
M  V30 4283 N 714.836 2.68068 3.77503 0
M  V30 4284 C 714.756 3.79715 2.96723 0
M  V30 4285 N 714.836 3.5377 1.68852 0
M  V30 4286 C 714.976 2.15054 1.63254 0
M  V30 4287 C 715.106 1.28964 0.518571 0
M  V30 4288 O 715.126 1.56826 -0.679156 0
M  V30 4289 N 715.226 -0.0538097 0.918425 0
M  V30 4290 C 715.226 -0.494275 2.22578 0
M  V30 4291 N 715.356 -1.81086 2.40434 0
M  V30 4292 N 715.096 0.313645 3.27502 0
M  V30 4293 C 714.976 1.61829 2.91033 0
M  V30 4294 H 711.997 5.40332 6.79951 0
M  V30 4295 H 711.727 4.41613 5.32378 0
M  V30 4296 H 712.594 3.26331 7.47797 0
M  V30 4297 H 715.249 1.63422 5.56814 0
M  V30 4298 H 715.528 4.63374 5.34244 0
M  V30 4299 H 716.52 3.44728 6.25838 0
M  V30 4300 H 714.686 4.96652 7.57263 0
M  V30 4301 H 714.637 4.80617 3.3614 0
M  V30 4302 H 715.319 -0.742702 0.199384 0
M  V30 4303 H 715.356 -2.20598 3.35588 0
M  V30 4304 H 715.457 -2.43518 1.58945 0
M  V30 4305 P 716.556 2.75334 8.47391 0
M  V30 4306 O 716.776 2.44571 9.90142 0
M  V30 4307 O 717.346 3.87688 7.92115 0
M  V30 4308 O 716.806 1.4459 7.59357 0
M  V30 4309 C 715.866 0.347608 7.69215 0
M  V30 4310 C 716.596 -0.96767 7.52806 0
M  V30 4311 O 716.806 -1.21036 6.1011 0
M  V30 4312 C 717.996 -1.04544 8.13308 0
M  V30 4313 O 718.386 -2.38311 8.41922 0
M  V30 4314 C 718.876 -0.491279 7.02284 0
M  V30 4315 C 718.166 -0.996264 5.77469 0
M  V30 4316 N 718.216 -0.0501916 4.62973 0
M  V30 4317 C 718.136 1.32786 4.63244 0
M  V30 4318 N 718.216 1.86957 3.44545 0
M  V30 4319 C 718.356 0.780241 2.58481 0
M  V30 4320 C 718.486 0.738536 1.17757 0
M  V30 4321 N 718.606 -0.58337 0.711393 0
M  V30 4322 C 718.606 -1.70816 1.51017 0
M  V30 4323 N 718.736 -2.87826 0.880757 0
M  V30 4324 N 718.476 -1.67126 2.8339 0
M  V30 4325 C 718.356 -0.401421 3.30572 0
M  V30 4326 H 715.377 0.374722 8.67691 0
M  V30 4327 H 715.107 0.443485 6.90277 0
M  V30 4328 H 715.974 -1.75537 7.96793 0
M  V30 4329 P 719.936 -2.75334 8.47391 0
M  V30 4330 O 720.156 -3.84128 9.44797 0
M  V30 4331 O 720.726 -1.51947 8.68712 0
M  V30 4332 O 720.186 -3.29363 6.99321 0
M  V30 4333 C 719.246 -4.24011 6.4274 0
M  V30 4334 C 719.976 -5.20775 5.52155 0
M  V30 4335 O 720.186 -4.56534 4.22446 0
M  V30 4336 C 721.376 -5.62629 5.96531 0
M  V30 4337 O 721.766 -6.87667 5.41053 0
M  V30 4338 C 722.256 -4.52537 5.39283 0
M  V30 4339 C 721.546 -4.20027 4.08623 0
M  V30 4340 N 721.596 -2.76189 3.71603 0
M  V30 4341 H 718.757 -4.797 7.24003 0
M  V30 4342 H 718.487 -3.69856 5.84513 0
M  V30 4343 H 719.354 -6.10356 5.41441 0
M  V30 4344 P 723.316 -7.20834 5.23717 0
M  V30 4345 O 723.536 -8.66274 5.38678 0
M  V30 4346 O 724.106 -6.33687 6.13629 0
M  V30 4347 O 723.566 -6.7751 3.72168 0
M  V30 4348 C 722.626 -7.20919 2.70795 0
M  V30 4349 C 723.356 -7.45864 1.40599 0
M  V30 4350 O 723.566 -6.17751 0.734343 0
M  V30 4351 C 724.756 -8.05906 1.51917 0
M  V30 4352 O 725.146 -8.74358 0.335205 0
M  V30 4353 C 725.636 -6.83093 1.70294 0
M  V30 4354 C 724.926 -5.79992 0.836974 0
M  V30 4355 N 724.976 -4.41864 1.38293 0
M  V30 4356 C 724.896 -4.02089 2.69407 0
M  V30 4357 N 724.966 -2.73403 2.85089 0
M  V30 4358 C 725.116 -2.25086 1.5642 0
M  V30 4359 C 725.246 -0.942887 1.04836 0
M  V30 4360 N 725.256 0.150999 1.80369 0
M  V30 4361 N 725.366 -0.812565 -0.28167 0
M  V30 4362 C 725.356 -1.90572 -1.03784 0
M  V30 4363 N 725.236 -3.167 -0.683905 0
M  V30 4364 C 725.116 -3.26538 0.652815 0
M  V30 4365 H 722.138 -8.13738 3.03804 0
M  V30 4366 H 721.866 -6.42974 2.55559 0
M  V30 4367 H 722.734 -8.12139 0.792866 0
M  V30 4368 H 725.389 -5.80178 -0.160643 0
M  V30 4369 H 725.669 -6.51379 2.75643 0
M  V30 4370 H 726.66 -7.01832 1.3448 0
M  V30 4371 H 724.826 -8.73771 2.38364 0
M  V30 4372 H 724.785 -4.7189 3.52311 0
M  V30 4373 H 725.166 0.0721434 2.82608 0
M  V30 4374 H 725.355 1.0785 1.36544 0
M  V30 4375 H 725.463 -1.73207 -2.10241 0
M  V30 4376 P 726.696 -8.91 -4.98617e-12 0
M  V30 4377 O 726.916 -10.1726 -0.733694 0
M  V30 4378 O 727.486 -8.73148 1.23936 0
M  V30 4379 O 726.946 -7.66872 -0.971405 0
M  V30 4380 C 726.006 -7.42309 -2.04641 0
M  V30 4381 C 726.736 -6.86059 -3.24661 0
M  V30 4382 O 726.946 -5.42847 -3.03646 0
M  V30 4383 C 728.136 -7.41196 -3.50753 0
M  V30 4384 O 728.526 -7.27073 -4.86816 0
M  V30 4385 C 729.016 -6.5273 -2.63741 0
M  V30 4386 C 728.306 -5.1842 -2.73198 0
M  V30 4387 N 728.356 -4.38762 -1.4784 0
M  V30 4388 H 725.517 -8.36803 -2.32493 0
M  V30 4389 H 725.247 -6.70197 -1.71129 0
M  V30 4390 H 726.114 -7.03551 -4.13168 0
M  V30 4391 P 730.076 -7.20834 -5.23717 0
M  V30 4392 O 730.296 -7.79853 -6.57286 0
M  V30 4393 O 730.866 -7.79239 -4.12957 0
M  V30 4394 O 730.326 -5.63315 -5.29344 0
M  V30 4395 C 729.386 -4.80255 -6.01876 0
M  V30 4396 C 730.116 -3.64202 -6.65911 0
M  V30 4397 O 730.326 -2.60694 -5.64732 0
M  V30 4398 C 731.516 -3.93473 -7.1943 0
M  V30 4399 O 731.906 -3.02071 -8.21205 0
M  V30 4400 C 732.396 -3.73047 -5.97036 0
M  V30 4401 C 731.686 -2.58828 -5.25741 0
M  V30 4402 N 731.736 -2.68068 -3.77503 0
M  V30 4403 H 728.897 -5.40332 -6.79951 0
M  V30 4404 H 728.627 -4.41613 -5.32378 0
M  V30 4405 H 729.494 -3.26331 -7.47797 0
M  V30 4406 P 733.456 -2.75334 -8.47391 0
M  V30 4407 O 733.676 -2.44571 -9.90142 0
M  V30 4408 O 734.246 -3.87688 -7.92115 0
M  V30 4409 O 733.706 -1.4459 -7.59357 0
M  V30 4410 C 732.766 -0.347608 -7.69215 0
M  V30 4411 C 733.496 0.96767 -7.52806 0
M  V30 4412 O 733.706 1.21036 -6.1011 0
M  V30 4413 C 734.896 1.04544 -8.13308 0
M  V30 4414 O 735.286 2.38311 -8.41922 0
M  V30 4415 C 735.776 0.491279 -7.02284 0
M  V30 4416 C 735.066 0.996264 -5.77469 0
M  V30 4417 N 735.116 0.0501916 -4.62973 0
M  V30 4418 H 732.277 -0.374722 -8.67691 0
M  V30 4419 H 732.007 -0.443485 -6.90277 0
M  V30 4420 H 732.874 1.75537 -7.96793 0
M  V30 4421 P 736.836 2.75334 -8.47391 0
M  V30 4422 O 737.056 3.84204 -9.44982 0
M  V30 4423 O 737.626 1.51982 -8.68909 0
M  V30 4424 O 737.086 3.29363 -6.99321 0
M  V30 4425 C 736.146 4.24066 -6.42823 0
M  V30 4426 C 736.876 5.20775 -5.52155 0
M  V30 4427 O 737.086 4.56607 -4.22514 0
M  V30 4428 C 738.276 5.62697 -5.96604 0
M  V30 4429 O 738.666 6.87667 -5.41053 0
M  V30 4430 C 739.156 4.52537 -5.39283 0
M  V30 4431 C 738.446 4.20027 -4.08623 0
M  V30 4432 N 738.496 2.76189 -3.71603 0
M  V30 4433 C 738.416 1.66944 -4.54297 0
M  V30 4434 N 738.486 0.536169 -3.91344 0
M  V30 4435 C 738.636 0.901569 -2.58849 0
M  V30 4436 C 738.766 0.146599 -1.40236 0
M  V30 4437 N 738.776 -1.18234 -1.37046 0
M  V30 4438 N 738.886 0.822941 -0.249738 0
M  V30 4439 C 738.876 2.15179 -0.280525 0
M  V30 4440 N 738.756 2.96414 -1.30822 0
M  V30 4441 C 738.636 2.25804 -2.44748 0
M  V30 4442 H 735.658 4.79756 -7.24086 0
M  V30 4443 H 735.386 3.69963 -5.84682 0
M  V30 4444 H 736.254 6.10431 -5.41508 0
M  V30 4445 H 738.909 4.78816 -3.28024 0
M  V30 4446 H 739.189 3.64957 -6.05871 0
M  V30 4447 H 740.18 4.88748 -5.21323 0
M  V30 4448 H 738.346 5.66789 -7.0643 0
M  V30 4449 H 738.305 1.74684 -5.62396 0
M  V30 4450 H 738.686 -1.71949 -2.24394 0
M  V30 4451 H 738.875 -1.67511 -0.470742 0
M  V30 4452 H 738.983 2.63704 0.6828 0
M  V30 4453 P 740.216 7.20834 -5.23717 0
M  V30 4454 O 740.436 8.66274 -5.38678 0
M  V30 4455 O 741.006 6.33687 -6.13629 0
M  V30 4456 O 740.466 6.7751 -3.72168 0
M  V30 4457 C 739.526 7.20919 -2.70795 0
M  V30 4458 C 740.256 7.45864 -1.40599 0
M  V30 4459 O 740.466 6.17751 -0.734343 0
M  V30 4460 C 741.656 8.05906 -1.51917 0
M  V30 4461 O 742.046 8.74358 -0.335205 0
M  V30 4462 C 742.536 6.83093 -1.70294 0
M  V30 4463 C 741.826 5.79992 -0.836974 0
M  V30 4464 N 741.876 4.41864 -1.38293 0
M  V30 4465 C 741.796 4.02089 -2.69407 0
M  V30 4466 N 741.866 2.73403 -2.85089 0
M  V30 4467 C 742.016 2.25086 -1.5642 0
M  V30 4468 C 742.146 0.942887 -1.04836 0
M  V30 4469 N 742.156 -0.150999 -1.80369 0
M  V30 4470 N 742.266 0.812565 0.28167 0
M  V30 4471 C 742.256 1.90572 1.03784 0
M  V30 4472 N 742.136 3.167 0.683905 0
M  V30 4473 C 742.016 3.26538 -0.652815 0
M  V30 4474 H 739.038 8.13738 -3.03804 0
M  V30 4475 H 738.766 6.42974 -2.55559 0
M  V30 4476 H 739.634 8.12139 -0.792866 0
M  V30 4477 H 742.289 5.80178 0.160643 0
M  V30 4478 H 742.569 6.51379 -2.75643 0
M  V30 4479 H 743.56 7.01832 -1.3448 0
M  V30 4480 H 741.726 8.73771 -2.38364 0
M  V30 4481 H 741.685 4.7189 -3.52311 0
M  V30 4482 H 742.066 -0.0721434 -2.82608 0
M  V30 4483 H 742.255 -1.0785 -1.36544 0
M  V30 4484 H 742.363 1.73207 2.10241 0
M  V30 4485 P 743.596 8.91 5.14336e-12 0
M  V30 4486 O 743.816 10.1726 0.733694 0
M  V30 4487 O 744.386 8.73148 -1.23936 0
M  V30 4488 O 743.846 7.66872 0.971405 0
M  V30 4489 C 742.906 7.42309 2.04641 0
M  V30 4490 C 743.636 6.86059 3.24661 0
M  V30 4491 O 743.846 5.42847 3.03646 0
M  V30 4492 C 745.036 7.41196 3.50753 0
M  V30 4493 O 745.426 7.27073 4.86816 0
M  V30 4494 C 745.916 6.5273 2.63741 0
M  V30 4495 C 745.206 5.1842 2.73198 0
M  V30 4496 N 745.256 4.38762 1.4784 0
M  V30 4497 H 742.417 8.36803 2.32493 0
M  V30 4498 H 742.147 6.70197 1.71129 0
M  V30 4499 H 743.014 7.03551 4.13168 0
M  V30 4500 P 746.976 7.20834 5.23717 0
M  V30 4501 O 747.196 7.79853 6.57286 0
M  V30 4502 O 747.766 7.79239 4.12957 0
M  V30 4503 O 747.226 5.63315 5.29344 0
M  V30 4504 C 746.286 4.80255 6.01876 0
M  V30 4505 C 747.016 3.64202 6.65911 0
M  V30 4506 O 747.226 2.60694 5.64732 0
M  V30 4507 C 748.416 3.93473 7.1943 0
M  V30 4508 O 748.806 3.02071 8.21205 0
M  V30 4509 C 749.296 3.73047 5.97036 0
M  V30 4510 C 748.586 2.58828 5.25741 0
M  V30 4511 N 748.636 2.68068 3.77503 0
M  V30 4512 H 745.797 5.40332 6.79951 0
M  V30 4513 H 745.527 4.41613 5.32378 0
M  V30 4514 H 746.394 3.26331 7.47797 0
M  V30 4515 P 750.356 2.75334 8.47391 0
M  V30 4516 O 750.576 2.44571 9.90142 0
M  V30 4517 O 751.146 3.87688 7.92115 0
M  V30 4518 O 750.606 1.4459 7.59357 0
M  V30 4519 C 749.666 0.347608 7.69215 0
M  V30 4520 C 750.396 -0.96767 7.52806 0
M  V30 4521 O 750.606 -1.21036 6.1011 0
M  V30 4522 C 751.796 -1.04544 8.13308 0
M  V30 4523 O 752.186 -2.38311 8.41922 0
M  V30 4524 C 752.676 -0.491279 7.02284 0
M  V30 4525 C 751.966 -0.996264 5.77469 0
M  V30 4526 N 752.016 -0.0501916 4.62973 0
M  V30 4527 H 749.177 0.374722 8.67691 0
M  V30 4528 H 748.907 0.443485 6.90277 0
M  V30 4529 H 749.774 -1.75537 7.96793 0
M  V30 4530 P 753.736 -2.75334 8.47391 0
M  V30 4531 O 753.956 -3.84128 9.44797 0
M  V30 4532 O 754.526 -1.51947 8.68712 0
M  V30 4533 O 753.986 -3.29363 6.99321 0
M  V30 4534 C 753.046 -4.24011 6.4274 0
M  V30 4535 C 753.776 -5.20775 5.52155 0
M  V30 4536 O 753.986 -4.56534 4.22446 0
M  V30 4537 C 755.176 -5.62629 5.96531 0
M  V30 4538 O 755.566 -6.87667 5.41053 0
M  V30 4539 C 756.056 -4.52537 5.39283 0
M  V30 4540 C 755.346 -4.20027 4.08623 0
M  V30 4541 N 755.396 -2.76189 3.71603 0
M  V30 4542 H 752.557 -4.797 7.24003 0
M  V30 4543 H 752.287 -3.69856 5.84513 0
M  V30 4544 H 753.154 -6.10356 5.41441 0
M  V30 4545 P 757.116 -7.20834 5.23717 0
M  V30 4546 O 757.336 -8.66274 5.38678 0
M  V30 4547 O 757.906 -6.33687 6.13629 0
M  V30 4548 O 757.366 -6.7751 3.72168 0
M  V30 4549 C 756.426 -7.20919 2.70795 0
M  V30 4550 C 757.156 -7.45864 1.40599 0
M  V30 4551 O 757.366 -6.17751 0.734343 0
M  V30 4552 C 758.556 -8.05906 1.51917 0
M  V30 4553 O 758.946 -8.74358 0.335205 0
M  V30 4554 C 759.436 -6.83093 1.70294 0
M  V30 4555 C 758.726 -5.79992 0.836974 0
M  V30 4556 N 758.776 -4.41864 1.38293 0
M  V30 4557 C 758.696 -4.02089 2.69407 0
M  V30 4558 N 758.766 -2.73403 2.85089 0
M  V30 4559 C 758.916 -2.25086 1.5642 0
M  V30 4560 C 759.046 -0.942887 1.04836 0
M  V30 4561 N 759.056 0.150999 1.80369 0
M  V30 4562 N 759.166 -0.812565 -0.28167 0
M  V30 4563 C 759.156 -1.90572 -1.03784 0
M  V30 4564 N 759.036 -3.167 -0.683905 0
M  V30 4565 C 758.916 -3.26538 0.652815 0
M  V30 4566 H 755.938 -8.13738 3.03804 0
M  V30 4567 H 755.666 -6.42974 2.55559 0
M  V30 4568 H 756.534 -8.12139 0.792866 0
M  V30 4569 H 759.189 -5.80178 -0.160643 0
M  V30 4570 H 759.469 -6.51379 2.75643 0
M  V30 4571 H 760.46 -7.01832 1.3448 0
M  V30 4572 H 758.626 -8.73771 2.38364 0
M  V30 4573 H 758.585 -4.7189 3.52311 0
M  V30 4574 H 758.966 0.0721434 2.82608 0
M  V30 4575 H 759.155 1.0785 1.36544 0
M  V30 4576 H 759.263 -1.73207 -2.10241 0
M  V30 4577 P 760.496 -8.91 -5.30054e-12 0
M  V30 4578 O 760.716 -10.1726 -0.733694 0
M  V30 4579 O 761.286 -8.73148 1.23936 0
M  V30 4580 O 760.746 -7.66872 -0.971405 0
M  V30 4581 C 759.806 -7.42309 -2.04641 0
M  V30 4582 C 760.536 -6.86059 -3.24661 0
M  V30 4583 O 760.746 -5.42847 -3.03646 0
M  V30 4584 C 761.936 -7.41196 -3.50753 0
M  V30 4585 O 762.326 -7.27073 -4.86816 0
M  V30 4586 C 762.816 -6.5273 -2.63741 0
M  V30 4587 C 762.106 -5.1842 -2.73198 0
M  V30 4588 N 762.156 -4.38762 -1.4784 0
M  V30 4589 C 762.076 -4.81605 -0.168631 0
M  V30 4590 N 762.156 -3.85454 0.713363 0
M  V30 4591 C 762.296 -2.6994 -0.0566958 0
M  V30 4592 C 762.426 -1.34815 0.338502 0
M  V30 4593 O 762.446 -0.869548 1.47125 0
M  V30 4594 N 762.546 -0.496304 -0.77465 0
M  V30 4595 C 762.546 -0.908403 -2.09122 0
M  V30 4596 N 762.676 0.0517805 -3.00955 0
M  V30 4597 N 762.416 -2.17875 -2.46519 0
M  V30 4598 C 762.296 -3.01988 -1.4033 0
M  V30 4599 H 759.317 -8.36803 -2.32493 0
M  V30 4600 H 759.047 -6.70197 -1.71129 0
M  V30 4601 H 759.914 -7.03551 -4.13168 0
M  V30 4602 H 762.569 -4.59498 -3.54415 0
M  V30 4603 H 762.848 -6.88898 -1.59848 0
M  V30 4604 H 763.84 -6.46749 -3.03687 0
M  V30 4605 H 762.006 -8.46908 -3.20714 0
M  V30 4606 H 761.957 -5.86405 0.105564 0
M  V30 4607 H 762.639 0.483664 -0.597855 0
M  V30 4608 H 762.676 -0.187865 -4.0116 0
M  V30 4609 H 762.777 1.03585 -2.71726 0
M  V30 4610 P 763.875 -7.20834 -5.23717 0
M  V30 4611 O 764.095 -7.79853 -6.57286 0
M  V30 4612 O 764.665 -7.79239 -4.12957 0
M  V30 4613 O 764.125 -5.63315 -5.29344 0
M  V30 4614 C 763.185 -4.80255 -6.01876 0
M  V30 4615 C 763.915 -3.64202 -6.65911 0
M  V30 4616 O 764.125 -2.60694 -5.64732 0
M  V30 4617 C 765.315 -3.93473 -7.1943 0
M  V30 4618 O 765.705 -3.02071 -8.21205 0
M  V30 4619 C 766.195 -3.73047 -5.97036 0
M  V30 4620 C 765.485 -2.58828 -5.25741 0
M  V30 4621 N 765.535 -2.68068 -3.77503 0
M  V30 4622 H 762.696 -5.40332 -6.79951 0
M  V30 4623 H 762.426 -4.41613 -5.32378 0
M  V30 4624 H 763.293 -3.26331 -7.47797 0
M  V30 4625 P 767.255 -2.75334 -8.47391 0
M  V30 4626 O 767.475 -2.44571 -9.90142 0
M  V30 4627 O 768.045 -3.87688 -7.92115 0
M  V30 4628 O 767.505 -1.4459 -7.59357 0
M  V30 4629 C 766.565 -0.347608 -7.69215 0
M  V30 4630 C 767.295 0.96767 -7.52806 0
M  V30 4631 O 767.505 1.21036 -6.1011 0
M  V30 4632 C 768.695 1.04544 -8.13308 0
M  V30 4633 O 769.085 2.38311 -8.41922 0
M  V30 4634 C 769.575 0.491279 -7.02284 0
M  V30 4635 C 768.865 0.996264 -5.77469 0
M  V30 4636 N 768.915 0.0501916 -4.62973 0
M  V30 4637 H 766.076 -0.374722 -8.67691 0
M  V30 4638 H 765.806 -0.443485 -6.90277 0
M  V30 4639 H 766.673 1.75537 -7.96793 0
M  V30 4640 P 770.635 2.75334 -8.47391 0
M  V30 4641 O 770.855 3.84128 -9.44797 0
M  V30 4642 O 771.425 1.51947 -8.68712 0
M  V30 4643 O 770.885 3.29363 -6.99321 0
M  V30 4644 C 769.945 4.24011 -6.4274 0
M  V30 4645 C 770.675 5.20775 -5.52155 0
M  V30 4646 O 770.885 4.56534 -4.22446 0
M  V30 4647 C 772.075 5.62629 -5.96531 0
M  V30 4648 O 772.465 6.87667 -5.41053 0
M  V30 4649 C 772.955 4.52537 -5.39283 0
M  V30 4650 C 772.245 4.20027 -4.08623 0
M  V30 4651 N 772.295 2.76189 -3.71603 0
M  V30 4652 C 772.215 1.64862 -4.52822 0
M  V30 4653 N 772.295 0.512671 -3.88633 0
M  V30 4654 C 772.435 0.888083 -2.54977 0
M  V30 4655 C 772.565 0.094668 -1.38677 0
M  V30 4656 N 772.685 0.890102 -0.232633 0
M  V30 4657 C 772.685 2.26958 -0.21772 0
M  V30 4658 N 772.815 2.84626 0.97925 0
M  V30 4659 N 772.555 3.0178 -1.31033 0
M  V30 4660 C 772.435 2.26781 -2.43843 0
M  V30 4661 H 769.456 4.797 -7.24003 0
M  V30 4662 H 769.186 3.69856 -5.84513 0
M  V30 4663 H 770.053 6.10356 -5.41441 0
M  V30 4664 P 774.015 7.20834 -5.23717 0
M  V30 4665 O 774.235 8.66104 -5.38572 0
M  V30 4666 O 774.805 6.33544 -6.1349 0
M  V30 4667 O 774.265 6.7751 -3.72168 0
M  V30 4668 C 773.325 7.20825 -2.7076 0
M  V30 4669 C 774.055 7.45864 -1.40599 0
M  V30 4670 O 774.265 6.17651 -0.734225 0
M  V30 4671 C 775.455 8.05808 -1.51899 0
M  V30 4672 O 775.845 8.74358 -0.335205 0
M  V30 4673 C 776.335 6.83093 -1.70294 0
M  V30 4674 C 775.625 5.79992 -0.836974 0
M  V30 4675 N 775.675 4.41864 -1.38293 0
M  V30 4676 H 772.836 8.13644 -3.0377 0
M  V30 4677 H 772.566 6.42788 -2.55485 0
M  V30 4678 H 773.433 8.12039 -0.792769 0
M  V30 4679 P 777.395 8.91 5.45772e-12 0
M  V30 4680 O 777.615 10.1746 0.733838 0
M  V30 4681 O 778.185 8.73346 -1.23964 0
M  V30 4682 O 777.645 7.66872 0.971405 0
M  V30 4683 C 776.705 7.42405 2.04668 0
M  V30 4684 C 777.435 6.86059 3.24661 0
M  V30 4685 O 777.645 5.42934 3.03695 0
M  V30 4686 C 778.835 7.41287 3.50796 0
M  V30 4687 O 779.225 7.27073 4.86816 0
M  V30 4688 C 779.715 6.5273 2.63741 0
M  V30 4689 C 779.005 5.1842 2.73198 0
M  V30 4690 N 779.055 4.38762 1.4784 0
M  V30 4691 C 778.975 4.83651 0.183876 0
M  V30 4692 N 779.045 3.88759 -0.699393 0
M  V30 4693 C 779.195 2.7404 0.0575568 0
M  V30 4694 C 779.325 1.37902 -0.293928 0
M  V30 4695 N 779.335 0.938021 -1.54797 0
M  V30 4696 N 779.445 0.491817 0.70549 0
M  V30 4697 C 779.435 0.931735 1.95979 0
M  V30 4698 N 779.315 2.16017 2.41481 0
M  V30 4699 C 779.195 3.02547 1.39121 0
M  V30 4700 H 776.217 8.36899 2.3252 0
M  V30 4701 H 775.945 6.70391 1.71179 0
M  V30 4702 H 776.813 7.03638 4.13219 0
M  V30 4703 H 779.468 4.59931 3.54016 0
M  V30 4704 H 779.748 6.88995 1.59871 0
M  V30 4705 H 780.739 6.4684 3.0373 0
M  V30 4706 H 778.905 8.47002 3.20749 0
M  V30 4707 H 778.864 5.8885 -0.0765548 0
M  V30 4708 H 779.245 1.60276 -2.32875 0
M  V30 4709 H 779.434 -0.0699355 -1.73859 0
M  V30 4710 H 779.542 0.165507 2.71897 0
M  V30 4711 P 780.775 7.20834 5.23717 0
M  V30 4712 O 780.995 7.79853 6.57286 0
M  V30 4713 O 781.565 7.79239 4.12957 0
M  V30 4714 O 781.025 5.63315 5.29344 0
M  V30 4715 C 780.085 4.80255 6.01876 0
M  V30 4716 C 780.815 3.64202 6.65911 0
M  V30 4717 O 781.025 2.60694 5.64732 0
M  V30 4718 C 782.215 3.93473 7.1943 0
M  V30 4719 O 782.605 3.02071 8.21205 0
M  V30 4720 C 783.095 3.73047 5.97036 0
M  V30 4721 C 782.385 2.58828 5.25741 0
M  V30 4722 N 782.435 2.68068 3.77503 0
M  V30 4723 H 779.596 5.40332 6.79951 0
M  V30 4724 H 779.326 4.41613 5.32378 0
M  V30 4725 H 780.193 3.26331 7.47797 0
M  V30 4726 P 784.155 2.75334 8.47391 0
M  V30 4727 O 784.375 2.44571 9.90142 0
M  V30 4728 O 784.945 3.87688 7.92115 0
M  V30 4729 O 784.405 1.4459 7.59357 0
M  V30 4730 C 783.465 0.347608 7.69215 0
M  V30 4731 C 784.195 -0.96767 7.52806 0
M  V30 4732 O 784.405 -1.21036 6.1011 0
M  V30 4733 C 785.595 -1.04544 8.13308 0
M  V30 4734 O 785.985 -2.38311 8.41922 0
M  V30 4735 C 786.475 -0.491279 7.02284 0
M  V30 4736 C 785.765 -0.996264 5.77469 0
M  V30 4737 N 785.815 -0.0501916 4.62973 0
M  V30 4738 H 782.976 0.374722 8.67691 0
M  V30 4739 H 782.706 0.443485 6.90277 0
M  V30 4740 H 783.573 -1.75537 7.96793 0
M  V30 4741 P 787.535 -2.75334 8.47391 0
M  V30 4742 O 787.755 -3.84128 9.44797 0
M  V30 4743 O 788.325 -1.51947 8.68712 0
M  V30 4744 O 787.785 -3.29363 6.99321 0
M  V30 4745 C 786.845 -4.24011 6.4274 0
M  V30 4746 C 787.575 -5.20775 5.52155 0
M  V30 4747 O 787.785 -4.56534 4.22446 0
M  V30 4748 C 788.975 -5.62629 5.96531 0
M  V30 4749 O 789.365 -6.87667 5.41053 0
M  V30 4750 C 789.855 -4.52537 5.39283 0
M  V30 4751 C 789.145 -4.20027 4.08623 0
M  V30 4752 N 789.195 -2.76189 3.71603 0
M  V30 4753 H 786.356 -4.797 7.24003 0
M  V30 4754 H 786.086 -3.69856 5.84513 0
M  V30 4755 H 786.953 -6.10356 5.41441 0
M  V30 4756 P 790.915 -7.20834 5.23717 0
M  V30 4757 O 791.135 -8.66189 5.38625 0
M  V30 4758 O 791.705 -6.33615 6.1356 0
M  V30 4759 O 791.165 -6.7751 3.72168 0
M  V30 4760 C 790.225 -7.20825 2.7076 0
M  V30 4761 C 790.955 -7.45864 1.40599 0
M  V30 4762 O 791.165 -6.17651 0.734225 0
M  V30 4763 C 792.355 -8.05808 1.51899 0
M  V30 4764 O 792.745 -8.74358 0.335205 0
M  V30 4765 C 793.235 -6.83093 1.70294 0
M  V30 4766 C 792.525 -5.79992 0.836974 0
M  V30 4767 N 792.575 -4.41769 1.38263 0
M  V30 4768 C 792.725 -3.36514 0.485617 0
M  V30 4769 O 792.815 -3.61814 -0.724703 0
M  V30 4770 N 792.775 -2.00746 1.14492 0
M  V30 4771 C 792.675 -1.85887 2.27776 0
M  V30 4772 N 792.725 -0.600907 2.69379 0
M  V30 4773 C 792.525 -2.92182 3.22265 0
M  V30 4774 C 792.475 -4.18399 2.71925 0
M  V30 4775 H 789.735 -8.1355 3.03735 0
M  V30 4776 H 789.466 -6.42695 2.55448 0
M  V30 4777 H 790.333 -8.12139 0.792866 0
M  V30 4778 H 792.988 -5.80078 -0.160615 0
M  V30 4779 H 793.267 -6.51379 2.75643 0
M  V30 4780 H 794.259 -7.01734 1.34462 0
M  V30 4781 H 792.425 -8.73674 2.38337 0
M  V30 4782 H 792.353 -5.02669 3.39718 0
M  V30 4783 H 792.455 -2.73001 4.29239 0
M  V30 4784 H 792.843 0.162318 2.01146 0
M  V30 4785 H 792.646 -0.387742 3.69773 0
M  V30 4786 P 794.295 -8.91 -5.6149e-12 0
M  V30 4787 O 794.515 -10.1726 -0.733694 0
M  V30 4788 O 795.085 -8.73148 1.23936 0
M  V30 4789 O 794.545 -7.66872 -0.971405 0
M  V30 4790 C 793.605 -7.42309 -2.04641 0
M  V30 4791 C 794.335 -6.86059 -3.24661 0
M  V30 4792 O 794.545 -5.42847 -3.03646 0
M  V30 4793 C 795.735 -7.41196 -3.50753 0
M  V30 4794 O 796.125 -7.27073 -4.86816 0
M  V30 4795 C 796.615 -6.5273 -2.63741 0
M  V30 4796 C 795.905 -5.1842 -2.73198 0
M  V30 4797 N 795.955 -4.38762 -1.4784 0
M  V30 4798 H 793.116 -8.36803 -2.32493 0
M  V30 4799 H 792.846 -6.70197 -1.71129 0
M  V30 4800 H 793.713 -7.03551 -4.13168 0
M  V30 4801 P 797.675 -7.20834 -5.23717 0
M  V30 4802 O 797.895 -7.79853 -6.57286 0
M  V30 4803 O 798.465 -7.79239 -4.12957 0
M  V30 4804 O 797.925 -5.63315 -5.29344 0
M  V30 4805 C 796.985 -4.80255 -6.01876 0
M  V30 4806 C 797.715 -3.64202 -6.65911 0
M  V30 4807 O 797.925 -2.60694 -5.64732 0
M  V30 4808 C 799.115 -3.93473 -7.1943 0
M  V30 4809 O 799.505 -3.02071 -8.21205 0
M  V30 4810 C 799.995 -3.73047 -5.97036 0
M  V30 4811 C 799.285 -2.58828 -5.25741 0
M  V30 4812 N 799.335 -2.68068 -3.77503 0
M  V30 4813 H 796.496 -5.40332 -6.79951 0
M  V30 4814 H 796.226 -4.41613 -5.32378 0
M  V30 4815 H 797.093 -3.26331 -7.47797 0
M  V30 4816 P 801.055 -2.75334 -8.47391 0
M  V30 4817 O 801.275 -2.44619 -9.90336 0
M  V30 4818 O 801.845 -3.87776 -7.92294 0
M  V30 4819 O 801.305 -1.4459 -7.59357 0
M  V30 4820 C 800.365 -0.347653 -7.69315 0
M  V30 4821 C 801.095 0.96767 -7.52806 0
M  V30 4822 O 801.305 1.21055 -6.10208 0
M  V30 4823 C 802.495 1.04557 -8.13408 0
M  V30 4824 O 802.885 2.38311 -8.41922 0
M  V30 4825 C 803.375 0.491279 -7.02284 0
M  V30 4826 C 802.665 0.996264 -5.77469 0
M  V30 4827 N 802.715 0.0501916 -4.62973 0
M  V30 4828 C 802.635 -1.31969 -4.65661 0
M  V30 4829 N 802.705 -1.86649 -3.48119 0
M  V30 4830 C 802.855 -0.792089 -2.62406 0
M  V30 4831 C 802.985 -0.705684 -1.2207 0
M  V30 4832 N 802.995 -1.76207 -0.413762 0
M  V30 4833 N 803.105 0.518981 -0.685754 0
M  V30 4834 C 803.095 1.57595 -1.49174 0
M  V30 4835 N 802.975 1.62909 -2.80066 0
M  V30 4836 C 802.855 0.388195 -3.3073 0
M  V30 4837 H 799.877 -0.374765 -8.67791 0
M  V30 4838 H 799.605 -0.443613 -6.90476 0
M  V30 4839 H 800.473 1.75559 -7.96891 0
M  V30 4840 H 803.128 1.94563 -5.46818 0
M  V30 4841 H 803.408 -0.608651 -7.04676 0
M  V30 4842 H 804.399 0.889796 -7.09039 0
M  V30 4843 H 802.565 0.433128 -9.04664 0
M  V30 4844 H 802.524 -1.89246 -5.57664 0
M  V30 4845 H 802.905 -2.71005 -0.804694 0
M  V30 4846 H 803.094 -1.63189 0.603768 0
M  V30 4847 H 803.202 2.53475 -0.997614 0
M  V30 4848 P 804.435 2.75334 -8.47391 0
M  V30 4849 O 804.655 3.84128 -9.44797 0
M  V30 4850 O 805.225 1.51947 -8.68712 0
M  V30 4851 O 804.685 3.29363 -6.99321 0
M  V30 4852 C 803.745 4.24011 -6.4274 0
M  V30 4853 C 804.475 5.20775 -5.52155 0
M  V30 4854 O 804.685 4.56534 -4.22446 0
M  V30 4855 C 805.875 5.62629 -5.96531 0
M  V30 4856 O 806.265 6.87667 -5.41053 0
M  V30 4857 C 806.755 4.52537 -5.39283 0
M  V30 4858 C 806.045 4.20027 -4.08623 0
M  V30 4859 N 806.095 2.76189 -3.71603 0
M  V30 4860 H 803.256 4.797 -7.24003 0
M  V30 4861 H 802.986 3.69856 -5.84513 0
M  V30 4862 H 803.853 6.10356 -5.41441 0
M  V30 4863 P 807.815 7.20834 -5.23717 0
M  V30 4864 O 808.035 8.66104 -5.38572 0
M  V30 4865 O 808.605 6.33544 -6.1349 0
M  V30 4866 O 808.065 6.7751 -3.72168 0
M  V30 4867 C 807.125 7.20825 -2.7076 0
M  V30 4868 C 807.855 7.45864 -1.40599 0
M  V30 4869 O 808.065 6.17651 -0.734225 0
M  V30 4870 C 809.255 8.05808 -1.51899 0
M  V30 4871 O 809.645 8.74358 -0.335205 0
M  V30 4872 C 810.135 6.83093 -1.70294 0
M  V30 4873 C 809.425 5.79992 -0.836974 0
M  V30 4874 N 809.475 4.41864 -1.38293 0
M  V30 4875 H 806.636 8.13644 -3.0377 0
M  V30 4876 H 806.366 6.42788 -2.55485 0
M  V30 4877 H 807.233 8.12039 -0.792769 0
M  V30 4878 P 811.195 8.91 5.77209e-12 0
M  V30 4879 O 811.415 10.1736 0.733766 0
M  V30 4880 O 811.985 8.73247 -1.2395 0
M  V30 4881 O 811.445 7.66872 0.971405 0
M  V30 4882 C 810.505 7.42309 2.04641 0
M  V30 4883 C 811.235 6.86059 3.24661 0
M  V30 4884 O 811.445 5.42847 3.03646 0
M  V30 4885 C 812.635 7.41196 3.50753 0
M  V30 4886 O 813.025 7.27073 4.86816 0
M  V30 4887 C 813.515 6.5273 2.63741 0
M  V30 4888 C 812.805 5.1842 2.73198 0
M  V30 4889 N 812.855 4.38668 1.47808 0
M  V30 4890 C 813.005 3.00789 1.58511 0
M  V30 4891 O 813.095 2.50116 2.71298 0
M  V30 4892 N 813.055 2.29703 0.253698 0
M  V30 4893 C 812.955 2.84269 -0.750133 0
M  V30 4894 N 813.005 2.06951 -1.82612 0
M  V30 4895 C 812.805 4.25803 -0.889776 0
M  V30 4896 C 812.755 4.98326 0.259363 0
M  V30 4897 H 810.015 8.36707 2.32466 0
M  V30 4898 H 809.746 6.701 1.71105 0
M  V30 4899 H 810.613 7.03638 4.13219 0
M  V30 4900 H 813.268 4.59852 3.53955 0
M  V30 4901 H 813.547 6.88995 1.59871 0
M  V30 4902 H 814.539 6.46749 3.03687 0
M  V30 4903 H 812.705 8.46908 3.20714 0
M  V30 4904 H 812.633 6.06349 0.206238 0
M  V30 4905 H 812.735 4.73163 -1.86796 0
M  V30 4906 H 813.123 1.05099 -1.72271 0
M  V30 4907 H 812.926 2.48716 -2.76361 0
M  V30 4908 P 814.575 7.20834 5.23717 0
M  V30 4909 O 814.795 7.80006 6.57415 0
M  V30 4910 O 815.365 7.79416 4.13051 0
M  V30 4911 O 814.825 5.63315 5.29344 0
M  V30 4912 C 813.885 4.80318 6.01954 0
M  V30 4913 C 814.615 3.64202 6.65911 0
M  V30 4914 O 814.825 2.60736 5.64823 0
M  V30 4915 C 816.015 3.93521 7.19518 0
M  V30 4916 O 816.405 3.02071 8.21205 0
M  V30 4917 C 816.895 3.73047 5.97036 0
M  V30 4918 C 816.185 2.58828 5.25741 0
M  V30 4919 N 816.235 2.68068 3.77503 0
M  V30 4920 H 813.397 5.40394 6.8003 0
M  V30 4921 H 813.125 4.41741 5.32532 0
M  V30 4922 H 813.993 3.26371 7.47889 0
M  V30 4923 H 816.648 1.64007 5.56746 0
M  V30 4924 H 816.928 4.63439 5.3432 0
M  V30 4925 H 817.919 3.44776 6.25925 0
M  V30 4926 H 816.085 4.96707 7.57347 0
M  V30 4927 P 817.955 2.75334 8.47391 0
M  V30 4928 O 818.175 2.44571 9.90142 0
M  V30 4929 O 818.745 3.87688 7.92115 0
M  V30 4930 O 818.205 1.4459 7.59357 0
M  V30 4931 C 817.265 0.347608 7.69215 0
M  V30 4932 C 817.995 -0.96767 7.52806 0
M  V30 4933 O 818.205 -1.21036 6.1011 0
M  V30 4934 C 819.395 -1.04544 8.13308 0
M  V30 4935 O 819.785 -2.38311 8.41922 0
M  V30 4936 C 820.275 -0.491279 7.02284 0
M  V30 4937 C 819.565 -0.996264 5.77469 0
M  V30 4938 N 819.615 -0.0501916 4.62973 0
M  V30 4939 H 816.776 0.374722 8.67691 0
M  V30 4940 H 816.506 0.443485 6.90277 0
M  V30 4941 H 817.373 -1.75537 7.96793 0
M  V30 4942 P 821.335 -2.75334 8.47391 0
M  V30 4943 O 821.555 -3.84128 9.44797 0
M  V30 4944 O 822.125 -1.51947 8.68712 0
M  V30 4945 O 821.585 -3.29363 6.99321 0
M  V30 4946 C 820.645 -4.24011 6.4274 0
M  V30 4947 C 821.375 -5.20775 5.52155 0
M  V30 4948 O 821.585 -4.56534 4.22446 0
M  V30 4949 C 822.775 -5.62629 5.96531 0
M  V30 4950 O 823.165 -6.87667 5.41053 0
M  V30 4951 C 823.655 -4.52537 5.39283 0
M  V30 4952 C 822.945 -4.20027 4.08623 0
M  V30 4953 N 822.995 -2.76189 3.71603 0
M  V30 4954 H 820.156 -4.797 7.24003 0
M  V30 4955 H 819.886 -3.69856 5.84513 0
M  V30 4956 H 820.753 -6.10356 5.41441 0
M  V30 4957 P 824.715 -7.20834 5.23717 0
M  V30 4958 O 824.935 -8.66104 5.38572 0
M  V30 4959 O 825.505 -6.33544 6.1349 0
M  V30 4960 O 824.965 -6.7751 3.72168 0
M  V30 4961 C 824.025 -7.20825 2.7076 0
M  V30 4962 C 824.755 -7.45864 1.40599 0
M  V30 4963 O 824.965 -6.17651 0.734225 0
M  V30 4964 C 826.155 -8.05808 1.51899 0
M  V30 4965 O 826.545 -8.74358 0.335205 0
M  V30 4966 C 827.035 -6.83093 1.70294 0
M  V30 4967 C 826.325 -5.79992 0.836974 0
M  V30 4968 N 826.375 -4.41864 1.38293 0
M  V30 4969 C 826.295 -3.99538 2.69438 0
M  V30 4970 N 826.375 -2.69909 2.84277 0
M  V30 4971 C 826.515 -2.21719 1.5408 0
M  V30 4972 C 826.645 -0.891712 1.06628 0
M  V30 4973 O 826.665 0.161298 1.70137 0
M  V30 4974 N 826.765 -0.856846 -0.334985 0
M  V30 4975 C 826.765 -1.9641 -1.15789 0
M  V30 4976 N 826.895 -1.72708 -2.46522 0
M  V30 4977 N 826.635 -3.21165 -0.713741 0
M  V30 4978 C 826.515 -3.26797 0.639748 0
M  V30 4979 H 823.536 -8.13644 3.0377 0
M  V30 4980 H 823.266 -6.42788 2.55485 0
M  V30 4981 H 824.133 -8.12039 0.792769 0
M  V30 4982 H 826.788 -5.80061 -0.166416 0
M  V30 4983 H 827.067 -6.51287 2.75604 0
M  V30 4984 H 828.059 -7.01734 1.34462 0
M  V30 4985 H 826.225 -8.73674 2.38337 0
M  V30 4986 H 826.176 -4.68207 3.53221 0
M  V30 4987 H 826.858 0.0398818 -0.767965 0
M  V30 4988 H 826.895 -2.50995 -3.13503 0
M  V30 4989 H 826.996 -0.759148 -2.80716 0
M  V30 4990 P 828.095 -8.91 -5.92927e-12 0
M  V30 4991 O 828.315 -10.1746 -0.733838 0
M  V30 4992 O 828.885 -8.73346 1.23964 0
M  V30 4993 O 828.345 -7.66872 -0.971405 0
M  V30 4994 C 827.405 -7.42405 -2.04668 0
M  V30 4995 C 828.135 -6.86059 -3.24661 0
M  V30 4996 O 828.345 -5.42934 -3.03695 0
M  V30 4997 C 829.535 -7.41287 -3.50796 0
M  V30 4998 O 829.925 -7.27073 -4.86816 0
M  V30 4999 C 830.415 -6.5273 -2.63741 0
M  V30 5000 C 829.705 -5.1842 -2.73198 0
M  V30 5001 N 829.755 -4.38762 -1.4784 0
M  V30 5002 H 826.917 -8.36899 -2.3252 0
M  V30 5003 H 826.645 -6.70391 -1.71179 0
M  V30 5004 H 827.513 -7.03638 -4.13219 0
M  V30 5005 H 830.168 -4.59931 -3.54016 0
M  V30 5006 H 830.448 -6.88995 -1.59871 0
M  V30 5007 H 831.439 -6.4684 -3.0373 0
M  V30 5008 H 829.605 -8.47002 -3.20749 0
M  V30 5009 P 831.475 -7.20834 -5.23717 0
M  V30 5010 O 831.695 -7.79853 -6.57286 0
M  V30 5011 O 832.265 -7.79239 -4.12957 0
M  V30 5012 O 831.725 -5.63315 -5.29344 0
M  V30 5013 C 830.785 -4.80255 -6.01876 0
M  V30 5014 C 831.515 -3.64202 -6.65911 0
M  V30 5015 O 831.725 -2.60694 -5.64732 0
M  V30 5016 C 832.915 -3.93473 -7.1943 0
M  V30 5017 O 833.305 -3.02071 -8.21205 0
M  V30 5018 C 833.795 -3.73047 -5.97036 0
M  V30 5019 C 833.085 -2.58828 -5.25741 0
M  V30 5020 N 833.135 -2.68068 -3.77503 0
M  V30 5021 H 830.296 -5.40332 -6.79951 0
M  V30 5022 H 830.026 -4.41613 -5.32378 0
M  V30 5023 H 830.893 -3.26331 -7.47797 0
M  V30 5024 P 834.855 -2.75334 -8.47391 0
M  V30 5025 O 835.075 -2.44571 -9.90142 0
M  V30 5026 O 835.645 -3.87688 -7.92115 0
M  V30 5027 O 835.105 -1.4459 -7.59357 0
M  V30 5028 C 834.165 -0.347608 -7.69215 0
M  V30 5029 C 834.895 0.96767 -7.52806 0
M  V30 5030 O 835.105 1.21036 -6.1011 0
M  V30 5031 C 836.295 1.04544 -8.13308 0
M  V30 5032 O 836.685 2.38311 -8.41922 0
M  V30 5033 C 837.175 0.491279 -7.02284 0
M  V30 5034 C 836.465 0.996264 -5.77469 0
M  V30 5035 N 836.515 0.0501916 -4.62973 0
M  V30 5036 C 836.435 -1.32786 -4.63244 0
M  V30 5037 N 836.515 -1.86957 -3.44545 0
M  V30 5038 C 836.655 -0.780241 -2.58481 0
M  V30 5039 C 836.785 -0.738536 -1.17757 0
M  V30 5040 N 836.905 0.58337 -0.711393 0
M  V30 5041 C 836.905 1.70816 -1.51017 0
M  V30 5042 N 837.035 2.87826 -0.880757 0
M  V30 5043 N 836.775 1.67126 -2.8339 0
M  V30 5044 C 836.655 0.401421 -3.30572 0
M  V30 5045 H 833.676 -0.374722 -8.67691 0
M  V30 5046 H 833.406 -0.443485 -6.90277 0
M  V30 5047 H 834.273 1.75537 -7.96793 0
M  V30 5048 P 838.235 2.75334 -8.47391 0
M  V30 5049 O 838.455 3.84128 -9.44797 0
M  V30 5050 O 839.025 1.51947 -8.68712 0
M  V30 5051 O 838.485 3.29363 -6.99321 0
M  V30 5052 C 837.545 4.24011 -6.4274 0
M  V30 5053 C 838.275 5.20775 -5.52155 0
M  V30 5054 O 838.485 4.56534 -4.22446 0
M  V30 5055 C 839.675 5.62629 -5.96531 0
M  V30 5056 O 840.065 6.87667 -5.41053 0
M  V30 5057 C 840.555 4.52537 -5.39283 0
M  V30 5058 C 839.845 4.20027 -4.08623 0
M  V30 5059 N 839.895 2.76189 -3.71603 0
M  V30 5060 H 837.056 4.797 -7.24003 0
M  V30 5061 H 836.786 3.69856 -5.84513 0
M  V30 5062 H 837.653 6.10356 -5.41441 0
M  V30 5063 P 841.615 7.20834 -5.23717 0
M  V30 5064 O 841.835 8.66104 -5.38572 0
M  V30 5065 O 842.405 6.33544 -6.1349 0
M  V30 5066 O 841.865 6.7751 -3.72168 0
M  V30 5067 C 840.925 7.20825 -2.7076 0
M  V30 5068 C 841.655 7.45864 -1.40599 0
M  V30 5069 O 841.865 6.17651 -0.734225 0
M  V30 5070 C 843.055 8.05808 -1.51899 0
M  V30 5071 O 843.445 8.74358 -0.335205 0
M  V30 5072 C 843.935 6.83093 -1.70294 0
M  V30 5073 C 843.225 5.79992 -0.836974 0
M  V30 5074 N 843.275 4.41864 -1.38293 0
M  V30 5075 H 840.436 8.13644 -3.0377 0
M  V30 5076 H 840.166 6.42788 -2.55485 0
M  V30 5077 H 841.033 8.12039 -0.792769 0
M  V30 5078 P 844.995 8.91 6.08645e-12 0
M  V30 5079 O 845.215 10.1746 0.733838 0
M  V30 5080 O 845.785 8.73346 -1.23964 0
M  V30 5081 O 845.245 7.66872 0.971405 0
M  V30 5082 C 844.305 7.42405 2.04668 0
M  V30 5083 C 845.035 6.86059 3.24661 0
M  V30 5084 O 845.245 5.42934 3.03695 0
M  V30 5085 C 846.435 7.41287 3.50796 0
M  V30 5086 O 846.825 7.27073 4.86816 0
M  V30 5087 C 847.315 6.5273 2.63741 0
M  V30 5088 C 846.605 5.1842 2.73198 0
M  V30 5089 N 846.655 4.38762 1.4784 0
M  V30 5090 H 843.817 8.36899 2.3252 0
M  V30 5091 H 843.545 6.70391 1.71179 0
M  V30 5092 H 844.413 7.03638 4.13219 0
M  V30 5093 H 847.068 4.59931 3.54016 0
M  V30 5094 H 847.348 6.88995 1.59871 0
M  V30 5095 H 848.339 6.4684 3.0373 0
M  V30 5096 H 846.505 8.47002 3.20749 0
M  V30 5097 P 848.375 7.20834 5.23717 0
M  V30 5098 O 848.595 7.79853 6.57286 0
M  V30 5099 O 849.165 7.79239 4.12957 0
M  V30 5100 O 848.625 5.63315 5.29344 0
M  V30 5101 C 847.685 4.80255 6.01876 0
M  V30 5102 C 848.415 3.64202 6.65911 0
M  V30 5103 O 848.625 2.60694 5.64732 0
M  V30 5104 C 849.815 3.93473 7.1943 0
M  V30 5105 O 850.205 3.02071 8.21205 0
M  V30 5106 C 850.695 3.73047 5.97036 0
M  V30 5107 C 849.985 2.58828 5.25741 0
M  V30 5108 N 850.035 2.68068 3.77503 0
M  V30 5109 H 847.196 5.40332 6.79951 0
M  V30 5110 H 846.926 4.41613 5.32378 0
M  V30 5111 H 847.793 3.26331 7.47797 0
M  V30 5112 P 851.755 2.75334 8.47391 0
M  V30 5113 O 851.975 2.44571 9.90142 0
M  V30 5114 O 852.545 3.87688 7.92115 0
M  V30 5115 O 852.005 1.4459 7.59357 0
M  V30 5116 C 851.065 0.347608 7.69215 0
M  V30 5117 C 851.795 -0.96767 7.52806 0
M  V30 5118 O 852.005 -1.21036 6.1011 0
M  V30 5119 C 853.195 -1.04544 8.13308 0
M  V30 5120 O 853.585 -2.38311 8.41922 0
M  V30 5121 C 854.075 -0.491279 7.02284 0
M  V30 5122 C 853.365 -0.996264 5.77469 0
M  V30 5123 N 853.415 -0.0501916 4.62973 0
M  V30 5124 H 850.576 0.374722 8.67691 0
M  V30 5125 H 850.306 0.443485 6.90277 0
M  V30 5126 H 851.173 -1.75537 7.96793 0
M  V30 5127 P 855.135 -2.75334 8.47391 0
M  V30 5128 O 855.355 -3.84128 9.44797 0
M  V30 5129 O 855.925 -1.51947 8.68712 0
M  V30 5130 O 855.385 -3.29363 6.99321 0
M  V30 5131 C 854.445 -4.24011 6.4274 0
M  V30 5132 C 855.175 -5.20775 5.52155 0
M  V30 5133 O 855.385 -4.56534 4.22446 0
M  V30 5134 C 856.575 -5.62629 5.96531 0
M  V30 5135 O 856.965 -6.87667 5.41053 0
M  V30 5136 C 857.455 -4.52537 5.39283 0
M  V30 5137 C 856.745 -4.20027 4.08623 0
M  V30 5138 N 856.795 -2.76189 3.71603 0
M  V30 5139 H 853.956 -4.797 7.24003 0
M  V30 5140 H 853.686 -3.69856 5.84513 0
M  V30 5141 H 854.553 -6.10356 5.41441 0
M  V30 5142 P 858.515 -7.20834 5.23717 0
M  V30 5143 O 858.735 -8.66274 5.38678 0
M  V30 5144 O 859.305 -6.33687 6.13629 0
M  V30 5145 O 858.765 -6.7751 3.72168 0
M  V30 5146 C 857.825 -7.20919 2.70795 0
M  V30 5147 C 858.555 -7.45864 1.40599 0
M  V30 5148 O 858.765 -6.17751 0.734343 0
M  V30 5149 C 859.955 -8.05906 1.51917 0
M  V30 5150 O 860.345 -8.74358 0.335205 0
M  V30 5151 C 860.835 -6.83093 1.70294 0
M  V30 5152 C 860.125 -5.79992 0.836974 0
M  V30 5153 N 860.175 -4.41864 1.38293 0
M  V30 5154 H 857.337 -8.13738 3.03804 0
M  V30 5155 H 857.065 -6.42974 2.55559 0
M  V30 5156 H 857.933 -8.12139 0.792866 0
M  V30 5157 H 860.588 -5.80178 -0.160643 0
M  V30 5158 H 860.868 -6.51379 2.75643 0
M  V30 5159 H 861.859 -7.01832 1.3448 0
M  V30 5160 H 860.025 -8.73771 2.38364 0
M  V30 5161 P 861.895 -8.91 -6.24363e-12 0
M  V30 5162 O 862.115 -10.1726 -0.733694 0
M  V30 5163 O 862.685 -8.73148 1.23936 0
M  V30 5164 O 862.145 -7.66872 -0.971405 0
M  V30 5165 C 861.205 -7.42309 -2.04641 0
M  V30 5166 C 861.935 -6.86059 -3.24661 0
M  V30 5167 O 862.145 -5.42847 -3.03646 0
M  V30 5168 C 863.335 -7.41196 -3.50753 0
M  V30 5169 O 863.725 -7.27073 -4.86816 0
M  V30 5170 C 864.215 -6.5273 -2.63741 0
M  V30 5171 C 863.505 -5.1842 -2.73198 0
M  V30 5172 N 863.555 -4.38762 -1.4784 0
M  V30 5173 H 860.716 -8.36803 -2.32493 0
M  V30 5174 H 860.446 -6.70197 -1.71129 0
M  V30 5175 H 861.313 -7.03551 -4.13168 0
M  V30 5176 P 865.275 -7.20834 -5.23717 0
M  V30 5177 O 865.495 -7.80006 -6.57415 0
M  V30 5178 O 866.065 -7.79416 -4.13051 0
M  V30 5179 O 865.525 -5.63315 -5.29344 0
M  V30 5180 C 864.585 -4.80318 -6.01954 0
M  V30 5181 C 865.315 -3.64202 -6.65911 0
M  V30 5182 O 865.525 -2.60736 -5.64823 0
M  V30 5183 C 866.715 -3.93521 -7.19518 0
M  V30 5184 O 867.105 -3.02071 -8.21205 0
M  V30 5185 C 867.595 -3.73047 -5.97036 0
M  V30 5186 C 866.885 -2.58828 -5.25741 0
M  V30 5187 N 866.935 -2.68068 -3.77503 0
M  V30 5188 C 866.855 -3.80474 -2.99159 0
M  V30 5189 N 866.925 -3.55622 -1.71925 0
M  V30 5190 C 867.075 -2.1832 -1.65733 0
M  V30 5191 C 867.205 -1.28842 -0.572777 0
M  V30 5192 N 867.215 -1.66875 0.70098 0
M  V30 5193 N 867.325 0.016788 -0.859836 0
M  V30 5194 C 867.315 0.398145 -2.13316 0
M  V30 5195 N 867.195 -0.328224 -3.22333 0
M  V30 5196 C 867.075 -1.62992 -2.90383 0
M  V30 5197 H 864.097 -5.40394 -6.8003 0
M  V30 5198 H 863.825 -4.41741 -5.32532 0
M  V30 5199 H 864.693 -3.26371 -7.47889 0
M  V30 5200 H 867.348 -1.64007 -5.56746 0
M  V30 5201 H 867.628 -4.63439 -5.3432 0
M  V30 5202 H 868.619 -3.44776 -6.25925 0
M  V30 5203 H 866.785 -4.96707 -7.57347 0
M  V30 5204 H 866.744 -4.8089 -3.39924 0
M  V30 5205 H 867.125 -2.66547 0.941919 0
M  V30 5206 H 867.314 -0.965341 1.44766 0
M  V30 5207 H 867.422 1.46427 -2.29697 0
M  V30 5208 P 868.655 -2.75334 -8.47391 0
M  V30 5209 O 868.875 -2.44571 -9.90142 0
M  V30 5210 O 869.445 -3.87688 -7.92115 0
M  V30 5211 O 868.905 -1.4459 -7.59357 0
M  V30 5212 C 867.965 -0.347608 -7.69215 0
M  V30 5213 C 868.695 0.96767 -7.52806 0
M  V30 5214 O 868.905 1.21036 -6.1011 0
M  V30 5215 C 870.095 1.04544 -8.13308 0
M  V30 5216 O 870.485 2.38311 -8.41922 0
M  V30 5217 C 870.975 0.491279 -7.02284 0
M  V30 5218 C 870.265 0.996264 -5.77469 0
M  V30 5219 N 870.315 0.0501916 -4.62973 0
M  V30 5220 C 870.235 -1.32786 -4.63244 0
M  V30 5221 N 870.315 -1.86957 -3.44545 0
M  V30 5222 C 870.455 -0.780241 -2.58481 0
M  V30 5223 C 870.585 -0.738536 -1.17757 0
M  V30 5224 O 870.605 -1.66794 -0.372349 0
M  V30 5225 N 870.705 0.58337 -0.711393 0
M  V30 5226 C 870.705 1.70816 -1.51017 0
M  V30 5227 N 870.835 2.87826 -0.880757 0
M  V30 5228 N 870.575 1.67126 -2.8339 0
M  V30 5229 C 870.455 0.401421 -3.30572 0
M  V30 5230 H 867.476 -0.374722 -8.67691 0
M  V30 5231 H 867.206 -0.443485 -6.90277 0
M  V30 5232 H 868.073 1.75537 -7.96793 0
M  V30 5233 H 870.728 1.95076 -5.46529 0
M  V30 5234 H 871.007 -0.608565 -7.04577 0
M  V30 5235 H 871.999 0.889672 -7.08939 0
M  V30 5236 H 870.165 0.43308 -9.04564 0
M  V30 5237 H 870.116 -1.91249 -5.54442 0
M  V30 5238 H 870.798 0.718054 0.275244 0
M  V30 5239 H 870.835 3.75721 -1.41832 0
M  V30 5240 H 870.936 2.90436 0.145468 0
M  V30 5241 P 872.035 2.75334 -8.47391 0
M  V30 5242 O 872.255 3.84128 -9.44797 0
M  V30 5243 O 872.825 1.51947 -8.68712 0
M  V30 5244 O 872.285 3.29363 -6.99321 0
M  V30 5245 C 871.345 4.24011 -6.4274 0
M  V30 5246 C 872.075 5.20775 -5.52155 0
M  V30 5247 O 872.285 4.56534 -4.22446 0
M  V30 5248 C 873.475 5.62629 -5.96531 0
M  V30 5249 O 873.865 6.87667 -5.41053 0
M  V30 5250 C 874.355 4.52537 -5.39283 0
M  V30 5251 C 873.645 4.20027 -4.08623 0
M  V30 5252 N 873.695 2.76189 -3.71603 0
M  V30 5253 H 870.856 4.797 -7.24003 0
M  V30 5254 H 870.586 3.69856 -5.84513 0
M  V30 5255 H 871.453 6.10356 -5.41441 0
M  V30 5256 P 875.415 7.20834 -5.23717 0
M  V30 5257 O 875.635 8.66274 -5.38678 0
M  V30 5258 O 876.205 6.33687 -6.13629 0
M  V30 5259 O 875.665 6.7751 -3.72168 0
M  V30 5260 C 874.725 7.20919 -2.70795 0
M  V30 5261 C 875.455 7.45864 -1.40599 0
M  V30 5262 O 875.665 6.17751 -0.734343 0
M  V30 5263 C 876.855 8.05906 -1.51917 0
M  V30 5264 O 877.245 8.74358 -0.335205 0
M  V30 5265 C 877.735 6.83093 -1.70294 0
M  V30 5266 C 877.025 5.79992 -0.836974 0
M  V30 5267 N 877.075 4.41864 -1.38293 0
M  V30 5268 H 874.237 8.13738 -3.03804 0
M  V30 5269 H 873.965 6.42974 -2.55559 0
M  V30 5270 H 874.833 8.12139 -0.792866 0
M  V30 5271 H 877.488 5.80178 0.160643 0
M  V30 5272 H 877.768 6.51379 -2.75643 0
M  V30 5273 H 878.759 7.01832 -1.3448 0
M  V30 5274 H 876.925 8.73771 -2.38364 0
M  V30 5275 P 878.795 8.91 6.40081e-12 0
M  V30 5276 O 879.015 10.1726 0.733694 0
M  V30 5277 O 879.585 8.73148 -1.23936 0
M  V30 5278 O 879.045 7.66872 0.971405 0
M  V30 5279 C 878.105 7.42309 2.04641 0
M  V30 5280 C 878.835 6.86059 3.24661 0
M  V30 5281 O 879.045 5.42847 3.03646 0
M  V30 5282 C 880.235 7.41196 3.50753 0
M  V30 5283 O 880.625 7.27073 4.86816 0
M  V30 5284 C 881.115 6.5273 2.63741 0
M  V30 5285 C 880.405 5.1842 2.73198 0
M  V30 5286 N 880.455 4.38762 1.4784 0
M  V30 5287 H 877.616 8.36803 2.32493 0
M  V30 5288 H 877.346 6.70197 1.71129 0
M  V30 5289 H 878.213 7.03551 4.13168 0
M  V30 5290 P 882.175 7.20834 5.23717 0
M  V30 5291 O 882.395 7.79853 6.57286 0
M  V30 5292 O 882.965 7.79239 4.12957 0
M  V30 5293 O 882.425 5.63315 5.29344 0
M  V30 5294 C 881.485 4.80255 6.01876 0
M  V30 5295 C 882.215 3.64202 6.65911 0
M  V30 5296 O 882.425 2.60694 5.64732 0
M  V30 5297 C 883.615 3.93473 7.1943 0
M  V30 5298 O 884.005 3.02071 8.21205 0
M  V30 5299 C 884.495 3.73047 5.97036 0
M  V30 5300 C 883.785 2.58828 5.25741 0
M  V30 5301 N 883.835 2.68068 3.77503 0
M  V30 5302 H 880.996 5.40332 6.79951 0
M  V30 5303 H 880.726 4.41613 5.32378 0
M  V30 5304 H 881.593 3.26331 7.47797 0
M  V30 5305 P 885.555 2.75334 8.47391 0
M  V30 5306 O 885.775 2.44571 9.90142 0
M  V30 5307 O 886.345 3.87688 7.92115 0
M  V30 5308 O 885.805 1.4459 7.59357 0
M  V30 5309 C 884.865 0.347608 7.69215 0
M  V30 5310 C 885.595 -0.96767 7.52806 0
M  V30 5311 O 885.805 -1.21036 6.1011 0
M  V30 5312 C 886.995 -1.04544 8.13308 0
M  V30 5313 O 887.385 -2.38311 8.41922 0
M  V30 5314 C 887.875 -0.491279 7.02284 0
M  V30 5315 C 887.165 -0.996264 5.77469 0
M  V30 5316 N 887.215 -0.0501916 4.62973 0
M  V30 5317 H 884.376 0.374722 8.67691 0
M  V30 5318 H 884.106 0.443485 6.90277 0
M  V30 5319 H 884.973 -1.75537 7.96793 0
M  V30 5320 P 888.935 -2.75334 8.47391 0
M  V30 5321 O 889.155 -3.84128 9.44797 0
M  V30 5322 O 889.725 -1.51947 8.68712 0
M  V30 5323 O 889.185 -3.29363 6.99321 0
M  V30 5324 C 888.245 -4.24011 6.4274 0
M  V30 5325 C 888.975 -5.20775 5.52155 0
M  V30 5326 O 889.185 -4.56534 4.22446 0
M  V30 5327 C 890.375 -5.62629 5.96531 0
M  V30 5328 O 890.765 -6.87667 5.41053 0
M  V30 5329 C 891.255 -4.52537 5.39283 0
M  V30 5330 C 890.545 -4.20027 4.08623 0
M  V30 5331 N 890.595 -2.76189 3.71603 0
M  V30 5332 C 890.515 -1.64862 4.52822 0
M  V30 5333 N 890.595 -0.512671 3.88633 0
M  V30 5334 C 890.735 -0.888083 2.54977 0
M  V30 5335 C 890.865 -0.094668 1.38677 0
M  V30 5336 O 890.885 1.13053 1.28163 0
M  V30 5337 N 890.985 -0.890102 0.232633 0
M  V30 5338 C 890.985 -2.26958 0.21772 0
M  V30 5339 N 891.115 -2.84626 -0.97925 0
M  V30 5340 N 890.855 -3.0178 1.31033 0
M  V30 5341 C 890.735 -2.26781 2.43843 0
M  V30 5342 H 887.756 -4.797 7.24003 0
M  V30 5343 H 887.486 -3.69856 5.84513 0
M  V30 5344 H 888.353 -6.10356 5.41441 0
M  V30 5345 H 891.008 -4.79061 3.27488 0
M  V30 5346 H 891.287 -3.64906 6.05785 0
M  V30 5347 H 892.279 -4.8868 5.2125 0
M  V30 5348 H 890.445 -5.66726 7.06352 0
M  V30 5349 H 890.396 -1.71169 5.60966 0
M  V30 5350 H 891.078 -0.419134 -0.644739 0
M  V30 5351 H 891.115 -3.87332 -1.06098 0
M  V30 5352 H 891.216 -2.26417 -1.82483 0
M  V30 5353 P 892.315 -7.20834 5.23717 0
M  V30 5354 O 892.535 -8.66104 5.38572 0
M  V30 5355 O 893.105 -6.33544 6.1349 0
M  V30 5356 O 892.565 -6.7751 3.72168 0
M  V30 5357 C 891.625 -7.20825 2.7076 0
M  V30 5358 C 892.355 -7.45864 1.40599 0
M  V30 5359 O 892.565 -6.17651 0.734225 0
M  V30 5360 C 893.755 -8.05808 1.51899 0
M  V30 5361 O 894.145 -8.74358 0.335205 0
M  V30 5362 C 894.635 -6.83093 1.70294 0
M  V30 5363 C 893.925 -5.79992 0.836974 0
M  V30 5364 N 893.975 -4.41864 1.38293 0
M  V30 5365 H 891.136 -8.13644 3.0377 0
M  V30 5366 H 890.866 -6.42788 2.55485 0
M  V30 5367 H 891.733 -8.12039 0.792769 0
M  V30 5368 P 895.695 -8.91 -6.558e-12 0
M  V30 5369 O 895.915 -10.1726 -0.733694 0
M  V30 5370 O 896.485 -8.73148 1.23936 0
M  V30 5371 O 895.945 -7.66872 -0.971405 0
M  V30 5372 C 895.005 -7.42309 -2.04641 0
M  V30 5373 C 895.735 -6.86059 -3.24661 0
M  V30 5374 O 895.945 -5.42847 -3.03646 0
M  V30 5375 C 897.135 -7.41196 -3.50753 0
M  V30 5376 O 897.525 -7.27073 -4.86816 0
M  V30 5377 C 898.015 -6.5273 -2.63741 0
M  V30 5378 C 897.305 -5.1842 -2.73198 0
M  V30 5379 N 897.355 -4.38762 -1.4784 0
M  V30 5380 H 894.516 -8.36803 -2.32493 0
M  V30 5381 H 894.246 -6.70197 -1.71129 0
M  V30 5382 H 895.113 -7.03551 -4.13168 0
M  V30 5383 P 899.075 -7.20834 -5.23717 0
M  V30 5384 O 899.295 -7.79853 -6.57286 0
M  V30 5385 O 899.865 -7.79239 -4.12957 0
M  V30 5386 O 899.325 -5.63315 -5.29344 0
M  V30 5387 C 898.385 -4.80255 -6.01876 0
M  V30 5388 C 899.115 -3.64202 -6.65911 0
M  V30 5389 O 899.325 -2.60694 -5.64732 0
M  V30 5390 C 900.515 -3.93473 -7.1943 0
M  V30 5391 O 900.905 -3.02071 -8.21205 0
M  V30 5392 C 901.395 -3.73047 -5.97036 0
M  V30 5393 C 900.685 -2.58828 -5.25741 0
M  V30 5394 N 900.735 -2.68068 -3.77503 0
M  V30 5395 H 897.896 -5.40332 -6.79951 0
M  V30 5396 H 897.626 -4.41613 -5.32378 0
M  V30 5397 H 898.493 -3.26331 -7.47797 0
M  V30 5398 P 902.455 -2.75334 -8.47391 0
M  V30 5399 O 902.675 -2.44619 -9.90336 0
M  V30 5400 O 903.245 -3.87776 -7.92294 0
M  V30 5401 O 902.705 -1.4459 -7.59357 0
M  V30 5402 C 901.765 -0.347653 -7.69315 0
M  V30 5403 C 902.495 0.96767 -7.52806 0
M  V30 5404 O 902.705 1.21055 -6.10208 0
M  V30 5405 C 903.895 1.04557 -8.13408 0
M  V30 5406 O 904.285 2.38311 -8.41922 0
M  V30 5407 C 904.775 0.491279 -7.02284 0
M  V30 5408 C 904.065 0.996264 -5.77469 0
M  V30 5409 N 904.115 0.0501916 -4.62973 0
M  V30 5410 C 904.035 -1.31969 -4.65661 0
M  V30 5411 N 904.105 -1.86649 -3.48119 0
M  V30 5412 C 904.255 -0.792089 -2.62406 0
M  V30 5413 C 904.385 -0.705684 -1.2207 0
M  V30 5414 N 904.395 -1.76207 -0.413762 0
M  V30 5415 N 904.505 0.518981 -0.685754 0
M  V30 5416 C 904.495 1.57595 -1.49174 0
M  V30 5417 N 904.375 1.62909 -2.80066 0
M  V30 5418 C 904.255 0.388195 -3.3073 0
M  V30 5419 H 901.277 -0.374765 -8.67791 0
M  V30 5420 H 901.005 -0.443613 -6.90476 0
M  V30 5421 H 901.873 1.75559 -7.96891 0
M  V30 5422 H 904.528 1.94563 -5.46818 0
M  V30 5423 H 904.808 -0.608651 -7.04676 0
M  V30 5424 H 905.799 0.889796 -7.09039 0
M  V30 5425 H 903.965 0.433128 -9.04664 0
M  V30 5426 H 903.924 -1.89246 -5.57664 0
M  V30 5427 H 904.305 -2.71005 -0.804694 0
M  V30 5428 H 904.494 -1.63189 0.603768 0
M  V30 5429 H 904.602 2.53475 -0.997614 0
M  V30 5430 P 905.835 2.75334 -8.47391 0
M  V30 5431 O 906.055 3.84128 -9.44797 0
M  V30 5432 O 906.625 1.51947 -8.68712 0
M  V30 5433 O 906.085 3.29363 -6.99321 0
M  V30 5434 C 905.145 4.24011 -6.4274 0
M  V30 5435 C 905.875 5.20775 -5.52155 0
M  V30 5436 O 906.085 4.56534 -4.22446 0
M  V30 5437 C 907.275 5.62629 -5.96531 0
M  V30 5438 O 907.665 6.87667 -5.41053 0
M  V30 5439 C 908.155 4.52537 -5.39283 0
M  V30 5440 C 907.445 4.20027 -4.08623 0
M  V30 5441 N 907.495 2.76189 -3.71603 0
M  V30 5442 H 904.656 4.797 -7.24003 0
M  V30 5443 H 904.386 3.69856 -5.84513 0
M  V30 5444 H 905.253 6.10356 -5.41441 0
M  V30 5445 P 909.215 7.20834 -5.23717 0
M  V30 5446 O 909.435 8.66104 -5.38572 0
M  V30 5447 O 910.005 6.33544 -6.1349 0
M  V30 5448 O 909.465 6.7751 -3.72168 0
M  V30 5449 C 908.525 7.20825 -2.7076 0
M  V30 5450 C 909.255 7.45864 -1.40599 0
M  V30 5451 O 909.465 6.17651 -0.734225 0
M  V30 5452 C 910.655 8.05808 -1.51899 0
M  V30 5453 O 911.045 8.74358 -0.335205 0
M  V30 5454 C 911.535 6.83093 -1.70294 0
M  V30 5455 C 910.825 5.79992 -0.836974 0
M  V30 5456 N 910.875 4.41864 -1.38293 0
M  V30 5457 H 908.036 8.13644 -3.0377 0
M  V30 5458 H 907.766 6.42788 -2.55485 0
M  V30 5459 H 908.633 8.12039 -0.792769 0
M  V30 5460 P 912.595 8.91 6.71518e-12 0
M  V30 5461 O 912.815 10.1726 0.733694 0
M  V30 5462 O 913.385 8.73148 -1.23936 0
M  V30 5463 O 912.845 7.66872 0.971405 0
M  V30 5464 C 911.905 7.42309 2.04641 0
M  V30 5465 C 912.635 6.86059 3.24661 0
M  V30 5466 O 912.845 5.42847 3.03646 0
M  V30 5467 C 914.035 7.41196 3.50753 0
M  V30 5468 O 914.425 7.27073 4.86816 0
M  V30 5469 C 914.915 6.5273 2.63741 0
M  V30 5470 C 914.205 5.1842 2.73198 0
M  V30 5471 N 914.255 4.38762 1.4784 0
M  V30 5472 H 911.416 8.36803 2.32493 0
M  V30 5473 H 911.146 6.70197 1.71129 0
M  V30 5474 H 912.013 7.03551 4.13168 0
M  V30 5475 P 915.975 7.20834 5.23717 0
M  V30 5476 O 916.195 7.79853 6.57286 0
M  V30 5477 O 916.765 7.79239 4.12957 0
M  V30 5478 O 916.225 5.63315 5.29344 0
M  V30 5479 C 915.285 4.80255 6.01876 0
M  V30 5480 C 916.015 3.64202 6.65911 0
M  V30 5481 O 916.225 2.60694 5.64732 0
M  V30 5482 C 917.415 3.93473 7.1943 0
M  V30 5483 O 917.805 3.02071 8.21205 0
M  V30 5484 C 918.295 3.73047 5.97036 0
M  V30 5485 C 917.585 2.58828 5.25741 0
M  V30 5486 N 917.635 2.68068 3.77503 0
M  V30 5487 C 917.555 3.79715 2.96723 0
M  V30 5488 N 917.635 3.5377 1.68852 0
M  V30 5489 C 917.775 2.15054 1.63254 0
M  V30 5490 C 917.905 1.28964 0.518571 0
M  V30 5491 N 918.025 -0.0538097 0.918425 0
M  V30 5492 C 918.025 -0.494275 2.22578 0
M  V30 5493 N 918.155 -1.81086 2.40434 0
M  V30 5494 N 917.895 0.313645 3.27502 0
M  V30 5495 C 917.775 1.61829 2.91033 0
M  V30 5496 H 914.796 5.40332 6.79951 0
M  V30 5497 H 914.526 4.41613 5.32378 0
M  V30 5498 H 915.393 3.26331 7.47797 0
M  V30 5499 P 919.355 2.75334 8.47391 0
M  V30 5500 O 919.575 2.44571 9.90142 0
M  V30 5501 O 920.145 3.87688 7.92115 0
M  V30 5502 O 919.605 1.4459 7.59357 0
M  V30 5503 C 918.665 0.347608 7.69215 0
M  V30 5504 C 919.395 -0.96767 7.52806 0
M  V30 5505 O 919.605 -1.21036 6.1011 0
M  V30 5506 C 920.795 -1.04544 8.13308 0
M  V30 5507 O 921.185 -2.38311 8.41922 0
M  V30 5508 C 921.675 -0.491279 7.02284 0
M  V30 5509 C 920.965 -0.996264 5.77469 0
M  V30 5510 N 921.015 -0.0501916 4.62973 0
M  V30 5511 H 918.176 0.374722 8.67691 0
M  V30 5512 H 917.906 0.443485 6.90277 0
M  V30 5513 H 918.773 -1.75537 7.96793 0
M  V30 5514 P 922.735 -2.75334 8.47391 0
M  V30 5515 O 922.955 -3.84128 9.44797 0
M  V30 5516 O 923.525 -1.51947 8.68712 0
M  V30 5517 O 922.985 -3.29363 6.99321 0
M  V30 5518 C 922.045 -4.24011 6.4274 0
M  V30 5519 C 922.775 -5.20775 5.52155 0
M  V30 5520 O 922.985 -4.56534 4.22446 0
M  V30 5521 C 924.175 -5.62629 5.96531 0
M  V30 5522 O 924.565 -6.87667 5.41053 0
M  V30 5523 C 925.055 -4.52537 5.39283 0
M  V30 5524 C 924.345 -4.20027 4.08623 0
M  V30 5525 N 924.395 -2.76189 3.71603 0
M  V30 5526 C 924.315 -1.64862 4.52822 0
M  V30 5527 N 924.395 -0.512671 3.88633 0
M  V30 5528 C 924.535 -0.888083 2.54977 0
M  V30 5529 C 924.665 -0.094668 1.38677 0
M  V30 5530 N 924.785 -0.890102 0.232633 0
M  V30 5531 C 924.785 -2.26958 0.21772 0
M  V30 5532 N 924.915 -2.84626 -0.97925 0
M  V30 5533 N 924.655 -3.0178 1.31033 0
M  V30 5534 C 924.535 -2.26781 2.43843 0
M  V30 5535 H 921.556 -4.797 7.24003 0
M  V30 5536 H 921.286 -3.69856 5.84513 0
M  V30 5537 H 922.153 -6.10356 5.41441 0
M  V30 5538 P 926.115 -7.20834 5.23717 0
M  V30 5539 O 926.335 -8.66104 5.38572 0
M  V30 5540 O 926.905 -6.33544 6.1349 0
M  V30 5541 O 926.365 -6.7751 3.72168 0
M  V30 5542 C 925.425 -7.20825 2.7076 0
M  V30 5543 C 926.155 -7.45864 1.40599 0
M  V30 5544 O 926.365 -6.17651 0.734225 0
M  V30 5545 C 927.555 -8.05808 1.51899 0
M  V30 5546 O 927.945 -8.74358 0.335205 0
M  V30 5547 C 928.435 -6.83093 1.70294 0
M  V30 5548 C 927.725 -5.79992 0.836974 0
M  V30 5549 N 927.775 -4.41864 1.38293 0
M  V30 5550 H 924.936 -8.13644 3.0377 0
M  V30 5551 H 924.666 -6.42788 2.55485 0
M  V30 5552 H 925.533 -8.12039 0.792769 0
M  V30 5553 P 929.495 -8.91 -6.87236e-12 0
M  V30 5554 O 929.715 -10.1726 -0.733694 0
M  V30 5555 O 930.285 -8.73148 1.23936 0
M  V30 5556 O 929.745 -7.66872 -0.971405 0
M  V30 5557 C 928.805 -7.42309 -2.04641 0
M  V30 5558 C 929.535 -6.86059 -3.24661 0
M  V30 5559 O 929.745 -5.42847 -3.03646 0
M  V30 5560 C 930.935 -7.41196 -3.50753 0
M  V30 5561 O 931.325 -7.27073 -4.86816 0
M  V30 5562 C 931.815 -6.5273 -2.63741 0
M  V30 5563 C 931.105 -5.1842 -2.73198 0
M  V30 5564 N 931.155 -4.38762 -1.4784 0
M  V30 5565 C 931.075 -4.81605 -0.168631 0
M  V30 5566 N 931.155 -3.85454 0.713363 0
M  V30 5567 C 931.295 -2.6994 -0.0566958 0
M  V30 5568 C 931.425 -1.34815 0.338502 0
M  V30 5569 N 931.545 -0.496304 -0.77465 0
M  V30 5570 C 931.545 -0.908403 -2.09122 0
M  V30 5571 N 931.675 0.0517805 -3.00955 0
M  V30 5572 N 931.415 -2.17875 -2.46519 0
M  V30 5573 C 931.295 -3.01988 -1.4033 0
M  V30 5574 H 928.316 -8.36803 -2.32493 0
M  V30 5575 H 928.046 -6.70197 -1.71129 0
M  V30 5576 H 928.913 -7.03551 -4.13168 0
M  V30 5577 P 932.874 -7.20834 -5.23717 0
M  V30 5578 O 933.094 -7.79853 -6.57286 0
M  V30 5579 O 933.664 -7.79239 -4.12957 0
M  V30 5580 O 933.124 -5.63315 -5.29344 0
M  V30 5581 C 932.184 -4.80255 -6.01876 0
M  V30 5582 C 932.914 -3.64202 -6.65911 0
M  V30 5583 O 933.124 -2.60694 -5.64732 0
M  V30 5584 C 934.314 -3.93473 -7.1943 0
M  V30 5585 O 934.704 -3.02071 -8.21205 0
M  V30 5586 C 935.194 -3.73047 -5.97036 0
M  V30 5587 C 934.484 -2.58828 -5.25741 0
M  V30 5588 N 934.534 -2.68068 -3.77503 0
M  V30 5589 H 931.695 -5.40332 -6.79951 0
M  V30 5590 H 931.425 -4.41613 -5.32378 0
M  V30 5591 H 932.292 -3.26331 -7.47797 0
M  V30 5592 P 936.254 -2.75334 -8.47391 0
M  V30 5593 O 936.474 -2.44619 -9.90336 0
M  V30 5594 O 937.044 -3.87776 -7.92294 0
M  V30 5595 O 936.504 -1.4459 -7.59357 0
M  V30 5596 C 935.564 -0.347653 -7.69315 0
M  V30 5597 C 936.294 0.96767 -7.52806 0
M  V30 5598 O 936.504 1.21055 -6.10208 0
M  V30 5599 C 937.694 1.04557 -8.13408 0
M  V30 5600 O 938.084 2.38311 -8.41922 0
M  V30 5601 C 938.574 0.491279 -7.02284 0
M  V30 5602 C 937.864 0.996264 -5.77469 0
M  V30 5603 N 937.914 0.0501916 -4.62973 0
M  V30 5604 H 935.076 -0.374765 -8.67791 0
M  V30 5605 H 934.804 -0.443613 -6.90476 0
M  V30 5606 H 935.672 1.75559 -7.96891 0
M  V30 5607 H 938.327 1.94563 -5.46818 0
M  V30 5608 H 938.607 -0.608651 -7.04676 0
M  V30 5609 H 939.598 0.889796 -7.09039 0
M  V30 5610 H 937.764 0.433128 -9.04664 0
M  V30 5611 P 939.634 2.75334 -8.47391 0
M  V30 5612 O 939.854 3.84128 -9.44797 0
M  V30 5613 O 940.424 1.51947 -8.68712 0
M  V30 5614 O 939.884 3.29363 -6.99321 0
M  V30 5615 C 938.944 4.24011 -6.4274 0
M  V30 5616 C 939.674 5.20775 -5.52155 0
M  V30 5617 O 939.884 4.56534 -4.22446 0
M  V30 5618 C 941.074 5.62629 -5.96531 0
M  V30 5619 O 941.464 6.87667 -5.41053 0
M  V30 5620 C 941.954 4.52537 -5.39283 0
M  V30 5621 C 941.244 4.20027 -4.08623 0
M  V30 5622 N 941.294 2.76189 -3.71603 0
M  V30 5623 H 938.455 4.797 -7.24003 0
M  V30 5624 H 938.185 3.69856 -5.84513 0
M  V30 5625 H 939.052 6.10356 -5.41441 0
M  V30 5626 P 943.014 7.20834 -5.23717 0
M  V30 5627 O 943.234 8.66104 -5.38572 0
M  V30 5628 O 943.804 6.33544 -6.1349 0
M  V30 5629 O 943.264 6.7751 -3.72168 0
M  V30 5630 C 942.324 7.20825 -2.7076 0
M  V30 5631 C 943.054 7.45864 -1.40599 0
M  V30 5632 O 943.264 6.17651 -0.734225 0
M  V30 5633 C 944.454 8.05808 -1.51899 0
M  V30 5634 O 944.844 8.74358 -0.335205 0
M  V30 5635 C 945.334 6.83093 -1.70294 0
M  V30 5636 C 944.624 5.79992 -0.836974 0
M  V30 5637 N 944.674 4.41864 -1.38293 0
M  V30 5638 H 941.835 8.13644 -3.0377 0
M  V30 5639 H 941.565 6.42788 -2.55485 0
M  V30 5640 H 942.432 8.12039 -0.792769 0
M  V30 5641 P 946.394 8.91 7.02954e-12 0
M  V30 5642 O 946.614 10.1726 0.733694 0
M  V30 5643 O 947.184 8.73148 -1.23936 0
M  V30 5644 O 946.644 7.66872 0.971405 0
M  V30 5645 C 945.704 7.42309 2.04641 0
M  V30 5646 C 946.434 6.86059 3.24661 0
M  V30 5647 O 946.644 5.42847 3.03646 0
M  V30 5648 C 947.834 7.41196 3.50753 0
M  V30 5649 O 948.224 7.27073 4.86816 0
M  V30 5650 C 948.714 6.5273 2.63741 0
M  V30 5651 C 948.004 5.1842 2.73198 0
M  V30 5652 N 948.054 4.38762 1.4784 0
M  V30 5653 H 945.215 8.36803 2.32493 0
M  V30 5654 H 944.945 6.70197 1.71129 0
M  V30 5655 H 945.812 7.03551 4.13168 0
M  V30 5656 P 949.774 7.20834 5.23717 0
M  V30 5657 O 949.994 7.79853 6.57286 0
M  V30 5658 O 950.564 7.79239 4.12957 0
M  V30 5659 O 950.024 5.63315 5.29344 0
M  V30 5660 C 949.084 4.80255 6.01876 0
M  V30 5661 C 949.814 3.64202 6.65911 0
M  V30 5662 O 950.024 2.60694 5.64732 0
M  V30 5663 C 951.214 3.93473 7.1943 0
M  V30 5664 O 951.604 3.02071 8.21205 0
M  V30 5665 C 952.094 3.73047 5.97036 0
M  V30 5666 C 951.384 2.58828 5.25741 0
M  V30 5667 N 951.434 2.68068 3.77503 0
M  V30 5668 H 948.595 5.40332 6.79951 0
M  V30 5669 H 948.325 4.41613 5.32378 0
M  V30 5670 H 949.192 3.26331 7.47797 0
M  V30 5671 P 953.154 2.75334 8.47391 0
M  V30 5672 O 953.374 2.44571 9.90142 0
M  V30 5673 O 953.944 3.87688 7.92115 0
M  V30 5674 O 953.404 1.4459 7.59357 0
M  V30 5675 C 952.464 0.347608 7.69215 0
M  V30 5676 C 953.194 -0.96767 7.52806 0
M  V30 5677 O 953.404 -1.21036 6.1011 0
M  V30 5678 C 954.594 -1.04544 8.13308 0
M  V30 5679 O 954.984 -2.38311 8.41922 0
M  V30 5680 C 955.474 -0.491279 7.02284 0
M  V30 5681 C 954.764 -0.996264 5.77469 0
M  V30 5682 N 954.814 -0.0501916 4.62973 0
M  V30 5683 H 951.975 0.374722 8.67691 0
M  V30 5684 H 951.705 0.443485 6.90277 0
M  V30 5685 H 952.572 -1.75537 7.96793 0
M  V30 5686 P 956.534 -2.75334 8.47391 0
M  V30 5687 O 956.754 -3.84128 9.44797 0
M  V30 5688 O 957.324 -1.51947 8.68712 0
M  V30 5689 O 956.784 -3.29363 6.99321 0
M  V30 5690 C 955.844 -4.24011 6.4274 0
M  V30 5691 C 956.574 -5.20775 5.52155 0
M  V30 5692 O 956.784 -4.56534 4.22446 0
M  V30 5693 C 957.974 -5.62629 5.96531 0
M  V30 5694 O 958.364 -6.87667 5.41053 0
M  V30 5695 C 958.854 -4.52537 5.39283 0
M  V30 5696 C 958.144 -4.20027 4.08623 0
M  V30 5697 N 958.194 -2.76189 3.71603 0
M  V30 5698 H 955.355 -4.797 7.24003 0
M  V30 5699 H 955.085 -3.69856 5.84513 0
M  V30 5700 H 955.952 -6.10356 5.41441 0
M  V30 5701 P 959.914 -7.20834 5.23717 0
M  V30 5702 O 960.134 -8.66104 5.38572 0
M  V30 5703 O 960.704 -6.33544 6.1349 0
M  V30 5704 O 960.164 -6.7751 3.72168 0
M  V30 5705 C 959.224 -7.20825 2.7076 0
M  V30 5706 C 959.954 -7.45864 1.40599 0
M  V30 5707 O 960.164 -6.17651 0.734225 0
M  V30 5708 C 961.354 -8.05808 1.51899 0
M  V30 5709 O 961.744 -8.74358 0.335205 0
M  V30 5710 C 962.234 -6.83093 1.70294 0
M  V30 5711 C 961.524 -5.79992 0.836974 0
M  V30 5712 N 961.574 -4.41864 1.38293 0
M  V30 5713 H 958.735 -8.13644 3.0377 0
M  V30 5714 H 958.465 -6.42788 2.55485 0
M  V30 5715 H 959.332 -8.12039 0.792769 0
M  V30 5716 P 963.294 -8.91 -7.18673e-12 0
M  V30 5717 O 963.514 -10.1726 -0.733694 0
M  V30 5718 O 964.084 -8.73148 1.23936 0
M  V30 5719 O 963.544 -7.66872 -0.971405 0
M  V30 5720 C 962.604 -7.42309 -2.04641 0
M  V30 5721 C 963.334 -6.86059 -3.24661 0
M  V30 5722 O 963.544 -5.42847 -3.03646 0
M  V30 5723 C 964.734 -7.41196 -3.50753 0
M  V30 5724 O 965.124 -7.27073 -4.86816 0
M  V30 5725 C 965.614 -6.5273 -2.63741 0
M  V30 5726 C 964.904 -5.1842 -2.73198 0
M  V30 5727 N 964.954 -4.38762 -1.4784 0
M  V30 5728 C 964.874 -4.81605 -0.168631 0
M  V30 5729 N 964.954 -3.85454 0.713363 0
M  V30 5730 C 965.094 -2.6994 -0.0566958 0
M  V30 5731 C 965.224 -1.34815 0.338502 0
M  V30 5732 O 965.244 -0.869548 1.47125 0
M  V30 5733 N 965.344 -0.496304 -0.77465 0
M  V30 5734 C 965.344 -0.908403 -2.09122 0
M  V30 5735 N 965.474 0.0517805 -3.00955 0
M  V30 5736 N 965.214 -2.17875 -2.46519 0
M  V30 5737 C 965.094 -3.01988 -1.4033 0
M  V30 5738 H 962.115 -8.36803 -2.32493 0
M  V30 5739 H 961.845 -6.70197 -1.71129 0
M  V30 5740 H 962.712 -7.03551 -4.13168 0
M  V30 5741 H 965.367 -4.59498 -3.54415 0
M  V30 5742 H 965.646 -6.88898 -1.59848 0
M  V30 5743 H 966.638 -6.46749 -3.03687 0
M  V30 5744 H 964.804 -8.46908 -3.20714 0
M  V30 5745 H 964.755 -5.86405 0.105564 0
M  V30 5746 H 965.437 0.483664 -0.597855 0
M  V30 5747 H 965.474 -0.187865 -4.0116 0
M  V30 5748 H 965.575 1.03585 -2.71726 0
M  V30 5749 P 966.674 -7.20834 -5.23717 0
M  V30 5750 O 966.894 -7.79853 -6.57286 0
M  V30 5751 O 967.464 -7.79239 -4.12957 0
M  V30 5752 O 966.924 -5.63315 -5.29344 0
M  V30 5753 C 965.984 -4.80255 -6.01876 0
M  V30 5754 C 966.714 -3.64202 -6.65911 0
M  V30 5755 O 966.924 -2.60694 -5.64732 0
M  V30 5756 C 968.114 -3.93473 -7.1943 0
M  V30 5757 O 968.504 -3.02071 -8.21205 0
M  V30 5758 C 968.994 -3.73047 -5.97036 0
M  V30 5759 C 968.284 -2.58828 -5.25741 0
M  V30 5760 N 968.334 -2.68068 -3.77503 0
M  V30 5761 H 965.495 -5.40332 -6.79951 0
M  V30 5762 H 965.225 -4.41613 -5.32378 0
M  V30 5763 H 966.092 -3.26331 -7.47797 0
M  V30 5764 P 970.054 -2.75334 -8.47391 0
M  V30 5765 O 970.274 -2.44571 -9.90142 0
M  V30 5766 O 970.844 -3.87688 -7.92115 0
M  V30 5767 O 970.304 -1.4459 -7.59357 0
M  V30 5768 C 969.364 -0.347608 -7.69215 0
M  V30 5769 C 970.094 0.96767 -7.52806 0
M  V30 5770 O 970.304 1.21036 -6.1011 0
M  V30 5771 C 971.494 1.04544 -8.13308 0
M  V30 5772 O 971.884 2.38311 -8.41922 0
M  V30 5773 C 972.374 0.491279 -7.02284 0
M  V30 5774 C 971.664 0.996264 -5.77469 0
M  V30 5775 N 971.714 0.0501916 -4.62973 0
M  V30 5776 H 968.875 -0.374722 -8.67691 0
M  V30 5777 H 968.605 -0.443485 -6.90277 0
M  V30 5778 H 969.472 1.75537 -7.96793 0
M  V30 5779 P 973.434 2.75334 -8.47391 0
M  V30 5780 O 973.654 3.84128 -9.44797 0
M  V30 5781 O 974.224 1.51947 -8.68712 0
M  V30 5782 O 973.684 3.29363 -6.99321 0
M  V30 5783 C 972.744 4.24011 -6.4274 0
M  V30 5784 C 973.474 5.20775 -5.52155 0
M  V30 5785 O 973.684 4.56534 -4.22446 0
M  V30 5786 C 974.874 5.62629 -5.96531 0
M  V30 5787 O 975.264 6.87667 -5.41053 0
M  V30 5788 C 975.754 4.52537 -5.39283 0
M  V30 5789 C 975.044 4.20027 -4.08623 0
M  V30 5790 N 975.094 2.76189 -3.71603 0
M  V30 5791 H 972.255 4.797 -7.24003 0
M  V30 5792 H 971.985 3.69856 -5.84513 0
M  V30 5793 H 972.852 6.10356 -5.41441 0
M  V30 5794 P 976.814 7.20834 -5.23717 0
M  V30 5795 O 977.034 8.66104 -5.38572 0
M  V30 5796 O 977.604 6.33544 -6.1349 0
M  V30 5797 O 977.064 6.7751 -3.72168 0
M  V30 5798 C 976.124 7.20825 -2.7076 0
M  V30 5799 C 976.854 7.45864 -1.40599 0
M  V30 5800 O 977.064 6.17651 -0.734225 0
M  V30 5801 C 978.254 8.05808 -1.51899 0
M  V30 5802 O 978.644 8.74358 -0.335205 0
M  V30 5803 C 979.134 6.83093 -1.70294 0
M  V30 5804 C 978.424 5.79992 -0.836974 0
M  V30 5805 N 978.474 4.41864 -1.38293 0
M  V30 5806 H 975.635 8.13644 -3.0377 0
M  V30 5807 H 975.365 6.42788 -2.55485 0
M  V30 5808 H 976.232 8.12039 -0.792769 0
M  V30 5809 P 980.194 8.91 7.34391e-12 0
M  V30 5810 O 980.414 10.1726 0.733694 0
M  V30 5811 O 980.984 8.73148 -1.23936 0
M  V30 5812 O 980.444 7.66872 0.971405 0
M  V30 5813 C 979.504 7.42309 2.04641 0
M  V30 5814 C 980.234 6.86059 3.24661 0
M  V30 5815 O 980.444 5.42847 3.03646 0
M  V30 5816 C 981.634 7.41196 3.50753 0
M  V30 5817 O 982.024 7.27073 4.86816 0
M  V30 5818 C 982.514 6.5273 2.63741 0
M  V30 5819 C 981.804 5.1842 2.73198 0
M  V30 5820 N 981.854 4.38762 1.4784 0
M  V30 5821 C 981.774 4.81605 0.168631 0
M  V30 5822 N 981.854 3.85454 -0.713363 0
M  V30 5823 C 981.994 2.6994 0.0566958 0
M  V30 5824 C 982.124 1.34815 -0.338502 0
M  V30 5825 O 982.144 0.869548 -1.47125 0
M  V30 5826 N 982.244 0.496304 0.77465 0
M  V30 5827 C 982.244 0.908403 2.09122 0
M  V30 5828 N 982.374 -0.0517805 3.00955 0
M  V30 5829 N 982.114 2.17875 2.46519 0
M  V30 5830 C 981.994 3.01988 1.4033 0
M  V30 5831 H 979.015 8.36803 2.32493 0
M  V30 5832 H 978.745 6.70197 1.71129 0
M  V30 5833 H 979.612 7.03551 4.13168 0
M  V30 5834 H 982.267 4.59498 3.54415 0
M  V30 5835 H 982.546 6.88898 1.59848 0
M  V30 5836 H 983.538 6.46749 3.03687 0
M  V30 5837 H 981.704 8.46908 3.20714 0
M  V30 5838 H 981.655 5.86405 -0.105564 0
M  V30 5839 H 982.337 -0.483664 0.597855 0
M  V30 5840 H 982.374 0.187865 4.0116 0
M  V30 5841 H 982.475 -1.03585 2.71726 0
M  V30 5842 P 983.574 7.20834 5.23717 0
M  V30 5843 O 983.794 7.7993 6.57351 0
M  V30 5844 O 984.364 7.79328 4.13004 0
M  V30 5845 O 983.824 5.63315 5.29344 0
M  V30 5846 C 982.884 4.80255 6.01876 0
M  V30 5847 C 983.614 3.64202 6.65911 0
M  V30 5848 O 983.824 2.60694 5.64732 0
M  V30 5849 C 985.014 3.93473 7.1943 0
M  V30 5850 O 985.404 3.02071 8.21205 0
M  V30 5851 C 985.894 3.73047 5.97036 0
M  V30 5852 C 985.184 2.58828 5.25741 0
M  V30 5853 N 985.234 2.6801 3.77422 0
M  V30 5854 C 985.384 1.50173 3.05038 0
M  V30 5855 O 985.474 0.428832 3.665 0
M  V30 5856 N 985.434 1.70922 1.55541 0
M  V30 5857 C 985.334 2.7407 1.06402 0
M  V30 5858 N 985.384 2.74764 -0.260931 0
M  V30 5859 C 985.184 3.96781 1.78296 0
M  V30 5860 C 985.134 3.87909 3.13891 0
M  V30 5861 H 982.394 5.4027 6.79873 0
M  V30 5862 H 982.125 4.41549 5.32301 0
M  V30 5863 H 982.992 3.26371 7.47889 0
M  V30 5864 H 985.647 1.63978 5.5665 0
M  V30 5865 H 985.926 4.63439 5.3432 0
M  V30 5866 H 986.918 3.44728 6.25838 0
M  V30 5867 H 985.084 4.96652 7.57263 0
M  V30 5868 H 985.012 4.78425 3.73088 0
M  V30 5869 H 985.114 4.92593 1.26997 0
M  V30 5870 H 985.502 1.86285 -0.77595 0
M  V30 5871 H 985.305 3.63657 -0.773896 0
M  V30 5872 P 986.954 2.75334 8.47391 0
M  V30 5873 O 987.174 2.44595 9.90239 0
M  V30 5874 O 987.744 3.87732 7.92204 0
M  V30 5875 O 987.204 1.4459 7.59357 0
M  V30 5876 C 986.264 0.347563 7.69115 0
M  V30 5877 C 986.994 -0.96767 7.52806 0
M  V30 5878 O 987.204 -1.21036 6.1011 0
M  V30 5879 C 988.394 -1.04544 8.13308 0
M  V30 5880 O 988.784 -2.38311 8.41922 0
M  V30 5881 C 989.274 -0.491279 7.02284 0
M  V30 5882 C 988.564 -0.996264 5.77469 0
M  V30 5883 N 988.614 -0.0501808 4.62873 0
M  V30 5884 C 988.764 -0.588177 3.36904 0
M  V30 5885 O 988.854 -1.78598 3.17173 0
M  V30 5886 N 988.804 0.329694 2.33686 0
M  V30 5887 C 988.714 1.6953 2.45079 0
M  V30 5888 O 988.764 2.41926 1.44899 0
M  V30 5889 C 988.564 2.16933 3.80505 0
M  V30 5890 C 988.454 3.65373 3.97621 0
M  V30 5891 C 988.514 1.30326 4.83752 0
M  V30 5892 H 985.774 0.374722 8.67691 0
M  V30 5893 H 985.505 0.443421 6.90177 0
M  V30 5894 H 986.372 -1.75537 7.96793 0
M  V30 5895 H 989.027 -1.94496 5.46629 0
M  V30 5896 H 989.306 0.608651 7.04676 0
M  V30 5897 H 990.298 -0.889672 7.08939 0
M  V30 5898 H 988.464 -0.43308 9.04564 0
M  V30 5899 H 988.393 1.68366 5.8516 0
M  V30 5900 H 989.423 4.05985 4.30448 0
M  V30 5901 H 987.686 3.88028 4.72875 0
M  V30 5902 H 988.174 4.11381 3.01609 0
M  V30 5903 H 988.91 -0.0393617 1.41345 0
M  V30 5904 P 990.334 -2.75334 8.47391 0
M  V30 5905 O 990.554 -3.84128 9.44797 0
M  V30 5906 O 991.124 -1.51947 8.68712 0
M  V30 5907 O 990.584 -3.29363 6.99321 0
M  V30 5908 C 989.644 -4.24011 6.4274 0
M  V30 5909 C 990.374 -5.20775 5.52155 0
M  V30 5910 O 990.584 -4.56534 4.22446 0
M  V30 5911 C 991.774 -5.62629 5.96531 0
M  V30 5912 O 992.164 -6.87667 5.41053 0
M  V30 5913 C 992.654 -4.52537 5.39283 0
M  V30 5914 C 991.944 -4.20027 4.08623 0
M  V30 5915 N 991.994 -2.76189 3.71603 0
M  V30 5916 C 991.914 -1.64862 4.52822 0
M  V30 5917 N 991.994 -0.512671 3.88633 0
M  V30 5918 C 992.134 -0.888083 2.54977 0
M  V30 5919 C 992.264 -0.094668 1.38677 0
M  V30 5920 O 992.284 1.13053 1.28163 0
M  V30 5921 N 992.384 -0.890102 0.232633 0
M  V30 5922 C 992.384 -2.26958 0.21772 0
M  V30 5923 N 992.514 -2.84626 -0.97925 0
M  V30 5924 N 992.254 -3.0178 1.31033 0
M  V30 5925 C 992.134 -2.26781 2.43843 0
M  V30 5926 H 989.155 -4.797 7.24003 0
M  V30 5927 H 988.885 -3.69856 5.84513 0
M  V30 5928 H 989.752 -6.10356 5.41441 0
M  V30 5929 H 992.407 -4.79061 3.27488 0
M  V30 5930 H 992.686 -3.64906 6.05785 0
M  V30 5931 H 993.678 -4.8868 5.2125 0
M  V30 5932 H 991.844 -5.66726 7.06352 0
M  V30 5933 H 991.795 -1.71169 5.60966 0
M  V30 5934 H 992.477 -0.419134 -0.644739 0
M  V30 5935 H 992.514 -3.87332 -1.06098 0
M  V30 5936 H 992.615 -2.26417 -1.82483 0
M  V30 5937 P 993.714 -7.20834 5.23717 0
M  V30 5938 O 993.934 -8.66104 5.38572 0
M  V30 5939 O 994.504 -6.33544 6.1349 0
M  V30 5940 O 993.964 -6.7751 3.72168 0
M  V30 5941 C 993.024 -7.20825 2.7076 0
M  V30 5942 C 993.754 -7.45864 1.40599 0
M  V30 5943 O 993.964 -6.17651 0.734225 0
M  V30 5944 C 995.154 -8.05808 1.51899 0
M  V30 5945 O 995.544 -8.74358 0.335205 0
M  V30 5946 C 996.034 -6.83093 1.70294 0
M  V30 5947 C 995.324 -5.79992 0.836974 0
M  V30 5948 N 995.374 -4.41864 1.38293 0
M  V30 5949 H 992.535 -8.13644 3.0377 0
M  V30 5950 H 992.265 -6.42788 2.55485 0
M  V30 5951 H 993.132 -8.12039 0.792769 0
M  V30 5952 P 997.094 -8.91 -7.50109e-12 0
M  V30 5953 O 997.314 -10.1726 -0.733694 0
M  V30 5954 O 997.884 -8.73148 1.23936 0
M  V30 5955 O 997.344 -7.66872 -0.971405 0
M  V30 5956 C 996.404 -7.42309 -2.04641 0
M  V30 5957 C 997.134 -6.86059 -3.24661 0
M  V30 5958 O 997.344 -5.42847 -3.03646 0
M  V30 5959 C 998.534 -7.41196 -3.50753 0
M  V30 5960 O 998.924 -7.27073 -4.86816 0
M  V30 5961 C 999.414 -6.5273 -2.63741 0
M  V30 5962 C 998.704 -5.1842 -2.73198 0
M  V30 5963 N 998.754 -4.38762 -1.4784 0
M  V30 5964 H 995.915 -8.36803 -2.32493 0
M  V30 5965 H 995.645 -6.70197 -1.71129 0
M  V30 5966 H 996.512 -7.03551 -4.13168 0
M  V30 5967 P 1000.47 -7.20834 -5.23717 0
M  V30 5968 O 1000.69 -7.79853 -6.57286 0
M  V30 5969 O 1001.26 -7.79239 -4.12957 0
M  V30 5970 O 1000.72 -5.63315 -5.29344 0
M  V30 5971 C 999.784 -4.80255 -6.01876 0
M  V30 5972 C 1000.51 -3.64202 -6.65911 0
M  V30 5973 O 1000.72 -2.60694 -5.64732 0
M  V30 5974 C 1001.91 -3.93473 -7.1943 0
M  V30 5975 O 1002.3 -3.02071 -8.21205 0
M  V30 5976 C 1002.79 -3.73047 -5.97036 0
M  V30 5977 C 1002.08 -2.58828 -5.25741 0
M  V30 5978 N 1002.13 -2.68068 -3.77503 0
M  V30 5979 H 999.295 -5.40332 -6.79951 0
M  V30 5980 H 999.025 -4.41613 -5.32378 0
M  V30 5981 H 999.892 -3.26331 -7.47797 0
M  V30 5982 P 1003.85 -2.75334 -8.47391 0
M  V30 5983 O 1004.07 -2.44571 -9.90142 0
M  V30 5984 O 1004.64 -3.87688 -7.92115 0
M  V30 5985 O 1004.1 -1.4459 -7.59357 0
M  V30 5986 C 1003.16 -0.347608 -7.69215 0
M  V30 5987 C 1003.89 0.96767 -7.52806 0
M  V30 5988 O 1004.1 1.21036 -6.1011 0
M  V30 5989 C 1005.29 1.04544 -8.13308 0
M  V30 5990 O 1005.68 2.38311 -8.41922 0
M  V30 5991 C 1006.17 0.491279 -7.02284 0
M  V30 5992 C 1005.46 0.996264 -5.77469 0
M  V30 5993 N 1005.51 0.0501916 -4.62973 0
M  V30 5994 H 1002.68 -0.374722 -8.67691 0
M  V30 5995 H 1002.41 -0.443485 -6.90277 0
M  V30 5996 H 1003.27 1.75537 -7.96793 0
M  V30 5997 P 1007.23 2.75334 -8.47391 0
M  V30 5998 O 1007.45 3.84166 -9.4489 0
M  V30 5999 O 1008.02 1.51964 -8.6881 0
M  V30 6000 O 1007.48 3.29363 -6.99321 0
M  V30 6001 C 1006.54 4.23956 -6.42656 0
M  V30 6002 C 1007.27 5.20775 -5.52155 0
M  V30 6003 O 1007.48 4.56534 -4.22446 0
M  V30 6004 C 1008.67 5.62629 -5.96531 0
M  V30 6005 O 1009.06 6.87667 -5.41053 0
M  V30 6006 C 1009.55 4.52537 -5.39283 0
M  V30 6007 C 1008.84 4.20027 -4.08623 0
M  V30 6008 N 1008.89 2.7613 -3.71522 0
M  V30 6009 C 1009.04 2.45612 -2.37989 0
M  V30 6010 O 1009.13 3.30919 -1.51621 0
M  V30 6011 N 1009.08 1.10684 -2.08435 0
M  V30 6012 C 1008.99 0.0690084 -2.9792 0
M  V30 6013 O 1009.04 -1.10553 -2.59426 0
M  V30 6014 C 1008.84 0.481522 -4.35345 0
M  V30 6015 C 1008.73 -0.618778 -5.36443 0
M  V30 6016 C 1008.79 1.78906 -4.67968 0
M  V30 6017 H 1006.05 4.797 -7.24003 0
M  V30 6018 H 1005.79 3.69802 -5.84429 0
M  V30 6019 H 1006.65 6.10356 -5.41441 0
M  V30 6020 H 1009.31 4.78651 -3.27911 0
M  V30 6021 H 1009.59 3.64957 -6.05871 0
M  V30 6022 H 1010.58 4.8868 -5.2125 0
M  V30 6023 H 1008.74 5.66726 -7.06352 0
M  V30 6024 H 1008.67 2.07737 -5.72367 0
M  V30 6025 H 1009.7 -0.754375 -5.86871 0
M  V30 6026 H 1007.97 -0.359721 -6.10641 0
M  V30 6027 H 1008.45 -1.55533 -4.8581 0
M  V30 6028 H 1009.19 0.862651 -1.12037 0
M  V30 6029 P 1010.61 7.20834 -5.23717 0
M  V30 6030 O 1010.83 8.66104 -5.38572 0
M  V30 6031 O 1011.4 6.33544 -6.1349 0
M  V30 6032 O 1010.86 6.7751 -3.72168 0
M  V30 6033 C 1009.92 7.20825 -2.7076 0
M  V30 6034 C 1010.65 7.45864 -1.40599 0
M  V30 6035 O 1010.86 6.17651 -0.734225 0
M  V30 6036 C 1012.05 8.05808 -1.51899 0
M  V30 6037 O 1012.44 8.74358 -0.335205 0
M  V30 6038 C 1012.93 6.83093 -1.70294 0
M  V30 6039 C 1012.22 5.79992 -0.836974 0
M  V30 6040 N 1012.27 4.41864 -1.38293 0
M  V30 6041 H 1009.44 8.13644 -3.0377 0
M  V30 6042 H 1009.17 6.42788 -2.55485 0
M  V30 6043 H 1010.03 8.12039 -0.792769 0
M  V30 6044 P 1013.99 8.91 7.65827e-12 0
M  V30 6045 O 1014.21 10.1726 0.733694 0
M  V30 6046 O 1014.78 8.73148 -1.23936 0
M  V30 6047 O 1014.24 7.66872 0.971405 0
M  V30 6048 C 1013.3 7.42309 2.04641 0
M  V30 6049 C 1014.03 6.86059 3.24661 0
M  V30 6050 O 1014.24 5.42847 3.03646 0
M  V30 6051 C 1015.43 7.41196 3.50753 0
M  V30 6052 O 1015.82 7.27073 4.86816 0
M  V30 6053 C 1016.31 6.5273 2.63741 0
M  V30 6054 C 1015.6 5.1842 2.73198 0
M  V30 6055 N 1015.65 4.38762 1.4784 0
M  V30 6056 C 1015.57 4.81605 0.168631 0
M  V30 6057 N 1015.65 3.85454 -0.713363 0
M  V30 6058 C 1015.79 2.6994 0.0566958 0
M  V30 6059 C 1015.92 1.34815 -0.338502 0
M  V30 6060 O 1015.94 0.869548 -1.47125 0
M  V30 6061 N 1016.04 0.496304 0.77465 0
M  V30 6062 C 1016.04 0.908403 2.09122 0
M  V30 6063 N 1016.17 -0.0517805 3.00955 0
M  V30 6064 N 1015.91 2.17875 2.46519 0
M  V30 6065 C 1015.79 3.01988 1.4033 0
M  V30 6066 H 1012.82 8.36803 2.32493 0
M  V30 6067 H 1012.55 6.70197 1.71129 0
M  V30 6068 H 1013.41 7.03551 4.13168 0
M  V30 6069 H 1016.07 4.59498 3.54415 0
M  V30 6070 H 1016.35 6.88898 1.59848 0
M  V30 6071 H 1017.34 6.46749 3.03687 0
M  V30 6072 H 1015.5 8.46908 3.20714 0
M  V30 6073 H 1015.46 5.86405 -0.105564 0
M  V30 6074 H 1016.14 -0.483664 0.597855 0
M  V30 6075 H 1016.17 0.187865 4.0116 0
M  V30 6076 H 1016.28 -1.03585 2.71726 0
M  V30 6077 P 1017.37 7.20834 5.23717 0
M  V30 6078 O 1017.59 7.80006 6.57415 0
M  V30 6079 O 1018.16 7.79416 4.13051 0
M  V30 6080 O 1017.62 5.63315 5.29344 0
M  V30 6081 C 1016.68 4.80318 6.01954 0
M  V30 6082 C 1017.41 3.64202 6.65911 0
M  V30 6083 O 1017.62 2.60736 5.64823 0
M  V30 6084 C 1018.81 3.93521 7.19518 0
M  V30 6085 O 1019.2 3.02071 8.21205 0
M  V30 6086 C 1019.69 3.73047 5.97036 0
M  V30 6087 C 1018.98 2.58828 5.25741 0
M  V30 6088 N 1019.03 2.68068 3.77503 0
M  V30 6089 C 1018.95 3.80474 2.99159 0
M  V30 6090 N 1019.02 3.55622 1.71925 0
M  V30 6091 C 1019.17 2.1832 1.65733 0
M  V30 6092 C 1019.3 1.28842 0.572777 0
M  V30 6093 N 1019.31 1.66875 -0.70098 0
M  V30 6094 N 1019.42 -0.016788 0.859836 0
M  V30 6095 C 1019.41 -0.398145 2.13316 0
M  V30 6096 N 1019.29 0.328224 3.22333 0
M  V30 6097 C 1019.17 1.62992 2.90383 0
M  V30 6098 H 1016.2 5.40394 6.8003 0
M  V30 6099 H 1015.92 4.41741 5.32532 0
M  V30 6100 H 1016.79 3.26371 7.47889 0
M  V30 6101 H 1019.45 1.64007 5.56746 0
M  V30 6102 H 1019.73 4.63439 5.3432 0
M  V30 6103 H 1020.72 3.44776 6.25925 0
M  V30 6104 H 1018.88 4.96707 7.57347 0
M  V30 6105 H 1018.84 4.8089 3.39924 0
M  V30 6106 H 1019.22 2.66547 -0.941919 0
M  V30 6107 H 1019.41 0.965341 -1.44766 0
M  V30 6108 H 1019.52 -1.46427 2.29697 0
M  V30 6109 P 1020.75 2.75334 8.47391 0
M  V30 6110 O 1020.97 2.44571 9.90142 0
M  V30 6111 O 1021.54 3.87688 7.92115 0
M  V30 6112 O 1021 1.4459 7.59357 0
M  V30 6113 C 1020.06 0.347608 7.69215 0
M  V30 6114 C 1020.79 -0.96767 7.52806 0
M  V30 6115 O 1021 -1.21036 6.1011 0
M  V30 6116 C 1022.19 -1.04544 8.13308 0
M  V30 6117 O 1022.58 -2.38311 8.41922 0
M  V30 6118 C 1023.07 -0.491279 7.02284 0
M  V30 6119 C 1022.36 -0.996264 5.77469 0
M  V30 6120 N 1022.41 -0.0501916 4.62973 0
M  V30 6121 C 1022.33 1.32786 4.63244 0
M  V30 6122 N 1022.41 1.86957 3.44545 0
M  V30 6123 C 1022.55 0.780241 2.58481 0
M  V30 6124 C 1022.68 0.738536 1.17757 0
M  V30 6125 N 1022.8 -0.58337 0.711393 0
M  V30 6126 C 1022.8 -1.70816 1.51017 0
M  V30 6127 N 1022.93 -2.87826 0.880757 0
M  V30 6128 N 1022.67 -1.67126 2.8339 0
M  V30 6129 C 1022.55 -0.401421 3.30572 0
M  V30 6130 H 1019.57 0.374722 8.67691 0
M  V30 6131 H 1019.3 0.443485 6.90277 0
M  V30 6132 H 1020.17 -1.75537 7.96793 0
M  V30 6133 P 1024.13 -2.75334 8.47391 0
M  V30 6134 O 1024.35 -3.84128 9.44797 0
M  V30 6135 O 1024.92 -1.51947 8.68712 0
M  V30 6136 O 1024.38 -3.29363 6.99321 0
M  V30 6137 C 1023.44 -4.24011 6.4274 0
M  V30 6138 C 1024.17 -5.20775 5.52155 0
M  V30 6139 O 1024.38 -4.56534 4.22446 0
M  V30 6140 C 1025.57 -5.62629 5.96531 0
M  V30 6141 O 1025.96 -6.87667 5.41053 0
M  V30 6142 C 1026.45 -4.52537 5.39283 0
M  V30 6143 C 1025.74 -4.20027 4.08623 0
M  V30 6144 N 1025.79 -2.76189 3.71603 0
M  V30 6145 C 1025.71 -1.64862 4.52822 0
M  V30 6146 N 1025.79 -0.512671 3.88633 0
M  V30 6147 C 1025.93 -0.888083 2.54977 0
M  V30 6148 C 1026.06 -0.094668 1.38677 0
M  V30 6149 O 1026.08 1.13053 1.28163 0
M  V30 6150 N 1026.18 -0.890102 0.232633 0
M  V30 6151 C 1026.18 -2.26958 0.21772 0
M  V30 6152 N 1026.31 -2.84626 -0.97925 0
M  V30 6153 N 1026.05 -3.0178 1.31033 0
M  V30 6154 C 1025.93 -2.26781 2.43843 0
M  V30 6155 H 1022.95 -4.797 7.24003 0
M  V30 6156 H 1022.68 -3.69856 5.84513 0
M  V30 6157 H 1023.55 -6.10356 5.41441 0
M  V30 6158 H 1026.21 -4.79061 3.27488 0
M  V30 6159 H 1026.49 -3.64906 6.05785 0
M  V30 6160 H 1027.48 -4.8868 5.2125 0
M  V30 6161 H 1025.64 -5.66726 7.06352 0
M  V30 6162 H 1025.59 -1.71169 5.60966 0
M  V30 6163 H 1026.28 -0.419134 -0.644739 0
M  V30 6164 H 1026.31 -3.87332 -1.06098 0
M  V30 6165 H 1026.41 -2.26417 -1.82483 0
M  V30 6166 P 1027.51 -7.20834 5.23717 0
M  V30 6167 O 1027.73 -8.66104 5.38572 0
M  V30 6168 O 1028.3 -6.33544 6.1349 0
M  V30 6169 O 1027.76 -6.7751 3.72168 0
M  V30 6170 C 1026.82 -7.20825 2.7076 0
M  V30 6171 C 1027.55 -7.45864 1.40599 0
M  V30 6172 O 1027.76 -6.17651 0.734225 0
M  V30 6173 C 1028.95 -8.05808 1.51899 0
M  V30 6174 O 1029.34 -8.74358 0.335205 0
M  V30 6175 C 1029.83 -6.83093 1.70294 0
M  V30 6176 C 1029.12 -5.79992 0.836974 0
M  V30 6177 N 1029.17 -4.41864 1.38293 0
M  V30 6178 C 1029.09 -3.99538 2.69438 0
M  V30 6179 N 1029.17 -2.69909 2.84277 0
M  V30 6180 C 1029.31 -2.21719 1.5408 0
M  V30 6181 C 1029.44 -0.891712 1.06628 0
M  V30 6182 O 1029.46 0.161298 1.70137 0
M  V30 6183 N 1029.56 -0.856846 -0.334985 0
M  V30 6184 C 1029.56 -1.9641 -1.15789 0
M  V30 6185 N 1029.69 -1.72708 -2.46522 0
M  V30 6186 N 1029.43 -3.21165 -0.713741 0
M  V30 6187 C 1029.31 -3.26797 0.639748 0
M  V30 6188 H 1026.33 -8.13644 3.0377 0
M  V30 6189 H 1026.06 -6.42788 2.55485 0
M  V30 6190 H 1026.93 -8.12039 0.792769 0
M  V30 6191 H 1029.59 -5.80061 -0.166416 0
M  V30 6192 H 1029.87 -6.51287 2.75604 0
M  V30 6193 H 1030.86 -7.01734 1.34462 0
M  V30 6194 H 1029.02 -8.73674 2.38337 0
M  V30 6195 H 1028.97 -4.68207 3.53221 0
M  V30 6196 H 1029.66 0.0398818 -0.767965 0
M  V30 6197 H 1029.69 -2.50995 -3.13503 0
M  V30 6198 H 1029.79 -0.759148 -2.80716 0
M  V30 6199 P 1030.89 -8.91 -7.81545e-12 0
M  V30 6200 O 1031.11 -10.1726 -0.733694 0
M  V30 6201 O 1031.68 -8.73148 1.23936 0
M  V30 6202 O 1031.14 -7.66872 -0.971405 0
M  V30 6203 C 1030.2 -7.42309 -2.04641 0
M  V30 6204 C 1030.93 -6.86059 -3.24661 0
M  V30 6205 O 1031.14 -5.42847 -3.03646 0
M  V30 6206 C 1032.33 -7.41196 -3.50753 0
M  V30 6207 O 1032.72 -7.27073 -4.86816 0
M  V30 6208 C 1033.21 -6.5273 -2.63741 0
M  V30 6209 C 1032.5 -5.1842 -2.73198 0
M  V30 6210 N 1032.55 -4.38762 -1.4784 0
M  V30 6211 H 1029.71 -8.36803 -2.32493 0
M  V30 6212 H 1029.44 -6.70197 -1.71129 0
M  V30 6213 H 1030.31 -7.03551 -4.13168 0
M  V30 6214 P 1034.27 -7.20834 -5.23717 0
M  V30 6215 O 1034.49 -7.79853 -6.57286 0
M  V30 6216 O 1035.06 -7.79239 -4.12957 0
M  V30 6217 O 1034.52 -5.63315 -5.29344 0
M  V30 6218 C 1033.58 -4.80255 -6.01876 0
M  V30 6219 C 1034.31 -3.64202 -6.65911 0
M  V30 6220 O 1034.52 -2.60694 -5.64732 0
M  V30 6221 C 1035.71 -3.93473 -7.1943 0
M  V30 6222 O 1036.1 -3.02071 -8.21205 0
M  V30 6223 C 1036.59 -3.73047 -5.97036 0
M  V30 6224 C 1035.88 -2.58828 -5.25741 0
M  V30 6225 N 1035.93 -2.68068 -3.77503 0
M  V30 6226 H 1033.09 -5.40332 -6.79951 0
M  V30 6227 H 1032.82 -4.41613 -5.32378 0
M  V30 6228 H 1033.69 -3.26331 -7.47797 0
M  V30 6229 P 1037.65 -2.75334 -8.47391 0
M  V30 6230 O 1037.87 -2.44571 -9.90142 0
M  V30 6231 O 1038.44 -3.87688 -7.92115 0
M  V30 6232 O 1037.9 -1.4459 -7.59357 0
M  V30 6233 C 1036.96 -0.347608 -7.69215 0
M  V30 6234 C 1037.69 0.96767 -7.52806 0
M  V30 6235 O 1037.9 1.21036 -6.1011 0
M  V30 6236 C 1039.09 1.04544 -8.13308 0
M  V30 6237 O 1039.48 2.38311 -8.41922 0
M  V30 6238 C 1039.97 0.491279 -7.02284 0
M  V30 6239 C 1039.26 0.996264 -5.77469 0
M  V30 6240 N 1039.31 0.0501916 -4.62973 0
M  V30 6241 H 1036.47 -0.374722 -8.67691 0
M  V30 6242 H 1036.2 -0.443485 -6.90277 0
M  V30 6243 H 1037.07 1.75537 -7.96793 0
M  V30 6244 P 1041.03 2.75334 -8.47391 0
M  V30 6245 O 1041.25 3.84204 -9.44982 0
M  V30 6246 O 1041.82 1.51982 -8.68909 0
M  V30 6247 O 1041.28 3.29363 -6.99321 0
M  V30 6248 C 1040.34 4.24066 -6.42823 0
M  V30 6249 C 1041.07 5.20775 -5.52155 0
M  V30 6250 O 1041.28 4.56607 -4.22514 0
M  V30 6251 C 1042.47 5.62697 -5.96604 0
M  V30 6252 O 1042.86 6.87667 -5.41053 0
M  V30 6253 C 1043.35 4.52537 -5.39283 0
M  V30 6254 C 1042.64 4.20027 -4.08623 0
M  V30 6255 N 1042.69 2.76189 -3.71603 0
M  V30 6256 H 1039.86 4.79756 -7.24086 0
M  V30 6257 H 1039.58 3.69963 -5.84682 0
M  V30 6258 H 1040.45 6.10431 -5.41508 0
M  V30 6259 H 1043.11 4.78816 -3.28024 0
M  V30 6260 H 1043.39 3.64957 -6.05871 0
M  V30 6261 H 1044.38 4.88748 -5.21323 0
M  V30 6262 H 1042.54 5.66789 -7.0643 0
M  V30 6263 P 1044.41 7.20834 -5.23717 0
M  V30 6264 O 1044.63 8.66104 -5.38572 0
M  V30 6265 O 1045.2 6.33544 -6.1349 0
M  V30 6266 O 1044.66 6.7751 -3.72168 0
M  V30 6267 C 1043.72 7.20825 -2.7076 0
M  V30 6268 C 1044.45 7.45864 -1.40599 0
M  V30 6269 O 1044.66 6.17651 -0.734225 0
M  V30 6270 C 1045.85 8.05808 -1.51899 0
M  V30 6271 O 1046.24 8.74358 -0.335205 0
M  V30 6272 C 1046.73 6.83093 -1.70294 0
M  V30 6273 C 1046.02 5.79992 -0.836974 0
M  V30 6274 N 1046.07 4.41864 -1.38293 0
M  V30 6275 H 1043.23 8.13644 -3.0377 0
M  V30 6276 H 1042.96 6.42788 -2.55485 0
M  V30 6277 H 1043.83 8.12039 -0.792769 0
M  V30 6278 P 1047.79 8.91 7.97264e-12 0
M  V30 6279 O 1048.01 10.1736 0.733766 0
M  V30 6280 O 1048.58 8.73247 -1.2395 0
M  V30 6281 O 1048.04 7.66872 0.971405 0
M  V30 6282 C 1047.1 7.42212 2.04614 0
M  V30 6283 C 1047.83 6.86059 3.24661 0
M  V30 6284 O 1048.04 5.42847 3.03646 0
M  V30 6285 C 1049.23 7.41196 3.50753 0
M  V30 6286 O 1049.62 7.27073 4.86816 0
M  V30 6287 C 1050.11 6.5273 2.63741 0
M  V30 6288 C 1049.4 5.1842 2.73198 0
M  V30 6289 N 1049.45 4.38668 1.47808 0
M  V30 6290 C 1049.6 3.02239 1.60048 0
M  V30 6291 O 1049.69 2.46459 2.67869 0
M  V30 6292 N 1049.64 2.32436 0.408571 0
M  V30 6293 C 1049.55 2.85471 -0.854993 0
M  V30 6294 O 1049.6 2.12566 -1.8531 0
M  V30 6295 C 1049.4 4.28918 -0.887335 0
M  V30 6296 C 1049.29 4.91066 -2.24619 0
M  V30 6297 C 1049.35 5.00349 0.255399 0
M  V30 6298 H 1046.61 8.36803 2.32493 0
M  V30 6299 H 1046.34 6.701 1.71105 0
M  V30 6300 H 1047.21 7.03551 4.13168 0
M  V30 6301 H 1049.87 4.59773 3.53894 0
M  V30 6302 H 1050.15 6.88995 1.59871 0
M  V30 6303 H 1051.14 6.46749 3.03687 0
M  V30 6304 H 1049.3 8.46908 3.20714 0
M  V30 6305 H 1049.23 6.08548 0.206986 0
M  V30 6306 H 1050.26 5.34836 -2.53099 0
M  V30 6307 H 1048.53 5.69638 -2.2291 0
M  V30 6308 H 1049.01 4.13971 -2.98044 0
M  V30 6309 H 1049.75 1.33211 0.474216 0
M  V30 6310 P 1051.17 7.20834 5.23717 0
M  V30 6311 O 1051.39 7.79853 6.57286 0
M  V30 6312 O 1051.96 7.79239 4.12957 0
M  V30 6313 O 1051.42 5.63315 5.29344 0
M  V30 6314 C 1050.48 4.80255 6.01876 0
M  V30 6315 C 1051.21 3.64202 6.65911 0
M  V30 6316 O 1051.42 2.60694 5.64732 0
M  V30 6317 C 1052.61 3.93473 7.1943 0
M  V30 6318 O 1053 3.02071 8.21205 0
M  V30 6319 C 1053.49 3.73047 5.97036 0
M  V30 6320 C 1052.78 2.58828 5.25741 0
M  V30 6321 N 1052.83 2.68068 3.77503 0
M  V30 6322 H 1049.99 5.40332 6.79951 0
M  V30 6323 H 1049.72 4.41613 5.32378 0
M  V30 6324 H 1050.59 3.26331 7.47797 0
M  V30 6325 P 1054.55 2.75334 8.47391 0
M  V30 6326 O 1054.77 2.44571 9.90142 0
M  V30 6327 O 1055.34 3.87688 7.92115 0
M  V30 6328 O 1054.8 1.4459 7.59357 0
M  V30 6329 C 1053.86 0.347608 7.69215 0
M  V30 6330 C 1054.59 -0.96767 7.52806 0
M  V30 6331 O 1054.8 -1.21036 6.1011 0
M  V30 6332 C 1055.99 -1.04544 8.13308 0
M  V30 6333 O 1056.38 -2.38311 8.41922 0
M  V30 6334 C 1056.87 -0.491279 7.02284 0
M  V30 6335 C 1056.16 -0.996264 5.77469 0
M  V30 6336 N 1056.21 -0.0501916 4.62973 0
M  V30 6337 C 1056.13 1.32786 4.63244 0
M  V30 6338 N 1056.21 1.86957 3.44545 0
M  V30 6339 C 1056.35 0.780241 2.58481 0
M  V30 6340 C 1056.48 0.738536 1.17757 0
M  V30 6341 O 1056.5 1.66794 0.372349 0
M  V30 6342 N 1056.6 -0.58337 0.711393 0
M  V30 6343 C 1056.6 -1.70816 1.51017 0
M  V30 6344 N 1056.73 -2.87826 0.880757 0
M  V30 6345 N 1056.47 -1.67126 2.8339 0
M  V30 6346 C 1056.35 -0.401421 3.30572 0
M  V30 6347 H 1053.37 0.374722 8.67691 0
M  V30 6348 H 1053.1 0.443485 6.90277 0
M  V30 6349 H 1053.97 -1.75537 7.96793 0
M  V30 6350 H 1056.63 -1.95076 5.46529 0
M  V30 6351 H 1056.91 0.608565 7.04577 0
M  V30 6352 H 1057.9 -0.889672 7.08939 0
M  V30 6353 H 1056.06 -0.43308 9.04564 0
M  V30 6354 H 1056.01 1.91249 5.54442 0
M  V30 6355 H 1056.7 -0.718054 -0.275244 0
M  V30 6356 H 1056.73 -3.75721 1.41832 0
M  V30 6357 H 1056.83 -2.90436 -0.145468 0
M  V30 6358 P 1057.93 -2.75334 8.47391 0
M  V30 6359 O 1058.15 -3.84128 9.44797 0
M  V30 6360 O 1058.72 -1.51947 8.68712 0
M  V30 6361 O 1058.18 -3.29363 6.99321 0
M  V30 6362 C 1057.24 -4.24011 6.4274 0
M  V30 6363 C 1057.97 -5.20775 5.52155 0
M  V30 6364 O 1058.18 -4.56534 4.22446 0
M  V30 6365 C 1059.37 -5.62629 5.96531 0
M  V30 6366 O 1059.76 -6.87667 5.41053 0
M  V30 6367 C 1060.25 -4.52537 5.39283 0
M  V30 6368 C 1059.54 -4.20027 4.08623 0
M  V30 6369 N 1059.59 -2.76189 3.71603 0
M  V30 6370 H 1056.75 -4.797 7.24003 0
M  V30 6371 H 1056.48 -3.69856 5.84513 0
M  V30 6372 H 1057.35 -6.10356 5.41441 0
M  V30 6373 P 1061.31 -7.20834 5.23717 0
M  V30 6374 O 1061.53 -8.66104 5.38572 0
M  V30 6375 O 1062.1 -6.33544 6.1349 0
M  V30 6376 O 1061.56 -6.7751 3.72168 0
M  V30 6377 C 1060.62 -7.20825 2.7076 0
M  V30 6378 C 1061.35 -7.45864 1.40599 0
M  V30 6379 O 1061.56 -6.17651 0.734225 0
M  V30 6380 C 1062.75 -8.05808 1.51899 0
M  V30 6381 O 1063.14 -8.74358 0.335205 0
M  V30 6382 C 1063.63 -6.83093 1.70294 0
M  V30 6383 C 1062.92 -5.79992 0.836974 0
M  V30 6384 N 1062.97 -4.41864 1.38293 0
M  V30 6385 C 1062.89 -3.99538 2.69438 0
M  V30 6386 N 1062.97 -2.69909 2.84277 0
M  V30 6387 C 1063.11 -2.21719 1.5408 0
M  V30 6388 C 1063.24 -0.891712 1.06628 0
M  V30 6389 O 1063.26 0.161298 1.70137 0
M  V30 6390 N 1063.36 -0.856846 -0.334985 0
M  V30 6391 C 1063.36 -1.9641 -1.15789 0
M  V30 6392 N 1063.49 -1.72708 -2.46522 0
M  V30 6393 N 1063.23 -3.21165 -0.713741 0
M  V30 6394 C 1063.11 -3.26797 0.639748 0
M  V30 6395 H 1060.13 -8.13644 3.0377 0
M  V30 6396 H 1059.86 -6.42788 2.55485 0
M  V30 6397 H 1060.73 -8.12039 0.792769 0
M  V30 6398 H 1063.39 -5.80061 -0.166416 0
M  V30 6399 H 1063.67 -6.51287 2.75604 0
M  V30 6400 H 1064.66 -7.01734 1.34462 0
M  V30 6401 H 1062.82 -8.73674 2.38337 0
M  V30 6402 H 1062.77 -4.68207 3.53221 0
M  V30 6403 H 1063.46 0.0398818 -0.767965 0
M  V30 6404 H 1063.49 -2.50995 -3.13503 0
M  V30 6405 H 1063.59 -0.759148 -2.80716 0
M  V30 6406 P 1064.69 -8.91 -8.12982e-12 0
M  V30 6407 O 1064.91 -10.1746 -0.733838 0
M  V30 6408 O 1065.48 -8.73346 1.23964 0
M  V30 6409 O 1064.94 -7.66872 -0.971405 0
M  V30 6410 C 1064 -7.42405 -2.04668 0
M  V30 6411 C 1064.73 -6.86059 -3.24661 0
M  V30 6412 O 1064.94 -5.42934 -3.03695 0
M  V30 6413 C 1066.13 -7.41287 -3.50796 0
M  V30 6414 O 1066.52 -7.27073 -4.86816 0
M  V30 6415 C 1067.01 -6.5273 -2.63741 0
M  V30 6416 C 1066.3 -5.1842 -2.73198 0
M  V30 6417 N 1066.35 -4.38762 -1.4784 0
M  V30 6418 H 1063.52 -8.36899 -2.3252 0
M  V30 6419 H 1063.24 -6.70391 -1.71179 0
M  V30 6420 H 1064.11 -7.03638 -4.13219 0
M  V30 6421 H 1066.77 -4.59931 -3.54016 0
M  V30 6422 H 1067.05 -6.88995 -1.59871 0
M  V30 6423 H 1068.04 -6.4684 -3.0373 0
M  V30 6424 H 1066.2 -8.47002 -3.20749 0
M  V30 6425 P 1068.07 -7.20834 -5.23717 0
M  V30 6426 O 1068.29 -7.79853 -6.57286 0
M  V30 6427 O 1068.86 -7.79239 -4.12957 0
M  V30 6428 O 1068.32 -5.63315 -5.29344 0
M  V30 6429 C 1067.38 -4.80255 -6.01876 0
M  V30 6430 C 1068.11 -3.64202 -6.65911 0
M  V30 6431 O 1068.32 -2.60694 -5.64732 0
M  V30 6432 C 1069.51 -3.93473 -7.1943 0
M  V30 6433 O 1069.9 -3.02071 -8.21205 0
M  V30 6434 C 1070.39 -3.73047 -5.97036 0
M  V30 6435 C 1069.68 -2.58828 -5.25741 0
M  V30 6436 N 1069.73 -2.68068 -3.77503 0
M  V30 6437 C 1069.65 -3.79715 -2.96723 0
M  V30 6438 N 1069.73 -3.5377 -1.68852 0
M  V30 6439 C 1069.87 -2.15054 -1.63254 0
M  V30 6440 C 1070 -1.28964 -0.518571 0
M  V30 6441 O 1070.02 -1.56826 0.679156 0
M  V30 6442 N 1070.12 0.0538097 -0.918425 0
M  V30 6443 C 1070.12 0.494275 -2.22578 0
M  V30 6444 N 1070.25 1.81086 -2.40434 0
M  V30 6445 N 1069.99 -0.313645 -3.27502 0
M  V30 6446 C 1069.87 -1.61829 -2.91033 0
M  V30 6447 H 1066.89 -5.40332 -6.79951 0
M  V30 6448 H 1066.62 -4.41613 -5.32378 0
M  V30 6449 H 1067.49 -3.26331 -7.47797 0
M  V30 6450 H 1070.15 -1.63422 -5.56814 0
M  V30 6451 H 1070.43 -4.63374 -5.34244 0
M  V30 6452 H 1071.42 -3.44728 -6.25838 0
M  V30 6453 H 1069.58 -4.96652 -7.57263 0
M  V30 6454 H 1069.53 -4.80617 -3.3614 0
M  V30 6455 H 1070.22 0.742702 -0.199384 0
M  V30 6456 H 1070.25 2.20598 -3.35588 0
M  V30 6457 H 1070.35 2.43518 -1.58945 0
M  V30 6458 P 1071.45 -2.75334 -8.47391 0
M  V30 6459 O 1071.67 -2.44571 -9.90142 0
M  V30 6460 O 1072.24 -3.87688 -7.92115 0
M  V30 6461 O 1071.7 -1.4459 -7.59357 0
M  V30 6462 C 1070.76 -0.347608 -7.69215 0
M  V30 6463 C 1071.49 0.96767 -7.52806 0
M  V30 6464 O 1071.7 1.21036 -6.1011 0
M  V30 6465 C 1072.89 1.04544 -8.13308 0
M  V30 6466 O 1073.28 2.38311 -8.41922 0
M  V30 6467 C 1073.77 0.491279 -7.02284 0
M  V30 6468 C 1073.06 0.996264 -5.77469 0
M  V30 6469 N 1073.11 0.0501916 -4.62973 0
M  V30 6470 H 1070.27 -0.374722 -8.67691 0
M  V30 6471 H 1070 -0.443485 -6.90277 0
M  V30 6472 H 1070.87 1.75537 -7.96793 0
M  V30 6473 P 1074.83 2.75334 -8.47391 0
M  V30 6474 O 1075.05 3.84128 -9.44797 0
M  V30 6475 O 1075.62 1.51947 -8.68712 0
M  V30 6476 O 1075.08 3.29363 -6.99321 0
M  V30 6477 C 1074.14 4.24011 -6.4274 0
M  V30 6478 C 1074.87 5.20775 -5.52155 0
M  V30 6479 O 1075.08 4.56534 -4.22446 0
M  V30 6480 C 1076.27 5.62629 -5.96531 0
M  V30 6481 O 1076.66 6.87667 -5.41053 0
M  V30 6482 C 1077.15 4.52537 -5.39283 0
M  V30 6483 C 1076.44 4.20027 -4.08623 0
M  V30 6484 N 1076.49 2.76189 -3.71603 0
M  V30 6485 H 1073.65 4.797 -7.24003 0
M  V30 6486 H 1073.38 3.69856 -5.84513 0
M  V30 6487 H 1074.25 6.10356 -5.41441 0
M  V30 6488 P 1078.21 7.20834 -5.23717 0
M  V30 6489 O 1078.43 8.66189 -5.38625 0
M  V30 6490 O 1079 6.33615 -6.1356 0
M  V30 6491 O 1078.46 6.7751 -3.72168 0
M  V30 6492 C 1077.52 7.20732 -2.70725 0
M  V30 6493 C 1078.25 7.45864 -1.40599 0
M  V30 6494 O 1078.46 6.17651 -0.734225 0
M  V30 6495 C 1079.65 8.05808 -1.51899 0
M  V30 6496 O 1080.04 8.74358 -0.335205 0
M  V30 6497 C 1080.53 6.83093 -1.70294 0
M  V30 6498 C 1079.82 5.79992 -0.836974 0
M  V30 6499 N 1079.87 4.41769 -1.38263 0
M  V30 6500 C 1080.02 3.38591 -0.481702 0
M  V30 6501 O 1080.11 3.56839 0.718452 0
M  V30 6502 N 1080.06 2.1206 -1.03569 0
M  V30 6503 C 1079.97 1.80696 -2.36966 0
M  V30 6504 O 1080.02 0.630473 -2.74862 0
M  V30 6505 C 1079.82 2.94845 -3.23898 0
M  V30 6506 C 1079.71 2.65253 -4.70362 0
M  V30 6507 C 1079.77 4.19803 -2.73435 0
M  V30 6508 H 1077.03 8.13644 -3.0377 0
M  V30 6509 H 1076.76 6.42695 -2.55448 0
M  V30 6510 H 1077.63 8.12039 -0.792769 0
M  V30 6511 H 1080.29 5.79978 0.160587 0
M  V30 6512 H 1080.57 6.51379 -2.75643 0
M  V30 6513 H 1081.56 7.01734 -1.34462 0
M  V30 6514 H 1079.72 8.73674 -2.38337 0
M  V30 6515 H 1079.65 5.04492 -3.4095 0
M  V30 6516 H 1080.68 2.83924 -5.1913 0
M  V30 6517 H 1078.95 3.29824 -5.15163 0
M  V30 6518 H 1079.43 1.59723 -4.84449 0
M  V30 6519 H 1080.17 1.35644 -0.399345 0
M  V30 6520 P 1081.59 8.91 8.287e-12 0
M  V30 6521 O 1081.81 10.1726 0.733694 0
M  V30 6522 O 1082.38 8.73148 -1.23936 0
M  V30 6523 O 1081.84 7.66872 0.971405 0
M  V30 6524 C 1080.9 7.42309 2.04641 0
M  V30 6525 C 1081.63 6.86059 3.24661 0
M  V30 6526 O 1081.84 5.42847 3.03646 0
M  V30 6527 C 1083.03 7.41196 3.50753 0
M  V30 6528 O 1083.42 7.27073 4.86816 0
M  V30 6529 C 1083.91 6.5273 2.63741 0
M  V30 6530 C 1083.2 5.1842 2.73198 0
M  V30 6531 N 1083.25 4.38762 1.4784 0
M  V30 6532 H 1080.41 8.36803 2.32493 0
M  V30 6533 H 1080.14 6.70197 1.71129 0
M  V30 6534 H 1081.01 7.03551 4.13168 0
M  V30 6535 P 1084.97 7.20834 5.23717 0
M  V30 6536 O 1085.19 7.79853 6.57286 0
M  V30 6537 O 1085.76 7.79239 4.12957 0
M  V30 6538 O 1085.22 5.63315 5.29344 0
M  V30 6539 C 1084.28 4.80255 6.01876 0
M  V30 6540 C 1085.01 3.64202 6.65911 0
M  V30 6541 O 1085.22 2.60694 5.64732 0
M  V30 6542 C 1086.41 3.93473 7.1943 0
M  V30 6543 O 1086.8 3.02071 8.21205 0
M  V30 6544 C 1087.29 3.73047 5.97036 0
M  V30 6545 C 1086.58 2.58828 5.25741 0
M  V30 6546 N 1086.63 2.68068 3.77503 0
M  V30 6547 H 1083.79 5.40332 6.79951 0
M  V30 6548 H 1083.52 4.41613 5.32378 0
M  V30 6549 H 1084.39 3.26331 7.47797 0
M  V30 6550 P 1088.35 2.75334 8.47391 0
M  V30 6551 O 1088.57 2.44571 9.90142 0
M  V30 6552 O 1089.14 3.87688 7.92115 0
M  V30 6553 O 1088.6 1.4459 7.59357 0
M  V30 6554 C 1087.66 0.347608 7.69215 0
M  V30 6555 C 1088.39 -0.96767 7.52806 0
M  V30 6556 O 1088.6 -1.21036 6.1011 0
M  V30 6557 C 1089.79 -1.04544 8.13308 0
M  V30 6558 O 1090.18 -2.38311 8.41922 0
M  V30 6559 C 1090.67 -0.491279 7.02284 0
M  V30 6560 C 1089.96 -0.996264 5.77469 0
M  V30 6561 N 1090.01 -0.0501916 4.62973 0
M  V30 6562 C 1089.93 1.32786 4.63244 0
M  V30 6563 N 1090.01 1.86957 3.44545 0
M  V30 6564 C 1090.15 0.780241 2.58481 0
M  V30 6565 C 1090.28 0.738536 1.17757 0
M  V30 6566 N 1090.4 -0.58337 0.711393 0
M  V30 6567 C 1090.4 -1.70816 1.51017 0
M  V30 6568 N 1090.53 -2.87826 0.880757 0
M  V30 6569 N 1090.27 -1.67126 2.8339 0
M  V30 6570 C 1090.15 -0.401421 3.30572 0
M  V30 6571 H 1087.17 0.374722 8.67691 0
M  V30 6572 H 1086.9 0.443485 6.90277 0
M  V30 6573 H 1087.77 -1.75537 7.96793 0
M  V30 6574 P 1091.73 -2.75334 8.47391 0
M  V30 6575 O 1091.95 -3.84128 9.44797 0
M  V30 6576 O 1092.52 -1.51947 8.68712 0
M  V30 6577 O 1091.98 -3.29363 6.99321 0
M  V30 6578 C 1091.04 -4.24011 6.4274 0
M  V30 6579 C 1091.77 -5.20775 5.52155 0
M  V30 6580 O 1091.98 -4.56534 4.22446 0
M  V30 6581 C 1093.17 -5.62629 5.96531 0
M  V30 6582 O 1093.56 -6.87667 5.41053 0
M  V30 6583 C 1094.05 -4.52537 5.39283 0
M  V30 6584 C 1093.34 -4.20027 4.08623 0
M  V30 6585 N 1093.39 -2.76189 3.71603 0
M  V30 6586 H 1090.55 -4.797 7.24003 0
M  V30 6587 H 1090.28 -3.69856 5.84513 0
M  V30 6588 H 1091.15 -6.10356 5.41441 0
M  V30 6589 P 1095.11 -7.20834 5.23717 0
M  V30 6590 O 1095.33 -8.66104 5.38572 0
M  V30 6591 O 1095.9 -6.33544 6.1349 0
M  V30 6592 O 1095.36 -6.7751 3.72168 0
M  V30 6593 C 1094.42 -7.20825 2.7076 0
M  V30 6594 C 1095.15 -7.45864 1.40599 0
M  V30 6595 O 1095.36 -6.17651 0.734225 0
M  V30 6596 C 1096.55 -8.05808 1.51899 0
M  V30 6597 O 1096.94 -8.74358 0.335205 0
M  V30 6598 C 1097.43 -6.83093 1.70294 0
M  V30 6599 C 1096.72 -5.79992 0.836974 0
M  V30 6600 N 1096.77 -4.41864 1.38293 0
M  V30 6601 H 1093.93 -8.13644 3.0377 0
M  V30 6602 H 1093.66 -6.42788 2.55485 0
M  V30 6603 H 1094.53 -8.12039 0.792769 0
M  V30 6604 P 1098.49 -8.91 -8.44418e-12 0
M  V30 6605 O 1098.71 -10.1746 -0.733838 0
M  V30 6606 O 1099.28 -8.73346 1.23964 0
M  V30 6607 O 1098.74 -7.66872 -0.971405 0
M  V30 6608 C 1097.8 -7.42405 -2.04668 0
M  V30 6609 C 1098.53 -6.86059 -3.24661 0
M  V30 6610 O 1098.74 -5.42934 -3.03695 0
M  V30 6611 C 1099.93 -7.41287 -3.50796 0
M  V30 6612 O 1100.32 -7.27073 -4.86816 0
M  V30 6613 C 1100.81 -6.5273 -2.63741 0
M  V30 6614 C 1100.1 -5.1842 -2.73198 0
M  V30 6615 N 1100.15 -4.38762 -1.4784 0
M  V30 6616 C 1100.07 -4.83651 -0.183876 0
M  V30 6617 N 1100.14 -3.88759 0.699393 0
M  V30 6618 C 1100.29 -2.7404 -0.0575568 0
M  V30 6619 C 1100.42 -1.37902 0.293928 0
M  V30 6620 N 1100.43 -0.938021 1.54797 0
M  V30 6621 N 1100.54 -0.491817 -0.70549 0
M  V30 6622 C 1100.53 -0.931735 -1.95979 0
M  V30 6623 N 1100.41 -2.16017 -2.41481 0
M  V30 6624 C 1100.29 -3.02547 -1.39121 0
M  V30 6625 H 1097.32 -8.36899 -2.3252 0
M  V30 6626 H 1097.04 -6.70391 -1.71179 0
M  V30 6627 H 1097.91 -7.03638 -4.13219 0
M  V30 6628 H 1100.57 -4.59931 -3.54016 0
M  V30 6629 H 1100.85 -6.88995 -1.59871 0
M  V30 6630 H 1101.84 -6.4684 -3.0373 0
M  V30 6631 H 1100 -8.47002 -3.20749 0
M  V30 6632 H 1099.96 -5.8885 0.0765548 0
M  V30 6633 H 1100.34 -1.60276 2.32875 0
M  V30 6634 H 1100.53 0.0699355 1.73859 0
M  V30 6635 H 1100.64 -0.165507 -2.71897 0
M  V30 6636 P 1101.87 -7.20834 -5.23717 0
M  V30 6637 O 1102.09 -7.79853 -6.57286 0
M  V30 6638 O 1102.66 -7.79239 -4.12957 0
M  V30 6639 O 1102.12 -5.63315 -5.29344 0
M  V30 6640 C 1101.18 -4.80255 -6.01876 0
M  V30 6641 C 1101.91 -3.64202 -6.65911 0
M  V30 6642 O 1102.12 -2.60694 -5.64732 0
M  V30 6643 C 1103.31 -3.93473 -7.1943 0
M  V30 6644 O 1103.7 -3.02071 -8.21205 0
M  V30 6645 C 1104.19 -3.73047 -5.97036 0
M  V30 6646 C 1103.48 -2.58828 -5.25741 0
M  V30 6647 N 1103.53 -2.68068 -3.77503 0
M  V30 6648 H 1100.69 -5.40332 -6.79951 0
M  V30 6649 H 1100.42 -4.41613 -5.32378 0
M  V30 6650 H 1101.29 -3.26331 -7.47797 0
M  V30 6651 P 1105.25 -2.75334 -8.47391 0
M  V30 6652 O 1105.47 -2.44571 -9.90142 0
M  V30 6653 O 1106.04 -3.87688 -7.92115 0
M  V30 6654 O 1105.5 -1.4459 -7.59357 0
M  V30 6655 C 1104.56 -0.347608 -7.69215 0
M  V30 6656 C 1105.29 0.96767 -7.52806 0
M  V30 6657 O 1105.5 1.21036 -6.1011 0
M  V30 6658 C 1106.69 1.04544 -8.13308 0
M  V30 6659 O 1107.08 2.38311 -8.41922 0
M  V30 6660 C 1107.57 0.491279 -7.02284 0
M  V30 6661 C 1106.86 0.996264 -5.77469 0
M  V30 6662 N 1106.91 0.0501916 -4.62973 0
M  V30 6663 H 1104.07 -0.374722 -8.67691 0
M  V30 6664 H 1103.8 -0.443485 -6.90277 0
M  V30 6665 H 1104.67 1.75537 -7.96793 0
M  V30 6666 P 1108.63 2.75334 -8.47391 0
M  V30 6667 O 1108.85 3.84204 -9.44982 0
M  V30 6668 O 1109.42 1.51982 -8.68909 0
M  V30 6669 O 1108.88 3.29363 -6.99321 0
M  V30 6670 C 1107.94 4.24066 -6.42823 0
M  V30 6671 C 1108.67 5.20775 -5.52155 0
M  V30 6672 O 1108.88 4.56607 -4.22514 0
M  V30 6673 C 1110.07 5.62697 -5.96604 0
M  V30 6674 O 1110.46 6.87667 -5.41053 0
M  V30 6675 C 1110.95 4.52537 -5.39283 0
M  V30 6676 C 1110.24 4.20027 -4.08623 0
M  V30 6677 N 1110.29 2.76189 -3.71603 0
M  V30 6678 H 1107.46 4.79756 -7.24086 0
M  V30 6679 H 1107.18 3.69963 -5.84682 0
M  V30 6680 H 1108.05 6.10431 -5.41508 0
M  V30 6681 H 1110.71 4.78816 -3.28024 0
M  V30 6682 H 1110.99 3.64957 -6.05871 0
M  V30 6683 H 1111.98 4.88748 -5.21323 0
M  V30 6684 H 1110.14 5.66789 -7.0643 0
M  V30 6685 P 1112.01 7.20834 -5.23717 0
M  V30 6686 O 1112.23 8.66104 -5.38572 0
M  V30 6687 O 1112.8 6.33544 -6.1349 0
M  V30 6688 O 1112.26 6.7751 -3.72168 0
M  V30 6689 C 1111.32 7.20825 -2.7076 0
M  V30 6690 C 1112.05 7.45864 -1.40599 0
M  V30 6691 O 1112.26 6.17651 -0.734225 0
M  V30 6692 C 1113.45 8.05808 -1.51899 0
M  V30 6693 O 1113.84 8.74358 -0.335205 0
M  V30 6694 C 1114.33 6.83093 -1.70294 0
M  V30 6695 C 1113.62 5.79992 -0.836974 0
M  V30 6696 N 1113.67 4.41864 -1.38293 0
M  V30 6697 C 1113.59 3.99538 -2.69438 0
M  V30 6698 N 1113.67 2.69909 -2.84277 0
M  V30 6699 C 1113.81 2.21719 -1.5408 0
M  V30 6700 C 1113.94 0.891712 -1.06628 0
M  V30 6701 O 1113.96 -0.161298 -1.70137 0
M  V30 6702 N 1114.06 0.856846 0.334985 0
M  V30 6703 C 1114.06 1.9641 1.15789 0
M  V30 6704 N 1114.19 1.72708 2.46522 0
M  V30 6705 N 1113.93 3.21165 0.713741 0
M  V30 6706 C 1113.81 3.26797 -0.639748 0
M  V30 6707 H 1110.83 8.13644 -3.0377 0
M  V30 6708 H 1110.56 6.42788 -2.55485 0
M  V30 6709 H 1111.43 8.12039 -0.792769 0
M  V30 6710 H 1114.09 5.80061 0.166416 0
M  V30 6711 H 1114.37 6.51287 -2.75604 0
M  V30 6712 H 1115.36 7.01734 -1.34462 0
M  V30 6713 H 1113.52 8.73674 -2.38337 0
M  V30 6714 H 1113.47 4.68207 -3.53221 0
M  V30 6715 H 1114.16 -0.0398818 0.767965 0
M  V30 6716 H 1114.19 2.50995 3.13503 0
M  V30 6717 H 1114.29 0.759148 2.80716 0
M  V30 6718 P 1115.39 8.91 8.60137e-12 0
M  V30 6719 O 1115.61 10.1736 0.733766 0
M  V30 6720 O 1116.18 8.73247 -1.2395 0
M  V30 6721 O 1115.64 7.66872 0.971405 0
M  V30 6722 C 1114.7 7.42212 2.04614 0
M  V30 6723 C 1115.43 6.86059 3.24661 0
M  V30 6724 O 1115.64 5.42847 3.03646 0
M  V30 6725 C 1116.83 7.41196 3.50753 0
M  V30 6726 O 1117.22 7.27073 4.86816 0
M  V30 6727 C 1117.71 6.5273 2.63741 0
M  V30 6728 C 1117 5.1842 2.73198 0
M  V30 6729 N 1117.05 4.38668 1.47808 0
M  V30 6730 C 1117.2 3.02239 1.60048 0
M  V30 6731 O 1117.29 2.46459 2.67869 0
M  V30 6732 N 1117.24 2.32436 0.408571 0
M  V30 6733 C 1117.15 2.85471 -0.854993 0
M  V30 6734 O 1117.2 2.12566 -1.8531 0
M  V30 6735 C 1117 4.28918 -0.887335 0
M  V30 6736 C 1116.89 4.91066 -2.24619 0
M  V30 6737 C 1116.95 5.00349 0.255399 0
M  V30 6738 H 1114.21 8.36803 2.32493 0
M  V30 6739 H 1113.94 6.701 1.71105 0
M  V30 6740 H 1114.81 7.03551 4.13168 0
M  V30 6741 H 1117.47 4.59773 3.53894 0
M  V30 6742 H 1117.75 6.88995 1.59871 0
M  V30 6743 H 1118.74 6.46749 3.03687 0
M  V30 6744 H 1116.9 8.46908 3.20714 0
M  V30 6745 H 1116.83 6.08548 0.206986 0
M  V30 6746 H 1117.86 5.34836 -2.53099 0
M  V30 6747 H 1116.13 5.69638 -2.2291 0
M  V30 6748 H 1116.61 4.13971 -2.98044 0
M  V30 6749 H 1117.35 1.33211 0.474216 0
M  V30 6750 P 1118.77 7.20834 5.23717 0
M  V30 6751 O 1118.99 7.80006 6.57415 0
M  V30 6752 O 1119.56 7.79416 4.13051 0
M  V30 6753 O 1119.02 5.63315 5.29344 0
M  V30 6754 C 1118.08 4.80318 6.01954 0
M  V30 6755 C 1118.81 3.64202 6.65911 0
M  V30 6756 O 1119.02 2.60736 5.64823 0
M  V30 6757 C 1120.21 3.93521 7.19518 0
M  V30 6758 O 1120.6 3.02071 8.21205 0
M  V30 6759 C 1121.09 3.73047 5.97036 0
M  V30 6760 C 1120.38 2.58828 5.25741 0
M  V30 6761 N 1120.43 2.68068 3.77503 0
M  V30 6762 C 1120.35 3.80474 2.99159 0
M  V30 6763 N 1120.42 3.55622 1.71925 0
M  V30 6764 C 1120.57 2.1832 1.65733 0
M  V30 6765 C 1120.7 1.28842 0.572777 0
M  V30 6766 N 1120.71 1.66875 -0.70098 0
M  V30 6767 N 1120.82 -0.016788 0.859836 0
M  V30 6768 C 1120.81 -0.398145 2.13316 0
M  V30 6769 N 1120.69 0.328224 3.22333 0
M  V30 6770 C 1120.57 1.62992 2.90383 0
M  V30 6771 H 1117.6 5.40394 6.8003 0
M  V30 6772 H 1117.32 4.41741 5.32532 0
M  V30 6773 H 1118.19 3.26371 7.47889 0
M  V30 6774 H 1120.85 1.64007 5.56746 0
M  V30 6775 H 1121.13 4.63439 5.3432 0
M  V30 6776 H 1122.12 3.44776 6.25925 0
M  V30 6777 H 1120.28 4.96707 7.57347 0
M  V30 6778 H 1120.24 4.8089 3.39924 0
M  V30 6779 H 1120.62 2.66547 -0.941919 0
M  V30 6780 H 1120.81 0.965341 -1.44766 0
M  V30 6781 H 1120.92 -1.46427 2.29697 0
M  V30 6782 P 1122.15 2.75334 8.47391 0
M  V30 6783 O 1122.37 2.44619 9.90336 0
M  V30 6784 O 1122.94 3.87776 7.92294 0
M  V30 6785 O 1122.4 1.4459 7.59357 0
M  V30 6786 C 1121.46 0.347653 7.69315 0
M  V30 6787 C 1122.19 -0.96767 7.52806 0
M  V30 6788 O 1122.4 -1.21055 6.10208 0
M  V30 6789 C 1123.59 -1.04557 8.13408 0
M  V30 6790 O 1123.98 -2.38311 8.41922 0
M  V30 6791 C 1124.47 -0.491279 7.02284 0
M  V30 6792 C 1123.76 -0.996264 5.77469 0
M  V30 6793 N 1123.81 -0.0501916 4.62973 0
M  V30 6794 H 1120.98 0.374765 8.67791 0
M  V30 6795 H 1120.7 0.443613 6.90476 0
M  V30 6796 H 1121.57 -1.75559 7.96891 0
M  V30 6797 H 1124.23 -1.94563 5.46818 0
M  V30 6798 H 1124.51 0.608651 7.04676 0
M  V30 6799 H 1125.5 -0.889796 7.09039 0
M  V30 6800 H 1123.66 -0.433128 9.04664 0
M  V30 6801 P 1125.53 -2.75334 8.47391 0
M  V30 6802 O 1125.75 -3.84128 9.44797 0
M  V30 6803 O 1126.32 -1.51947 8.68712 0
M  V30 6804 O 1125.78 -3.29363 6.99321 0
M  V30 6805 C 1124.84 -4.24011 6.4274 0
M  V30 6806 C 1125.57 -5.20775 5.52155 0
M  V30 6807 O 1125.78 -4.56534 4.22446 0
M  V30 6808 C 1126.97 -5.62629 5.96531 0
M  V30 6809 O 1127.36 -6.87667 5.41053 0
M  V30 6810 C 1127.85 -4.52537 5.39283 0
M  V30 6811 C 1127.14 -4.20027 4.08623 0
M  V30 6812 N 1127.19 -2.76189 3.71603 0
M  V30 6813 C 1127.11 -1.64862 4.52822 0
M  V30 6814 N 1127.19 -0.512671 3.88633 0
M  V30 6815 C 1127.33 -0.888083 2.54977 0
M  V30 6816 C 1127.46 -0.094668 1.38677 0
M  V30 6817 O 1127.48 1.13053 1.28163 0
M  V30 6818 N 1127.58 -0.890102 0.232633 0
M  V30 6819 C 1127.58 -2.26958 0.21772 0
M  V30 6820 N 1127.71 -2.84626 -0.97925 0
M  V30 6821 N 1127.45 -3.0178 1.31033 0
M  V30 6822 C 1127.33 -2.26781 2.43843 0
M  V30 6823 H 1124.35 -4.797 7.24003 0
M  V30 6824 H 1124.08 -3.69856 5.84513 0
M  V30 6825 H 1124.95 -6.10356 5.41441 0
M  V30 6826 H 1127.61 -4.79061 3.27488 0
M  V30 6827 H 1127.89 -3.64906 6.05785 0
M  V30 6828 H 1128.88 -4.8868 5.2125 0
M  V30 6829 H 1127.04 -5.66726 7.06352 0
M  V30 6830 H 1126.99 -1.71169 5.60966 0
M  V30 6831 H 1127.68 -0.419134 -0.644739 0
M  V30 6832 H 1127.71 -3.87332 -1.06098 0
M  V30 6833 H 1127.81 -2.26417 -1.82483 0
M  V30 6834 P 1128.91 -7.20834 5.23717 0
M  V30 6835 O 1129.13 -8.66104 5.38572 0
M  V30 6836 O 1129.7 -6.33544 6.1349 0
M  V30 6837 O 1129.16 -6.7751 3.72168 0
M  V30 6838 C 1128.22 -7.20825 2.7076 0
M  V30 6839 C 1128.95 -7.45864 1.40599 0
M  V30 6840 O 1129.16 -6.17651 0.734225 0
M  V30 6841 C 1130.35 -8.05808 1.51899 0
M  V30 6842 O 1130.74 -8.74358 0.335205 0
M  V30 6843 C 1131.23 -6.83093 1.70294 0
M  V30 6844 C 1130.52 -5.79992 0.836974 0
M  V30 6845 N 1130.57 -4.41864 1.38293 0
M  V30 6846 H 1127.73 -8.13644 3.0377 0
M  V30 6847 H 1127.46 -6.42788 2.55485 0
M  V30 6848 H 1128.33 -8.12039 0.792769 0
M  V30 6849 P 1132.29 -8.91 -8.75855e-12 0
M  V30 6850 O 1132.51 -10.1726 -0.733694 0
M  V30 6851 O 1133.08 -8.73148 1.23936 0
M  V30 6852 O 1132.54 -7.66872 -0.971405 0
M  V30 6853 C 1131.6 -7.42309 -2.04641 0
M  V30 6854 C 1132.33 -6.86059 -3.24661 0
M  V30 6855 O 1132.54 -5.42847 -3.03646 0
M  V30 6856 C 1133.73 -7.41196 -3.50753 0
M  V30 6857 O 1134.12 -7.27073 -4.86816 0
M  V30 6858 C 1134.61 -6.5273 -2.63741 0
M  V30 6859 C 1133.9 -5.1842 -2.73198 0
M  V30 6860 N 1133.95 -4.38762 -1.4784 0
M  V30 6861 H 1131.11 -8.36803 -2.32493 0
M  V30 6862 H 1130.84 -6.70197 -1.71129 0
M  V30 6863 H 1131.71 -7.03551 -4.13168 0
M  V30 6864 P 1135.67 -7.20834 -5.23717 0
M  V30 6865 O 1135.89 -7.79853 -6.57286 0
M  V30 6866 O 1136.46 -7.79239 -4.12957 0
M  V30 6867 O 1135.92 -5.63315 -5.29344 0
M  V30 6868 C 1134.98 -4.80255 -6.01876 0
M  V30 6869 C 1135.71 -3.64202 -6.65911 0
M  V30 6870 O 1135.92 -2.60694 -5.64732 0
M  V30 6871 C 1137.11 -3.93473 -7.1943 0
M  V30 6872 O 1137.5 -3.02071 -8.21205 0
M  V30 6873 C 1137.99 -3.73047 -5.97036 0
M  V30 6874 C 1137.28 -2.58828 -5.25741 0
M  V30 6875 N 1137.33 -2.68068 -3.77503 0
M  V30 6876 H 1134.49 -5.40332 -6.79951 0
M  V30 6877 H 1134.22 -4.41613 -5.32378 0
M  V30 6878 H 1135.09 -3.26331 -7.47797 0
M  V30 6879 P 1139.05 -2.75334 -8.47391 0
M  V30 6880 O 1139.27 -2.44571 -9.90142 0
M  V30 6881 O 1139.84 -3.87688 -7.92115 0
M  V30 6882 O 1139.3 -1.4459 -7.59357 0
M  V30 6883 C 1138.36 -0.347608 -7.69215 0
M  V30 6884 C 1139.09 0.96767 -7.52806 0
M  V30 6885 O 1139.3 1.21036 -6.1011 0
M  V30 6886 C 1140.49 1.04544 -8.13308 0
M  V30 6887 O 1140.88 2.38311 -8.41922 0
M  V30 6888 C 1141.37 0.491279 -7.02284 0
M  V30 6889 C 1140.66 0.996264 -5.77469 0
M  V30 6890 N 1140.71 0.0501916 -4.62973 0
M  V30 6891 C 1140.63 -1.32786 -4.63244 0
M  V30 6892 N 1140.71 -1.86957 -3.44545 0
M  V30 6893 C 1140.85 -0.780241 -2.58481 0
M  V30 6894 C 1140.98 -0.738536 -1.17757 0
M  V30 6895 O 1141 -1.66794 -0.372349 0
M  V30 6896 N 1141.1 0.58337 -0.711393 0
M  V30 6897 C 1141.1 1.70816 -1.51017 0
M  V30 6898 N 1141.23 2.87826 -0.880757 0
M  V30 6899 N 1140.97 1.67126 -2.8339 0
M  V30 6900 C 1140.85 0.401421 -3.30572 0
M  V30 6901 H 1137.87 -0.374722 -8.67691 0
M  V30 6902 H 1137.6 -0.443485 -6.90277 0
M  V30 6903 H 1138.47 1.75537 -7.96793 0
M  V30 6904 H 1141.13 1.95076 -5.46529 0
M  V30 6905 H 1141.41 -0.608565 -7.04577 0
M  V30 6906 H 1142.4 0.889672 -7.08939 0
M  V30 6907 H 1140.56 0.43308 -9.04564 0
M  V30 6908 H 1140.51 -1.91249 -5.54442 0
M  V30 6909 H 1141.2 0.718054 0.275244 0
M  V30 6910 H 1141.23 3.75721 -1.41832 0
M  V30 6911 H 1141.33 2.90436 0.145468 0
M  V30 6912 P 1142.43 2.75334 -8.47391 0
M  V30 6913 O 1142.65 3.84128 -9.44797 0
M  V30 6914 O 1143.22 1.51947 -8.68712 0
M  V30 6915 O 1142.68 3.29363 -6.99321 0
M  V30 6916 C 1141.74 4.24011 -6.4274 0
M  V30 6917 C 1142.47 5.20775 -5.52155 0
M  V30 6918 O 1142.68 4.56534 -4.22446 0
M  V30 6919 C 1143.87 5.62629 -5.96531 0
M  V30 6920 O 1144.26 6.87667 -5.41053 0
M  V30 6921 C 1144.75 4.52537 -5.39283 0
M  V30 6922 C 1144.04 4.20027 -4.08623 0
M  V30 6923 N 1144.09 2.76189 -3.71603 0
M  V30 6924 H 1141.25 4.797 -7.24003 0
M  V30 6925 H 1140.98 3.69856 -5.84513 0
M  V30 6926 H 1141.85 6.10356 -5.41441 0
M  V30 6927 P 1145.81 7.20834 -5.23717 0
M  V30 6928 O 1146.03 8.66274 -5.38678 0
M  V30 6929 O 1146.6 6.33687 -6.13629 0
M  V30 6930 O 1146.06 6.7751 -3.72168 0
M  V30 6931 C 1145.12 7.20919 -2.70795 0
M  V30 6932 C 1145.85 7.45864 -1.40599 0
M  V30 6933 O 1146.06 6.17751 -0.734343 0
M  V30 6934 C 1147.25 8.05906 -1.51917 0
M  V30 6935 O 1147.64 8.74358 -0.335205 0
M  V30 6936 C 1148.13 6.83093 -1.70294 0
M  V30 6937 C 1147.42 5.79992 -0.836974 0
M  V30 6938 N 1147.47 4.41864 -1.38293 0
M  V30 6939 C 1147.39 4.02089 -2.69407 0
M  V30 6940 N 1147.46 2.73403 -2.85089 0
M  V30 6941 C 1147.61 2.25086 -1.5642 0
M  V30 6942 C 1147.74 0.942887 -1.04836 0
M  V30 6943 N 1147.75 -0.150999 -1.80369 0
M  V30 6944 N 1147.86 0.812565 0.28167 0
M  V30 6945 C 1147.85 1.90572 1.03784 0
M  V30 6946 N 1147.73 3.167 0.683905 0
M  V30 6947 C 1147.61 3.26538 -0.652815 0
M  V30 6948 H 1144.64 8.13738 -3.03804 0
M  V30 6949 H 1144.36 6.42974 -2.55559 0
M  V30 6950 H 1145.23 8.12139 -0.792866 0
M  V30 6951 H 1147.89 5.80178 0.160643 0
M  V30 6952 H 1148.17 6.51379 -2.75643 0
M  V30 6953 H 1149.16 7.01832 -1.3448 0
M  V30 6954 H 1147.32 8.73771 -2.38364 0
M  V30 6955 H 1147.28 4.7189 -3.52311 0
M  V30 6956 H 1147.66 -0.0721434 -2.82608 0
M  V30 6957 H 1147.85 -1.0785 -1.36544 0
M  V30 6958 H 1147.96 1.73207 2.10241 0
M  V30 6959 P 1149.19 8.91 8.91573e-12 0
M  V30 6960 O 1149.41 10.1746 0.733838 0
M  V30 6961 O 1149.98 8.73346 -1.23964 0
M  V30 6962 O 1149.44 7.66872 0.971405 0
M  V30 6963 C 1148.5 7.42405 2.04668 0
M  V30 6964 C 1149.23 6.86059 3.24661 0
M  V30 6965 O 1149.44 5.42934 3.03695 0
M  V30 6966 C 1150.63 7.41287 3.50796 0
M  V30 6967 O 1151.02 7.27073 4.86816 0
M  V30 6968 C 1151.51 6.5273 2.63741 0
M  V30 6969 C 1150.8 5.1842 2.73198 0
M  V30 6970 N 1150.85 4.38762 1.4784 0
M  V30 6971 H 1148.02 8.36899 2.3252 0
M  V30 6972 H 1147.74 6.70391 1.71179 0
M  V30 6973 H 1148.61 7.03638 4.13219 0
M  V30 6974 H 1151.27 4.59931 3.54016 0
M  V30 6975 H 1151.55 6.88995 1.59871 0
M  V30 6976 H 1152.54 6.4684 3.0373 0
M  V30 6977 H 1150.7 8.47002 3.20749 0
M  V30 6978 P 1152.57 7.20834 5.23717 0
M  V30 6979 O 1152.79 7.79853 6.57286 0
M  V30 6980 O 1153.36 7.79239 4.12957 0
M  V30 6981 O 1152.82 5.63315 5.29344 0
M  V30 6982 C 1151.88 4.80255 6.01876 0
M  V30 6983 C 1152.61 3.64202 6.65911 0
M  V30 6984 O 1152.82 2.60694 5.64732 0
M  V30 6985 C 1154.01 3.93473 7.1943 0
M  V30 6986 O 1154.4 3.02071 8.21205 0
M  V30 6987 C 1154.89 3.73047 5.97036 0
M  V30 6988 C 1154.18 2.58828 5.25741 0
M  V30 6989 N 1154.23 2.68068 3.77503 0
M  V30 6990 H 1151.39 5.40332 6.79951 0
M  V30 6991 H 1151.12 4.41613 5.32378 0
M  V30 6992 H 1151.99 3.26331 7.47797 0
M  V30 6993 P 1155.95 2.75334 8.47391 0
M  V30 6994 O 1156.17 2.44571 9.90142 0
M  V30 6995 O 1156.74 3.87688 7.92115 0
M  V30 6996 O 1156.2 1.4459 7.59357 0
M  V30 6997 C 1155.26 0.347608 7.69215 0
M  V30 6998 C 1155.99 -0.96767 7.52806 0
M  V30 6999 O 1156.2 -1.21036 6.1011 0
M  V30 7000 C 1157.39 -1.04544 8.13308 0
M  V30 7001 O 1157.78 -2.38311 8.41922 0
M  V30 7002 C 1158.27 -0.491279 7.02284 0
M  V30 7003 C 1157.56 -0.996264 5.77469 0
M  V30 7004 N 1157.61 -0.0501916 4.62973 0
M  V30 7005 H 1154.77 0.374722 8.67691 0
M  V30 7006 H 1154.5 0.443485 6.90277 0
M  V30 7007 H 1155.37 -1.75537 7.96793 0
M  V30 7008 P 1159.33 -2.75334 8.47391 0
M  V30 7009 O 1159.55 -3.84128 9.44797 0
M  V30 7010 O 1160.12 -1.51947 8.68712 0
M  V30 7011 O 1159.58 -3.29363 6.99321 0
M  V30 7012 C 1158.64 -4.24011 6.4274 0
M  V30 7013 C 1159.37 -5.20775 5.52155 0
M  V30 7014 O 1159.58 -4.56534 4.22446 0
M  V30 7015 C 1160.77 -5.62629 5.96531 0
M  V30 7016 O 1161.16 -6.87667 5.41053 0
M  V30 7017 C 1161.65 -4.52537 5.39283 0
M  V30 7018 C 1160.94 -4.20027 4.08623 0
M  V30 7019 N 1160.99 -2.76189 3.71603 0
M  V30 7020 H 1158.15 -4.797 7.24003 0
M  V30 7021 H 1157.88 -3.69856 5.84513 0
M  V30 7022 H 1158.75 -6.10356 5.41441 0
M  V30 7023 P 1162.71 -7.20834 5.23717 0
M  V30 7024 O 1162.93 -8.66104 5.38572 0
M  V30 7025 O 1163.5 -6.33544 6.1349 0
M  V30 7026 O 1162.96 -6.7751 3.72168 0
M  V30 7027 C 1162.02 -7.20825 2.7076 0
M  V30 7028 C 1162.75 -7.45864 1.40599 0
M  V30 7029 O 1162.96 -6.17651 0.734225 0
M  V30 7030 C 1164.15 -8.05808 1.51899 0
M  V30 7031 O 1164.54 -8.74358 0.335205 0
M  V30 7032 C 1165.03 -6.83093 1.70294 0
M  V30 7033 C 1164.32 -5.79992 0.836974 0
M  V30 7034 N 1164.37 -4.41864 1.38293 0
M  V30 7035 H 1161.53 -8.13644 3.0377 0
M  V30 7036 H 1161.26 -6.42788 2.55485 0
M  V30 7037 H 1162.13 -8.12039 0.792769 0
M  V30 7038 P 1166.09 -8.91 -9.07291e-12 0
M  V30 7039 O 1166.31 -10.1726 -0.733694 0
M  V30 7040 O 1166.88 -8.73148 1.23936 0
M  V30 7041 O 1166.34 -7.66872 -0.971405 0
M  V30 7042 C 1165.4 -7.42309 -2.04641 0
M  V30 7043 C 1166.13 -6.86059 -3.24661 0
M  V30 7044 O 1166.34 -5.42847 -3.03646 0
M  V30 7045 C 1167.53 -7.41196 -3.50753 0
M  V30 7046 O 1167.92 -7.27073 -4.86816 0
M  V30 7047 C 1168.41 -6.5273 -2.63741 0
M  V30 7048 C 1167.7 -5.1842 -2.73198 0
M  V30 7049 N 1167.75 -4.38762 -1.4784 0
M  V30 7050 H 1164.91 -8.36803 -2.32493 0
M  V30 7051 H 1164.64 -6.70197 -1.71129 0
M  V30 7052 H 1165.51 -7.03551 -4.13168 0
M  V30 7053 P 1169.47 -7.20834 -5.23717 0
M  V30 7054 O 1169.69 -7.79853 -6.57286 0
M  V30 7055 O 1170.26 -7.79239 -4.12957 0
M  V30 7056 O 1169.72 -5.63315 -5.29344 0
M  V30 7057 C 1168.78 -4.80255 -6.01876 0
M  V30 7058 C 1169.51 -3.64202 -6.65911 0
M  V30 7059 O 1169.72 -2.60694 -5.64732 0
M  V30 7060 C 1170.91 -3.93473 -7.1943 0
M  V30 7061 O 1171.3 -3.02071 -8.21205 0
M  V30 7062 C 1171.79 -3.73047 -5.97036 0
M  V30 7063 C 1171.08 -2.58828 -5.25741 0
M  V30 7064 N 1171.13 -2.68068 -3.77503 0
M  V30 7065 H 1168.29 -5.40332 -6.79951 0
M  V30 7066 H 1168.02 -4.41613 -5.32378 0
M  V30 7067 H 1168.89 -3.26331 -7.47797 0
M  V30 7068 P 1172.85 -2.75334 -8.47391 0
M  V30 7069 O 1173.07 -2.44571 -9.90142 0
M  V30 7070 O 1173.64 -3.87688 -7.92115 0
M  V30 7071 O 1173.1 -1.4459 -7.59357 0
M  V30 7072 C 1172.16 -0.347608 -7.69215 0
M  V30 7073 C 1172.89 0.96767 -7.52806 0
M  V30 7074 O 1173.1 1.21036 -6.1011 0
M  V30 7075 C 1174.29 1.04544 -8.13308 0
M  V30 7076 O 1174.68 2.38311 -8.41922 0
M  V30 7077 C 1175.17 0.491279 -7.02284 0
M  V30 7078 C 1174.46 0.996264 -5.77469 0
M  V30 7079 N 1174.51 0.0501916 -4.62973 0
M  V30 7080 H 1171.67 -0.374722 -8.67691 0
M  V30 7081 H 1171.4 -0.443485 -6.90277 0
M  V30 7082 H 1172.27 1.75537 -7.96793 0
M  V30 7083 P 1176.23 2.75334 -8.47391 0
M  V30 7084 O 1176.45 3.84166 -9.4489 0
M  V30 7085 O 1177.02 1.51964 -8.6881 0
M  V30 7086 O 1176.48 3.29363 -6.99321 0
M  V30 7087 C 1175.54 4.23956 -6.42656 0
M  V30 7088 C 1176.27 5.20775 -5.52155 0
M  V30 7089 O 1176.48 4.56534 -4.22446 0
M  V30 7090 C 1177.67 5.62629 -5.96531 0
M  V30 7091 O 1178.06 6.87667 -5.41053 0
M  V30 7092 C 1178.55 4.52537 -5.39283 0
M  V30 7093 C 1177.84 4.20027 -4.08623 0
M  V30 7094 N 1177.89 2.7613 -3.71522 0
M  V30 7095 C 1178.04 2.45612 -2.37989 0
M  V30 7096 O 1178.13 3.30919 -1.51621 0
M  V30 7097 N 1178.08 1.10684 -2.08435 0
M  V30 7098 C 1177.99 0.0690084 -2.9792 0
M  V30 7099 O 1178.04 -1.10553 -2.59426 0
M  V30 7100 C 1177.84 0.481522 -4.35345 0
M  V30 7101 C 1177.73 -0.618778 -5.36443 0
M  V30 7102 C 1177.79 1.78906 -4.67968 0
M  V30 7103 H 1175.05 4.797 -7.24003 0
M  V30 7104 H 1174.78 3.69802 -5.84429 0
M  V30 7105 H 1175.65 6.10356 -5.41441 0
M  V30 7106 H 1178.31 4.78651 -3.27911 0
M  V30 7107 H 1178.59 3.64957 -6.05871 0
M  V30 7108 H 1179.58 4.8868 -5.2125 0
M  V30 7109 H 1177.74 5.66726 -7.06352 0
M  V30 7110 H 1177.67 2.07737 -5.72367 0
M  V30 7111 H 1178.7 -0.754375 -5.86871 0
M  V30 7112 H 1176.97 -0.359721 -6.10641 0
M  V30 7113 H 1177.45 -1.55533 -4.8581 0
M  V30 7114 H 1178.19 0.862651 -1.12037 0
M  V30 7115 P 1179.61 7.20834 -5.23717 0
M  V30 7116 O 1179.83 8.66274 -5.38678 0
M  V30 7117 O 1180.4 6.33687 -6.13629 0
M  V30 7118 O 1179.86 6.7751 -3.72168 0
M  V30 7119 C 1178.92 7.20919 -2.70795 0
M  V30 7120 C 1179.65 7.45864 -1.40599 0
M  V30 7121 O 1179.86 6.17751 -0.734343 0
M  V30 7122 C 1181.05 8.05906 -1.51917 0
M  V30 7123 O 1181.44 8.74358 -0.335205 0
M  V30 7124 C 1181.93 6.83093 -1.70294 0
M  V30 7125 C 1181.22 5.79992 -0.836974 0
M  V30 7126 N 1181.27 4.41864 -1.38293 0
M  V30 7127 C 1181.19 4.02089 -2.69407 0
M  V30 7128 N 1181.26 2.73403 -2.85089 0
M  V30 7129 C 1181.41 2.25086 -1.5642 0
M  V30 7130 C 1181.54 0.942887 -1.04836 0
M  V30 7131 N 1181.55 -0.150999 -1.80369 0
M  V30 7132 N 1181.66 0.812565 0.28167 0
M  V30 7133 C 1181.65 1.90572 1.03784 0
M  V30 7134 N 1181.53 3.167 0.683905 0
M  V30 7135 C 1181.41 3.26538 -0.652815 0
M  V30 7136 H 1178.44 8.13738 -3.03804 0
M  V30 7137 H 1178.16 6.42974 -2.55559 0
M  V30 7138 H 1179.03 8.12139 -0.792866 0
M  V30 7139 H 1181.69 5.80178 0.160643 0
M  V30 7140 H 1181.97 6.51379 -2.75643 0
M  V30 7141 H 1182.96 7.01832 -1.3448 0
M  V30 7142 H 1181.12 8.73771 -2.38364 0
M  V30 7143 H 1181.08 4.7189 -3.52311 0
M  V30 7144 H 1181.46 -0.0721434 -2.82608 0
M  V30 7145 H 1181.65 -1.0785 -1.36544 0
M  V30 7146 H 1181.76 1.73207 2.10241 0
M  V30 7147 P 1182.99 8.91 9.23009e-12 0
M  V30 7148 O 1183.21 10.1726 0.733694 0
M  V30 7149 O 1183.78 8.73148 -1.23936 0
M  V30 7150 O 1183.24 7.66872 0.971405 0
M  V30 7151 C 1182.3 7.42309 2.04641 0
M  V30 7152 C 1183.03 6.86059 3.24661 0
M  V30 7153 O 1183.24 5.42847 3.03646 0
M  V30 7154 C 1184.43 7.41196 3.50753 0
M  V30 7155 O 1184.82 7.27073 4.86816 0
M  V30 7156 C 1185.31 6.5273 2.63741 0
M  V30 7157 C 1184.6 5.1842 2.73198 0
M  V30 7158 N 1184.65 4.38762 1.4784 0
M  V30 7159 H 1181.81 8.36803 2.32493 0
M  V30 7160 H 1181.54 6.70197 1.71129 0
M  V30 7161 H 1182.41 7.03551 4.13168 0
M  V30 7162 P 1186.37 7.20834 5.23717 0
M  V30 7163 O 1186.59 7.79853 6.57286 0
M  V30 7164 O 1187.16 7.79239 4.12957 0
M  V30 7165 O 1186.62 5.63315 5.29344 0
M  V30 7166 C 1185.68 4.80255 6.01876 0
M  V30 7167 C 1186.41 3.64202 6.65911 0
M  V30 7168 O 1186.62 2.60694 5.64732 0
M  V30 7169 C 1187.81 3.93473 7.1943 0
M  V30 7170 O 1188.2 3.02071 8.21205 0
M  V30 7171 C 1188.69 3.73047 5.97036 0
M  V30 7172 C 1187.98 2.58828 5.25741 0
M  V30 7173 N 1188.03 2.68068 3.77503 0
M  V30 7174 H 1185.19 5.40332 6.79951 0
M  V30 7175 H 1184.92 4.41613 5.32378 0
M  V30 7176 H 1185.79 3.26331 7.47797 0
M  V30 7177 P 1189.75 2.75334 8.47391 0
M  V30 7178 O 1189.97 2.44571 9.90142 0
M  V30 7179 O 1190.54 3.87688 7.92115 0
M  V30 7180 O 1190 1.4459 7.59357 0
M  V30 7181 C 1189.06 0.347608 7.69215 0
M  V30 7182 C 1189.79 -0.96767 7.52806 0
M  V30 7183 O 1190 -1.21036 6.1011 0
M  V30 7184 C 1191.19 -1.04544 8.13308 0
M  V30 7185 O 1191.58 -2.38311 8.41922 0
M  V30 7186 C 1192.07 -0.491279 7.02284 0
M  V30 7187 C 1191.36 -0.996264 5.77469 0
M  V30 7188 N 1191.41 -0.0501916 4.62973 0
M  V30 7189 H 1188.57 0.374722 8.67691 0
M  V30 7190 H 1188.3 0.443485 6.90277 0
M  V30 7191 H 1189.17 -1.75537 7.96793 0
M  V30 7192 P 1193.13 -2.75334 8.47391 0
M  V30 7193 O 1193.35 -3.84128 9.44797 0
M  V30 7194 O 1193.92 -1.51947 8.68712 0
M  V30 7195 O 1193.38 -3.29363 6.99321 0
M  V30 7196 C 1192.44 -4.24011 6.4274 0
M  V30 7197 C 1193.17 -5.20775 5.52155 0
M  V30 7198 O 1193.38 -4.56534 4.22446 0
M  V30 7199 C 1194.57 -5.62629 5.96531 0
M  V30 7200 O 1194.96 -6.87667 5.41053 0
M  V30 7201 C 1195.45 -4.52537 5.39283 0
M  V30 7202 C 1194.74 -4.20027 4.08623 0
M  V30 7203 N 1194.79 -2.76189 3.71603 0
M  V30 7204 H 1191.95 -4.797 7.24003 0
M  V30 7205 H 1191.68 -3.69856 5.84513 0
M  V30 7206 H 1192.55 -6.10356 5.41441 0
M  V30 7207 P 1196.51 -7.20834 5.23717 0
M  V30 7208 O 1196.73 -8.66104 5.38572 0
M  V30 7209 O 1197.3 -6.33544 6.1349 0
M  V30 7210 O 1196.76 -6.7751 3.72168 0
M  V30 7211 C 1195.82 -7.20825 2.7076 0
M  V30 7212 C 1196.55 -7.45864 1.40599 0
M  V30 7213 O 1196.76 -6.17651 0.734225 0
M  V30 7214 C 1197.95 -8.05808 1.51899 0
M  V30 7215 O 1198.34 -8.74358 0.335205 0
M  V30 7216 C 1198.83 -6.83093 1.70294 0
M  V30 7217 C 1198.12 -5.79992 0.836974 0
M  V30 7218 N 1198.17 -4.41864 1.38293 0
M  V30 7219 C 1198.09 -3.99538 2.69438 0
M  V30 7220 N 1198.17 -2.69909 2.84277 0
M  V30 7221 C 1198.31 -2.21719 1.5408 0
M  V30 7222 C 1198.44 -0.891712 1.06628 0
M  V30 7223 O 1198.46 0.161298 1.70137 0
M  V30 7224 N 1198.56 -0.856846 -0.334985 0
M  V30 7225 C 1198.56 -1.9641 -1.15789 0
M  V30 7226 N 1198.69 -1.72708 -2.46522 0
M  V30 7227 N 1198.43 -3.21165 -0.713741 0
M  V30 7228 C 1198.31 -3.26797 0.639748 0
M  V30 7229 H 1195.33 -8.13644 3.0377 0
M  V30 7230 H 1195.06 -6.42788 2.55485 0
M  V30 7231 H 1195.93 -8.12039 0.792769 0
M  V30 7232 H 1198.59 -5.80061 -0.166416 0
M  V30 7233 H 1198.86 -6.51287 2.75604 0
M  V30 7234 H 1199.86 -7.01734 1.34462 0
M  V30 7235 H 1198.02 -8.73674 2.38337 0
M  V30 7236 H 1197.97 -4.68207 3.53221 0
M  V30 7237 H 1198.66 0.0398818 -0.767965 0
M  V30 7238 H 1198.69 -2.50995 -3.13503 0
M  V30 7239 H 1198.79 -0.759148 -2.80716 0
M  V30 7240 P 1199.89 -8.91 -9.38728e-12 0
M  V30 7241 O 1200.11 -10.1726 -0.733694 0
M  V30 7242 O 1200.68 -8.73148 1.23936 0
M  V30 7243 O 1200.14 -7.66872 -0.971405 0
M  V30 7244 C 1199.2 -7.42309 -2.04641 0
M  V30 7245 C 1199.93 -6.86059 -3.24661 0
M  V30 7246 O 1200.14 -5.42847 -3.03646 0
M  V30 7247 C 1201.33 -7.41196 -3.50753 0
M  V30 7248 O 1201.72 -7.27073 -4.86816 0
M  V30 7249 C 1202.21 -6.5273 -2.63741 0
M  V30 7250 C 1201.5 -5.1842 -2.73198 0
M  V30 7251 N 1201.55 -4.38762 -1.4784 0
M  V30 7252 H 1198.71 -8.36803 -2.32493 0
M  V30 7253 H 1198.44 -6.70197 -1.71129 0
M  V30 7254 H 1199.31 -7.03551 -4.13168 0
M  V30 7255 P 1203.27 -7.20834 -5.23717 0
M  V30 7256 O 1203.49 -7.80006 -6.57415 0
M  V30 7257 O 1204.06 -7.79416 -4.13051 0
M  V30 7258 O 1203.52 -5.63315 -5.29344 0
M  V30 7259 C 1202.58 -4.80318 -6.01954 0
M  V30 7260 C 1203.31 -3.64202 -6.65911 0
M  V30 7261 O 1203.52 -2.60736 -5.64823 0
M  V30 7262 C 1204.71 -3.93521 -7.19518 0
M  V30 7263 O 1205.1 -3.02071 -8.21205 0
M  V30 7264 C 1205.59 -3.73047 -5.97036 0
M  V30 7265 C 1204.88 -2.58828 -5.25741 0
M  V30 7266 N 1204.93 -2.68068 -3.77503 0
M  V30 7267 H 1202.09 -5.40394 -6.8003 0
M  V30 7268 H 1201.82 -4.41741 -5.32532 0
M  V30 7269 H 1202.69 -3.26371 -7.47889 0
M  V30 7270 H 1205.35 -1.64007 -5.56746 0
M  V30 7271 H 1205.63 -4.63439 -5.3432 0
M  V30 7272 H 1206.62 -3.44776 -6.25925 0
M  V30 7273 H 1204.78 -4.96707 -7.57347 0
M  V30 7274 P 1206.65 -2.75334 -8.47391 0
M  V30 7275 O 1206.87 -2.44571 -9.90142 0
M  V30 7276 O 1207.44 -3.87688 -7.92115 0
M  V30 7277 O 1206.9 -1.4459 -7.59357 0
M  V30 7278 C 1205.96 -0.347608 -7.69215 0
M  V30 7279 C 1206.69 0.96767 -7.52806 0
M  V30 7280 O 1206.9 1.21036 -6.1011 0
M  V30 7281 C 1208.09 1.04544 -8.13308 0
M  V30 7282 O 1208.48 2.38311 -8.41922 0
M  V30 7283 C 1208.97 0.491279 -7.02284 0
M  V30 7284 C 1208.26 0.996264 -5.77469 0
M  V30 7285 N 1208.31 0.0501916 -4.62973 0
M  V30 7286 H 1205.47 -0.374722 -8.67691 0
M  V30 7287 H 1205.2 -0.443485 -6.90277 0
M  V30 7288 H 1206.07 1.75537 -7.96793 0
M  V30 7289 P 1210.03 2.75334 -8.47391 0
M  V30 7290 O 1210.25 3.84128 -9.44797 0
M  V30 7291 O 1210.82 1.51947 -8.68712 0
M  V30 7292 O 1210.28 3.29363 -6.99321 0
M  V30 7293 C 1209.34 4.24011 -6.4274 0
M  V30 7294 C 1210.07 5.20775 -5.52155 0
M  V30 7295 O 1210.28 4.56534 -4.22446 0
M  V30 7296 C 1211.47 5.62629 -5.96531 0
M  V30 7297 O 1211.86 6.87667 -5.41053 0
M  V30 7298 C 1212.35 4.52537 -5.39283 0
M  V30 7299 C 1211.64 4.20027 -4.08623 0
M  V30 7300 N 1211.69 2.76189 -3.71603 0
M  V30 7301 C 1211.61 1.64862 -4.52822 0
M  V30 7302 N 1211.69 0.512671 -3.88633 0
M  V30 7303 C 1211.83 0.888083 -2.54977 0
M  V30 7304 C 1211.96 0.094668 -1.38677 0
M  V30 7305 N 1212.08 0.890102 -0.232633 0
M  V30 7306 C 1212.08 2.26958 -0.21772 0
M  V30 7307 N 1212.21 2.84626 0.97925 0
M  V30 7308 N 1211.95 3.0178 -1.31033 0
M  V30 7309 C 1211.83 2.26781 -2.43843 0
M  V30 7310 H 1208.85 4.797 -7.24003 0
M  V30 7311 H 1208.58 3.69856 -5.84513 0
M  V30 7312 H 1209.45 6.10356 -5.41441 0
M  V30 7313 P 1213.41 7.20834 -5.23717 0
M  V30 7314 O 1213.63 8.66104 -5.38572 0
M  V30 7315 O 1214.2 6.33544 -6.1349 0
M  V30 7316 O 1213.66 6.7751 -3.72168 0
M  V30 7317 C 1212.72 7.20825 -2.7076 0
M  V30 7318 C 1213.45 7.45864 -1.40599 0
M  V30 7319 O 1213.66 6.17651 -0.734225 0
M  V30 7320 C 1214.85 8.05808 -1.51899 0
M  V30 7321 O 1215.24 8.74358 -0.335205 0
M  V30 7322 C 1215.73 6.83093 -1.70294 0
M  V30 7323 C 1215.02 5.79992 -0.836974 0
M  V30 7324 N 1215.07 4.41864 -1.38293 0
M  V30 7325 H 1212.23 8.13644 -3.0377 0
M  V30 7326 H 1211.96 6.42788 -2.55485 0
M  V30 7327 H 1212.83 8.12039 -0.792769 0
M  V30 7328 P 1216.79 8.91 9.54446e-12 0
M  V30 7329 O 1217.01 10.1726 0.733694 0
M  V30 7330 O 1217.58 8.73148 -1.23936 0
M  V30 7331 O 1217.04 7.66872 0.971405 0
M  V30 7332 C 1216.1 7.42309 2.04641 0
M  V30 7333 C 1216.83 6.86059 3.24661 0
M  V30 7334 O 1217.04 5.42847 3.03646 0
M  V30 7335 C 1218.23 7.41196 3.50753 0
M  V30 7336 O 1218.62 7.27073 4.86816 0
M  V30 7337 C 1219.11 6.5273 2.63741 0
M  V30 7338 C 1218.4 5.1842 2.73198 0
M  V30 7339 N 1218.45 4.38762 1.4784 0
M  V30 7340 C 1218.37 4.81605 0.168631 0
M  V30 7341 N 1218.45 3.85454 -0.713363 0
M  V30 7342 C 1218.59 2.6994 0.0566958 0
M  V30 7343 C 1218.72 1.34815 -0.338502 0
M  V30 7344 N 1218.84 0.496304 0.77465 0
M  V30 7345 C 1218.84 0.908403 2.09122 0
M  V30 7346 N 1218.97 -0.0517805 3.00955 0
M  V30 7347 N 1218.71 2.17875 2.46519 0
M  V30 7348 C 1218.59 3.01988 1.4033 0
M  V30 7349 H 1215.61 8.36803 2.32493 0
M  V30 7350 H 1215.34 6.70197 1.71129 0
M  V30 7351 H 1216.21 7.03551 4.13168 0
M  V30 7352 P 1220.17 7.20834 5.23717 0
M  V30 7353 O 1220.39 7.79853 6.57286 0
M  V30 7354 O 1220.96 7.79239 4.12957 0
M  V30 7355 O 1220.42 5.63315 5.29344 0
M  V30 7356 C 1219.48 4.80255 6.01876 0
M  V30 7357 C 1220.21 3.64202 6.65911 0
M  V30 7358 O 1220.42 2.60694 5.64732 0
M  V30 7359 C 1221.61 3.93473 7.1943 0
M  V30 7360 O 1222 3.02071 8.21205 0
M  V30 7361 C 1222.49 3.73047 5.97036 0
M  V30 7362 C 1221.78 2.58828 5.25741 0
M  V30 7363 N 1221.83 2.68068 3.77503 0
M  V30 7364 H 1218.99 5.40332 6.79951 0
M  V30 7365 H 1218.72 4.41613 5.32378 0
M  V30 7366 H 1219.59 3.26331 7.47797 0
M  V30 7367 P 1223.55 2.75334 8.47391 0
M  V30 7368 O 1223.77 2.44571 9.90142 0
M  V30 7369 O 1224.34 3.87688 7.92115 0
M  V30 7370 O 1223.8 1.4459 7.59357 0
M  V30 7371 C 1222.86 0.347608 7.69215 0
M  V30 7372 C 1223.59 -0.96767 7.52806 0
M  V30 7373 O 1223.8 -1.21036 6.1011 0
M  V30 7374 C 1224.99 -1.04544 8.13308 0
M  V30 7375 O 1225.38 -2.38311 8.41922 0
M  V30 7376 C 1225.87 -0.491279 7.02284 0
M  V30 7377 C 1225.16 -0.996264 5.77469 0
M  V30 7378 N 1225.21 -0.0501916 4.62973 0
M  V30 7379 C 1225.13 1.32786 4.63244 0
M  V30 7380 N 1225.21 1.86957 3.44545 0
M  V30 7381 C 1225.35 0.780241 2.58481 0
M  V30 7382 C 1225.48 0.738536 1.17757 0
M  V30 7383 N 1225.6 -0.58337 0.711393 0
M  V30 7384 C 1225.6 -1.70816 1.51017 0
M  V30 7385 N 1225.73 -2.87826 0.880757 0
M  V30 7386 N 1225.47 -1.67126 2.8339 0
M  V30 7387 C 1225.35 -0.401421 3.30572 0
M  V30 7388 H 1222.37 0.374722 8.67691 0
M  V30 7389 H 1222.1 0.443485 6.90277 0
M  V30 7390 H 1222.97 -1.75537 7.96793 0
M  V30 7391 P 1226.93 -2.75334 8.47391 0
M  V30 7392 O 1227.15 -3.84128 9.44797 0
M  V30 7393 O 1227.72 -1.51947 8.68712 0
M  V30 7394 O 1227.18 -3.29363 6.99321 0
M  V30 7395 C 1226.24 -4.24011 6.4274 0
M  V30 7396 C 1226.97 -5.20775 5.52155 0
M  V30 7397 O 1227.18 -4.56534 4.22446 0
M  V30 7398 C 1228.37 -5.62629 5.96531 0
M  V30 7399 O 1228.76 -6.87667 5.41053 0
M  V30 7400 C 1229.25 -4.52537 5.39283 0
M  V30 7401 C 1228.54 -4.20027 4.08623 0
M  V30 7402 N 1228.59 -2.76189 3.71603 0
M  V30 7403 H 1225.75 -4.797 7.24003 0
M  V30 7404 H 1225.48 -3.69856 5.84513 0
M  V30 7405 H 1226.35 -6.10356 5.41441 0
M  V30 7406 P 1230.31 -7.20834 5.23717 0
M  V30 7407 O 1230.53 -8.66104 5.38572 0
M  V30 7408 O 1231.1 -6.33544 6.1349 0
M  V30 7409 O 1230.56 -6.7751 3.72168 0
M  V30 7410 C 1229.62 -7.20825 2.7076 0
M  V30 7411 C 1230.35 -7.45864 1.40599 0
M  V30 7412 O 1230.56 -6.17651 0.734225 0
M  V30 7413 C 1231.75 -8.05808 1.51899 0
M  V30 7414 O 1232.14 -8.74358 0.335205 0
M  V30 7415 C 1232.63 -6.83093 1.70294 0
M  V30 7416 C 1231.92 -5.79992 0.836974 0
M  V30 7417 N 1231.97 -4.41864 1.38293 0
M  V30 7418 H 1229.13 -8.13644 3.0377 0
M  V30 7419 H 1228.86 -6.42788 2.55485 0
M  V30 7420 H 1229.73 -8.12039 0.792769 0
M  V30 7421 P 1233.69 -8.91 -9.70164e-12 0
M  V30 7422 O 1233.91 -10.1726 -0.733694 0
M  V30 7423 O 1234.48 -8.73148 1.23936 0
M  V30 7424 O 1233.94 -7.66872 -0.971405 0
M  V30 7425 C 1233 -7.42309 -2.04641 0
M  V30 7426 C 1233.73 -6.86059 -3.24661 0
M  V30 7427 O 1233.94 -5.42847 -3.03646 0
M  V30 7428 C 1235.13 -7.41196 -3.50753 0
M  V30 7429 O 1235.52 -7.27073 -4.86816 0
M  V30 7430 C 1236.01 -6.5273 -2.63741 0
M  V30 7431 C 1235.3 -5.1842 -2.73198 0
M  V30 7432 N 1235.35 -4.38762 -1.4784 0
M  V30 7433 H 1232.51 -8.36803 -2.32493 0
M  V30 7434 H 1232.24 -6.70197 -1.71129 0
M  V30 7435 H 1233.11 -7.03551 -4.13168 0
M  V30 7436 P 1237.07 -7.20834 -5.23717 0
M  V30 7437 O 1237.29 -7.79853 -6.57286 0
M  V30 7438 O 1237.86 -7.79239 -4.12957 0
M  V30 7439 O 1237.32 -5.63315 -5.29344 0
M  V30 7440 C 1236.38 -4.80255 -6.01876 0
M  V30 7441 C 1237.11 -3.64202 -6.65911 0
M  V30 7442 O 1237.32 -2.60694 -5.64732 0
M  V30 7443 C 1238.51 -3.93473 -7.1943 0
M  V30 7444 O 1238.9 -3.02071 -8.21205 0
M  V30 7445 C 1239.39 -3.73047 -5.97036 0
M  V30 7446 C 1238.68 -2.58828 -5.25741 0
M  V30 7447 N 1238.73 -2.68068 -3.77503 0
M  V30 7448 H 1235.89 -5.40332 -6.79951 0
M  V30 7449 H 1235.62 -4.41613 -5.32378 0
M  V30 7450 H 1236.49 -3.26331 -7.47797 0
M  V30 7451 P 1240.45 -2.75334 -8.47391 0
M  V30 7452 O 1240.67 -2.44571 -9.90142 0
M  V30 7453 O 1241.24 -3.87688 -7.92115 0
M  V30 7454 O 1240.7 -1.4459 -7.59357 0
M  V30 7455 C 1239.76 -0.347608 -7.69215 0
M  V30 7456 C 1240.49 0.96767 -7.52806 0
M  V30 7457 O 1240.7 1.21036 -6.1011 0
M  V30 7458 C 1241.89 1.04544 -8.13308 0
M  V30 7459 O 1242.28 2.38311 -8.41922 0
M  V30 7460 C 1242.77 0.491279 -7.02284 0
M  V30 7461 C 1242.06 0.996264 -5.77469 0
M  V30 7462 N 1242.11 0.0501916 -4.62973 0
M  V30 7463 H 1239.27 -0.374722 -8.67691 0
M  V30 7464 H 1239 -0.443485 -6.90277 0
M  V30 7465 H 1239.87 1.75537 -7.96793 0
M  V30 7466 P 1243.83 2.75334 -8.47391 0
M  V30 7467 O 1244.05 3.84128 -9.44797 0
M  V30 7468 O 1244.62 1.51947 -8.68712 0
M  V30 7469 O 1244.08 3.29363 -6.99321 0
M  V30 7470 C 1243.14 4.24011 -6.4274 0
M  V30 7471 C 1243.87 5.20775 -5.52155 0
M  V30 7472 O 1244.08 4.56534 -4.22446 0
M  V30 7473 C 1245.27 5.62629 -5.96531 0
M  V30 7474 O 1245.66 6.87667 -5.41053 0
M  V30 7475 C 1246.15 4.52537 -5.39283 0
M  V30 7476 C 1245.44 4.20027 -4.08623 0
M  V30 7477 N 1245.49 2.76189 -3.71603 0
M  V30 7478 H 1242.65 4.797 -7.24003 0
M  V30 7479 H 1242.38 3.69856 -5.84513 0
M  V30 7480 H 1243.25 6.10356 -5.41441 0
M  V30 7481 P 1247.21 7.20834 -5.23717 0
M  V30 7482 O 1247.43 8.66104 -5.38572 0
M  V30 7483 O 1248 6.33544 -6.1349 0
M  V30 7484 O 1247.46 6.7751 -3.72168 0
M  V30 7485 C 1246.52 7.20825 -2.7076 0
M  V30 7486 C 1247.25 7.45864 -1.40599 0
M  V30 7487 O 1247.46 6.17651 -0.734225 0
M  V30 7488 C 1248.65 8.05808 -1.51899 0
M  V30 7489 O 1249.04 8.74358 -0.335205 0
M  V30 7490 C 1249.53 6.83093 -1.70294 0
M  V30 7491 C 1248.82 5.79992 -0.836974 0
M  V30 7492 N 1248.87 4.41864 -1.38293 0
M  V30 7493 C 1248.79 3.99538 -2.69438 0
M  V30 7494 N 1248.87 2.69909 -2.84277 0
M  V30 7495 C 1249.01 2.21719 -1.5408 0
M  V30 7496 C 1249.14 0.891712 -1.06628 0
M  V30 7497 N 1249.26 0.856846 0.334985 0
M  V30 7498 C 1249.26 1.9641 1.15789 0
M  V30 7499 N 1249.39 1.72708 2.46522 0
M  V30 7500 N 1249.13 3.21165 0.713741 0
M  V30 7501 C 1249.01 3.26797 -0.639748 0
M  V30 7502 H 1246.03 8.13644 -3.0377 0
M  V30 7503 H 1245.76 6.42788 -2.55485 0
M  V30 7504 H 1246.63 8.12039 -0.792769 0
M  V30 7505 P 1250.59 8.91 9.85882e-12 0
M  V30 7506 O 1250.81 10.1726 0.733694 0
M  V30 7507 O 1251.38 8.73148 -1.23936 0
M  V30 7508 O 1250.84 7.66872 0.971405 0
M  V30 7509 C 1249.9 7.42309 2.04641 0
M  V30 7510 C 1250.63 6.86059 3.24661 0
M  V30 7511 O 1250.84 5.42847 3.03646 0
M  V30 7512 C 1252.03 7.41196 3.50753 0
M  V30 7513 O 1252.42 7.27073 4.86816 0
M  V30 7514 C 1252.91 6.5273 2.63741 0
M  V30 7515 C 1252.2 5.1842 2.73198 0
M  V30 7516 N 1252.25 4.38762 1.4784 0
M  V30 7517 H 1249.41 8.36803 2.32493 0
M  V30 7518 H 1249.14 6.70197 1.71129 0
M  V30 7519 H 1250.01 7.03551 4.13168 0
M  V30 7520 P 1253.97 7.20834 5.23717 0
M  V30 7521 O 1254.19 7.79853 6.57286 0
M  V30 7522 O 1254.76 7.79239 4.12957 0
M  V30 7523 O 1254.22 5.63315 5.29344 0
M  V30 7524 C 1253.28 4.80255 6.01876 0
M  V30 7525 C 1254.01 3.64202 6.65911 0
M  V30 7526 O 1254.22 2.60694 5.64732 0
M  V30 7527 C 1255.41 3.93473 7.1943 0
M  V30 7528 O 1255.8 3.02071 8.21205 0
M  V30 7529 C 1256.29 3.73047 5.97036 0
M  V30 7530 C 1255.58 2.58828 5.25741 0
M  V30 7531 N 1255.63 2.68068 3.77503 0
M  V30 7532 H 1252.79 5.40332 6.79951 0
M  V30 7533 H 1252.52 4.41613 5.32378 0
M  V30 7534 H 1253.39 3.26331 7.47797 0
M  V30 7535 P 1257.35 2.75334 8.47391 0
M  V30 7536 O 1257.57 2.44571 9.90142 0
M  V30 7537 O 1258.14 3.87688 7.92115 0
M  V30 7538 O 1257.6 1.4459 7.59357 0
M  V30 7539 C 1256.66 0.347608 7.69215 0
M  V30 7540 C 1257.39 -0.96767 7.52806 0
M  V30 7541 O 1257.6 -1.21036 6.1011 0
M  V30 7542 C 1258.79 -1.04544 8.13308 0
M  V30 7543 O 1259.18 -2.38311 8.41922 0
M  V30 7544 C 1259.67 -0.491279 7.02284 0
M  V30 7545 C 1258.96 -0.996264 5.77469 0
M  V30 7546 N 1259.01 -0.0501916 4.62973 0
M  V30 7547 H 1256.17 0.374722 8.67691 0
M  V30 7548 H 1255.9 0.443485 6.90277 0
M  V30 7549 H 1256.77 -1.75537 7.96793 0
M  V30 7550 P 1260.73 -2.75334 8.47391 0
M  V30 7551 O 1260.95 -3.84128 9.44797 0
M  V30 7552 O 1261.52 -1.51947 8.68712 0
M  V30 7553 O 1260.98 -3.29363 6.99321 0
M  V30 7554 C 1260.04 -4.24011 6.4274 0
M  V30 7555 C 1260.77 -5.20775 5.52155 0
M  V30 7556 O 1260.98 -4.56534 4.22446 0
M  V30 7557 C 1262.17 -5.62629 5.96531 0
M  V30 7558 O 1262.56 -6.87667 5.41053 0
M  V30 7559 C 1263.05 -4.52537 5.39283 0
M  V30 7560 C 1262.34 -4.20027 4.08623 0
M  V30 7561 N 1262.39 -2.76189 3.71603 0
M  V30 7562 H 1259.55 -4.797 7.24003 0
M  V30 7563 H 1259.28 -3.69856 5.84513 0
M  V30 7564 H 1260.15 -6.10356 5.41441 0
M  V30 7565 P 1264.11 -7.20834 5.23717 0
M  V30 7566 O 1264.33 -8.66104 5.38572 0
M  V30 7567 O 1264.9 -6.33544 6.1349 0
M  V30 7568 O 1264.36 -6.7751 3.72168 0
M  V30 7569 C 1263.42 -7.20825 2.7076 0
M  V30 7570 C 1264.15 -7.45864 1.40599 0
M  V30 7571 O 1264.36 -6.17651 0.734225 0
M  V30 7572 C 1265.55 -8.05808 1.51899 0
M  V30 7573 O 1265.94 -8.74358 0.335205 0
M  V30 7574 C 1266.43 -6.83093 1.70294 0
M  V30 7575 C 1265.72 -5.79992 0.836974 0
M  V30 7576 N 1265.77 -4.41864 1.38293 0
M  V30 7577 H 1262.93 -8.13644 3.0377 0
M  V30 7578 H 1262.66 -6.42788 2.55485 0
M  V30 7579 H 1263.53 -8.12039 0.792769 0
M  V30 7580 P 1267.49 -8.91 -1.0016e-11 0
M  V30 7581 O 1267.71 -10.1726 -0.733694 0
M  V30 7582 O 1268.28 -8.73148 1.23936 0
M  V30 7583 O 1267.74 -7.66872 -0.971405 0
M  V30 7584 C 1266.8 -7.42309 -2.04641 0
M  V30 7585 C 1267.53 -6.86059 -3.24661 0
M  V30 7586 O 1267.74 -5.42847 -3.03646 0
M  V30 7587 C 1268.93 -7.41196 -3.50753 0
M  V30 7588 O 1269.32 -7.27073 -4.86816 0
M  V30 7589 C 1269.81 -6.5273 -2.63741 0
M  V30 7590 C 1269.1 -5.1842 -2.73198 0
M  V30 7591 N 1269.15 -4.38762 -1.4784 0
M  V30 7592 C 1269.07 -4.81605 -0.168631 0
M  V30 7593 N 1269.15 -3.85454 0.713363 0
M  V30 7594 C 1269.29 -2.6994 -0.0566958 0
M  V30 7595 C 1269.42 -1.34815 0.338502 0
M  V30 7596 O 1269.44 -0.869548 1.47125 0
M  V30 7597 N 1269.54 -0.496304 -0.77465 0
M  V30 7598 C 1269.54 -0.908403 -2.09122 0
M  V30 7599 N 1269.67 0.0517805 -3.00955 0
M  V30 7600 N 1269.41 -2.17875 -2.46519 0
M  V30 7601 C 1269.29 -3.01988 -1.4033 0
M  V30 7602 H 1266.31 -8.36803 -2.32493 0
M  V30 7603 H 1266.04 -6.70197 -1.71129 0
M  V30 7604 H 1266.91 -7.03551 -4.13168 0
M  V30 7605 H 1269.57 -4.59498 -3.54415 0
M  V30 7606 H 1269.84 -6.88898 -1.59848 0
M  V30 7607 H 1270.84 -6.46749 -3.03687 0
M  V30 7608 H 1269 -8.46908 -3.20714 0
M  V30 7609 H 1268.95 -5.86405 0.105564 0
M  V30 7610 H 1269.64 0.483664 -0.597855 0
M  V30 7611 H 1269.67 -0.187865 -4.0116 0
M  V30 7612 H 1269.77 1.03585 -2.71726 0
M  V30 7613 P 1270.87 -7.20834 -5.23717 0
M  V30 7614 O 1271.09 -7.79853 -6.57286 0
M  V30 7615 O 1271.66 -7.79239 -4.12957 0
M  V30 7616 O 1271.12 -5.63315 -5.29344 0
M  V30 7617 C 1270.18 -4.80255 -6.01876 0
M  V30 7618 C 1270.91 -3.64202 -6.65911 0
M  V30 7619 O 1271.12 -2.60694 -5.64732 0
M  V30 7620 C 1272.31 -3.93473 -7.1943 0
M  V30 7621 O 1272.7 -3.02071 -8.21205 0
M  V30 7622 C 1273.19 -3.73047 -5.97036 0
M  V30 7623 C 1272.48 -2.58828 -5.25741 0
M  V30 7624 N 1272.53 -2.68068 -3.77503 0
M  V30 7625 H 1269.69 -5.40332 -6.79951 0
M  V30 7626 H 1269.42 -4.41613 -5.32378 0
M  V30 7627 H 1270.29 -3.26331 -7.47797 0
M  V30 7628 P 1274.25 -2.75334 -8.47391 0
M  V30 7629 O 1274.47 -2.44571 -9.90142 0
M  V30 7630 O 1275.04 -3.87688 -7.92115 0
M  V30 7631 O 1274.5 -1.4459 -7.59357 0
M  V30 7632 C 1273.56 -0.347608 -7.69215 0
M  V30 7633 C 1274.29 0.96767 -7.52806 0
M  V30 7634 O 1274.5 1.21036 -6.1011 0
M  V30 7635 C 1275.69 1.04544 -8.13308 0
M  V30 7636 O 1276.08 2.38311 -8.41922 0
M  V30 7637 C 1276.57 0.491279 -7.02284 0
M  V30 7638 C 1275.86 0.996264 -5.77469 0
M  V30 7639 N 1275.91 0.0501916 -4.62973 0
M  V30 7640 H 1273.07 -0.374722 -8.67691 0
M  V30 7641 H 1272.8 -0.443485 -6.90277 0
M  V30 7642 H 1273.67 1.75537 -7.96793 0
M  V30 7643 P 1277.63 2.75334 -8.47391 0
M  V30 7644 O 1277.85 3.84128 -9.44797 0
M  V30 7645 O 1278.42 1.51947 -8.68712 0
M  V30 7646 O 1277.88 3.29363 -6.99321 0
M  V30 7647 C 1276.94 4.24011 -6.4274 0
M  V30 7648 C 1277.67 5.20775 -5.52155 0
M  V30 7649 O 1277.88 4.56534 -4.22446 0
M  V30 7650 C 1279.07 5.62629 -5.96531 0
M  V30 7651 O 1279.46 6.87667 -5.41053 0
M  V30 7652 C 1279.95 4.52537 -5.39283 0
M  V30 7653 C 1279.24 4.20027 -4.08623 0
M  V30 7654 N 1279.29 2.76189 -3.71603 0
M  V30 7655 H 1276.45 4.797 -7.24003 0
M  V30 7656 H 1276.18 3.69856 -5.84513 0
M  V30 7657 H 1277.05 6.10356 -5.41441 0
M  V30 7658 P 1281.01 7.20834 -5.23717 0
M  V30 7659 O 1281.23 8.66104 -5.38572 0
M  V30 7660 O 1281.8 6.33544 -6.1349 0
M  V30 7661 O 1281.26 6.7751 -3.72168 0
M  V30 7662 C 1280.32 7.20825 -2.7076 0
M  V30 7663 C 1281.05 7.45864 -1.40599 0
M  V30 7664 O 1281.26 6.17651 -0.734225 0
M  V30 7665 C 1282.45 8.05808 -1.51899 0
M  V30 7666 O 1282.84 8.74358 -0.335205 0
M  V30 7667 C 1283.33 6.83093 -1.70294 0
M  V30 7668 C 1282.62 5.79992 -0.836974 0
M  V30 7669 N 1282.67 4.41864 -1.38293 0
M  V30 7670 H 1279.83 8.13644 -3.0377 0
M  V30 7671 H 1279.56 6.42788 -2.55485 0
M  V30 7672 H 1280.43 8.12039 -0.792769 0
M  V30 7673 P 1284.39 8.91 1.01732e-11 0
M  V30 7674 O 1284.61 10.1746 0.733838 0
M  V30 7675 O 1285.18 8.73346 -1.23964 0
M  V30 7676 O 1284.64 7.66872 0.971405 0
M  V30 7677 C 1283.7 7.42405 2.04668 0
M  V30 7678 C 1284.43 6.86059 3.24661 0
M  V30 7679 O 1284.64 5.42934 3.03695 0
M  V30 7680 C 1285.83 7.41287 3.50796 0
M  V30 7681 O 1286.22 7.27073 4.86816 0
M  V30 7682 C 1286.71 6.5273 2.63741 0
M  V30 7683 C 1286 5.1842 2.73198 0
M  V30 7684 N 1286.05 4.38762 1.4784 0
M  V30 7685 H 1283.21 8.36899 2.3252 0
M  V30 7686 H 1282.94 6.70391 1.71179 0
M  V30 7687 H 1283.81 7.03638 4.13219 0
M  V30 7688 H 1286.47 4.59931 3.54016 0
M  V30 7689 H 1286.75 6.88995 1.59871 0
M  V30 7690 H 1287.74 6.4684 3.0373 0
M  V30 7691 H 1285.9 8.47002 3.20749 0
M  V30 7692 P 1287.77 7.20834 5.23717 0
M  V30 7693 O 1287.99 7.79853 6.57286 0
M  V30 7694 O 1288.56 7.79239 4.12957 0
M  V30 7695 O 1288.02 5.63315 5.29344 0
M  V30 7696 C 1287.08 4.80255 6.01876 0
M  V30 7697 C 1287.81 3.64202 6.65911 0
M  V30 7698 O 1288.02 2.60694 5.64732 0
M  V30 7699 C 1289.21 3.93473 7.1943 0
M  V30 7700 O 1289.6 3.02071 8.21205 0
M  V30 7701 C 1290.09 3.73047 5.97036 0
M  V30 7702 C 1289.38 2.58828 5.25741 0
M  V30 7703 N 1289.43 2.68068 3.77503 0
M  V30 7704 H 1286.59 5.40332 6.79951 0
M  V30 7705 H 1286.32 4.41613 5.32378 0
M  V30 7706 H 1287.19 3.26331 7.47797 0
M  V30 7707 P 1291.15 2.75334 8.47391 0
M  V30 7708 O 1291.37 2.44571 9.90142 0
M  V30 7709 O 1291.94 3.87688 7.92115 0
M  V30 7710 O 1291.4 1.4459 7.59357 0
M  V30 7711 C 1290.46 0.347608 7.69215 0
M  V30 7712 C 1291.19 -0.96767 7.52806 0
M  V30 7713 O 1291.4 -1.21036 6.1011 0
M  V30 7714 C 1292.59 -1.04544 8.13308 0
M  V30 7715 O 1292.98 -2.38311 8.41922 0
M  V30 7716 C 1293.47 -0.491279 7.02284 0
M  V30 7717 C 1292.76 -0.996264 5.77469 0
M  V30 7718 N 1292.81 -0.0501916 4.62973 0
M  V30 7719 H 1289.97 0.374722 8.67691 0
M  V30 7720 H 1289.7 0.443485 6.90277 0
M  V30 7721 H 1290.57 -1.75537 7.96793 0
M  V30 7722 P 1294.53 -2.75334 8.47391 0
M  V30 7723 O 1294.75 -3.84128 9.44797 0
M  V30 7724 O 1295.32 -1.51947 8.68712 0
M  V30 7725 O 1294.78 -3.29363 6.99321 0
M  V30 7726 C 1293.84 -4.24011 6.4274 0
M  V30 7727 C 1294.57 -5.20775 5.52155 0
M  V30 7728 O 1294.78 -4.56534 4.22446 0
M  V30 7729 C 1295.97 -5.62629 5.96531 0
M  V30 7730 O 1296.36 -6.87667 5.41053 0
M  V30 7731 C 1296.85 -4.52537 5.39283 0
M  V30 7732 C 1296.14 -4.20027 4.08623 0
M  V30 7733 N 1296.19 -2.76189 3.71603 0
M  V30 7734 H 1293.35 -4.797 7.24003 0
M  V30 7735 H 1293.08 -3.69856 5.84513 0
M  V30 7736 H 1293.95 -6.10356 5.41441 0
M  V30 7737 P 1297.91 -7.20834 5.23717 0
M  V30 7738 O 1298.13 -8.66104 5.38572 0
M  V30 7739 O 1298.7 -6.33544 6.1349 0
M  V30 7740 O 1298.16 -6.7751 3.72168 0
M  V30 7741 C 1297.22 -7.20825 2.7076 0
M  V30 7742 C 1297.95 -7.45864 1.40599 0
M  V30 7743 O 1298.16 -6.17651 0.734225 0
M  V30 7744 C 1299.35 -8.05808 1.51899 0
M  V30 7745 O 1299.74 -8.74358 0.335205 0
M  V30 7746 C 1300.23 -6.83093 1.70294 0
M  V30 7747 C 1299.52 -5.79992 0.836974 0
M  V30 7748 N 1299.57 -4.41864 1.38293 0
M  V30 7749 H 1296.73 -8.13644 3.0377 0
M  V30 7750 H 1296.46 -6.42788 2.55485 0
M  V30 7751 H 1297.33 -8.12039 0.792769 0
M  V30 7752 P 1301.29 -8.91 -1.03304e-11 0
M  V30 7753 O 1301.51 -10.1726 -0.733694 0
M  V30 7754 O 1302.08 -8.73148 1.23936 0
M  V30 7755 O 1301.54 -7.66872 -0.971405 0
M  V30 7756 C 1300.6 -7.42309 -2.04641 0
M  V30 7757 C 1301.33 -6.86059 -3.24661 0
M  V30 7758 O 1301.54 -5.42847 -3.03646 0
M  V30 7759 C 1302.73 -7.41196 -3.50753 0
M  V30 7760 O 1303.12 -7.27073 -4.86816 0
M  V30 7761 C 1303.61 -6.5273 -2.63741 0
M  V30 7762 C 1302.9 -5.1842 -2.73198 0
M  V30 7763 N 1302.95 -4.38762 -1.4784 0
M  V30 7764 H 1300.11 -8.36803 -2.32493 0
M  V30 7765 H 1299.84 -6.70197 -1.71129 0
M  V30 7766 H 1300.71 -7.03551 -4.13168 0
M  V30 7767 P 1304.67 -7.20834 -5.23717 0
M  V30 7768 O 1304.89 -7.79853 -6.57286 0
M  V30 7769 O 1305.46 -7.79239 -4.12957 0
M  V30 7770 O 1304.92 -5.63315 -5.29344 0
M  V30 7771 C 1303.98 -4.80255 -6.01876 0
M  V30 7772 C 1304.71 -3.64202 -6.65911 0
M  V30 7773 O 1304.92 -2.60694 -5.64732 0
M  V30 7774 C 1306.11 -3.93473 -7.1943 0
M  V30 7775 O 1306.5 -3.02071 -8.21205 0
M  V30 7776 C 1306.99 -3.73047 -5.97036 0
M  V30 7777 C 1306.28 -2.58828 -5.25741 0
M  V30 7778 N 1306.33 -2.68068 -3.77503 0
M  V30 7779 C 1306.25 -3.79715 -2.96723 0
M  V30 7780 N 1306.33 -3.5377 -1.68852 0
M  V30 7781 C 1306.47 -2.15054 -1.63254 0
M  V30 7782 C 1306.6 -1.28964 -0.518571 0
M  V30 7783 O 1306.62 -1.56826 0.679156 0
M  V30 7784 N 1306.72 0.0538097 -0.918425 0
M  V30 7785 C 1306.72 0.494275 -2.22578 0
M  V30 7786 N 1306.85 1.81086 -2.40434 0
M  V30 7787 N 1306.59 -0.313645 -3.27502 0
M  V30 7788 C 1306.47 -1.61829 -2.91033 0
M  V30 7789 H 1303.49 -5.40332 -6.79951 0
M  V30 7790 H 1303.22 -4.41613 -5.32378 0
M  V30 7791 H 1304.09 -3.26331 -7.47797 0
M  V30 7792 H 1306.75 -1.63422 -5.56814 0
M  V30 7793 H 1307.02 -4.63374 -5.34244 0
M  V30 7794 H 1308.02 -3.44728 -6.25838 0
M  V30 7795 H 1306.18 -4.96652 -7.57263 0
M  V30 7796 H 1306.13 -4.80617 -3.3614 0
M  V30 7797 H 1306.82 0.742702 -0.199384 0
M  V30 7798 H 1306.85 2.20598 -3.35588 0
M  V30 7799 H 1306.95 2.43518 -1.58945 0
M  V30 7800 P 1308.05 -2.75334 -8.47391 0
M  V30 7801 O 1308.27 -2.44571 -9.90142 0
M  V30 7802 O 1308.84 -3.87688 -7.92115 0
M  V30 7803 O 1308.3 -1.4459 -7.59357 0
M  V30 7804 C 1307.36 -0.347608 -7.69215 0
M  V30 7805 C 1308.09 0.96767 -7.52806 0
M  V30 7806 O 1308.3 1.21036 -6.1011 0
M  V30 7807 C 1309.49 1.04544 -8.13308 0
M  V30 7808 O 1309.88 2.38311 -8.41922 0
M  V30 7809 C 1310.37 0.491279 -7.02284 0
M  V30 7810 C 1309.66 0.996264 -5.77469 0
M  V30 7811 N 1309.71 0.0501916 -4.62973 0
M  V30 7812 H 1306.87 -0.374722 -8.67691 0
M  V30 7813 H 1306.6 -0.443485 -6.90277 0
M  V30 7814 H 1307.47 1.75537 -7.96793 0
M  V30 7815 P 1311.43 2.75334 -8.47391 0
M  V30 7816 O 1311.65 3.84128 -9.44797 0
M  V30 7817 O 1312.22 1.51947 -8.68712 0
M  V30 7818 O 1311.68 3.29363 -6.99321 0
M  V30 7819 C 1310.74 4.24011 -6.4274 0
M  V30 7820 C 1311.47 5.20775 -5.52155 0
M  V30 7821 O 1311.68 4.56534 -4.22446 0
M  V30 7822 C 1312.87 5.62629 -5.96531 0
M  V30 7823 O 1313.26 6.87667 -5.41053 0
M  V30 7824 C 1313.75 4.52537 -5.39283 0
M  V30 7825 C 1313.04 4.20027 -4.08623 0
M  V30 7826 N 1313.09 2.76189 -3.71603 0
M  V30 7827 H 1310.25 4.797 -7.24003 0
M  V30 7828 H 1309.98 3.69856 -5.84513 0
M  V30 7829 H 1310.85 6.10356 -5.41441 0
M  V30 7830 P 1314.81 7.20834 -5.23717 0
M  V30 7831 O 1315.03 8.66189 -5.38625 0
M  V30 7832 O 1315.6 6.33615 -6.1356 0
M  V30 7833 O 1315.06 6.7751 -3.72168 0
M  V30 7834 C 1314.12 7.20732 -2.70725 0
M  V30 7835 C 1314.85 7.45864 -1.40599 0
M  V30 7836 O 1315.06 6.17651 -0.734225 0
M  V30 7837 C 1316.25 8.05808 -1.51899 0
M  V30 7838 O 1316.64 8.74358 -0.335205 0
M  V30 7839 C 1317.13 6.83093 -1.70294 0
M  V30 7840 C 1316.42 5.79992 -0.836974 0
M  V30 7841 N 1316.47 4.41769 -1.38263 0
M  V30 7842 C 1316.62 3.38591 -0.481702 0
M  V30 7843 O 1316.71 3.56839 0.718452 0
M  V30 7844 N 1316.66 2.1206 -1.03569 0
M  V30 7845 C 1316.57 1.80696 -2.36966 0
M  V30 7846 O 1316.62 0.630473 -2.74862 0
M  V30 7847 C 1316.42 2.94845 -3.23898 0
M  V30 7848 C 1316.31 2.65253 -4.70362 0
M  V30 7849 C 1316.37 4.19803 -2.73435 0
M  V30 7850 H 1313.63 8.13644 -3.0377 0
M  V30 7851 H 1313.36 6.42695 -2.55448 0
M  V30 7852 H 1314.23 8.12039 -0.792769 0
M  V30 7853 H 1316.89 5.79978 0.160587 0
M  V30 7854 H 1317.16 6.51379 -2.75643 0
M  V30 7855 H 1318.16 7.01734 -1.34462 0
M  V30 7856 H 1316.32 8.73674 -2.38337 0
M  V30 7857 H 1316.25 5.04492 -3.4095 0
M  V30 7858 H 1317.28 2.83924 -5.1913 0
M  V30 7859 H 1315.54 3.29824 -5.15163 0
M  V30 7860 H 1316.03 1.59723 -4.84449 0
M  V30 7861 H 1316.77 1.35644 -0.399345 0
M  V30 7862 P 1318.19 8.91 1.04876e-11 0
M  V30 7863 O 1318.41 10.1726 0.733694 0
M  V30 7864 O 1318.98 8.73148 -1.23936 0
M  V30 7865 O 1318.44 7.66872 0.971405 0
M  V30 7866 C 1317.5 7.42309 2.04641 0
M  V30 7867 C 1318.23 6.86059 3.24661 0
M  V30 7868 O 1318.44 5.42847 3.03646 0
M  V30 7869 C 1319.63 7.41196 3.50753 0
M  V30 7870 O 1320.02 7.27073 4.86816 0
M  V30 7871 C 1320.51 6.5273 2.63741 0
M  V30 7872 C 1319.8 5.1842 2.73198 0
M  V30 7873 N 1319.85 4.38762 1.4784 0
M  V30 7874 H 1317.01 8.36803 2.32493 0
M  V30 7875 H 1316.74 6.70197 1.71129 0
M  V30 7876 H 1317.61 7.03551 4.13168 0
M  V30 7877 P 1321.57 7.20834 5.23717 0
M  V30 7878 O 1321.79 7.80006 6.57415 0
M  V30 7879 O 1322.36 7.79416 4.13051 0
M  V30 7880 O 1321.82 5.63315 5.29344 0
M  V30 7881 C 1320.88 4.80318 6.01954 0
M  V30 7882 C 1321.61 3.64202 6.65911 0
M  V30 7883 O 1321.82 2.60736 5.64823 0
M  V30 7884 C 1323.01 3.93521 7.19518 0
M  V30 7885 O 1323.4 3.02071 8.21205 0
M  V30 7886 C 1323.89 3.73047 5.97036 0
M  V30 7887 C 1323.18 2.58828 5.25741 0
M  V30 7888 N 1323.23 2.68068 3.77503 0
M  V30 7889 H 1320.39 5.40394 6.8003 0
M  V30 7890 H 1320.12 4.41741 5.32532 0
M  V30 7891 H 1320.99 3.26371 7.47889 0
M  V30 7892 H 1323.65 1.64007 5.56746 0
M  V30 7893 H 1323.93 4.63439 5.3432 0
M  V30 7894 H 1324.92 3.44776 6.25925 0
M  V30 7895 H 1323.08 4.96707 7.57347 0
M  V30 7896 P 1324.95 2.75334 8.47391 0
M  V30 7897 O 1325.17 2.44571 9.90142 0
M  V30 7898 O 1325.74 3.87688 7.92115 0
M  V30 7899 O 1325.2 1.4459 7.59357 0
M  V30 7900 C 1324.26 0.347608 7.69215 0
M  V30 7901 C 1324.99 -0.96767 7.52806 0
M  V30 7902 O 1325.2 -1.21036 6.1011 0
M  V30 7903 C 1326.39 -1.04544 8.13308 0
M  V30 7904 O 1326.78 -2.38311 8.41922 0
M  V30 7905 C 1327.27 -0.491279 7.02284 0
M  V30 7906 C 1326.56 -0.996264 5.77469 0
M  V30 7907 N 1326.61 -0.0501916 4.62973 0
M  V30 7908 H 1323.77 0.374722 8.67691 0
M  V30 7909 H 1323.5 0.443485 6.90277 0
M  V30 7910 H 1324.37 -1.75537 7.96793 0
M  V30 7911 P 1328.33 -2.75334 8.47391 0
M  V30 7912 O 1328.55 -3.84166 9.4489 0
M  V30 7913 O 1329.12 -1.51964 8.6881 0
M  V30 7914 O 1328.58 -3.29363 6.99321 0
M  V30 7915 C 1327.64 -4.23956 6.42656 0
M  V30 7916 C 1328.37 -5.20775 5.52155 0
M  V30 7917 O 1328.58 -4.56534 4.22446 0
M  V30 7918 C 1329.77 -5.62629 5.96531 0
M  V30 7919 O 1330.16 -6.87667 5.41053 0
M  V30 7920 C 1330.65 -4.52537 5.39283 0
M  V30 7921 C 1329.94 -4.20027 4.08623 0
M  V30 7922 N 1329.99 -2.7613 3.71522 0
M  V30 7923 C 1330.14 -2.45612 2.37989 0
M  V30 7924 O 1330.23 -3.30919 1.51621 0
M  V30 7925 N 1330.18 -1.10684 2.08435 0
M  V30 7926 C 1330.09 -0.0690084 2.9792 0
M  V30 7927 C 1329.94 -0.481522 4.35345 0
M  V30 7928 C 1329.89 -1.78906 4.67968 0
M  V30 7929 H 1327.15 -4.797 7.24003 0
M  V30 7930 H 1326.88 -3.69802 5.84429 0
M  V30 7931 H 1327.75 -6.10356 5.41441 0
M  V30 7932 H 1330.41 -4.78651 3.27911 0
M  V30 7933 H 1330.68 -3.64957 6.05871 0
M  V30 7934 H 1331.68 -4.8868 5.2125 0
M  V30 7935 H 1329.84 -5.66726 7.06352 0
M  V30 7936 H 1329.77 -2.07737 5.72367 0
M  V30 7937 P 1331.71 -7.20834 5.23717 0
M  V30 7938 O 1331.93 -8.66104 5.38572 0
M  V30 7939 O 1332.5 -6.33544 6.1349 0
M  V30 7940 O 1331.96 -6.7751 3.72168 0
M  V30 7941 C 1331.02 -7.20825 2.7076 0
M  V30 7942 C 1331.75 -7.45864 1.40599 0
M  V30 7943 O 1331.96 -6.17651 0.734225 0
M  V30 7944 C 1333.15 -8.05808 1.51899 0
M  V30 7945 O 1333.54 -8.74358 0.335205 0
M  V30 7946 C 1334.03 -6.83093 1.70294 0
M  V30 7947 C 1333.32 -5.79992 0.836974 0
M  V30 7948 N 1333.37 -4.41864 1.38293 0
M  V30 7949 H 1330.53 -8.13644 3.0377 0
M  V30 7950 H 1330.26 -6.42788 2.55485 0
M  V30 7951 H 1331.13 -8.12039 0.792769 0
M  V30 7952 P 1335.09 -8.91 -1.06447e-11 0
M  V30 7953 O 1335.31 -10.1726 -0.733694 0
M  V30 7954 O 1335.88 -8.73148 1.23936 0
M  V30 7955 O 1335.34 -7.66872 -0.971405 0
M  V30 7956 C 1334.4 -7.42309 -2.04641 0
M  V30 7957 C 1335.13 -6.86059 -3.24661 0
M  V30 7958 O 1335.34 -5.42847 -3.03646 0
M  V30 7959 C 1336.53 -7.41196 -3.50753 0
M  V30 7960 O 1336.92 -7.27073 -4.86816 0
M  V30 7961 C 1337.41 -6.5273 -2.63741 0
M  V30 7962 C 1336.7 -5.1842 -2.73198 0
M  V30 7963 N 1336.75 -4.38762 -1.4784 0
M  V30 7964 H 1333.91 -8.36803 -2.32493 0
M  V30 7965 H 1333.64 -6.70197 -1.71129 0
M  V30 7966 H 1334.51 -7.03551 -4.13168 0
M  V30 7967 P 1338.47 -7.20834 -5.23717 0
M  V30 7968 O 1338.69 -7.79853 -6.57286 0
M  V30 7969 O 1339.26 -7.79239 -4.12957 0
M  V30 7970 O 1338.72 -5.63315 -5.29344 0
M  V30 7971 C 1337.78 -4.80255 -6.01876 0
M  V30 7972 C 1338.51 -3.64202 -6.65911 0
M  V30 7973 O 1338.72 -2.60694 -5.64732 0
M  V30 7974 C 1339.91 -3.93473 -7.1943 0
M  V30 7975 O 1340.3 -3.02071 -8.21205 0
M  V30 7976 C 1340.79 -3.73047 -5.97036 0
M  V30 7977 C 1340.08 -2.58828 -5.25741 0
M  V30 7978 N 1340.13 -2.68068 -3.77503 0
M  V30 7979 H 1337.29 -5.40332 -6.79951 0
M  V30 7980 H 1337.02 -4.41613 -5.32378 0
M  V30 7981 H 1337.89 -3.26331 -7.47797 0
M  V30 7982 P 1341.85 -2.75334 -8.47391 0
M  V30 7983 O 1342.07 -2.44619 -9.90336 0
M  V30 7984 O 1342.64 -3.87776 -7.92294 0
M  V30 7985 O 1342.1 -1.4459 -7.59357 0
M  V30 7986 C 1341.16 -0.347653 -7.69315 0
M  V30 7987 C 1341.89 0.96767 -7.52806 0
M  V30 7988 O 1342.1 1.21055 -6.10208 0
M  V30 7989 C 1343.29 1.04557 -8.13408 0
M  V30 7990 O 1343.68 2.38311 -8.41922 0
M  V30 7991 C 1344.17 0.491279 -7.02284 0
M  V30 7992 C 1343.46 0.996264 -5.77469 0
M  V30 7993 N 1343.51 0.0501916 -4.62973 0
M  V30 7994 C 1343.43 -1.31969 -4.65661 0
M  V30 7995 N 1343.5 -1.86649 -3.48119 0
M  V30 7996 C 1343.65 -0.792089 -2.62406 0
M  V30 7997 C 1343.78 -0.705684 -1.2207 0
M  V30 7998 N 1343.79 -1.76207 -0.413762 0
M  V30 7999 N 1343.9 0.518981 -0.685754 0
M  V30 8000 C 1343.89 1.57595 -1.49174 0
M  V30 8001 N 1343.77 1.62909 -2.80066 0
M  V30 8002 C 1343.65 0.388195 -3.3073 0
M  V30 8003 H 1340.67 -0.374765 -8.67791 0
M  V30 8004 H 1340.4 -0.443613 -6.90476 0
M  V30 8005 H 1341.27 1.75559 -7.96891 0
M  V30 8006 H 1343.93 1.94563 -5.46818 0
M  V30 8007 H 1344.21 -0.608651 -7.04676 0
M  V30 8008 H 1345.2 0.889796 -7.09039 0
M  V30 8009 H 1343.36 0.433128 -9.04664 0
M  V30 8010 H 1343.32 -1.89246 -5.57664 0
M  V30 8011 H 1343.7 -2.71005 -0.804694 0
M  V30 8012 H 1343.89 -1.63189 0.603768 0
M  V30 8013 H 1344 2.53475 -0.997614 0
M  V30 8014 P 1345.23 2.75334 -8.47391 0
M  V30 8015 O 1345.45 3.84128 -9.44797 0
M  V30 8016 O 1346.02 1.51947 -8.68712 0
M  V30 8017 O 1345.48 3.29363 -6.99321 0
M  V30 8018 C 1344.54 4.24011 -6.4274 0
M  V30 8019 C 1345.27 5.20775 -5.52155 0
M  V30 8020 O 1345.48 4.56534 -4.22446 0
M  V30 8021 C 1346.67 5.62629 -5.96531 0
M  V30 8022 O 1347.06 6.87667 -5.41053 0
M  V30 8023 C 1347.55 4.52537 -5.39283 0
M  V30 8024 C 1346.84 4.20027 -4.08623 0
M  V30 8025 N 1346.89 2.76189 -3.71603 0
M  V30 8026 H 1344.05 4.797 -7.24003 0
M  V30 8027 H 1343.78 3.69856 -5.84513 0
M  V30 8028 H 1344.65 6.10356 -5.41441 0
M  V30 8029 P 1348.61 7.20834 -5.23717 0
M  V30 8030 O 1348.83 8.66274 -5.38678 0
M  V30 8031 O 1349.4 6.33687 -6.13629 0
M  V30 8032 O 1348.86 6.7751 -3.72168 0
M  V30 8033 C 1347.92 7.20919 -2.70795 0
M  V30 8034 C 1348.65 7.45864 -1.40599 0
M  V30 8035 O 1348.86 6.17751 -0.734343 0
M  V30 8036 C 1350.05 8.05906 -1.51917 0
M  V30 8037 O 1350.44 8.74358 -0.335205 0
M  V30 8038 C 1350.93 6.83093 -1.70294 0
M  V30 8039 C 1350.22 5.79992 -0.836974 0
M  V30 8040 N 1350.27 4.41864 -1.38293 0
M  V30 8041 C 1350.19 4.02089 -2.69407 0
M  V30 8042 N 1350.26 2.73403 -2.85089 0
M  V30 8043 C 1350.41 2.25086 -1.5642 0
M  V30 8044 C 1350.54 0.942887 -1.04836 0
M  V30 8045 N 1350.55 -0.150999 -1.80369 0
M  V30 8046 N 1350.66 0.812565 0.28167 0
M  V30 8047 C 1350.65 1.90572 1.03784 0
M  V30 8048 N 1350.53 3.167 0.683905 0
M  V30 8049 C 1350.41 3.26538 -0.652815 0
M  V30 8050 H 1347.43 8.13738 -3.03804 0
M  V30 8051 H 1347.16 6.42974 -2.55559 0
M  V30 8052 H 1348.03 8.12139 -0.792866 0
M  V30 8053 H 1350.69 5.80178 0.160643 0
M  V30 8054 H 1350.97 6.51379 -2.75643 0
M  V30 8055 H 1351.96 7.01832 -1.3448 0
M  V30 8056 H 1350.12 8.73771 -2.38364 0
M  V30 8057 H 1350.08 4.7189 -3.52311 0
M  V30 8058 H 1350.46 -0.0721434 -2.82608 0
M  V30 8059 H 1350.65 -1.0785 -1.36544 0
M  V30 8060 H 1350.76 1.73207 2.10241 0
M  V30 8061 P 1351.99 8.91 1.08019e-11 0
M  V30 8062 O 1352.21 10.1726 0.733694 0
M  V30 8063 O 1352.78 8.73148 -1.23936 0
M  V30 8064 O 1352.24 7.66872 0.971405 0
M  V30 8065 C 1351.3 7.42309 2.04641 0
M  V30 8066 C 1352.03 6.86059 3.24661 0
M  V30 8067 O 1352.24 5.42847 3.03646 0
M  V30 8068 C 1353.43 7.41196 3.50753 0
M  V30 8069 O 1353.82 7.27073 4.86816 0
M  V30 8070 C 1354.31 6.5273 2.63741 0
M  V30 8071 C 1353.6 5.1842 2.73198 0
M  V30 8072 N 1353.65 4.38762 1.4784 0
M  V30 8073 H 1350.81 8.36803 2.32493 0
M  V30 8074 H 1350.54 6.70197 1.71129 0
M  V30 8075 H 1351.41 7.03551 4.13168 0
M  V30 8076 P 1355.37 7.20834 5.23717 0
M  V30 8077 O 1355.59 7.7993 6.57351 0
M  V30 8078 O 1356.16 7.79328 4.13004 0
M  V30 8079 O 1355.62 5.63315 5.29344 0
M  V30 8080 C 1354.68 4.80193 6.01798 0
M  V30 8081 C 1355.41 3.64202 6.65911 0
M  V30 8082 O 1355.62 2.60694 5.64732 0
M  V30 8083 C 1356.81 3.93473 7.1943 0
M  V30 8084 O 1357.2 3.02071 8.21205 0
M  V30 8085 C 1357.69 3.73047 5.97036 0
M  V30 8086 C 1356.98 2.58828 5.25741 0
M  V30 8087 N 1357.03 2.6801 3.77422 0
M  V30 8088 C 1357.18 1.50443 3.07133 0
M  V30 8089 O 1357.27 0.419406 3.61576 0
M  V30 8090 N 1357.22 1.6403 1.69677 0
M  V30 8091 C 1357.13 2.81206 0.986255 0
M  V30 8092 O 1357.18 2.80892 -0.249754 0
M  V30 8093 C 1356.98 3.99158 1.80325 0
M  V30 8094 C 1356.87 5.29309 1.06921 0
M  V30 8095 C 1356.93 3.89779 3.1476 0
M  V30 8096 H 1354.19 5.40332 6.79951 0
M  V30 8097 H 1353.92 4.41549 5.32301 0
M  V30 8098 H 1354.79 3.26331 7.47797 0
M  V30 8099 H 1357.44 1.6395 5.56554 0
M  V30 8100 H 1357.72 4.63439 5.3432 0
M  V30 8101 H 1358.72 3.44728 6.25838 0
M  V30 8102 H 1356.88 4.96652 7.57263 0
M  V30 8103 H 1356.81 4.80159 3.74441 0
M  V30 8104 H 1357.84 5.81459 1.09608 0
M  V30 8105 H 1356.1 5.9187 1.54487 0
M  V30 8106 H 1356.59 5.10095 0.0220288 0
M  V30 8107 H 1357.33 0.798962 1.16664 0
M  V30 8108 P 1358.75 2.75334 8.47391 0
M  V30 8109 O 1358.97 2.44571 9.90142 0
M  V30 8110 O 1359.54 3.87688 7.92115 0
M  V30 8111 O 1359 1.4459 7.59357 0
M  V30 8112 C 1358.06 0.347608 7.69215 0
M  V30 8113 C 1358.79 -0.96767 7.52806 0
M  V30 8114 O 1359 -1.21036 6.1011 0
M  V30 8115 C 1360.19 -1.04544 8.13308 0
M  V30 8116 O 1360.58 -2.38311 8.41922 0
M  V30 8117 C 1361.07 -0.491279 7.02284 0
M  V30 8118 C 1360.36 -0.996264 5.77469 0
M  V30 8119 N 1360.41 -0.0501916 4.62973 0
M  V30 8120 H 1357.57 0.374722 8.67691 0
M  V30 8121 H 1357.3 0.443485 6.90277 0
M  V30 8122 H 1358.17 -1.75537 7.96793 0
M  V30 8123 P 1362.13 -2.75334 8.47391 0
M  V30 8124 O 1362.35 -3.84128 9.44797 0
M  V30 8125 O 1362.92 -1.51947 8.68712 0
M  V30 8126 O 1362.38 -3.29363 6.99321 0
M  V30 8127 C 1361.44 -4.24011 6.4274 0
M  V30 8128 C 1362.17 -5.20775 5.52155 0
M  V30 8129 O 1362.38 -4.56534 4.22446 0
M  V30 8130 C 1363.57 -5.62629 5.96531 0
M  V30 8131 O 1363.96 -6.87667 5.41053 0
M  V30 8132 C 1364.45 -4.52537 5.39283 0
M  V30 8133 C 1363.74 -4.20027 4.08623 0
M  V30 8134 N 1363.79 -2.76189 3.71603 0
M  V30 8135 C 1363.71 -1.64862 4.52822 0
M  V30 8136 N 1363.79 -0.512671 3.88633 0
M  V30 8137 C 1363.93 -0.888083 2.54977 0
M  V30 8138 C 1364.06 -0.094668 1.38677 0
M  V30 8139 N 1364.18 -0.890102 0.232633 0
M  V30 8140 C 1364.18 -2.26958 0.21772 0
M  V30 8141 N 1364.31 -2.84626 -0.97925 0
M  V30 8142 N 1364.05 -3.0178 1.31033 0
M  V30 8143 C 1363.93 -2.26781 2.43843 0
M  V30 8144 H 1360.95 -4.797 7.24003 0
M  V30 8145 H 1360.68 -3.69856 5.84513 0
M  V30 8146 H 1361.55 -6.10356 5.41441 0
M  V30 8147 P 1365.51 -7.20834 5.23717 0
M  V30 8148 O 1365.73 -8.66104 5.38572 0
M  V30 8149 O 1366.3 -6.33544 6.1349 0
M  V30 8150 O 1365.76 -6.7751 3.72168 0
M  V30 8151 C 1364.82 -7.20825 2.7076 0
M  V30 8152 C 1365.55 -7.45864 1.40599 0
M  V30 8153 O 1365.76 -6.17651 0.734225 0
M  V30 8154 C 1366.95 -8.05808 1.51899 0
M  V30 8155 O 1367.34 -8.74358 0.335205 0
M  V30 8156 C 1367.83 -6.83093 1.70294 0
M  V30 8157 C 1367.12 -5.79992 0.836974 0
M  V30 8158 N 1367.17 -4.41864 1.38293 0
M  V30 8159 H 1364.33 -8.13644 3.0377 0
M  V30 8160 H 1364.06 -6.42788 2.55485 0
M  V30 8161 H 1364.93 -8.12039 0.792769 0
M  V30 8162 P 1368.89 -8.91 -1.09591e-11 0
M  V30 8163 O 1369.11 -10.1726 -0.733694 0
M  V30 8164 O 1369.68 -8.73148 1.23936 0
M  V30 8165 O 1369.14 -7.66872 -0.971405 0
M  V30 8166 C 1368.2 -7.42309 -2.04641 0
M  V30 8167 C 1368.93 -6.86059 -3.24661 0
M  V30 8168 O 1369.14 -5.42847 -3.03646 0
M  V30 8169 C 1370.33 -7.41196 -3.50753 0
M  V30 8170 O 1370.72 -7.27073 -4.86816 0
M  V30 8171 C 1371.21 -6.5273 -2.63741 0
M  V30 8172 C 1370.5 -5.1842 -2.73198 0
M  V30 8173 N 1370.55 -4.38762 -1.4784 0
M  V30 8174 H 1367.71 -8.36803 -2.32493 0
M  V30 8175 H 1367.44 -6.70197 -1.71129 0
M  V30 8176 H 1368.31 -7.03551 -4.13168 0
M  V30 8177 P 1372.27 -7.20834 -5.23717 0
M  V30 8178 O 1372.49 -7.80006 -6.57415 0
M  V30 8179 O 1373.06 -7.79416 -4.13051 0
M  V30 8180 O 1372.52 -5.63315 -5.29344 0
M  V30 8181 C 1371.58 -4.80318 -6.01954 0
M  V30 8182 C 1372.31 -3.64202 -6.65911 0
M  V30 8183 O 1372.52 -2.60736 -5.64823 0
M  V30 8184 C 1373.71 -3.93521 -7.19518 0
M  V30 8185 O 1374.1 -3.02071 -8.21205 0
M  V30 8186 C 1374.59 -3.73047 -5.97036 0
M  V30 8187 C 1373.88 -2.58828 -5.25741 0
M  V30 8188 N 1373.93 -2.68068 -3.77503 0
M  V30 8189 C 1373.85 -3.80474 -2.99159 0
M  V30 8190 N 1373.92 -3.55622 -1.71925 0
M  V30 8191 C 1374.07 -2.1832 -1.65733 0
M  V30 8192 C 1374.2 -1.28842 -0.572777 0
M  V30 8193 N 1374.21 -1.66875 0.70098 0
M  V30 8194 N 1374.32 0.016788 -0.859836 0
M  V30 8195 C 1374.31 0.398145 -2.13316 0
M  V30 8196 N 1374.19 -0.328224 -3.22333 0
M  V30 8197 C 1374.07 -1.62992 -2.90383 0
M  V30 8198 H 1371.09 -5.40394 -6.8003 0
M  V30 8199 H 1370.82 -4.41741 -5.32532 0
M  V30 8200 H 1371.69 -3.26371 -7.47889 0
M  V30 8201 H 1374.34 -1.64007 -5.56746 0
M  V30 8202 H 1374.62 -4.63439 -5.3432 0
M  V30 8203 H 1375.62 -3.44776 -6.25925 0
M  V30 8204 H 1373.78 -4.96707 -7.57347 0
M  V30 8205 H 1373.74 -4.8089 -3.39924 0
M  V30 8206 H 1374.12 -2.66547 0.941919 0
M  V30 8207 H 1374.31 -0.965341 1.44766 0
M  V30 8208 H 1374.42 1.46427 -2.29697 0
M  V30 8209 P 1375.65 -2.75334 -8.47391 0
M  V30 8210 O 1375.87 -2.44571 -9.90142 0
M  V30 8211 O 1376.44 -3.87688 -7.92115 0
M  V30 8212 O 1375.9 -1.4459 -7.59357 0
M  V30 8213 C 1374.96 -0.347608 -7.69215 0
M  V30 8214 C 1375.69 0.96767 -7.52806 0
M  V30 8215 O 1375.9 1.21036 -6.1011 0
M  V30 8216 C 1377.09 1.04544 -8.13308 0
M  V30 8217 O 1377.48 2.38311 -8.41922 0
M  V30 8218 C 1377.97 0.491279 -7.02284 0
M  V30 8219 C 1377.26 0.996264 -5.77469 0
M  V30 8220 N 1377.31 0.0501916 -4.62973 0
M  V30 8221 H 1374.47 -0.374722 -8.67691 0
M  V30 8222 H 1374.2 -0.443485 -6.90277 0
M  V30 8223 H 1375.07 1.75537 -7.96793 0
M  V30 8224 P 1379.03 2.75334 -8.47391 0
M  V30 8225 O 1379.25 3.84128 -9.44797 0
M  V30 8226 O 1379.82 1.51947 -8.68712 0
M  V30 8227 O 1379.28 3.29363 -6.99321 0
M  V30 8228 C 1378.34 4.24011 -6.4274 0
M  V30 8229 C 1379.07 5.20775 -5.52155 0
M  V30 8230 O 1379.28 4.56534 -4.22446 0
M  V30 8231 C 1380.47 5.62629 -5.96531 0
M  V30 8232 O 1380.86 6.87667 -5.41053 0
M  V30 8233 C 1381.35 4.52537 -5.39283 0
M  V30 8234 C 1380.64 4.20027 -4.08623 0
M  V30 8235 N 1380.69 2.76189 -3.71603 0
M  V30 8236 H 1377.85 4.797 -7.24003 0
M  V30 8237 H 1377.58 3.69856 -5.84513 0
M  V30 8238 H 1378.45 6.10356 -5.41441 0
M  V30 8239 P 1382.41 7.20834 -5.23717 0
M  V30 8240 O 1382.63 8.66274 -5.38678 0
M  V30 8241 O 1383.2 6.33687 -6.13629 0
M  V30 8242 O 1382.66 6.7751 -3.72168 0
M  V30 8243 C 1381.72 7.20919 -2.70795 0
M  V30 8244 C 1382.45 7.45864 -1.40599 0
M  V30 8245 O 1382.66 6.17751 -0.734343 0
M  V30 8246 C 1383.85 8.05906 -1.51917 0
M  V30 8247 O 1384.24 8.74358 -0.335205 0
M  V30 8248 C 1384.73 6.83093 -1.70294 0
M  V30 8249 C 1384.02 5.79992 -0.836974 0
M  V30 8250 N 1384.07 4.41864 -1.38293 0
M  V30 8251 C 1383.99 4.02089 -2.69407 0
M  V30 8252 N 1384.06 2.73403 -2.85089 0
M  V30 8253 C 1384.21 2.25086 -1.5642 0
M  V30 8254 C 1384.34 0.942887 -1.04836 0
M  V30 8255 N 1384.35 -0.150999 -1.80369 0
M  V30 8256 N 1384.46 0.812565 0.28167 0
M  V30 8257 C 1384.45 1.90572 1.03784 0
M  V30 8258 N 1384.33 3.167 0.683905 0
M  V30 8259 C 1384.21 3.26538 -0.652815 0
M  V30 8260 H 1381.23 8.13738 -3.03804 0
M  V30 8261 H 1380.96 6.42974 -2.55559 0
M  V30 8262 H 1381.83 8.12139 -0.792866 0
M  V30 8263 H 1384.48 5.80178 0.160643 0
M  V30 8264 H 1384.76 6.51379 -2.75643 0
M  V30 8265 H 1385.76 7.01832 -1.3448 0
M  V30 8266 H 1383.92 8.73771 -2.38364 0
M  V30 8267 H 1383.88 4.7189 -3.52311 0
M  V30 8268 H 1384.26 -0.0721434 -2.82608 0
M  V30 8269 H 1384.45 -1.0785 -1.36544 0
M  V30 8270 H 1384.56 1.73207 2.10241 0
M  V30 8271 P 1385.79 8.91 1.03566e-11 0
M  V30 8272 O 1386.01 10.1736 0.733766 0
M  V30 8273 O 1386.58 8.73247 -1.2395 0
M  V30 8274 O 1386.04 7.66872 0.971405 0
M  V30 8275 C 1385.1 7.42212 2.04614 0
M  V30 8276 C 1385.83 6.86059 3.24661 0
M  V30 8277 O 1386.04 5.42847 3.03646 0
M  V30 8278 C 1387.23 7.41196 3.50753 0
M  V30 8279 O 1387.62 7.27073 4.86816 0
M  V30 8280 C 1388.11 6.5273 2.63741 0
M  V30 8281 C 1387.4 5.1842 2.73198 0
M  V30 8282 N 1387.45 4.38668 1.47808 0
M  V30 8283 C 1387.6 3.02239 1.60048 0
M  V30 8284 O 1387.69 2.46459 2.67869 0
M  V30 8285 N 1387.64 2.32436 0.408571 0
M  V30 8286 C 1387.55 2.85471 -0.854993 0
M  V30 8287 C 1387.4 4.28918 -0.887335 0
M  V30 8288 C 1387.35 5.00349 0.255399 0
M  V30 8289 H 1384.61 8.36803 2.32493 0
M  V30 8290 H 1384.34 6.701 1.71105 0
M  V30 8291 H 1385.21 7.03551 4.13168 0
M  V30 8292 H 1387.86 4.59773 3.53894 0
M  V30 8293 H 1388.14 6.88995 1.59871 0
M  V30 8294 H 1389.14 6.46749 3.03687 0
M  V30 8295 H 1387.3 8.46908 3.20714 0
M  V30 8296 H 1387.23 6.08548 0.206986 0
M  V30 8297 P 1389.17 7.20834 5.23717 0
M  V30 8298 O 1389.39 7.80006 6.57415 0
M  V30 8299 O 1389.96 7.79416 4.13051 0
M  V30 8300 O 1389.42 5.63315 5.29344 0
M  V30 8301 C 1388.48 4.80318 6.01954 0
M  V30 8302 C 1389.21 3.64202 6.65911 0
M  V30 8303 O 1389.42 2.60736 5.64823 0
M  V30 8304 C 1390.61 3.93521 7.19518 0
M  V30 8305 O 1391 3.02071 8.21205 0
M  V30 8306 C 1391.49 3.73047 5.97036 0
M  V30 8307 C 1390.78 2.58828 5.25741 0
M  V30 8308 N 1390.83 2.68068 3.77503 0
M  V30 8309 H 1387.99 5.40394 6.8003 0
M  V30 8310 H 1387.72 4.41741 5.32532 0
M  V30 8311 H 1388.59 3.26371 7.47889 0
M  V30 8312 H 1391.24 1.64007 5.56746 0
M  V30 8313 H 1391.52 4.63439 5.3432 0
M  V30 8314 H 1392.52 3.44776 6.25925 0
M  V30 8315 H 1390.68 4.96707 7.57347 0
M  V30 8316 P 1392.55 2.75334 8.47391 0
M  V30 8317 O 1392.77 2.44571 9.90142 0
M  V30 8318 O 1393.34 3.87688 7.92115 0
M  V30 8319 O 1392.8 1.4459 7.59357 0
M  V30 8320 C 1391.86 0.347608 7.69215 0
M  V30 8321 C 1392.59 -0.96767 7.52806 0
M  V30 8322 O 1392.8 -1.21036 6.1011 0
M  V30 8323 C 1393.99 -1.04544 8.13308 0
M  V30 8324 O 1394.38 -2.38311 8.41922 0
M  V30 8325 C 1394.87 -0.491279 7.02284 0
M  V30 8326 C 1394.16 -0.996264 5.77469 0
M  V30 8327 N 1394.21 -0.0501916 4.62973 0
M  V30 8328 C 1394.13 1.32786 4.63244 0
M  V30 8329 N 1394.21 1.86957 3.44545 0
M  V30 8330 C 1394.35 0.780241 2.58481 0
M  V30 8331 C 1394.48 0.738536 1.17757 0
M  V30 8332 N 1394.6 -0.58337 0.711393 0
M  V30 8333 C 1394.6 -1.70816 1.51017 0
M  V30 8334 N 1394.73 -2.87826 0.880757 0
M  V30 8335 N 1394.47 -1.67126 2.8339 0
M  V30 8336 C 1394.35 -0.401421 3.30572 0
M  V30 8337 H 1391.37 0.374722 8.67691 0
M  V30 8338 H 1391.1 0.443485 6.90277 0
M  V30 8339 H 1391.97 -1.75537 7.96793 0
M  V30 8340 P 1395.93 -2.75334 8.47391 0
M  V30 8341 O 1396.15 -3.84128 9.44797 0
M  V30 8342 O 1396.72 -1.51947 8.68712 0
M  V30 8343 O 1396.18 -3.29363 6.99321 0
M  V30 8344 C 1395.24 -4.24011 6.4274 0
M  V30 8345 C 1395.97 -5.20775 5.52155 0
M  V30 8346 O 1396.18 -4.56534 4.22446 0
M  V30 8347 C 1397.37 -5.62629 5.96531 0
M  V30 8348 O 1397.76 -6.87667 5.41053 0
M  V30 8349 C 1398.25 -4.52537 5.39283 0
M  V30 8350 C 1397.54 -4.20027 4.08623 0
M  V30 8351 N 1397.59 -2.76189 3.71603 0
M  V30 8352 H 1394.75 -4.797 7.24003 0
M  V30 8353 H 1394.48 -3.69856 5.84513 0
M  V30 8354 H 1395.35 -6.10356 5.41441 0
M  V30 8355 P 1399.31 -7.20834 5.23717 0
M  V30 8356 O 1399.53 -8.66104 5.38572 0
M  V30 8357 O 1400.1 -6.33544 6.1349 0
M  V30 8358 O 1399.56 -6.7751 3.72168 0
M  V30 8359 C 1398.62 -7.20825 2.7076 0
M  V30 8360 C 1399.35 -7.45864 1.40599 0
M  V30 8361 O 1399.56 -6.17651 0.734225 0
M  V30 8362 C 1400.75 -8.05808 1.51899 0
M  V30 8363 O 1401.14 -8.74358 0.335205 0
M  V30 8364 C 1401.63 -6.83093 1.70294 0
M  V30 8365 C 1400.92 -5.79992 0.836974 0
M  V30 8366 N 1400.97 -4.41864 1.38293 0
M  V30 8367 C 1400.89 -3.99538 2.69438 0
M  V30 8368 N 1400.97 -2.69909 2.84277 0
M  V30 8369 C 1401.11 -2.21719 1.5408 0
M  V30 8370 C 1401.24 -0.891712 1.06628 0
M  V30 8371 O 1401.26 0.161298 1.70137 0
M  V30 8372 N 1401.36 -0.856846 -0.334985 0
M  V30 8373 C 1401.36 -1.9641 -1.15789 0
M  V30 8374 N 1401.49 -1.72708 -2.46522 0
M  V30 8375 N 1401.23 -3.21165 -0.713741 0
M  V30 8376 C 1401.11 -3.26797 0.639748 0
M  V30 8377 H 1398.13 -8.13644 3.0377 0
M  V30 8378 H 1397.86 -6.42788 2.55485 0
M  V30 8379 H 1398.73 -8.12039 0.792769 0
M  V30 8380 H 1401.38 -5.80061 -0.166416 0
M  V30 8381 H 1401.66 -6.51287 2.75604 0
M  V30 8382 H 1402.66 -7.01734 1.34462 0
M  V30 8383 H 1400.82 -8.73674 2.38337 0
M  V30 8384 H 1400.77 -4.68207 3.53221 0
M  V30 8385 H 1401.45 0.0398818 -0.767965 0
M  V30 8386 H 1401.49 -2.50995 -3.13503 0
M  V30 8387 H 1401.59 -0.759148 -2.80716 0
M  V30 8388 P 1402.69 -8.91 -9.24756e-12 0
M  V30 8389 O 1402.91 -10.1726 -0.733694 0
M  V30 8390 O 1403.48 -8.73148 1.23936 0
M  V30 8391 O 1402.94 -7.66872 -0.971405 0
M  V30 8392 C 1402 -7.42309 -2.04641 0
M  V30 8393 C 1402.73 -6.86059 -3.24661 0
M  V30 8394 O 1402.94 -5.42847 -3.03646 0
M  V30 8395 C 1404.13 -7.41196 -3.50753 0
M  V30 8396 O 1404.52 -7.27073 -4.86816 0
M  V30 8397 C 1405.01 -6.5273 -2.63741 0
M  V30 8398 C 1404.3 -5.1842 -2.73198 0
M  V30 8399 N 1404.35 -4.38762 -1.4784 0
M  V30 8400 H 1401.51 -8.36803 -2.32493 0
M  V30 8401 H 1401.24 -6.70197 -1.71129 0
M  V30 8402 H 1402.11 -7.03551 -4.13168 0
M  V30 8403 P 1406.07 -7.20834 -5.23717 0
M  V30 8404 O 1406.29 -7.79853 -6.57286 0
M  V30 8405 O 1406.86 -7.79239 -4.12957 0
M  V30 8406 O 1406.32 -5.63315 -5.29344 0
M  V30 8407 C 1405.38 -4.80255 -6.01876 0
M  V30 8408 C 1406.11 -3.64202 -6.65911 0
M  V30 8409 O 1406.32 -2.60694 -5.64732 0
M  V30 8410 C 1407.51 -3.93473 -7.1943 0
M  V30 8411 O 1407.9 -3.02071 -8.21205 0
M  V30 8412 C 1408.39 -3.73047 -5.97036 0
M  V30 8413 C 1407.68 -2.58828 -5.25741 0
M  V30 8414 N 1407.73 -2.68068 -3.77503 0
M  V30 8415 C 1407.65 -3.79715 -2.96723 0
M  V30 8416 N 1407.73 -3.5377 -1.68852 0
M  V30 8417 C 1407.87 -2.15054 -1.63254 0
M  V30 8418 C 1408 -1.28964 -0.518571 0
M  V30 8419 O 1408.02 -1.56826 0.679156 0
M  V30 8420 N 1408.12 0.0538097 -0.918425 0
M  V30 8421 C 1408.12 0.494275 -2.22578 0
M  V30 8422 N 1408.25 1.81086 -2.40434 0
M  V30 8423 N 1407.99 -0.313645 -3.27502 0
M  V30 8424 C 1407.87 -1.61829 -2.91033 0
M  V30 8425 H 1404.89 -5.40332 -6.79951 0
M  V30 8426 H 1404.62 -4.41613 -5.32378 0
M  V30 8427 H 1405.49 -3.26331 -7.47797 0
M  V30 8428 H 1408.14 -1.63422 -5.56814 0
M  V30 8429 H 1408.42 -4.63374 -5.34244 0
M  V30 8430 H 1409.42 -3.44728 -6.25838 0
M  V30 8431 H 1407.58 -4.96652 -7.57263 0
M  V30 8432 H 1407.53 -4.80617 -3.3614 0
M  V30 8433 H 1408.21 0.742702 -0.199384 0
M  V30 8434 H 1408.25 2.20598 -3.35588 0
M  V30 8435 H 1408.35 2.43518 -1.58945 0
M  V30 8436 P 1409.45 -2.75334 -8.47391 0
M  V30 8437 O 1409.67 -2.44595 -9.90239 0
M  V30 8438 O 1410.24 -3.87732 -7.92204 0
M  V30 8439 O 1409.7 -1.4459 -7.59357 0
M  V30 8440 C 1408.76 -0.347608 -7.69215 0
M  V30 8441 C 1409.49 0.96767 -7.52806 0
M  V30 8442 O 1409.7 1.21036 -6.1011 0
M  V30 8443 C 1410.89 1.04544 -8.13308 0
M  V30 8444 O 1411.28 2.38311 -8.41922 0
M  V30 8445 C 1411.77 0.491279 -7.02284 0
M  V30 8446 C 1411.06 0.996264 -5.77469 0
M  V30 8447 N 1411.11 0.0501808 -4.62873 0
M  V30 8448 C 1411.26 0.578037 -3.3505 0
M  V30 8449 O 1411.35 1.8073 -3.21711 0
M  V30 8450 N 1411.31 -0.468541 -2.263 0
M  V30 8451 C 1411.21 -1.59186 -2.47176 0
M  V30 8452 N 1411.26 -2.37626 -1.40392 0
M  V30 8453 C 1411.06 -2.16203 -3.77467 0
M  V30 8454 C 1411.01 -1.29324 -4.8195 0
M  V30 8455 H 1408.27 -0.374679 -8.67591 0
M  V30 8456 H 1408 -0.443421 -6.90177 0
M  V30 8457 H 1408.87 1.75559 -7.96891 0
M  V30 8458 H 1411.52 1.94529 -5.46723 0
M  V30 8459 H 1411.8 -0.608651 -7.04676 0
M  V30 8460 H 1412.8 0.889672 -7.08939 0
M  V30 8461 H 1410.96 0.43308 -9.04564 0
M  V30 8462 H 1410.89 -1.67758 -5.83046 0
M  V30 8463 H 1410.99 -3.23869 -3.92281 0
M  V30 8464 H 1411.38 -1.96317 -0.467202 0
M  V30 8465 H 1411.18 -3.39693 -1.51142 0
M  V30 8466 P 1412.83 2.75334 -8.47391 0
M  V30 8467 O 1413.05 3.84128 -9.44797 0
M  V30 8468 O 1413.62 1.51947 -8.68712 0
M  V30 8469 O 1413.08 3.29363 -6.99321 0
M  V30 8470 C 1412.14 4.24011 -6.4274 0
M  V30 8471 C 1412.87 5.20775 -5.52155 0
M  V30 8472 O 1413.08 4.56534 -4.22446 0
M  V30 8473 C 1414.27 5.62629 -5.96531 0
M  V30 8474 O 1414.66 6.87667 -5.41053 0
M  V30 8475 C 1415.15 4.52537 -5.39283 0
M  V30 8476 C 1414.44 4.20027 -4.08623 0
M  V30 8477 N 1414.49 2.76189 -3.71603 0
M  V30 8478 H 1411.65 4.797 -7.24003 0
M  V30 8479 H 1411.38 3.69856 -5.84513 0
M  V30 8480 H 1412.25 6.10356 -5.41441 0
M  V30 8481 P 1416.21 7.20834 -5.23717 0
M  V30 8482 O 1416.43 8.66104 -5.38572 0
M  V30 8483 O 1417 6.33544 -6.1349 0
M  V30 8484 O 1416.46 6.7751 -3.72168 0
M  V30 8485 C 1415.52 7.20825 -2.7076 0
M  V30 8486 C 1416.25 7.45864 -1.40599 0
M  V30 8487 O 1416.46 6.17651 -0.734225 0
M  V30 8488 C 1417.65 8.05808 -1.51899 0
M  V30 8489 O 1418.04 8.74358 -0.335205 0
M  V30 8490 C 1418.53 6.83093 -1.70294 0
M  V30 8491 C 1417.82 5.79992 -0.836974 0
M  V30 8492 N 1417.87 4.41864 -1.38293 0
M  V30 8493 H 1415.03 8.13644 -3.0377 0
M  V30 8494 H 1414.76 6.42788 -2.55485 0
M  V30 8495 H 1415.63 8.12039 -0.792769 0
M  V30 8496 P 1419.59 8.91 8.13856e-12 0
M  V30 8497 O 1419.81 10.1726 0.733694 0
M  V30 8498 O 1420.38 8.73148 -1.23936 0
M  V30 8499 O 1419.84 7.66872 0.971405 0
M  V30 8500 C 1418.9 7.42309 2.04641 0
M  V30 8501 C 1419.63 6.86059 3.24661 0
M  V30 8502 O 1419.84 5.42847 3.03646 0
M  V30 8503 C 1421.03 7.41196 3.50753 0
M  V30 8504 O 1421.42 7.27073 4.86816 0
M  V30 8505 C 1421.91 6.5273 2.63741 0
M  V30 8506 C 1421.2 5.1842 2.73198 0
M  V30 8507 N 1421.25 4.38762 1.4784 0
M  V30 8508 H 1418.41 8.36803 2.32493 0
M  V30 8509 H 1418.14 6.70197 1.71129 0
M  V30 8510 H 1419.01 7.03551 4.13168 0
M  V30 8511 P 1422.97 7.20834 5.23717 0
M  V30 8512 O 1423.19 7.79853 6.57286 0
M  V30 8513 O 1423.76 7.79239 4.12957 0
M  V30 8514 O 1423.22 5.63315 5.29344 0
M  V30 8515 C 1422.28 4.80255 6.01876 0
M  V30 8516 C 1423.01 3.64202 6.65911 0
M  V30 8517 O 1423.22 2.60694 5.64732 0
M  V30 8518 C 1424.41 3.93473 7.1943 0
M  V30 8519 O 1424.8 3.02071 8.21205 0
M  V30 8520 C 1425.29 3.73047 5.97036 0
M  V30 8521 C 1424.58 2.58828 5.25741 0
M  V30 8522 N 1424.63 2.68068 3.77503 0
M  V30 8523 H 1421.79 5.40332 6.79951 0
M  V30 8524 H 1421.52 4.41613 5.32378 0
M  V30 8525 H 1422.39 3.26331 7.47797 0
M  V30 8526 P 1426.35 2.75334 8.47391 0
M  V30 8527 O 1426.57 2.44571 9.90142 0
M  V30 8528 O 1427.14 3.87688 7.92115 0
M  V30 8529 O 1426.6 1.4459 7.59357 0
M  V30 8530 C 1425.66 0.347608 7.69215 0
M  V30 8531 C 1426.39 -0.96767 7.52806 0
M  V30 8532 O 1426.6 -1.21036 6.1011 0
M  V30 8533 C 1427.79 -1.04544 8.13308 0
M  V30 8534 O 1428.18 -2.38311 8.41922 0
M  V30 8535 C 1428.67 -0.491279 7.02284 0
M  V30 8536 C 1427.96 -0.996264 5.77469 0
M  V30 8537 N 1428.01 -0.0501916 4.62973 0
M  V30 8538 H 1425.17 0.374722 8.67691 0
M  V30 8539 H 1424.9 0.443485 6.90277 0
M  V30 8540 H 1425.77 -1.75537 7.96793 0
M  V30 8541 P 1429.73 -2.75334 8.47391 0
M  V30 8542 O 1429.95 -3.84128 9.44797 0
M  V30 8543 O 1430.52 -1.51947 8.68712 0
M  V30 8544 O 1429.98 -3.29363 6.99321 0
M  V30 8545 C 1429.04 -4.24011 6.4274 0
M  V30 8546 C 1429.77 -5.20775 5.52155 0
M  V30 8547 O 1429.98 -4.56534 4.22446 0
M  V30 8548 C 1431.17 -5.62629 5.96531 0
M  V30 8549 O 1431.56 -6.87667 5.41053 0
M  V30 8550 C 1432.05 -4.52537 5.39283 0
M  V30 8551 C 1431.34 -4.20027 4.08623 0
M  V30 8552 N 1431.39 -2.76189 3.71603 0
M  V30 8553 H 1428.55 -4.797 7.24003 0
M  V30 8554 H 1428.28 -3.69856 5.84513 0
M  V30 8555 H 1429.15 -6.10356 5.41441 0
M  V30 8556 P 1433.11 -7.20834 5.23717 0
M  V30 8557 O 1433.33 -8.66274 5.38678 0
M  V30 8558 O 1433.9 -6.33687 6.13629 0
M  V30 8559 O 1433.36 -6.7751 3.72168 0
M  V30 8560 C 1432.42 -7.20919 2.70795 0
M  V30 8561 C 1433.15 -7.45864 1.40599 0
M  V30 8562 O 1433.36 -6.17751 0.734343 0
M  V30 8563 C 1434.55 -8.05906 1.51917 0
M  V30 8564 O 1434.94 -8.74358 0.335205 0
M  V30 8565 C 1435.43 -6.83093 1.70294 0
M  V30 8566 C 1434.72 -5.79992 0.836974 0
M  V30 8567 N 1434.77 -4.41864 1.38293 0
M  V30 8568 H 1431.93 -8.13738 3.03804 0
M  V30 8569 H 1431.66 -6.42974 2.55559 0
M  V30 8570 H 1432.53 -8.12139 0.792866 0
M  V30 8571 H 1435.18 -5.80178 -0.160643 0
M  V30 8572 H 1435.46 -6.51379 2.75643 0
M  V30 8573 H 1436.46 -7.01832 1.3448 0
M  V30 8574 H 1434.62 -8.73771 2.38364 0
M  V30 8575 P 1436.49 -8.91 -7.02955e-12 0
M  V30 8576 O 1436.71 -10.1726 -0.733694 0
M  V30 8577 O 1437.28 -8.73148 1.23936 0
M  V30 8578 O 1436.74 -7.66872 -0.971405 0
M  V30 8579 C 1435.8 -7.42309 -2.04641 0
M  V30 8580 C 1436.53 -6.86059 -3.24661 0
M  V30 8581 O 1436.74 -5.42847 -3.03646 0
M  V30 8582 C 1437.93 -7.41196 -3.50753 0
M  V30 8583 O 1438.32 -7.27073 -4.86816 0
M  V30 8584 C 1438.81 -6.5273 -2.63741 0
M  V30 8585 C 1438.1 -5.1842 -2.73198 0
M  V30 8586 N 1438.15 -4.38762 -1.4784 0
M  V30 8587 H 1435.31 -8.36803 -2.32493 0
M  V30 8588 H 1435.04 -6.70197 -1.71129 0
M  V30 8589 H 1435.91 -7.03551 -4.13168 0
M  V30 8590 P 1439.87 -7.20834 -5.23717 0
M  V30 8591 O 1440.09 -7.79853 -6.57286 0
M  V30 8592 O 1440.66 -7.79239 -4.12957 0
M  V30 8593 O 1440.12 -5.63315 -5.29344 0
M  V30 8594 C 1439.18 -4.80255 -6.01876 0
M  V30 8595 C 1439.91 -3.64202 -6.65911 0
M  V30 8596 O 1440.12 -2.60694 -5.64732 0
M  V30 8597 C 1441.31 -3.93473 -7.1943 0
M  V30 8598 O 1441.7 -3.02071 -8.21205 0
M  V30 8599 C 1442.19 -3.73047 -5.97036 0
M  V30 8600 C 1441.48 -2.58828 -5.25741 0
M  V30 8601 N 1441.53 -2.68068 -3.77503 0
M  V30 8602 H 1438.69 -5.40332 -6.79951 0
M  V30 8603 H 1438.42 -4.41613 -5.32378 0
M  V30 8604 H 1439.29 -3.26331 -7.47797 0
M  V30 8605 P 1443.25 -2.75334 -8.47391 0
M  V30 8606 O 1443.47 -2.44571 -9.90142 0
M  V30 8607 O 1444.04 -3.87688 -7.92115 0
M  V30 8608 O 1443.5 -1.4459 -7.59357 0
M  V30 8609 C 1442.56 -0.347608 -7.69215 0
M  V30 8610 C 1443.29 0.96767 -7.52806 0
M  V30 8611 O 1443.5 1.21036 -6.1011 0
M  V30 8612 C 1444.69 1.04544 -8.13308 0
M  V30 8613 O 1445.08 2.38311 -8.41922 0
M  V30 8614 C 1445.57 0.491279 -7.02284 0
M  V30 8615 C 1444.86 0.996264 -5.77469 0
M  V30 8616 N 1444.91 0.0501916 -4.62973 0
M  V30 8617 H 1442.07 -0.374722 -8.67691 0
M  V30 8618 H 1441.8 -0.443485 -6.90277 0
M  V30 8619 H 1442.67 1.75537 -7.96793 0
M  V30 8620 P 1446.63 2.75334 -8.47391 0
M  V30 8621 O 1446.85 3.84128 -9.44797 0
M  V30 8622 O 1447.42 1.51947 -8.68712 0
M  V30 8623 O 1446.88 3.29363 -6.99321 0
M  V30 8624 C 1445.94 4.24011 -6.4274 0
M  V30 8625 C 1446.67 5.20775 -5.52155 0
M  V30 8626 O 1446.88 4.56534 -4.22446 0
M  V30 8627 C 1448.07 5.62629 -5.96531 0
M  V30 8628 O 1448.46 6.87667 -5.41053 0
M  V30 8629 C 1448.95 4.52537 -5.39283 0
M  V30 8630 C 1448.24 4.20027 -4.08623 0
M  V30 8631 N 1448.29 2.76189 -3.71603 0
M  V30 8632 H 1445.45 4.797 -7.24003 0
M  V30 8633 H 1445.18 3.69856 -5.84513 0
M  V30 8634 H 1446.05 6.10356 -5.41441 0
M  V30 8635 P 1450.01 7.20834 -5.23717 0
M  V30 8636 O 1450.23 8.66104 -5.38572 0
M  V30 8637 O 1450.8 6.33544 -6.1349 0
M  V30 8638 O 1450.26 6.7751 -3.72168 0
M  V30 8639 C 1449.32 7.20825 -2.7076 0
M  V30 8640 C 1450.05 7.45864 -1.40599 0
M  V30 8641 O 1450.26 6.17651 -0.734225 0
M  V30 8642 C 1451.45 8.05808 -1.51899 0
M  V30 8643 O 1451.84 8.74358 -0.335205 0
M  V30 8644 C 1452.33 6.83093 -1.70294 0
M  V30 8645 C 1451.62 5.79992 -0.836974 0
M  V30 8646 N 1451.67 4.41864 -1.38293 0
M  V30 8647 H 1448.83 8.13644 -3.0377 0
M  V30 8648 H 1448.56 6.42788 -2.55485 0
M  V30 8649 H 1449.43 8.12039 -0.792769 0
M  V30 8650 P 1453.39 8.91 5.92055e-12 0
M  V30 8651 O 1453.61 10.1726 0.733694 0
M  V30 8652 O 1454.18 8.73148 -1.23936 0
M  V30 8653 O 1453.64 7.66872 0.971405 0
M  V30 8654 C 1452.7 7.42309 2.04641 0
M  V30 8655 C 1453.43 6.86059 3.24661 0
M  V30 8656 O 1453.64 5.42847 3.03646 0
M  V30 8657 C 1454.83 7.41196 3.50753 0
M  V30 8658 O 1455.22 7.27073 4.86816 0
M  V30 8659 C 1455.71 6.5273 2.63741 0
M  V30 8660 C 1455 5.1842 2.73198 0
M  V30 8661 N 1455.05 4.38762 1.4784 0
M  V30 8662 H 1452.21 8.36803 2.32493 0
M  V30 8663 H 1451.94 6.70197 1.71129 0
M  V30 8664 H 1452.81 7.03551 4.13168 0
M  V30 8665 P 1456.77 7.20834 5.23717 0
M  V30 8666 O 1456.99 7.80006 6.57415 0
M  V30 8667 O 1457.56 7.79416 4.13051 0
M  V30 8668 O 1457.02 5.63315 5.29344 0
M  V30 8669 C 1456.08 4.80318 6.01954 0
M  V30 8670 C 1456.81 3.64202 6.65911 0
M  V30 8671 O 1457.02 2.60736 5.64823 0
M  V30 8672 C 1458.21 3.93521 7.19518 0
M  V30 8673 O 1458.6 3.02071 8.21205 0
M  V30 8674 C 1459.09 3.73047 5.97036 0
M  V30 8675 C 1458.38 2.58828 5.25741 0
M  V30 8676 N 1458.43 2.68068 3.77503 0
M  V30 8677 C 1458.35 3.80474 2.99159 0
M  V30 8678 N 1458.42 3.55622 1.71925 0
M  V30 8679 C 1458.57 2.1832 1.65733 0
M  V30 8680 C 1458.7 1.28842 0.572777 0
M  V30 8681 N 1458.71 1.66875 -0.70098 0
M  V30 8682 N 1458.82 -0.016788 0.859836 0
M  V30 8683 C 1458.81 -0.398145 2.13316 0
M  V30 8684 N 1458.69 0.328224 3.22333 0
M  V30 8685 C 1458.57 1.62992 2.90383 0
M  V30 8686 H 1455.59 5.40394 6.8003 0
M  V30 8687 H 1455.32 4.41741 5.32532 0
M  V30 8688 H 1456.19 3.26371 7.47889 0
M  V30 8689 H 1458.84 1.64007 5.56746 0
M  V30 8690 H 1459.12 4.63439 5.3432 0
M  V30 8691 H 1460.12 3.44776 6.25925 0
M  V30 8692 H 1458.28 4.96707 7.57347 0
M  V30 8693 H 1458.24 4.8089 3.39924 0
M  V30 8694 H 1458.62 2.66547 -0.941919 0
M  V30 8695 H 1458.81 0.965341 -1.44766 0
M  V30 8696 H 1458.92 -1.46427 2.29697 0
M  V30 8697 P 1460.15 2.75334 8.47391 0
M  V30 8698 O 1460.37 2.44571 9.90142 0
M  V30 8699 O 1460.94 3.87688 7.92115 0
M  V30 8700 O 1460.4 1.4459 7.59357 0
M  V30 8701 C 1459.46 0.347608 7.69215 0
M  V30 8702 C 1460.19 -0.96767 7.52806 0
M  V30 8703 O 1460.4 -1.21036 6.1011 0
M  V30 8704 C 1461.59 -1.04544 8.13308 0
M  V30 8705 O 1461.98 -2.38311 8.41922 0
M  V30 8706 C 1462.47 -0.491279 7.02284 0
M  V30 8707 C 1461.76 -0.996264 5.77469 0
M  V30 8708 N 1461.81 -0.0501916 4.62973 0
M  V30 8709 H 1458.97 0.374722 8.67691 0
M  V30 8710 H 1458.7 0.443485 6.90277 0
M  V30 8711 H 1459.57 -1.75537 7.96793 0
M  V30 8712 P 1463.53 -2.75334 8.47391 0
M  V30 8713 O 1463.75 -3.84128 9.44797 0
M  V30 8714 O 1464.32 -1.51947 8.68712 0
M  V30 8715 O 1463.78 -3.29363 6.99321 0
M  V30 8716 C 1462.84 -4.24011 6.4274 0
M  V30 8717 C 1463.57 -5.20775 5.52155 0
M  V30 8718 O 1463.78 -4.56534 4.22446 0
M  V30 8719 C 1464.97 -5.62629 5.96531 0
M  V30 8720 O 1465.36 -6.87667 5.41053 0
M  V30 8721 C 1465.85 -4.52537 5.39283 0
M  V30 8722 C 1465.14 -4.20027 4.08623 0
M  V30 8723 N 1465.19 -2.76189 3.71603 0
M  V30 8724 C 1465.11 -1.64862 4.52822 0
M  V30 8725 N 1465.19 -0.512671 3.88633 0
M  V30 8726 C 1465.33 -0.888083 2.54977 0
M  V30 8727 C 1465.46 -0.094668 1.38677 0
M  V30 8728 O 1465.48 1.13053 1.28163 0
M  V30 8729 N 1465.58 -0.890102 0.232633 0
M  V30 8730 C 1465.58 -2.26958 0.21772 0
M  V30 8731 N 1465.71 -2.84626 -0.97925 0
M  V30 8732 N 1465.45 -3.0178 1.31033 0
M  V30 8733 C 1465.33 -2.26781 2.43843 0
M  V30 8734 H 1462.35 -4.797 7.24003 0
M  V30 8735 H 1462.08 -3.69856 5.84513 0
M  V30 8736 H 1462.95 -6.10356 5.41441 0
M  V30 8737 H 1465.6 -4.79061 3.27488 0
M  V30 8738 H 1465.88 -3.64906 6.05785 0
M  V30 8739 H 1466.88 -4.8868 5.2125 0
M  V30 8740 H 1465.04 -5.66726 7.06352 0
M  V30 8741 H 1464.99 -1.71169 5.60966 0
M  V30 8742 H 1465.67 -0.419134 -0.644739 0
M  V30 8743 H 1465.71 -3.87332 -1.06098 0
M  V30 8744 H 1465.81 -2.26417 -1.82483 0
M  V30 8745 P 1466.91 -7.20834 5.23717 0
M  V30 8746 O 1467.13 -8.66104 5.38572 0
M  V30 8747 O 1467.7 -6.33544 6.1349 0
M  V30 8748 O 1467.16 -6.7751 3.72168 0
M  V30 8749 C 1466.22 -7.20825 2.7076 0
M  V30 8750 C 1466.95 -7.45864 1.40599 0
M  V30 8751 O 1467.16 -6.17651 0.734225 0
M  V30 8752 C 1468.35 -8.05808 1.51899 0
M  V30 8753 O 1468.74 -8.74358 0.335205 0
M  V30 8754 C 1469.23 -6.83093 1.70294 0
M  V30 8755 C 1468.52 -5.79992 0.836974 0
M  V30 8756 N 1468.57 -4.41864 1.38293 0
M  V30 8757 H 1465.73 -8.13644 3.0377 0
M  V30 8758 H 1465.46 -6.42788 2.55485 0
M  V30 8759 H 1466.33 -8.12039 0.792769 0
M  V30 8760 P 1470.29 -8.91 -4.81154e-12 0
M  V30 8761 O 1470.51 -10.1726 -0.733694 0
M  V30 8762 O 1471.08 -8.73148 1.23936 0
M  V30 8763 O 1470.54 -7.66872 -0.971405 0
M  V30 8764 C 1469.6 -7.42309 -2.04641 0
M  V30 8765 C 1470.33 -6.86059 -3.24661 0
M  V30 8766 O 1470.54 -5.42847 -3.03646 0
M  V30 8767 C 1471.73 -7.41196 -3.50753 0
M  V30 8768 O 1472.12 -7.27073 -4.86816 0
M  V30 8769 C 1472.61 -6.5273 -2.63741 0
M  V30 8770 C 1471.9 -5.1842 -2.73198 0
M  V30 8771 N 1471.95 -4.38762 -1.4784 0
M  V30 8772 H 1469.11 -8.36803 -2.32493 0
M  V30 8773 H 1468.84 -6.70197 -1.71129 0
M  V30 8774 H 1469.71 -7.03551 -4.13168 0
M  V30 8775 P 1473.67 -7.20834 -5.23717 0
M  V30 8776 O 1473.89 -7.79853 -6.57286 0
M  V30 8777 O 1474.46 -7.79239 -4.12957 0
M  V30 8778 O 1473.92 -5.63315 -5.29344 0
M  V30 8779 C 1472.98 -4.80255 -6.01876 0
M  V30 8780 C 1473.71 -3.64202 -6.65911 0
M  V30 8781 O 1473.92 -2.60694 -5.64732 0
M  V30 8782 C 1475.11 -3.93473 -7.1943 0
M  V30 8783 O 1475.5 -3.02071 -8.21205 0
M  V30 8784 C 1475.99 -3.73047 -5.97036 0
M  V30 8785 C 1475.28 -2.58828 -5.25741 0
M  V30 8786 N 1475.33 -2.68068 -3.77503 0
M  V30 8787 H 1472.49 -5.40332 -6.79951 0
M  V30 8788 H 1472.22 -4.41613 -5.32378 0
M  V30 8789 H 1473.09 -3.26331 -7.47797 0
M  V30 8790 P 1477.05 -2.75334 -8.47391 0
M  V30 8791 O 1477.27 -2.44571 -9.90142 0
M  V30 8792 O 1477.84 -3.87688 -7.92115 0
M  V30 8793 O 1477.3 -1.4459 -7.59357 0
M  V30 8794 C 1476.36 -0.347608 -7.69215 0
M  V30 8795 C 1477.09 0.96767 -7.52806 0
M  V30 8796 O 1477.3 1.21036 -6.1011 0
M  V30 8797 C 1478.49 1.04544 -8.13308 0
M  V30 8798 O 1478.88 2.38311 -8.41922 0
M  V30 8799 C 1479.37 0.491279 -7.02284 0
M  V30 8800 C 1478.66 0.996264 -5.77469 0
M  V30 8801 N 1478.71 0.0501916 -4.62973 0
M  V30 8802 H 1475.87 -0.374722 -8.67691 0
M  V30 8803 H 1475.6 -0.443485 -6.90277 0
M  V30 8804 H 1476.47 1.75537 -7.96793 0
M  V30 8805 P 1480.43 2.75334 -8.47391 0
M  V30 8806 O 1480.65 3.84128 -9.44797 0
M  V30 8807 O 1481.22 1.51947 -8.68712 0
M  V30 8808 O 1480.68 3.29363 -6.99321 0
M  V30 8809 C 1479.74 4.24011 -6.4274 0
M  V30 8810 C 1480.47 5.20775 -5.52155 0
M  V30 8811 O 1480.68 4.56534 -4.22446 0
M  V30 8812 C 1481.87 5.62629 -5.96531 0
M  V30 8813 O 1482.26 6.87667 -5.41053 0
M  V30 8814 C 1482.75 4.52537 -5.39283 0
M  V30 8815 C 1482.04 4.20027 -4.08623 0
M  V30 8816 N 1482.09 2.76189 -3.71603 0
M  V30 8817 C 1482.01 1.64862 -4.52822 0
M  V30 8818 N 1482.09 0.512671 -3.88633 0
M  V30 8819 C 1482.23 0.888083 -2.54977 0
M  V30 8820 C 1482.36 0.094668 -1.38677 0
M  V30 8821 N 1482.48 0.890102 -0.232633 0
M  V30 8822 C 1482.48 2.26958 -0.21772 0
M  V30 8823 N 1482.61 2.84626 0.97925 0
M  V30 8824 N 1482.35 3.0178 -1.31033 0
M  V30 8825 C 1482.23 2.26781 -2.43843 0
M  V30 8826 H 1479.25 4.797 -7.24003 0
M  V30 8827 H 1478.98 3.69856 -5.84513 0
M  V30 8828 H 1479.85 6.10356 -5.41441 0
M  V30 8829 P 1483.81 7.20834 -5.23717 0
M  V30 8830 O 1484.03 8.66104 -5.38572 0
M  V30 8831 O 1484.6 6.33544 -6.1349 0
M  V30 8832 O 1484.06 6.7751 -3.72168 0
M  V30 8833 C 1483.12 7.20825 -2.7076 0
M  V30 8834 C 1483.85 7.45864 -1.40599 0
M  V30 8835 O 1484.06 6.17651 -0.734225 0
M  V30 8836 C 1485.25 8.05808 -1.51899 0
M  V30 8837 O 1485.64 8.74358 -0.335205 0
M  V30 8838 C 1486.13 6.83093 -1.70294 0
M  V30 8839 C 1485.42 5.79992 -0.836974 0
M  V30 8840 N 1485.47 4.41864 -1.38293 0
M  V30 8841 H 1482.63 8.13644 -3.0377 0
M  V30 8842 H 1482.36 6.42788 -2.55485 0
M  V30 8843 H 1483.23 8.12039 -0.792769 0
M  V30 8844 P 1487.19 8.91 3.70254e-12 0
M  V30 8845 O 1487.41 10.1746 0.733838 0
M  V30 8846 O 1487.98 8.73346 -1.23964 0
M  V30 8847 O 1487.44 7.66872 0.971405 0
M  V30 8848 C 1486.5 7.42405 2.04668 0
M  V30 8849 C 1487.23 6.86059 3.24661 0
M  V30 8850 O 1487.44 5.42934 3.03695 0
M  V30 8851 C 1488.63 7.41287 3.50796 0
M  V30 8852 O 1489.02 7.27073 4.86816 0
M  V30 8853 C 1489.51 6.5273 2.63741 0
M  V30 8854 C 1488.8 5.1842 2.73198 0
M  V30 8855 N 1488.85 4.38762 1.4784 0
M  V30 8856 H 1486.01 8.36899 2.3252 0
M  V30 8857 H 1485.74 6.70391 1.71179 0
M  V30 8858 H 1486.61 7.03638 4.13219 0
M  V30 8859 H 1489.26 4.59931 3.54016 0
M  V30 8860 H 1489.54 6.88995 1.59871 0
M  V30 8861 H 1490.54 6.4684 3.0373 0
M  V30 8862 H 1488.7 8.47002 3.20749 0
M  V30 8863 P 1490.57 7.20834 5.23717 0
M  V30 8864 O 1490.79 7.79853 6.57286 0
M  V30 8865 O 1491.36 7.79239 4.12957 0
M  V30 8866 O 1490.82 5.63315 5.29344 0
M  V30 8867 C 1489.88 4.80255 6.01876 0
M  V30 8868 C 1490.61 3.64202 6.65911 0
M  V30 8869 O 1490.82 2.60694 5.64732 0
M  V30 8870 C 1492.01 3.93473 7.1943 0
M  V30 8871 O 1492.4 3.02071 8.21205 0
M  V30 8872 C 1492.89 3.73047 5.97036 0
M  V30 8873 C 1492.18 2.58828 5.25741 0
M  V30 8874 N 1492.23 2.68068 3.77503 0
M  V30 8875 H 1489.39 5.40332 6.79951 0
M  V30 8876 H 1489.12 4.41613 5.32378 0
M  V30 8877 H 1489.99 3.26331 7.47797 0
M  V30 8878 P 1493.95 2.75334 8.47391 0
M  V30 8879 O 1494.17 2.44571 9.90142 0
M  V30 8880 O 1494.74 3.87688 7.92115 0
M  V30 8881 O 1494.2 1.4459 7.59357 0
M  V30 8882 C 1493.26 0.347608 7.69215 0
M  V30 8883 C 1493.99 -0.96767 7.52806 0
M  V30 8884 O 1494.2 -1.21036 6.1011 0
M  V30 8885 C 1495.39 -1.04544 8.13308 0
M  V30 8886 O 1495.78 -2.38311 8.41922 0
M  V30 8887 C 1496.27 -0.491279 7.02284 0
M  V30 8888 C 1495.56 -0.996264 5.77469 0
M  V30 8889 N 1495.61 -0.0501916 4.62973 0
M  V30 8890 H 1492.77 0.374722 8.67691 0
M  V30 8891 H 1492.5 0.443485 6.90277 0
M  V30 8892 H 1493.37 -1.75537 7.96793 0
M  V30 8893 P 1497.33 -2.75334 8.47391 0
M  V30 8894 O 1497.55 -3.84128 9.44797 0
M  V30 8895 O 1498.12 -1.51947 8.68712 0
M  V30 8896 O 1497.58 -3.29363 6.99321 0
M  V30 8897 C 1496.64 -4.24011 6.4274 0
M  V30 8898 C 1497.37 -5.20775 5.52155 0
M  V30 8899 O 1497.58 -4.56534 4.22446 0
M  V30 8900 C 1498.77 -5.62629 5.96531 0
M  V30 8901 O 1499.16 -6.87667 5.41053 0
M  V30 8902 C 1499.65 -4.52537 5.39283 0
M  V30 8903 C 1498.94 -4.20027 4.08623 0
M  V30 8904 N 1498.99 -2.76189 3.71603 0
M  V30 8905 H 1496.15 -4.797 7.24003 0
M  V30 8906 H 1495.88 -3.69856 5.84513 0
M  V30 8907 H 1496.75 -6.10356 5.41441 0
M  V30 8908 P 1500.71 -7.20834 5.23717 0
M  V30 8909 O 1500.93 -8.66104 5.38572 0
M  V30 8910 O 1501.5 -6.33544 6.1349 0
M  V30 8911 O 1500.96 -6.7751 3.72168 0
M  V30 8912 C 1500.02 -7.20825 2.7076 0
M  V30 8913 C 1500.75 -7.45864 1.40599 0
M  V30 8914 O 1500.96 -6.17651 0.734225 0
M  V30 8915 C 1502.15 -8.05808 1.51899 0
M  V30 8916 O 1502.54 -8.74358 0.335205 0
M  V30 8917 C 1503.03 -6.83093 1.70294 0
M  V30 8918 C 1502.32 -5.79992 0.836974 0
M  V30 8919 N 1502.37 -4.41864 1.38293 0
M  V30 8920 H 1499.53 -8.13644 3.0377 0
M  V30 8921 H 1499.26 -6.42788 2.55485 0
M  V30 8922 H 1500.13 -8.12039 0.792769 0
M  V30 8923 P 1504.09 -8.91 -2.59353e-12 0
M  V30 8924 O 1504.31 -10.1746 -0.733838 0
M  V30 8925 O 1504.88 -8.73346 1.23964 0
M  V30 8926 O 1504.34 -7.66872 -0.971405 0
M  V30 8927 C 1503.4 -7.42405 -2.04668 0
M  V30 8928 C 1504.13 -6.86059 -3.24661 0
M  V30 8929 O 1504.34 -5.42934 -3.03695 0
M  V30 8930 C 1505.53 -7.41287 -3.50796 0
M  V30 8931 O 1505.92 -7.27073 -4.86816 0
M  V30 8932 C 1506.41 -6.5273 -2.63741 0
M  V30 8933 C 1505.7 -5.1842 -2.73198 0
M  V30 8934 N 1505.75 -4.38762 -1.4784 0
M  V30 8935 H 1502.91 -8.36899 -2.3252 0
M  V30 8936 H 1502.64 -6.70391 -1.71179 0
M  V30 8937 H 1503.51 -7.03638 -4.13219 0
M  V30 8938 H 1506.16 -4.59931 -3.54016 0
M  V30 8939 H 1506.44 -6.88995 -1.59871 0
M  V30 8940 H 1507.44 -6.4684 -3.0373 0
M  V30 8941 H 1505.6 -8.47002 -3.20749 0
M  V30 8942 P 1507.47 -7.20834 -5.23717 0
M  V30 8943 O 1507.69 -7.7993 -6.57351 0
M  V30 8944 O 1508.26 -7.79328 -4.13004 0
M  V30 8945 O 1507.72 -5.63315 -5.29344 0
M  V30 8946 C 1506.78 -4.80193 -6.01798 0
M  V30 8947 C 1507.51 -3.64202 -6.65911 0
M  V30 8948 O 1507.72 -2.60694 -5.64732 0
M  V30 8949 C 1508.91 -3.93473 -7.1943 0
M  V30 8950 O 1509.3 -3.02071 -8.21205 0
M  V30 8951 C 1509.79 -3.73047 -5.97036 0
M  V30 8952 C 1509.08 -2.58828 -5.25741 0
M  V30 8953 N 1509.13 -2.6801 -3.77422 0
M  V30 8954 C 1509.28 -1.50443 -3.07133 0
M  V30 8955 O 1509.37 -0.419406 -3.61576 0
M  V30 8956 N 1509.32 -1.6403 -1.69677 0
M  V30 8957 C 1509.23 -2.81206 -0.986255 0
M  V30 8958 O 1509.28 -2.80892 0.249754 0
M  V30 8959 C 1509.08 -3.99158 -1.80325 0
M  V30 8960 C 1508.97 -5.29309 -1.06921 0
M  V30 8961 C 1509.03 -3.89779 -3.1476 0
M  V30 8962 H 1506.29 -5.40332 -6.79951 0
M  V30 8963 H 1506.02 -4.41549 -5.32301 0
M  V30 8964 H 1506.89 -3.26331 -7.47797 0
M  V30 8965 H 1509.54 -1.6395 -5.56554 0
M  V30 8966 H 1509.82 -4.63439 -5.3432 0
M  V30 8967 H 1510.82 -3.44728 -6.25838 0
M  V30 8968 H 1508.98 -4.96652 -7.57263 0
M  V30 8969 H 1508.91 -4.80159 -3.74441 0
M  V30 8970 H 1509.94 -5.81459 -1.09608 0
M  V30 8971 H 1508.2 -5.9187 -1.54487 0
M  V30 8972 H 1508.69 -5.10095 -0.0220288 0
M  V30 8973 H 1509.43 -0.798962 -1.16664 0
M  V30 8974 P 1510.85 -2.75334 -8.47391 0
M  V30 8975 O 1511.07 -2.44571 -9.90142 0
M  V30 8976 O 1511.64 -3.87688 -7.92115 0
M  V30 8977 O 1511.1 -1.4459 -7.59357 0
M  V30 8978 C 1510.16 -0.347608 -7.69215 0
M  V30 8979 C 1510.89 0.96767 -7.52806 0
M  V30 8980 O 1511.1 1.21036 -6.1011 0
M  V30 8981 C 1512.29 1.04544 -8.13308 0
M  V30 8982 O 1512.68 2.38311 -8.41922 0
M  V30 8983 C 1513.17 0.491279 -7.02284 0
M  V30 8984 C 1512.46 0.996264 -5.77469 0
M  V30 8985 N 1512.51 0.0501916 -4.62973 0
M  V30 8986 H 1509.67 -0.374722 -8.67691 0
M  V30 8987 H 1509.4 -0.443485 -6.90277 0
M  V30 8988 H 1510.27 1.75537 -7.96793 0
M  V30 8989 P 1514.23 2.75334 -8.47391 0
M  V30 8990 O 1514.45 3.84128 -9.44797 0
M  V30 8991 O 1515.02 1.51947 -8.68712 0
M  V30 8992 O 1514.48 3.29363 -6.99321 0
M  V30 8993 C 1513.54 4.24011 -6.4274 0
M  V30 8994 C 1514.27 5.20775 -5.52155 0
M  V30 8995 O 1514.48 4.56534 -4.22446 0
M  V30 8996 C 1515.67 5.62629 -5.96531 0
M  V30 8997 O 1516.06 6.87667 -5.41053 0
M  V30 8998 C 1516.55 4.52537 -5.39283 0
M  V30 8999 C 1515.84 4.20027 -4.08623 0
M  V30 9000 N 1515.89 2.76189 -3.71603 0
M  V30 9001 H 1513.05 4.797 -7.24003 0
M  V30 9002 H 1512.78 3.69856 -5.84513 0
M  V30 9003 H 1513.65 6.10356 -5.41441 0
M  V30 9004 P 1517.61 7.20834 -5.23717 0
M  V30 9005 O 1517.83 8.66104 -5.38572 0
M  V30 9006 O 1518.4 6.33544 -6.1349 0
M  V30 9007 O 1517.86 6.7751 -3.72168 0
M  V30 9008 C 1516.92 7.20825 -2.7076 0
M  V30 9009 C 1517.65 7.45864 -1.40599 0
M  V30 9010 O 1517.86 6.17651 -0.734225 0
M  V30 9011 C 1519.05 8.05808 -1.51899 0
M  V30 9012 O 1519.44 8.74358 -0.335205 0
M  V30 9013 C 1519.93 6.83093 -1.70294 0
M  V30 9014 C 1519.22 5.79992 -0.836974 0
M  V30 9015 N 1519.27 4.41864 -1.38293 0
M  V30 9016 H 1516.43 8.13644 -3.0377 0
M  V30 9017 H 1516.16 6.42788 -2.55485 0
M  V30 9018 H 1517.03 8.12039 -0.792769 0
M  V30 9019 P 1520.99 8.91 1.48453e-12 0
M  V30 9020 O 1521.21 10.1726 0.733694 0
M  V30 9021 O 1521.78 8.73148 -1.23936 0
M  V30 9022 O 1521.24 7.66872 0.971405 0
M  V30 9023 C 1520.3 7.42309 2.04641 0
M  V30 9024 C 1521.03 6.86059 3.24661 0
M  V30 9025 O 1521.24 5.42847 3.03646 0
M  V30 9026 C 1522.43 7.41196 3.50753 0
M  V30 9027 O 1522.82 7.27073 4.86816 0
M  V30 9028 C 1523.31 6.5273 2.63741 0
M  V30 9029 C 1522.6 5.1842 2.73198 0
M  V30 9030 N 1522.65 4.38762 1.4784 0
M  V30 9031 C 1522.57 4.81605 0.168631 0
M  V30 9032 N 1522.65 3.85454 -0.713363 0
M  V30 9033 C 1522.79 2.6994 0.0566958 0
M  V30 9034 C 1522.92 1.34815 -0.338502 0
M  V30 9035 O 1522.94 0.869548 -1.47125 0
M  V30 9036 N 1523.04 0.496304 0.77465 0
M  V30 9037 C 1523.04 0.908403 2.09122 0
M  V30 9038 N 1523.17 -0.0517805 3.00955 0
M  V30 9039 N 1522.91 2.17875 2.46519 0
M  V30 9040 C 1522.79 3.01988 1.4033 0
M  V30 9041 H 1519.81 8.36803 2.32493 0
M  V30 9042 H 1519.54 6.70197 1.71129 0
M  V30 9043 H 1520.41 7.03551 4.13168 0
M  V30 9044 H 1523.06 4.59498 3.54415 0
M  V30 9045 H 1523.34 6.88898 1.59848 0
M  V30 9046 H 1524.33 6.46749 3.03687 0
M  V30 9047 H 1522.5 8.46908 3.20714 0
M  V30 9048 H 1522.45 5.86405 -0.105564 0
M  V30 9049 H 1523.13 -0.483664 0.597855 0
M  V30 9050 H 1523.17 0.187865 4.0116 0
M  V30 9051 H 1523.27 -1.03585 2.71726 0
M  V30 9052 P 1524.37 7.20834 5.23717 0
M  V30 9053 O 1524.59 7.79853 6.57286 0
M  V30 9054 O 1525.16 7.79239 4.12957 0
M  V30 9055 O 1524.62 5.63315 5.29344 0
M  V30 9056 C 1523.68 4.80255 6.01876 0
M  V30 9057 C 1524.41 3.64202 6.65911 0
M  V30 9058 O 1524.62 2.60694 5.64732 0
M  V30 9059 C 1525.81 3.93473 7.1943 0
M  V30 9060 O 1526.2 3.02071 8.21205 0
M  V30 9061 C 1526.69 3.73047 5.97036 0
M  V30 9062 C 1525.98 2.58828 5.25741 0
M  V30 9063 N 1526.03 2.68068 3.77503 0
M  V30 9064 H 1523.19 5.40332 6.79951 0
M  V30 9065 H 1522.92 4.41613 5.32378 0
M  V30 9066 H 1523.79 3.26331 7.47797 0
M  V30 9067 P 1527.75 2.75334 8.47391 0
M  V30 9068 O 1527.97 2.44619 9.90336 0
M  V30 9069 O 1528.54 3.87776 7.92294 0
M  V30 9070 O 1528 1.4459 7.59357 0
M  V30 9071 C 1527.06 0.347653 7.69315 0
M  V30 9072 C 1527.79 -0.96767 7.52806 0
M  V30 9073 O 1528 -1.21055 6.10208 0
M  V30 9074 C 1529.19 -1.04557 8.13408 0
M  V30 9075 O 1529.58 -2.38311 8.41922 0
M  V30 9076 C 1530.07 -0.491279 7.02284 0
M  V30 9077 C 1529.36 -0.996264 5.77469 0
M  V30 9078 N 1529.41 -0.0501916 4.62973 0
M  V30 9079 C 1529.33 1.31969 4.65661 0
M  V30 9080 N 1529.4 1.86649 3.48119 0
M  V30 9081 C 1529.55 0.792089 2.62406 0
M  V30 9082 C 1529.68 0.705684 1.2207 0
M  V30 9083 N 1529.69 1.76207 0.413762 0
M  V30 9084 N 1529.8 -0.518981 0.685754 0
M  V30 9085 C 1529.79 -1.57595 1.49174 0
M  V30 9086 N 1529.67 -1.62909 2.80066 0
M  V30 9087 C 1529.55 -0.388195 3.3073 0
M  V30 9088 H 1526.57 0.374765 8.67791 0
M  V30 9089 H 1526.3 0.443613 6.90476 0
M  V30 9090 H 1527.17 -1.75559 7.96891 0
M  V30 9091 H 1529.82 -1.94563 5.46818 0
M  V30 9092 H 1530.1 0.608651 7.04676 0
M  V30 9093 H 1531.09 -0.889796 7.09039 0
M  V30 9094 H 1529.26 -0.433128 9.04664 0
M  V30 9095 H 1529.22 1.89246 5.57664 0
M  V30 9096 H 1529.6 2.71005 0.804694 0
M  V30 9097 H 1529.79 1.63189 -0.603768 0
M  V30 9098 H 1529.9 -2.53475 0.997614 0
M  V30 9099 P 1531.13 -2.75334 8.47391 0
M  V30 9100 O 1531.35 -3.84128 9.44797 0
M  V30 9101 O 1531.92 -1.51947 8.68712 0
M  V30 9102 O 1531.38 -3.29363 6.99321 0
M  V30 9103 C 1530.44 -4.24011 6.4274 0
M  V30 9104 C 1531.17 -5.20775 5.52155 0
M  V30 9105 O 1531.38 -4.56534 4.22446 0
M  V30 9106 C 1532.57 -5.62629 5.96531 0
M  V30 9107 O 1532.96 -6.87667 5.41053 0
M  V30 9108 C 1533.45 -4.52537 5.39283 0
M  V30 9109 C 1532.74 -4.20027 4.08623 0
M  V30 9110 N 1532.79 -2.76189 3.71603 0
M  V30 9111 H 1529.95 -4.797 7.24003 0
M  V30 9112 H 1529.68 -3.69856 5.84513 0
M  V30 9113 H 1530.55 -6.10356 5.41441 0
M  V30 9114 P 1534.51 -7.20834 5.23717 0
M  V30 9115 O 1534.73 -8.66104 5.38572 0
M  V30 9116 O 1535.3 -6.33544 6.1349 0
M  V30 9117 O 1534.76 -6.7751 3.72168 0
M  V30 9118 C 1533.82 -7.20825 2.7076 0
M  V30 9119 C 1534.55 -7.45864 1.40599 0
M  V30 9120 O 1534.76 -6.17651 0.734225 0
M  V30 9121 C 1535.95 -8.05808 1.51899 0
M  V30 9122 O 1536.34 -8.74358 0.335205 0
M  V30 9123 C 1536.83 -6.83093 1.70294 0
M  V30 9124 C 1536.12 -5.79992 0.836974 0
M  V30 9125 N 1536.17 -4.41864 1.38293 0
M  V30 9126 H 1533.33 -8.13644 3.0377 0
M  V30 9127 H 1533.06 -6.42788 2.55485 0
M  V30 9128 H 1533.93 -8.12039 0.792769 0
M  V30 9129 P 1537.89 -8.91 -3.75525e-13 0
M  V30 9130 O 1538.11 -10.1736 -0.733766 0
M  V30 9131 O 1538.68 -8.73247 1.2395 0
M  V30 9132 O 1538.14 -7.66872 -0.971405 0
M  V30 9133 C 1537.2 -7.42212 -2.04614 0
M  V30 9134 C 1537.93 -6.86059 -3.24661 0
M  V30 9135 O 1538.14 -5.42847 -3.03646 0
M  V30 9136 C 1539.33 -7.41196 -3.50753 0
M  V30 9137 O 1539.72 -7.27073 -4.86816 0
M  V30 9138 C 1540.21 -6.5273 -2.63741 0
M  V30 9139 C 1539.5 -5.1842 -2.73198 0
M  V30 9140 N 1539.55 -4.38668 -1.47808 0
M  V30 9141 C 1539.7 -3.02239 -1.60048 0
M  V30 9142 O 1539.79 -2.46459 -2.67869 0
M  V30 9143 N 1539.74 -2.32436 -0.408571 0
M  V30 9144 C 1539.65 -2.85471 0.854993 0
M  V30 9145 O 1539.7 -2.12566 1.8531 0
M  V30 9146 C 1539.5 -4.28918 0.887335 0
M  V30 9147 C 1539.39 -4.91066 2.24619 0
M  V30 9148 C 1539.45 -5.00349 -0.255399 0
M  V30 9149 H 1536.71 -8.36803 -2.32493 0
M  V30 9150 H 1536.44 -6.701 -1.71105 0
M  V30 9151 H 1537.31 -7.03551 -4.13168 0
M  V30 9152 H 1539.96 -4.59773 -3.53894 0
M  V30 9153 H 1540.24 -6.88995 -1.59871 0
M  V30 9154 H 1541.23 -6.46749 -3.03687 0
M  V30 9155 H 1539.4 -8.46908 -3.20714 0
M  V30 9156 H 1539.33 -6.08548 -0.206986 0
M  V30 9157 H 1540.36 -5.34836 2.53099 0
M  V30 9158 H 1538.62 -5.69638 2.2291 0
M  V30 9159 H 1539.11 -4.13971 2.98044 0
M  V30 9160 H 1539.85 -1.33211 -0.474216 0
M  V30 9161 P 1541.27 -7.20834 -5.23717 0
M  V30 9162 O 1541.49 -7.79853 -6.57286 0
M  V30 9163 O 1542.06 -7.79239 -4.12957 0
M  V30 9164 O 1541.52 -5.63315 -5.29344 0
M  V30 9165 C 1540.58 -4.80255 -6.01876 0
M  V30 9166 C 1541.31 -3.64202 -6.65911 0
M  V30 9167 O 1541.52 -2.60694 -5.64732 0
M  V30 9168 C 1542.71 -3.93473 -7.1943 0
M  V30 9169 O 1543.1 -3.02071 -8.21205 0
M  V30 9170 C 1543.59 -3.73047 -5.97036 0
M  V30 9171 C 1542.88 -2.58828 -5.25741 0
M  V30 9172 N 1542.93 -2.68068 -3.77503 0
M  V30 9173 C 1542.85 -3.79715 -2.96723 0
M  V30 9174 N 1542.93 -3.5377 -1.68852 0
M  V30 9175 C 1543.07 -2.15054 -1.63254 0
M  V30 9176 C 1543.2 -1.28964 -0.518571 0
M  V30 9177 O 1543.22 -1.56826 0.679156 0
M  V30 9178 N 1543.32 0.0538097 -0.918425 0
M  V30 9179 C 1543.32 0.494275 -2.22578 0
M  V30 9180 N 1543.45 1.81086 -2.40434 0
M  V30 9181 N 1543.19 -0.313645 -3.27502 0
M  V30 9182 C 1543.07 -1.61829 -2.91033 0
M  V30 9183 H 1540.09 -5.40332 -6.79951 0
M  V30 9184 H 1539.82 -4.41613 -5.32378 0
M  V30 9185 H 1540.69 -3.26331 -7.47797 0
M  V30 9186 H 1543.34 -1.63422 -5.56814 0
M  V30 9187 H 1543.62 -4.63374 -5.34244 0
M  V30 9188 H 1544.61 -3.44728 -6.25838 0
M  V30 9189 H 1542.78 -4.96652 -7.57263 0
M  V30 9190 H 1542.73 -4.80617 -3.3614 0
M  V30 9191 H 1543.41 0.742702 -0.199384 0
M  V30 9192 H 1543.45 2.20598 -3.35588 0
M  V30 9193 H 1543.55 2.43518 -1.58945 0
M  V30 9194 P 1544.65 -2.75334 -8.47391 0
M  V30 9195 O 1544.87 -2.44571 -9.90142 0
M  V30 9196 O 1545.44 -3.87688 -7.92115 0
M  V30 9197 O 1544.9 -1.4459 -7.59357 0
M  V30 9198 C 1543.96 -0.347608 -7.69215 0
M  V30 9199 C 1544.69 0.96767 -7.52806 0
M  V30 9200 O 1544.9 1.21036 -6.1011 0
M  V30 9201 C 1546.09 1.04544 -8.13308 0
M  V30 9202 O 1546.48 2.38311 -8.41922 0
M  V30 9203 C 1546.97 0.491279 -7.02284 0
M  V30 9204 C 1546.26 0.996264 -5.77469 0
M  V30 9205 N 1546.31 0.0501916 -4.62973 0
M  V30 9206 H 1543.47 -0.374722 -8.67691 0
M  V30 9207 H 1543.2 -0.443485 -6.90277 0
M  V30 9208 H 1544.07 1.75537 -7.96793 0
M  V30 9209 P 1548.03 2.75334 -8.47391 0
M  V30 9210 O 1548.25 3.84128 -9.44797 0
M  V30 9211 O 1548.82 1.51947 -8.68712 0
M  V30 9212 O 1548.28 3.29363 -6.99321 0
M  V30 9213 C 1547.34 4.24011 -6.4274 0
M  V30 9214 C 1548.07 5.20775 -5.52155 0
M  V30 9215 O 1548.28 4.56534 -4.22446 0
M  V30 9216 C 1549.47 5.62629 -5.96531 0
M  V30 9217 O 1549.86 6.87667 -5.41053 0
M  V30 9218 C 1550.35 4.52537 -5.39283 0
M  V30 9219 C 1549.64 4.20027 -4.08623 0
M  V30 9220 N 1549.69 2.76189 -3.71603 0
M  V30 9221 H 1546.85 4.797 -7.24003 0
M  V30 9222 H 1546.58 3.69856 -5.84513 0
M  V30 9223 H 1547.45 6.10356 -5.41441 0
M  V30 9224 P 1551.41 7.20834 -5.23717 0
M  V30 9225 O 1551.63 8.66104 -5.38572 0
M  V30 9226 O 1552.2 6.33544 -6.1349 0
M  V30 9227 O 1551.66 6.7751 -3.72168 0
M  V30 9228 C 1550.72 7.20825 -2.7076 0
M  V30 9229 C 1551.45 7.45864 -1.40599 0
M  V30 9230 O 1551.66 6.17651 -0.734225 0
M  V30 9231 C 1552.85 8.05808 -1.51899 0
M  V30 9232 O 1553.24 8.74358 -0.335205 0
M  V30 9233 C 1553.73 6.83093 -1.70294 0
M  V30 9234 C 1553.02 5.79992 -0.836974 0
M  V30 9235 N 1553.07 4.41864 -1.38293 0
M  V30 9236 H 1550.23 8.13644 -3.0377 0
M  V30 9237 H 1549.96 6.42788 -2.55485 0
M  V30 9238 H 1550.83 8.12039 -0.792769 0
M  V30 9239 P 1554.79 8.91 -7.3348e-13 0
M  V30 9240 O 1555.01 10.1726 0.733694 0
M  V30 9241 O 1555.58 8.73148 -1.23936 0
M  V30 9242 O 1555.04 7.66872 0.971405 0
M  V30 9243 C 1554.1 7.42309 2.04641 0
M  V30 9244 C 1554.83 6.86059 3.24661 0
M  V30 9245 O 1555.04 5.42847 3.03646 0
M  V30 9246 C 1556.23 7.41196 3.50753 0
M  V30 9247 O 1556.62 7.27073 4.86816 0
M  V30 9248 C 1557.11 6.5273 2.63741 0
M  V30 9249 C 1556.4 5.1842 2.73198 0
M  V30 9250 N 1556.45 4.38762 1.4784 0
M  V30 9251 H 1553.61 8.36803 2.32493 0
M  V30 9252 H 1553.34 6.70197 1.71129 0
M  V30 9253 H 1554.21 7.03551 4.13168 0
M  V30 9254 P 1558.17 7.20834 5.23717 0
M  V30 9255 O 1558.39 7.79853 6.57286 0
M  V30 9256 O 1558.96 7.79239 4.12957 0
M  V30 9257 O 1558.42 5.63315 5.29344 0
M  V30 9258 C 1557.48 4.80255 6.01876 0
M  V30 9259 C 1558.21 3.64202 6.65911 0
M  V30 9260 O 1558.42 2.60694 5.64732 0
M  V30 9261 C 1559.61 3.93473 7.1943 0
M  V30 9262 O 1560 3.02071 8.21205 0
M  V30 9263 C 1560.49 3.73047 5.97036 0
M  V30 9264 C 1559.78 2.58828 5.25741 0
M  V30 9265 N 1559.83 2.68068 3.77503 0
M  V30 9266 H 1556.99 5.40332 6.79951 0
M  V30 9267 H 1556.72 4.41613 5.32378 0
M  V30 9268 H 1557.59 3.26331 7.47797 0
M  V30 9269 P 1561.55 2.75334 8.47391 0
M  V30 9270 O 1561.77 2.44571 9.90142 0
M  V30 9271 O 1562.34 3.87688 7.92115 0
M  V30 9272 O 1561.8 1.4459 7.59357 0
M  V30 9273 C 1560.86 0.347608 7.69215 0
M  V30 9274 C 1561.59 -0.96767 7.52806 0
M  V30 9275 O 1561.8 -1.21036 6.1011 0
M  V30 9276 C 1562.99 -1.04544 8.13308 0
M  V30 9277 O 1563.38 -2.38311 8.41922 0
M  V30 9278 C 1563.87 -0.491279 7.02284 0
M  V30 9279 C 1563.16 -0.996264 5.77469 0
M  V30 9280 N 1563.21 -0.0501916 4.62973 0
M  V30 9281 H 1560.37 0.374722 8.67691 0
M  V30 9282 H 1560.1 0.443485 6.90277 0
M  V30 9283 H 1560.97 -1.75537 7.96793 0
M  V30 9284 P 1564.93 -2.75334 8.47391 0
M  V30 9285 O 1565.15 -3.84166 9.4489 0
M  V30 9286 O 1565.72 -1.51964 8.6881 0
M  V30 9287 O 1565.18 -3.29363 6.99321 0
M  V30 9288 C 1564.24 -4.24011 6.4274 0
M  V30 9289 C 1564.97 -5.20775 5.52155 0
M  V30 9290 O 1565.18 -4.56534 4.22446 0
M  V30 9291 C 1566.37 -5.62629 5.96531 0
M  V30 9292 O 1566.76 -6.87667 5.41053 0
M  V30 9293 C 1567.25 -4.52537 5.39283 0
M  V30 9294 C 1566.54 -4.20027 4.08623 0
M  V30 9295 N 1566.59 -2.7613 3.71522 0
M  V30 9296 C 1566.74 -2.43702 2.37085 0
M  V30 9297 O 1566.83 -3.3531 1.54039 0
M  V30 9298 N 1566.79 -0.951103 2.10621 0
M  V30 9299 C 1566.69 -0.165021 2.93537 0
M  V30 9300 N 1566.74 1.09723 2.53253 0
M  V30 9301 C 1566.54 -0.469576 4.32458 0
M  V30 9302 C 1566.49 -1.78658 4.65921 0
M  V30 9303 H 1563.75 -4.79645 7.23919 0
M  V30 9304 H 1563.48 -3.69802 5.84429 0
M  V30 9305 H 1564.35 -6.10431 5.41508 0
M  V30 9306 H 1567 -4.78733 3.27967 0
M  V30 9307 H 1567.28 -3.64957 6.05871 0
M  V30 9308 H 1568.27 -4.8868 5.2125 0
M  V30 9309 H 1566.44 -5.66726 7.06352 0
M  V30 9310 H 1566.37 -2.06987 5.70299 0
M  V30 9311 H 1566.47 0.314383 5.07728 0
M  V30 9312 H 1566.86 1.31363 1.5319 0
M  V30 9313 H 1566.66 1.85978 3.21943 0
M  V30 9314 P 1568.31 -7.20834 5.23717 0
M  V30 9315 O 1568.53 -8.66274 5.38678 0
M  V30 9316 O 1569.1 -6.33687 6.13629 0
M  V30 9317 O 1568.56 -6.7751 3.72168 0
M  V30 9318 C 1567.62 -7.20919 2.70795 0
M  V30 9319 C 1568.35 -7.45864 1.40599 0
M  V30 9320 O 1568.56 -6.17751 0.734343 0
M  V30 9321 C 1569.75 -8.05906 1.51917 0
M  V30 9322 O 1570.14 -8.74358 0.335205 0
M  V30 9323 C 1570.63 -6.83093 1.70294 0
M  V30 9324 C 1569.92 -5.79992 0.836974 0
M  V30 9325 N 1569.97 -4.41864 1.38293 0
M  V30 9326 H 1567.13 -8.13738 3.03804 0
M  V30 9327 H 1566.86 -6.42974 2.55559 0
M  V30 9328 H 1567.73 -8.12139 0.792866 0
M  V30 9329 H 1570.38 -5.80178 -0.160643 0
M  V30 9330 H 1570.66 -6.51379 2.75643 0
M  V30 9331 H 1571.65 -7.01832 1.3448 0
M  V30 9332 H 1569.82 -8.73771 2.38364 0
M  V30 9333 P 1571.69 -8.91 1.84249e-12 0
M  V30 9334 O 1571.91 -10.1726 -0.733694 0
M  V30 9335 O 1572.48 -8.73148 1.23936 0
M  V30 9336 O 1571.94 -7.66872 -0.971405 0
M  V30 9337 C 1571 -7.42309 -2.04641 0
M  V30 9338 C 1571.73 -6.86059 -3.24661 0
M  V30 9339 O 1571.94 -5.42847 -3.03646 0
M  V30 9340 C 1573.13 -7.41196 -3.50753 0
M  V30 9341 O 1573.52 -7.27073 -4.86816 0
M  V30 9342 C 1574.01 -6.5273 -2.63741 0
M  V30 9343 C 1573.3 -5.1842 -2.73198 0
M  V30 9344 N 1573.35 -4.38762 -1.4784 0
M  V30 9345 H 1570.51 -8.36803 -2.32493 0
M  V30 9346 H 1570.24 -6.70197 -1.71129 0
M  V30 9347 H 1571.11 -7.03551 -4.13168 0
M  V30 9348 P 1575.07 -7.20834 -5.23717 0
M  V30 9349 O 1575.29 -7.79853 -6.57286 0
M  V30 9350 O 1575.86 -7.79239 -4.12957 0
M  V30 9351 O 1575.32 -5.63315 -5.29344 0
M  V30 9352 C 1574.38 -4.80255 -6.01876 0
M  V30 9353 C 1575.11 -3.64202 -6.65911 0
M  V30 9354 O 1575.32 -2.60694 -5.64732 0
M  V30 9355 C 1576.51 -3.93473 -7.1943 0
M  V30 9356 O 1576.9 -3.02071 -8.21205 0
M  V30 9357 C 1577.39 -3.73047 -5.97036 0
M  V30 9358 C 1576.68 -2.58828 -5.25741 0
M  V30 9359 N 1576.73 -2.68068 -3.77503 0
M  V30 9360 H 1573.89 -5.40332 -6.79951 0
M  V30 9361 H 1573.62 -4.41613 -5.32378 0
M  V30 9362 H 1574.49 -3.26331 -7.47797 0
M  V30 9363 P 1578.45 -2.75334 -8.47391 0
M  V30 9364 O 1578.67 -2.44571 -9.90142 0
M  V30 9365 O 1579.24 -3.87688 -7.92115 0
M  V30 9366 O 1578.7 -1.4459 -7.59357 0
M  V30 9367 C 1577.76 -0.347608 -7.69215 0
M  V30 9368 C 1578.49 0.96767 -7.52806 0
M  V30 9369 O 1578.7 1.21036 -6.1011 0
M  V30 9370 C 1579.89 1.04544 -8.13308 0
M  V30 9371 O 1580.28 2.38311 -8.41922 0
M  V30 9372 C 1580.77 0.491279 -7.02284 0
M  V30 9373 C 1580.06 0.996264 -5.77469 0
M  V30 9374 N 1580.11 0.0501916 -4.62973 0
M  V30 9375 H 1577.27 -0.374722 -8.67691 0
M  V30 9376 H 1577 -0.443485 -6.90277 0
M  V30 9377 H 1577.87 1.75537 -7.96793 0
M  V30 9378 P 1581.83 2.75334 -8.47391 0
M  V30 9379 O 1582.05 3.84128 -9.44797 0
M  V30 9380 O 1582.62 1.51947 -8.68712 0
M  V30 9381 O 1582.08 3.29363 -6.99321 0
M  V30 9382 C 1581.14 4.24011 -6.4274 0
M  V30 9383 C 1581.87 5.20775 -5.52155 0
M  V30 9384 O 1582.08 4.56534 -4.22446 0
M  V30 9385 C 1583.27 5.62629 -5.96531 0
M  V30 9386 O 1583.66 6.87667 -5.41053 0
M  V30 9387 C 1584.15 4.52537 -5.39283 0
M  V30 9388 C 1583.44 4.20027 -4.08623 0
M  V30 9389 N 1583.49 2.76189 -3.71603 0
M  V30 9390 H 1580.65 4.797 -7.24003 0
M  V30 9391 H 1580.38 3.69856 -5.84513 0
M  V30 9392 H 1581.25 6.10356 -5.41441 0
M  V30 9393 P 1585.21 7.20834 -5.23717 0
M  V30 9394 O 1585.43 8.66104 -5.38572 0
M  V30 9395 O 1586 6.33544 -6.1349 0
M  V30 9396 O 1585.46 6.7751 -3.72168 0
M  V30 9397 C 1584.52 7.20825 -2.7076 0
M  V30 9398 C 1585.25 7.45864 -1.40599 0
M  V30 9399 O 1585.46 6.17651 -0.734225 0
M  V30 9400 C 1586.65 8.05808 -1.51899 0
M  V30 9401 O 1587.04 8.74358 -0.335205 0
M  V30 9402 C 1587.53 6.83093 -1.70294 0
M  V30 9403 C 1586.82 5.79992 -0.836974 0
M  V30 9404 N 1586.87 4.41864 -1.38293 0
M  V30 9405 H 1584.03 8.13644 -3.0377 0
M  V30 9406 H 1583.76 6.42788 -2.55485 0
M  V30 9407 H 1584.63 8.12039 -0.792769 0
M  V30 9408 P 1588.59 8.91 -2.95149e-12 0
M  V30 9409 O 1588.81 10.1726 0.733694 0
M  V30 9410 O 1589.38 8.73148 -1.23936 0
M  V30 9411 O 1588.84 7.66872 0.971405 0
M  V30 9412 C 1587.9 7.42309 2.04641 0
M  V30 9413 C 1588.63 6.86059 3.24661 0
M  V30 9414 O 1588.84 5.42847 3.03646 0
M  V30 9415 C 1590.03 7.41196 3.50753 0
M  V30 9416 O 1590.42 7.27073 4.86816 0
M  V30 9417 C 1590.91 6.5273 2.63741 0
M  V30 9418 C 1590.2 5.1842 2.73198 0
M  V30 9419 N 1590.25 4.38762 1.4784 0
M  V30 9420 H 1587.41 8.36803 2.32493 0
M  V30 9421 H 1587.14 6.70197 1.71129 0
M  V30 9422 H 1588.01 7.03551 4.13168 0
M  V30 9423 P 1591.97 7.20834 5.23717 0
M  V30 9424 O 1592.19 7.79853 6.57286 0
M  V30 9425 O 1592.76 7.79239 4.12957 0
M  V30 9426 O 1592.22 5.63315 5.29344 0
M  V30 9427 C 1591.28 4.80255 6.01876 0
M  V30 9428 C 1592.01 3.64202 6.65911 0
M  V30 9429 O 1592.22 2.60694 5.64732 0
M  V30 9430 C 1593.41 3.93473 7.1943 0
M  V30 9431 O 1593.8 3.02071 8.21205 0
M  V30 9432 C 1594.29 3.73047 5.97036 0
M  V30 9433 C 1593.58 2.58828 5.25741 0
M  V30 9434 N 1593.63 2.68068 3.77503 0
M  V30 9435 C 1593.55 3.79715 2.96723 0
M  V30 9436 N 1593.63 3.5377 1.68852 0
M  V30 9437 C 1593.77 2.15054 1.63254 0
M  V30 9438 C 1593.9 1.28964 0.518571 0
M  V30 9439 O 1593.92 1.56826 -0.679156 0
M  V30 9440 N 1594.02 -0.0538097 0.918425 0
M  V30 9441 C 1594.02 -0.494275 2.22578 0
M  V30 9442 N 1594.15 -1.81086 2.40434 0
M  V30 9443 N 1593.89 0.313645 3.27502 0
M  V30 9444 C 1593.77 1.61829 2.91033 0
M  V30 9445 H 1590.79 5.40332 6.79951 0
M  V30 9446 H 1590.52 4.41613 5.32378 0
M  V30 9447 H 1591.39 3.26331 7.47797 0
M  V30 9448 H 1594.04 1.63422 5.56814 0
M  V30 9449 H 1594.32 4.63374 5.34244 0
M  V30 9450 H 1595.31 3.44728 6.25838 0
M  V30 9451 H 1593.48 4.96652 7.57263 0
M  V30 9452 H 1593.43 4.80617 3.3614 0
M  V30 9453 H 1594.11 -0.742702 0.199384 0
M  V30 9454 H 1594.15 -2.20598 3.35588 0
M  V30 9455 H 1594.25 -2.43518 1.58945 0
M  V30 9456 P 1595.35 2.75334 8.47391 0
M  V30 9457 O 1595.57 2.44571 9.90142 0
M  V30 9458 O 1596.14 3.87688 7.92115 0
M  V30 9459 O 1595.6 1.4459 7.59357 0
M  V30 9460 C 1594.66 0.347608 7.69215 0
M  V30 9461 C 1595.39 -0.96767 7.52806 0
M  V30 9462 O 1595.6 -1.21036 6.1011 0
M  V30 9463 C 1596.79 -1.04544 8.13308 0
M  V30 9464 O 1597.18 -2.38311 8.41922 0
M  V30 9465 C 1597.67 -0.491279 7.02284 0
M  V30 9466 C 1596.96 -0.996264 5.77469 0
M  V30 9467 N 1597.01 -0.0501916 4.62973 0
M  V30 9468 H 1594.17 0.374722 8.67691 0
M  V30 9469 H 1593.9 0.443485 6.90277 0
M  V30 9470 H 1594.77 -1.75537 7.96793 0
M  V30 9471 P 1598.73 -2.75334 8.47391 0
M  V30 9472 O 1598.95 -3.84204 9.44982 0
M  V30 9473 O 1599.52 -1.51982 8.68909 0
M  V30 9474 O 1598.98 -3.29363 6.99321 0
M  V30 9475 C 1598.04 -4.24066 6.42823 0
M  V30 9476 C 1598.77 -5.20775 5.52155 0
M  V30 9477 O 1598.98 -4.56607 4.22514 0
M  V30 9478 C 1600.17 -5.62697 5.96604 0
M  V30 9479 O 1600.56 -6.87667 5.41053 0
M  V30 9480 C 1601.05 -4.52537 5.39283 0
M  V30 9481 C 1600.34 -4.20027 4.08623 0
M  V30 9482 N 1600.39 -2.76189 3.71603 0
M  V30 9483 C 1600.31 -1.66944 4.54297 0
M  V30 9484 N 1600.38 -0.536169 3.91344 0
M  V30 9485 C 1600.53 -0.901569 2.58849 0
M  V30 9486 C 1600.66 -0.146599 1.40236 0
M  V30 9487 N 1600.67 1.18234 1.37046 0
M  V30 9488 N 1600.78 -0.822941 0.249738 0
M  V30 9489 C 1600.77 -2.15179 0.280525 0
M  V30 9490 N 1600.65 -2.96414 1.30822 0
M  V30 9491 C 1600.53 -2.25804 2.44748 0
M  V30 9492 H 1597.55 -4.79756 7.24086 0
M  V30 9493 H 1597.28 -3.69963 5.84682 0
M  V30 9494 H 1598.15 -6.10431 5.41508 0
M  V30 9495 H 1600.8 -4.78816 3.28024 0
M  V30 9496 H 1601.08 -3.64957 6.05871 0
M  V30 9497 H 1602.07 -4.88748 5.21323 0
M  V30 9498 H 1600.24 -5.66789 7.0643 0
M  V30 9499 H 1600.2 -1.74684 5.62396 0
M  V30 9500 H 1600.58 1.71949 2.24394 0
M  V30 9501 H 1600.77 1.67511 0.470742 0
M  V30 9502 H 1600.88 -2.63704 -0.6828 0
M  V30 9503 P 1602.11 -7.20834 5.23717 0
M  V30 9504 O 1602.33 -8.66274 5.38678 0
M  V30 9505 O 1602.9 -6.33687 6.13629 0
M  V30 9506 O 1602.36 -6.7751 3.72168 0
M  V30 9507 C 1601.42 -7.20919 2.70795 0
M  V30 9508 C 1602.15 -7.45864 1.40599 0
M  V30 9509 O 1602.36 -6.17751 0.734343 0
M  V30 9510 C 1603.55 -8.05906 1.51917 0
M  V30 9511 O 1603.94 -8.74358 0.335205 0
M  V30 9512 C 1604.43 -6.83093 1.70294 0
M  V30 9513 C 1603.72 -5.79992 0.836974 0
M  V30 9514 N 1603.77 -4.41864 1.38293 0
M  V30 9515 H 1600.93 -8.13738 3.03804 0
M  V30 9516 H 1600.66 -6.42974 2.55559 0
M  V30 9517 H 1601.53 -8.12139 0.792866 0
M  V30 9518 H 1604.18 -5.80178 -0.160643 0
M  V30 9519 H 1604.46 -6.51379 2.75643 0
M  V30 9520 H 1605.45 -7.01832 1.3448 0
M  V30 9521 H 1603.62 -8.73771 2.38364 0
M  V30 9522 P 1605.49 -8.91 4.0605e-12 0
M  V30 9523 O 1605.71 -10.1726 -0.733694 0
M  V30 9524 O 1606.28 -8.73148 1.23936 0
M  V30 9525 O 1605.74 -7.66872 -0.971405 0
M  V30 9526 C 1604.8 -7.42309 -2.04641 0
M  V30 9527 C 1605.53 -6.86059 -3.24661 0
M  V30 9528 O 1605.74 -5.42847 -3.03646 0
M  V30 9529 C 1606.93 -7.41196 -3.50753 0
M  V30 9530 O 1607.32 -7.27073 -4.86816 0
M  V30 9531 C 1607.81 -6.5273 -2.63741 0
M  V30 9532 C 1607.1 -5.1842 -2.73198 0
M  V30 9533 N 1607.15 -4.38762 -1.4784 0
M  V30 9534 H 1604.31 -8.36803 -2.32493 0
M  V30 9535 H 1604.04 -6.70197 -1.71129 0
M  V30 9536 H 1604.91 -7.03551 -4.13168 0
M  V30 9537 P 1608.87 -7.20834 -5.23717 0
M  V30 9538 O 1609.09 -7.79853 -6.57286 0
M  V30 9539 O 1609.66 -7.79239 -4.12957 0
M  V30 9540 O 1609.12 -5.63315 -5.29344 0
M  V30 9541 C 1608.18 -4.80255 -6.01876 0
M  V30 9542 C 1608.91 -3.64202 -6.65911 0
M  V30 9543 O 1609.12 -2.60694 -5.64732 0
M  V30 9544 C 1610.31 -3.93473 -7.1943 0
M  V30 9545 O 1610.7 -3.02071 -8.21205 0
M  V30 9546 C 1611.19 -3.73047 -5.97036 0
M  V30 9547 C 1610.48 -2.58828 -5.25741 0
M  V30 9548 N 1610.53 -2.68068 -3.77503 0
M  V30 9549 H 1607.69 -5.40332 -6.79951 0
M  V30 9550 H 1607.42 -4.41613 -5.32378 0
M  V30 9551 H 1608.29 -3.26331 -7.47797 0
M  V30 9552 P 1612.25 -2.75334 -8.47391 0
M  V30 9553 O 1612.47 -2.44571 -9.90142 0
M  V30 9554 O 1613.04 -3.87688 -7.92115 0
M  V30 9555 O 1612.5 -1.4459 -7.59357 0
M  V30 9556 C 1611.56 -0.347608 -7.69215 0
M  V30 9557 C 1612.29 0.96767 -7.52806 0
M  V30 9558 O 1612.5 1.21036 -6.1011 0
M  V30 9559 C 1613.69 1.04544 -8.13308 0
M  V30 9560 O 1614.08 2.38311 -8.41922 0
M  V30 9561 C 1614.57 0.491279 -7.02284 0
M  V30 9562 C 1613.86 0.996264 -5.77469 0
M  V30 9563 N 1613.91 0.0501916 -4.62973 0
M  V30 9564 C 1613.83 -1.32786 -4.63244 0
M  V30 9565 N 1613.91 -1.86957 -3.44545 0
M  V30 9566 C 1614.05 -0.780241 -2.58481 0
M  V30 9567 C 1614.18 -0.738536 -1.17757 0
M  V30 9568 O 1614.2 -1.66794 -0.372349 0
M  V30 9569 N 1614.3 0.58337 -0.711393 0
M  V30 9570 C 1614.3 1.70816 -1.51017 0
M  V30 9571 N 1614.43 2.87826 -0.880757 0
M  V30 9572 N 1614.17 1.67126 -2.8339 0
M  V30 9573 C 1614.05 0.401421 -3.30572 0
M  V30 9574 H 1611.07 -0.374722 -8.67691 0
M  V30 9575 H 1610.8 -0.443485 -6.90277 0
M  V30 9576 H 1611.67 1.75537 -7.96793 0
M  V30 9577 H 1614.32 1.95076 -5.46529 0
M  V30 9578 H 1614.6 -0.608565 -7.04577 0
M  V30 9579 H 1615.59 0.889672 -7.08939 0
M  V30 9580 H 1613.76 0.43308 -9.04564 0
M  V30 9581 H 1613.71 -1.91249 -5.54442 0
M  V30 9582 H 1614.39 0.718054 0.275244 0
M  V30 9583 H 1614.43 3.75721 -1.41832 0
M  V30 9584 H 1614.53 2.90436 0.145468 0
M  V30 9585 P 1615.63 2.75334 -8.47391 0
M  V30 9586 O 1615.85 3.84128 -9.44797 0
M  V30 9587 O 1616.42 1.51947 -8.68712 0
M  V30 9588 O 1615.88 3.29363 -6.99321 0
M  V30 9589 C 1614.94 4.24011 -6.4274 0
M  V30 9590 C 1615.67 5.20775 -5.52155 0
M  V30 9591 O 1615.88 4.56534 -4.22446 0
M  V30 9592 C 1617.07 5.62629 -5.96531 0
M  V30 9593 O 1617.46 6.87667 -5.41053 0
M  V30 9594 C 1617.95 4.52537 -5.39283 0
M  V30 9595 C 1617.24 4.20027 -4.08623 0
M  V30 9596 N 1617.29 2.76189 -3.71603 0
M  V30 9597 C 1617.21 1.64862 -4.52822 0
M  V30 9598 N 1617.29 0.512671 -3.88633 0
M  V30 9599 C 1617.43 0.888083 -2.54977 0
M  V30 9600 C 1617.56 0.094668 -1.38677 0
M  V30 9601 N 1617.68 0.890102 -0.232633 0
M  V30 9602 C 1617.68 2.26958 -0.21772 0
M  V30 9603 N 1617.81 2.84626 0.97925 0
M  V30 9604 N 1617.55 3.0178 -1.31033 0
M  V30 9605 C 1617.43 2.26781 -2.43843 0
M  V30 9606 H 1614.45 4.797 -7.24003 0
M  V30 9607 H 1614.18 3.69856 -5.84513 0
M  V30 9608 H 1615.05 6.10356 -5.41441 0
M  V30 9609 P 1619.01 7.20834 -5.23717 0
M  V30 9610 O 1619.23 8.66104 -5.38572 0
M  V30 9611 O 1619.8 6.33544 -6.1349 0
M  V30 9612 O 1619.26 6.7751 -3.72168 0
M  V30 9613 C 1618.32 7.20825 -2.7076 0
M  V30 9614 C 1619.05 7.45864 -1.40599 0
M  V30 9615 O 1619.26 6.17651 -0.734225 0
M  V30 9616 C 1620.45 8.05808 -1.51899 0
M  V30 9617 O 1620.84 8.74358 -0.335205 0
M  V30 9618 C 1621.33 6.83093 -1.70294 0
M  V30 9619 C 1620.62 5.79992 -0.836974 0
M  V30 9620 N 1620.67 4.41864 -1.38293 0
M  V30 9621 H 1617.83 8.13644 -3.0377 0
M  V30 9622 H 1617.56 6.42788 -2.55485 0
M  V30 9623 H 1618.43 8.12039 -0.792769 0
M  V30 9624 P 1622.39 8.91 -5.1695e-12 0
M  V30 9625 O 1622.61 10.1726 0.733694 0
M  V30 9626 O 1623.18 8.73148 -1.23936 0
M  V30 9627 O 1622.64 7.66872 0.971405 0
M  V30 9628 C 1621.7 7.42309 2.04641 0
M  V30 9629 C 1622.43 6.86059 3.24661 0
M  V30 9630 O 1622.64 5.42847 3.03646 0
M  V30 9631 C 1623.83 7.41196 3.50753 0
M  V30 9632 O 1624.22 7.27073 4.86816 0
M  V30 9633 C 1624.71 6.5273 2.63741 0
M  V30 9634 C 1624 5.1842 2.73198 0
M  V30 9635 N 1624.05 4.38762 1.4784 0
M  V30 9636 H 1621.21 8.36803 2.32493 0
M  V30 9637 H 1620.94 6.70197 1.71129 0
M  V30 9638 H 1621.81 7.03551 4.13168 0
M  V30 9639 P 1625.77 7.20834 5.23717 0
M  V30 9640 O 1625.99 7.79853 6.57286 0
M  V30 9641 O 1626.56 7.79239 4.12957 0
M  V30 9642 O 1626.02 5.63315 5.29344 0
M  V30 9643 C 1625.08 4.80255 6.01876 0
M  V30 9644 C 1625.81 3.64202 6.65911 0
M  V30 9645 O 1626.02 2.60694 5.64732 0
M  V30 9646 C 1627.21 3.93473 7.1943 0
M  V30 9647 O 1627.6 3.02071 8.21205 0
M  V30 9648 C 1628.09 3.73047 5.97036 0
M  V30 9649 C 1627.38 2.58828 5.25741 0
M  V30 9650 N 1627.43 2.68068 3.77503 0
M  V30 9651 H 1624.59 5.40332 6.79951 0
M  V30 9652 H 1624.32 4.41613 5.32378 0
M  V30 9653 H 1625.19 3.26331 7.47797 0
M  V30 9654 P 1629.15 2.75334 8.47391 0
M  V30 9655 O 1629.37 2.44571 9.90142 0
M  V30 9656 O 1629.94 3.87688 7.92115 0
M  V30 9657 O 1629.4 1.4459 7.59357 0
M  V30 9658 C 1628.46 0.347608 7.69215 0
M  V30 9659 C 1629.19 -0.96767 7.52806 0
M  V30 9660 O 1629.4 -1.21036 6.1011 0
M  V30 9661 C 1630.59 -1.04544 8.13308 0
M  V30 9662 O 1630.98 -2.38311 8.41922 0
M  V30 9663 C 1631.47 -0.491279 7.02284 0
M  V30 9664 C 1630.76 -0.996264 5.77469 0
M  V30 9665 N 1630.81 -0.0501916 4.62973 0
M  V30 9666 H 1627.97 0.374722 8.67691 0
M  V30 9667 H 1627.7 0.443485 6.90277 0
M  V30 9668 H 1628.57 -1.75537 7.96793 0
M  V30 9669 P 1632.53 -2.75334 8.47391 0
M  V30 9670 O 1632.75 -3.84166 9.4489 0
M  V30 9671 O 1633.32 -1.51964 8.6881 0
M  V30 9672 O 1632.78 -3.29363 6.99321 0
M  V30 9673 C 1631.84 -4.23956 6.42656 0
M  V30 9674 C 1632.57 -5.20775 5.52155 0
M  V30 9675 O 1632.78 -4.56534 4.22446 0
M  V30 9676 C 1633.97 -5.62629 5.96531 0
M  V30 9677 O 1634.36 -6.87667 5.41053 0
M  V30 9678 C 1634.85 -4.52537 5.39283 0
M  V30 9679 C 1634.14 -4.20027 4.08623 0
M  V30 9680 N 1634.19 -2.7613 3.71522 0
M  V30 9681 C 1634.34 -2.45612 2.37989 0
M  V30 9682 O 1634.43 -3.30919 1.51621 0
M  V30 9683 N 1634.38 -1.10684 2.08435 0
M  V30 9684 C 1634.29 -0.0690084 2.9792 0
M  V30 9685 O 1634.34 1.10553 2.59426 0
M  V30 9686 C 1634.14 -0.481522 4.35345 0
M  V30 9687 C 1634.03 0.618778 5.36443 0
M  V30 9688 C 1634.09 -1.78906 4.67968 0
M  V30 9689 H 1631.35 -4.797 7.24003 0
M  V30 9690 H 1631.08 -3.69802 5.84429 0
M  V30 9691 H 1631.95 -6.10356 5.41441 0
M  V30 9692 H 1634.6 -4.78651 3.27911 0
M  V30 9693 H 1634.88 -3.64957 6.05871 0
M  V30 9694 H 1635.87 -4.8868 5.2125 0
M  V30 9695 H 1634.04 -5.66726 7.06352 0
M  V30 9696 H 1633.97 -2.07737 5.72367 0
M  V30 9697 H 1635 0.754375 5.86871 0
M  V30 9698 H 1633.26 0.359721 6.10641 0
M  V30 9699 H 1633.75 1.55533 4.8581 0
M  V30 9700 H 1634.49 -0.862651 1.12037 0
M  V30 9701 P 1635.91 -7.20834 5.23717 0
M  V30 9702 O 1636.13 -8.66104 5.38572 0
M  V30 9703 O 1636.7 -6.33544 6.1349 0
M  V30 9704 O 1636.16 -6.7751 3.72168 0
M  V30 9705 C 1635.22 -7.20825 2.7076 0
M  V30 9706 C 1635.95 -7.45864 1.40599 0
M  V30 9707 O 1636.16 -6.17651 0.734225 0
M  V30 9708 C 1637.35 -8.05808 1.51899 0
M  V30 9709 O 1637.74 -8.74358 0.335205 0
M  V30 9710 C 1638.23 -6.83093 1.70294 0
M  V30 9711 C 1637.52 -5.79992 0.836974 0
M  V30 9712 N 1637.57 -4.41864 1.38293 0
M  V30 9713 H 1634.73 -8.13644 3.0377 0
M  V30 9714 H 1634.46 -6.42788 2.55485 0
M  V30 9715 H 1635.33 -8.12039 0.792769 0
M  V30 9716 P 1639.29 -8.91 6.2785e-12 0
M  V30 9717 O 1639.51 -10.1726 -0.733694 0
M  V30 9718 O 1640.08 -8.73148 1.23936 0
M  V30 9719 O 1639.54 -7.66872 -0.971405 0
M  V30 9720 C 1638.6 -7.42309 -2.04641 0
M  V30 9721 C 1639.33 -6.86059 -3.24661 0
M  V30 9722 O 1639.54 -5.42847 -3.03646 0
M  V30 9723 C 1640.73 -7.41196 -3.50753 0
M  V30 9724 O 1641.12 -7.27073 -4.86816 0
M  V30 9725 C 1641.61 -6.5273 -2.63741 0
M  V30 9726 C 1640.9 -5.1842 -2.73198 0
M  V30 9727 N 1640.95 -4.38762 -1.4784 0
M  V30 9728 H 1638.11 -8.36803 -2.32493 0
M  V30 9729 H 1637.84 -6.70197 -1.71129 0
M  V30 9730 H 1638.71 -7.03551 -4.13168 0
M  V30 9731 P 1642.67 -7.20834 -5.23717 0
M  V30 9732 O 1642.89 -7.79853 -6.57286 0
M  V30 9733 O 1643.46 -7.79239 -4.12957 0
M  V30 9734 O 1642.92 -5.63315 -5.29344 0
M  V30 9735 C 1641.98 -4.80255 -6.01876 0
M  V30 9736 C 1642.71 -3.64202 -6.65911 0
M  V30 9737 O 1642.92 -2.60694 -5.64732 0
M  V30 9738 C 1644.11 -3.93473 -7.1943 0
M  V30 9739 O 1644.5 -3.02071 -8.21205 0
M  V30 9740 C 1644.99 -3.73047 -5.97036 0
M  V30 9741 C 1644.28 -2.58828 -5.25741 0
M  V30 9742 N 1644.33 -2.68068 -3.77503 0
M  V30 9743 C 1644.25 -3.79715 -2.96723 0
M  V30 9744 N 1644.33 -3.5377 -1.68852 0
M  V30 9745 C 1644.47 -2.15054 -1.63254 0
M  V30 9746 C 1644.6 -1.28964 -0.518571 0
M  V30 9747 N 1644.72 0.0538097 -0.918425 0
M  V30 9748 C 1644.72 0.494275 -2.22578 0
M  V30 9749 N 1644.85 1.81086 -2.40434 0
M  V30 9750 N 1644.59 -0.313645 -3.27502 0
M  V30 9751 C 1644.47 -1.61829 -2.91033 0
M  V30 9752 H 1641.49 -5.40332 -6.79951 0
M  V30 9753 H 1641.22 -4.41613 -5.32378 0
M  V30 9754 H 1642.09 -3.26331 -7.47797 0
M  V30 9755 P 1646.05 -2.75334 -8.47391 0
M  V30 9756 O 1646.27 -2.44571 -9.90142 0
M  V30 9757 O 1646.84 -3.87688 -7.92115 0
M  V30 9758 O 1646.3 -1.4459 -7.59357 0
M  V30 9759 C 1645.36 -0.347608 -7.69215 0
M  V30 9760 C 1646.09 0.96767 -7.52806 0
M  V30 9761 O 1646.3 1.21036 -6.1011 0
M  V30 9762 C 1647.49 1.04544 -8.13308 0
M  V30 9763 O 1647.88 2.38311 -8.41922 0
M  V30 9764 C 1648.37 0.491279 -7.02284 0
M  V30 9765 C 1647.66 0.996264 -5.77469 0
M  V30 9766 N 1647.71 0.0501916 -4.62973 0
M  V30 9767 C 1647.63 -1.32786 -4.63244 0
M  V30 9768 N 1647.71 -1.86957 -3.44545 0
M  V30 9769 C 1647.85 -0.780241 -2.58481 0
M  V30 9770 C 1647.98 -0.738536 -1.17757 0
M  V30 9771 O 1648 -1.66794 -0.372349 0
M  V30 9772 N 1648.1 0.58337 -0.711393 0
M  V30 9773 C 1648.1 1.70816 -1.51017 0
M  V30 9774 N 1648.23 2.87826 -0.880757 0
M  V30 9775 N 1647.97 1.67126 -2.8339 0
M  V30 9776 C 1647.85 0.401421 -3.30572 0
M  V30 9777 H 1644.87 -0.374722 -8.67691 0
M  V30 9778 H 1644.6 -0.443485 -6.90277 0
M  V30 9779 H 1645.47 1.75537 -7.96793 0
M  V30 9780 H 1648.12 1.95076 -5.46529 0
M  V30 9781 H 1648.4 -0.608565 -7.04577 0
M  V30 9782 H 1649.39 0.889672 -7.08939 0
M  V30 9783 H 1647.56 0.43308 -9.04564 0
M  V30 9784 H 1647.51 -1.91249 -5.54442 0
M  V30 9785 H 1648.19 0.718054 0.275244 0
M  V30 9786 H 1648.23 3.75721 -1.41832 0
M  V30 9787 H 1648.33 2.90436 0.145468 0
M  V30 9788 P 1649.43 2.75334 -8.47391 0
M  V30 9789 O 1649.65 3.84128 -9.44797 0
M  V30 9790 O 1650.22 1.51947 -8.68712 0
M  V30 9791 O 1649.68 3.29363 -6.99321 0
M  V30 9792 C 1648.74 4.24011 -6.4274 0
M  V30 9793 C 1649.47 5.20775 -5.52155 0
M  V30 9794 O 1649.68 4.56534 -4.22446 0
M  V30 9795 C 1650.87 5.62629 -5.96531 0
M  V30 9796 O 1651.26 6.87667 -5.41053 0
M  V30 9797 C 1651.75 4.52537 -5.39283 0
M  V30 9798 C 1651.04 4.20027 -4.08623 0
M  V30 9799 N 1651.09 2.76189 -3.71603 0
M  V30 9800 H 1648.25 4.797 -7.24003 0
M  V30 9801 H 1647.98 3.69856 -5.84513 0
M  V30 9802 H 1648.85 6.10356 -5.41441 0
M  V30 9803 P 1652.81 7.20834 -5.23717 0
M  V30 9804 O 1653.03 8.66104 -5.38572 0
M  V30 9805 O 1653.6 6.33544 -6.1349 0
M  V30 9806 O 1653.06 6.7751 -3.72168 0
M  V30 9807 C 1652.12 7.20825 -2.7076 0
M  V30 9808 C 1652.85 7.45864 -1.40599 0
M  V30 9809 O 1653.06 6.17651 -0.734225 0
M  V30 9810 C 1654.25 8.05808 -1.51899 0
M  V30 9811 O 1654.64 8.74358 -0.335205 0
M  V30 9812 C 1655.13 6.83093 -1.70294 0
M  V30 9813 C 1654.42 5.79992 -0.836974 0
M  V30 9814 N 1654.47 4.41864 -1.38293 0
M  V30 9815 C 1654.39 3.99538 -2.69438 0
M  V30 9816 N 1654.47 2.69909 -2.84277 0
M  V30 9817 C 1654.61 2.21719 -1.5408 0
M  V30 9818 C 1654.74 0.891712 -1.06628 0
M  V30 9819 O 1654.76 -0.161298 -1.70137 0
M  V30 9820 N 1654.86 0.856846 0.334985 0
M  V30 9821 C 1654.86 1.9641 1.15789 0
M  V30 9822 N 1654.99 1.72708 2.46522 0
M  V30 9823 N 1654.73 3.21165 0.713741 0
M  V30 9824 C 1654.61 3.26797 -0.639748 0
M  V30 9825 H 1651.63 8.13644 -3.0377 0
M  V30 9826 H 1651.36 6.42788 -2.55485 0
M  V30 9827 H 1652.23 8.12039 -0.792769 0
M  V30 9828 H 1654.88 5.80061 0.166416 0
M  V30 9829 H 1655.16 6.51287 -2.75604 0
M  V30 9830 H 1656.15 7.01734 -1.34462 0
M  V30 9831 H 1654.32 8.73674 -2.38337 0
M  V30 9832 H 1654.27 4.68207 -3.53221 0
M  V30 9833 H 1654.95 -0.0398818 0.767965 0
M  V30 9834 H 1654.99 2.50995 3.13503 0
M  V30 9835 H 1655.09 0.759148 2.80716 0
M  V30 9836 P 1656.19 8.91 -7.38751e-12 0
M  V30 9837 O 1656.41 10.1746 0.733838 0
M  V30 9838 O 1656.98 8.73346 -1.23964 0
M  V30 9839 O 1656.44 7.66872 0.971405 0
M  V30 9840 C 1655.5 7.42405 2.04668 0
M  V30 9841 C 1656.23 6.86059 3.24661 0
M  V30 9842 O 1656.44 5.42934 3.03695 0
M  V30 9843 C 1657.63 7.41287 3.50796 0
M  V30 9844 O 1658.02 7.27073 4.86816 0
M  V30 9845 C 1658.51 6.5273 2.63741 0
M  V30 9846 C 1657.8 5.1842 2.73198 0
M  V30 9847 N 1657.85 4.38762 1.4784 0
M  V30 9848 C 1657.77 4.83651 0.183876 0
M  V30 9849 N 1657.84 3.88759 -0.699393 0
M  V30 9850 C 1657.99 2.7404 0.0575568 0
M  V30 9851 C 1658.12 1.37902 -0.293928 0
M  V30 9852 N 1658.13 0.938021 -1.54797 0
M  V30 9853 N 1658.24 0.491817 0.70549 0
M  V30 9854 C 1658.23 0.931735 1.95979 0
M  V30 9855 N 1658.11 2.16017 2.41481 0
M  V30 9856 C 1657.99 3.02547 1.39121 0
M  V30 9857 H 1655.01 8.36899 2.3252 0
M  V30 9858 H 1654.74 6.70391 1.71179 0
M  V30 9859 H 1655.61 7.03638 4.13219 0
M  V30 9860 H 1658.26 4.59931 3.54016 0
M  V30 9861 H 1658.54 6.88995 1.59871 0
M  V30 9862 H 1659.53 6.4684 3.0373 0
M  V30 9863 H 1657.7 8.47002 3.20749 0
M  V30 9864 H 1657.66 5.8885 -0.0765548 0
M  V30 9865 H 1658.04 1.60276 -2.32875 0
M  V30 9866 H 1658.23 -0.0699355 -1.73859 0
M  V30 9867 H 1658.34 0.165507 2.71897 0
M  V30 9868 P 1659.57 7.20834 5.23717 0
M  V30 9869 O 1659.79 7.79853 6.57286 0
M  V30 9870 O 1660.36 7.79239 4.12957 0
M  V30 9871 O 1659.82 5.63315 5.29344 0
M  V30 9872 C 1658.88 4.80255 6.01876 0
M  V30 9873 C 1659.61 3.64202 6.65911 0
M  V30 9874 O 1659.82 2.60694 5.64732 0
M  V30 9875 C 1661.01 3.93473 7.1943 0
M  V30 9876 O 1661.4 3.02071 8.21205 0
M  V30 9877 C 1661.89 3.73047 5.97036 0
M  V30 9878 C 1661.18 2.58828 5.25741 0
M  V30 9879 N 1661.23 2.68068 3.77503 0
M  V30 9880 H 1658.39 5.40332 6.79951 0
M  V30 9881 H 1658.12 4.41613 5.32378 0
M  V30 9882 H 1658.99 3.26331 7.47797 0
M  V30 9883 P 1662.95 2.75334 8.47391 0
M  V30 9884 O 1663.17 2.44571 9.90142 0
M  V30 9885 O 1663.74 3.87688 7.92115 0
M  V30 9886 O 1663.2 1.4459 7.59357 0
M  V30 9887 C 1662.26 0.347608 7.69215 0
M  V30 9888 C 1662.99 -0.96767 7.52806 0
M  V30 9889 O 1663.2 -1.21036 6.1011 0
M  V30 9890 C 1664.39 -1.04544 8.13308 0
M  V30 9891 O 1664.78 -2.38311 8.41922 0
M  V30 9892 C 1665.27 -0.491279 7.02284 0
M  V30 9893 C 1664.56 -0.996264 5.77469 0
M  V30 9894 N 1664.61 -0.0501916 4.62973 0
M  V30 9895 C 1664.53 1.32786 4.63244 0
M  V30 9896 N 1664.61 1.86957 3.44545 0
M  V30 9897 C 1664.75 0.780241 2.58481 0
M  V30 9898 C 1664.88 0.738536 1.17757 0
M  V30 9899 N 1665 -0.58337 0.711393 0
M  V30 9900 C 1665 -1.70816 1.51017 0
M  V30 9901 N 1665.13 -2.87826 0.880757 0
M  V30 9902 N 1664.87 -1.67126 2.8339 0
M  V30 9903 C 1664.75 -0.401421 3.30572 0
M  V30 9904 H 1661.77 0.374722 8.67691 0
M  V30 9905 H 1661.5 0.443485 6.90277 0
M  V30 9906 H 1662.37 -1.75537 7.96793 0
M  V30 9907 P 1666.33 -2.75334 8.47391 0
M  V30 9908 O 1666.55 -3.84128 9.44797 0
M  V30 9909 O 1667.12 -1.51947 8.68712 0
M  V30 9910 O 1666.58 -3.29363 6.99321 0
M  V30 9911 C 1665.64 -4.24011 6.4274 0
M  V30 9912 C 1666.37 -5.20775 5.52155 0
M  V30 9913 O 1666.58 -4.56534 4.22446 0
M  V30 9914 C 1667.77 -5.62629 5.96531 0
M  V30 9915 O 1668.16 -6.87667 5.41053 0
M  V30 9916 C 1668.65 -4.52537 5.39283 0
M  V30 9917 C 1667.94 -4.20027 4.08623 0
M  V30 9918 N 1667.99 -2.76189 3.71603 0
M  V30 9919 H 1665.15 -4.797 7.24003 0
M  V30 9920 H 1664.88 -3.69856 5.84513 0
M  V30 9921 H 1665.75 -6.10356 5.41441 0
M  V30 9922 P 1669.71 -7.20834 5.23717 0
M  V30 9923 O 1669.93 -8.66104 5.38572 0
M  V30 9924 O 1670.5 -6.33544 6.1349 0
M  V30 9925 O 1669.96 -6.7751 3.72168 0
M  V30 9926 C 1669.02 -7.20825 2.7076 0
M  V30 9927 C 1669.75 -7.45864 1.40599 0
M  V30 9928 O 1669.96 -6.17651 0.734225 0
M  V30 9929 C 1671.15 -8.05808 1.51899 0
M  V30 9930 O 1671.54 -8.74358 0.335205 0
M  V30 9931 C 1672.03 -6.83093 1.70294 0
M  V30 9932 C 1671.32 -5.79992 0.836974 0
M  V30 9933 N 1671.37 -4.41864 1.38293 0
M  V30 9934 H 1668.53 -8.13644 3.0377 0
M  V30 9935 H 1668.26 -6.42788 2.55485 0
M  V30 9936 H 1669.13 -8.12039 0.792769 0
M  V30 9937 P 1673.09 -8.91 8.49651e-12 0
M  V30 9938 O 1673.31 -10.1726 -0.733694 0
M  V30 9939 O 1673.88 -8.73148 1.23936 0
M  V30 9940 O 1673.34 -7.66872 -0.971405 0
M  V30 9941 C 1672.4 -7.42309 -2.04641 0
M  V30 9942 C 1673.13 -6.86059 -3.24661 0
M  V30 9943 O 1673.34 -5.42847 -3.03646 0
M  V30 9944 C 1674.53 -7.41196 -3.50753 0
M  V30 9945 O 1674.92 -7.27073 -4.86816 0
M  V30 9946 C 1675.41 -6.5273 -2.63741 0
M  V30 9947 C 1674.7 -5.1842 -2.73198 0
M  V30 9948 N 1674.75 -4.38762 -1.4784 0
M  V30 9949 H 1671.91 -8.36803 -2.32493 0
M  V30 9950 H 1671.64 -6.70197 -1.71129 0
M  V30 9951 H 1672.51 -7.03551 -4.13168 0
M  V30 9952 P 1676.47 -7.20834 -5.23717 0
M  V30 9953 O 1676.69 -7.79853 -6.57286 0
M  V30 9954 O 1677.26 -7.79239 -4.12957 0
M  V30 9955 O 1676.72 -5.63315 -5.29344 0
M  V30 9956 C 1675.78 -4.80255 -6.01876 0
M  V30 9957 C 1676.51 -3.64202 -6.65911 0
M  V30 9958 O 1676.72 -2.60694 -5.64732 0
M  V30 9959 C 1677.91 -3.93473 -7.1943 0
M  V30 9960 O 1678.3 -3.02071 -8.21205 0
M  V30 9961 C 1678.79 -3.73047 -5.97036 0
M  V30 9962 C 1678.08 -2.58828 -5.25741 0
M  V30 9963 N 1678.13 -2.68068 -3.77503 0
M  V30 9964 H 1675.29 -5.40332 -6.79951 0
M  V30 9965 H 1675.02 -4.41613 -5.32378 0
M  V30 9966 H 1675.89 -3.26331 -7.47797 0
M  V30 9967 P 1679.85 -2.75334 -8.47391 0
M  V30 9968 O 1680.07 -2.44595 -9.90239 0
M  V30 9969 O 1680.64 -3.87732 -7.92204 0
M  V30 9970 O 1680.1 -1.4459 -7.59357 0
M  V30 9971 C 1679.16 -0.347563 -7.69115 0
M  V30 9972 C 1679.89 0.96767 -7.52806 0
M  V30 9973 O 1680.1 1.21036 -6.1011 0
M  V30 9974 C 1681.29 1.04544 -8.13308 0
M  V30 9975 O 1681.68 2.38311 -8.41922 0
M  V30 9976 C 1682.17 0.491279 -7.02284 0
M  V30 9977 C 1681.46 0.996264 -5.77469 0
M  V30 9978 N 1681.51 0.0501808 -4.62873 0
M  V30 9979 C 1681.66 0.588177 -3.36904 0
M  V30 9980 O 1681.75 1.78598 -3.17173 0
M  V30 9981 N 1681.7 -0.329694 -2.33686 0
M  V30 9982 C 1681.61 -1.6953 -2.45079 0
M  V30 9983 O 1681.66 -2.41926 -1.44899 0
M  V30 9984 C 1681.46 -2.16933 -3.80505 0
M  V30 9985 C 1681.35 -3.65373 -3.97621 0
M  V30 9986 C 1681.41 -1.30326 -4.83752 0
M  V30 9987 H 1678.67 -0.374722 -8.67691 0
M  V30 9988 H 1678.4 -0.443421 -6.90177 0
M  V30 9989 H 1679.27 1.75537 -7.96793 0
M  V30 9990 H 1681.92 1.94496 -5.46629 0
M  V30 9991 H 1682.2 -0.608651 -7.04676 0
M  V30 9992 H 1683.19 0.889672 -7.08939 0
M  V30 9993 H 1681.36 0.43308 -9.04564 0
M  V30 9994 H 1681.29 -1.68366 -5.8516 0
M  V30 9995 H 1682.32 -4.05985 -4.30448 0
M  V30 9996 H 1680.58 -3.88028 -4.72875 0
M  V30 9997 H 1681.07 -4.11381 -3.01609 0
M  V30 9998 H 1681.81 0.0393617 -1.41345 0
M  V30 9999 P 1683.23 2.75334 -8.47391 0
M  V30 10000 O 1683.45 3.84128 -9.44797 0
M  V30 10001 O 1684.02 1.51947 -8.68712 0
M  V30 10002 O 1683.48 3.29363 -6.99321 0
M  V30 10003 C 1682.54 4.24011 -6.4274 0
M  V30 10004 C 1683.27 5.20775 -5.52155 0
M  V30 10005 O 1683.48 4.56534 -4.22446 0
M  V30 10006 C 1684.67 5.62629 -5.96531 0
M  V30 10007 O 1685.06 6.87667 -5.41053 0
M  V30 10008 C 1685.55 4.52537 -5.39283 0
M  V30 10009 C 1684.84 4.20027 -4.08623 0
M  V30 10010 N 1684.89 2.76189 -3.71603 0
M  V30 10011 H 1682.05 4.797 -7.24003 0
M  V30 10012 H 1681.78 3.69856 -5.84513 0
M  V30 10013 H 1682.65 6.10356 -5.41441 0
M  V30 10014 P 1686.61 7.20834 -5.23717 0
M  V30 10015 O 1686.83 8.66104 -5.38572 0
M  V30 10016 O 1687.4 6.33544 -6.1349 0
M  V30 10017 O 1686.86 6.7751 -3.72168 0
M  V30 10018 C 1685.92 7.20825 -2.7076 0
M  V30 10019 C 1686.65 7.45864 -1.40599 0
M  V30 10020 O 1686.86 6.17651 -0.734225 0
M  V30 10021 C 1688.05 8.05808 -1.51899 0
M  V30 10022 O 1688.44 8.74358 -0.335205 0
M  V30 10023 C 1688.93 6.83093 -1.70294 0
M  V30 10024 C 1688.22 5.79992 -0.836974 0
M  V30 10025 N 1688.27 4.41864 -1.38293 0
M  V30 10026 H 1685.43 8.13644 -3.0377 0
M  V30 10027 H 1685.16 6.42788 -2.55485 0
M  V30 10028 H 1686.03 8.12039 -0.792769 0
M  V30 10029 P 1689.99 8.91 -9.60552e-12 0
M  V30 10030 O 1690.21 10.1746 0.733838 0
M  V30 10031 O 1690.78 8.73346 -1.23964 0
M  V30 10032 O 1690.24 7.66872 0.971405 0
M  V30 10033 C 1689.3 7.42405 2.04668 0
M  V30 10034 C 1690.03 6.86059 3.24661 0
M  V30 10035 O 1690.24 5.42934 3.03695 0
M  V30 10036 C 1691.43 7.41287 3.50796 0
M  V30 10037 O 1691.82 7.27073 4.86816 0
M  V30 10038 C 1692.31 6.5273 2.63741 0
M  V30 10039 C 1691.6 5.1842 2.73198 0
M  V30 10040 N 1691.65 4.38762 1.4784 0
M  V30 10041 C 1691.57 4.83651 0.183876 0
M  V30 10042 N 1691.64 3.88759 -0.699393 0
M  V30 10043 C 1691.79 2.7404 0.0575568 0
M  V30 10044 C 1691.92 1.37902 -0.293928 0
M  V30 10045 N 1691.93 0.938021 -1.54797 0
M  V30 10046 N 1692.04 0.491817 0.70549 0
M  V30 10047 C 1692.03 0.931735 1.95979 0
M  V30 10048 N 1691.91 2.16017 2.41481 0
M  V30 10049 C 1691.79 3.02547 1.39121 0
M  V30 10050 H 1688.81 8.36899 2.3252 0
M  V30 10051 H 1688.54 6.70391 1.71179 0
M  V30 10052 H 1689.41 7.03638 4.13219 0
M  V30 10053 H 1692.06 4.59931 3.54016 0
M  V30 10054 H 1692.34 6.88995 1.59871 0
M  V30 10055 H 1693.33 6.4684 3.0373 0
M  V30 10056 H 1691.5 8.47002 3.20749 0
M  V30 10057 H 1691.46 5.8885 -0.0765548 0
M  V30 10058 H 1691.84 1.60276 -2.32875 0
M  V30 10059 H 1692.03 -0.0699355 -1.73859 0
M  V30 10060 H 1692.14 0.165507 2.71897 0
M  V30 10061 P 1693.37 7.20834 5.23717 0
M  V30 10062 O 1693.59 7.79853 6.57286 0
M  V30 10063 O 1694.16 7.79239 4.12957 0
M  V30 10064 O 1693.62 5.63315 5.29344 0
M  V30 10065 C 1692.68 4.80255 6.01876 0
M  V30 10066 C 1693.41 3.64202 6.65911 0
M  V30 10067 O 1693.62 2.60694 5.64732 0
M  V30 10068 C 1694.81 3.93473 7.1943 0
M  V30 10069 O 1695.2 3.02071 8.21205 0
M  V30 10070 C 1695.69 3.73047 5.97036 0
M  V30 10071 C 1694.98 2.58828 5.25741 0
M  V30 10072 N 1695.03 2.68068 3.77503 0
M  V30 10073 H 1692.19 5.40332 6.79951 0
M  V30 10074 H 1691.92 4.41613 5.32378 0
M  V30 10075 H 1692.79 3.26331 7.47797 0
M  V30 10076 P 1696.75 2.75334 8.47391 0
M  V30 10077 O 1696.97 2.44571 9.90142 0
M  V30 10078 O 1697.54 3.87688 7.92115 0
M  V30 10079 O 1697 1.4459 7.59357 0
M  V30 10080 C 1696.06 0.347608 7.69215 0
M  V30 10081 C 1696.79 -0.96767 7.52806 0
M  V30 10082 O 1697 -1.21036 6.1011 0
M  V30 10083 C 1698.19 -1.04544 8.13308 0
M  V30 10084 O 1698.58 -2.38311 8.41922 0
M  V30 10085 C 1699.07 -0.491279 7.02284 0
M  V30 10086 C 1698.36 -0.996264 5.77469 0
M  V30 10087 N 1698.41 -0.0501916 4.62973 0
M  V30 10088 H 1695.57 0.374722 8.67691 0
M  V30 10089 H 1695.3 0.443485 6.90277 0
M  V30 10090 H 1696.17 -1.75537 7.96793 0
M  V30 10091 P 1700.13 -2.75334 8.47391 0
M  V30 10092 O 1700.35 -3.84128 9.44797 0
M  V30 10093 O 1700.92 -1.51947 8.68712 0
M  V30 10094 O 1700.38 -3.29363 6.99321 0
M  V30 10095 C 1699.44 -4.24011 6.4274 0
M  V30 10096 C 1700.17 -5.20775 5.52155 0
M  V30 10097 O 1700.38 -4.56534 4.22446 0
M  V30 10098 C 1701.57 -5.62629 5.96531 0
M  V30 10099 O 1701.96 -6.87667 5.41053 0
M  V30 10100 C 1702.45 -4.52537 5.39283 0
M  V30 10101 C 1701.74 -4.20027 4.08623 0
M  V30 10102 N 1701.79 -2.76189 3.71603 0
M  V30 10103 C 1701.71 -1.64862 4.52822 0
M  V30 10104 N 1701.79 -0.512671 3.88633 0
M  V30 10105 C 1701.93 -0.888083 2.54977 0
M  V30 10106 C 1702.06 -0.094668 1.38677 0
M  V30 10107 N 1702.18 -0.890102 0.232633 0
M  V30 10108 C 1702.18 -2.26958 0.21772 0
M  V30 10109 N 1702.31 -2.84626 -0.97925 0
M  V30 10110 N 1702.05 -3.0178 1.31033 0
M  V30 10111 C 1701.93 -2.26781 2.43843 0
M  V30 10112 H 1698.95 -4.797 7.24003 0
M  V30 10113 H 1698.68 -3.69856 5.84513 0
M  V30 10114 H 1699.55 -6.10356 5.41441 0
M  V30 10115 P 1703.51 -7.20834 5.23717 0
M  V30 10116 O 1703.73 -8.66104 5.38572 0
M  V30 10117 O 1704.3 -6.33544 6.1349 0
M  V30 10118 O 1703.76 -6.7751 3.72168 0
M  V30 10119 C 1702.82 -7.20825 2.7076 0
M  V30 10120 C 1703.55 -7.45864 1.40599 0
M  V30 10121 O 1703.76 -6.17651 0.734225 0
M  V30 10122 C 1704.95 -8.05808 1.51899 0
M  V30 10123 O 1705.34 -8.74358 0.335205 0
M  V30 10124 C 1705.83 -6.83093 1.70294 0
M  V30 10125 C 1705.12 -5.79992 0.836974 0
M  V30 10126 N 1705.17 -4.41864 1.38293 0
M  V30 10127 H 1702.33 -8.13644 3.0377 0
M  V30 10128 H 1702.06 -6.42788 2.55485 0
M  V30 10129 H 1702.93 -8.12039 0.792769 0
M  V30 10130 P 1706.89 -8.91 1.07145e-11 0
M  V30 10131 O 1707.11 -10.1726 -0.733694 0
M  V30 10132 O 1707.68 -8.73148 1.23936 0
M  V30 10133 O 1707.14 -7.66872 -0.971405 0
M  V30 10134 C 1706.2 -7.42309 -2.04641 0
M  V30 10135 C 1706.93 -6.86059 -3.24661 0
M  V30 10136 O 1707.14 -5.42847 -3.03646 0
M  V30 10137 C 1708.33 -7.41196 -3.50753 0
M  V30 10138 O 1708.72 -7.27073 -4.86816 0
M  V30 10139 C 1709.21 -6.5273 -2.63741 0
M  V30 10140 C 1708.5 -5.1842 -2.73198 0
M  V30 10141 N 1708.55 -4.38762 -1.4784 0
M  V30 10142 H 1705.71 -8.36803 -2.32493 0
M  V30 10143 H 1705.44 -6.70197 -1.71129 0
M  V30 10144 H 1706.31 -7.03551 -4.13168 0
M  V30 10145 P 1710.27 -7.20834 -5.23717 0
M  V30 10146 O 1710.49 -7.79853 -6.57286 0
M  V30 10147 O 1711.06 -7.79239 -4.12957 0
M  V30 10148 O 1710.52 -5.63315 -5.29344 0
M  V30 10149 C 1709.58 -4.80255 -6.01876 0
M  V30 10150 C 1710.31 -3.64202 -6.65911 0
M  V30 10151 O 1710.52 -2.60694 -5.64732 0
M  V30 10152 C 1711.71 -3.93473 -7.1943 0
M  V30 10153 O 1712.1 -3.02071 -8.21205 0
M  V30 10154 C 1712.59 -3.73047 -5.97036 0
M  V30 10155 C 1711.88 -2.58828 -5.25741 0
M  V30 10156 N 1711.93 -2.68068 -3.77503 0
M  V30 10157 H 1709.09 -5.40332 -6.79951 0
M  V30 10158 H 1708.82 -4.41613 -5.32378 0
M  V30 10159 H 1709.69 -3.26331 -7.47797 0
M  V30 10160 P 1713.65 -2.75334 -8.47391 0
M  V30 10161 O 1713.87 -2.44571 -9.90142 0
M  V30 10162 O 1714.44 -3.87688 -7.92115 0
M  V30 10163 O 1713.9 -1.4459 -7.59357 0
M  V30 10164 C 1712.96 -0.347608 -7.69215 0
M  V30 10165 C 1713.69 0.96767 -7.52806 0
M  V30 10166 O 1713.9 1.21036 -6.1011 0
M  V30 10167 C 1715.09 1.04544 -8.13308 0
M  V30 10168 O 1715.48 2.38311 -8.41922 0
M  V30 10169 C 1715.97 0.491279 -7.02284 0
M  V30 10170 C 1715.26 0.996264 -5.77469 0
M  V30 10171 N 1715.31 0.0501916 -4.62973 0
M  V30 10172 C 1715.23 -1.32786 -4.63244 0
M  V30 10173 N 1715.31 -1.86957 -3.44545 0
M  V30 10174 C 1715.45 -0.780241 -2.58481 0
M  V30 10175 C 1715.58 -0.738536 -1.17757 0
M  V30 10176 O 1715.6 -1.66794 -0.372349 0
M  V30 10177 N 1715.7 0.58337 -0.711393 0
M  V30 10178 C 1715.7 1.70816 -1.51017 0
M  V30 10179 N 1715.83 2.87826 -0.880757 0
M  V30 10180 N 1715.57 1.67126 -2.8339 0
M  V30 10181 C 1715.45 0.401421 -3.30572 0
M  V30 10182 H 1712.47 -0.374722 -8.67691 0
M  V30 10183 H 1712.2 -0.443485 -6.90277 0
M  V30 10184 H 1713.07 1.75537 -7.96793 0
M  V30 10185 H 1715.72 1.95076 -5.46529 0
M  V30 10186 H 1716 -0.608565 -7.04577 0
M  V30 10187 H 1716.99 0.889672 -7.08939 0
M  V30 10188 H 1715.16 0.43308 -9.04564 0
M  V30 10189 H 1715.11 -1.91249 -5.54442 0
M  V30 10190 H 1715.79 0.718054 0.275244 0
M  V30 10191 H 1715.83 3.75721 -1.41832 0
M  V30 10192 H 1715.93 2.90436 0.145468 0
M  V30 10193 P 1717.03 2.75334 -8.47391 0
M  V30 10194 O 1717.25 3.84128 -9.44797 0
M  V30 10195 O 1717.82 1.51947 -8.68712 0
M  V30 10196 O 1717.28 3.29363 -6.99321 0
M  V30 10197 C 1716.34 4.24011 -6.4274 0
M  V30 10198 C 1717.07 5.20775 -5.52155 0
M  V30 10199 O 1717.28 4.56534 -4.22446 0
M  V30 10200 C 1718.47 5.62629 -5.96531 0
M  V30 10201 O 1718.86 6.87667 -5.41053 0
M  V30 10202 C 1719.35 4.52537 -5.39283 0
M  V30 10203 C 1718.64 4.20027 -4.08623 0
M  V30 10204 N 1718.69 2.76189 -3.71603 0
M  V30 10205 H 1715.85 4.797 -7.24003 0
M  V30 10206 H 1715.58 3.69856 -5.84513 0
M  V30 10207 H 1716.45 6.10356 -5.41441 0
M  V30 10208 P 1720.41 7.20834 -5.23717 0
M  V30 10209 O 1720.63 8.66274 -5.38678 0
M  V30 10210 O 1721.2 6.33687 -6.13629 0
M  V30 10211 O 1720.66 6.7751 -3.72168 0
M  V30 10212 C 1719.72 7.20919 -2.70795 0
M  V30 10213 C 1720.45 7.45864 -1.40599 0
M  V30 10214 O 1720.66 6.17751 -0.734343 0
M  V30 10215 C 1721.85 8.05906 -1.51917 0
M  V30 10216 O 1722.24 8.74358 -0.335205 0
M  V30 10217 C 1722.73 6.83093 -1.70294 0
M  V30 10218 C 1722.02 5.79992 -0.836974 0
M  V30 10219 N 1722.07 4.41864 -1.38293 0
M  V30 10220 H 1719.23 8.13738 -3.03804 0
M  V30 10221 H 1718.96 6.42974 -2.55559 0
M  V30 10222 H 1719.83 8.12139 -0.792866 0
M  V30 10223 H 1722.48 5.80178 0.160643 0
M  V30 10224 H 1722.76 6.51379 -2.75643 0
M  V30 10225 H 1723.75 7.01832 -1.3448 0
M  V30 10226 H 1721.92 8.73771 -2.38364 0
M  V30 10227 P 1723.79 8.91 -1.18235e-11 0
M  V30 10228 O 1724.01 10.1726 0.733694 0
M  V30 10229 O 1724.58 8.73148 -1.23936 0
M  V30 10230 O 1724.04 7.66872 0.971405 0
M  V30 10231 C 1723.1 7.42309 2.04641 0
M  V30 10232 C 1723.83 6.86059 3.24661 0
M  V30 10233 O 1724.04 5.42847 3.03646 0
M  V30 10234 C 1725.23 7.41196 3.50753 0
M  V30 10235 O 1725.62 7.27073 4.86816 0
M  V30 10236 C 1726.11 6.5273 2.63741 0
M  V30 10237 C 1725.4 5.1842 2.73198 0
M  V30 10238 N 1725.45 4.38762 1.4784 0
M  V30 10239 H 1722.61 8.36803 2.32493 0
M  V30 10240 H 1722.34 6.70197 1.71129 0
M  V30 10241 H 1723.21 7.03551 4.13168 0
M  V30 10242 P 1727.17 7.20834 5.23717 0
M  V30 10243 O 1727.39 7.79853 6.57286 0
M  V30 10244 O 1727.96 7.79239 4.12957 0
M  V30 10245 O 1727.42 5.63315 5.29344 0
M  V30 10246 C 1726.48 4.80255 6.01876 0
M  V30 10247 C 1727.21 3.64202 6.65911 0
M  V30 10248 O 1727.42 2.60694 5.64732 0
M  V30 10249 C 1728.61 3.93473 7.1943 0
M  V30 10250 O 1729 3.02071 8.21205 0
M  V30 10251 C 1729.49 3.73047 5.97036 0
M  V30 10252 C 1728.78 2.58828 5.25741 0
M  V30 10253 N 1728.83 2.68068 3.77503 0
M  V30 10254 H 1725.99 5.40332 6.79951 0
M  V30 10255 H 1725.72 4.41613 5.32378 0
M  V30 10256 H 1726.59 3.26331 7.47797 0
M  V30 10257 P 1730.55 2.75334 8.47391 0
M  V30 10258 O 1730.77 2.44571 9.90142 0
M  V30 10259 O 1731.34 3.87688 7.92115 0
M  V30 10260 O 1730.8 1.4459 7.59357 0
M  V30 10261 C 1729.86 0.347608 7.69215 0
M  V30 10262 C 1730.59 -0.96767 7.52806 0
M  V30 10263 O 1730.8 -1.21036 6.1011 0
M  V30 10264 C 1731.99 -1.04544 8.13308 0
M  V30 10265 O 1732.38 -2.38311 8.41922 0
M  V30 10266 C 1732.87 -0.491279 7.02284 0
M  V30 10267 C 1732.16 -0.996264 5.77469 0
M  V30 10268 N 1732.21 -0.0501916 4.62973 0
M  V30 10269 H 1729.37 0.374722 8.67691 0
M  V30 10270 H 1729.1 0.443485 6.90277 0
M  V30 10271 H 1729.97 -1.75537 7.96793 0
M  V30 10272 P 1733.93 -2.75334 8.47391 0
M  V30 10273 O 1734.15 -3.84128 9.44797 0
M  V30 10274 O 1734.72 -1.51947 8.68712 0
M  V30 10275 O 1734.18 -3.29363 6.99321 0
M  V30 10276 C 1733.24 -4.24011 6.4274 0
M  V30 10277 C 1733.97 -5.20775 5.52155 0
M  V30 10278 O 1734.18 -4.56534 4.22446 0
M  V30 10279 C 1735.37 -5.62629 5.96531 0
M  V30 10280 O 1735.76 -6.87667 5.41053 0
M  V30 10281 C 1736.25 -4.52537 5.39283 0
M  V30 10282 C 1735.54 -4.20027 4.08623 0
M  V30 10283 N 1735.59 -2.76189 3.71603 0
M  V30 10284 H 1732.75 -4.797 7.24003 0
M  V30 10285 H 1732.48 -3.69856 5.84513 0
M  V30 10286 H 1733.35 -6.10356 5.41441 0
M  V30 10287 P 1737.31 -7.20834 5.23717 0
M  V30 10288 O 1737.53 -8.66104 5.38572 0
M  V30 10289 O 1738.1 -6.33544 6.1349 0
M  V30 10290 O 1737.56 -6.7751 3.72168 0
M  V30 10291 C 1736.62 -7.20825 2.7076 0
M  V30 10292 C 1737.35 -7.45864 1.40599 0
M  V30 10293 O 1737.56 -6.17651 0.734225 0
M  V30 10294 C 1738.75 -8.05808 1.51899 0
M  V30 10295 O 1739.14 -8.74358 0.335205 0
M  V30 10296 C 1739.63 -6.83093 1.70294 0
M  V30 10297 C 1738.92 -5.79992 0.836974 0
M  V30 10298 N 1738.97 -4.41864 1.38293 0
M  V30 10299 H 1736.13 -8.13644 3.0377 0
M  V30 10300 H 1735.86 -6.42788 2.55485 0
M  V30 10301 H 1736.73 -8.12039 0.792769 0
M  V30 10302 P 1740.69 -8.91 1.29325e-11 0
M  V30 10303 O 1740.91 -10.1726 -0.733694 0
M  V30 10304 O 1741.48 -8.73148 1.23936 0
M  V30 10305 O 1740.94 -7.66872 -0.971405 0
M  V30 10306 C 1740 -7.42309 -2.04641 0
M  V30 10307 C 1740.73 -6.86059 -3.24661 0
M  V30 10308 O 1740.94 -5.42847 -3.03646 0
M  V30 10309 C 1742.13 -7.41196 -3.50753 0
M  V30 10310 O 1742.52 -7.27073 -4.86816 0
M  V30 10311 C 1743.01 -6.5273 -2.63741 0
M  V30 10312 C 1742.3 -5.1842 -2.73198 0
M  V30 10313 N 1742.35 -4.38762 -1.4784 0
M  V30 10314 H 1739.51 -8.36803 -2.32493 0
M  V30 10315 H 1739.24 -6.70197 -1.71129 0
M  V30 10316 H 1740.11 -7.03551 -4.13168 0
M  V30 10317 P 1744.07 -7.20834 -5.23717 0
M  V30 10318 O 1744.29 -7.79853 -6.57286 0
M  V30 10319 O 1744.86 -7.79239 -4.12957 0
M  V30 10320 O 1744.32 -5.63315 -5.29344 0
M  V30 10321 C 1743.38 -4.80255 -6.01876 0
M  V30 10322 C 1744.11 -3.64202 -6.65911 0
M  V30 10323 O 1744.32 -2.60694 -5.64732 0
M  V30 10324 C 1745.51 -3.93473 -7.1943 0
M  V30 10325 O 1745.9 -3.02071 -8.21205 0
M  V30 10326 C 1746.39 -3.73047 -5.97036 0
M  V30 10327 C 1745.68 -2.58828 -5.25741 0
M  V30 10328 N 1745.73 -2.68068 -3.77503 0
M  V30 10329 C 1745.65 -3.79715 -2.96723 0
M  V30 10330 N 1745.73 -3.5377 -1.68852 0
M  V30 10331 C 1745.87 -2.15054 -1.63254 0
M  V30 10332 C 1746 -1.28964 -0.518571 0
M  V30 10333 N 1746.12 0.0538097 -0.918425 0
M  V30 10334 C 1746.12 0.494275 -2.22578 0
M  V30 10335 N 1746.25 1.81086 -2.40434 0
M  V30 10336 N 1745.99 -0.313645 -3.27502 0
M  V30 10337 C 1745.87 -1.61829 -2.91033 0
M  V30 10338 H 1742.89 -5.40332 -6.79951 0
M  V30 10339 H 1742.62 -4.41613 -5.32378 0
M  V30 10340 H 1743.49 -3.26331 -7.47797 0
M  V30 10341 P 1747.45 -2.75334 -8.47391 0
M  V30 10342 O 1747.67 -2.44571 -9.90142 0
M  V30 10343 O 1748.24 -3.87688 -7.92115 0
M  V30 10344 O 1747.7 -1.4459 -7.59357 0
M  V30 10345 C 1746.76 -0.347608 -7.69215 0
M  V30 10346 C 1747.49 0.96767 -7.52806 0
M  V30 10347 O 1747.7 1.21036 -6.1011 0
M  V30 10348 C 1748.89 1.04544 -8.13308 0
M  V30 10349 O 1749.28 2.38311 -8.41922 0
M  V30 10350 C 1749.77 0.491279 -7.02284 0
M  V30 10351 C 1749.06 0.996264 -5.77469 0
M  V30 10352 N 1749.11 0.0501916 -4.62973 0
M  V30 10353 H 1746.27 -0.374722 -8.67691 0
M  V30 10354 H 1746 -0.443485 -6.90277 0
M  V30 10355 H 1746.87 1.75537 -7.96793 0
M  V30 10356 P 1750.83 2.75334 -8.47391 0
M  V30 10357 O 1751.05 3.84128 -9.44797 0
M  V30 10358 O 1751.62 1.51947 -8.68712 0
M  V30 10359 O 1751.08 3.29363 -6.99321 0
M  V30 10360 C 1750.14 4.24011 -6.4274 0
M  V30 10361 C 1750.87 5.20775 -5.52155 0
M  V30 10362 O 1751.08 4.56534 -4.22446 0
M  V30 10363 C 1752.27 5.62629 -5.96531 0
M  V30 10364 O 1752.66 6.87667 -5.41053 0
M  V30 10365 C 1753.15 4.52537 -5.39283 0
M  V30 10366 C 1752.44 4.20027 -4.08623 0
M  V30 10367 N 1752.49 2.76189 -3.71603 0
M  V30 10368 H 1749.65 4.797 -7.24003 0
M  V30 10369 H 1749.38 3.69856 -5.84513 0
M  V30 10370 H 1750.25 6.10356 -5.41441 0
M  V30 10371 P 1754.21 7.20834 -5.23717 0
M  V30 10372 O 1754.43 8.66104 -5.38572 0
M  V30 10373 O 1755 6.33544 -6.1349 0
M  V30 10374 O 1754.46 6.7751 -3.72168 0
M  V30 10375 C 1753.52 7.20825 -2.7076 0
M  V30 10376 C 1754.25 7.45864 -1.40599 0
M  V30 10377 O 1754.46 6.17651 -0.734225 0
M  V30 10378 C 1755.65 8.05808 -1.51899 0
M  V30 10379 O 1756.04 8.74358 -0.335205 0
M  V30 10380 C 1756.53 6.83093 -1.70294 0
M  V30 10381 C 1755.82 5.79992 -0.836974 0
M  V30 10382 N 1755.87 4.41864 -1.38293 0
M  V30 10383 H 1753.03 8.13644 -3.0377 0
M  V30 10384 H 1752.76 6.42788 -2.55485 0
M  V30 10385 H 1753.63 8.12039 -0.792769 0
M  V30 10386 P 1757.59 8.91 -1.40415e-11 0
M  V30 10387 O 1757.81 10.1736 0.733766 0
M  V30 10388 O 1758.38 8.73247 -1.2395 0
M  V30 10389 O 1757.84 7.66872 0.971405 0
M  V30 10390 C 1756.9 7.42309 2.04641 0
M  V30 10391 C 1757.63 6.86059 3.24661 0
M  V30 10392 O 1757.84 5.42847 3.03646 0
M  V30 10393 C 1759.03 7.41196 3.50753 0
M  V30 10394 O 1759.42 7.27073 4.86816 0
M  V30 10395 C 1759.91 6.5273 2.63741 0
M  V30 10396 C 1759.2 5.1842 2.73198 0
M  V30 10397 N 1759.25 4.38668 1.47808 0
M  V30 10398 C 1759.4 3.00789 1.58511 0
M  V30 10399 O 1759.49 2.50116 2.71298 0
M  V30 10400 N 1759.45 2.29703 0.253698 0
M  V30 10401 C 1759.35 2.84269 -0.750133 0
M  V30 10402 N 1759.4 2.06951 -1.82612 0
M  V30 10403 C 1759.2 4.25803 -0.889776 0
M  V30 10404 C 1759.15 4.98326 0.259363 0
M  V30 10405 H 1756.41 8.36707 2.32466 0
M  V30 10406 H 1756.14 6.701 1.71105 0
M  V30 10407 H 1757.01 7.03638 4.13219 0
M  V30 10408 H 1759.66 4.59852 3.53955 0
M  V30 10409 H 1759.94 6.88995 1.59871 0
M  V30 10410 H 1760.93 6.46749 3.03687 0
M  V30 10411 H 1759.1 8.46908 3.20714 0
M  V30 10412 H 1759.03 6.06349 0.206238 0
M  V30 10413 H 1759.13 4.73163 -1.86796 0
M  V30 10414 H 1759.52 1.05099 -1.72271 0
M  V30 10415 H 1759.32 2.48716 -2.76361 0
M  V30 10416 P 1760.97 7.20834 5.23717 0
M  V30 10417 O 1761.19 7.79853 6.57286 0
M  V30 10418 O 1761.76 7.79239 4.12957 0
M  V30 10419 O 1761.22 5.63315 5.29344 0
M  V30 10420 C 1760.28 4.80255 6.01876 0
M  V30 10421 C 1761.01 3.64202 6.65911 0
M  V30 10422 O 1761.22 2.60694 5.64732 0
M  V30 10423 C 1762.41 3.93473 7.1943 0
M  V30 10424 O 1762.8 3.02071 8.21205 0
M  V30 10425 C 1763.29 3.73047 5.97036 0
M  V30 10426 C 1762.58 2.58828 5.25741 0
M  V30 10427 N 1762.63 2.68068 3.77503 0
M  V30 10428 C 1762.55 3.79715 2.96723 0
M  V30 10429 N 1762.63 3.5377 1.68852 0
M  V30 10430 C 1762.77 2.15054 1.63254 0
M  V30 10431 C 1762.9 1.28964 0.518571 0
M  V30 10432 N 1763.02 -0.0538097 0.918425 0
M  V30 10433 C 1763.02 -0.494275 2.22578 0
M  V30 10434 N 1763.15 -1.81086 2.40434 0
M  V30 10435 N 1762.89 0.313645 3.27502 0
M  V30 10436 C 1762.77 1.61829 2.91033 0
M  V30 10437 H 1759.79 5.40332 6.79951 0
M  V30 10438 H 1759.52 4.41613 5.32378 0
M  V30 10439 H 1760.39 3.26331 7.47797 0
M  V30 10440 P 1764.35 2.75334 8.47391 0
M  V30 10441 O 1764.57 2.44571 9.90142 0
M  V30 10442 O 1765.14 3.87688 7.92115 0
M  V30 10443 O 1764.6 1.4459 7.59357 0
M  V30 10444 C 1763.66 0.347608 7.69215 0
M  V30 10445 C 1764.39 -0.96767 7.52806 0
M  V30 10446 O 1764.6 -1.21036 6.1011 0
M  V30 10447 C 1765.79 -1.04544 8.13308 0
M  V30 10448 O 1766.18 -2.38311 8.41922 0
M  V30 10449 C 1766.67 -0.491279 7.02284 0
M  V30 10450 C 1765.96 -0.996264 5.77469 0
M  V30 10451 N 1766.01 -0.0501916 4.62973 0
M  V30 10452 H 1763.17 0.374722 8.67691 0
M  V30 10453 H 1762.9 0.443485 6.90277 0
M  V30 10454 H 1763.77 -1.75537 7.96793 0
M  V30 10455 P 1767.73 -2.75334 8.47391 0
M  V30 10456 O 1767.95 -3.84166 9.4489 0
M  V30 10457 O 1768.52 -1.51964 8.6881 0
M  V30 10458 O 1767.98 -3.29363 6.99321 0
M  V30 10459 C 1767.04 -4.23956 6.42656 0
M  V30 10460 C 1767.77 -5.20775 5.52155 0
M  V30 10461 O 1767.98 -4.56534 4.22446 0
M  V30 10462 C 1769.17 -5.62629 5.96531 0
M  V30 10463 O 1769.56 -6.87667 5.41053 0
M  V30 10464 C 1770.05 -4.52537 5.39283 0
M  V30 10465 C 1769.34 -4.20027 4.08623 0
M  V30 10466 N 1769.39 -2.7613 3.71522 0
M  V30 10467 C 1769.54 -2.45612 2.37989 0
M  V30 10468 O 1769.63 -3.30919 1.51621 0
M  V30 10469 N 1769.58 -1.10684 2.08435 0
M  V30 10470 C 1769.49 -0.0690084 2.9792 0
M  V30 10471 O 1769.54 1.10553 2.59426 0
M  V30 10472 C 1769.34 -0.481522 4.35345 0
M  V30 10473 C 1769.23 0.618778 5.36443 0
M  V30 10474 C 1769.29 -1.78906 4.67968 0
M  V30 10475 H 1766.55 -4.797 7.24003 0
M  V30 10476 H 1766.28 -3.69802 5.84429 0
M  V30 10477 H 1767.15 -6.10356 5.41441 0
M  V30 10478 H 1769.8 -4.78651 3.27911 0
M  V30 10479 H 1770.08 -3.64957 6.05871 0
M  V30 10480 H 1771.07 -4.8868 5.2125 0
M  V30 10481 H 1769.24 -5.66726 7.06352 0
M  V30 10482 H 1769.17 -2.07737 5.72367 0
M  V30 10483 H 1770.2 0.754375 5.86871 0
M  V30 10484 H 1768.46 0.359721 6.10641 0
M  V30 10485 H 1768.95 1.55533 4.8581 0
M  V30 10486 H 1769.69 -0.862651 1.12037 0
M  V30 10487 P 1771.11 -7.20834 5.23717 0
M  V30 10488 O 1771.33 -8.66104 5.38572 0
M  V30 10489 O 1771.9 -6.33544 6.1349 0
M  V30 10490 O 1771.36 -6.7751 3.72168 0
M  V30 10491 C 1770.42 -7.20825 2.7076 0
M  V30 10492 C 1771.15 -7.45864 1.40599 0
M  V30 10493 O 1771.36 -6.17651 0.734225 0
M  V30 10494 C 1772.55 -8.05808 1.51899 0
M  V30 10495 O 1772.94 -8.74358 0.335205 0
M  V30 10496 C 1773.43 -6.83093 1.70294 0
M  V30 10497 C 1772.72 -5.79992 0.836974 0
M  V30 10498 N 1772.77 -4.41864 1.38293 0
M  V30 10499 C 1772.69 -3.99538 2.69438 0
M  V30 10500 N 1772.77 -2.69909 2.84277 0
M  V30 10501 C 1772.91 -2.21719 1.5408 0
M  V30 10502 C 1773.04 -0.891712 1.06628 0
M  V30 10503 O 1773.06 0.161298 1.70137 0
M  V30 10504 N 1773.16 -0.856846 -0.334985 0
M  V30 10505 C 1773.16 -1.9641 -1.15789 0
M  V30 10506 N 1773.29 -1.72708 -2.46522 0
M  V30 10507 N 1773.03 -3.21165 -0.713741 0
M  V30 10508 C 1772.91 -3.26797 0.639748 0
M  V30 10509 H 1769.93 -8.13644 3.0377 0
M  V30 10510 H 1769.66 -6.42788 2.55485 0
M  V30 10511 H 1770.53 -8.12039 0.792769 0
M  V30 10512 H 1773.18 -5.80061 -0.166416 0
M  V30 10513 H 1773.46 -6.51287 2.75604 0
M  V30 10514 H 1774.45 -7.01734 1.34462 0
M  V30 10515 H 1772.62 -8.73674 2.38337 0
M  V30 10516 H 1772.57 -4.68207 3.53221 0
M  V30 10517 H 1773.25 0.0398818 -0.767965 0
M  V30 10518 H 1773.29 -2.50995 -3.13503 0
M  V30 10519 H 1773.39 -0.759148 -2.80716 0
M  V30 10520 P 1774.49 -8.91 1.51505e-11 0
M  V30 10521 O 1774.71 -10.1726 -0.733694 0
M  V30 10522 O 1775.28 -8.73148 1.23936 0
M  V30 10523 O 1774.74 -7.66872 -0.971405 0
M  V30 10524 C 1773.8 -7.42309 -2.04641 0
M  V30 10525 C 1774.53 -6.86059 -3.24661 0
M  V30 10526 O 1774.74 -5.42847 -3.03646 0
M  V30 10527 C 1775.93 -7.41196 -3.50753 0
M  V30 10528 O 1776.32 -7.27073 -4.86816 0
M  V30 10529 C 1776.81 -6.5273 -2.63741 0
M  V30 10530 C 1776.1 -5.1842 -2.73198 0
M  V30 10531 N 1776.15 -4.38762 -1.4784 0
M  V30 10532 H 1773.31 -8.36803 -2.32493 0
M  V30 10533 H 1773.04 -6.70197 -1.71129 0
M  V30 10534 H 1773.91 -7.03551 -4.13168 0
M  V30 10535 P 1777.87 -7.20834 -5.23717 0
M  V30 10536 O 1778.09 -7.7993 -6.57351 0
M  V30 10537 O 1778.66 -7.79328 -4.13004 0
M  V30 10538 O 1778.12 -5.63315 -5.29344 0
M  V30 10539 C 1777.18 -4.80193 -6.01798 0
M  V30 10540 C 1777.91 -3.64202 -6.65911 0
M  V30 10541 O 1778.12 -2.60694 -5.64732 0
M  V30 10542 C 1779.31 -3.93473 -7.1943 0
M  V30 10543 O 1779.7 -3.02071 -8.21205 0
M  V30 10544 C 1780.19 -3.73047 -5.97036 0
M  V30 10545 C 1779.48 -2.58828 -5.25741 0
M  V30 10546 N 1779.53 -2.6801 -3.77422 0
M  V30 10547 C 1779.68 -1.50443 -3.07133 0
M  V30 10548 O 1779.77 -0.419406 -3.61576 0
M  V30 10549 N 1779.72 -1.6403 -1.69677 0
M  V30 10550 C 1779.63 -2.81206 -0.986255 0
M  V30 10551 O 1779.68 -2.80892 0.249754 0
M  V30 10552 C 1779.48 -3.99158 -1.80325 0
M  V30 10553 C 1779.37 -5.29309 -1.06921 0
M  V30 10554 C 1779.43 -3.89779 -3.1476 0
M  V30 10555 H 1776.69 -5.40332 -6.79951 0
M  V30 10556 H 1776.42 -4.41549 -5.32301 0
M  V30 10557 H 1777.29 -3.26331 -7.47797 0
M  V30 10558 H 1779.94 -1.6395 -5.56554 0
M  V30 10559 H 1780.22 -4.63439 -5.3432 0
M  V30 10560 H 1781.21 -3.44728 -6.25838 0
M  V30 10561 H 1779.38 -4.96652 -7.57263 0
M  V30 10562 H 1779.31 -4.80159 -3.74441 0
M  V30 10563 H 1780.34 -5.81459 -1.09608 0
M  V30 10564 H 1778.6 -5.9187 -1.54487 0
M  V30 10565 H 1779.09 -5.10095 -0.0220288 0
M  V30 10566 H 1779.83 -0.798962 -1.16664 0
M  V30 10567 P 1781.25 -2.75334 -8.47391 0
M  V30 10568 O 1781.47 -2.44571 -9.90142 0
M  V30 10569 O 1782.04 -3.87688 -7.92115 0
M  V30 10570 O 1781.5 -1.4459 -7.59357 0
M  V30 10571 C 1780.56 -0.347608 -7.69215 0
M  V30 10572 C 1781.29 0.96767 -7.52806 0
M  V30 10573 O 1781.5 1.21036 -6.1011 0
M  V30 10574 C 1782.69 1.04544 -8.13308 0
M  V30 10575 O 1783.08 2.38311 -8.41922 0
M  V30 10576 C 1783.57 0.491279 -7.02284 0
M  V30 10577 C 1782.86 0.996264 -5.77469 0
M  V30 10578 N 1782.91 0.0501916 -4.62973 0
M  V30 10579 C 1782.83 -1.32786 -4.63244 0
M  V30 10580 N 1782.91 -1.86957 -3.44545 0
M  V30 10581 C 1783.05 -0.780241 -2.58481 0
M  V30 10582 C 1783.18 -0.738536 -1.17757 0
M  V30 10583 O 1783.2 -1.66794 -0.372349 0
M  V30 10584 N 1783.3 0.58337 -0.711393 0
M  V30 10585 C 1783.3 1.70816 -1.51017 0
M  V30 10586 N 1783.43 2.87826 -0.880757 0
M  V30 10587 N 1783.17 1.67126 -2.8339 0
M  V30 10588 C 1783.05 0.401421 -3.30572 0
M  V30 10589 H 1780.07 -0.374722 -8.67691 0
M  V30 10590 H 1779.8 -0.443485 -6.90277 0
M  V30 10591 H 1780.67 1.75537 -7.96793 0
M  V30 10592 H 1783.32 1.95076 -5.46529 0
M  V30 10593 H 1783.6 -0.608565 -7.04577 0
M  V30 10594 H 1784.59 0.889672 -7.08939 0
M  V30 10595 H 1782.76 0.43308 -9.04564 0
M  V30 10596 H 1782.71 -1.91249 -5.54442 0
M  V30 10597 H 1783.39 0.718054 0.275244 0
M  V30 10598 H 1783.43 3.75721 -1.41832 0
M  V30 10599 H 1783.53 2.90436 0.145468 0
M  V30 10600 P 1784.63 2.75334 -8.47391 0
M  V30 10601 O 1784.85 3.84128 -9.44797 0
M  V30 10602 O 1785.42 1.51947 -8.68712 0
M  V30 10603 O 1784.88 3.29363 -6.99321 0
M  V30 10604 C 1783.94 4.24011 -6.4274 0
M  V30 10605 C 1784.67 5.20775 -5.52155 0
M  V30 10606 O 1784.88 4.56534 -4.22446 0
M  V30 10607 C 1786.07 5.62629 -5.96531 0
M  V30 10608 O 1786.46 6.87667 -5.41053 0
M  V30 10609 C 1786.95 4.52537 -5.39283 0
M  V30 10610 C 1786.24 4.20027 -4.08623 0
M  V30 10611 N 1786.29 2.76189 -3.71603 0
M  V30 10612 H 1783.45 4.797 -7.24003 0
M  V30 10613 H 1783.18 3.69856 -5.84513 0
M  V30 10614 H 1784.05 6.10356 -5.41441 0
M  V30 10615 P 1788.01 7.20834 -5.23717 0
M  V30 10616 O 1788.23 8.66274 -5.38678 0
M  V30 10617 O 1788.8 6.33687 -6.13629 0
M  V30 10618 O 1788.26 6.7751 -3.72168 0
M  V30 10619 C 1787.32 7.20919 -2.70795 0
M  V30 10620 C 1788.05 7.45864 -1.40599 0
M  V30 10621 O 1788.26 6.17751 -0.734343 0
M  V30 10622 C 1789.45 8.05906 -1.51917 0
M  V30 10623 O 1789.84 8.74358 -0.335205 0
M  V30 10624 C 1790.33 6.83093 -1.70294 0
M  V30 10625 C 1789.62 5.79992 -0.836974 0
M  V30 10626 N 1789.67 4.41864 -1.38293 0
M  V30 10627 C 1789.59 4.02089 -2.69407 0
M  V30 10628 N 1789.66 2.73403 -2.85089 0
M  V30 10629 C 1789.81 2.25086 -1.5642 0
M  V30 10630 C 1789.94 0.942887 -1.04836 0
M  V30 10631 N 1789.95 -0.150999 -1.80369 0
M  V30 10632 N 1790.06 0.812565 0.28167 0
M  V30 10633 C 1790.05 1.90572 1.03784 0
M  V30 10634 N 1789.93 3.167 0.683905 0
M  V30 10635 C 1789.81 3.26538 -0.652815 0
M  V30 10636 H 1786.83 8.13738 -3.03804 0
M  V30 10637 H 1786.56 6.42974 -2.55559 0
M  V30 10638 H 1787.43 8.12139 -0.792866 0
M  V30 10639 H 1790.08 5.80178 0.160643 0
M  V30 10640 H 1790.36 6.51379 -2.75643 0
M  V30 10641 H 1791.35 7.01832 -1.3448 0
M  V30 10642 H 1789.52 8.73771 -2.38364 0
M  V30 10643 H 1789.48 4.7189 -3.52311 0
M  V30 10644 H 1789.86 -0.0721434 -2.82608 0
M  V30 10645 H 1790.05 -1.0785 -1.36544 0
M  V30 10646 H 1790.16 1.73207 2.10241 0
M  V30 10647 P 1791.39 8.91 -1.62595e-11 0
M  V30 10648 O 1791.61 10.1726 0.733694 0
M  V30 10649 O 1792.18 8.73148 -1.23936 0
M  V30 10650 O 1791.64 7.66872 0.971405 0
M  V30 10651 C 1790.7 7.42309 2.04641 0
M  V30 10652 C 1791.43 6.86059 3.24661 0
M  V30 10653 O 1791.64 5.42847 3.03646 0
M  V30 10654 C 1792.83 7.41196 3.50753 0
M  V30 10655 O 1793.22 7.27073 4.86816 0
M  V30 10656 C 1793.71 6.5273 2.63741 0
M  V30 10657 C 1793 5.1842 2.73198 0
M  V30 10658 N 1793.05 4.38762 1.4784 0
M  V30 10659 C 1792.97 4.81605 0.168631 0
M  V30 10660 N 1793.05 3.85454 -0.713363 0
M  V30 10661 C 1793.19 2.6994 0.0566958 0
M  V30 10662 C 1793.32 1.34815 -0.338502 0
M  V30 10663 O 1793.34 0.869548 -1.47125 0
M  V30 10664 N 1793.44 0.496304 0.77465 0
M  V30 10665 C 1793.44 0.908403 2.09122 0
M  V30 10666 N 1793.57 -0.0517805 3.00955 0
M  V30 10667 N 1793.31 2.17875 2.46519 0
M  V30 10668 C 1793.19 3.01988 1.4033 0
M  V30 10669 H 1790.21 8.36803 2.32493 0
M  V30 10670 H 1789.94 6.70197 1.71129 0
M  V30 10671 H 1790.81 7.03551 4.13168 0
M  V30 10672 H 1793.46 4.59498 3.54415 0
M  V30 10673 H 1793.74 6.88898 1.59848 0
M  V30 10674 H 1794.73 6.46749 3.03687 0
M  V30 10675 H 1792.9 8.46908 3.20714 0
M  V30 10676 H 1792.85 5.86405 -0.105564 0
M  V30 10677 H 1793.53 -0.483664 0.597855 0
M  V30 10678 H 1793.57 0.187865 4.0116 0
M  V30 10679 H 1793.67 -1.03585 2.71726 0
M  V30 10680 P 1794.77 7.20834 5.23717 0
M  V30 10681 O 1794.99 7.7993 6.57351 0
M  V30 10682 O 1795.56 7.79328 4.13004 0
M  V30 10683 O 1795.02 5.63315 5.29344 0
M  V30 10684 C 1794.08 4.80193 6.01798 0
M  V30 10685 C 1794.81 3.64202 6.65911 0
M  V30 10686 O 1795.02 2.60694 5.64732 0
M  V30 10687 C 1796.21 3.93473 7.1943 0
M  V30 10688 O 1796.6 3.02071 8.21205 0
M  V30 10689 C 1797.09 3.73047 5.97036 0
M  V30 10690 C 1796.38 2.58828 5.25741 0
M  V30 10691 N 1796.43 2.6801 3.77422 0
M  V30 10692 C 1796.58 1.50443 3.07133 0
M  V30 10693 O 1796.67 0.419406 3.61576 0
M  V30 10694 N 1796.62 1.6403 1.69677 0
M  V30 10695 C 1796.53 2.81206 0.986255 0
M  V30 10696 C 1796.38 3.99158 1.80325 0
M  V30 10697 C 1796.33 3.89779 3.1476 0
M  V30 10698 H 1793.59 5.40332 6.79951 0
M  V30 10699 H 1793.32 4.41549 5.32301 0
M  V30 10700 H 1794.19 3.26331 7.47797 0
M  V30 10701 H 1796.84 1.6395 5.56554 0
M  V30 10702 H 1797.12 4.63439 5.3432 0
M  V30 10703 H 1798.11 3.44728 6.25838 0
M  V30 10704 H 1796.28 4.96652 7.57263 0
M  V30 10705 H 1796.21 4.80159 3.74441 0
M  V30 10706 P 1798.15 2.75334 8.47391 0
M  V30 10707 O 1798.37 2.44619 9.90336 0
M  V30 10708 O 1798.94 3.87776 7.92294 0
M  V30 10709 O 1798.4 1.4459 7.59357 0
M  V30 10710 C 1797.46 0.347653 7.69315 0
M  V30 10711 C 1798.19 -0.96767 7.52806 0
M  V30 10712 O 1798.4 -1.21055 6.10208 0
M  V30 10713 C 1799.59 -1.04557 8.13408 0
M  V30 10714 O 1799.98 -2.38311 8.41922 0
M  V30 10715 C 1800.47 -0.491279 7.02284 0
M  V30 10716 C 1799.76 -0.996264 5.77469 0
M  V30 10717 N 1799.81 -0.0501916 4.62973 0
M  V30 10718 H 1796.97 0.374765 8.67791 0
M  V30 10719 H 1796.7 0.443613 6.90476 0
M  V30 10720 H 1797.57 -1.75559 7.96891 0
M  V30 10721 H 1800.22 -1.94563 5.46818 0
M  V30 10722 H 1800.5 0.608651 7.04676 0
M  V30 10723 H 1801.49 -0.889796 7.09039 0
M  V30 10724 H 1799.66 -0.433128 9.04664 0
M  V30 10725 P 1801.53 -2.75334 8.47391 0
M  V30 10726 O 1801.75 -3.84128 9.44797 0
M  V30 10727 O 1802.32 -1.51947 8.68712 0
M  V30 10728 O 1801.78 -3.29363 6.99321 0
M  V30 10729 C 1800.84 -4.24011 6.4274 0
M  V30 10730 C 1801.57 -5.20775 5.52155 0
M  V30 10731 O 1801.78 -4.56534 4.22446 0
M  V30 10732 C 1802.97 -5.62629 5.96531 0
M  V30 10733 O 1803.36 -6.87667 5.41053 0
M  V30 10734 C 1803.85 -4.52537 5.39283 0
M  V30 10735 C 1803.14 -4.20027 4.08623 0
M  V30 10736 N 1803.19 -2.76189 3.71603 0
M  V30 10737 H 1800.35 -4.797 7.24003 0
M  V30 10738 H 1800.08 -3.69856 5.84513 0
M  V30 10739 H 1800.95 -6.10356 5.41441 0
M  V30 10740 P 1804.91 -7.20834 5.23717 0
M  V30 10741 O 1805.13 -8.66189 5.38625 0
M  V30 10742 O 1805.7 -6.33615 6.1356 0
M  V30 10743 O 1805.16 -6.7751 3.72168 0
M  V30 10744 C 1804.22 -7.20732 2.70725 0
M  V30 10745 C 1804.95 -7.45864 1.40599 0
M  V30 10746 O 1805.16 -6.17651 0.734225 0
M  V30 10747 C 1806.35 -8.05808 1.51899 0
M  V30 10748 O 1806.74 -8.74358 0.335205 0
M  V30 10749 C 1807.23 -6.83093 1.70294 0
M  V30 10750 C 1806.52 -5.79992 0.836974 0
M  V30 10751 N 1806.57 -4.41769 1.38263 0
M  V30 10752 C 1806.72 -3.38591 0.481702 0
M  V30 10753 O 1806.81 -3.56839 -0.718452 0
M  V30 10754 N 1806.76 -2.1206 1.03569 0
M  V30 10755 C 1806.67 -1.80696 2.36966 0
M  V30 10756 C 1806.52 -2.94845 3.23898 0
M  V30 10757 C 1806.47 -4.19803 2.73435 0
M  V30 10758 H 1803.73 -8.13644 3.0377 0
M  V30 10759 H 1803.46 -6.42695 2.55448 0
M  V30 10760 H 1804.33 -8.12039 0.792769 0
M  V30 10761 H 1806.98 -5.79978 -0.160587 0
M  V30 10762 H 1807.26 -6.51379 2.75643 0
M  V30 10763 H 1808.25 -7.01734 1.34462 0
M  V30 10764 H 1806.42 -8.73674 2.38337 0
M  V30 10765 H 1806.35 -5.04492 3.4095 0
M  V30 10766 P 1808.29 -8.91 1.73686e-11 0
M  V30 10767 O 1808.51 -10.1726 -0.733694 0
M  V30 10768 O 1809.08 -8.73148 1.23936 0
M  V30 10769 O 1808.54 -7.66872 -0.971405 0
M  V30 10770 C 1807.6 -7.42309 -2.04641 0
M  V30 10771 C 1808.33 -6.86059 -3.24661 0
M  V30 10772 O 1808.54 -5.42847 -3.03646 0
M  V30 10773 C 1809.73 -7.41196 -3.50753 0
M  V30 10774 O 1810.12 -7.27073 -4.86816 0
M  V30 10775 C 1810.61 -6.5273 -2.63741 0
M  V30 10776 C 1809.9 -5.1842 -2.73198 0
M  V30 10777 N 1809.95 -4.38762 -1.4784 0
M  V30 10778 H 1807.11 -8.36803 -2.32493 0
M  V30 10779 H 1806.84 -6.70197 -1.71129 0
M  V30 10780 H 1807.71 -7.03551 -4.13168 0
M  V30 10781 P 1811.67 -7.20834 -5.23717 0
M  V30 10782 O 1811.89 -7.79853 -6.57286 0
M  V30 10783 O 1812.46 -7.79239 -4.12957 0
M  V30 10784 O 1811.92 -5.63315 -5.29344 0
M  V30 10785 C 1810.98 -4.80255 -6.01876 0
M  V30 10786 C 1811.71 -3.64202 -6.65911 0
M  V30 10787 O 1811.92 -2.60694 -5.64732 0
M  V30 10788 C 1813.11 -3.93473 -7.1943 0
M  V30 10789 O 1813.5 -3.02071 -8.21205 0
M  V30 10790 C 1813.99 -3.73047 -5.97036 0
M  V30 10791 C 1813.28 -2.58828 -5.25741 0
M  V30 10792 N 1813.33 -2.68068 -3.77503 0
M  V30 10793 H 1810.49 -5.40332 -6.79951 0
M  V30 10794 H 1810.22 -4.41613 -5.32378 0
M  V30 10795 H 1811.09 -3.26331 -7.47797 0
M  V30 10796 P 1815.05 -2.75334 -8.47391 0
M  V30 10797 O 1815.27 -2.44571 -9.90142 0
M  V30 10798 O 1815.84 -3.87688 -7.92115 0
M  V30 10799 O 1815.3 -1.4459 -7.59357 0
M  V30 10800 C 1814.36 -0.347608 -7.69215 0
M  V30 10801 C 1815.09 0.96767 -7.52806 0
M  V30 10802 O 1815.3 1.21036 -6.1011 0
M  V30 10803 C 1816.49 1.04544 -8.13308 0
M  V30 10804 O 1816.88 2.38311 -8.41922 0
M  V30 10805 C 1817.37 0.491279 -7.02284 0
M  V30 10806 C 1816.66 0.996264 -5.77469 0
M  V30 10807 N 1816.71 0.0501916 -4.62973 0
M  V30 10808 H 1813.87 -0.374722 -8.67691 0
M  V30 10809 H 1813.6 -0.443485 -6.90277 0
M  V30 10810 H 1814.47 1.75537 -7.96793 0
M  V30 10811 P 1818.43 2.75334 -8.47391 0
M  V30 10812 O 1818.65 3.84166 -9.4489 0
M  V30 10813 O 1819.22 1.51964 -8.6881 0
M  V30 10814 O 1818.68 3.29363 -6.99321 0
M  V30 10815 C 1817.74 4.23956 -6.42656 0
M  V30 10816 C 1818.47 5.20775 -5.52155 0
M  V30 10817 O 1818.68 4.56534 -4.22446 0
M  V30 10818 C 1819.87 5.62629 -5.96531 0
M  V30 10819 O 1820.26 6.87667 -5.41053 0
M  V30 10820 C 1820.75 4.52537 -5.39283 0
M  V30 10821 C 1820.04 4.20027 -4.08623 0
M  V30 10822 N 1820.09 2.7613 -3.71522 0
M  V30 10823 C 1820.24 2.45612 -2.37989 0
M  V30 10824 O 1820.33 3.30919 -1.51621 0
M  V30 10825 N 1820.28 1.10684 -2.08435 0
M  V30 10826 C 1820.19 0.0690084 -2.9792 0
M  V30 10827 O 1820.24 -1.10553 -2.59426 0
M  V30 10828 C 1820.04 0.481522 -4.35345 0
M  V30 10829 C 1819.93 -0.618778 -5.36443 0
M  V30 10830 C 1819.99 1.78906 -4.67968 0
M  V30 10831 H 1817.25 4.797 -7.24003 0
M  V30 10832 H 1816.98 3.69802 -5.84429 0
M  V30 10833 H 1817.85 6.10356 -5.41441 0
M  V30 10834 H 1820.5 4.78651 -3.27911 0
M  V30 10835 H 1820.78 3.64957 -6.05871 0
M  V30 10836 H 1821.77 4.8868 -5.2125 0
M  V30 10837 H 1819.94 5.66726 -7.06352 0
M  V30 10838 H 1819.87 2.07737 -5.72367 0
M  V30 10839 H 1820.9 -0.754375 -5.86871 0
M  V30 10840 H 1819.16 -0.359721 -6.10641 0
M  V30 10841 H 1819.65 -1.55533 -4.8581 0
M  V30 10842 H 1820.39 0.862651 -1.12037 0
M  V30 10843 P 1821.81 7.20834 -5.23717 0
M  V30 10844 O 1822.03 8.66104 -5.38572 0
M  V30 10845 O 1822.6 6.33544 -6.1349 0
M  V30 10846 O 1822.06 6.7751 -3.72168 0
M  V30 10847 C 1821.12 7.20825 -2.7076 0
M  V30 10848 C 1821.85 7.45864 -1.40599 0
M  V30 10849 O 1822.06 6.17651 -0.734225 0
M  V30 10850 C 1823.25 8.05808 -1.51899 0
M  V30 10851 O 1823.64 8.74358 -0.335205 0
M  V30 10852 C 1824.13 6.83093 -1.70294 0
M  V30 10853 C 1823.42 5.79992 -0.836974 0
M  V30 10854 N 1823.47 4.41864 -1.38293 0
M  V30 10855 C 1823.39 3.99538 -2.69438 0
M  V30 10856 N 1823.47 2.69909 -2.84277 0
M  V30 10857 C 1823.61 2.21719 -1.5408 0
M  V30 10858 C 1823.74 0.891712 -1.06628 0
M  V30 10859 O 1823.76 -0.161298 -1.70137 0
M  V30 10860 N 1823.86 0.856846 0.334985 0
M  V30 10861 C 1823.86 1.9641 1.15789 0
M  V30 10862 N 1823.99 1.72708 2.46522 0
M  V30 10863 N 1823.73 3.21165 0.713741 0
M  V30 10864 C 1823.61 3.26797 -0.639748 0
M  V30 10865 H 1820.63 8.13644 -3.0377 0
M  V30 10866 H 1820.36 6.42788 -2.55485 0
M  V30 10867 H 1821.23 8.12039 -0.792769 0
M  V30 10868 H 1823.88 5.80061 0.166416 0
M  V30 10869 H 1824.16 6.51287 -2.75604 0
M  V30 10870 H 1825.15 7.01734 -1.34462 0
M  V30 10871 H 1823.32 8.73674 -2.38337 0
M  V30 10872 H 1823.27 4.68207 -3.53221 0
M  V30 10873 H 1823.95 -0.0398818 0.767965 0
M  V30 10874 H 1823.99 2.50995 3.13503 0
M  V30 10875 H 1824.09 0.759148 2.80716 0
M  V30 10876 P 1825.19 8.91 -1.84776e-11 0
M  V30 10877 O 1825.41 10.1746 0.733838 0
M  V30 10878 O 1825.98 8.73346 -1.23964 0
M  V30 10879 O 1825.44 7.66872 0.971405 0
M  V30 10880 C 1824.5 7.42405 2.04668 0
M  V30 10881 C 1825.23 6.86059 3.24661 0
M  V30 10882 O 1825.44 5.42934 3.03695 0
M  V30 10883 C 1826.63 7.41287 3.50796 0
M  V30 10884 O 1827.02 7.27073 4.86816 0
M  V30 10885 C 1827.51 6.5273 2.63741 0
M  V30 10886 C 1826.8 5.1842 2.73198 0
M  V30 10887 N 1826.85 4.38762 1.4784 0
M  V30 10888 H 1824.01 8.36899 2.3252 0
M  V30 10889 H 1823.74 6.70391 1.71179 0
M  V30 10890 H 1824.61 7.03638 4.13219 0
M  V30 10891 H 1827.26 4.59931 3.54016 0
M  V30 10892 H 1827.54 6.88995 1.59871 0
M  V30 10893 H 1828.53 6.4684 3.0373 0
M  V30 10894 H 1826.7 8.47002 3.20749 0
M  V30 10895 P 1828.57 7.20834 5.23717 0
M  V30 10896 O 1828.79 7.79853 6.57286 0
M  V30 10897 O 1829.36 7.79239 4.12957 0
M  V30 10898 O 1828.82 5.63315 5.29344 0
M  V30 10899 C 1827.88 4.80255 6.01876 0
M  V30 10900 C 1828.61 3.64202 6.65911 0
M  V30 10901 O 1828.82 2.60694 5.64732 0
M  V30 10902 C 1830.01 3.93473 7.1943 0
M  V30 10903 O 1830.4 3.02071 8.21205 0
M  V30 10904 C 1830.89 3.73047 5.97036 0
M  V30 10905 C 1830.18 2.58828 5.25741 0
M  V30 10906 N 1830.23 2.68068 3.77503 0
M  V30 10907 H 1827.39 5.40332 6.79951 0
M  V30 10908 H 1827.12 4.41613 5.32378 0
M  V30 10909 H 1827.99 3.26331 7.47797 0
M  V30 10910 P 1831.95 2.75334 8.47391 0
M  V30 10911 O 1832.17 2.44571 9.90142 0
M  V30 10912 O 1832.74 3.87688 7.92115 0
M  V30 10913 O 1832.2 1.4459 7.59357 0
M  V30 10914 C 1831.26 0.347608 7.69215 0
M  V30 10915 C 1831.99 -0.96767 7.52806 0
M  V30 10916 O 1832.2 -1.21036 6.1011 0
M  V30 10917 C 1833.39 -1.04544 8.13308 0
M  V30 10918 O 1833.78 -2.38311 8.41922 0
M  V30 10919 C 1834.27 -0.491279 7.02284 0
M  V30 10920 C 1833.56 -0.996264 5.77469 0
M  V30 10921 N 1833.61 -0.0501916 4.62973 0
M  V30 10922 H 1830.77 0.374722 8.67691 0
M  V30 10923 H 1830.5 0.443485 6.90277 0
M  V30 10924 H 1831.37 -1.75537 7.96793 0
M  V30 10925 P 1835.33 -2.75334 8.47391 0
M  V30 10926 O 1835.55 -3.84128 9.44797 0
M  V30 10927 O 1836.12 -1.51947 8.68712 0
M  V30 10928 O 1835.58 -3.29363 6.99321 0
M  V30 10929 C 1834.64 -4.24011 6.4274 0
M  V30 10930 C 1835.37 -5.20775 5.52155 0
M  V30 10931 O 1835.58 -4.56534 4.22446 0
M  V30 10932 C 1836.77 -5.62629 5.96531 0
M  V30 10933 O 1837.16 -6.87667 5.41053 0
M  V30 10934 C 1837.65 -4.52537 5.39283 0
M  V30 10935 C 1836.94 -4.20027 4.08623 0
M  V30 10936 N 1836.99 -2.76189 3.71603 0
M  V30 10937 H 1834.15 -4.797 7.24003 0
M  V30 10938 H 1833.88 -3.69856 5.84513 0
M  V30 10939 H 1834.75 -6.10356 5.41441 0
M  V30 10940 P 1838.71 -7.20834 5.23717 0
M  V30 10941 O 1838.93 -8.66104 5.38572 0
M  V30 10942 O 1839.5 -6.33544 6.1349 0
M  V30 10943 O 1838.96 -6.7751 3.72168 0
M  V30 10944 C 1838.02 -7.20825 2.7076 0
M  V30 10945 C 1838.75 -7.45864 1.40599 0
M  V30 10946 O 1838.96 -6.17651 0.734225 0
M  V30 10947 C 1840.15 -8.05808 1.51899 0
M  V30 10948 O 1840.54 -8.74358 0.335205 0
M  V30 10949 C 1841.03 -6.83093 1.70294 0
M  V30 10950 C 1840.32 -5.79992 0.836974 0
M  V30 10951 N 1840.37 -4.41864 1.38293 0
M  V30 10952 H 1837.53 -8.13644 3.0377 0
M  V30 10953 H 1837.26 -6.42788 2.55485 0
M  V30 10954 H 1838.13 -8.12039 0.792769 0
M  V30 10955 P 1842.09 -8.91 1.95866e-11 0
M  V30 10956 O 1842.31 -10.1726 -0.733694 0
M  V30 10957 O 1842.88 -8.73148 1.23936 0
M  V30 10958 O 1842.34 -7.66872 -0.971405 0
M  V30 10959 C 1841.4 -7.42309 -2.04641 0
M  V30 10960 C 1842.13 -6.86059 -3.24661 0
M  V30 10961 O 1842.34 -5.42847 -3.03646 0
M  V30 10962 C 1843.53 -7.41196 -3.50753 0
M  V30 10963 O 1843.92 -7.27073 -4.86816 0
M  V30 10964 C 1844.41 -6.5273 -2.63741 0
M  V30 10965 C 1843.7 -5.1842 -2.73198 0
M  V30 10966 N 1843.75 -4.38762 -1.4784 0
M  V30 10967 H 1840.91 -8.36803 -2.32493 0
M  V30 10968 H 1840.64 -6.70197 -1.71129 0
M  V30 10969 H 1841.51 -7.03551 -4.13168 0
M  V30 10970 P 1845.47 -7.20834 -5.23717 0
M  V30 10971 O 1845.69 -7.7993 -6.57351 0
M  V30 10972 O 1846.26 -7.79328 -4.13004 0
M  V30 10973 O 1845.72 -5.63315 -5.29344 0
M  V30 10974 C 1844.78 -4.80193 -6.01798 0
M  V30 10975 C 1845.51 -3.64202 -6.65911 0
M  V30 10976 O 1845.72 -2.60694 -5.64732 0
M  V30 10977 C 1846.91 -3.93473 -7.1943 0
M  V30 10978 O 1847.3 -3.02071 -8.21205 0
M  V30 10979 C 1847.79 -3.73047 -5.97036 0
M  V30 10980 C 1847.08 -2.58828 -5.25741 0
M  V30 10981 N 1847.13 -2.6801 -3.77422 0
M  V30 10982 C 1847.28 -1.50443 -3.07133 0
M  V30 10983 O 1847.37 -0.419406 -3.61576 0
M  V30 10984 N 1847.32 -1.6403 -1.69677 0
M  V30 10985 C 1847.23 -2.81206 -0.986255 0
M  V30 10986 C 1847.08 -3.99158 -1.80325 0
M  V30 10987 C 1847.03 -3.89779 -3.1476 0
M  V30 10988 H 1844.29 -5.40332 -6.79951 0
M  V30 10989 H 1844.02 -4.41549 -5.32301 0
M  V30 10990 H 1844.89 -3.26331 -7.47797 0
M  V30 10991 H 1847.54 -1.6395 -5.56554 0
M  V30 10992 H 1847.82 -4.63439 -5.3432 0
M  V30 10993 H 1848.81 -3.44728 -6.25838 0
M  V30 10994 H 1846.98 -4.96652 -7.57263 0
M  V30 10995 H 1846.91 -4.80159 -3.74441 0
M  V30 10996 P 1848.85 -2.75334 -8.47391 0
M  V30 10997 O 1849.07 -2.44571 -9.90142 0
M  V30 10998 O 1849.64 -3.87688 -7.92115 0
M  V30 10999 O 1849.1 -1.4459 -7.59357 0
M  V30 11000 C 1848.16 -0.347608 -7.69215 0
M  V30 11001 C 1848.89 0.96767 -7.52806 0
M  V30 11002 O 1849.1 1.21036 -6.1011 0
M  V30 11003 C 1850.29 1.04544 -8.13308 0
M  V30 11004 O 1850.68 2.38311 -8.41922 0
M  V30 11005 C 1851.17 0.491279 -7.02284 0
M  V30 11006 C 1850.46 0.996264 -5.77469 0
M  V30 11007 N 1850.51 0.0501916 -4.62973 0
M  V30 11008 H 1847.67 -0.374722 -8.67691 0
M  V30 11009 H 1847.4 -0.443485 -6.90277 0
M  V30 11010 H 1848.27 1.75537 -7.96793 0
M  V30 11011 P 1852.23 2.75334 -8.47391 0
M  V30 11012 O 1852.45 3.84128 -9.44797 0
M  V30 11013 O 1853.02 1.51947 -8.68712 0
M  V30 11014 O 1852.48 3.29363 -6.99321 0
M  V30 11015 C 1851.54 4.24011 -6.4274 0
M  V30 11016 C 1852.27 5.20775 -5.52155 0
M  V30 11017 O 1852.48 4.56534 -4.22446 0
M  V30 11018 C 1853.67 5.62629 -5.96531 0
M  V30 11019 O 1854.06 6.87667 -5.41053 0
M  V30 11020 C 1854.55 4.52537 -5.39283 0
M  V30 11021 C 1853.84 4.20027 -4.08623 0
M  V30 11022 N 1853.89 2.76189 -3.71603 0
M  V30 11023 C 1853.81 1.64862 -4.52822 0
M  V30 11024 N 1853.89 0.512671 -3.88633 0
M  V30 11025 C 1854.03 0.888083 -2.54977 0
M  V30 11026 C 1854.16 0.094668 -1.38677 0
M  V30 11027 O 1854.18 -1.13053 -1.28163 0
M  V30 11028 N 1854.28 0.890102 -0.232633 0
M  V30 11029 C 1854.28 2.26958 -0.21772 0
M  V30 11030 N 1854.41 2.84626 0.97925 0
M  V30 11031 N 1854.15 3.0178 -1.31033 0
M  V30 11032 C 1854.03 2.26781 -2.43843 0
M  V30 11033 H 1851.05 4.797 -7.24003 0
M  V30 11034 H 1850.78 3.69856 -5.84513 0
M  V30 11035 H 1851.65 6.10356 -5.41441 0
M  V30 11036 H 1854.3 4.79061 -3.27488 0
M  V30 11037 H 1854.58 3.64906 -6.05785 0
M  V30 11038 H 1855.57 4.8868 -5.2125 0
M  V30 11039 H 1853.74 5.66726 -7.06352 0
M  V30 11040 H 1853.69 1.71169 -5.60966 0
M  V30 11041 H 1854.37 0.419134 0.644739 0
M  V30 11042 H 1854.41 3.87332 1.06098 0
M  V30 11043 H 1854.51 2.26417 1.82483 0
M  V30 11044 P 1855.61 7.20834 -5.23717 0
M  V30 11045 O 1855.83 8.66104 -5.38572 0
M  V30 11046 O 1856.4 6.33544 -6.1349 0
M  V30 11047 O 1855.86 6.7751 -3.72168 0
M  V30 11048 C 1854.92 7.20825 -2.7076 0
M  V30 11049 C 1855.65 7.45864 -1.40599 0
M  V30 11050 O 1855.86 6.17651 -0.734225 0
M  V30 11051 C 1857.05 8.05808 -1.51899 0
M  V30 11052 O 1857.44 8.74358 -0.335205 0
M  V30 11053 C 1857.93 6.83093 -1.70294 0
M  V30 11054 C 1857.22 5.79992 -0.836974 0
M  V30 11055 N 1857.27 4.41864 -1.38293 0
M  V30 11056 H 1854.43 8.13644 -3.0377 0
M  V30 11057 H 1854.16 6.42788 -2.55485 0
M  V30 11058 H 1855.03 8.12039 -0.792769 0
M  V30 11059 P 1858.99 8.91 -2.06956e-11 0
M  V30 11060 O 1859.21 10.1726 0.733694 0
M  V30 11061 O 1859.78 8.73148 -1.23936 0
M  V30 11062 O 1859.24 7.66872 0.971405 0
M  V30 11063 C 1858.3 7.42309 2.04641 0
M  V30 11064 C 1859.03 6.86059 3.24661 0
M  V30 11065 O 1859.24 5.42847 3.03646 0
M  V30 11066 C 1860.43 7.41196 3.50753 0
M  V30 11067 O 1860.82 7.27073 4.86816 0
M  V30 11068 C 1861.31 6.5273 2.63741 0
M  V30 11069 C 1860.6 5.1842 2.73198 0
M  V30 11070 N 1860.65 4.38762 1.4784 0
M  V30 11071 H 1857.81 8.36803 2.32493 0
M  V30 11072 H 1857.54 6.70197 1.71129 0
M  V30 11073 H 1858.41 7.03551 4.13168 0
M  V30 11074 P 1862.37 7.20834 5.23717 0
M  V30 11075 O 1862.59 7.79853 6.57286 0
M  V30 11076 O 1863.16 7.79239 4.12957 0
M  V30 11077 O 1862.62 5.63315 5.29344 0
M  V30 11078 C 1861.68 4.80255 6.01876 0
M  V30 11079 C 1862.41 3.64202 6.65911 0
M  V30 11080 O 1862.62 2.60694 5.64732 0
M  V30 11081 C 1863.81 3.93473 7.1943 0
M  V30 11082 O 1864.2 3.02071 8.21205 0
M  V30 11083 C 1864.69 3.73047 5.97036 0
M  V30 11084 C 1863.98 2.58828 5.25741 0
M  V30 11085 N 1864.03 2.68068 3.77503 0
M  V30 11086 H 1861.19 5.40332 6.79951 0
M  V30 11087 H 1860.92 4.41613 5.32378 0
M  V30 11088 H 1861.79 3.26331 7.47797 0
M  V30 11089 P 1865.75 2.75334 8.47391 0
M  V30 11090 O 1865.97 2.44571 9.90142 0
M  V30 11091 O 1866.54 3.87688 7.92115 0
M  V30 11092 O 1866 1.4459 7.59357 0
M  V30 11093 C 1865.06 0.347608 7.69215 0
M  V30 11094 C 1865.79 -0.96767 7.52806 0
M  V30 11095 O 1866 -1.21036 6.1011 0
M  V30 11096 C 1867.19 -1.04544 8.13308 0
M  V30 11097 O 1867.58 -2.38311 8.41922 0
M  V30 11098 C 1868.07 -0.491279 7.02284 0
M  V30 11099 C 1867.36 -0.996264 5.77469 0
M  V30 11100 N 1867.41 -0.0501916 4.62973 0
M  V30 11101 H 1864.57 0.374722 8.67691 0
M  V30 11102 H 1864.3 0.443485 6.90277 0
M  V30 11103 H 1865.17 -1.75537 7.96793 0
M  V30 11104 P 1869.13 -2.75334 8.47391 0
M  V30 11105 O 1869.35 -3.84204 9.44982 0
M  V30 11106 O 1869.92 -1.51982 8.68909 0
M  V30 11107 O 1869.38 -3.29363 6.99321 0
M  V30 11108 C 1868.44 -4.24066 6.42823 0
M  V30 11109 C 1869.17 -5.20775 5.52155 0
M  V30 11110 O 1869.38 -4.56607 4.22514 0
M  V30 11111 C 1870.57 -5.62697 5.96604 0
M  V30 11112 O 1870.96 -6.87667 5.41053 0
M  V30 11113 C 1871.45 -4.52537 5.39283 0
M  V30 11114 C 1870.74 -4.20027 4.08623 0
M  V30 11115 N 1870.79 -2.76189 3.71603 0
M  V30 11116 H 1867.95 -4.79756 7.24086 0
M  V30 11117 H 1867.68 -3.69963 5.84682 0
M  V30 11118 H 1868.55 -6.10431 5.41508 0
M  V30 11119 H 1871.2 -4.78816 3.28024 0
M  V30 11120 H 1871.48 -3.64957 6.05871 0
M  V30 11121 H 1872.47 -4.88748 5.21323 0
M  V30 11122 H 1870.64 -5.66789 7.0643 0
M  V30 11123 P 1872.51 -7.20834 5.23717 0
M  V30 11124 O 1872.73 -8.66104 5.38572 0
M  V30 11125 O 1873.3 -6.33544 6.1349 0
M  V30 11126 O 1872.76 -6.7751 3.72168 0
M  V30 11127 C 1871.82 -7.20825 2.7076 0
M  V30 11128 C 1872.55 -7.45864 1.40599 0
M  V30 11129 O 1872.76 -6.17651 0.734225 0
M  V30 11130 C 1873.95 -8.05808 1.51899 0
M  V30 11131 O 1874.34 -8.74358 0.335205 0
M  V30 11132 C 1874.83 -6.83093 1.70294 0
M  V30 11133 C 1874.12 -5.79992 0.836974 0
M  V30 11134 N 1874.17 -4.41864 1.38293 0
M  V30 11135 H 1871.33 -8.13644 3.0377 0
M  V30 11136 H 1871.06 -6.42788 2.55485 0
M  V30 11137 H 1871.93 -8.12039 0.792769 0
M  V30 11138 P 1875.89 -8.91 2.18046e-11 0
M  V30 11139 O 1876.11 -10.1726 -0.733694 0
M  V30 11140 O 1876.68 -8.73148 1.23936 0
M  V30 11141 O 1876.14 -7.66872 -0.971405 0
M  V30 11142 C 1875.2 -7.42309 -2.04641 0
M  V30 11143 C 1875.93 -6.86059 -3.24661 0
M  V30 11144 O 1876.14 -5.42847 -3.03646 0
M  V30 11145 C 1877.33 -7.41196 -3.50753 0
M  V30 11146 O 1877.72 -7.27073 -4.86816 0
M  V30 11147 C 1878.21 -6.5273 -2.63741 0
M  V30 11148 C 1877.5 -5.1842 -2.73198 0
M  V30 11149 N 1877.55 -4.38762 -1.4784 0
M  V30 11150 H 1874.71 -8.36803 -2.32493 0
M  V30 11151 H 1874.44 -6.70197 -1.71129 0
M  V30 11152 H 1875.31 -7.03551 -4.13168 0
M  V30 11153 P 1879.27 -7.20834 -5.23717 0
M  V30 11154 O 1879.49 -7.79853 -6.57286 0
M  V30 11155 O 1880.06 -7.79239 -4.12957 0
M  V30 11156 O 1879.52 -5.63315 -5.29344 0
M  V30 11157 C 1878.58 -4.80255 -6.01876 0
M  V30 11158 C 1879.31 -3.64202 -6.65911 0
M  V30 11159 O 1879.52 -2.60694 -5.64732 0
M  V30 11160 C 1880.71 -3.93473 -7.1943 0
M  V30 11161 O 1881.1 -3.02071 -8.21205 0
M  V30 11162 C 1881.59 -3.73047 -5.97036 0
M  V30 11163 C 1880.88 -2.58828 -5.25741 0
M  V30 11164 N 1880.93 -2.68068 -3.77503 0
M  V30 11165 H 1878.09 -5.40332 -6.79951 0
M  V30 11166 H 1877.82 -4.41613 -5.32378 0
M  V30 11167 H 1878.69 -3.26331 -7.47797 0
M  V30 11168 P 1882.65 -2.75334 -8.47391 0
M  V30 11169 O 1882.87 -2.44595 -9.90239 0
M  V30 11170 O 1883.44 -3.87732 -7.92204 0
M  V30 11171 O 1882.9 -1.4459 -7.59357 0
M  V30 11172 C 1881.96 -0.347563 -7.69115 0
M  V30 11173 C 1882.69 0.96767 -7.52806 0
M  V30 11174 O 1882.9 1.21036 -6.1011 0
M  V30 11175 C 1884.09 1.04544 -8.13308 0
M  V30 11176 O 1884.48 2.38311 -8.41922 0
M  V30 11177 C 1884.97 0.491279 -7.02284 0
M  V30 11178 C 1884.26 0.996264 -5.77469 0
M  V30 11179 N 1884.31 0.0501808 -4.62873 0
M  V30 11180 C 1884.46 0.588177 -3.36904 0
M  V30 11181 O 1884.55 1.78598 -3.17173 0
M  V30 11182 N 1884.5 -0.329694 -2.33686 0
M  V30 11183 C 1884.41 -1.6953 -2.45079 0
M  V30 11184 O 1884.46 -2.41926 -1.44899 0
M  V30 11185 C 1884.26 -2.16933 -3.80505 0
M  V30 11186 C 1884.15 -3.65373 -3.97621 0
M  V30 11187 C 1884.21 -1.30326 -4.83752 0
M  V30 11188 H 1881.47 -0.374722 -8.67691 0
M  V30 11189 H 1881.2 -0.443421 -6.90177 0
M  V30 11190 H 1882.07 1.75537 -7.96793 0
M  V30 11191 H 1884.72 1.94496 -5.46629 0
M  V30 11192 H 1885 -0.608651 -7.04676 0
M  V30 11193 H 1885.99 0.889672 -7.08939 0
M  V30 11194 H 1884.16 0.43308 -9.04564 0
M  V30 11195 H 1884.09 -1.68366 -5.8516 0
M  V30 11196 H 1885.12 -4.05985 -4.30448 0
M  V30 11197 H 1883.38 -3.88028 -4.72875 0
M  V30 11198 H 1883.87 -4.11381 -3.01609 0
M  V30 11199 H 1884.6 0.0393617 -1.41345 0
M  V30 11200 P 1886.03 2.75334 -8.47391 0
M  V30 11201 O 1886.25 3.84128 -9.44797 0
M  V30 11202 O 1886.82 1.51947 -8.68712 0
M  V30 11203 O 1886.28 3.29363 -6.99321 0
M  V30 11204 C 1885.34 4.24011 -6.4274 0
M  V30 11205 C 1886.07 5.20775 -5.52155 0
M  V30 11206 O 1886.28 4.56534 -4.22446 0
M  V30 11207 C 1887.47 5.62629 -5.96531 0
M  V30 11208 O 1887.86 6.87667 -5.41053 0
M  V30 11209 C 1888.35 4.52537 -5.39283 0
M  V30 11210 C 1887.64 4.20027 -4.08623 0
M  V30 11211 N 1887.69 2.76189 -3.71603 0
M  V30 11212 H 1884.85 4.797 -7.24003 0
M  V30 11213 H 1884.58 3.69856 -5.84513 0
M  V30 11214 H 1885.45 6.10356 -5.41441 0
M  V30 11215 P 1889.41 7.20834 -5.23717 0
M  V30 11216 O 1889.63 8.66274 -5.38678 0
M  V30 11217 O 1890.2 6.33687 -6.13629 0
M  V30 11218 O 1889.66 6.7751 -3.72168 0
M  V30 11219 C 1888.72 7.20919 -2.70795 0
M  V30 11220 C 1889.45 7.45864 -1.40599 0
M  V30 11221 O 1889.66 6.17751 -0.734343 0
M  V30 11222 C 1890.85 8.05906 -1.51917 0
M  V30 11223 O 1891.24 8.74358 -0.335205 0
M  V30 11224 C 1891.73 6.83093 -1.70294 0
M  V30 11225 C 1891.02 5.79992 -0.836974 0
M  V30 11226 N 1891.07 4.41864 -1.38293 0
M  V30 11227 H 1888.23 8.13738 -3.03804 0
M  V30 11228 H 1887.96 6.42974 -2.55559 0
M  V30 11229 H 1888.83 8.12139 -0.792866 0
M  V30 11230 H 1891.48 5.80178 0.160643 0
M  V30 11231 H 1891.76 6.51379 -2.75643 0
M  V30 11232 H 1892.75 7.01832 -1.3448 0
M  V30 11233 H 1890.92 8.73771 -2.38364 0
M  V30 11234 P 1892.79 8.91 -2.29136e-11 0
M  V30 11235 O 1893.01 10.1726 0.733694 0
M  V30 11236 O 1893.58 8.73148 -1.23936 0
M  V30 11237 O 1893.04 7.66872 0.971405 0
M  V30 11238 C 1892.1 7.42309 2.04641 0
M  V30 11239 C 1892.83 6.86059 3.24661 0
M  V30 11240 O 1893.04 5.42847 3.03646 0
M  V30 11241 C 1894.23 7.41196 3.50753 0
M  V30 11242 O 1894.62 7.27073 4.86816 0
M  V30 11243 C 1895.11 6.5273 2.63741 0
M  V30 11244 C 1894.4 5.1842 2.73198 0
M  V30 11245 N 1894.45 4.38762 1.4784 0
M  V30 11246 H 1891.61 8.36803 2.32493 0
M  V30 11247 H 1891.34 6.70197 1.71129 0
M  V30 11248 H 1892.21 7.03551 4.13168 0
M  V30 11249 P 1896.17 7.20834 5.23717 0
M  V30 11250 O 1896.39 7.79853 6.57286 0
M  V30 11251 O 1896.96 7.79239 4.12957 0
M  V30 11252 O 1896.42 5.63315 5.29344 0
M  V30 11253 C 1895.48 4.80255 6.01876 0
M  V30 11254 C 1896.21 3.64202 6.65911 0
M  V30 11255 O 1896.42 2.60694 5.64732 0
M  V30 11256 C 1897.61 3.93473 7.1943 0
M  V30 11257 O 1898 3.02071 8.21205 0
M  V30 11258 C 1898.49 3.73047 5.97036 0
M  V30 11259 C 1897.78 2.58828 5.25741 0
M  V30 11260 N 1897.83 2.68068 3.77503 0
M  V30 11261 H 1894.99 5.40332 6.79951 0
M  V30 11262 H 1894.72 4.41613 5.32378 0
M  V30 11263 H 1895.59 3.26331 7.47797 0
M  V30 11264 P 1899.55 2.75334 8.47391 0
M  V30 11265 O 1899.77 2.44571 9.90142 0
M  V30 11266 O 1900.34 3.87688 7.92115 0
M  V30 11267 O 1899.8 1.4459 7.59357 0
M  V30 11268 C 1898.86 0.347608 7.69215 0
M  V30 11269 C 1899.59 -0.96767 7.52806 0
M  V30 11270 O 1899.8 -1.21036 6.1011 0
M  V30 11271 C 1900.99 -1.04544 8.13308 0
M  V30 11272 O 1901.38 -2.38311 8.41922 0
M  V30 11273 C 1901.87 -0.491279 7.02284 0
M  V30 11274 C 1901.16 -0.996264 5.77469 0
M  V30 11275 N 1901.21 -0.0501916 4.62973 0
M  V30 11276 H 1898.37 0.374722 8.67691 0
M  V30 11277 H 1898.1 0.443485 6.90277 0
M  V30 11278 H 1898.97 -1.75537 7.96793 0
M  V30 11279 P 1902.93 -2.75334 8.47391 0
M  V30 11280 O 1903.15 -3.84166 9.4489 0
M  V30 11281 O 1903.72 -1.51964 8.6881 0
M  V30 11282 O 1903.18 -3.29363 6.99321 0
M  V30 11283 C 1902.24 -4.23956 6.42656 0
M  V30 11284 C 1902.97 -5.20775 5.52155 0
M  V30 11285 O 1903.18 -4.56534 4.22446 0
M  V30 11286 C 1904.37 -5.62629 5.96531 0
M  V30 11287 O 1904.76 -6.87667 5.41053 0
M  V30 11288 C 1905.25 -4.52537 5.39283 0
M  V30 11289 C 1904.54 -4.20027 4.08623 0
M  V30 11290 N 1904.59 -2.7613 3.71522 0
M  V30 11291 C 1904.74 -2.45612 2.37989 0
M  V30 11292 O 1904.83 -3.30919 1.51621 0
M  V30 11293 N 1904.78 -1.10684 2.08435 0
M  V30 11294 C 1904.69 -0.0690084 2.9792 0
M  V30 11295 O 1904.74 1.10553 2.59426 0
M  V30 11296 C 1904.54 -0.481522 4.35345 0
M  V30 11297 C 1904.43 0.618778 5.36443 0
M  V30 11298 C 1904.49 -1.78906 4.67968 0
M  V30 11299 H 1901.75 -4.797 7.24003 0
M  V30 11300 H 1901.48 -3.69802 5.84429 0
M  V30 11301 H 1902.35 -6.10356 5.41441 0
M  V30 11302 H 1905 -4.78651 3.27911 0
M  V30 11303 H 1905.28 -3.64957 6.05871 0
M  V30 11304 H 1906.27 -4.8868 5.2125 0
M  V30 11305 H 1904.44 -5.66726 7.06352 0
M  V30 11306 H 1904.37 -2.07737 5.72367 0
M  V30 11307 H 1905.4 0.754375 5.86871 0
M  V30 11308 H 1903.66 0.359721 6.10641 0
M  V30 11309 H 1904.15 1.55533 4.8581 0
M  V30 11310 H 1904.88 -0.862651 1.12037 0
M  V30 11311 P 1906.31 -7.20834 5.23717 0
M  V30 11312 O 1906.53 -8.66104 5.38572 0
M  V30 11313 O 1907.1 -6.33544 6.1349 0
M  V30 11314 O 1906.56 -6.7751 3.72168 0
M  V30 11315 C 1905.62 -7.20825 2.7076 0
M  V30 11316 C 1906.35 -7.45864 1.40599 0
M  V30 11317 O 1906.56 -6.17651 0.734225 0
M  V30 11318 C 1907.75 -8.05808 1.51899 0
M  V30 11319 O 1908.14 -8.74358 0.335205 0
M  V30 11320 C 1908.63 -6.83093 1.70294 0
M  V30 11321 C 1907.92 -5.79992 0.836974 0
M  V30 11322 N 1907.97 -4.41864 1.38293 0
M  V30 11323 H 1905.13 -8.13644 3.0377 0
M  V30 11324 H 1904.86 -6.42788 2.55485 0
M  V30 11325 H 1905.73 -8.12039 0.792769 0
M  V30 11326 P 1909.69 -8.91 2.40226e-11 0
M  V30 11327 O 1909.91 -10.1726 -0.733694 0
M  V30 11328 O 1910.48 -8.73148 1.23936 0
M  V30 11329 O 1909.94 -7.66872 -0.971405 0
M  V30 11330 C 1909 -7.42309 -2.04641 0
M  V30 11331 C 1909.73 -6.86059 -3.24661 0
M  V30 11332 O 1909.94 -5.42847 -3.03646 0
M  V30 11333 C 1911.13 -7.41196 -3.50753 0
M  V30 11334 O 1911.52 -7.27073 -4.86816 0
M  V30 11335 C 1912.01 -6.5273 -2.63741 0
M  V30 11336 C 1911.3 -5.1842 -2.73198 0
M  V30 11337 N 1911.35 -4.38762 -1.4784 0
M  V30 11338 H 1908.51 -8.36803 -2.32493 0
M  V30 11339 H 1908.24 -6.70197 -1.71129 0
M  V30 11340 H 1909.11 -7.03551 -4.13168 0
M  V30 11341 H 1911.39 -6.36132 -5.14416 0
M  V30 11342 H 1915.41 9.0732 2.85239 0
M  V30 11343 O 1915.29 8.67639 2.00036 0
M  V30 11344 P 1913.85 8.7635 1.60911 0
M  V30 11345 O 1913.63 10.1388 1.11561 0
M  V30 11346 O 1913.06 8.36503 2.79617 0
M  V30 11347 O 1913.6 7.71806 0.42951 0
M  V30 11348 C 1914.54 7.67148 -0.673689 0
M  V30 11349 C 1913.81 7.33374 -1.95559 0
M  V30 11350 O 1913.6 5.88721 -2.00726 0
M  V30 11351 C 1912.41 7.92526 -2.10483 0
M  V30 11352 O 1912.02 8.02971 -3.47653 0
M  V30 11353 C 1911.53 6.89602 -1.41652 0
M  V30 11354 C 1912.24 5.59201 -1.75185 0
M  V30 11355 N 1912.19 4.58235 -0.662552 0
M  V30 11356 H 1915.03 8.65116 -0.777161 0
M  V30 11357 H 1915.3 6.90173 -0.474152 0
M  V30 11358 H 1914.43 7.66548 -2.79458 0
M  V30 11359 P 1910.47 8.03563 -3.84925 0
M  V30 11360 O 1910.25 8.85821 -5.0569 0
M  V30 11361 O 1909.68 8.41101 -2.65469 0
M  V30 11362 O 1910.22 6.4965 -4.18908 0
M  V30 11363 C 1911.16 5.81037 -5.05421 0
M  V30 11364 C 1910.43 4.78366 -5.89277 0
M  V30 11365 O 1910.22 3.58302 -5.08433 0
M  V30 11366 C 1909.03 5.17448 -6.36119 0
M  V30 11367 O 1908.64 4.45271 -7.53232 0
M  V30 11368 C 1908.15 4.74639 -5.19936 0
M  V30 11369 C 1908.86 3.49432 -4.70418 0
M  V30 11370 N 1908.81 3.32099 -3.22613 0
M  V30 11371 H 1911.65 6.54213 -5.71376 0
M  V30 11372 H 1911.92 5.30936 -4.43503 0
M  V30 11373 H 1911.05 4.55889 -6.76652 0
M  V30 11374 H 1908.4 2.61715 -5.17932 0
M  V30 11375 H 1908.12 5.52155 -4.41878 0
M  V30 11376 H 1907.13 4.51981 -5.53374 0
M  V30 11377 H 1908.96 6.25124 -6.55234 0
M  V30 11378 P 1907.09 4.23843 -7.83734 0
M  V30 11379 O 1906.87 4.19407 -9.29784 0
M  V30 11380 O 1906.3 5.24426 -7.09156 0
M  V30 11381 O 1906.84 2.7935 -7.20758 0
M  V30 11382 C 1907.78 1.7299 -7.50419 0
M  V30 11383 C 1907.05 0.406376 -7.57911 0
M  V30 11384 O 1906.84 -0.0897726 -6.21935 0
M  V30 11385 C 1905.65 0.447224 -8.1878 0
M  V30 11386 O 1905.26 -0.825065 -8.71101 0
M  V30 11387 C 1904.77 0.783801 -6.99623 0
M  V30 11388 C 1905.48 0.0619192 -5.85967 0
M  V30 11389 N 1905.43 0.790462 -4.56202 0
M  V30 11390 C 1905.51 2.13895 -4.34171 0
M  V30 11391 N 1905.44 2.46449 -3.08687 0
M  V30 11392 C 1905.29 1.2525 -2.43697 0
M  V30 11393 C 1905.16 0.914535 -1.07318 0
M  V30 11394 N 1905.15 1.80782 -0.0887348 0
M  V30 11395 N 1905.04 -0.386745 -0.768133 0
M  V30 11396 C 1905.05 -1.28096 -1.75159 0
M  V30 11397 N 1905.17 -1.09708 -3.04861 0
M  V30 11398 C 1905.29 0.214857 -3.32306 0
M  V30 11399 H 1908.27 1.93423 -8.4679 0
M  V30 11400 H 1908.54 1.68852 -6.70877 0
M  V30 11401 H 1907.67 -0.289041 -8.15388 0
M  V30 11402 H 1905.02 -0.927006 -5.72848 0
M  V30 11403 H 1904.74 1.86973 -6.82036 0
M  V30 11404 H 1903.75 0.403953 -7.13357 0
M  V30 11405 H 1905.58 1.20599 -8.97534 0
M  V30 11406 H 1905.62 2.86846 -5.14318 0
M  V30 11407 H 1905.24 2.81082 -0.302037 0
M  V30 11408 H 1905.05 1.49688 0.889064 0
M  V30 11409 H 1904.94 -2.31317 -1.43855 0
M  V30 11410 P 1903.71 -1.17771 -8.83182 0
M  V30 11411 O 1903.49 -2.07206 -9.98732 0
M  V30 11412 O 1902.92 0.0743816 -8.81969 0
M  V30 11413 O 1903.46 -1.97652 -7.47304 0
M  V30 11414 C 1904.4 -3.01133 -7.08783 0
M  V30 11415 C 1903.67 -4.12613 -6.37049 0
M  V30 11416 O 1903.46 -3.72827 -4.97879 0
M  V30 11417 C 1902.27 -4.45085 -6.88694 0
M  V30 11418 O 1901.88 -5.7877 -6.5624 0
M  V30 11419 C 1901.39 -3.47817 -6.12078 0
M  V30 11420 C 1902.1 -3.39414 -4.77697 0
M  V30 11421 N 1902.05 -2.04199 -4.15538 0
M  V30 11422 H 1904.89 -3.41248 -7.98759 0
M  V30 11423 H 1905.16 -2.57728 -6.42 0
M  V30 11424 H 1904.29 -5.02657 -6.42673 0
M  V30 11425 H 1901.64 -4.11708 -4.08956 0
M  V30 11426 H 1901.36 -2.49626 -6.61679 0
M  V30 11427 H 1900.37 -3.8662 -6.00862 0
M  V30 11428 H 1902.2 -4.29991 -7.97006 0
M  V30 11429 P 1900.33 -6.144 -6.45285 0
M  V30 11430 O 1900.11 -7.54673 -6.86199 0
M  V30 11431 O 1899.54 -5.12391 -7.179 0
M  V30 11432 O 1900.08 -5.99158 -4.88404 0
M  V30 11433 C 1901.02 -6.60234 -3.96415 0
M  V30 11434 C 1900.29 -7.08259 -2.72856 0
M  V30 11435 O 1900.08 -5.9427 -1.83651 0
M  V30 11436 C 1898.89 -7.64886 -2.9555 0
M  V30 11437 O 1898.5 -8.53963 -1.90717 0
M  V30 11438 C 1898.01 -6.4116 -2.90739 0
M  V30 11439 C 1898.72 -5.55375 -1.86963 0
M  V30 11440 N 1898.67 -4.09664 -2.15742 0
M  V30 11441 H 1901.51 -7.45574 -4.45629 0
M  V30 11442 H 1901.78 -5.86232 -3.67314 0
M  V30 11443 H 1900.91 -7.84412 -2.24479 0
M  V30 11444 P 1896.95 -8.7635 -1.60911 0
M  V30 11445 O 1896.73 -10.1388 -1.11561 0
M  V30 11446 O 1896.16 -8.36503 -2.79617 0
M  V30 11447 O 1896.7 -7.71806 -0.42951 0
M  V30 11448 C 1897.64 -7.67148 0.673689 0
M  V30 11449 C 1896.91 -7.33374 1.95559 0
M  V30 11450 O 1896.7 -5.88721 2.00726 0
M  V30 11451 C 1895.51 -7.92526 2.10483 0
M  V30 11452 O 1895.12 -8.02971 3.47653 0
M  V30 11453 C 1894.63 -6.89602 1.41652 0
M  V30 11454 C 1895.34 -5.59201 1.75185 0
M  V30 11455 N 1895.29 -4.58301 0.657969 0
M  V30 11456 H 1898.13 -8.65116 0.777161 0
M  V30 11457 H 1898.4 -6.9022 0.46725 0
M  V30 11458 H 1897.53 -7.66548 2.79458 0
M  V30 11459 H 1894.88 -5.16165 2.65183 0
M  V30 11460 H 1894.6 -7.06433 0.329384 0
M  V30 11461 H 1893.61 -6.90926 1.82021 0
M  V30 11462 H 1895.44 -8.90873 1.62657 0
M  V30 11463 P 1893.57 -8.03563 3.84925 0
M  V30 11464 O 1893.35 -8.85821 5.0569 0
M  V30 11465 O 1892.78 -8.41101 2.65469 0
M  V30 11466 O 1893.32 -6.4965 4.18908 0
M  V30 11467 C 1894.26 -5.81037 5.05421 0
M  V30 11468 C 1893.53 -4.78366 5.89277 0
M  V30 11469 O 1893.32 -3.58302 5.08433 0
M  V30 11470 C 1892.13 -5.17448 6.36119 0
M  V30 11471 O 1891.74 -4.45271 7.53232 0
M  V30 11472 C 1891.25 -4.74639 5.19936 0
M  V30 11473 C 1891.96 -3.49432 4.70418 0
M  V30 11474 N 1891.91 -3.31776 3.22945 0
M  V30 11475 H 1894.75 -6.54213 5.71376 0
M  V30 11476 H 1895.02 -5.30492 4.44033 0
M  V30 11477 H 1894.15 -4.55889 6.76652 0
M  V30 11478 P 1890.19 -4.23843 7.83734 0
M  V30 11479 O 1889.97 -4.19407 9.29784 0
M  V30 11480 O 1889.4 -5.24426 7.09156 0
M  V30 11481 O 1889.94 -2.7935 7.20758 0
M  V30 11482 C 1890.88 -1.7299 7.50419 0
M  V30 11483 C 1890.15 -0.406376 7.57911 0
M  V30 11484 O 1889.94 0.0897726 6.21935 0
M  V30 11485 C 1888.75 -0.447224 8.1878 0
M  V30 11486 O 1888.36 0.825065 8.71101 0
M  V30 11487 C 1887.87 -0.783801 6.99623 0
M  V30 11488 C 1888.58 -0.0619192 5.85967 0
M  V30 11489 N 1888.53 -0.790462 4.56202 0
M  V30 11490 H 1891.37 -1.93423 8.4679 0
M  V30 11491 H 1891.64 -1.68852 6.70877 0
M  V30 11492 H 1890.77 0.289041 8.15388 0
M  V30 11493 H 1888.12 0.927006 5.72848 0
M  V30 11494 H 1887.84 -1.86973 6.82036 0
M  V30 11495 H 1886.85 -0.403953 7.13357 0
M  V30 11496 H 1888.68 -1.20599 8.97534 0
M  V30 11497 P 1886.81 1.17771 8.83182 0
M  V30 11498 O 1886.59 2.07206 9.98732 0
M  V30 11499 O 1886.02 -0.0743816 8.81969 0
M  V30 11500 O 1886.56 1.97652 7.47304 0
M  V30 11501 C 1887.5 3.01133 7.08783 0
M  V30 11502 C 1886.77 4.12613 6.37049 0
M  V30 11503 O 1886.56 3.72827 4.97879 0
M  V30 11504 C 1885.37 4.45085 6.88694 0
M  V30 11505 O 1884.98 5.7877 6.5624 0
M  V30 11506 C 1884.49 3.47817 6.12078 0
M  V30 11507 C 1885.2 3.39414 4.77697 0
M  V30 11508 N 1885.15 2.04199 4.15538 0
M  V30 11509 C 1885.23 0.821545 4.76977 0
M  V30 11510 N 1885.16 -0.1794 3.94592 0
M  V30 11511 C 1885.01 0.419121 2.70776 0
M  V30 11512 C 1884.88 -0.109072 1.40577 0
M  V30 11513 N 1884.87 -1.4104 1.1344 0
M  V30 11514 N 1884.76 0.764381 0.39411 0
M  V30 11515 C 1884.77 2.06587 0.664135 0
M  V30 11516 N 1884.89 2.67948 1.82153 0
M  V30 11517 C 1885.01 1.77942 2.8147 0
M  V30 11518 H 1887.99 3.41248 7.98759 0
M  V30 11519 H 1888.26 2.57728 6.42 0
M  V30 11520 H 1887.39 5.02657 6.42673 0
M  V30 11521 H 1884.74 4.11708 4.08956 0
M  V30 11522 H 1884.46 2.49626 6.61679 0
M  V30 11523 H 1883.47 3.8662 6.00862 0
M  V30 11524 H 1885.3 4.29991 7.97006 0
M  V30 11525 H 1885.34 0.702451 5.84696 0
M  V30 11526 H 1884.96 -2.09647 1.89651 0
M  V30 11527 H 1884.77 -1.73358 0.160575 0
M  V30 11528 H 1884.66 2.71695 -0.195838 0
M  V30 11529 P 1883.43 6.144 6.45285 0
M  V30 11530 O 1883.21 7.54673 6.86199 0
M  V30 11531 O 1882.64 5.12391 7.179 0
M  V30 11532 O 1883.18 5.99158 4.88404 0
M  V30 11533 C 1884.12 6.60234 3.96415 0
M  V30 11534 C 1883.39 7.08259 2.72856 0
M  V30 11535 O 1883.18 5.9427 1.83651 0
M  V30 11536 C 1881.99 7.64886 2.9555 0
M  V30 11537 O 1881.6 8.53963 1.90717 0
M  V30 11538 C 1881.11 6.4116 2.90739 0
M  V30 11539 C 1881.82 5.55375 1.86963 0
M  V30 11540 N 1881.77 4.09448 2.16152 0
M  V30 11541 H 1884.61 7.45574 4.45629 0
M  V30 11542 H 1884.88 5.85864 3.679 0
M  V30 11543 H 1884.01 7.84412 2.24479 0
M  V30 11544 H 1881.36 5.73457 0.888562 0
M  V30 11545 H 1881.08 5.90877 3.88583 0
M  V30 11546 H 1880.09 6.6596 2.58858 0
M  V30 11547 H 1881.92 8.16339 3.92049 0
M  V30 11548 P 1880.05 8.7635 1.60911 0
M  V30 11549 O 1879.83 10.1388 1.11561 0
M  V30 11550 O 1879.26 8.36503 2.79617 0
M  V30 11551 O 1879.8 7.71806 0.42951 0
M  V30 11552 C 1880.74 7.67148 -0.673689 0
M  V30 11553 C 1880.01 7.33374 -1.95559 0
M  V30 11554 O 1879.8 5.88721 -2.00726 0
M  V30 11555 C 1878.61 7.92526 -2.10483 0
M  V30 11556 O 1878.22 8.02971 -3.47653 0
M  V30 11557 C 1877.73 6.89602 -1.41652 0
M  V30 11558 C 1878.44 5.59201 -1.75185 0
M  V30 11559 N 1878.39 4.58235 -0.662552 0
M  V30 11560 H 1881.23 8.65116 -0.777161 0
M  V30 11561 H 1881.5 6.90173 -0.474152 0
M  V30 11562 H 1880.63 7.66548 -2.79458 0
M  V30 11563 P 1876.67 8.03563 -3.84925 0
M  V30 11564 O 1876.45 8.85821 -5.0569 0
M  V30 11565 O 1875.88 8.41101 -2.65469 0
M  V30 11566 O 1876.42 6.4965 -4.18908 0
M  V30 11567 C 1877.36 5.81037 -5.05421 0
M  V30 11568 C 1876.63 4.78366 -5.89277 0
M  V30 11569 O 1876.42 3.58302 -5.08433 0
M  V30 11570 C 1875.23 5.17448 -6.36119 0
M  V30 11571 O 1874.84 4.45271 -7.53232 0
M  V30 11572 C 1874.35 4.74639 -5.19936 0
M  V30 11573 C 1875.06 3.49432 -4.70418 0
M  V30 11574 N 1875.01 3.32099 -3.22613 0
M  V30 11575 H 1877.85 6.54213 -5.71376 0
M  V30 11576 H 1878.12 5.30936 -4.43503 0
M  V30 11577 H 1877.25 4.55889 -6.76652 0
M  V30 11578 H 1874.6 2.61715 -5.17932 0
M  V30 11579 H 1874.32 5.52155 -4.41878 0
M  V30 11580 H 1873.33 4.51981 -5.53374 0
M  V30 11581 H 1875.16 6.25124 -6.55234 0
M  V30 11582 P 1873.29 4.23843 -7.83734 0
M  V30 11583 O 1873.07 4.19407 -9.29784 0
M  V30 11584 O 1872.5 5.24426 -7.09156 0
M  V30 11585 O 1873.04 2.7935 -7.20758 0
M  V30 11586 C 1873.98 1.7299 -7.50419 0
M  V30 11587 C 1873.25 0.406376 -7.57911 0
M  V30 11588 O 1873.04 -0.0897726 -6.21935 0
M  V30 11589 C 1871.85 0.447224 -8.1878 0
M  V30 11590 O 1871.46 -0.825065 -8.71101 0
M  V30 11591 C 1870.97 0.783801 -6.99623 0
M  V30 11592 C 1871.68 0.0619192 -5.85967 0
M  V30 11593 N 1871.63 0.7859 -4.56281 0
M  V30 11594 H 1874.47 1.93423 -8.4679 0
M  V30 11595 H 1874.74 1.68181 -6.71046 0
M  V30 11596 H 1873.87 -0.289041 -8.15388 0
M  V30 11597 P 1869.91 -1.17771 -8.83182 0
M  V30 11598 O 1869.69 -2.07206 -9.98732 0
M  V30 11599 O 1869.12 0.0743816 -8.81969 0
M  V30 11600 O 1869.66 -1.97652 -7.47304 0
M  V30 11601 C 1870.6 -3.01133 -7.08783 0
M  V30 11602 C 1869.87 -4.12613 -6.37049 0
M  V30 11603 O 1869.66 -3.72827 -4.97879 0
M  V30 11604 C 1868.47 -4.45085 -6.88694 0
M  V30 11605 O 1868.08 -5.7877 -6.5624 0
M  V30 11606 C 1867.59 -3.47817 -6.12078 0
M  V30 11607 C 1868.3 -3.39414 -4.77697 0
M  V30 11608 N 1868.25 -2.04199 -4.15538 0
M  V30 11609 H 1871.09 -3.41248 -7.98759 0
M  V30 11610 H 1871.36 -2.57728 -6.42 0
M  V30 11611 H 1870.49 -5.02657 -6.42673 0
M  V30 11612 H 1867.84 -4.11708 -4.08956 0
M  V30 11613 H 1867.56 -2.49626 -6.61679 0
M  V30 11614 H 1866.57 -3.8662 -6.00862 0
M  V30 11615 H 1868.4 -4.29991 -7.97006 0
M  V30 11616 P 1866.53 -6.144 -6.45285 0
M  V30 11617 O 1866.31 -7.54673 -6.86199 0
M  V30 11618 O 1865.74 -5.12391 -7.179 0
M  V30 11619 O 1866.28 -5.99158 -4.88404 0
M  V30 11620 C 1867.22 -6.60234 -3.96415 0
M  V30 11621 C 1866.49 -7.08259 -2.72856 0
M  V30 11622 O 1866.28 -5.9427 -1.83651 0
M  V30 11623 C 1865.09 -7.64886 -2.9555 0
M  V30 11624 O 1864.7 -8.53963 -1.90717 0
M  V30 11625 C 1864.21 -6.4116 -2.90739 0
M  V30 11626 C 1864.92 -5.55375 -1.86963 0
M  V30 11627 N 1864.87 -4.09664 -2.15742 0
M  V30 11628 H 1867.71 -7.45574 -4.45629 0
M  V30 11629 H 1867.98 -5.86232 -3.67314 0
M  V30 11630 H 1867.11 -7.84412 -2.24479 0
M  V30 11631 P 1863.15 -8.7635 -1.60911 0
M  V30 11632 O 1862.93 -10.1388 -1.11561 0
M  V30 11633 O 1862.36 -8.36503 -2.79617 0
M  V30 11634 O 1862.9 -7.71806 -0.42951 0
M  V30 11635 C 1863.84 -7.67148 0.673689 0
M  V30 11636 C 1863.11 -7.33374 1.95559 0
M  V30 11637 O 1862.9 -5.88721 2.00726 0
M  V30 11638 C 1861.71 -7.92526 2.10483 0
M  V30 11639 O 1861.32 -8.02971 3.47653 0
M  V30 11640 C 1860.83 -6.89602 1.41652 0
M  V30 11641 C 1861.54 -5.59201 1.75185 0
M  V30 11642 N 1861.49 -4.58235 0.662552 0
M  V30 11643 H 1864.33 -8.65116 0.777161 0
M  V30 11644 H 1864.6 -6.90173 0.474152 0
M  V30 11645 H 1863.73 -7.66548 2.79458 0
M  V30 11646 P 1859.77 -8.03563 3.84925 0
M  V30 11647 O 1859.55 -8.85821 5.0569 0
M  V30 11648 O 1858.98 -8.41101 2.65469 0
M  V30 11649 O 1859.52 -6.4965 4.18908 0
M  V30 11650 C 1860.46 -5.81037 5.05421 0
M  V30 11651 C 1859.73 -4.78366 5.89277 0
M  V30 11652 O 1859.52 -3.58302 5.08433 0
M  V30 11653 C 1858.33 -5.17448 6.36119 0
M  V30 11654 O 1857.94 -4.45271 7.53232 0
M  V30 11655 C 1857.45 -4.74639 5.19936 0
M  V30 11656 C 1858.16 -3.49432 4.70418 0
M  V30 11657 N 1858.11 -3.31776 3.22945 0
M  V30 11658 H 1860.95 -6.54213 5.71376 0
M  V30 11659 H 1861.22 -5.30492 4.44033 0
M  V30 11660 H 1860.35 -4.55889 6.76652 0
M  V30 11661 P 1856.39 -4.23843 7.83734 0
M  V30 11662 O 1856.17 -4.19407 9.29784 0
M  V30 11663 O 1855.6 -5.24426 7.09156 0
M  V30 11664 O 1856.14 -2.79386 7.20852 0
M  V30 11665 C 1857.08 -1.7299 7.50419 0
M  V30 11666 C 1856.35 -0.41401 7.5797 0
M  V30 11667 O 1856.14 0.089787 6.22035 0
M  V30 11668 C 1854.95 -0.447224 8.1878 0
M  V30 11669 O 1854.56 0.825159 8.71201 0
M  V30 11670 C 1854.07 -0.783801 6.99623 0
M  V30 11671 C 1854.78 -0.0619192 5.85967 0
M  V30 11672 N 1854.73 -0.7859 4.56281 0
M  V30 11673 C 1854.58 -0.0359258 3.39981 0
M  V30 11674 O 1854.49 1.19723 3.49038 0
M  V30 11675 N 1854.53 -0.869151 2.14025 0
M  V30 11676 C 1854.63 -2.01207 2.14363 0
M  V30 11677 N 1854.58 -2.58978 0.954287 0
M  V30 11678 C 1854.78 -2.80817 3.32215 0
M  V30 11679 C 1854.83 -2.13785 4.50884 0
M  V30 11680 H 1857.57 -1.93401 8.46693 0
M  V30 11681 H 1857.84 -1.68181 6.71046 0
M  V30 11682 H 1856.97 0.289076 8.15488 0
M  V30 11683 H 1854.32 0.927166 5.72947 0
M  V30 11684 H 1854.04 -1.87 6.82132 0
M  V30 11685 H 1853.05 -0.404009 7.13457 0
M  V30 11686 H 1854.88 -1.20599 8.97534 0
M  V30 11687 H 1854.95 -2.70295 5.43162 0
M  V30 11688 H 1854.85 -3.89465 3.27406 0
M  V30 11689 H 1854.46 -2.01616 0.107046 0
M  V30 11690 H 1854.66 -3.61403 0.873101 0
M  V30 11691 P 1853.01 1.17771 8.83182 0
M  V30 11692 O 1852.79 2.07206 9.98732 0
M  V30 11693 O 1852.22 -0.0743816 8.81969 0
M  V30 11694 O 1852.76 1.97652 7.47304 0
M  V30 11695 C 1853.7 3.01133 7.08783 0
M  V30 11696 C 1852.97 4.12613 6.37049 0
M  V30 11697 O 1852.76 3.72827 4.97879 0
M  V30 11698 C 1851.57 4.45085 6.88694 0
M  V30 11699 O 1851.18 5.7877 6.5624 0
M  V30 11700 C 1850.69 3.47817 6.12078 0
M  V30 11701 C 1851.4 3.39414 4.77697 0
M  V30 11702 N 1851.35 2.04199 4.15538 0
M  V30 11703 H 1854.19 3.41248 7.98759 0
M  V30 11704 H 1854.46 2.57728 6.42 0
M  V30 11705 H 1853.59 5.02657 6.42673 0
M  V30 11706 H 1850.94 4.11708 4.08956 0
M  V30 11707 H 1850.66 2.49626 6.61679 0
M  V30 11708 H 1849.67 3.8662 6.00862 0
M  V30 11709 H 1851.5 4.29991 7.97006 0
M  V30 11710 P 1849.63 6.144 6.45285 0
M  V30 11711 O 1849.41 7.54673 6.86199 0
M  V30 11712 O 1848.84 5.12391 7.179 0
M  V30 11713 O 1849.38 5.99158 4.88404 0
M  V30 11714 C 1850.32 6.60234 3.96415 0
M  V30 11715 C 1849.59 7.08259 2.72856 0
M  V30 11716 O 1849.38 5.9427 1.83651 0
M  V30 11717 C 1848.19 7.64886 2.9555 0
M  V30 11718 O 1847.8 8.53963 1.90717 0
M  V30 11719 C 1847.31 6.4116 2.90739 0
M  V30 11720 C 1848.02 5.55375 1.86963 0
M  V30 11721 N 1847.97 4.09664 2.15742 0
M  V30 11722 C 1848.05 3.44381 3.37233 0
M  V30 11723 N 1847.97 2.14131 3.28347 0
M  V30 11724 C 1847.83 1.90247 1.91588 0
M  V30 11725 C 1847.7 0.683992 1.20892 0
M  V30 11726 N 1847.58 0.903396 -0.173998 0
M  V30 11727 C 1847.58 2.14171 -0.784879 0
M  V30 11728 N 1847.45 2.1435 -2.11317 0
M  V30 11729 N 1847.71 3.28784 -0.119316 0
M  V30 11730 C 1847.83 3.0977 1.22194 0
M  V30 11731 H 1850.81 7.45574 4.45629 0
M  V30 11732 H 1851.08 5.86232 3.67314 0
M  V30 11733 H 1850.21 7.84412 2.24479 0
M  V30 11734 P 1846.25 8.7635 1.60911 0
M  V30 11735 O 1846.03 10.1388 1.11561 0
M  V30 11736 O 1845.46 8.36503 2.79617 0
M  V30 11737 O 1846 7.71806 0.42951 0
M  V30 11738 C 1846.94 7.67148 -0.673689 0
M  V30 11739 C 1846.21 7.33374 -1.95559 0
M  V30 11740 O 1846 5.88721 -2.00726 0
M  V30 11741 C 1844.81 7.92526 -2.10483 0
M  V30 11742 O 1844.42 8.02971 -3.47653 0
M  V30 11743 C 1843.93 6.89602 -1.41652 0
M  V30 11744 C 1844.64 5.59201 -1.75185 0
M  V30 11745 N 1844.59 4.58301 -0.657969 0
M  V30 11746 H 1847.43 8.65116 -0.777161 0
M  V30 11747 H 1847.7 6.9022 -0.46725 0
M  V30 11748 H 1846.83 7.66548 -2.79458 0
M  V30 11749 H 1844.18 5.16165 -2.65183 0
M  V30 11750 H 1843.9 7.06433 -0.329384 0
M  V30 11751 H 1842.91 6.90926 -1.82021 0
M  V30 11752 H 1844.74 8.90873 -1.62657 0
M  V30 11753 P 1842.87 8.03563 -3.84925 0
M  V30 11754 O 1842.65 8.85821 -5.0569 0
M  V30 11755 O 1842.08 8.41101 -2.65469 0
M  V30 11756 O 1842.62 6.4965 -4.18908 0
M  V30 11757 C 1843.56 5.81037 -5.05421 0
M  V30 11758 C 1842.83 4.78366 -5.89277 0
M  V30 11759 O 1842.62 3.58302 -5.08433 0
M  V30 11760 C 1841.43 5.17448 -6.36119 0
M  V30 11761 O 1841.04 4.45271 -7.53232 0
M  V30 11762 C 1840.55 4.74639 -5.19936 0
M  V30 11763 C 1841.26 3.49432 -4.70418 0
M  V30 11764 N 1841.21 3.32099 -3.22613 0
M  V30 11765 H 1844.05 6.54213 -5.71376 0
M  V30 11766 H 1844.32 5.30936 -4.43503 0
M  V30 11767 H 1843.45 4.55889 -6.76652 0
M  V30 11768 H 1840.8 2.61715 -5.17932 0
M  V30 11769 H 1840.52 5.52155 -4.41878 0
M  V30 11770 H 1839.53 4.51981 -5.53374 0
M  V30 11771 H 1841.36 6.25124 -6.55234 0
M  V30 11772 P 1839.49 4.23843 -7.83734 0
M  V30 11773 O 1839.27 4.19407 -9.29784 0
M  V30 11774 O 1838.7 5.24426 -7.09156 0
M  V30 11775 O 1839.24 2.7935 -7.20758 0
M  V30 11776 C 1840.18 1.7299 -7.50419 0
M  V30 11777 C 1839.45 0.406376 -7.57911 0
M  V30 11778 O 1839.24 -0.0897726 -6.21935 0
M  V30 11779 C 1838.05 0.447224 -8.1878 0
M  V30 11780 O 1837.66 -0.825065 -8.71101 0
M  V30 11781 C 1837.17 0.783801 -6.99623 0
M  V30 11782 C 1837.88 0.0619192 -5.85967 0
M  V30 11783 N 1837.83 0.7859 -4.56281 0
M  V30 11784 H 1840.67 1.93423 -8.4679 0
M  V30 11785 H 1840.94 1.68181 -6.71046 0
M  V30 11786 H 1840.07 -0.289041 -8.15388 0
M  V30 11787 P 1836.11 -1.17771 -8.83182 0
M  V30 11788 O 1835.89 -2.07206 -9.98732 0
M  V30 11789 O 1835.32 0.0743816 -8.81969 0
M  V30 11790 O 1835.86 -1.97652 -7.47304 0
M  V30 11791 C 1836.8 -3.01133 -7.08783 0
M  V30 11792 C 1836.07 -4.12613 -6.37049 0
M  V30 11793 O 1835.86 -3.72827 -4.97879 0
M  V30 11794 C 1834.67 -4.45085 -6.88694 0
M  V30 11795 O 1834.28 -5.7877 -6.5624 0
M  V30 11796 C 1833.79 -3.47817 -6.12078 0
M  V30 11797 C 1834.5 -3.39414 -4.77697 0
M  V30 11798 N 1834.45 -2.04615 -4.15333 0
M  V30 11799 H 1837.29 -3.41248 -7.98759 0
M  V30 11800 H 1837.56 -2.5837 -6.41742 0
M  V30 11801 H 1836.69 -5.02657 -6.42673 0
M  V30 11802 P 1832.73 -6.144 -6.45285 0
M  V30 11803 O 1832.51 -7.54673 -6.86199 0
M  V30 11804 O 1831.94 -5.12391 -7.179 0
M  V30 11805 O 1832.48 -5.99158 -4.88404 0
M  V30 11806 C 1833.42 -6.60234 -3.96415 0
M  V30 11807 C 1832.69 -7.08259 -2.72856 0
M  V30 11808 O 1832.48 -5.9427 -1.83651 0
M  V30 11809 C 1831.29 -7.64886 -2.9555 0
M  V30 11810 O 1830.9 -8.53963 -1.90717 0
M  V30 11811 C 1830.41 -6.4116 -2.90739 0
M  V30 11812 C 1831.12 -5.55375 -1.86963 0
M  V30 11813 N 1831.07 -4.09664 -2.15742 0
M  V30 11814 H 1833.91 -7.45574 -4.45629 0
M  V30 11815 H 1834.18 -5.86232 -3.67314 0
M  V30 11816 H 1833.31 -7.84412 -2.24479 0
M  V30 11817 P 1829.35 -8.7635 -1.60911 0
M  V30 11818 O 1829.13 -10.1388 -1.11561 0
M  V30 11819 O 1828.56 -8.36503 -2.79617 0
M  V30 11820 O 1829.1 -7.71806 -0.42951 0
M  V30 11821 C 1830.04 -7.67148 0.673689 0
M  V30 11822 C 1829.31 -7.33374 1.95559 0
M  V30 11823 O 1829.1 -5.88721 2.00726 0
M  V30 11824 C 1827.91 -7.92526 2.10483 0
M  V30 11825 O 1827.52 -8.02971 3.47653 0
M  V30 11826 C 1827.03 -6.89602 1.41652 0
M  V30 11827 C 1827.74 -5.59201 1.75185 0
M  V30 11828 N 1827.69 -4.58235 0.662552 0
M  V30 11829 H 1830.53 -8.65116 0.777161 0
M  V30 11830 H 1830.8 -6.90173 0.474152 0
M  V30 11831 H 1829.93 -7.66548 2.79458 0
M  V30 11832 P 1825.97 -8.03563 3.84925 0
M  V30 11833 O 1825.75 -8.85821 5.0569 0
M  V30 11834 O 1825.18 -8.41101 2.65469 0
M  V30 11835 O 1825.72 -6.49734 4.18962 0
M  V30 11836 C 1826.66 -5.81037 5.05421 0
M  V30 11837 C 1825.93 -4.79018 5.88876 0
M  V30 11838 O 1825.72 -3.58359 5.08515 0
M  V30 11839 C 1824.53 -5.17448 6.36119 0
M  V30 11840 O 1824.14 -4.45322 7.53318 0
M  V30 11841 C 1823.65 -4.74639 5.19936 0
M  V30 11842 C 1824.36 -3.49432 4.70418 0
M  V30 11843 N 1824.31 -3.31776 3.22945 0
M  V30 11844 C 1824.16 -2.02742 2.72939 0
M  V30 11845 O 1824.07 -1.08301 3.52749 0
M  V30 11846 N 1824.11 -1.96117 1.22063 0
M  V30 11847 C 1824.21 -2.8878 0.551566 0
M  V30 11848 N 1824.16 -2.65609 -0.750198 0
M  V30 11849 C 1824.36 -4.22457 1.03707 0
M  V30 11850 C 1824.41 -4.37979 2.39113 0
M  V30 11851 H 1827.15 -6.54138 5.7131 0
M  V30 11852 H 1827.42 -5.30492 4.44033 0
M  V30 11853 H 1826.55 -4.55945 6.76735 0
M  V30 11854 H 1823.9 -2.6176 5.18021 0
M  V30 11855 H 1823.62 -5.52233 4.41941 0
M  V30 11856 H 1822.63 -4.52045 5.53452 0
M  V30 11857 H 1824.46 -6.25124 6.55234 0
M  V30 11858 H 1824.53 -5.37936 2.80552 0
M  V30 11859 H 1824.43 -5.07528 0.359553 0
M  V30 11860 H 1824.04 -1.69403 -1.09847 0
M  V30 11861 H 1824.24 -3.43701 -1.41792 0
M  V30 11862 P 1822.59 -4.23843 7.83734 0
M  V30 11863 O 1822.37 -4.19407 9.29784 0
M  V30 11864 O 1821.8 -5.24426 7.09156 0
M  V30 11865 O 1822.34 -2.7935 7.20758 0
M  V30 11866 C 1823.28 -1.7299 7.50419 0
M  V30 11867 C 1822.55 -0.406376 7.57911 0
M  V30 11868 O 1822.34 0.0897726 6.21935 0
M  V30 11869 C 1821.15 -0.447224 8.1878 0
M  V30 11870 O 1820.76 0.825065 8.71101 0
M  V30 11871 C 1820.27 -0.783801 6.99623 0
M  V30 11872 C 1820.98 -0.0619192 5.85967 0
M  V30 11873 N 1820.93 -0.790462 4.56202 0
M  V30 11874 C 1821.01 -2.13895 4.34171 0
M  V30 11875 N 1820.94 -2.46449 3.08687 0
M  V30 11876 C 1820.79 -1.2525 2.43697 0
M  V30 11877 C 1820.66 -0.914535 1.07318 0
M  V30 11878 N 1820.65 -1.80782 0.0887348 0
M  V30 11879 N 1820.54 0.386745 0.768133 0
M  V30 11880 C 1820.55 1.28096 1.75159 0
M  V30 11881 N 1820.67 1.09708 3.04861 0
M  V30 11882 C 1820.79 -0.214857 3.32306 0
M  V30 11883 H 1823.77 -1.93423 8.4679 0
M  V30 11884 H 1824.04 -1.68852 6.70877 0
M  V30 11885 H 1823.17 0.289041 8.15388 0
M  V30 11886 H 1820.52 0.927006 5.72848 0
M  V30 11887 H 1820.24 -1.86973 6.82036 0
M  V30 11888 H 1819.25 -0.403953 7.13357 0
M  V30 11889 H 1821.08 -1.20599 8.97534 0
M  V30 11890 H 1821.12 -2.86846 5.14318 0
M  V30 11891 H 1820.74 -2.81082 0.302037 0
M  V30 11892 H 1820.55 -1.49688 -0.889064 0
M  V30 11893 H 1820.44 2.31317 1.43855 0
M  V30 11894 P 1819.21 1.17771 8.83182 0
M  V30 11895 O 1818.99 2.07206 9.98732 0
M  V30 11896 O 1818.42 -0.0743816 8.81969 0
M  V30 11897 O 1818.96 1.97652 7.47304 0
M  V30 11898 C 1819.9 3.01133 7.08783 0
M  V30 11899 C 1819.17 4.12613 6.37049 0
M  V30 11900 O 1818.96 3.72827 4.97879 0
M  V30 11901 C 1817.77 4.45085 6.88694 0
M  V30 11902 O 1817.38 5.7877 6.5624 0
M  V30 11903 C 1816.89 3.47817 6.12078 0
M  V30 11904 C 1817.6 3.39414 4.77697 0
M  V30 11905 N 1817.55 2.04615 4.15333 0
M  V30 11906 H 1820.39 3.41248 7.98759 0
M  V30 11907 H 1820.66 2.5837 6.41742 0
M  V30 11908 H 1819.79 5.02657 6.42673 0
M  V30 11909 P 1815.83 6.144 6.45285 0
M  V30 11910 O 1815.61 7.54673 6.86199 0
M  V30 11911 O 1815.04 5.12391 7.179 0
M  V30 11912 O 1815.58 5.99158 4.88404 0
M  V30 11913 C 1816.52 6.60234 3.96415 0
M  V30 11914 C 1815.79 7.08259 2.72856 0
M  V30 11915 O 1815.58 5.9427 1.83651 0
M  V30 11916 C 1814.39 7.64886 2.9555 0
M  V30 11917 O 1814 8.53963 1.90717 0
M  V30 11918 C 1813.51 6.4116 2.90739 0
M  V30 11919 C 1814.22 5.55375 1.86963 0
M  V30 11920 N 1814.17 4.09448 2.16152 0
M  V30 11921 H 1817.01 7.45574 4.45629 0
M  V30 11922 H 1817.28 5.85864 3.679 0
M  V30 11923 H 1816.41 7.84412 2.24479 0
M  V30 11924 H 1813.76 5.73457 0.888562 0
M  V30 11925 H 1813.48 5.90877 3.88583 0
M  V30 11926 H 1812.49 6.6596 2.58858 0
M  V30 11927 H 1814.32 8.16339 3.92049 0
M  V30 11928 P 1812.45 8.7635 1.60911 0
M  V30 11929 O 1812.23 10.1388 1.11561 0
M  V30 11930 O 1811.66 8.36503 2.79617 0
M  V30 11931 O 1812.2 7.71806 0.42951 0
M  V30 11932 C 1813.14 7.67148 -0.673689 0
M  V30 11933 C 1812.41 7.33374 -1.95559 0
M  V30 11934 O 1812.2 5.88721 -2.00726 0
M  V30 11935 C 1811.01 7.92526 -2.10483 0
M  V30 11936 O 1810.62 8.02971 -3.47653 0
M  V30 11937 C 1810.13 6.89602 -1.41652 0
M  V30 11938 C 1810.84 5.59201 -1.75185 0
M  V30 11939 N 1810.79 4.58235 -0.662552 0
M  V30 11940 H 1813.63 8.65116 -0.777161 0
M  V30 11941 H 1813.9 6.90173 -0.474152 0
M  V30 11942 H 1813.03 7.66548 -2.79458 0
M  V30 11943 P 1809.07 8.03563 -3.84925 0
M  V30 11944 O 1808.85 8.85821 -5.0569 0
M  V30 11945 O 1808.28 8.41101 -2.65469 0
M  V30 11946 O 1808.82 6.4965 -4.18908 0
M  V30 11947 C 1809.76 5.81037 -5.05421 0
M  V30 11948 C 1809.03 4.78366 -5.89277 0
M  V30 11949 O 1808.82 3.58302 -5.08433 0
M  V30 11950 C 1807.63 5.17448 -6.36119 0
M  V30 11951 O 1807.24 4.45271 -7.53232 0
M  V30 11952 C 1806.75 4.74639 -5.19936 0
M  V30 11953 C 1807.46 3.49432 -4.70418 0
M  V30 11954 N 1807.41 3.31776 -3.22945 0
M  V30 11955 C 1807.49 4.27147 -2.23315 0
M  V30 11956 N 1807.41 3.78447 -1.02186 0
M  V30 11957 C 1807.27 2.41001 -1.21732 0
M  V30 11958 C 1807.14 1.36111 -0.27694 0
M  V30 11959 N 1807.02 0.113683 -0.912949 0
M  V30 11960 C 1807.02 -0.0846396 -2.27943 0
M  V30 11961 N 1806.89 -1.34737 -2.6916 0
M  V30 11962 N 1807.15 0.902521 -3.16379 0
M  V30 11963 C 1807.27 2.11937 -2.56849 0
M  V30 11964 H 1810.25 6.54213 -5.71376 0
M  V30 11965 H 1810.52 5.30492 -4.44033 0
M  V30 11966 H 1809.65 4.55889 -6.76652 0
M  V30 11967 P 1805.69 4.23843 -7.83734 0
M  V30 11968 O 1805.47 4.19407 -9.29784 0
M  V30 11969 O 1804.9 5.24426 -7.09156 0
M  V30 11970 O 1805.44 2.7935 -7.20758 0
M  V30 11971 C 1806.38 1.7299 -7.50419 0
M  V30 11972 C 1805.65 0.406376 -7.57911 0
M  V30 11973 O 1805.44 -0.0897726 -6.21935 0
M  V30 11974 C 1804.25 0.447224 -8.1878 0
M  V30 11975 O 1803.86 -0.825065 -8.71101 0
M  V30 11976 C 1803.37 0.783801 -6.99623 0
M  V30 11977 C 1804.08 0.0619192 -5.85967 0
M  V30 11978 N 1804.03 0.7859 -4.56281 0
M  V30 11979 H 1806.87 1.93423 -8.4679 0
M  V30 11980 H 1807.14 1.68181 -6.71046 0
M  V30 11981 H 1806.27 -0.289041 -8.15388 0
M  V30 11982 P 1802.31 -1.17771 -8.83182 0
M  V30 11983 O 1802.09 -2.07206 -9.98732 0
M  V30 11984 O 1801.52 0.0743816 -8.81969 0
M  V30 11985 O 1802.06 -1.97652 -7.47304 0
M  V30 11986 C 1803 -3.01133 -7.08783 0
M  V30 11987 C 1802.27 -4.12613 -6.37049 0
M  V30 11988 O 1802.06 -3.72827 -4.97879 0
M  V30 11989 C 1800.87 -4.45085 -6.88694 0
M  V30 11990 O 1800.48 -5.7877 -6.5624 0
M  V30 11991 C 1799.99 -3.47817 -6.12078 0
M  V30 11992 C 1800.7 -3.39414 -4.77697 0
M  V30 11993 N 1800.65 -2.04615 -4.15333 0
M  V30 11994 H 1803.49 -3.41248 -7.98759 0
M  V30 11995 H 1803.76 -2.5837 -6.41742 0
M  V30 11996 H 1802.89 -5.02657 -6.42673 0
M  V30 11997 P 1798.93 -6.144 -6.45285 0
M  V30 11998 O 1798.71 -7.54673 -6.86199 0
M  V30 11999 O 1798.14 -5.12391 -7.179 0
M  V30 12000 O 1798.68 -5.99158 -4.88404 0
M  V30 12001 C 1799.62 -6.60234 -3.96415 0
M  V30 12002 C 1798.89 -7.08259 -2.72856 0
M  V30 12003 O 1798.68 -5.9427 -1.83651 0
M  V30 12004 C 1797.49 -7.64886 -2.9555 0
M  V30 12005 O 1797.1 -8.53963 -1.90717 0
M  V30 12006 C 1796.61 -6.4116 -2.90739 0
M  V30 12007 C 1797.32 -5.55375 -1.86963 0
M  V30 12008 N 1797.27 -4.09664 -2.15742 0
M  V30 12009 C 1797.35 -3.44381 -3.37233 0
M  V30 12010 N 1797.27 -2.14131 -3.28347 0
M  V30 12011 C 1797.13 -1.90247 -1.91588 0
M  V30 12012 C 1797 -0.683992 -1.20892 0
M  V30 12013 N 1796.88 -0.903396 0.173998 0
M  V30 12014 C 1796.88 -2.14171 0.784879 0
M  V30 12015 N 1796.75 -2.1435 2.11317 0
M  V30 12016 N 1797.01 -3.28784 0.119316 0
M  V30 12017 C 1797.13 -3.0977 -1.22194 0
M  V30 12018 H 1800.11 -7.45574 -4.45629 0
M  V30 12019 H 1800.38 -5.86232 -3.67314 0
M  V30 12020 H 1799.51 -7.84412 -2.24479 0
M  V30 12021 P 1795.55 -8.7635 -1.60911 0
M  V30 12022 O 1795.33 -10.1388 -1.11561 0
M  V30 12023 O 1794.76 -8.36503 -2.79617 0
M  V30 12024 O 1795.3 -7.71906 -0.429565 0
M  V30 12025 C 1796.24 -7.67148 0.673689 0
M  V30 12026 C 1795.51 -7.33666 1.94851 0
M  V30 12027 O 1795.3 -5.88816 2.00759 0
M  V30 12028 C 1794.11 -7.92526 2.10483 0
M  V30 12029 O 1793.72 -8.03063 3.47693 0
M  V30 12030 C 1793.23 -6.89602 1.41652 0
M  V30 12031 C 1793.94 -5.59201 1.75185 0
M  V30 12032 N 1793.89 -4.58235 0.662552 0
M  V30 12033 C 1793.74 -3.24451 1.01643 0
M  V30 12034 O 1793.65 -2.94958 2.21722 0
M  V30 12035 N 1793.69 -2.30408 -0.165238 0
M  V30 12036 C 1793.79 -2.66048 -1.25118 0
M  V30 12037 N 1793.74 -1.70787 -2.16813 0
M  V30 12038 C 1793.94 -4.02732 -1.64413 0
M  V30 12039 C 1793.99 -4.9488 -0.63991 0
M  V30 12040 H 1796.73 -8.65017 0.777072 0
M  V30 12041 H 1797 -6.90173 0.474152 0
M  V30 12042 H 1796.13 -7.66642 2.79492 0
M  V30 12043 H 1793.48 -5.16254 2.65229 0
M  V30 12044 H 1793.2 -7.06532 0.329431 0
M  V30 12045 H 1792.21 -6.91023 1.82047 0
M  V30 12046 H 1794.04 -8.90873 1.62657 0
M  V30 12047 H 1794.11 -6.00104 -0.892197 0
M  V30 12048 H 1794.01 -4.31733 -2.69229 0
M  V30 12049 H 1793.62 -0.724835 -1.8844 0
M  V30 12050 H 1793.82 -1.94716 -3.16734 0
M  V30 12051 P 1792.17 -8.03563 3.84925 0
M  V30 12052 O 1791.95 -8.85821 5.0569 0
M  V30 12053 O 1791.38 -8.41101 2.65469 0
M  V30 12054 O 1791.92 -6.4965 4.18908 0
M  V30 12055 C 1792.86 -5.80886 5.05289 0
M  V30 12056 C 1792.13 -4.78366 5.89277 0
M  V30 12057 O 1791.92 -3.58302 5.08433 0
M  V30 12058 C 1790.73 -5.16748 6.36559 0
M  V30 12059 O 1790.34 -4.45271 7.53232 0
M  V30 12060 C 1789.85 -4.74572 5.19863 0
M  V30 12061 C 1790.56 -3.49373 4.70338 0
M  V30 12062 N 1790.51 -3.31704 3.22876 0
M  V30 12063 C 1790.36 -2.03326 2.74871 0
M  V30 12064 O 1790.27 -1.06486 3.48076 0
M  V30 12065 N 1790.32 -1.91838 1.37456 0
M  V30 12066 C 1790.41 -2.94295 0.462035 0
M  V30 12067 O 1790.36 -2.71763 -0.752928 0
M  V30 12068 C 1790.56 -4.25064 1.05249 0
M  V30 12069 C 1790.67 -5.39815 0.095697 0
M  V30 12070 C 1790.61 -4.40214 2.39192 0
M  V30 12071 H 1793.35 -6.54063 5.71245 0
M  V30 12072 H 1793.62 -5.30339 4.43905 0
M  V30 12073 H 1792.75 -4.55889 6.76652 0
M  V30 12074 H 1790.1 -2.6167 5.17842 0
M  V30 12075 H 1789.82 -5.52155 4.41878 0
M  V30 12076 H 1788.83 -4.51918 5.53297 0
M  V30 12077 H 1790.66 -6.25055 6.55162 0
M  V30 12078 H 1790.73 -5.39798 2.81523 0
M  V30 12079 H 1789.7 -5.91593 0.0279582 0
M  V30 12080 H 1791.44 -6.10038 0.450573 0
M  V30 12081 H 1790.95 -5.02007 -0.89937 0
M  V30 12082 H 1790.21 -0.995326 1.00435 0
M  V30 12083 P 1788.79 -4.23843 7.83734 0
M  V30 12084 O 1788.57 -4.19407 9.29784 0
M  V30 12085 O 1788 -5.24426 7.09156 0
M  V30 12086 O 1788.54 -2.7935 7.20758 0
M  V30 12087 C 1789.48 -1.7299 7.50419 0
M  V30 12088 C 1788.75 -0.406376 7.57911 0
M  V30 12089 O 1788.54 0.0897726 6.21935 0
M  V30 12090 C 1787.35 -0.447224 8.1878 0
M  V30 12091 O 1786.96 0.825065 8.71101 0
M  V30 12092 C 1786.47 -0.783801 6.99623 0
M  V30 12093 C 1787.18 -0.0619192 5.85967 0
M  V30 12094 N 1787.13 -0.7859 4.56281 0
M  V30 12095 H 1789.97 -1.93423 8.4679 0
M  V30 12096 H 1790.24 -1.68181 6.71046 0
M  V30 12097 H 1789.37 0.289041 8.15388 0
M  V30 12098 P 1785.41 1.17771 8.83182 0
M  V30 12099 O 1785.19 2.07206 9.98732 0
M  V30 12100 O 1784.62 -0.0743816 8.81969 0
M  V30 12101 O 1785.16 1.97678 7.474 0
M  V30 12102 C 1786.1 3.01133 7.08783 0
M  V30 12103 C 1785.37 4.1203 6.37546 0
M  V30 12104 O 1785.16 3.72887 4.9796 0
M  V30 12105 C 1783.97 4.45085 6.88694 0
M  V30 12106 O 1783.58 5.78836 6.56315 0
M  V30 12107 C 1783.09 3.47817 6.12078 0
M  V30 12108 C 1783.8 3.39414 4.77697 0
M  V30 12109 N 1783.75 2.04615 4.15333 0
M  V30 12110 C 1783.6 1.96929 2.77162 0
M  V30 12111 O 1783.51 3.02017 2.12006 0
M  V30 12112 N 1783.55 0.55485 2.24237 0
M  V30 12113 C 1783.65 -0.367808 2.9169 0
M  V30 12114 N 1783.6 -1.53426 2.29427 0
M  V30 12115 C 1783.8 -0.319148 4.33828 0
M  V30 12116 C 1783.85 0.920672 4.90433 0
M  V30 12117 H 1786.59 3.41209 7.98667 0
M  V30 12118 H 1786.86 2.5837 6.41742 0
M  V30 12119 H 1785.99 5.02718 6.42752 0
M  V30 12120 H 1783.34 4.11779 4.09026 0
M  V30 12121 H 1783.06 2.49661 6.61772 0
M  V30 12122 H 1782.07 3.86674 6.00946 0
M  V30 12123 H 1783.9 4.29991 7.97006 0
M  V30 12124 H 1783.97 1.00589 5.98303 0
M  V30 12125 H 1783.87 -1.22639 4.93799 0
M  V30 12126 H 1783.48 -1.56819 1.27167 0
M  V30 12127 H 1783.68 -2.41062 2.83063 0
M  V30 12128 P 1782.03 6.144 6.45285 0
M  V30 12129 O 1781.81 7.54673 6.86199 0
M  V30 12130 O 1781.24 5.12391 7.179 0
M  V30 12131 O 1781.78 5.99158 4.88404 0
M  V30 12132 C 1782.72 6.60234 3.96415 0
M  V30 12133 C 1781.99 7.08259 2.72856 0
M  V30 12134 O 1781.78 5.9427 1.83651 0
M  V30 12135 C 1780.59 7.64886 2.9555 0
M  V30 12136 O 1780.2 8.53963 1.90717 0
M  V30 12137 C 1779.71 6.4116 2.90739 0
M  V30 12138 C 1780.42 5.55375 1.86963 0
M  V30 12139 N 1780.37 4.09448 2.16152 0
M  V30 12140 C 1780.45 3.46824 3.37593 0
M  V30 12141 N 1780.38 2.17422 3.29777 0
M  V30 12142 C 1780.23 1.93065 1.94427 0
M  V30 12143 C 1780.1 0.738053 1.20141 0
M  V30 12144 N 1780.09 -0.474256 1.74676 0
M  V30 12145 N 1779.98 0.850049 -0.13045 0
M  V30 12146 C 1779.99 2.06169 -0.676992 0
M  V30 12147 N 1780.11 3.23842 -0.101312 0
M  V30 12148 C 1780.23 3.09402 1.23122 0
M  V30 12149 H 1783.21 7.45574 4.45629 0
M  V30 12150 H 1783.48 5.85864 3.679 0
M  V30 12151 H 1782.61 7.84412 2.24479 0
M  V30 12152 H 1779.96 5.73457 0.888562 0
M  V30 12153 H 1779.68 5.90877 3.88583 0
M  V30 12154 H 1778.69 6.6596 2.58858 0
M  V30 12155 H 1780.52 8.16339 3.92049 0
M  V30 12156 H 1780.56 4.00505 4.3174 0
M  V30 12157 H 1780.18 -0.581337 2.76658 0
M  V30 12158 H 1779.99 -1.30811 1.14888 0
M  V30 12159 H 1779.88 2.08295 -1.75542 0
M  V30 12160 P 1778.65 8.7635 1.60911 0
M  V30 12161 O 1778.43 10.1388 1.11561 0
M  V30 12162 O 1777.86 8.36503 2.79617 0
M  V30 12163 O 1778.4 7.71806 0.42951 0
M  V30 12164 C 1779.34 7.67148 -0.673689 0
M  V30 12165 C 1778.61 7.33374 -1.95559 0
M  V30 12166 O 1778.4 5.88721 -2.00726 0
M  V30 12167 C 1777.21 7.92526 -2.10483 0
M  V30 12168 O 1776.82 8.02971 -3.47653 0
M  V30 12169 C 1776.33 6.89602 -1.41652 0
M  V30 12170 C 1777.04 5.59201 -1.75185 0
M  V30 12171 N 1776.99 4.58301 -0.657969 0
M  V30 12172 H 1779.83 8.65116 -0.777161 0
M  V30 12173 H 1780.1 6.9022 -0.46725 0
M  V30 12174 H 1779.23 7.66548 -2.79458 0
M  V30 12175 H 1776.58 5.16165 -2.65183 0
M  V30 12176 H 1776.3 7.06433 -0.329384 0
M  V30 12177 H 1775.31 6.90926 -1.82021 0
M  V30 12178 H 1777.14 8.90873 -1.62657 0
M  V30 12179 P 1775.27 8.03563 -3.84925 0
M  V30 12180 O 1775.05 8.85821 -5.0569 0
M  V30 12181 O 1774.48 8.41101 -2.65469 0
M  V30 12182 O 1775.02 6.49734 -4.18962 0
M  V30 12183 C 1775.96 5.81037 -5.05421 0
M  V30 12184 C 1775.23 4.79018 -5.88876 0
M  V30 12185 O 1775.02 3.58359 -5.08515 0
M  V30 12186 C 1773.83 5.17448 -6.36119 0
M  V30 12187 O 1773.44 4.45322 -7.53318 0
M  V30 12188 C 1772.95 4.74639 -5.19936 0
M  V30 12189 C 1773.66 3.49432 -4.70418 0
M  V30 12190 N 1773.61 3.31776 -3.22945 0
M  V30 12191 C 1773.46 2.02742 -2.72939 0
M  V30 12192 O 1773.37 1.08301 -3.52749 0
M  V30 12193 N 1773.41 1.96117 -1.22063 0
M  V30 12194 C 1773.51 2.8878 -0.551566 0
M  V30 12195 N 1773.46 2.65609 0.750198 0
M  V30 12196 C 1773.66 4.22457 -1.03707 0
M  V30 12197 C 1773.71 4.37979 -2.39113 0
M  V30 12198 H 1776.45 6.54138 -5.7131 0
M  V30 12199 H 1776.72 5.30492 -4.44033 0
M  V30 12200 H 1775.85 4.55945 -6.76735 0
M  V30 12201 H 1773.2 2.6176 -5.18021 0
M  V30 12202 H 1772.92 5.52233 -4.41941 0
M  V30 12203 H 1771.93 4.52045 -5.53452 0
M  V30 12204 H 1773.76 6.25124 -6.55234 0
M  V30 12205 H 1773.83 5.37936 -2.80552 0
M  V30 12206 H 1773.73 5.07528 -0.359553 0
M  V30 12207 H 1773.34 1.69403 1.09847 0
M  V30 12208 H 1773.54 3.43701 1.41792 0
M  V30 12209 P 1771.89 4.23843 -7.83734 0
M  V30 12210 O 1771.67 4.19407 -9.29784 0
M  V30 12211 O 1771.1 5.24426 -7.09156 0
M  V30 12212 O 1771.64 2.7935 -7.20758 0
M  V30 12213 C 1772.58 1.7299 -7.50419 0
M  V30 12214 C 1771.85 0.406376 -7.57911 0
M  V30 12215 O 1771.64 -0.0897726 -6.21935 0
M  V30 12216 C 1770.45 0.447224 -8.1878 0
M  V30 12217 O 1770.06 -0.825065 -8.71101 0
M  V30 12218 C 1769.57 0.783801 -6.99623 0
M  V30 12219 C 1770.28 0.0619192 -5.85967 0
M  V30 12220 N 1770.23 0.790462 -4.56202 0
M  V30 12221 C 1770.31 2.13895 -4.34171 0
M  V30 12222 N 1770.24 2.46449 -3.08687 0
M  V30 12223 C 1770.09 1.2525 -2.43697 0
M  V30 12224 C 1769.96 0.914535 -1.07318 0
M  V30 12225 N 1769.95 1.80782 -0.0887348 0
M  V30 12226 N 1769.84 -0.386745 -0.768133 0
M  V30 12227 C 1769.85 -1.28096 -1.75159 0
M  V30 12228 N 1769.97 -1.09708 -3.04861 0
M  V30 12229 C 1770.09 0.214857 -3.32306 0
M  V30 12230 H 1773.07 1.93423 -8.4679 0
M  V30 12231 H 1773.34 1.68852 -6.70877 0
M  V30 12232 H 1772.47 -0.289041 -8.15388 0
M  V30 12233 H 1769.82 -0.927006 -5.72848 0
M  V30 12234 H 1769.54 1.86973 -6.82036 0
M  V30 12235 H 1768.55 0.403953 -7.13357 0
M  V30 12236 H 1770.38 1.20599 -8.97534 0
M  V30 12237 H 1770.42 2.86846 -5.14318 0
M  V30 12238 H 1770.04 2.81082 -0.302037 0
M  V30 12239 H 1769.85 1.49688 0.889064 0
M  V30 12240 H 1769.74 -2.31317 -1.43855 0
M  V30 12241 P 1768.51 -1.17771 -8.83182 0
M  V30 12242 O 1768.29 -2.07206 -9.98732 0
M  V30 12243 O 1767.72 0.0743816 -8.81969 0
M  V30 12244 O 1768.26 -1.97652 -7.47304 0
M  V30 12245 C 1769.2 -3.01133 -7.08783 0
M  V30 12246 C 1768.47 -4.12613 -6.37049 0
M  V30 12247 O 1768.26 -3.72827 -4.97879 0
M  V30 12248 C 1767.07 -4.45085 -6.88694 0
M  V30 12249 O 1766.68 -5.7877 -6.5624 0
M  V30 12250 C 1766.19 -3.47817 -6.12078 0
M  V30 12251 C 1766.9 -3.39414 -4.77697 0
M  V30 12252 N 1766.85 -2.04615 -4.15333 0
M  V30 12253 H 1769.69 -3.41248 -7.98759 0
M  V30 12254 H 1769.96 -2.5837 -6.41742 0
M  V30 12255 H 1769.09 -5.02657 -6.42673 0
M  V30 12256 P 1765.13 -6.144 -6.45285 0
M  V30 12257 O 1764.91 -7.54673 -6.86199 0
M  V30 12258 O 1764.34 -5.12391 -7.179 0
M  V30 12259 O 1764.88 -5.99158 -4.88404 0
M  V30 12260 C 1765.82 -6.60062 -3.96313 0
M  V30 12261 C 1765.09 -7.08259 -2.72856 0
M  V30 12262 O 1764.88 -5.9427 -1.83651 0
M  V30 12263 C 1763.69 -7.65087 -2.94749 0
M  V30 12264 O 1763.3 -8.53963 -1.90717 0
M  V30 12265 C 1762.81 -6.41069 -2.90698 0
M  V30 12266 C 1763.52 -5.5528 -1.86931 0
M  V30 12267 N 1763.47 -4.09575 -2.15696 0
M  V30 12268 C 1763.32 -3.24249 -1.08435 0
M  V30 12269 O 1763.23 -3.63946 0.0628747 0
M  V30 12270 N 1763.28 -1.90009 -1.39973 0
M  V30 12271 C 1763.37 -1.34884 -2.65614 0
M  V30 12272 C 1763.52 -2.3145 -3.71736 0
M  V30 12273 C 1763.57 -3.63518 -3.44754 0
M  V30 12274 H 1766.31 -7.45402 -4.45526 0
M  V30 12275 H 1766.58 -5.86062 -3.67208 0
M  V30 12276 H 1765.71 -7.84412 -2.24479 0
M  V30 12277 H 1763.06 -5.73358 -0.888409 0
M  V30 12278 H 1762.78 -5.90877 -3.88583 0
M  V30 12279 H 1761.79 -6.65867 -2.58821 0
M  V30 12280 H 1763.62 -8.16248 -3.92006 0
M  V30 12281 H 1763.69 -4.34551 -4.26383 0
M  V30 12282 P 1761.75 -8.7635 -1.60911 0
M  V30 12283 O 1761.53 -10.1388 -1.11561 0
M  V30 12284 O 1760.96 -8.36503 -2.79617 0
M  V30 12285 O 1761.5 -7.71806 -0.42951 0
M  V30 12286 C 1762.44 -7.67148 0.673689 0
M  V30 12287 C 1761.71 -7.33374 1.95559 0
M  V30 12288 O 1761.5 -5.88721 2.00726 0
M  V30 12289 C 1760.31 -7.92526 2.10483 0
M  V30 12290 O 1759.92 -8.02971 3.47653 0
M  V30 12291 C 1759.43 -6.89602 1.41652 0
M  V30 12292 C 1760.14 -5.59201 1.75185 0
M  V30 12293 N 1760.09 -4.58235 0.662552 0
M  V30 12294 C 1760.17 -4.7683 -0.704049 0
M  V30 12295 N 1760.09 -3.66233 -1.39775 0
M  V30 12296 C 1759.95 -2.66526 -0.431739 0
M  V30 12297 C 1759.82 -1.26394 -0.575992 0
M  V30 12298 O 1759.8 -0.589894 -1.60503 0
M  V30 12299 N 1759.7 -0.62859 0.67177 0
M  V30 12300 C 1759.7 -1.27134 1.89385 0
M  V30 12301 N 1759.57 -0.492035 2.96951 0
M  V30 12302 N 1759.83 -2.58978 2.02907 0
M  V30 12303 C 1759.95 -3.22433 0.832218 0
M  V30 12304 H 1762.93 -8.65116 0.777161 0
M  V30 12305 H 1763.2 -6.90173 0.474152 0
M  V30 12306 H 1762.33 -7.66548 2.79458 0
M  V30 12307 H 1759.68 -5.16254 2.65229 0
M  V30 12308 H 1759.4 -7.06532 0.329431 0
M  V30 12309 H 1758.41 -6.91023 1.82047 0
M  V30 12310 H 1760.24 -8.90971 1.62675 0
M  V30 12311 H 1760.29 -5.74954 -1.16305 0
M  V30 12312 H 1759.61 0.366713 0.674793 0
M  V30 12313 H 1759.57 -0.908532 3.91188 0
M  V30 12314 H 1759.47 0.528253 2.85758 0
M  V30 12315 P 1758.37 -8.03563 3.84925 0
M  V30 12316 O 1758.15 -8.85821 5.0569 0
M  V30 12317 O 1757.58 -8.41101 2.65469 0
M  V30 12318 O 1758.12 -6.4965 4.18908 0
M  V30 12319 C 1759.06 -5.81037 5.05421 0
M  V30 12320 C 1758.33 -4.78366 5.89277 0
M  V30 12321 O 1758.12 -3.58302 5.08433 0
M  V30 12322 C 1756.93 -5.17448 6.36119 0
M  V30 12323 O 1756.54 -4.45271 7.53232 0
M  V30 12324 C 1756.05 -4.74639 5.19936 0
M  V30 12325 C 1756.76 -3.49432 4.70418 0
M  V30 12326 N 1756.71 -3.32099 3.22613 0
M  V30 12327 H 1759.55 -6.54213 5.71376 0
M  V30 12328 H 1759.82 -5.30936 4.43503 0
M  V30 12329 H 1758.95 -4.55889 6.76652 0
M  V30 12330 H 1756.3 -2.61715 5.17932 0
M  V30 12331 H 1756.02 -5.52155 4.41878 0
M  V30 12332 H 1755.03 -4.51981 5.53374 0
M  V30 12333 H 1756.86 -6.25124 6.55234 0
M  V30 12334 P 1754.99 -4.23843 7.83734 0
M  V30 12335 O 1754.77 -4.19407 9.29784 0
M  V30 12336 O 1754.2 -5.24426 7.09156 0
M  V30 12337 O 1754.74 -2.7935 7.20758 0
M  V30 12338 C 1755.68 -1.7299 7.50419 0
M  V30 12339 C 1754.95 -0.406376 7.57911 0
M  V30 12340 O 1754.74 0.0897726 6.21935 0
M  V30 12341 C 1753.55 -0.447224 8.1878 0
M  V30 12342 O 1753.16 0.825065 8.71101 0
M  V30 12343 C 1752.67 -0.783801 6.99623 0
M  V30 12344 C 1753.38 -0.0619192 5.85967 0
M  V30 12345 N 1753.33 -0.7859 4.56281 0
M  V30 12346 H 1756.17 -1.93423 8.4679 0
M  V30 12347 H 1756.44 -1.68181 6.71046 0
M  V30 12348 H 1755.57 0.289041 8.15388 0
M  V30 12349 P 1751.61 1.17771 8.83182 0
M  V30 12350 O 1751.39 2.07206 9.98732 0
M  V30 12351 O 1750.82 -0.0743816 8.81969 0
M  V30 12352 O 1751.36 1.97652 7.47304 0
M  V30 12353 C 1752.3 3.01133 7.08783 0
M  V30 12354 C 1751.57 4.12613 6.37049 0
M  V30 12355 O 1751.36 3.72827 4.97879 0
M  V30 12356 C 1750.17 4.45085 6.88694 0
M  V30 12357 O 1749.78 5.7877 6.5624 0
M  V30 12358 C 1749.29 3.47817 6.12078 0
M  V30 12359 C 1750 3.39414 4.77697 0
M  V30 12360 N 1749.95 2.04615 4.15333 0
M  V30 12361 H 1752.79 3.41248 7.98759 0
M  V30 12362 H 1753.06 2.5837 6.41742 0
M  V30 12363 H 1752.19 5.02657 6.42673 0
M  V30 12364 P 1748.23 6.144 6.45285 0
M  V30 12365 O 1748.01 7.54673 6.86199 0
M  V30 12366 O 1747.44 5.12391 7.179 0
M  V30 12367 O 1747.98 5.99158 4.88404 0
M  V30 12368 C 1748.92 6.60062 3.96313 0
M  V30 12369 C 1748.19 7.08259 2.72856 0
M  V30 12370 O 1747.98 5.9427 1.83651 0
M  V30 12371 C 1746.79 7.65087 2.94749 0
M  V30 12372 O 1746.4 8.53963 1.90717 0
M  V30 12373 C 1745.91 6.41069 2.90698 0
M  V30 12374 C 1746.62 5.5528 1.86931 0
M  V30 12375 N 1746.57 4.09575 2.15696 0
M  V30 12376 C 1746.42 3.24249 1.08435 0
M  V30 12377 O 1746.33 3.63946 -0.0628747 0
M  V30 12378 N 1746.38 1.90009 1.39973 0
M  V30 12379 C 1746.47 1.34884 2.65614 0
M  V30 12380 C 1746.62 2.3145 3.71736 0
M  V30 12381 C 1746.67 3.63518 3.44754 0
M  V30 12382 H 1749.41 7.45402 4.45526 0
M  V30 12383 H 1749.68 5.86062 3.67208 0
M  V30 12384 H 1748.81 7.84412 2.24479 0
M  V30 12385 H 1746.16 5.73358 0.888409 0
M  V30 12386 H 1745.88 5.90877 3.88583 0
M  V30 12387 H 1744.89 6.65867 2.58821 0
M  V30 12388 H 1746.72 8.16248 3.92006 0
M  V30 12389 H 1746.79 4.34551 4.26383 0
M  V30 12390 P 1744.85 8.7635 1.60911 0
M  V30 12391 O 1744.63 10.1388 1.11561 0
M  V30 12392 O 1744.06 8.36503 2.79617 0
M  V30 12393 O 1744.6 7.71806 0.42951 0
M  V30 12394 C 1745.54 7.67148 -0.673689 0
M  V30 12395 C 1744.81 7.33374 -1.95559 0
M  V30 12396 O 1744.6 5.88721 -2.00726 0
M  V30 12397 C 1743.41 7.92526 -2.10483 0
M  V30 12398 O 1743.02 8.02971 -3.47653 0
M  V30 12399 C 1742.53 6.89602 -1.41652 0
M  V30 12400 C 1743.24 5.59201 -1.75185 0
M  V30 12401 N 1743.19 4.58235 -0.662552 0
M  V30 12402 H 1746.03 8.65116 -0.777161 0
M  V30 12403 H 1746.3 6.90173 -0.474152 0
M  V30 12404 H 1745.43 7.66548 -2.79458 0
M  V30 12405 P 1741.47 8.03563 -3.84925 0
M  V30 12406 O 1741.25 8.85821 -5.0569 0
M  V30 12407 O 1740.68 8.41101 -2.65469 0
M  V30 12408 O 1741.22 6.4965 -4.18908 0
M  V30 12409 C 1742.16 5.81037 -5.05421 0
M  V30 12410 C 1741.43 4.78366 -5.89277 0
M  V30 12411 O 1741.22 3.58302 -5.08433 0
M  V30 12412 C 1740.03 5.17448 -6.36119 0
M  V30 12413 O 1739.64 4.45271 -7.53232 0
M  V30 12414 C 1739.15 4.74639 -5.19936 0
M  V30 12415 C 1739.86 3.49432 -4.70418 0
M  V30 12416 N 1739.81 3.31776 -3.22945 0
M  V30 12417 H 1742.65 6.54213 -5.71376 0
M  V30 12418 H 1742.92 5.30492 -4.44033 0
M  V30 12419 H 1742.05 4.55889 -6.76652 0
M  V30 12420 P 1738.09 4.23843 -7.83734 0
M  V30 12421 O 1737.87 4.19407 -9.29784 0
M  V30 12422 O 1737.3 5.24426 -7.09156 0
M  V30 12423 O 1737.84 2.7935 -7.20758 0
M  V30 12424 C 1738.78 1.7299 -7.50419 0
M  V30 12425 C 1738.05 0.406376 -7.57911 0
M  V30 12426 O 1737.84 -0.0897726 -6.21935 0
M  V30 12427 C 1736.65 0.447224 -8.1878 0
M  V30 12428 O 1736.26 -0.825065 -8.71101 0
M  V30 12429 C 1735.77 0.783801 -6.99623 0
M  V30 12430 C 1736.48 0.0619192 -5.85967 0
M  V30 12431 N 1736.43 0.7859 -4.56281 0
M  V30 12432 H 1739.27 1.93423 -8.4679 0
M  V30 12433 H 1739.54 1.68181 -6.71046 0
M  V30 12434 H 1738.67 -0.289041 -8.15388 0
M  V30 12435 P 1734.71 -1.17771 -8.83182 0
M  V30 12436 O 1734.49 -2.07206 -9.98732 0
M  V30 12437 O 1733.92 0.0743816 -8.81969 0
M  V30 12438 O 1734.46 -1.97652 -7.47304 0
M  V30 12439 C 1735.4 -3.01133 -7.08783 0
M  V30 12440 C 1734.67 -4.12613 -6.37049 0
M  V30 12441 O 1734.46 -3.72827 -4.97879 0
M  V30 12442 C 1733.27 -4.45085 -6.88694 0
M  V30 12443 O 1732.88 -5.7877 -6.5624 0
M  V30 12444 C 1732.39 -3.47817 -6.12078 0
M  V30 12445 C 1733.1 -3.39414 -4.77697 0
M  V30 12446 N 1733.05 -2.04615 -4.15333 0
M  V30 12447 H 1735.89 -3.41248 -7.98759 0
M  V30 12448 H 1736.16 -2.5837 -6.41742 0
M  V30 12449 H 1735.29 -5.02657 -6.42673 0
M  V30 12450 P 1731.33 -6.144 -6.45285 0
M  V30 12451 O 1731.11 -7.54673 -6.86199 0
M  V30 12452 O 1730.54 -5.12391 -7.179 0
M  V30 12453 O 1731.08 -5.99158 -4.88404 0
M  V30 12454 C 1732.02 -6.60234 -3.96415 0
M  V30 12455 C 1731.29 -7.08259 -2.72856 0
M  V30 12456 O 1731.08 -5.9427 -1.83651 0
M  V30 12457 C 1729.89 -7.64886 -2.9555 0
M  V30 12458 O 1729.5 -8.53963 -1.90717 0
M  V30 12459 C 1729.01 -6.4116 -2.90739 0
M  V30 12460 C 1729.72 -5.55375 -1.86963 0
M  V30 12461 N 1729.67 -4.09664 -2.15742 0
M  V30 12462 H 1732.51 -7.45574 -4.45629 0
M  V30 12463 H 1732.78 -5.86232 -3.67314 0
M  V30 12464 H 1731.91 -7.84412 -2.24479 0
M  V30 12465 P 1727.95 -8.7635 -1.60911 0
M  V30 12466 O 1727.73 -10.1388 -1.11561 0
M  V30 12467 O 1727.16 -8.36503 -2.79617 0
M  V30 12468 O 1727.7 -7.71806 -0.42951 0
M  V30 12469 C 1728.64 -7.67148 0.673689 0
M  V30 12470 C 1727.91 -7.33374 1.95559 0
M  V30 12471 O 1727.7 -5.88721 2.00726 0
M  V30 12472 C 1726.51 -7.92526 2.10483 0
M  V30 12473 O 1726.12 -8.02971 3.47653 0
M  V30 12474 C 1725.63 -6.89602 1.41652 0
M  V30 12475 C 1726.34 -5.59201 1.75185 0
M  V30 12476 N 1726.29 -4.58235 0.662552 0
M  V30 12477 H 1729.13 -8.65116 0.777161 0
M  V30 12478 H 1729.4 -6.90173 0.474152 0
M  V30 12479 H 1728.53 -7.66548 2.79458 0
M  V30 12480 P 1724.57 -8.03563 3.84925 0
M  V30 12481 O 1724.35 -8.85821 5.0569 0
M  V30 12482 O 1723.78 -8.41101 2.65469 0
M  V30 12483 O 1724.32 -6.4965 4.18908 0
M  V30 12484 C 1725.26 -5.81037 5.05421 0
M  V30 12485 C 1724.53 -4.78366 5.89277 0
M  V30 12486 O 1724.32 -3.58302 5.08433 0
M  V30 12487 C 1723.13 -5.17448 6.36119 0
M  V30 12488 O 1722.74 -4.45271 7.53232 0
M  V30 12489 C 1722.25 -4.74639 5.19936 0
M  V30 12490 C 1722.96 -3.49432 4.70418 0
M  V30 12491 N 1722.91 -3.31776 3.22945 0
M  V30 12492 H 1725.75 -6.54213 5.71376 0
M  V30 12493 H 1726.02 -5.30492 4.44033 0
M  V30 12494 H 1725.15 -4.55889 6.76652 0
M  V30 12495 P 1721.19 -4.23843 7.83734 0
M  V30 12496 O 1720.97 -4.19407 9.29784 0
M  V30 12497 O 1720.4 -5.24426 7.09156 0
M  V30 12498 O 1720.94 -2.7935 7.20758 0
M  V30 12499 C 1721.88 -1.7299 7.50419 0
M  V30 12500 C 1721.15 -0.406376 7.57911 0
M  V30 12501 O 1720.94 0.0897726 6.21935 0
M  V30 12502 C 1719.75 -0.447224 8.1878 0
M  V30 12503 O 1719.36 0.825065 8.71101 0
M  V30 12504 C 1718.87 -0.783801 6.99623 0
M  V30 12505 C 1719.58 -0.0619192 5.85967 0
M  V30 12506 N 1719.53 -0.790462 4.56202 0
M  V30 12507 H 1722.37 -1.93423 8.4679 0
M  V30 12508 H 1722.64 -1.68852 6.70877 0
M  V30 12509 H 1721.77 0.289041 8.15388 0
M  V30 12510 H 1719.12 0.927006 5.72848 0
M  V30 12511 H 1718.84 -1.86973 6.82036 0
M  V30 12512 H 1717.85 -0.403953 7.13357 0
M  V30 12513 H 1719.68 -1.20599 8.97534 0
M  V30 12514 P 1717.81 1.17771 8.83182 0
M  V30 12515 O 1717.59 2.07206 9.98732 0
M  V30 12516 O 1717.02 -0.0743816 8.81969 0
M  V30 12517 O 1717.56 1.97678 7.474 0
M  V30 12518 C 1718.5 3.01133 7.08783 0
M  V30 12519 C 1717.77 4.1203 6.37546 0
M  V30 12520 O 1717.56 3.72887 4.9796 0
M  V30 12521 C 1716.37 4.45085 6.88694 0
M  V30 12522 O 1715.98 5.78836 6.56315 0
M  V30 12523 C 1715.49 3.47817 6.12078 0
M  V30 12524 C 1716.2 3.39414 4.77697 0
M  V30 12525 N 1716.15 2.04615 4.15333 0
M  V30 12526 C 1716 1.96929 2.77162 0
M  V30 12527 O 1715.91 3.02017 2.12006 0
M  V30 12528 N 1715.95 0.55485 2.24237 0
M  V30 12529 C 1716.05 -0.367808 2.9169 0
M  V30 12530 N 1716 -1.53426 2.29427 0
M  V30 12531 C 1716.2 -0.319148 4.33828 0
M  V30 12532 C 1716.25 0.920672 4.90433 0
M  V30 12533 H 1718.99 3.41209 7.98667 0
M  V30 12534 H 1719.26 2.5837 6.41742 0
M  V30 12535 H 1718.39 5.02718 6.42752 0
M  V30 12536 H 1715.74 4.11779 4.09026 0
M  V30 12537 H 1715.46 2.49661 6.61772 0
M  V30 12538 H 1714.47 3.86674 6.00946 0
M  V30 12539 H 1716.3 4.29991 7.97006 0
M  V30 12540 H 1716.37 1.00589 5.98303 0
M  V30 12541 H 1716.27 -1.22639 4.93799 0
M  V30 12542 H 1715.88 -1.56819 1.27167 0
M  V30 12543 H 1716.08 -2.41062 2.83063 0
M  V30 12544 P 1714.43 6.144 6.45285 0
M  V30 12545 O 1714.21 7.54673 6.86199 0
M  V30 12546 O 1713.64 5.12391 7.179 0
M  V30 12547 O 1714.18 5.99158 4.88404 0
M  V30 12548 C 1715.12 6.60234 3.96415 0
M  V30 12549 C 1714.39 7.08259 2.72856 0
M  V30 12550 O 1714.18 5.9427 1.83651 0
M  V30 12551 C 1712.99 7.64886 2.9555 0
M  V30 12552 O 1712.6 8.53963 1.90717 0
M  V30 12553 C 1712.11 6.4116 2.90739 0
M  V30 12554 C 1712.82 5.55375 1.86963 0
M  V30 12555 N 1712.77 4.09664 2.15742 0
M  V30 12556 H 1715.61 7.45574 4.45629 0
M  V30 12557 H 1715.88 5.86232 3.67314 0
M  V30 12558 H 1715.01 7.84412 2.24479 0
M  V30 12559 P 1711.05 8.7635 1.60911 0
M  V30 12560 O 1710.83 10.1388 1.11561 0
M  V30 12561 O 1710.26 8.36503 2.79617 0
M  V30 12562 O 1710.8 7.71806 0.42951 0
M  V30 12563 C 1711.74 7.67148 -0.673689 0
M  V30 12564 C 1711.01 7.33374 -1.95559 0
M  V30 12565 O 1710.8 5.88721 -2.00726 0
M  V30 12566 C 1709.61 7.92526 -2.10483 0
M  V30 12567 O 1709.22 8.02971 -3.47653 0
M  V30 12568 C 1708.73 6.89602 -1.41652 0
M  V30 12569 C 1709.44 5.59201 -1.75185 0
M  V30 12570 N 1709.39 4.58235 -0.662552 0
M  V30 12571 H 1712.23 8.65116 -0.777161 0
M  V30 12572 H 1712.5 6.90173 -0.474152 0
M  V30 12573 H 1711.63 7.66548 -2.79458 0
M  V30 12574 P 1707.67 8.03563 -3.84925 0
M  V30 12575 O 1707.45 8.85821 -5.0569 0
M  V30 12576 O 1706.88 8.41101 -2.65469 0
M  V30 12577 O 1707.42 6.4965 -4.18908 0
M  V30 12578 C 1708.36 5.81037 -5.05421 0
M  V30 12579 C 1707.63 4.78366 -5.89277 0
M  V30 12580 O 1707.42 3.58302 -5.08433 0
M  V30 12581 C 1706.23 5.17448 -6.36119 0
M  V30 12582 O 1705.84 4.45271 -7.53232 0
M  V30 12583 C 1705.35 4.74639 -5.19936 0
M  V30 12584 C 1706.06 3.49432 -4.70418 0
M  V30 12585 N 1706.01 3.31776 -3.22945 0
M  V30 12586 H 1708.85 6.54213 -5.71376 0
M  V30 12587 H 1709.12 5.30492 -4.44033 0
M  V30 12588 H 1708.25 4.55889 -6.76652 0
M  V30 12589 P 1704.29 4.23843 -7.83734 0
M  V30 12590 O 1704.07 4.19407 -9.29784 0
M  V30 12591 O 1703.5 5.24426 -7.09156 0
M  V30 12592 O 1704.04 2.7935 -7.20758 0
M  V30 12593 C 1704.98 1.72945 -7.50224 0
M  V30 12594 C 1704.25 0.406376 -7.57911 0
M  V30 12595 O 1704.04 -0.0897726 -6.21935 0
M  V30 12596 C 1702.85 0.438983 -8.18724 0
M  V30 12597 O 1702.46 -0.825065 -8.71101 0
M  V30 12598 C 1701.97 0.783689 -6.99524 0
M  V30 12599 C 1702.68 0.0619086 -5.85867 0
M  V30 12600 N 1702.63 0.78573 -4.56183 0
M  V30 12601 C 1702.48 0.0292889 -3.41887 0
M  V30 12602 O 1702.39 -1.18445 -3.4419 0
M  V30 12603 N 1702.44 0.744061 -2.23964 0
M  V30 12604 C 1702.53 2.10932 -2.10362 0
M  V30 12605 C 1702.68 2.8202 -3.34994 0
M  V30 12606 C 1702.73 2.15547 -4.52261 0
M  V30 12607 H 1705.47 1.93379 -8.46595 0
M  V30 12608 H 1705.74 1.68132 -6.70852 0
M  V30 12609 H 1704.87 -0.289041 -8.15388 0
M  V30 12610 H 1702.22 -0.926847 -5.72749 0
M  V30 12611 H 1701.94 1.86973 -6.82036 0
M  V30 12612 H 1700.95 0.403896 -7.13257 0
M  V30 12613 H 1702.78 1.20585 -8.97435 0
M  V30 12614 H 1702.85 2.71231 -5.45042 0
M  V30 12615 P 1700.91 -1.17771 -8.83182 0
M  V30 12616 O 1700.69 -2.07206 -9.98732 0
M  V30 12617 O 1700.12 0.0743816 -8.81969 0
M  V30 12618 O 1700.66 -1.97652 -7.47304 0
M  V30 12619 C 1701.6 -3.01133 -7.08783 0
M  V30 12620 C 1700.87 -4.12613 -6.37049 0
M  V30 12621 O 1700.66 -3.72827 -4.97879 0
M  V30 12622 C 1699.47 -4.45085 -6.88694 0
M  V30 12623 O 1699.08 -5.7877 -6.5624 0
M  V30 12624 C 1698.59 -3.47817 -6.12078 0
M  V30 12625 C 1699.3 -3.39414 -4.77697 0
M  V30 12626 N 1699.25 -2.04615 -4.15333 0
M  V30 12627 H 1702.09 -3.41248 -7.98759 0
M  V30 12628 H 1702.36 -2.5837 -6.41742 0
M  V30 12629 H 1701.49 -5.02657 -6.42673 0
M  V30 12630 P 1697.53 -6.144 -6.45285 0
M  V30 12631 O 1697.31 -7.54673 -6.86199 0
M  V30 12632 O 1696.74 -5.12391 -7.179 0
M  V30 12633 O 1697.28 -5.99158 -4.88404 0
M  V30 12634 C 1698.22 -6.60234 -3.96415 0
M  V30 12635 C 1697.49 -7.08259 -2.72856 0
M  V30 12636 O 1697.28 -5.9427 -1.83651 0
M  V30 12637 C 1696.09 -7.64886 -2.9555 0
M  V30 12638 O 1695.7 -8.53963 -1.90717 0
M  V30 12639 C 1695.21 -6.4116 -2.90739 0
M  V30 12640 C 1695.92 -5.55375 -1.86963 0
M  V30 12641 N 1695.87 -4.09664 -2.15742 0
M  V30 12642 H 1698.71 -7.45574 -4.45629 0
M  V30 12643 H 1698.98 -5.86232 -3.67314 0
M  V30 12644 H 1698.11 -7.84412 -2.24479 0
M  V30 12645 P 1694.15 -8.7635 -1.60911 0
M  V30 12646 O 1693.93 -10.1388 -1.11561 0
M  V30 12647 O 1693.36 -8.36503 -2.79617 0
M  V30 12648 O 1693.9 -7.71806 -0.42951 0
M  V30 12649 C 1694.84 -7.66948 0.673514 0
M  V30 12650 C 1694.11 -7.33374 1.95559 0
M  V30 12651 O 1693.9 -5.88721 2.00726 0
M  V30 12652 C 1692.71 -7.92218 2.1125 0
M  V30 12653 O 1692.32 -8.02971 3.47653 0
M  V30 12654 C 1691.83 -6.89504 1.41631 0
M  V30 12655 C 1692.54 -5.59106 1.75155 0
M  V30 12656 N 1692.49 -4.58136 0.662409 0
M  V30 12657 C 1692.34 -3.26059 1.02863 0
M  V30 12658 O 1692.25 -2.90743 2.19009 0
M  V30 12659 N 1692.3 -2.35995 -0.0155585 0
M  V30 12660 C 1692.39 -2.65248 -1.35603 0
M  V30 12661 O 1692.34 -1.75605 -2.20651 0
M  V30 12662 C 1692.54 -4.05747 -1.64698 0
M  V30 12663 C 1692.65 -4.42345 -3.09553 0
M  V30 12664 C 1692.59 -4.96734 -0.652411 0
M  V30 12665 H 1695.33 -8.64917 0.776982 0
M  V30 12666 H 1695.6 -6.89974 0.474015 0
M  V30 12667 H 1694.73 -7.66548 2.79458 0
M  V30 12668 H 1692.08 -5.16076 2.65138 0
M  V30 12669 H 1691.8 -7.06433 0.329384 0
M  V30 12670 H 1690.81 -6.90829 1.81996 0
M  V30 12671 H 1692.64 -8.90774 1.62639 0
M  V30 12672 H 1692.71 -6.02181 -0.895285 0
M  V30 12673 H 1691.68 -4.80252 -3.45468 0
M  V30 12674 H 1693.42 -5.20015 -3.22119 0
M  V30 12675 H 1692.93 -3.53269 -3.67833 0
M  V30 12676 H 1692.19 -1.39558 0.227499 0
M  V30 12677 P 1690.77 -8.03563 3.84925 0
M  V30 12678 O 1690.55 -8.85821 5.0569 0
M  V30 12679 O 1689.98 -8.41101 2.65469 0
M  V30 12680 O 1690.52 -6.4965 4.18908 0
M  V30 12681 C 1691.46 -5.81037 5.05421 0
M  V30 12682 C 1690.73 -4.78366 5.89277 0
M  V30 12683 O 1690.52 -3.58302 5.08433 0
M  V30 12684 C 1689.33 -5.17448 6.36119 0
M  V30 12685 O 1688.94 -4.45271 7.53232 0
M  V30 12686 C 1688.45 -4.74639 5.19936 0
M  V30 12687 C 1689.16 -3.49432 4.70418 0
M  V30 12688 N 1689.11 -3.31776 3.22945 0
M  V30 12689 H 1691.95 -6.54213 5.71376 0
M  V30 12690 H 1692.22 -5.30492 4.44033 0
M  V30 12691 H 1691.35 -4.55889 6.76652 0
M  V30 12692 P 1687.39 -4.23843 7.83734 0
M  V30 12693 O 1687.17 -4.19407 9.29784 0
M  V30 12694 O 1686.6 -5.24426 7.09156 0
M  V30 12695 O 1687.14 -2.7935 7.20758 0
M  V30 12696 C 1688.08 -1.7299 7.50419 0
M  V30 12697 C 1687.35 -0.406376 7.57911 0
M  V30 12698 O 1687.14 0.0897726 6.21935 0
M  V30 12699 C 1685.95 -0.447224 8.1878 0
M  V30 12700 O 1685.56 0.825065 8.71101 0
M  V30 12701 C 1685.07 -0.783801 6.99623 0
M  V30 12702 C 1685.78 -0.0619192 5.85967 0
M  V30 12703 N 1685.73 -0.7859 4.56281 0
M  V30 12704 H 1688.57 -1.93423 8.4679 0
M  V30 12705 H 1688.84 -1.68181 6.71046 0
M  V30 12706 H 1687.97 0.289041 8.15388 0
M  V30 12707 P 1684.01 1.17771 8.83182 0
M  V30 12708 O 1683.79 2.07206 9.98732 0
M  V30 12709 O 1683.22 -0.0743816 8.81969 0
M  V30 12710 O 1683.76 1.97652 7.47304 0
M  V30 12711 C 1684.7 3.01133 7.08783 0
M  V30 12712 C 1683.97 4.12613 6.37049 0
M  V30 12713 O 1683.76 3.72827 4.97879 0
M  V30 12714 C 1682.57 4.45085 6.88694 0
M  V30 12715 O 1682.18 5.7877 6.5624 0
M  V30 12716 C 1681.69 3.47817 6.12078 0
M  V30 12717 C 1682.4 3.39414 4.77697 0
M  V30 12718 N 1682.35 2.04199 4.15538 0
M  V30 12719 C 1682.43 0.821545 4.76977 0
M  V30 12720 N 1682.36 -0.1794 3.94592 0
M  V30 12721 C 1682.21 0.419121 2.70776 0
M  V30 12722 C 1682.08 -0.109072 1.40577 0
M  V30 12723 N 1682.07 -1.4104 1.1344 0
M  V30 12724 N 1681.96 0.764381 0.39411 0
M  V30 12725 C 1681.97 2.06587 0.664135 0
M  V30 12726 N 1682.09 2.67948 1.82153 0
M  V30 12727 C 1682.21 1.77942 2.8147 0
M  V30 12728 H 1685.19 3.41248 7.98759 0
M  V30 12729 H 1685.46 2.57728 6.42 0
M  V30 12730 H 1684.59 5.02657 6.42673 0
M  V30 12731 H 1681.94 4.11708 4.08956 0
M  V30 12732 H 1681.66 2.49626 6.61679 0
M  V30 12733 H 1680.67 3.8662 6.00862 0
M  V30 12734 H 1682.5 4.29991 7.97006 0
M  V30 12735 H 1682.54 0.702451 5.84696 0
M  V30 12736 H 1682.16 -2.09647 1.89651 0
M  V30 12737 H 1681.97 -1.73358 0.160575 0
M  V30 12738 H 1681.86 2.71695 -0.195838 0
M  V30 12739 P 1680.63 6.144 6.45285 0
M  V30 12740 O 1680.41 7.54673 6.86199 0
M  V30 12741 O 1679.84 5.12391 7.179 0
M  V30 12742 O 1680.38 5.99158 4.88404 0
M  V30 12743 C 1681.32 6.60234 3.96415 0
M  V30 12744 C 1680.59 7.08259 2.72856 0
M  V30 12745 O 1680.38 5.9427 1.83651 0
M  V30 12746 C 1679.19 7.64886 2.9555 0
M  V30 12747 O 1678.8 8.53963 1.90717 0
M  V30 12748 C 1678.31 6.4116 2.90739 0
M  V30 12749 C 1679.02 5.55375 1.86963 0
M  V30 12750 N 1678.97 4.09448 2.16152 0
M  V30 12751 H 1681.81 7.45574 4.45629 0
M  V30 12752 H 1682.08 5.85864 3.679 0
M  V30 12753 H 1681.21 7.84412 2.24479 0
M  V30 12754 H 1678.56 5.73457 0.888562 0
M  V30 12755 H 1678.28 5.90877 3.88583 0
M  V30 12756 H 1677.29 6.6596 2.58858 0
M  V30 12757 H 1679.12 8.16339 3.92049 0
M  V30 12758 P 1677.25 8.7635 1.60911 0
M  V30 12759 O 1677.03 10.1388 1.11561 0
M  V30 12760 O 1676.46 8.36503 2.79617 0
M  V30 12761 O 1677 7.71806 0.42951 0
M  V30 12762 C 1677.94 7.67148 -0.673689 0
M  V30 12763 C 1677.21 7.33374 -1.95559 0
M  V30 12764 O 1677 5.88721 -2.00726 0
M  V30 12765 C 1675.81 7.92526 -2.10483 0
M  V30 12766 O 1675.42 8.02971 -3.47653 0
M  V30 12767 C 1674.93 6.89602 -1.41652 0
M  V30 12768 C 1675.64 5.59201 -1.75185 0
M  V30 12769 N 1675.59 4.58301 -0.657969 0
M  V30 12770 H 1678.43 8.65116 -0.777161 0
M  V30 12771 H 1678.7 6.9022 -0.46725 0
M  V30 12772 H 1677.83 7.66548 -2.79458 0
M  V30 12773 H 1675.18 5.16165 -2.65183 0
M  V30 12774 H 1674.9 7.06433 -0.329384 0
M  V30 12775 H 1673.91 6.90926 -1.82021 0
M  V30 12776 H 1675.74 8.90873 -1.62657 0
M  V30 12777 P 1673.87 8.03563 -3.84925 0
M  V30 12778 O 1673.65 8.85821 -5.0569 0
M  V30 12779 O 1673.08 8.41101 -2.65469 0
M  V30 12780 O 1673.62 6.4965 -4.18908 0
M  V30 12781 C 1674.56 5.81037 -5.05421 0
M  V30 12782 C 1673.83 4.78366 -5.89277 0
M  V30 12783 O 1673.62 3.58302 -5.08433 0
M  V30 12784 C 1672.43 5.17448 -6.36119 0
M  V30 12785 O 1672.04 4.45271 -7.53232 0
M  V30 12786 C 1671.55 4.74639 -5.19936 0
M  V30 12787 C 1672.26 3.49432 -4.70418 0
M  V30 12788 N 1672.21 3.31776 -3.22945 0
M  V30 12789 H 1675.05 6.54213 -5.71376 0
M  V30 12790 H 1675.32 5.30492 -4.44033 0
M  V30 12791 H 1674.45 4.55889 -6.76652 0
M  V30 12792 P 1670.49 4.23843 -7.83734 0
M  V30 12793 O 1670.27 4.19407 -9.29784 0
M  V30 12794 O 1669.7 5.24426 -7.09156 0
M  V30 12795 O 1670.24 2.7935 -7.20758 0
M  V30 12796 C 1671.18 1.7299 -7.50419 0
M  V30 12797 C 1670.45 0.406376 -7.57911 0
M  V30 12798 O 1670.24 -0.0897726 -6.21935 0
M  V30 12799 C 1669.05 0.447224 -8.1878 0
M  V30 12800 O 1668.66 -0.825065 -8.71101 0
M  V30 12801 C 1668.17 0.783801 -6.99623 0
M  V30 12802 C 1668.88 0.0619192 -5.85967 0
M  V30 12803 N 1668.83 0.7859 -4.56281 0
M  V30 12804 H 1671.67 1.93423 -8.4679 0
M  V30 12805 H 1671.94 1.68181 -6.71046 0
M  V30 12806 H 1671.07 -0.289041 -8.15388 0
M  V30 12807 P 1667.11 -1.17771 -8.83182 0
M  V30 12808 O 1666.89 -2.07206 -9.98732 0
M  V30 12809 O 1666.32 0.0743816 -8.81969 0
M  V30 12810 O 1666.86 -1.97652 -7.47304 0
M  V30 12811 C 1667.8 -3.01055 -7.08599 0
M  V30 12812 C 1667.07 -4.12613 -6.37049 0
M  V30 12813 O 1666.86 -3.72827 -4.97879 0
M  V30 12814 C 1665.67 -4.45719 -6.88164 0
M  V30 12815 O 1665.28 -5.7877 -6.5624 0
M  V30 12816 C 1664.79 -3.47768 -6.11991 0
M  V30 12817 C 1665.5 -3.39356 -4.77615 0
M  V30 12818 N 1665.45 -2.04571 -4.15244 0
M  V30 12819 C 1665.3 -1.98587 -2.78314 0
M  V30 12820 O 1665.21 -2.98134 -2.08835 0
M  V30 12821 N 1665.26 -0.714467 -2.24925 0
M  V30 12822 C 1665.35 0.470001 -2.94169 0
M  V30 12823 C 1665.5 0.312541 -4.36783 0
M  V30 12824 C 1665.55 -0.914512 -4.92583 0
M  V30 12825 H 1668.29 -3.41169 -7.98575 0
M  V30 12826 H 1668.56 -2.58295 -6.41556 0
M  V30 12827 H 1667.69 -5.02657 -6.42673 0
M  V30 12828 H 1665.04 -4.11637 -4.08885 0
M  V30 12829 H 1664.76 -2.49626 -6.61679 0
M  V30 12830 H 1663.77 -3.86566 -6.00778 0
M  V30 12831 H 1665.6 -4.29943 -7.96918 0
M  V30 12832 H 1665.67 -1.00937 -6.00374 0
M  V30 12833 P 1663.73 -6.144 -6.45285 0
M  V30 12834 O 1663.51 -7.54673 -6.86199 0
M  V30 12835 O 1662.94 -5.12391 -7.179 0
M  V30 12836 O 1663.48 -5.99158 -4.88404 0
M  V30 12837 C 1664.42 -6.60234 -3.96415 0
M  V30 12838 C 1663.69 -7.08259 -2.72856 0
M  V30 12839 O 1663.48 -5.9427 -1.83651 0
M  V30 12840 C 1662.29 -7.64886 -2.9555 0
M  V30 12841 O 1661.9 -8.53963 -1.90717 0
M  V30 12842 C 1661.41 -6.4116 -2.90739 0
M  V30 12843 C 1662.12 -5.55375 -1.86963 0
M  V30 12844 N 1662.07 -4.09664 -2.15742 0
M  V30 12845 H 1664.91 -7.45574 -4.45629 0
M  V30 12846 H 1665.18 -5.86232 -3.67314 0
M  V30 12847 H 1664.31 -7.84412 -2.24479 0
M  V30 12848 P 1660.35 -8.7635 -1.60911 0
M  V30 12849 O 1660.13 -10.1388 -1.11561 0
M  V30 12850 O 1659.56 -8.36503 -2.79617 0
M  V30 12851 O 1660.1 -7.71806 -0.42951 0
M  V30 12852 C 1661.04 -7.66948 0.673514 0
M  V30 12853 C 1660.31 -7.33374 1.95559 0
M  V30 12854 O 1660.1 -5.88721 2.00726 0
M  V30 12855 C 1658.91 -7.92218 2.1125 0
M  V30 12856 O 1658.52 -8.02971 3.47653 0
M  V30 12857 C 1658.03 -6.89504 1.41631 0
M  V30 12858 C 1658.74 -5.59106 1.75155 0
M  V30 12859 N 1658.69 -4.58136 0.662409 0
M  V30 12860 C 1658.54 -3.26059 1.02863 0
M  V30 12861 O 1658.45 -2.90743 2.19009 0
M  V30 12862 N 1658.5 -2.35995 -0.0155585 0
M  V30 12863 C 1658.59 -2.65248 -1.35603 0
M  V30 12864 O 1658.54 -1.75605 -2.20651 0
M  V30 12865 C 1658.74 -4.05747 -1.64698 0
M  V30 12866 C 1658.85 -4.42345 -3.09553 0
M  V30 12867 C 1658.79 -4.96734 -0.652411 0
M  V30 12868 H 1661.53 -8.64917 0.776982 0
M  V30 12869 H 1661.8 -6.89974 0.474015 0
M  V30 12870 H 1660.93 -7.66548 2.79458 0
M  V30 12871 H 1658.28 -5.16076 2.65138 0
M  V30 12872 H 1658 -7.06433 0.329384 0
M  V30 12873 H 1657.01 -6.90829 1.81996 0
M  V30 12874 H 1658.84 -8.90774 1.62639 0
M  V30 12875 H 1658.91 -6.02181 -0.895285 0
M  V30 12876 H 1657.88 -4.80252 -3.45468 0
M  V30 12877 H 1659.62 -5.20015 -3.22119 0
M  V30 12878 H 1659.13 -3.53269 -3.67833 0
M  V30 12879 H 1658.4 -1.39558 0.227499 0
M  V30 12880 P 1656.97 -8.03563 3.84925 0
M  V30 12881 O 1656.75 -8.85821 5.0569 0
M  V30 12882 O 1656.18 -8.41101 2.65469 0
M  V30 12883 O 1656.72 -6.49734 4.18962 0
M  V30 12884 C 1657.66 -5.81037 5.05421 0
M  V30 12885 C 1656.93 -4.79018 5.88876 0
M  V30 12886 O 1656.72 -3.58359 5.08515 0
M  V30 12887 C 1655.53 -5.17448 6.36119 0
M  V30 12888 O 1655.14 -4.45322 7.53318 0
M  V30 12889 C 1654.65 -4.74639 5.19936 0
M  V30 12890 C 1655.36 -3.49432 4.70418 0
M  V30 12891 N 1655.31 -3.31776 3.22945 0
M  V30 12892 C 1655.16 -2.02742 2.72939 0
M  V30 12893 O 1655.07 -1.08301 3.52749 0
M  V30 12894 N 1655.11 -1.96117 1.22063 0
M  V30 12895 C 1655.21 -2.8878 0.551566 0
M  V30 12896 N 1655.16 -2.65609 -0.750198 0
M  V30 12897 C 1655.36 -4.22457 1.03707 0
M  V30 12898 C 1655.41 -4.37979 2.39113 0
M  V30 12899 H 1658.15 -6.54138 5.7131 0
M  V30 12900 H 1658.42 -5.30492 4.44033 0
M  V30 12901 H 1657.55 -4.55945 6.76735 0
M  V30 12902 H 1654.9 -2.6176 5.18021 0
M  V30 12903 H 1654.62 -5.52233 4.41941 0
M  V30 12904 H 1653.63 -4.52045 5.53452 0
M  V30 12905 H 1655.46 -6.25124 6.55234 0
M  V30 12906 H 1655.53 -5.37936 2.80552 0
M  V30 12907 H 1655.43 -5.07528 0.359553 0
M  V30 12908 H 1655.04 -1.69403 -1.09847 0
M  V30 12909 H 1655.24 -3.43701 -1.41792 0
M  V30 12910 P 1653.59 -4.23843 7.83734 0
M  V30 12911 O 1653.37 -4.19407 9.29784 0
M  V30 12912 O 1652.8 -5.24426 7.09156 0
M  V30 12913 O 1653.34 -2.7935 7.20758 0
M  V30 12914 C 1654.28 -1.7299 7.50419 0
M  V30 12915 C 1653.55 -0.406376 7.57911 0
M  V30 12916 O 1653.34 0.0897726 6.21935 0
M  V30 12917 C 1652.15 -0.447224 8.1878 0
M  V30 12918 O 1651.76 0.825065 8.71101 0
M  V30 12919 C 1651.27 -0.783801 6.99623 0
M  V30 12920 C 1651.98 -0.0619192 5.85967 0
M  V30 12921 N 1651.93 -0.790462 4.56202 0
M  V30 12922 H 1654.77 -1.93423 8.4679 0
M  V30 12923 H 1655.04 -1.68852 6.70877 0
M  V30 12924 H 1654.17 0.289041 8.15388 0
M  V30 12925 H 1651.52 0.927006 5.72848 0
M  V30 12926 H 1651.24 -1.86973 6.82036 0
M  V30 12927 H 1650.25 -0.403953 7.13357 0
M  V30 12928 H 1652.08 -1.20599 8.97534 0
M  V30 12929 P 1650.21 1.17771 8.83182 0
M  V30 12930 O 1649.99 2.07206 9.98732 0
M  V30 12931 O 1649.42 -0.0743816 8.81969 0
M  V30 12932 O 1649.96 1.97678 7.474 0
M  V30 12933 C 1650.9 3.01133 7.08783 0
M  V30 12934 C 1650.17 4.1203 6.37546 0
M  V30 12935 O 1649.96 3.72887 4.9796 0
M  V30 12936 C 1648.77 4.45085 6.88694 0
M  V30 12937 O 1648.38 5.78836 6.56315 0
M  V30 12938 C 1647.89 3.47817 6.12078 0
M  V30 12939 C 1648.6 3.39414 4.77697 0
M  V30 12940 N 1648.55 2.04615 4.15333 0
M  V30 12941 C 1648.4 1.96929 2.77162 0
M  V30 12942 O 1648.31 3.02017 2.12006 0
M  V30 12943 N 1648.35 0.55485 2.24237 0
M  V30 12944 C 1648.45 -0.367808 2.9169 0
M  V30 12945 N 1648.4 -1.53426 2.29427 0
M  V30 12946 C 1648.6 -0.319148 4.33828 0
M  V30 12947 C 1648.65 0.920672 4.90433 0
M  V30 12948 H 1651.39 3.41209 7.98667 0
M  V30 12949 H 1651.66 2.5837 6.41742 0
M  V30 12950 H 1650.79 5.02718 6.42752 0
M  V30 12951 H 1648.14 4.11779 4.09026 0
M  V30 12952 H 1647.86 2.49661 6.61772 0
M  V30 12953 H 1646.87 3.86674 6.00946 0
M  V30 12954 H 1648.7 4.29991 7.97006 0
M  V30 12955 H 1648.77 1.00589 5.98303 0
M  V30 12956 H 1648.67 -1.22639 4.93799 0
M  V30 12957 H 1648.28 -1.56819 1.27167 0
M  V30 12958 H 1648.48 -2.41062 2.83063 0
M  V30 12959 P 1646.83 6.144 6.45285 0
M  V30 12960 O 1646.61 7.54673 6.86199 0
M  V30 12961 O 1646.04 5.12391 7.179 0
M  V30 12962 O 1646.58 5.99158 4.88404 0
M  V30 12963 C 1647.52 6.60062 3.96313 0
M  V30 12964 C 1646.79 7.08259 2.72856 0
M  V30 12965 O 1646.58 5.9427 1.83651 0
M  V30 12966 C 1645.39 7.65087 2.94749 0
M  V30 12967 O 1645 8.53963 1.90717 0
M  V30 12968 C 1644.51 6.41069 2.90698 0
M  V30 12969 C 1645.22 5.5528 1.86931 0
M  V30 12970 N 1645.17 4.09575 2.15696 0
M  V30 12971 C 1645.02 3.24249 1.08435 0
M  V30 12972 O 1644.93 3.63946 -0.0628747 0
M  V30 12973 N 1644.98 1.90009 1.39973 0
M  V30 12974 C 1645.07 1.34884 2.65614 0
M  V30 12975 C 1645.22 2.3145 3.71736 0
M  V30 12976 C 1645.27 3.63518 3.44754 0
M  V30 12977 H 1648.01 7.45402 4.45526 0
M  V30 12978 H 1648.28 5.86062 3.67208 0
M  V30 12979 H 1647.41 7.84412 2.24479 0
M  V30 12980 H 1644.76 5.73358 0.888409 0
M  V30 12981 H 1644.48 5.90877 3.88583 0
M  V30 12982 H 1643.49 6.65867 2.58821 0
M  V30 12983 H 1645.32 8.16248 3.92006 0
M  V30 12984 H 1645.39 4.34551 4.26383 0
M  V30 12985 P 1643.45 8.7635 1.60911 0
M  V30 12986 O 1643.23 10.1388 1.11561 0
M  V30 12987 O 1642.66 8.36503 2.79617 0
M  V30 12988 O 1643.2 7.71806 0.42951 0
M  V30 12989 C 1644.14 7.67148 -0.673689 0
M  V30 12990 C 1643.41 7.33374 -1.95559 0
M  V30 12991 O 1643.2 5.88721 -2.00726 0
M  V30 12992 C 1642.01 7.92526 -2.10483 0
M  V30 12993 O 1641.62 8.02971 -3.47653 0
M  V30 12994 C 1641.13 6.89602 -1.41652 0
M  V30 12995 C 1641.84 5.59201 -1.75185 0
M  V30 12996 N 1641.79 4.58235 -0.662552 0
M  V30 12997 H 1644.63 8.65116 -0.777161 0
M  V30 12998 H 1644.9 6.90173 -0.474152 0
M  V30 12999 H 1644.03 7.66548 -2.79458 0
M  V30 13000 P 1640.07 8.03563 -3.84925 0
M  V30 13001 O 1639.85 8.85821 -5.0569 0
M  V30 13002 O 1639.28 8.41101 -2.65469 0
M  V30 13003 O 1639.82 6.4965 -4.18908 0
M  V30 13004 C 1640.76 5.81037 -5.05421 0
M  V30 13005 C 1640.03 4.78366 -5.89277 0
M  V30 13006 O 1639.82 3.58302 -5.08433 0
M  V30 13007 C 1638.63 5.17448 -6.36119 0
M  V30 13008 O 1638.24 4.45271 -7.53232 0
M  V30 13009 C 1637.75 4.74639 -5.19936 0
M  V30 13010 C 1638.46 3.49432 -4.70418 0
M  V30 13011 N 1638.41 3.32099 -3.22613 0
M  V30 13012 H 1641.25 6.54213 -5.71376 0
M  V30 13013 H 1641.52 5.30936 -4.43503 0
M  V30 13014 H 1640.65 4.55889 -6.76652 0
M  V30 13015 H 1638 2.61715 -5.17932 0
M  V30 13016 H 1637.72 5.52155 -4.41878 0
M  V30 13017 H 1636.73 4.51981 -5.53374 0
M  V30 13018 H 1638.56 6.25124 -6.55234 0
M  V30 13019 P 1636.69 4.23843 -7.83734 0
M  V30 13020 O 1636.47 4.19407 -9.29784 0
M  V30 13021 O 1635.9 5.24426 -7.09156 0
M  V30 13022 O 1636.44 2.7935 -7.20758 0
M  V30 13023 C 1637.38 1.7299 -7.50419 0
M  V30 13024 C 1636.65 0.406376 -7.57911 0
M  V30 13025 O 1636.44 -0.0897726 -6.21935 0
M  V30 13026 C 1635.25 0.447224 -8.1878 0
M  V30 13027 O 1634.86 -0.825065 -8.71101 0
M  V30 13028 C 1634.37 0.783801 -6.99623 0
M  V30 13029 C 1635.08 0.0619192 -5.85967 0
M  V30 13030 N 1635.03 0.790462 -4.56202 0
M  V30 13031 C 1635.11 2.13895 -4.34171 0
M  V30 13032 N 1635.04 2.46449 -3.08687 0
M  V30 13033 C 1634.89 1.2525 -2.43697 0
M  V30 13034 C 1634.76 0.914535 -1.07318 0
M  V30 13035 N 1634.75 1.80782 -0.0887348 0
M  V30 13036 N 1634.64 -0.386745 -0.768133 0
M  V30 13037 C 1634.65 -1.28096 -1.75159 0
M  V30 13038 N 1634.77 -1.09708 -3.04861 0
M  V30 13039 C 1634.89 0.214857 -3.32306 0
M  V30 13040 H 1637.87 1.93423 -8.4679 0
M  V30 13041 H 1638.14 1.68852 -6.70877 0
M  V30 13042 H 1637.27 -0.289041 -8.15388 0
M  V30 13043 H 1634.62 -0.927006 -5.72848 0
M  V30 13044 H 1634.34 1.86973 -6.82036 0
M  V30 13045 H 1633.35 0.403953 -7.13357 0
M  V30 13046 H 1635.18 1.20599 -8.97534 0
M  V30 13047 H 1635.22 2.86846 -5.14318 0
M  V30 13048 H 1634.84 2.81082 -0.302037 0
M  V30 13049 H 1634.65 1.49688 0.889064 0
M  V30 13050 H 1634.54 -2.31317 -1.43855 0
M  V30 13051 P 1633.31 -1.17771 -8.83182 0
M  V30 13052 O 1633.09 -2.07206 -9.98732 0
M  V30 13053 O 1632.52 0.0743816 -8.81969 0
M  V30 13054 O 1633.06 -1.97652 -7.47304 0
M  V30 13055 C 1634 -3.01133 -7.08783 0
M  V30 13056 C 1633.27 -4.12613 -6.37049 0
M  V30 13057 O 1633.06 -3.72827 -4.97879 0
M  V30 13058 C 1631.87 -4.45085 -6.88694 0
M  V30 13059 O 1631.48 -5.7877 -6.5624 0
M  V30 13060 C 1630.99 -3.47817 -6.12078 0
M  V30 13061 C 1631.7 -3.39414 -4.77697 0
M  V30 13062 N 1631.65 -2.04615 -4.15333 0
M  V30 13063 H 1634.49 -3.41248 -7.98759 0
M  V30 13064 H 1634.76 -2.5837 -6.41742 0
M  V30 13065 H 1633.89 -5.02657 -6.42673 0
M  V30 13066 P 1629.93 -6.144 -6.45285 0
M  V30 13067 O 1629.71 -7.54673 -6.86199 0
M  V30 13068 O 1629.14 -5.12391 -7.179 0
M  V30 13069 O 1629.68 -5.99158 -4.88404 0
M  V30 13070 C 1630.62 -6.60234 -3.96415 0
M  V30 13071 C 1629.89 -7.08259 -2.72856 0
M  V30 13072 O 1629.68 -5.9427 -1.83651 0
M  V30 13073 C 1628.49 -7.64886 -2.9555 0
M  V30 13074 O 1628.1 -8.53963 -1.90717 0
M  V30 13075 C 1627.61 -6.4116 -2.90739 0
M  V30 13076 C 1628.32 -5.55375 -1.86963 0
M  V30 13077 N 1628.27 -4.09448 -2.16152 0
M  V30 13078 H 1631.11 -7.45574 -4.45629 0
M  V30 13079 H 1631.38 -5.85864 -3.679 0
M  V30 13080 H 1630.51 -7.84412 -2.24479 0
M  V30 13081 H 1627.86 -5.73457 -0.888562 0
M  V30 13082 H 1627.58 -5.90877 -3.88583 0
M  V30 13083 H 1626.59 -6.6596 -2.58858 0
M  V30 13084 H 1628.42 -8.16339 -3.92049 0
M  V30 13085 P 1626.55 -8.7635 -1.60911 0
M  V30 13086 O 1626.33 -10.1388 -1.11561 0
M  V30 13087 O 1625.76 -8.36503 -2.79617 0
M  V30 13088 O 1626.3 -7.71806 -0.42951 0
M  V30 13089 C 1627.24 -7.67148 0.673689 0
M  V30 13090 C 1626.51 -7.33374 1.95559 0
M  V30 13091 O 1626.3 -5.88721 2.00726 0
M  V30 13092 C 1625.11 -7.92526 2.10483 0
M  V30 13093 O 1624.72 -8.02971 3.47653 0
M  V30 13094 C 1624.23 -6.89602 1.41652 0
M  V30 13095 C 1624.94 -5.59201 1.75185 0
M  V30 13096 N 1624.89 -4.58235 0.662552 0
M  V30 13097 H 1627.73 -8.65116 0.777161 0
M  V30 13098 H 1628 -6.90173 0.474152 0
M  V30 13099 H 1627.13 -7.66548 2.79458 0
M  V30 13100 P 1623.17 -8.03563 3.84925 0
M  V30 13101 O 1622.95 -8.85821 5.0569 0
M  V30 13102 O 1622.38 -8.41101 2.65469 0
M  V30 13103 O 1622.92 -6.4965 4.18908 0
M  V30 13104 C 1623.86 -5.81037 5.05421 0
M  V30 13105 C 1623.13 -4.78366 5.89277 0
M  V30 13106 O 1622.92 -3.58302 5.08433 0
M  V30 13107 C 1621.73 -5.17448 6.36119 0
M  V30 13108 O 1621.34 -4.45271 7.53232 0
M  V30 13109 C 1620.85 -4.74639 5.19936 0
M  V30 13110 C 1621.56 -3.49432 4.70418 0
M  V30 13111 N 1621.51 -3.31776 3.22945 0
M  V30 13112 H 1624.35 -6.54213 5.71376 0
M  V30 13113 H 1624.62 -5.30492 4.44033 0
M  V30 13114 H 1623.75 -4.55889 6.76652 0
M  V30 13115 P 1619.79 -4.23843 7.83734 0
M  V30 13116 O 1619.57 -4.19407 9.29784 0
M  V30 13117 O 1619 -5.24426 7.09156 0
M  V30 13118 O 1619.54 -2.7935 7.20758 0
M  V30 13119 C 1620.48 -1.72945 7.50224 0
M  V30 13120 C 1619.75 -0.406376 7.57911 0
M  V30 13121 O 1619.54 0.0897726 6.21935 0
M  V30 13122 C 1618.35 -0.438983 8.18724 0
M  V30 13123 O 1617.96 0.825065 8.71101 0
M  V30 13124 C 1617.47 -0.783689 6.99524 0
M  V30 13125 C 1618.18 -0.0619086 5.85867 0
M  V30 13126 N 1618.13 -0.78573 4.56183 0
M  V30 13127 C 1617.98 -0.0292889 3.41887 0
M  V30 13128 O 1617.89 1.18445 3.4419 0
M  V30 13129 N 1617.94 -0.744061 2.23964 0
M  V30 13130 C 1618.03 -2.10932 2.10362 0
M  V30 13131 C 1618.18 -2.8202 3.34994 0
M  V30 13132 C 1618.23 -2.15547 4.52261 0
M  V30 13133 H 1620.97 -1.93379 8.46595 0
M  V30 13134 H 1621.24 -1.68132 6.70852 0
M  V30 13135 H 1620.37 0.289041 8.15388 0
M  V30 13136 H 1617.72 0.926847 5.72749 0
M  V30 13137 H 1617.44 -1.86973 6.82036 0
M  V30 13138 H 1616.45 -0.403896 7.13257 0
M  V30 13139 H 1618.28 -1.20585 8.97435 0
M  V30 13140 H 1618.35 -2.71231 5.45042 0
M  V30 13141 P 1616.41 1.17771 8.83182 0
M  V30 13142 O 1616.19 2.07206 9.98732 0
M  V30 13143 O 1615.62 -0.0743816 8.81969 0
M  V30 13144 O 1616.16 1.97678 7.474 0
M  V30 13145 C 1617.1 3.01133 7.08783 0
M  V30 13146 C 1616.37 4.1203 6.37546 0
M  V30 13147 O 1616.16 3.72887 4.9796 0
M  V30 13148 C 1614.97 4.45085 6.88694 0
M  V30 13149 O 1614.58 5.78836 6.56315 0
M  V30 13150 C 1614.09 3.47817 6.12078 0
M  V30 13151 C 1614.8 3.39414 4.77697 0
M  V30 13152 N 1614.75 2.04615 4.15333 0
M  V30 13153 C 1614.6 1.96929 2.77162 0
M  V30 13154 O 1614.51 3.02017 2.12006 0
M  V30 13155 N 1614.55 0.55485 2.24237 0
M  V30 13156 C 1614.65 -0.367808 2.9169 0
M  V30 13157 N 1614.6 -1.53426 2.29427 0
M  V30 13158 C 1614.8 -0.319148 4.33828 0
M  V30 13159 C 1614.85 0.920672 4.90433 0
M  V30 13160 H 1617.59 3.41209 7.98667 0
M  V30 13161 H 1617.86 2.5837 6.41742 0
M  V30 13162 H 1616.99 5.02718 6.42752 0
M  V30 13163 H 1614.34 4.11779 4.09026 0
M  V30 13164 H 1614.06 2.49661 6.61772 0
M  V30 13165 H 1613.07 3.86674 6.00946 0
M  V30 13166 H 1614.9 4.29991 7.97006 0
M  V30 13167 H 1614.97 1.00589 5.98303 0
M  V30 13168 H 1614.87 -1.22639 4.93799 0
M  V30 13169 H 1614.48 -1.56819 1.27167 0
M  V30 13170 H 1614.68 -2.41062 2.83063 0
M  V30 13171 P 1613.03 6.144 6.45285 0
M  V30 13172 O 1612.81 7.54673 6.86199 0
M  V30 13173 O 1612.24 5.12391 7.179 0
M  V30 13174 O 1612.78 5.99158 4.88404 0
M  V30 13175 C 1613.72 6.60234 3.96415 0
M  V30 13176 C 1612.99 7.08259 2.72856 0
M  V30 13177 O 1612.78 5.9427 1.83651 0
M  V30 13178 C 1611.59 7.64886 2.9555 0
M  V30 13179 O 1611.2 8.53963 1.90717 0
M  V30 13180 C 1610.71 6.4116 2.90739 0
M  V30 13181 C 1611.42 5.55375 1.86963 0
M  V30 13182 N 1611.37 4.09664 2.15742 0
M  V30 13183 H 1614.21 7.45574 4.45629 0
M  V30 13184 H 1614.48 5.86232 3.67314 0
M  V30 13185 H 1613.61 7.84412 2.24479 0
M  V30 13186 P 1609.65 8.7635 1.60911 0
M  V30 13187 O 1609.43 10.1388 1.11561 0
M  V30 13188 O 1608.86 8.36503 2.79617 0
M  V30 13189 O 1609.4 7.71806 0.42951 0
M  V30 13190 C 1610.34 7.67148 -0.673689 0
M  V30 13191 C 1609.61 7.33374 -1.95559 0
M  V30 13192 O 1609.4 5.88721 -2.00726 0
M  V30 13193 C 1608.21 7.92526 -2.10483 0
M  V30 13194 O 1607.82 8.02971 -3.47653 0
M  V30 13195 C 1607.33 6.89602 -1.41652 0
M  V30 13196 C 1608.04 5.59201 -1.75185 0
M  V30 13197 N 1607.99 4.58235 -0.662552 0
M  V30 13198 H 1610.83 8.65116 -0.777161 0
M  V30 13199 H 1611.1 6.90173 -0.474152 0
M  V30 13200 H 1610.23 7.66548 -2.79458 0
M  V30 13201 P 1606.27 8.03563 -3.84925 0
M  V30 13202 O 1606.05 8.85821 -5.0569 0
M  V30 13203 O 1605.48 8.41101 -2.65469 0
M  V30 13204 O 1606.02 6.4965 -4.18908 0
M  V30 13205 C 1606.96 5.81037 -5.05421 0
M  V30 13206 C 1606.23 4.78366 -5.89277 0
M  V30 13207 O 1606.02 3.58302 -5.08433 0
M  V30 13208 C 1604.83 5.17448 -6.36119 0
M  V30 13209 O 1604.44 4.45271 -7.53232 0
M  V30 13210 C 1603.95 4.74639 -5.19936 0
M  V30 13211 C 1604.66 3.49432 -4.70418 0
M  V30 13212 N 1604.61 3.31776 -3.22945 0
M  V30 13213 H 1607.45 6.54213 -5.71376 0
M  V30 13214 H 1607.72 5.30492 -4.44033 0
M  V30 13215 H 1606.85 4.55889 -6.76652 0
M  V30 13216 P 1602.89 4.23843 -7.83734 0
M  V30 13217 O 1602.67 4.19407 -9.29784 0
M  V30 13218 O 1602.1 5.24426 -7.09156 0
M  V30 13219 O 1602.64 2.7935 -7.20758 0
M  V30 13220 C 1603.58 1.72945 -7.50224 0
M  V30 13221 C 1602.85 0.406376 -7.57911 0
M  V30 13222 O 1602.64 -0.0897726 -6.21935 0
M  V30 13223 C 1601.45 0.438983 -8.18724 0
M  V30 13224 O 1601.06 -0.825065 -8.71101 0
M  V30 13225 C 1600.57 0.783689 -6.99524 0
M  V30 13226 C 1601.28 0.0619086 -5.85867 0
M  V30 13227 N 1601.23 0.78573 -4.56183 0
M  V30 13228 C 1601.08 0.0292889 -3.41887 0
M  V30 13229 O 1600.99 -1.18445 -3.4419 0
M  V30 13230 N 1601.04 0.744061 -2.23964 0
M  V30 13231 C 1601.13 2.10932 -2.10362 0
M  V30 13232 O 1601.08 2.64117 -0.98825 0
M  V30 13233 C 1601.28 2.8202 -3.34994 0
M  V30 13234 C 1601.39 4.31095 -3.25037 0
M  V30 13235 C 1601.33 2.15547 -4.52261 0
M  V30 13236 H 1604.07 1.93379 -8.46595 0
M  V30 13237 H 1604.34 1.68132 -6.70852 0
M  V30 13238 H 1603.47 -0.289041 -8.15388 0
M  V30 13239 H 1600.82 -0.926847 -5.72749 0
M  V30 13240 H 1600.54 1.86973 -6.82036 0
M  V30 13241 H 1599.55 0.403896 -7.13257 0
M  V30 13242 H 1601.38 1.20585 -8.97435 0
M  V30 13243 H 1601.45 2.71231 -5.45042 0
M  V30 13244 H 1600.42 4.76966 -3.49992 0
M  V30 13245 H 1602.16 4.67047 -3.95024 0
M  V30 13246 H 1601.67 4.58996 -2.22312 0
M  V30 13247 H 1600.94 0.214893 -1.39758 0
M  V30 13248 P 1599.51 -1.17771 -8.83182 0
M  V30 13249 O 1599.29 -2.07206 -9.98732 0
M  V30 13250 O 1598.72 0.0743816 -8.81969 0
M  V30 13251 O 1599.26 -1.97652 -7.47304 0
M  V30 13252 C 1600.2 -3.01133 -7.08783 0
M  V30 13253 C 1599.47 -4.12613 -6.37049 0
M  V30 13254 O 1599.26 -3.72827 -4.97879 0
M  V30 13255 C 1598.07 -4.45085 -6.88694 0
M  V30 13256 O 1597.68 -5.7877 -6.5624 0
M  V30 13257 C 1597.19 -3.47817 -6.12078 0
M  V30 13258 C 1597.9 -3.39414 -4.77697 0
M  V30 13259 N 1597.85 -2.04199 -4.15538 0
M  V30 13260 H 1600.69 -3.41248 -7.98759 0
M  V30 13261 H 1600.96 -2.57728 -6.42 0
M  V30 13262 H 1600.09 -5.02657 -6.42673 0
M  V30 13263 H 1597.44 -4.11708 -4.08956 0
M  V30 13264 H 1597.16 -2.49626 -6.61679 0
M  V30 13265 H 1596.17 -3.8662 -6.00862 0
M  V30 13266 H 1598 -4.29991 -7.97006 0
M  V30 13267 P 1596.13 -6.144 -6.45285 0
M  V30 13268 O 1595.91 -7.54673 -6.86199 0
M  V30 13269 O 1595.34 -5.12391 -7.179 0
M  V30 13270 O 1595.88 -5.99236 -4.88467 0
M  V30 13271 C 1596.82 -6.60234 -3.96415 0
M  V30 13272 C 1596.09 -7.08079 -2.736 0
M  V30 13273 O 1595.88 -5.94365 -1.8368 0
M  V30 13274 C 1594.69 -7.64886 -2.9555 0
M  V30 13275 O 1594.3 -8.5406 -1.90739 0
M  V30 13276 C 1593.81 -6.4116 -2.90739 0
M  V30 13277 C 1594.52 -5.55375 -1.86963 0
M  V30 13278 N 1594.47 -4.09664 -2.15742 0
M  V30 13279 C 1594.32 -3.22231 -1.08477 0
M  V30 13280 O 1594.23 -3.68951 0.0600489 0
M  V30 13281 N 1594.27 -1.76692 -1.48799 0
M  V30 13282 C 1594.37 -1.41695 -2.57602 0
M  V30 13283 N 1594.32 -0.107296 -2.75791 0
M  V30 13284 C 1594.52 -2.29178 -3.69733 0
M  V30 13285 C 1594.57 -3.62753 -3.42653 0
M  V30 13286 H 1597.31 -7.45488 -4.45578 0
M  V30 13287 H 1597.58 -5.86232 -3.67314 0
M  V30 13288 H 1596.71 -7.84508 -2.24507 0
M  V30 13289 H 1594.06 -5.73556 -0.888715 0
M  V30 13290 H 1593.78 -5.9096 -3.88638 0
M  V30 13291 H 1592.79 -6.66053 -2.58894 0
M  V30 13292 H 1594.62 -8.16339 -3.92049 0
M  V30 13293 H 1594.69 -4.33052 -4.24913 0
M  V30 13294 H 1594.59 -1.9103 -4.71577 0
M  V30 13295 H 1594.2 0.521221 -1.95056 0
M  V30 13296 H 1594.4 0.286429 -3.70695 0
M  V30 13297 P 1592.75 -8.7635 -1.60911 0
M  V30 13298 O 1592.53 -10.1388 -1.11561 0
M  V30 13299 O 1591.96 -8.36503 -2.79617 0
M  V30 13300 O 1592.5 -7.71806 -0.42951 0
M  V30 13301 C 1593.44 -7.67148 0.673689 0
M  V30 13302 C 1592.71 -7.33374 1.95559 0
M  V30 13303 O 1592.5 -5.88721 2.00726 0
M  V30 13304 C 1591.31 -7.92526 2.10483 0
M  V30 13305 O 1590.92 -8.02971 3.47653 0
M  V30 13306 C 1590.43 -6.89602 1.41652 0
M  V30 13307 C 1591.14 -5.59201 1.75185 0
M  V30 13308 N 1591.09 -4.58301 0.657969 0
M  V30 13309 H 1593.93 -8.65116 0.777161 0
M  V30 13310 H 1594.2 -6.9022 0.46725 0
M  V30 13311 H 1593.33 -7.66548 2.79458 0
M  V30 13312 H 1590.68 -5.16165 2.65183 0
M  V30 13313 H 1590.4 -7.06433 0.329384 0
M  V30 13314 H 1589.41 -6.90926 1.82021 0
M  V30 13315 H 1591.24 -8.90873 1.62657 0
M  V30 13316 P 1589.37 -8.03563 3.84925 0
M  V30 13317 O 1589.15 -8.85821 5.0569 0
M  V30 13318 O 1588.58 -8.41101 2.65469 0
M  V30 13319 O 1589.12 -6.4965 4.18908 0
M  V30 13320 C 1590.06 -5.81037 5.05421 0
M  V30 13321 C 1589.33 -4.78366 5.89277 0
M  V30 13322 O 1589.12 -3.58302 5.08433 0
M  V30 13323 C 1587.93 -5.17448 6.36119 0
M  V30 13324 O 1587.54 -4.45271 7.53232 0
M  V30 13325 C 1587.05 -4.74639 5.19936 0
M  V30 13326 C 1587.76 -3.49432 4.70418 0
M  V30 13327 N 1587.71 -3.32099 3.22613 0
M  V30 13328 H 1590.55 -6.54213 5.71376 0
M  V30 13329 H 1590.82 -5.30936 4.43503 0
M  V30 13330 H 1589.95 -4.55889 6.76652 0
M  V30 13331 H 1587.3 -2.61715 5.17932 0
M  V30 13332 H 1587.02 -5.52155 4.41878 0
M  V30 13333 H 1586.03 -4.51981 5.53374 0
M  V30 13334 H 1587.86 -6.25124 6.55234 0
M  V30 13335 P 1585.99 -4.23843 7.83734 0
M  V30 13336 O 1585.77 -4.19407 9.29784 0
M  V30 13337 O 1585.2 -5.24426 7.09156 0
M  V30 13338 O 1585.74 -2.7935 7.20758 0
M  V30 13339 C 1586.68 -1.7299 7.50419 0
M  V30 13340 C 1585.95 -0.406376 7.57911 0
M  V30 13341 O 1585.74 0.0897726 6.21935 0
M  V30 13342 C 1584.55 -0.447224 8.1878 0
M  V30 13343 O 1584.16 0.825065 8.71101 0
M  V30 13344 C 1583.67 -0.783801 6.99623 0
M  V30 13345 C 1584.38 -0.0619192 5.85967 0
M  V30 13346 N 1584.33 -0.7859 4.56281 0
M  V30 13347 H 1587.17 -1.93423 8.4679 0
M  V30 13348 H 1587.44 -1.68181 6.71046 0
M  V30 13349 H 1586.57 0.289041 8.15388 0
M  V30 13350 P 1582.61 1.17771 8.83182 0
M  V30 13351 O 1582.39 2.07206 9.98732 0
M  V30 13352 O 1581.82 -0.0743816 8.81969 0
M  V30 13353 O 1582.36 1.97652 7.47304 0
M  V30 13354 C 1583.3 3.01133 7.08783 0
M  V30 13355 C 1582.57 4.12613 6.37049 0
M  V30 13356 O 1582.36 3.72827 4.97879 0
M  V30 13357 C 1581.17 4.45085 6.88694 0
M  V30 13358 O 1580.78 5.7877 6.5624 0
M  V30 13359 C 1580.29 3.47817 6.12078 0
M  V30 13360 C 1581 3.39414 4.77697 0
M  V30 13361 N 1580.95 2.04615 4.15333 0
M  V30 13362 H 1583.79 3.41248 7.98759 0
M  V30 13363 H 1584.06 2.5837 6.41742 0
M  V30 13364 H 1583.19 5.02657 6.42673 0
M  V30 13365 P 1579.23 6.144 6.45285 0
M  V30 13366 O 1579.01 7.54673 6.86199 0
M  V30 13367 O 1578.44 5.12391 7.179 0
M  V30 13368 O 1578.98 5.99158 4.88404 0
M  V30 13369 C 1579.92 6.60234 3.96415 0
M  V30 13370 C 1579.19 7.08259 2.72856 0
M  V30 13371 O 1578.98 5.9427 1.83651 0
M  V30 13372 C 1577.79 7.64886 2.9555 0
M  V30 13373 O 1577.4 8.53963 1.90717 0
M  V30 13374 C 1576.91 6.4116 2.90739 0
M  V30 13375 C 1577.62 5.55375 1.86963 0
M  V30 13376 N 1577.57 4.09448 2.16152 0
M  V30 13377 H 1580.41 7.45574 4.45629 0
M  V30 13378 H 1580.68 5.85864 3.679 0
M  V30 13379 H 1579.81 7.84412 2.24479 0
M  V30 13380 H 1577.16 5.73457 0.888562 0
M  V30 13381 H 1576.88 5.90877 3.88583 0
M  V30 13382 H 1575.89 6.6596 2.58858 0
M  V30 13383 H 1577.72 8.16339 3.92049 0
M  V30 13384 P 1575.85 8.7635 1.60911 0
M  V30 13385 O 1575.63 10.1388 1.11561 0
M  V30 13386 O 1575.06 8.36503 2.79617 0
M  V30 13387 O 1575.6 7.71806 0.42951 0
M  V30 13388 C 1576.54 7.67148 -0.673689 0
M  V30 13389 C 1575.81 7.33374 -1.95559 0
M  V30 13390 O 1575.6 5.88721 -2.00726 0
M  V30 13391 C 1574.41 7.92526 -2.10483 0
M  V30 13392 O 1574.02 8.02971 -3.47653 0
M  V30 13393 C 1573.53 6.89602 -1.41652 0
M  V30 13394 C 1574.24 5.59201 -1.75185 0
M  V30 13395 N 1574.19 4.58235 -0.662552 0
M  V30 13396 H 1577.03 8.65116 -0.777161 0
M  V30 13397 H 1577.3 6.90173 -0.474152 0
M  V30 13398 H 1576.43 7.66548 -2.79458 0
M  V30 13399 P 1572.47 8.03563 -3.84925 0
M  V30 13400 O 1572.25 8.85821 -5.0569 0
M  V30 13401 O 1571.68 8.41101 -2.65469 0
M  V30 13402 O 1572.22 6.4965 -4.18908 0
M  V30 13403 C 1573.16 5.81037 -5.05421 0
M  V30 13404 C 1572.43 4.78366 -5.89277 0
M  V30 13405 O 1572.22 3.58302 -5.08433 0
M  V30 13406 C 1571.03 5.17448 -6.36119 0
M  V30 13407 O 1570.64 4.45271 -7.53232 0
M  V30 13408 C 1570.15 4.74639 -5.19936 0
M  V30 13409 C 1570.86 3.49432 -4.70418 0
M  V30 13410 N 1570.81 3.31776 -3.22945 0
M  V30 13411 H 1573.65 6.54213 -5.71376 0
M  V30 13412 H 1573.92 5.30492 -4.44033 0
M  V30 13413 H 1573.05 4.55889 -6.76652 0
M  V30 13414 P 1569.09 4.23843 -7.83734 0
M  V30 13415 O 1568.87 4.19407 -9.29784 0
M  V30 13416 O 1568.3 5.24426 -7.09156 0
M  V30 13417 O 1568.84 2.7935 -7.20758 0
M  V30 13418 C 1569.78 1.7299 -7.50419 0
M  V30 13419 C 1569.05 0.406376 -7.57911 0
M  V30 13420 O 1568.84 -0.0897726 -6.21935 0
M  V30 13421 C 1567.65 0.447224 -8.1878 0
M  V30 13422 O 1567.26 -0.825065 -8.71101 0
M  V30 13423 C 1566.77 0.783801 -6.99623 0
M  V30 13424 C 1567.48 0.0619192 -5.85967 0
M  V30 13425 N 1567.43 0.7859 -4.56281 0
M  V30 13426 C 1567.51 2.14308 -4.31736 0
M  V30 13427 N 1567.43 2.46106 -3.05116 0
M  V30 13428 C 1567.29 1.23422 -2.4014 0
M  V30 13429 C 1567.16 0.938381 -1.02409 0
M  V30 13430 O 1567.14 1.70876 -0.0650402 0
M  V30 13431 N 1567.04 -0.444647 -0.805413 0
M  V30 13432 C 1567.04 -1.40829 -1.79435 0
M  V30 13433 N 1566.91 -2.67213 -1.38558 0
M  V30 13434 N 1567.17 -1.12947 -3.09005 0
M  V30 13435 C 1567.29 0.204887 -3.32369 0
M  V30 13436 H 1570.27 1.93423 -8.4679 0
M  V30 13437 H 1570.54 1.68181 -6.71046 0
M  V30 13438 H 1569.67 -0.289041 -8.15388 0
M  V30 13439 H 1567.02 -0.927166 -5.72947 0
M  V30 13440 H 1566.74 1.87 -6.82132 0
M  V30 13441 H 1565.75 0.404009 -7.13457 0
M  V30 13442 H 1567.58 1.20612 -8.97633 0
M  V30 13443 H 1567.63 2.88284 -5.10874 0
M  V30 13444 H 1566.95 -0.755087 0.140242 0
M  V30 13445 H 1566.91 -3.43967 -2.0729 0
M  V30 13446 H 1566.81 -2.88096 -0.380644 0
M  V30 13447 P 1565.71 -1.17771 -8.83182 0
M  V30 13448 O 1565.49 -2.07206 -9.98732 0
M  V30 13449 O 1564.92 0.0743816 -8.81969 0
M  V30 13450 O 1565.46 -1.97652 -7.47304 0
M  V30 13451 C 1566.4 -3.01133 -7.08783 0
M  V30 13452 C 1565.67 -4.12613 -6.37049 0
M  V30 13453 O 1565.46 -3.72827 -4.97879 0
M  V30 13454 C 1564.27 -4.45085 -6.88694 0
M  V30 13455 O 1563.88 -5.7877 -6.5624 0
M  V30 13456 C 1563.39 -3.47817 -6.12078 0
M  V30 13457 C 1564.1 -3.39414 -4.77697 0
M  V30 13458 N 1564.05 -2.04615 -4.15333 0
M  V30 13459 H 1566.89 -3.41248 -7.98759 0
M  V30 13460 H 1567.16 -2.5837 -6.41742 0
M  V30 13461 H 1566.29 -5.02657 -6.42673 0
M  V30 13462 P 1562.33 -6.144 -6.45285 0
M  V30 13463 O 1562.11 -7.54673 -6.86199 0
M  V30 13464 O 1561.54 -5.12391 -7.179 0
M  V30 13465 O 1562.08 -5.99158 -4.88404 0
M  V30 13466 C 1563.02 -6.60234 -3.96415 0
M  V30 13467 C 1562.29 -7.08259 -2.72856 0
M  V30 13468 O 1562.08 -5.9427 -1.83651 0
M  V30 13469 C 1560.89 -7.64886 -2.9555 0
M  V30 13470 O 1560.5 -8.53963 -1.90717 0
M  V30 13471 C 1560.01 -6.4116 -2.90739 0
M  V30 13472 C 1560.72 -5.55375 -1.86963 0
M  V30 13473 N 1560.67 -4.09664 -2.15742 0
M  V30 13474 H 1563.51 -7.45574 -4.45629 0
M  V30 13475 H 1563.78 -5.86232 -3.67314 0
M  V30 13476 H 1562.91 -7.84412 -2.24479 0
M  V30 13477 P 1558.95 -8.7635 -1.60911 0
M  V30 13478 O 1558.73 -10.1388 -1.11561 0
M  V30 13479 O 1558.16 -8.36503 -2.79617 0
M  V30 13480 O 1558.7 -7.71806 -0.42951 0
M  V30 13481 C 1559.64 -7.67148 0.673689 0
M  V30 13482 C 1558.91 -7.33374 1.95559 0
M  V30 13483 O 1558.7 -5.88721 2.00726 0
M  V30 13484 C 1557.51 -7.92526 2.10483 0
M  V30 13485 O 1557.12 -8.02971 3.47653 0
M  V30 13486 C 1556.63 -6.89602 1.41652 0
M  V30 13487 C 1557.34 -5.59201 1.75185 0
M  V30 13488 N 1557.29 -4.58235 0.662552 0
M  V30 13489 H 1560.13 -8.65116 0.777161 0
M  V30 13490 H 1560.4 -6.90173 0.474152 0
M  V30 13491 H 1559.53 -7.66548 2.79458 0
M  V30 13492 P 1555.57 -8.03563 3.84925 0
M  V30 13493 O 1555.35 -8.85821 5.0569 0
M  V30 13494 O 1554.78 -8.41101 2.65469 0
M  V30 13495 O 1555.32 -6.4965 4.18908 0
M  V30 13496 C 1556.26 -5.81037 5.05421 0
M  V30 13497 C 1555.53 -4.78366 5.89277 0
M  V30 13498 O 1555.32 -3.58302 5.08433 0
M  V30 13499 C 1554.13 -5.17448 6.36119 0
M  V30 13500 O 1553.74 -4.45271 7.53232 0
M  V30 13501 C 1553.25 -4.74639 5.19936 0
M  V30 13502 C 1553.96 -3.49432 4.70418 0
M  V30 13503 N 1553.91 -3.31776 3.22945 0
M  V30 13504 H 1556.75 -6.54213 5.71376 0
M  V30 13505 H 1557.02 -5.30492 4.44033 0
M  V30 13506 H 1556.15 -4.55889 6.76652 0
M  V30 13507 P 1552.19 -4.23843 7.83734 0
M  V30 13508 O 1551.97 -4.19407 9.29784 0
M  V30 13509 O 1551.4 -5.24426 7.09156 0
M  V30 13510 O 1551.94 -2.7935 7.20758 0
M  V30 13511 C 1552.88 -1.7299 7.50419 0
M  V30 13512 C 1552.15 -0.406376 7.57911 0
M  V30 13513 O 1551.94 0.0897726 6.21935 0
M  V30 13514 C 1550.75 -0.447224 8.1878 0
M  V30 13515 O 1550.36 0.825065 8.71101 0
M  V30 13516 C 1549.87 -0.783801 6.99623 0
M  V30 13517 C 1550.58 -0.0619192 5.85967 0
M  V30 13518 N 1550.53 -0.7859 4.56281 0
M  V30 13519 H 1553.37 -1.93423 8.4679 0
M  V30 13520 H 1553.64 -1.68181 6.71046 0
M  V30 13521 H 1552.77 0.289041 8.15388 0
M  V30 13522 P 1548.81 1.17771 8.83182 0
M  V30 13523 O 1548.59 2.07206 9.98732 0
M  V30 13524 O 1548.02 -0.0743816 8.81969 0
M  V30 13525 O 1548.56 1.97652 7.47304 0
M  V30 13526 C 1549.5 3.01133 7.08783 0
M  V30 13527 C 1548.77 4.12613 6.37049 0
M  V30 13528 O 1548.56 3.72827 4.97879 0
M  V30 13529 C 1547.37 4.45085 6.88694 0
M  V30 13530 O 1546.98 5.7877 6.5624 0
M  V30 13531 C 1546.49 3.47817 6.12078 0
M  V30 13532 C 1547.2 3.39414 4.77697 0
M  V30 13533 N 1547.15 2.04615 4.15333 0
M  V30 13534 H 1549.99 3.41248 7.98759 0
M  V30 13535 H 1550.26 2.5837 6.41742 0
M  V30 13536 H 1549.39 5.02657 6.42673 0
M  V30 13537 P 1545.43 6.144 6.45285 0
M  V30 13538 O 1545.21 7.54673 6.86199 0
M  V30 13539 O 1544.64 5.12391 7.179 0
M  V30 13540 O 1545.18 5.99236 4.88467 0
M  V30 13541 C 1546.12 6.60234 3.96415 0
M  V30 13542 C 1545.39 7.08079 2.736 0
M  V30 13543 O 1545.18 5.94365 1.8368 0
M  V30 13544 C 1543.99 7.64886 2.9555 0
M  V30 13545 O 1543.6 8.5406 1.90739 0
M  V30 13546 C 1543.11 6.4116 2.90739 0
M  V30 13547 C 1543.82 5.55375 1.86963 0
M  V30 13548 N 1543.77 4.09664 2.15742 0
M  V30 13549 C 1543.62 3.22231 1.08477 0
M  V30 13550 O 1543.53 3.68951 -0.0600489 0
M  V30 13551 N 1543.57 1.76692 1.48799 0
M  V30 13552 C 1543.67 1.41695 2.57602 0
M  V30 13553 N 1543.62 0.107296 2.75791 0
M  V30 13554 C 1543.82 2.29178 3.69733 0
M  V30 13555 C 1543.87 3.62753 3.42653 0
M  V30 13556 H 1546.61 7.45488 4.45578 0
M  V30 13557 H 1546.88 5.86232 3.67314 0
M  V30 13558 H 1546.01 7.84508 2.24507 0
M  V30 13559 H 1543.36 5.73556 0.888715 0
M  V30 13560 H 1543.08 5.9096 3.88638 0
M  V30 13561 H 1542.09 6.66053 2.58894 0
M  V30 13562 H 1543.92 8.16339 3.92049 0
M  V30 13563 H 1543.99 4.33052 4.24913 0
M  V30 13564 H 1543.89 1.9103 4.71577 0
M  V30 13565 H 1543.5 -0.521221 1.95056 0
M  V30 13566 H 1543.7 -0.286429 3.70695 0
M  V30 13567 P 1542.05 8.7635 1.60911 0
M  V30 13568 O 1541.83 10.1388 1.11561 0
M  V30 13569 O 1541.26 8.36503 2.79617 0
M  V30 13570 O 1541.8 7.71806 0.42951 0
M  V30 13571 C 1542.74 7.67148 -0.673689 0
M  V30 13572 C 1542.01 7.33374 -1.95559 0
M  V30 13573 O 1541.8 5.88721 -2.00726 0
M  V30 13574 C 1540.61 7.92526 -2.10483 0
M  V30 13575 O 1540.22 8.02971 -3.47653 0
M  V30 13576 C 1539.73 6.89602 -1.41652 0
M  V30 13577 C 1540.44 5.59201 -1.75185 0
M  V30 13578 N 1540.39 4.58301 -0.657969 0
M  V30 13579 C 1540.47 4.79019 0.692603 0
M  V30 13580 N 1540.4 3.69736 1.38998 0
M  V30 13581 C 1540.25 2.70474 0.438135 0
M  V30 13582 C 1540.12 1.30327 0.538142 0
M  V30 13583 N 1540.11 0.64304 1.69192 0
M  V30 13584 N 1540 0.611027 -0.605183 0
M  V30 13585 C 1540.01 1.27002 -1.75953 0
M  V30 13586 N 1540.13 2.56038 -1.98546 0
M  V30 13587 C 1540.25 3.22681 -0.822541 0
M  V30 13588 H 1543.23 8.65116 -0.777161 0
M  V30 13589 H 1543.5 6.9022 -0.46725 0
M  V30 13590 H 1542.63 7.66548 -2.79458 0
M  V30 13591 H 1539.98 5.16165 -2.65183 0
M  V30 13592 H 1539.7 7.06433 -0.329384 0
M  V30 13593 H 1538.71 6.90926 -1.82021 0
M  V30 13594 H 1540.54 8.90873 -1.62657 0
M  V30 13595 H 1540.58 5.77785 1.13874 0
M  V30 13596 H 1540.2 1.15585 2.57991 0
M  V30 13597 H 1540.01 -0.382989 1.69835 0
M  V30 13598 H 1539.9 0.653331 -2.64449 0
M  V30 13599 P 1538.67 8.03563 -3.84925 0
M  V30 13600 O 1538.45 8.85821 -5.0569 0
M  V30 13601 O 1537.88 8.41101 -2.65469 0
M  V30 13602 O 1538.42 6.4965 -4.18908 0
M  V30 13603 C 1539.36 5.81037 -5.05421 0
M  V30 13604 C 1538.63 4.78366 -5.89277 0
M  V30 13605 O 1538.42 3.58302 -5.08433 0
M  V30 13606 C 1537.23 5.17448 -6.36119 0
M  V30 13607 O 1536.84 4.45271 -7.53232 0
M  V30 13608 C 1536.35 4.74639 -5.19936 0
M  V30 13609 C 1537.06 3.49432 -4.70418 0
M  V30 13610 N 1537.01 3.32099 -3.22613 0
M  V30 13611 H 1539.85 6.54213 -5.71376 0
M  V30 13612 H 1540.12 5.30936 -4.43503 0
M  V30 13613 H 1539.25 4.55889 -6.76652 0
M  V30 13614 H 1536.6 2.61715 -5.17932 0
M  V30 13615 H 1536.32 5.52155 -4.41878 0
M  V30 13616 H 1535.33 4.51981 -5.53374 0
M  V30 13617 H 1537.16 6.25124 -6.55234 0
M  V30 13618 P 1535.29 4.23843 -7.83734 0
M  V30 13619 O 1535.07 4.19407 -9.29784 0
M  V30 13620 O 1534.5 5.24426 -7.09156 0
M  V30 13621 O 1535.04 2.7935 -7.20758 0
M  V30 13622 C 1535.98 1.7299 -7.50419 0
M  V30 13623 C 1535.25 0.406376 -7.57911 0
M  V30 13624 O 1535.04 -0.0897726 -6.21935 0
M  V30 13625 C 1533.85 0.447224 -8.1878 0
M  V30 13626 O 1533.46 -0.825065 -8.71101 0
M  V30 13627 C 1532.97 0.783801 -6.99623 0
M  V30 13628 C 1533.68 0.0619192 -5.85967 0
M  V30 13629 N 1533.63 0.790462 -4.56202 0
M  V30 13630 H 1536.47 1.93423 -8.4679 0
M  V30 13631 H 1536.74 1.68852 -6.70877 0
M  V30 13632 H 1535.87 -0.289041 -8.15388 0
M  V30 13633 H 1533.22 -0.927006 -5.72848 0
M  V30 13634 H 1532.94 1.86973 -6.82036 0
M  V30 13635 H 1531.95 0.403953 -7.13357 0
M  V30 13636 H 1533.78 1.20599 -8.97534 0
M  V30 13637 P 1531.91 -1.17771 -8.83182 0
M  V30 13638 O 1531.69 -2.07206 -9.98732 0
M  V30 13639 O 1531.12 0.0743816 -8.81969 0
M  V30 13640 O 1531.66 -1.97652 -7.47304 0
M  V30 13641 C 1532.6 -3.01055 -7.08599 0
M  V30 13642 C 1531.87 -4.12613 -6.37049 0
M  V30 13643 O 1531.66 -3.72827 -4.97879 0
M  V30 13644 C 1530.47 -4.45719 -6.88164 0
M  V30 13645 O 1530.08 -5.7877 -6.5624 0
M  V30 13646 C 1529.59 -3.47768 -6.11991 0
M  V30 13647 C 1530.3 -3.39356 -4.77615 0
M  V30 13648 N 1530.25 -2.04571 -4.15244 0
M  V30 13649 C 1530.1 -1.98587 -2.78314 0
M  V30 13650 O 1530.01 -2.98134 -2.08835 0
M  V30 13651 N 1530.06 -0.714467 -2.24925 0
M  V30 13652 C 1530.15 0.470001 -2.94169 0
M  V30 13653 O 1530.1 1.55587 -2.35195 0
M  V30 13654 C 1530.3 0.312541 -4.36783 0
M  V30 13655 C 1530.41 1.57711 -5.16352 0
M  V30 13656 C 1530.35 -0.914512 -4.92583 0
M  V30 13657 H 1533.09 -3.41169 -7.98575 0
M  V30 13658 H 1533.36 -2.58295 -6.41556 0
M  V30 13659 H 1532.49 -5.02657 -6.42673 0
M  V30 13660 H 1529.84 -4.11637 -4.08885 0
M  V30 13661 H 1529.56 -2.49626 -6.61679 0
M  V30 13662 H 1528.57 -3.86566 -6.00778 0
M  V30 13663 H 1530.4 -4.29943 -7.96918 0
M  V30 13664 H 1530.47 -1.00937 -6.00374 0
M  V30 13665 H 1529.44 1.80153 -5.63503 0
M  V30 13666 H 1531.18 1.4566 -5.94104 0
M  V30 13667 H 1530.69 2.40664 -4.49645 0
M  V30 13668 H 1529.96 -0.647622 -1.25697 0
M  V30 13669 P 1528.53 -6.144 -6.45285 0
M  V30 13670 O 1528.31 -7.54673 -6.86199 0
M  V30 13671 O 1527.74 -5.12391 -7.179 0
M  V30 13672 O 1528.28 -5.99158 -4.88404 0
M  V30 13673 C 1529.22 -6.60234 -3.96415 0
M  V30 13674 C 1528.49 -7.08259 -2.72856 0
M  V30 13675 O 1528.28 -5.9427 -1.83651 0
M  V30 13676 C 1527.09 -7.64886 -2.9555 0
M  V30 13677 O 1526.7 -8.53963 -1.90717 0
M  V30 13678 C 1526.21 -6.4116 -2.90739 0
M  V30 13679 C 1526.92 -5.55375 -1.86963 0
M  V30 13680 N 1526.87 -4.09664 -2.15742 0
M  V30 13681 H 1529.71 -7.45574 -4.45629 0
M  V30 13682 H 1529.98 -5.86232 -3.67314 0
M  V30 13683 H 1529.11 -7.84412 -2.24479 0
M  V30 13684 P 1525.15 -8.7635 -1.60911 0
M  V30 13685 O 1524.93 -10.1388 -1.11561 0
M  V30 13686 O 1524.36 -8.36503 -2.79617 0
M  V30 13687 O 1524.9 -7.71906 -0.429565 0
M  V30 13688 C 1525.84 -7.67148 0.673689 0
M  V30 13689 C 1525.11 -7.33666 1.94851 0
M  V30 13690 O 1524.9 -5.88816 2.00759 0
M  V30 13691 C 1523.71 -7.92526 2.10483 0
M  V30 13692 O 1523.32 -8.03063 3.47693 0
M  V30 13693 C 1522.83 -6.89602 1.41652 0
M  V30 13694 C 1523.54 -5.59201 1.75185 0
M  V30 13695 N 1523.49 -4.58235 0.662552 0
M  V30 13696 C 1523.34 -3.24451 1.01643 0
M  V30 13697 O 1523.25 -2.94958 2.21722 0
M  V30 13698 N 1523.29 -2.30408 -0.165238 0
M  V30 13699 C 1523.39 -2.66048 -1.25118 0
M  V30 13700 N 1523.34 -1.70787 -2.16813 0
M  V30 13701 C 1523.54 -4.02732 -1.64413 0
M  V30 13702 C 1523.59 -4.9488 -0.63991 0
M  V30 13703 H 1526.33 -8.65017 0.777072 0
M  V30 13704 H 1526.6 -6.90173 0.474152 0
M  V30 13705 H 1525.73 -7.66642 2.79492 0
M  V30 13706 H 1523.08 -5.16254 2.65229 0
M  V30 13707 H 1522.8 -7.06532 0.329431 0
M  V30 13708 H 1521.81 -6.91023 1.82047 0
M  V30 13709 H 1523.64 -8.90873 1.62657 0
M  V30 13710 H 1523.71 -6.00104 -0.892197 0
M  V30 13711 H 1523.61 -4.31733 -2.69229 0
M  V30 13712 H 1523.22 -0.724835 -1.8844 0
M  V30 13713 H 1523.42 -1.94716 -3.16734 0
M  V30 13714 P 1521.77 -8.03563 3.84925 0
M  V30 13715 O 1521.55 -8.85821 5.0569 0
M  V30 13716 O 1520.98 -8.41101 2.65469 0
M  V30 13717 O 1521.52 -6.4965 4.18908 0
M  V30 13718 C 1522.46 -5.81037 5.05421 0
M  V30 13719 C 1521.73 -4.78366 5.89277 0
M  V30 13720 O 1521.52 -3.58302 5.08433 0
M  V30 13721 C 1520.33 -5.17448 6.36119 0
M  V30 13722 O 1519.94 -4.45271 7.53232 0
M  V30 13723 C 1519.45 -4.74639 5.19936 0
M  V30 13724 C 1520.16 -3.49432 4.70418 0
M  V30 13725 N 1520.11 -3.32099 3.22613 0
M  V30 13726 H 1522.95 -6.54213 5.71376 0
M  V30 13727 H 1523.22 -5.30936 4.43503 0
M  V30 13728 H 1522.35 -4.55889 6.76652 0
M  V30 13729 H 1519.7 -2.61715 5.17932 0
M  V30 13730 H 1519.42 -5.52155 4.41878 0
M  V30 13731 H 1518.43 -4.51981 5.53374 0
M  V30 13732 H 1520.26 -6.25124 6.55234 0
M  V30 13733 P 1518.39 -4.23843 7.83734 0
M  V30 13734 O 1518.17 -4.19407 9.29784 0
M  V30 13735 O 1517.6 -5.24426 7.09156 0
M  V30 13736 O 1518.14 -2.7935 7.20758 0
M  V30 13737 C 1519.08 -1.7299 7.50419 0
M  V30 13738 C 1518.35 -0.406376 7.57911 0
M  V30 13739 O 1518.14 0.0897726 6.21935 0
M  V30 13740 C 1516.95 -0.447224 8.1878 0
M  V30 13741 O 1516.56 0.825065 8.71101 0
M  V30 13742 C 1516.07 -0.783801 6.99623 0
M  V30 13743 C 1516.78 -0.0619192 5.85967 0
M  V30 13744 N 1516.73 -0.7859 4.56281 0
M  V30 13745 H 1519.57 -1.93423 8.4679 0
M  V30 13746 H 1519.84 -1.68181 6.71046 0
M  V30 13747 H 1518.97 0.289041 8.15388 0
M  V30 13748 P 1515.01 1.17771 8.83182 0
M  V30 13749 O 1514.79 2.07206 9.98732 0
M  V30 13750 O 1514.22 -0.0743816 8.81969 0
M  V30 13751 O 1514.76 1.97652 7.47304 0
M  V30 13752 C 1515.7 3.01133 7.08783 0
M  V30 13753 C 1514.97 4.12613 6.37049 0
M  V30 13754 O 1514.76 3.72827 4.97879 0
M  V30 13755 C 1513.57 4.45085 6.88694 0
M  V30 13756 O 1513.18 5.7877 6.5624 0
M  V30 13757 C 1512.69 3.47817 6.12078 0
M  V30 13758 C 1513.4 3.39414 4.77697 0
M  V30 13759 N 1513.35 2.04199 4.15538 0
M  V30 13760 H 1516.19 3.41248 7.98759 0
M  V30 13761 H 1516.46 2.57728 6.42 0
M  V30 13762 H 1515.59 5.02657 6.42673 0
M  V30 13763 H 1512.94 4.11708 4.08956 0
M  V30 13764 H 1512.66 2.49626 6.61679 0
M  V30 13765 H 1511.67 3.8662 6.00862 0
M  V30 13766 H 1513.5 4.29991 7.97006 0
M  V30 13767 P 1511.63 6.144 6.45285 0
M  V30 13768 O 1511.41 7.54673 6.86199 0
M  V30 13769 O 1510.84 5.12391 7.179 0
M  V30 13770 O 1511.38 5.99158 4.88404 0
M  V30 13771 C 1512.32 6.60234 3.96415 0
M  V30 13772 C 1511.59 7.08259 2.72856 0
M  V30 13773 O 1511.38 5.9427 1.83651 0
M  V30 13774 C 1510.19 7.64886 2.9555 0
M  V30 13775 O 1509.8 8.53963 1.90717 0
M  V30 13776 C 1509.31 6.4116 2.90739 0
M  V30 13777 C 1510.02 5.55375 1.86963 0
M  V30 13778 N 1509.97 4.09448 2.16152 0
M  V30 13779 C 1510.05 3.46824 3.37593 0
M  V30 13780 N 1509.98 2.17422 3.29777 0
M  V30 13781 C 1509.83 1.93065 1.94427 0
M  V30 13782 C 1509.7 0.738053 1.20141 0
M  V30 13783 N 1509.69 -0.474256 1.74676 0
M  V30 13784 N 1509.58 0.850049 -0.13045 0
M  V30 13785 C 1509.59 2.06169 -0.676992 0
M  V30 13786 N 1509.71 3.23842 -0.101312 0
M  V30 13787 C 1509.83 3.09402 1.23122 0
M  V30 13788 H 1512.81 7.45574 4.45629 0
M  V30 13789 H 1513.08 5.85864 3.679 0
M  V30 13790 H 1512.21 7.84412 2.24479 0
M  V30 13791 H 1509.56 5.73457 0.888562 0
M  V30 13792 H 1509.28 5.90877 3.88583 0
M  V30 13793 H 1508.29 6.6596 2.58858 0
M  V30 13794 H 1510.12 8.16339 3.92049 0
M  V30 13795 H 1510.16 4.00505 4.3174 0
M  V30 13796 H 1509.78 -0.581337 2.76658 0
M  V30 13797 H 1509.59 -1.30811 1.14888 0
M  V30 13798 H 1509.49 2.08295 -1.75542 0
M  V30 13799 P 1508.25 8.7635 1.60911 0
M  V30 13800 O 1508.03 10.1388 1.11561 0
M  V30 13801 O 1507.46 8.36503 2.79617 0
M  V30 13802 O 1508 7.71806 0.42951 0
M  V30 13803 C 1508.94 7.67148 -0.673689 0
M  V30 13804 C 1508.21 7.33374 -1.95559 0
M  V30 13805 O 1508 5.88721 -2.00726 0
M  V30 13806 C 1506.81 7.92526 -2.10483 0
M  V30 13807 O 1506.42 8.02971 -3.47653 0
M  V30 13808 C 1505.93 6.89602 -1.41652 0
M  V30 13809 C 1506.64 5.59201 -1.75185 0
M  V30 13810 N 1506.59 4.58235 -0.662552 0
M  V30 13811 H 1509.43 8.65116 -0.777161 0
M  V30 13812 H 1509.7 6.90173 -0.474152 0
M  V30 13813 H 1508.83 7.66548 -2.79458 0
M  V30 13814 P 1504.87 8.03563 -3.84925 0
M  V30 13815 O 1504.65 8.85821 -5.0569 0
M  V30 13816 O 1504.08 8.41101 -2.65469 0
M  V30 13817 O 1504.62 6.4965 -4.18908 0
M  V30 13818 C 1505.56 5.81037 -5.05421 0
M  V30 13819 C 1504.83 4.78366 -5.89277 0
M  V30 13820 O 1504.62 3.58302 -5.08433 0
M  V30 13821 C 1503.43 5.17448 -6.36119 0
M  V30 13822 O 1503.04 4.45271 -7.53232 0
M  V30 13823 C 1502.55 4.74639 -5.19936 0
M  V30 13824 C 1503.26 3.49432 -4.70418 0
M  V30 13825 N 1503.21 3.31776 -3.22945 0
M  V30 13826 H 1506.05 6.54213 -5.71376 0
M  V30 13827 H 1506.32 5.30492 -4.44033 0
M  V30 13828 H 1505.45 4.55889 -6.76652 0
M  V30 13829 P 1501.49 4.23843 -7.83734 0
M  V30 13830 O 1501.27 4.19407 -9.29784 0
M  V30 13831 O 1500.7 5.24426 -7.09156 0
M  V30 13832 O 1501.24 2.7935 -7.20758 0
M  V30 13833 C 1502.18 1.7299 -7.50419 0
M  V30 13834 C 1501.45 0.406376 -7.57911 0
M  V30 13835 O 1501.24 -0.0897726 -6.21935 0
M  V30 13836 C 1500.05 0.447224 -8.1878 0
M  V30 13837 O 1499.66 -0.825065 -8.71101 0
M  V30 13838 C 1499.17 0.783801 -6.99623 0
M  V30 13839 C 1499.88 0.0619192 -5.85967 0
M  V30 13840 N 1499.83 0.7859 -4.56281 0
M  V30 13841 H 1502.67 1.93423 -8.4679 0
M  V30 13842 H 1502.94 1.68181 -6.71046 0
M  V30 13843 H 1502.07 -0.289041 -8.15388 0
M  V30 13844 P 1498.11 -1.17771 -8.83182 0
M  V30 13845 O 1497.89 -2.07206 -9.98732 0
M  V30 13846 O 1497.32 0.0743816 -8.81969 0
M  V30 13847 O 1497.86 -1.97652 -7.47304 0
M  V30 13848 C 1498.8 -3.01133 -7.08783 0
M  V30 13849 C 1498.07 -4.12613 -6.37049 0
M  V30 13850 O 1497.86 -3.72827 -4.97879 0
M  V30 13851 C 1496.67 -4.45085 -6.88694 0
M  V30 13852 O 1496.28 -5.7877 -6.5624 0
M  V30 13853 C 1495.79 -3.47817 -6.12078 0
M  V30 13854 C 1496.5 -3.39414 -4.77697 0
M  V30 13855 N 1496.45 -2.04199 -4.15538 0
M  V30 13856 H 1499.29 -3.41248 -7.98759 0
M  V30 13857 H 1499.56 -2.57728 -6.42 0
M  V30 13858 H 1498.69 -5.02657 -6.42673 0
M  V30 13859 H 1496.04 -4.11708 -4.08956 0
M  V30 13860 H 1495.76 -2.49626 -6.61679 0
M  V30 13861 H 1494.77 -3.8662 -6.00862 0
M  V30 13862 H 1496.6 -4.29991 -7.97006 0
M  V30 13863 P 1494.73 -6.144 -6.45285 0
M  V30 13864 O 1494.51 -7.54673 -6.86199 0
M  V30 13865 O 1493.94 -5.12391 -7.179 0
M  V30 13866 O 1494.48 -5.99158 -4.88404 0
M  V30 13867 C 1495.42 -6.60234 -3.96415 0
M  V30 13868 C 1494.69 -7.08259 -2.72856 0
M  V30 13869 O 1494.48 -5.9427 -1.83651 0
M  V30 13870 C 1493.29 -7.64886 -2.9555 0
M  V30 13871 O 1492.9 -8.53963 -1.90717 0
M  V30 13872 C 1492.41 -6.4116 -2.90739 0
M  V30 13873 C 1493.12 -5.55375 -1.86963 0
M  V30 13874 N 1493.07 -4.09664 -2.15742 0
M  V30 13875 H 1495.91 -7.45574 -4.45629 0
M  V30 13876 H 1496.18 -5.86232 -3.67314 0
M  V30 13877 H 1495.31 -7.84412 -2.24479 0
M  V30 13878 P 1491.35 -8.7635 -1.60911 0
M  V30 13879 O 1491.13 -10.1388 -1.11561 0
M  V30 13880 O 1490.56 -8.36503 -2.79617 0
M  V30 13881 O 1491.1 -7.71806 -0.42951 0
M  V30 13882 C 1492.04 -7.67148 0.673689 0
M  V30 13883 C 1491.31 -7.33374 1.95559 0
M  V30 13884 O 1491.1 -5.88721 2.00726 0
M  V30 13885 C 1489.91 -7.92526 2.10483 0
M  V30 13886 O 1489.52 -8.02971 3.47653 0
M  V30 13887 C 1489.03 -6.89602 1.41652 0
M  V30 13888 C 1489.74 -5.59201 1.75185 0
M  V30 13889 N 1489.69 -4.58235 0.662552 0
M  V30 13890 H 1492.53 -8.65116 0.777161 0
M  V30 13891 H 1492.8 -6.90173 0.474152 0
M  V30 13892 H 1491.93 -7.66548 2.79458 0
M  V30 13893 P 1487.97 -8.03563 3.84925 0
M  V30 13894 O 1487.75 -8.85821 5.0569 0
M  V30 13895 O 1487.18 -8.41101 2.65469 0
M  V30 13896 O 1487.72 -6.4965 4.18908 0
M  V30 13897 C 1488.66 -5.81037 5.05421 0
M  V30 13898 C 1487.93 -4.78366 5.89277 0
M  V30 13899 O 1487.72 -3.58302 5.08433 0
M  V30 13900 C 1486.53 -5.17448 6.36119 0
M  V30 13901 O 1486.14 -4.45271 7.53232 0
M  V30 13902 C 1485.65 -4.74639 5.19936 0
M  V30 13903 C 1486.36 -3.49432 4.70418 0
M  V30 13904 N 1486.31 -3.32099 3.22613 0
M  V30 13905 H 1489.15 -6.54213 5.71376 0
M  V30 13906 H 1489.42 -5.30936 4.43503 0
M  V30 13907 H 1488.55 -4.55889 6.76652 0
M  V30 13908 H 1485.9 -2.61715 5.17932 0
M  V30 13909 H 1485.62 -5.52155 4.41878 0
M  V30 13910 H 1484.63 -4.51981 5.53374 0
M  V30 13911 H 1486.46 -6.25124 6.55234 0
M  V30 13912 P 1484.59 -4.23843 7.83734 0
M  V30 13913 O 1484.37 -4.19407 9.29784 0
M  V30 13914 O 1483.8 -5.24426 7.09156 0
M  V30 13915 O 1484.34 -2.7935 7.20758 0
M  V30 13916 C 1485.28 -1.72945 7.50224 0
M  V30 13917 C 1484.55 -0.406376 7.57911 0
M  V30 13918 O 1484.34 0.0897726 6.21935 0
M  V30 13919 C 1483.15 -0.438983 8.18724 0
M  V30 13920 O 1482.76 0.825065 8.71101 0
M  V30 13921 C 1482.27 -0.783689 6.99524 0
M  V30 13922 C 1482.98 -0.0619086 5.85867 0
M  V30 13923 N 1482.93 -0.78573 4.56183 0
M  V30 13924 C 1482.78 -0.0292889 3.41887 0
M  V30 13925 O 1482.69 1.18445 3.4419 0
M  V30 13926 N 1482.74 -0.744061 2.23964 0
M  V30 13927 C 1482.83 -2.10932 2.10362 0
M  V30 13928 C 1482.98 -2.8202 3.34994 0
M  V30 13929 C 1483.03 -2.15547 4.52261 0
M  V30 13930 H 1485.77 -1.93379 8.46595 0
M  V30 13931 H 1486.04 -1.68132 6.70852 0
M  V30 13932 H 1485.17 0.289041 8.15388 0
M  V30 13933 H 1482.52 0.926847 5.72749 0
M  V30 13934 H 1482.24 -1.86973 6.82036 0
M  V30 13935 H 1481.25 -0.403896 7.13257 0
M  V30 13936 H 1483.08 -1.20585 8.97435 0
M  V30 13937 H 1483.15 -2.71231 5.45042 0
M  V30 13938 P 1481.21 1.17771 8.83182 0
M  V30 13939 O 1480.99 2.07206 9.98732 0
M  V30 13940 O 1480.42 -0.0743816 8.81969 0
M  V30 13941 O 1480.96 1.97652 7.47304 0
M  V30 13942 C 1481.9 3.01133 7.08783 0
M  V30 13943 C 1481.17 4.12613 6.37049 0
M  V30 13944 O 1480.96 3.72827 4.97879 0
M  V30 13945 C 1479.77 4.45085 6.88694 0
M  V30 13946 O 1479.38 5.7877 6.5624 0
M  V30 13947 C 1478.89 3.47817 6.12078 0
M  V30 13948 C 1479.6 3.39414 4.77697 0
M  V30 13949 N 1479.55 2.04615 4.15333 0
M  V30 13950 H 1482.39 3.41248 7.98759 0
M  V30 13951 H 1482.66 2.5837 6.41742 0
M  V30 13952 H 1481.79 5.02657 6.42673 0
M  V30 13953 P 1477.83 6.144 6.45285 0
M  V30 13954 O 1477.61 7.54673 6.86199 0
M  V30 13955 O 1477.04 5.12391 7.179 0
M  V30 13956 O 1477.58 5.99158 4.88404 0
M  V30 13957 C 1478.52 6.60234 3.96415 0
M  V30 13958 C 1477.79 7.08259 2.72856 0
M  V30 13959 O 1477.58 5.9427 1.83651 0
M  V30 13960 C 1476.39 7.64886 2.9555 0
M  V30 13961 O 1476 8.53963 1.90717 0
M  V30 13962 C 1475.51 6.4116 2.90739 0
M  V30 13963 C 1476.22 5.55375 1.86963 0
M  V30 13964 N 1476.17 4.09448 2.16152 0
M  V30 13965 H 1479.01 7.45574 4.45629 0
M  V30 13966 H 1479.28 5.85864 3.679 0
M  V30 13967 H 1478.41 7.84412 2.24479 0
M  V30 13968 H 1475.76 5.73457 0.888562 0
M  V30 13969 H 1475.48 5.90877 3.88583 0
M  V30 13970 H 1474.49 6.6596 2.58858 0
M  V30 13971 H 1476.32 8.16339 3.92049 0
M  V30 13972 P 1474.45 8.7635 1.60911 0
M  V30 13973 O 1474.23 10.1388 1.11561 0
M  V30 13974 O 1473.66 8.36503 2.79617 0
M  V30 13975 O 1474.2 7.71806 0.42951 0
M  V30 13976 C 1475.14 7.67148 -0.673689 0
M  V30 13977 C 1474.41 7.33374 -1.95559 0
M  V30 13978 O 1474.2 5.88721 -2.00726 0
M  V30 13979 C 1473.01 7.92526 -2.10483 0
M  V30 13980 O 1472.62 8.02971 -3.47653 0
M  V30 13981 C 1472.13 6.89602 -1.41652 0
M  V30 13982 C 1472.84 5.59201 -1.75185 0
M  V30 13983 N 1472.79 4.58301 -0.657969 0
M  V30 13984 H 1475.63 8.65116 -0.777161 0
M  V30 13985 H 1475.9 6.9022 -0.46725 0
M  V30 13986 H 1475.03 7.66548 -2.79458 0
M  V30 13987 H 1472.38 5.16165 -2.65183 0
M  V30 13988 H 1472.1 7.06433 -0.329384 0
M  V30 13989 H 1471.11 6.90926 -1.82021 0
M  V30 13990 H 1472.94 8.90873 -1.62657 0
M  V30 13991 P 1471.07 8.03563 -3.84925 0
M  V30 13992 O 1470.85 8.85821 -5.0569 0
M  V30 13993 O 1470.28 8.41101 -2.65469 0
M  V30 13994 O 1470.82 6.4965 -4.18908 0
M  V30 13995 C 1471.76 5.81037 -5.05421 0
M  V30 13996 C 1471.03 4.78366 -5.89277 0
M  V30 13997 O 1470.82 3.58302 -5.08433 0
M  V30 13998 C 1469.63 5.17448 -6.36119 0
M  V30 13999 O 1469.24 4.45271 -7.53232 0
M  V30 14000 C 1468.75 4.74639 -5.19936 0
M  V30 14001 C 1469.46 3.49432 -4.70418 0
M  V30 14002 N 1469.41 3.31776 -3.22945 0
M  V30 14003 H 1472.25 6.54213 -5.71376 0
M  V30 14004 H 1472.52 5.30492 -4.44033 0
M  V30 14005 H 1471.65 4.55889 -6.76652 0
M  V30 14006 P 1467.69 4.23843 -7.83734 0
M  V30 14007 O 1467.47 4.19407 -9.29784 0
M  V30 14008 O 1466.9 5.24426 -7.09156 0
M  V30 14009 O 1467.44 2.79386 -7.20852 0
M  V30 14010 C 1468.38 1.7299 -7.50419 0
M  V30 14011 C 1467.65 0.41401 -7.5797 0
M  V30 14012 O 1467.44 -0.089787 -6.22035 0
M  V30 14013 C 1466.25 0.447224 -8.1878 0
M  V30 14014 O 1465.86 -0.825159 -8.71201 0
M  V30 14015 C 1465.37 0.783801 -6.99623 0
M  V30 14016 C 1466.08 0.0619192 -5.85967 0
M  V30 14017 N 1466.03 0.7859 -4.56281 0
M  V30 14018 C 1465.88 0.0359258 -3.39981 0
M  V30 14019 O 1465.79 -1.19723 -3.49038 0
M  V30 14020 N 1465.83 0.869151 -2.14025 0
M  V30 14021 C 1465.93 2.01207 -2.14363 0
M  V30 14022 N 1465.88 2.58978 -0.954287 0
M  V30 14023 C 1466.08 2.80817 -3.32215 0
M  V30 14024 C 1466.13 2.13785 -4.50884 0
M  V30 14025 H 1468.87 1.93401 -8.46693 0
M  V30 14026 H 1469.14 1.68181 -6.71046 0
M  V30 14027 H 1468.27 -0.289076 -8.15488 0
M  V30 14028 H 1465.62 -0.927166 -5.72947 0
M  V30 14029 H 1465.34 1.87 -6.82132 0
M  V30 14030 H 1464.35 0.404009 -7.13457 0
M  V30 14031 H 1466.18 1.20599 -8.97534 0
M  V30 14032 H 1466.25 2.70295 -5.43162 0
M  V30 14033 H 1466.15 3.89465 -3.27406 0
M  V30 14034 H 1465.76 2.01616 -0.107046 0
M  V30 14035 H 1465.96 3.61403 -0.873101 0
M  V30 14036 P 1464.31 -1.17771 -8.83182 0
M  V30 14037 O 1464.09 -2.07206 -9.98732 0
M  V30 14038 O 1463.52 0.0743816 -8.81969 0
M  V30 14039 O 1464.06 -1.97652 -7.47304 0
M  V30 14040 C 1465 -3.01133 -7.08783 0
M  V30 14041 C 1464.27 -4.12613 -6.37049 0
M  V30 14042 O 1464.06 -3.72827 -4.97879 0
M  V30 14043 C 1462.87 -4.45085 -6.88694 0
M  V30 14044 O 1462.48 -5.7877 -6.5624 0
M  V30 14045 C 1461.99 -3.47817 -6.12078 0
M  V30 14046 C 1462.7 -3.39414 -4.77697 0
M  V30 14047 N 1462.65 -2.04199 -4.15538 0
M  V30 14048 H 1465.49 -3.41248 -7.98759 0
M  V30 14049 H 1465.76 -2.57728 -6.42 0
M  V30 14050 H 1464.89 -5.02657 -6.42673 0
M  V30 14051 H 1462.24 -4.11708 -4.08956 0
M  V30 14052 H 1461.96 -2.49626 -6.61679 0
M  V30 14053 H 1460.97 -3.8662 -6.00862 0
M  V30 14054 H 1462.8 -4.29991 -7.97006 0
M  V30 14055 P 1460.93 -6.144 -6.45285 0
M  V30 14056 O 1460.71 -7.54673 -6.86199 0
M  V30 14057 O 1460.14 -5.12391 -7.179 0
M  V30 14058 O 1460.68 -5.99158 -4.88404 0
M  V30 14059 C 1461.62 -6.60062 -3.96313 0
M  V30 14060 C 1460.89 -7.08259 -2.72856 0
M  V30 14061 O 1460.68 -5.9427 -1.83651 0
M  V30 14062 C 1459.49 -7.65087 -2.94749 0
M  V30 14063 O 1459.1 -8.53963 -1.90717 0
M  V30 14064 C 1458.61 -6.41069 -2.90698 0
M  V30 14065 C 1459.32 -5.5528 -1.86931 0
M  V30 14066 N 1459.27 -4.09575 -2.15696 0
M  V30 14067 C 1459.12 -3.24249 -1.08435 0
M  V30 14068 O 1459.03 -3.63946 0.0628747 0
M  V30 14069 N 1459.08 -1.90009 -1.39973 0
M  V30 14070 C 1459.17 -1.34884 -2.65614 0
M  V30 14071 O 1459.12 -0.123716 -2.81728 0
M  V30 14072 C 1459.32 -2.3145 -3.71736 0
M  V30 14073 C 1459.43 -1.75913 -5.10438 0
M  V30 14074 C 1459.37 -3.63518 -3.44754 0
M  V30 14075 H 1462.11 -7.45402 -4.45526 0
M  V30 14076 H 1462.38 -5.86062 -3.67208 0
M  V30 14077 H 1461.51 -7.84412 -2.24479 0
M  V30 14078 H 1458.86 -5.73358 -0.888409 0
M  V30 14079 H 1458.58 -5.90877 -3.88583 0
M  V30 14080 H 1457.59 -6.65867 -2.58821 0
M  V30 14081 H 1459.42 -8.16248 -3.92006 0
M  V30 14082 H 1459.49 -4.34551 -4.26383 0
M  V30 14083 H 1458.46 -1.85471 -5.61775 0
M  V30 14084 H 1460.2 -2.31364 -5.66257 0
M  V30 14085 H 1459.71 -0.695936 -5.05229 0
M  V30 14086 H 1458.98 -1.26277 -0.63625 0
M  V30 14087 P 1457.55 -8.7635 -1.60911 0
M  V30 14088 O 1457.33 -10.1388 -1.11561 0
M  V30 14089 O 1456.76 -8.36503 -2.79617 0
M  V30 14090 O 1457.3 -7.71806 -0.42951 0
M  V30 14091 C 1458.24 -7.67148 0.673689 0
M  V30 14092 C 1457.51 -7.33374 1.95559 0
M  V30 14093 O 1457.3 -5.88721 2.00726 0
M  V30 14094 C 1456.11 -7.92526 2.10483 0
M  V30 14095 O 1455.72 -8.02971 3.47653 0
M  V30 14096 C 1455.23 -6.89602 1.41652 0
M  V30 14097 C 1455.94 -5.59201 1.75185 0
M  V30 14098 N 1455.89 -4.58301 0.657969 0
M  V30 14099 H 1458.73 -8.65116 0.777161 0
M  V30 14100 H 1459 -6.9022 0.46725 0
M  V30 14101 H 1458.13 -7.66548 2.79458 0
M  V30 14102 H 1455.48 -5.16165 2.65183 0
M  V30 14103 H 1455.2 -7.06433 0.329384 0
M  V30 14104 H 1454.21 -6.90926 1.82021 0
M  V30 14105 H 1456.04 -8.90873 1.62657 0
M  V30 14106 P 1454.17 -8.03563 3.84925 0
M  V30 14107 O 1453.95 -8.85821 5.0569 0
M  V30 14108 O 1453.38 -8.41101 2.65469 0
M  V30 14109 O 1453.92 -6.4965 4.18908 0
M  V30 14110 C 1454.86 -5.81037 5.05421 0
M  V30 14111 C 1454.13 -4.78366 5.89277 0
M  V30 14112 O 1453.92 -3.58302 5.08433 0
M  V30 14113 C 1452.73 -5.17448 6.36119 0
M  V30 14114 O 1452.34 -4.45271 7.53232 0
M  V30 14115 C 1451.85 -4.74639 5.19936 0
M  V30 14116 C 1452.56 -3.49432 4.70418 0
M  V30 14117 N 1452.51 -3.31776 3.22945 0
M  V30 14118 H 1455.35 -6.54213 5.71376 0
M  V30 14119 H 1455.62 -5.30492 4.44033 0
M  V30 14120 H 1454.75 -4.55889 6.76652 0
M  V30 14121 P 1450.79 -4.23843 7.83734 0
M  V30 14122 O 1450.57 -4.19407 9.29784 0
M  V30 14123 O 1450 -5.24426 7.09156 0
M  V30 14124 O 1450.54 -2.7935 7.20758 0
M  V30 14125 C 1451.48 -1.7299 7.50419 0
M  V30 14126 C 1450.75 -0.406376 7.57911 0
M  V30 14127 O 1450.54 0.0897726 6.21935 0
M  V30 14128 C 1449.35 -0.447224 8.1878 0
M  V30 14129 O 1448.96 0.825065 8.71101 0
M  V30 14130 C 1448.47 -0.783801 6.99623 0
M  V30 14131 C 1449.18 -0.0619192 5.85967 0
M  V30 14132 N 1449.13 -0.7859 4.56281 0
M  V30 14133 H 1451.97 -1.93423 8.4679 0
M  V30 14134 H 1452.24 -1.68181 6.71046 0
M  V30 14135 H 1451.37 0.289041 8.15388 0
M  V30 14136 P 1447.41 1.17771 8.83182 0
M  V30 14137 O 1447.19 2.07206 9.98732 0
M  V30 14138 O 1446.62 -0.0743816 8.81969 0
M  V30 14139 O 1447.16 1.97652 7.47304 0
M  V30 14140 C 1448.1 3.01133 7.08783 0
M  V30 14141 C 1447.37 4.12613 6.37049 0
M  V30 14142 O 1447.16 3.72827 4.97879 0
M  V30 14143 C 1445.97 4.45085 6.88694 0
M  V30 14144 O 1445.58 5.7877 6.5624 0
M  V30 14145 C 1445.09 3.47817 6.12078 0
M  V30 14146 C 1445.8 3.39414 4.77697 0
M  V30 14147 N 1445.75 2.04615 4.15333 0
M  V30 14148 H 1448.59 3.41248 7.98759 0
M  V30 14149 H 1448.86 2.5837 6.41742 0
M  V30 14150 H 1447.99 5.02657 6.42673 0
M  V30 14151 P 1444.03 6.144 6.45285 0
M  V30 14152 O 1443.81 7.54673 6.86199 0
M  V30 14153 O 1443.24 5.12391 7.179 0
M  V30 14154 O 1443.78 5.99158 4.88404 0
M  V30 14155 C 1444.72 6.60234 3.96415 0
M  V30 14156 C 1443.99 7.08259 2.72856 0
M  V30 14157 O 1443.78 5.9427 1.83651 0
M  V30 14158 C 1442.59 7.64886 2.9555 0
M  V30 14159 O 1442.2 8.53963 1.90717 0
M  V30 14160 C 1441.71 6.4116 2.90739 0
M  V30 14161 C 1442.42 5.55375 1.86963 0
M  V30 14162 N 1442.37 4.09448 2.16152 0
M  V30 14163 H 1445.21 7.45574 4.45629 0
M  V30 14164 H 1445.48 5.85864 3.679 0
M  V30 14165 H 1444.61 7.84412 2.24479 0
M  V30 14166 H 1441.96 5.73457 0.888562 0
M  V30 14167 H 1441.68 5.90877 3.88583 0
M  V30 14168 H 1440.69 6.6596 2.58858 0
M  V30 14169 H 1442.52 8.16339 3.92049 0
M  V30 14170 P 1440.65 8.7635 1.60911 0
M  V30 14171 O 1440.43 10.1388 1.11561 0
M  V30 14172 O 1439.86 8.36503 2.79617 0
M  V30 14173 O 1440.4 7.71806 0.42951 0
M  V30 14174 C 1441.34 7.67148 -0.673689 0
M  V30 14175 C 1440.61 7.33374 -1.95559 0
M  V30 14176 O 1440.4 5.88721 -2.00726 0
M  V30 14177 C 1439.21 7.92526 -2.10483 0
M  V30 14178 O 1438.82 8.02971 -3.47653 0
M  V30 14179 C 1438.33 6.89602 -1.41652 0
M  V30 14180 C 1439.04 5.59201 -1.75185 0
M  V30 14181 N 1438.99 4.58235 -0.662552 0
M  V30 14182 H 1441.83 8.65116 -0.777161 0
M  V30 14183 H 1442.1 6.90173 -0.474152 0
M  V30 14184 H 1441.23 7.66548 -2.79458 0
M  V30 14185 P 1437.27 8.03563 -3.84925 0
M  V30 14186 O 1437.05 8.85821 -5.0569 0
M  V30 14187 O 1436.48 8.41101 -2.65469 0
M  V30 14188 O 1437.02 6.4965 -4.18908 0
M  V30 14189 C 1437.96 5.81037 -5.05421 0
M  V30 14190 C 1437.23 4.78366 -5.89277 0
M  V30 14191 O 1437.02 3.58302 -5.08433 0
M  V30 14192 C 1435.83 5.17448 -6.36119 0
M  V30 14193 O 1435.44 4.45271 -7.53232 0
M  V30 14194 C 1434.95 4.74639 -5.19936 0
M  V30 14195 C 1435.66 3.49432 -4.70418 0
M  V30 14196 N 1435.61 3.31776 -3.22945 0
M  V30 14197 H 1438.45 6.54213 -5.71376 0
M  V30 14198 H 1438.72 5.30492 -4.44033 0
M  V30 14199 H 1437.85 4.55889 -6.76652 0
M  V30 14200 P 1433.89 4.23843 -7.83734 0
M  V30 14201 O 1433.67 4.19407 -9.29784 0
M  V30 14202 O 1433.1 5.24426 -7.09156 0
M  V30 14203 O 1433.64 2.7935 -7.20758 0
M  V30 14204 C 1434.58 1.7299 -7.50419 0
M  V30 14205 C 1433.85 0.406376 -7.57911 0
M  V30 14206 O 1433.64 -0.0897726 -6.21935 0
M  V30 14207 C 1432.45 0.447224 -8.1878 0
M  V30 14208 O 1432.06 -0.825065 -8.71101 0
M  V30 14209 C 1431.57 0.783801 -6.99623 0
M  V30 14210 C 1432.28 0.0619192 -5.85967 0
M  V30 14211 N 1432.23 0.790462 -4.56202 0
M  V30 14212 H 1435.07 1.93423 -8.4679 0
M  V30 14213 H 1435.34 1.68852 -6.70877 0
M  V30 14214 H 1434.47 -0.289041 -8.15388 0
M  V30 14215 H 1431.82 -0.927006 -5.72848 0
M  V30 14216 H 1431.54 1.86973 -6.82036 0
M  V30 14217 H 1430.55 0.403953 -7.13357 0
M  V30 14218 H 1432.38 1.20599 -8.97534 0
M  V30 14219 P 1430.51 -1.17771 -8.83182 0
M  V30 14220 O 1430.29 -2.07206 -9.98732 0
M  V30 14221 O 1429.72 0.0743816 -8.81969 0
M  V30 14222 O 1430.26 -1.97652 -7.47304 0
M  V30 14223 C 1431.2 -3.01133 -7.08783 0
M  V30 14224 C 1430.47 -4.12613 -6.37049 0
M  V30 14225 O 1430.26 -3.72827 -4.97879 0
M  V30 14226 C 1429.07 -4.45085 -6.88694 0
M  V30 14227 O 1428.68 -5.7877 -6.5624 0
M  V30 14228 C 1428.19 -3.47817 -6.12078 0
M  V30 14229 C 1428.9 -3.39414 -4.77697 0
M  V30 14230 N 1428.85 -2.04615 -4.15333 0
M  V30 14231 H 1431.69 -3.41248 -7.98759 0
M  V30 14232 H 1431.96 -2.5837 -6.41742 0
M  V30 14233 H 1431.09 -5.02657 -6.42673 0
M  V30 14234 P 1427.13 -6.144 -6.45285 0
M  V30 14235 O 1426.91 -7.54673 -6.86199 0
M  V30 14236 O 1426.34 -5.12391 -7.179 0
M  V30 14237 O 1426.88 -5.99158 -4.88404 0
M  V30 14238 C 1427.82 -6.60234 -3.96415 0
M  V30 14239 C 1427.09 -7.08259 -2.72856 0
M  V30 14240 O 1426.88 -5.9427 -1.83651 0
M  V30 14241 C 1425.69 -7.64886 -2.9555 0
M  V30 14242 O 1425.3 -8.53963 -1.90717 0
M  V30 14243 C 1424.81 -6.4116 -2.90739 0
M  V30 14244 C 1425.52 -5.55375 -1.86963 0
M  V30 14245 N 1425.47 -4.09664 -2.15742 0
M  V30 14246 H 1428.31 -7.45574 -4.45629 0
M  V30 14247 H 1428.58 -5.86232 -3.67314 0
M  V30 14248 H 1427.71 -7.84412 -2.24479 0
M  V30 14249 P 1423.75 -8.7635 -1.60911 0
M  V30 14250 O 1423.53 -10.1388 -1.11561 0
M  V30 14251 O 1422.96 -8.36503 -2.79617 0
M  V30 14252 O 1423.5 -7.71806 -0.42951 0
M  V30 14253 C 1424.44 -7.67148 0.673689 0
M  V30 14254 C 1423.71 -7.33374 1.95559 0
M  V30 14255 O 1423.5 -5.88721 2.00726 0
M  V30 14256 C 1422.31 -7.92526 2.10483 0
M  V30 14257 O 1421.92 -8.02971 3.47653 0
M  V30 14258 C 1421.43 -6.89602 1.41652 0
M  V30 14259 C 1422.14 -5.59201 1.75185 0
M  V30 14260 N 1422.09 -4.58235 0.662552 0
M  V30 14261 H 1424.93 -8.65116 0.777161 0
M  V30 14262 H 1425.2 -6.90173 0.474152 0
M  V30 14263 H 1424.33 -7.66548 2.79458 0
M  V30 14264 P 1420.37 -8.03563 3.84925 0
M  V30 14265 O 1420.15 -8.85821 5.0569 0
M  V30 14266 O 1419.58 -8.41101 2.65469 0
M  V30 14267 O 1420.12 -6.4965 4.18908 0
M  V30 14268 C 1421.06 -5.81037 5.05421 0
M  V30 14269 C 1420.33 -4.78366 5.89277 0
M  V30 14270 O 1420.12 -3.58302 5.08433 0
M  V30 14271 C 1418.93 -5.17448 6.36119 0
M  V30 14272 O 1418.54 -4.45271 7.53232 0
M  V30 14273 C 1418.05 -4.74639 5.19936 0
M  V30 14274 C 1418.76 -3.49432 4.70418 0
M  V30 14275 N 1418.71 -3.31776 3.22945 0
M  V30 14276 H 1421.55 -6.54213 5.71376 0
M  V30 14277 H 1421.82 -5.30492 4.44033 0
M  V30 14278 H 1420.95 -4.55889 6.76652 0
M  V30 14279 P 1416.99 -4.23843 7.83734 0
M  V30 14280 O 1416.77 -4.19407 9.29784 0
M  V30 14281 O 1416.2 -5.24426 7.09156 0
M  V30 14282 O 1416.74 -2.7935 7.20758 0
M  V30 14283 C 1417.68 -1.7299 7.50419 0
M  V30 14284 C 1416.95 -0.406376 7.57911 0
M  V30 14285 O 1416.74 0.0897726 6.21935 0
M  V30 14286 C 1415.55 -0.447224 8.1878 0
M  V30 14287 O 1415.16 0.825065 8.71101 0
M  V30 14288 C 1414.67 -0.783801 6.99623 0
M  V30 14289 C 1415.38 -0.0619192 5.85967 0
M  V30 14290 N 1415.33 -0.790462 4.56202 0
M  V30 14291 H 1418.17 -1.93423 8.4679 0
M  V30 14292 H 1418.44 -1.68852 6.70877 0
M  V30 14293 H 1417.57 0.289041 8.15388 0
M  V30 14294 H 1414.92 0.927006 5.72848 0
M  V30 14295 H 1414.64 -1.86973 6.82036 0
M  V30 14296 H 1413.65 -0.403953 7.13357 0
M  V30 14297 H 1415.48 -1.20599 8.97534 0
M  V30 14298 P 1413.61 1.17771 8.83182 0
M  V30 14299 O 1413.39 2.07206 9.98732 0
M  V30 14300 O 1412.82 -0.0743816 8.81969 0
M  V30 14301 O 1413.36 1.97652 7.47304 0
M  V30 14302 C 1414.3 3.01133 7.08783 0
M  V30 14303 C 1413.57 4.12613 6.37049 0
M  V30 14304 O 1413.36 3.72827 4.97879 0
M  V30 14305 C 1412.17 4.45085 6.88694 0
M  V30 14306 O 1411.78 5.7877 6.5624 0
M  V30 14307 C 1411.29 3.47817 6.12078 0
M  V30 14308 C 1412 3.39414 4.77697 0
M  V30 14309 N 1411.95 2.04615 4.15333 0
M  V30 14310 C 1412.03 0.803897 4.75249 0
M  V30 14311 N 1411.95 -0.197615 3.91502 0
M  V30 14312 C 1411.81 0.413002 2.66823 0
M  V30 14313 C 1411.68 -0.157221 1.38007 0
M  V30 14314 O 1411.66 -1.34419 1.057 0
M  V30 14315 N 1411.56 0.833136 0.390236 0
M  V30 14316 C 1411.56 2.19402 0.623885 0
M  V30 14317 N 1411.43 2.97622 -0.449677 0
M  V30 14318 N 1411.69 2.73005 1.83601 0
M  V30 14319 C 1411.81 1.78786 2.80935 0
M  V30 14320 H 1414.79 3.41248 7.98759 0
M  V30 14321 H 1415.06 2.5837 6.41742 0
M  V30 14322 H 1414.19 5.02657 6.42673 0
M  V30 14323 H 1411.54 4.11779 4.09026 0
M  V30 14324 H 1411.26 2.49661 6.61772 0
M  V30 14325 H 1410.27 3.86674 6.00946 0
M  V30 14326 H 1412.1 4.30038 7.97094 0
M  V30 14327 H 1412.15 0.670579 5.82754 0
M  V30 14328 H 1411.47 0.528446 -0.557287 0
M  V30 14329 H 1411.43 4.00117 -0.344773 0
M  V30 14330 H 1411.33 2.55448 -1.38544 0
M  V30 14331 P 1410.23 6.144 6.45285 0
M  V30 14332 O 1410.01 7.54673 6.86199 0
M  V30 14333 O 1409.44 5.12391 7.179 0
M  V30 14334 O 1409.98 5.99236 4.88467 0
M  V30 14335 C 1410.92 6.60234 3.96415 0
M  V30 14336 C 1410.19 7.08079 2.736 0
M  V30 14337 O 1409.98 5.94365 1.8368 0
M  V30 14338 C 1408.79 7.64886 2.9555 0
M  V30 14339 O 1408.4 8.5406 1.90739 0
M  V30 14340 C 1407.91 6.4116 2.90739 0
M  V30 14341 C 1408.62 5.55375 1.86963 0
M  V30 14342 N 1408.57 4.09664 2.15742 0
M  V30 14343 C 1408.42 3.22231 1.08477 0
M  V30 14344 O 1408.33 3.68951 -0.0600489 0
M  V30 14345 N 1408.37 1.76692 1.48799 0
M  V30 14346 C 1408.47 1.41695 2.57602 0
M  V30 14347 N 1408.42 0.107296 2.75791 0
M  V30 14348 C 1408.62 2.29178 3.69733 0
M  V30 14349 C 1408.67 3.62753 3.42653 0
M  V30 14350 H 1411.41 7.45488 4.45578 0
M  V30 14351 H 1411.68 5.86232 3.67314 0
M  V30 14352 H 1410.81 7.84508 2.24507 0
M  V30 14353 H 1408.16 5.73556 0.888715 0
M  V30 14354 H 1407.88 5.9096 3.88638 0
M  V30 14355 H 1406.89 6.66053 2.58894 0
M  V30 14356 H 1408.72 8.16339 3.92049 0
M  V30 14357 H 1408.79 4.33052 4.24913 0
M  V30 14358 H 1408.69 1.9103 4.71577 0
M  V30 14359 H 1408.3 -0.521221 1.95056 0
M  V30 14360 H 1408.5 -0.286429 3.70695 0
M  V30 14361 P 1406.85 8.7635 1.60911 0
M  V30 14362 O 1406.63 10.1388 1.11561 0
M  V30 14363 O 1406.06 8.36503 2.79617 0
M  V30 14364 O 1406.6 7.71806 0.42951 0
M  V30 14365 C 1407.54 7.67148 -0.673689 0
M  V30 14366 C 1406.81 7.33374 -1.95559 0
M  V30 14367 O 1406.6 5.88721 -2.00726 0
M  V30 14368 C 1405.41 7.92526 -2.10483 0
M  V30 14369 O 1405.02 8.02971 -3.47653 0
M  V30 14370 C 1404.53 6.89602 -1.41652 0
M  V30 14371 C 1405.24 5.59201 -1.75185 0
M  V30 14372 N 1405.19 4.58235 -0.662552 0
M  V30 14373 H 1408.03 8.65116 -0.777161 0
M  V30 14374 H 1408.3 6.90173 -0.474152 0
M  V30 14375 H 1407.43 7.66548 -2.79458 0
M  V30 14376 P 1403.47 8.03563 -3.84925 0
M  V30 14377 O 1403.25 8.85821 -5.0569 0
M  V30 14378 O 1402.68 8.41101 -2.65469 0
M  V30 14379 O 1403.22 6.49734 -4.18962 0
M  V30 14380 C 1404.16 5.81037 -5.05421 0
M  V30 14381 C 1403.43 4.79018 -5.88876 0
M  V30 14382 O 1403.22 3.58359 -5.08515 0
M  V30 14383 C 1402.03 5.17448 -6.36119 0
M  V30 14384 O 1401.64 4.45322 -7.53318 0
M  V30 14385 C 1401.15 4.74639 -5.19936 0
M  V30 14386 C 1401.86 3.49432 -4.70418 0
M  V30 14387 N 1401.81 3.31776 -3.22945 0
M  V30 14388 C 1401.66 2.02742 -2.72939 0
M  V30 14389 O 1401.57 1.08301 -3.52749 0
M  V30 14390 N 1401.61 1.96117 -1.22063 0
M  V30 14391 C 1401.71 2.8878 -0.551566 0
M  V30 14392 N 1401.66 2.65609 0.750198 0
M  V30 14393 C 1401.86 4.22457 -1.03707 0
M  V30 14394 C 1401.91 4.37979 -2.39113 0
M  V30 14395 H 1404.65 6.54138 -5.7131 0
M  V30 14396 H 1404.92 5.30492 -4.44033 0
M  V30 14397 H 1404.05 4.55945 -6.76735 0
M  V30 14398 H 1401.4 2.6176 -5.18021 0
M  V30 14399 H 1401.12 5.52233 -4.41941 0
M  V30 14400 H 1400.13 4.52045 -5.53452 0
M  V30 14401 H 1401.96 6.25124 -6.55234 0
M  V30 14402 H 1402.03 5.37936 -2.80552 0
M  V30 14403 H 1401.93 5.07528 -0.359553 0
M  V30 14404 H 1401.54 1.69403 1.09847 0
M  V30 14405 H 1401.74 3.43701 1.41792 0
M  V30 14406 P 1400.09 4.23843 -7.83734 0
M  V30 14407 O 1399.87 4.19407 -9.29784 0
M  V30 14408 O 1399.3 5.24426 -7.09156 0
M  V30 14409 O 1399.84 2.7935 -7.20758 0
M  V30 14410 C 1400.78 1.7299 -7.50419 0
M  V30 14411 C 1400.05 0.406376 -7.57911 0
M  V30 14412 O 1399.84 -0.0897726 -6.21935 0
M  V30 14413 C 1398.65 0.447224 -8.1878 0
M  V30 14414 O 1398.26 -0.825065 -8.71101 0
M  V30 14415 C 1397.77 0.783801 -6.99623 0
M  V30 14416 C 1398.48 0.0619192 -5.85967 0
M  V30 14417 N 1398.43 0.790462 -4.56202 0
M  V30 14418 H 1401.27 1.93423 -8.4679 0
M  V30 14419 H 1401.54 1.68852 -6.70877 0
M  V30 14420 H 1400.67 -0.289041 -8.15388 0
M  V30 14421 H 1398.02 -0.927006 -5.72848 0
M  V30 14422 H 1397.74 1.86973 -6.82036 0
M  V30 14423 H 1396.75 0.403953 -7.13357 0
M  V30 14424 H 1398.58 1.20599 -8.97534 0
M  V30 14425 P 1396.71 -1.17771 -8.83182 0
M  V30 14426 O 1396.49 -2.07206 -9.98732 0
M  V30 14427 O 1395.92 0.0743816 -8.81969 0
M  V30 14428 O 1396.46 -1.97652 -7.47304 0
M  V30 14429 C 1397.4 -3.01055 -7.08599 0
M  V30 14430 C 1396.67 -4.12613 -6.37049 0
M  V30 14431 O 1396.46 -3.72827 -4.97879 0
M  V30 14432 C 1395.27 -4.45719 -6.88164 0
M  V30 14433 O 1394.88 -5.7877 -6.5624 0
M  V30 14434 C 1394.39 -3.47768 -6.11991 0
M  V30 14435 C 1395.1 -3.39356 -4.77615 0
M  V30 14436 N 1395.05 -2.04571 -4.15244 0
M  V30 14437 C 1394.9 -1.98587 -2.78314 0
M  V30 14438 O 1394.81 -2.98134 -2.08835 0
M  V30 14439 N 1394.86 -0.714467 -2.24925 0
M  V30 14440 C 1394.95 0.470001 -2.94169 0
M  V30 14441 C 1395.1 0.312541 -4.36783 0
M  V30 14442 C 1395.15 -0.914512 -4.92583 0
M  V30 14443 H 1397.89 -3.41169 -7.98575 0
M  V30 14444 H 1398.16 -2.58295 -6.41556 0
M  V30 14445 H 1397.29 -5.02657 -6.42673 0
M  V30 14446 H 1394.64 -4.11637 -4.08885 0
M  V30 14447 H 1394.36 -2.49626 -6.61679 0
M  V30 14448 H 1393.37 -3.86566 -6.00778 0
M  V30 14449 H 1395.2 -4.29943 -7.96918 0
M  V30 14450 H 1395.27 -1.00937 -6.00374 0
M  V30 14451 P 1393.33 -6.144 -6.45285 0
M  V30 14452 O 1393.11 -7.54673 -6.86199 0
M  V30 14453 O 1392.54 -5.12391 -7.179 0
M  V30 14454 O 1393.08 -5.99158 -4.88404 0
M  V30 14455 C 1394.02 -6.60234 -3.96415 0
M  V30 14456 C 1393.29 -7.08259 -2.72856 0
M  V30 14457 O 1393.08 -5.9427 -1.83651 0
M  V30 14458 C 1391.89 -7.64886 -2.9555 0
M  V30 14459 O 1391.5 -8.53963 -1.90717 0
M  V30 14460 C 1391.01 -6.4116 -2.90739 0
M  V30 14461 C 1391.72 -5.55375 -1.86963 0
M  V30 14462 N 1391.67 -4.09664 -2.15742 0
M  V30 14463 H 1394.51 -7.45574 -4.45629 0
M  V30 14464 H 1394.78 -5.86232 -3.67314 0
M  V30 14465 H 1393.91 -7.84412 -2.24479 0
M  V30 14466 P 1389.95 -8.7635 -1.60911 0
M  V30 14467 O 1389.73 -10.1388 -1.11561 0
M  V30 14468 O 1389.16 -8.36503 -2.79617 0
M  V30 14469 O 1389.7 -7.71806 -0.42951 0
M  V30 14470 C 1390.64 -7.67148 0.673689 0
M  V30 14471 C 1389.91 -7.33374 1.95559 0
M  V30 14472 O 1389.7 -5.88721 2.00726 0
M  V30 14473 C 1388.51 -7.92526 2.10483 0
M  V30 14474 O 1388.12 -8.02971 3.47653 0
M  V30 14475 C 1387.63 -6.89602 1.41652 0
M  V30 14476 C 1388.34 -5.59201 1.75185 0
M  V30 14477 N 1388.29 -4.58235 0.662552 0
M  V30 14478 C 1388.37 -4.7683 -0.704049 0
M  V30 14479 N 1388.29 -3.66233 -1.39775 0
M  V30 14480 C 1388.15 -2.66526 -0.431739 0
M  V30 14481 C 1388.02 -1.26394 -0.575992 0
M  V30 14482 N 1387.9 -0.62859 0.67177 0
M  V30 14483 C 1387.9 -1.27134 1.89385 0
M  V30 14484 N 1387.77 -0.492035 2.96951 0
M  V30 14485 N 1388.03 -2.58978 2.02907 0
M  V30 14486 C 1388.15 -3.22433 0.832218 0
M  V30 14487 H 1391.13 -8.65116 0.777161 0
M  V30 14488 H 1391.4 -6.90173 0.474152 0
M  V30 14489 H 1390.53 -7.66548 2.79458 0
M  V30 14490 P 1386.57 -8.03563 3.84925 0
M  V30 14491 O 1386.35 -8.85821 5.0569 0
M  V30 14492 O 1385.78 -8.41101 2.65469 0
M  V30 14493 O 1386.32 -6.4965 4.18908 0
M  V30 14494 C 1387.26 -5.80886 5.05289 0
M  V30 14495 C 1386.53 -4.78366 5.89277 0
M  V30 14496 O 1386.32 -3.58302 5.08433 0
M  V30 14497 C 1385.13 -5.16748 6.36559 0
M  V30 14498 O 1384.74 -4.45271 7.53232 0
M  V30 14499 C 1384.25 -4.74572 5.19863 0
M  V30 14500 C 1384.96 -3.49373 4.70338 0
M  V30 14501 N 1384.91 -3.31704 3.22876 0
M  V30 14502 C 1384.76 -2.03326 2.74871 0
M  V30 14503 O 1384.67 -1.06486 3.48076 0
M  V30 14504 N 1384.72 -1.91838 1.37456 0
M  V30 14505 C 1384.81 -2.94295 0.462035 0
M  V30 14506 O 1384.76 -2.71763 -0.752928 0
M  V30 14507 C 1384.96 -4.25064 1.05249 0
M  V30 14508 C 1385.07 -5.39815 0.095697 0
M  V30 14509 C 1385.01 -4.40214 2.39192 0
M  V30 14510 H 1387.75 -6.54063 5.71245 0
M  V30 14511 H 1388.02 -5.30339 4.43905 0
M  V30 14512 H 1387.15 -4.55889 6.76652 0
M  V30 14513 H 1384.5 -2.6167 5.17842 0
M  V30 14514 H 1384.22 -5.52155 4.41878 0
M  V30 14515 H 1383.23 -4.51918 5.53297 0
M  V30 14516 H 1385.06 -6.25055 6.55162 0
M  V30 14517 H 1385.13 -5.39798 2.81523 0
M  V30 14518 H 1384.1 -5.91593 0.0279582 0
M  V30 14519 H 1385.84 -6.10038 0.450573 0
M  V30 14520 H 1385.35 -5.02007 -0.89937 0
M  V30 14521 H 1384.62 -0.995326 1.00435 0
M  V30 14522 P 1383.19 -4.23843 7.83734 0
M  V30 14523 O 1382.97 -4.19407 9.29784 0
M  V30 14524 O 1382.4 -5.24426 7.09156 0
M  V30 14525 O 1382.94 -2.7935 7.20758 0
M  V30 14526 C 1383.88 -1.7299 7.50419 0
M  V30 14527 C 1383.15 -0.406376 7.57911 0
M  V30 14528 O 1382.94 0.0897726 6.21935 0
M  V30 14529 C 1381.75 -0.447224 8.1878 0
M  V30 14530 O 1381.36 0.825065 8.71101 0
M  V30 14531 C 1380.87 -0.783801 6.99623 0
M  V30 14532 C 1381.58 -0.0619192 5.85967 0
M  V30 14533 N 1381.53 -0.7859 4.56281 0
M  V30 14534 H 1384.37 -1.93423 8.4679 0
M  V30 14535 H 1384.64 -1.68181 6.71046 0
M  V30 14536 H 1383.77 0.289041 8.15388 0
M  V30 14537 P 1379.81 1.17771 8.83182 0
M  V30 14538 O 1379.59 2.07206 9.98732 0
M  V30 14539 O 1379.02 -0.0743816 8.81969 0
M  V30 14540 O 1379.56 1.97652 7.47304 0
M  V30 14541 C 1380.5 3.01133 7.08783 0
M  V30 14542 C 1379.77 4.12613 6.37049 0
M  V30 14543 O 1379.56 3.72827 4.97879 0
M  V30 14544 C 1378.37 4.45085 6.88694 0
M  V30 14545 O 1377.98 5.7877 6.5624 0
M  V30 14546 C 1377.49 3.47817 6.12078 0
M  V30 14547 C 1378.2 3.39414 4.77697 0
M  V30 14548 N 1378.15 2.04199 4.15538 0
M  V30 14549 H 1380.99 3.41248 7.98759 0
M  V30 14550 H 1381.26 2.57728 6.42 0
M  V30 14551 H 1380.39 5.02657 6.42673 0
M  V30 14552 H 1377.74 4.11708 4.08956 0
M  V30 14553 H 1377.46 2.49626 6.61679 0
M  V30 14554 H 1376.47 3.8662 6.00862 0
M  V30 14555 H 1378.3 4.29991 7.97006 0
M  V30 14556 P 1376.43 6.144 6.45285 0
M  V30 14557 O 1376.21 7.54673 6.86199 0
M  V30 14558 O 1375.64 5.12391 7.179 0
M  V30 14559 O 1376.18 5.99158 4.88404 0
M  V30 14560 C 1377.12 6.60062 3.96313 0
M  V30 14561 C 1376.39 7.08259 2.72856 0
M  V30 14562 O 1376.18 5.9427 1.83651 0
M  V30 14563 C 1374.99 7.65087 2.94749 0
M  V30 14564 O 1374.6 8.53963 1.90717 0
M  V30 14565 C 1374.11 6.41069 2.90698 0
M  V30 14566 C 1374.82 5.5528 1.86931 0
M  V30 14567 N 1374.77 4.09575 2.15696 0
M  V30 14568 C 1374.62 3.24249 1.08435 0
M  V30 14569 O 1374.53 3.63946 -0.0628747 0
M  V30 14570 N 1374.58 1.90009 1.39973 0
M  V30 14571 C 1374.67 1.34884 2.65614 0
M  V30 14572 O 1374.62 0.123716 2.81728 0
M  V30 14573 C 1374.82 2.3145 3.71736 0
M  V30 14574 C 1374.93 1.75913 5.10438 0
M  V30 14575 C 1374.87 3.63518 3.44754 0
M  V30 14576 H 1377.61 7.45402 4.45526 0
M  V30 14577 H 1377.88 5.86062 3.67208 0
M  V30 14578 H 1377.01 7.84412 2.24479 0
M  V30 14579 H 1374.36 5.73358 0.888409 0
M  V30 14580 H 1374.08 5.90877 3.88583 0
M  V30 14581 H 1373.09 6.65867 2.58821 0
M  V30 14582 H 1374.92 8.16248 3.92006 0
M  V30 14583 H 1374.99 4.34551 4.26383 0
M  V30 14584 H 1373.96 1.85471 5.61775 0
M  V30 14585 H 1375.7 2.31364 5.66257 0
M  V30 14586 H 1375.21 0.695936 5.05229 0
M  V30 14587 H 1374.48 1.26277 0.63625 0
M  V30 14588 P 1373.05 8.7635 1.60911 0
M  V30 14589 O 1372.83 10.1388 1.11561 0
M  V30 14590 O 1372.26 8.36503 2.79617 0
M  V30 14591 O 1372.8 7.71806 0.42951 0
M  V30 14592 C 1373.74 7.67148 -0.673689 0
M  V30 14593 C 1373.01 7.33374 -1.95559 0
M  V30 14594 O 1372.8 5.88721 -2.00726 0
M  V30 14595 C 1371.61 7.92526 -2.10483 0
M  V30 14596 O 1371.22 8.02971 -3.47653 0
M  V30 14597 C 1370.73 6.89602 -1.41652 0
M  V30 14598 C 1371.44 5.59201 -1.75185 0
M  V30 14599 N 1371.39 4.58235 -0.662552 0
M  V30 14600 H 1374.23 8.65116 -0.777161 0
M  V30 14601 H 1374.5 6.90173 -0.474152 0
M  V30 14602 H 1373.63 7.66548 -2.79458 0
M  V30 14603 P 1369.67 8.03563 -3.84925 0
M  V30 14604 O 1369.45 8.85821 -5.0569 0
M  V30 14605 O 1368.88 8.41101 -2.65469 0
M  V30 14606 O 1369.42 6.4965 -4.18908 0
M  V30 14607 C 1370.36 5.81037 -5.05421 0
M  V30 14608 C 1369.63 4.78366 -5.89277 0
M  V30 14609 O 1369.42 3.58302 -5.08433 0
M  V30 14610 C 1368.23 5.17448 -6.36119 0
M  V30 14611 O 1367.84 4.45271 -7.53232 0
M  V30 14612 C 1367.35 4.74639 -5.19936 0
M  V30 14613 C 1368.06 3.49432 -4.70418 0
M  V30 14614 N 1368.01 3.31776 -3.22945 0
M  V30 14615 H 1370.85 6.54213 -5.71376 0
M  V30 14616 H 1371.12 5.30492 -4.44033 0
M  V30 14617 H 1370.25 4.55889 -6.76652 0
M  V30 14618 P 1366.29 4.23843 -7.83734 0
M  V30 14619 O 1366.07 4.19407 -9.29784 0
M  V30 14620 O 1365.5 5.24426 -7.09156 0
M  V30 14621 O 1366.04 2.7935 -7.20758 0
M  V30 14622 C 1366.98 1.72945 -7.50224 0
M  V30 14623 C 1366.25 0.406376 -7.57911 0
M  V30 14624 O 1366.04 -0.0897726 -6.21935 0
M  V30 14625 C 1364.85 0.438983 -8.18724 0
M  V30 14626 O 1364.46 -0.825065 -8.71101 0
M  V30 14627 C 1363.97 0.783689 -6.99524 0
M  V30 14628 C 1364.68 0.0619086 -5.85867 0
M  V30 14629 N 1364.63 0.78573 -4.56183 0
M  V30 14630 C 1364.48 0.0292889 -3.41887 0
M  V30 14631 O 1364.39 -1.18445 -3.4419 0
M  V30 14632 N 1364.44 0.744061 -2.23964 0
M  V30 14633 C 1364.53 2.10932 -2.10362 0
M  V30 14634 C 1364.68 2.8202 -3.34994 0
M  V30 14635 C 1364.73 2.15547 -4.52261 0
M  V30 14636 H 1367.47 1.93379 -8.46595 0
M  V30 14637 H 1367.74 1.68132 -6.70852 0
M  V30 14638 H 1366.87 -0.289041 -8.15388 0
M  V30 14639 H 1364.22 -0.926847 -5.72749 0
M  V30 14640 H 1363.94 1.86973 -6.82036 0
M  V30 14641 H 1362.95 0.403896 -7.13257 0
M  V30 14642 H 1364.78 1.20585 -8.97435 0
M  V30 14643 H 1364.85 2.71231 -5.45042 0
M  V30 14644 P 1362.91 -1.17771 -8.83182 0
M  V30 14645 O 1362.69 -2.07206 -9.98732 0
M  V30 14646 O 1362.12 0.0743816 -8.81969 0
M  V30 14647 O 1362.66 -1.97652 -7.47304 0
M  V30 14648 C 1363.6 -3.01133 -7.08783 0
M  V30 14649 C 1362.87 -4.12613 -6.37049 0
M  V30 14650 O 1362.66 -3.72827 -4.97879 0
M  V30 14651 C 1361.47 -4.45085 -6.88694 0
M  V30 14652 O 1361.08 -5.7877 -6.5624 0
M  V30 14653 C 1360.59 -3.47817 -6.12078 0
M  V30 14654 C 1361.3 -3.39414 -4.77697 0
M  V30 14655 N 1361.25 -2.04199 -4.15538 0
M  V30 14656 H 1364.09 -3.41248 -7.98759 0
M  V30 14657 H 1364.36 -2.57728 -6.42 0
M  V30 14658 H 1363.49 -5.02657 -6.42673 0
M  V30 14659 H 1360.84 -4.11708 -4.08956 0
M  V30 14660 H 1360.56 -2.49626 -6.61679 0
M  V30 14661 H 1359.57 -3.8662 -6.00862 0
M  V30 14662 H 1361.4 -4.29991 -7.97006 0
M  V30 14663 P 1359.53 -6.144 -6.45285 0
M  V30 14664 O 1359.31 -7.54673 -6.86199 0
M  V30 14665 O 1358.74 -5.12391 -7.179 0
M  V30 14666 O 1359.28 -5.99158 -4.88404 0
M  V30 14667 C 1360.22 -6.60234 -3.96415 0
M  V30 14668 C 1359.49 -7.08259 -2.72856 0
M  V30 14669 O 1359.28 -5.9427 -1.83651 0
M  V30 14670 C 1358.09 -7.64886 -2.9555 0
M  V30 14671 O 1357.7 -8.53963 -1.90717 0
M  V30 14672 C 1357.21 -6.4116 -2.90739 0
M  V30 14673 C 1357.92 -5.55375 -1.86963 0
M  V30 14674 N 1357.87 -4.09448 -2.16152 0
M  V30 14675 C 1357.95 -3.46824 -3.37593 0
M  V30 14676 N 1357.88 -2.17422 -3.29777 0
M  V30 14677 C 1357.73 -1.93065 -1.94427 0
M  V30 14678 C 1357.6 -0.738053 -1.20141 0
M  V30 14679 N 1357.59 0.474256 -1.74676 0
M  V30 14680 N 1357.48 -0.850049 0.13045 0
M  V30 14681 C 1357.49 -2.06169 0.676992 0
M  V30 14682 N 1357.61 -3.23842 0.101312 0
M  V30 14683 C 1357.73 -3.09402 -1.23122 0
M  V30 14684 H 1360.71 -7.45574 -4.45629 0
M  V30 14685 H 1360.98 -5.85864 -3.679 0
M  V30 14686 H 1360.11 -7.84412 -2.24479 0
M  V30 14687 H 1357.46 -5.73457 -0.888562 0
M  V30 14688 H 1357.18 -5.90877 -3.88583 0
M  V30 14689 H 1356.19 -6.6596 -2.58858 0
M  V30 14690 H 1358.02 -8.16339 -3.92049 0
M  V30 14691 H 1358.06 -4.00505 -4.3174 0
M  V30 14692 H 1357.68 0.581337 -2.76658 0
M  V30 14693 H 1357.49 1.30811 -1.14888 0
M  V30 14694 H 1357.39 -2.08295 1.75542 0
M  V30 14695 P 1356.15 -8.7635 -1.60911 0
M  V30 14696 O 1355.93 -10.1388 -1.11561 0
M  V30 14697 O 1355.36 -8.36503 -2.79617 0
M  V30 14698 O 1355.9 -7.71806 -0.42951 0
M  V30 14699 C 1356.84 -7.67148 0.673689 0
M  V30 14700 C 1356.11 -7.33374 1.95559 0
M  V30 14701 O 1355.9 -5.88721 2.00726 0
M  V30 14702 C 1354.71 -7.92526 2.10483 0
M  V30 14703 O 1354.32 -8.02971 3.47653 0
M  V30 14704 C 1353.83 -6.89602 1.41652 0
M  V30 14705 C 1354.54 -5.59201 1.75185 0
M  V30 14706 N 1354.49 -4.58235 0.662552 0
M  V30 14707 H 1357.33 -8.65116 0.777161 0
M  V30 14708 H 1357.6 -6.90173 0.474152 0
M  V30 14709 H 1356.73 -7.66548 2.79458 0
M  V30 14710 P 1352.77 -8.03563 3.84925 0
M  V30 14711 O 1352.55 -8.85821 5.0569 0
M  V30 14712 O 1351.98 -8.41101 2.65469 0
M  V30 14713 O 1352.52 -6.4965 4.18908 0
M  V30 14714 C 1353.46 -5.80886 5.05289 0
M  V30 14715 C 1352.73 -4.78366 5.89277 0
M  V30 14716 O 1352.52 -3.58302 5.08433 0
M  V30 14717 C 1351.33 -5.16748 6.36559 0
M  V30 14718 O 1350.94 -4.45271 7.53232 0
M  V30 14719 C 1350.45 -4.74572 5.19863 0
M  V30 14720 C 1351.16 -3.49373 4.70338 0
M  V30 14721 N 1351.11 -3.31704 3.22876 0
M  V30 14722 C 1350.96 -2.03326 2.74871 0
M  V30 14723 O 1350.87 -1.06486 3.48076 0
M  V30 14724 N 1350.92 -1.91838 1.37456 0
M  V30 14725 C 1351.01 -2.94295 0.462035 0
M  V30 14726 O 1350.96 -2.71763 -0.752928 0
M  V30 14727 C 1351.16 -4.25064 1.05249 0
M  V30 14728 C 1351.27 -5.39815 0.095697 0
M  V30 14729 C 1351.21 -4.40214 2.39192 0
M  V30 14730 H 1353.95 -6.54063 5.71245 0
M  V30 14731 H 1354.22 -5.30339 4.43905 0
M  V30 14732 H 1353.36 -4.55889 6.76652 0
M  V30 14733 H 1350.7 -2.6167 5.17842 0
M  V30 14734 H 1350.42 -5.52155 4.41878 0
M  V30 14735 H 1349.43 -4.51918 5.53297 0
M  V30 14736 H 1351.26 -6.25055 6.55162 0
M  V30 14737 H 1351.33 -5.39798 2.81523 0
M  V30 14738 H 1350.3 -5.91593 0.0279582 0
M  V30 14739 H 1352.04 -6.10038 0.450573 0
M  V30 14740 H 1351.55 -5.02007 -0.89937 0
M  V30 14741 H 1350.82 -0.995326 1.00435 0
M  V30 14742 P 1349.39 -4.23843 7.83734 0
M  V30 14743 O 1349.17 -4.19407 9.29784 0
M  V30 14744 O 1348.6 -5.24426 7.09156 0
M  V30 14745 O 1349.14 -2.7935 7.20758 0
M  V30 14746 C 1350.08 -1.7299 7.50419 0
M  V30 14747 C 1349.35 -0.406376 7.57911 0
M  V30 14748 O 1349.14 0.0897726 6.21935 0
M  V30 14749 C 1347.95 -0.447224 8.1878 0
M  V30 14750 O 1347.56 0.825065 8.71101 0
M  V30 14751 C 1347.07 -0.783801 6.99623 0
M  V30 14752 C 1347.78 -0.0619192 5.85967 0
M  V30 14753 N 1347.73 -0.7859 4.56281 0
M  V30 14754 H 1350.57 -1.93423 8.4679 0
M  V30 14755 H 1350.84 -1.68181 6.71046 0
M  V30 14756 H 1349.98 0.289041 8.15388 0
M  V30 14757 P 1346.01 1.17771 8.83182 0
M  V30 14758 O 1345.79 2.07206 9.98732 0
M  V30 14759 O 1345.22 -0.0743816 8.81969 0
M  V30 14760 O 1345.76 1.97652 7.47304 0
M  V30 14761 C 1346.7 3.01055 7.08599 0
M  V30 14762 C 1345.97 4.12613 6.37049 0
M  V30 14763 O 1345.76 3.72827 4.97879 0
M  V30 14764 C 1344.57 4.45719 6.88164 0
M  V30 14765 O 1344.18 5.7877 6.5624 0
M  V30 14766 C 1343.69 3.47768 6.11991 0
M  V30 14767 C 1344.4 3.39356 4.77615 0
M  V30 14768 N 1344.35 2.04571 4.15244 0
M  V30 14769 C 1344.2 1.98587 2.78314 0
M  V30 14770 O 1344.11 2.98134 2.08835 0
M  V30 14771 N 1344.16 0.714467 2.24925 0
M  V30 14772 C 1344.25 -0.470001 2.94169 0
M  V30 14773 O 1344.2 -1.55587 2.35195 0
M  V30 14774 C 1344.4 -0.312541 4.36783 0
M  V30 14775 C 1344.51 -1.57711 5.16352 0
M  V30 14776 C 1344.45 0.914512 4.92583 0
M  V30 14777 H 1347.19 3.41169 7.98575 0
M  V30 14778 H 1347.46 2.58295 6.41556 0
M  V30 14779 H 1346.6 5.02657 6.42673 0
M  V30 14780 H 1343.94 4.11637 4.08885 0
M  V30 14781 H 1343.66 2.49626 6.61679 0
M  V30 14782 H 1342.67 3.86566 6.00778 0
M  V30 14783 H 1344.5 4.29943 7.96918 0
M  V30 14784 H 1344.57 1.00937 6.00374 0
M  V30 14785 H 1343.54 -1.80153 5.63503 0
M  V30 14786 H 1345.28 -1.4566 5.94104 0
M  V30 14787 H 1344.79 -2.40664 4.49645 0
M  V30 14788 H 1344.06 0.647622 1.25697 0
M  V30 14789 P 1342.63 6.144 6.45285 0
M  V30 14790 O 1342.41 7.54673 6.86199 0
M  V30 14791 O 1341.84 5.12391 7.179 0
M  V30 14792 O 1342.38 5.99158 4.88404 0
M  V30 14793 C 1343.32 6.60234 3.96415 0
M  V30 14794 C 1342.59 7.08259 2.72856 0
M  V30 14795 O 1342.38 5.9427 1.83651 0
M  V30 14796 C 1341.19 7.64886 2.9555 0
M  V30 14797 O 1340.8 8.53963 1.90717 0
M  V30 14798 C 1340.31 6.4116 2.90739 0
M  V30 14799 C 1341.02 5.55375 1.86963 0
M  V30 14800 N 1340.97 4.09664 2.15742 0
M  V30 14801 H 1343.81 7.45574 4.45629 0
M  V30 14802 H 1344.08 5.86232 3.67314 0
M  V30 14803 H 1343.22 7.84412 2.24479 0
M  V30 14804 P 1339.25 8.7635 1.60911 0
M  V30 14805 O 1339.03 10.1388 1.11561 0
M  V30 14806 O 1338.46 8.36503 2.79617 0
M  V30 14807 O 1339 7.71806 0.42951 0
M  V30 14808 C 1339.94 7.67148 -0.673689 0
M  V30 14809 C 1339.21 7.33374 -1.95559 0
M  V30 14810 O 1339 5.88721 -2.00726 0
M  V30 14811 C 1337.81 7.92526 -2.10483 0
M  V30 14812 O 1337.42 8.02971 -3.47653 0
M  V30 14813 C 1336.93 6.89602 -1.41652 0
M  V30 14814 C 1337.64 5.59201 -1.75185 0
M  V30 14815 N 1337.59 4.58301 -0.657969 0
M  V30 14816 H 1340.43 8.65116 -0.777161 0
M  V30 14817 H 1340.7 6.9022 -0.46725 0
M  V30 14818 H 1339.84 7.66548 -2.79458 0
M  V30 14819 H 1337.18 5.16165 -2.65183 0
M  V30 14820 H 1336.9 7.06433 -0.329384 0
M  V30 14821 H 1335.91 6.90926 -1.82021 0
M  V30 14822 H 1337.74 8.90873 -1.62657 0
M  V30 14823 P 1335.87 8.03563 -3.84925 0
M  V30 14824 O 1335.65 8.85821 -5.0569 0
M  V30 14825 O 1335.08 8.41101 -2.65469 0
M  V30 14826 O 1335.62 6.4965 -4.18908 0
M  V30 14827 C 1336.56 5.81037 -5.05421 0
M  V30 14828 C 1335.83 4.78366 -5.89277 0
M  V30 14829 O 1335.62 3.58302 -5.08433 0
M  V30 14830 C 1334.43 5.17448 -6.36119 0
M  V30 14831 O 1334.04 4.45271 -7.53232 0
M  V30 14832 C 1333.55 4.74639 -5.19936 0
M  V30 14833 C 1334.26 3.49432 -4.70418 0
M  V30 14834 N 1334.21 3.32099 -3.22613 0
M  V30 14835 H 1337.05 6.54213 -5.71376 0
M  V30 14836 H 1337.32 5.30936 -4.43503 0
M  V30 14837 H 1336.46 4.55889 -6.76652 0
M  V30 14838 H 1333.8 2.61715 -5.17932 0
M  V30 14839 H 1333.52 5.52155 -4.41878 0
M  V30 14840 H 1332.53 4.51981 -5.53374 0
M  V30 14841 H 1334.36 6.25124 -6.55234 0
M  V30 14842 P 1332.49 4.23843 -7.83734 0
M  V30 14843 O 1332.27 4.19407 -9.29784 0
M  V30 14844 O 1331.7 5.24426 -7.09156 0
M  V30 14845 O 1332.24 2.7935 -7.20758 0
M  V30 14846 C 1333.18 1.7299 -7.50419 0
M  V30 14847 C 1332.45 0.406376 -7.57911 0
M  V30 14848 O 1332.24 -0.0897726 -6.21935 0
M  V30 14849 C 1331.05 0.447224 -8.1878 0
M  V30 14850 O 1330.66 -0.825065 -8.71101 0
M  V30 14851 C 1330.17 0.783801 -6.99623 0
M  V30 14852 C 1330.88 0.0619192 -5.85967 0
M  V30 14853 N 1330.83 0.7859 -4.56281 0
M  V30 14854 C 1330.91 2.14308 -4.31736 0
M  V30 14855 N 1330.83 2.46106 -3.05116 0
M  V30 14856 C 1330.69 1.23422 -2.4014 0
M  V30 14857 C 1330.56 0.938381 -1.02409 0
M  V30 14858 N 1330.44 -0.444647 -0.805413 0
M  V30 14859 C 1330.44 -1.40829 -1.79435 0
M  V30 14860 N 1330.31 -2.67213 -1.38558 0
M  V30 14861 N 1330.57 -1.12947 -3.09005 0
M  V30 14862 C 1330.69 0.204887 -3.32369 0
M  V30 14863 H 1333.67 1.93423 -8.4679 0
M  V30 14864 H 1333.94 1.68181 -6.71046 0
M  V30 14865 H 1333.08 -0.289041 -8.15388 0
M  V30 14866 P 1329.11 -1.17771 -8.83182 0
M  V30 14867 O 1328.89 -2.07206 -9.98732 0
M  V30 14868 O 1328.32 0.0743816 -8.81969 0
M  V30 14869 O 1328.86 -1.97652 -7.47304 0
M  V30 14870 C 1329.8 -3.01133 -7.08783 0
M  V30 14871 C 1329.07 -4.12613 -6.37049 0
M  V30 14872 O 1328.86 -3.72827 -4.97879 0
M  V30 14873 C 1327.67 -4.45085 -6.88694 0
M  V30 14874 O 1327.28 -5.7877 -6.5624 0
M  V30 14875 C 1326.79 -3.47817 -6.12078 0
M  V30 14876 C 1327.5 -3.39414 -4.77697 0
M  V30 14877 N 1327.45 -2.04615 -4.15333 0
M  V30 14878 H 1330.29 -3.41248 -7.98759 0
M  V30 14879 H 1330.56 -2.5837 -6.41742 0
M  V30 14880 H 1329.7 -5.02657 -6.42673 0
M  V30 14881 P 1325.73 -6.144 -6.45285 0
M  V30 14882 O 1325.51 -7.54673 -6.86199 0
M  V30 14883 O 1324.94 -5.12391 -7.179 0
M  V30 14884 O 1325.48 -5.99158 -4.88404 0
M  V30 14885 C 1326.42 -6.60234 -3.96415 0
M  V30 14886 C 1325.69 -7.08259 -2.72856 0
M  V30 14887 O 1325.48 -5.9427 -1.83651 0
M  V30 14888 C 1324.29 -7.64886 -2.9555 0
M  V30 14889 O 1323.9 -8.53963 -1.90717 0
M  V30 14890 C 1323.41 -6.4116 -2.90739 0
M  V30 14891 C 1324.12 -5.55375 -1.86963 0
M  V30 14892 N 1324.07 -4.09664 -2.15742 0
M  V30 14893 H 1326.91 -7.45574 -4.45629 0
M  V30 14894 H 1327.18 -5.86232 -3.67314 0
M  V30 14895 H 1326.32 -7.84412 -2.24479 0
M  V30 14896 P 1322.35 -8.7635 -1.60911 0
M  V30 14897 O 1322.13 -10.1388 -1.11561 0
M  V30 14898 O 1321.56 -8.36503 -2.79617 0
M  V30 14899 O 1322.1 -7.71806 -0.42951 0
M  V30 14900 C 1323.04 -7.67148 0.673689 0
M  V30 14901 C 1322.31 -7.33374 1.95559 0
M  V30 14902 O 1322.1 -5.88721 2.00726 0
M  V30 14903 C 1320.91 -7.92526 2.10483 0
M  V30 14904 O 1320.52 -8.02971 3.47653 0
M  V30 14905 C 1320.03 -6.89602 1.41652 0
M  V30 14906 C 1320.74 -5.59201 1.75185 0
M  V30 14907 N 1320.69 -4.58235 0.662552 0
M  V30 14908 H 1323.53 -8.65116 0.777161 0
M  V30 14909 H 1323.8 -6.90173 0.474152 0
M  V30 14910 H 1322.94 -7.66548 2.79458 0
M  V30 14911 P 1318.97 -8.03563 3.84925 0
M  V30 14912 O 1318.75 -8.85821 5.0569 0
M  V30 14913 O 1318.18 -8.41101 2.65469 0
M  V30 14914 O 1318.72 -6.4965 4.18908 0
M  V30 14915 C 1319.66 -5.81037 5.05421 0
M  V30 14916 C 1318.93 -4.78366 5.89277 0
M  V30 14917 O 1318.72 -3.58302 5.08433 0
M  V30 14918 C 1317.53 -5.17448 6.36119 0
M  V30 14919 O 1317.14 -4.45271 7.53232 0
M  V30 14920 C 1316.65 -4.74639 5.19936 0
M  V30 14921 C 1317.36 -3.49432 4.70418 0
M  V30 14922 N 1317.31 -3.32099 3.22613 0
M  V30 14923 C 1317.39 -4.28245 2.25527 0
M  V30 14924 N 1317.32 -3.80823 1.04874 0
M  V30 14925 C 1317.17 -2.44571 1.23535 0
M  V30 14926 C 1317.04 -1.37068 0.330675 0
M  V30 14927 N 1317.03 -1.51472 -0.990824 0
M  V30 14928 N 1316.92 -0.138614 0.848756 0
M  V30 14929 C 1316.93 0.00675923 2.16999 0
M  V30 14930 N 1317.05 -0.904372 3.11122 0
M  V30 14931 C 1317.17 -2.12707 2.56212 0
M  V30 14932 H 1320.15 -6.54213 5.71376 0
M  V30 14933 H 1320.42 -5.30936 4.43503 0
M  V30 14934 H 1319.56 -4.55889 6.76652 0
M  V30 14935 H 1316.9 -2.61715 5.17932 0
M  V30 14936 H 1316.62 -5.52155 4.41878 0
M  V30 14937 H 1315.63 -4.51981 5.53374 0
M  V30 14938 H 1317.46 -6.25124 6.55234 0
M  V30 14939 H 1317.5 -5.34372 2.47488 0
M  V30 14940 H 1317.12 -2.45153 -1.4078 0
M  V30 14941 H 1316.93 -0.688422 -1.59911 0
M  V30 14942 H 1316.83 1.02584 2.52346 0
M  V30 14943 P 1315.59 -4.23843 7.83734 0
M  V30 14944 O 1315.37 -4.19407 9.29784 0
M  V30 14945 O 1314.8 -5.24426 7.09156 0
M  V30 14946 O 1315.34 -2.7935 7.20758 0
M  V30 14947 C 1316.28 -1.7299 7.50419 0
M  V30 14948 C 1315.55 -0.406376 7.57911 0
M  V30 14949 O 1315.34 0.0897726 6.21935 0
M  V30 14950 C 1314.15 -0.447224 8.1878 0
M  V30 14951 O 1313.76 0.825065 8.71101 0
M  V30 14952 C 1313.27 -0.783801 6.99623 0
M  V30 14953 C 1313.98 -0.0619192 5.85967 0
M  V30 14954 N 1313.93 -0.790462 4.56202 0
M  V30 14955 H 1316.77 -1.93423 8.4679 0
M  V30 14956 H 1317.04 -1.68852 6.70877 0
M  V30 14957 H 1316.18 0.289041 8.15388 0
M  V30 14958 H 1313.52 0.927006 5.72848 0
M  V30 14959 H 1313.24 -1.86973 6.82036 0
M  V30 14960 H 1312.25 -0.403953 7.13357 0
M  V30 14961 H 1314.08 -1.20599 8.97534 0
M  V30 14962 P 1312.21 1.17771 8.83182 0
M  V30 14963 O 1311.99 2.07206 9.98732 0
M  V30 14964 O 1311.42 -0.0743816 8.81969 0
M  V30 14965 O 1311.96 1.97652 7.47304 0
M  V30 14966 C 1312.9 3.01133 7.08783 0
M  V30 14967 C 1312.17 4.12613 6.37049 0
M  V30 14968 O 1311.96 3.72827 4.97879 0
M  V30 14969 C 1310.77 4.45085 6.88694 0
M  V30 14970 O 1310.38 5.7877 6.5624 0
M  V30 14971 C 1309.89 3.47817 6.12078 0
M  V30 14972 C 1310.6 3.39414 4.77697 0
M  V30 14973 N 1310.55 2.04615 4.15333 0
M  V30 14974 H 1313.39 3.41248 7.98759 0
M  V30 14975 H 1313.66 2.5837 6.41742 0
M  V30 14976 H 1312.8 5.02657 6.42673 0
M  V30 14977 P 1308.83 6.144 6.45285 0
M  V30 14978 O 1308.61 7.54673 6.86199 0
M  V30 14979 O 1308.04 5.12391 7.179 0
M  V30 14980 O 1308.58 5.99236 4.88467 0
M  V30 14981 C 1309.52 6.60234 3.96415 0
M  V30 14982 C 1308.79 7.08079 2.736 0
M  V30 14983 O 1308.58 5.94365 1.8368 0
M  V30 14984 C 1307.39 7.64886 2.9555 0
M  V30 14985 O 1307 8.5406 1.90739 0
M  V30 14986 C 1306.51 6.4116 2.90739 0
M  V30 14987 C 1307.22 5.55375 1.86963 0
M  V30 14988 N 1307.17 4.09664 2.15742 0
M  V30 14989 C 1307.02 3.22231 1.08477 0
M  V30 14990 O 1306.93 3.68951 -0.0600489 0
M  V30 14991 N 1306.97 1.76692 1.48799 0
M  V30 14992 C 1307.07 1.41695 2.57602 0
M  V30 14993 N 1307.02 0.107296 2.75791 0
M  V30 14994 C 1307.22 2.29178 3.69733 0
M  V30 14995 C 1307.27 3.62753 3.42653 0
M  V30 14996 H 1310.01 7.45488 4.45578 0
M  V30 14997 H 1310.28 5.86232 3.67314 0
M  V30 14998 H 1309.42 7.84508 2.24507 0
M  V30 14999 H 1306.76 5.73556 0.888715 0
M  V30 15000 H 1306.48 5.9096 3.88638 0
M  V30 15001 H 1305.49 6.66053 2.58894 0
M  V30 15002 H 1307.32 8.16339 3.92049 0
M  V30 15003 H 1307.4 4.33052 4.24913 0
M  V30 15004 H 1307.29 1.9103 4.71577 0
M  V30 15005 H 1306.91 -0.521221 1.95056 0
M  V30 15006 H 1307.1 -0.286429 3.70695 0
M  V30 15007 P 1305.45 8.7635 1.60911 0
M  V30 15008 O 1305.23 10.1388 1.11561 0
M  V30 15009 O 1304.66 8.36503 2.79617 0
M  V30 15010 O 1305.2 7.71806 0.42951 0
M  V30 15011 C 1306.14 7.67148 -0.673689 0
M  V30 15012 C 1305.41 7.33374 -1.95559 0
M  V30 15013 O 1305.2 5.88721 -2.00726 0
M  V30 15014 C 1304.01 7.92526 -2.10483 0
M  V30 15015 O 1303.62 8.02971 -3.47653 0
M  V30 15016 C 1303.13 6.89602 -1.41652 0
M  V30 15017 C 1303.84 5.59201 -1.75185 0
M  V30 15018 N 1303.79 4.58235 -0.662552 0
M  V30 15019 H 1306.63 8.65116 -0.777161 0
M  V30 15020 H 1306.9 6.90173 -0.474152 0
M  V30 15021 H 1306.04 7.66548 -2.79458 0
M  V30 15022 P 1302.07 8.03563 -3.84925 0
M  V30 15023 O 1301.85 8.85821 -5.0569 0
M  V30 15024 O 1301.28 8.41101 -2.65469 0
M  V30 15025 O 1301.82 6.4965 -4.18908 0
M  V30 15026 C 1302.76 5.81037 -5.05421 0
M  V30 15027 C 1302.03 4.78366 -5.89277 0
M  V30 15028 O 1301.82 3.58302 -5.08433 0
M  V30 15029 C 1300.63 5.17448 -6.36119 0
M  V30 15030 O 1300.24 4.45271 -7.53232 0
M  V30 15031 C 1299.75 4.74639 -5.19936 0
M  V30 15032 C 1300.46 3.49432 -4.70418 0
M  V30 15033 N 1300.41 3.31776 -3.22945 0
M  V30 15034 H 1303.25 6.54213 -5.71376 0
M  V30 15035 H 1303.52 5.30492 -4.44033 0
M  V30 15036 H 1302.66 4.55889 -6.76652 0
M  V30 15037 P 1298.69 4.23843 -7.83734 0
M  V30 15038 O 1298.47 4.19407 -9.29784 0
M  V30 15039 O 1297.9 5.24426 -7.09156 0
M  V30 15040 O 1298.44 2.7935 -7.20758 0
M  V30 15041 C 1299.38 1.7299 -7.50419 0
M  V30 15042 C 1298.65 0.406376 -7.57911 0
M  V30 15043 O 1298.44 -0.0897726 -6.21935 0
M  V30 15044 C 1297.25 0.447224 -8.1878 0
M  V30 15045 O 1296.86 -0.825065 -8.71101 0
M  V30 15046 C 1296.37 0.783801 -6.99623 0
M  V30 15047 C 1297.08 0.0619192 -5.85967 0
M  V30 15048 N 1297.03 0.7859 -4.56281 0
M  V30 15049 H 1299.87 1.93423 -8.4679 0
M  V30 15050 H 1300.14 1.68181 -6.71046 0
M  V30 15051 H 1299.28 -0.289041 -8.15388 0
M  V30 15052 P 1295.31 -1.17771 -8.83182 0
M  V30 15053 O 1295.09 -2.07206 -9.98732 0
M  V30 15054 O 1294.52 0.0743816 -8.81969 0
M  V30 15055 O 1295.06 -1.97652 -7.47304 0
M  V30 15056 C 1296 -3.01133 -7.08783 0
M  V30 15057 C 1295.27 -4.12613 -6.37049 0
M  V30 15058 O 1295.06 -3.72827 -4.97879 0
M  V30 15059 C 1293.87 -4.45085 -6.88694 0
M  V30 15060 O 1293.48 -5.7877 -6.5624 0
M  V30 15061 C 1292.99 -3.47817 -6.12078 0
M  V30 15062 C 1293.7 -3.39414 -4.77697 0
M  V30 15063 N 1293.65 -2.04199 -4.15538 0
M  V30 15064 H 1296.49 -3.41248 -7.98759 0
M  V30 15065 H 1296.76 -2.57728 -6.42 0
M  V30 15066 H 1295.9 -5.02657 -6.42673 0
M  V30 15067 H 1293.24 -4.11708 -4.08956 0
M  V30 15068 H 1292.96 -2.49626 -6.61679 0
M  V30 15069 H 1291.97 -3.8662 -6.00862 0
M  V30 15070 H 1293.8 -4.29991 -7.97006 0
M  V30 15071 P 1291.93 -6.144 -6.45285 0
M  V30 15072 O 1291.71 -7.54673 -6.86199 0
M  V30 15073 O 1291.14 -5.12391 -7.179 0
M  V30 15074 O 1291.68 -5.99158 -4.88404 0
M  V30 15075 C 1292.62 -6.60234 -3.96415 0
M  V30 15076 C 1291.89 -7.08259 -2.72856 0
M  V30 15077 O 1291.68 -5.9427 -1.83651 0
M  V30 15078 C 1290.49 -7.64886 -2.9555 0
M  V30 15079 O 1290.1 -8.53963 -1.90717 0
M  V30 15080 C 1289.61 -6.4116 -2.90739 0
M  V30 15081 C 1290.32 -5.55375 -1.86963 0
M  V30 15082 N 1290.27 -4.09664 -2.15742 0
M  V30 15083 H 1293.11 -7.45574 -4.45629 0
M  V30 15084 H 1293.38 -5.86232 -3.67314 0
M  V30 15085 H 1292.52 -7.84412 -2.24479 0
M  V30 15086 P 1288.55 -8.7635 -1.60911 0
M  V30 15087 O 1288.33 -10.1388 -1.11561 0
M  V30 15088 O 1287.76 -8.36503 -2.79617 0
M  V30 15089 O 1288.3 -7.71806 -0.42951 0
M  V30 15090 C 1289.24 -7.67148 0.673689 0
M  V30 15091 C 1288.51 -7.33374 1.95559 0
M  V30 15092 O 1288.3 -5.88721 2.00726 0
M  V30 15093 C 1287.11 -7.92526 2.10483 0
M  V30 15094 O 1286.72 -8.02971 3.47653 0
M  V30 15095 C 1286.23 -6.89602 1.41652 0
M  V30 15096 C 1286.94 -5.59201 1.75185 0
M  V30 15097 N 1286.89 -4.58235 0.662552 0
M  V30 15098 H 1289.73 -8.65116 0.777161 0
M  V30 15099 H 1290 -6.90173 0.474152 0
M  V30 15100 H 1289.14 -7.66548 2.79458 0
M  V30 15101 P 1285.17 -8.03563 3.84925 0
M  V30 15102 O 1284.95 -8.85821 5.0569 0
M  V30 15103 O 1284.38 -8.41101 2.65469 0
M  V30 15104 O 1284.92 -6.4965 4.18908 0
M  V30 15105 C 1285.86 -5.81037 5.05421 0
M  V30 15106 C 1285.13 -4.78366 5.89277 0
M  V30 15107 O 1284.92 -3.58302 5.08433 0
M  V30 15108 C 1283.73 -5.17448 6.36119 0
M  V30 15109 O 1283.34 -4.45271 7.53232 0
M  V30 15110 C 1282.85 -4.74639 5.19936 0
M  V30 15111 C 1283.56 -3.49432 4.70418 0
M  V30 15112 N 1283.51 -3.31776 3.22945 0
M  V30 15113 H 1286.35 -6.54213 5.71376 0
M  V30 15114 H 1286.62 -5.30492 4.44033 0
M  V30 15115 H 1285.76 -4.55889 6.76652 0
M  V30 15116 P 1281.79 -4.23843 7.83734 0
M  V30 15117 O 1281.57 -4.19407 9.29784 0
M  V30 15118 O 1281 -5.24426 7.09156 0
M  V30 15119 O 1281.54 -2.7935 7.20758 0
M  V30 15120 C 1282.48 -1.7299 7.50419 0
M  V30 15121 C 1281.75 -0.406376 7.57911 0
M  V30 15122 O 1281.54 0.0897726 6.21935 0
M  V30 15123 C 1280.35 -0.447224 8.1878 0
M  V30 15124 O 1279.96 0.825065 8.71101 0
M  V30 15125 C 1279.47 -0.783801 6.99623 0
M  V30 15126 C 1280.18 -0.0619192 5.85967 0
M  V30 15127 N 1280.13 -0.790462 4.56202 0
M  V30 15128 H 1282.97 -1.93423 8.4679 0
M  V30 15129 H 1283.24 -1.68852 6.70877 0
M  V30 15130 H 1282.38 0.289041 8.15388 0
M  V30 15131 H 1279.72 0.927006 5.72848 0
M  V30 15132 H 1279.44 -1.86973 6.82036 0
M  V30 15133 H 1278.45 -0.403953 7.13357 0
M  V30 15134 H 1280.28 -1.20599 8.97534 0
M  V30 15135 P 1278.41 1.17771 8.83182 0
M  V30 15136 O 1278.19 2.07206 9.98732 0
M  V30 15137 O 1277.62 -0.0743816 8.81969 0
M  V30 15138 O 1278.16 1.97652 7.47304 0
M  V30 15139 C 1279.1 3.01133 7.08783 0
M  V30 15140 C 1278.37 4.12613 6.37049 0
M  V30 15141 O 1278.16 3.72827 4.97879 0
M  V30 15142 C 1276.97 4.45085 6.88694 0
M  V30 15143 O 1276.58 5.7877 6.5624 0
M  V30 15144 C 1276.09 3.47817 6.12078 0
M  V30 15145 C 1276.8 3.39414 4.77697 0
M  V30 15146 N 1276.75 2.04615 4.15333 0
M  V30 15147 H 1279.59 3.41248 7.98759 0
M  V30 15148 H 1279.86 2.5837 6.41742 0
M  V30 15149 H 1279 5.02657 6.42673 0
M  V30 15150 P 1275.03 6.144 6.45285 0
M  V30 15151 O 1274.81 7.54673 6.86199 0
M  V30 15152 O 1274.24 5.12391 7.179 0
M  V30 15153 O 1274.78 5.99158 4.88404 0
M  V30 15154 C 1275.72 6.60234 3.96415 0
M  V30 15155 C 1274.99 7.08259 2.72856 0
M  V30 15156 O 1274.78 5.9427 1.83651 0
M  V30 15157 C 1273.59 7.64886 2.9555 0
M  V30 15158 O 1273.2 8.53963 1.90717 0
M  V30 15159 C 1272.71 6.4116 2.90739 0
M  V30 15160 C 1273.42 5.55375 1.86963 0
M  V30 15161 N 1273.37 4.09448 2.16152 0
M  V30 15162 H 1276.21 7.45574 4.45629 0
M  V30 15163 H 1276.48 5.85864 3.679 0
M  V30 15164 H 1275.62 7.84412 2.24479 0
M  V30 15165 H 1272.96 5.73457 0.888562 0
M  V30 15166 H 1272.68 5.90877 3.88583 0
M  V30 15167 H 1271.69 6.6596 2.58858 0
M  V30 15168 H 1273.52 8.16339 3.92049 0
M  V30 15169 P 1271.65 8.7635 1.60911 0
M  V30 15170 O 1271.43 10.1388 1.11561 0
M  V30 15171 O 1270.86 8.36503 2.79617 0
M  V30 15172 O 1271.4 7.71906 0.429565 0
M  V30 15173 C 1272.34 7.67148 -0.673689 0
M  V30 15174 C 1271.61 7.33666 -1.94851 0
M  V30 15175 O 1271.4 5.88816 -2.00759 0
M  V30 15176 C 1270.21 7.92526 -2.10483 0
M  V30 15177 O 1269.82 8.03063 -3.47693 0
M  V30 15178 C 1269.33 6.89602 -1.41652 0
M  V30 15179 C 1270.04 5.59201 -1.75185 0
M  V30 15180 N 1269.99 4.58235 -0.662552 0
M  V30 15181 C 1269.84 3.24451 -1.01643 0
M  V30 15182 O 1269.75 2.94958 -2.21722 0
M  V30 15183 N 1269.79 2.30408 0.165238 0
M  V30 15184 C 1269.89 2.66048 1.25118 0
M  V30 15185 N 1269.84 1.70787 2.16813 0
M  V30 15186 C 1270.04 4.02732 1.64413 0
M  V30 15187 C 1270.09 4.9488 0.63991 0
M  V30 15188 H 1272.83 8.65017 -0.777072 0
M  V30 15189 H 1273.1 6.90173 -0.474152 0
M  V30 15190 H 1272.24 7.66642 -2.79492 0
M  V30 15191 H 1269.58 5.16254 -2.65229 0
M  V30 15192 H 1269.3 7.06532 -0.329431 0
M  V30 15193 H 1268.31 6.91023 -1.82047 0
M  V30 15194 H 1270.14 8.90873 -1.62657 0
M  V30 15195 H 1270.22 6.00104 0.892197 0
M  V30 15196 H 1270.11 4.31733 2.69229 0
M  V30 15197 H 1269.73 0.724835 1.8844 0
M  V30 15198 H 1269.92 1.94716 3.16734 0
M  V30 15199 P 1268.27 8.03563 -3.84925 0
M  V30 15200 O 1268.05 8.85821 -5.0569 0
M  V30 15201 O 1267.48 8.41101 -2.65469 0
M  V30 15202 O 1268.02 6.4965 -4.18908 0
M  V30 15203 C 1268.96 5.81037 -5.05421 0
M  V30 15204 C 1268.23 4.78366 -5.89277 0
M  V30 15205 O 1268.02 3.58302 -5.08433 0
M  V30 15206 C 1266.83 5.17448 -6.36119 0
M  V30 15207 O 1266.44 4.45271 -7.53232 0
M  V30 15208 C 1265.95 4.74639 -5.19936 0
M  V30 15209 C 1266.66 3.49432 -4.70418 0
M  V30 15210 N 1266.61 3.31776 -3.22945 0
M  V30 15211 H 1269.45 6.54213 -5.71376 0
M  V30 15212 H 1269.72 5.30492 -4.44033 0
M  V30 15213 H 1268.86 4.55889 -6.76652 0
M  V30 15214 P 1264.89 4.23843 -7.83734 0
M  V30 15215 O 1264.67 4.19407 -9.29784 0
M  V30 15216 O 1264.1 5.24426 -7.09156 0
M  V30 15217 O 1264.64 2.7935 -7.20758 0
M  V30 15218 C 1265.58 1.7299 -7.50419 0
M  V30 15219 C 1264.85 0.406376 -7.57911 0
M  V30 15220 O 1264.64 -0.0897726 -6.21935 0
M  V30 15221 C 1263.45 0.447224 -8.1878 0
M  V30 15222 O 1263.06 -0.825065 -8.71101 0
M  V30 15223 C 1262.57 0.783801 -6.99623 0
M  V30 15224 C 1263.28 0.0619192 -5.85967 0
M  V30 15225 N 1263.23 0.7859 -4.56281 0
M  V30 15226 H 1266.07 1.93423 -8.4679 0
M  V30 15227 H 1266.34 1.68181 -6.71046 0
M  V30 15228 H 1265.48 -0.289041 -8.15388 0
M  V30 15229 P 1261.51 -1.17771 -8.83182 0
M  V30 15230 O 1261.29 -2.07206 -9.98732 0
M  V30 15231 O 1260.72 0.0743816 -8.81969 0
M  V30 15232 O 1261.26 -1.97652 -7.47304 0
M  V30 15233 C 1262.2 -3.01133 -7.08783 0
M  V30 15234 C 1261.47 -4.12613 -6.37049 0
M  V30 15235 O 1261.26 -3.72827 -4.97879 0
M  V30 15236 C 1260.07 -4.45085 -6.88694 0
M  V30 15237 O 1259.68 -5.7877 -6.5624 0
M  V30 15238 C 1259.19 -3.47817 -6.12078 0
M  V30 15239 C 1259.9 -3.39414 -4.77697 0
M  V30 15240 N 1259.85 -2.04615 -4.15333 0
M  V30 15241 H 1262.69 -3.41248 -7.98759 0
M  V30 15242 H 1262.96 -2.5837 -6.41742 0
M  V30 15243 H 1262.1 -5.02657 -6.42673 0
M  V30 15244 P 1258.13 -6.144 -6.45285 0
M  V30 15245 O 1257.91 -7.54673 -6.86199 0
M  V30 15246 O 1257.34 -5.12391 -7.179 0
M  V30 15247 O 1257.88 -5.99158 -4.88404 0
M  V30 15248 C 1258.82 -6.60234 -3.96415 0
M  V30 15249 C 1258.09 -7.08259 -2.72856 0
M  V30 15250 O 1257.88 -5.9427 -1.83651 0
M  V30 15251 C 1256.69 -7.64886 -2.9555 0
M  V30 15252 O 1256.3 -8.53963 -1.90717 0
M  V30 15253 C 1255.81 -6.4116 -2.90739 0
M  V30 15254 C 1256.52 -5.55375 -1.86963 0
M  V30 15255 N 1256.47 -4.09664 -2.15742 0
M  V30 15256 H 1259.31 -7.45574 -4.45629 0
M  V30 15257 H 1259.58 -5.86232 -3.67314 0
M  V30 15258 H 1258.72 -7.84412 -2.24479 0
M  V30 15259 P 1254.75 -8.7635 -1.60911 0
M  V30 15260 O 1254.53 -10.1388 -1.11561 0
M  V30 15261 O 1253.96 -8.36503 -2.79617 0
M  V30 15262 O 1254.5 -7.71806 -0.42951 0
M  V30 15263 C 1255.44 -7.67148 0.673689 0
M  V30 15264 C 1254.71 -7.33374 1.95559 0
M  V30 15265 O 1254.5 -5.88721 2.00726 0
M  V30 15266 C 1253.31 -7.92526 2.10483 0
M  V30 15267 O 1252.92 -8.02971 3.47653 0
M  V30 15268 C 1252.43 -6.89602 1.41652 0
M  V30 15269 C 1253.14 -5.59201 1.75185 0
M  V30 15270 N 1253.09 -4.58235 0.662552 0
M  V30 15271 H 1255.93 -8.65116 0.777161 0
M  V30 15272 H 1256.2 -6.90173 0.474152 0
M  V30 15273 H 1255.34 -7.66548 2.79458 0
M  V30 15274 P 1251.37 -8.03563 3.84925 0
M  V30 15275 O 1251.15 -8.85821 5.0569 0
M  V30 15276 O 1250.58 -8.41101 2.65469 0
M  V30 15277 O 1251.12 -6.4965 4.18908 0
M  V30 15278 C 1252.06 -5.80886 5.05289 0
M  V30 15279 C 1251.33 -4.78366 5.89277 0
M  V30 15280 O 1251.12 -3.58302 5.08433 0
M  V30 15281 C 1249.93 -5.16748 6.36559 0
M  V30 15282 O 1249.54 -4.45271 7.53232 0
M  V30 15283 C 1249.05 -4.74572 5.19863 0
M  V30 15284 C 1249.76 -3.49373 4.70338 0
M  V30 15285 N 1249.71 -3.31704 3.22876 0
M  V30 15286 C 1249.56 -2.03326 2.74871 0
M  V30 15287 O 1249.47 -1.06486 3.48076 0
M  V30 15288 N 1249.52 -1.91838 1.37456 0
M  V30 15289 C 1249.61 -2.94295 0.462035 0
M  V30 15290 C 1249.76 -4.25064 1.05249 0
M  V30 15291 C 1249.81 -4.40214 2.39192 0
M  V30 15292 H 1252.55 -6.54063 5.71245 0
M  V30 15293 H 1252.82 -5.30339 4.43905 0
M  V30 15294 H 1251.96 -4.55889 6.76652 0
M  V30 15295 H 1249.3 -2.6167 5.17842 0
M  V30 15296 H 1249.02 -5.52155 4.41878 0
M  V30 15297 H 1248.03 -4.51918 5.53297 0
M  V30 15298 H 1249.86 -6.25055 6.55162 0
M  V30 15299 H 1249.93 -5.39798 2.81523 0
M  V30 15300 P 1247.99 -4.23843 7.83734 0
M  V30 15301 O 1247.77 -4.19407 9.29784 0
M  V30 15302 O 1247.2 -5.24426 7.09156 0
M  V30 15303 O 1247.74 -2.7935 7.20758 0
M  V30 15304 C 1248.68 -1.7299 7.50419 0
M  V30 15305 C 1247.95 -0.406376 7.57911 0
M  V30 15306 O 1247.74 0.0897726 6.21935 0
M  V30 15307 C 1246.55 -0.447224 8.1878 0
M  V30 15308 O 1246.16 0.825065 8.71101 0
M  V30 15309 C 1245.67 -0.783801 6.99623 0
M  V30 15310 C 1246.38 -0.0619192 5.85967 0
M  V30 15311 N 1246.33 -0.790462 4.56202 0
M  V30 15312 H 1249.17 -1.93423 8.4679 0
M  V30 15313 H 1249.44 -1.68852 6.70877 0
M  V30 15314 H 1248.58 0.289041 8.15388 0
M  V30 15315 H 1245.92 0.927006 5.72848 0
M  V30 15316 H 1245.64 -1.86973 6.82036 0
M  V30 15317 H 1244.65 -0.403953 7.13357 0
M  V30 15318 H 1246.48 -1.20599 8.97534 0
M  V30 15319 P 1244.61 1.17771 8.83182 0
M  V30 15320 O 1244.39 2.07206 9.98732 0
M  V30 15321 O 1243.82 -0.0743816 8.81969 0
M  V30 15322 O 1244.36 1.97652 7.47304 0
M  V30 15323 C 1245.3 3.01133 7.08783 0
M  V30 15324 C 1244.57 4.12613 6.37049 0
M  V30 15325 O 1244.36 3.72827 4.97879 0
M  V30 15326 C 1243.17 4.45085 6.88694 0
M  V30 15327 O 1242.78 5.7877 6.5624 0
M  V30 15328 C 1242.29 3.47817 6.12078 0
M  V30 15329 C 1243 3.39414 4.77697 0
M  V30 15330 N 1242.95 2.04615 4.15333 0
M  V30 15331 H 1245.79 3.41248 7.98759 0
M  V30 15332 H 1246.06 2.5837 6.41742 0
M  V30 15333 H 1245.2 5.02657 6.42673 0
M  V30 15334 P 1241.23 6.144 6.45285 0
M  V30 15335 O 1241.01 7.54673 6.86199 0
M  V30 15336 O 1240.44 5.12391 7.179 0
M  V30 15337 O 1240.98 5.99158 4.88404 0
M  V30 15338 C 1241.92 6.60234 3.96415 0
M  V30 15339 C 1241.19 7.08259 2.72856 0
M  V30 15340 O 1240.98 5.9427 1.83651 0
M  V30 15341 C 1239.79 7.64886 2.9555 0
M  V30 15342 O 1239.4 8.53963 1.90717 0
M  V30 15343 C 1238.91 6.4116 2.90739 0
M  V30 15344 C 1239.62 5.55375 1.86963 0
M  V30 15345 N 1239.57 4.09448 2.16152 0
M  V30 15346 H 1242.41 7.45574 4.45629 0
M  V30 15347 H 1242.68 5.85864 3.679 0
M  V30 15348 H 1241.82 7.84412 2.24479 0
M  V30 15349 H 1239.16 5.73457 0.888562 0
M  V30 15350 H 1238.88 5.90877 3.88583 0
M  V30 15351 H 1237.89 6.6596 2.58858 0
M  V30 15352 H 1239.72 8.16339 3.92049 0
M  V30 15353 P 1237.85 8.7635 1.60911 0
M  V30 15354 O 1237.63 10.1388 1.11561 0
M  V30 15355 O 1237.06 8.36503 2.79617 0
M  V30 15356 O 1237.6 7.71806 0.42951 0
M  V30 15357 C 1238.54 7.67148 -0.673689 0
M  V30 15358 C 1237.81 7.33374 -1.95559 0
M  V30 15359 O 1237.6 5.88721 -2.00726 0
M  V30 15360 C 1236.41 7.92526 -2.10483 0
M  V30 15361 O 1236.02 8.02971 -3.47653 0
M  V30 15362 C 1235.53 6.89602 -1.41652 0
M  V30 15363 C 1236.24 5.59201 -1.75185 0
M  V30 15364 N 1236.19 4.58301 -0.657969 0
M  V30 15365 H 1239.03 8.65116 -0.777161 0
M  V30 15366 H 1239.3 6.9022 -0.46725 0
M  V30 15367 H 1238.44 7.66548 -2.79458 0
M  V30 15368 H 1235.78 5.16165 -2.65183 0
M  V30 15369 H 1235.5 7.06433 -0.329384 0
M  V30 15370 H 1234.51 6.90926 -1.82021 0
M  V30 15371 H 1236.34 8.90873 -1.62657 0
M  V30 15372 P 1234.47 8.03563 -3.84925 0
M  V30 15373 O 1234.25 8.85821 -5.0569 0
M  V30 15374 O 1233.68 8.41101 -2.65469 0
M  V30 15375 O 1234.22 6.4965 -4.18908 0
M  V30 15376 C 1235.16 5.81037 -5.05421 0
M  V30 15377 C 1234.43 4.78366 -5.89277 0
M  V30 15378 O 1234.22 3.58302 -5.08433 0
M  V30 15379 C 1233.03 5.17448 -6.36119 0
M  V30 15380 O 1232.64 4.45271 -7.53232 0
M  V30 15381 C 1232.15 4.74639 -5.19936 0
M  V30 15382 C 1232.86 3.49432 -4.70418 0
M  V30 15383 N 1232.81 3.32099 -3.22613 0
M  V30 15384 H 1235.65 6.54213 -5.71376 0
M  V30 15385 H 1235.92 5.30936 -4.43503 0
M  V30 15386 H 1235.06 4.55889 -6.76652 0
M  V30 15387 H 1232.4 2.61715 -5.17932 0
M  V30 15388 H 1232.12 5.52155 -4.41878 0
M  V30 15389 H 1231.13 4.51981 -5.53374 0
M  V30 15390 H 1232.96 6.25124 -6.55234 0
M  V30 15391 P 1231.09 4.23843 -7.83734 0
M  V30 15392 O 1230.87 4.19407 -9.29784 0
M  V30 15393 O 1230.3 5.24426 -7.09156 0
M  V30 15394 O 1230.84 2.7935 -7.20758 0
M  V30 15395 C 1231.78 1.7299 -7.50419 0
M  V30 15396 C 1231.05 0.406376 -7.57911 0
M  V30 15397 O 1230.84 -0.0897726 -6.21935 0
M  V30 15398 C 1229.65 0.447224 -8.1878 0
M  V30 15399 O 1229.26 -0.825065 -8.71101 0
M  V30 15400 C 1228.77 0.783801 -6.99623 0
M  V30 15401 C 1229.48 0.0619192 -5.85967 0
M  V30 15402 N 1229.43 0.7859 -4.56281 0
M  V30 15403 H 1232.27 1.93423 -8.4679 0
M  V30 15404 H 1232.54 1.68181 -6.71046 0
M  V30 15405 H 1231.68 -0.289041 -8.15388 0
M  V30 15406 P 1227.71 -1.17771 -8.83182 0
M  V30 15407 O 1227.49 -2.07206 -9.98732 0
M  V30 15408 O 1226.92 0.0743816 -8.81969 0
M  V30 15409 O 1227.46 -1.97652 -7.47304 0
M  V30 15410 C 1228.4 -3.01055 -7.08599 0
M  V30 15411 C 1227.67 -4.12613 -6.37049 0
M  V30 15412 O 1227.46 -3.72827 -4.97879 0
M  V30 15413 C 1226.27 -4.45719 -6.88164 0
M  V30 15414 O 1225.88 -5.7877 -6.5624 0
M  V30 15415 C 1225.39 -3.47768 -6.11991 0
M  V30 15416 C 1226.1 -3.39356 -4.77615 0
M  V30 15417 N 1226.05 -2.04571 -4.15244 0
M  V30 15418 C 1225.9 -1.98587 -2.78314 0
M  V30 15419 O 1225.81 -2.98134 -2.08835 0
M  V30 15420 N 1225.86 -0.714467 -2.24925 0
M  V30 15421 C 1225.95 0.470001 -2.94169 0
M  V30 15422 C 1226.1 0.312541 -4.36783 0
M  V30 15423 C 1226.15 -0.914512 -4.92583 0
M  V30 15424 H 1228.89 -3.41169 -7.98575 0
M  V30 15425 H 1229.16 -2.58295 -6.41556 0
M  V30 15426 H 1228.3 -5.02657 -6.42673 0
M  V30 15427 H 1225.64 -4.11637 -4.08885 0
M  V30 15428 H 1225.36 -2.49626 -6.61679 0
M  V30 15429 H 1224.37 -3.86566 -6.00778 0
M  V30 15430 H 1226.2 -4.29943 -7.96918 0
M  V30 15431 H 1226.27 -1.00937 -6.00374 0
M  V30 15432 P 1224.33 -6.144 -6.45285 0
M  V30 15433 O 1224.11 -7.54673 -6.86199 0
M  V30 15434 O 1223.54 -5.12391 -7.179 0
M  V30 15435 O 1224.08 -5.99158 -4.88404 0
M  V30 15436 C 1225.02 -6.60234 -3.96415 0
M  V30 15437 C 1224.29 -7.08259 -2.72856 0
M  V30 15438 O 1224.08 -5.9427 -1.83651 0
M  V30 15439 C 1222.89 -7.64886 -2.9555 0
M  V30 15440 O 1222.5 -8.53963 -1.90717 0
M  V30 15441 C 1222.01 -6.4116 -2.90739 0
M  V30 15442 C 1222.72 -5.55375 -1.86963 0
M  V30 15443 N 1222.67 -4.09664 -2.15742 0
M  V30 15444 H 1225.51 -7.45574 -4.45629 0
M  V30 15445 H 1225.78 -5.86232 -3.67314 0
M  V30 15446 H 1224.92 -7.84412 -2.24479 0
M  V30 15447 P 1220.95 -8.7635 -1.60911 0
M  V30 15448 O 1220.73 -10.1388 -1.11561 0
M  V30 15449 O 1220.16 -8.36503 -2.79617 0
M  V30 15450 O 1220.7 -7.71806 -0.42951 0
M  V30 15451 C 1221.64 -7.66948 0.673514 0
M  V30 15452 C 1220.91 -7.33374 1.95559 0
M  V30 15453 O 1220.7 -5.88721 2.00726 0
M  V30 15454 C 1219.51 -7.92218 2.1125 0
M  V30 15455 O 1219.12 -8.02971 3.47653 0
M  V30 15456 C 1218.63 -6.89504 1.41631 0
M  V30 15457 C 1219.34 -5.59106 1.75155 0
M  V30 15458 N 1219.29 -4.58136 0.662409 0
M  V30 15459 C 1219.14 -3.26059 1.02863 0
M  V30 15460 O 1219.05 -2.90743 2.19009 0
M  V30 15461 N 1219.1 -2.35995 -0.0155585 0
M  V30 15462 C 1219.19 -2.65248 -1.35603 0
M  V30 15463 C 1219.34 -4.05747 -1.64698 0
M  V30 15464 C 1219.39 -4.96734 -0.652411 0
M  V30 15465 H 1222.13 -8.64917 0.776982 0
M  V30 15466 H 1222.4 -6.89974 0.474015 0
M  V30 15467 H 1221.54 -7.66548 2.79458 0
M  V30 15468 H 1218.88 -5.16076 2.65138 0
M  V30 15469 H 1218.6 -7.06433 0.329384 0
M  V30 15470 H 1217.61 -6.90829 1.81996 0
M  V30 15471 H 1219.44 -8.90774 1.62639 0
M  V30 15472 H 1219.51 -6.02181 -0.895285 0
M  V30 15473 P 1217.57 -8.03563 3.84925 0
M  V30 15474 O 1217.35 -8.85821 5.0569 0
M  V30 15475 O 1216.78 -8.41101 2.65469 0
M  V30 15476 O 1217.32 -6.4965 4.18908 0
M  V30 15477 C 1218.26 -5.81037 5.05421 0
M  V30 15478 C 1217.53 -4.78366 5.89277 0
M  V30 15479 O 1217.32 -3.58302 5.08433 0
M  V30 15480 C 1216.13 -5.17448 6.36119 0
M  V30 15481 O 1215.74 -4.45271 7.53232 0
M  V30 15482 C 1215.25 -4.74639 5.19936 0
M  V30 15483 C 1215.96 -3.49432 4.70418 0
M  V30 15484 N 1215.91 -3.31776 3.22945 0
M  V30 15485 H 1218.75 -6.54213 5.71376 0
M  V30 15486 H 1219.02 -5.30492 4.44033 0
M  V30 15487 H 1218.16 -4.55889 6.76652 0
M  V30 15488 P 1214.19 -4.23843 7.83734 0
M  V30 15489 O 1213.97 -4.19407 9.29784 0
M  V30 15490 O 1213.4 -5.24426 7.09156 0
M  V30 15491 O 1213.94 -2.7935 7.20758 0
M  V30 15492 C 1214.88 -1.72945 7.50224 0
M  V30 15493 C 1214.15 -0.406376 7.57911 0
M  V30 15494 O 1213.94 0.0897726 6.21935 0
M  V30 15495 C 1212.75 -0.438983 8.18724 0
M  V30 15496 O 1212.36 0.825065 8.71101 0
M  V30 15497 C 1211.87 -0.783689 6.99524 0
M  V30 15498 C 1212.58 -0.0619086 5.85867 0
M  V30 15499 N 1212.53 -0.78573 4.56183 0
M  V30 15500 C 1212.38 -0.0292889 3.41887 0
M  V30 15501 O 1212.29 1.18445 3.4419 0
M  V30 15502 N 1212.34 -0.744061 2.23964 0
M  V30 15503 C 1212.43 -2.10932 2.10362 0
M  V30 15504 C 1212.58 -2.8202 3.34994 0
M  V30 15505 C 1212.63 -2.15547 4.52261 0
M  V30 15506 H 1215.37 -1.93379 8.46595 0
M  V30 15507 H 1215.64 -1.68132 6.70852 0
M  V30 15508 H 1214.78 0.289041 8.15388 0
M  V30 15509 H 1212.12 0.926847 5.72749 0
M  V30 15510 H 1211.84 -1.86973 6.82036 0
M  V30 15511 H 1210.85 -0.403896 7.13257 0
M  V30 15512 H 1212.68 -1.20585 8.97435 0
M  V30 15513 H 1212.75 -2.71231 5.45042 0
M  V30 15514 P 1210.81 1.17771 8.83182 0
M  V30 15515 O 1210.59 2.07206 9.98732 0
M  V30 15516 O 1210.02 -0.0743816 8.81969 0
M  V30 15517 O 1210.56 1.97652 7.47304 0
M  V30 15518 C 1211.5 3.01133 7.08783 0
M  V30 15519 C 1210.77 4.12613 6.37049 0
M  V30 15520 O 1210.56 3.72827 4.97879 0
M  V30 15521 C 1209.37 4.45085 6.88694 0
M  V30 15522 O 1208.98 5.7877 6.5624 0
M  V30 15523 C 1208.49 3.47817 6.12078 0
M  V30 15524 C 1209.2 3.39414 4.77697 0
M  V30 15525 N 1209.15 2.04615 4.15333 0
M  V30 15526 H 1211.99 3.41248 7.98759 0
M  V30 15527 H 1212.26 2.5837 6.41742 0
M  V30 15528 H 1211.4 5.02657 6.42673 0
M  V30 15529 P 1207.43 6.144 6.45285 0
M  V30 15530 O 1207.21 7.54673 6.86199 0
M  V30 15531 O 1206.64 5.12391 7.179 0
M  V30 15532 O 1207.18 5.99158 4.88404 0
M  V30 15533 C 1208.12 6.60234 3.96415 0
M  V30 15534 C 1207.39 7.08259 2.72856 0
M  V30 15535 O 1207.18 5.9427 1.83651 0
M  V30 15536 C 1205.99 7.64886 2.9555 0
M  V30 15537 O 1205.6 8.53963 1.90717 0
M  V30 15538 C 1205.11 6.4116 2.90739 0
M  V30 15539 C 1205.82 5.55375 1.86963 0
M  V30 15540 N 1205.77 4.09664 2.15742 0
M  V30 15541 H 1208.61 7.45574 4.45629 0
M  V30 15542 H 1208.88 5.86232 3.67314 0
M  V30 15543 H 1208.02 7.84412 2.24479 0
M  V30 15544 P 1204.05 8.7635 1.60911 0
M  V30 15545 O 1203.83 10.1388 1.11561 0
M  V30 15546 O 1203.26 8.36503 2.79617 0
M  V30 15547 O 1203.8 7.71806 0.42951 0
M  V30 15548 C 1204.74 7.67148 -0.673689 0
M  V30 15549 C 1204.01 7.33374 -1.95559 0
M  V30 15550 O 1203.8 5.88721 -2.00726 0
M  V30 15551 C 1202.61 7.92526 -2.10483 0
M  V30 15552 O 1202.22 8.02971 -3.47653 0
M  V30 15553 C 1201.73 6.89602 -1.41652 0
M  V30 15554 C 1202.44 5.59201 -1.75185 0
M  V30 15555 N 1202.39 4.58235 -0.662552 0
M  V30 15556 H 1205.23 8.65116 -0.777161 0
M  V30 15557 H 1205.5 6.90173 -0.474152 0
M  V30 15558 H 1204.64 7.66548 -2.79458 0
M  V30 15559 P 1200.67 8.03563 -3.84925 0
M  V30 15560 O 1200.45 8.85821 -5.0569 0
M  V30 15561 O 1199.88 8.41101 -2.65469 0
M  V30 15562 O 1200.42 6.49734 -4.18962 0
M  V30 15563 C 1201.36 5.81037 -5.05421 0
M  V30 15564 C 1200.63 4.79018 -5.88876 0
M  V30 15565 O 1200.42 3.58359 -5.08515 0
M  V30 15566 C 1199.23 5.17448 -6.36119 0
M  V30 15567 O 1198.84 4.45322 -7.53318 0
M  V30 15568 C 1198.35 4.74639 -5.19936 0
M  V30 15569 C 1199.06 3.49432 -4.70418 0
M  V30 15570 N 1199.01 3.31776 -3.22945 0
M  V30 15571 C 1198.86 2.02742 -2.72939 0
M  V30 15572 O 1198.77 1.08301 -3.52749 0
M  V30 15573 N 1198.81 1.96117 -1.22063 0
M  V30 15574 C 1198.91 2.8878 -0.551566 0
M  V30 15575 N 1198.86 2.65609 0.750198 0
M  V30 15576 C 1199.06 4.22457 -1.03707 0
M  V30 15577 C 1199.11 4.37979 -2.39113 0
M  V30 15578 H 1201.85 6.54138 -5.7131 0
M  V30 15579 H 1202.12 5.30492 -4.44033 0
M  V30 15580 H 1201.26 4.55945 -6.76735 0
M  V30 15581 H 1198.6 2.6176 -5.18021 0
M  V30 15582 H 1198.32 5.52233 -4.41941 0
M  V30 15583 H 1197.33 4.52045 -5.53452 0
M  V30 15584 H 1199.16 6.25124 -6.55234 0
M  V30 15585 H 1199.24 5.37936 -2.80552 0
M  V30 15586 H 1199.13 5.07528 -0.359553 0
M  V30 15587 H 1198.75 1.69403 1.09847 0
M  V30 15588 H 1198.94 3.43701 1.41792 0
M  V30 15589 P 1197.29 4.23843 -7.83734 0
M  V30 15590 O 1197.07 4.19407 -9.29784 0
M  V30 15591 O 1196.5 5.24426 -7.09156 0
M  V30 15592 O 1197.04 2.7935 -7.20758 0
M  V30 15593 C 1197.98 1.7299 -7.50419 0
M  V30 15594 C 1197.25 0.406376 -7.57911 0
M  V30 15595 O 1197.04 -0.0897726 -6.21935 0
M  V30 15596 C 1195.85 0.447224 -8.1878 0
M  V30 15597 O 1195.46 -0.825065 -8.71101 0
M  V30 15598 C 1194.97 0.783801 -6.99623 0
M  V30 15599 C 1195.68 0.0619192 -5.85967 0
M  V30 15600 N 1195.63 0.7859 -4.56281 0
M  V30 15601 H 1198.47 1.93423 -8.4679 0
M  V30 15602 H 1198.74 1.68181 -6.71046 0
M  V30 15603 H 1197.88 -0.289041 -8.15388 0
M  V30 15604 P 1193.91 -1.17771 -8.83182 0
M  V30 15605 O 1193.69 -2.07206 -9.98732 0
M  V30 15606 O 1193.12 0.0743816 -8.81969 0
M  V30 15607 O 1193.66 -1.97652 -7.47304 0
M  V30 15608 C 1194.6 -3.01133 -7.08783 0
M  V30 15609 C 1193.87 -4.12613 -6.37049 0
M  V30 15610 O 1193.66 -3.72827 -4.97879 0
M  V30 15611 C 1192.47 -4.45085 -6.88694 0
M  V30 15612 O 1192.08 -5.7877 -6.5624 0
M  V30 15613 C 1191.59 -3.47817 -6.12078 0
M  V30 15614 C 1192.3 -3.39414 -4.77697 0
M  V30 15615 N 1192.25 -2.04615 -4.15333 0
M  V30 15616 H 1195.09 -3.41248 -7.98759 0
M  V30 15617 H 1195.36 -2.5837 -6.41742 0
M  V30 15618 H 1194.5 -5.02657 -6.42673 0
M  V30 15619 P 1190.53 -6.144 -6.45285 0
M  V30 15620 O 1190.31 -7.54673 -6.86199 0
M  V30 15621 O 1189.74 -5.12391 -7.179 0
M  V30 15622 O 1190.28 -5.99158 -4.88404 0
M  V30 15623 C 1191.22 -6.60234 -3.96415 0
M  V30 15624 C 1190.49 -7.08259 -2.72856 0
M  V30 15625 O 1190.28 -5.9427 -1.83651 0
M  V30 15626 C 1189.09 -7.64886 -2.9555 0
M  V30 15627 O 1188.7 -8.53963 -1.90717 0
M  V30 15628 C 1188.21 -6.4116 -2.90739 0
M  V30 15629 C 1188.92 -5.55375 -1.86963 0
M  V30 15630 N 1188.87 -4.09448 -2.16152 0
M  V30 15631 H 1191.71 -7.45574 -4.45629 0
M  V30 15632 H 1191.98 -5.85864 -3.679 0
M  V30 15633 H 1191.12 -7.84412 -2.24479 0
M  V30 15634 H 1188.46 -5.73457 -0.888562 0
M  V30 15635 H 1188.18 -5.90877 -3.88583 0
M  V30 15636 H 1187.19 -6.6596 -2.58858 0
M  V30 15637 H 1189.02 -8.16339 -3.92049 0
M  V30 15638 P 1187.15 -8.7635 -1.60911 0
M  V30 15639 O 1186.93 -10.1388 -1.11561 0
M  V30 15640 O 1186.36 -8.36503 -2.79617 0
M  V30 15641 O 1186.9 -7.71806 -0.42951 0
M  V30 15642 C 1187.84 -7.67148 0.673689 0
M  V30 15643 C 1187.11 -7.33374 1.95559 0
M  V30 15644 O 1186.9 -5.88721 2.00726 0
M  V30 15645 C 1185.71 -7.92526 2.10483 0
M  V30 15646 O 1185.32 -8.02971 3.47653 0
M  V30 15647 C 1184.83 -6.89602 1.41652 0
M  V30 15648 C 1185.54 -5.59201 1.75185 0
M  V30 15649 N 1185.49 -4.58235 0.662552 0
M  V30 15650 H 1188.33 -8.65116 0.777161 0
M  V30 15651 H 1188.6 -6.90173 0.474152 0
M  V30 15652 H 1187.74 -7.66548 2.79458 0
M  V30 15653 P 1183.77 -8.03563 3.84925 0
M  V30 15654 O 1183.55 -8.85821 5.0569 0
M  V30 15655 O 1182.98 -8.41101 2.65469 0
M  V30 15656 O 1183.52 -6.4965 4.18908 0
M  V30 15657 C 1184.46 -5.80886 5.05289 0
M  V30 15658 C 1183.73 -4.78366 5.89277 0
M  V30 15659 O 1183.52 -3.58302 5.08433 0
M  V30 15660 C 1182.33 -5.16748 6.36559 0
M  V30 15661 O 1181.94 -4.45271 7.53232 0
M  V30 15662 C 1181.45 -4.74572 5.19863 0
M  V30 15663 C 1182.16 -3.49373 4.70338 0
M  V30 15664 N 1182.11 -3.31704 3.22876 0
M  V30 15665 C 1181.96 -2.03326 2.74871 0
M  V30 15666 O 1181.87 -1.06486 3.48076 0
M  V30 15667 N 1181.92 -1.91838 1.37456 0
M  V30 15668 C 1182.01 -2.94295 0.462035 0
M  V30 15669 O 1181.96 -2.71763 -0.752928 0
M  V30 15670 C 1182.16 -4.25064 1.05249 0
M  V30 15671 C 1182.27 -5.39815 0.095697 0
M  V30 15672 C 1182.21 -4.40214 2.39192 0
M  V30 15673 H 1184.95 -6.54063 5.71245 0
M  V30 15674 H 1185.22 -5.30339 4.43905 0
M  V30 15675 H 1184.36 -4.55889 6.76652 0
M  V30 15676 H 1181.7 -2.6167 5.17842 0
M  V30 15677 H 1181.42 -5.52155 4.41878 0
M  V30 15678 H 1180.43 -4.51918 5.53297 0
M  V30 15679 H 1182.26 -6.25055 6.55162 0
M  V30 15680 H 1182.34 -5.39798 2.81523 0
M  V30 15681 H 1181.31 -5.91593 0.0279582 0
M  V30 15682 H 1183.04 -6.10038 0.450573 0
M  V30 15683 H 1182.55 -5.02007 -0.89937 0
M  V30 15684 H 1181.82 -0.995326 1.00435 0
M  V30 15685 P 1180.39 -4.23843 7.83734 0
M  V30 15686 O 1180.17 -4.19407 9.29784 0
M  V30 15687 O 1179.6 -5.24426 7.09156 0
M  V30 15688 O 1180.14 -2.7935 7.20758 0
M  V30 15689 C 1181.08 -1.7299 7.50419 0
M  V30 15690 C 1180.35 -0.406376 7.57911 0
M  V30 15691 O 1180.14 0.0897726 6.21935 0
M  V30 15692 C 1178.95 -0.447224 8.1878 0
M  V30 15693 O 1178.56 0.825065 8.71101 0
M  V30 15694 C 1178.07 -0.783801 6.99623 0
M  V30 15695 C 1178.78 -0.0619192 5.85967 0
M  V30 15696 N 1178.73 -0.790462 4.56202 0
M  V30 15697 C 1178.81 -2.13895 4.34171 0
M  V30 15698 N 1178.74 -2.46449 3.08687 0
M  V30 15699 C 1178.59 -1.2525 2.43697 0
M  V30 15700 C 1178.46 -0.914535 1.07318 0
M  V30 15701 N 1178.45 -1.80782 0.0887348 0
M  V30 15702 N 1178.34 0.386745 0.768133 0
M  V30 15703 C 1178.35 1.28096 1.75159 0
M  V30 15704 N 1178.47 1.09708 3.04861 0
M  V30 15705 C 1178.59 -0.214857 3.32306 0
M  V30 15706 H 1181.57 -1.93423 8.4679 0
M  V30 15707 H 1181.84 -1.68852 6.70877 0
M  V30 15708 H 1180.98 0.289041 8.15388 0
M  V30 15709 H 1178.32 0.927006 5.72848 0
M  V30 15710 H 1178.04 -1.86973 6.82036 0
M  V30 15711 H 1177.05 -0.403953 7.13357 0
M  V30 15712 H 1178.88 -1.20599 8.97534 0
M  V30 15713 H 1178.93 -2.86846 5.14318 0
M  V30 15714 H 1178.54 -2.81082 0.302037 0
M  V30 15715 H 1178.36 -1.49688 -0.889064 0
M  V30 15716 H 1178.25 2.31317 1.43855 0
M  V30 15717 P 1177.01 1.17771 8.83182 0
M  V30 15718 O 1176.79 2.07206 9.98732 0
M  V30 15719 O 1176.22 -0.0743816 8.81969 0
M  V30 15720 O 1176.76 1.97652 7.47304 0
M  V30 15721 C 1177.7 3.01133 7.08783 0
M  V30 15722 C 1176.97 4.12613 6.37049 0
M  V30 15723 O 1176.76 3.72827 4.97879 0
M  V30 15724 C 1175.57 4.45085 6.88694 0
M  V30 15725 O 1175.18 5.7877 6.5624 0
M  V30 15726 C 1174.69 3.47817 6.12078 0
M  V30 15727 C 1175.4 3.39414 4.77697 0
M  V30 15728 N 1175.35 2.04615 4.15333 0
M  V30 15729 H 1178.19 3.41248 7.98759 0
M  V30 15730 H 1178.46 2.5837 6.41742 0
M  V30 15731 H 1177.6 5.02657 6.42673 0
M  V30 15732 P 1173.63 6.144 6.45285 0
M  V30 15733 O 1173.41 7.54673 6.86199 0
M  V30 15734 O 1172.84 5.12391 7.179 0
M  V30 15735 O 1173.38 5.99158 4.88404 0
M  V30 15736 C 1174.32 6.60234 3.96415 0
M  V30 15737 C 1173.59 7.08259 2.72856 0
M  V30 15738 O 1173.38 5.9427 1.83651 0
M  V30 15739 C 1172.19 7.64886 2.9555 0
M  V30 15740 O 1171.8 8.53963 1.90717 0
M  V30 15741 C 1171.31 6.4116 2.90739 0
M  V30 15742 C 1172.02 5.55375 1.86963 0
M  V30 15743 N 1171.97 4.09664 2.15742 0
M  V30 15744 H 1174.81 7.45574 4.45629 0
M  V30 15745 H 1175.08 5.86232 3.67314 0
M  V30 15746 H 1174.22 7.84412 2.24479 0
M  V30 15747 P 1170.25 8.7635 1.60911 0
M  V30 15748 O 1170.03 10.1388 1.11561 0
M  V30 15749 O 1169.46 8.36503 2.79617 0
M  V30 15750 O 1170 7.71806 0.42951 0
M  V30 15751 C 1170.94 7.67148 -0.673689 0
M  V30 15752 C 1170.21 7.33374 -1.95559 0
M  V30 15753 O 1170 5.88721 -2.00726 0
M  V30 15754 C 1168.81 7.92526 -2.10483 0
M  V30 15755 O 1168.42 8.02971 -3.47653 0
M  V30 15756 C 1167.93 6.89602 -1.41652 0
M  V30 15757 C 1168.64 5.59201 -1.75185 0
M  V30 15758 N 1168.59 4.58235 -0.662552 0
M  V30 15759 H 1171.43 8.65116 -0.777161 0
M  V30 15760 H 1171.7 6.90173 -0.474152 0
M  V30 15761 H 1170.84 7.66548 -2.79458 0
M  V30 15762 P 1166.87 8.03563 -3.84925 0
M  V30 15763 O 1166.65 8.85821 -5.0569 0
M  V30 15764 O 1166.08 8.41101 -2.65469 0
M  V30 15765 O 1166.62 6.4965 -4.18908 0
M  V30 15766 C 1167.56 5.81037 -5.05421 0
M  V30 15767 C 1166.83 4.78366 -5.89277 0
M  V30 15768 O 1166.62 3.58302 -5.08433 0
M  V30 15769 C 1165.43 5.17448 -6.36119 0
M  V30 15770 O 1165.04 4.45271 -7.53232 0
M  V30 15771 C 1164.55 4.74639 -5.19936 0
M  V30 15772 C 1165.26 3.49432 -4.70418 0
M  V30 15773 N 1165.21 3.32099 -3.22613 0
M  V30 15774 H 1168.05 6.54213 -5.71376 0
M  V30 15775 H 1168.32 5.30936 -4.43503 0
M  V30 15776 H 1167.46 4.55889 -6.76652 0
M  V30 15777 H 1164.8 2.61715 -5.17932 0
M  V30 15778 H 1164.52 5.52155 -4.41878 0
M  V30 15779 H 1163.53 4.51981 -5.53374 0
M  V30 15780 H 1165.36 6.25124 -6.55234 0
M  V30 15781 P 1163.49 4.23843 -7.83734 0
M  V30 15782 O 1163.27 4.19407 -9.29784 0
M  V30 15783 O 1162.7 5.24426 -7.09156 0
M  V30 15784 O 1163.24 2.7935 -7.20758 0
M  V30 15785 C 1164.18 1.7299 -7.50419 0
M  V30 15786 C 1163.45 0.406376 -7.57911 0
M  V30 15787 O 1163.24 -0.0897726 -6.21935 0
M  V30 15788 C 1162.05 0.447224 -8.1878 0
M  V30 15789 O 1161.66 -0.825065 -8.71101 0
M  V30 15790 C 1161.17 0.783801 -6.99623 0
M  V30 15791 C 1161.88 0.0619192 -5.85967 0
M  V30 15792 N 1161.83 0.7859 -4.56281 0
M  V30 15793 H 1164.67 1.93423 -8.4679 0
M  V30 15794 H 1164.94 1.68181 -6.71046 0
M  V30 15795 H 1164.08 -0.289041 -8.15388 0
M  V30 15796 P 1160.11 -1.17771 -8.83182 0
M  V30 15797 O 1159.89 -2.07206 -9.98732 0
M  V30 15798 O 1159.32 0.0743816 -8.81969 0
M  V30 15799 O 1159.86 -1.97652 -7.47304 0
M  V30 15800 C 1160.8 -3.01133 -7.08783 0
M  V30 15801 C 1160.07 -4.12613 -6.37049 0
M  V30 15802 O 1159.86 -3.72827 -4.97879 0
M  V30 15803 C 1158.67 -4.45085 -6.88694 0
M  V30 15804 O 1158.28 -5.7877 -6.5624 0
M  V30 15805 C 1157.79 -3.47817 -6.12078 0
M  V30 15806 C 1158.5 -3.39414 -4.77697 0
M  V30 15807 N 1158.45 -2.04615 -4.15333 0
M  V30 15808 H 1161.29 -3.41248 -7.98759 0
M  V30 15809 H 1161.56 -2.5837 -6.41742 0
M  V30 15810 H 1160.7 -5.02657 -6.42673 0
M  V30 15811 P 1156.73 -6.144 -6.45285 0
M  V30 15812 O 1156.51 -7.54673 -6.86199 0
M  V30 15813 O 1155.94 -5.12391 -7.179 0
M  V30 15814 O 1156.48 -5.99158 -4.88404 0
M  V30 15815 C 1157.42 -6.60234 -3.96415 0
M  V30 15816 C 1156.69 -7.08259 -2.72856 0
M  V30 15817 O 1156.48 -5.9427 -1.83651 0
M  V30 15818 C 1155.29 -7.64886 -2.9555 0
M  V30 15819 O 1154.9 -8.53963 -1.90717 0
M  V30 15820 C 1154.41 -6.4116 -2.90739 0
M  V30 15821 C 1155.12 -5.55375 -1.86963 0
M  V30 15822 N 1155.07 -4.09664 -2.15742 0
M  V30 15823 H 1157.91 -7.45574 -4.45629 0
M  V30 15824 H 1158.18 -5.86232 -3.67314 0
M  V30 15825 H 1157.32 -7.84412 -2.24479 0
M  V30 15826 P 1153.35 -8.7635 -1.60911 0
M  V30 15827 O 1153.13 -10.1388 -1.11561 0
M  V30 15828 O 1152.56 -8.36503 -2.79617 0
M  V30 15829 O 1153.1 -7.71806 -0.42951 0
M  V30 15830 C 1154.04 -7.67148 0.673689 0
M  V30 15831 C 1153.31 -7.33374 1.95559 0
M  V30 15832 O 1153.1 -5.88721 2.00726 0
M  V30 15833 C 1151.91 -7.92526 2.10483 0
M  V30 15834 O 1151.52 -8.02971 3.47653 0
M  V30 15835 C 1151.03 -6.89602 1.41652 0
M  V30 15836 C 1151.74 -5.59201 1.75185 0
M  V30 15837 N 1151.69 -4.58235 0.662552 0
M  V30 15838 H 1154.53 -8.65116 0.777161 0
M  V30 15839 H 1154.8 -6.90173 0.474152 0
M  V30 15840 H 1153.94 -7.66548 2.79458 0
M  V30 15841 P 1149.97 -8.03563 3.84925 0
M  V30 15842 O 1149.75 -8.85821 5.0569 0
M  V30 15843 O 1149.18 -8.41101 2.65469 0
M  V30 15844 O 1149.72 -6.4965 4.18908 0
M  V30 15845 C 1150.66 -5.80886 5.05289 0
M  V30 15846 C 1149.93 -4.78366 5.89277 0
M  V30 15847 O 1149.72 -3.58302 5.08433 0
M  V30 15848 C 1148.53 -5.16748 6.36559 0
M  V30 15849 O 1148.14 -4.45271 7.53232 0
M  V30 15850 C 1147.65 -4.74572 5.19863 0
M  V30 15851 C 1148.36 -3.49373 4.70338 0
M  V30 15852 N 1148.31 -3.31704 3.22876 0
M  V30 15853 C 1148.16 -2.03326 2.74871 0
M  V30 15854 O 1148.07 -1.06486 3.48076 0
M  V30 15855 N 1148.12 -1.91838 1.37456 0
M  V30 15856 C 1148.21 -2.94295 0.462035 0
M  V30 15857 O 1148.16 -2.71763 -0.752928 0
M  V30 15858 C 1148.36 -4.25064 1.05249 0
M  V30 15859 C 1148.47 -5.39815 0.095697 0
M  V30 15860 C 1148.41 -4.40214 2.39192 0
M  V30 15861 H 1151.15 -6.54063 5.71245 0
M  V30 15862 H 1151.42 -5.30339 4.43905 0
M  V30 15863 H 1150.56 -4.55889 6.76652 0
M  V30 15864 H 1147.9 -2.6167 5.17842 0
M  V30 15865 H 1147.62 -5.52155 4.41878 0
M  V30 15866 H 1146.63 -4.51918 5.53297 0
M  V30 15867 H 1148.46 -6.25055 6.55162 0
M  V30 15868 H 1148.54 -5.39798 2.81523 0
M  V30 15869 H 1147.51 -5.91593 0.0279582 0
M  V30 15870 H 1149.24 -6.10038 0.450573 0
M  V30 15871 H 1148.75 -5.02007 -0.89937 0
M  V30 15872 H 1148.02 -0.995326 1.00435 0
M  V30 15873 P 1146.59 -4.23843 7.83734 0
M  V30 15874 O 1146.37 -4.19407 9.29784 0
M  V30 15875 O 1145.8 -5.24426 7.09156 0
M  V30 15876 O 1146.34 -2.7935 7.20758 0
M  V30 15877 C 1147.28 -1.7299 7.50419 0
M  V30 15878 C 1146.55 -0.406376 7.57911 0
M  V30 15879 O 1146.34 0.0897726 6.21935 0
M  V30 15880 C 1145.15 -0.447224 8.1878 0
M  V30 15881 O 1144.76 0.825065 8.71101 0
M  V30 15882 C 1144.27 -0.783801 6.99623 0
M  V30 15883 C 1144.98 -0.0619192 5.85967 0
M  V30 15884 N 1144.93 -0.7859 4.56281 0
M  V30 15885 H 1147.77 -1.93423 8.4679 0
M  V30 15886 H 1148.04 -1.68181 6.71046 0
M  V30 15887 H 1147.18 0.289041 8.15388 0
M  V30 15888 P 1143.21 1.17771 8.83182 0
M  V30 15889 O 1142.99 2.07206 9.98732 0
M  V30 15890 O 1142.42 -0.0743816 8.81969 0
M  V30 15891 O 1142.96 1.97678 7.474 0
M  V30 15892 C 1143.9 3.01133 7.08783 0
M  V30 15893 C 1143.17 4.1203 6.37546 0
M  V30 15894 O 1142.96 3.72887 4.9796 0
M  V30 15895 C 1141.77 4.45085 6.88694 0
M  V30 15896 O 1141.38 5.78836 6.56315 0
M  V30 15897 C 1140.89 3.47817 6.12078 0
M  V30 15898 C 1141.6 3.39414 4.77697 0
M  V30 15899 N 1141.55 2.04615 4.15333 0
M  V30 15900 C 1141.4 1.96929 2.77162 0
M  V30 15901 O 1141.31 3.02017 2.12006 0
M  V30 15902 N 1141.35 0.55485 2.24237 0
M  V30 15903 C 1141.45 -0.367808 2.9169 0
M  V30 15904 N 1141.4 -1.53426 2.29427 0
M  V30 15905 C 1141.6 -0.319148 4.33828 0
M  V30 15906 C 1141.65 0.920672 4.90433 0
M  V30 15907 H 1144.39 3.41209 7.98667 0
M  V30 15908 H 1144.66 2.5837 6.41742 0
M  V30 15909 H 1143.8 5.02718 6.42752 0
M  V30 15910 H 1141.14 4.11779 4.09026 0
M  V30 15911 H 1140.86 2.49661 6.61772 0
M  V30 15912 H 1139.87 3.86674 6.00946 0
M  V30 15913 H 1141.7 4.29991 7.97006 0
M  V30 15914 H 1141.78 1.00589 5.98303 0
M  V30 15915 H 1141.67 -1.22639 4.93799 0
M  V30 15916 H 1141.29 -1.56819 1.27167 0
M  V30 15917 H 1141.48 -2.41062 2.83063 0
M  V30 15918 P 1139.83 6.144 6.45285 0
M  V30 15919 O 1139.61 7.54673 6.86199 0
M  V30 15920 O 1139.04 5.12391 7.179 0
M  V30 15921 O 1139.58 5.99158 4.88404 0
M  V30 15922 C 1140.52 6.60234 3.96415 0
M  V30 15923 C 1139.79 7.08259 2.72856 0
M  V30 15924 O 1139.58 5.9427 1.83651 0
M  V30 15925 C 1138.39 7.64886 2.9555 0
M  V30 15926 O 1138 8.53963 1.90717 0
M  V30 15927 C 1137.51 6.4116 2.90739 0
M  V30 15928 C 1138.22 5.55375 1.86963 0
M  V30 15929 N 1138.17 4.09664 2.15742 0
M  V30 15930 H 1141.01 7.45574 4.45629 0
M  V30 15931 H 1141.28 5.86232 3.67314 0
M  V30 15932 H 1140.42 7.84412 2.24479 0
M  V30 15933 P 1136.45 8.7635 1.60911 0
M  V30 15934 O 1136.23 10.1388 1.11561 0
M  V30 15935 O 1135.66 8.36503 2.79617 0
M  V30 15936 O 1136.2 7.71806 0.42951 0
M  V30 15937 C 1137.14 7.67148 -0.673689 0
M  V30 15938 C 1136.41 7.33374 -1.95559 0
M  V30 15939 O 1136.2 5.88721 -2.00726 0
M  V30 15940 C 1135.01 7.92526 -2.10483 0
M  V30 15941 O 1134.62 8.02971 -3.47653 0
M  V30 15942 C 1134.13 6.89602 -1.41652 0
M  V30 15943 C 1134.84 5.59201 -1.75185 0
M  V30 15944 N 1134.79 4.58301 -0.657969 0
M  V30 15945 H 1137.63 8.65116 -0.777161 0
M  V30 15946 H 1137.9 6.9022 -0.46725 0
M  V30 15947 H 1137.04 7.66548 -2.79458 0
M  V30 15948 H 1134.38 5.16165 -2.65183 0
M  V30 15949 H 1134.1 7.06433 -0.329384 0
M  V30 15950 H 1133.11 6.90926 -1.82021 0
M  V30 15951 H 1134.94 8.90873 -1.62657 0
M  V30 15952 P 1133.07 8.03563 -3.84925 0
M  V30 15953 O 1132.85 8.85821 -5.0569 0
M  V30 15954 O 1132.28 8.41101 -2.65469 0
M  V30 15955 O 1132.82 6.4965 -4.18908 0
M  V30 15956 C 1133.76 5.81037 -5.05421 0
M  V30 15957 C 1133.03 4.78366 -5.89277 0
M  V30 15958 O 1132.82 3.58302 -5.08433 0
M  V30 15959 C 1131.63 5.17448 -6.36119 0
M  V30 15960 O 1131.24 4.45271 -7.53232 0
M  V30 15961 C 1130.75 4.74639 -5.19936 0
M  V30 15962 C 1131.46 3.49432 -4.70418 0
M  V30 15963 N 1131.41 3.32099 -3.22613 0
M  V30 15964 H 1134.25 6.54213 -5.71376 0
M  V30 15965 H 1134.52 5.30936 -4.43503 0
M  V30 15966 H 1133.66 4.55889 -6.76652 0
M  V30 15967 H 1131 2.61715 -5.17932 0
M  V30 15968 H 1130.72 5.52155 -4.41878 0
M  V30 15969 H 1129.73 4.51981 -5.53374 0
M  V30 15970 H 1131.56 6.25124 -6.55234 0
M  V30 15971 P 1129.69 4.23843 -7.83734 0
M  V30 15972 O 1129.47 4.19407 -9.29784 0
M  V30 15973 O 1128.9 5.24426 -7.09156 0
M  V30 15974 O 1129.44 2.79386 -7.20852 0
M  V30 15975 C 1130.38 1.7299 -7.50419 0
M  V30 15976 C 1129.65 0.41401 -7.5797 0
M  V30 15977 O 1129.44 -0.089787 -6.22035 0
M  V30 15978 C 1128.25 0.447224 -8.1878 0
M  V30 15979 O 1127.86 -0.825159 -8.71201 0
M  V30 15980 C 1127.37 0.783801 -6.99623 0
M  V30 15981 C 1128.08 0.0619192 -5.85967 0
M  V30 15982 N 1128.03 0.7859 -4.56281 0
M  V30 15983 C 1127.88 0.0359258 -3.39981 0
M  V30 15984 O 1127.79 -1.19723 -3.49038 0
M  V30 15985 N 1127.83 0.869151 -2.14025 0
M  V30 15986 C 1127.93 2.01207 -2.14363 0
M  V30 15987 N 1127.88 2.58978 -0.954287 0
M  V30 15988 C 1128.08 2.80817 -3.32215 0
M  V30 15989 C 1128.13 2.13785 -4.50884 0
M  V30 15990 H 1130.87 1.93401 -8.46693 0
M  V30 15991 H 1131.14 1.68181 -6.71046 0
M  V30 15992 H 1130.28 -0.289076 -8.15488 0
M  V30 15993 H 1127.62 -0.927166 -5.72947 0
M  V30 15994 H 1127.34 1.87 -6.82132 0
M  V30 15995 H 1126.35 0.404009 -7.13457 0
M  V30 15996 H 1128.18 1.20599 -8.97534 0
M  V30 15997 H 1128.26 2.70295 -5.43162 0
M  V30 15998 H 1128.15 3.89465 -3.27406 0
M  V30 15999 H 1127.77 2.01616 -0.107046 0
M  V30 16000 H 1127.96 3.61403 -0.873101 0
M  V30 16001 P 1126.31 -1.17771 -8.83182 0
M  V30 16002 O 1126.09 -2.07206 -9.98732 0
M  V30 16003 O 1125.52 0.0743816 -8.81969 0
M  V30 16004 O 1126.06 -1.97652 -7.47304 0
M  V30 16005 C 1127 -3.01133 -7.08783 0
M  V30 16006 C 1126.27 -4.12613 -6.37049 0
M  V30 16007 O 1126.06 -3.72827 -4.97879 0
M  V30 16008 C 1124.87 -4.45085 -6.88694 0
M  V30 16009 O 1124.48 -5.7877 -6.5624 0
M  V30 16010 C 1123.99 -3.47817 -6.12078 0
M  V30 16011 C 1124.7 -3.39414 -4.77697 0
M  V30 16012 N 1124.65 -2.04615 -4.15333 0
M  V30 16013 H 1127.49 -3.41248 -7.98759 0
M  V30 16014 H 1127.76 -2.5837 -6.41742 0
M  V30 16015 H 1126.9 -5.02657 -6.42673 0
M  V30 16016 P 1122.93 -6.144 -6.45285 0
M  V30 16017 O 1122.71 -7.54673 -6.86199 0
M  V30 16018 O 1122.14 -5.12391 -7.179 0
M  V30 16019 O 1122.68 -5.99158 -4.88404 0
M  V30 16020 C 1123.62 -6.60062 -3.96313 0
M  V30 16021 C 1122.89 -7.08259 -2.72856 0
M  V30 16022 O 1122.68 -5.9427 -1.83651 0
M  V30 16023 C 1121.49 -7.65087 -2.94749 0
M  V30 16024 O 1121.1 -8.53963 -1.90717 0
M  V30 16025 C 1120.61 -6.41069 -2.90698 0
M  V30 16026 C 1121.32 -5.5528 -1.86931 0
M  V30 16027 N 1121.27 -4.09575 -2.15696 0
M  V30 16028 C 1121.12 -3.24249 -1.08435 0
M  V30 16029 O 1121.03 -3.63946 0.0628747 0
M  V30 16030 N 1121.08 -1.90009 -1.39973 0
M  V30 16031 C 1121.17 -1.34884 -2.65614 0
M  V30 16032 O 1121.12 -0.123716 -2.81728 0
M  V30 16033 C 1121.32 -2.3145 -3.71736 0
M  V30 16034 C 1121.43 -1.75913 -5.10438 0
M  V30 16035 C 1121.37 -3.63518 -3.44754 0
M  V30 16036 H 1124.11 -7.45402 -4.45526 0
M  V30 16037 H 1124.38 -5.86062 -3.67208 0
M  V30 16038 H 1123.52 -7.84412 -2.24479 0
M  V30 16039 H 1120.86 -5.73358 -0.888409 0
M  V30 16040 H 1120.58 -5.90877 -3.88583 0
M  V30 16041 H 1119.59 -6.65867 -2.58821 0
M  V30 16042 H 1121.42 -8.16248 -3.92006 0
M  V30 16043 H 1121.5 -4.34551 -4.26383 0
M  V30 16044 H 1120.47 -1.85471 -5.61775 0
M  V30 16045 H 1122.2 -2.31364 -5.66257 0
M  V30 16046 H 1121.71 -0.695936 -5.05229 0
M  V30 16047 H 1120.98 -1.26277 -0.63625 0
M  V30 16048 P 1119.55 -8.7635 -1.60911 0
M  V30 16049 O 1119.33 -10.1388 -1.11561 0
M  V30 16050 O 1118.76 -8.36503 -2.79617 0
M  V30 16051 O 1119.3 -7.71806 -0.42951 0
M  V30 16052 C 1120.24 -7.67148 0.673689 0
M  V30 16053 C 1119.51 -7.33374 1.95559 0
M  V30 16054 O 1119.3 -5.88721 2.00726 0
M  V30 16055 C 1118.11 -7.92526 2.10483 0
M  V30 16056 O 1117.72 -8.02971 3.47653 0
M  V30 16057 C 1117.23 -6.89602 1.41652 0
M  V30 16058 C 1117.94 -5.59201 1.75185 0
M  V30 16059 N 1117.89 -4.58301 0.657969 0
M  V30 16060 C 1117.97 -4.79019 -0.692603 0
M  V30 16061 N 1117.9 -3.69736 -1.38998 0
M  V30 16062 C 1117.75 -2.70474 -0.438135 0
M  V30 16063 C 1117.62 -1.30327 -0.538142 0
M  V30 16064 N 1117.61 -0.64304 -1.69192 0
M  V30 16065 N 1117.5 -0.611027 0.605183 0
M  V30 16066 C 1117.51 -1.27002 1.75953 0
M  V30 16067 N 1117.63 -2.56038 1.98546 0
M  V30 16068 C 1117.75 -3.22681 0.822541 0
M  V30 16069 H 1120.73 -8.65116 0.777161 0
M  V30 16070 H 1121 -6.9022 0.46725 0
M  V30 16071 H 1120.14 -7.66548 2.79458 0
M  V30 16072 H 1117.48 -5.16165 2.65183 0
M  V30 16073 H 1117.2 -7.06433 0.329384 0
M  V30 16074 H 1116.21 -6.90926 1.82021 0
M  V30 16075 H 1118.04 -8.90873 1.62657 0
M  V30 16076 H 1118.09 -5.77785 -1.13874 0
M  V30 16077 H 1117.7 -1.15585 -2.57991 0
M  V30 16078 H 1117.52 0.382989 -1.69835 0
M  V30 16079 H 1117.41 -0.653331 2.64449 0
M  V30 16080 P 1116.17 -8.03563 3.84925 0
M  V30 16081 O 1115.95 -8.85821 5.0569 0
M  V30 16082 O 1115.38 -8.41101 2.65469 0
M  V30 16083 O 1115.92 -6.49734 4.18962 0
M  V30 16084 C 1116.86 -5.81037 5.05421 0
M  V30 16085 C 1116.13 -4.79018 5.88876 0
M  V30 16086 O 1115.92 -3.58359 5.08515 0
M  V30 16087 C 1114.73 -5.17448 6.36119 0
M  V30 16088 O 1114.34 -4.45322 7.53318 0
M  V30 16089 C 1113.85 -4.74639 5.19936 0
M  V30 16090 C 1114.56 -3.49432 4.70418 0
M  V30 16091 N 1114.51 -3.31776 3.22945 0
M  V30 16092 C 1114.36 -2.02742 2.72939 0
M  V30 16093 O 1114.27 -1.08301 3.52749 0
M  V30 16094 N 1114.31 -1.96117 1.22063 0
M  V30 16095 C 1114.41 -2.8878 0.551566 0
M  V30 16096 N 1114.36 -2.65609 -0.750198 0
M  V30 16097 C 1114.56 -4.22457 1.03707 0
M  V30 16098 C 1114.61 -4.37979 2.39113 0
M  V30 16099 H 1117.35 -6.54138 5.7131 0
M  V30 16100 H 1117.62 -5.30492 4.44033 0
M  V30 16101 H 1116.76 -4.55945 6.76735 0
M  V30 16102 H 1114.1 -2.6176 5.18021 0
M  V30 16103 H 1113.82 -5.52233 4.41941 0
M  V30 16104 H 1112.83 -4.52045 5.53452 0
M  V30 16105 H 1114.66 -6.25124 6.55234 0
M  V30 16106 H 1114.74 -5.37936 2.80552 0
M  V30 16107 H 1114.63 -5.07528 0.359553 0
M  V30 16108 H 1114.25 -1.69403 -1.09847 0
M  V30 16109 H 1114.44 -3.43701 -1.41792 0
M  V30 16110 P 1112.79 -4.23843 7.83734 0
M  V30 16111 O 1112.57 -4.19407 9.29784 0
M  V30 16112 O 1112 -5.24426 7.09156 0
M  V30 16113 O 1112.54 -2.7935 7.20758 0
M  V30 16114 C 1113.48 -1.7299 7.50419 0
M  V30 16115 C 1112.75 -0.406376 7.57911 0
M  V30 16116 O 1112.54 0.0897726 6.21935 0
M  V30 16117 C 1111.35 -0.447224 8.1878 0
M  V30 16118 O 1110.96 0.825065 8.71101 0
M  V30 16119 C 1110.47 -0.783801 6.99623 0
M  V30 16120 C 1111.18 -0.0619192 5.85967 0
M  V30 16121 N 1111.13 -0.7859 4.56281 0
M  V30 16122 H 1113.97 -1.93423 8.4679 0
M  V30 16123 H 1114.24 -1.68181 6.71046 0
M  V30 16124 H 1113.38 0.289041 8.15388 0
M  V30 16125 P 1109.41 1.17771 8.83182 0
M  V30 16126 O 1109.19 2.07206 9.98732 0
M  V30 16127 O 1108.62 -0.0743816 8.81969 0
M  V30 16128 O 1109.16 1.97652 7.47304 0
M  V30 16129 C 1110.1 3.01133 7.08783 0
M  V30 16130 C 1109.37 4.12613 6.37049 0
M  V30 16131 O 1109.16 3.72827 4.97879 0
M  V30 16132 C 1107.97 4.45085 6.88694 0
M  V30 16133 O 1107.58 5.7877 6.5624 0
M  V30 16134 C 1107.09 3.47817 6.12078 0
M  V30 16135 C 1107.8 3.39414 4.77697 0
M  V30 16136 N 1107.75 2.04615 4.15333 0
M  V30 16137 H 1110.59 3.41248 7.98759 0
M  V30 16138 H 1110.86 2.5837 6.41742 0
M  V30 16139 H 1110 5.02657 6.42673 0
M  V30 16140 P 1106.03 6.144 6.45285 0
M  V30 16141 O 1105.81 7.54673 6.86199 0
M  V30 16142 O 1105.24 5.12391 7.179 0
M  V30 16143 O 1105.78 5.99158 4.88404 0
M  V30 16144 C 1106.72 6.60234 3.96415 0
M  V30 16145 C 1105.99 7.08259 2.72856 0
M  V30 16146 O 1105.78 5.9427 1.83651 0
M  V30 16147 C 1104.59 7.64886 2.9555 0
M  V30 16148 O 1104.2 8.53963 1.90717 0
M  V30 16149 C 1103.71 6.4116 2.90739 0
M  V30 16150 C 1104.42 5.55375 1.86963 0
M  V30 16151 N 1104.37 4.09664 2.15742 0
M  V30 16152 H 1107.21 7.45574 4.45629 0
M  V30 16153 H 1107.48 5.86232 3.67314 0
M  V30 16154 H 1106.62 7.84412 2.24479 0
M  V30 16155 P 1102.65 8.7635 1.60911 0
M  V30 16156 O 1102.43 10.1388 1.11561 0
M  V30 16157 O 1101.86 8.36503 2.79617 0
M  V30 16158 O 1102.4 7.71806 0.42951 0
M  V30 16159 C 1103.34 7.66948 -0.673514 0
M  V30 16160 C 1102.61 7.33374 -1.95559 0
M  V30 16161 O 1102.4 5.88721 -2.00726 0
M  V30 16162 C 1101.21 7.92218 -2.1125 0
M  V30 16163 O 1100.82 8.02971 -3.47653 0
M  V30 16164 C 1100.33 6.89504 -1.41631 0
M  V30 16165 C 1101.04 5.59106 -1.75155 0
M  V30 16166 N 1100.99 4.58136 -0.662409 0
M  V30 16167 C 1100.84 3.26059 -1.02863 0
M  V30 16168 O 1100.75 2.90743 -2.19009 0
M  V30 16169 N 1100.8 2.35995 0.0155585 0
M  V30 16170 C 1100.89 2.65248 1.35603 0
M  V30 16171 O 1100.84 1.75605 2.20651 0
M  V30 16172 C 1101.04 4.05747 1.64698 0
M  V30 16173 C 1101.15 4.42345 3.09553 0
M  V30 16174 C 1101.09 4.96734 0.652411 0
M  V30 16175 H 1103.83 8.64917 -0.776982 0
M  V30 16176 H 1104.1 6.89974 -0.474015 0
M  V30 16177 H 1103.24 7.66548 -2.79458 0
M  V30 16178 H 1100.58 5.16076 -2.65138 0
M  V30 16179 H 1100.3 7.06433 -0.329384 0
M  V30 16180 H 1099.31 6.90829 -1.81996 0
M  V30 16181 H 1101.14 8.90774 -1.62639 0
M  V30 16182 H 1101.22 6.02181 0.895285 0
M  V30 16183 H 1100.19 4.80252 3.45468 0
M  V30 16184 H 1101.92 5.20015 3.22119 0
M  V30 16185 H 1101.43 3.53269 3.67833 0
M  V30 16186 H 1100.7 1.39558 -0.227499 0
M  V30 16187 P 1099.27 8.03563 -3.84925 0
M  V30 16188 O 1099.05 8.85821 -5.0569 0
M  V30 16189 O 1098.48 8.41101 -2.65469 0
M  V30 16190 O 1099.02 6.4965 -4.18908 0
M  V30 16191 C 1099.96 5.81037 -5.05421 0
M  V30 16192 C 1099.23 4.78366 -5.89277 0
M  V30 16193 O 1099.02 3.58302 -5.08433 0
M  V30 16194 C 1097.83 5.17448 -6.36119 0
M  V30 16195 O 1097.44 4.45271 -7.53232 0
M  V30 16196 C 1096.95 4.74639 -5.19936 0
M  V30 16197 C 1097.66 3.49432 -4.70418 0
M  V30 16198 N 1097.61 3.31776 -3.22945 0
M  V30 16199 H 1100.45 6.54213 -5.71376 0
M  V30 16200 H 1100.72 5.30492 -4.44033 0
M  V30 16201 H 1099.86 4.55889 -6.76652 0
M  V30 16202 P 1095.89 4.23843 -7.83734 0
M  V30 16203 O 1095.67 4.19407 -9.29784 0
M  V30 16204 O 1095.1 5.24426 -7.09156 0
M  V30 16205 O 1095.64 2.7935 -7.20758 0
M  V30 16206 C 1096.58 1.7299 -7.50419 0
M  V30 16207 C 1095.85 0.406376 -7.57911 0
M  V30 16208 O 1095.64 -0.0897726 -6.21935 0
M  V30 16209 C 1094.45 0.447224 -8.1878 0
M  V30 16210 O 1094.06 -0.825065 -8.71101 0
M  V30 16211 C 1093.57 0.783801 -6.99623 0
M  V30 16212 C 1094.28 0.0619192 -5.85967 0
M  V30 16213 N 1094.23 0.7859 -4.56281 0
M  V30 16214 H 1097.07 1.93423 -8.4679 0
M  V30 16215 H 1097.34 1.68181 -6.71046 0
M  V30 16216 H 1096.48 -0.289041 -8.15388 0
M  V30 16217 P 1092.51 -1.17771 -8.83182 0
M  V30 16218 O 1092.29 -2.07206 -9.98732 0
M  V30 16219 O 1091.72 0.0743816 -8.81969 0
M  V30 16220 O 1092.26 -1.97652 -7.47304 0
M  V30 16221 C 1093.2 -3.01055 -7.08599 0
M  V30 16222 C 1092.47 -4.12613 -6.37049 0
M  V30 16223 O 1092.26 -3.72827 -4.97879 0
M  V30 16224 C 1091.07 -4.45719 -6.88164 0
M  V30 16225 O 1090.68 -5.7877 -6.5624 0
M  V30 16226 C 1090.19 -3.47768 -6.11991 0
M  V30 16227 C 1090.9 -3.39356 -4.77615 0
M  V30 16228 N 1090.85 -2.04571 -4.15244 0
M  V30 16229 C 1090.7 -1.98587 -2.78314 0
M  V30 16230 O 1090.61 -2.98134 -2.08835 0
M  V30 16231 N 1090.66 -0.714467 -2.24925 0
M  V30 16232 C 1090.75 0.470001 -2.94169 0
M  V30 16233 C 1090.9 0.312541 -4.36783 0
M  V30 16234 C 1090.95 -0.914512 -4.92583 0
M  V30 16235 H 1093.69 -3.41169 -7.98575 0
M  V30 16236 H 1093.96 -2.58295 -6.41556 0
M  V30 16237 H 1093.1 -5.02657 -6.42673 0
M  V30 16238 H 1090.44 -4.11637 -4.08885 0
M  V30 16239 H 1090.16 -2.49626 -6.61679 0
M  V30 16240 H 1089.17 -3.86566 -6.00778 0
M  V30 16241 H 1091 -4.29943 -7.96918 0
M  V30 16242 H 1091.08 -1.00937 -6.00374 0
M  V30 16243 P 1089.13 -6.144 -6.45285 0
M  V30 16244 O 1088.91 -7.54673 -6.86199 0
M  V30 16245 O 1088.34 -5.12391 -7.179 0
M  V30 16246 O 1088.88 -5.99158 -4.88404 0
M  V30 16247 C 1089.82 -6.60234 -3.96415 0
M  V30 16248 C 1089.09 -7.08259 -2.72856 0
M  V30 16249 O 1088.88 -5.9427 -1.83651 0
M  V30 16250 C 1087.69 -7.64886 -2.9555 0
M  V30 16251 O 1087.3 -8.53963 -1.90717 0
M  V30 16252 C 1086.81 -6.4116 -2.90739 0
M  V30 16253 C 1087.52 -5.55375 -1.86963 0
M  V30 16254 N 1087.47 -4.09664 -2.15742 0
M  V30 16255 H 1090.31 -7.45574 -4.45629 0
M  V30 16256 H 1090.58 -5.86232 -3.67314 0
M  V30 16257 H 1089.72 -7.84412 -2.24479 0
M  V30 16258 P 1085.75 -8.7635 -1.60911 0
M  V30 16259 O 1085.53 -10.1388 -1.11561 0
M  V30 16260 O 1084.96 -8.36503 -2.79617 0
M  V30 16261 O 1085.5 -7.71806 -0.42951 0
M  V30 16262 C 1086.44 -7.67148 0.673689 0
M  V30 16263 C 1085.71 -7.33374 1.95559 0
M  V30 16264 O 1085.5 -5.88721 2.00726 0
M  V30 16265 C 1084.31 -7.92526 2.10483 0
M  V30 16266 O 1083.92 -8.02971 3.47653 0
M  V30 16267 C 1083.43 -6.89602 1.41652 0
M  V30 16268 C 1084.14 -5.59201 1.75185 0
M  V30 16269 N 1084.09 -4.58235 0.662552 0
M  V30 16270 H 1086.93 -8.65116 0.777161 0
M  V30 16271 H 1087.2 -6.90173 0.474152 0
M  V30 16272 H 1086.34 -7.66548 2.79458 0
M  V30 16273 P 1082.37 -8.03563 3.84925 0
M  V30 16274 O 1082.15 -8.85821 5.0569 0
M  V30 16275 O 1081.58 -8.41101 2.65469 0
M  V30 16276 O 1082.12 -6.4965 4.18908 0
M  V30 16277 C 1083.06 -5.81037 5.05421 0
M  V30 16278 C 1082.33 -4.78366 5.89277 0
M  V30 16279 O 1082.12 -3.58302 5.08433 0
M  V30 16280 C 1080.93 -5.17448 6.36119 0
M  V30 16281 O 1080.54 -4.45271 7.53232 0
M  V30 16282 C 1080.05 -4.74639 5.19936 0
M  V30 16283 C 1080.76 -3.49432 4.70418 0
M  V30 16284 N 1080.71 -3.32099 3.22613 0
M  V30 16285 C 1080.79 -4.28245 2.25527 0
M  V30 16286 N 1080.72 -3.80823 1.04874 0
M  V30 16287 C 1080.57 -2.44571 1.23535 0
M  V30 16288 C 1080.44 -1.37068 0.330675 0
M  V30 16289 N 1080.43 -1.51472 -0.990824 0
M  V30 16290 N 1080.32 -0.138614 0.848756 0
M  V30 16291 C 1080.33 0.00675923 2.16999 0
M  V30 16292 N 1080.45 -0.904372 3.11122 0
M  V30 16293 C 1080.57 -2.12707 2.56212 0
M  V30 16294 H 1083.55 -6.54213 5.71376 0
M  V30 16295 H 1083.82 -5.30936 4.43503 0
M  V30 16296 H 1082.96 -4.55889 6.76652 0
M  V30 16297 H 1080.3 -2.61715 5.17932 0
M  V30 16298 H 1080.02 -5.52155 4.41878 0
M  V30 16299 H 1079.03 -4.51981 5.53374 0
M  V30 16300 H 1080.86 -6.25124 6.55234 0
M  V30 16301 H 1080.91 -5.34372 2.47488 0
M  V30 16302 H 1080.52 -2.45153 -1.4078 0
M  V30 16303 H 1080.34 -0.688422 -1.59911 0
M  V30 16304 H 1080.23 1.02584 2.52346 0
M  V30 16305 P 1078.99 -4.23843 7.83734 0
M  V30 16306 O 1078.77 -4.19407 9.29784 0
M  V30 16307 O 1078.2 -5.24426 7.09156 0
M  V30 16308 O 1078.74 -2.7935 7.20758 0
M  V30 16309 C 1079.68 -1.7299 7.50419 0
M  V30 16310 C 1078.95 -0.406376 7.57911 0
M  V30 16311 O 1078.74 0.0897726 6.21935 0
M  V30 16312 C 1077.55 -0.447224 8.1878 0
M  V30 16313 O 1077.16 0.825065 8.71101 0
M  V30 16314 C 1076.67 -0.783801 6.99623 0
M  V30 16315 C 1077.38 -0.0619192 5.85967 0
M  V30 16316 N 1077.33 -0.790462 4.56202 0
M  V30 16317 H 1080.17 -1.93423 8.4679 0
M  V30 16318 H 1080.44 -1.68852 6.70877 0
M  V30 16319 H 1079.58 0.289041 8.15388 0
M  V30 16320 H 1076.92 0.927006 5.72848 0
M  V30 16321 H 1076.64 -1.86973 6.82036 0
M  V30 16322 H 1075.65 -0.403953 7.13357 0
M  V30 16323 H 1077.48 -1.20599 8.97534 0
M  V30 16324 P 1075.61 1.17771 8.83182 0
M  V30 16325 O 1075.39 2.07206 9.98732 0
M  V30 16326 O 1074.82 -0.0743816 8.81969 0
M  V30 16327 O 1075.36 1.97652 7.47304 0
M  V30 16328 C 1076.3 3.01133 7.08783 0
M  V30 16329 C 1075.57 4.12613 6.37049 0
M  V30 16330 O 1075.36 3.72827 4.97879 0
M  V30 16331 C 1074.17 4.45085 6.88694 0
M  V30 16332 O 1073.78 5.7877 6.5624 0
M  V30 16333 C 1073.29 3.47817 6.12078 0
M  V30 16334 C 1074 3.39414 4.77697 0
M  V30 16335 N 1073.95 2.04199 4.15538 0
M  V30 16336 H 1076.79 3.41248 7.98759 0
M  V30 16337 H 1077.06 2.57728 6.42 0
M  V30 16338 H 1076.2 5.02657 6.42673 0
M  V30 16339 H 1073.54 4.11708 4.08956 0
M  V30 16340 H 1073.26 2.49626 6.61679 0
M  V30 16341 H 1072.27 3.8662 6.00862 0
M  V30 16342 H 1074.1 4.29991 7.97006 0
M  V30 16343 P 1072.23 6.144 6.45285 0
M  V30 16344 O 1072.01 7.54673 6.86199 0
M  V30 16345 O 1071.44 5.12391 7.179 0
M  V30 16346 O 1071.98 5.99236 4.88467 0
M  V30 16347 C 1072.92 6.60234 3.96415 0
M  V30 16348 C 1072.19 7.08079 2.736 0
M  V30 16349 O 1071.98 5.94365 1.8368 0
M  V30 16350 C 1070.79 7.64886 2.9555 0
M  V30 16351 O 1070.4 8.5406 1.90739 0
M  V30 16352 C 1069.91 6.4116 2.90739 0
M  V30 16353 C 1070.62 5.55375 1.86963 0
M  V30 16354 N 1070.57 4.09664 2.15742 0
M  V30 16355 C 1070.42 3.22231 1.08477 0
M  V30 16356 O 1070.33 3.68951 -0.0600489 0
M  V30 16357 N 1070.37 1.76692 1.48799 0
M  V30 16358 C 1070.47 1.41695 2.57602 0
M  V30 16359 N 1070.42 0.107296 2.75791 0
M  V30 16360 C 1070.62 2.29178 3.69733 0
M  V30 16361 C 1070.67 3.62753 3.42653 0
M  V30 16362 H 1073.41 7.45488 4.45578 0
M  V30 16363 H 1073.68 5.86232 3.67314 0
M  V30 16364 H 1072.82 7.84508 2.24507 0
M  V30 16365 H 1070.16 5.73556 0.888715 0
M  V30 16366 H 1069.88 5.9096 3.88638 0
M  V30 16367 H 1068.89 6.66053 2.58894 0
M  V30 16368 H 1070.72 8.16339 3.92049 0
M  V30 16369 H 1070.8 4.33052 4.24913 0
M  V30 16370 H 1070.69 1.9103 4.71577 0
M  V30 16371 H 1070.31 -0.521221 1.95056 0
M  V30 16372 H 1070.5 -0.286429 3.70695 0
M  V30 16373 P 1068.85 8.7635 1.60911 0
M  V30 16374 O 1068.63 10.1388 1.11561 0
M  V30 16375 O 1068.06 8.36503 2.79617 0
M  V30 16376 O 1068.6 7.71806 0.42951 0
M  V30 16377 C 1069.54 7.67148 -0.673689 0
M  V30 16378 C 1068.81 7.33374 -1.95559 0
M  V30 16379 O 1068.6 5.88721 -2.00726 0
M  V30 16380 C 1067.41 7.92526 -2.10483 0
M  V30 16381 O 1067.02 8.02971 -3.47653 0
M  V30 16382 C 1066.53 6.89602 -1.41652 0
M  V30 16383 C 1067.24 5.59201 -1.75185 0
M  V30 16384 N 1067.19 4.58235 -0.662552 0
M  V30 16385 H 1070.03 8.65116 -0.777161 0
M  V30 16386 H 1070.3 6.90173 -0.474152 0
M  V30 16387 H 1069.44 7.66548 -2.79458 0
M  V30 16388 P 1065.47 8.03563 -3.84925 0
M  V30 16389 O 1065.25 8.85821 -5.0569 0
M  V30 16390 O 1064.68 8.41101 -2.65469 0
M  V30 16391 O 1065.22 6.49734 -4.18962 0
M  V30 16392 C 1066.16 5.81037 -5.05421 0
M  V30 16393 C 1065.43 4.79018 -5.88876 0
M  V30 16394 O 1065.22 3.58359 -5.08515 0
M  V30 16395 C 1064.03 5.17448 -6.36119 0
M  V30 16396 O 1063.64 4.45322 -7.53318 0
M  V30 16397 C 1063.15 4.74639 -5.19936 0
M  V30 16398 C 1063.86 3.49432 -4.70418 0
M  V30 16399 N 1063.81 3.31776 -3.22945 0
M  V30 16400 C 1063.66 2.02742 -2.72939 0
M  V30 16401 O 1063.57 1.08301 -3.52749 0
M  V30 16402 N 1063.61 1.96117 -1.22063 0
M  V30 16403 C 1063.71 2.8878 -0.551566 0
M  V30 16404 N 1063.66 2.65609 0.750198 0
M  V30 16405 C 1063.86 4.22457 -1.03707 0
M  V30 16406 C 1063.91 4.37979 -2.39113 0
M  V30 16407 H 1066.65 6.54138 -5.7131 0
M  V30 16408 H 1066.92 5.30492 -4.44033 0
M  V30 16409 H 1066.06 4.55945 -6.76735 0
M  V30 16410 H 1063.4 2.6176 -5.18021 0
M  V30 16411 H 1063.12 5.52233 -4.41941 0
M  V30 16412 H 1062.13 4.52045 -5.53452 0
M  V30 16413 H 1063.96 6.25124 -6.55234 0
M  V30 16414 H 1064.04 5.37936 -2.80552 0
M  V30 16415 H 1063.93 5.07528 -0.359553 0
M  V30 16416 H 1063.55 1.69403 1.09847 0
M  V30 16417 H 1063.74 3.43701 1.41792 0
M  V30 16418 P 1062.09 4.23843 -7.83734 0
M  V30 16419 O 1061.87 4.19407 -9.29784 0
M  V30 16420 O 1061.3 5.24426 -7.09156 0
M  V30 16421 O 1061.84 2.7935 -7.20758 0
M  V30 16422 C 1062.78 1.7299 -7.50419 0
M  V30 16423 C 1062.05 0.406376 -7.57911 0
M  V30 16424 O 1061.84 -0.0897726 -6.21935 0
M  V30 16425 C 1060.65 0.447224 -8.1878 0
M  V30 16426 O 1060.26 -0.825065 -8.71101 0
M  V30 16427 C 1059.77 0.783801 -6.99623 0
M  V30 16428 C 1060.48 0.0619192 -5.85967 0
M  V30 16429 N 1060.43 0.790462 -4.56202 0
M  V30 16430 H 1063.27 1.93423 -8.4679 0
M  V30 16431 H 1063.54 1.68852 -6.70877 0
M  V30 16432 H 1062.68 -0.289041 -8.15388 0
M  V30 16433 H 1060.02 -0.927006 -5.72848 0
M  V30 16434 H 1059.74 1.86973 -6.82036 0
M  V30 16435 H 1058.75 0.403953 -7.13357 0
M  V30 16436 H 1060.58 1.20599 -8.97534 0
M  V30 16437 P 1058.71 -1.17771 -8.83182 0
M  V30 16438 O 1058.49 -2.07206 -9.98732 0
M  V30 16439 O 1057.92 0.0743816 -8.81969 0
M  V30 16440 O 1058.46 -1.97678 -7.474 0
M  V30 16441 C 1059.4 -3.01133 -7.08783 0
M  V30 16442 C 1058.67 -4.1203 -6.37546 0
M  V30 16443 O 1058.46 -3.72887 -4.9796 0
M  V30 16444 C 1057.27 -4.45085 -6.88694 0
M  V30 16445 O 1056.88 -5.78836 -6.56315 0
M  V30 16446 C 1056.39 -3.47817 -6.12078 0
M  V30 16447 C 1057.1 -3.39414 -4.77697 0
M  V30 16448 N 1057.05 -2.04615 -4.15333 0
M  V30 16449 C 1056.9 -1.96929 -2.77162 0
M  V30 16450 O 1056.81 -3.02017 -2.12006 0
M  V30 16451 N 1056.85 -0.55485 -2.24237 0
M  V30 16452 C 1056.95 0.367808 -2.9169 0
M  V30 16453 N 1056.9 1.53426 -2.29427 0
M  V30 16454 C 1057.1 0.319148 -4.33828 0
M  V30 16455 C 1057.15 -0.920672 -4.90433 0
M  V30 16456 H 1059.89 -3.41209 -7.98667 0
M  V30 16457 H 1060.16 -2.5837 -6.41742 0
M  V30 16458 H 1059.3 -5.02718 -6.42752 0
M  V30 16459 H 1056.64 -4.11779 -4.09026 0
M  V30 16460 H 1056.36 -2.49661 -6.61772 0
M  V30 16461 H 1055.37 -3.86674 -6.00946 0
M  V30 16462 H 1057.2 -4.29991 -7.97006 0
M  V30 16463 H 1057.28 -1.00589 -5.98303 0
M  V30 16464 H 1057.17 1.22639 -4.93799 0
M  V30 16465 H 1056.79 1.56819 -1.27167 0
M  V30 16466 H 1056.98 2.41062 -2.83063 0
M  V30 16467 P 1055.33 -6.144 -6.45285 0
M  V30 16468 O 1055.11 -7.54673 -6.86199 0
M  V30 16469 O 1054.54 -5.12391 -7.179 0
M  V30 16470 O 1055.08 -5.99158 -4.88404 0
M  V30 16471 C 1056.02 -6.60234 -3.96415 0
M  V30 16472 C 1055.29 -7.08259 -2.72856 0
M  V30 16473 O 1055.08 -5.9427 -1.83651 0
M  V30 16474 C 1053.89 -7.64886 -2.9555 0
M  V30 16475 O 1053.5 -8.53963 -1.90717 0
M  V30 16476 C 1053.01 -6.4116 -2.90739 0
M  V30 16477 C 1053.72 -5.55375 -1.86963 0
M  V30 16478 N 1053.67 -4.09448 -2.16152 0
M  V30 16479 H 1056.51 -7.45574 -4.45629 0
M  V30 16480 H 1056.78 -5.85864 -3.679 0
M  V30 16481 H 1055.92 -7.84412 -2.24479 0
M  V30 16482 H 1053.26 -5.73457 -0.888562 0
M  V30 16483 H 1052.98 -5.90877 -3.88583 0
M  V30 16484 H 1051.99 -6.6596 -2.58858 0
M  V30 16485 H 1053.82 -8.16339 -3.92049 0
M  V30 16486 P 1051.95 -8.7635 -1.60911 0
M  V30 16487 O 1051.73 -10.1388 -1.11561 0
M  V30 16488 O 1051.16 -8.36503 -2.79617 0
M  V30 16489 O 1051.7 -7.71806 -0.42951 0
M  V30 16490 C 1052.64 -7.67148 0.673689 0
M  V30 16491 C 1051.91 -7.33374 1.95559 0
M  V30 16492 O 1051.7 -5.88721 2.00726 0
M  V30 16493 C 1050.51 -7.92526 2.10483 0
M  V30 16494 O 1050.12 -8.02971 3.47653 0
M  V30 16495 C 1049.63 -6.89602 1.41652 0
M  V30 16496 C 1050.34 -5.59201 1.75185 0
M  V30 16497 N 1050.29 -4.58301 0.657969 0
M  V30 16498 C 1050.37 -4.79019 -0.692603 0
M  V30 16499 N 1050.3 -3.69736 -1.38998 0
M  V30 16500 C 1050.15 -2.70474 -0.438135 0
M  V30 16501 C 1050.02 -1.30327 -0.538142 0
M  V30 16502 N 1050.01 -0.64304 -1.69192 0
M  V30 16503 N 1049.9 -0.611027 0.605183 0
M  V30 16504 C 1049.91 -1.27002 1.75953 0
M  V30 16505 N 1050.03 -2.56038 1.98546 0
M  V30 16506 C 1050.15 -3.22681 0.822541 0
M  V30 16507 H 1053.13 -8.65116 0.777161 0
M  V30 16508 H 1053.4 -6.9022 0.46725 0
M  V30 16509 H 1052.54 -7.66548 2.79458 0
M  V30 16510 H 1049.88 -5.16165 2.65183 0
M  V30 16511 H 1049.6 -7.06433 0.329384 0
M  V30 16512 H 1048.61 -6.90926 1.82021 0
M  V30 16513 H 1050.44 -8.90873 1.62657 0
M  V30 16514 H 1050.49 -5.77785 -1.13874 0
M  V30 16515 H 1050.1 -1.15585 -2.57991 0
M  V30 16516 H 1049.92 0.382989 -1.69835 0
M  V30 16517 H 1049.81 -0.653331 2.64449 0
M  V30 16518 P 1048.57 -8.03563 3.84925 0
M  V30 16519 O 1048.35 -8.85821 5.0569 0
M  V30 16520 O 1047.78 -8.41101 2.65469 0
M  V30 16521 O 1048.32 -6.4965 4.18908 0
M  V30 16522 C 1049.26 -5.81037 5.05421 0
M  V30 16523 C 1048.53 -4.78366 5.89277 0
M  V30 16524 O 1048.32 -3.58302 5.08433 0
M  V30 16525 C 1047.13 -5.17448 6.36119 0
M  V30 16526 O 1046.74 -4.45271 7.53232 0
M  V30 16527 C 1046.25 -4.74639 5.19936 0
M  V30 16528 C 1046.96 -3.49432 4.70418 0
M  V30 16529 N 1046.91 -3.31776 3.22945 0
M  V30 16530 H 1049.75 -6.54213 5.71376 0
M  V30 16531 H 1050.02 -5.30492 4.44033 0
M  V30 16532 H 1049.16 -4.55889 6.76652 0
M  V30 16533 P 1045.19 -4.23843 7.83734 0
M  V30 16534 O 1044.97 -4.19407 9.29784 0
M  V30 16535 O 1044.4 -5.24426 7.09156 0
M  V30 16536 O 1044.94 -2.7935 7.20758 0
M  V30 16537 C 1045.88 -1.7299 7.50419 0
M  V30 16538 C 1045.15 -0.406376 7.57911 0
M  V30 16539 O 1044.94 0.0897726 6.21935 0
M  V30 16540 C 1043.75 -0.447224 8.1878 0
M  V30 16541 O 1043.36 0.825065 8.71101 0
M  V30 16542 C 1042.87 -0.783801 6.99623 0
M  V30 16543 C 1043.58 -0.0619192 5.85967 0
M  V30 16544 N 1043.53 -0.7859 4.56281 0
M  V30 16545 H 1046.37 -1.93423 8.4679 0
M  V30 16546 H 1046.64 -1.68181 6.71046 0
M  V30 16547 H 1045.78 0.289041 8.15388 0
M  V30 16548 P 1041.81 1.17771 8.83182 0
M  V30 16549 O 1041.59 2.07206 9.98732 0
M  V30 16550 O 1041.02 -0.0743816 8.81969 0
M  V30 16551 O 1041.56 1.97652 7.47304 0
M  V30 16552 C 1042.5 3.01133 7.08783 0
M  V30 16553 C 1041.77 4.12613 6.37049 0
M  V30 16554 O 1041.56 3.72827 4.97879 0
M  V30 16555 C 1040.37 4.45085 6.88694 0
M  V30 16556 O 1039.98 5.7877 6.5624 0
M  V30 16557 C 1039.49 3.47817 6.12078 0
M  V30 16558 C 1040.2 3.39414 4.77697 0
M  V30 16559 N 1040.15 2.04615 4.15333 0
M  V30 16560 H 1042.99 3.41248 7.98759 0
M  V30 16561 H 1043.26 2.5837 6.41742 0
M  V30 16562 H 1042.4 5.02657 6.42673 0
M  V30 16563 P 1038.43 6.144 6.45285 0
M  V30 16564 O 1038.21 7.54673 6.86199 0
M  V30 16565 O 1037.64 5.12391 7.179 0
M  V30 16566 O 1038.18 5.99158 4.88404 0
M  V30 16567 C 1039.12 6.60234 3.96415 0
M  V30 16568 C 1038.39 7.08259 2.72856 0
M  V30 16569 O 1038.18 5.9427 1.83651 0
M  V30 16570 C 1036.99 7.64886 2.9555 0
M  V30 16571 O 1036.6 8.53963 1.90717 0
M  V30 16572 C 1036.11 6.4116 2.90739 0
M  V30 16573 C 1036.82 5.55375 1.86963 0
M  V30 16574 N 1036.77 4.09664 2.15742 0
M  V30 16575 H 1039.61 7.45574 4.45629 0
M  V30 16576 H 1039.88 5.86232 3.67314 0
M  V30 16577 H 1039.02 7.84412 2.24479 0
M  V30 16578 P 1035.05 8.7635 1.60911 0
M  V30 16579 O 1034.83 10.1388 1.11561 0
M  V30 16580 O 1034.26 8.36503 2.79617 0
M  V30 16581 O 1034.8 7.71806 0.42951 0
M  V30 16582 C 1035.74 7.67148 -0.673689 0
M  V30 16583 C 1035.01 7.33374 -1.95559 0
M  V30 16584 O 1034.8 5.88721 -2.00726 0
M  V30 16585 C 1033.61 7.92526 -2.10483 0
M  V30 16586 O 1033.22 8.02971 -3.47653 0
M  V30 16587 C 1032.73 6.89602 -1.41652 0
M  V30 16588 C 1033.44 5.59201 -1.75185 0
M  V30 16589 N 1033.39 4.58235 -0.662552 0
M  V30 16590 H 1036.23 8.65116 -0.777161 0
M  V30 16591 H 1036.5 6.90173 -0.474152 0
M  V30 16592 H 1035.64 7.66548 -2.79458 0
M  V30 16593 P 1031.67 8.03563 -3.84925 0
M  V30 16594 O 1031.45 8.85821 -5.0569 0
M  V30 16595 O 1030.88 8.41101 -2.65469 0
M  V30 16596 O 1031.42 6.49734 -4.18962 0
M  V30 16597 C 1032.36 5.81037 -5.05421 0
M  V30 16598 C 1031.63 4.79018 -5.88876 0
M  V30 16599 O 1031.42 3.58359 -5.08515 0
M  V30 16600 C 1030.23 5.17448 -6.36119 0
M  V30 16601 O 1029.84 4.45322 -7.53318 0
M  V30 16602 C 1029.35 4.74639 -5.19936 0
M  V30 16603 C 1030.06 3.49432 -4.70418 0
M  V30 16604 N 1030.01 3.31776 -3.22945 0
M  V30 16605 C 1029.86 2.02742 -2.72939 0
M  V30 16606 O 1029.77 1.08301 -3.52749 0
M  V30 16607 N 1029.81 1.96117 -1.22063 0
M  V30 16608 C 1029.91 2.8878 -0.551566 0
M  V30 16609 N 1029.86 2.65609 0.750198 0
M  V30 16610 C 1030.06 4.22457 -1.03707 0
M  V30 16611 C 1030.11 4.37979 -2.39113 0
M  V30 16612 H 1032.85 6.54138 -5.7131 0
M  V30 16613 H 1033.12 5.30492 -4.44033 0
M  V30 16614 H 1032.26 4.55945 -6.76735 0
M  V30 16615 H 1029.6 2.6176 -5.18021 0
M  V30 16616 H 1029.32 5.52233 -4.41941 0
M  V30 16617 H 1028.33 4.52045 -5.53452 0
M  V30 16618 H 1030.16 6.25124 -6.55234 0
M  V30 16619 H 1030.24 5.37936 -2.80552 0
M  V30 16620 H 1030.13 5.07528 -0.359553 0
M  V30 16621 H 1029.75 1.69403 1.09847 0
M  V30 16622 H 1029.94 3.43701 1.41792 0
M  V30 16623 P 1028.29 4.23843 -7.83734 0
M  V30 16624 O 1028.07 4.19407 -9.29784 0
M  V30 16625 O 1027.5 5.24426 -7.09156 0
M  V30 16626 O 1028.04 2.79386 -7.20852 0
M  V30 16627 C 1028.98 1.7299 -7.50419 0
M  V30 16628 C 1028.25 0.41401 -7.5797 0
M  V30 16629 O 1028.04 -0.089787 -6.22035 0
M  V30 16630 C 1026.85 0.447224 -8.1878 0
M  V30 16631 O 1026.46 -0.825159 -8.71201 0
M  V30 16632 C 1025.97 0.783801 -6.99623 0
M  V30 16633 C 1026.68 0.0619192 -5.85967 0
M  V30 16634 N 1026.63 0.7859 -4.56281 0
M  V30 16635 C 1026.48 0.0359258 -3.39981 0
M  V30 16636 O 1026.39 -1.19723 -3.49038 0
M  V30 16637 N 1026.43 0.869151 -2.14025 0
M  V30 16638 C 1026.53 2.01207 -2.14363 0
M  V30 16639 N 1026.48 2.58978 -0.954287 0
M  V30 16640 C 1026.68 2.80817 -3.32215 0
M  V30 16641 C 1026.73 2.13785 -4.50884 0
M  V30 16642 H 1029.47 1.93401 -8.46693 0
M  V30 16643 H 1029.74 1.68181 -6.71046 0
M  V30 16644 H 1028.88 -0.289076 -8.15488 0
M  V30 16645 H 1026.22 -0.927166 -5.72947 0
M  V30 16646 H 1025.94 1.87 -6.82132 0
M  V30 16647 H 1024.95 0.404009 -7.13457 0
M  V30 16648 H 1026.78 1.20599 -8.97534 0
M  V30 16649 H 1026.86 2.70295 -5.43162 0
M  V30 16650 H 1026.75 3.89465 -3.27406 0
M  V30 16651 H 1026.37 2.01616 -0.107046 0
M  V30 16652 H 1026.56 3.61403 -0.873101 0
M  V30 16653 P 1024.91 -1.17771 -8.83182 0
M  V30 16654 O 1024.69 -2.07206 -9.98732 0
M  V30 16655 O 1024.12 0.0743816 -8.81969 0
M  V30 16656 O 1024.66 -1.97652 -7.47304 0
M  V30 16657 C 1025.6 -3.01055 -7.08599 0
M  V30 16658 C 1024.87 -4.12613 -6.37049 0
M  V30 16659 O 1024.66 -3.72827 -4.97879 0
M  V30 16660 C 1023.47 -4.45719 -6.88164 0
M  V30 16661 O 1023.08 -5.7877 -6.5624 0
M  V30 16662 C 1022.59 -3.47768 -6.11991 0
M  V30 16663 C 1023.3 -3.39356 -4.77615 0
M  V30 16664 N 1023.25 -2.04571 -4.15244 0
M  V30 16665 C 1023.1 -1.98587 -2.78314 0
M  V30 16666 O 1023.01 -2.98134 -2.08835 0
M  V30 16667 N 1023.06 -0.714467 -2.24925 0
M  V30 16668 C 1023.15 0.470001 -2.94169 0
M  V30 16669 C 1023.3 0.312541 -4.36783 0
M  V30 16670 C 1023.35 -0.914512 -4.92583 0
M  V30 16671 H 1026.09 -3.41169 -7.98575 0
M  V30 16672 H 1026.36 -2.58295 -6.41556 0
M  V30 16673 H 1025.5 -5.02657 -6.42673 0
M  V30 16674 H 1022.84 -4.11637 -4.08885 0
M  V30 16675 H 1022.56 -2.49626 -6.61679 0
M  V30 16676 H 1021.57 -3.86566 -6.00778 0
M  V30 16677 H 1023.4 -4.29943 -7.96918 0
M  V30 16678 H 1023.48 -1.00937 -6.00374 0
M  V30 16679 P 1021.53 -6.144 -6.45285 0
M  V30 16680 O 1021.31 -7.54673 -6.86199 0
M  V30 16681 O 1020.74 -5.12391 -7.179 0
M  V30 16682 O 1021.28 -5.99158 -4.88404 0
M  V30 16683 C 1022.22 -6.60062 -3.96313 0
M  V30 16684 C 1021.49 -7.08259 -2.72856 0
M  V30 16685 O 1021.28 -5.9427 -1.83651 0
M  V30 16686 C 1020.09 -7.65087 -2.94749 0
M  V30 16687 O 1019.7 -8.53963 -1.90717 0
M  V30 16688 C 1019.21 -6.41069 -2.90698 0
M  V30 16689 C 1019.92 -5.5528 -1.86931 0
M  V30 16690 N 1019.87 -4.09575 -2.15696 0
M  V30 16691 C 1019.72 -3.24249 -1.08435 0
M  V30 16692 O 1019.63 -3.63946 0.0628747 0
M  V30 16693 N 1019.68 -1.90009 -1.39973 0
M  V30 16694 C 1019.77 -1.34884 -2.65614 0
M  V30 16695 O 1019.72 -0.123716 -2.81728 0
M  V30 16696 C 1019.92 -2.3145 -3.71736 0
M  V30 16697 C 1020.03 -1.75913 -5.10438 0
M  V30 16698 C 1019.97 -3.63518 -3.44754 0
M  V30 16699 H 1022.71 -7.45402 -4.45526 0
M  V30 16700 H 1022.98 -5.86062 -3.67208 0
M  V30 16701 H 1022.12 -7.84412 -2.24479 0
M  V30 16702 H 1019.46 -5.73358 -0.888409 0
M  V30 16703 H 1019.18 -5.90877 -3.88583 0
M  V30 16704 H 1018.19 -6.65867 -2.58821 0
M  V30 16705 H 1020.02 -8.16248 -3.92006 0
M  V30 16706 H 1020.1 -4.34551 -4.26383 0
M  V30 16707 H 1019.07 -1.85471 -5.61775 0
M  V30 16708 H 1020.8 -2.31364 -5.66257 0
M  V30 16709 H 1020.31 -0.695936 -5.05229 0
M  V30 16710 H 1019.58 -1.26277 -0.63625 0
M  V30 16711 P 1018.15 -8.7635 -1.60911 0
M  V30 16712 O 1017.93 -10.1388 -1.11561 0
M  V30 16713 O 1017.36 -8.36503 -2.79617 0
M  V30 16714 O 1017.9 -7.71906 -0.429565 0
M  V30 16715 C 1018.84 -7.67148 0.673689 0
M  V30 16716 C 1018.11 -7.33666 1.94851 0
M  V30 16717 O 1017.9 -5.88816 2.00759 0
M  V30 16718 C 1016.71 -7.92526 2.10483 0
M  V30 16719 O 1016.32 -8.03063 3.47693 0
M  V30 16720 C 1015.83 -6.89602 1.41652 0
M  V30 16721 C 1016.54 -5.59201 1.75185 0
M  V30 16722 N 1016.49 -4.58235 0.662552 0
M  V30 16723 C 1016.34 -3.24451 1.01643 0
M  V30 16724 O 1016.25 -2.94958 2.21722 0
M  V30 16725 N 1016.29 -2.30408 -0.165238 0
M  V30 16726 C 1016.39 -2.66048 -1.25118 0
M  V30 16727 N 1016.34 -1.70787 -2.16813 0
M  V30 16728 C 1016.54 -4.02732 -1.64413 0
M  V30 16729 C 1016.59 -4.9488 -0.63991 0
M  V30 16730 H 1019.33 -8.65017 0.777072 0
M  V30 16731 H 1019.6 -6.90173 0.474152 0
M  V30 16732 H 1018.74 -7.66642 2.79492 0
M  V30 16733 H 1016.08 -5.16254 2.65229 0
M  V30 16734 H 1015.8 -7.06532 0.329431 0
M  V30 16735 H 1014.81 -6.91023 1.82047 0
M  V30 16736 H 1016.65 -8.90873 1.62657 0
M  V30 16737 H 1016.72 -6.00104 -0.892197 0
M  V30 16738 H 1016.62 -4.31733 -2.69229 0
M  V30 16739 H 1016.23 -0.724835 -1.8844 0
M  V30 16740 H 1016.42 -1.94716 -3.16734 0
M  V30 16741 P 1014.77 -8.03563 3.84925 0
M  V30 16742 O 1014.55 -8.85821 5.0569 0
M  V30 16743 O 1013.98 -8.41101 2.65469 0
M  V30 16744 O 1014.52 -6.4965 4.18908 0
M  V30 16745 C 1015.46 -5.81037 5.05421 0
M  V30 16746 C 1014.73 -4.78366 5.89277 0
M  V30 16747 O 1014.52 -3.58302 5.08433 0
M  V30 16748 C 1013.33 -5.17448 6.36119 0
M  V30 16749 O 1012.94 -4.45271 7.53232 0
M  V30 16750 C 1012.45 -4.74639 5.19936 0
M  V30 16751 C 1013.16 -3.49432 4.70418 0
M  V30 16752 N 1013.11 -3.31776 3.22945 0
M  V30 16753 H 1015.95 -6.54213 5.71376 0
M  V30 16754 H 1016.23 -5.30492 4.44033 0
M  V30 16755 H 1015.36 -4.55889 6.76652 0
M  V30 16756 P 1011.39 -4.23843 7.83734 0
M  V30 16757 O 1011.17 -4.19407 9.29784 0
M  V30 16758 O 1010.6 -5.24426 7.09156 0
M  V30 16759 O 1011.14 -2.7935 7.20758 0
M  V30 16760 C 1012.08 -1.7299 7.50419 0
M  V30 16761 C 1011.35 -0.406376 7.57911 0
M  V30 16762 O 1011.14 0.0897726 6.21935 0
M  V30 16763 C 1009.95 -0.447224 8.1878 0
M  V30 16764 O 1009.56 0.825065 8.71101 0
M  V30 16765 C 1009.07 -0.783801 6.99623 0
M  V30 16766 C 1009.78 -0.0619192 5.85967 0
M  V30 16767 N 1009.73 -0.790462 4.56202 0
M  V30 16768 C 1009.81 -2.13895 4.34171 0
M  V30 16769 N 1009.74 -2.46449 3.08687 0
M  V30 16770 C 1009.59 -1.2525 2.43697 0
M  V30 16771 C 1009.46 -0.914535 1.07318 0
M  V30 16772 N 1009.45 -1.80782 0.0887348 0
M  V30 16773 N 1009.34 0.386745 0.768133 0
M  V30 16774 C 1009.35 1.28096 1.75159 0
M  V30 16775 N 1009.47 1.09708 3.04861 0
M  V30 16776 C 1009.59 -0.214857 3.32306 0
M  V30 16777 H 1012.57 -1.93423 8.4679 0
M  V30 16778 H 1012.85 -1.68852 6.70877 0
M  V30 16779 H 1011.98 0.289041 8.15388 0
M  V30 16780 H 1009.32 0.927006 5.72848 0
M  V30 16781 H 1009.04 -1.86973 6.82036 0
M  V30 16782 H 1008.05 -0.403953 7.13357 0
M  V30 16783 H 1009.89 -1.20599 8.97534 0
M  V30 16784 H 1009.93 -2.86846 5.14318 0
M  V30 16785 H 1009.55 -2.81082 0.302037 0
M  V30 16786 H 1009.36 -1.49688 -0.889064 0
M  V30 16787 H 1009.25 2.31317 1.43855 0
M  V30 16788 P 1008.01 1.17771 8.83182 0
M  V30 16789 O 1007.79 2.07206 9.98732 0
M  V30 16790 O 1007.22 -0.0743816 8.81969 0
M  V30 16791 O 1007.76 1.97652 7.47304 0
M  V30 16792 C 1008.7 3.01133 7.08783 0
M  V30 16793 C 1007.97 4.12613 6.37049 0
M  V30 16794 O 1007.76 3.72827 4.97879 0
M  V30 16795 C 1006.57 4.45085 6.88694 0
M  V30 16796 O 1006.18 5.7877 6.5624 0
M  V30 16797 C 1005.69 3.47817 6.12078 0
M  V30 16798 C 1006.4 3.39414 4.77697 0
M  V30 16799 N 1006.35 2.04199 4.15538 0
M  V30 16800 H 1009.19 3.41248 7.98759 0
M  V30 16801 H 1009.47 2.57728 6.42 0
M  V30 16802 H 1008.6 5.02657 6.42673 0
M  V30 16803 H 1005.94 4.11708 4.08956 0
M  V30 16804 H 1005.66 2.49626 6.61679 0
M  V30 16805 H 1004.67 3.8662 6.00862 0
M  V30 16806 H 1006.51 4.29991 7.97006 0
M  V30 16807 P 1004.63 6.144 6.45285 0
M  V30 16808 O 1004.41 7.54673 6.86199 0
M  V30 16809 O 1003.84 5.12391 7.179 0
M  V30 16810 O 1004.38 5.99158 4.88404 0
M  V30 16811 C 1005.32 6.60234 3.96415 0
M  V30 16812 C 1004.59 7.08259 2.72856 0
M  V30 16813 O 1004.38 5.9427 1.83651 0
M  V30 16814 C 1003.19 7.64886 2.9555 0
M  V30 16815 O 1002.8 8.53963 1.90717 0
M  V30 16816 C 1002.31 6.4116 2.90739 0
M  V30 16817 C 1003.02 5.55375 1.86963 0
M  V30 16818 N 1002.97 4.09448 2.16152 0
M  V30 16819 H 1005.81 7.45574 4.45629 0
M  V30 16820 H 1006.09 5.85864 3.679 0
M  V30 16821 H 1005.22 7.84412 2.24479 0
M  V30 16822 H 1002.56 5.73457 0.888562 0
M  V30 16823 H 1002.28 5.90877 3.88583 0
M  V30 16824 H 1001.29 6.6596 2.58858 0
M  V30 16825 H 1003.13 8.16339 3.92049 0
M  V30 16826 P 1001.25 8.7635 1.60911 0
M  V30 16827 O 1001.03 10.1388 1.11561 0
M  V30 16828 O 1000.46 8.36503 2.79617 0
M  V30 16829 O 1001 7.71806 0.42951 0
M  V30 16830 C 1001.94 7.67148 -0.673689 0
M  V30 16831 C 1001.21 7.33374 -1.95559 0
M  V30 16832 O 1001 5.88721 -2.00726 0
M  V30 16833 C 999.814 7.92526 -2.10483 0
M  V30 16834 O 999.424 8.02971 -3.47653 0
M  V30 16835 C 998.934 6.89602 -1.41652 0
M  V30 16836 C 999.644 5.59201 -1.75185 0
M  V30 16837 N 999.594 4.58235 -0.662552 0
M  V30 16838 H 1002.43 8.65116 -0.777161 0
M  V30 16839 H 1002.71 6.90173 -0.474152 0
M  V30 16840 H 1001.84 7.66548 -2.79458 0
M  V30 16841 P 997.874 8.03563 -3.84925 0
M  V30 16842 O 997.654 8.85821 -5.0569 0
M  V30 16843 O 997.084 8.41101 -2.65469 0
M  V30 16844 O 997.624 6.4965 -4.18908 0
M  V30 16845 C 998.564 5.81037 -5.05421 0
M  V30 16846 C 997.834 4.78366 -5.89277 0
M  V30 16847 O 997.624 3.58302 -5.08433 0
M  V30 16848 C 996.434 5.17448 -6.36119 0
M  V30 16849 O 996.044 4.45271 -7.53232 0
M  V30 16850 C 995.554 4.74639 -5.19936 0
M  V30 16851 C 996.264 3.49432 -4.70418 0
M  V30 16852 N 996.214 3.31776 -3.22945 0
M  V30 16853 H 999.053 6.54213 -5.71376 0
M  V30 16854 H 999.325 5.30492 -4.44033 0
M  V30 16855 H 998.457 4.55889 -6.76652 0
M  V30 16856 P 994.494 4.23843 -7.83734 0
M  V30 16857 O 994.274 4.19407 -9.29784 0
M  V30 16858 O 993.704 5.24426 -7.09156 0
M  V30 16859 O 994.244 2.79386 -7.20852 0
M  V30 16860 C 995.184 1.7299 -7.50419 0
M  V30 16861 C 994.454 0.41401 -7.5797 0
M  V30 16862 O 994.244 -0.089787 -6.22035 0
M  V30 16863 C 993.054 0.447224 -8.1878 0
M  V30 16864 O 992.664 -0.825159 -8.71201 0
M  V30 16865 C 992.174 0.783801 -6.99623 0
M  V30 16866 C 992.884 0.0619192 -5.85967 0
M  V30 16867 N 992.834 0.7859 -4.56281 0
M  V30 16868 C 992.684 0.0359258 -3.39981 0
M  V30 16869 O 992.594 -1.19723 -3.49038 0
M  V30 16870 N 992.634 0.869151 -2.14025 0
M  V30 16871 C 992.734 2.01207 -2.14363 0
M  V30 16872 N 992.684 2.58978 -0.954287 0
M  V30 16873 C 992.884 2.80817 -3.32215 0
M  V30 16874 C 992.934 2.13785 -4.50884 0
M  V30 16875 H 995.674 1.93401 -8.46693 0
M  V30 16876 H 995.944 1.68181 -6.71046 0
M  V30 16877 H 995.077 -0.289076 -8.15488 0
M  V30 16878 H 992.422 -0.927166 -5.72947 0
M  V30 16879 H 992.142 1.87 -6.82132 0
M  V30 16880 H 991.151 0.404009 -7.13457 0
M  V30 16881 H 992.985 1.20599 -8.97534 0
M  V30 16882 H 993.057 2.70295 -5.43162 0
M  V30 16883 H 992.955 3.89465 -3.27406 0
M  V30 16884 H 992.567 2.01616 -0.107046 0
M  V30 16885 H 992.763 3.61403 -0.873101 0
M  V30 16886 P 991.114 -1.17771 -8.83182 0
M  V30 16887 O 990.894 -2.07206 -9.98732 0
M  V30 16888 O 990.324 0.0743816 -8.81969 0
M  V30 16889 O 990.864 -1.97652 -7.47304 0
M  V30 16890 C 991.804 -3.01133 -7.08783 0
M  V30 16891 C 991.074 -4.12613 -6.37049 0
M  V30 16892 O 990.864 -3.72827 -4.97879 0
M  V30 16893 C 989.674 -4.45085 -6.88694 0
M  V30 16894 O 989.284 -5.7877 -6.5624 0
M  V30 16895 C 988.794 -3.47817 -6.12078 0
M  V30 16896 C 989.504 -3.39414 -4.77697 0
M  V30 16897 N 989.454 -2.04199 -4.15538 0
M  V30 16898 C 989.534 -0.821545 -4.76977 0
M  V30 16899 N 989.464 0.1794 -3.94592 0
M  V30 16900 C 989.314 -0.419121 -2.70776 0
M  V30 16901 C 989.184 0.109072 -1.40577 0
M  V30 16902 N 989.174 1.4104 -1.1344 0
M  V30 16903 N 989.064 -0.764381 -0.39411 0
M  V30 16904 C 989.074 -2.06587 -0.664135 0
M  V30 16905 N 989.194 -2.67948 -1.82153 0
M  V30 16906 C 989.314 -1.77942 -2.8147 0
M  V30 16907 H 992.293 -3.41248 -7.98759 0
M  V30 16908 H 992.565 -2.57728 -6.42 0
M  V30 16909 H 991.697 -5.02657 -6.42673 0
M  V30 16910 H 989.042 -4.11708 -4.08956 0
M  V30 16911 H 988.762 -2.49626 -6.61679 0
M  V30 16912 H 987.771 -3.8662 -6.00862 0
M  V30 16913 H 989.605 -4.29991 -7.97006 0
M  V30 16914 H 989.646 -0.702451 -5.84696 0
M  V30 16915 H 989.265 2.09647 -1.89651 0
M  V30 16916 H 989.076 1.73358 -0.160575 0
M  V30 16917 H 988.968 -2.71695 0.195838 0
M  V30 16918 P 987.734 -6.144 -6.45285 0
M  V30 16919 O 987.514 -7.54673 -6.86199 0
M  V30 16920 O 986.944 -5.12391 -7.179 0
M  V30 16921 O 987.484 -5.99158 -4.88404 0
M  V30 16922 C 988.424 -6.60234 -3.96415 0
M  V30 16923 C 987.694 -7.08259 -2.72856 0
M  V30 16924 O 987.484 -5.9427 -1.83651 0
M  V30 16925 C 986.294 -7.64886 -2.9555 0
M  V30 16926 O 985.904 -8.53963 -1.90717 0
M  V30 16927 C 985.414 -6.4116 -2.90739 0
M  V30 16928 C 986.124 -5.55375 -1.86963 0
M  V30 16929 N 986.074 -4.09664 -2.15742 0
M  V30 16930 C 986.154 -3.44381 -3.37233 0
M  V30 16931 N 986.074 -2.14131 -3.28347 0
M  V30 16932 C 985.934 -1.90247 -1.91588 0
M  V30 16933 C 985.804 -0.683992 -1.20892 0
M  V30 16934 O 985.784 0.46618 -1.64523 0
M  V30 16935 N 985.684 -0.903396 0.173998 0
M  V30 16936 C 985.684 -2.14171 0.784879 0
M  V30 16937 N 985.554 -2.1435 2.11317 0
M  V30 16938 N 985.814 -3.28784 0.119316 0
M  V30 16939 C 985.934 -3.0977 -1.22194 0
M  V30 16940 H 988.913 -7.45574 -4.45629 0
M  V30 16941 H 989.185 -5.86232 -3.67314 0
M  V30 16942 H 988.317 -7.84412 -2.24479 0
M  V30 16943 H 985.662 -5.73556 -0.888715 0
M  V30 16944 H 985.382 -5.9096 -3.88638 0
M  V30 16945 H 984.391 -6.66053 -2.58894 0
M  V30 16946 H 986.225 -8.16429 -3.92093 0
M  V30 16947 H 986.274 -3.96785 -4.32043 0
M  V30 16948 H 985.592 -0.0999567 0.761467 0
M  V30 16949 H 985.555 -3.03436 2.63076 0
M  V30 16950 H 985.454 -1.25228 2.62233 0
M  V30 16951 P 984.354 -8.7635 -1.60911 0
M  V30 16952 O 984.134 -10.1388 -1.11561 0
M  V30 16953 O 983.564 -8.36503 -2.79617 0
M  V30 16954 O 984.104 -7.71906 -0.429565 0
M  V30 16955 C 985.044 -7.67148 0.673689 0
M  V30 16956 C 984.314 -7.33666 1.94851 0
M  V30 16957 O 984.104 -5.88816 2.00759 0
M  V30 16958 C 982.914 -7.92526 2.10483 0
M  V30 16959 O 982.524 -8.03063 3.47693 0
M  V30 16960 C 982.034 -6.89602 1.41652 0
M  V30 16961 C 982.744 -5.59201 1.75185 0
M  V30 16962 N 982.694 -4.58235 0.662552 0
M  V30 16963 C 982.544 -3.24451 1.01643 0
M  V30 16964 O 982.454 -2.94958 2.21722 0
M  V30 16965 N 982.494 -2.30408 -0.165238 0
M  V30 16966 C 982.594 -2.66048 -1.25118 0
M  V30 16967 N 982.544 -1.70787 -2.16813 0
M  V30 16968 C 982.744 -4.02732 -1.64413 0
M  V30 16969 C 982.794 -4.9488 -0.63991 0
M  V30 16970 H 985.534 -8.65017 0.777072 0
M  V30 16971 H 985.804 -6.90173 0.474152 0
M  V30 16972 H 984.937 -7.66642 2.79492 0
M  V30 16973 H 982.282 -5.16254 2.65229 0
M  V30 16974 H 982.002 -7.06532 0.329431 0
M  V30 16975 H 981.011 -6.91023 1.82047 0
M  V30 16976 H 982.845 -8.90873 1.62657 0
M  V30 16977 H 982.917 -6.00104 -0.892197 0
M  V30 16978 H 982.815 -4.31733 -2.69229 0
M  V30 16979 H 982.427 -0.724835 -1.8844 0
M  V30 16980 H 982.623 -1.94716 -3.16734 0
M  V30 16981 P 980.974 -8.03563 3.84925 0
M  V30 16982 O 980.754 -8.85821 5.0569 0
M  V30 16983 O 980.184 -8.41101 2.65469 0
M  V30 16984 O 980.724 -6.4965 4.18908 0
M  V30 16985 C 981.664 -5.81037 5.05421 0
M  V30 16986 C 980.934 -4.78366 5.89277 0
M  V30 16987 O 980.724 -3.58302 5.08433 0
M  V30 16988 C 979.534 -5.17448 6.36119 0
M  V30 16989 O 979.144 -4.45271 7.53232 0
M  V30 16990 C 978.654 -4.74639 5.19936 0
M  V30 16991 C 979.364 -3.49432 4.70418 0
M  V30 16992 N 979.314 -3.32099 3.22613 0
M  V30 16993 H 982.153 -6.54213 5.71376 0
M  V30 16994 H 982.425 -5.30936 4.43503 0
M  V30 16995 H 981.557 -4.55889 6.76652 0
M  V30 16996 H 978.902 -2.61715 5.17932 0
M  V30 16997 H 978.622 -5.52155 4.41878 0
M  V30 16998 H 977.631 -4.51981 5.53374 0
M  V30 16999 H 979.465 -6.25124 6.55234 0
M  V30 17000 P 977.594 -4.23843 7.83734 0
M  V30 17001 O 977.374 -4.19407 9.29784 0
M  V30 17002 O 976.804 -5.24426 7.09156 0
M  V30 17003 O 977.344 -2.7935 7.20758 0
M  V30 17004 C 978.284 -1.7299 7.50419 0
M  V30 17005 C 977.554 -0.406376 7.57911 0
M  V30 17006 O 977.344 0.0897726 6.21935 0
M  V30 17007 C 976.154 -0.447224 8.1878 0
M  V30 17008 O 975.764 0.825065 8.71101 0
M  V30 17009 C 975.274 -0.783801 6.99623 0
M  V30 17010 C 975.984 -0.0619192 5.85967 0
M  V30 17011 N 975.934 -0.7859 4.56281 0
M  V30 17012 H 978.773 -1.93423 8.4679 0
M  V30 17013 H 979.045 -1.68181 6.71046 0
M  V30 17014 H 978.177 0.289041 8.15388 0
M  V30 17015 P 974.214 1.17771 8.83182 0
M  V30 17016 O 973.994 2.07206 9.98732 0
M  V30 17017 O 973.424 -0.0743816 8.81969 0
M  V30 17018 O 973.964 1.97652 7.47304 0
M  V30 17019 C 974.904 3.01133 7.08783 0
M  V30 17020 C 974.174 4.12613 6.37049 0
M  V30 17021 O 973.964 3.72827 4.97879 0
M  V30 17022 C 972.774 4.45085 6.88694 0
M  V30 17023 O 972.384 5.7877 6.5624 0
M  V30 17024 C 971.894 3.47817 6.12078 0
M  V30 17025 C 972.604 3.39414 4.77697 0
M  V30 17026 N 972.554 2.04615 4.15333 0
M  V30 17027 H 975.393 3.41248 7.98759 0
M  V30 17028 H 975.665 2.5837 6.41742 0
M  V30 17029 H 974.797 5.02657 6.42673 0
M  V30 17030 P 970.834 6.144 6.45285 0
M  V30 17031 O 970.614 7.54673 6.86199 0
M  V30 17032 O 970.044 5.12391 7.179 0
M  V30 17033 O 970.584 5.99158 4.88404 0
M  V30 17034 C 971.524 6.60234 3.96415 0
M  V30 17035 C 970.794 7.08259 2.72856 0
M  V30 17036 O 970.584 5.9427 1.83651 0
M  V30 17037 C 969.394 7.64886 2.9555 0
M  V30 17038 O 969.004 8.53963 1.90717 0
M  V30 17039 C 968.514 6.4116 2.90739 0
M  V30 17040 C 969.224 5.55375 1.86963 0
M  V30 17041 N 969.174 4.09664 2.15742 0
M  V30 17042 H 972.013 7.45574 4.45629 0
M  V30 17043 H 972.285 5.86232 3.67314 0
M  V30 17044 H 971.417 7.84412 2.24479 0
M  V30 17045 P 967.454 8.7635 1.60911 0
M  V30 17046 O 967.234 10.1388 1.11561 0
M  V30 17047 O 966.664 8.36503 2.79617 0
M  V30 17048 O 967.204 7.71906 0.429565 0
M  V30 17049 C 968.144 7.67148 -0.673689 0
M  V30 17050 C 967.414 7.33666 -1.94851 0
M  V30 17051 O 967.204 5.88816 -2.00759 0
M  V30 17052 C 966.014 7.92526 -2.10483 0
M  V30 17053 O 965.624 8.03063 -3.47693 0
M  V30 17054 C 965.134 6.89602 -1.41652 0
M  V30 17055 C 965.844 5.59201 -1.75185 0
M  V30 17056 N 965.794 4.58235 -0.662552 0
M  V30 17057 C 965.644 3.24451 -1.01643 0
M  V30 17058 O 965.554 2.94958 -2.21722 0
M  V30 17059 N 965.594 2.30408 0.165238 0
M  V30 17060 C 965.694 2.66048 1.25118 0
M  V30 17061 N 965.644 1.70787 2.16813 0
M  V30 17062 C 965.844 4.02732 1.64413 0
M  V30 17063 C 965.894 4.9488 0.63991 0
M  V30 17064 H 968.634 8.65017 -0.777072 0
M  V30 17065 H 968.904 6.90173 -0.474152 0
M  V30 17066 H 968.037 7.66642 -2.79492 0
M  V30 17067 H 965.382 5.16254 -2.65229 0
M  V30 17068 H 965.102 7.06532 -0.329431 0
M  V30 17069 H 964.111 6.91023 -1.82047 0
M  V30 17070 H 965.945 8.90873 -1.62657 0
M  V30 17071 H 966.017 6.00104 0.892197 0
M  V30 17072 H 965.915 4.31733 2.69229 0
M  V30 17073 H 965.527 0.724835 1.8844 0
M  V30 17074 H 965.723 1.94716 3.16734 0
M  V30 17075 P 964.074 8.03563 -3.84925 0
M  V30 17076 O 963.854 8.85821 -5.0569 0
M  V30 17077 O 963.284 8.41101 -2.65469 0
M  V30 17078 O 963.824 6.4965 -4.18908 0
M  V30 17079 C 964.764 5.81037 -5.05421 0
M  V30 17080 C 964.034 4.78366 -5.89277 0
M  V30 17081 O 963.824 3.58302 -5.08433 0
M  V30 17082 C 962.634 5.17448 -6.36119 0
M  V30 17083 O 962.244 4.45271 -7.53232 0
M  V30 17084 C 961.754 4.74639 -5.19936 0
M  V30 17085 C 962.464 3.49432 -4.70418 0
M  V30 17086 N 962.414 3.31776 -3.22945 0
M  V30 17087 H 965.253 6.54213 -5.71376 0
M  V30 17088 H 965.525 5.30492 -4.44033 0
M  V30 17089 H 964.657 4.55889 -6.76652 0
M  V30 17090 P 960.694 4.23843 -7.83734 0
M  V30 17091 O 960.474 4.19407 -9.29784 0
M  V30 17092 O 959.904 5.24426 -7.09156 0
M  V30 17093 O 960.444 2.7935 -7.20758 0
M  V30 17094 C 961.384 1.7299 -7.50419 0
M  V30 17095 C 960.654 0.406376 -7.57911 0
M  V30 17096 O 960.444 -0.0897726 -6.21935 0
M  V30 17097 C 959.254 0.447224 -8.1878 0
M  V30 17098 O 958.864 -0.825065 -8.71101 0
M  V30 17099 C 958.374 0.783801 -6.99623 0
M  V30 17100 C 959.084 0.0619192 -5.85967 0
M  V30 17101 N 959.034 0.790462 -4.56202 0
M  V30 17102 H 961.873 1.93423 -8.4679 0
M  V30 17103 H 962.145 1.68852 -6.70877 0
M  V30 17104 H 961.277 -0.289041 -8.15388 0
M  V30 17105 H 958.622 -0.927006 -5.72848 0
M  V30 17106 H 958.342 1.86973 -6.82036 0
M  V30 17107 H 957.351 0.403953 -7.13357 0
M  V30 17108 H 959.185 1.20599 -8.97534 0
M  V30 17109 P 957.314 -1.17771 -8.83182 0
M  V30 17110 O 957.094 -2.07206 -9.98732 0
M  V30 17111 O 956.524 0.0743816 -8.81969 0
M  V30 17112 O 957.064 -1.97652 -7.47304 0
M  V30 17113 C 958.004 -3.01133 -7.08783 0
M  V30 17114 C 957.274 -4.12613 -6.37049 0
M  V30 17115 O 957.064 -3.72827 -4.97879 0
M  V30 17116 C 955.874 -4.45085 -6.88694 0
M  V30 17117 O 955.484 -5.7877 -6.5624 0
M  V30 17118 C 954.994 -3.47817 -6.12078 0
M  V30 17119 C 955.704 -3.39414 -4.77697 0
M  V30 17120 N 955.654 -2.04615 -4.15333 0
M  V30 17121 H 958.493 -3.41248 -7.98759 0
M  V30 17122 H 958.765 -2.5837 -6.41742 0
M  V30 17123 H 957.897 -5.02657 -6.42673 0
M  V30 17124 P 953.934 -6.144 -6.45285 0
M  V30 17125 O 953.714 -7.54673 -6.86199 0
M  V30 17126 O 953.144 -5.12391 -7.179 0
M  V30 17127 O 953.684 -5.99158 -4.88404 0
M  V30 17128 C 954.624 -6.60234 -3.96415 0
M  V30 17129 C 953.894 -7.08259 -2.72856 0
M  V30 17130 O 953.684 -5.9427 -1.83651 0
M  V30 17131 C 952.494 -7.64886 -2.9555 0
M  V30 17132 O 952.104 -8.53963 -1.90717 0
M  V30 17133 C 951.614 -6.4116 -2.90739 0
M  V30 17134 C 952.324 -5.55375 -1.86963 0
M  V30 17135 N 952.274 -4.09664 -2.15742 0
M  V30 17136 H 955.113 -7.45574 -4.45629 0
M  V30 17137 H 955.385 -5.86232 -3.67314 0
M  V30 17138 H 954.517 -7.84412 -2.24479 0
M  V30 17139 P 950.554 -8.7635 -1.60911 0
M  V30 17140 O 950.334 -10.1388 -1.11561 0
M  V30 17141 O 949.764 -8.36503 -2.79617 0
M  V30 17142 O 950.304 -7.71806 -0.42951 0
M  V30 17143 C 951.244 -7.67148 0.673689 0
M  V30 17144 C 950.514 -7.33374 1.95559 0
M  V30 17145 O 950.304 -5.88721 2.00726 0
M  V30 17146 C 949.114 -7.92526 2.10483 0
M  V30 17147 O 948.724 -8.02971 3.47653 0
M  V30 17148 C 948.234 -6.89602 1.41652 0
M  V30 17149 C 948.944 -5.59201 1.75185 0
M  V30 17150 N 948.894 -4.58301 0.657969 0
M  V30 17151 H 951.733 -8.65116 0.777161 0
M  V30 17152 H 952.005 -6.9022 0.46725 0
M  V30 17153 H 951.137 -7.66548 2.79458 0
M  V30 17154 H 948.482 -5.16165 2.65183 0
M  V30 17155 H 948.202 -7.06433 0.329384 0
M  V30 17156 H 947.211 -6.90926 1.82021 0
M  V30 17157 H 949.045 -8.90873 1.62657 0
M  V30 17158 P 947.174 -8.03563 3.84925 0
M  V30 17159 O 946.954 -8.85821 5.0569 0
M  V30 17160 O 946.384 -8.41101 2.65469 0
M  V30 17161 O 946.924 -6.4965 4.18908 0
M  V30 17162 C 947.864 -5.81037 5.05421 0
M  V30 17163 C 947.134 -4.78366 5.89277 0
M  V30 17164 O 946.924 -3.58302 5.08433 0
M  V30 17165 C 945.734 -5.17448 6.36119 0
M  V30 17166 O 945.344 -4.45271 7.53232 0
M  V30 17167 C 944.854 -4.74639 5.19936 0
M  V30 17168 C 945.564 -3.49432 4.70418 0
M  V30 17169 N 945.514 -3.32099 3.22613 0
M  V30 17170 H 948.353 -6.54213 5.71376 0
M  V30 17171 H 948.625 -5.30936 4.43503 0
M  V30 17172 H 947.757 -4.55889 6.76652 0
M  V30 17173 H 945.102 -2.61715 5.17932 0
M  V30 17174 H 944.822 -5.52155 4.41878 0
M  V30 17175 H 943.831 -4.51981 5.53374 0
M  V30 17176 H 945.665 -6.25124 6.55234 0
M  V30 17177 P 943.794 -4.23843 7.83734 0
M  V30 17178 O 943.574 -4.19407 9.29784 0
M  V30 17179 O 943.004 -5.24426 7.09156 0
M  V30 17180 O 943.544 -2.7935 7.20758 0
M  V30 17181 C 944.484 -1.7299 7.50419 0
M  V30 17182 C 943.754 -0.406376 7.57911 0
M  V30 17183 O 943.544 0.0897726 6.21935 0
M  V30 17184 C 942.354 -0.447224 8.1878 0
M  V30 17185 O 941.964 0.825065 8.71101 0
M  V30 17186 C 941.474 -0.783801 6.99623 0
M  V30 17187 C 942.184 -0.0619192 5.85967 0
M  V30 17188 N 942.134 -0.7859 4.56281 0
M  V30 17189 H 944.973 -1.93423 8.4679 0
M  V30 17190 H 945.245 -1.68181 6.71046 0
M  V30 17191 H 944.377 0.289041 8.15388 0
M  V30 17192 P 940.414 1.17771 8.83182 0
M  V30 17193 O 940.194 2.07206 9.98732 0
M  V30 17194 O 939.624 -0.0743816 8.81969 0
M  V30 17195 O 940.164 1.97652 7.47304 0
M  V30 17196 C 941.104 3.01133 7.08783 0
M  V30 17197 C 940.374 4.12613 6.37049 0
M  V30 17198 O 940.164 3.72827 4.97879 0
M  V30 17199 C 938.974 4.45085 6.88694 0
M  V30 17200 O 938.584 5.7877 6.5624 0
M  V30 17201 C 938.094 3.47817 6.12078 0
M  V30 17202 C 938.804 3.39414 4.77697 0
M  V30 17203 N 938.754 2.04615 4.15333 0
M  V30 17204 H 941.593 3.41248 7.98759 0
M  V30 17205 H 941.865 2.5837 6.41742 0
M  V30 17206 H 940.997 5.02657 6.42673 0
M  V30 17207 P 937.034 6.144 6.45285 0
M  V30 17208 O 936.814 7.54673 6.86199 0
M  V30 17209 O 936.244 5.12391 7.179 0
M  V30 17210 O 936.784 5.99158 4.88404 0
M  V30 17211 C 937.724 6.60234 3.96415 0
M  V30 17212 C 936.994 7.08259 2.72856 0
M  V30 17213 O 936.784 5.9427 1.83651 0
M  V30 17214 C 935.594 7.64886 2.9555 0
M  V30 17215 O 935.204 8.53963 1.90717 0
M  V30 17216 C 934.714 6.4116 2.90739 0
M  V30 17217 C 935.424 5.55375 1.86963 0
M  V30 17218 N 935.374 4.09664 2.15742 0
M  V30 17219 H 938.213 7.45574 4.45629 0
M  V30 17220 H 938.485 5.86232 3.67314 0
M  V30 17221 H 937.617 7.84412 2.24479 0
M  V30 17222 P 933.655 8.7635 1.60911 0
M  V30 17223 O 933.435 10.1388 1.11561 0
M  V30 17224 O 932.865 8.36503 2.79617 0
M  V30 17225 O 933.405 7.71806 0.42951 0
M  V30 17226 C 934.345 7.66948 -0.673514 0
M  V30 17227 C 933.615 7.33374 -1.95559 0
M  V30 17228 O 933.405 5.88721 -2.00726 0
M  V30 17229 C 932.215 7.92218 -2.1125 0
M  V30 17230 O 931.825 8.02971 -3.47653 0
M  V30 17231 C 931.335 6.89504 -1.41631 0
M  V30 17232 C 932.045 5.59106 -1.75155 0
M  V30 17233 N 931.995 4.58136 -0.662409 0
M  V30 17234 C 931.845 3.26059 -1.02863 0
M  V30 17235 O 931.755 2.90743 -2.19009 0
M  V30 17236 N 931.805 2.35995 0.0155585 0
M  V30 17237 C 931.895 2.65248 1.35603 0
M  V30 17238 C 932.045 4.05747 1.64698 0
M  V30 17239 C 932.095 4.96734 0.652411 0
M  V30 17240 H 934.836 8.64917 -0.776982 0
M  V30 17241 H 935.105 6.89974 -0.474015 0
M  V30 17242 H 934.238 7.66548 -2.79458 0
M  V30 17243 H 931.583 5.16076 -2.65138 0
M  V30 17244 H 931.304 7.06433 -0.329384 0
M  V30 17245 H 930.312 6.90829 -1.81996 0
M  V30 17246 H 932.146 8.90774 -1.62639 0
M  V30 17247 H 932.217 6.02181 0.895285 0
M  V30 17248 P 930.275 8.03563 -3.84925 0
M  V30 17249 O 930.055 8.85821 -5.0569 0
M  V30 17250 O 929.485 8.41101 -2.65469 0
M  V30 17251 O 930.025 6.4965 -4.18908 0
M  V30 17252 C 930.965 5.81037 -5.05421 0
M  V30 17253 C 930.235 4.78366 -5.89277 0
M  V30 17254 O 930.025 3.58302 -5.08433 0
M  V30 17255 C 928.835 5.17448 -6.36119 0
M  V30 17256 O 928.445 4.45271 -7.53232 0
M  V30 17257 C 927.955 4.74639 -5.19936 0
M  V30 17258 C 928.665 3.49432 -4.70418 0
M  V30 17259 N 928.615 3.31776 -3.22945 0
M  V30 17260 H 931.454 6.54213 -5.71376 0
M  V30 17261 H 931.726 5.30492 -4.44033 0
M  V30 17262 H 930.858 4.55889 -6.76652 0
M  V30 17263 P 926.895 4.23843 -7.83734 0
M  V30 17264 O 926.675 4.19407 -9.29784 0
M  V30 17265 O 926.105 5.24426 -7.09156 0
M  V30 17266 O 926.645 2.7935 -7.20758 0
M  V30 17267 C 927.585 1.72945 -7.50224 0
M  V30 17268 C 926.855 0.406376 -7.57911 0
M  V30 17269 O 926.645 -0.0897726 -6.21935 0
M  V30 17270 C 925.455 0.438983 -8.18724 0
M  V30 17271 O 925.065 -0.825065 -8.71101 0
M  V30 17272 C 924.575 0.783689 -6.99524 0
M  V30 17273 C 925.285 0.0619086 -5.85867 0
M  V30 17274 N 925.235 0.78573 -4.56183 0
M  V30 17275 C 925.085 0.0292889 -3.41887 0
M  V30 17276 O 924.995 -1.18445 -3.4419 0
M  V30 17277 N 925.045 0.744061 -2.23964 0
M  V30 17278 C 925.135 2.10932 -2.10362 0
M  V30 17279 C 925.285 2.8202 -3.34994 0
M  V30 17280 C 925.335 2.15547 -4.52261 0
M  V30 17281 H 928.076 1.93379 -8.46595 0
M  V30 17282 H 928.345 1.68132 -6.70852 0
M  V30 17283 H 927.478 -0.289041 -8.15388 0
M  V30 17284 H 924.823 -0.926847 -5.72749 0
M  V30 17285 H 924.544 1.86973 -6.82036 0
M  V30 17286 H 923.552 0.403896 -7.13257 0
M  V30 17287 H 925.386 1.20585 -8.97435 0
M  V30 17288 H 925.457 2.71231 -5.45042 0
M  V30 17289 P 923.515 -1.17771 -8.83182 0
M  V30 17290 O 923.295 -2.07206 -9.98732 0
M  V30 17291 O 922.725 0.0743816 -8.81969 0
M  V30 17292 O 923.265 -1.97652 -7.47304 0
M  V30 17293 C 924.205 -3.01133 -7.08783 0
M  V30 17294 C 923.475 -4.12613 -6.37049 0
M  V30 17295 O 923.265 -3.72827 -4.97879 0
M  V30 17296 C 922.075 -4.45085 -6.88694 0
M  V30 17297 O 921.685 -5.7877 -6.5624 0
M  V30 17298 C 921.195 -3.47817 -6.12078 0
M  V30 17299 C 921.905 -3.39414 -4.77697 0
M  V30 17300 N 921.855 -2.04615 -4.15333 0
M  V30 17301 H 924.694 -3.41248 -7.98759 0
M  V30 17302 H 924.966 -2.5837 -6.41742 0
M  V30 17303 H 924.098 -5.02657 -6.42673 0
M  V30 17304 P 920.135 -6.144 -6.45285 0
M  V30 17305 O 919.915 -7.54673 -6.86199 0
M  V30 17306 O 919.345 -5.12391 -7.179 0
M  V30 17307 O 919.885 -5.99158 -4.88404 0
M  V30 17308 C 920.825 -6.60062 -3.96313 0
M  V30 17309 C 920.095 -7.08259 -2.72856 0
M  V30 17310 O 919.885 -5.9427 -1.83651 0
M  V30 17311 C 918.695 -7.65087 -2.94749 0
M  V30 17312 O 918.305 -8.53963 -1.90717 0
M  V30 17313 C 917.815 -6.41069 -2.90698 0
M  V30 17314 C 918.525 -5.5528 -1.86931 0
M  V30 17315 N 918.475 -4.09575 -2.15696 0
M  V30 17316 C 918.325 -3.24249 -1.08435 0
M  V30 17317 O 918.235 -3.63946 0.0628747 0
M  V30 17318 N 918.285 -1.90009 -1.39973 0
M  V30 17319 C 918.375 -1.34884 -2.65614 0
M  V30 17320 C 918.525 -2.3145 -3.71736 0
M  V30 17321 C 918.575 -3.63518 -3.44754 0
M  V30 17322 H 921.316 -7.45402 -4.45526 0
M  V30 17323 H 921.585 -5.86062 -3.67208 0
M  V30 17324 H 920.718 -7.84412 -2.24479 0
M  V30 17325 H 918.063 -5.73358 -0.888409 0
M  V30 17326 H 917.784 -5.90877 -3.88583 0
M  V30 17327 H 916.792 -6.65867 -2.58821 0
M  V30 17328 H 918.626 -8.16248 -3.92006 0
M  V30 17329 H 918.697 -4.34551 -4.26383 0
M  V30 17330 P 916.755 -8.7635 -1.60911 0
M  V30 17331 O 916.535 -10.1388 -1.11561 0
M  V30 17332 O 915.965 -8.36503 -2.79617 0
M  V30 17333 O 916.505 -7.71806 -0.42951 0
M  V30 17334 C 917.445 -7.67148 0.673689 0
M  V30 17335 C 916.715 -7.33374 1.95559 0
M  V30 17336 O 916.505 -5.88721 2.00726 0
M  V30 17337 C 915.315 -7.92526 2.10483 0
M  V30 17338 O 914.925 -8.02971 3.47653 0
M  V30 17339 C 914.435 -6.89602 1.41652 0
M  V30 17340 C 915.145 -5.59201 1.75185 0
M  V30 17341 N 915.095 -4.58235 0.662552 0
M  V30 17342 H 917.934 -8.65116 0.777161 0
M  V30 17343 H 918.206 -6.90173 0.474152 0
M  V30 17344 H 917.338 -7.66548 2.79458 0
M  V30 17345 P 913.375 -8.03563 3.84925 0
M  V30 17346 O 913.155 -8.85821 5.0569 0
M  V30 17347 O 912.585 -8.41101 2.65469 0
M  V30 17348 O 913.125 -6.4965 4.18908 0
M  V30 17349 C 914.065 -5.81037 5.05421 0
M  V30 17350 C 913.335 -4.78366 5.89277 0
M  V30 17351 O 913.125 -3.58302 5.08433 0
M  V30 17352 C 911.935 -5.17448 6.36119 0
M  V30 17353 O 911.545 -4.45271 7.53232 0
M  V30 17354 C 911.055 -4.74639 5.19936 0
M  V30 17355 C 911.765 -3.49432 4.70418 0
M  V30 17356 N 911.715 -3.32099 3.22613 0
M  V30 17357 H 914.554 -6.54213 5.71376 0
M  V30 17358 H 914.826 -5.30936 4.43503 0
M  V30 17359 H 913.958 -4.55889 6.76652 0
M  V30 17360 H 911.303 -2.61715 5.17932 0
M  V30 17361 H 911.023 -5.52155 4.41878 0
M  V30 17362 H 910.032 -4.51981 5.53374 0
M  V30 17363 H 911.866 -6.25124 6.55234 0
M  V30 17364 P 909.995 -4.23843 7.83734 0
M  V30 17365 O 909.775 -4.19407 9.29784 0
M  V30 17366 O 909.205 -5.24426 7.09156 0
M  V30 17367 O 909.745 -2.7935 7.20758 0
M  V30 17368 C 910.685 -1.7299 7.50419 0
M  V30 17369 C 909.955 -0.406376 7.57911 0
M  V30 17370 O 909.745 0.0897726 6.21935 0
M  V30 17371 C 908.555 -0.447224 8.1878 0
M  V30 17372 O 908.165 0.825065 8.71101 0
M  V30 17373 C 907.675 -0.783801 6.99623 0
M  V30 17374 C 908.385 -0.0619192 5.85967 0
M  V30 17375 N 908.335 -0.7859 4.56281 0
M  V30 17376 H 911.174 -1.93423 8.4679 0
M  V30 17377 H 911.446 -1.68181 6.71046 0
M  V30 17378 H 910.578 0.289041 8.15388 0
M  V30 17379 P 906.615 1.17771 8.83182 0
M  V30 17380 O 906.395 2.07206 9.98732 0
M  V30 17381 O 905.825 -0.0743816 8.81969 0
M  V30 17382 O 906.365 1.97652 7.47304 0
M  V30 17383 C 907.305 3.01055 7.08599 0
M  V30 17384 C 906.575 4.12613 6.37049 0
M  V30 17385 O 906.365 3.72827 4.97879 0
M  V30 17386 C 905.175 4.45719 6.88164 0
M  V30 17387 O 904.785 5.7877 6.5624 0
M  V30 17388 C 904.295 3.47768 6.11991 0
M  V30 17389 C 905.005 3.39356 4.77615 0
M  V30 17390 N 904.955 2.04571 4.15244 0
M  V30 17391 C 904.805 1.98587 2.78314 0
M  V30 17392 O 904.715 2.98134 2.08835 0
M  V30 17393 N 904.765 0.714467 2.24925 0
M  V30 17394 C 904.855 -0.470001 2.94169 0
M  V30 17395 O 904.805 -1.55587 2.35195 0
M  V30 17396 C 905.005 -0.312541 4.36783 0
M  V30 17397 C 905.115 -1.57711 5.16352 0
M  V30 17398 C 905.055 0.914512 4.92583 0
M  V30 17399 H 907.796 3.41169 7.98575 0
M  V30 17400 H 908.065 2.58295 6.41556 0
M  V30 17401 H 907.198 5.02657 6.42673 0
M  V30 17402 H 904.543 4.11637 4.08885 0
M  V30 17403 H 904.264 2.49626 6.61679 0
M  V30 17404 H 903.272 3.86566 6.00778 0
M  V30 17405 H 905.106 4.29943 7.96918 0
M  V30 17406 H 905.177 1.00937 6.00374 0
M  V30 17407 H 904.147 -1.80153 5.63503 0
M  V30 17408 H 905.884 -1.4566 5.94104 0
M  V30 17409 H 905.396 -2.40664 4.49645 0
M  V30 17410 H 904.66 0.647622 1.25697 0
M  V30 17411 P 903.235 6.144 6.45285 0
M  V30 17412 O 903.015 7.54673 6.86199 0
M  V30 17413 O 902.445 5.12391 7.179 0
M  V30 17414 O 902.985 5.99158 4.88404 0
M  V30 17415 C 903.925 6.60234 3.96415 0
M  V30 17416 C 903.195 7.08259 2.72856 0
M  V30 17417 O 902.985 5.9427 1.83651 0
M  V30 17418 C 901.795 7.64886 2.9555 0
M  V30 17419 O 901.405 8.53963 1.90717 0
M  V30 17420 C 900.915 6.4116 2.90739 0
M  V30 17421 C 901.625 5.55375 1.86963 0
M  V30 17422 N 901.575 4.09448 2.16152 0
M  V30 17423 H 904.414 7.45574 4.45629 0
M  V30 17424 H 904.686 5.85864 3.679 0
M  V30 17425 H 903.818 7.84412 2.24479 0
M  V30 17426 H 901.163 5.73457 0.888562 0
M  V30 17427 H 900.883 5.90877 3.88583 0
M  V30 17428 H 899.892 6.6596 2.58858 0
M  V30 17429 H 901.726 8.16339 3.92049 0
M  V30 17430 P 899.855 8.7635 1.60911 0
M  V30 17431 O 899.635 10.1388 1.11561 0
M  V30 17432 O 899.065 8.36503 2.79617 0
M  V30 17433 O 899.605 7.71806 0.42951 0
M  V30 17434 C 900.545 7.67148 -0.673689 0
M  V30 17435 C 899.815 7.33374 -1.95559 0
M  V30 17436 O 899.605 5.88721 -2.00726 0
M  V30 17437 C 898.415 7.92526 -2.10483 0
M  V30 17438 O 898.025 8.02971 -3.47653 0
M  V30 17439 C 897.535 6.89602 -1.41652 0
M  V30 17440 C 898.245 5.59201 -1.75185 0
M  V30 17441 N 898.195 4.58235 -0.662552 0
M  V30 17442 H 901.034 8.65116 -0.777161 0
M  V30 17443 H 901.306 6.90173 -0.474152 0
M  V30 17444 H 900.438 7.66548 -2.79458 0
M  V30 17445 P 896.475 8.03563 -3.84925 0
M  V30 17446 O 896.255 8.85821 -5.0569 0
M  V30 17447 O 895.685 8.41101 -2.65469 0
M  V30 17448 O 896.225 6.4965 -4.18908 0
M  V30 17449 C 897.165 5.81037 -5.05421 0
M  V30 17450 C 896.435 4.78366 -5.89277 0
M  V30 17451 O 896.225 3.58302 -5.08433 0
M  V30 17452 C 895.035 5.17448 -6.36119 0
M  V30 17453 O 894.645 4.45271 -7.53232 0
M  V30 17454 C 894.155 4.74639 -5.19936 0
M  V30 17455 C 894.865 3.49432 -4.70418 0
M  V30 17456 N 894.815 3.31776 -3.22945 0
M  V30 17457 H 897.654 6.54213 -5.71376 0
M  V30 17458 H 897.926 5.30492 -4.44033 0
M  V30 17459 H 897.058 4.55889 -6.76652 0
M  V30 17460 P 893.095 4.23843 -7.83734 0
M  V30 17461 O 892.875 4.19407 -9.29784 0
M  V30 17462 O 892.305 5.24426 -7.09156 0
M  V30 17463 O 892.845 2.79386 -7.20852 0
M  V30 17464 C 893.785 1.7299 -7.50419 0
M  V30 17465 C 893.055 0.41401 -7.5797 0
M  V30 17466 O 892.845 -0.089787 -6.22035 0
M  V30 17467 C 891.655 0.447224 -8.1878 0
M  V30 17468 O 891.265 -0.825159 -8.71201 0
M  V30 17469 C 890.775 0.783801 -6.99623 0
M  V30 17470 C 891.485 0.0619192 -5.85967 0
M  V30 17471 N 891.435 0.7859 -4.56281 0
M  V30 17472 C 891.285 0.0359258 -3.39981 0
M  V30 17473 O 891.195 -1.19723 -3.49038 0
M  V30 17474 N 891.235 0.869151 -2.14025 0
M  V30 17475 C 891.335 2.01207 -2.14363 0
M  V30 17476 N 891.285 2.58978 -0.954287 0
M  V30 17477 C 891.485 2.80817 -3.32215 0
M  V30 17478 C 891.535 2.13785 -4.50884 0
M  V30 17479 H 894.275 1.93401 -8.46693 0
M  V30 17480 H 894.545 1.68181 -6.71046 0
M  V30 17481 H 893.678 -0.289076 -8.15488 0
M  V30 17482 H 891.023 -0.927166 -5.72947 0
M  V30 17483 H 890.743 1.87 -6.82132 0
M  V30 17484 H 889.752 0.404009 -7.13457 0
M  V30 17485 H 891.586 1.20599 -8.97534 0
M  V30 17486 H 891.658 2.70295 -5.43162 0
M  V30 17487 H 891.556 3.89465 -3.27406 0
M  V30 17488 H 891.168 2.01616 -0.107046 0
M  V30 17489 H 891.364 3.61403 -0.873101 0
M  V30 17490 P 889.715 -1.17771 -8.83182 0
M  V30 17491 O 889.495 -2.07206 -9.98732 0
M  V30 17492 O 888.925 0.0743816 -8.81969 0
M  V30 17493 O 889.465 -1.97652 -7.47304 0
M  V30 17494 C 890.405 -3.01133 -7.08783 0
M  V30 17495 C 889.675 -4.12613 -6.37049 0
M  V30 17496 O 889.465 -3.72827 -4.97879 0
M  V30 17497 C 888.275 -4.45085 -6.88694 0
M  V30 17498 O 887.885 -5.7877 -6.5624 0
M  V30 17499 C 887.395 -3.47817 -6.12078 0
M  V30 17500 C 888.105 -3.39414 -4.77697 0
M  V30 17501 N 888.055 -2.04199 -4.15538 0
M  V30 17502 H 890.894 -3.41248 -7.98759 0
M  V30 17503 H 891.166 -2.57728 -6.42 0
M  V30 17504 H 890.298 -5.02657 -6.42673 0
M  V30 17505 H 887.643 -4.11708 -4.08956 0
M  V30 17506 H 887.363 -2.49626 -6.61679 0
M  V30 17507 H 886.372 -3.8662 -6.00862 0
M  V30 17508 H 888.206 -4.29991 -7.97006 0
M  V30 17509 P 886.335 -6.144 -6.45285 0
M  V30 17510 O 886.115 -7.54673 -6.86199 0
M  V30 17511 O 885.545 -5.12391 -7.179 0
M  V30 17512 O 886.085 -5.99158 -4.88404 0
M  V30 17513 C 887.025 -6.60234 -3.96415 0
M  V30 17514 C 886.295 -7.08259 -2.72856 0
M  V30 17515 O 886.085 -5.9427 -1.83651 0
M  V30 17516 C 884.895 -7.64886 -2.9555 0
M  V30 17517 O 884.505 -8.53963 -1.90717 0
M  V30 17518 C 884.015 -6.4116 -2.90739 0
M  V30 17519 C 884.725 -5.55375 -1.86963 0
M  V30 17520 N 884.675 -4.09664 -2.15742 0
M  V30 17521 H 887.514 -7.45574 -4.45629 0
M  V30 17522 H 887.786 -5.86232 -3.67314 0
M  V30 17523 H 886.918 -7.84412 -2.24479 0
M  V30 17524 P 882.955 -8.7635 -1.60911 0
M  V30 17525 O 882.735 -10.1388 -1.11561 0
M  V30 17526 O 882.165 -8.36503 -2.79617 0
M  V30 17527 O 882.705 -7.71806 -0.42951 0
M  V30 17528 C 883.645 -7.67148 0.673689 0
M  V30 17529 C 882.915 -7.33374 1.95559 0
M  V30 17530 O 882.705 -5.88721 2.00726 0
M  V30 17531 C 881.515 -7.92526 2.10483 0
M  V30 17532 O 881.125 -8.02971 3.47653 0
M  V30 17533 C 880.635 -6.89602 1.41652 0
M  V30 17534 C 881.345 -5.59201 1.75185 0
M  V30 17535 N 881.295 -4.58235 0.662552 0
M  V30 17536 H 884.134 -8.65116 0.777161 0
M  V30 17537 H 884.406 -6.90173 0.474152 0
M  V30 17538 H 883.538 -7.66548 2.79458 0
M  V30 17539 P 879.575 -8.03563 3.84925 0
M  V30 17540 O 879.355 -8.85821 5.0569 0
M  V30 17541 O 878.785 -8.41101 2.65469 0
M  V30 17542 O 879.325 -6.4965 4.18908 0
M  V30 17543 C 880.265 -5.81037 5.05421 0
M  V30 17544 C 879.535 -4.78366 5.89277 0
M  V30 17545 O 879.325 -3.58302 5.08433 0
M  V30 17546 C 878.135 -5.17448 6.36119 0
M  V30 17547 O 877.745 -4.45271 7.53232 0
M  V30 17548 C 877.255 -4.74639 5.19936 0
M  V30 17549 C 877.965 -3.49432 4.70418 0
M  V30 17550 N 877.915 -3.31776 3.22945 0
M  V30 17551 H 880.754 -6.54213 5.71376 0
M  V30 17552 H 881.026 -5.30492 4.44033 0
M  V30 17553 H 880.158 -4.55889 6.76652 0
M  V30 17554 P 876.195 -4.23843 7.83734 0
M  V30 17555 O 875.975 -4.19407 9.29784 0
M  V30 17556 O 875.405 -5.24426 7.09156 0
M  V30 17557 O 875.945 -2.7935 7.20758 0
M  V30 17558 C 876.885 -1.7299 7.50419 0
M  V30 17559 C 876.155 -0.406376 7.57911 0
M  V30 17560 O 875.945 0.0897726 6.21935 0
M  V30 17561 C 874.755 -0.447224 8.1878 0
M  V30 17562 O 874.365 0.825065 8.71101 0
M  V30 17563 C 873.875 -0.783801 6.99623 0
M  V30 17564 C 874.585 -0.0619192 5.85967 0
M  V30 17565 N 874.535 -0.7859 4.56281 0
M  V30 17566 H 877.374 -1.93423 8.4679 0
M  V30 17567 H 877.646 -1.68181 6.71046 0
M  V30 17568 H 876.778 0.289041 8.15388 0
M  V30 17569 P 872.815 1.17771 8.83182 0
M  V30 17570 O 872.595 2.07206 9.98732 0
M  V30 17571 O 872.025 -0.0743816 8.81969 0
M  V30 17572 O 872.565 1.97678 7.474 0
M  V30 17573 C 873.505 3.01133 7.08783 0
M  V30 17574 C 872.775 4.1203 6.37546 0
M  V30 17575 O 872.565 3.72887 4.9796 0
M  V30 17576 C 871.375 4.45085 6.88694 0
M  V30 17577 O 870.985 5.78836 6.56315 0
M  V30 17578 C 870.495 3.47817 6.12078 0
M  V30 17579 C 871.205 3.39414 4.77697 0
M  V30 17580 N 871.155 2.04615 4.15333 0
M  V30 17581 C 871.005 1.96929 2.77162 0
M  V30 17582 O 870.915 3.02017 2.12006 0
M  V30 17583 N 870.955 0.55485 2.24237 0
M  V30 17584 C 871.055 -0.367808 2.9169 0
M  V30 17585 N 871.005 -1.53426 2.29427 0
M  V30 17586 C 871.205 -0.319148 4.33828 0
M  V30 17587 C 871.255 0.920672 4.90433 0
M  V30 17588 H 873.995 3.41209 7.98667 0
M  V30 17589 H 874.265 2.5837 6.41742 0
M  V30 17590 H 873.398 5.02718 6.42752 0
M  V30 17591 H 870.743 4.11779 4.09026 0
M  V30 17592 H 870.463 2.49661 6.61772 0
M  V30 17593 H 869.472 3.86674 6.00946 0
M  V30 17594 H 871.306 4.29991 7.97006 0
M  V30 17595 H 871.378 1.00589 5.98303 0
M  V30 17596 H 871.276 -1.22639 4.93799 0
M  V30 17597 H 870.888 -1.56819 1.27167 0
M  V30 17598 H 871.084 -2.41062 2.83063 0
M  V30 17599 P 869.435 6.144 6.45285 0
M  V30 17600 O 869.215 7.54673 6.86199 0
M  V30 17601 O 868.645 5.12391 7.179 0
M  V30 17602 O 869.185 5.99158 4.88404 0
M  V30 17603 C 870.125 6.60062 3.96313 0
M  V30 17604 C 869.395 7.08259 2.72856 0
M  V30 17605 O 869.185 5.9427 1.83651 0
M  V30 17606 C 867.995 7.65087 2.94749 0
M  V30 17607 O 867.605 8.53963 1.90717 0
M  V30 17608 C 867.115 6.41069 2.90698 0
M  V30 17609 C 867.825 5.5528 1.86931 0
M  V30 17610 N 867.775 4.09575 2.15696 0
M  V30 17611 C 867.625 3.24249 1.08435 0
M  V30 17612 O 867.535 3.63946 -0.0628747 0
M  V30 17613 N 867.585 1.90009 1.39973 0
M  V30 17614 C 867.675 1.34884 2.65614 0
M  V30 17615 O 867.625 0.123716 2.81728 0
M  V30 17616 C 867.825 2.3145 3.71736 0
M  V30 17617 C 867.935 1.75913 5.10438 0
M  V30 17618 C 867.875 3.63518 3.44754 0
M  V30 17619 H 870.616 7.45402 4.45526 0
M  V30 17620 H 870.885 5.86062 3.67208 0
M  V30 17621 H 870.018 7.84412 2.24479 0
M  V30 17622 H 867.363 5.73358 0.888409 0
M  V30 17623 H 867.084 5.90877 3.88583 0
M  V30 17624 H 866.092 6.65867 2.58821 0
M  V30 17625 H 867.926 8.16248 3.92006 0
M  V30 17626 H 867.997 4.34551 4.26383 0
M  V30 17627 H 866.967 1.85471 5.61775 0
M  V30 17628 H 868.704 2.31364 5.66257 0
M  V30 17629 H 868.216 0.695936 5.05229 0
M  V30 17630 H 867.48 1.26277 0.63625 0
M  V30 17631 P 866.055 8.7635 1.60911 0
M  V30 17632 O 865.835 10.1388 1.11561 0
M  V30 17633 O 865.265 8.36503 2.79617 0
M  V30 17634 O 865.805 7.71806 0.42951 0
M  V30 17635 C 866.745 7.67148 -0.673689 0
M  V30 17636 C 866.015 7.33374 -1.95559 0
M  V30 17637 O 865.805 5.88721 -2.00726 0
M  V30 17638 C 864.615 7.92526 -2.10483 0
M  V30 17639 O 864.225 8.02971 -3.47653 0
M  V30 17640 C 863.735 6.89602 -1.41652 0
M  V30 17641 C 864.445 5.59201 -1.75185 0
M  V30 17642 N 864.395 4.58235 -0.662552 0
M  V30 17643 H 867.234 8.65116 -0.777161 0
M  V30 17644 H 867.506 6.90173 -0.474152 0
M  V30 17645 H 866.638 7.66548 -2.79458 0
M  V30 17646 P 862.675 8.03563 -3.84925 0
M  V30 17647 O 862.455 8.85821 -5.0569 0
M  V30 17648 O 861.885 8.41101 -2.65469 0
M  V30 17649 O 862.425 6.4965 -4.18908 0
M  V30 17650 C 863.365 5.81037 -5.05421 0
M  V30 17651 C 862.635 4.78366 -5.89277 0
M  V30 17652 O 862.425 3.58302 -5.08433 0
M  V30 17653 C 861.235 5.17448 -6.36119 0
M  V30 17654 O 860.845 4.45271 -7.53232 0
M  V30 17655 C 860.355 4.74639 -5.19936 0
M  V30 17656 C 861.065 3.49432 -4.70418 0
M  V30 17657 N 861.015 3.31776 -3.22945 0
M  V30 17658 H 863.854 6.54213 -5.71376 0
M  V30 17659 H 864.126 5.30492 -4.44033 0
M  V30 17660 H 863.258 4.55889 -6.76652 0
M  V30 17661 P 859.295 4.23843 -7.83734 0
M  V30 17662 O 859.075 4.19407 -9.29784 0
M  V30 17663 O 858.505 5.24426 -7.09156 0
M  V30 17664 O 859.045 2.7935 -7.20758 0
M  V30 17665 C 859.985 1.7299 -7.50419 0
M  V30 17666 C 859.255 0.406376 -7.57911 0
M  V30 17667 O 859.045 -0.0897726 -6.21935 0
M  V30 17668 C 857.855 0.447224 -8.1878 0
M  V30 17669 O 857.465 -0.825065 -8.71101 0
M  V30 17670 C 856.975 0.783801 -6.99623 0
M  V30 17671 C 857.685 0.0619192 -5.85967 0
M  V30 17672 N 857.635 0.7859 -4.56281 0
M  V30 17673 H 860.474 1.93423 -8.4679 0
M  V30 17674 H 860.746 1.68181 -6.71046 0
M  V30 17675 H 859.878 -0.289041 -8.15388 0
M  V30 17676 P 855.915 -1.17771 -8.83182 0
M  V30 17677 O 855.695 -2.07206 -9.98732 0
M  V30 17678 O 855.125 0.0743816 -8.81969 0
M  V30 17679 O 855.665 -1.97652 -7.47304 0
M  V30 17680 C 856.605 -3.01133 -7.08783 0
M  V30 17681 C 855.875 -4.12613 -6.37049 0
M  V30 17682 O 855.665 -3.72827 -4.97879 0
M  V30 17683 C 854.475 -4.45085 -6.88694 0
M  V30 17684 O 854.085 -5.7877 -6.5624 0
M  V30 17685 C 853.595 -3.47817 -6.12078 0
M  V30 17686 C 854.305 -3.39414 -4.77697 0
M  V30 17687 N 854.255 -2.04615 -4.15333 0
M  V30 17688 H 857.094 -3.41248 -7.98759 0
M  V30 17689 H 857.366 -2.5837 -6.41742 0
M  V30 17690 H 856.498 -5.02657 -6.42673 0
M  V30 17691 P 852.535 -6.144 -6.45285 0
M  V30 17692 O 852.315 -7.54673 -6.86199 0
M  V30 17693 O 851.745 -5.12391 -7.179 0
M  V30 17694 O 852.285 -5.99158 -4.88404 0
M  V30 17695 C 853.225 -6.60234 -3.96415 0
M  V30 17696 C 852.495 -7.08259 -2.72856 0
M  V30 17697 O 852.285 -5.9427 -1.83651 0
M  V30 17698 C 851.095 -7.64886 -2.9555 0
M  V30 17699 O 850.705 -8.53963 -1.90717 0
M  V30 17700 C 850.215 -6.4116 -2.90739 0
M  V30 17701 C 850.925 -5.55375 -1.86963 0
M  V30 17702 N 850.875 -4.09664 -2.15742 0
M  V30 17703 H 853.714 -7.45574 -4.45629 0
M  V30 17704 H 853.986 -5.86232 -3.67314 0
M  V30 17705 H 853.118 -7.84412 -2.24479 0
M  V30 17706 P 849.155 -8.7635 -1.60911 0
M  V30 17707 O 848.935 -10.1388 -1.11561 0
M  V30 17708 O 848.365 -8.36503 -2.79617 0
M  V30 17709 O 848.905 -7.71806 -0.42951 0
M  V30 17710 C 849.845 -7.67148 0.673689 0
M  V30 17711 C 849.115 -7.33374 1.95559 0
M  V30 17712 O 848.905 -5.88721 2.00726 0
M  V30 17713 C 847.715 -7.92526 2.10483 0
M  V30 17714 O 847.325 -8.02971 3.47653 0
M  V30 17715 C 846.835 -6.89602 1.41652 0
M  V30 17716 C 847.545 -5.59201 1.75185 0
M  V30 17717 N 847.495 -4.58235 0.662552 0
M  V30 17718 H 850.334 -8.65116 0.777161 0
M  V30 17719 H 850.606 -6.90173 0.474152 0
M  V30 17720 H 849.738 -7.66548 2.79458 0
M  V30 17721 P 845.775 -8.03563 3.84925 0
M  V30 17722 O 845.555 -8.85821 5.0569 0
M  V30 17723 O 844.985 -8.41101 2.65469 0
M  V30 17724 O 845.525 -6.4965 4.18908 0
M  V30 17725 C 846.465 -5.81037 5.05421 0
M  V30 17726 C 845.735 -4.78366 5.89277 0
M  V30 17727 O 845.525 -3.58302 5.08433 0
M  V30 17728 C 844.335 -5.17448 6.36119 0
M  V30 17729 O 843.945 -4.45271 7.53232 0
M  V30 17730 C 843.455 -4.74639 5.19936 0
M  V30 17731 C 844.165 -3.49432 4.70418 0
M  V30 17732 N 844.115 -3.31776 3.22945 0
M  V30 17733 H 846.954 -6.54213 5.71376 0
M  V30 17734 H 847.226 -5.30492 4.44033 0
M  V30 17735 H 846.358 -4.55889 6.76652 0
M  V30 17736 P 842.395 -4.23843 7.83734 0
M  V30 17737 O 842.175 -4.19407 9.29784 0
M  V30 17738 O 841.605 -5.24426 7.09156 0
M  V30 17739 O 842.145 -2.7935 7.20758 0
M  V30 17740 C 843.085 -1.7299 7.50419 0
M  V30 17741 C 842.355 -0.406376 7.57911 0
M  V30 17742 O 842.145 0.0897726 6.21935 0
M  V30 17743 C 840.955 -0.447224 8.1878 0
M  V30 17744 O 840.565 0.825065 8.71101 0
M  V30 17745 C 840.075 -0.783801 6.99623 0
M  V30 17746 C 840.785 -0.0619192 5.85967 0
M  V30 17747 N 840.735 -0.7859 4.56281 0
M  V30 17748 H 843.574 -1.93423 8.4679 0
M  V30 17749 H 843.846 -1.68181 6.71046 0
M  V30 17750 H 842.978 0.289041 8.15388 0
M  V30 17751 P 839.015 1.17771 8.83182 0
M  V30 17752 O 838.795 2.07206 9.98732 0
M  V30 17753 O 838.225 -0.0743816 8.81969 0
M  V30 17754 O 838.765 1.97652 7.47304 0
M  V30 17755 C 839.705 3.01055 7.08599 0
M  V30 17756 C 838.975 4.12613 6.37049 0
M  V30 17757 O 838.765 3.72827 4.97879 0
M  V30 17758 C 837.575 4.45719 6.88164 0
M  V30 17759 O 837.185 5.7877 6.5624 0
M  V30 17760 C 836.695 3.47768 6.11991 0
M  V30 17761 C 837.405 3.39356 4.77615 0
M  V30 17762 N 837.355 2.04571 4.15244 0
M  V30 17763 C 837.205 1.98587 2.78314 0
M  V30 17764 O 837.115 2.98134 2.08835 0
M  V30 17765 N 837.165 0.714467 2.24925 0
M  V30 17766 C 837.255 -0.470001 2.94169 0
M  V30 17767 C 837.405 -0.312541 4.36783 0
M  V30 17768 C 837.455 0.914512 4.92583 0
M  V30 17769 H 840.196 3.41169 7.98575 0
M  V30 17770 H 840.465 2.58295 6.41556 0
M  V30 17771 H 839.598 5.02657 6.42673 0
M  V30 17772 H 836.943 4.11637 4.08885 0
M  V30 17773 H 836.664 2.49626 6.61679 0
M  V30 17774 H 835.672 3.86566 6.00778 0
M  V30 17775 H 837.506 4.29943 7.96918 0
M  V30 17776 H 837.577 1.00937 6.00374 0
M  V30 17777 P 835.635 6.144 6.45285 0
M  V30 17778 O 835.415 7.54673 6.86199 0
M  V30 17779 O 834.845 5.12391 7.179 0
M  V30 17780 O 835.385 5.99158 4.88404 0
M  V30 17781 C 836.325 6.60234 3.96415 0
M  V30 17782 C 835.595 7.08259 2.72856 0
M  V30 17783 O 835.385 5.9427 1.83651 0
M  V30 17784 C 834.195 7.64886 2.9555 0
M  V30 17785 O 833.805 8.53963 1.90717 0
M  V30 17786 C 833.315 6.4116 2.90739 0
M  V30 17787 C 834.025 5.55375 1.86963 0
M  V30 17788 N 833.975 4.09448 2.16152 0
M  V30 17789 H 836.814 7.45574 4.45629 0
M  V30 17790 H 837.086 5.85864 3.679 0
M  V30 17791 H 836.218 7.84412 2.24479 0
M  V30 17792 H 833.563 5.73457 0.888562 0
M  V30 17793 H 833.283 5.90877 3.88583 0
M  V30 17794 H 832.292 6.6596 2.58858 0
M  V30 17795 H 834.126 8.16339 3.92049 0
M  V30 17796 P 832.255 8.7635 1.60911 0
M  V30 17797 O 832.035 10.1388 1.11561 0
M  V30 17798 O 831.465 8.36503 2.79617 0
M  V30 17799 O 832.005 7.71806 0.42951 0
M  V30 17800 C 832.945 7.67148 -0.673689 0
M  V30 17801 C 832.215 7.33374 -1.95559 0
M  V30 17802 O 832.005 5.88721 -2.00726 0
M  V30 17803 C 830.815 7.92526 -2.10483 0
M  V30 17804 O 830.425 8.02971 -3.47653 0
M  V30 17805 C 829.935 6.89602 -1.41652 0
M  V30 17806 C 830.645 5.59201 -1.75185 0
M  V30 17807 N 830.595 4.58235 -0.662552 0
M  V30 17808 H 833.434 8.65116 -0.777161 0
M  V30 17809 H 833.706 6.90173 -0.474152 0
M  V30 17810 H 832.838 7.66548 -2.79458 0
M  V30 17811 P 828.875 8.03563 -3.84925 0
M  V30 17812 O 828.655 8.85821 -5.0569 0
M  V30 17813 O 828.085 8.41101 -2.65469 0
M  V30 17814 O 828.625 6.49734 -4.18962 0
M  V30 17815 C 829.565 5.81037 -5.05421 0
M  V30 17816 C 828.835 4.79018 -5.88876 0
M  V30 17817 O 828.625 3.58359 -5.08515 0
M  V30 17818 C 827.435 5.17448 -6.36119 0
M  V30 17819 O 827.045 4.45322 -7.53318 0
M  V30 17820 C 826.555 4.74639 -5.19936 0
M  V30 17821 C 827.265 3.49432 -4.70418 0
M  V30 17822 N 827.215 3.31776 -3.22945 0
M  V30 17823 C 827.065 2.02742 -2.72939 0
M  V30 17824 O 826.975 1.08301 -3.52749 0
M  V30 17825 N 827.015 1.96117 -1.22063 0
M  V30 17826 C 827.115 2.8878 -0.551566 0
M  V30 17827 N 827.065 2.65609 0.750198 0
M  V30 17828 C 827.265 4.22457 -1.03707 0
M  V30 17829 C 827.315 4.37979 -2.39113 0
M  V30 17830 H 830.055 6.54138 -5.7131 0
M  V30 17831 H 830.325 5.30492 -4.44033 0
M  V30 17832 H 829.458 4.55945 -6.76735 0
M  V30 17833 H 826.803 2.6176 -5.18021 0
M  V30 17834 H 826.523 5.52233 -4.41941 0
M  V30 17835 H 825.532 4.52045 -5.53452 0
M  V30 17836 H 827.366 6.25124 -6.55234 0
M  V30 17837 H 827.438 5.37936 -2.80552 0
M  V30 17838 H 827.336 5.07528 -0.359553 0
M  V30 17839 H 826.948 1.69403 1.09847 0
M  V30 17840 H 827.144 3.43701 1.41792 0
M  V30 17841 P 825.495 4.23843 -7.83734 0
M  V30 17842 O 825.275 4.19407 -9.29784 0
M  V30 17843 O 824.705 5.24426 -7.09156 0
M  V30 17844 O 825.245 2.7935 -7.20758 0
M  V30 17845 C 826.185 1.7299 -7.50419 0
M  V30 17846 C 825.455 0.406376 -7.57911 0
M  V30 17847 O 825.245 -0.0897726 -6.21935 0
M  V30 17848 C 824.055 0.447224 -8.1878 0
M  V30 17849 O 823.665 -0.825065 -8.71101 0
M  V30 17850 C 823.175 0.783801 -6.99623 0
M  V30 17851 C 823.885 0.0619192 -5.85967 0
M  V30 17852 N 823.835 0.7859 -4.56281 0
M  V30 17853 H 826.674 1.93423 -8.4679 0
M  V30 17854 H 826.946 1.68181 -6.71046 0
M  V30 17855 H 826.078 -0.289041 -8.15388 0
M  V30 17856 P 822.115 -1.17771 -8.83182 0
M  V30 17857 O 821.895 -2.07206 -9.98732 0
M  V30 17858 O 821.325 0.0743816 -8.81969 0
M  V30 17859 O 821.865 -1.97652 -7.47304 0
M  V30 17860 C 822.805 -3.01133 -7.08783 0
M  V30 17861 C 822.075 -4.12613 -6.37049 0
M  V30 17862 O 821.865 -3.72827 -4.97879 0
M  V30 17863 C 820.675 -4.45085 -6.88694 0
M  V30 17864 O 820.285 -5.7877 -6.5624 0
M  V30 17865 C 819.795 -3.47817 -6.12078 0
M  V30 17866 C 820.505 -3.39414 -4.77697 0
M  V30 17867 N 820.455 -2.04615 -4.15333 0
M  V30 17868 H 823.294 -3.41248 -7.98759 0
M  V30 17869 H 823.566 -2.5837 -6.41742 0
M  V30 17870 H 822.698 -5.02657 -6.42673 0
M  V30 17871 P 818.735 -6.144 -6.45285 0
M  V30 17872 O 818.515 -7.54673 -6.86199 0
M  V30 17873 O 817.945 -5.12391 -7.179 0
M  V30 17874 O 818.485 -5.99158 -4.88404 0
M  V30 17875 C 819.425 -6.60234 -3.96415 0
M  V30 17876 C 818.695 -7.08259 -2.72856 0
M  V30 17877 O 818.485 -5.9427 -1.83651 0
M  V30 17878 C 817.295 -7.64886 -2.9555 0
M  V30 17879 O 816.905 -8.53963 -1.90717 0
M  V30 17880 C 816.415 -6.4116 -2.90739 0
M  V30 17881 C 817.125 -5.55375 -1.86963 0
M  V30 17882 N 817.075 -4.09664 -2.15742 0
M  V30 17883 H 819.914 -7.45574 -4.45629 0
M  V30 17884 H 820.186 -5.86232 -3.67314 0
M  V30 17885 H 819.318 -7.84412 -2.24479 0
M  V30 17886 P 815.355 -8.7635 -1.60911 0
M  V30 17887 O 815.135 -10.1388 -1.11561 0
M  V30 17888 O 814.565 -8.36503 -2.79617 0
M  V30 17889 O 815.105 -7.71806 -0.42951 0
M  V30 17890 C 816.045 -7.67148 0.673689 0
M  V30 17891 C 815.315 -7.33374 1.95559 0
M  V30 17892 O 815.105 -5.88721 2.00726 0
M  V30 17893 C 813.915 -7.92526 2.10483 0
M  V30 17894 O 813.525 -8.02971 3.47653 0
M  V30 17895 C 813.035 -6.89602 1.41652 0
M  V30 17896 C 813.745 -5.59201 1.75185 0
M  V30 17897 N 813.695 -4.58235 0.662552 0
M  V30 17898 C 813.775 -4.7683 -0.704049 0
M  V30 17899 N 813.695 -3.66233 -1.39775 0
M  V30 17900 C 813.555 -2.66526 -0.431739 0
M  V30 17901 C 813.425 -1.26394 -0.575992 0
M  V30 17902 O 813.405 -0.589894 -1.60503 0
M  V30 17903 N 813.305 -0.62859 0.67177 0
M  V30 17904 C 813.305 -1.27134 1.89385 0
M  V30 17905 N 813.175 -0.492035 2.96951 0
M  V30 17906 N 813.435 -2.58978 2.02907 0
M  V30 17907 C 813.555 -3.22433 0.832218 0
M  V30 17908 H 816.534 -8.65116 0.777161 0
M  V30 17909 H 816.806 -6.90173 0.474152 0
M  V30 17910 H 815.938 -7.66548 2.79458 0
M  V30 17911 H 813.283 -5.16254 2.65229 0
M  V30 17912 H 813.003 -7.06532 0.329431 0
M  V30 17913 H 812.012 -6.91023 1.82047 0
M  V30 17914 H 813.846 -8.90971 1.62675 0
M  V30 17915 H 813.895 -5.74954 -1.16305 0
M  V30 17916 H 813.213 0.366713 0.674793 0
M  V30 17917 H 813.176 -0.908532 3.91188 0
M  V30 17918 H 813.075 0.528253 2.85758 0
M  V30 17919 P 811.975 -8.03563 3.84925 0
M  V30 17920 O 811.755 -8.85821 5.0569 0
M  V30 17921 O 811.185 -8.41101 2.65469 0
M  V30 17922 O 811.725 -6.4965 4.18908 0
M  V30 17923 C 812.665 -5.81037 5.05421 0
M  V30 17924 C 811.935 -4.78366 5.89277 0
M  V30 17925 O 811.725 -3.58302 5.08433 0
M  V30 17926 C 810.535 -5.17448 6.36119 0
M  V30 17927 O 810.145 -4.45271 7.53232 0
M  V30 17928 C 809.655 -4.74639 5.19936 0
M  V30 17929 C 810.365 -3.49432 4.70418 0
M  V30 17930 N 810.315 -3.31776 3.22945 0
M  V30 17931 H 813.154 -6.54213 5.71376 0
M  V30 17932 H 813.426 -5.30492 4.44033 0
M  V30 17933 H 812.558 -4.55889 6.76652 0
M  V30 17934 P 808.595 -4.23843 7.83734 0
M  V30 17935 O 808.375 -4.19407 9.29784 0
M  V30 17936 O 807.805 -5.24426 7.09156 0
M  V30 17937 O 808.345 -2.7935 7.20758 0
M  V30 17938 C 809.285 -1.7299 7.50419 0
M  V30 17939 C 808.555 -0.406376 7.57911 0
M  V30 17940 O 808.345 0.0897726 6.21935 0
M  V30 17941 C 807.155 -0.447224 8.1878 0
M  V30 17942 O 806.765 0.825065 8.71101 0
M  V30 17943 C 806.275 -0.783801 6.99623 0
M  V30 17944 C 806.985 -0.0619192 5.85967 0
M  V30 17945 N 806.935 -0.7859 4.56281 0
M  V30 17946 H 809.774 -1.93423 8.4679 0
M  V30 17947 H 810.046 -1.68181 6.71046 0
M  V30 17948 H 809.178 0.289041 8.15388 0
M  V30 17949 P 805.215 1.17771 8.83182 0
M  V30 17950 O 804.995 2.07206 9.98732 0
M  V30 17951 O 804.425 -0.0743816 8.81969 0
M  V30 17952 O 804.965 1.97652 7.47304 0
M  V30 17953 C 805.905 3.01055 7.08599 0
M  V30 17954 C 805.175 4.12613 6.37049 0
M  V30 17955 O 804.965 3.72827 4.97879 0
M  V30 17956 C 803.775 4.45719 6.88164 0
M  V30 17957 O 803.385 5.7877 6.5624 0
M  V30 17958 C 802.895 3.47768 6.11991 0
M  V30 17959 C 803.605 3.39356 4.77615 0
M  V30 17960 N 803.555 2.04571 4.15244 0
M  V30 17961 C 803.405 1.98587 2.78314 0
M  V30 17962 O 803.315 2.98134 2.08835 0
M  V30 17963 N 803.365 0.714467 2.24925 0
M  V30 17964 C 803.455 -0.470001 2.94169 0
M  V30 17965 O 803.405 -1.55587 2.35195 0
M  V30 17966 C 803.605 -0.312541 4.36783 0
M  V30 17967 C 803.715 -1.57711 5.16352 0
M  V30 17968 C 803.655 0.914512 4.92583 0
M  V30 17969 H 806.396 3.41169 7.98575 0
M  V30 17970 H 806.665 2.58295 6.41556 0
M  V30 17971 H 805.798 5.02657 6.42673 0
M  V30 17972 H 803.143 4.11637 4.08885 0
M  V30 17973 H 802.864 2.49626 6.61679 0
M  V30 17974 H 801.872 3.86566 6.00778 0
M  V30 17975 H 803.706 4.29943 7.96918 0
M  V30 17976 H 803.777 1.00937 6.00374 0
M  V30 17977 H 802.747 -1.80153 5.63503 0
M  V30 17978 H 804.484 -1.4566 5.94104 0
M  V30 17979 H 803.996 -2.40664 4.49645 0
M  V30 17980 H 803.26 0.647622 1.25697 0
M  V30 17981 P 801.835 6.144 6.45285 0
M  V30 17982 O 801.615 7.54673 6.86199 0
M  V30 17983 O 801.045 5.12391 7.179 0
M  V30 17984 O 801.585 5.99158 4.88404 0
M  V30 17985 C 802.525 6.60234 3.96415 0
M  V30 17986 C 801.795 7.08259 2.72856 0
M  V30 17987 O 801.585 5.9427 1.83651 0
M  V30 17988 C 800.395 7.64886 2.9555 0
M  V30 17989 O 800.005 8.53963 1.90717 0
M  V30 17990 C 799.515 6.4116 2.90739 0
M  V30 17991 C 800.225 5.55375 1.86963 0
M  V30 17992 N 800.175 4.09448 2.16152 0
M  V30 17993 H 803.014 7.45574 4.45629 0
M  V30 17994 H 803.286 5.85864 3.679 0
M  V30 17995 H 802.418 7.84412 2.24479 0
M  V30 17996 H 799.763 5.73457 0.888562 0
M  V30 17997 H 799.483 5.90877 3.88583 0
M  V30 17998 H 798.492 6.6596 2.58858 0
M  V30 17999 H 800.326 8.16339 3.92049 0
M  V30 18000 P 798.455 8.7635 1.60911 0
M  V30 18001 O 798.235 10.1388 1.11561 0
M  V30 18002 O 797.665 8.36503 2.79617 0
M  V30 18003 O 798.205 7.71806 0.42951 0
M  V30 18004 C 799.145 7.67148 -0.673689 0
M  V30 18005 C 798.415 7.33374 -1.95559 0
M  V30 18006 O 798.205 5.88721 -2.00726 0
M  V30 18007 C 797.015 7.92526 -2.10483 0
M  V30 18008 O 796.625 8.02971 -3.47653 0
M  V30 18009 C 796.135 6.89602 -1.41652 0
M  V30 18010 C 796.845 5.59201 -1.75185 0
M  V30 18011 N 796.795 4.58301 -0.657969 0
M  V30 18012 H 799.634 8.65116 -0.777161 0
M  V30 18013 H 799.906 6.9022 -0.46725 0
M  V30 18014 H 799.038 7.66548 -2.79458 0
M  V30 18015 H 796.383 5.16165 -2.65183 0
M  V30 18016 H 796.103 7.06433 -0.329384 0
M  V30 18017 H 795.112 6.90926 -1.82021 0
M  V30 18018 H 796.946 8.90873 -1.62657 0
M  V30 18019 P 795.075 8.03563 -3.84925 0
M  V30 18020 O 794.855 8.85821 -5.0569 0
M  V30 18021 O 794.285 8.41101 -2.65469 0
M  V30 18022 O 794.825 6.4965 -4.18908 0
M  V30 18023 C 795.765 5.81037 -5.05421 0
M  V30 18024 C 795.035 4.78366 -5.89277 0
M  V30 18025 O 794.825 3.58302 -5.08433 0
M  V30 18026 C 793.635 5.17448 -6.36119 0
M  V30 18027 O 793.245 4.45271 -7.53232 0
M  V30 18028 C 792.755 4.74639 -5.19936 0
M  V30 18029 C 793.465 3.49432 -4.70418 0
M  V30 18030 N 793.415 3.31776 -3.22945 0
M  V30 18031 C 793.495 4.27147 -2.23315 0
M  V30 18032 N 793.415 3.78447 -1.02186 0
M  V30 18033 C 793.275 2.41001 -1.21732 0
M  V30 18034 C 793.145 1.36111 -0.27694 0
M  V30 18035 O 793.125 1.42065 0.951767 0
M  V30 18036 N 793.025 0.113683 -0.912949 0
M  V30 18037 C 793.025 -0.0846396 -2.27943 0
M  V30 18038 N 792.895 -1.34737 -2.6916 0
M  V30 18039 N 793.155 0.902521 -3.16379 0
M  V30 18040 C 793.275 2.11937 -2.56849 0
M  V30 18041 H 796.254 6.54213 -5.71376 0
M  V30 18042 H 796.526 5.30492 -4.44033 0
M  V30 18043 H 795.658 4.55889 -6.76652 0
M  V30 18044 H 793.003 2.6176 -5.18021 0
M  V30 18045 H 792.723 5.52233 -4.41941 0
M  V30 18046 H 791.732 4.52045 -5.53452 0
M  V30 18047 H 793.566 6.25193 -6.55307 0
M  V30 18048 H 793.615 5.3351 -2.43857 0
M  V30 18049 H 792.933 -0.69331 -0.330371 0
M  V30 18050 H 792.896 -1.56433 -3.6988 0
M  V30 18051 H 792.795 -2.10701 -2.00133 0
M  V30 18052 P 791.695 4.23843 -7.83734 0
M  V30 18053 O 791.475 4.19407 -9.29784 0
M  V30 18054 O 790.905 5.24426 -7.09156 0
M  V30 18055 O 791.445 2.7935 -7.20758 0
M  V30 18056 C 792.385 1.7299 -7.50419 0
M  V30 18057 C 791.655 0.406376 -7.57911 0
M  V30 18058 O 791.445 -0.0897726 -6.21935 0
M  V30 18059 C 790.255 0.447224 -8.1878 0
M  V30 18060 O 789.865 -0.825065 -8.71101 0
M  V30 18061 C 789.375 0.783801 -6.99623 0
M  V30 18062 C 790.085 0.0619192 -5.85967 0
M  V30 18063 N 790.035 0.7859 -4.56281 0
M  V30 18064 H 792.874 1.93423 -8.4679 0
M  V30 18065 H 793.146 1.68181 -6.71046 0
M  V30 18066 H 792.278 -0.289041 -8.15388 0
M  V30 18067 P 788.315 -1.17771 -8.83182 0
M  V30 18068 O 788.095 -2.07206 -9.98732 0
M  V30 18069 O 787.525 0.0743816 -8.81969 0
M  V30 18070 O 788.065 -1.97652 -7.47304 0
M  V30 18071 C 789.005 -3.01133 -7.08783 0
M  V30 18072 C 788.275 -4.12613 -6.37049 0
M  V30 18073 O 788.065 -3.72827 -4.97879 0
M  V30 18074 C 786.875 -4.45085 -6.88694 0
M  V30 18075 O 786.485 -5.7877 -6.5624 0
M  V30 18076 C 785.995 -3.47817 -6.12078 0
M  V30 18077 C 786.705 -3.39414 -4.77697 0
M  V30 18078 N 786.655 -2.04615 -4.15333 0
M  V30 18079 H 789.494 -3.41248 -7.98759 0
M  V30 18080 H 789.766 -2.5837 -6.41742 0
M  V30 18081 H 788.898 -5.02657 -6.42673 0
M  V30 18082 P 784.935 -6.144 -6.45285 0
M  V30 18083 O 784.715 -7.54673 -6.86199 0
M  V30 18084 O 784.145 -5.12391 -7.179 0
M  V30 18085 O 784.685 -5.99158 -4.88404 0
M  V30 18086 C 785.625 -6.60234 -3.96415 0
M  V30 18087 C 784.895 -7.08259 -2.72856 0
M  V30 18088 O 784.685 -5.9427 -1.83651 0
M  V30 18089 C 783.495 -7.64886 -2.9555 0
M  V30 18090 O 783.105 -8.53963 -1.90717 0
M  V30 18091 C 782.615 -6.4116 -2.90739 0
M  V30 18092 C 783.325 -5.55375 -1.86963 0
M  V30 18093 N 783.275 -4.09664 -2.15742 0
M  V30 18094 H 786.114 -7.45574 -4.45629 0
M  V30 18095 H 786.386 -5.86232 -3.67314 0
M  V30 18096 H 785.518 -7.84412 -2.24479 0
M  V30 18097 P 781.555 -8.7635 -1.60911 0
M  V30 18098 O 781.335 -10.1388 -1.11561 0
M  V30 18099 O 780.765 -8.36503 -2.79617 0
M  V30 18100 O 781.305 -7.71806 -0.42951 0
M  V30 18101 C 782.245 -7.66948 0.673514 0
M  V30 18102 C 781.515 -7.33374 1.95559 0
M  V30 18103 O 781.305 -5.88721 2.00726 0
M  V30 18104 C 780.115 -7.92218 2.1125 0
M  V30 18105 O 779.725 -8.02971 3.47653 0
M  V30 18106 C 779.235 -6.89504 1.41631 0
M  V30 18107 C 779.945 -5.59106 1.75155 0
M  V30 18108 N 779.895 -4.58136 0.662409 0
M  V30 18109 C 779.745 -3.26059 1.02863 0
M  V30 18110 O 779.655 -2.90743 2.19009 0
M  V30 18111 N 779.705 -2.35995 -0.0155585 0
M  V30 18112 C 779.795 -2.65248 -1.35603 0
M  V30 18113 O 779.745 -1.75605 -2.20651 0
M  V30 18114 C 779.945 -4.05747 -1.64698 0
M  V30 18115 C 780.055 -4.42345 -3.09553 0
M  V30 18116 C 779.995 -4.96734 -0.652411 0
M  V30 18117 H 782.736 -8.64917 0.776982 0
M  V30 18118 H 783.005 -6.89974 0.474015 0
M  V30 18119 H 782.138 -7.66548 2.79458 0
M  V30 18120 H 779.483 -5.16076 2.65138 0
M  V30 18121 H 779.204 -7.06433 0.329384 0
M  V30 18122 H 778.212 -6.90829 1.81996 0
M  V30 18123 H 780.046 -8.90774 1.62639 0
M  V30 18124 H 780.117 -6.02181 -0.895285 0
M  V30 18125 H 779.087 -4.80252 -3.45468 0
M  V30 18126 H 780.824 -5.20015 -3.22119 0
M  V30 18127 H 780.336 -3.53269 -3.67833 0
M  V30 18128 H 779.6 -1.39558 0.227499 0
M  V30 18129 P 778.175 -8.03563 3.84925 0
M  V30 18130 O 777.955 -8.85821 5.0569 0
M  V30 18131 O 777.385 -8.41101 2.65469 0
M  V30 18132 O 777.925 -6.4965 4.18908 0
M  V30 18133 C 778.865 -5.81037 5.05421 0
M  V30 18134 C 778.135 -4.78366 5.89277 0
M  V30 18135 O 777.925 -3.58302 5.08433 0
M  V30 18136 C 776.735 -5.17448 6.36119 0
M  V30 18137 O 776.345 -4.45271 7.53232 0
M  V30 18138 C 775.855 -4.74639 5.19936 0
M  V30 18139 C 776.565 -3.49432 4.70418 0
M  V30 18140 N 776.515 -3.31776 3.22945 0
M  V30 18141 H 779.354 -6.54213 5.71376 0
M  V30 18142 H 779.626 -5.30492 4.44033 0
M  V30 18143 H 778.758 -4.55889 6.76652 0
M  V30 18144 P 774.795 -4.23843 7.83734 0
M  V30 18145 O 774.575 -4.19407 9.29784 0
M  V30 18146 O 774.005 -5.24426 7.09156 0
M  V30 18147 O 774.545 -2.7935 7.20758 0
M  V30 18148 C 775.485 -1.72945 7.50224 0
M  V30 18149 C 774.755 -0.406376 7.57911 0
M  V30 18150 O 774.545 0.0897726 6.21935 0
M  V30 18151 C 773.355 -0.438983 8.18724 0
M  V30 18152 O 772.965 0.825065 8.71101 0
M  V30 18153 C 772.475 -0.783689 6.99524 0
M  V30 18154 C 773.185 -0.0619086 5.85867 0
M  V30 18155 N 773.135 -0.78573 4.56183 0
M  V30 18156 C 772.985 -0.0292889 3.41887 0
M  V30 18157 O 772.895 1.18445 3.4419 0
M  V30 18158 N 772.945 -0.744061 2.23964 0
M  V30 18159 C 773.035 -2.10932 2.10362 0
M  V30 18160 C 773.185 -2.8202 3.34994 0
M  V30 18161 C 773.235 -2.15547 4.52261 0
M  V30 18162 H 775.976 -1.93379 8.46595 0
M  V30 18163 H 776.245 -1.68132 6.70852 0
M  V30 18164 H 775.378 0.289041 8.15388 0
M  V30 18165 H 772.723 0.926847 5.72749 0
M  V30 18166 H 772.444 -1.86973 6.82036 0
M  V30 18167 H 771.452 -0.403896 7.13257 0
M  V30 18168 H 773.286 -1.20585 8.97435 0
M  V30 18169 H 773.357 -2.71231 5.45042 0
M  V30 18170 P 771.415 1.17771 8.83182 0
M  V30 18171 O 771.195 2.07206 9.98732 0
M  V30 18172 O 770.625 -0.0743816 8.81969 0
M  V30 18173 O 771.165 1.97652 7.47304 0
M  V30 18174 C 772.105 3.01133 7.08783 0
M  V30 18175 C 771.375 4.12613 6.37049 0
M  V30 18176 O 771.165 3.72827 4.97879 0
M  V30 18177 C 769.975 4.45085 6.88694 0
M  V30 18178 O 769.585 5.7877 6.5624 0
M  V30 18179 C 769.095 3.47817 6.12078 0
M  V30 18180 C 769.805 3.39414 4.77697 0
M  V30 18181 N 769.755 2.04615 4.15333 0
M  V30 18182 H 772.594 3.41248 7.98759 0
M  V30 18183 H 772.866 2.5837 6.41742 0
M  V30 18184 H 771.998 5.02657 6.42673 0
M  V30 18185 P 768.035 6.144 6.45285 0
M  V30 18186 O 767.815 7.54673 6.86199 0
M  V30 18187 O 767.245 5.12391 7.179 0
M  V30 18188 O 767.785 5.99158 4.88404 0
M  V30 18189 C 768.725 6.60234 3.96415 0
M  V30 18190 C 767.995 7.08259 2.72856 0
M  V30 18191 O 767.785 5.9427 1.83651 0
M  V30 18192 C 766.595 7.64886 2.9555 0
M  V30 18193 O 766.205 8.53963 1.90717 0
M  V30 18194 C 765.715 6.4116 2.90739 0
M  V30 18195 C 766.425 5.55375 1.86963 0
M  V30 18196 N 766.375 4.09448 2.16152 0
M  V30 18197 H 769.214 7.45574 4.45629 0
M  V30 18198 H 769.486 5.85864 3.679 0
M  V30 18199 H 768.618 7.84412 2.24479 0
M  V30 18200 H 765.963 5.73457 0.888562 0
M  V30 18201 H 765.683 5.90877 3.88583 0
M  V30 18202 H 764.692 6.6596 2.58858 0
M  V30 18203 H 766.526 8.16339 3.92049 0
M  V30 18204 P 764.656 8.7635 1.60911 0
M  V30 18205 O 764.436 10.1388 1.11561 0
M  V30 18206 O 763.866 8.36503 2.79617 0
M  V30 18207 O 764.406 7.71906 0.429565 0
M  V30 18208 C 765.346 7.67148 -0.673689 0
M  V30 18209 C 764.616 7.33666 -1.94851 0
M  V30 18210 O 764.406 5.88816 -2.00759 0
M  V30 18211 C 763.216 7.92526 -2.10483 0
M  V30 18212 O 762.826 8.03063 -3.47693 0
M  V30 18213 C 762.336 6.89602 -1.41652 0
M  V30 18214 C 763.046 5.59201 -1.75185 0
M  V30 18215 N 762.996 4.58235 -0.662552 0
M  V30 18216 C 762.846 3.24451 -1.01643 0
M  V30 18217 O 762.756 2.94958 -2.21722 0
M  V30 18218 N 762.796 2.30408 0.165238 0
M  V30 18219 C 762.896 2.66048 1.25118 0
M  V30 18220 N 762.846 1.70787 2.16813 0
M  V30 18221 C 763.046 4.02732 1.64413 0
M  V30 18222 C 763.096 4.9488 0.63991 0
M  V30 18223 H 765.836 8.65017 -0.777072 0
M  V30 18224 H 766.106 6.90173 -0.474152 0
M  V30 18225 H 765.239 7.66642 -2.79492 0
M  V30 18226 H 762.584 5.16254 -2.65229 0
M  V30 18227 H 762.304 7.06532 -0.329431 0
M  V30 18228 H 761.313 6.91023 -1.82047 0
M  V30 18229 H 763.147 8.90873 -1.62657 0
M  V30 18230 H 763.219 6.00104 0.892197 0
M  V30 18231 H 763.117 4.31733 2.69229 0
M  V30 18232 H 762.729 0.724835 1.8844 0
M  V30 18233 H 762.925 1.94716 3.16734 0
M  V30 18234 P 761.276 8.03563 -3.84925 0
M  V30 18235 O 761.056 8.85821 -5.0569 0
M  V30 18236 O 760.486 8.41101 -2.65469 0
M  V30 18237 O 761.026 6.4965 -4.18908 0
M  V30 18238 C 761.966 5.80886 -5.05289 0
M  V30 18239 C 761.236 4.78366 -5.89277 0
M  V30 18240 O 761.026 3.58302 -5.08433 0
M  V30 18241 C 759.836 5.16748 -6.36559 0
M  V30 18242 O 759.446 4.45271 -7.53232 0
M  V30 18243 C 758.956 4.74572 -5.19863 0
M  V30 18244 C 759.666 3.49373 -4.70338 0
M  V30 18245 N 759.616 3.31704 -3.22876 0
M  V30 18246 C 759.466 2.03326 -2.74871 0
M  V30 18247 O 759.376 1.06486 -3.48076 0
M  V30 18248 N 759.426 1.91838 -1.37456 0
M  V30 18249 C 759.516 2.94295 -0.462035 0
M  V30 18250 O 759.466 2.71763 0.752928 0
M  V30 18251 C 759.666 4.25064 -1.05249 0
M  V30 18252 C 759.776 5.39815 -0.095697 0
M  V30 18253 C 759.716 4.40214 -2.39192 0
M  V30 18254 H 762.457 6.54063 -5.71245 0
M  V30 18255 H 762.726 5.30339 -4.43905 0
M  V30 18256 H 761.859 4.55889 -6.76652 0
M  V30 18257 H 759.204 2.6167 -5.17842 0
M  V30 18258 H 758.925 5.52155 -4.41878 0
M  V30 18259 H 757.933 4.51918 -5.53297 0
M  V30 18260 H 759.767 6.25055 -6.55162 0
M  V30 18261 H 759.838 5.39798 -2.81523 0
M  V30 18262 H 758.808 5.91593 -0.0279582 0
M  V30 18263 H 760.545 6.10038 -0.450573 0
M  V30 18264 H 760.057 5.02007 0.89937 0
M  V30 18265 H 759.321 0.995326 -1.00435 0
M  V30 18266 P 757.896 4.23843 -7.83734 0
M  V30 18267 O 757.676 4.19407 -9.29784 0
M  V30 18268 O 757.106 5.24426 -7.09156 0
M  V30 18269 O 757.646 2.7935 -7.20758 0
M  V30 18270 C 758.586 1.7299 -7.50419 0
M  V30 18271 C 757.856 0.406376 -7.57911 0
M  V30 18272 O 757.646 -0.0897726 -6.21935 0
M  V30 18273 C 756.456 0.447224 -8.1878 0
M  V30 18274 O 756.066 -0.825065 -8.71101 0
M  V30 18275 C 755.576 0.783801 -6.99623 0
M  V30 18276 C 756.286 0.0619192 -5.85967 0
M  V30 18277 N 756.236 0.7859 -4.56281 0
M  V30 18278 H 759.075 1.93423 -8.4679 0
M  V30 18279 H 759.347 1.68181 -6.71046 0
M  V30 18280 H 758.479 -0.289041 -8.15388 0
M  V30 18281 P 754.516 -1.17771 -8.83182 0
M  V30 18282 O 754.296 -2.07206 -9.98732 0
M  V30 18283 O 753.726 0.0743816 -8.81969 0
M  V30 18284 O 754.266 -1.97652 -7.47304 0
M  V30 18285 C 755.206 -3.01133 -7.08783 0
M  V30 18286 C 754.476 -4.12613 -6.37049 0
M  V30 18287 O 754.266 -3.72827 -4.97879 0
M  V30 18288 C 753.076 -4.45085 -6.88694 0
M  V30 18289 O 752.686 -5.7877 -6.5624 0
M  V30 18290 C 752.196 -3.47817 -6.12078 0
M  V30 18291 C 752.906 -3.39414 -4.77697 0
M  V30 18292 N 752.856 -2.04615 -4.15333 0
M  V30 18293 H 755.695 -3.41248 -7.98759 0
M  V30 18294 H 755.967 -2.5837 -6.41742 0
M  V30 18295 H 755.099 -5.02657 -6.42673 0
M  V30 18296 P 751.136 -6.144 -6.45285 0
M  V30 18297 O 750.916 -7.54673 -6.86199 0
M  V30 18298 O 750.346 -5.12391 -7.179 0
M  V30 18299 O 750.886 -5.99158 -4.88404 0
M  V30 18300 C 751.826 -6.60234 -3.96415 0
M  V30 18301 C 751.096 -7.08259 -2.72856 0
M  V30 18302 O 750.886 -5.9427 -1.83651 0
M  V30 18303 C 749.696 -7.64886 -2.9555 0
M  V30 18304 O 749.306 -8.53963 -1.90717 0
M  V30 18305 C 748.816 -6.4116 -2.90739 0
M  V30 18306 C 749.526 -5.55375 -1.86963 0
M  V30 18307 N 749.476 -4.09664 -2.15742 0
M  V30 18308 H 752.315 -7.45574 -4.45629 0
M  V30 18309 H 752.587 -5.86232 -3.67314 0
M  V30 18310 H 751.719 -7.84412 -2.24479 0
M  V30 18311 P 747.756 -8.7635 -1.60911 0
M  V30 18312 O 747.536 -10.1388 -1.11561 0
M  V30 18313 O 746.966 -8.36503 -2.79617 0
M  V30 18314 O 747.506 -7.71806 -0.42951 0
M  V30 18315 C 748.446 -7.67148 0.673689 0
M  V30 18316 C 747.716 -7.33374 1.95559 0
M  V30 18317 O 747.506 -5.88721 2.00726 0
M  V30 18318 C 746.316 -7.92526 2.10483 0
M  V30 18319 O 745.926 -8.02971 3.47653 0
M  V30 18320 C 745.436 -6.89602 1.41652 0
M  V30 18321 C 746.146 -5.59201 1.75185 0
M  V30 18322 N 746.096 -4.58235 0.662552 0
M  V30 18323 H 748.935 -8.65116 0.777161 0
M  V30 18324 H 749.207 -6.90173 0.474152 0
M  V30 18325 H 748.339 -7.66548 2.79458 0
M  V30 18326 P 744.376 -8.03563 3.84925 0
M  V30 18327 O 744.156 -8.85821 5.0569 0
M  V30 18328 O 743.586 -8.41101 2.65469 0
M  V30 18329 O 744.126 -6.4965 4.18908 0
M  V30 18330 C 745.066 -5.80886 5.05289 0
M  V30 18331 C 744.336 -4.78366 5.89277 0
M  V30 18332 O 744.126 -3.58302 5.08433 0
M  V30 18333 C 742.936 -5.16748 6.36559 0
M  V30 18334 O 742.546 -4.45271 7.53232 0
M  V30 18335 C 742.056 -4.74572 5.19863 0
M  V30 18336 C 742.766 -3.49373 4.70338 0
M  V30 18337 N 742.716 -3.31704 3.22876 0
M  V30 18338 C 742.566 -2.03326 2.74871 0
M  V30 18339 O 742.476 -1.06486 3.48076 0
M  V30 18340 N 742.526 -1.91838 1.37456 0
M  V30 18341 C 742.616 -2.94295 0.462035 0
M  V30 18342 O 742.566 -2.71763 -0.752928 0
M  V30 18343 C 742.766 -4.25064 1.05249 0
M  V30 18344 C 742.876 -5.39815 0.095697 0
M  V30 18345 C 742.816 -4.40214 2.39192 0
M  V30 18346 H 745.557 -6.54063 5.71245 0
M  V30 18347 H 745.826 -5.30339 4.43905 0
M  V30 18348 H 744.959 -4.55889 6.76652 0
M  V30 18349 H 742.304 -2.6167 5.17842 0
M  V30 18350 H 742.025 -5.52155 4.41878 0
M  V30 18351 H 741.033 -4.51918 5.53297 0
M  V30 18352 H 742.867 -6.25055 6.55162 0
M  V30 18353 H 742.938 -5.39798 2.81523 0
M  V30 18354 H 741.908 -5.91593 0.0279582 0
M  V30 18355 H 743.645 -6.10038 0.450573 0
M  V30 18356 H 743.157 -5.02007 -0.89937 0
M  V30 18357 H 742.421 -0.995326 1.00435 0
M  V30 18358 P 740.996 -4.23843 7.83734 0
M  V30 18359 O 740.776 -4.19407 9.29784 0
M  V30 18360 O 740.206 -5.24426 7.09156 0
M  V30 18361 O 740.746 -2.7935 7.20758 0
M  V30 18362 C 741.686 -1.72945 7.50224 0
M  V30 18363 C 740.956 -0.406376 7.57911 0
M  V30 18364 O 740.746 0.0897726 6.21935 0
M  V30 18365 C 739.556 -0.438983 8.18724 0
M  V30 18366 O 739.166 0.825065 8.71101 0
M  V30 18367 C 738.676 -0.783689 6.99524 0
M  V30 18368 C 739.386 -0.0619086 5.85867 0
M  V30 18369 N 739.336 -0.78573 4.56183 0
M  V30 18370 C 739.186 -0.0292889 3.41887 0
M  V30 18371 O 739.096 1.18445 3.4419 0
M  V30 18372 N 739.146 -0.744061 2.23964 0
M  V30 18373 C 739.236 -2.10932 2.10362 0
M  V30 18374 O 739.186 -2.64117 0.98825 0
M  V30 18375 C 739.386 -2.8202 3.34994 0
M  V30 18376 C 739.496 -4.31095 3.25037 0
M  V30 18377 C 739.436 -2.15547 4.52261 0
M  V30 18378 H 742.177 -1.93379 8.46595 0
M  V30 18379 H 742.446 -1.68132 6.70852 0
M  V30 18380 H 741.579 0.289041 8.15388 0
M  V30 18381 H 738.924 0.926847 5.72749 0
M  V30 18382 H 738.645 -1.86973 6.82036 0
M  V30 18383 H 737.653 -0.403896 7.13257 0
M  V30 18384 H 739.487 -1.20585 8.97435 0
M  V30 18385 H 739.558 -2.71231 5.45042 0
M  V30 18386 H 738.528 -4.76966 3.49992 0
M  V30 18387 H 740.265 -4.67047 3.95024 0
M  V30 18388 H 739.777 -4.58996 2.22312 0
M  V30 18389 H 739.041 -0.214893 1.39758 0
M  V30 18390 P 737.616 1.17771 8.83182 0
M  V30 18391 O 737.396 2.07206 9.98732 0
M  V30 18392 O 736.826 -0.0743816 8.81969 0
M  V30 18393 O 737.366 1.97652 7.47304 0
M  V30 18394 C 738.306 3.01133 7.08783 0
M  V30 18395 C 737.576 4.12613 6.37049 0
M  V30 18396 O 737.366 3.72827 4.97879 0
M  V30 18397 C 736.176 4.45085 6.88694 0
M  V30 18398 O 735.786 5.7877 6.5624 0
M  V30 18399 C 735.296 3.47817 6.12078 0
M  V30 18400 C 736.006 3.39414 4.77697 0
M  V30 18401 N 735.956 2.04615 4.15333 0
M  V30 18402 H 738.795 3.41248 7.98759 0
M  V30 18403 H 739.067 2.5837 6.41742 0
M  V30 18404 H 738.199 5.02657 6.42673 0
M  V30 18405 P 734.236 6.144 6.45285 0
M  V30 18406 O 734.016 7.54673 6.86199 0
M  V30 18407 O 733.446 5.12391 7.179 0
M  V30 18408 O 733.986 5.99158 4.88404 0
M  V30 18409 C 734.926 6.60234 3.96415 0
M  V30 18410 C 734.196 7.08259 2.72856 0
M  V30 18411 O 733.986 5.9427 1.83651 0
M  V30 18412 C 732.796 7.64886 2.9555 0
M  V30 18413 O 732.406 8.53963 1.90717 0
M  V30 18414 C 731.916 6.4116 2.90739 0
M  V30 18415 C 732.626 5.55375 1.86963 0
M  V30 18416 N 732.576 4.09664 2.15742 0
M  V30 18417 H 735.415 7.45574 4.45629 0
M  V30 18418 H 735.687 5.86232 3.67314 0
M  V30 18419 H 734.819 7.84412 2.24479 0
M  V30 18420 P 730.856 8.7635 1.60911 0
M  V30 18421 O 730.636 10.1388 1.11561 0
M  V30 18422 O 730.066 8.36503 2.79617 0
M  V30 18423 O 730.606 7.71806 0.42951 0
M  V30 18424 C 731.546 7.67148 -0.673689 0
M  V30 18425 C 730.816 7.33374 -1.95559 0
M  V30 18426 O 730.606 5.88721 -2.00726 0
M  V30 18427 C 729.416 7.92526 -2.10483 0
M  V30 18428 O 729.026 8.02971 -3.47653 0
M  V30 18429 C 728.536 6.89602 -1.41652 0
M  V30 18430 C 729.246 5.59201 -1.75185 0
M  V30 18431 N 729.196 4.58235 -0.662552 0
M  V30 18432 H 732.035 8.65116 -0.777161 0
M  V30 18433 H 732.307 6.90173 -0.474152 0
M  V30 18434 H 731.439 7.66548 -2.79458 0
M  V30 18435 P 727.476 8.03563 -3.84925 0
M  V30 18436 O 727.256 8.85821 -5.0569 0
M  V30 18437 O 726.686 8.41101 -2.65469 0
M  V30 18438 O 727.226 6.4965 -4.18908 0
M  V30 18439 C 728.166 5.80886 -5.05289 0
M  V30 18440 C 727.436 4.78366 -5.89277 0
M  V30 18441 O 727.226 3.58302 -5.08433 0
M  V30 18442 C 726.036 5.16748 -6.36559 0
M  V30 18443 O 725.646 4.45271 -7.53232 0
M  V30 18444 C 725.156 4.74572 -5.19863 0
M  V30 18445 C 725.866 3.49373 -4.70338 0
M  V30 18446 N 725.816 3.31704 -3.22876 0
M  V30 18447 C 725.666 2.03326 -2.74871 0
M  V30 18448 O 725.576 1.06486 -3.48076 0
M  V30 18449 N 725.626 1.91838 -1.37456 0
M  V30 18450 C 725.716 2.94295 -0.462035 0
M  V30 18451 O 725.666 2.71763 0.752928 0
M  V30 18452 C 725.866 4.25064 -1.05249 0
M  V30 18453 C 725.976 5.39815 -0.095697 0
M  V30 18454 C 725.916 4.40214 -2.39192 0
M  V30 18455 H 728.657 6.54063 -5.71245 0
M  V30 18456 H 728.926 5.30339 -4.43905 0
M  V30 18457 H 728.059 4.55889 -6.76652 0
M  V30 18458 H 725.404 2.6167 -5.17842 0
M  V30 18459 H 725.125 5.52155 -4.41878 0
M  V30 18460 H 724.133 4.51918 -5.53297 0
M  V30 18461 H 725.967 6.25055 -6.55162 0
M  V30 18462 H 726.038 5.39798 -2.81523 0
M  V30 18463 H 725.008 5.91593 -0.0279582 0
M  V30 18464 H 726.745 6.10038 -0.450573 0
M  V30 18465 H 726.257 5.02007 0.89937 0
M  V30 18466 H 725.521 0.995326 -1.00435 0
M  V30 18467 P 724.096 4.23843 -7.83734 0
M  V30 18468 O 723.876 4.19407 -9.29784 0
M  V30 18469 O 723.306 5.24426 -7.09156 0
M  V30 18470 O 723.846 2.7935 -7.20758 0
M  V30 18471 C 724.786 1.7299 -7.50419 0
M  V30 18472 C 724.056 0.406376 -7.57911 0
M  V30 18473 O 723.846 -0.0897726 -6.21935 0
M  V30 18474 C 722.656 0.447224 -8.1878 0
M  V30 18475 O 722.266 -0.825065 -8.71101 0
M  V30 18476 C 721.776 0.783801 -6.99623 0
M  V30 18477 C 722.486 0.0619192 -5.85967 0
M  V30 18478 N 722.436 0.790462 -4.56202 0
M  V30 18479 H 725.275 1.93423 -8.4679 0
M  V30 18480 H 725.547 1.68852 -6.70877 0
M  V30 18481 H 724.679 -0.289041 -8.15388 0
M  V30 18482 H 722.024 -0.927006 -5.72848 0
M  V30 18483 H 721.744 1.86973 -6.82036 0
M  V30 18484 H 720.753 0.403953 -7.13357 0
M  V30 18485 H 722.587 1.20599 -8.97534 0
M  V30 18486 P 720.716 -1.17771 -8.83182 0
M  V30 18487 O 720.496 -2.07206 -9.98732 0
M  V30 18488 O 719.926 0.0743816 -8.81969 0
M  V30 18489 O 720.466 -1.97652 -7.47304 0
M  V30 18490 C 721.406 -3.01055 -7.08599 0
M  V30 18491 C 720.676 -4.12613 -6.37049 0
M  V30 18492 O 720.466 -3.72827 -4.97879 0
M  V30 18493 C 719.276 -4.45719 -6.88164 0
M  V30 18494 O 718.886 -5.7877 -6.5624 0
M  V30 18495 C 718.396 -3.47768 -6.11991 0
M  V30 18496 C 719.106 -3.39356 -4.77615 0
M  V30 18497 N 719.056 -2.04571 -4.15244 0
M  V30 18498 C 718.906 -1.98587 -2.78314 0
M  V30 18499 O 718.816 -2.98134 -2.08835 0
M  V30 18500 N 718.866 -0.714467 -2.24925 0
M  V30 18501 C 718.956 0.470001 -2.94169 0
M  V30 18502 C 719.106 0.312541 -4.36783 0
M  V30 18503 C 719.156 -0.914512 -4.92583 0
M  V30 18504 H 721.897 -3.41169 -7.98575 0
M  V30 18505 H 722.166 -2.58295 -6.41556 0
M  V30 18506 H 721.299 -5.02657 -6.42673 0
M  V30 18507 H 718.644 -4.11637 -4.08885 0
M  V30 18508 H 718.365 -2.49626 -6.61679 0
M  V30 18509 H 717.373 -3.86566 -6.00778 0
M  V30 18510 H 719.207 -4.29943 -7.96918 0
M  V30 18511 H 719.278 -1.00937 -6.00374 0
M  V30 18512 P 717.336 -6.144 -6.45285 0
M  V30 18513 O 717.116 -7.54673 -6.86199 0
M  V30 18514 O 716.546 -5.12391 -7.179 0
M  V30 18515 O 717.086 -5.99236 -4.88467 0
M  V30 18516 C 718.026 -6.60234 -3.96415 0
M  V30 18517 C 717.296 -7.08079 -2.736 0
M  V30 18518 O 717.086 -5.94365 -1.8368 0
M  V30 18519 C 715.896 -7.64886 -2.9555 0
M  V30 18520 O 715.506 -8.5406 -1.90739 0
M  V30 18521 C 715.016 -6.4116 -2.90739 0
M  V30 18522 C 715.726 -5.55375 -1.86963 0
M  V30 18523 N 715.676 -4.09664 -2.15742 0
M  V30 18524 C 715.526 -3.22231 -1.08477 0
M  V30 18525 O 715.436 -3.68951 0.0600489 0
M  V30 18526 N 715.476 -1.76692 -1.48799 0
M  V30 18527 C 715.576 -1.41695 -2.57602 0
M  V30 18528 N 715.526 -0.107296 -2.75791 0
M  V30 18529 C 715.726 -2.29178 -3.69733 0
M  V30 18530 C 715.776 -3.62753 -3.42653 0
M  V30 18531 H 718.516 -7.45488 -4.45578 0
M  V30 18532 H 718.786 -5.86232 -3.67314 0
M  V30 18533 H 717.919 -7.84508 -2.24507 0
M  V30 18534 H 715.264 -5.73556 -0.888715 0
M  V30 18535 H 714.984 -5.9096 -3.88638 0
M  V30 18536 H 713.993 -6.66053 -2.58894 0
M  V30 18537 H 715.827 -8.16339 -3.92049 0
M  V30 18538 H 715.899 -4.33052 -4.24913 0
M  V30 18539 H 715.797 -1.9103 -4.71577 0
M  V30 18540 H 715.409 0.521221 -1.95056 0
M  V30 18541 H 715.605 0.286429 -3.70695 0
M  V30 18542 P 713.956 -8.7635 -1.60911 0
M  V30 18543 O 713.736 -10.1388 -1.11561 0
M  V30 18544 O 713.166 -8.36503 -2.79617 0
M  V30 18545 O 713.706 -7.71806 -0.42951 0
M  V30 18546 C 714.646 -7.66948 0.673514 0
M  V30 18547 C 713.916 -7.33374 1.95559 0
M  V30 18548 O 713.706 -5.88721 2.00726 0
M  V30 18549 C 712.516 -7.92218 2.1125 0
M  V30 18550 O 712.126 -8.02971 3.47653 0
M  V30 18551 C 711.636 -6.89504 1.41631 0
M  V30 18552 C 712.346 -5.59106 1.75155 0
M  V30 18553 N 712.296 -4.58136 0.662409 0
M  V30 18554 C 712.146 -3.26059 1.02863 0
M  V30 18555 O 712.056 -2.90743 2.19009 0
M  V30 18556 N 712.106 -2.35995 -0.0155585 0
M  V30 18557 C 712.196 -2.65248 -1.35603 0
M  V30 18558 O 712.146 -1.75605 -2.20651 0
M  V30 18559 C 712.346 -4.05747 -1.64698 0
M  V30 18560 C 712.456 -4.42345 -3.09553 0
M  V30 18561 C 712.396 -4.96734 -0.652411 0
M  V30 18562 H 715.137 -8.64917 0.776982 0
M  V30 18563 H 715.406 -6.89974 0.474015 0
M  V30 18564 H 714.539 -7.66548 2.79458 0
M  V30 18565 H 711.884 -5.16076 2.65138 0
M  V30 18566 H 711.605 -7.06433 0.329384 0
M  V30 18567 H 710.613 -6.90829 1.81996 0
M  V30 18568 H 712.447 -8.90774 1.62639 0
M  V30 18569 H 712.518 -6.02181 -0.895285 0
M  V30 18570 H 711.488 -4.80252 -3.45468 0
M  V30 18571 H 713.225 -5.20015 -3.22119 0
M  V30 18572 H 712.737 -3.53269 -3.67833 0
M  V30 18573 H 712.001 -1.39558 0.227499 0
M  V30 18574 P 710.576 -8.03563 3.84925 0
M  V30 18575 O 710.356 -8.85821 5.0569 0
M  V30 18576 O 709.786 -8.41101 2.65469 0
M  V30 18577 O 710.326 -6.4965 4.18908 0
M  V30 18578 C 711.266 -5.81037 5.05421 0
M  V30 18579 C 710.536 -4.78366 5.89277 0
M  V30 18580 O 710.326 -3.58302 5.08433 0
M  V30 18581 C 709.136 -5.17448 6.36119 0
M  V30 18582 O 708.746 -4.45271 7.53232 0
M  V30 18583 C 708.256 -4.74639 5.19936 0
M  V30 18584 C 708.966 -3.49432 4.70418 0
M  V30 18585 N 708.916 -3.31776 3.22945 0
M  V30 18586 H 711.755 -6.54213 5.71376 0
M  V30 18587 H 712.027 -5.30492 4.44033 0
M  V30 18588 H 711.159 -4.55889 6.76652 0
M  V30 18589 P 707.196 -4.23843 7.83734 0
M  V30 18590 O 706.976 -4.19407 9.29784 0
M  V30 18591 O 706.406 -5.24426 7.09156 0
M  V30 18592 O 706.946 -2.7935 7.20758 0
M  V30 18593 C 707.886 -1.7299 7.50419 0
M  V30 18594 C 707.156 -0.406376 7.57911 0
M  V30 18595 O 706.946 0.0897726 6.21935 0
M  V30 18596 C 705.756 -0.447224 8.1878 0
M  V30 18597 O 705.366 0.825065 8.71101 0
M  V30 18598 C 704.876 -0.783801 6.99623 0
M  V30 18599 C 705.586 -0.0619192 5.85967 0
M  V30 18600 N 705.536 -0.790462 4.56202 0
M  V30 18601 H 708.375 -1.93423 8.4679 0
M  V30 18602 H 708.647 -1.68852 6.70877 0
M  V30 18603 H 707.779 0.289041 8.15388 0
M  V30 18604 H 705.124 0.927006 5.72848 0
M  V30 18605 H 704.844 -1.86973 6.82036 0
M  V30 18606 H 703.853 -0.403953 7.13357 0
M  V30 18607 H 705.687 -1.20599 8.97534 0
M  V30 18608 P 703.816 1.17771 8.83182 0
M  V30 18609 O 703.596 2.07206 9.98732 0
M  V30 18610 O 703.026 -0.0743816 8.81969 0
M  V30 18611 O 703.566 1.97652 7.47304 0
M  V30 18612 C 704.506 3.01133 7.08783 0
M  V30 18613 C 703.776 4.12613 6.37049 0
M  V30 18614 O 703.566 3.72827 4.97879 0
M  V30 18615 C 702.376 4.45085 6.88694 0
M  V30 18616 O 701.986 5.7877 6.5624 0
M  V30 18617 C 701.496 3.47817 6.12078 0
M  V30 18618 C 702.206 3.39414 4.77697 0
M  V30 18619 N 702.156 2.04615 4.15333 0
M  V30 18620 H 704.995 3.41248 7.98759 0
M  V30 18621 H 705.267 2.5837 6.41742 0
M  V30 18622 H 704.399 5.02657 6.42673 0
M  V30 18623 P 700.436 6.144 6.45285 0
M  V30 18624 O 700.216 7.54673 6.86199 0
M  V30 18625 O 699.646 5.12391 7.179 0
M  V30 18626 O 700.186 5.99158 4.88404 0
M  V30 18627 C 701.126 6.60234 3.96415 0
M  V30 18628 C 700.396 7.08259 2.72856 0
M  V30 18629 O 700.186 5.9427 1.83651 0
M  V30 18630 C 698.996 7.64886 2.9555 0
M  V30 18631 O 698.606 8.53963 1.90717 0
M  V30 18632 C 698.116 6.4116 2.90739 0
M  V30 18633 C 698.826 5.55375 1.86963 0
M  V30 18634 N 698.776 4.09448 2.16152 0
M  V30 18635 H 701.615 7.45574 4.45629 0
M  V30 18636 H 701.887 5.85864 3.679 0
M  V30 18637 H 701.019 7.84412 2.24479 0
M  V30 18638 H 698.364 5.73457 0.888562 0
M  V30 18639 H 698.084 5.90877 3.88583 0
M  V30 18640 H 697.093 6.6596 2.58858 0
M  V30 18641 H 698.927 8.16339 3.92049 0
M  V30 18642 P 697.056 8.7635 1.60911 0
M  V30 18643 O 696.836 10.1388 1.11561 0
M  V30 18644 O 696.266 8.36503 2.79617 0
M  V30 18645 O 696.806 7.71806 0.42951 0
M  V30 18646 C 697.746 7.67148 -0.673689 0
M  V30 18647 C 697.016 7.33374 -1.95559 0
M  V30 18648 O 696.806 5.88721 -2.00726 0
M  V30 18649 C 695.616 7.92526 -2.10483 0
M  V30 18650 O 695.226 8.02971 -3.47653 0
M  V30 18651 C 694.736 6.89602 -1.41652 0
M  V30 18652 C 695.446 5.59201 -1.75185 0
M  V30 18653 N 695.396 4.58235 -0.662552 0
M  V30 18654 H 698.235 8.65116 -0.777161 0
M  V30 18655 H 698.507 6.90173 -0.474152 0
M  V30 18656 H 697.639 7.66548 -2.79458 0
M  V30 18657 P 693.676 8.03563 -3.84925 0
M  V30 18658 O 693.456 8.85821 -5.0569 0
M  V30 18659 O 692.886 8.41101 -2.65469 0
M  V30 18660 O 693.426 6.4965 -4.18908 0
M  V30 18661 C 694.366 5.81037 -5.05421 0
M  V30 18662 C 693.636 4.78366 -5.89277 0
M  V30 18663 O 693.426 3.58302 -5.08433 0
M  V30 18664 C 692.236 5.17448 -6.36119 0
M  V30 18665 O 691.846 4.45271 -7.53232 0
M  V30 18666 C 691.356 4.74639 -5.19936 0
M  V30 18667 C 692.066 3.49432 -4.70418 0
M  V30 18668 N 692.016 3.31776 -3.22945 0
M  V30 18669 H 694.855 6.54213 -5.71376 0
M  V30 18670 H 695.127 5.30492 -4.44033 0
M  V30 18671 H 694.259 4.55889 -6.76652 0
M  V30 18672 P 690.296 4.23843 -7.83734 0
M  V30 18673 O 690.076 4.19407 -9.29784 0
M  V30 18674 O 689.506 5.24426 -7.09156 0
M  V30 18675 O 690.046 2.7935 -7.20758 0
M  V30 18676 C 690.986 1.7299 -7.50419 0
M  V30 18677 C 690.256 0.406376 -7.57911 0
M  V30 18678 O 690.046 -0.0897726 -6.21935 0
M  V30 18679 C 688.856 0.447224 -8.1878 0
M  V30 18680 O 688.466 -0.825065 -8.71101 0
M  V30 18681 C 687.976 0.783801 -6.99623 0
M  V30 18682 C 688.686 0.0619192 -5.85967 0
M  V30 18683 N 688.636 0.7859 -4.56281 0
M  V30 18684 H 691.475 1.93423 -8.4679 0
M  V30 18685 H 691.747 1.68181 -6.71046 0
M  V30 18686 H 690.879 -0.289041 -8.15388 0
M  V30 18687 P 686.916 -1.17771 -8.83182 0
M  V30 18688 O 686.696 -2.07206 -9.98732 0
M  V30 18689 O 686.126 0.0743816 -8.81969 0
M  V30 18690 O 686.666 -1.97652 -7.47304 0
M  V30 18691 C 687.606 -3.01133 -7.08783 0
M  V30 18692 C 686.876 -4.12613 -6.37049 0
M  V30 18693 O 686.666 -3.72827 -4.97879 0
M  V30 18694 C 685.476 -4.45085 -6.88694 0
M  V30 18695 O 685.086 -5.7877 -6.5624 0
M  V30 18696 C 684.596 -3.47817 -6.12078 0
M  V30 18697 C 685.306 -3.39414 -4.77697 0
M  V30 18698 N 685.256 -2.04615 -4.15333 0
M  V30 18699 H 688.095 -3.41248 -7.98759 0
M  V30 18700 H 688.367 -2.5837 -6.41742 0
M  V30 18701 H 687.499 -5.02657 -6.42673 0
M  V30 18702 P 683.536 -6.144 -6.45285 0
M  V30 18703 O 683.316 -7.54673 -6.86199 0
M  V30 18704 O 682.746 -5.12391 -7.179 0
M  V30 18705 O 683.286 -5.99158 -4.88404 0
M  V30 18706 C 684.226 -6.60234 -3.96415 0
M  V30 18707 C 683.496 -7.08259 -2.72856 0
M  V30 18708 O 683.286 -5.9427 -1.83651 0
M  V30 18709 C 682.096 -7.64886 -2.9555 0
M  V30 18710 O 681.706 -8.53963 -1.90717 0
M  V30 18711 C 681.216 -6.4116 -2.90739 0
M  V30 18712 C 681.926 -5.55375 -1.86963 0
M  V30 18713 N 681.876 -4.09664 -2.15742 0
M  V30 18714 H 684.715 -7.45574 -4.45629 0
M  V30 18715 H 684.987 -5.86232 -3.67314 0
M  V30 18716 H 684.119 -7.84412 -2.24479 0
M  V30 18717 P 680.156 -8.7635 -1.60911 0
M  V30 18718 O 679.936 -10.1388 -1.11561 0
M  V30 18719 O 679.366 -8.36503 -2.79617 0
M  V30 18720 O 679.906 -7.71806 -0.42951 0
M  V30 18721 C 680.846 -7.67148 0.673689 0
M  V30 18722 C 680.116 -7.33374 1.95559 0
M  V30 18723 O 679.906 -5.88721 2.00726 0
M  V30 18724 C 678.716 -7.92526 2.10483 0
M  V30 18725 O 678.326 -8.02971 3.47653 0
M  V30 18726 C 677.836 -6.89602 1.41652 0
M  V30 18727 C 678.546 -5.59201 1.75185 0
M  V30 18728 N 678.496 -4.58235 0.662552 0
M  V30 18729 H 681.335 -8.65116 0.777161 0
M  V30 18730 H 681.607 -6.90173 0.474152 0
M  V30 18731 H 680.739 -7.66548 2.79458 0
M  V30 18732 P 676.776 -8.03563 3.84925 0
M  V30 18733 O 676.556 -8.85821 5.0569 0
M  V30 18734 O 675.986 -8.41101 2.65469 0
M  V30 18735 O 676.526 -6.4965 4.18908 0
M  V30 18736 C 677.466 -5.81037 5.05421 0
M  V30 18737 C 676.736 -4.78366 5.89277 0
M  V30 18738 O 676.526 -3.58302 5.08433 0
M  V30 18739 C 675.336 -5.17448 6.36119 0
M  V30 18740 O 674.946 -4.45271 7.53232 0
M  V30 18741 C 674.456 -4.74639 5.19936 0
M  V30 18742 C 675.166 -3.49432 4.70418 0
M  V30 18743 N 675.116 -3.31776 3.22945 0
M  V30 18744 H 677.955 -6.54213 5.71376 0
M  V30 18745 H 678.227 -5.30492 4.44033 0
M  V30 18746 H 677.359 -4.55889 6.76652 0
M  V30 18747 P 673.396 -4.23843 7.83734 0
M  V30 18748 O 673.176 -4.19407 9.29784 0
M  V30 18749 O 672.606 -5.24426 7.09156 0
M  V30 18750 O 673.146 -2.7935 7.20758 0
M  V30 18751 C 674.086 -1.7299 7.50419 0
M  V30 18752 C 673.356 -0.406376 7.57911 0
M  V30 18753 O 673.146 0.0897726 6.21935 0
M  V30 18754 C 671.956 -0.447224 8.1878 0
M  V30 18755 O 671.566 0.825065 8.71101 0
M  V30 18756 C 671.076 -0.783801 6.99623 0
M  V30 18757 C 671.786 -0.0619192 5.85967 0
M  V30 18758 N 671.736 -0.7859 4.56281 0
M  V30 18759 H 674.575 -1.93423 8.4679 0
M  V30 18760 H 674.847 -1.68181 6.71046 0
M  V30 18761 H 673.979 0.289041 8.15388 0
M  V30 18762 P 670.016 1.17771 8.83182 0
M  V30 18763 O 669.796 2.07206 9.98732 0
M  V30 18764 O 669.226 -0.0743816 8.81969 0
M  V30 18765 O 669.766 1.97652 7.47304 0
M  V30 18766 C 670.706 3.01133 7.08783 0
M  V30 18767 C 669.976 4.12613 6.37049 0
M  V30 18768 O 669.766 3.72827 4.97879 0
M  V30 18769 C 668.576 4.45085 6.88694 0
M  V30 18770 O 668.186 5.7877 6.5624 0
M  V30 18771 C 667.696 3.47817 6.12078 0
M  V30 18772 C 668.406 3.39414 4.77697 0
M  V30 18773 N 668.356 2.04615 4.15333 0
M  V30 18774 H 671.195 3.41248 7.98759 0
M  V30 18775 H 671.467 2.5837 6.41742 0
M  V30 18776 H 670.599 5.02657 6.42673 0
M  V30 18777 P 666.636 6.144 6.45285 0
M  V30 18778 O 666.416 7.54673 6.86199 0
M  V30 18779 O 665.846 5.12391 7.179 0
M  V30 18780 O 666.386 5.99158 4.88404 0
M  V30 18781 C 667.326 6.60234 3.96415 0
M  V30 18782 C 666.596 7.08259 2.72856 0
M  V30 18783 O 666.386 5.9427 1.83651 0
M  V30 18784 C 665.196 7.64886 2.9555 0
M  V30 18785 O 664.806 8.53963 1.90717 0
M  V30 18786 C 664.316 6.4116 2.90739 0
M  V30 18787 C 665.026 5.55375 1.86963 0
M  V30 18788 N 664.976 4.09448 2.16152 0
M  V30 18789 H 667.815 7.45574 4.45629 0
M  V30 18790 H 668.087 5.85864 3.679 0
M  V30 18791 H 667.219 7.84412 2.24479 0
M  V30 18792 H 664.564 5.73457 0.888562 0
M  V30 18793 H 664.284 5.90877 3.88583 0
M  V30 18794 H 663.293 6.6596 2.58858 0
M  V30 18795 H 665.127 8.16339 3.92049 0
M  V30 18796 P 663.256 8.7635 1.60911 0
M  V30 18797 O 663.036 10.1388 1.11561 0
M  V30 18798 O 662.466 8.36503 2.79617 0
M  V30 18799 O 663.006 7.71806 0.42951 0
M  V30 18800 C 663.946 7.67148 -0.673689 0
M  V30 18801 C 663.216 7.33374 -1.95559 0
M  V30 18802 O 663.006 5.88721 -2.00726 0
M  V30 18803 C 661.816 7.92526 -2.10483 0
M  V30 18804 O 661.426 8.02971 -3.47653 0
M  V30 18805 C 660.936 6.89602 -1.41652 0
M  V30 18806 C 661.646 5.59201 -1.75185 0
M  V30 18807 N 661.596 4.58235 -0.662552 0
M  V30 18808 H 664.435 8.65116 -0.777161 0
M  V30 18809 H 664.707 6.90173 -0.474152 0
M  V30 18810 H 663.839 7.66548 -2.79458 0
M  V30 18811 P 659.876 8.03563 -3.84925 0
M  V30 18812 O 659.656 8.85821 -5.0569 0
M  V30 18813 O 659.086 8.41101 -2.65469 0
M  V30 18814 O 659.626 6.4965 -4.18908 0
M  V30 18815 C 660.566 5.81037 -5.05421 0
M  V30 18816 C 659.836 4.78366 -5.89277 0
M  V30 18817 O 659.626 3.58302 -5.08433 0
M  V30 18818 C 658.436 5.17448 -6.36119 0
M  V30 18819 O 658.046 4.45271 -7.53232 0
M  V30 18820 C 657.556 4.74639 -5.19936 0
M  V30 18821 C 658.266 3.49432 -4.70418 0
M  V30 18822 N 658.216 3.31776 -3.22945 0
M  V30 18823 C 658.296 4.27147 -2.23315 0
M  V30 18824 N 658.216 3.78447 -1.02186 0
M  V30 18825 C 658.076 2.41001 -1.21732 0
M  V30 18826 C 657.946 1.36111 -0.27694 0
M  V30 18827 N 657.826 0.113683 -0.912949 0
M  V30 18828 C 657.826 -0.0846396 -2.27943 0
M  V30 18829 N 657.696 -1.34737 -2.6916 0
M  V30 18830 N 657.956 0.902521 -3.16379 0
M  V30 18831 C 658.076 2.11937 -2.56849 0
M  V30 18832 H 661.055 6.54213 -5.71376 0
M  V30 18833 H 661.327 5.30492 -4.44033 0
M  V30 18834 H 660.459 4.55889 -6.76652 0
M  V30 18835 P 656.496 4.23843 -7.83734 0
M  V30 18836 O 656.276 4.19407 -9.29784 0
M  V30 18837 O 655.706 5.24426 -7.09156 0
M  V30 18838 O 656.246 2.7935 -7.20758 0
M  V30 18839 C 657.186 1.7299 -7.50419 0
M  V30 18840 C 656.456 0.406376 -7.57911 0
M  V30 18841 O 656.246 -0.0897726 -6.21935 0
M  V30 18842 C 655.056 0.447224 -8.1878 0
M  V30 18843 O 654.666 -0.825065 -8.71101 0
M  V30 18844 C 654.176 0.783801 -6.99623 0
M  V30 18845 C 654.886 0.0619192 -5.85967 0
M  V30 18846 N 654.836 0.7859 -4.56281 0
M  V30 18847 H 657.675 1.93423 -8.4679 0
M  V30 18848 H 657.947 1.68181 -6.71046 0
M  V30 18849 H 657.079 -0.289041 -8.15388 0
M  V30 18850 P 653.116 -1.17771 -8.83182 0
M  V30 18851 O 652.896 -2.07206 -9.98732 0
M  V30 18852 O 652.326 0.0743816 -8.81969 0
M  V30 18853 O 652.866 -1.97652 -7.47304 0
M  V30 18854 C 653.806 -3.01133 -7.08783 0
M  V30 18855 C 653.076 -4.12613 -6.37049 0
M  V30 18856 O 652.866 -3.72827 -4.97879 0
M  V30 18857 C 651.676 -4.45085 -6.88694 0
M  V30 18858 O 651.286 -5.7877 -6.5624 0
M  V30 18859 C 650.796 -3.47817 -6.12078 0
M  V30 18860 C 651.506 -3.39414 -4.77697 0
M  V30 18861 N 651.456 -2.04615 -4.15333 0
M  V30 18862 C 651.536 -0.803897 -4.75249 0
M  V30 18863 N 651.456 0.197615 -3.91502 0
M  V30 18864 C 651.316 -0.413002 -2.66823 0
M  V30 18865 C 651.186 0.157221 -1.38007 0
M  V30 18866 N 651.066 -0.833136 -0.390236 0
M  V30 18867 C 651.066 -2.19402 -0.623885 0
M  V30 18868 N 650.936 -2.97622 0.449677 0
M  V30 18869 N 651.196 -2.73005 -1.83601 0
M  V30 18870 C 651.316 -1.78786 -2.80935 0
M  V30 18871 H 654.295 -3.41248 -7.98759 0
M  V30 18872 H 654.567 -2.5837 -6.41742 0
M  V30 18873 H 653.699 -5.02657 -6.42673 0
M  V30 18874 P 649.736 -6.144 -6.45285 0
M  V30 18875 O 649.516 -7.54673 -6.86199 0
M  V30 18876 O 648.946 -5.12391 -7.179 0
M  V30 18877 O 649.486 -5.99158 -4.88404 0
M  V30 18878 C 650.426 -6.60234 -3.96415 0
M  V30 18879 C 649.696 -7.08259 -2.72856 0
M  V30 18880 O 649.486 -5.9427 -1.83651 0
M  V30 18881 C 648.296 -7.64886 -2.9555 0
M  V30 18882 O 647.906 -8.53963 -1.90717 0
M  V30 18883 C 647.416 -6.4116 -2.90739 0
M  V30 18884 C 648.126 -5.55375 -1.86963 0
M  V30 18885 N 648.076 -4.09664 -2.15742 0
M  V30 18886 H 650.915 -7.45574 -4.45629 0
M  V30 18887 H 651.187 -5.86232 -3.67314 0
M  V30 18888 H 650.319 -7.84412 -2.24479 0
M  V30 18889 P 646.356 -8.7635 -1.60911 0
M  V30 18890 O 646.136 -10.1388 -1.11561 0
M  V30 18891 O 645.566 -8.36503 -2.79617 0
M  V30 18892 O 646.106 -7.71806 -0.42951 0
M  V30 18893 C 647.046 -7.66948 0.673514 0
M  V30 18894 C 646.316 -7.33374 1.95559 0
M  V30 18895 O 646.106 -5.88721 2.00726 0
M  V30 18896 C 644.916 -7.92218 2.1125 0
M  V30 18897 O 644.526 -8.02971 3.47653 0
M  V30 18898 C 644.036 -6.89504 1.41631 0
M  V30 18899 C 644.746 -5.59106 1.75155 0
M  V30 18900 N 644.696 -4.58136 0.662409 0
M  V30 18901 C 644.546 -3.26059 1.02863 0
M  V30 18902 O 644.456 -2.90743 2.19009 0
M  V30 18903 N 644.506 -2.35995 -0.0155585 0
M  V30 18904 C 644.596 -2.65248 -1.35603 0
M  V30 18905 O 644.546 -1.75605 -2.20651 0
M  V30 18906 C 644.746 -4.05747 -1.64698 0
M  V30 18907 C 644.856 -4.42345 -3.09553 0
M  V30 18908 C 644.796 -4.96734 -0.652411 0
M  V30 18909 H 647.537 -8.64917 0.776982 0
M  V30 18910 H 647.806 -6.89974 0.474015 0
M  V30 18911 H 646.939 -7.66548 2.79458 0
M  V30 18912 H 644.284 -5.16076 2.65138 0
M  V30 18913 H 644.005 -7.06433 0.329384 0
M  V30 18914 H 643.013 -6.90829 1.81996 0
M  V30 18915 H 644.847 -8.90774 1.62639 0
M  V30 18916 H 644.918 -6.02181 -0.895285 0
M  V30 18917 H 643.888 -4.80252 -3.45468 0
M  V30 18918 H 645.625 -5.20015 -3.22119 0
M  V30 18919 H 645.137 -3.53269 -3.67833 0
M  V30 18920 H 644.401 -1.39558 0.227499 0
M  V30 18921 P 642.976 -8.03563 3.84925 0
M  V30 18922 O 642.756 -8.85821 5.0569 0
M  V30 18923 O 642.186 -8.41101 2.65469 0
M  V30 18924 O 642.726 -6.4965 4.18908 0
M  V30 18925 C 643.666 -5.80886 5.05289 0
M  V30 18926 C 642.936 -4.78366 5.89277 0
M  V30 18927 O 642.726 -3.58302 5.08433 0
M  V30 18928 C 641.536 -5.16748 6.36559 0
M  V30 18929 O 641.146 -4.45271 7.53232 0
M  V30 18930 C 640.656 -4.74572 5.19863 0
M  V30 18931 C 641.366 -3.49373 4.70338 0
M  V30 18932 N 641.316 -3.31704 3.22876 0
M  V30 18933 C 641.166 -2.03326 2.74871 0
M  V30 18934 O 641.076 -1.06486 3.48076 0
M  V30 18935 N 641.126 -1.91838 1.37456 0
M  V30 18936 C 641.216 -2.94295 0.462035 0
M  V30 18937 O 641.166 -2.71763 -0.752928 0
M  V30 18938 C 641.366 -4.25064 1.05249 0
M  V30 18939 C 641.476 -5.39815 0.095697 0
M  V30 18940 C 641.416 -4.40214 2.39192 0
M  V30 18941 H 644.157 -6.54063 5.71245 0
M  V30 18942 H 644.426 -5.30339 4.43905 0
M  V30 18943 H 643.559 -4.55889 6.76652 0
M  V30 18944 H 640.904 -2.6167 5.17842 0
M  V30 18945 H 640.625 -5.52155 4.41878 0
M  V30 18946 H 639.633 -4.51918 5.53297 0
M  V30 18947 H 641.467 -6.25055 6.55162 0
M  V30 18948 H 641.538 -5.39798 2.81523 0
M  V30 18949 H 640.508 -5.91593 0.0279582 0
M  V30 18950 H 642.245 -6.10038 0.450573 0
M  V30 18951 H 641.757 -5.02007 -0.89937 0
M  V30 18952 H 641.021 -0.995326 1.00435 0
M  V30 18953 P 639.596 -4.23843 7.83734 0
M  V30 18954 O 639.376 -4.19407 9.29784 0
M  V30 18955 O 638.806 -5.24426 7.09156 0
M  V30 18956 O 639.346 -2.7935 7.20758 0
M  V30 18957 C 640.286 -1.7299 7.50419 0
M  V30 18958 C 639.556 -0.406376 7.57911 0
M  V30 18959 O 639.346 0.0897726 6.21935 0
M  V30 18960 C 638.156 -0.447224 8.1878 0
M  V30 18961 O 637.766 0.825065 8.71101 0
M  V30 18962 C 637.276 -0.783801 6.99623 0
M  V30 18963 C 637.986 -0.0619192 5.85967 0
M  V30 18964 N 637.936 -0.7859 4.56281 0
M  V30 18965 C 638.016 -2.14308 4.31736 0
M  V30 18966 N 637.936 -2.46106 3.05116 0
M  V30 18967 C 637.796 -1.23422 2.4014 0
M  V30 18968 C 637.666 -0.938381 1.02409 0
M  V30 18969 O 637.646 -1.70876 0.0650402 0
M  V30 18970 N 637.546 0.444647 0.805413 0
M  V30 18971 C 637.546 1.40829 1.79435 0
M  V30 18972 N 637.416 2.67213 1.38558 0
M  V30 18973 N 637.676 1.12947 3.09005 0
M  V30 18974 C 637.796 -0.204887 3.32369 0
M  V30 18975 H 640.775 -1.93423 8.4679 0
M  V30 18976 H 641.047 -1.68181 6.71046 0
M  V30 18977 H 640.179 0.289041 8.15388 0
M  V30 18978 H 637.524 0.927166 5.72947 0
M  V30 18979 H 637.244 -1.87 6.82132 0
M  V30 18980 H 636.253 -0.404009 7.13457 0
M  V30 18981 H 638.087 -1.20612 8.97633 0
M  V30 18982 H 638.136 -2.88284 5.10874 0
M  V30 18983 H 637.454 0.755087 -0.140242 0
M  V30 18984 H 637.417 3.43967 2.0729 0
M  V30 18985 H 637.316 2.88096 0.380644 0
M  V30 18986 P 636.216 1.17771 8.83182 0
M  V30 18987 O 635.996 2.07206 9.98732 0
M  V30 18988 O 635.426 -0.0743816 8.81969 0
M  V30 18989 O 635.966 1.97652 7.47304 0
M  V30 18990 C 636.906 3.01133 7.08783 0
M  V30 18991 C 636.176 4.12613 6.37049 0
M  V30 18992 O 635.966 3.72827 4.97879 0
M  V30 18993 C 634.776 4.45085 6.88694 0
M  V30 18994 O 634.386 5.7877 6.5624 0
M  V30 18995 C 633.896 3.47817 6.12078 0
M  V30 18996 C 634.606 3.39414 4.77697 0
M  V30 18997 N 634.556 2.04199 4.15538 0
M  V30 18998 C 634.636 0.821545 4.76977 0
M  V30 18999 N 634.566 -0.1794 3.94592 0
M  V30 19000 C 634.416 0.419121 2.70776 0
M  V30 19001 C 634.286 -0.109072 1.40577 0
M  V30 19002 N 634.276 -1.4104 1.1344 0
M  V30 19003 N 634.166 0.764381 0.39411 0
M  V30 19004 C 634.176 2.06587 0.664135 0
M  V30 19005 N 634.296 2.67948 1.82153 0
M  V30 19006 C 634.416 1.77942 2.8147 0
M  V30 19007 H 637.395 3.41248 7.98759 0
M  V30 19008 H 637.667 2.57728 6.42 0
M  V30 19009 H 636.799 5.02657 6.42673 0
M  V30 19010 H 634.144 4.11708 4.08956 0
M  V30 19011 H 633.864 2.49626 6.61679 0
M  V30 19012 H 632.873 3.8662 6.00862 0
M  V30 19013 H 634.707 4.29991 7.97006 0
M  V30 19014 H 634.748 0.702451 5.84696 0
M  V30 19015 H 634.367 -2.09647 1.89651 0
M  V30 19016 H 634.178 -1.73358 0.160575 0
M  V30 19017 H 634.07 2.71695 -0.195838 0
M  V30 19018 P 632.836 6.144 6.45285 0
M  V30 19019 O 632.616 7.54673 6.86199 0
M  V30 19020 O 632.046 5.12391 7.179 0
M  V30 19021 O 632.586 5.99158 4.88404 0
M  V30 19022 C 633.526 6.60234 3.96415 0
M  V30 19023 C 632.796 7.08259 2.72856 0
M  V30 19024 O 632.586 5.9427 1.83651 0
M  V30 19025 C 631.396 7.64886 2.9555 0
M  V30 19026 O 631.006 8.53963 1.90717 0
M  V30 19027 C 630.516 6.4116 2.90739 0
M  V30 19028 C 631.226 5.55375 1.86963 0
M  V30 19029 N 631.176 4.09448 2.16152 0
M  V30 19030 H 634.015 7.45574 4.45629 0
M  V30 19031 H 634.287 5.85864 3.679 0
M  V30 19032 H 633.419 7.84412 2.24479 0
M  V30 19033 H 630.764 5.73457 0.888562 0
M  V30 19034 H 630.484 5.90877 3.88583 0
M  V30 19035 H 629.493 6.6596 2.58858 0
M  V30 19036 H 631.327 8.16339 3.92049 0
M  V30 19037 P 629.456 8.7635 1.60911 0
M  V30 19038 O 629.236 10.1388 1.11561 0
M  V30 19039 O 628.666 8.36503 2.79617 0
M  V30 19040 O 629.206 7.71806 0.42951 0
M  V30 19041 C 630.146 7.67148 -0.673689 0
M  V30 19042 C 629.416 7.33374 -1.95559 0
M  V30 19043 O 629.206 5.88721 -2.00726 0
M  V30 19044 C 628.016 7.92526 -2.10483 0
M  V30 19045 O 627.626 8.02971 -3.47653 0
M  V30 19046 C 627.136 6.89602 -1.41652 0
M  V30 19047 C 627.846 5.59201 -1.75185 0
M  V30 19048 N 627.796 4.58301 -0.657969 0
M  V30 19049 H 630.635 8.65116 -0.777161 0
M  V30 19050 H 630.907 6.9022 -0.46725 0
M  V30 19051 H 630.039 7.66548 -2.79458 0
M  V30 19052 H 627.384 5.16165 -2.65183 0
M  V30 19053 H 627.104 7.06433 -0.329384 0
M  V30 19054 H 626.113 6.90926 -1.82021 0
M  V30 19055 H 627.947 8.90873 -1.62657 0
M  V30 19056 P 626.076 8.03563 -3.84925 0
M  V30 19057 O 625.856 8.85821 -5.0569 0
M  V30 19058 O 625.286 8.41101 -2.65469 0
M  V30 19059 O 625.826 6.4965 -4.18908 0
M  V30 19060 C 626.766 5.80886 -5.05289 0
M  V30 19061 C 626.036 4.78366 -5.89277 0
M  V30 19062 O 625.826 3.58302 -5.08433 0
M  V30 19063 C 624.636 5.16748 -6.36559 0
M  V30 19064 O 624.246 4.45271 -7.53232 0
M  V30 19065 C 623.756 4.74572 -5.19863 0
M  V30 19066 C 624.466 3.49373 -4.70338 0
M  V30 19067 N 624.416 3.31704 -3.22876 0
M  V30 19068 C 624.266 2.03326 -2.74871 0
M  V30 19069 O 624.176 1.06486 -3.48076 0
M  V30 19070 N 624.226 1.91838 -1.37456 0
M  V30 19071 C 624.316 2.94295 -0.462035 0
M  V30 19072 O 624.266 2.71763 0.752928 0
M  V30 19073 C 624.466 4.25064 -1.05249 0
M  V30 19074 C 624.576 5.39815 -0.095697 0
M  V30 19075 C 624.516 4.40214 -2.39192 0
M  V30 19076 H 627.257 6.54063 -5.71245 0
M  V30 19077 H 627.526 5.30339 -4.43905 0
M  V30 19078 H 626.659 4.55889 -6.76652 0
M  V30 19079 H 624.004 2.6167 -5.17842 0
M  V30 19080 H 623.725 5.52155 -4.41878 0
M  V30 19081 H 622.733 4.51918 -5.53297 0
M  V30 19082 H 624.567 6.25055 -6.55162 0
M  V30 19083 H 624.638 5.39798 -2.81523 0
M  V30 19084 H 623.608 5.91593 -0.0279582 0
M  V30 19085 H 625.345 6.10038 -0.450573 0
M  V30 19086 H 624.857 5.02007 0.89937 0
M  V30 19087 H 624.121 0.995326 -1.00435 0
M  V30 19088 P 622.696 4.23843 -7.83734 0
M  V30 19089 O 622.476 4.19407 -9.29784 0
M  V30 19090 O 621.906 5.24426 -7.09156 0
M  V30 19091 O 622.446 2.7935 -7.20758 0
M  V30 19092 C 623.386 1.72945 -7.50224 0
M  V30 19093 C 622.656 0.406376 -7.57911 0
M  V30 19094 O 622.446 -0.0897726 -6.21935 0
M  V30 19095 C 621.256 0.438983 -8.18724 0
M  V30 19096 O 620.866 -0.825065 -8.71101 0
M  V30 19097 C 620.376 0.783689 -6.99524 0
M  V30 19098 C 621.086 0.0619086 -5.85867 0
M  V30 19099 N 621.036 0.78573 -4.56183 0
M  V30 19100 C 620.886 0.0292889 -3.41887 0
M  V30 19101 O 620.796 -1.18445 -3.4419 0
M  V30 19102 N 620.846 0.744061 -2.23964 0
M  V30 19103 C 620.936 2.10932 -2.10362 0
M  V30 19104 O 620.886 2.64117 -0.98825 0
M  V30 19105 C 621.086 2.8202 -3.34994 0
M  V30 19106 C 621.196 4.31095 -3.25037 0
M  V30 19107 C 621.136 2.15547 -4.52261 0
M  V30 19108 H 623.877 1.93379 -8.46595 0
M  V30 19109 H 624.146 1.68132 -6.70852 0
M  V30 19110 H 623.279 -0.289041 -8.15388 0
M  V30 19111 H 620.624 -0.926847 -5.72749 0
M  V30 19112 H 620.345 1.86973 -6.82036 0
M  V30 19113 H 619.353 0.403896 -7.13257 0
M  V30 19114 H 621.187 1.20585 -8.97435 0
M  V30 19115 H 621.258 2.71231 -5.45042 0
M  V30 19116 H 620.228 4.76966 -3.49992 0
M  V30 19117 H 621.965 4.67047 -3.95024 0
M  V30 19118 H 621.477 4.58996 -2.22312 0
M  V30 19119 H 620.741 0.214893 -1.39758 0
M  V30 19120 P 619.316 -1.17771 -8.83182 0
M  V30 19121 O 619.096 -2.07206 -9.98732 0
M  V30 19122 O 618.526 0.0743816 -8.81969 0
M  V30 19123 O 619.066 -1.97652 -7.47304 0
M  V30 19124 C 620.006 -3.01133 -7.08783 0
M  V30 19125 C 619.276 -4.12613 -6.37049 0
M  V30 19126 O 619.066 -3.72827 -4.97879 0
M  V30 19127 C 617.876 -4.45085 -6.88694 0
M  V30 19128 O 617.486 -5.7877 -6.5624 0
M  V30 19129 C 616.996 -3.47817 -6.12078 0
M  V30 19130 C 617.706 -3.39414 -4.77697 0
M  V30 19131 N 617.656 -2.04199 -4.15538 0
M  V30 19132 H 620.495 -3.41248 -7.98759 0
M  V30 19133 H 620.767 -2.57728 -6.42 0
M  V30 19134 H 619.899 -5.02657 -6.42673 0
M  V30 19135 H 617.244 -4.11708 -4.08956 0
M  V30 19136 H 616.964 -2.49626 -6.61679 0
M  V30 19137 H 615.973 -3.8662 -6.00862 0
M  V30 19138 H 617.807 -4.29991 -7.97006 0
M  V30 19139 P 615.936 -6.144 -6.45285 0
M  V30 19140 O 615.716 -7.54673 -6.86199 0
M  V30 19141 O 615.146 -5.12391 -7.179 0
M  V30 19142 O 615.686 -5.99158 -4.88404 0
M  V30 19143 C 616.626 -6.60062 -3.96313 0
M  V30 19144 C 615.896 -7.08259 -2.72856 0
M  V30 19145 O 615.686 -5.9427 -1.83651 0
M  V30 19146 C 614.496 -7.65087 -2.94749 0
M  V30 19147 O 614.106 -8.53963 -1.90717 0
M  V30 19148 C 613.616 -6.41069 -2.90698 0
M  V30 19149 C 614.326 -5.5528 -1.86931 0
M  V30 19150 N 614.276 -4.09575 -2.15696 0
M  V30 19151 C 614.126 -3.24249 -1.08435 0
M  V30 19152 O 614.036 -3.63946 0.0628747 0
M  V30 19153 N 614.086 -1.90009 -1.39973 0
M  V30 19154 C 614.176 -1.34884 -2.65614 0
M  V30 19155 O 614.126 -0.123716 -2.81728 0
M  V30 19156 C 614.326 -2.3145 -3.71736 0
M  V30 19157 C 614.436 -1.75913 -5.10438 0
M  V30 19158 C 614.376 -3.63518 -3.44754 0
M  V30 19159 H 617.117 -7.45402 -4.45526 0
M  V30 19160 H 617.386 -5.86062 -3.67208 0
M  V30 19161 H 616.519 -7.84412 -2.24479 0
M  V30 19162 H 613.864 -5.73358 -0.888409 0
M  V30 19163 H 613.585 -5.90877 -3.88583 0
M  V30 19164 H 612.593 -6.65867 -2.58821 0
M  V30 19165 H 614.427 -8.16248 -3.92006 0
M  V30 19166 H 614.498 -4.34551 -4.26383 0
M  V30 19167 H 613.468 -1.85471 -5.61775 0
M  V30 19168 H 615.205 -2.31364 -5.66257 0
M  V30 19169 H 614.717 -0.695936 -5.05229 0
M  V30 19170 H 613.981 -1.26277 -0.63625 0
M  V30 19171 P 612.556 -8.7635 -1.60911 0
M  V30 19172 O 612.336 -10.1388 -1.11561 0
M  V30 19173 O 611.766 -8.36503 -2.79617 0
M  V30 19174 O 612.306 -7.71906 -0.429565 0
M  V30 19175 C 613.246 -7.67148 0.673689 0
M  V30 19176 C 612.516 -7.33666 1.94851 0
M  V30 19177 O 612.306 -5.88816 2.00759 0
M  V30 19178 C 611.116 -7.92526 2.10483 0
M  V30 19179 O 610.726 -8.03063 3.47693 0
M  V30 19180 C 610.236 -6.89602 1.41652 0
M  V30 19181 C 610.946 -5.59201 1.75185 0
M  V30 19182 N 610.896 -4.58235 0.662552 0
M  V30 19183 C 610.746 -3.24451 1.01643 0
M  V30 19184 O 610.656 -2.94958 2.21722 0
M  V30 19185 N 610.696 -2.30408 -0.165238 0
M  V30 19186 C 610.796 -2.66048 -1.25118 0
M  V30 19187 N 610.746 -1.70787 -2.16813 0
M  V30 19188 C 610.946 -4.02732 -1.64413 0
M  V30 19189 C 610.996 -4.9488 -0.63991 0
M  V30 19190 H 613.736 -8.65017 0.777072 0
M  V30 19191 H 614.006 -6.90173 0.474152 0
M  V30 19192 H 613.139 -7.66642 2.79492 0
M  V30 19193 H 610.484 -5.16254 2.65229 0
M  V30 19194 H 610.204 -7.06532 0.329431 0
M  V30 19195 H 609.213 -6.91023 1.82047 0
M  V30 19196 H 611.047 -8.90873 1.62657 0
M  V30 19197 H 611.119 -6.00104 -0.892197 0
M  V30 19198 H 611.017 -4.31733 -2.69229 0
M  V30 19199 H 610.629 -0.724835 -1.8844 0
M  V30 19200 H 610.825 -1.94716 -3.16734 0
M  V30 19201 P 609.176 -8.03563 3.84925 0
M  V30 19202 O 608.956 -8.85821 5.0569 0
M  V30 19203 O 608.386 -8.41101 2.65469 0
M  V30 19204 O 608.926 -6.4965 4.18908 0
M  V30 19205 C 609.866 -5.81037 5.05421 0
M  V30 19206 C 609.136 -4.78366 5.89277 0
M  V30 19207 O 608.926 -3.58302 5.08433 0
M  V30 19208 C 607.736 -5.17448 6.36119 0
M  V30 19209 O 607.346 -4.45271 7.53232 0
M  V30 19210 C 606.856 -4.74639 5.19936 0
M  V30 19211 C 607.566 -3.49432 4.70418 0
M  V30 19212 N 607.516 -3.31776 3.22945 0
M  V30 19213 H 610.355 -6.54213 5.71376 0
M  V30 19214 H 610.627 -5.30492 4.44033 0
M  V30 19215 H 609.759 -4.55889 6.76652 0
M  V30 19216 P 605.796 -4.23843 7.83734 0
M  V30 19217 O 605.576 -4.19407 9.29784 0
M  V30 19218 O 605.006 -5.24426 7.09156 0
M  V30 19219 O 605.546 -2.79386 7.20852 0
M  V30 19220 C 606.486 -1.7299 7.50419 0
M  V30 19221 C 605.756 -0.41401 7.5797 0
M  V30 19222 O 605.546 0.089787 6.22035 0
M  V30 19223 C 604.356 -0.447224 8.1878 0
M  V30 19224 O 603.966 0.825159 8.71201 0
M  V30 19225 C 603.476 -0.783801 6.99623 0
M  V30 19226 C 604.186 -0.0619192 5.85967 0
M  V30 19227 N 604.136 -0.7859 4.56281 0
M  V30 19228 C 603.986 -0.0359258 3.39981 0
M  V30 19229 O 603.896 1.19723 3.49038 0
M  V30 19230 N 603.936 -0.869151 2.14025 0
M  V30 19231 C 604.036 -2.01207 2.14363 0
M  V30 19232 N 603.986 -2.58978 0.954287 0
M  V30 19233 C 604.186 -2.80817 3.32215 0
M  V30 19234 C 604.236 -2.13785 4.50884 0
M  V30 19235 H 606.976 -1.93401 8.46693 0
M  V30 19236 H 607.246 -1.68181 6.71046 0
M  V30 19237 H 606.379 0.289076 8.15488 0
M  V30 19238 H 603.724 0.927166 5.72947 0
M  V30 19239 H 603.444 -1.87 6.82132 0
M  V30 19240 H 602.453 -0.404009 7.13457 0
M  V30 19241 H 604.287 -1.20599 8.97534 0
M  V30 19242 H 604.359 -2.70295 5.43162 0
M  V30 19243 H 604.257 -3.89465 3.27406 0
M  V30 19244 H 603.869 -2.01616 0.107046 0
M  V30 19245 H 604.065 -3.61403 0.873101 0
M  V30 19246 P 602.416 1.17771 8.83182 0
M  V30 19247 O 602.196 2.07206 9.98732 0
M  V30 19248 O 601.626 -0.0743816 8.81969 0
M  V30 19249 O 602.166 1.97652 7.47304 0
M  V30 19250 C 603.106 3.01133 7.08783 0
M  V30 19251 C 602.376 4.12613 6.37049 0
M  V30 19252 O 602.166 3.72827 4.97879 0
M  V30 19253 C 600.976 4.45085 6.88694 0
M  V30 19254 O 600.586 5.7877 6.5624 0
M  V30 19255 C 600.096 3.47817 6.12078 0
M  V30 19256 C 600.806 3.39414 4.77697 0
M  V30 19257 N 600.756 2.04615 4.15333 0
M  V30 19258 H 603.595 3.41248 7.98759 0
M  V30 19259 H 603.867 2.5837 6.41742 0
M  V30 19260 H 602.999 5.02657 6.42673 0
M  V30 19261 P 599.036 6.144 6.45285 0
M  V30 19262 O 598.816 7.54673 6.86199 0
M  V30 19263 O 598.246 5.12391 7.179 0
M  V30 19264 O 598.786 5.99158 4.88404 0
M  V30 19265 C 599.726 6.60234 3.96415 0
M  V30 19266 C 598.996 7.08259 2.72856 0
M  V30 19267 O 598.786 5.9427 1.83651 0
M  V30 19268 C 597.596 7.64886 2.9555 0
M  V30 19269 O 597.206 8.53963 1.90717 0
M  V30 19270 C 596.716 6.4116 2.90739 0
M  V30 19271 C 597.426 5.55375 1.86963 0
M  V30 19272 N 597.376 4.09448 2.16152 0
M  V30 19273 H 600.215 7.45574 4.45629 0
M  V30 19274 H 600.487 5.85864 3.679 0
M  V30 19275 H 599.619 7.84412 2.24479 0
M  V30 19276 H 596.964 5.73457 0.888562 0
M  V30 19277 H 596.684 5.90877 3.88583 0
M  V30 19278 H 595.693 6.6596 2.58858 0
M  V30 19279 H 597.527 8.16339 3.92049 0
M  V30 19280 P 595.656 8.7635 1.60911 0
M  V30 19281 O 595.437 10.1388 1.11561 0
M  V30 19282 O 594.866 8.36503 2.79617 0
M  V30 19283 O 595.406 7.71806 0.42951 0
M  V30 19284 C 596.346 7.67148 -0.673689 0
M  V30 19285 C 595.616 7.33374 -1.95559 0
M  V30 19286 O 595.406 5.88721 -2.00726 0
M  V30 19287 C 594.216 7.92526 -2.10483 0
M  V30 19288 O 593.827 8.02971 -3.47653 0
M  V30 19289 C 593.337 6.89602 -1.41652 0
M  V30 19290 C 594.046 5.59201 -1.75185 0
M  V30 19291 N 593.996 4.58235 -0.662552 0
M  V30 19292 H 596.836 8.65116 -0.777161 0
M  V30 19293 H 597.107 6.90173 -0.474152 0
M  V30 19294 H 596.24 7.66548 -2.79458 0
M  V30 19295 P 592.277 8.03563 -3.84925 0
M  V30 19296 O 592.057 8.85821 -5.0569 0
M  V30 19297 O 591.487 8.41101 -2.65469 0
M  V30 19298 O 592.027 6.4965 -4.18908 0
M  V30 19299 C 592.967 5.81037 -5.05421 0
M  V30 19300 C 592.237 4.78366 -5.89277 0
M  V30 19301 O 592.027 3.58302 -5.08433 0
M  V30 19302 C 590.837 5.17448 -6.36119 0
M  V30 19303 O 590.447 4.45271 -7.53232 0
M  V30 19304 C 589.957 4.74639 -5.19936 0
M  V30 19305 C 590.667 3.49432 -4.70418 0
M  V30 19306 N 590.617 3.31776 -3.22945 0
M  V30 19307 H 593.456 6.54213 -5.71376 0
M  V30 19308 H 593.728 5.30492 -4.44033 0
M  V30 19309 H 592.86 4.55889 -6.76652 0
M  V30 19310 P 588.897 4.23843 -7.83734 0
M  V30 19311 O 588.677 4.19407 -9.29784 0
M  V30 19312 O 588.107 5.24426 -7.09156 0
M  V30 19313 O 588.647 2.7935 -7.20758 0
M  V30 19314 C 589.587 1.7299 -7.50419 0
M  V30 19315 C 588.857 0.406376 -7.57911 0
M  V30 19316 O 588.647 -0.0897726 -6.21935 0
M  V30 19317 C 587.457 0.447224 -8.1878 0
M  V30 19318 O 587.067 -0.825065 -8.71101 0
M  V30 19319 C 586.577 0.783801 -6.99623 0
M  V30 19320 C 587.287 0.0619192 -5.85967 0
M  V30 19321 N 587.237 0.7859 -4.56281 0
M  V30 19322 H 590.076 1.93423 -8.4679 0
M  V30 19323 H 590.348 1.68181 -6.71046 0
M  V30 19324 H 589.48 -0.289041 -8.15388 0
M  V30 19325 P 585.517 -1.17771 -8.83182 0
M  V30 19326 O 585.297 -2.07206 -9.98732 0
M  V30 19327 O 584.727 0.0743816 -8.81969 0
M  V30 19328 O 585.267 -1.97652 -7.47304 0
M  V30 19329 C 586.207 -3.01133 -7.08783 0
M  V30 19330 C 585.477 -4.12613 -6.37049 0
M  V30 19331 O 585.267 -3.72827 -4.97879 0
M  V30 19332 C 584.077 -4.45085 -6.88694 0
M  V30 19333 O 583.687 -5.7877 -6.5624 0
M  V30 19334 C 583.197 -3.47817 -6.12078 0
M  V30 19335 C 583.907 -3.39414 -4.77697 0
M  V30 19336 N 583.857 -2.04615 -4.15333 0
M  V30 19337 C 583.937 -0.803897 -4.75249 0
M  V30 19338 N 583.857 0.197615 -3.91502 0
M  V30 19339 C 583.717 -0.413002 -2.66823 0
M  V30 19340 C 583.587 0.157221 -1.38007 0
M  V30 19341 N 583.467 -0.833136 -0.390236 0
M  V30 19342 C 583.467 -2.19402 -0.623885 0
M  V30 19343 N 583.337 -2.97622 0.449677 0
M  V30 19344 N 583.597 -2.73005 -1.83601 0
M  V30 19345 C 583.717 -1.78786 -2.80935 0
M  V30 19346 H 586.696 -3.41248 -7.98759 0
M  V30 19347 H 586.968 -2.5837 -6.41742 0
M  V30 19348 H 586.1 -5.02657 -6.42673 0
M  V30 19349 P 582.137 -6.144 -6.45285 0
M  V30 19350 O 581.917 -7.54673 -6.86199 0
M  V30 19351 O 581.347 -5.12391 -7.179 0
M  V30 19352 O 581.887 -5.99158 -4.88404 0
M  V30 19353 C 582.827 -6.60234 -3.96415 0
M  V30 19354 C 582.097 -7.08259 -2.72856 0
M  V30 19355 O 581.887 -5.9427 -1.83651 0
M  V30 19356 C 580.697 -7.64886 -2.9555 0
M  V30 19357 O 580.307 -8.53963 -1.90717 0
M  V30 19358 C 579.817 -6.4116 -2.90739 0
M  V30 19359 C 580.527 -5.55375 -1.86963 0
M  V30 19360 N 580.477 -4.09448 -2.16152 0
M  V30 19361 H 583.316 -7.45574 -4.45629 0
M  V30 19362 H 583.588 -5.85864 -3.679 0
M  V30 19363 H 582.72 -7.84412 -2.24479 0
M  V30 19364 H 580.065 -5.73457 -0.888562 0
M  V30 19365 H 579.785 -5.90877 -3.88583 0
M  V30 19366 H 578.794 -6.6596 -2.58858 0
M  V30 19367 H 580.628 -8.16339 -3.92049 0
M  V30 19368 P 578.757 -8.7635 -1.60911 0
M  V30 19369 O 578.537 -10.1388 -1.11561 0
M  V30 19370 O 577.967 -8.36503 -2.79617 0
M  V30 19371 O 578.507 -7.71806 -0.42951 0
M  V30 19372 C 579.447 -7.67148 0.673689 0
M  V30 19373 C 578.717 -7.33374 1.95559 0
M  V30 19374 O 578.507 -5.88721 2.00726 0
M  V30 19375 C 577.317 -7.92526 2.10483 0
M  V30 19376 O 576.927 -8.02971 3.47653 0
M  V30 19377 C 576.437 -6.89602 1.41652 0
M  V30 19378 C 577.147 -5.59201 1.75185 0
M  V30 19379 N 577.097 -4.58235 0.662552 0
M  V30 19380 C 577.177 -4.7683 -0.704049 0
M  V30 19381 N 577.097 -3.66233 -1.39775 0
M  V30 19382 C 576.957 -2.66526 -0.431739 0
M  V30 19383 C 576.827 -1.26394 -0.575992 0
M  V30 19384 O 576.807 -0.589894 -1.60503 0
M  V30 19385 N 576.707 -0.62859 0.67177 0
M  V30 19386 C 576.707 -1.27134 1.89385 0
M  V30 19387 N 576.577 -0.492035 2.96951 0
M  V30 19388 N 576.837 -2.58978 2.02907 0
M  V30 19389 C 576.957 -3.22433 0.832218 0
M  V30 19390 H 579.936 -8.65116 0.777161 0
M  V30 19391 H 580.208 -6.90173 0.474152 0
M  V30 19392 H 579.34 -7.66548 2.79458 0
M  V30 19393 H 576.685 -5.16254 2.65229 0
M  V30 19394 H 576.405 -7.06532 0.329431 0
M  V30 19395 H 575.414 -6.91023 1.82047 0
M  V30 19396 H 577.248 -8.90971 1.62675 0
M  V30 19397 H 577.297 -5.74954 -1.16305 0
M  V30 19398 H 576.615 0.366713 0.674793 0
M  V30 19399 H 576.578 -0.908532 3.91188 0
M  V30 19400 H 576.477 0.528253 2.85758 0
M  V30 19401 P 575.377 -8.03563 3.84925 0
M  V30 19402 O 575.157 -8.85821 5.0569 0
M  V30 19403 O 574.587 -8.41101 2.65469 0
M  V30 19404 O 575.127 -6.4965 4.18908 0
M  V30 19405 C 576.067 -5.81037 5.05421 0
M  V30 19406 C 575.337 -4.78366 5.89277 0
M  V30 19407 O 575.127 -3.58302 5.08433 0
M  V30 19408 C 573.937 -5.17448 6.36119 0
M  V30 19409 O 573.547 -4.45271 7.53232 0
M  V30 19410 C 573.057 -4.74639 5.19936 0
M  V30 19411 C 573.767 -3.49432 4.70418 0
M  V30 19412 N 573.717 -3.32099 3.22613 0
M  V30 19413 H 576.556 -6.54213 5.71376 0
M  V30 19414 H 576.828 -5.30936 4.43503 0
M  V30 19415 H 575.96 -4.55889 6.76652 0
M  V30 19416 H 573.305 -2.61715 5.17932 0
M  V30 19417 H 573.025 -5.52155 4.41878 0
M  V30 19418 H 572.034 -4.51981 5.53374 0
M  V30 19419 H 573.868 -6.25124 6.55234 0
M  V30 19420 P 571.997 -4.23843 7.83734 0
M  V30 19421 O 571.777 -4.19407 9.29784 0
M  V30 19422 O 571.207 -5.24426 7.09156 0
M  V30 19423 O 571.747 -2.7935 7.20758 0
M  V30 19424 C 572.687 -1.7299 7.50419 0
M  V30 19425 C 571.957 -0.406376 7.57911 0
M  V30 19426 O 571.747 0.0897726 6.21935 0
M  V30 19427 C 570.557 -0.447224 8.1878 0
M  V30 19428 O 570.167 0.825065 8.71101 0
M  V30 19429 C 569.677 -0.783801 6.99623 0
M  V30 19430 C 570.387 -0.0619192 5.85967 0
M  V30 19431 N 570.337 -0.7859 4.56281 0
M  V30 19432 H 573.176 -1.93423 8.4679 0
M  V30 19433 H 573.448 -1.68181 6.71046 0
M  V30 19434 H 572.58 0.289041 8.15388 0
M  V30 19435 P 568.617 1.17771 8.83182 0
M  V30 19436 O 568.397 2.07206 9.98732 0
M  V30 19437 O 567.827 -0.0743816 8.81969 0
M  V30 19438 O 568.367 1.97652 7.47304 0
M  V30 19439 C 569.307 3.01133 7.08783 0
M  V30 19440 C 568.577 4.12613 6.37049 0
M  V30 19441 O 568.367 3.72827 4.97879 0
M  V30 19442 C 567.177 4.45085 6.88694 0
M  V30 19443 O 566.787 5.7877 6.5624 0
M  V30 19444 C 566.297 3.47817 6.12078 0
M  V30 19445 C 567.007 3.39414 4.77697 0
M  V30 19446 N 566.957 2.04615 4.15333 0
M  V30 19447 H 569.796 3.41248 7.98759 0
M  V30 19448 H 570.068 2.5837 6.41742 0
M  V30 19449 H 569.2 5.02657 6.42673 0
M  V30 19450 P 565.237 6.144 6.45285 0
M  V30 19451 O 565.017 7.54673 6.86199 0
M  V30 19452 O 564.447 5.12391 7.179 0
M  V30 19453 O 564.987 5.99158 4.88404 0
M  V30 19454 C 565.927 6.60234 3.96415 0
M  V30 19455 C 565.197 7.08259 2.72856 0
M  V30 19456 O 564.987 5.9427 1.83651 0
M  V30 19457 C 563.797 7.64886 2.9555 0
M  V30 19458 O 563.407 8.53963 1.90717 0
M  V30 19459 C 562.917 6.4116 2.90739 0
M  V30 19460 C 563.627 5.55375 1.86963 0
M  V30 19461 N 563.577 4.09664 2.15742 0
M  V30 19462 H 566.416 7.45574 4.45629 0
M  V30 19463 H 566.688 5.86232 3.67314 0
M  V30 19464 H 565.82 7.84412 2.24479 0
M  V30 19465 P 561.857 8.7635 1.60911 0
M  V30 19466 O 561.637 10.1388 1.11561 0
M  V30 19467 O 561.067 8.36503 2.79617 0
M  V30 19468 O 561.607 7.71806 0.42951 0
M  V30 19469 C 562.547 7.67148 -0.673689 0
M  V30 19470 C 561.817 7.33374 -1.95559 0
M  V30 19471 O 561.607 5.88721 -2.00726 0
M  V30 19472 C 560.417 7.92526 -2.10483 0
M  V30 19473 O 560.027 8.02971 -3.47653 0
M  V30 19474 C 559.537 6.89602 -1.41652 0
M  V30 19475 C 560.247 5.59201 -1.75185 0
M  V30 19476 N 560.197 4.58235 -0.662552 0
M  V30 19477 H 563.036 8.65116 -0.777161 0
M  V30 19478 H 563.308 6.90173 -0.474152 0
M  V30 19479 H 562.44 7.66548 -2.79458 0
M  V30 19480 P 558.477 8.03563 -3.84925 0
M  V30 19481 O 558.257 8.85821 -5.0569 0
M  V30 19482 O 557.687 8.41101 -2.65469 0
M  V30 19483 O 558.227 6.4965 -4.18908 0
M  V30 19484 C 559.167 5.81037 -5.05421 0
M  V30 19485 C 558.437 4.78366 -5.89277 0
M  V30 19486 O 558.227 3.58302 -5.08433 0
M  V30 19487 C 557.037 5.17448 -6.36119 0
M  V30 19488 O 556.647 4.45271 -7.53232 0
M  V30 19489 C 556.157 4.74639 -5.19936 0
M  V30 19490 C 556.867 3.49432 -4.70418 0
M  V30 19491 N 556.817 3.31776 -3.22945 0
M  V30 19492 H 559.656 6.54213 -5.71376 0
M  V30 19493 H 559.928 5.30492 -4.44033 0
M  V30 19494 H 559.06 4.55889 -6.76652 0
M  V30 19495 P 555.097 4.23843 -7.83734 0
M  V30 19496 O 554.877 4.19407 -9.29784 0
M  V30 19497 O 554.307 5.24426 -7.09156 0
M  V30 19498 O 554.847 2.7935 -7.20758 0
M  V30 19499 C 555.787 1.7299 -7.50419 0
M  V30 19500 C 555.057 0.406376 -7.57911 0
M  V30 19501 O 554.847 -0.0897726 -6.21935 0
M  V30 19502 C 553.657 0.447224 -8.1878 0
M  V30 19503 O 553.267 -0.825065 -8.71101 0
M  V30 19504 C 552.777 0.783801 -6.99623 0
M  V30 19505 C 553.487 0.0619192 -5.85967 0
M  V30 19506 N 553.437 0.790462 -4.56202 0
M  V30 19507 C 553.517 2.13895 -4.34171 0
M  V30 19508 N 553.447 2.46449 -3.08687 0
M  V30 19509 C 553.297 1.2525 -2.43697 0
M  V30 19510 C 553.167 0.914535 -1.07318 0
M  V30 19511 N 553.157 1.80782 -0.0887348 0
M  V30 19512 N 553.047 -0.386745 -0.768133 0
M  V30 19513 C 553.057 -1.28096 -1.75159 0
M  V30 19514 N 553.177 -1.09708 -3.04861 0
M  V30 19515 C 553.297 0.214857 -3.32306 0
M  V30 19516 H 556.276 1.93423 -8.4679 0
M  V30 19517 H 556.548 1.68852 -6.70877 0
M  V30 19518 H 555.68 -0.289041 -8.15388 0
M  V30 19519 H 553.025 -0.927006 -5.72848 0
M  V30 19520 H 552.745 1.86973 -6.82036 0
M  V30 19521 H 551.754 0.403953 -7.13357 0
M  V30 19522 H 553.588 1.20599 -8.97534 0
M  V30 19523 H 553.629 2.86846 -5.14318 0
M  V30 19524 H 553.248 2.81082 -0.302037 0
M  V30 19525 H 553.059 1.49688 0.889064 0
M  V30 19526 H 552.951 -2.31317 -1.43855 0
M  V30 19527 P 551.717 -1.17771 -8.83182 0
M  V30 19528 O 551.497 -2.07206 -9.98732 0
M  V30 19529 O 550.927 0.0743816 -8.81969 0
M  V30 19530 O 551.467 -1.97652 -7.47304 0
M  V30 19531 C 552.407 -3.01133 -7.08783 0
M  V30 19532 C 551.677 -4.12613 -6.37049 0
M  V30 19533 O 551.467 -3.72827 -4.97879 0
M  V30 19534 C 550.277 -4.45085 -6.88694 0
M  V30 19535 O 549.887 -5.7877 -6.5624 0
M  V30 19536 C 549.397 -3.47817 -6.12078 0
M  V30 19537 C 550.107 -3.39414 -4.77697 0
M  V30 19538 N 550.057 -2.04615 -4.15333 0
M  V30 19539 H 552.896 -3.41248 -7.98759 0
M  V30 19540 H 553.168 -2.5837 -6.41742 0
M  V30 19541 H 552.3 -5.02657 -6.42673 0
M  V30 19542 P 548.337 -6.144 -6.45285 0
M  V30 19543 O 548.117 -7.54673 -6.86199 0
M  V30 19544 O 547.547 -5.12391 -7.179 0
M  V30 19545 O 548.087 -5.99158 -4.88404 0
M  V30 19546 C 549.027 -6.60234 -3.96415 0
M  V30 19547 C 548.297 -7.08259 -2.72856 0
M  V30 19548 O 548.087 -5.9427 -1.83651 0
M  V30 19549 C 546.897 -7.64886 -2.9555 0
M  V30 19550 O 546.507 -8.53963 -1.90717 0
M  V30 19551 C 546.017 -6.4116 -2.90739 0
M  V30 19552 C 546.727 -5.55375 -1.86963 0
M  V30 19553 N 546.677 -4.09664 -2.15742 0
M  V30 19554 H 549.516 -7.45574 -4.45629 0
M  V30 19555 H 549.788 -5.86232 -3.67314 0
M  V30 19556 H 548.92 -7.84412 -2.24479 0
M  V30 19557 P 544.957 -8.7635 -1.60911 0
M  V30 19558 O 544.737 -10.1388 -1.11561 0
M  V30 19559 O 544.167 -8.36503 -2.79617 0
M  V30 19560 O 544.707 -7.71806 -0.42951 0
M  V30 19561 C 545.647 -7.67148 0.673689 0
M  V30 19562 C 544.917 -7.33374 1.95559 0
M  V30 19563 O 544.707 -5.88721 2.00726 0
M  V30 19564 C 543.517 -7.92526 2.10483 0
M  V30 19565 O 543.127 -8.02971 3.47653 0
M  V30 19566 C 542.637 -6.89602 1.41652 0
M  V30 19567 C 543.347 -5.59201 1.75185 0
M  V30 19568 N 543.297 -4.58301 0.657969 0
M  V30 19569 H 546.136 -8.65116 0.777161 0
M  V30 19570 H 546.408 -6.9022 0.46725 0
M  V30 19571 H 545.54 -7.66548 2.79458 0
M  V30 19572 H 542.885 -5.16165 2.65183 0
M  V30 19573 H 542.605 -7.06433 0.329384 0
M  V30 19574 H 541.614 -6.90926 1.82021 0
M  V30 19575 H 543.448 -8.90873 1.62657 0
M  V30 19576 P 541.577 -8.03563 3.84925 0
M  V30 19577 O 541.357 -8.85821 5.0569 0
M  V30 19578 O 540.787 -8.41101 2.65469 0
M  V30 19579 O 541.327 -6.4965 4.18908 0
M  V30 19580 C 542.267 -5.81037 5.05421 0
M  V30 19581 C 541.537 -4.78366 5.89277 0
M  V30 19582 O 541.327 -3.58302 5.08433 0
M  V30 19583 C 540.137 -5.17448 6.36119 0
M  V30 19584 O 539.747 -4.45271 7.53232 0
M  V30 19585 C 539.257 -4.74639 5.19936 0
M  V30 19586 C 539.967 -3.49432 4.70418 0
M  V30 19587 N 539.917 -3.31776 3.22945 0
M  V30 19588 H 542.756 -6.54213 5.71376 0
M  V30 19589 H 543.028 -5.30492 4.44033 0
M  V30 19590 H 542.16 -4.55889 6.76652 0
M  V30 19591 P 538.197 -4.23843 7.83734 0
M  V30 19592 O 537.977 -4.19407 9.29784 0
M  V30 19593 O 537.407 -5.24426 7.09156 0
M  V30 19594 O 537.947 -2.7935 7.20758 0
M  V30 19595 C 538.887 -1.7299 7.50419 0
M  V30 19596 C 538.157 -0.406376 7.57911 0
M  V30 19597 O 537.947 0.0897726 6.21935 0
M  V30 19598 C 536.757 -0.447224 8.1878 0
M  V30 19599 O 536.367 0.825065 8.71101 0
M  V30 19600 C 535.877 -0.783801 6.99623 0
M  V30 19601 C 536.587 -0.0619192 5.85967 0
M  V30 19602 N 536.537 -0.7859 4.56281 0
M  V30 19603 H 539.376 -1.93423 8.4679 0
M  V30 19604 H 539.648 -1.68181 6.71046 0
M  V30 19605 H 538.78 0.289041 8.15388 0
M  V30 19606 P 534.817 1.17771 8.83182 0
M  V30 19607 O 534.597 2.07206 9.98732 0
M  V30 19608 O 534.027 -0.0743816 8.81969 0
M  V30 19609 O 534.567 1.97678 7.474 0
M  V30 19610 C 535.507 3.01133 7.08783 0
M  V30 19611 C 534.777 4.1203 6.37546 0
M  V30 19612 O 534.567 3.72887 4.9796 0
M  V30 19613 C 533.377 4.45085 6.88694 0
M  V30 19614 O 532.987 5.78836 6.56315 0
M  V30 19615 C 532.497 3.47817 6.12078 0
M  V30 19616 C 533.207 3.39414 4.77697 0
M  V30 19617 N 533.157 2.04615 4.15333 0
M  V30 19618 C 533.007 1.96929 2.77162 0
M  V30 19619 O 532.917 3.02017 2.12006 0
M  V30 19620 N 532.957 0.55485 2.24237 0
M  V30 19621 C 533.057 -0.367808 2.9169 0
M  V30 19622 N 533.007 -1.53426 2.29427 0
M  V30 19623 C 533.207 -0.319148 4.33828 0
M  V30 19624 C 533.257 0.920672 4.90433 0
M  V30 19625 H 535.997 3.41209 7.98667 0
M  V30 19626 H 536.267 2.5837 6.41742 0
M  V30 19627 H 535.4 5.02718 6.42752 0
M  V30 19628 H 532.745 4.11779 4.09026 0
M  V30 19629 H 532.465 2.49661 6.61772 0
M  V30 19630 H 531.474 3.86674 6.00946 0
M  V30 19631 H 533.308 4.29991 7.97006 0
M  V30 19632 H 533.38 1.00589 5.98303 0
M  V30 19633 H 533.278 -1.22639 4.93799 0
M  V30 19634 H 532.89 -1.56819 1.27167 0
M  V30 19635 H 533.086 -2.41062 2.83063 0
M  V30 19636 P 531.437 6.144 6.45285 0
M  V30 19637 O 531.217 7.54673 6.86199 0
M  V30 19638 O 530.647 5.12391 7.179 0
M  V30 19639 O 531.187 5.99158 4.88404 0
M  V30 19640 C 532.127 6.60234 3.96415 0
M  V30 19641 C 531.397 7.08259 2.72856 0
M  V30 19642 O 531.187 5.9427 1.83651 0
M  V30 19643 C 529.997 7.64886 2.9555 0
M  V30 19644 O 529.607 8.53963 1.90717 0
M  V30 19645 C 529.117 6.4116 2.90739 0
M  V30 19646 C 529.827 5.55375 1.86963 0
M  V30 19647 N 529.777 4.09664 2.15742 0
M  V30 19648 H 532.616 7.45574 4.45629 0
M  V30 19649 H 532.888 5.86232 3.67314 0
M  V30 19650 H 532.02 7.84412 2.24479 0
M  V30 19651 P 528.057 8.7635 1.60911 0
M  V30 19652 O 527.837 10.1388 1.11561 0
M  V30 19653 O 527.267 8.36503 2.79617 0
M  V30 19654 O 527.807 7.71806 0.42951 0
M  V30 19655 C 528.747 7.67148 -0.673689 0
M  V30 19656 C 528.017 7.33374 -1.95559 0
M  V30 19657 O 527.807 5.88721 -2.00726 0
M  V30 19658 C 526.617 7.92526 -2.10483 0
M  V30 19659 O 526.227 8.02971 -3.47653 0
M  V30 19660 C 525.737 6.89602 -1.41652 0
M  V30 19661 C 526.447 5.59201 -1.75185 0
M  V30 19662 N 526.397 4.58301 -0.657969 0
M  V30 19663 C 526.477 4.79019 0.692603 0
M  V30 19664 N 526.407 3.69736 1.38998 0
M  V30 19665 C 526.257 2.70474 0.438135 0
M  V30 19666 C 526.127 1.30327 0.538142 0
M  V30 19667 N 526.117 0.64304 1.69192 0
M  V30 19668 N 526.007 0.611027 -0.605183 0
M  V30 19669 C 526.017 1.27002 -1.75953 0
M  V30 19670 N 526.137 2.56038 -1.98546 0
M  V30 19671 C 526.257 3.22681 -0.822541 0
M  V30 19672 H 529.236 8.65116 -0.777161 0
M  V30 19673 H 529.508 6.9022 -0.46725 0
M  V30 19674 H 528.64 7.66548 -2.79458 0
M  V30 19675 H 525.985 5.16165 -2.65183 0
M  V30 19676 H 525.705 7.06433 -0.329384 0
M  V30 19677 H 524.714 6.90926 -1.82021 0
M  V30 19678 H 526.548 8.90873 -1.62657 0
M  V30 19679 H 526.589 5.77785 1.13874 0
M  V30 19680 H 526.208 1.15585 2.57991 0
M  V30 19681 H 526.019 -0.382989 1.69835 0
M  V30 19682 H 525.911 0.653331 -2.64449 0
M  V30 19683 P 524.677 8.03563 -3.84925 0
M  V30 19684 O 524.457 8.85821 -5.0569 0
M  V30 19685 O 523.887 8.41101 -2.65469 0
M  V30 19686 O 524.427 6.4965 -4.18908 0
M  V30 19687 C 525.367 5.81037 -5.05421 0
M  V30 19688 C 524.637 4.78366 -5.89277 0
M  V30 19689 O 524.427 3.58302 -5.08433 0
M  V30 19690 C 523.237 5.17448 -6.36119 0
M  V30 19691 O 522.847 4.45271 -7.53232 0
M  V30 19692 C 522.357 4.74639 -5.19936 0
M  V30 19693 C 523.067 3.49432 -4.70418 0
M  V30 19694 N 523.017 3.31776 -3.22945 0
M  V30 19695 H 525.856 6.54213 -5.71376 0
M  V30 19696 H 526.128 5.30492 -4.44033 0
M  V30 19697 H 525.26 4.55889 -6.76652 0
M  V30 19698 P 521.297 4.23843 -7.83734 0
M  V30 19699 O 521.077 4.19407 -9.29784 0
M  V30 19700 O 520.507 5.24426 -7.09156 0
M  V30 19701 O 521.047 2.7935 -7.20758 0
M  V30 19702 C 521.987 1.7299 -7.50419 0
M  V30 19703 C 521.257 0.406376 -7.57911 0
M  V30 19704 O 521.047 -0.0897726 -6.21935 0
M  V30 19705 C 519.857 0.447224 -8.1878 0
M  V30 19706 O 519.467 -0.825065 -8.71101 0
M  V30 19707 C 518.977 0.783801 -6.99623 0
M  V30 19708 C 519.687 0.0619192 -5.85967 0
M  V30 19709 N 519.637 0.7859 -4.56281 0
M  V30 19710 H 522.476 1.93423 -8.4679 0
M  V30 19711 H 522.748 1.68181 -6.71046 0
M  V30 19712 H 521.88 -0.289041 -8.15388 0
M  V30 19713 P 517.917 -1.17771 -8.83182 0
M  V30 19714 O 517.697 -2.07206 -9.98732 0
M  V30 19715 O 517.127 0.0743816 -8.81969 0
M  V30 19716 O 517.667 -1.97652 -7.47304 0
M  V30 19717 C 518.607 -3.01133 -7.08783 0
M  V30 19718 C 517.877 -4.12613 -6.37049 0
M  V30 19719 O 517.667 -3.72827 -4.97879 0
M  V30 19720 C 516.477 -4.45085 -6.88694 0
M  V30 19721 O 516.087 -5.7877 -6.5624 0
M  V30 19722 C 515.597 -3.47817 -6.12078 0
M  V30 19723 C 516.307 -3.39414 -4.77697 0
M  V30 19724 N 516.257 -2.04615 -4.15333 0
M  V30 19725 H 519.096 -3.41248 -7.98759 0
M  V30 19726 H 519.368 -2.5837 -6.41742 0
M  V30 19727 H 518.5 -5.02657 -6.42673 0
M  V30 19728 P 514.537 -6.144 -6.45285 0
M  V30 19729 O 514.317 -7.54673 -6.86199 0
M  V30 19730 O 513.747 -5.12391 -7.179 0
M  V30 19731 O 514.287 -5.99158 -4.88404 0
M  V30 19732 C 515.227 -6.60234 -3.96415 0
M  V30 19733 C 514.497 -7.08259 -2.72856 0
M  V30 19734 O 514.287 -5.9427 -1.83651 0
M  V30 19735 C 513.097 -7.64886 -2.9555 0
M  V30 19736 O 512.707 -8.53963 -1.90717 0
M  V30 19737 C 512.217 -6.4116 -2.90739 0
M  V30 19738 C 512.927 -5.55375 -1.86963 0
M  V30 19739 N 512.877 -4.09448 -2.16152 0
M  V30 19740 H 515.716 -7.45574 -4.45629 0
M  V30 19741 H 515.988 -5.85864 -3.679 0
M  V30 19742 H 515.12 -7.84412 -2.24479 0
M  V30 19743 H 512.465 -5.73457 -0.888562 0
M  V30 19744 H 512.185 -5.90877 -3.88583 0
M  V30 19745 H 511.194 -6.6596 -2.58858 0
M  V30 19746 H 513.028 -8.16339 -3.92049 0
M  V30 19747 P 511.157 -8.7635 -1.60911 0
M  V30 19748 O 510.937 -10.1388 -1.11561 0
M  V30 19749 O 510.367 -8.36503 -2.79617 0
M  V30 19750 O 510.907 -7.71806 -0.42951 0
M  V30 19751 C 511.847 -7.67148 0.673689 0
M  V30 19752 C 511.117 -7.33374 1.95559 0
M  V30 19753 O 510.907 -5.88721 2.00726 0
M  V30 19754 C 509.717 -7.92526 2.10483 0
M  V30 19755 O 509.327 -8.02971 3.47653 0
M  V30 19756 C 508.837 -6.89602 1.41652 0
M  V30 19757 C 509.547 -5.59201 1.75185 0
M  V30 19758 N 509.497 -4.58301 0.657969 0
M  V30 19759 H 512.336 -8.65116 0.777161 0
M  V30 19760 H 512.608 -6.9022 0.46725 0
M  V30 19761 H 511.74 -7.66548 2.79458 0
M  V30 19762 H 509.085 -5.16165 2.65183 0
M  V30 19763 H 508.805 -7.06433 0.329384 0
M  V30 19764 H 507.814 -6.90926 1.82021 0
M  V30 19765 H 509.648 -8.90873 1.62657 0
M  V30 19766 P 507.777 -8.03563 3.84925 0
M  V30 19767 O 507.557 -8.85821 5.0569 0
M  V30 19768 O 506.987 -8.41101 2.65469 0
M  V30 19769 O 507.527 -6.49734 4.18962 0
M  V30 19770 C 508.467 -5.81037 5.05421 0
M  V30 19771 C 507.737 -4.79018 5.88876 0
M  V30 19772 O 507.527 -3.58359 5.08515 0
M  V30 19773 C 506.337 -5.17448 6.36119 0
M  V30 19774 O 505.947 -4.45322 7.53318 0
M  V30 19775 C 505.457 -4.74639 5.19936 0
M  V30 19776 C 506.167 -3.49432 4.70418 0
M  V30 19777 N 506.117 -3.31776 3.22945 0
M  V30 19778 C 505.967 -2.02742 2.72939 0
M  V30 19779 O 505.877 -1.08301 3.52749 0
M  V30 19780 N 505.917 -1.96117 1.22063 0
M  V30 19781 C 506.017 -2.8878 0.551566 0
M  V30 19782 N 505.967 -2.65609 -0.750198 0
M  V30 19783 C 506.167 -4.22457 1.03707 0
M  V30 19784 C 506.217 -4.37979 2.39113 0
M  V30 19785 H 508.957 -6.54138 5.7131 0
M  V30 19786 H 509.227 -5.30492 4.44033 0
M  V30 19787 H 508.36 -4.55945 6.76735 0
M  V30 19788 H 505.705 -2.6176 5.18021 0
M  V30 19789 H 505.425 -5.52233 4.41941 0
M  V30 19790 H 504.434 -4.52045 5.53452 0
M  V30 19791 H 506.268 -6.25124 6.55234 0
M  V30 19792 H 506.34 -5.37936 2.80552 0
M  V30 19793 H 506.238 -5.07528 0.359553 0
M  V30 19794 H 505.85 -1.69403 -1.09847 0
M  V30 19795 H 506.046 -3.43701 -1.41792 0
M  V30 19796 P 504.397 -4.23843 7.83734 0
M  V30 19797 O 504.177 -4.19407 9.29784 0
M  V30 19798 O 503.607 -5.24426 7.09156 0
M  V30 19799 O 504.147 -2.79386 7.20852 0
M  V30 19800 C 505.087 -1.7299 7.50419 0
M  V30 19801 C 504.357 -0.41401 7.5797 0
M  V30 19802 O 504.147 0.089787 6.22035 0
M  V30 19803 C 502.957 -0.447224 8.1878 0
M  V30 19804 O 502.567 0.825159 8.71201 0
M  V30 19805 C 502.077 -0.783801 6.99623 0
M  V30 19806 C 502.787 -0.0619192 5.85967 0
M  V30 19807 N 502.737 -0.7859 4.56281 0
M  V30 19808 C 502.587 -0.0359258 3.39981 0
M  V30 19809 O 502.497 1.19723 3.49038 0
M  V30 19810 N 502.537 -0.869151 2.14025 0
M  V30 19811 C 502.637 -2.01207 2.14363 0
M  V30 19812 N 502.587 -2.58978 0.954287 0
M  V30 19813 C 502.787 -2.80817 3.32215 0
M  V30 19814 C 502.837 -2.13785 4.50884 0
M  V30 19815 H 505.577 -1.93401 8.46693 0
M  V30 19816 H 505.847 -1.68181 6.71046 0
M  V30 19817 H 504.98 0.289076 8.15488 0
M  V30 19818 H 502.325 0.927166 5.72947 0
M  V30 19819 H 502.045 -1.87 6.82132 0
M  V30 19820 H 501.054 -0.404009 7.13457 0
M  V30 19821 H 502.888 -1.20599 8.97534 0
M  V30 19822 H 502.96 -2.70295 5.43162 0
M  V30 19823 H 502.858 -3.89465 3.27406 0
M  V30 19824 H 502.47 -2.01616 0.107046 0
M  V30 19825 H 502.666 -3.61403 0.873101 0
M  V30 19826 P 501.017 1.17771 8.83182 0
M  V30 19827 O 500.797 2.07206 9.98732 0
M  V30 19828 O 500.227 -0.0743816 8.81969 0
M  V30 19829 O 500.767 1.97652 7.47304 0
M  V30 19830 C 501.707 3.01133 7.08783 0
M  V30 19831 C 500.977 4.12613 6.37049 0
M  V30 19832 O 500.767 3.72827 4.97879 0
M  V30 19833 C 499.577 4.45085 6.88694 0
M  V30 19834 O 499.187 5.7877 6.5624 0
M  V30 19835 C 498.697 3.47817 6.12078 0
M  V30 19836 C 499.407 3.39414 4.77697 0
M  V30 19837 N 499.357 2.04615 4.15333 0
M  V30 19838 H 502.196 3.41248 7.98759 0
M  V30 19839 H 502.468 2.5837 6.41742 0
M  V30 19840 H 501.6 5.02657 6.42673 0
M  V30 19841 P 497.637 6.144 6.45285 0
M  V30 19842 O 497.417 7.54673 6.86199 0
M  V30 19843 O 496.847 5.12391 7.179 0
M  V30 19844 O 497.387 5.99158 4.88404 0
M  V30 19845 C 498.327 6.60234 3.96415 0
M  V30 19846 C 497.597 7.08259 2.72856 0
M  V30 19847 O 497.387 5.9427 1.83651 0
M  V30 19848 C 496.197 7.64886 2.9555 0
M  V30 19849 O 495.807 8.53963 1.90717 0
M  V30 19850 C 495.317 6.4116 2.90739 0
M  V30 19851 C 496.027 5.55375 1.86963 0
M  V30 19852 N 495.977 4.09664 2.15742 0
M  V30 19853 H 498.816 7.45574 4.45629 0
M  V30 19854 H 499.088 5.86232 3.67314 0
M  V30 19855 H 498.22 7.84412 2.24479 0
M  V30 19856 P 494.257 8.7635 1.60911 0
M  V30 19857 O 494.037 10.1388 1.11561 0
M  V30 19858 O 493.467 8.36503 2.79617 0
M  V30 19859 O 494.007 7.71806 0.42951 0
M  V30 19860 C 494.947 7.67148 -0.673689 0
M  V30 19861 C 494.217 7.33374 -1.95559 0
M  V30 19862 O 494.007 5.88721 -2.00726 0
M  V30 19863 C 492.817 7.92526 -2.10483 0
M  V30 19864 O 492.427 8.02971 -3.47653 0
M  V30 19865 C 491.937 6.89602 -1.41652 0
M  V30 19866 C 492.647 5.59201 -1.75185 0
M  V30 19867 N 492.597 4.58235 -0.662552 0
M  V30 19868 H 495.436 8.65116 -0.777161 0
M  V30 19869 H 495.708 6.90173 -0.474152 0
M  V30 19870 H 494.84 7.66548 -2.79458 0
M  V30 19871 P 490.877 8.03563 -3.84925 0
M  V30 19872 O 490.657 8.85821 -5.0569 0
M  V30 19873 O 490.087 8.41101 -2.65469 0
M  V30 19874 O 490.627 6.4965 -4.18908 0
M  V30 19875 C 491.567 5.81037 -5.05421 0
M  V30 19876 C 490.837 4.78366 -5.89277 0
M  V30 19877 O 490.627 3.58302 -5.08433 0
M  V30 19878 C 489.437 5.17448 -6.36119 0
M  V30 19879 O 489.047 4.45271 -7.53232 0
M  V30 19880 C 488.557 4.74639 -5.19936 0
M  V30 19881 C 489.267 3.49432 -4.70418 0
M  V30 19882 N 489.217 3.31776 -3.22945 0
M  V30 19883 H 492.056 6.54213 -5.71376 0
M  V30 19884 H 492.328 5.30492 -4.44033 0
M  V30 19885 H 491.46 4.55889 -6.76652 0
M  V30 19886 P 487.497 4.23843 -7.83734 0
M  V30 19887 O 487.277 4.19407 -9.29784 0
M  V30 19888 O 486.707 5.24426 -7.09156 0
M  V30 19889 O 487.247 2.7935 -7.20758 0
M  V30 19890 C 488.187 1.7299 -7.50419 0
M  V30 19891 C 487.457 0.406376 -7.57911 0
M  V30 19892 O 487.247 -0.0897726 -6.21935 0
M  V30 19893 C 486.057 0.447224 -8.1878 0
M  V30 19894 O 485.667 -0.825065 -8.71101 0
M  V30 19895 C 485.177 0.783801 -6.99623 0
M  V30 19896 C 485.887 0.0619192 -5.85967 0
M  V30 19897 N 485.837 0.790462 -4.56202 0
M  V30 19898 H 488.676 1.93423 -8.4679 0
M  V30 19899 H 488.948 1.68852 -6.70877 0
M  V30 19900 H 488.08 -0.289041 -8.15388 0
M  V30 19901 H 485.425 -0.927006 -5.72848 0
M  V30 19902 H 485.145 1.86973 -6.82036 0
M  V30 19903 H 484.154 0.403953 -7.13357 0
M  V30 19904 H 485.988 1.20599 -8.97534 0
M  V30 19905 P 484.117 -1.17771 -8.83182 0
M  V30 19906 O 483.897 -2.07206 -9.98732 0
M  V30 19907 O 483.327 0.0743816 -8.81969 0
M  V30 19908 O 483.867 -1.97678 -7.474 0
M  V30 19909 C 484.807 -3.01133 -7.08783 0
M  V30 19910 C 484.077 -4.1203 -6.37546 0
M  V30 19911 O 483.867 -3.72887 -4.9796 0
M  V30 19912 C 482.677 -4.45085 -6.88694 0
M  V30 19913 O 482.287 -5.78836 -6.56315 0
M  V30 19914 C 481.797 -3.47817 -6.12078 0
M  V30 19915 C 482.507 -3.39414 -4.77697 0
M  V30 19916 N 482.457 -2.04615 -4.15333 0
M  V30 19917 C 482.307 -1.96929 -2.77162 0
M  V30 19918 O 482.217 -3.02017 -2.12006 0
M  V30 19919 N 482.257 -0.55485 -2.24237 0
M  V30 19920 C 482.357 0.367808 -2.9169 0
M  V30 19921 N 482.307 1.53426 -2.29427 0
M  V30 19922 C 482.507 0.319148 -4.33828 0
M  V30 19923 C 482.557 -0.920672 -4.90433 0
M  V30 19924 H 485.297 -3.41209 -7.98667 0
M  V30 19925 H 485.567 -2.5837 -6.41742 0
M  V30 19926 H 484.7 -5.02718 -6.42752 0
M  V30 19927 H 482.045 -4.11779 -4.09026 0
M  V30 19928 H 481.765 -2.49661 -6.61772 0
M  V30 19929 H 480.774 -3.86674 -6.00946 0
M  V30 19930 H 482.608 -4.29991 -7.97006 0
M  V30 19931 H 482.68 -1.00589 -5.98303 0
M  V30 19932 H 482.578 1.22639 -4.93799 0
M  V30 19933 H 482.19 1.56819 -1.27167 0
M  V30 19934 H 482.386 2.41062 -2.83063 0
M  V30 19935 P 480.737 -6.144 -6.45285 0
M  V30 19936 O 480.517 -7.54673 -6.86199 0
M  V30 19937 O 479.947 -5.12391 -7.179 0
M  V30 19938 O 480.487 -5.99158 -4.88404 0
M  V30 19939 C 481.427 -6.60234 -3.96415 0
M  V30 19940 C 480.697 -7.08259 -2.72856 0
M  V30 19941 O 480.487 -5.9427 -1.83651 0
M  V30 19942 C 479.297 -7.64886 -2.9555 0
M  V30 19943 O 478.907 -8.53963 -1.90717 0
M  V30 19944 C 478.417 -6.4116 -2.90739 0
M  V30 19945 C 479.127 -5.55375 -1.86963 0
M  V30 19946 N 479.077 -4.09664 -2.15742 0
M  V30 19947 H 481.916 -7.45574 -4.45629 0
M  V30 19948 H 482.188 -5.86232 -3.67314 0
M  V30 19949 H 481.32 -7.84412 -2.24479 0
M  V30 19950 P 477.357 -8.7635 -1.60911 0
M  V30 19951 O 477.137 -10.1388 -1.11561 0
M  V30 19952 O 476.567 -8.36503 -2.79617 0
M  V30 19953 O 477.107 -7.71806 -0.42951 0
M  V30 19954 C 478.047 -7.67148 0.673689 0
M  V30 19955 C 477.317 -7.33374 1.95559 0
M  V30 19956 O 477.107 -5.88721 2.00726 0
M  V30 19957 C 475.917 -7.92526 2.10483 0
M  V30 19958 O 475.527 -8.02971 3.47653 0
M  V30 19959 C 475.037 -6.89602 1.41652 0
M  V30 19960 C 475.747 -5.59201 1.75185 0
M  V30 19961 N 475.697 -4.58235 0.662552 0
M  V30 19962 H 478.536 -8.65116 0.777161 0
M  V30 19963 H 478.808 -6.90173 0.474152 0
M  V30 19964 H 477.94 -7.66548 2.79458 0
M  V30 19965 P 473.977 -8.03563 3.84925 0
M  V30 19966 O 473.757 -8.85821 5.0569 0
M  V30 19967 O 473.187 -8.41101 2.65469 0
M  V30 19968 O 473.727 -6.4965 4.18908 0
M  V30 19969 C 474.667 -5.80886 5.05289 0
M  V30 19970 C 473.937 -4.78366 5.89277 0
M  V30 19971 O 473.727 -3.58302 5.08433 0
M  V30 19972 C 472.537 -5.16748 6.36559 0
M  V30 19973 O 472.147 -4.45271 7.53232 0
M  V30 19974 C 471.657 -4.74572 5.19863 0
M  V30 19975 C 472.367 -3.49373 4.70338 0
M  V30 19976 N 472.317 -3.31704 3.22876 0
M  V30 19977 C 472.167 -2.03326 2.74871 0
M  V30 19978 O 472.077 -1.06486 3.48076 0
M  V30 19979 N 472.127 -1.91838 1.37456 0
M  V30 19980 C 472.217 -2.94295 0.462035 0
M  V30 19981 O 472.167 -2.71763 -0.752928 0
M  V30 19982 C 472.367 -4.25064 1.05249 0
M  V30 19983 C 472.477 -5.39815 0.095697 0
M  V30 19984 C 472.417 -4.40214 2.39192 0
M  V30 19985 H 475.158 -6.54063 5.71245 0
M  V30 19986 H 475.427 -5.30339 4.43905 0
M  V30 19987 H 474.56 -4.55889 6.76652 0
M  V30 19988 H 471.905 -2.6167 5.17842 0
M  V30 19989 H 471.626 -5.52155 4.41878 0
M  V30 19990 H 470.634 -4.51918 5.53297 0
M  V30 19991 H 472.468 -6.25055 6.55162 0
M  V30 19992 H 472.539 -5.39798 2.81523 0
M  V30 19993 H 471.509 -5.91593 0.0279582 0
M  V30 19994 H 473.246 -6.10038 0.450573 0
M  V30 19995 H 472.758 -5.02007 -0.89937 0
M  V30 19996 H 472.022 -0.995326 1.00435 0
M  V30 19997 P 470.597 -4.23843 7.83734 0
M  V30 19998 O 470.377 -4.19407 9.29784 0
M  V30 19999 O 469.807 -5.24426 7.09156 0
M  V30 20000 O 470.347 -2.7935 7.20758 0
M  V30 20001 C 471.287 -1.7299 7.50419 0
M  V30 20002 C 470.557 -0.406376 7.57911 0
M  V30 20003 O 470.347 0.0897726 6.21935 0
M  V30 20004 C 469.157 -0.447224 8.1878 0
M  V30 20005 O 468.767 0.825065 8.71101 0
M  V30 20006 C 468.277 -0.783801 6.99623 0
M  V30 20007 C 468.987 -0.0619192 5.85967 0
M  V30 20008 N 468.937 -0.790462 4.56202 0
M  V30 20009 H 471.776 -1.93423 8.4679 0
M  V30 20010 H 472.048 -1.68852 6.70877 0
M  V30 20011 H 471.18 0.289041 8.15388 0
M  V30 20012 H 468.525 0.927006 5.72848 0
M  V30 20013 H 468.245 -1.86973 6.82036 0
M  V30 20014 H 467.254 -0.403953 7.13357 0
M  V30 20015 H 469.088 -1.20599 8.97534 0
M  V30 20016 P 467.217 1.17771 8.83182 0
M  V30 20017 O 466.997 2.07206 9.98732 0
M  V30 20018 O 466.427 -0.0743816 8.81969 0
M  V30 20019 O 466.967 1.97652 7.47304 0
M  V30 20020 C 467.907 3.01133 7.08783 0
M  V30 20021 C 467.177 4.12613 6.37049 0
M  V30 20022 O 466.967 3.72827 4.97879 0
M  V30 20023 C 465.777 4.45085 6.88694 0
M  V30 20024 O 465.387 5.7877 6.5624 0
M  V30 20025 C 464.897 3.47817 6.12078 0
M  V30 20026 C 465.607 3.39414 4.77697 0
M  V30 20027 N 465.557 2.04199 4.15538 0
M  V30 20028 H 468.396 3.41248 7.98759 0
M  V30 20029 H 468.668 2.57728 6.42 0
M  V30 20030 H 467.8 5.02657 6.42673 0
M  V30 20031 H 465.145 4.11708 4.08956 0
M  V30 20032 H 464.865 2.49626 6.61679 0
M  V30 20033 H 463.874 3.8662 6.00862 0
M  V30 20034 H 465.708 4.29991 7.97006 0
M  V30 20035 P 463.837 6.144 6.45285 0
M  V30 20036 O 463.617 7.54673 6.86199 0
M  V30 20037 O 463.047 5.12391 7.179 0
M  V30 20038 O 463.587 5.99158 4.88404 0
M  V30 20039 C 464.527 6.60234 3.96415 0
M  V30 20040 C 463.797 7.08259 2.72856 0
M  V30 20041 O 463.587 5.9427 1.83651 0
M  V30 20042 C 462.397 7.64886 2.9555 0
M  V30 20043 O 462.007 8.53963 1.90717 0
M  V30 20044 C 461.517 6.4116 2.90739 0
M  V30 20045 C 462.227 5.55375 1.86963 0
M  V30 20046 N 462.177 4.09448 2.16152 0
M  V30 20047 H 465.016 7.45574 4.45629 0
M  V30 20048 H 465.288 5.85864 3.679 0
M  V30 20049 H 464.42 7.84412 2.24479 0
M  V30 20050 H 461.765 5.73457 0.888562 0
M  V30 20051 H 461.485 5.90877 3.88583 0
M  V30 20052 H 460.494 6.6596 2.58858 0
M  V30 20053 H 462.328 8.16339 3.92049 0
M  V30 20054 P 460.457 8.7635 1.60911 0
M  V30 20055 O 460.237 10.1388 1.11561 0
M  V30 20056 O 459.667 8.36503 2.79617 0
M  V30 20057 O 460.207 7.71806 0.42951 0
M  V30 20058 C 461.147 7.67148 -0.673689 0
M  V30 20059 C 460.417 7.33374 -1.95559 0
M  V30 20060 O 460.207 5.88721 -2.00726 0
M  V30 20061 C 459.017 7.92526 -2.10483 0
M  V30 20062 O 458.627 8.02971 -3.47653 0
M  V30 20063 C 458.137 6.89602 -1.41652 0
M  V30 20064 C 458.847 5.59201 -1.75185 0
M  V30 20065 N 458.797 4.58235 -0.662552 0
M  V30 20066 H 461.636 8.65116 -0.777161 0
M  V30 20067 H 461.908 6.90173 -0.474152 0
M  V30 20068 H 461.04 7.66548 -2.79458 0
M  V30 20069 P 457.077 8.03563 -3.84925 0
M  V30 20070 O 456.857 8.85821 -5.0569 0
M  V30 20071 O 456.287 8.41101 -2.65469 0
M  V30 20072 O 456.827 6.4965 -4.18908 0
M  V30 20073 C 457.767 5.81037 -5.05421 0
M  V30 20074 C 457.037 4.78366 -5.89277 0
M  V30 20075 O 456.827 3.58302 -5.08433 0
M  V30 20076 C 455.637 5.17448 -6.36119 0
M  V30 20077 O 455.247 4.45271 -7.53232 0
M  V30 20078 C 454.757 4.74639 -5.19936 0
M  V30 20079 C 455.467 3.49432 -4.70418 0
M  V30 20080 N 455.417 3.32099 -3.22613 0
M  V30 20081 H 458.256 6.54213 -5.71376 0
M  V30 20082 H 458.528 5.30936 -4.43503 0
M  V30 20083 H 457.66 4.55889 -6.76652 0
M  V30 20084 H 455.005 2.61715 -5.17932 0
M  V30 20085 H 454.725 5.52155 -4.41878 0
M  V30 20086 H 453.734 4.51981 -5.53374 0
M  V30 20087 H 455.568 6.25124 -6.55234 0
M  V30 20088 P 453.697 4.23843 -7.83734 0
M  V30 20089 O 453.477 4.19407 -9.29784 0
M  V30 20090 O 452.907 5.24426 -7.09156 0
M  V30 20091 O 453.447 2.79386 -7.20852 0
M  V30 20092 C 454.387 1.7299 -7.50419 0
M  V30 20093 C 453.657 0.41401 -7.5797 0
M  V30 20094 O 453.447 -0.089787 -6.22035 0
M  V30 20095 C 452.257 0.447224 -8.1878 0
M  V30 20096 O 451.867 -0.825159 -8.71201 0
M  V30 20097 C 451.377 0.783801 -6.99623 0
M  V30 20098 C 452.087 0.0619192 -5.85967 0
M  V30 20099 N 452.037 0.7859 -4.56281 0
M  V30 20100 C 451.887 0.0359258 -3.39981 0
M  V30 20101 O 451.797 -1.19723 -3.49038 0
M  V30 20102 N 451.837 0.869151 -2.14025 0
M  V30 20103 C 451.937 2.01207 -2.14363 0
M  V30 20104 N 451.887 2.58978 -0.954287 0
M  V30 20105 C 452.087 2.80817 -3.32215 0
M  V30 20106 C 452.137 2.13785 -4.50884 0
M  V30 20107 H 454.877 1.93401 -8.46693 0
M  V30 20108 H 455.147 1.68181 -6.71046 0
M  V30 20109 H 454.28 -0.289076 -8.15488 0
M  V30 20110 H 451.625 -0.927166 -5.72947 0
M  V30 20111 H 451.345 1.87 -6.82132 0
M  V30 20112 H 450.354 0.404009 -7.13457 0
M  V30 20113 H 452.188 1.20599 -8.97534 0
M  V30 20114 H 452.26 2.70295 -5.43162 0
M  V30 20115 H 452.158 3.89465 -3.27406 0
M  V30 20116 H 451.77 2.01616 -0.107046 0
M  V30 20117 H 451.966 3.61403 -0.873101 0
M  V30 20118 P 450.317 -1.17771 -8.83182 0
M  V30 20119 O 450.097 -2.07206 -9.98732 0
M  V30 20120 O 449.527 0.0743816 -8.81969 0
M  V30 20121 O 450.067 -1.97652 -7.47304 0
M  V30 20122 C 451.007 -3.01133 -7.08783 0
M  V30 20123 C 450.277 -4.12613 -6.37049 0
M  V30 20124 O 450.067 -3.72827 -4.97879 0
M  V30 20125 C 448.877 -4.45085 -6.88694 0
M  V30 20126 O 448.487 -5.7877 -6.5624 0
M  V30 20127 C 447.997 -3.47817 -6.12078 0
M  V30 20128 C 448.707 -3.39414 -4.77697 0
M  V30 20129 N 448.657 -2.04199 -4.15538 0
M  V30 20130 C 448.737 -0.821545 -4.76977 0
M  V30 20131 N 448.667 0.1794 -3.94592 0
M  V30 20132 C 448.517 -0.419121 -2.70776 0
M  V30 20133 C 448.387 0.109072 -1.40577 0
M  V30 20134 N 448.377 1.4104 -1.1344 0
M  V30 20135 N 448.267 -0.764381 -0.39411 0
M  V30 20136 C 448.277 -2.06587 -0.664135 0
M  V30 20137 N 448.397 -2.67948 -1.82153 0
M  V30 20138 C 448.517 -1.77942 -2.8147 0
M  V30 20139 H 451.496 -3.41248 -7.98759 0
M  V30 20140 H 451.768 -2.57728 -6.42 0
M  V30 20141 H 450.9 -5.02657 -6.42673 0
M  V30 20142 H 448.245 -4.11708 -4.08956 0
M  V30 20143 H 447.965 -2.49626 -6.61679 0
M  V30 20144 H 446.974 -3.8662 -6.00862 0
M  V30 20145 H 448.808 -4.29991 -7.97006 0
M  V30 20146 H 448.849 -0.702451 -5.84696 0
M  V30 20147 H 448.468 2.09647 -1.89651 0
M  V30 20148 H 448.279 1.73358 -0.160575 0
M  V30 20149 H 448.171 -2.71695 0.195838 0
M  V30 20150 P 446.937 -6.144 -6.45285 0
M  V30 20151 O 446.717 -7.54673 -6.86199 0
M  V30 20152 O 446.147 -5.12391 -7.179 0
M  V30 20153 O 446.687 -5.99158 -4.88404 0
M  V30 20154 C 447.627 -6.60234 -3.96415 0
M  V30 20155 C 446.897 -7.08259 -2.72856 0
M  V30 20156 O 446.687 -5.9427 -1.83651 0
M  V30 20157 C 445.497 -7.64886 -2.9555 0
M  V30 20158 O 445.107 -8.53963 -1.90717 0
M  V30 20159 C 444.617 -6.4116 -2.90739 0
M  V30 20160 C 445.327 -5.55375 -1.86963 0
M  V30 20161 N 445.277 -4.09448 -2.16152 0
M  V30 20162 C 445.357 -3.46824 -3.37593 0
M  V30 20163 N 445.287 -2.17422 -3.29777 0
M  V30 20164 C 445.137 -1.93065 -1.94427 0
M  V30 20165 C 445.007 -0.738053 -1.20141 0
M  V30 20166 N 444.997 0.474256 -1.74676 0
M  V30 20167 N 444.887 -0.850049 0.13045 0
M  V30 20168 C 444.897 -2.06169 0.676992 0
M  V30 20169 N 445.017 -3.23842 0.101312 0
M  V30 20170 C 445.137 -3.09402 -1.23122 0
M  V30 20171 H 448.116 -7.45574 -4.45629 0
M  V30 20172 H 448.388 -5.85864 -3.679 0
M  V30 20173 H 447.52 -7.84412 -2.24479 0
M  V30 20174 H 444.865 -5.73457 -0.888562 0
M  V30 20175 H 444.585 -5.90877 -3.88583 0
M  V30 20176 H 443.594 -6.6596 -2.58858 0
M  V30 20177 H 445.428 -8.16339 -3.92049 0
M  V30 20178 H 445.469 -4.00505 -4.3174 0
M  V30 20179 H 445.088 0.581337 -2.76658 0
M  V30 20180 H 444.899 1.30811 -1.14888 0
M  V30 20181 H 444.791 -2.08295 1.75542 0
M  V30 20182 P 443.557 -8.7635 -1.60911 0
M  V30 20183 O 443.337 -10.1388 -1.11561 0
M  V30 20184 O 442.767 -8.36503 -2.79617 0
M  V30 20185 O 443.307 -7.71806 -0.42951 0
M  V30 20186 C 444.247 -7.67148 0.673689 0
M  V30 20187 C 443.517 -7.33374 1.95559 0
M  V30 20188 O 443.307 -5.88721 2.00726 0
M  V30 20189 C 442.117 -7.92526 2.10483 0
M  V30 20190 O 441.727 -8.02971 3.47653 0
M  V30 20191 C 441.237 -6.89602 1.41652 0
M  V30 20192 C 441.947 -5.59201 1.75185 0
M  V30 20193 N 441.897 -4.58301 0.657969 0
M  V30 20194 H 444.736 -8.65116 0.777161 0
M  V30 20195 H 445.008 -6.9022 0.46725 0
M  V30 20196 H 444.14 -7.66548 2.79458 0
M  V30 20197 H 441.485 -5.16165 2.65183 0
M  V30 20198 H 441.205 -7.06433 0.329384 0
M  V30 20199 H 440.214 -6.90926 1.82021 0
M  V30 20200 H 442.048 -8.90873 1.62657 0
M  V30 20201 P 440.177 -8.03563 3.84925 0
M  V30 20202 O 439.957 -8.85821 5.0569 0
M  V30 20203 O 439.387 -8.41101 2.65469 0
M  V30 20204 O 439.927 -6.4965 4.18908 0
M  V30 20205 C 440.867 -5.81037 5.05421 0
M  V30 20206 C 440.137 -4.78366 5.89277 0
M  V30 20207 O 439.927 -3.58302 5.08433 0
M  V30 20208 C 438.737 -5.17448 6.36119 0
M  V30 20209 O 438.347 -4.45271 7.53232 0
M  V30 20210 C 437.857 -4.74639 5.19936 0
M  V30 20211 C 438.567 -3.49432 4.70418 0
M  V30 20212 N 438.517 -3.31776 3.22945 0
M  V30 20213 H 441.356 -6.54213 5.71376 0
M  V30 20214 H 441.628 -5.30492 4.44033 0
M  V30 20215 H 440.76 -4.55889 6.76652 0
M  V30 20216 P 436.797 -4.23843 7.83734 0
M  V30 20217 O 436.577 -4.19407 9.29784 0
M  V30 20218 O 436.007 -5.24426 7.09156 0
M  V30 20219 O 436.547 -2.7935 7.20758 0
M  V30 20220 C 437.487 -1.7299 7.50419 0
M  V30 20221 C 436.757 -0.406376 7.57911 0
M  V30 20222 O 436.547 0.0897726 6.21935 0
M  V30 20223 C 435.357 -0.447224 8.1878 0
M  V30 20224 O 434.967 0.825065 8.71101 0
M  V30 20225 C 434.477 -0.783801 6.99623 0
M  V30 20226 C 435.187 -0.0619192 5.85967 0
M  V30 20227 N 435.137 -0.7859 4.56281 0
M  V30 20228 H 437.976 -1.93423 8.4679 0
M  V30 20229 H 438.248 -1.68181 6.71046 0
M  V30 20230 H 437.38 0.289041 8.15388 0
M  V30 20231 P 433.417 1.17771 8.83182 0
M  V30 20232 O 433.197 2.07206 9.98732 0
M  V30 20233 O 432.627 -0.0743816 8.81969 0
M  V30 20234 O 433.167 1.97652 7.47304 0
M  V30 20235 C 434.107 3.01133 7.08783 0
M  V30 20236 C 433.377 4.12613 6.37049 0
M  V30 20237 O 433.167 3.72827 4.97879 0
M  V30 20238 C 431.977 4.45085 6.88694 0
M  V30 20239 O 431.587 5.7877 6.5624 0
M  V30 20240 C 431.097 3.47817 6.12078 0
M  V30 20241 C 431.807 3.39414 4.77697 0
M  V30 20242 N 431.757 2.04199 4.15538 0
M  V30 20243 H 434.596 3.41248 7.98759 0
M  V30 20244 H 434.868 2.57728 6.42 0
M  V30 20245 H 434 5.02657 6.42673 0
M  V30 20246 H 431.345 4.11708 4.08956 0
M  V30 20247 H 431.065 2.49626 6.61679 0
M  V30 20248 H 430.074 3.8662 6.00862 0
M  V30 20249 H 431.908 4.29991 7.97006 0
M  V30 20250 P 430.037 6.144 6.45285 0
M  V30 20251 O 429.817 7.54673 6.86199 0
M  V30 20252 O 429.247 5.12391 7.179 0
M  V30 20253 O 429.787 5.99158 4.88404 0
M  V30 20254 C 430.727 6.60234 3.96415 0
M  V30 20255 C 429.997 7.08259 2.72856 0
M  V30 20256 O 429.787 5.9427 1.83651 0
M  V30 20257 C 428.597 7.64886 2.9555 0
M  V30 20258 O 428.207 8.53963 1.90717 0
M  V30 20259 C 427.717 6.4116 2.90739 0
M  V30 20260 C 428.427 5.55375 1.86963 0
M  V30 20261 N 428.377 4.09448 2.16152 0
M  V30 20262 H 431.216 7.45574 4.45629 0
M  V30 20263 H 431.488 5.85864 3.679 0
M  V30 20264 H 430.62 7.84412 2.24479 0
M  V30 20265 H 427.965 5.73457 0.888562 0
M  V30 20266 H 427.685 5.90877 3.88583 0
M  V30 20267 H 426.694 6.6596 2.58858 0
M  V30 20268 H 428.528 8.16339 3.92049 0
M  V30 20269 P 426.657 8.7635 1.60911 0
M  V30 20270 O 426.437 10.1388 1.11561 0
M  V30 20271 O 425.867 8.36503 2.79617 0
M  V30 20272 O 426.407 7.71806 0.42951 0
M  V30 20273 C 427.347 7.67148 -0.673689 0
M  V30 20274 C 426.617 7.33374 -1.95559 0
M  V30 20275 O 426.407 5.88721 -2.00726 0
M  V30 20276 C 425.217 7.92526 -2.10483 0
M  V30 20277 O 424.827 8.02971 -3.47653 0
M  V30 20278 C 424.337 6.89602 -1.41652 0
M  V30 20279 C 425.047 5.59201 -1.75185 0
M  V30 20280 N 424.997 4.58301 -0.657969 0
M  V30 20281 H 427.836 8.65116 -0.777161 0
M  V30 20282 H 428.108 6.9022 -0.46725 0
M  V30 20283 H 427.24 7.66548 -2.79458 0
M  V30 20284 H 424.585 5.16165 -2.65183 0
M  V30 20285 H 424.305 7.06433 -0.329384 0
M  V30 20286 H 423.314 6.90926 -1.82021 0
M  V30 20287 H 425.148 8.90873 -1.62657 0
M  V30 20288 P 423.278 8.03563 -3.84925 0
M  V30 20289 O 423.058 8.85821 -5.0569 0
M  V30 20290 O 422.488 8.41101 -2.65469 0
M  V30 20291 O 423.028 6.4965 -4.18908 0
M  V30 20292 C 423.968 5.81037 -5.05421 0
M  V30 20293 C 423.238 4.78366 -5.89277 0
M  V30 20294 O 423.028 3.58302 -5.08433 0
M  V30 20295 C 421.838 5.17448 -6.36119 0
M  V30 20296 O 421.448 4.45271 -7.53232 0
M  V30 20297 C 420.958 4.74639 -5.19936 0
M  V30 20298 C 421.668 3.49432 -4.70418 0
M  V30 20299 N 421.618 3.32099 -3.22613 0
M  V30 20300 H 424.457 6.54213 -5.71376 0
M  V30 20301 H 424.729 5.30936 -4.43503 0
M  V30 20302 H 423.861 4.55889 -6.76652 0
M  V30 20303 H 421.206 2.61715 -5.17932 0
M  V30 20304 H 420.926 5.52155 -4.41878 0
M  V30 20305 H 419.935 4.51981 -5.53374 0
M  V30 20306 H 421.769 6.25124 -6.55234 0
M  V30 20307 P 419.898 4.23843 -7.83734 0
M  V30 20308 O 419.678 4.19407 -9.29784 0
M  V30 20309 O 419.108 5.24426 -7.09156 0
M  V30 20310 O 419.648 2.7935 -7.20758 0
M  V30 20311 C 420.588 1.72945 -7.50224 0
M  V30 20312 C 419.858 0.406376 -7.57911 0
M  V30 20313 O 419.648 -0.0897726 -6.21935 0
M  V30 20314 C 418.458 0.438983 -8.18724 0
M  V30 20315 O 418.068 -0.825065 -8.71101 0
M  V30 20316 C 417.578 0.783689 -6.99524 0
M  V30 20317 C 418.288 0.0619086 -5.85867 0
M  V30 20318 N 418.238 0.78573 -4.56183 0
M  V30 20319 C 418.088 0.0292889 -3.41887 0
M  V30 20320 O 417.998 -1.18445 -3.4419 0
M  V30 20321 N 418.048 0.744061 -2.23964 0
M  V30 20322 C 418.138 2.10932 -2.10362 0
M  V30 20323 C 418.288 2.8202 -3.34994 0
M  V30 20324 C 418.338 2.15547 -4.52261 0
M  V30 20325 H 421.079 1.93379 -8.46595 0
M  V30 20326 H 421.348 1.68132 -6.70852 0
M  V30 20327 H 420.481 -0.289041 -8.15388 0
M  V30 20328 H 417.826 -0.926847 -5.72749 0
M  V30 20329 H 417.547 1.86973 -6.82036 0
M  V30 20330 H 416.555 0.403896 -7.13257 0
M  V30 20331 H 418.389 1.20585 -8.97435 0
M  V30 20332 H 418.46 2.71231 -5.45042 0
M  V30 20333 P 416.518 -1.17771 -8.83182 0
M  V30 20334 O 416.298 -2.07206 -9.98732 0
M  V30 20335 O 415.728 0.0743816 -8.81969 0
M  V30 20336 O 416.268 -1.97652 -7.47304 0
M  V30 20337 C 417.208 -3.01133 -7.08783 0
M  V30 20338 C 416.478 -4.12613 -6.37049 0
M  V30 20339 O 416.268 -3.72827 -4.97879 0
M  V30 20340 C 415.078 -4.45085 -6.88694 0
M  V30 20341 O 414.688 -5.7877 -6.5624 0
M  V30 20342 C 414.198 -3.47817 -6.12078 0
M  V30 20343 C 414.908 -3.39414 -4.77697 0
M  V30 20344 N 414.858 -2.04615 -4.15333 0
M  V30 20345 H 417.697 -3.41248 -7.98759 0
M  V30 20346 H 417.969 -2.5837 -6.41742 0
M  V30 20347 H 417.101 -5.02657 -6.42673 0
M  V30 20348 P 413.138 -6.144 -6.45285 0
M  V30 20349 O 412.918 -7.54673 -6.86199 0
M  V30 20350 O 412.348 -5.12391 -7.179 0
M  V30 20351 O 412.888 -5.99158 -4.88404 0
M  V30 20352 C 413.828 -6.60234 -3.96415 0
M  V30 20353 C 413.098 -7.08259 -2.72856 0
M  V30 20354 O 412.888 -5.9427 -1.83651 0
M  V30 20355 C 411.698 -7.64886 -2.9555 0
M  V30 20356 O 411.308 -8.53963 -1.90717 0
M  V30 20357 C 410.818 -6.4116 -2.90739 0
M  V30 20358 C 411.528 -5.55375 -1.86963 0
M  V30 20359 N 411.478 -4.09448 -2.16152 0
M  V30 20360 H 414.317 -7.45574 -4.45629 0
M  V30 20361 H 414.589 -5.85864 -3.679 0
M  V30 20362 H 413.721 -7.84412 -2.24479 0
M  V30 20363 H 411.066 -5.73457 -0.888562 0
M  V30 20364 H 410.786 -5.90877 -3.88583 0
M  V30 20365 H 409.795 -6.6596 -2.58858 0
M  V30 20366 H 411.629 -8.16339 -3.92049 0
M  V30 20367 P 409.758 -8.7635 -1.60911 0
M  V30 20368 O 409.538 -10.1388 -1.11561 0
M  V30 20369 O 408.968 -8.36503 -2.79617 0
M  V30 20370 O 409.508 -7.71806 -0.42951 0
M  V30 20371 C 410.448 -7.67148 0.673689 0
M  V30 20372 C 409.718 -7.33374 1.95559 0
M  V30 20373 O 409.508 -5.88721 2.00726 0
M  V30 20374 C 408.318 -7.92526 2.10483 0
M  V30 20375 O 407.928 -8.02971 3.47653 0
M  V30 20376 C 407.438 -6.89602 1.41652 0
M  V30 20377 C 408.148 -5.59201 1.75185 0
M  V30 20378 N 408.098 -4.58235 0.662552 0
M  V30 20379 H 410.937 -8.65116 0.777161 0
M  V30 20380 H 411.209 -6.90173 0.474152 0
M  V30 20381 H 410.341 -7.66548 2.79458 0
M  V30 20382 P 406.378 -8.03563 3.84925 0
M  V30 20383 O 406.158 -8.85821 5.0569 0
M  V30 20384 O 405.588 -8.41101 2.65469 0
M  V30 20385 O 406.128 -6.4965 4.18908 0
M  V30 20386 C 407.068 -5.81037 5.05421 0
M  V30 20387 C 406.338 -4.78366 5.89277 0
M  V30 20388 O 406.128 -3.58302 5.08433 0
M  V30 20389 C 404.938 -5.17448 6.36119 0
M  V30 20390 O 404.548 -4.45271 7.53232 0
M  V30 20391 C 404.058 -4.74639 5.19936 0
M  V30 20392 C 404.768 -3.49432 4.70418 0
M  V30 20393 N 404.718 -3.32099 3.22613 0
M  V30 20394 H 407.557 -6.54213 5.71376 0
M  V30 20395 H 407.829 -5.30936 4.43503 0
M  V30 20396 H 406.961 -4.55889 6.76652 0
M  V30 20397 H 404.306 -2.61715 5.17932 0
M  V30 20398 H 404.026 -5.52155 4.41878 0
M  V30 20399 H 403.035 -4.51981 5.53374 0
M  V30 20400 H 404.869 -6.25124 6.55234 0
M  V30 20401 P 402.998 -4.23843 7.83734 0
M  V30 20402 O 402.778 -4.19407 9.29784 0
M  V30 20403 O 402.208 -5.24426 7.09156 0
M  V30 20404 O 402.748 -2.7935 7.20758 0
M  V30 20405 C 403.688 -1.7299 7.50419 0
M  V30 20406 C 402.958 -0.406376 7.57911 0
M  V30 20407 O 402.748 0.0897726 6.21935 0
M  V30 20408 C 401.558 -0.447224 8.1878 0
M  V30 20409 O 401.168 0.825065 8.71101 0
M  V30 20410 C 400.678 -0.783801 6.99623 0
M  V30 20411 C 401.388 -0.0619192 5.85967 0
M  V30 20412 N 401.338 -0.7859 4.56281 0
M  V30 20413 H 404.177 -1.93423 8.4679 0
M  V30 20414 H 404.449 -1.68181 6.71046 0
M  V30 20415 H 403.581 0.289041 8.15388 0
M  V30 20416 P 399.618 1.17771 8.83182 0
M  V30 20417 O 399.398 2.07206 9.98732 0
M  V30 20418 O 398.828 -0.0743816 8.81969 0
M  V30 20419 O 399.368 1.97652 7.47304 0
M  V30 20420 C 400.308 3.01133 7.08783 0
M  V30 20421 C 399.578 4.12613 6.37049 0
M  V30 20422 O 399.368 3.72827 4.97879 0
M  V30 20423 C 398.178 4.45085 6.88694 0
M  V30 20424 O 397.788 5.7877 6.5624 0
M  V30 20425 C 397.298 3.47817 6.12078 0
M  V30 20426 C 398.008 3.39414 4.77697 0
M  V30 20427 N 397.958 2.04615 4.15333 0
M  V30 20428 H 400.797 3.41248 7.98759 0
M  V30 20429 H 401.069 2.5837 6.41742 0
M  V30 20430 H 400.201 5.02657 6.42673 0
M  V30 20431 P 396.238 6.144 6.45285 0
M  V30 20432 O 396.018 7.54673 6.86199 0
M  V30 20433 O 395.448 5.12391 7.179 0
M  V30 20434 O 395.988 5.99158 4.88404 0
M  V30 20435 C 396.928 6.60234 3.96415 0
M  V30 20436 C 396.198 7.08259 2.72856 0
M  V30 20437 O 395.988 5.9427 1.83651 0
M  V30 20438 C 394.798 7.64886 2.9555 0
M  V30 20439 O 394.408 8.53963 1.90717 0
M  V30 20440 C 393.918 6.4116 2.90739 0
M  V30 20441 C 394.628 5.55375 1.86963 0
M  V30 20442 N 394.578 4.09664 2.15742 0
M  V30 20443 H 397.417 7.45574 4.45629 0
M  V30 20444 H 397.689 5.86232 3.67314 0
M  V30 20445 H 396.821 7.84412 2.24479 0
M  V30 20446 P 392.858 8.7635 1.60911 0
M  V30 20447 O 392.638 10.1388 1.11561 0
M  V30 20448 O 392.068 8.36503 2.79617 0
M  V30 20449 O 392.608 7.71906 0.429565 0
M  V30 20450 C 393.548 7.67148 -0.673689 0
M  V30 20451 C 392.818 7.33666 -1.94851 0
M  V30 20452 O 392.608 5.88816 -2.00759 0
M  V30 20453 C 391.418 7.92526 -2.10483 0
M  V30 20454 O 391.028 8.03063 -3.47693 0
M  V30 20455 C 390.538 6.89602 -1.41652 0
M  V30 20456 C 391.248 5.59201 -1.75185 0
M  V30 20457 N 391.198 4.58235 -0.662552 0
M  V30 20458 C 391.048 3.24451 -1.01643 0
M  V30 20459 O 390.958 2.94958 -2.21722 0
M  V30 20460 N 390.998 2.30408 0.165238 0
M  V30 20461 C 391.098 2.66048 1.25118 0
M  V30 20462 N 391.048 1.70787 2.16813 0
M  V30 20463 C 391.248 4.02732 1.64413 0
M  V30 20464 C 391.298 4.9488 0.63991 0
M  V30 20465 H 394.038 8.65017 -0.777072 0
M  V30 20466 H 394.308 6.90173 -0.474152 0
M  V30 20467 H 393.441 7.66642 -2.79492 0
M  V30 20468 H 390.786 5.16254 -2.65229 0
M  V30 20469 H 390.506 7.06532 -0.329431 0
M  V30 20470 H 389.515 6.91023 -1.82047 0
M  V30 20471 H 391.349 8.90873 -1.62657 0
M  V30 20472 H 391.421 6.00104 0.892197 0
M  V30 20473 H 391.319 4.31733 2.69229 0
M  V30 20474 H 390.931 0.724835 1.8844 0
M  V30 20475 H 391.127 1.94716 3.16734 0
M  V30 20476 P 389.478 8.03563 -3.84925 0
M  V30 20477 O 389.258 8.85821 -5.0569 0
M  V30 20478 O 388.688 8.41101 -2.65469 0
M  V30 20479 O 389.228 6.4965 -4.18908 0
M  V30 20480 C 390.168 5.81037 -5.05421 0
M  V30 20481 C 389.438 4.78366 -5.89277 0
M  V30 20482 O 389.228 3.58302 -5.08433 0
M  V30 20483 C 388.038 5.17448 -6.36119 0
M  V30 20484 O 387.648 4.45271 -7.53232 0
M  V30 20485 C 387.158 4.74639 -5.19936 0
M  V30 20486 C 387.868 3.49432 -4.70418 0
M  V30 20487 N 387.818 3.31776 -3.22945 0
M  V30 20488 H 390.657 6.54213 -5.71376 0
M  V30 20489 H 390.929 5.30492 -4.44033 0
M  V30 20490 H 390.061 4.55889 -6.76652 0
M  V30 20491 P 386.098 4.23843 -7.83734 0
M  V30 20492 O 385.878 4.19407 -9.29784 0
M  V30 20493 O 385.308 5.24426 -7.09156 0
M  V30 20494 O 385.848 2.7935 -7.20758 0
M  V30 20495 C 386.788 1.7299 -7.50419 0
M  V30 20496 C 386.058 0.406376 -7.57911 0
M  V30 20497 O 385.848 -0.0897726 -6.21935 0
M  V30 20498 C 384.658 0.447224 -8.1878 0
M  V30 20499 O 384.268 -0.825065 -8.71101 0
M  V30 20500 C 383.778 0.783801 -6.99623 0
M  V30 20501 C 384.488 0.0619192 -5.85967 0
M  V30 20502 N 384.438 0.7859 -4.56281 0
M  V30 20503 H 387.277 1.93423 -8.4679 0
M  V30 20504 H 387.549 1.68181 -6.71046 0
M  V30 20505 H 386.681 -0.289041 -8.15388 0
M  V30 20506 P 382.718 -1.17771 -8.83182 0
M  V30 20507 O 382.498 -2.07206 -9.98732 0
M  V30 20508 O 381.928 0.0743816 -8.81969 0
M  V30 20509 O 382.468 -1.97652 -7.47304 0
M  V30 20510 C 383.408 -3.01133 -7.08783 0
M  V30 20511 C 382.678 -4.12613 -6.37049 0
M  V30 20512 O 382.468 -3.72827 -4.97879 0
M  V30 20513 C 381.278 -4.45085 -6.88694 0
M  V30 20514 O 380.888 -5.7877 -6.5624 0
M  V30 20515 C 380.398 -3.47817 -6.12078 0
M  V30 20516 C 381.108 -3.39414 -4.77697 0
M  V30 20517 N 381.058 -2.04199 -4.15538 0
M  V30 20518 H 383.897 -3.41248 -7.98759 0
M  V30 20519 H 384.169 -2.57728 -6.42 0
M  V30 20520 H 383.301 -5.02657 -6.42673 0
M  V30 20521 H 380.646 -4.11708 -4.08956 0
M  V30 20522 H 380.366 -2.49626 -6.61679 0
M  V30 20523 H 379.375 -3.8662 -6.00862 0
M  V30 20524 H 381.209 -4.29991 -7.97006 0
M  V30 20525 P 379.338 -6.144 -6.45285 0
M  V30 20526 O 379.118 -7.54673 -6.86199 0
M  V30 20527 O 378.548 -5.12391 -7.179 0
M  V30 20528 O 379.088 -5.99158 -4.88404 0
M  V30 20529 C 380.028 -6.60062 -3.96313 0
M  V30 20530 C 379.298 -7.08259 -2.72856 0
M  V30 20531 O 379.088 -5.9427 -1.83651 0
M  V30 20532 C 377.898 -7.65087 -2.94749 0
M  V30 20533 O 377.508 -8.53963 -1.90717 0
M  V30 20534 C 377.018 -6.41069 -2.90698 0
M  V30 20535 C 377.728 -5.5528 -1.86931 0
M  V30 20536 N 377.678 -4.09575 -2.15696 0
M  V30 20537 C 377.528 -3.24249 -1.08435 0
M  V30 20538 O 377.438 -3.63946 0.0628747 0
M  V30 20539 N 377.488 -1.90009 -1.39973 0
M  V30 20540 C 377.578 -1.34884 -2.65614 0
M  V30 20541 C 377.728 -2.3145 -3.71736 0
M  V30 20542 C 377.778 -3.63518 -3.44754 0
M  V30 20543 H 380.519 -7.45402 -4.45526 0
M  V30 20544 H 380.788 -5.86062 -3.67208 0
M  V30 20545 H 379.921 -7.84412 -2.24479 0
M  V30 20546 H 377.266 -5.73358 -0.888409 0
M  V30 20547 H 376.987 -5.90877 -3.88583 0
M  V30 20548 H 375.995 -6.65867 -2.58821 0
M  V30 20549 H 377.829 -8.16248 -3.92006 0
M  V30 20550 H 377.9 -4.34551 -4.26383 0
M  V30 20551 P 375.958 -8.7635 -1.60911 0
M  V30 20552 O 375.738 -10.1388 -1.11561 0
M  V30 20553 O 375.168 -8.36503 -2.79617 0
M  V30 20554 O 375.708 -7.71806 -0.42951 0
M  V30 20555 C 376.648 -7.67148 0.673689 0
M  V30 20556 C 375.918 -7.33374 1.95559 0
M  V30 20557 O 375.708 -5.88721 2.00726 0
M  V30 20558 C 374.518 -7.92526 2.10483 0
M  V30 20559 O 374.128 -8.02971 3.47653 0
M  V30 20560 C 373.638 -6.89602 1.41652 0
M  V30 20561 C 374.348 -5.59201 1.75185 0
M  V30 20562 N 374.298 -4.58235 0.662552 0
M  V30 20563 C 374.378 -4.7683 -0.704049 0
M  V30 20564 N 374.298 -3.66233 -1.39775 0
M  V30 20565 C 374.158 -2.66526 -0.431739 0
M  V30 20566 C 374.028 -1.26394 -0.575992 0
M  V30 20567 N 373.908 -0.62859 0.67177 0
M  V30 20568 C 373.908 -1.27134 1.89385 0
M  V30 20569 N 373.778 -0.492035 2.96951 0
M  V30 20570 N 374.038 -2.58978 2.02907 0
M  V30 20571 C 374.158 -3.22433 0.832218 0
M  V30 20572 H 377.137 -8.65116 0.777161 0
M  V30 20573 H 377.409 -6.90173 0.474152 0
M  V30 20574 H 376.541 -7.66548 2.79458 0
M  V30 20575 P 372.578 -8.03563 3.84925 0
M  V30 20576 O 372.358 -8.85821 5.0569 0
M  V30 20577 O 371.788 -8.41101 2.65469 0
M  V30 20578 O 372.328 -6.4965 4.18908 0
M  V30 20579 C 373.268 -5.81037 5.05421 0
M  V30 20580 C 372.538 -4.78366 5.89277 0
M  V30 20581 O 372.328 -3.58302 5.08433 0
M  V30 20582 C 371.138 -5.17448 6.36119 0
M  V30 20583 O 370.748 -4.45271 7.53232 0
M  V30 20584 C 370.258 -4.74639 5.19936 0
M  V30 20585 C 370.968 -3.49432 4.70418 0
M  V30 20586 N 370.918 -3.32099 3.22613 0
M  V30 20587 H 373.757 -6.54213 5.71376 0
M  V30 20588 H 374.029 -5.30936 4.43503 0
M  V30 20589 H 373.161 -4.55889 6.76652 0
M  V30 20590 H 370.506 -2.61715 5.17932 0
M  V30 20591 H 370.226 -5.52155 4.41878 0
M  V30 20592 H 369.235 -4.51981 5.53374 0
M  V30 20593 H 371.069 -6.25124 6.55234 0
M  V30 20594 P 369.198 -4.23843 7.83734 0
M  V30 20595 O 368.978 -4.19407 9.29784 0
M  V30 20596 O 368.408 -5.24426 7.09156 0
M  V30 20597 O 368.948 -2.7935 7.20758 0
M  V30 20598 C 369.888 -1.72945 7.50224 0
M  V30 20599 C 369.158 -0.406376 7.57911 0
M  V30 20600 O 368.948 0.0897726 6.21935 0
M  V30 20601 C 367.758 -0.438983 8.18724 0
M  V30 20602 O 367.368 0.825065 8.71101 0
M  V30 20603 C 366.878 -0.783689 6.99524 0
M  V30 20604 C 367.588 -0.0619086 5.85867 0
M  V30 20605 N 367.538 -0.78573 4.56183 0
M  V30 20606 C 367.388 -0.0292889 3.41887 0
M  V30 20607 O 367.298 1.18445 3.4419 0
M  V30 20608 N 367.348 -0.744061 2.23964 0
M  V30 20609 C 367.438 -2.10932 2.10362 0
M  V30 20610 O 367.388 -2.64117 0.98825 0
M  V30 20611 C 367.588 -2.8202 3.34994 0
M  V30 20612 C 367.698 -4.31095 3.25037 0
M  V30 20613 C 367.638 -2.15547 4.52261 0
M  V30 20614 H 370.379 -1.93379 8.46595 0
M  V30 20615 H 370.648 -1.68132 6.70852 0
M  V30 20616 H 369.781 0.289041 8.15388 0
M  V30 20617 H 367.126 0.926847 5.72749 0
M  V30 20618 H 366.847 -1.86973 6.82036 0
M  V30 20619 H 365.855 -0.403896 7.13257 0
M  V30 20620 H 367.689 -1.20585 8.97435 0
M  V30 20621 H 367.76 -2.71231 5.45042 0
M  V30 20622 H 366.73 -4.76966 3.49992 0
M  V30 20623 H 368.467 -4.67047 3.95024 0
M  V30 20624 H 367.979 -4.58996 2.22312 0
M  V30 20625 H 367.243 -0.214893 1.39758 0
M  V30 20626 P 365.818 1.17771 8.83182 0
M  V30 20627 O 365.598 2.07206 9.98732 0
M  V30 20628 O 365.028 -0.0743816 8.81969 0
M  V30 20629 O 365.568 1.97652 7.47304 0
M  V30 20630 C 366.508 3.01133 7.08783 0
M  V30 20631 C 365.778 4.12613 6.37049 0
M  V30 20632 O 365.568 3.72827 4.97879 0
M  V30 20633 C 364.378 4.45085 6.88694 0
M  V30 20634 O 363.988 5.7877 6.5624 0
M  V30 20635 C 363.498 3.47817 6.12078 0
M  V30 20636 C 364.208 3.39414 4.77697 0
M  V30 20637 N 364.158 2.04615 4.15333 0
M  V30 20638 H 366.997 3.41248 7.98759 0
M  V30 20639 H 367.269 2.5837 6.41742 0
M  V30 20640 H 366.401 5.02657 6.42673 0
M  V30 20641 P 362.438 6.144 6.45285 0
M  V30 20642 O 362.218 7.54673 6.86199 0
M  V30 20643 O 361.648 5.12391 7.179 0
M  V30 20644 O 362.188 5.99158 4.88404 0
M  V30 20645 C 363.128 6.60234 3.96415 0
M  V30 20646 C 362.398 7.08259 2.72856 0
M  V30 20647 O 362.188 5.9427 1.83651 0
M  V30 20648 C 360.998 7.64886 2.9555 0
M  V30 20649 O 360.608 8.53963 1.90717 0
M  V30 20650 C 360.118 6.4116 2.90739 0
M  V30 20651 C 360.828 5.55375 1.86963 0
M  V30 20652 N 360.778 4.09664 2.15742 0
M  V30 20653 H 363.617 7.45574 4.45629 0
M  V30 20654 H 363.889 5.86232 3.67314 0
M  V30 20655 H 363.021 7.84412 2.24479 0
M  V30 20656 P 359.058 8.7635 1.60911 0
M  V30 20657 O 358.838 10.1388 1.11561 0
M  V30 20658 O 358.268 8.36503 2.79617 0
M  V30 20659 O 358.808 7.71806 0.42951 0
M  V30 20660 C 359.748 7.67148 -0.673689 0
M  V30 20661 C 359.018 7.33374 -1.95559 0
M  V30 20662 O 358.808 5.88721 -2.00726 0
M  V30 20663 C 357.618 7.92526 -2.10483 0
M  V30 20664 O 357.228 8.02971 -3.47653 0
M  V30 20665 C 356.738 6.89602 -1.41652 0
M  V30 20666 C 357.448 5.59201 -1.75185 0
M  V30 20667 N 357.398 4.58235 -0.662552 0
M  V30 20668 C 357.478 4.7683 0.704049 0
M  V30 20669 N 357.398 3.66233 1.39775 0
M  V30 20670 C 357.258 2.66526 0.431739 0
M  V30 20671 C 357.128 1.26394 0.575992 0
M  V30 20672 N 357.008 0.62859 -0.67177 0
M  V30 20673 C 357.008 1.27134 -1.89385 0
M  V30 20674 N 356.878 0.492035 -2.96951 0
M  V30 20675 N 357.138 2.58978 -2.02907 0
M  V30 20676 C 357.258 3.22433 -0.832218 0
M  V30 20677 H 360.237 8.65116 -0.777161 0
M  V30 20678 H 360.509 6.90173 -0.474152 0
M  V30 20679 H 359.641 7.66548 -2.79458 0
M  V30 20680 P 355.678 8.03563 -3.84925 0
M  V30 20681 O 355.458 8.85821 -5.0569 0
M  V30 20682 O 354.888 8.41101 -2.65469 0
M  V30 20683 O 355.428 6.4965 -4.18908 0
M  V30 20684 C 356.368 5.81037 -5.05421 0
M  V30 20685 C 355.638 4.78366 -5.89277 0
M  V30 20686 O 355.428 3.58302 -5.08433 0
M  V30 20687 C 354.238 5.17448 -6.36119 0
M  V30 20688 O 353.848 4.45271 -7.53232 0
M  V30 20689 C 353.358 4.74639 -5.19936 0
M  V30 20690 C 354.068 3.49432 -4.70418 0
M  V30 20691 N 354.018 3.31776 -3.22945 0
M  V30 20692 H 356.857 6.54213 -5.71376 0
M  V30 20693 H 357.129 5.30492 -4.44033 0
M  V30 20694 H 356.261 4.55889 -6.76652 0
M  V30 20695 P 352.298 4.23843 -7.83734 0
M  V30 20696 O 352.078 4.19407 -9.29784 0
M  V30 20697 O 351.508 5.24426 -7.09156 0
M  V30 20698 O 352.048 2.7935 -7.20758 0
M  V30 20699 C 352.988 1.7299 -7.50419 0
M  V30 20700 C 352.258 0.406376 -7.57911 0
M  V30 20701 O 352.048 -0.0897726 -6.21935 0
M  V30 20702 C 350.858 0.447224 -8.1878 0
M  V30 20703 O 350.468 -0.825065 -8.71101 0
M  V30 20704 C 349.978 0.783801 -6.99623 0
M  V30 20705 C 350.688 0.0619192 -5.85967 0
M  V30 20706 N 350.638 0.7859 -4.56281 0
M  V30 20707 H 353.477 1.93423 -8.4679 0
M  V30 20708 H 353.749 1.68181 -6.71046 0
M  V30 20709 H 352.881 -0.289041 -8.15388 0
M  V30 20710 P 348.918 -1.17771 -8.83182 0
M  V30 20711 O 348.698 -2.07206 -9.98732 0
M  V30 20712 O 348.128 0.0743816 -8.81969 0
M  V30 20713 O 348.668 -1.97678 -7.474 0
M  V30 20714 C 349.608 -3.01133 -7.08783 0
M  V30 20715 C 348.878 -4.1203 -6.37546 0
M  V30 20716 O 348.668 -3.72887 -4.9796 0
M  V30 20717 C 347.478 -4.45085 -6.88694 0
M  V30 20718 O 347.088 -5.78836 -6.56315 0
M  V30 20719 C 346.598 -3.47817 -6.12078 0
M  V30 20720 C 347.308 -3.39414 -4.77697 0
M  V30 20721 N 347.258 -2.04615 -4.15333 0
M  V30 20722 C 347.108 -1.96929 -2.77162 0
M  V30 20723 O 347.018 -3.02017 -2.12006 0
M  V30 20724 N 347.058 -0.55485 -2.24237 0
M  V30 20725 C 347.158 0.367808 -2.9169 0
M  V30 20726 N 347.108 1.53426 -2.29427 0
M  V30 20727 C 347.308 0.319148 -4.33828 0
M  V30 20728 C 347.358 -0.920672 -4.90433 0
M  V30 20729 H 350.098 -3.41209 -7.98667 0
M  V30 20730 H 350.368 -2.5837 -6.41742 0
M  V30 20731 H 349.501 -5.02718 -6.42752 0
M  V30 20732 H 346.846 -4.11779 -4.09026 0
M  V30 20733 H 346.566 -2.49661 -6.61772 0
M  V30 20734 H 345.575 -3.86674 -6.00946 0
M  V30 20735 H 347.409 -4.29991 -7.97006 0
M  V30 20736 H 347.481 -1.00589 -5.98303 0
M  V30 20737 H 347.379 1.22639 -4.93799 0
M  V30 20738 H 346.991 1.56819 -1.27167 0
M  V30 20739 H 347.187 2.41062 -2.83063 0
M  V30 20740 P 345.538 -6.144 -6.45285 0
M  V30 20741 O 345.318 -7.54673 -6.86199 0
M  V30 20742 O 344.748 -5.12391 -7.179 0
M  V30 20743 O 345.288 -5.99158 -4.88404 0
M  V30 20744 C 346.228 -6.60234 -3.96415 0
M  V30 20745 C 345.498 -7.08259 -2.72856 0
M  V30 20746 O 345.288 -5.9427 -1.83651 0
M  V30 20747 C 344.098 -7.64886 -2.9555 0
M  V30 20748 O 343.708 -8.53963 -1.90717 0
M  V30 20749 C 343.218 -6.4116 -2.90739 0
M  V30 20750 C 343.928 -5.55375 -1.86963 0
M  V30 20751 N 343.878 -4.09448 -2.16152 0
M  V30 20752 H 346.717 -7.45574 -4.45629 0
M  V30 20753 H 346.989 -5.85864 -3.679 0
M  V30 20754 H 346.121 -7.84412 -2.24479 0
M  V30 20755 H 343.466 -5.73457 -0.888562 0
M  V30 20756 H 343.186 -5.90877 -3.88583 0
M  V30 20757 H 342.195 -6.6596 -2.58858 0
M  V30 20758 H 344.029 -8.16339 -3.92049 0
M  V30 20759 P 342.158 -8.7635 -1.60911 0
M  V30 20760 O 341.938 -10.1388 -1.11561 0
M  V30 20761 O 341.368 -8.36503 -2.79617 0
M  V30 20762 O 341.908 -7.71806 -0.42951 0
M  V30 20763 C 342.848 -7.67148 0.673689 0
M  V30 20764 C 342.118 -7.33374 1.95559 0
M  V30 20765 O 341.908 -5.88721 2.00726 0
M  V30 20766 C 340.718 -7.92526 2.10483 0
M  V30 20767 O 340.328 -8.02971 3.47653 0
M  V30 20768 C 339.838 -6.89602 1.41652 0
M  V30 20769 C 340.548 -5.59201 1.75185 0
M  V30 20770 N 340.498 -4.58235 0.662552 0
M  V30 20771 H 343.337 -8.65116 0.777161 0
M  V30 20772 H 343.609 -6.90173 0.474152 0
M  V30 20773 H 342.741 -7.66548 2.79458 0
M  V30 20774 P 338.778 -8.03563 3.84925 0
M  V30 20775 O 338.558 -8.85821 5.0569 0
M  V30 20776 O 337.988 -8.41101 2.65469 0
M  V30 20777 O 338.528 -6.4965 4.18908 0
M  V30 20778 C 339.468 -5.81037 5.05421 0
M  V30 20779 C 338.738 -4.78366 5.89277 0
M  V30 20780 O 338.528 -3.58302 5.08433 0
M  V30 20781 C 337.338 -5.17448 6.36119 0
M  V30 20782 O 336.948 -4.45271 7.53232 0
M  V30 20783 C 336.458 -4.74639 5.19936 0
M  V30 20784 C 337.168 -3.49432 4.70418 0
M  V30 20785 N 337.118 -3.32099 3.22613 0
M  V30 20786 H 339.957 -6.54213 5.71376 0
M  V30 20787 H 340.229 -5.30936 4.43503 0
M  V30 20788 H 339.361 -4.55889 6.76652 0
M  V30 20789 H 336.706 -2.61715 5.17932 0
M  V30 20790 H 336.426 -5.52155 4.41878 0
M  V30 20791 H 335.435 -4.51981 5.53374 0
M  V30 20792 H 337.269 -6.25124 6.55234 0
M  V30 20793 P 335.398 -4.23843 7.83734 0
M  V30 20794 O 335.178 -4.19407 9.29784 0
M  V30 20795 O 334.608 -5.24426 7.09156 0
M  V30 20796 O 335.148 -2.7935 7.20758 0
M  V30 20797 C 336.088 -1.72945 7.50224 0
M  V30 20798 C 335.358 -0.406376 7.57911 0
M  V30 20799 O 335.148 0.0897726 6.21935 0
M  V30 20800 C 333.958 -0.438983 8.18724 0
M  V30 20801 O 333.568 0.825065 8.71101 0
M  V30 20802 C 333.078 -0.783689 6.99524 0
M  V30 20803 C 333.788 -0.0619086 5.85867 0
M  V30 20804 N 333.738 -0.78573 4.56183 0
M  V30 20805 C 333.588 -0.0292889 3.41887 0
M  V30 20806 O 333.498 1.18445 3.4419 0
M  V30 20807 N 333.548 -0.744061 2.23964 0
M  V30 20808 C 333.638 -2.10932 2.10362 0
M  V30 20809 O 333.588 -2.64117 0.98825 0
M  V30 20810 C 333.788 -2.8202 3.34994 0
M  V30 20811 C 333.898 -4.31095 3.25037 0
M  V30 20812 C 333.838 -2.15547 4.52261 0
M  V30 20813 H 336.579 -1.93379 8.46595 0
M  V30 20814 H 336.848 -1.68132 6.70852 0
M  V30 20815 H 335.981 0.289041 8.15388 0
M  V30 20816 H 333.326 0.926847 5.72749 0
M  V30 20817 H 333.047 -1.86973 6.82036 0
M  V30 20818 H 332.055 -0.403896 7.13257 0
M  V30 20819 H 333.889 -1.20585 8.97435 0
M  V30 20820 H 333.96 -2.71231 5.45042 0
M  V30 20821 H 332.93 -4.76966 3.49992 0
M  V30 20822 H 334.667 -4.67047 3.95024 0
M  V30 20823 H 334.179 -4.58996 2.22312 0
M  V30 20824 H 333.443 -0.214893 1.39758 0
M  V30 20825 P 332.018 1.17771 8.83182 0
M  V30 20826 O 331.798 2.07206 9.98732 0
M  V30 20827 O 331.228 -0.0743816 8.81969 0
M  V30 20828 O 331.768 1.97652 7.47304 0
M  V30 20829 C 332.708 3.01133 7.08783 0
M  V30 20830 C 331.978 4.12613 6.37049 0
M  V30 20831 O 331.768 3.72827 4.97879 0
M  V30 20832 C 330.578 4.45085 6.88694 0
M  V30 20833 O 330.188 5.7877 6.5624 0
M  V30 20834 C 329.698 3.47817 6.12078 0
M  V30 20835 C 330.408 3.39414 4.77697 0
M  V30 20836 N 330.358 2.04615 4.15333 0
M  V30 20837 H 333.197 3.41248 7.98759 0
M  V30 20838 H 333.469 2.5837 6.41742 0
M  V30 20839 H 332.601 5.02657 6.42673 0
M  V30 20840 P 328.638 6.144 6.45285 0
M  V30 20841 O 328.418 7.54673 6.86199 0
M  V30 20842 O 327.848 5.12391 7.179 0
M  V30 20843 O 328.388 5.99158 4.88404 0
M  V30 20844 C 329.328 6.60234 3.96415 0
M  V30 20845 C 328.598 7.08259 2.72856 0
M  V30 20846 O 328.388 5.9427 1.83651 0
M  V30 20847 C 327.198 7.64886 2.9555 0
M  V30 20848 O 326.808 8.53963 1.90717 0
M  V30 20849 C 326.318 6.4116 2.90739 0
M  V30 20850 C 327.028 5.55375 1.86963 0
M  V30 20851 N 326.978 4.09664 2.15742 0
M  V30 20852 H 329.817 7.45574 4.45629 0
M  V30 20853 H 330.089 5.86232 3.67314 0
M  V30 20854 H 329.221 7.84412 2.24479 0
M  V30 20855 P 325.258 8.7635 1.60911 0
M  V30 20856 O 325.038 10.1388 1.11561 0
M  V30 20857 O 324.468 8.36503 2.79617 0
M  V30 20858 O 325.008 7.71806 0.42951 0
M  V30 20859 C 325.948 7.67148 -0.673689 0
M  V30 20860 C 325.218 7.33374 -1.95559 0
M  V30 20861 O 325.008 5.88721 -2.00726 0
M  V30 20862 C 323.818 7.92526 -2.10483 0
M  V30 20863 O 323.428 8.02971 -3.47653 0
M  V30 20864 C 322.938 6.89602 -1.41652 0
M  V30 20865 C 323.648 5.59201 -1.75185 0
M  V30 20866 N 323.598 4.58235 -0.662552 0
M  V30 20867 C 323.678 4.7683 0.704049 0
M  V30 20868 N 323.598 3.66233 1.39775 0
M  V30 20869 C 323.458 2.66526 0.431739 0
M  V30 20870 C 323.328 1.26394 0.575992 0
M  V30 20871 N 323.208 0.62859 -0.67177 0
M  V30 20872 C 323.208 1.27134 -1.89385 0
M  V30 20873 N 323.078 0.492035 -2.96951 0
M  V30 20874 N 323.338 2.58978 -2.02907 0
M  V30 20875 C 323.458 3.22433 -0.832218 0
M  V30 20876 H 326.437 8.65116 -0.777161 0
M  V30 20877 H 326.709 6.90173 -0.474152 0
M  V30 20878 H 325.841 7.66548 -2.79458 0
M  V30 20879 P 321.878 8.03563 -3.84925 0
M  V30 20880 O 321.658 8.85821 -5.0569 0
M  V30 20881 O 321.088 8.41101 -2.65469 0
M  V30 20882 O 321.628 6.49734 -4.18962 0
M  V30 20883 C 322.568 5.81037 -5.05421 0
M  V30 20884 C 321.838 4.79018 -5.88876 0
M  V30 20885 O 321.628 3.58359 -5.08515 0
M  V30 20886 C 320.438 5.17448 -6.36119 0
M  V30 20887 O 320.048 4.45322 -7.53318 0
M  V30 20888 C 319.558 4.74639 -5.19936 0
M  V30 20889 C 320.268 3.49432 -4.70418 0
M  V30 20890 N 320.218 3.31776 -3.22945 0
M  V30 20891 C 320.068 2.02742 -2.72939 0
M  V30 20892 O 319.978 1.08301 -3.52749 0
M  V30 20893 N 320.018 1.96117 -1.22063 0
M  V30 20894 C 320.118 2.8878 -0.551566 0
M  V30 20895 N 320.068 2.65609 0.750198 0
M  V30 20896 C 320.268 4.22457 -1.03707 0
M  V30 20897 C 320.318 4.37979 -2.39113 0
M  V30 20898 H 323.058 6.54138 -5.7131 0
M  V30 20899 H 323.328 5.30492 -4.44033 0
M  V30 20900 H 322.461 4.55945 -6.76735 0
M  V30 20901 H 319.806 2.6176 -5.18021 0
M  V30 20902 H 319.526 5.52233 -4.41941 0
M  V30 20903 H 318.535 4.52045 -5.53452 0
M  V30 20904 H 320.369 6.25124 -6.55234 0
M  V30 20905 H 320.441 5.37936 -2.80552 0
M  V30 20906 H 320.339 5.07528 -0.359553 0
M  V30 20907 H 319.951 1.69403 1.09847 0
M  V30 20908 H 320.147 3.43701 1.41792 0
M  V30 20909 P 318.498 4.23843 -7.83734 0
M  V30 20910 O 318.278 4.19407 -9.29784 0
M  V30 20911 O 317.708 5.24426 -7.09156 0
M  V30 20912 O 318.248 2.7935 -7.20758 0
M  V30 20913 C 319.188 1.72945 -7.50224 0
M  V30 20914 C 318.458 0.406376 -7.57911 0
M  V30 20915 O 318.248 -0.0897726 -6.21935 0
M  V30 20916 C 317.058 0.438983 -8.18724 0
M  V30 20917 O 316.668 -0.825065 -8.71101 0
M  V30 20918 C 316.178 0.783689 -6.99524 0
M  V30 20919 C 316.888 0.0619086 -5.85867 0
M  V30 20920 N 316.838 0.78573 -4.56183 0
M  V30 20921 C 316.688 0.0292889 -3.41887 0
M  V30 20922 O 316.598 -1.18445 -3.4419 0
M  V30 20923 N 316.648 0.744061 -2.23964 0
M  V30 20924 C 316.738 2.10932 -2.10362 0
M  V30 20925 O 316.688 2.64117 -0.98825 0
M  V30 20926 C 316.888 2.8202 -3.34994 0
M  V30 20927 C 316.998 4.31095 -3.25037 0
M  V30 20928 C 316.938 2.15547 -4.52261 0
M  V30 20929 H 319.679 1.93379 -8.46595 0
M  V30 20930 H 319.948 1.68132 -6.70852 0
M  V30 20931 H 319.081 -0.289041 -8.15388 0
M  V30 20932 H 316.426 -0.926847 -5.72749 0
M  V30 20933 H 316.147 1.86973 -6.82036 0
M  V30 20934 H 315.155 0.403896 -7.13257 0
M  V30 20935 H 316.989 1.20585 -8.97435 0
M  V30 20936 H 317.06 2.71231 -5.45042 0
M  V30 20937 H 316.03 4.76966 -3.49992 0
M  V30 20938 H 317.767 4.67047 -3.95024 0
M  V30 20939 H 317.279 4.58996 -2.22312 0
M  V30 20940 H 316.543 0.214893 -1.39758 0
M  V30 20941 P 315.118 -1.17771 -8.83182 0
M  V30 20942 O 314.898 -2.07206 -9.98732 0
M  V30 20943 O 314.328 0.0743816 -8.81969 0
M  V30 20944 O 314.868 -1.97652 -7.47304 0
M  V30 20945 C 315.808 -3.01133 -7.08783 0
M  V30 20946 C 315.078 -4.12613 -6.37049 0
M  V30 20947 O 314.868 -3.72827 -4.97879 0
M  V30 20948 C 313.678 -4.45085 -6.88694 0
M  V30 20949 O 313.288 -5.7877 -6.5624 0
M  V30 20950 C 312.798 -3.47817 -6.12078 0
M  V30 20951 C 313.508 -3.39414 -4.77697 0
M  V30 20952 N 313.458 -2.04199 -4.15538 0
M  V30 20953 H 316.297 -3.41248 -7.98759 0
M  V30 20954 H 316.569 -2.57728 -6.42 0
M  V30 20955 H 315.701 -5.02657 -6.42673 0
M  V30 20956 H 313.046 -4.11708 -4.08956 0
M  V30 20957 H 312.766 -2.49626 -6.61679 0
M  V30 20958 H 311.775 -3.8662 -6.00862 0
M  V30 20959 H 313.609 -4.29991 -7.97006 0
M  V30 20960 P 311.738 -6.144 -6.45285 0
M  V30 20961 O 311.518 -7.54673 -6.86199 0
M  V30 20962 O 310.948 -5.12391 -7.179 0
M  V30 20963 O 311.488 -5.99158 -4.88404 0
M  V30 20964 C 312.428 -6.60234 -3.96415 0
M  V30 20965 C 311.698 -7.08259 -2.72856 0
M  V30 20966 O 311.488 -5.9427 -1.83651 0
M  V30 20967 C 310.298 -7.64886 -2.9555 0
M  V30 20968 O 309.908 -8.53963 -1.90717 0
M  V30 20969 C 309.418 -6.4116 -2.90739 0
M  V30 20970 C 310.128 -5.55375 -1.86963 0
M  V30 20971 N 310.078 -4.09664 -2.15742 0
M  V30 20972 H 312.917 -7.45574 -4.45629 0
M  V30 20973 H 313.189 -5.86232 -3.67314 0
M  V30 20974 H 312.321 -7.84412 -2.24479 0
M  V30 20975 P 308.358 -8.7635 -1.60911 0
M  V30 20976 O 308.138 -10.1388 -1.11561 0
M  V30 20977 O 307.568 -8.36503 -2.79617 0
M  V30 20978 O 308.108 -7.71806 -0.42951 0
M  V30 20979 C 309.048 -7.67148 0.673689 0
M  V30 20980 C 308.318 -7.33374 1.95559 0
M  V30 20981 O 308.108 -5.88721 2.00726 0
M  V30 20982 C 306.918 -7.92526 2.10483 0
M  V30 20983 O 306.528 -8.02971 3.47653 0
M  V30 20984 C 306.038 -6.89602 1.41652 0
M  V30 20985 C 306.748 -5.59201 1.75185 0
M  V30 20986 N 306.698 -4.58235 0.662552 0
M  V30 20987 C 306.778 -4.7683 -0.704049 0
M  V30 20988 N 306.698 -3.66233 -1.39775 0
M  V30 20989 C 306.558 -2.66526 -0.431739 0
M  V30 20990 C 306.428 -1.26394 -0.575992 0
M  V30 20991 O 306.408 -0.589894 -1.60503 0
M  V30 20992 N 306.308 -0.62859 0.67177 0
M  V30 20993 C 306.308 -1.27134 1.89385 0
M  V30 20994 N 306.178 -0.492035 2.96951 0
M  V30 20995 N 306.438 -2.58978 2.02907 0
M  V30 20996 C 306.558 -3.22433 0.832218 0
M  V30 20997 H 309.537 -8.65116 0.777161 0
M  V30 20998 H 309.809 -6.90173 0.474152 0
M  V30 20999 H 308.941 -7.66548 2.79458 0
M  V30 21000 H 306.286 -5.16254 2.65229 0
M  V30 21001 H 306.006 -7.06532 0.329431 0
M  V30 21002 H 305.015 -6.91023 1.82047 0
M  V30 21003 H 306.849 -8.90971 1.62675 0
M  V30 21004 H 306.898 -5.74954 -1.16305 0
M  V30 21005 H 306.216 0.366713 0.674793 0
M  V30 21006 H 306.179 -0.908532 3.91188 0
M  V30 21007 H 306.078 0.528253 2.85758 0
M  V30 21008 P 304.978 -8.03563 3.84925 0
M  V30 21009 O 304.758 -8.85821 5.0569 0
M  V30 21010 O 304.188 -8.41101 2.65469 0
M  V30 21011 O 304.728 -6.4965 4.18908 0
M  V30 21012 C 305.668 -5.81037 5.05421 0
M  V30 21013 C 304.938 -4.78366 5.89277 0
M  V30 21014 O 304.728 -3.58302 5.08433 0
M  V30 21015 C 303.538 -5.17448 6.36119 0
M  V30 21016 O 303.148 -4.45271 7.53232 0
M  V30 21017 C 302.658 -4.74639 5.19936 0
M  V30 21018 C 303.368 -3.49432 4.70418 0
M  V30 21019 N 303.318 -3.32099 3.22613 0
M  V30 21020 C 303.398 -4.28245 2.25527 0
M  V30 21021 N 303.328 -3.80823 1.04874 0
M  V30 21022 C 303.178 -2.44571 1.23535 0
M  V30 21023 C 303.048 -1.37068 0.330675 0
M  V30 21024 N 303.038 -1.51472 -0.990824 0
M  V30 21025 N 302.928 -0.138614 0.848756 0
M  V30 21026 C 302.938 0.00675923 2.16999 0
M  V30 21027 N 303.058 -0.904372 3.11122 0
M  V30 21028 C 303.178 -2.12707 2.56212 0
M  V30 21029 H 306.157 -6.54213 5.71376 0
M  V30 21030 H 306.429 -5.30936 4.43503 0
M  V30 21031 H 305.561 -4.55889 6.76652 0
M  V30 21032 H 302.906 -2.61715 5.17932 0
M  V30 21033 H 302.626 -5.52155 4.41878 0
M  V30 21034 H 301.635 -4.51981 5.53374 0
M  V30 21035 H 303.469 -6.25124 6.55234 0
M  V30 21036 H 303.51 -5.34372 2.47488 0
M  V30 21037 H 303.129 -2.45153 -1.4078 0
M  V30 21038 H 302.94 -0.688422 -1.59911 0
M  V30 21039 H 302.832 1.02584 2.52346 0
M  V30 21040 P 301.598 -4.23843 7.83734 0
M  V30 21041 O 301.378 -4.19407 9.29784 0
M  V30 21042 O 300.808 -5.24426 7.09156 0
M  V30 21043 O 301.348 -2.7935 7.20758 0
M  V30 21044 C 302.288 -1.7299 7.50419 0
M  V30 21045 C 301.558 -0.406376 7.57911 0
M  V30 21046 O 301.348 0.0897726 6.21935 0
M  V30 21047 C 300.158 -0.447224 8.1878 0
M  V30 21048 O 299.768 0.825065 8.71101 0
M  V30 21049 C 299.278 -0.783801 6.99623 0
M  V30 21050 C 299.988 -0.0619192 5.85967 0
M  V30 21051 N 299.938 -0.7859 4.56281 0
M  V30 21052 H 302.777 -1.93423 8.4679 0
M  V30 21053 H 303.049 -1.68181 6.71046 0
M  V30 21054 H 302.181 0.289041 8.15388 0
M  V30 21055 P 298.218 1.17771 8.83182 0
M  V30 21056 O 297.998 2.07206 9.98732 0
M  V30 21057 O 297.428 -0.0743816 8.81969 0
M  V30 21058 O 297.968 1.97652 7.47304 0
M  V30 21059 C 298.908 3.01133 7.08783 0
M  V30 21060 C 298.178 4.12613 6.37049 0
M  V30 21061 O 297.968 3.72827 4.97879 0
M  V30 21062 C 296.778 4.45085 6.88694 0
M  V30 21063 O 296.388 5.7877 6.5624 0
M  V30 21064 C 295.898 3.47817 6.12078 0
M  V30 21065 C 296.608 3.39414 4.77697 0
M  V30 21066 N 296.558 2.04199 4.15538 0
M  V30 21067 H 299.397 3.41248 7.98759 0
M  V30 21068 H 299.669 2.57728 6.42 0
M  V30 21069 H 298.801 5.02657 6.42673 0
M  V30 21070 H 296.146 4.11708 4.08956 0
M  V30 21071 H 295.866 2.49626 6.61679 0
M  V30 21072 H 294.875 3.8662 6.00862 0
M  V30 21073 H 296.709 4.29991 7.97006 0
M  V30 21074 P 294.838 6.144 6.45285 0
M  V30 21075 O 294.618 7.54673 6.86199 0
M  V30 21076 O 294.048 5.12391 7.179 0
M  V30 21077 O 294.588 5.99158 4.88404 0
M  V30 21078 C 295.528 6.60234 3.96415 0
M  V30 21079 C 294.798 7.08259 2.72856 0
M  V30 21080 O 294.588 5.9427 1.83651 0
M  V30 21081 C 293.398 7.64886 2.9555 0
M  V30 21082 O 293.008 8.53963 1.90717 0
M  V30 21083 C 292.518 6.4116 2.90739 0
M  V30 21084 C 293.228 5.55375 1.86963 0
M  V30 21085 N 293.178 4.09448 2.16152 0
M  V30 21086 H 296.017 7.45574 4.45629 0
M  V30 21087 H 296.289 5.85864 3.679 0
M  V30 21088 H 295.421 7.84412 2.24479 0
M  V30 21089 H 292.766 5.73457 0.888562 0
M  V30 21090 H 292.486 5.90877 3.88583 0
M  V30 21091 H 291.495 6.6596 2.58858 0
M  V30 21092 H 293.329 8.16339 3.92049 0
M  V30 21093 P 291.458 8.7635 1.60911 0
M  V30 21094 O 291.238 10.1388 1.11561 0
M  V30 21095 O 290.668 8.36503 2.79617 0
M  V30 21096 O 291.208 7.71806 0.42951 0
M  V30 21097 C 292.148 7.67148 -0.673689 0
M  V30 21098 C 291.418 7.33374 -1.95559 0
M  V30 21099 O 291.208 5.88721 -2.00726 0
M  V30 21100 C 290.018 7.92526 -2.10483 0
M  V30 21101 O 289.628 8.02971 -3.47653 0
M  V30 21102 C 289.138 6.89602 -1.41652 0
M  V30 21103 C 289.848 5.59201 -1.75185 0
M  V30 21104 N 289.798 4.58235 -0.662552 0
M  V30 21105 H 292.637 8.65116 -0.777161 0
M  V30 21106 H 292.909 6.90173 -0.474152 0
M  V30 21107 H 292.041 7.66548 -2.79458 0
M  V30 21108 P 288.078 8.03563 -3.84925 0
M  V30 21109 O 287.858 8.85821 -5.0569 0
M  V30 21110 O 287.288 8.41101 -2.65469 0
M  V30 21111 O 287.828 6.49734 -4.18962 0
M  V30 21112 C 288.768 5.81037 -5.05421 0
M  V30 21113 C 288.038 4.79018 -5.88876 0
M  V30 21114 O 287.828 3.58359 -5.08515 0
M  V30 21115 C 286.638 5.17448 -6.36119 0
M  V30 21116 O 286.248 4.45322 -7.53318 0
M  V30 21117 C 285.758 4.74639 -5.19936 0
M  V30 21118 C 286.468 3.49432 -4.70418 0
M  V30 21119 N 286.418 3.31776 -3.22945 0
M  V30 21120 C 286.268 2.02742 -2.72939 0
M  V30 21121 O 286.178 1.08301 -3.52749 0
M  V30 21122 N 286.218 1.96117 -1.22063 0
M  V30 21123 C 286.318 2.8878 -0.551566 0
M  V30 21124 N 286.268 2.65609 0.750198 0
M  V30 21125 C 286.468 4.22457 -1.03707 0
M  V30 21126 C 286.518 4.37979 -2.39113 0
M  V30 21127 H 289.258 6.54138 -5.7131 0
M  V30 21128 H 289.528 5.30492 -4.44033 0
M  V30 21129 H 288.661 4.55945 -6.76735 0
M  V30 21130 H 286.006 2.6176 -5.18021 0
M  V30 21131 H 285.726 5.52233 -4.41941 0
M  V30 21132 H 284.735 4.52045 -5.53452 0
M  V30 21133 H 286.569 6.25124 -6.55234 0
M  V30 21134 H 286.641 5.37936 -2.80552 0
M  V30 21135 H 286.539 5.07528 -0.359553 0
M  V30 21136 H 286.151 1.69403 1.09847 0
M  V30 21137 H 286.347 3.43701 1.41792 0
M  V30 21138 P 284.698 4.23843 -7.83734 0
M  V30 21139 O 284.478 4.19407 -9.29784 0
M  V30 21140 O 283.908 5.24426 -7.09156 0
M  V30 21141 O 284.448 2.7935 -7.20758 0
M  V30 21142 C 285.388 1.72945 -7.50224 0
M  V30 21143 C 284.658 0.406376 -7.57911 0
M  V30 21144 O 284.448 -0.0897726 -6.21935 0
M  V30 21145 C 283.258 0.438983 -8.18724 0
M  V30 21146 O 282.868 -0.825065 -8.71101 0
M  V30 21147 C 282.378 0.783689 -6.99524 0
M  V30 21148 C 283.088 0.0619086 -5.85867 0
M  V30 21149 N 283.038 0.78573 -4.56183 0
M  V30 21150 C 282.888 0.0292889 -3.41887 0
M  V30 21151 O 282.798 -1.18445 -3.4419 0
M  V30 21152 N 282.848 0.744061 -2.23964 0
M  V30 21153 C 282.938 2.10932 -2.10362 0
M  V30 21154 C 283.088 2.8202 -3.34994 0
M  V30 21155 C 283.138 2.15547 -4.52261 0
M  V30 21156 H 285.879 1.93379 -8.46595 0
M  V30 21157 H 286.148 1.68132 -6.70852 0
M  V30 21158 H 285.281 -0.289041 -8.15388 0
M  V30 21159 H 282.626 -0.926847 -5.72749 0
M  V30 21160 H 282.347 1.86973 -6.82036 0
M  V30 21161 H 281.355 0.403896 -7.13257 0
M  V30 21162 H 283.189 1.20585 -8.97435 0
M  V30 21163 H 283.26 2.71231 -5.45042 0
M  V30 21164 P 281.318 -1.17771 -8.83182 0
M  V30 21165 O 281.098 -2.07206 -9.98732 0
M  V30 21166 O 280.528 0.0743816 -8.81969 0
M  V30 21167 O 281.068 -1.97652 -7.47304 0
M  V30 21168 C 282.008 -3.01055 -7.08599 0
M  V30 21169 C 281.278 -4.12613 -6.37049 0
M  V30 21170 O 281.068 -3.72827 -4.97879 0
M  V30 21171 C 279.878 -4.45719 -6.88164 0
M  V30 21172 O 279.488 -5.7877 -6.5624 0
M  V30 21173 C 278.998 -3.47768 -6.11991 0
M  V30 21174 C 279.708 -3.39356 -4.77615 0
M  V30 21175 N 279.658 -2.04571 -4.15244 0
M  V30 21176 C 279.508 -1.98587 -2.78314 0
M  V30 21177 O 279.418 -2.98134 -2.08835 0
M  V30 21178 N 279.468 -0.714467 -2.24925 0
M  V30 21179 C 279.558 0.470001 -2.94169 0
M  V30 21180 O 279.508 1.55587 -2.35195 0
M  V30 21181 C 279.708 0.312541 -4.36783 0
M  V30 21182 C 279.818 1.57711 -5.16352 0
M  V30 21183 C 279.758 -0.914512 -4.92583 0
M  V30 21184 H 282.499 -3.41169 -7.98575 0
M  V30 21185 H 282.768 -2.58295 -6.41556 0
M  V30 21186 H 281.901 -5.02657 -6.42673 0
M  V30 21187 H 279.246 -4.11637 -4.08885 0
M  V30 21188 H 278.967 -2.49626 -6.61679 0
M  V30 21189 H 277.975 -3.86566 -6.00778 0
M  V30 21190 H 279.809 -4.29943 -7.96918 0
M  V30 21191 H 279.88 -1.00937 -6.00374 0
M  V30 21192 H 278.85 1.80153 -5.63503 0
M  V30 21193 H 280.587 1.4566 -5.94104 0
M  V30 21194 H 280.099 2.40664 -4.49645 0
M  V30 21195 H 279.363 -0.647622 -1.25697 0
M  V30 21196 P 277.938 -6.144 -6.45285 0
M  V30 21197 O 277.718 -7.54673 -6.86199 0
M  V30 21198 O 277.148 -5.12391 -7.179 0
M  V30 21199 O 277.688 -5.99158 -4.88404 0
M  V30 21200 C 278.628 -6.60234 -3.96415 0
M  V30 21201 C 277.898 -7.08259 -2.72856 0
M  V30 21202 O 277.688 -5.9427 -1.83651 0
M  V30 21203 C 276.498 -7.64886 -2.9555 0
M  V30 21204 O 276.108 -8.53963 -1.90717 0
M  V30 21205 C 275.618 -6.4116 -2.90739 0
M  V30 21206 C 276.328 -5.55375 -1.86963 0
M  V30 21207 N 276.278 -4.09448 -2.16152 0
M  V30 21208 C 276.358 -3.46824 -3.37593 0
M  V30 21209 N 276.288 -2.17422 -3.29777 0
M  V30 21210 C 276.138 -1.93065 -1.94427 0
M  V30 21211 C 276.008 -0.738053 -1.20141 0
M  V30 21212 N 275.998 0.474256 -1.74676 0
M  V30 21213 N 275.888 -0.850049 0.13045 0
M  V30 21214 C 275.898 -2.06169 0.676992 0
M  V30 21215 N 276.018 -3.23842 0.101312 0
M  V30 21216 C 276.138 -3.09402 -1.23122 0
M  V30 21217 H 279.117 -7.45574 -4.45629 0
M  V30 21218 H 279.389 -5.85864 -3.679 0
M  V30 21219 H 278.521 -7.84412 -2.24479 0
M  V30 21220 H 275.866 -5.73457 -0.888562 0
M  V30 21221 H 275.586 -5.90877 -3.88583 0
M  V30 21222 H 274.595 -6.6596 -2.58858 0
M  V30 21223 H 276.429 -8.16339 -3.92049 0
M  V30 21224 H 276.47 -4.00505 -4.3174 0
M  V30 21225 H 276.089 0.581337 -2.76658 0
M  V30 21226 H 275.9 1.30811 -1.14888 0
M  V30 21227 H 275.792 -2.08295 1.75542 0
M  V30 21228 P 274.558 -8.7635 -1.60911 0
M  V30 21229 O 274.338 -10.1388 -1.11561 0
M  V30 21230 O 273.768 -8.36503 -2.79617 0
M  V30 21231 O 274.308 -7.71806 -0.42951 0
M  V30 21232 C 275.248 -7.67148 0.673689 0
M  V30 21233 C 274.518 -7.33374 1.95559 0
M  V30 21234 O 274.308 -5.88721 2.00726 0
M  V30 21235 C 273.118 -7.92526 2.10483 0
M  V30 21236 O 272.728 -8.02971 3.47653 0
M  V30 21237 C 272.238 -6.89602 1.41652 0
M  V30 21238 C 272.948 -5.59201 1.75185 0
M  V30 21239 N 272.898 -4.58235 0.662552 0
M  V30 21240 H 275.737 -8.65116 0.777161 0
M  V30 21241 H 276.009 -6.90173 0.474152 0
M  V30 21242 H 275.141 -7.66548 2.79458 0
M  V30 21243 P 271.178 -8.03563 3.84925 0
M  V30 21244 O 270.958 -8.85821 5.0569 0
M  V30 21245 O 270.388 -8.41101 2.65469 0
M  V30 21246 O 270.928 -6.4965 4.18908 0
M  V30 21247 C 271.868 -5.80886 5.05289 0
M  V30 21248 C 271.138 -4.78366 5.89277 0
M  V30 21249 O 270.928 -3.58302 5.08433 0
M  V30 21250 C 269.738 -5.16748 6.36559 0
M  V30 21251 O 269.348 -4.45271 7.53232 0
M  V30 21252 C 268.858 -4.74572 5.19863 0
M  V30 21253 C 269.568 -3.49373 4.70338 0
M  V30 21254 N 269.518 -3.31704 3.22876 0
M  V30 21255 C 269.368 -2.03326 2.74871 0
M  V30 21256 O 269.278 -1.06486 3.48076 0
M  V30 21257 N 269.328 -1.91838 1.37456 0
M  V30 21258 C 269.418 -2.94295 0.462035 0
M  V30 21259 O 269.368 -2.71763 -0.752928 0
M  V30 21260 C 269.568 -4.25064 1.05249 0
M  V30 21261 C 269.678 -5.39815 0.095697 0
M  V30 21262 C 269.618 -4.40214 2.39192 0
M  V30 21263 H 272.359 -6.54063 5.71245 0
M  V30 21264 H 272.628 -5.30339 4.43905 0
M  V30 21265 H 271.761 -4.55889 6.76652 0
M  V30 21266 H 269.106 -2.6167 5.17842 0
M  V30 21267 H 268.827 -5.52155 4.41878 0
M  V30 21268 H 267.835 -4.51918 5.53297 0
M  V30 21269 H 269.669 -6.25055 6.55162 0
M  V30 21270 H 269.74 -5.39798 2.81523 0
M  V30 21271 H 268.71 -5.91593 0.0279582 0
M  V30 21272 H 270.447 -6.10038 0.450573 0
M  V30 21273 H 269.959 -5.02007 -0.89937 0
M  V30 21274 H 269.223 -0.995326 1.00435 0
M  V30 21275 P 267.798 -4.23843 7.83734 0
M  V30 21276 O 267.578 -4.19407 9.29784 0
M  V30 21277 O 267.008 -5.24426 7.09156 0
M  V30 21278 O 267.548 -2.7935 7.20758 0
M  V30 21279 C 268.488 -1.7299 7.50419 0
M  V30 21280 C 267.758 -0.406376 7.57911 0
M  V30 21281 O 267.548 0.0897726 6.21935 0
M  V30 21282 C 266.358 -0.447224 8.1878 0
M  V30 21283 O 265.968 0.825065 8.71101 0
M  V30 21284 C 265.478 -0.783801 6.99623 0
M  V30 21285 C 266.188 -0.0619192 5.85967 0
M  V30 21286 N 266.138 -0.790462 4.56202 0
M  V30 21287 H 268.977 -1.93423 8.4679 0
M  V30 21288 H 269.249 -1.68852 6.70877 0
M  V30 21289 H 268.381 0.289041 8.15388 0
M  V30 21290 H 265.726 0.927006 5.72848 0
M  V30 21291 H 265.446 -1.86973 6.82036 0
M  V30 21292 H 264.455 -0.403953 7.13357 0
M  V30 21293 H 266.289 -1.20599 8.97534 0
M  V30 21294 P 264.418 1.17771 8.83182 0
M  V30 21295 O 264.198 2.07206 9.98732 0
M  V30 21296 O 263.628 -0.0743816 8.81969 0
M  V30 21297 O 264.168 1.97652 7.47304 0
M  V30 21298 C 265.108 3.01133 7.08783 0
M  V30 21299 C 264.378 4.12613 6.37049 0
M  V30 21300 O 264.168 3.72827 4.97879 0
M  V30 21301 C 262.978 4.45085 6.88694 0
M  V30 21302 O 262.588 5.7877 6.5624 0
M  V30 21303 C 262.098 3.47817 6.12078 0
M  V30 21304 C 262.808 3.39414 4.77697 0
M  V30 21305 N 262.758 2.04615 4.15333 0
M  V30 21306 C 262.838 0.803897 4.75249 0
M  V30 21307 N 262.758 -0.197615 3.91502 0
M  V30 21308 C 262.618 0.413002 2.66823 0
M  V30 21309 C 262.488 -0.157221 1.38007 0
M  V30 21310 N 262.368 0.833136 0.390236 0
M  V30 21311 C 262.368 2.19402 0.623885 0
M  V30 21312 N 262.238 2.97622 -0.449677 0
M  V30 21313 N 262.498 2.73005 1.83601 0
M  V30 21314 C 262.618 1.78786 2.80935 0
M  V30 21315 H 265.597 3.41248 7.98759 0
M  V30 21316 H 265.869 2.5837 6.41742 0
M  V30 21317 H 265.001 5.02657 6.42673 0
M  V30 21318 P 261.038 6.144 6.45285 0
M  V30 21319 O 260.818 7.54673 6.86199 0
M  V30 21320 O 260.248 5.12391 7.179 0
M  V30 21321 O 260.788 5.99158 4.88404 0
M  V30 21322 C 261.728 6.60062 3.96313 0
M  V30 21323 C 260.998 7.08259 2.72856 0
M  V30 21324 O 260.788 5.9427 1.83651 0
M  V30 21325 C 259.598 7.65087 2.94749 0
M  V30 21326 O 259.208 8.53963 1.90717 0
M  V30 21327 C 258.718 6.41069 2.90698 0
M  V30 21328 C 259.428 5.5528 1.86931 0
M  V30 21329 N 259.378 4.09575 2.15696 0
M  V30 21330 C 259.228 3.24249 1.08435 0
M  V30 21331 O 259.138 3.63946 -0.0628747 0
M  V30 21332 N 259.188 1.90009 1.39973 0
M  V30 21333 C 259.278 1.34884 2.65614 0
M  V30 21334 C 259.428 2.3145 3.71736 0
M  V30 21335 C 259.478 3.63518 3.44754 0
M  V30 21336 H 262.219 7.45402 4.45526 0
M  V30 21337 H 262.488 5.86062 3.67208 0
M  V30 21338 H 261.621 7.84412 2.24479 0
M  V30 21339 H 258.966 5.73358 0.888409 0
M  V30 21340 H 258.687 5.90877 3.88583 0
M  V30 21341 H 257.695 6.65867 2.58821 0
M  V30 21342 H 259.529 8.16248 3.92006 0
M  V30 21343 H 259.6 4.34551 4.26383 0
M  V30 21344 P 257.658 8.7635 1.60911 0
M  V30 21345 O 257.438 10.1388 1.11561 0
M  V30 21346 O 256.868 8.36503 2.79617 0
M  V30 21347 O 257.408 7.71906 0.429565 0
M  V30 21348 C 258.348 7.67148 -0.673689 0
M  V30 21349 C 257.618 7.33666 -1.94851 0
M  V30 21350 O 257.408 5.88816 -2.00759 0
M  V30 21351 C 256.218 7.92526 -2.10483 0
M  V30 21352 O 255.828 8.03063 -3.47693 0
M  V30 21353 C 255.338 6.89602 -1.41652 0
M  V30 21354 C 256.048 5.59201 -1.75185 0
M  V30 21355 N 255.998 4.58235 -0.662552 0
M  V30 21356 C 255.848 3.24451 -1.01643 0
M  V30 21357 O 255.758 2.94958 -2.21722 0
M  V30 21358 N 255.798 2.30408 0.165238 0
M  V30 21359 C 255.898 2.66048 1.25118 0
M  V30 21360 N 255.848 1.70787 2.16813 0
M  V30 21361 C 256.048 4.02732 1.64413 0
M  V30 21362 C 256.098 4.9488 0.63991 0
M  V30 21363 H 258.838 8.65017 -0.777072 0
M  V30 21364 H 259.108 6.90173 -0.474152 0
M  V30 21365 H 258.241 7.66642 -2.79492 0
M  V30 21366 H 255.586 5.16254 -2.65229 0
M  V30 21367 H 255.306 7.06532 -0.329431 0
M  V30 21368 H 254.315 6.91023 -1.82047 0
M  V30 21369 H 256.149 8.90873 -1.62657 0
M  V30 21370 H 256.221 6.00104 0.892197 0
M  V30 21371 H 256.119 4.31733 2.69229 0
M  V30 21372 H 255.731 0.724835 1.8844 0
M  V30 21373 H 255.927 1.94716 3.16734 0
M  V30 21374 P 254.279 8.03563 -3.84925 0
M  V30 21375 O 254.059 8.85821 -5.0569 0
M  V30 21376 O 253.489 8.41101 -2.65469 0
M  V30 21377 O 254.029 6.4965 -4.18908 0
M  V30 21378 C 254.969 5.81037 -5.05421 0
M  V30 21379 C 254.239 4.78366 -5.89277 0
M  V30 21380 O 254.029 3.58302 -5.08433 0
M  V30 21381 C 252.839 5.17448 -6.36119 0
M  V30 21382 O 252.449 4.45271 -7.53232 0
M  V30 21383 C 251.959 4.74639 -5.19936 0
M  V30 21384 C 252.669 3.49432 -4.70418 0
M  V30 21385 N 252.619 3.31776 -3.22945 0
M  V30 21386 H 255.458 6.54213 -5.71376 0
M  V30 21387 H 255.73 5.30492 -4.44033 0
M  V30 21388 H 254.862 4.55889 -6.76652 0
M  V30 21389 P 250.899 4.23843 -7.83734 0
M  V30 21390 O 250.679 4.19407 -9.29784 0
M  V30 21391 O 250.109 5.24426 -7.09156 0
M  V30 21392 O 250.649 2.7935 -7.20758 0
M  V30 21393 C 251.589 1.7299 -7.50419 0
M  V30 21394 C 250.859 0.406376 -7.57911 0
M  V30 21395 O 250.649 -0.0897726 -6.21935 0
M  V30 21396 C 249.459 0.447224 -8.1878 0
M  V30 21397 O 249.069 -0.825065 -8.71101 0
M  V30 21398 C 248.579 0.783801 -6.99623 0
M  V30 21399 C 249.289 0.0619192 -5.85967 0
M  V30 21400 N 249.239 0.790462 -4.56202 0
M  V30 21401 H 252.078 1.93423 -8.4679 0
M  V30 21402 H 252.35 1.68852 -6.70877 0
M  V30 21403 H 251.482 -0.289041 -8.15388 0
M  V30 21404 H 248.827 -0.927006 -5.72848 0
M  V30 21405 H 248.547 1.86973 -6.82036 0
M  V30 21406 H 247.556 0.403953 -7.13357 0
M  V30 21407 H 249.39 1.20599 -8.97534 0
M  V30 21408 P 247.519 -1.17771 -8.83182 0
M  V30 21409 O 247.299 -2.07206 -9.98732 0
M  V30 21410 O 246.729 0.0743816 -8.81969 0
M  V30 21411 O 247.269 -1.97652 -7.47304 0
M  V30 21412 C 248.209 -3.01133 -7.08783 0
M  V30 21413 C 247.479 -4.12613 -6.37049 0
M  V30 21414 O 247.269 -3.72827 -4.97879 0
M  V30 21415 C 246.079 -4.45085 -6.88694 0
M  V30 21416 O 245.689 -5.7877 -6.5624 0
M  V30 21417 C 245.199 -3.47817 -6.12078 0
M  V30 21418 C 245.909 -3.39414 -4.77697 0
M  V30 21419 N 245.859 -2.04615 -4.15333 0
M  V30 21420 H 248.698 -3.41248 -7.98759 0
M  V30 21421 H 248.97 -2.5837 -6.41742 0
M  V30 21422 H 248.102 -5.02657 -6.42673 0
M  V30 21423 P 244.139 -6.144 -6.45285 0
M  V30 21424 O 243.919 -7.54673 -6.86199 0
M  V30 21425 O 243.349 -5.12391 -7.179 0
M  V30 21426 O 243.889 -5.99236 -4.88467 0
M  V30 21427 C 244.829 -6.60234 -3.96415 0
M  V30 21428 C 244.099 -7.08079 -2.736 0
M  V30 21429 O 243.889 -5.94365 -1.8368 0
M  V30 21430 C 242.699 -7.64886 -2.9555 0
M  V30 21431 O 242.309 -8.5406 -1.90739 0
M  V30 21432 C 241.819 -6.4116 -2.90739 0
M  V30 21433 C 242.529 -5.55375 -1.86963 0
M  V30 21434 N 242.479 -4.09664 -2.15742 0
M  V30 21435 C 242.329 -3.22231 -1.08477 0
M  V30 21436 O 242.239 -3.68951 0.0600489 0
M  V30 21437 N 242.279 -1.76692 -1.48799 0
M  V30 21438 C 242.379 -1.41695 -2.57602 0
M  V30 21439 N 242.329 -0.107296 -2.75791 0
M  V30 21440 C 242.529 -2.29178 -3.69733 0
M  V30 21441 C 242.579 -3.62753 -3.42653 0
M  V30 21442 H 245.319 -7.45488 -4.45578 0
M  V30 21443 H 245.589 -5.86232 -3.67314 0
M  V30 21444 H 244.722 -7.84508 -2.24507 0
M  V30 21445 H 242.067 -5.73556 -0.888715 0
M  V30 21446 H 241.787 -5.9096 -3.88638 0
M  V30 21447 H 240.796 -6.66053 -2.58894 0
M  V30 21448 H 242.63 -8.16339 -3.92049 0
M  V30 21449 H 242.702 -4.33052 -4.24913 0
M  V30 21450 H 242.6 -1.9103 -4.71577 0
M  V30 21451 H 242.212 0.521221 -1.95056 0
M  V30 21452 H 242.408 0.286429 -3.70695 0
M  V30 21453 P 240.759 -8.7635 -1.60911 0
M  V30 21454 O 240.539 -10.1388 -1.11561 0
M  V30 21455 O 239.969 -8.36503 -2.79617 0
M  V30 21456 O 240.509 -7.71806 -0.42951 0
M  V30 21457 C 241.449 -7.67148 0.673689 0
M  V30 21458 C 240.719 -7.33374 1.95559 0
M  V30 21459 O 240.509 -5.88721 2.00726 0
M  V30 21460 C 239.319 -7.92526 2.10483 0
M  V30 21461 O 238.929 -8.02971 3.47653 0
M  V30 21462 C 238.439 -6.89602 1.41652 0
M  V30 21463 C 239.149 -5.59201 1.75185 0
M  V30 21464 N 239.099 -4.58235 0.662552 0
M  V30 21465 H 241.938 -8.65116 0.777161 0
M  V30 21466 H 242.21 -6.90173 0.474152 0
M  V30 21467 H 241.342 -7.66548 2.79458 0
M  V30 21468 P 237.379 -8.03563 3.84925 0
M  V30 21469 O 237.159 -8.85821 5.0569 0
M  V30 21470 O 236.589 -8.41101 2.65469 0
M  V30 21471 O 237.129 -6.4965 4.18908 0
M  V30 21472 C 238.069 -5.81037 5.05421 0
M  V30 21473 C 237.339 -4.78366 5.89277 0
M  V30 21474 O 237.129 -3.58302 5.08433 0
M  V30 21475 C 235.939 -5.17448 6.36119 0
M  V30 21476 O 235.549 -4.45271 7.53232 0
M  V30 21477 C 235.059 -4.74639 5.19936 0
M  V30 21478 C 235.769 -3.49432 4.70418 0
M  V30 21479 N 235.719 -3.31776 3.22945 0
M  V30 21480 H 238.558 -6.54213 5.71376 0
M  V30 21481 H 238.83 -5.30492 4.44033 0
M  V30 21482 H 237.962 -4.55889 6.76652 0
M  V30 21483 P 233.999 -4.23843 7.83734 0
M  V30 21484 O 233.779 -4.19407 9.29784 0
M  V30 21485 O 233.209 -5.24426 7.09156 0
M  V30 21486 O 233.749 -2.7935 7.20758 0
M  V30 21487 C 234.689 -1.7299 7.50419 0
M  V30 21488 C 233.959 -0.406376 7.57911 0
M  V30 21489 O 233.749 0.0897726 6.21935 0
M  V30 21490 C 232.559 -0.447224 8.1878 0
M  V30 21491 O 232.169 0.825065 8.71101 0
M  V30 21492 C 231.679 -0.783801 6.99623 0
M  V30 21493 C 232.389 -0.0619192 5.85967 0
M  V30 21494 N 232.339 -0.7859 4.56281 0
M  V30 21495 H 235.178 -1.93423 8.4679 0
M  V30 21496 H 235.45 -1.68181 6.71046 0
M  V30 21497 H 234.582 0.289041 8.15388 0
M  V30 21498 P 230.619 1.17771 8.83182 0
M  V30 21499 O 230.399 2.07206 9.98732 0
M  V30 21500 O 229.829 -0.0743816 8.81969 0
M  V30 21501 O 230.369 1.97652 7.47304 0
M  V30 21502 C 231.309 3.01133 7.08783 0
M  V30 21503 C 230.579 4.12613 6.37049 0
M  V30 21504 O 230.369 3.72827 4.97879 0
M  V30 21505 C 229.179 4.45085 6.88694 0
M  V30 21506 O 228.789 5.7877 6.5624 0
M  V30 21507 C 228.299 3.47817 6.12078 0
M  V30 21508 C 229.009 3.39414 4.77697 0
M  V30 21509 N 228.959 2.04615 4.15333 0
M  V30 21510 H 231.798 3.41248 7.98759 0
M  V30 21511 H 232.07 2.5837 6.41742 0
M  V30 21512 H 231.202 5.02657 6.42673 0
M  V30 21513 P 227.239 6.144 6.45285 0
M  V30 21514 O 227.019 7.54673 6.86199 0
M  V30 21515 O 226.449 5.12391 7.179 0
M  V30 21516 O 226.989 5.99158 4.88404 0
M  V30 21517 C 227.929 6.60234 3.96415 0
M  V30 21518 C 227.199 7.08259 2.72856 0
M  V30 21519 O 226.989 5.9427 1.83651 0
M  V30 21520 C 225.799 7.64886 2.9555 0
M  V30 21521 O 225.409 8.53963 1.90717 0
M  V30 21522 C 224.919 6.4116 2.90739 0
M  V30 21523 C 225.629 5.55375 1.86963 0
M  V30 21524 N 225.579 4.09664 2.15742 0
M  V30 21525 H 228.418 7.45574 4.45629 0
M  V30 21526 H 228.69 5.86232 3.67314 0
M  V30 21527 H 227.822 7.84412 2.24479 0
M  V30 21528 P 223.859 8.7635 1.60911 0
M  V30 21529 O 223.639 10.1388 1.11561 0
M  V30 21530 O 223.069 8.36503 2.79617 0
M  V30 21531 O 223.609 7.71806 0.42951 0
M  V30 21532 C 224.549 7.67148 -0.673689 0
M  V30 21533 C 223.819 7.33374 -1.95559 0
M  V30 21534 O 223.609 5.88721 -2.00726 0
M  V30 21535 C 222.419 7.92526 -2.10483 0
M  V30 21536 O 222.029 8.02971 -3.47653 0
M  V30 21537 C 221.539 6.89602 -1.41652 0
M  V30 21538 C 222.249 5.59201 -1.75185 0
M  V30 21539 N 222.199 4.58235 -0.662552 0
M  V30 21540 C 222.279 4.7683 0.704049 0
M  V30 21541 N 222.199 3.66233 1.39775 0
M  V30 21542 C 222.059 2.66526 0.431739 0
M  V30 21543 C 221.929 1.26394 0.575992 0
M  V30 21544 N 221.809 0.62859 -0.67177 0
M  V30 21545 C 221.809 1.27134 -1.89385 0
M  V30 21546 N 221.679 0.492035 -2.96951 0
M  V30 21547 N 221.939 2.58978 -2.02907 0
M  V30 21548 C 222.059 3.22433 -0.832218 0
M  V30 21549 H 225.038 8.65116 -0.777161 0
M  V30 21550 H 225.31 6.90173 -0.474152 0
M  V30 21551 H 224.442 7.66548 -2.79458 0
M  V30 21552 P 220.479 8.03563 -3.84925 0
M  V30 21553 O 220.259 8.85821 -5.0569 0
M  V30 21554 O 219.689 8.41101 -2.65469 0
M  V30 21555 O 220.229 6.4965 -4.18908 0
M  V30 21556 C 221.169 5.81037 -5.05421 0
M  V30 21557 C 220.439 4.78366 -5.89277 0
M  V30 21558 O 220.229 3.58302 -5.08433 0
M  V30 21559 C 219.039 5.17448 -6.36119 0
M  V30 21560 O 218.649 4.45271 -7.53232 0
M  V30 21561 C 218.159 4.74639 -5.19936 0
M  V30 21562 C 218.869 3.49432 -4.70418 0
M  V30 21563 N 218.819 3.32099 -3.22613 0
M  V30 21564 C 218.899 4.28245 -2.25527 0
M  V30 21565 N 218.829 3.80823 -1.04874 0
M  V30 21566 C 218.679 2.44571 -1.23535 0
M  V30 21567 C 218.549 1.37068 -0.330675 0
M  V30 21568 N 218.539 1.51472 0.990824 0
M  V30 21569 N 218.429 0.138614 -0.848756 0
M  V30 21570 C 218.439 -0.00675923 -2.16999 0
M  V30 21571 N 218.559 0.904372 -3.11122 0
M  V30 21572 C 218.679 2.12707 -2.56212 0
M  V30 21573 H 221.658 6.54213 -5.71376 0
M  V30 21574 H 221.93 5.30936 -4.43503 0
M  V30 21575 H 221.062 4.55889 -6.76652 0
M  V30 21576 H 218.407 2.61715 -5.17932 0
M  V30 21577 H 218.127 5.52155 -4.41878 0
M  V30 21578 H 217.136 4.51981 -5.53374 0
M  V30 21579 H 218.97 6.25124 -6.55234 0
M  V30 21580 H 219.011 5.34372 -2.47488 0
M  V30 21581 H 218.63 2.45153 1.4078 0
M  V30 21582 H 218.441 0.688422 1.59911 0
M  V30 21583 H 218.333 -1.02584 -2.52346 0
M  V30 21584 P 217.099 4.23843 -7.83734 0
M  V30 21585 O 216.879 4.19407 -9.29784 0
M  V30 21586 O 216.309 5.24426 -7.09156 0
M  V30 21587 O 216.849 2.7935 -7.20758 0
M  V30 21588 C 217.789 1.7299 -7.50419 0
M  V30 21589 C 217.059 0.406376 -7.57911 0
M  V30 21590 O 216.849 -0.0897726 -6.21935 0
M  V30 21591 C 215.659 0.447224 -8.1878 0
M  V30 21592 O 215.269 -0.825065 -8.71101 0
M  V30 21593 C 214.779 0.783801 -6.99623 0
M  V30 21594 C 215.489 0.0619192 -5.85967 0
M  V30 21595 N 215.439 0.7859 -4.56281 0
M  V30 21596 H 218.278 1.93423 -8.4679 0
M  V30 21597 H 218.55 1.68181 -6.71046 0
M  V30 21598 H 217.682 -0.289041 -8.15388 0
M  V30 21599 P 213.719 -1.17771 -8.83182 0
M  V30 21600 O 213.499 -2.07206 -9.98732 0
M  V30 21601 O 212.929 0.0743816 -8.81969 0
M  V30 21602 O 213.469 -1.97652 -7.47304 0
M  V30 21603 C 214.409 -3.01133 -7.08783 0
M  V30 21604 C 213.679 -4.12613 -6.37049 0
M  V30 21605 O 213.469 -3.72827 -4.97879 0
M  V30 21606 C 212.279 -4.45085 -6.88694 0
M  V30 21607 O 211.889 -5.7877 -6.5624 0
M  V30 21608 C 211.399 -3.47817 -6.12078 0
M  V30 21609 C 212.109 -3.39414 -4.77697 0
M  V30 21610 N 212.059 -2.04615 -4.15333 0
M  V30 21611 H 214.898 -3.41248 -7.98759 0
M  V30 21612 H 215.17 -2.5837 -6.41742 0
M  V30 21613 H 214.302 -5.02657 -6.42673 0
M  V30 21614 P 210.339 -6.144 -6.45285 0
M  V30 21615 O 210.119 -7.54673 -6.86199 0
M  V30 21616 O 209.549 -5.12391 -7.179 0
M  V30 21617 O 210.089 -5.99158 -4.88404 0
M  V30 21618 C 211.029 -6.60234 -3.96415 0
M  V30 21619 C 210.299 -7.08259 -2.72856 0
M  V30 21620 O 210.089 -5.9427 -1.83651 0
M  V30 21621 C 208.899 -7.64886 -2.9555 0
M  V30 21622 O 208.509 -8.53963 -1.90717 0
M  V30 21623 C 208.019 -6.4116 -2.90739 0
M  V30 21624 C 208.729 -5.55375 -1.86963 0
M  V30 21625 N 208.679 -4.09448 -2.16152 0
M  V30 21626 H 211.518 -7.45574 -4.45629 0
M  V30 21627 H 211.79 -5.85864 -3.679 0
M  V30 21628 H 210.922 -7.84412 -2.24479 0
M  V30 21629 H 208.267 -5.73457 -0.888562 0
M  V30 21630 H 207.987 -5.90877 -3.88583 0
M  V30 21631 H 206.996 -6.6596 -2.58858 0
M  V30 21632 H 208.83 -8.16339 -3.92049 0
M  V30 21633 P 206.959 -8.7635 -1.60911 0
M  V30 21634 O 206.739 -10.1388 -1.11561 0
M  V30 21635 O 206.169 -8.36503 -2.79617 0
M  V30 21636 O 206.709 -7.71906 -0.429565 0
M  V30 21637 C 207.649 -7.67148 0.673689 0
M  V30 21638 C 206.919 -7.33666 1.94851 0
M  V30 21639 O 206.709 -5.88816 2.00759 0
M  V30 21640 C 205.519 -7.92526 2.10483 0
M  V30 21641 O 205.129 -8.03063 3.47693 0
M  V30 21642 C 204.639 -6.89602 1.41652 0
M  V30 21643 C 205.349 -5.59201 1.75185 0
M  V30 21644 N 205.299 -4.58235 0.662552 0
M  V30 21645 C 205.149 -3.24451 1.01643 0
M  V30 21646 O 205.059 -2.94958 2.21722 0
M  V30 21647 N 205.099 -2.30408 -0.165238 0
M  V30 21648 C 205.199 -2.66048 -1.25118 0
M  V30 21649 N 205.149 -1.70787 -2.16813 0
M  V30 21650 C 205.349 -4.02732 -1.64413 0
M  V30 21651 C 205.399 -4.9488 -0.63991 0
M  V30 21652 H 208.139 -8.65017 0.777072 0
M  V30 21653 H 208.409 -6.90173 0.474152 0
M  V30 21654 H 207.542 -7.66642 2.79492 0
M  V30 21655 H 204.887 -5.16254 2.65229 0
M  V30 21656 H 204.607 -7.06532 0.329431 0
M  V30 21657 H 203.616 -6.91023 1.82047 0
M  V30 21658 H 205.45 -8.90873 1.62657 0
M  V30 21659 H 205.522 -6.00104 -0.892197 0
M  V30 21660 H 205.42 -4.31733 -2.69229 0
M  V30 21661 H 205.032 -0.724835 -1.8844 0
M  V30 21662 H 205.228 -1.94716 -3.16734 0
M  V30 21663 P 203.579 -8.03563 3.84925 0
M  V30 21664 O 203.359 -8.85821 5.0569 0
M  V30 21665 O 202.789 -8.41101 2.65469 0
M  V30 21666 O 203.329 -6.49734 4.18962 0
M  V30 21667 C 204.269 -5.81037 5.05421 0
M  V30 21668 C 203.539 -4.79018 5.88876 0
M  V30 21669 O 203.329 -3.58359 5.08515 0
M  V30 21670 C 202.139 -5.17448 6.36119 0
M  V30 21671 O 201.749 -4.45322 7.53318 0
M  V30 21672 C 201.259 -4.74639 5.19936 0
M  V30 21673 C 201.969 -3.49432 4.70418 0
M  V30 21674 N 201.919 -3.31776 3.22945 0
M  V30 21675 C 201.769 -2.02742 2.72939 0
M  V30 21676 O 201.679 -1.08301 3.52749 0
M  V30 21677 N 201.719 -1.96117 1.22063 0
M  V30 21678 C 201.819 -2.8878 0.551566 0
M  V30 21679 N 201.769 -2.65609 -0.750198 0
M  V30 21680 C 201.969 -4.22457 1.03707 0
M  V30 21681 C 202.019 -4.37979 2.39113 0
M  V30 21682 H 204.759 -6.54138 5.7131 0
M  V30 21683 H 205.029 -5.30492 4.44033 0
M  V30 21684 H 204.162 -4.55945 6.76735 0
M  V30 21685 H 201.507 -2.6176 5.18021 0
M  V30 21686 H 201.227 -5.52233 4.41941 0
M  V30 21687 H 200.236 -4.52045 5.53452 0
M  V30 21688 H 202.07 -6.25124 6.55234 0
M  V30 21689 H 202.142 -5.37936 2.80552 0
M  V30 21690 H 202.04 -5.07528 0.359553 0
M  V30 21691 H 201.652 -1.69403 -1.09847 0
M  V30 21692 H 201.848 -3.43701 -1.41792 0
M  V30 21693 P 200.199 -4.23843 7.83734 0
M  V30 21694 O 199.979 -4.19407 9.29784 0
M  V30 21695 O 199.409 -5.24426 7.09156 0
M  V30 21696 O 199.949 -2.7935 7.20758 0
M  V30 21697 C 200.889 -1.7299 7.50419 0
M  V30 21698 C 200.159 -0.406376 7.57911 0
M  V30 21699 O 199.949 0.0897726 6.21935 0
M  V30 21700 C 198.759 -0.447224 8.1878 0
M  V30 21701 O 198.369 0.825065 8.71101 0
M  V30 21702 C 197.879 -0.783801 6.99623 0
M  V30 21703 C 198.589 -0.0619192 5.85967 0
M  V30 21704 N 198.539 -0.790462 4.56202 0
M  V30 21705 H 201.378 -1.93423 8.4679 0
M  V30 21706 H 201.65 -1.68852 6.70877 0
M  V30 21707 H 200.782 0.289041 8.15388 0
M  V30 21708 H 198.127 0.927006 5.72848 0
M  V30 21709 H 197.847 -1.86973 6.82036 0
M  V30 21710 H 196.856 -0.403953 7.13357 0
M  V30 21711 H 198.69 -1.20599 8.97534 0
M  V30 21712 P 196.819 1.17771 8.83182 0
M  V30 21713 O 196.599 2.07206 9.98732 0
M  V30 21714 O 196.029 -0.0743816 8.81969 0
M  V30 21715 O 196.569 1.97652 7.47304 0
M  V30 21716 C 197.509 3.01133 7.08783 0
M  V30 21717 C 196.779 4.12613 6.37049 0
M  V30 21718 O 196.569 3.72827 4.97879 0
M  V30 21719 C 195.379 4.45085 6.88694 0
M  V30 21720 O 194.989 5.7877 6.5624 0
M  V30 21721 C 194.499 3.47817 6.12078 0
M  V30 21722 C 195.209 3.39414 4.77697 0
M  V30 21723 N 195.159 2.04615 4.15333 0
M  V30 21724 H 197.998 3.41248 7.98759 0
M  V30 21725 H 198.27 2.5837 6.41742 0
M  V30 21726 H 197.402 5.02657 6.42673 0
M  V30 21727 P 193.439 6.144 6.45285 0
M  V30 21728 O 193.219 7.54673 6.86199 0
M  V30 21729 O 192.649 5.12391 7.179 0
M  V30 21730 O 193.189 5.99158 4.88404 0
M  V30 21731 C 194.129 6.60234 3.96415 0
M  V30 21732 C 193.399 7.08259 2.72856 0
M  V30 21733 O 193.189 5.9427 1.83651 0
M  V30 21734 C 191.999 7.64886 2.9555 0
M  V30 21735 O 191.609 8.53963 1.90717 0
M  V30 21736 C 191.119 6.4116 2.90739 0
M  V30 21737 C 191.829 5.55375 1.86963 0
M  V30 21738 N 191.779 4.09448 2.16152 0
M  V30 21739 H 194.618 7.45574 4.45629 0
M  V30 21740 H 194.89 5.85864 3.679 0
M  V30 21741 H 194.022 7.84412 2.24479 0
M  V30 21742 H 191.367 5.73457 0.888562 0
M  V30 21743 H 191.087 5.90877 3.88583 0
M  V30 21744 H 190.096 6.6596 2.58858 0
M  V30 21745 H 191.93 8.16339 3.92049 0
M  V30 21746 P 190.059 8.7635 1.60911 0
M  V30 21747 O 189.839 10.1388 1.11561 0
M  V30 21748 O 189.269 8.36503 2.79617 0
M  V30 21749 O 189.809 7.71806 0.42951 0
M  V30 21750 C 190.749 7.66948 -0.673514 0
M  V30 21751 C 190.019 7.33374 -1.95559 0
M  V30 21752 O 189.809 5.88721 -2.00726 0
M  V30 21753 C 188.619 7.92218 -2.1125 0
M  V30 21754 O 188.229 8.02971 -3.47653 0
M  V30 21755 C 187.739 6.89504 -1.41631 0
M  V30 21756 C 188.449 5.59106 -1.75155 0
M  V30 21757 N 188.399 4.58136 -0.662409 0
M  V30 21758 C 188.249 3.26059 -1.02863 0
M  V30 21759 O 188.159 2.90743 -2.19009 0
M  V30 21760 N 188.209 2.35995 0.0155585 0
M  V30 21761 C 188.299 2.65248 1.35603 0
M  V30 21762 C 188.449 4.05747 1.64698 0
M  V30 21763 C 188.499 4.96734 0.652411 0
M  V30 21764 H 191.24 8.64917 -0.776982 0
M  V30 21765 H 191.509 6.89974 -0.474015 0
M  V30 21766 H 190.642 7.66548 -2.79458 0
M  V30 21767 H 187.987 5.16076 -2.65138 0
M  V30 21768 H 187.708 7.06433 -0.329384 0
M  V30 21769 H 186.716 6.90829 -1.81996 0
M  V30 21770 H 188.55 8.90774 -1.62639 0
M  V30 21771 H 188.621 6.02181 0.895285 0
M  V30 21772 P 186.679 8.03563 -3.84925 0
M  V30 21773 O 186.459 8.85821 -5.0569 0
M  V30 21774 O 185.889 8.41101 -2.65469 0
M  V30 21775 O 186.429 6.4965 -4.18908 0
M  V30 21776 C 187.369 5.81037 -5.05421 0
M  V30 21777 C 186.639 4.78366 -5.89277 0
M  V30 21778 O 186.429 3.58302 -5.08433 0
M  V30 21779 C 185.239 5.17448 -6.36119 0
M  V30 21780 O 184.849 4.45271 -7.53232 0
M  V30 21781 C 184.359 4.74639 -5.19936 0
M  V30 21782 C 185.069 3.49432 -4.70418 0
M  V30 21783 N 185.019 3.32099 -3.22613 0
M  V30 21784 H 187.858 6.54213 -5.71376 0
M  V30 21785 H 188.13 5.30936 -4.43503 0
M  V30 21786 H 187.262 4.55889 -6.76652 0
M  V30 21787 H 184.607 2.61715 -5.17932 0
M  V30 21788 H 184.327 5.52155 -4.41878 0
M  V30 21789 H 183.336 4.51981 -5.53374 0
M  V30 21790 H 185.17 6.25124 -6.55234 0
M  V30 21791 P 183.299 4.23843 -7.83734 0
M  V30 21792 O 183.079 4.19407 -9.29784 0
M  V30 21793 O 182.509 5.24426 -7.09156 0
M  V30 21794 O 183.049 2.7935 -7.20758 0
M  V30 21795 C 183.989 1.7299 -7.50419 0
M  V30 21796 C 183.259 0.406376 -7.57911 0
M  V30 21797 O 183.049 -0.0897726 -6.21935 0
M  V30 21798 C 181.859 0.447224 -8.1878 0
M  V30 21799 O 181.469 -0.825065 -8.71101 0
M  V30 21800 C 180.979 0.783801 -6.99623 0
M  V30 21801 C 181.689 0.0619192 -5.85967 0
M  V30 21802 N 181.639 0.790462 -4.56202 0
M  V30 21803 H 184.478 1.93423 -8.4679 0
M  V30 21804 H 184.75 1.68852 -6.70877 0
M  V30 21805 H 183.882 -0.289041 -8.15388 0
M  V30 21806 H 181.227 -0.927006 -5.72848 0
M  V30 21807 H 180.947 1.86973 -6.82036 0
M  V30 21808 H 179.956 0.403953 -7.13357 0
M  V30 21809 H 181.79 1.20599 -8.97534 0
M  V30 21810 P 179.919 -1.17771 -8.83182 0
M  V30 21811 O 179.699 -2.07206 -9.98732 0
M  V30 21812 O 179.129 0.0743816 -8.81969 0
M  V30 21813 O 179.669 -1.97652 -7.47304 0
M  V30 21814 C 180.609 -3.01055 -7.08599 0
M  V30 21815 C 179.879 -4.12613 -6.37049 0
M  V30 21816 O 179.669 -3.72827 -4.97879 0
M  V30 21817 C 178.479 -4.45719 -6.88164 0
M  V30 21818 O 178.089 -5.7877 -6.5624 0
M  V30 21819 C 177.599 -3.47768 -6.11991 0
M  V30 21820 C 178.309 -3.39356 -4.77615 0
M  V30 21821 N 178.259 -2.04571 -4.15244 0
M  V30 21822 C 178.109 -1.98587 -2.78314 0
M  V30 21823 O 178.019 -2.98134 -2.08835 0
M  V30 21824 N 178.069 -0.714467 -2.24925 0
M  V30 21825 C 178.159 0.470001 -2.94169 0
M  V30 21826 O 178.109 1.55587 -2.35195 0
M  V30 21827 C 178.309 0.312541 -4.36783 0
M  V30 21828 C 178.419 1.57711 -5.16352 0
M  V30 21829 C 178.359 -0.914512 -4.92583 0
M  V30 21830 H 181.1 -3.41169 -7.98575 0
M  V30 21831 H 181.369 -2.58295 -6.41556 0
M  V30 21832 H 180.502 -5.02657 -6.42673 0
M  V30 21833 H 177.847 -4.11637 -4.08885 0
M  V30 21834 H 177.568 -2.49626 -6.61679 0
M  V30 21835 H 176.576 -3.86566 -6.00778 0
M  V30 21836 H 178.41 -4.29943 -7.96918 0
M  V30 21837 H 178.481 -1.00937 -6.00374 0
M  V30 21838 H 177.451 1.80153 -5.63503 0
M  V30 21839 H 179.188 1.4566 -5.94104 0
M  V30 21840 H 178.7 2.40664 -4.49645 0
M  V30 21841 H 177.964 -0.647622 -1.25697 0
M  V30 21842 P 176.539 -6.144 -6.45285 0
M  V30 21843 O 176.319 -7.54673 -6.86199 0
M  V30 21844 O 175.749 -5.12391 -7.179 0
M  V30 21845 O 176.289 -5.99158 -4.88404 0
M  V30 21846 C 177.229 -6.60062 -3.96313 0
M  V30 21847 C 176.499 -7.08259 -2.72856 0
M  V30 21848 O 176.289 -5.9427 -1.83651 0
M  V30 21849 C 175.099 -7.65087 -2.94749 0
M  V30 21850 O 174.709 -8.53963 -1.90717 0
M  V30 21851 C 174.219 -6.41069 -2.90698 0
M  V30 21852 C 174.929 -5.5528 -1.86931 0
M  V30 21853 N 174.879 -4.09575 -2.15696 0
M  V30 21854 C 174.729 -3.24249 -1.08435 0
M  V30 21855 O 174.639 -3.63946 0.0628747 0
M  V30 21856 N 174.689 -1.90009 -1.39973 0
M  V30 21857 C 174.779 -1.34884 -2.65614 0
M  V30 21858 C 174.929 -2.3145 -3.71736 0
M  V30 21859 C 174.979 -3.63518 -3.44754 0
M  V30 21860 H 177.72 -7.45402 -4.45526 0
M  V30 21861 H 177.989 -5.86062 -3.67208 0
M  V30 21862 H 177.122 -7.84412 -2.24479 0
M  V30 21863 H 174.467 -5.73358 -0.888409 0
M  V30 21864 H 174.188 -5.90877 -3.88583 0
M  V30 21865 H 173.196 -6.65867 -2.58821 0
M  V30 21866 H 175.03 -8.16248 -3.92006 0
M  V30 21867 H 175.101 -4.34551 -4.26383 0
M  V30 21868 P 173.159 -8.7635 -1.60911 0
M  V30 21869 O 172.939 -10.1388 -1.11561 0
M  V30 21870 O 172.369 -8.36503 -2.79617 0
M  V30 21871 O 172.909 -7.71806 -0.42951 0
M  V30 21872 C 173.849 -7.67148 0.673689 0
M  V30 21873 C 173.119 -7.33374 1.95559 0
M  V30 21874 O 172.909 -5.88721 2.00726 0
M  V30 21875 C 171.719 -7.92526 2.10483 0
M  V30 21876 O 171.329 -8.02971 3.47653 0
M  V30 21877 C 170.839 -6.89602 1.41652 0
M  V30 21878 C 171.549 -5.59201 1.75185 0
M  V30 21879 N 171.499 -4.58235 0.662552 0
M  V30 21880 H 174.338 -8.65116 0.777161 0
M  V30 21881 H 174.61 -6.90173 0.474152 0
M  V30 21882 H 173.742 -7.66548 2.79458 0
M  V30 21883 P 169.779 -8.03563 3.84925 0
M  V30 21884 O 169.559 -8.85821 5.0569 0
M  V30 21885 O 168.989 -8.41101 2.65469 0
M  V30 21886 O 169.529 -6.4965 4.18908 0
M  V30 21887 C 170.469 -5.81037 5.05421 0
M  V30 21888 C 169.739 -4.78366 5.89277 0
M  V30 21889 O 169.529 -3.58302 5.08433 0
M  V30 21890 C 168.339 -5.17448 6.36119 0
M  V30 21891 O 167.949 -4.45271 7.53232 0
M  V30 21892 C 167.459 -4.74639 5.19936 0
M  V30 21893 C 168.169 -3.49432 4.70418 0
M  V30 21894 N 168.119 -3.32099 3.22613 0
M  V30 21895 H 170.958 -6.54213 5.71376 0
M  V30 21896 H 171.23 -5.30936 4.43503 0
M  V30 21897 H 170.362 -4.55889 6.76652 0
M  V30 21898 H 167.707 -2.61715 5.17932 0
M  V30 21899 H 167.427 -5.52155 4.41878 0
M  V30 21900 H 166.436 -4.51981 5.53374 0
M  V30 21901 H 168.27 -6.25124 6.55234 0
M  V30 21902 P 166.399 -4.23843 7.83734 0
M  V30 21903 O 166.179 -4.19407 9.29784 0
M  V30 21904 O 165.609 -5.24426 7.09156 0
M  V30 21905 O 166.149 -2.7935 7.20758 0
M  V30 21906 C 167.089 -1.7299 7.50419 0
M  V30 21907 C 166.359 -0.406376 7.57911 0
M  V30 21908 O 166.149 0.0897726 6.21935 0
M  V30 21909 C 164.959 -0.447224 8.1878 0
M  V30 21910 O 164.569 0.825065 8.71101 0
M  V30 21911 C 164.079 -0.783801 6.99623 0
M  V30 21912 C 164.789 -0.0619192 5.85967 0
M  V30 21913 N 164.739 -0.790462 4.56202 0
M  V30 21914 C 164.819 -2.13895 4.34171 0
M  V30 21915 N 164.749 -2.46449 3.08687 0
M  V30 21916 C 164.599 -1.2525 2.43697 0
M  V30 21917 C 164.469 -0.914535 1.07318 0
M  V30 21918 N 164.459 -1.80782 0.0887348 0
M  V30 21919 N 164.349 0.386745 0.768133 0
M  V30 21920 C 164.359 1.28096 1.75159 0
M  V30 21921 N 164.479 1.09708 3.04861 0
M  V30 21922 C 164.599 -0.214857 3.32306 0
M  V30 21923 H 167.578 -1.93423 8.4679 0
M  V30 21924 H 167.85 -1.68852 6.70877 0
M  V30 21925 H 166.982 0.289041 8.15388 0
M  V30 21926 H 164.327 0.927006 5.72848 0
M  V30 21927 H 164.047 -1.86973 6.82036 0
M  V30 21928 H 163.056 -0.403953 7.13357 0
M  V30 21929 H 164.89 -1.20599 8.97534 0
M  V30 21930 H 164.931 -2.86846 5.14318 0
M  V30 21931 H 164.55 -2.81082 0.302037 0
M  V30 21932 H 164.361 -1.49688 -0.889064 0
M  V30 21933 H 164.253 2.31317 1.43855 0
M  V30 21934 P 163.019 1.17771 8.83182 0
M  V30 21935 O 162.799 2.07206 9.98732 0
M  V30 21936 O 162.229 -0.0743816 8.81969 0
M  V30 21937 O 162.769 1.97652 7.47304 0
M  V30 21938 C 163.709 3.01133 7.08783 0
M  V30 21939 C 162.979 4.12613 6.37049 0
M  V30 21940 O 162.769 3.72827 4.97879 0
M  V30 21941 C 161.579 4.45085 6.88694 0
M  V30 21942 O 161.189 5.7877 6.5624 0
M  V30 21943 C 160.699 3.47817 6.12078 0
M  V30 21944 C 161.409 3.39414 4.77697 0
M  V30 21945 N 161.359 2.04199 4.15538 0
M  V30 21946 H 164.198 3.41248 7.98759 0
M  V30 21947 H 164.47 2.57728 6.42 0
M  V30 21948 H 163.602 5.02657 6.42673 0
M  V30 21949 H 160.947 4.11708 4.08956 0
M  V30 21950 H 160.667 2.49626 6.61679 0
M  V30 21951 H 159.676 3.8662 6.00862 0
M  V30 21952 H 161.51 4.29991 7.97006 0
M  V30 21953 P 159.639 6.144 6.45285 0
M  V30 21954 O 159.419 7.54673 6.86199 0
M  V30 21955 O 158.849 5.12391 7.179 0
M  V30 21956 O 159.389 5.99158 4.88404 0
M  V30 21957 C 160.329 6.60234 3.96415 0
M  V30 21958 C 159.599 7.08259 2.72856 0
M  V30 21959 O 159.389 5.9427 1.83651 0
M  V30 21960 C 158.199 7.64886 2.9555 0
M  V30 21961 O 157.809 8.53963 1.90717 0
M  V30 21962 C 157.319 6.4116 2.90739 0
M  V30 21963 C 158.029 5.55375 1.86963 0
M  V30 21964 N 157.979 4.09664 2.15742 0
M  V30 21965 H 160.818 7.45574 4.45629 0
M  V30 21966 H 161.09 5.86232 3.67314 0
M  V30 21967 H 160.222 7.84412 2.24479 0
M  V30 21968 P 156.259 8.7635 1.60911 0
M  V30 21969 O 156.039 10.1388 1.11561 0
M  V30 21970 O 155.469 8.36503 2.79617 0
M  V30 21971 O 156.009 7.71806 0.42951 0
M  V30 21972 C 156.949 7.67148 -0.673689 0
M  V30 21973 C 156.219 7.33374 -1.95559 0
M  V30 21974 O 156.009 5.88721 -2.00726 0
M  V30 21975 C 154.819 7.92526 -2.10483 0
M  V30 21976 O 154.429 8.02971 -3.47653 0
M  V30 21977 C 153.939 6.89602 -1.41652 0
M  V30 21978 C 154.649 5.59201 -1.75185 0
M  V30 21979 N 154.599 4.58235 -0.662552 0
M  V30 21980 H 157.438 8.65116 -0.777161 0
M  V30 21981 H 157.71 6.90173 -0.474152 0
M  V30 21982 H 156.842 7.66548 -2.79458 0
M  V30 21983 P 152.879 8.03563 -3.84925 0
M  V30 21984 O 152.659 8.85821 -5.0569 0
M  V30 21985 O 152.089 8.41101 -2.65469 0
M  V30 21986 O 152.629 6.49734 -4.18962 0
M  V30 21987 C 153.569 5.81037 -5.05421 0
M  V30 21988 C 152.839 4.79018 -5.88876 0
M  V30 21989 O 152.629 3.58359 -5.08515 0
M  V30 21990 C 151.439 5.17448 -6.36119 0
M  V30 21991 O 151.049 4.45322 -7.53318 0
M  V30 21992 C 150.559 4.74639 -5.19936 0
M  V30 21993 C 151.269 3.49432 -4.70418 0
M  V30 21994 N 151.219 3.31776 -3.22945 0
M  V30 21995 C 151.069 2.02742 -2.72939 0
M  V30 21996 O 150.979 1.08301 -3.52749 0
M  V30 21997 N 151.019 1.96117 -1.22063 0
M  V30 21998 C 151.119 2.8878 -0.551566 0
M  V30 21999 N 151.069 2.65609 0.750198 0
M  V30 22000 C 151.269 4.22457 -1.03707 0
M  V30 22001 C 151.319 4.37979 -2.39113 0
M  V30 22002 H 154.059 6.54138 -5.7131 0
M  V30 22003 H 154.329 5.30492 -4.44033 0
M  V30 22004 H 153.462 4.55945 -6.76735 0
M  V30 22005 H 150.807 2.6176 -5.18021 0
M  V30 22006 H 150.527 5.52233 -4.41941 0
M  V30 22007 H 149.536 4.52045 -5.53452 0
M  V30 22008 H 151.37 6.25124 -6.55234 0
M  V30 22009 H 151.442 5.37936 -2.80552 0
M  V30 22010 H 151.34 5.07528 -0.359553 0
M  V30 22011 H 150.952 1.69403 1.09847 0
M  V30 22012 H 151.148 3.43701 1.41792 0
M  V30 22013 P 149.499 4.23843 -7.83734 0
M  V30 22014 O 149.279 4.19407 -9.29784 0
M  V30 22015 O 148.709 5.24426 -7.09156 0
M  V30 22016 O 149.249 2.7935 -7.20758 0
M  V30 22017 C 150.189 1.72945 -7.50224 0
M  V30 22018 C 149.459 0.406376 -7.57911 0
M  V30 22019 O 149.249 -0.0897726 -6.21935 0
M  V30 22020 C 148.059 0.438983 -8.18724 0
M  V30 22021 O 147.669 -0.825065 -8.71101 0
M  V30 22022 C 147.179 0.783689 -6.99524 0
M  V30 22023 C 147.889 0.0619086 -5.85867 0
M  V30 22024 N 147.839 0.78573 -4.56183 0
M  V30 22025 C 147.689 0.0292889 -3.41887 0
M  V30 22026 O 147.599 -1.18445 -3.4419 0
M  V30 22027 N 147.649 0.744061 -2.23964 0
M  V30 22028 C 147.739 2.10932 -2.10362 0
M  V30 22029 O 147.689 2.64117 -0.98825 0
M  V30 22030 C 147.889 2.8202 -3.34994 0
M  V30 22031 C 147.999 4.31095 -3.25037 0
M  V30 22032 C 147.939 2.15547 -4.52261 0
M  V30 22033 H 150.68 1.93379 -8.46595 0
M  V30 22034 H 150.949 1.68132 -6.70852 0
M  V30 22035 H 150.082 -0.289041 -8.15388 0
M  V30 22036 H 147.427 -0.926847 -5.72749 0
M  V30 22037 H 147.148 1.86973 -6.82036 0
M  V30 22038 H 146.156 0.403896 -7.13257 0
M  V30 22039 H 147.99 1.20585 -8.97435 0
M  V30 22040 H 148.061 2.71231 -5.45042 0
M  V30 22041 H 147.031 4.76966 -3.49992 0
M  V30 22042 H 148.768 4.67047 -3.95024 0
M  V30 22043 H 148.28 4.58996 -2.22312 0
M  V30 22044 H 147.544 0.214893 -1.39758 0
M  V30 22045 P 146.119 -1.17771 -8.83182 0
M  V30 22046 O 145.899 -2.07206 -9.98732 0
M  V30 22047 O 145.329 0.0743816 -8.81969 0
M  V30 22048 O 145.869 -1.97652 -7.47304 0
M  V30 22049 C 146.809 -3.01133 -7.08783 0
M  V30 22050 C 146.079 -4.12613 -6.37049 0
M  V30 22051 O 145.869 -3.72827 -4.97879 0
M  V30 22052 C 144.679 -4.45085 -6.88694 0
M  V30 22053 O 144.289 -5.7877 -6.5624 0
M  V30 22054 C 143.799 -3.47817 -6.12078 0
M  V30 22055 C 144.509 -3.39414 -4.77697 0
M  V30 22056 N 144.459 -2.04199 -4.15538 0
M  V30 22057 C 144.539 -0.821545 -4.76977 0
M  V30 22058 N 144.469 0.1794 -3.94592 0
M  V30 22059 C 144.319 -0.419121 -2.70776 0
M  V30 22060 C 144.189 0.109072 -1.40577 0
M  V30 22061 N 144.179 1.4104 -1.1344 0
M  V30 22062 N 144.069 -0.764381 -0.39411 0
M  V30 22063 C 144.079 -2.06587 -0.664135 0
M  V30 22064 N 144.199 -2.67948 -1.82153 0
M  V30 22065 C 144.319 -1.77942 -2.8147 0
M  V30 22066 H 147.298 -3.41248 -7.98759 0
M  V30 22067 H 147.57 -2.57728 -6.42 0
M  V30 22068 H 146.702 -5.02657 -6.42673 0
M  V30 22069 H 144.047 -4.11708 -4.08956 0
M  V30 22070 H 143.767 -2.49626 -6.61679 0
M  V30 22071 H 142.776 -3.8662 -6.00862 0
M  V30 22072 H 144.61 -4.29991 -7.97006 0
M  V30 22073 H 144.651 -0.702451 -5.84696 0
M  V30 22074 H 144.27 2.09647 -1.89651 0
M  V30 22075 H 144.081 1.73358 -0.160575 0
M  V30 22076 H 143.973 -2.71695 0.195838 0
M  V30 22077 P 142.739 -6.144 -6.45285 0
M  V30 22078 O 142.519 -7.54673 -6.86199 0
M  V30 22079 O 141.949 -5.12391 -7.179 0
M  V30 22080 O 142.489 -5.99158 -4.88404 0
M  V30 22081 C 143.429 -6.60234 -3.96415 0
M  V30 22082 C 142.699 -7.08259 -2.72856 0
M  V30 22083 O 142.489 -5.9427 -1.83651 0
M  V30 22084 C 141.299 -7.64886 -2.9555 0
M  V30 22085 O 140.909 -8.53963 -1.90717 0
M  V30 22086 C 140.419 -6.4116 -2.90739 0
M  V30 22087 C 141.129 -5.55375 -1.86963 0
M  V30 22088 N 141.079 -4.09664 -2.15742 0
M  V30 22089 H 143.918 -7.45574 -4.45629 0
M  V30 22090 H 144.19 -5.86232 -3.67314 0
M  V30 22091 H 143.322 -7.84412 -2.24479 0
M  V30 22092 P 139.359 -8.7635 -1.60911 0
M  V30 22093 O 139.139 -10.1388 -1.11561 0
M  V30 22094 O 138.569 -8.36503 -2.79617 0
M  V30 22095 O 139.109 -7.71806 -0.42951 0
M  V30 22096 C 140.049 -7.67148 0.673689 0
M  V30 22097 C 139.319 -7.33374 1.95559 0
M  V30 22098 O 139.109 -5.88721 2.00726 0
M  V30 22099 C 137.919 -7.92526 2.10483 0
M  V30 22100 O 137.529 -8.02971 3.47653 0
M  V30 22101 C 137.039 -6.89602 1.41652 0
M  V30 22102 C 137.749 -5.59201 1.75185 0
M  V30 22103 N 137.699 -4.58301 0.657969 0
M  V30 22104 H 140.538 -8.65116 0.777161 0
M  V30 22105 H 140.81 -6.9022 0.46725 0
M  V30 22106 H 139.942 -7.66548 2.79458 0
M  V30 22107 H 137.287 -5.16165 2.65183 0
M  V30 22108 H 137.007 -7.06433 0.329384 0
M  V30 22109 H 136.016 -6.90926 1.82021 0
M  V30 22110 H 137.85 -8.90873 1.62657 0
M  V30 22111 P 135.979 -8.03563 3.84925 0
M  V30 22112 O 135.759 -8.85821 5.0569 0
M  V30 22113 O 135.189 -8.41101 2.65469 0
M  V30 22114 O 135.729 -6.4965 4.18908 0
M  V30 22115 C 136.669 -5.81037 5.05421 0
M  V30 22116 C 135.939 -4.78366 5.89277 0
M  V30 22117 O 135.729 -3.58302 5.08433 0
M  V30 22118 C 134.539 -5.17448 6.36119 0
M  V30 22119 O 134.149 -4.45271 7.53232 0
M  V30 22120 C 133.659 -4.74639 5.19936 0
M  V30 22121 C 134.369 -3.49432 4.70418 0
M  V30 22122 N 134.319 -3.31776 3.22945 0
M  V30 22123 H 137.158 -6.54213 5.71376 0
M  V30 22124 H 137.43 -5.30492 4.44033 0
M  V30 22125 H 136.562 -4.55889 6.76652 0
M  V30 22126 P 132.599 -4.23843 7.83734 0
M  V30 22127 O 132.379 -4.19407 9.29784 0
M  V30 22128 O 131.809 -5.24426 7.09156 0
M  V30 22129 O 132.349 -2.7935 7.20758 0
M  V30 22130 C 133.289 -1.7299 7.50419 0
M  V30 22131 C 132.559 -0.406376 7.57911 0
M  V30 22132 O 132.349 0.0897726 6.21935 0
M  V30 22133 C 131.159 -0.447224 8.1878 0
M  V30 22134 O 130.769 0.825065 8.71101 0
M  V30 22135 C 130.279 -0.783801 6.99623 0
M  V30 22136 C 130.989 -0.0619192 5.85967 0
M  V30 22137 N 130.939 -0.7859 4.56281 0
M  V30 22138 C 131.019 -2.14308 4.31736 0
M  V30 22139 N 130.939 -2.46106 3.05116 0
M  V30 22140 C 130.799 -1.23422 2.4014 0
M  V30 22141 C 130.669 -0.938381 1.02409 0
M  V30 22142 O 130.649 -1.70876 0.0650402 0
M  V30 22143 N 130.549 0.444647 0.805413 0
M  V30 22144 C 130.549 1.40829 1.79435 0
M  V30 22145 N 130.419 2.67213 1.38558 0
M  V30 22146 N 130.679 1.12947 3.09005 0
M  V30 22147 C 130.799 -0.204887 3.32369 0
M  V30 22148 H 133.778 -1.93423 8.4679 0
M  V30 22149 H 134.05 -1.68181 6.71046 0
M  V30 22150 H 133.182 0.289041 8.15388 0
M  V30 22151 H 130.527 0.927166 5.72947 0
M  V30 22152 H 130.247 -1.87 6.82132 0
M  V30 22153 H 129.256 -0.404009 7.13457 0
M  V30 22154 H 131.09 -1.20612 8.97633 0
M  V30 22155 H 131.139 -2.88284 5.10874 0
M  V30 22156 H 130.457 0.755087 -0.140242 0
M  V30 22157 H 130.42 3.43967 2.0729 0
M  V30 22158 H 130.319 2.88096 0.380644 0
M  V30 22159 P 129.219 1.17771 8.83182 0
M  V30 22160 O 128.999 2.07206 9.98732 0
M  V30 22161 O 128.429 -0.0743816 8.81969 0
M  V30 22162 O 128.969 1.97652 7.47304 0
M  V30 22163 C 129.909 3.01133 7.08783 0
M  V30 22164 C 129.179 4.12613 6.37049 0
M  V30 22165 O 128.969 3.72827 4.97879 0
M  V30 22166 C 127.779 4.45085 6.88694 0
M  V30 22167 O 127.389 5.7877 6.5624 0
M  V30 22168 C 126.899 3.47817 6.12078 0
M  V30 22169 C 127.609 3.39414 4.77697 0
M  V30 22170 N 127.559 2.04615 4.15333 0
M  V30 22171 H 130.398 3.41248 7.98759 0
M  V30 22172 H 130.67 2.5837 6.41742 0
M  V30 22173 H 129.802 5.02657 6.42673 0
M  V30 22174 P 125.839 6.144 6.45285 0
M  V30 22175 O 125.619 7.54673 6.86199 0
M  V30 22176 O 125.049 5.12391 7.179 0
M  V30 22177 O 125.589 5.99158 4.88404 0
M  V30 22178 C 126.529 6.60234 3.96415 0
M  V30 22179 C 125.799 7.08259 2.72856 0
M  V30 22180 O 125.589 5.9427 1.83651 0
M  V30 22181 C 124.399 7.64886 2.9555 0
M  V30 22182 O 124.009 8.53963 1.90717 0
M  V30 22183 C 123.519 6.4116 2.90739 0
M  V30 22184 C 124.229 5.55375 1.86963 0
M  V30 22185 N 124.179 4.09664 2.15742 0
M  V30 22186 C 124.259 3.44381 3.37233 0
M  V30 22187 N 124.179 2.14131 3.28347 0
M  V30 22188 C 124.039 1.90247 1.91588 0
M  V30 22189 C 123.909 0.683992 1.20892 0
M  V30 22190 N 123.789 0.903396 -0.173998 0
M  V30 22191 C 123.789 2.14171 -0.784879 0
M  V30 22192 N 123.659 2.1435 -2.11317 0
M  V30 22193 N 123.919 3.28784 -0.119316 0
M  V30 22194 C 124.039 3.0977 1.22194 0
M  V30 22195 H 127.018 7.45574 4.45629 0
M  V30 22196 H 127.29 5.86232 3.67314 0
M  V30 22197 H 126.422 7.84412 2.24479 0
M  V30 22198 P 122.459 8.7635 1.60911 0
M  V30 22199 O 122.239 10.1388 1.11561 0
M  V30 22200 O 121.669 8.36503 2.79617 0
M  V30 22201 O 122.209 7.71806 0.42951 0
M  V30 22202 C 123.149 7.67148 -0.673689 0
M  V30 22203 C 122.419 7.33374 -1.95559 0
M  V30 22204 O 122.209 5.88721 -2.00726 0
M  V30 22205 C 121.019 7.92526 -2.10483 0
M  V30 22206 O 120.629 8.02971 -3.47653 0
M  V30 22207 C 120.139 6.89602 -1.41652 0
M  V30 22208 C 120.849 5.59201 -1.75185 0
M  V30 22209 N 120.799 4.58235 -0.662552 0
M  V30 22210 C 120.879 4.7683 0.704049 0
M  V30 22211 N 120.799 3.66233 1.39775 0
M  V30 22212 C 120.659 2.66526 0.431739 0
M  V30 22213 C 120.529 1.26394 0.575992 0
M  V30 22214 O 120.509 0.589894 1.60503 0
M  V30 22215 N 120.409 0.62859 -0.67177 0
M  V30 22216 C 120.409 1.27134 -1.89385 0
M  V30 22217 N 120.279 0.492035 -2.96951 0
M  V30 22218 N 120.539 2.58978 -2.02907 0
M  V30 22219 C 120.659 3.22433 -0.832218 0
M  V30 22220 H 123.638 8.65116 -0.777161 0
M  V30 22221 H 123.91 6.90173 -0.474152 0
M  V30 22222 H 123.042 7.66548 -2.79458 0
M  V30 22223 H 120.387 5.16254 -2.65229 0
M  V30 22224 H 120.107 7.06532 -0.329431 0
M  V30 22225 H 119.116 6.91023 -1.82047 0
M  V30 22226 H 120.95 8.90971 -1.62675 0
M  V30 22227 H 120.999 5.74954 1.16305 0
M  V30 22228 H 120.317 -0.366713 -0.674793 0
M  V30 22229 H 120.28 0.908532 -3.91188 0
M  V30 22230 H 120.179 -0.528253 -2.85758 0
M  V30 22231 P 119.079 8.03563 -3.84925 0
M  V30 22232 O 118.859 8.85821 -5.0569 0
M  V30 22233 O 118.289 8.41101 -2.65469 0
M  V30 22234 O 118.829 6.4965 -4.18908 0
M  V30 22235 C 119.769 5.81037 -5.05421 0
M  V30 22236 C 119.039 4.78366 -5.89277 0
M  V30 22237 O 118.829 3.58302 -5.08433 0
M  V30 22238 C 117.639 5.17448 -6.36119 0
M  V30 22239 O 117.249 4.45271 -7.53232 0
M  V30 22240 C 116.759 4.74639 -5.19936 0
M  V30 22241 C 117.469 3.49432 -4.70418 0
M  V30 22242 N 117.419 3.31776 -3.22945 0
M  V30 22243 H 120.258 6.54213 -5.71376 0
M  V30 22244 H 120.53 5.30492 -4.44033 0
M  V30 22245 H 119.662 4.55889 -6.76652 0
M  V30 22246 P 115.699 4.23843 -7.83734 0
M  V30 22247 O 115.479 4.19407 -9.29784 0
M  V30 22248 O 114.909 5.24426 -7.09156 0
M  V30 22249 O 115.449 2.7935 -7.20758 0
M  V30 22250 C 116.389 1.7299 -7.50419 0
M  V30 22251 C 115.659 0.406376 -7.57911 0
M  V30 22252 O 115.449 -0.0897726 -6.21935 0
M  V30 22253 C 114.259 0.447224 -8.1878 0
M  V30 22254 O 113.869 -0.825065 -8.71101 0
M  V30 22255 C 113.379 0.783801 -6.99623 0
M  V30 22256 C 114.089 0.0619192 -5.85967 0
M  V30 22257 N 114.039 0.790462 -4.56202 0
M  V30 22258 C 114.119 2.13895 -4.34171 0
M  V30 22259 N 114.049 2.46449 -3.08687 0
M  V30 22260 C 113.899 1.2525 -2.43697 0
M  V30 22261 C 113.769 0.914535 -1.07318 0
M  V30 22262 N 113.759 1.80782 -0.0887348 0
M  V30 22263 N 113.649 -0.386745 -0.768133 0
M  V30 22264 C 113.659 -1.28096 -1.75159 0
M  V30 22265 N 113.779 -1.09708 -3.04861 0
M  V30 22266 C 113.899 0.214857 -3.32306 0
M  V30 22267 H 116.878 1.93423 -8.4679 0
M  V30 22268 H 117.15 1.68852 -6.70877 0
M  V30 22269 H 116.282 -0.289041 -8.15388 0
M  V30 22270 H 113.627 -0.927006 -5.72848 0
M  V30 22271 H 113.347 1.86973 -6.82036 0
M  V30 22272 H 112.356 0.403953 -7.13357 0
M  V30 22273 H 114.19 1.20599 -8.97534 0
M  V30 22274 H 114.231 2.86846 -5.14318 0
M  V30 22275 H 113.85 2.81082 -0.302037 0
M  V30 22276 H 113.661 1.49688 0.889064 0
M  V30 22277 H 113.553 -2.31317 -1.43855 0
M  V30 22278 P 112.319 -1.17771 -8.83182 0
M  V30 22279 O 112.099 -2.07206 -9.98732 0
M  V30 22280 O 111.529 0.0743816 -8.81969 0
M  V30 22281 O 112.069 -1.97652 -7.47304 0
M  V30 22282 C 113.009 -3.01133 -7.08783 0
M  V30 22283 C 112.279 -4.12613 -6.37049 0
M  V30 22284 O 112.069 -3.72827 -4.97879 0
M  V30 22285 C 110.879 -4.45085 -6.88694 0
M  V30 22286 O 110.489 -5.7877 -6.5624 0
M  V30 22287 C 109.999 -3.47817 -6.12078 0
M  V30 22288 C 110.709 -3.39414 -4.77697 0
M  V30 22289 N 110.659 -2.04615 -4.15333 0
M  V30 22290 H 113.498 -3.41248 -7.98759 0
M  V30 22291 H 113.77 -2.5837 -6.41742 0
M  V30 22292 H 112.902 -5.02657 -6.42673 0
M  V30 22293 P 108.939 -6.144 -6.45285 0
M  V30 22294 O 108.719 -7.54673 -6.86199 0
M  V30 22295 O 108.149 -5.12391 -7.179 0
M  V30 22296 O 108.689 -5.99236 -4.88467 0
M  V30 22297 C 109.629 -6.60234 -3.96415 0
M  V30 22298 C 108.899 -7.08079 -2.736 0
M  V30 22299 O 108.689 -5.94365 -1.8368 0
M  V30 22300 C 107.499 -7.64886 -2.9555 0
M  V30 22301 O 107.109 -8.5406 -1.90739 0
M  V30 22302 C 106.619 -6.4116 -2.90739 0
M  V30 22303 C 107.329 -5.55375 -1.86963 0
M  V30 22304 N 107.279 -4.09664 -2.15742 0
M  V30 22305 C 107.129 -3.22231 -1.08477 0
M  V30 22306 O 107.039 -3.68951 0.0600489 0
M  V30 22307 N 107.079 -1.76692 -1.48799 0
M  V30 22308 C 107.179 -1.41695 -2.57602 0
M  V30 22309 N 107.129 -0.107296 -2.75791 0
M  V30 22310 C 107.329 -2.29178 -3.69733 0
M  V30 22311 C 107.379 -3.62753 -3.42653 0
M  V30 22312 H 110.119 -7.45488 -4.45578 0
M  V30 22313 H 110.389 -5.86232 -3.67314 0
M  V30 22314 H 109.522 -7.84508 -2.24507 0
M  V30 22315 H 106.867 -5.73556 -0.888715 0
M  V30 22316 H 106.587 -5.9096 -3.88638 0
M  V30 22317 H 105.596 -6.66053 -2.58894 0
M  V30 22318 H 107.43 -8.16339 -3.92049 0
M  V30 22319 H 107.502 -4.33052 -4.24913 0
M  V30 22320 H 107.4 -1.9103 -4.71577 0
M  V30 22321 H 107.012 0.521221 -1.95056 0
M  V30 22322 H 107.208 0.286429 -3.70695 0
M  V30 22323 P 105.559 -8.7635 -1.60911 0
M  V30 22324 O 105.339 -10.1388 -1.11561 0
M  V30 22325 O 104.769 -8.36503 -2.79617 0
M  V30 22326 O 105.309 -7.71806 -0.42951 0
M  V30 22327 C 106.249 -7.67148 0.673689 0
M  V30 22328 C 105.519 -7.33374 1.95559 0
M  V30 22329 O 105.309 -5.88721 2.00726 0
M  V30 22330 C 104.119 -7.92526 2.10483 0
M  V30 22331 O 103.729 -8.02971 3.47653 0
M  V30 22332 C 103.239 -6.89602 1.41652 0
M  V30 22333 C 103.949 -5.59201 1.75185 0
M  V30 22334 N 103.899 -4.58301 0.657969 0
M  V30 22335 H 106.738 -8.65116 0.777161 0
M  V30 22336 H 107.01 -6.9022 0.46725 0
M  V30 22337 H 106.142 -7.66548 2.79458 0
M  V30 22338 H 103.487 -5.16165 2.65183 0
M  V30 22339 H 103.207 -7.06433 0.329384 0
M  V30 22340 H 102.216 -6.90926 1.82021 0
M  V30 22341 H 104.05 -8.90873 1.62657 0
M  V30 22342 P 102.179 -8.03563 3.84925 0
M  V30 22343 O 101.959 -8.85821 5.0569 0
M  V30 22344 O 101.389 -8.41101 2.65469 0
M  V30 22345 O 101.929 -6.4965 4.18908 0
M  V30 22346 C 102.869 -5.81037 5.05421 0
M  V30 22347 C 102.139 -4.78366 5.89277 0
M  V30 22348 O 101.929 -3.58302 5.08433 0
M  V30 22349 C 100.739 -5.17448 6.36119 0
M  V30 22350 O 100.349 -4.45271 7.53232 0
M  V30 22351 C 99.8594 -4.74639 5.19936 0
M  V30 22352 C 100.569 -3.49432 4.70418 0
M  V30 22353 N 100.519 -3.32099 3.22613 0
M  V30 22354 H 103.358 -6.54213 5.71376 0
M  V30 22355 H 103.63 -5.30936 4.43503 0
M  V30 22356 H 102.762 -4.55889 6.76652 0
M  V30 22357 H 100.107 -2.61715 5.17932 0
M  V30 22358 H 99.8274 -5.52155 4.41878 0
M  V30 22359 H 98.8364 -4.51981 5.53374 0
M  V30 22360 H 100.67 -6.25124 6.55234 0
M  V30 22361 P 98.7994 -4.23843 7.83734 0
M  V30 22362 O 98.5794 -4.19407 9.29784 0
M  V30 22363 O 98.0094 -5.24426 7.09156 0
M  V30 22364 O 98.5494 -2.7935 7.20758 0
M  V30 22365 C 99.4894 -1.7299 7.50419 0
M  V30 22366 C 98.7594 -0.406376 7.57911 0
M  V30 22367 O 98.5494 0.0897726 6.21935 0
M  V30 22368 C 97.3594 -0.447224 8.1878 0
M  V30 22369 O 96.9694 0.825065 8.71101 0
M  V30 22370 C 96.4794 -0.783801 6.99623 0
M  V30 22371 C 97.1894 -0.0619192 5.85967 0
M  V30 22372 N 97.1394 -0.7859 4.56281 0
M  V30 22373 H 99.9784 -1.93423 8.4679 0
M  V30 22374 H 100.25 -1.68181 6.71046 0
M  V30 22375 H 99.3824 0.289041 8.15388 0
M  V30 22376 P 95.4195 1.17771 8.83182 0
M  V30 22377 O 95.1995 2.07206 9.98732 0
M  V30 22378 O 94.6295 -0.0743816 8.81969 0
M  V30 22379 O 95.1695 1.97652 7.47304 0
M  V30 22380 C 96.1095 3.01133 7.08783 0
M  V30 22381 C 95.3795 4.12613 6.37049 0
M  V30 22382 O 95.1695 3.72827 4.97879 0
M  V30 22383 C 93.9795 4.45085 6.88694 0
M  V30 22384 O 93.5895 5.7877 6.5624 0
M  V30 22385 C 93.0995 3.47817 6.12078 0
M  V30 22386 C 93.8095 3.39414 4.77697 0
M  V30 22387 N 93.7595 2.04615 4.15333 0
M  V30 22388 H 96.5985 3.41248 7.98759 0
M  V30 22389 H 96.8705 2.5837 6.41742 0
M  V30 22390 H 96.0025 5.02657 6.42673 0
M  V30 22391 P 92.0395 6.144 6.45285 0
M  V30 22392 O 91.8195 7.54673 6.86199 0
M  V30 22393 O 91.2495 5.12391 7.179 0
M  V30 22394 O 91.7895 5.99158 4.88404 0
M  V30 22395 C 92.7295 6.60234 3.96415 0
M  V30 22396 C 91.9995 7.08259 2.72856 0
M  V30 22397 O 91.7895 5.9427 1.83651 0
M  V30 22398 C 90.5995 7.64886 2.9555 0
M  V30 22399 O 90.2095 8.53963 1.90717 0
M  V30 22400 C 89.7195 6.4116 2.90739 0
M  V30 22401 C 90.4295 5.55375 1.86963 0
M  V30 22402 N 90.3795 4.09448 2.16152 0
M  V30 22403 H 93.2185 7.45574 4.45629 0
M  V30 22404 H 93.4905 5.85864 3.679 0
M  V30 22405 H 92.6225 7.84412 2.24479 0
M  V30 22406 H 89.9675 5.73457 0.888562 0
M  V30 22407 H 89.6875 5.90877 3.88583 0
M  V30 22408 H 88.6965 6.6596 2.58858 0
M  V30 22409 H 90.5305 8.16339 3.92049 0
M  V30 22410 P 88.6595 8.7635 1.60911 0
M  V30 22411 O 88.4395 10.1388 1.11561 0
M  V30 22412 O 87.8695 8.36503 2.79617 0
M  V30 22413 O 88.4095 7.71806 0.42951 0
M  V30 22414 C 89.3495 7.67148 -0.673689 0
M  V30 22415 C 88.6195 7.33374 -1.95559 0
M  V30 22416 O 88.4095 5.88721 -2.00726 0
M  V30 22417 C 87.2195 7.92526 -2.10483 0
M  V30 22418 O 86.8295 8.02971 -3.47653 0
M  V30 22419 C 86.3395 6.89602 -1.41652 0
M  V30 22420 C 87.0495 5.59201 -1.75185 0
M  V30 22421 N 86.9995 4.58235 -0.662552 0
M  V30 22422 H 89.8385 8.65116 -0.777161 0
M  V30 22423 H 90.1105 6.90173 -0.474152 0
M  V30 22424 H 89.2425 7.66548 -2.79458 0
M  V30 22425 P 85.2795 8.03563 -3.84925 0
M  V30 22426 O 85.0595 8.85821 -5.0569 0
M  V30 22427 O 84.4895 8.41101 -2.65469 0
M  V30 22428 O 85.0295 6.49734 -4.18962 0
M  V30 22429 C 85.9695 5.81037 -5.05421 0
M  V30 22430 C 85.2395 4.79018 -5.88876 0
M  V30 22431 O 85.0295 3.58359 -5.08515 0
M  V30 22432 C 83.8395 5.17448 -6.36119 0
M  V30 22433 O 83.4495 4.45322 -7.53318 0
M  V30 22434 C 82.9595 4.74639 -5.19936 0
M  V30 22435 C 83.6695 3.49432 -4.70418 0
M  V30 22436 N 83.6195 3.31776 -3.22945 0
M  V30 22437 C 83.4695 2.02742 -2.72939 0
M  V30 22438 O 83.3795 1.08301 -3.52749 0
M  V30 22439 N 83.4195 1.96117 -1.22063 0
M  V30 22440 C 83.5195 2.8878 -0.551566 0
M  V30 22441 N 83.4695 2.65609 0.750198 0
M  V30 22442 C 83.6695 4.22457 -1.03707 0
M  V30 22443 C 83.7195 4.37979 -2.39113 0
M  V30 22444 H 86.4595 6.54138 -5.7131 0
M  V30 22445 H 86.7295 5.30492 -4.44033 0
M  V30 22446 H 85.8625 4.55945 -6.76735 0
M  V30 22447 H 83.2075 2.6176 -5.18021 0
M  V30 22448 H 82.9275 5.52233 -4.41941 0
M  V30 22449 H 81.9365 4.52045 -5.53452 0
M  V30 22450 H 83.7705 6.25124 -6.55234 0
M  V30 22451 H 83.8425 5.37936 -2.80552 0
M  V30 22452 H 83.7405 5.07528 -0.359553 0
M  V30 22453 H 83.3525 1.69403 1.09847 0
M  V30 22454 H 83.5485 3.43701 1.41792 0
M  V30 22455 P 81.8995 4.23843 -7.83734 0
M  V30 22456 O 81.6795 4.19407 -9.29784 0
M  V30 22457 O 81.1095 5.24426 -7.09156 0
M  V30 22458 O 81.6495 2.7935 -7.20758 0
M  V30 22459 C 82.5895 1.7299 -7.50419 0
M  V30 22460 C 81.8595 0.406376 -7.57911 0
M  V30 22461 O 81.6495 -0.0897726 -6.21935 0
M  V30 22462 C 80.4595 0.447224 -8.1878 0
M  V30 22463 O 80.0695 -0.825065 -8.71101 0
M  V30 22464 C 79.5795 0.783801 -6.99623 0
M  V30 22465 C 80.2895 0.0619192 -5.85967 0
M  V30 22466 N 80.2395 0.790462 -4.56202 0
M  V30 22467 H 83.0785 1.93423 -8.4679 0
M  V30 22468 H 83.3505 1.68852 -6.70877 0
M  V30 22469 H 82.4825 -0.289041 -8.15388 0
M  V30 22470 H 79.8275 -0.927006 -5.72848 0
M  V30 22471 H 79.5475 1.86973 -6.82036 0
M  V30 22472 H 78.5565 0.403953 -7.13357 0
M  V30 22473 H 80.3905 1.20599 -8.97534 0
M  V30 22474 P 78.5196 -1.17771 -8.83182 0
M  V30 22475 O 78.2996 -2.07206 -9.98732 0
M  V30 22476 O 77.7296 0.0743816 -8.81969 0
M  V30 22477 O 78.2696 -1.97652 -7.47304 0
M  V30 22478 C 79.2096 -3.01133 -7.08783 0
M  V30 22479 C 78.4796 -4.12613 -6.37049 0
M  V30 22480 O 78.2696 -3.72827 -4.97879 0
M  V30 22481 C 77.0796 -4.45085 -6.88694 0
M  V30 22482 O 76.6896 -5.7877 -6.5624 0
M  V30 22483 C 76.1996 -3.47817 -6.12078 0
M  V30 22484 C 76.9096 -3.39414 -4.77697 0
M  V30 22485 N 76.8596 -2.04199 -4.15538 0
M  V30 22486 H 79.6986 -3.41248 -7.98759 0
M  V30 22487 H 79.9706 -2.57728 -6.42 0
M  V30 22488 H 79.1026 -5.02657 -6.42673 0
M  V30 22489 H 76.4476 -4.11708 -4.08956 0
M  V30 22490 H 76.1676 -2.49626 -6.61679 0
M  V30 22491 H 75.1766 -3.8662 -6.00862 0
M  V30 22492 H 77.0106 -4.29991 -7.97006 0
M  V30 22493 P 75.1396 -6.144 -6.45285 0
M  V30 22494 O 74.9196 -7.54673 -6.86199 0
M  V30 22495 O 74.3496 -5.12391 -7.179 0
M  V30 22496 O 74.8896 -5.99158 -4.88404 0
M  V30 22497 C 75.8296 -6.60234 -3.96415 0
M  V30 22498 C 75.0996 -7.08259 -2.72856 0
M  V30 22499 O 74.8896 -5.9427 -1.83651 0
M  V30 22500 C 73.6996 -7.64886 -2.9555 0
M  V30 22501 O 73.3096 -8.53963 -1.90717 0
M  V30 22502 C 72.8196 -6.4116 -2.90739 0
M  V30 22503 C 73.5296 -5.55375 -1.86963 0
M  V30 22504 N 73.4796 -4.09448 -2.16152 0
M  V30 22505 H 76.3186 -7.45574 -4.45629 0
M  V30 22506 H 76.5906 -5.85864 -3.679 0
M  V30 22507 H 75.7226 -7.84412 -2.24479 0
M  V30 22508 H 73.0676 -5.73457 -0.888562 0
M  V30 22509 H 72.7876 -5.90877 -3.88583 0
M  V30 22510 H 71.7966 -6.6596 -2.58858 0
M  V30 22511 H 73.6306 -8.16339 -3.92049 0
M  V30 22512 P 71.7596 -8.7635 -1.60911 0
M  V30 22513 O 71.5396 -10.1388 -1.11561 0
M  V30 22514 O 70.9696 -8.36503 -2.79617 0
M  V30 22515 O 71.5096 -7.71906 -0.429565 0
M  V30 22516 C 72.4496 -7.67148 0.673689 0
M  V30 22517 C 71.7196 -7.33666 1.94851 0
M  V30 22518 O 71.5096 -5.88816 2.00759 0
M  V30 22519 C 70.3196 -7.92526 2.10483 0
M  V30 22520 O 69.9296 -8.03063 3.47693 0
M  V30 22521 C 69.4396 -6.89602 1.41652 0
M  V30 22522 C 70.1496 -5.59201 1.75185 0
M  V30 22523 N 70.0996 -4.58235 0.662552 0
M  V30 22524 C 69.9496 -3.24451 1.01643 0
M  V30 22525 O 69.8596 -2.94958 2.21722 0
M  V30 22526 N 69.8996 -2.30408 -0.165238 0
M  V30 22527 C 69.9996 -2.66048 -1.25118 0
M  V30 22528 N 69.9496 -1.70787 -2.16813 0
M  V30 22529 C 70.1496 -4.02732 -1.64413 0
M  V30 22530 C 70.1996 -4.9488 -0.63991 0
M  V30 22531 H 72.9396 -8.65017 0.777072 0
M  V30 22532 H 73.2096 -6.90173 0.474152 0
M  V30 22533 H 72.3426 -7.66642 2.79492 0
M  V30 22534 H 69.6876 -5.16254 2.65229 0
M  V30 22535 H 69.4076 -7.06532 0.329431 0
M  V30 22536 H 68.4166 -6.91023 1.82047 0
M  V30 22537 H 70.2506 -8.90873 1.62657 0
M  V30 22538 H 70.3226 -6.00104 -0.892197 0
M  V30 22539 H 70.2206 -4.31733 -2.69229 0
M  V30 22540 H 69.8326 -0.724835 -1.8844 0
M  V30 22541 H 70.0286 -1.94716 -3.16734 0
M  V30 22542 P 68.3796 -8.03563 3.84925 0
M  V30 22543 O 68.1596 -8.85821 5.0569 0
M  V30 22544 O 67.5896 -8.41101 2.65469 0
M  V30 22545 O 68.1296 -6.4965 4.18908 0
M  V30 22546 C 69.0696 -5.81037 5.05421 0
M  V30 22547 C 68.3396 -4.78366 5.89277 0
M  V30 22548 O 68.1296 -3.58302 5.08433 0
M  V30 22549 C 66.9396 -5.17448 6.36119 0
M  V30 22550 O 66.5496 -4.45271 7.53232 0
M  V30 22551 C 66.0596 -4.74639 5.19936 0
M  V30 22552 C 66.7696 -3.49432 4.70418 0
M  V30 22553 N 66.7196 -3.31776 3.22945 0
M  V30 22554 C 66.7996 -4.27147 2.23315 0
M  V30 22555 N 66.7196 -3.78447 1.02186 0
M  V30 22556 C 66.5796 -2.41001 1.21732 0
M  V30 22557 C 66.4496 -1.36111 0.27694 0
M  V30 22558 O 66.4296 -1.42065 -0.951767 0
M  V30 22559 N 66.3296 -0.113683 0.912949 0
M  V30 22560 C 66.3296 0.0846396 2.27943 0
M  V30 22561 N 66.1996 1.34737 2.6916 0
M  V30 22562 N 66.4596 -0.902521 3.16379 0
M  V30 22563 C 66.5796 -2.11937 2.56849 0
M  V30 22564 H 69.5586 -6.54213 5.71376 0
M  V30 22565 H 69.8306 -5.30492 4.44033 0
M  V30 22566 H 68.9626 -4.55889 6.76652 0
M  V30 22567 H 66.3076 -2.6176 5.18021 0
M  V30 22568 H 66.0276 -5.52233 4.41941 0
M  V30 22569 H 65.0366 -4.52045 5.53452 0
M  V30 22570 H 66.8706 -6.25193 6.55307 0
M  V30 22571 H 66.9196 -5.3351 2.43857 0
M  V30 22572 H 66.2376 0.69331 0.330371 0
M  V30 22573 H 66.2006 1.56433 3.6988 0
M  V30 22574 H 66.0996 2.10701 2.00133 0
M  V30 22575 P 64.9996 -4.23843 7.83734 0
M  V30 22576 O 64.7796 -4.19407 9.29784 0
M  V30 22577 O 64.2096 -5.24426 7.09156 0
M  V30 22578 O 64.7496 -2.7935 7.20758 0
M  V30 22579 C 65.6896 -1.7299 7.50419 0
M  V30 22580 C 64.9596 -0.406376 7.57911 0
M  V30 22581 O 64.7496 0.0897726 6.21935 0
M  V30 22582 C 63.5596 -0.447224 8.1878 0
M  V30 22583 O 63.1696 0.825065 8.71101 0
M  V30 22584 C 62.6796 -0.783801 6.99623 0
M  V30 22585 C 63.3896 -0.0619192 5.85967 0
M  V30 22586 N 63.3396 -0.7859 4.56281 0
M  V30 22587 H 66.1786 -1.93423 8.4679 0
M  V30 22588 H 66.4506 -1.68181 6.71046 0
M  V30 22589 H 65.5826 0.289041 8.15388 0
M  V30 22590 P 61.6197 1.17771 8.83182 0
M  V30 22591 O 61.3997 2.07206 9.98732 0
M  V30 22592 O 60.8297 -0.0743816 8.81969 0
M  V30 22593 O 61.3697 1.97652 7.47304 0
M  V30 22594 C 62.3097 3.01133 7.08783 0
M  V30 22595 C 61.5797 4.12613 6.37049 0
M  V30 22596 O 61.3697 3.72827 4.97879 0
M  V30 22597 C 60.1797 4.45085 6.88694 0
M  V30 22598 O 59.7897 5.7877 6.5624 0
M  V30 22599 C 59.2997 3.47817 6.12078 0
M  V30 22600 C 60.0097 3.39414 4.77697 0
M  V30 22601 N 59.9597 2.04199 4.15538 0
M  V30 22602 H 62.7987 3.41248 7.98759 0
M  V30 22603 H 63.0707 2.57728 6.42 0
M  V30 22604 H 62.2027 5.02657 6.42673 0
M  V30 22605 H 59.5477 4.11708 4.08956 0
M  V30 22606 H 59.2677 2.49626 6.61679 0
M  V30 22607 H 58.2767 3.8662 6.00862 0
M  V30 22608 H 60.1107 4.29991 7.97006 0
M  V30 22609 P 58.2397 6.144 6.45285 0
M  V30 22610 O 58.0197 7.54673 6.86199 0
M  V30 22611 O 57.4497 5.12391 7.179 0
M  V30 22612 O 57.9897 5.99158 4.88404 0
M  V30 22613 C 58.9297 6.60234 3.96415 0
M  V30 22614 C 58.1997 7.08259 2.72856 0
M  V30 22615 O 57.9897 5.9427 1.83651 0
M  V30 22616 C 56.7997 7.64886 2.9555 0
M  V30 22617 O 56.4097 8.53963 1.90717 0
M  V30 22618 C 55.9197 6.4116 2.90739 0
M  V30 22619 C 56.6297 5.55375 1.86963 0
M  V30 22620 N 56.5797 4.09664 2.15742 0
M  V30 22621 C 56.6597 3.44381 3.37233 0
M  V30 22622 N 56.5797 2.14131 3.28347 0
M  V30 22623 C 56.4397 1.90247 1.91588 0
M  V30 22624 C 56.3097 0.683992 1.20892 0
M  V30 22625 O 56.2897 -0.46618 1.64523 0
M  V30 22626 N 56.1897 0.903396 -0.173998 0
M  V30 22627 C 56.1897 2.14171 -0.784879 0
M  V30 22628 N 56.0597 2.1435 -2.11317 0
M  V30 22629 N 56.3197 3.28784 -0.119316 0
M  V30 22630 C 56.4397 3.0977 1.22194 0
M  V30 22631 H 59.4187 7.45574 4.45629 0
M  V30 22632 H 59.6907 5.86232 3.67314 0
M  V30 22633 H 58.8227 7.84412 2.24479 0
M  V30 22634 H 56.1677 5.73556 0.888715 0
M  V30 22635 H 55.8877 5.9096 3.88638 0
M  V30 22636 H 54.8967 6.66053 2.58894 0
M  V30 22637 H 56.7307 8.16429 3.92093 0
M  V30 22638 H 56.7797 3.96785 4.32043 0
M  V30 22639 H 56.0977 0.0999567 -0.761467 0
M  V30 22640 H 56.0607 3.03436 -2.63076 0
M  V30 22641 H 55.9597 1.25228 -2.62233 0
M  V30 22642 P 54.8597 8.7635 1.60911 0
M  V30 22643 O 54.6397 10.1388 1.11561 0
M  V30 22644 O 54.0697 8.36503 2.79617 0
M  V30 22645 O 54.6097 7.71806 0.42951 0
M  V30 22646 C 55.5497 7.67148 -0.673689 0
M  V30 22647 C 54.8197 7.33374 -1.95559 0
M  V30 22648 O 54.6097 5.88721 -2.00726 0
M  V30 22649 C 53.4197 7.92526 -2.10483 0
M  V30 22650 O 53.0297 8.02971 -3.47653 0
M  V30 22651 C 52.5397 6.89602 -1.41652 0
M  V30 22652 C 53.2497 5.59201 -1.75185 0
M  V30 22653 N 53.1997 4.58235 -0.662552 0
M  V30 22654 H 56.0387 8.65116 -0.777161 0
M  V30 22655 H 56.3107 6.90173 -0.474152 0
M  V30 22656 H 55.4427 7.66548 -2.79458 0
M  V30 22657 P 51.4797 8.03563 -3.84925 0
M  V30 22658 O 51.2597 8.85821 -5.0569 0
M  V30 22659 O 50.6897 8.41101 -2.65469 0
M  V30 22660 O 51.2297 6.4965 -4.18908 0
M  V30 22661 C 52.1697 5.81037 -5.05421 0
M  V30 22662 C 51.4397 4.78366 -5.89277 0
M  V30 22663 O 51.2297 3.58302 -5.08433 0
M  V30 22664 C 50.0397 5.17448 -6.36119 0
M  V30 22665 O 49.6497 4.45271 -7.53232 0
M  V30 22666 C 49.1597 4.74639 -5.19936 0
M  V30 22667 C 49.8697 3.49432 -4.70418 0
M  V30 22668 N 49.8197 3.31776 -3.22945 0
M  V30 22669 H 52.6587 6.54213 -5.71376 0
M  V30 22670 H 52.9307 5.30492 -4.44033 0
M  V30 22671 H 52.0627 4.55889 -6.76652 0
M  V30 22672 P 48.0997 4.23843 -7.83734 0
M  V30 22673 O 47.8797 4.19407 -9.29784 0
M  V30 22674 O 47.3097 5.24426 -7.09156 0
M  V30 22675 O 47.8497 2.7935 -7.20758 0
M  V30 22676 C 48.7897 1.7299 -7.50419 0
M  V30 22677 C 48.0597 0.406376 -7.57911 0
M  V30 22678 O 47.8497 -0.0897726 -6.21935 0
M  V30 22679 C 46.6597 0.447224 -8.1878 0
M  V30 22680 O 46.2697 -0.825065 -8.71101 0
M  V30 22681 C 45.7797 0.783801 -6.99623 0
M  V30 22682 C 46.4897 0.0619192 -5.85967 0
M  V30 22683 N 46.4397 0.7859 -4.56281 0
M  V30 22684 H 49.2787 1.93423 -8.4679 0
M  V30 22685 H 49.5507 1.68181 -6.71046 0
M  V30 22686 H 48.6827 -0.289041 -8.15388 0
M  V30 22687 P 44.7198 -1.17771 -8.83182 0
M  V30 22688 O 44.4998 -2.07206 -9.98732 0
M  V30 22689 O 43.9298 0.0743816 -8.81969 0
M  V30 22690 O 44.4698 -1.97652 -7.47304 0
M  V30 22691 C 45.4098 -3.01133 -7.08783 0
M  V30 22692 C 44.6798 -4.12613 -6.37049 0
M  V30 22693 O 44.4698 -3.72827 -4.97879 0
M  V30 22694 C 43.2798 -4.45085 -6.88694 0
M  V30 22695 O 42.8898 -5.7877 -6.5624 0
M  V30 22696 C 42.3998 -3.47817 -6.12078 0
M  V30 22697 C 43.1098 -3.39414 -4.77697 0
M  V30 22698 N 43.0598 -2.04615 -4.15333 0
M  V30 22699 C 43.1398 -0.803897 -4.75249 0
M  V30 22700 N 43.0598 0.197615 -3.91502 0
M  V30 22701 C 42.9198 -0.413002 -2.66823 0
M  V30 22702 C 42.7898 0.157221 -1.38007 0
M  V30 22703 N 42.6698 -0.833136 -0.390236 0
M  V30 22704 C 42.6698 -2.19402 -0.623885 0
M  V30 22705 N 42.5398 -2.97622 0.449677 0
M  V30 22706 N 42.7998 -2.73005 -1.83601 0
M  V30 22707 C 42.9198 -1.78786 -2.80935 0
M  V30 22708 H 45.8988 -3.41248 -7.98759 0
M  V30 22709 H 46.1708 -2.5837 -6.41742 0
M  V30 22710 H 45.3028 -5.02657 -6.42673 0
M  V30 22711 P 41.3398 -6.144 -6.45285 0
M  V30 22712 O 41.1198 -7.54673 -6.86199 0
M  V30 22713 O 40.5498 -5.12391 -7.179 0
M  V30 22714 O 41.0898 -5.99158 -4.88404 0
M  V30 22715 C 42.0298 -6.60234 -3.96415 0
M  V30 22716 C 41.2998 -7.08259 -2.72856 0
M  V30 22717 O 41.0898 -5.9427 -1.83651 0
M  V30 22718 C 39.8998 -7.64886 -2.9555 0
M  V30 22719 O 39.5098 -8.53963 -1.90717 0
M  V30 22720 C 39.0198 -6.4116 -2.90739 0
M  V30 22721 C 39.7298 -5.55375 -1.86963 0
M  V30 22722 N 39.6798 -4.09664 -2.15742 0
M  V30 22723 H 42.5188 -7.45574 -4.45629 0
M  V30 22724 H 42.7908 -5.86232 -3.67314 0
M  V30 22725 H 41.9228 -7.84412 -2.24479 0
M  V30 22726 P 37.9598 -8.7635 -1.60911 0
M  V30 22727 O 37.7398 -10.1388 -1.11561 0
M  V30 22728 O 37.1698 -8.36503 -2.79617 0
M  V30 22729 O 37.7098 -7.71806 -0.42951 0
M  V30 22730 C 38.6498 -7.67148 0.673689 0
M  V30 22731 C 37.9198 -7.33374 1.95559 0
M  V30 22732 O 37.7098 -5.88721 2.00726 0
M  V30 22733 C 36.5198 -7.92526 2.10483 0
M  V30 22734 O 36.1298 -8.02971 3.47653 0
M  V30 22735 C 35.6398 -6.89602 1.41652 0
M  V30 22736 C 36.3498 -5.59201 1.75185 0
M  V30 22737 N 36.2998 -4.58235 0.662552 0
M  V30 22738 H 39.1388 -8.65116 0.777161 0
M  V30 22739 H 39.4108 -6.90173 0.474152 0
M  V30 22740 H 38.5428 -7.66548 2.79458 0
M  V30 22741 P 34.5798 -8.03563 3.84925 0
M  V30 22742 O 34.3598 -8.85821 5.0569 0
M  V30 22743 O 33.7898 -8.41101 2.65469 0
M  V30 22744 O 34.3298 -6.4965 4.18908 0
M  V30 22745 C 35.2698 -5.81037 5.05421 0
M  V30 22746 C 34.5398 -4.78366 5.89277 0
M  V30 22747 O 34.3298 -3.58302 5.08433 0
M  V30 22748 C 33.1398 -5.17448 6.36119 0
M  V30 22749 O 32.7498 -4.45271 7.53232 0
M  V30 22750 C 32.2598 -4.74639 5.19936 0
M  V30 22751 C 32.9698 -3.49432 4.70418 0
M  V30 22752 N 32.9198 -3.31776 3.22945 0
M  V30 22753 H 35.7588 -6.54213 5.71376 0
M  V30 22754 H 36.0308 -5.30492 4.44033 0
M  V30 22755 H 35.1628 -4.55889 6.76652 0
M  V30 22756 P 31.1998 -4.23843 7.83734 0
M  V30 22757 O 30.9798 -4.19407 9.29784 0
M  V30 22758 O 30.4098 -5.24426 7.09156 0
M  V30 22759 O 30.9498 -2.7935 7.20758 0
M  V30 22760 C 31.8898 -1.7299 7.50419 0
M  V30 22761 C 31.1598 -0.406376 7.57911 0
M  V30 22762 O 30.9498 0.0897726 6.21935 0
M  V30 22763 C 29.7598 -0.447224 8.1878 0
M  V30 22764 O 29.3698 0.825065 8.71101 0
M  V30 22765 C 28.8798 -0.783801 6.99623 0
M  V30 22766 C 29.5898 -0.0619192 5.85967 0
M  V30 22767 N 29.5398 -0.790462 4.56202 0
M  V30 22768 H 32.3788 -1.93423 8.4679 0
M  V30 22769 H 32.6508 -1.68852 6.70877 0
M  V30 22770 H 31.7828 0.289041 8.15388 0
M  V30 22771 H 29.1278 0.927006 5.72848 0
M  V30 22772 H 28.8478 -1.86973 6.82036 0
M  V30 22773 H 27.8568 -0.403953 7.13357 0
M  V30 22774 H 29.6908 -1.20599 8.97534 0
M  V30 22775 P 27.8199 1.17771 8.83182 0
M  V30 22776 O 27.5999 2.07206 9.98732 0
M  V30 22777 O 27.0299 -0.0743816 8.81969 0
M  V30 22778 O 27.5699 1.97652 7.47304 0
M  V30 22779 C 28.5099 3.01133 7.08783 0
M  V30 22780 C 27.7799 4.12613 6.37049 0
M  V30 22781 O 27.5699 3.72827 4.97879 0
M  V30 22782 C 26.3799 4.45085 6.88694 0
M  V30 22783 O 25.9899 5.7877 6.5624 0
M  V30 22784 C 25.4999 3.47817 6.12078 0
M  V30 22785 C 26.2099 3.39414 4.77697 0
M  V30 22786 N 26.1599 2.04199 4.15538 0
M  V30 22787 H 28.9989 3.41248 7.98759 0
M  V30 22788 H 29.2709 2.57728 6.42 0
M  V30 22789 H 28.4029 5.02657 6.42673 0
M  V30 22790 H 25.7479 4.11708 4.08956 0
M  V30 22791 H 25.4679 2.49626 6.61679 0
M  V30 22792 H 24.4769 3.8662 6.00862 0
M  V30 22793 H 26.3109 4.29991 7.97006 0
M  V30 22794 P 24.4399 6.144 6.45285 0
M  V30 22795 O 24.2199 7.54673 6.86199 0
M  V30 22796 O 23.6499 5.12391 7.179 0
M  V30 22797 O 24.1899 5.99158 4.88404 0
M  V30 22798 C 25.1299 6.60234 3.96415 0
M  V30 22799 C 24.3999 7.08259 2.72856 0
M  V30 22800 O 24.1899 5.9427 1.83651 0
M  V30 22801 C 22.9999 7.64886 2.9555 0
M  V30 22802 O 22.6099 8.53963 1.90717 0
M  V30 22803 C 22.1199 6.4116 2.90739 0
M  V30 22804 C 22.8299 5.55375 1.86963 0
M  V30 22805 N 22.7799 4.09448 2.16152 0
M  V30 22806 H 25.6189 7.45574 4.45629 0
M  V30 22807 H 25.8909 5.85864 3.679 0
M  V30 22808 H 25.0229 7.84412 2.24479 0
M  V30 22809 H 22.3679 5.73457 0.888562 0
M  V30 22810 H 22.0879 5.90877 3.88583 0
M  V30 22811 H 21.0969 6.6596 2.58858 0
M  V30 22812 H 22.9309 8.16339 3.92049 0
M  V30 22813 P 21.0599 8.7635 1.60911 0
M  V30 22814 O 20.8399 10.1388 1.11561 0
M  V30 22815 O 20.2699 8.36503 2.79617 0
M  V30 22816 O 20.8099 7.71806 0.42951 0
M  V30 22817 C 21.7499 7.67148 -0.673689 0
M  V30 22818 C 21.0199 7.33374 -1.95559 0
M  V30 22819 O 20.8099 5.88721 -2.00726 0
M  V30 22820 C 19.6199 7.92526 -2.10483 0
M  V30 22821 O 19.2299 8.02971 -3.47653 0
M  V30 22822 C 18.7399 6.89602 -1.41652 0
M  V30 22823 C 19.4499 5.59201 -1.75185 0
M  V30 22824 N 19.3999 4.58301 -0.657969 0
M  V30 22825 H 22.2389 8.65116 -0.777161 0
M  V30 22826 H 22.5109 6.9022 -0.46725 0
M  V30 22827 H 21.6429 7.66548 -2.79458 0
M  V30 22828 H 18.9879 5.16165 -2.65183 0
M  V30 22829 H 18.7079 7.06433 -0.329384 0
M  V30 22830 H 17.7169 6.90926 -1.82021 0
M  V30 22831 H 19.5509 8.90873 -1.62657 0
M  V30 22832 P 17.6799 8.03563 -3.84925 0
M  V30 22833 O 17.4599 8.85821 -5.0569 0
M  V30 22834 O 16.8899 8.41101 -2.65469 0
M  V30 22835 O 17.4299 6.4965 -4.18908 0
M  V30 22836 C 18.3699 5.81037 -5.05421 0
M  V30 22837 C 17.6399 4.78366 -5.89277 0
M  V30 22838 O 17.4299 3.58302 -5.08433 0
M  V30 22839 C 16.2399 5.17448 -6.36119 0
M  V30 22840 O 15.8499 4.45271 -7.53232 0
M  V30 22841 C 15.3599 4.74639 -5.19936 0
M  V30 22842 C 16.0699 3.49432 -4.70418 0
M  V30 22843 N 16.0199 3.31776 -3.22945 0
M  V30 22844 H 18.8589 6.54213 -5.71376 0
M  V30 22845 H 19.1309 5.30492 -4.44033 0
M  V30 22846 H 18.2629 4.55889 -6.76652 0
M  V30 22847 P 14.2999 4.23843 -7.83734 0
M  V30 22848 O 14.0799 4.19407 -9.29784 0
M  V30 22849 O 13.5099 5.24426 -7.09156 0
M  V30 22850 O 14.0499 2.7935 -7.20758 0
M  V30 22851 C 14.9899 1.7299 -7.50419 0
M  V30 22852 C 14.2599 0.406376 -7.57911 0
M  V30 22853 O 14.0499 -0.0897726 -6.21935 0
M  V30 22854 C 12.8599 0.447224 -8.1878 0
M  V30 22855 O 12.4699 -0.825065 -8.71101 0
M  V30 22856 C 11.9799 0.783801 -6.99623 0
M  V30 22857 C 12.6899 0.0619192 -5.85967 0
M  V30 22858 N 12.6399 0.790462 -4.56202 0
M  V30 22859 H 15.4789 1.93423 -8.4679 0
M  V30 22860 H 15.7509 1.68852 -6.70877 0
M  V30 22861 H 14.8829 -0.289041 -8.15388 0
M  V30 22862 H 12.2279 -0.927006 -5.72848 0
M  V30 22863 H 11.9479 1.86973 -6.82036 0
M  V30 22864 H 10.9569 0.403953 -7.13357 0
M  V30 22865 H 12.7909 1.20599 -8.97534 0
M  V30 22866 P 10.92 -1.17771 -8.83182 0
M  V30 22867 O 10.7 -2.07206 -9.98732 0
M  V30 22868 O 10.13 0.0743816 -8.81969 0
M  V30 22869 O 10.67 -1.97652 -7.47304 0
M  V30 22870 C 11.61 -3.01133 -7.08783 0
M  V30 22871 C 10.88 -4.12613 -6.37049 0
M  V30 22872 O 10.67 -3.72827 -4.97879 0
M  V30 22873 C 9.47996 -4.45085 -6.88694 0
M  V30 22874 O 9.08996 -5.7877 -6.5624 0
M  V30 22875 C 8.59996 -3.47817 -6.12078 0
M  V30 22876 C 9.30996 -3.39414 -4.77697 0
M  V30 22877 N 9.25996 -2.04615 -4.15333 0
M  V30 22878 H 12.099 -3.41248 -7.98759 0
M  V30 22879 H 12.371 -2.5837 -6.41742 0
M  V30 22880 H 11.503 -5.02657 -6.42673 0
M  V30 22881 P 7.53998 -6.144 -6.45285 0
M  V30 22882 O 7.31998 -7.54673 -6.86199 0
M  V30 22883 O 6.74998 -5.12391 -7.179 0
M  V30 22884 O 7.28998 -5.99158 -4.88404 0
M  V30 22885 C 8.22998 -6.60234 -3.96415 0
M  V30 22886 C 7.49998 -7.08259 -2.72856 0
M  V30 22887 O 7.28998 -5.9427 -1.83651 0
M  V30 22888 C 6.09998 -7.64886 -2.9555 0
M  V30 22889 O 5.70998 -8.53963 -1.90717 0
M  V30 22890 C 5.21998 -6.4116 -2.90739 0
M  V30 22891 C 5.92998 -5.55375 -1.86963 0
M  V30 22892 N 5.87998 -4.09448 -2.16152 0
M  V30 22893 H 8.71898 -7.45574 -4.45629 0
M  V30 22894 H 8.99098 -5.85864 -3.679 0
M  V30 22895 H 8.12298 -7.84412 -2.24479 0
M  V30 22896 H 5.46798 -5.73457 -0.888562 0
M  V30 22897 H 5.18798 -5.90877 -3.88583 0
M  V30 22898 H 4.19698 -6.6596 -2.58858 0
M  V30 22899 H 6.03098 -8.16339 -3.92049 0
M  V30 22900 P 4.16 -8.7635 -1.60911 0
M  V30 22901 O 3.94 -10.1388 -1.11561 0
M  V30 22902 O 3.37 -8.36503 -2.79617 0
M  V30 22903 O 3.91 -7.71806 -0.42951 0
M  V30 22904 C 4.85 -7.67148 0.673689 0
M  V30 22905 C 4.12 -7.33374 1.95559 0
M  V30 22906 O 3.91 -5.88721 2.00726 0
M  V30 22907 C 2.72 -7.92526 2.10483 0
M  V30 22908 O 2.33 -8.02971 3.47653 0
M  V30 22909 C 1.84 -6.89602 1.41652 0
M  V30 22910 C 2.55 -5.59201 1.75185 0
M  V30 22911 N 2.5 -4.58235 0.662552 0
M  V30 22912 H 5.339 -8.65116 0.777161 0
M  V30 22913 H 5.611 -6.90173 0.474152 0
M  V30 22914 H 4.743 -7.66548 2.79458 0
M  V30 22915 H 1.613 -8.66322 3.55694 0
M  V30 END ATOM
M  V30 BEGIN BOND
M  V30 END BOND
M  V30 END CTAB
M  END
$$$$
