drugbank_target|P03706 Endolysin (DB04206)
 OpenBabel12092120033D

  0  0  0     0  0            999 V3000
M  V30 BEGIN CTAB
M  V30 COUNTS 2504 2529 0 0 0
M  V30 BEGIN ATOM
M  V30 1 H -0.908 1.98254 -0.117106 0
M  V30 2 N 0 1.576 0 0
M  V30 3 C 0.933 2.03868 1.02534 0
M  V30 4 C 1.911 0.928543 1.3348 0
M  V30 5 O 3.095 1.19667 1.45644 0
M  V30 6 C 0.222 2.43627 2.35294 0
M  V30 7 C -0.732 3.65373 2.2001 0
M  V30 8 S 0.101 5.13292 1.52614 0
M  V30 9 C 1.257 5.56322 2.86805 0
M  V30 10 H 1.49 2.90518 0.631377 0
M  V30 11 H -0.977 1.52953 0.210867 0
M  V30 12 H 0.981 2.67203 3.11629 0
M  V30 13 H -0.358 1.57376 2.7183 0
M  V30 14 H -1.165 3.90944 3.18086 0
M  V30 15 H -1.563 3.418 1.51819 0
M  V30 16 H 0.729 5.58782 3.83104 0
M  V30 17 H 1.672 6.56266 2.65933 0
M  V30 18 H 2.08 4.83886 2.90714 0
M  V30 19 N 1.4781 -0.272755 1.55222 0
M  V30 20 C 2.7241 -1.00581 1.761 0
M  V30 21 C 3.0571 -1.85932 0.560625 0
M  V30 22 O 2.3321 -1.89416 -0.441801 0
M  V30 23 C 2.6151 -1.88816 3.06628 0
M  V30 24 C 2.4681 -1.06457 4.37021 0
M  V30 25 C 3.7871 -2.8752 3.33197 0
M  V30 26 H 0.9061 -0.364244 0.640699 0
M  V30 27 H 3.5481 -0.278189 1.87952 0
M  V30 28 H 1.6981 -2.50856 2.96654 0
M  V30 29 H 3.3701 -0.464863 4.58952 0
M  V30 30 H 1.6131 -0.368043 4.32236 0
M  V30 31 H 2.2841 -1.71514 5.24678 0
M  V30 32 H 4.7601 -2.35615 3.42965 0
M  V30 33 H 3.6361 -3.46399 4.25792 0
M  V30 34 H 3.8971 -3.62657 2.52849 0
M  V30 35 N 2.9562 -1.48159 -0.537278 0
M  V30 36 C 3.8662 -1.64807 -1.6696 0
M  V30 37 C 4.8822 -0.530651 -1.65711 0
M  V30 38 O 6.0582 -0.800784 -1.84796 0
M  V30 39 C 3.1232 -1.67708 -3.03438 0
M  V30 40 C 2.1842 -2.91025 -3.156 0
M  V30 41 C 1.4172 -2.93778 -4.45567 0
M  V30 42 O 1.6402 -2.05153 -5.3223 0
M  V30 43 O 0.5742 -3.85868 -4.61941 0
M  V30 44 H 4.4002 -2.6066 -1.55853 0
M  V30 45 H 1.9852 -1.31475 -0.709549 0
M  V30 46 H 3.8672 -1.7218 -3.84619 0
M  V30 47 H 2.5422 -0.750278 -3.14885 0
M  V30 48 H 1.4492 -2.92089 -2.33741 0
M  V30 49 H 2.7822 -3.83065 -3.09066 0
M  V30 50 N 4.4343 0.785586 -1.36625 0
M  V30 51 C 5.6833 1.53883 -1.30396 0
M  V30 52 C 5.9963 1.95271 0.113452 0
M  V30 53 O 7.2023 2.69858 0.298142 0
M  V30 54 C 5.6583 2.77808 -2.28802 0
M  V30 55 C 5.2663 2.43574 -3.75999 0
M  V30 56 C 7.0103 3.55783 -2.31558 0
M  V30 57 C 4.9173 3.63919 -4.66173 0
M  V30 58 H 3.8473 0.577678 -0.484566 0
M  V30 59 H 6.4983 0.861705 -1.62009 0
M  V30 60 H 4.8803 3.47339 -1.90188 0
M  V30 61 H 6.0543 1.81916 -4.23371 0
M  V30 62 H 4.3693 1.78803 -3.76056 0
M  V30 63 H 6.9663 4.45205 -2.96137 0
M  V30 64 H 7.3093 3.94644 -1.3252 0
M  V30 65 H 7.8423 2.93235 -2.68809 0
M  V30 66 H 4.5813 3.3015 -5.66287 0
M  V30 67 H 4.1013 4.2473 -4.23515 0
M  V30 68 H 5.7803 4.30901 -4.82632 0
M  V30 69 N 5.9124 1.20967 1.01018 0
M  V30 70 C 6.8604 0.961223 2.1181 0
M  V30 71 C 7.8544 -0.0897034 1.69162 0
M  V30 72 O 9.0604 0.0612271 1.79896 0
M  V30 73 H 5.4354 0.29355 0.692338 0
M  V30 74 H 7.4064 1.90178 2.29946 0
M  V30 75 C 6.1554 0.536854 3.4353 0
M  V30 76 H 5.4784 1.33713 3.76777 0
M  V30 77 H 6.9184 0.402286 4.22087 0
M  V30 78 C 5.3774 -0.751574 3.2841 0
M  V30 79 O 5.9074 -1.80841 3.58691 0
M  V30 80 N 4.1134 -0.716079 2.81639 0
M  V30 81 H 3.6604 0.144236 2.57196 0
M  V30 82 H 3.6184 -1.57847 2.71904 0
M  V30 83 N 7.3905 -1.2043 1.01659 0
M  V30 84 C 8.3385 -2.25249 0.580143 0
M  V30 85 C 9.3325 -1.65057 -0.381115 0
M  V30 86 O 10.5385 -1.78241 -0.251039 0
M  V30 87 H 6.9135 -0.732695 0.169299 0
M  V30 88 H 8.8845 -2.59389 1.47512 0
M  V30 89 C 7.6335 -3.47638 -0.065788 0
M  V30 90 H 6.9565 -3.94233 0.664874 0
M  V30 91 H 8.3965 -4.2268 -0.334282 0
M  V30 92 C 6.8555 -3.10447 -1.3086 0
M  V30 93 O 7.3855 -3.21981 -2.4019 0
M  V30 94 N 5.5915 -2.64996 -1.1927 0
M  V30 95 H 5.1385 -2.55811 -0.303064 0
M  V30 96 H 5.0965 -2.40482 -2.02523 0
M  V30 97 N 8.8686 -0.792821 -1.36206 0
M  V30 98 C 9.8006 -0.151469 -2.28699 0
M  V30 99 C 10.8136 0.641262 -1.49638 0
M  V30 100 O 12.0026 0.475885 -1.72039 0
M  V30 101 C 9.1026 0.808424 -3.29117 0
M  V30 102 C 8.2756 0.0650202 -4.37352 0
M  V30 103 C 7.3346 0.941358 -5.17711 0
M  V30 104 O 6.3606 0.397352 -5.67811 0
M  V30 105 N 7.5626 2.2652 -5.3448 0
M  V30 106 H 10.3276 -0.945982 -2.84379 0
M  V30 107 H 7.8886 -0.647032 -1.48409 0
M  V30 108 H 9.8806 1.3986 -3.79765 0
M  V30 109 H 8.4506 1.5038 -2.74052 0
M  V30 110 H 7.6706 -0.706255 -3.87822 0
M  V30 111 H 8.9586 -0.447847 -5.06825 0
M  V30 112 H 8.3566 2.73128 -4.95396 0
M  V30 113 H 6.9136 2.80493 -5.88359 0
M  V30 114 N 10.3467 1.47872 -0.545128 0
M  V30 115 C 11.7627 1.5829 -0.204032 0
M  V30 116 C 11.9627 1.54529 1.29317 0
M  V30 117 O 11.0187 1.44232 2.07252 0
M  V30 118 C 12.3317 2.89304 -0.819987 0
M  V30 119 C 13.8797 3.02864 -0.790105 0
M  V30 120 C 14.3547 4.3656 -1.38491 0
M  V30 121 N 15.8457 4.43165 -1.34755 0
M  V30 122 C 16.5807 5.45153 -1.77753 0
M  V30 123 N 16.0767 6.54016 -2.2855 0
M  V30 124 N 17.8697 5.36125 -1.68897 0
M  V30 125 H 10.0207 1.4856 -1.51802 0
M  V30 126 H 12.2837 0.706305 -0.632327 0
M  V30 127 H 11.9897 2.97757 -1.87173 0
M  V30 128 H 11.8637 3.75957 -0.305915 0
M  V30 129 H 14.2507 2.94014 0.252913 0
M  V30 130 H 14.3317 2.17782 -1.34181 0
M  V30 131 H 13.9757 4.46164 -2.42693 0
M  V30 132 H 13.9057 5.20353 -0.808754 0
M  V30 133 H 16.3967 3.65083 -0.975855 0
M  V30 134 H 16.7097 7.27994 -2.59314 0
M  V30 135 H 15.0547 6.54938 -2.32553 0
M  V30 136 H 18.2457 4.49975 -1.28998 0
M  V30 137 H 18.4187 6.15472 -2.02726 0
M  V30 138 N 11.8248 0.280983 1.55075 0
M  V30 139 C 12.7718 -0.603937 2.22758 0
M  V30 140 C 13.7418 -1.1452 1.20309 0
M  V30 141 O 14.9268 -1.19343 1.48869 0
M  V30 142 C 12.0668 -1.77947 2.95684 0
M  V30 143 C 11.1798 -1.2715 4.12864 0
M  V30 144 C 10.3148 -2.4093 4.7342 0
M  V30 145 C 9.3538 -1.87165 5.82783 0
M  V30 146 N 8.4908 -2.94441 6.37377 0
M  V30 147 H 13.3308 -0.020124 2.97993 0
M  V30 148 H 10.8678 0.00183425 1.471 0
M  V30 149 H 12.8258 -2.47055 3.36184 0
M  V30 150 H 11.4558 -2.33522 2.22861 0
M  V30 151 H 10.5078 -0.473331 3.77444 0
M  V30 152 H 11.8198 -0.837751 4.91715 0
M  V30 153 H 10.9738 -3.18021 5.1667 0
M  V30 154 H 9.7128 -2.87623 3.93859 0
M  V30 155 H 8.7178 -1.08556 5.38976 0
M  V30 156 H 9.9428 -1.41401 6.64216 0
M  V30 157 H 7.8888 -3.40505 5.60707 0
M  V30 158 H 7.8058 -2.55501 7.11516 0
M  V30 159 H 9.0738 -3.71489 6.85285 0
M  V30 160 N 13.3029 -1.57598 0.00835791 0
M  V30 161 C 14.2659 -2.07884 -0.965242 0
M  V30 162 C 15.2659 -0.989825 -1.26725 0
M  V30 163 O 16.4559 -1.25218 -1.21104 0
M  V30 164 C 13.5879 -2.52731 -2.28779 0
M  V30 165 H 14.7809 -2.95178 -0.530112 0
M  V30 166 H 12.3339 -1.54458 -0.239283 0
M  V30 167 H 13.0689 -1.68705 -2.76964 0
M  V30 168 H 12.8539 -3.32272 -2.08177 0
M  V30 169 H 14.3439 -2.91933 -2.98605 0
M  V30 170 N 14.781 0.264519 -1.55364 0
M  V30 171 C 16.028 0.994986 -1.7637 0
M  V30 172 C 16.356 1.85976 -0.5695 0
M  V30 173 O 15.611 1.90509 0.44776 0
M  V30 174 C 15.91 1.9004 -3.02687 0
M  V30 175 C 15.576 1.19243 -4.34847 0
M  V30 176 C 14.238 0.996709 -4.70764 0
M  V30 177 C 16.59 0.689296 -5.16622 0
M  V30 178 C 13.918 0.285261 -5.86006 0
M  V30 179 C 16.27 -0.00860079 -6.32599 0
M  V30 180 C 14.934 -0.215963 -6.67151 0
M  V30 181 H 14.204 0.364091 -0.645383 0
M  V30 182 H 16.851 0.266543 -1.89636 0
M  V30 183 H 15.156 2.69533 -2.84357 0
M  V30 184 H 16.853 2.46695 -3.16137 0
M  V30 185 H 13.443 1.3549 -4.06621 0
M  V30 186 H 17.627 0.828108 -4.89342 0
M  V30 187 H 12.883 0.113961 -6.11294 0
M  V30 188 H 17.057 -0.406186 -6.95214 0
M  V30 189 H 14.684 -0.769217 -7.56298 0
M  V30 190 N 16.2591 1.48442 0.529413 0
M  V30 191 C 17.1891 1.65902 1.64313 0
M  V30 192 C 18.1701 0.507897 1.6234 0
M  V30 193 O 19.3551 0.740503 1.79528 0
M  V30 194 C 16.4851 1.69911 3.02898 0
M  V30 195 C 15.4391 2.8453 3.19729 0
M  V30 196 C 14.7651 2.73629 4.59381 0
M  V30 197 C 16.0651 4.25821 3.02447 0
M  V30 198 H 17.7591 2.5914 1.49955 0
M  V30 199 H 15.3051 1.24709 0.719982 0
M  V30 200 H 17.2581 1.80715 3.80684 0
M  V30 201 H 15.9821 0.732524 3.18279 0
M  V30 202 H 14.6411 2.73283 2.44361 0
M  V30 203 H 14.2891 1.74938 4.71599 0
M  V30 204 H 13.9891 3.50541 4.71588 0
M  V30 205 H 15.5131 2.86401 5.39265 0
M  V30 206 H 16.9271 4.37898 3.70024 0
M  V30 207 H 15.3241 5.03735 3.26146 0
M  V30 208 H 16.3941 4.42244 1.98867 0
M  V30 209 N 17.7372 -0.778329 1.37039 0
M  V30 210 C 19.0142 -1.52551 1.22424 0
M  V30 211 C 19.3942 -2.10288 -0.184964 0
M  V30 212 O 18.7422 -1.94953 -1.19187 0
M  V30 213 C 18.9522 -2.61164 2.31504 0
M  V30 214 C 20.3002 -3.28746 2.68721 0
M  V30 215 O 21.3242 -2.71455 2.30631 0
M  V30 216 O 20.1832 -4.3231 3.3432 0
M  V30 217 H 17.2772 -0.675343 0.477326 0
M  V30 218 H 19.8232 -0.815859 1.48801 0
M  V30 219 H 18.5952 -2.16574 3.25901 0
M  V30 220 H 18.2182 -3.39737 2.06554 0
M  V30 221 N 19.2153 -1.21501 -1.00376 0
M  V30 222 C 20.1483 -0.918669 -2.08892 0
M  V30 223 C 21.1263 0.134277 -1.62045 0
M  V30 224 O 22.3103 0.00504255 -1.88499 0
M  V30 225 C 19.4373 -0.379645 -3.36566 0
M  V30 226 C 18.4833 -1.41559 -4.02323 0
M  V30 227 S 19.3163 -2.98521 -4.44574 0
M  V30 228 C 20.4723 -2.46228 -5.75433 0
M  V30 229 H 20.7053 -1.83761 -2.33707 0
M  V30 230 H 18.2383 -1.04489 -1.13673 0
M  V30 231 H 20.1963 -0.0752195 -4.10431 0
M  V30 232 H 18.8573 0.518008 -3.09799 0
M  V30 233 H 18.0503 -0.988076 -4.9422 0
M  V30 234 H 17.6523 -1.66815 -3.34737 0
M  V30 235 H 19.9443 -1.86791 -6.51241 0
M  V30 236 H 20.8873 -3.36572 -6.22997 0
M  V30 237 H 21.2953 -1.87894 -5.32312 0
M  V30 238 N 20.6934 1.19889 -1.02296 0
M  V30 239 C 21.6234 2.25141 -0.619174 0
M  V30 240 C 22.6044 1.66051 0.368915 0
M  V30 241 O 23.7894 1.92546 0.252941 0
M  V30 242 C 20.9194 3.4728 0.0368783 0
M  V30 243 C 19.8734 4.19005 -0.872865 0
M  V30 244 C 19.1994 5.34637 -0.0822402 0
M  V30 245 C 20.4994 4.74452 -2.18387 0
M  V30 246 H 22.1934 2.59171 -1.49903 0
M  V30 247 H 19.7394 1.24579 -0.722222 0
M  V30 248 H 21.6924 4.20098 0.330958 0
M  V30 249 H 20.4164 3.12433 0.95149 0
M  V30 250 H 19.0754 3.48061 -1.15105 0
M  V30 251 H 18.7234 4.96034 0.83422 0
M  V30 252 H 18.4234 5.83557 -0.688149 0
M  V30 253 H 19.9474 6.10255 0.205238 0
M  V30 254 H 21.3614 5.39055 -1.95172 0
M  V30 255 H 19.7584 5.33834 -2.74119 0
M  V30 256 H 20.8284 3.92844 -2.84257 0
M  V30 257 N 22.1715 0.800033 1.35784 0
M  V30 258 C 23.1345 0.211565 2.28221 0
M  V30 259 C 24.1345 -0.59728 1.49296 0
M  V30 260 O 25.3245 -0.416721 1.69142 0
M  V30 261 C 22.4565 -0.705846 3.33513 0
M  V30 262 H 23.6495 1.02677 2.81776 0
M  V30 263 H 21.2025 0.570211 1.45528 0
M  V30 264 H 21.9375 -1.54498 2.85133 0
M  V30 265 H 21.7225 -0.127655 3.91892 0
M  V30 266 H 23.2125 -1.11211 4.02519 0
M  V30 267 N 23.6496 -1.47581 0.552962 0
M  V30 268 C 24.8956 -2.03369 0.0355807 0
M  V30 269 C 25.2506 -1.42016 -1.29805 0
M  V30 270 O 24.5436 -0.564917 -1.83083 0
M  V30 271 C 24.7376 -3.57199 -0.119728 0
M  V30 272 C 24.5666 -4.33468 1.1973 0
M  V30 273 C 23.3366 -4.7353 1.76345 0
M  V30 274 C 25.5346 -4.68866 2.11351 0
M  V30 275 N 23.5166 -5.34426 3.02097 0
M  V30 276 C 24.8876 -5.3002 3.21681 0
M  V30 277 C 26.9426 -4.50795 2.11397 0
M  V30 278 C 25.6456 -5.75011 4.32151 0
M  V30 279 C 27.6716 -4.96782 3.20876 0
M  V30 280 C 27.0336 -5.57981 4.29926 0
M  V30 281 H 23.1326 -0.780058 0.0550806 0
M  V30 282 H 25.7166 -1.80117 0.739315 0
M  V30 283 H 23.8876 -3.80227 -0.792579 0
M  V30 284 H 25.6196 -3.99627 -0.638792 0
M  V30 285 H 22.3746 -4.55352 1.30196 0
M  V30 286 H 22.7986 -5.69421 3.66182 0
M  V30 287 H 27.4406 -4.0284 1.28372 0
M  V30 288 H 25.1586 -6.21959 5.15938 0
M  V30 289 H 28.7446 -4.84573 3.21994 0
M  V30 290 H 27.6246 -5.92918 5.13243 0
M  V30 291 N 25.1277 -0.289203 -1.54924 0
M  V30 292 C 26.3527 0.329299 -2.04769 0
M  V30 293 C 26.7777 1.4763 -1.16564 0
M  V30 294 O 26.1357 1.80527 -0.167186 0
M  V30 295 C 26.1837 0.774438 -3.52186 0
M  V30 296 O 25.2877 1.88038 -3.67036 0
M  V30 297 H 24.6287 0.0659259 -0.660719 0
M  V30 298 H 27.1587 -0.42761 -2.00082 0
M  V30 299 H 27.1687 1.06642 -3.93816 0
M  V30 300 H 25.8437 -0.0646707 -4.1585 0
M  V30 301 H 24.4207 1.58985 -3.3731 0
M  V30 302 N 26.6058 1.57591 -0.0167156 0
M  V30 303 C 27.5158 2.1291 0.98521 0
M  V30 304 C 28.5318 1.07834 1.36557 0
M  V30 305 O 29.7078 1.39826 1.44951 0
M  V30 306 C 26.7728 2.63512 2.25305 0
M  V30 307 C 25.8338 3.83256 1.93426 0
M  V30 308 C 25.0668 4.31435 3.14165 0
M  V30 309 O 25.2898 3.78851 4.26413 0
M  V30 310 O 24.2238 5.23416 2.97186 0
M  V30 311 H 28.0498 2.98772 0.544888 0
M  V30 312 H 25.6348 1.48012 0.203141 0
M  V30 313 H 27.5168 2.96183 2.99756 0
M  V30 314 H 26.1918 1.8074 2.68542 0
M  V30 315 H 25.0988 3.55531 1.16398 0
M  V30 316 H 26.4318 4.67153 1.55013 0
M  V30 317 N 28.0839 -0.256276 1.55502 0
M  V30 318 C 29.3319 -0.983672 1.76545 0
M  V30 319 C 29.6529 -1.86206 0.578982 0
M  V30 320 O 28.9229 -1.91656 -0.405577 0
M  V30 321 H 27.5029 -0.366191 0.651086 0
M  V30 322 H 30.1649 -0.276479 1.92929 0
M  V30 323 H 29.2609 -1.61087 2.67315 0
M  V30 324 N 29.562 -1.4872 -0.521534 0
M  V30 325 C 30.79 -1.60843 -1.30142 0
M  V30 326 C 31.205 -0.271897 -1.86832 0
M  V30 327 O 30.562 0.739969 -1.66825 0
M  V30 328 C 30.613 -2.66155 -2.4463 0
M  V30 329 O 30.334 -3.94623 -1.90275 0
M  V30 330 C 31.835 -2.88795 -3.36322 0
M  V30 331 H 29.055 -0.542075 -0.395468 0
M  V30 332 H 31.599 -1.94609 -0.628285 0
M  V30 333 H 29.754 -2.35224 -3.07812 0
M  V30 334 H 30.168 -4.52468 -2.65279 0
M  V30 335 H 31.642 -3.66264 -4.12983 0
M  V30 336 H 32.119 -1.97934 -3.9207 0
M  V30 337 H 32.725 -3.21063 -2.78924 0
M  V30 338 N 31.0401 0.771051 -1.3745 0
M  V30 339 C 32.3171 1.519 -1.23231 0
M  V30 340 C 32.6971 2.10383 0.173809 0
M  V30 341 O 32.0451 1.95583 1.18151 0
M  V30 342 C 32.2551 2.59933 -2.32886 0
M  V30 343 C 33.6031 3.27316 -2.70461 0
M  V30 344 O 34.6271 2.70228 -2.32068 0
M  V30 345 O 33.4861 4.30531 -3.36608 0
M  V30 346 H 30.5801 0.672803 -0.480901 0
M  V30 347 H 33.1261 0.807957 -1.49232 0
M  V30 348 H 31.8981 2.14842 -3.27045 0
M  V30 349 H 31.5211 3.38637 -2.08353 0
M  V30 350 N 32.5182 1.22032 0.997298 0
M  V30 351 C 33.4662 0.983634 2.10778 0
M  V30 352 C 34.4602 -0.0717564 1.69248 0
M  V30 353 O 35.6662 0.080304 1.79821 0
M  V30 354 H 32.0412 0.300877 0.689186 0
M  V30 355 H 34.0122 1.92606 2.27916 0
M  V30 356 C 32.7612 0.57326 3.42942 0
M  V30 357 H 32.0842 1.37702 3.75338 0
M  V30 358 H 33.5242 0.447031 4.21637 0
M  V30 359 C 31.9832 -0.7167 3.29188 0
M  V30 360 O 32.5132 -1.77027 3.60589 0
M  V30 361 N 30.7192 -0.686167 2.82383 0
M  V30 362 H 30.2662 0.171507 2.57028 0
M  V30 363 H 30.2242 -1.54955 2.73562 0
M  V30 364 N 33.9963 -1.19345 1.0293 0
M  V30 365 C 35.2443 -1.88665 0.724574 0
M  V30 366 C 35.5653 -1.80036 -0.749144 0
M  V30 367 O 34.8353 -1.2111 -1.53978 0
M  V30 368 H 33.4153 -0.698406 0.265025 0
M  V30 369 H 36.0773 -1.44885 1.30362 0
M  V30 370 H 35.1733 -2.94987 1.01926 0
M  V30 371 N 35.4744 -0.807222 -1.35358 0
M  V30 372 C 36.8904 -0.491038 -1.51858 0
M  V30 373 C 37.0904 0.987648 -1.75635 0
M  V30 374 O 36.1464 1.77265 -1.79815 0
M  V30 375 C 37.4594 -1.33695 -2.69344 0
M  V30 376 C 39.0074 -1.33246 -2.83222 0
M  V30 377 C 39.4824 -2.1625 -4.03733 0
M  V30 378 N 40.9734 -2.1379 -4.10911 0
M  V30 379 C 41.7084 -2.74772 -5.03277 0
M  V30 380 N 41.2044 -3.44684 -6.0097 0
M  V30 381 N 42.9974 -2.6441 -4.96028 0
M  V30 382 H 35.1484 -1.76485 -1.18181 0
M  V30 383 H 37.4114 -0.751199 -0.578276 0
M  V30 384 H 37.1174 -2.38634 -2.58354 0
M  V30 385 H 36.9914 -0.990618 -3.6396 0
M  V30 386 H 39.3784 -0.290911 -2.93663 0
M  V30 387 H 39.4594 -1.71866 -1.89461 0
M  V30 388 H 39.1034 -3.20445 -3.94052 0
M  V30 389 H 39.0334 -1.74989 -4.96675 0
M  V30 390 H 41.5244 -1.62923 -3.40976 0
M  V30 391 H 41.8374 -3.88501 -6.68047 0
M  V30 392 H 40.1824 -3.48788 -6.01142 0
M  V30 393 H 43.3734 -2.0938 -4.18662 0
M  V30 394 H 43.5464 -3.12225 -5.6782 0
M  V30 395 N 36.9525 1.47285 -0.560781 0
M  V30 396 C 37.8845 2.28118 0.222438 0
M  V30 397 C 38.8975 1.37219 0.876056 0
M  V30 398 O 40.0865 1.62011 0.749307 0
M  V30 399 C 37.1865 3.1159 1.33285 0
M  V30 400 C 36.3595 4.30473 0.77534 0
M  V30 401 C 35.4185 4.95513 1.77069 0
M  V30 402 O 34.4445 5.53792 1.31539 0
M  V30 403 N 35.6465 4.90531 3.10418 0
M  V30 404 H 38.4115 2.95976 -0.470958 0
M  V30 405 H 35.9725 1.56955 -0.39709 0
M  V30 406 H 37.9645 3.51967 1.99752 0
M  V30 407 H 36.5345 2.45951 1.92943 0
M  V30 408 H 35.7545 3.94144 -0.0662113 0
M  V30 409 H 37.0425 5.07362 0.382272 0
M  V30 410 H 36.4405 4.44389 3.5005 0
M  V30 411 H 34.9975 5.34917 3.72434 0
M  V30 412 N 38.4306 0.297415 1.54768 0
M  V30 413 C 39.3776 -0.580276 2.23386 0
M  V30 414 C 40.3476 -1.13238 1.21517 0
M  V30 415 O 41.5326 -1.17757 1.50126 0
M  V30 416 C 38.6726 -1.74801 2.97555 0
M  V30 417 C 37.7856 -1.22764 4.1419 0
M  V30 418 C 36.9206 -2.35895 4.75949 0
M  V30 419 C 35.9596 -1.80974 5.84735 0
M  V30 420 N 35.0966 -2.87664 6.40464 0
M  V30 421 H 39.9366 0.0114833 2.97998 0
M  V30 422 H 37.4736 0.0174361 1.4709 0
M  V30 423 H 39.4316 -2.43475 3.38786 0
M  V30 424 H 38.0616 -2.31145 2.25326 0
M  V30 425 H 37.1136 -0.433271 3.77924 0
M  V30 426 H 38.4256 -0.785551 4.92575 0
M  V30 427 H 37.5796 -3.12523 5.20014 0
M  V30 428 H 36.3186 -2.83429 3.96887 0
M  V30 429 H 35.3236 -1.02834 5.40097 0
M  V30 430 H 36.5486 -1.34348 6.65678 0
M  V30 431 H 34.4946 -3.34538 5.64287 0
M  V30 432 H 34.4116 -2.4794 7.14186 0
M  V30 433 H 35.6796 -3.642 6.89187 0
M  V30 434 N 39.9087 -1.5758 0.0250728 0
M  V30 435 C 41.1367 -1.9593 -0.664747 0
M  V30 436 C 41.5517 -0.901352 -1.65895 0
M  V30 437 O 40.9087 0.117255 -1.82123 0
M  V30 438 C 40.9597 -3.34342 -1.37468 0
M  V30 439 O 40.6807 -4.36079 -0.420324 0
M  V30 440 C 42.1817 -3.873 -2.1567 0
M  V30 441 H 39.4017 -0.645405 -0.183557 0
M  V30 442 H 41.9457 -2.04329 0.0836372 0
M  V30 443 H 40.1007 -3.27175 -2.0745 0
M  V30 444 H 40.5147 -5.16297 -0.923991 0
M  V30 445 H 41.9887 -4.86504 -2.60803 0
M  V30 446 H 42.4657 -3.21331 -2.99405 0
M  V30 447 H 43.0717 -3.97723 -1.50654 0
M  V30 448 N 41.3868 0.248026 -1.55636 0
M  V30 449 C 42.8028 0.596483 -1.48035 0
M  V30 450 C 43.0028 1.88386 -0.715039 0
M  V30 451 O 42.0588 2.51319 -0.243944 0
M  V30 452 C 43.3718 0.700258 -2.92433 0
M  V30 453 C 44.9198 0.792659 -3.02797 0
M  V30 454 C 45.3948 0.928005 -4.485 0
M  V30 455 N 46.8858 0.992903 -4.52433 0
M  V30 456 C 47.6208 1.11687 -5.62418 0
M  V30 457 N 47.1168 1.20645 -6.82214 0
M  V30 458 N 48.9098 1.14994 -5.50212 0
M  V30 459 H 41.0608 -0.597109 -2.03834 0
M  V30 460 H 43.3238 -0.205925 -0.925364 0
M  V30 461 H 43.0298 -0.175658 -3.51261 0
M  V30 462 H 42.9038 1.57255 -3.42857 0
M  V30 463 H 45.2908 1.65903 -2.4405 0
M  V30 464 H 45.3718 -0.104762 -2.55585 0
M  V30 465 H 45.0158 0.0661971 -5.07857 0
M  V30 466 H 44.9458 1.84045 -4.93391 0
M  V30 467 H 47.4368 0.935064 -3.66149 0
M  V30 468 H 47.7498 1.30008 -7.61786 0
M  V30 469 H 46.0948 1.17605 -6.84977 0
M  V30 470 H 49.2858 1.07643 -4.55555 0
M  V30 471 H 49.4588 1.24311 -6.35965 0
M  V30 472 N 42.8649 1.48995 0.513639 0
M  V30 473 C 43.8129 1.65199 1.63744 0
M  V30 474 C 44.8069 0.51809 1.61283 0
M  V30 475 O 46.0129 0.697335 1.65943 0
M  V30 476 H 42.3879 0.52069 0.542574 0
M  V30 477 H 44.3589 2.59552 1.47226 0
M  V30 478 C 43.1079 1.72409 3.01945 0
M  V30 479 H 42.4309 2.59029 3.04539 0
M  V30 480 H 43.8709 1.87785 3.80148 0
M  V30 481 C 42.3299 0.46618 3.33659 0
M  V30 482 O 42.8599 -0.413744 3.99564 0
M  V30 483 N 41.0659 0.332931 2.88687 0
M  V30 484 H 40.6129 1.04996 2.35231 0
M  V30 485 H 40.5709 -0.507665 3.10274 0
M  V30 486 N 44.343 -0.763751 1.37857 0
M  V30 487 C 45.293 -1.86765 1.30777 0
M  V30 488 C 46.277 -1.59726 0.194015 0
M  V30 489 O 47.469 -1.7172 0.42911 0
M  V30 490 C 44.598 -3.24343 1.12502 0
M  V30 491 C 43.684 -3.57307 2.28456 0
M  V30 492 N 44.075 -3.61398 3.53871 0
M  V30 493 C 42.373 -3.87517 2.20786 0
M  V30 494 C 43.074 -3.91339 4.30382 0
M  V30 495 N 42.05 -4.07649 3.59615 0
M  V30 496 H 45.852 -1.88191 2.25746 0
M  V30 497 H 43.366 -0.9606 1.30944 0
M  V30 498 H 45.363 -4.03327 1.05514 0
M  V30 499 H 44.023 -3.24175 0.184574 0
M  V30 500 H 45.034 -3.43407 3.87675 0
M  V30 501 H 41.711 -3.95125 1.34844 0
M  V30 502 H 43.101 -4.01213 5.3896 0
M  V30 503 N 45.8211 -1.22559 -0.990812 0
M  V30 504 C 47.0691 -1.04933 -1.72724 0
M  V30 505 C 47.3901 0.416158 -1.90508 0
M  V30 506 O 46.6601 1.29918 -1.46622 0
M  V30 507 H 45.2401 -0.385296 -0.639965 0
M  V30 508 H 47.9021 -1.54105 -1.19322 0
M  V30 509 H 46.9981 -1.52886 -2.72089 0
M  V30 510 N 47.2992 1.18797 -1.03562 0
M  V30 511 C 48.5292 1.92319 -0.754773 0
M  V30 512 C 48.9372 1.7612 0.691248 0
M  V30 513 O 48.2802 1.08491 1.48241 0
M  V30 514 C 48.3422 3.44284 -1.03484 0
M  V30 515 C 48.0062 3.84258 -2.47376 0
M  V30 516 C 49.0032 3.88459 -3.45537 0
M  V30 517 C 46.6882 4.15701 -2.81954 0
M  V30 518 C 48.6822 4.23545 -4.76328 0
M  V30 519 C 46.3692 4.50458 -4.12954 0
M  V30 520 C 47.3672 4.54356 -5.09951 0
M  V30 521 O 47.0552 4.88305 -6.38603 0
M  V30 522 H 46.7872 0.617527 -0.275021 0
M  V30 523 H 49.3412 1.51683 -1.38497 0
M  V30 524 H 47.5712 3.85135 -0.347513 0
M  V30 525 H 49.2602 3.99049 -0.7426 0
M  V30 526 H 50.0262 3.6431 -3.20162 0
M  V30 527 H 45.9052 4.11847 -2.0713 0
M  V30 528 H 49.4492 4.26502 -5.52035 0
M  V30 529 H 45.3462 4.74067 -4.38099 0
M  V30 530 H 46.1142 5.06227 -6.43177 0
M  V30 531 N 48.7773 0.814389 1.34928 0
M  V30 532 C 50.0543 0.321363 1.92942 0
M  V30 533 C 50.4343 -1.19014 1.74353 0
M  V30 534 O 49.7823 -1.99328 1.11716 0
M  V30 535 C 49.9923 0.741323 3.41036 0
M  V30 536 C 51.3403 0.735266 4.18185 0
M  V30 537 O 52.3643 0.68336 3.49584 0
M  V30 538 O 51.2233 0.800703 5.40602 0
M  V30 539 H 48.3173 0.0858893 0.822528 0
M  V30 540 H 50.8633 0.898609 1.43955 0
M  V30 541 H 49.6353 1.78276 3.4833 0
M  V30 542 H 49.2583 0.139307 3.97356 0
M  V30 543 N 50.2554 -1.46986 0.568584 0
M  V30 544 C 51.5014 -2.02741 0.0488709 0
M  V30 545 C 51.8344 -1.44077 -1.30214 0
M  V30 546 O 51.1094 -0.600552 -1.84996 0
M  V30 547 C 51.3924 -3.60086 -0.032047 0
M  V30 548 C 51.2454 -4.29162 1.34686 0
M  V30 549 C 52.5644 -4.33838 -0.739798 0
M  V30 550 H 49.6834 -0.736749 0.0192338 0
M  V30 551 H 52.3254 -1.75289 0.733065 0
M  V30 552 H 50.4754 -3.83606 -0.61473 0
M  V30 553 H 52.1474 -4.16948 1.97362 0
M  V30 554 H 50.3904 -3.89073 1.91846 0
M  V30 555 H 51.0614 -5.37826 1.24285 0
M  V30 556 H 53.5374 -4.15378 -0.244939 0
M  V30 557 H 52.4134 -5.43537 -0.765406 0
M  V30 558 H 52.6744 -4.03875 -1.79827 0
M  V30 559 N 51.7335 -0.305618 -1.54608 0
M  V30 560 C 52.9825 0.303098 -1.9941 0
M  V30 561 C 53.2955 1.54648 -1.19764 0
M  V30 562 O 54.5015 2.23007 -1.54855 0
M  V30 563 C 52.9575 0.590588 -3.55021 0
M  V30 564 C 52.5655 -0.634719 -4.43481 0
M  V30 565 C 54.3095 1.16025 -4.08336 0
M  V30 566 C 52.2165 -0.320126 -5.90533 0
M  V30 567 H 51.1465 0.117031 -0.744862 0
M  V30 568 H 53.7975 -0.415045 -1.78745 0
M  V30 569 H 52.1795 1.36845 -3.71604 0
M  V30 570 H 53.3535 -1.41079 -4.38672 0
M  V30 571 H 51.6685 -1.12333 -4.00962 0
M  V30 572 H 54.2655 1.40994 -5.15776 0
M  V30 573 H 54.6085 2.10397 -3.5922 0
M  V30 574 H 55.1415 0.443985 -3.95315 0
M  V30 575 H 51.8805 -1.23254 -6.43808 0
M  V30 576 H 51.4005 0.418579 -5.98338 0
M  V30 577 H 53.0795 0.0766241 -6.46955 0
M  V30 578 N 53.2116 1.57565 -0.0334293 0
M  V30 579 C 54.4576 1.92262 0.645226 0
M  V30 580 C 54.7906 0.910543 1.71531 0
M  V30 581 O 54.0656 -0.066099 1.94388 0
M  V30 582 C 54.3486 3.37422 1.2577 0
M  V30 583 C 54.2016 4.49369 0.196891 0
M  V30 584 C 55.5206 3.82628 2.17449 0
M  V30 585 H 52.6396 0.699171 0.233085 0
M  V30 586 H 55.2816 1.89779 -0.0915694 0
M  V30 587 H 53.4316 3.39669 1.88566 0
M  V30 588 H 55.1036 4.59254 -0.433962 0
M  V30 589 H 53.3466 4.31168 -0.477137 0
M  V30 590 H 54.0176 5.47978 0.665124 0
M  V30 591 H 56.4936 3.82145 1.64634 0
M  V30 592 H 55.3696 4.84883 2.57254 0
M  V30 593 H 55.6306 3.18376 3.0674 0
M  V30 594 N 54.6897 -0.239769 1.55765 0
M  V30 595 C 55.9377 -0.964892 1.77579 0
M  V30 596 C 56.2587 -1.85582 0.598699 0
M  V30 597 O 55.5287 -1.92075 -0.385226 0
M  V30 598 H 54.1087 -0.359265 0.654933 0
M  V30 599 H 56.7707 -0.256001 1.93211 0
M  V30 600 H 55.8667 -1.58243 2.69009 0
M  V30 601 N 56.1678 -1.49265 -0.50573 0
M  V30 602 C 57.4158 -1.582 -1.25766 0
M  V30 603 C 57.7368 -0.268482 -1.93143 0
M  V30 604 O 57.0068 0.711833 -1.8251 0
M  V30 605 H 55.5868 -0.582873 -0.467191 0
M  V30 606 H 58.2488 -1.85865 -0.586525 0
M  V30 607 H 57.3448 -2.37563 -2.02412 0
M  V30 608 N 57.6459 0.756429 -1.3826 0
M  V30 609 C 58.5559 1.9009 -1.37488 0
M  V30 610 C 59.5719 1.71855 -0.272366 0
M  V30 611 O 60.7479 1.94827 -0.510318 0
M  V30 612 C 57.8129 3.25421 -1.19592 0
M  V30 613 C 56.8739 3.56202 -2.39622 0
M  V30 614 C 56.1069 4.85075 -2.2257 0
M  V30 615 O 56.3299 5.57246 -1.21793 0
M  V30 616 O 55.2639 5.15269 -3.11098 0
M  V30 617 H 59.0899 1.93695 -2.33914 0
M  V30 618 H 56.6749 0.901313 -1.1915 0
M  V30 619 H 58.5569 4.06337 -1.11661 0
M  V30 620 H 57.2319 3.22634 -0.262486 0
M  V30 621 H 56.1389 2.75458 -2.53128 0
M  V30 622 H 57.4719 3.63747 -3.31586 0
M  V30 623 N 59.124 1.23083 0.984299 0
M  V30 624 C 60.054 1.03292 2.09411 0
M  V30 625 C 61.035 -0.048923 1.7003 0
M  V30 626 O 62.22 0.114967 1.93859 0
M  V30 627 C 59.35 0.619155 3.41736 0
M  V30 628 C 58.304 1.64791 3.95004 0
M  V30 629 C 57.63 1.0897 5.23478 0
M  V30 630 C 58.93 3.03999 4.24714 0
M  V30 631 H 60.624 1.96119 2.26225 0
M  V30 632 H 58.17 0.944344 1.08711 0
M  V30 633 H 60.123 0.467777 4.18796 0
M  V30 634 H 58.847 -0.344786 3.24775 0
M  V30 635 H 57.506 1.78721 3.20085 0
M  V30 636 H 57.154 0.11686 5.02864 0
M  V30 637 H 56.854 1.77704 5.60085 0
M  V30 638 H 58.378 0.950093 6.03163 0
M  V30 639 H 59.792 2.93393 4.92538 0
M  V30 640 H 58.189 3.69936 4.72512 0
M  V30 641 H 59.259 3.53285 3.32142 0
M  V30 642 N 60.6021 -1.18246 1.0419 0
M  V30 643 C 61.8491 -1.88257 0.746017 0
M  V30 644 C 62.1771 -1.80429 -0.726331 0
M  V30 645 O 61.4321 -1.2 -1.54591 0
M  V30 646 C 61.7311 -3.38082 1.15911 0
M  V30 647 C 61.3971 -3.66114 2.63195 0
M  V30 648 C 60.0591 -3.73474 3.03432 0
M  V30 649 C 62.4111 -3.78398 3.5842 0
M  V30 650 C 59.7391 -3.90599 4.37778 0
M  V30 651 C 62.0911 -3.97039 4.92487 0
M  V30 652 C 60.7551 -4.02635 5.32392 0
M  V30 653 H 60.0251 -0.688883 0.272987 0
M  V30 654 H 62.6721 -1.3995 1.30715 0
M  V30 655 H 60.9771 -3.88377 0.516806 0
M  V30 656 H 62.6741 -3.90596 0.907516 0
M  V30 657 H 59.2641 -3.61003 2.3103 0
M  V30 658 H 63.4481 -3.72042 3.28479 0
M  V30 659 H 58.7041 -3.93175 4.68213 0
M  V30 660 H 62.8781 -4.05486 5.66175 0
M  V30 661 H 60.5051 -4.15657 6.36501 0
M  V30 662 N 62.0802 -0.821533 -1.34494 0
M  V30 663 C 63.3082 -0.421884 -2.02553 0
M  V30 664 C 63.7232 0.971745 -1.61872 0
M  V30 665 O 63.0802 1.62864 -0.823496 0
M  V30 666 C 63.1312 -0.51285 -3.57844 0
M  V30 667 O 62.8522 -1.85155 -3.97051 0
M  V30 668 C 64.3532 -0.107921 -4.43169 0
M  V30 669 H 61.5732 -0.169482 -0.649243 0
M  V30 670 H 64.1172 -1.1093 -1.71798 0
M  V30 671 H 62.2722 0.126474 -3.87193 0
M  V30 672 H 62.6862 -1.82482 -4.91732 0
M  V30 673 H 64.1602 -0.222657 -5.51551 0
M  V30 674 H 64.6372 0.948401 -4.28838 0
M  V30 675 H 65.2432 -0.720989 -4.19144 0
M  V30 676 N 63.5583 1.46682 -0.576371 0
M  V30 677 C 64.8353 1.95599 0.00703437 0
M  V30 678 C 65.2153 1.51904 1.46589 0
M  V30 679 O 64.5633 0.766755 2.15251 0
M  V30 680 C 64.7733 3.4864 -0.158404 0
M  V30 681 C 66.1213 4.24594 -0.0229439 0
M  V30 682 O 67.1453 3.56094 -0.0869173 0
M  V30 683 O 66.0043 5.46373 0.118015 0
M  V30 684 H 63.0983 0.825275 0.053384 0
M  V30 685 H 65.6443 1.56996 -0.644244 0
M  V30 686 H 64.4163 3.7331 -1.17282 0
M  V30 687 H 64.0393 3.94057 0.5296 0
M  V30 688 N 65.0364 0.313813 1.54444 0
M  V30 689 C 66.2664 -0.293491 2.04505 0
M  V30 690 C 66.6744 -1.47086 1.19005 0
M  V30 691 O 66.0174 -1.82481 0.211257 0
M  V30 692 C 66.0794 -0.800455 3.50475 0
M  V30 693 C 65.7434 0.253322 4.56297 0
M  V30 694 C 66.7404 1.08612 5.08428 0
M  V30 695 C 64.4254 0.398708 5.00715 0
M  V30 696 C 66.4194 2.05013 6.0353 0
M  V30 697 C 64.1064 1.36614 5.95634 0
M  V30 698 C 65.1044 2.19033 6.46926 0
M  V30 699 O 64.7924 3.14134 7.39983 0
M  V30 700 H 64.5244 -0.0658325 0.672787 0
M  V30 701 H 67.0784 0.455177 2.00293 0
M  V30 702 H 65.3084 -1.59987 3.52053 0
M  V30 703 H 66.9974 -1.32504 3.83663 0
M  V30 704 H 67.7634 0.984736 4.74898 0
M  V30 705 H 63.6424 -0.23289 4.60411 0
M  V30 706 H 67.1864 2.69382 6.4349 0
M  V30 707 H 63.0834 1.4682 6.28581 0
M  V30 708 H 63.8514 3.0926 7.57826 0
M  V30 709 N 66.5145 -1.57545 0.0417849 0
M  V30 710 C 67.7395 -1.97035 -0.647455 0
M  V30 711 C 68.1645 -0.918775 -1.64135 0
M  V30 712 O 67.5225 0.119006 -1.80909 0
M  V30 713 C 67.5705 -3.35609 -1.31905 0
M  V30 714 O 66.6745 -3.3287 -2.43457 0
M  V30 715 H 66.0155 -0.64211 -0.169086 0
M  V30 716 H 68.5455 -2.04318 0.107399 0
M  V30 717 H 68.5555 -3.72126 -1.67291 0
M  V30 718 H 67.2305 -4.11685 -0.590586 0
M  V30 719 H 65.8075 -3.08087 -2.10088 0
M  V30 720 N 67.9926 0.231505 -1.5589 0
M  V30 721 C 69.2696 0.981096 -1.69215 0
M  V30 722 C 69.6496 2.02799 -0.586164 0
M  V30 723 O 68.9976 2.24823 0.408253 0
M  V30 724 C 69.2076 1.60054 -3.10135 0
M  V30 725 C 70.5556 2.09658 -3.69227 0
M  V30 726 O 71.5796 1.69967 -3.13033 0
M  V30 727 O 70.4386 2.8258 -4.67772 0
M  V30 728 H 67.5326 0.457653 -0.688827 0
M  V30 729 H 70.0786 0.224073 -1.68214 0
M  V30 730 H 68.8506 0.844105 -3.82087 0
M  V30 731 H 68.4736 2.42336 -3.15212 0
M  V30 732 N 69.4707 1.49531 0.497807 0
M  V30 733 C 70.4207 1.62829 1.59596 0
M  V30 734 C 71.4047 0.483824 1.53453 0
M  V30 735 O 72.5967 0.736937 1.60929 0
M  V30 736 C 69.7257 1.7011 2.98191 0
M  V30 737 C 68.8117 2.90144 3.09317 0
M  V30 738 N 69.2027 4.1418 2.90324 0
M  V30 739 C 67.5007 2.88148 3.40422 0
M  V30 740 C 68.2017 4.94886 3.05717 0
M  V30 741 N 67.1777 4.28314 3.34736 0
M  V30 742 H 70.9797 2.56446 1.4357 0
M  V30 743 H 68.4937 1.46347 0.704001 0
M  V30 744 H 70.4907 1.77735 3.77115 0
M  V30 745 H 69.1507 0.776315 3.15283 0
M  V30 746 H 70.1617 4.44109 2.66436 0
M  V30 747 H 66.8387 2.05061 3.63671 0
M  V30 748 H 68.2287 6.03432 2.95499 0
M  V30 749 N 70.9488 -0.749086 1.3866 0
M  V30 750 C 72.3598 -1.32664 1.31366 0
M  V30 751 C 72.7108 -1.96179 -0.028484 0
M  V30 752 O 71.8358 -1.9537 -0.93057 0
M  V30 753 C 72.4308 -2.41219 2.37905 0
M  V30 754 C 70.9898 -2.94684 2.34176 0
M  V30 755 C 70.1368 -1.68108 2.20533 0
M  V30 756 H 73.0878 -0.547628 1.48952 0
M  V30 757 H 73.1088 -3.21268 2.0388 0
M  V30 758 H 72.6208 -1.94962 3.35576 0
M  V30 759 H 70.7218 -3.45258 1.401 0
M  V30 760 H 70.8348 -3.48757 3.2849 0
M  V30 761 H 69.1988 -1.91907 1.67463 0
M  V30 762 H 69.9818 -1.23923 3.20153 0
M  V30 763 N 72.4269 -1.23603 -0.977757 0
M  V30 764 C 73.8429 -0.999251 -1.24447 0
M  V30 765 C 74.0429 0.298053 -1.99283 0
M  V30 766 O 73.0989 1.01681 -2.31122 0
M  V30 767 C 74.4119 -2.20784 -2.04144 0
M  V30 768 C 75.9599 -2.25303 -2.17273 0
M  V30 769 C 76.4349 -3.45755 -3.00362 0
M  V30 770 N 77.9259 -3.4601 -3.07947 0
M  V30 771 C 78.6609 -4.35868 -3.72568 0
M  V30 772 N 78.1569 -5.35966 -4.38991 0
M  V30 773 N 79.9499 -4.23605 -3.6948 0
M  V30 774 H 72.1009 -2.06986 -0.476483 0
M  V30 775 H 74.3639 -0.907801 -0.273134 0
M  V30 776 H 74.0699 -3.14945 -1.56533 0
M  V30 777 H 73.9439 -2.22085 -3.04891 0
M  V30 778 H 76.3309 -1.3168 -2.64092 0
M  V30 779 H 76.4119 -2.28033 -1.15907 0
M  V30 780 H 76.0559 -4.39687 -2.5424 0
M  V30 781 H 75.9859 -3.40266 -4.01904 0
M  V30 782 H 78.4769 -2.73588 -2.60688 0
M  V30 783 H 78.7899 -6.00783 -4.86086 0
M  V30 784 H 77.1349 -5.39863 -4.37691 0
M  V30 785 H 80.3259 -3.44647 -3.16759 0
M  V30 786 H 80.4989 -4.93836 -4.1956 0
M  V30 787 N 73.905 1.17692 -1.04816 0
M  V30 788 C 74.852 2.21581 -0.645797 0
M  V30 789 C 75.822 1.62367 0.350159 0
M  V30 790 O 77.007 1.89254 0.242433 0
M  V30 791 C 74.147 3.45092 -0.0227568 0
M  V30 792 C 73.26 4.18613 -1.06709 0
M  V30 793 C 72.395 5.29602 -0.411767 0
M  V30 794 C 71.434 5.94904 -1.44067 0
M  V30 795 N 70.571 6.97414 -0.809781 0
M  V30 796 H 75.411 2.55353 -1.5362 0
M  V30 797 H 72.948 1.25438 -0.768364 0
M  V30 798 H 74.906 4.15679 0.35588 0
M  V30 799 H 73.536 3.11917 0.831122 0
M  V30 800 H 72.588 3.46779 -1.5636 0
M  V30 801 H 73.9 4.63293 -1.84827 0
M  V30 802 H 73.054 6.06696 0.0206623 0
M  V30 803 H 71.793 4.86045 0.401438 0
M  V30 804 H 70.798 5.16544 -1.88316 0
M  V30 805 H 72.023 6.40542 -2.25571 0
M  V30 806 H 69.969 6.55998 -0.0170186 0
M  V30 807 H 69.886 7.40386 -1.52856 0
M  V30 808 H 71.154 7.78463 -0.401999 0
M  V30 809 N 75.3831 0.828654 1.34056 0
M  V30 810 C 76.3131 0.269443 2.3194 0
M  V30 811 C 77.2941 -0.617247 1.58506 0
M  V30 812 O 78.4791 -0.542931 1.86456 0
M  V30 813 C 75.6091 -0.564793 3.42677 0
M  V30 814 C 74.5631 0.225241 4.27407 0
M  V30 815 C 73.8891 -0.7321 5.29664 0
M  V30 816 C 75.1891 1.43663 5.02154 0
M  V30 817 H 76.8831 1.08728 2.7896 0
M  V30 818 H 74.4291 0.524283 1.34117 0
M  V30 819 H 76.3821 -0.966233 4.10173 0
M  V30 820 H 75.1061 -1.41574 2.9432 0
M  V30 821 H 73.7651 0.608117 3.61521 0
M  V30 822 H 73.4131 -1.57916 4.77568 0
M  V30 823 H 73.1131 -0.20767 5.87233 0
M  V30 824 H 74.6371 -1.13128 6.00029 0
M  V30 825 H 76.0511 1.1089 5.62473 0
M  V30 826 H 74.4481 1.89711 5.69324 0
M  V30 827 H 75.5181 2.21181 4.31517 0
M  V30 828 N 76.8612 -1.46375 0.584142 0
M  V30 829 C 78.1072 -2.02678 0.0703716 0
M  V30 830 C 78.4402 -1.4545 -1.28678 0
M  V30 831 O 77.7152 -0.62014 -1.84349 0
M  V30 832 C 77.9982 -3.60099 0.00614674 0
M  V30 833 C 77.8512 -4.27709 1.3923 0
M  V30 834 C 79.1702 -4.34598 -0.693742 0
M  V30 835 H 76.2892 -0.736504 0.027047 0
M  V30 836 H 78.9312 -1.74501 0.751615 0
M  V30 837 H 77.0812 -3.84236 -0.574009 0
M  V30 838 H 78.7532 -4.14832 2.01773 0
M  V30 839 H 76.9962 -3.87016 1.95962 0
M  V30 840 H 77.6672 -5.36478 1.29982 0
M  V30 841 H 80.1432 -4.15615 -0.200869 0
M  V30 842 H 79.0192 -5.44318 -0.707714 0
M  V30 843 H 79.2802 -4.05759 -1.75533 0
M  V30 844 N 78.3393 -0.321999 -1.54275 0
M  V30 845 C 79.5673 0.283052 -2.04955 0
M  V30 846 C 79.9823 1.45904 -1.19823 0
M  V30 847 O 79.3393 1.81063 -0.228545 0
M  V30 848 C 79.3903 0.719028 -3.54277 0
M  V30 849 O 79.1113 -0.410175 -4.36176 0
M  V30 850 C 80.6123 1.38705 -4.21041 0
M  V30 851 H 77.8323 0.0584616 -0.668448 0
M  V30 852 H 80.3763 -0.467734 -1.99079 0
M  V30 853 H 78.5313 1.41979 -3.60445 0
M  V30 854 H 78.9453 -0.0669416 -5.24457 0
M  V30 855 H 80.4193 1.64306 -5.2698 0
M  V30 856 H 80.8963 2.33385 -3.72059 0
M  V30 857 H 81.5023 0.728906 -4.19007 0
M  V30 858 N 79.8174 1.5752 -0.0501392 0
M  V30 859 C 80.7474 2.14502 0.922566 0
M  V30 860 C 81.7284 1.06642 1.3252 0
M  V30 861 O 82.9134 1.34577 1.4001 0
M  V30 862 C 80.0434 2.68916 2.19776 0
M  V30 863 C 78.9974 3.8175 1.93523 0
M  V30 864 C 78.3234 4.22677 3.27487 0
M  V30 865 C 79.6234 5.06932 1.25765 0
M  V30 866 H 81.3174 2.9603 0.447952 0
M  V30 867 H 78.8634 1.42401 0.214024 0
M  V30 868 H 80.8164 3.07419 2.88222 0
M  V30 869 H 79.5404 1.84578 2.69441 0
M  V30 870 H 78.1994 3.43718 1.27489 0
M  V30 871 H 77.8474 3.35291 3.74952 0
M  V30 872 H 77.5474 4.98725 3.1072 0
M  V30 873 H 79.0714 4.63779 3.97166 0
M  V30 874 H 80.4854 5.42888 1.84244 0
M  V30 875 H 78.8824 5.88116 1.19328 0
M  V30 876 H 79.9524 4.84337 0.233536 0
M  V30 877 N 81.2955 -0.223234 1.56011 0
M  V30 878 C 82.2435 -1.29627 1.93131 0
M  V30 879 C 83.2375 -1.48608 0.813146 0
M  V30 880 O 84.4435 -1.49802 0.997966 0
M  V30 881 H 80.8185 -0.434563 0.613726 0
M  V30 882 H 82.7895 -0.955995 2.82672 0
M  V30 883 C 81.5385 -2.63983 2.26292 0
M  V30 884 H 80.8615 -2.50185 3.11846 0
M  V30 885 H 82.3015 -3.3788 2.56151 0
M  V30 886 C 80.7605 -3.18866 1.08747 0
M  V30 887 O 81.2905 -4.00192 0.347727 0
M  V30 888 N 79.4965 -2.77217 0.871743 0
M  V30 889 H 79.0435 -2.1119 1.47501 0
M  V30 890 H 79.0015 -3.1428 0.0869905 0
M  V30 891 N 82.7736 -1.49793 -0.48987 0
M  V30 892 C 84.1846 -1.52914 -1.07118 0
M  V30 893 C 84.5356 -0.321738 -1.93544 0
M  V30 894 O 83.6606 0.567338 -2.08831 0
M  V30 895 C 84.2556 -2.771 -1.94938 0
M  V30 896 C 82.8146 -2.82963 -2.48212 0
M  V30 897 C 81.9616 -2.46972 -1.26096 0
M  V30 898 H 84.9126 -1.56329 -0.273289 0
M  V30 899 H 84.9336 -2.57892 -2.79771 0
M  V30 900 H 84.4456 -3.64959 -1.32009 0
M  V30 901 H 82.5466 -1.99411 -3.14748 0
M  V30 902 H 82.6596 -3.85406 -2.84603 0
M  V30 903 H 81.0236 -1.98994 -1.58976 0
M  V30 904 H 81.8066 -3.37118 -0.648581 0
M  V30 905 N 84.2517 0.741722 -1.39055 0
M  V30 906 C 85.1987 1.85566 -1.37237 0
M  V30 907 C 86.1687 1.64457 -0.233072 0
M  V30 908 O 87.3537 1.85957 -0.427147 0
M  V30 909 C 84.4937 3.23004 -1.215 0
M  V30 910 C 83.6067 3.55864 -2.44918 0
M  V30 911 C 82.7417 4.82669 -2.21821 0
M  V30 912 C 81.7807 5.08351 -3.40948 0
M  V30 913 N 80.9177 6.26356 -3.17211 0
M  V30 914 H 85.7577 1.86455 -2.32462 0
M  V30 915 H 83.2947 0.911176 -1.15482 0
M  V30 916 H 85.2527 4.02331 -1.10389 0
M  V30 917 H 83.8827 3.21411 -0.29908 0
M  V30 918 H 82.9347 2.7129 -2.66657 0
M  V30 919 H 84.2467 3.70765 -3.33668 0
M  V30 920 H 83.4007 5.69962 -2.07914 0
M  V30 921 H 82.1397 4.69929 -1.30454 0
M  V30 922 H 81.1447 4.19522 -3.55361 0
M  V30 923 H 82.3697 5.22981 -4.33207 0
M  V30 924 H 80.3157 6.14917 -2.28502 0
M  V30 925 H 80.2327 6.41813 -3.99515 0
M  V30 926 H 81.5007 7.16506 -3.06984 0
M  V30 927 N 85.7298 1.2412 0.971189 0
M  V30 928 C 86.6598 1.05508 2.08304 0
M  V30 929 C 87.6408 -0.0308864 1.70072 0
M  V30 930 O 88.8258 0.135521 1.93727 0
M  V30 931 C 85.9558 0.655365 3.4106 0
M  V30 932 C 84.9098 1.68971 3.93234 0
M  V30 933 C 84.2358 1.14516 5.22293 0
M  V30 934 C 85.5358 3.08487 4.21465 0
M  V30 935 H 87.2298 1.98507 2.24132 0
M  V30 936 H 84.7758 0.955821 1.07704 0
M  V30 937 H 86.7288 0.51217 4.18276 0
M  V30 938 H 85.4528 -0.31032 3.25122 0
M  V30 939 H 84.1118 1.82106 3.18171 0
M  V30 940 H 83.7598 0.170189 5.02712 0
M  V30 941 H 83.4598 1.83635 5.58168 0
M  V30 942 H 84.9838 1.01401 6.02121 0
M  V30 943 H 86.3978 2.98601 4.89398 0
M  V30 944 H 84.7948 3.74926 4.68562 0
M  V30 945 H 85.8648 3.56787 3.28376 0
M  V30 946 N 87.2079 -1.17134 1.05439 0
M  V30 947 C 88.1549 -2.21235 0.657539 0
M  V30 948 C 89.1249 -1.62551 -0.341543 0
M  V30 949 O 90.3099 -1.89379 -0.232393 0
M  V30 950 C 87.4499 -3.45076 0.0410575 0
M  V30 951 C 86.5629 -4.18042 1.08927 0
M  V30 952 C 85.6979 -5.29376 0.439848 0
M  V30 953 C 84.7369 -5.94132 1.4722 0
M  V30 954 N 83.8739 -6.96975 0.846756 0
M  V30 955 H 88.7139 -2.54534 1.54972 0
M  V30 956 H 86.2509 -1.25028 0.775006 0
M  V30 957 H 88.2089 -4.15862 -0.33383 0
M  V30 958 H 86.8389 -3.12353 -0.814568 0
M  V30 959 H 85.8909 -3.45945 1.58196 0
M  V30 960 H 87.2029 -4.62306 1.87282 0
M  V30 961 H 86.3569 -6.06699 0.0115125 0
M  V30 962 H 85.0959 -4.86251 -0.375656 0
M  V30 963 H 84.1009 -5.15538 1.91052 0
M  V30 964 H 85.3259 -6.39337 2.28965 0
M  V30 965 H 83.2719 -6.5598 0.0518075 0
M  V30 966 H 83.1889 -7.39565 1.5678 0
M  V30 967 H 84.4569 -7.78239 0.443277 0
M  V30 968 N 88.686 -0.835752 -1.33615 0
M  V30 969 C 89.911 -0.442389 -2.02627 0
M  V30 970 C 90.336 0.947735 -1.62479 0
M  V30 971 O 89.694 1.61907 -0.815826 0
M  V30 972 C 89.742 -0.567216 -3.56111 0
M  V30 973 O 88.846 0.407799 -4.10379 0
M  V30 974 H 88.187 -0.180278 -0.639059 0
M  V30 975 H 90.717 -1.12972 -1.70583 0
M  V30 976 H 90.727 -0.447708 -4.05536 0
M  V30 977 H 89.402 -1.58103 -3.84677 0
M  V30 978 H 87.979 0.246107 -3.72087 0
M  V30 979 N 90.1641 1.46063 -0.591896 0
M  V30 980 C 91.3921 2.06717 -0.0868936 0
M  V30 981 C 91.8071 1.43916 1.22203 0
M  V30 982 O 91.1641 0.547698 1.74088 0
M  V30 983 C 91.2151 3.6142 0.0758725 0
M  V30 984 O 90.9361 4.21874 -1.18126 0
M  V30 985 C 92.4371 4.39025 0.61416 0
M  V30 986 H 89.6571 0.668162 -0.0616518 0
M  V30 987 H 92.2011 1.8755 -0.815175 0
M  V30 988 H 90.3561 3.79983 0.754413 0
M  V30 989 H 90.7701 5.14861 -1.00092 0
M  V30 990 H 92.2441 5.4783 0.677193 0
M  V30 991 H 92.7211 4.07708 1.63312 0
M  V30 992 H 93.3271 4.2529 -0.0298142 0
M  V30 993 N 91.6422 0.330177 1.54103 0
M  V30 994 C 92.8902 -0.269871 2.0029 0
M  V30 995 C 93.2112 -1.52133 1.21986 0
M  V30 996 O 92.4812 -1.93212 0.323438 0
M  V30 997 H 91.0612 -0.10271 0.739905 0
M  V30 998 H 93.7232 0.448249 1.89675 0
M  V30 999 H 92.8192 -0.52166 3.07709 0
M  V30 1000 N 93.1203 -1.57491 0.0584922 0
M  V30 1001 C 94.0833 -2.1085 -0.898617 0
M  V30 1002 C 95.0833 -1.02964 -1.23511 0
M  V30 1003 O 96.2733 -1.29007 -1.17059 0
M  V30 1004 C 93.4053 -2.59881 -2.20623 0
M  V30 1005 H 94.5983 -2.96715 -0.435936 0
M  V30 1006 H 92.1513 -1.55141 -0.190023 0
M  V30 1007 H 92.8863 -1.77431 -2.71457 0
M  V30 1008 H 92.6713 -3.38727 -1.97501 0
M  V30 1009 H 94.1613 -3.01285 -2.89166 0
M  V30 1010 N 94.5984 0.214957 -1.56127 0
M  V30 1011 C 95.8464 0.936518 -1.79091 0
M  V30 1012 C 96.1674 1.84606 -0.628148 0
M  V30 1013 O 95.4374 1.92664 0.35462 0
M  V30 1014 H 94.0174 0.3488 -0.660566 0
M  V30 1015 H 96.6794 0.22523 -1.93594 0
M  V30 1016 H 95.7754 1.53943 -2.71492 0
M  V30 1017 N 96.0765 1.50051 0.48192 0
M  V30 1018 C 97.4925 1.37237 0.814756 0
M  V30 1019 C 97.6925 0.420109 1.97072 0
M  V30 1020 O 96.7485 -0.141246 2.52105 0
M  V30 1021 C 98.0615 2.78375 1.13701 0
M  V30 1022 C 99.6095 2.87213 1.2441 0
M  V30 1023 C 100.084 4.29161 1.59954 0
M  V30 1024 N 101.575 4.32061 1.66967 0
M  V30 1025 C 102.31 5.38879 1.95952 0
M  V30 1026 N 101.806 6.55918 2.23031 0
M  V30 1027 N 103.599 5.26312 1.97363 0
M  V30 1028 H 95.7505 2.10546 -0.28005 0
M  V30 1029 H 98.0135 0.945921 -0.0627454 0
M  V30 1030 H 97.7195 3.49845 0.360787 0
M  V30 1031 H 97.5935 3.14941 2.07586 0
M  V30 1032 H 99.9805 2.15969 2.01101 0
M  V30 1033 H 100.061 2.54204 0.285299 0
M  V30 1034 H 99.7055 5.00938 0.838067 0
M  V30 1035 H 99.6355 4.59648 2.56966 0
M  V30 1036 H 102.126 3.47661 1.48123 0
M  V30 1037 H 102.439 7.33139 2.44391 0
M  V30 1038 H 100.784 6.59112 2.20447 0
M  V30 1039 H 103.975 4.33876 1.75697 0
M  V30 1040 H 104.148 6.09649 2.19618 0
M  V30 1041 N 97.5546 -0.734337 1.39446 0
M  V30 1042 C 98.7846 -1.52137 1.39778 0
M  V30 1043 C 99.1926 -1.89198 -0.00929312 0
M  V30 1044 O 98.5356 -1.54666 -0.991168 0
M  V30 1045 C 98.5976 -2.83762 2.20724 0
M  V30 1046 C 98.2616 -2.69131 3.69347 0
M  V30 1047 C 99.2586 -2.37635 4.62413 0
M  V30 1048 C 96.9436 -2.85982 4.1294 0
M  V30 1049 C 98.9376 -2.23172 5.97054 0
M  V30 1050 C 96.6246 -2.71137 5.47657 0
M  V30 1051 C 97.6226 -2.39777 6.39528 0
M  V30 1052 O 97.3106 -2.25026 7.71763 0
M  V30 1053 H 97.0426 -0.476717 0.479288 0
M  V30 1054 H 99.5966 -0.915012 1.83893 0
M  V30 1055 H 97.8266 -3.4666 1.71359 0
M  V30 1056 H 99.5156 -3.45383 2.13226 0
M  V30 1057 H 100.282 -2.24267 4.30034 0
M  V30 1058 H 96.1606 -3.09383 3.41765 0
M  V30 1059 H 99.7046 -1.98617 6.68728 0
M  V30 1060 H 95.6016 -2.84083 5.79626 0
M  V30 1061 H 96.3696 -2.40091 7.82495 0
M  V30 1062 N 99.0327 -1.24633 -0.964593 0
M  V30 1063 C 99.9647 -0.999302 -2.06268 0
M  V30 1064 C 100.978 0.0323226 -1.62768 0
M  V30 1065 O 102.167 -0.205079 -1.77318 0
M  V30 1066 C 99.2667 -0.486816 -3.35385 0
M  V30 1067 C 98.4397 -1.5823 -4.07777 0
M  V30 1068 C 97.4987 -1.07191 -5.15166 0
M  V30 1069 O 96.5247 -1.76426 -5.41168 0
M  V30 1070 N 97.7267 0.0920373 -5.80427 0
M  V30 1071 H 100.492 -1.94477 -2.28033 0
M  V30 1072 H 98.0527 -1.15704 -1.13244 0
M  V30 1073 H 100.045 -0.130066 -4.04491 0
M  V30 1074 H 98.6147 0.364459 -3.10468 0
M  V30 1075 H 97.8347 -2.11109 -3.32906 0
M  V30 1076 H 99.1227 -2.31854 -4.52903 0
M  V30 1077 H 98.5207 0.670784 -5.61709 0
M  V30 1078 H 97.0777 0.389905 -6.50633 0
M  V30 1079 N 100.511 1.16574 -1.06058 0
M  V30 1080 C 101.441 2.23057 -0.690488 0
M  V30 1081 C 102.422 1.67141 0.315901 0
M  V30 1082 O 103.607 1.93253 0.191556 0
M  V30 1083 C 100.737 3.47222 -0.073625 0
M  V30 1084 C 99.6908 4.16016 -1.00573 0
M  V30 1085 C 99.0168 5.34104 -0.252289 0
M  V30 1086 C 100.317 4.67264 -2.33371 0
M  V30 1087 H 102.011 2.54271 -1.58072 0
M  V30 1088 H 99.5568 1.22218 -0.76149 0
M  V30 1089 H 101.51 4.20939 0.19714 0
M  V30 1090 H 100.234 3.15302 0.85161 0
M  V30 1091 H 98.8928 3.44223 -1.2612 0
M  V30 1092 H 98.5408 4.98437 0.675988 0
M  V30 1093 H 98.2408 5.81072 -0.873455 0
M  V30 1094 H 99.7648 6.10599 0.0109857 0
M  V30 1095 H 101.179 5.32573 -2.12223 0
M  V30 1096 H 99.5758 5.24843 -2.90963 0
M  V30 1097 H 100.646 3.83602 -2.96611 0
M  V30 1098 N 101.989 0.842826 1.3317 0
M  V30 1099 C 102.919 0.294028 2.31641 0
M  V30 1100 C 103.9 -0.600401 1.59151 0
M  V30 1101 O 105.085 -0.523124 1.87022 0
M  V30 1102 C 102.215 -0.528416 3.43257 0
M  V30 1103 C 101.169 0.27056 4.27144 0
M  V30 1104 C 100.495 -0.675881 5.30411 0
M  V30 1105 C 101.795 1.48981 5.00602 0
M  V30 1106 H 103.489 1.11681 2.77791 0
M  V30 1107 H 101.035 0.538478 1.33553 0
M  V30 1108 H 102.988 -0.922674 4.11175 0
M  V30 1109 H 101.712 -1.38445 2.95805 0
M  V30 1110 H 100.371 0.646427 3.60856 0
M  V30 1111 H 100.019 -1.52842 4.79216 0
M  V30 1112 H 99.7189 -0.145374 5.8742 0
M  V30 1113 H 101.243 -1.06757 6.01195 0
M  V30 1114 H 102.657 1.16849 5.61266 0
M  V30 1115 H 101.054 1.95739 5.6728 0
M  V30 1116 H 102.124 2.25746 4.29147 0
M  V30 1117 N 103.467 -1.45747 0.599634 0
M  V30 1118 C 104.692 -2.07178 0.0960198 0
M  V30 1119 C 105.117 -1.44268 -1.207 0
M  V30 1120 O 104.475 -0.532503 -1.73303 0
M  V30 1121 C 104.523 -3.60579 -0.0385348 0
M  V30 1122 O 103.627 -3.97713 -1.0908 0
M  V30 1123 H 102.968 -0.660251 0.0704593 0
M  V30 1124 H 105.498 -1.87124 0.827385 0
M  V30 1125 H 105.508 -4.07298 -0.239304 0
M  V30 1126 H 104.183 -4.05756 0.912947 0
M  V30 1127 H 102.76 -3.62678 -0.867135 0
M  V30 1128 N 104.945 -0.338344 -1.53925 0
M  V30 1129 C 106.361 0.0137736 -1.59594 0
M  V30 1130 C 106.561 1.49186 -1.35447 0
M  V30 1131 O 105.617 2.24987 -1.14616 0
M  V30 1132 C 106.93 -0.41773 -2.97784 0
M  V30 1133 C 108.478 -0.369633 -3.1081 0
M  V30 1134 C 108.953 -0.776524 -4.51369 0
M  V30 1135 N 110.444 -0.730506 -4.57403 0
M  V30 1136 C 111.179 -1.01736 -5.64303 0
M  V30 1137 N 110.675 -1.3721 -6.79077 0
M  V30 1138 N 112.468 -0.941942 -5.54151 0
M  V30 1139 H 104.619 -1.3012 -1.67876 0
M  V30 1140 H 106.882 -0.530082 -0.78595 0
M  V30 1141 H 106.588 -1.44811 -3.20504 0
M  V30 1142 H 106.462 0.209729 -3.76616 0
M  V30 1143 H 108.849 0.651568 -2.87817 0
M  V30 1144 H 108.93 -1.03223 -2.34049 0
M  V30 1145 H 108.574 -1.79571 -4.75096 0
M  V30 1146 H 108.504 -0.0914649 -5.26521 0
M  V30 1147 H 110.995 -0.468783 -3.74981 0
M  V30 1148 H 111.308 -1.57597 -7.5656 0
M  V30 1149 H 109.653 -1.4105 -6.80536 0
M  V30 1150 H 112.844 -0.664184 -4.63364 0
M  V30 1151 H 113.017 -1.16884 -6.37371 0
M  V30 1152 N 106.423 1.57458 -0.0668435 0
M  V30 1153 C 107.669 1.94401 0.598316 0
M  V30 1154 C 108.024 0.946335 1.67518 0
M  V30 1155 O 107.317 -0.0321442 1.91573 0
M  V30 1156 C 107.511 3.35784 1.22409 0
M  V30 1157 C 107.34 4.49212 0.209367 0
M  V30 1158 C 106.11 5.04887 -0.204218 0
M  V30 1159 C 108.308 5.11335 -0.551431 0
M  V30 1160 N 106.29 6.01854 -1.21016 0
M  V30 1161 C 107.661 6.03754 -1.41 0
M  V30 1162 C 109.716 4.94173 -0.608038 0
M  V30 1163 C 108.419 6.80854 -2.32013 0
M  V30 1164 C 110.445 5.71912 -1.50566 0
M  V30 1165 C 109.807 6.63976 -2.35191 0
M  V30 1166 H 105.906 0.758538 0.190114 0
M  V30 1167 H 108.49 1.94175 -0.142832 0
M  V30 1168 H 106.661 3.36757 1.93518 0
M  V30 1169 H 108.393 3.59976 1.84931 0
M  V30 1170 H 105.148 4.73266 0.177908 0
M  V30 1171 H 105.572 6.55035 -1.71049 0
M  V30 1172 H 110.214 4.22788 0.032022 0
M  V30 1173 H 107.932 7.5152 -2.97057 0
M  V30 1174 H 111.518 5.60656 -1.55423 0
M  V30 1175 H 110.398 7.2308 -3.03522 0
M  V30 1176 N 107.901 -0.206675 1.56239 0
M  V30 1177 C 109.147 -0.925733 1.81113 0
M  V30 1178 C 109.502 -1.81368 0.642135 0
M  V30 1179 O 108.795 -1.88126 -0.363211 0
M  V30 1180 C 108.989 -1.78675 3.09532 0
M  V30 1181 C 108.818 -0.98365 4.3881 0
M  V30 1182 C 107.588 -0.672661 5.00803 0
M  V30 1183 C 109.786 -0.341847 5.13163 0
M  V30 1184 N 107.768 0.150283 6.13716 0
M  V30 1185 C 109.139 0.343815 6.19046 0
M  V30 1186 C 111.194 -0.256392 4.97239 0
M  V30 1187 C 109.897 1.10678 7.10734 0
M  V30 1188 C 111.923 0.493142 5.8934 0
M  V30 1189 C 111.285 1.16729 6.94661 0
M  V30 1190 H 107.384 -0.318524 0.714189 0
M  V30 1191 H 109.968 -0.195378 1.93717 0
M  V30 1192 H 108.139 -2.4888 2.98183 0
M  V30 1193 H 109.871 -2.44441 3.22538 0
M  V30 1194 H 106.626 -0.994294 4.63045 0
M  V30 1195 H 107.05 0.551026 6.74754 0
M  V30 1196 H 111.692 -0.763249 4.15854 0
M  V30 1197 H 109.41 1.6251 7.91591 0
M  V30 1198 H 112.996 0.560465 5.79094 0
M  V30 1199 H 111.876 1.738 7.64698 0
M  V30 1200 N 109.379 -1.50304 -0.473955 0
M  V30 1201 C 110.656 -1.51667 -1.23518 0
M  V30 1202 C 111.036 -0.259701 -2.09496 0
M  V30 1203 O 110.384 0.756986 -2.15597 0
M  V30 1204 C 110.594 -2.81082 -2.06868 0
M  V30 1205 C 111.942 -3.31631 -2.65153 0
M  V30 1206 O 112.966 -2.82384 -2.17113 0
M  V30 1207 O 111.825 -4.17471 -3.52675 0
M  V30 1208 H 108.919 -0.60822 -0.560355 0
M  V30 1209 H 111.465 -1.62592 -0.486011 0
M  V30 1210 H 110.237 -3.64041 -1.4349 0
M  V30 1211 H 109.86 -2.73146 -2.88924 0
M  V30 1212 N 110.857 0.726932 -1.39834 0
M  V30 1213 C 111.82 1.82269 -1.38962 0
M  V30 1214 C 112.82 1.58248 -0.285334 0
M  V30 1215 O 114.01 1.65499 -0.54366 0
M  V30 1216 C 111.142 3.20186 -1.17019 0
M  V30 1217 H 112.335 1.84443 -2.36476 0
M  V30 1218 H 109.888 0.931416 -1.25516 0
M  V30 1219 H 110.623 3.23669 -0.202204 0
M  V30 1220 H 110.408 3.3902 -1.96998 0
M  V30 1221 H 111.898 4.00235 -1.1917 0
M  V30 1222 N 112.336 1.25143 0.95797 0
M  V30 1223 C 113.566 1.12261 1.73439 0
M  V30 1224 C 113.974 -0.326715 1.86358 0
M  V30 1225 O 113.317 -1.2367 1.35836 0
M  V30 1226 C 113.379 1.69966 3.16784 0
M  V30 1227 C 113.043 3.18936 3.27305 0
M  V30 1228 C 114.04 4.15968 3.11877 0
M  V30 1229 C 111.725 3.59083 3.51234 0
M  V30 1230 C 113.719 5.51126 3.20217 0
M  V30 1231 C 111.406 4.9438 3.5921 0
M  V30 1232 C 112.404 5.90211 3.43716 0
M  V30 1233 O 112.092 7.23046 3.51368 0
M  V30 1234 H 111.824 0.392476 0.550399 0
M  V30 1235 H 114.378 1.65927 1.21068 0
M  V30 1236 H 112.608 1.10744 3.70503 0
M  V30 1237 H 114.297 1.52232 3.76272 0
M  V30 1238 H 115.063 3.86292 2.93264 0
M  V30 1239 H 110.942 2.84989 3.62356 0
M  V30 1240 H 114.486 6.25905 3.0804 0
M  V30 1241 H 110.383 5.23723 3.77339 0
M  V30 1242 H 111.151 7.31097 3.6802 0
M  V30 1243 N 113.814 -1.1601 1.06675 0
M  V30 1244 C 115.23 -1.38622 0.790948 0
M  V30 1245 C 115.43 -1.92109 -0.607965 0
M  V30 1246 O 114.486 -2.12239 -1.36787 0
M  V30 1247 C 115.799 -2.36347 1.85905 0
M  V30 1248 C 117.347 -2.50023 1.88301 0
M  V30 1249 C 117.822 -3.51033 2.94176 0
M  V30 1250 N 119.313 -3.58563 2.93235 0
M  V30 1251 C 120.048 -4.36521 3.71803 0
M  V30 1252 N 119.544 -5.17869 4.602 0
M  V30 1253 N 121.337 -4.31541 3.60178 0
M  V30 1254 H 113.488 -0.796294 1.96908 0
M  V30 1255 H 115.751 -0.412597 0.853503 0
M  V30 1256 H 115.457 -2.04147 2.86386 0
M  V30 1257 H 115.331 -3.36042 1.71334 0
M  V30 1258 H 117.718 -2.81524 0.884769 0
M  V30 1259 H 117.799 -1.5035 2.06951 0
M  V30 1260 H 117.443 -3.20268 3.94196 0
M  V30 1261 H 117.373 -4.50445 2.72776 0
M  V30 1262 H 119.864 -3.00496 2.29152 0
M  V30 1263 H 120.177 -5.74578 5.16797 0
M  V30 1264 H 118.522 -5.17199 4.64253 0
M  V30 1265 H 121.713 -3.67051 2.90502 0
M  V30 1266 H 121.886 -4.9205 4.21653 0
M  V30 1267 N 115.292 -0.849877 -1.32721 0
M  V30 1268 C 116.239 -0.289033 -2.28983 0
M  V30 1269 C 117.209 0.601324 -1.54833 0
M  V30 1270 O 118.394 0.537253 -1.8308 0
M  V30 1271 C 115.534 0.520623 -3.4115 0
M  V30 1272 C 114.647 -0.394989 -4.3019 0
M  V30 1273 C 113.782 0.426834 -5.29482 0
M  V30 1274 C 112.821 -0.486476 -6.10164 0
M  V30 1275 N 111.958 0.297879 -7.01468 0
M  V30 1276 H 116.798 -1.11519 -2.76347 0
M  V30 1277 H 114.335 -0.56138 -1.35967 0
M  V30 1278 H 116.293 1.00563 -4.04899 0
M  V30 1279 H 114.923 1.31165 -2.9495 0
M  V30 1280 H 113.975 -0.99836 -3.67065 0
M  V30 1281 H 115.287 -1.09612 -4.86607 0
M  V30 1282 H 114.441 0.975205 -5.98811 0
M  V30 1283 H 113.18 1.16136 -4.73671 0
M  V30 1284 H 112.185 -1.04677 -5.39743 0
M  V30 1285 H 113.41 -1.21953 -6.6806 0
M  V30 1286 H 111.356 1.01558 -6.48091 0
M  V30 1287 H 111.273 -0.344318 -7.55216 0
M  V30 1288 H 112.541 0.828131 -7.75089 0
M  V30 1289 N 116.77 1.45427 -0.607355 0
M  V30 1290 C 117.702 2.2871 0.149752 0
M  V30 1291 C 118.715 1.39937 0.831958 0
M  V30 1292 O 119.904 1.64313 0.697385 0
M  V30 1293 C 117.004 3.15673 1.23304 0
M  V30 1294 C 116.177 4.32722 0.637996 0
M  V30 1295 C 115.236 5.00895 1.61215 0
M  V30 1296 O 114.262 5.57697 1.13854 0
M  V30 1297 N 115.464 5.00159 2.94655 0
M  V30 1298 H 118.229 2.94328 -0.564882 0
M  V30 1299 H 115.79 1.55612 -0.446823 0
M  V30 1300 H 117.782 3.58144 1.88454 0
M  V30 1301 H 116.352 2.51965 1.8502 0
M  V30 1302 H 115.572 3.93734 -0.191572 0
M  V30 1303 H 116.86 5.08321 0.220665 0
M  V30 1304 H 116.258 4.553 3.35735 0
M  V30 1305 H 114.815 5.46495 3.55228 0
M  V30 1306 N 118.248 0.346503 1.53744 0
M  V30 1307 C 119.178 -0.501193 2.28058 0
M  V30 1308 C 120.159 -1.10014 1.29734 0
M  V30 1309 O 121.344 -1.12097 1.58581 0
M  V30 1310 C 118.474 -1.65078 3.05559 0
M  V30 1311 C 117.428 -1.18003 4.11411 0
M  V30 1312 C 116.754 -2.41837 4.76884 0
M  V30 1313 C 118.054 -0.278394 5.21558 0
M  V30 1314 H 119.748 0.11875 2.99164 0
M  V30 1315 H 117.294 0.0585531 1.43881 0
M  V30 1316 H 119.247 -2.25028 3.56287 0
M  V30 1317 H 117.971 -2.29767 2.32109 0
M  V30 1318 H 116.63 -0.603331 3.61601 0
M  V30 1319 H 116.278 -3.0494 4.00026 0
M  V30 1320 H 115.978 -2.1102 5.48402 0
M  V30 1321 H 117.502 -3.02508 5.30397 0
M  V30 1322 H 118.916 -0.784823 5.67903 0
M  V30 1323 H 117.313 -0.0619707 6.00068 0
M  V30 1324 H 118.383 0.684677 4.80042 0
M  V30 1325 N 119.726 -1.57421 0.075193 0
M  V30 1326 C 120.974 -1.93236 -0.591974 0
M  V30 1327 C 121.295 -0.956241 -1.69944 0
M  V30 1328 O 120.565 -0.00494792 -1.95899 0
M  V30 1329 H 119.145 -0.713355 -0.22166 0
M  V30 1330 H 121.807 -1.9444 0.133848 0
M  V30 1331 H 120.903 -2.95131 -1.01509 0
M  V30 1332 N 121.204 0.198386 -1.56346 0
M  V30 1333 C 122.134 1.24865 -1.9731 0
M  V30 1334 C 123.115 1.47651 -0.844576 0
M  V30 1335 O 124.3 1.59444 -1.10866 0
M  V30 1336 C 121.43 2.59358 -2.30977 0
M  V30 1337 C 120.384 2.5119 -3.46537 0
M  V30 1338 C 119.71 3.89926 -3.65871 0
M  V30 1339 C 121.01 2.03977 -4.80823 0
M  V30 1340 H 122.704 0.908252 -2.85291 0
M  V30 1341 H 120.25 0.435462 -1.37258 0
M  V30 1342 H 122.203 3.33011 -2.58228 0
M  V30 1343 H 120.927 2.95132 -1.39874 0
M  V30 1344 H 119.586 1.79993 -3.19371 0
M  V30 1345 H 119.234 4.23046 -2.72105 0
M  V30 1346 H 118.934 3.85336 -4.4361 0
M  V30 1347 H 120.458 4.65205 -3.95495 0
M  V30 1348 H 121.872 2.67386 -5.07127 0
M  V30 1349 H 120.269 2.10397 -5.62008 0
M  V30 1350 H 121.339 0.992861 -4.74626 0
M  V30 1351 N 122.682 1.50554 0.465978 0
M  V30 1352 C 123.629 1.6979 1.56333 0
M  V30 1353 C 124.599 0.539239 1.57103 0
M  V30 1354 O 125.784 0.770401 1.74555 0
M  V30 1355 C 122.924 1.80273 2.94271 0
M  V30 1356 C 122.037 3.07674 3.0325 0
M  V30 1357 C 121.172 3.08922 4.32135 0
M  V30 1358 C 120.211 4.30755 4.34875 0
M  V30 1359 N 119.348 4.29714 5.55239 0
M  V30 1360 H 124.188 2.63472 1.39235 0
M  V30 1361 H 121.725 1.30602 0.676873 0
M  V30 1362 H 123.683 1.84332 3.74269 0
M  V30 1363 H 122.313 0.900258 3.09992 0
M  V30 1364 H 121.365 3.13062 2.16094 0
M  V30 1365 H 122.677 3.97642 3.01135 0
M  V30 1366 H 121.831 3.11738 5.20485 0
M  V30 1367 H 120.57 2.16792 4.36866 0
M  V30 1368 H 119.575 4.28146 3.44922 0
M  V30 1369 H 120.8 5.24117 4.31831 0
M  V30 1370 H 118.746 3.4044 5.60746 0
M  V30 1371 H 118.663 5.13456 5.54886 0
M  V30 1372 H 119.931 4.36683 6.457 0
M  V30 1373 N 124.16 -0.719506 1.40217 0
M  V30 1374 C 125.437 -1.47221 1.28784 0
M  V30 1375 C 125.817 -2.10883 -0.0956067 0
M  V30 1376 O 125.165 -1.99833 -1.10811 0
M  V30 1377 C 125.375 -2.5111 2.42373 0
M  V30 1378 C 126.723 -3.17053 2.82423 0
M  V30 1379 O 127.747 -2.61429 2.41937 0
M  V30 1380 O 126.606 -4.17742 3.52355 0
M  V30 1381 H 123.7 -0.654491 0.50554 0
M  V30 1382 H 126.246 -0.752014 1.52128 0
M  V30 1383 H 125.018 -2.02556 3.34793 0
M  V30 1384 H 124.641 -3.3067 2.20778 0
M  V30 1385 N 125.638 -1.25649 -0.95132 0
M  V30 1386 C 126.885 -1.10594 -1.69633 0
M  V30 1387 C 127.213 0.352515 -1.91279 0
M  V30 1388 O 126.468 1.27601 -1.4838 0
M  V30 1389 C 126.767 -1.80909 -3.08231 0
M  V30 1390 C 126.433 -3.30825 -3.06375 0
M  V30 1391 C 125.095 -3.71722 -3.05576 0
M  V30 1392 C 127.447 -4.26589 -2.99452 0
M  V30 1393 C 124.775 -5.06788 -2.95606 0
M  V30 1394 C 127.127 -5.61683 -2.91024 0
M  V30 1395 C 125.791 -6.01904 -2.88562 0
M  V30 1396 H 125.061 -0.404691 -0.620731 0
M  V30 1397 H 127.708 -1.55964 -1.11119 0
M  V30 1398 H 126.013 -1.27979 -3.70309 0
M  V30 1399 H 127.71 -1.6671 -3.64704 0
M  V30 1400 H 124.3 -2.98287 -3.07771 0
M  V30 1401 H 128.484 -3.95982 -2.99185 0
M  V30 1402 H 123.74 -5.37126 -2.92071 0
M  V30 1403 H 127.914 -6.35578 -2.84629 0
M  V30 1404 H 125.541 -7.06521 -2.80593 0
M  V30 1405 N 127.117 1.15442 -1.07289 0
M  V30 1406 C 128.342 1.90638 -0.816828 0
M  V30 1407 C 128.767 1.77445 0.624083 0
M  V30 1408 O 128.125 1.10671 1.43602 0
M  V30 1409 C 128.173 3.39008 -1.22906 0
M  V30 1410 O 127.277 4.10701 -0.373975 0
M  V30 1411 H 126.618 0.593555 -0.297638 0
M  V30 1412 H 129.148 1.46198 -1.43134 0
M  V30 1413 H 129.158 3.89801 -1.20497 0
M  V30 1414 H 127.833 3.47929 -2.27856 0
M  V30 1415 H 126.41 3.70046 -0.460499 0
M  V30 1416 N 128.595 0.856903 1.32268 0
M  V30 1417 C 130.006 0.515711 1.79436 0
M  V30 1418 C 130.357 -0.966586 1.70738 0
M  V30 1419 O 129.482 -1.75409 1.26731 0
M  V30 1420 C 130.077 0.929335 3.25805 0
M  V30 1421 C 128.636 0.640006 3.70919 0
M  V30 1422 C 127.783 1.12784 2.53328 0
M  V30 1423 H 130.734 1.04389 1.19535 0
M  V30 1424 H 130.755 0.246633 3.797 0
M  V30 1425 H 130.267 2.00821 3.32103 0
M  V30 1426 H 128.368 -0.428051 3.70133 0
M  V30 1427 H 128.481 1.20788 4.63624 0
M  V30 1428 H 126.845 0.548033 2.48734 0
M  V30 1429 H 127.628 2.21387 2.62379 0
M  V30 1430 N 130.073 -1.45103 0.615059 0
M  V30 1431 C 131.02 -2.30586 -0.0993978 0
M  V30 1432 C 131.99 -1.42544 -0.852669 0
M  V30 1433 O 133.175 -1.71465 -0.836917 0
M  V30 1434 C 130.315 -3.27572 -1.08583 0
M  V30 1435 C 129.428 -4.30717 -0.332656 0
M  V30 1436 C 128.563 -5.14807 -1.30947 0
M  V30 1437 C 127.602 -6.09673 -0.544538 0
M  V30 1438 N 126.739 -6.86517 -1.47101 0
M  V30 1439 H 131.579 -2.91144 0.635542 0
M  V30 1440 H 129.116 -1.4346 0.325206 0
M  V30 1441 H 131.074 -3.82276 -1.67095 0
M  V30 1442 H 129.704 -2.68751 -1.78809 0
M  V30 1443 H 128.756 -3.78615 0.368107 0
M  V30 1444 H 130.068 -4.98102 0.263842 0
M  V30 1445 H 129.222 -5.73948 -1.96643 0
M  V30 1446 H 127.961 -4.47458 -1.9399 0
M  V30 1447 H 126.966 -5.49656 0.126003 0
M  V30 1448 H 128.191 -6.79052 0.080947 0
M  V30 1449 H 126.137 -6.21851 -2.08895 0
M  V30 1450 H 126.054 -7.50281 -0.928137 0
M  V30 1451 H 127.322 -7.50194 -2.11731 0
M  V30 1452 N 131.551 -0.354651 -1.53558 0
M  V30 1453 C 132.776 0.242153 -2.05981 0
M  V30 1454 C 133.201 1.42553 -1.2272 0
M  V30 1455 O 132.559 1.79656 -0.243604 0
M  V30 1456 C 132.607 0.624367 -3.55154 0
M  V30 1457 O 131.711 1.72301 -3.74681 0
M  V30 1458 H 131.052 0.0378432 -0.662921 0
M  V30 1459 H 133.582 -0.512087 -1.98088 0
M  V30 1460 H 133.592 0.898433 -3.97985 0
M  V30 1461 H 132.267 -0.240989 -4.15201 0
M  V30 1462 H 130.844 1.44535 -3.4375 0
M  V30 1463 N 133.029 1.57378 -0.0835403 0
M  V30 1464 C 133.961 2.10389 0.909338 0
M  V30 1465 C 134.974 1.03858 1.25369 0
M  V30 1466 O 136.163 1.31338 1.20882 0
M  V30 1467 C 133.263 2.55908 2.2218 0
M  V30 1468 C 132.436 3.86145 2.05453 0
M  V30 1469 C 131.495 4.17633 3.20108 0
M  V30 1470 O 130.521 4.87043 2.94581 0
M  V30 1471 N 131.723 3.72113 4.45547 0
M  V30 1472 H 134.488 2.962 0.456657 0
M  V30 1473 H 132.049 1.61579 0.101877 0
M  V30 1474 H 134.041 2.74027 2.97811 0
M  V30 1475 H 132.611 1.75171 2.58909 0
M  V30 1476 H 131.831 3.7729 1.1422 0
M  V30 1477 H 133.119 4.7137 1.91541 0
M  V30 1478 H 132.517 3.16062 4.69171 0
M  V30 1479 H 131.074 3.95409 5.18165 0
M  V30 1480 N 134.507 -0.190092 1.56449 0
M  V30 1481 C 135.784 -0.935886 1.71757 0
M  V30 1482 C 136.164 -2.01173 0.639726 0
M  V30 1483 O 135.512 -2.25827 -0.348502 0
M  V30 1484 C 135.722 -1.51775 3.1427 0
M  V30 1485 C 137.07 -1.99794 3.74656 0
M  V30 1486 O 138.094 -1.61607 3.1743 0
M  V30 1487 O 136.953 -2.70079 4.751 0
M  V30 1488 H 134.047 -0.439229 0.700719 0
M  V30 1489 H 136.593 -0.179395 1.68749 0
M  V30 1490 H 135.365 -0.742505 3.84191 0
M  V30 1491 H 134.988 -2.33894 3.21527 0
M  V30 1492 N 135.985 -1.50799 -0.457987 0
M  V30 1493 C 136.948 -1.7005 -1.53674 0
M  V30 1494 C 137.948 -0.570881 -1.50325 0
M  V30 1495 O 139.138 -0.838126 -1.52712 0
M  V30 1496 C 136.27 -1.73788 -2.93276 0
M  V30 1497 H 137.463 -2.66306 -1.37917 0
M  V30 1498 H 135.016 -1.40477 -0.685271 0
M  V30 1499 H 135.751 -0.792717 -3.14462 0
M  V30 1500 H 135.536 -2.55864 -2.97113 0
M  V30 1501 H 137.026 -1.90591 -3.71571 0
M  V30 1502 N 137.463 0.71206 -1.40597 0
M  V30 1503 C 138.709 1.47416 -1.39271 0
M  V30 1504 C 139.042 1.942 0.00388791 0
M  V30 1505 O 138.317 1.68403 0.973179 0
M  V30 1506 C 138.6 2.69774 -2.38525 0
M  V30 1507 C 138.453 2.28861 -3.87224 0
M  V30 1508 C 139.772 3.71939 -2.35264 0
M  V30 1509 H 136.891 0.534713 -0.5072 0
M  V30 1510 H 139.533 0.812375 -1.71757 0
M  V30 1511 H 137.683 3.26238 -2.10953 0
M  V30 1512 H 139.355 1.77852 -4.25636 0
M  V30 1513 H 137.598 1.60824 -4.02887 0
M  V30 1514 H 138.269 3.16584 -4.52193 0
M  V30 1515 H 140.745 3.25113 -2.59694 0
M  V30 1516 H 139.621 4.55186 -3.06753 0
M  V30 1517 H 139.882 4.20484 -1.36549 0
M  V30 1518 N 138.941 1.26152 0.944643 0
M  V30 1519 C 139.904 1.07474 2.0244 0
M  V30 1520 C 140.904 0.0242064 1.60782 0
M  V30 1521 O 142.094 0.267302 1.72137 0
M  V30 1522 C 139.226 0.633956 3.34953 0
M  V30 1523 H 140.419 2.03336 2.20442 0
M  V30 1524 H 137.972 1.087 1.12312 0
M  V30 1525 H 138.707 -0.326811 3.22649 0
M  V30 1526 H 138.492 1.39247 3.66542 0
M  V30 1527 H 139.982 0.52501 4.14287 0
M  V30 1528 N 140.419 -1.14872 1.07899 0
M  V30 1529 C 141.349 -2.2193 0.725887 0
M  V30 1530 C 142.33 -1.67622 -0.28927 0
M  V30 1531 O 143.515 -1.93533 -0.160787 0
M  V30 1532 C 140.645 -3.47061 0.128856 0
M  V30 1533 C 139.599 -4.14363 1.07178 0
M  V30 1534 C 138.925 -5.33636 0.337229 0
M  V30 1535 C 140.225 -4.63492 2.40775 0
M  V30 1536 H 141.919 -2.51724 1.62097 0
M  V30 1537 H 139.465 -1.20991 0.780838 0
M  V30 1538 H 141.418 -4.21199 -0.130147 0
M  V30 1539 H 140.142 -3.16617 -0.80134 0
M  V30 1540 H 138.801 -3.42173 1.3158 0
M  V30 1541 H 138.449 -4.99449 -0.596606 0
M  V30 1542 H 138.149 -5.79609 0.965788 0
M  V30 1543 H 139.673 -6.10539 0.0861567 0
M  V30 1544 H 141.087 -5.2913 2.20669 0
M  V30 1545 H 139.484 -5.20148 2.99276 0
M  V30 1546 H 140.554 -3.78834 3.02676 0
M  V30 1547 N 141.898 -0.863906 -1.31812 0
M  V30 1548 C 142.83 -0.272485 -2.27575 0
M  V30 1549 C 143.843 0.56104 -1.52827 0
M  V30 1550 O 145.032 0.384021 -1.7432 0
M  V30 1551 C 142.132 0.63283 -3.32939 0
M  V30 1552 C 141.305 -0.166902 -4.37081 0
M  V30 1553 C 140.364 0.665608 -5.21973 0
M  V30 1554 O 139.39 0.0958091 -5.69119 0
M  V30 1555 N 140.592 1.9787 -5.45736 0
M  V30 1556 H 143.357 -1.0954 -2.78964 0
M  V30 1557 H 140.918 -0.724791 -1.4477 0
M  V30 1558 H 142.91 1.19532 -3.86645 0
M  V30 1559 H 141.48 1.35642 -2.81638 0
M  V30 1560 H 140.7 -0.910838 -3.83533 0
M  V30 1561 H 141.988 -0.715874 -5.03739 0
M  V30 1562 H 141.386 2.46484 -5.09178 0
M  V30 1563 H 139.943 2.48911 -6.024 0
M  V30 1564 N 143.376 1.44774 -0.622745 0
M  V30 1565 C 144.308 2.28856 0.125485 0
M  V30 1566 C 145.321 1.40811 0.817069 0
M  V30 1567 O 146.51 1.65044 0.679918 0
M  V30 1568 C 143.61 3.16963 1.19949 0
M  V30 1569 C 142.783 4.33374 0.592064 0
M  V30 1570 C 141.842 5.02577 1.55893 0
M  V30 1571 O 140.868 5.58873 1.07933 0
M  V30 1572 N 142.07 5.03256 2.89334 0
M  V30 1573 H 144.835 2.93713 -0.596068 0
M  V30 1574 H 142.396 1.55129 -0.463303 0
M  V30 1575 H 144.388 3.60123 1.84644 0
M  V30 1576 H 142.958 2.53913 1.82337 0
M  V30 1577 H 142.178 3.93509 -0.233322 0
M  V30 1578 H 143.466 5.08527 0.166738 0
M  V30 1579 H 142.864 4.58836 3.30887 0
M  V30 1580 H 141.421 5.50232 3.49412 0
M  V30 1581 N 144.854 0.36279 1.53368 0
M  V30 1582 C 146.103 -0.22888 2.00397 0
M  V30 1583 C 146.416 -1.50096 1.25421 0
M  V30 1584 O 147.622 -2.17106 1.63025 0
M  V30 1585 C 146.078 -0.458417 3.56969 0
M  V30 1586 C 145.686 0.798877 4.4082 0
M  V30 1587 C 147.43 -1.00789 4.12361 0
M  V30 1588 C 145.337 0.539078 5.88938 0
M  V30 1589 H 144.267 -0.089305 0.748693 0
M  V30 1590 H 146.918 0.481099 1.77081 0
M  V30 1591 H 145.3 -1.22959 3.76427 0
M  V30 1592 H 146.474 1.57262 4.33134 0
M  V30 1593 H 144.789 1.27137 3.96516 0
M  V30 1594 H 147.386 -1.21754 5.20653 0
M  V30 1595 H 147.729 -1.9692 3.66781 0
M  V30 1596 H 148.262 -0.296961 3.9669 0
M  V30 1597 H 145.001 1.47064 6.3879 0
M  V30 1598 H 144.521 -0.196222 5.99479 0
M  V30 1599 H 146.2 0.163542 6.46793 0
M  V30 1600 N 146.332 -1.57332 0.0918853 0
M  V30 1601 C 147.279 -2.13847 -0.868211 0
M  V30 1602 C 148.249 -1.05618 -1.28196 0
M  V30 1603 O 149.434 -1.33387 -1.36427 0
M  V30 1604 C 146.574 -2.72062 -2.12312 0
M  V30 1605 C 145.687 -3.94514 -1.7602 0
M  V30 1606 C 144.822 -4.40903 -2.96273 0
M  V30 1607 C 143.861 -5.55953 -2.56092 0
M  V30 1608 N 142.998 -5.97209 -3.69169 0
M  V30 1609 H 147.838 -2.95575 -0.379406 0
M  V30 1610 H 145.375 -1.46048 -0.175606 0
M  V30 1611 H 147.333 -3.03931 -2.858 0
M  V30 1612 H 145.963 -1.93068 -2.58698 0
M  V30 1613 H 145.015 -3.68979 -0.925135 0
M  V30 1614 H 146.327 -4.7802 -1.42472 0
M  V30 1615 H 145.481 -4.74539 -3.78018 0
M  V30 1616 H 144.22 -3.56291 -3.33029 0
M  V30 1617 H 143.225 -5.21948 -1.72773 0
M  V30 1618 H 144.45 -6.42311 -2.20484 0
M  V30 1619 H 142.396 -5.15543 -4.05649 0
M  V30 1620 H 142.313 -6.75504 -3.39456 0
M  V30 1621 H 143.581 -6.35475 -4.51434 0
M  V30 1622 N 147.81 0.181792 -1.56548 0
M  V30 1623 C 148.72 1.24538 -1.98815 0
M  V30 1624 C 149.736 1.49045 -0.897861 0
M  V30 1625 O 150.912 1.61399 -1.20467 0
M  V30 1626 C 147.977 2.56683 -2.33055 0
M  V30 1627 C 147.038 2.40131 -3.55859 0
M  V30 1628 C 146.271 3.65975 -3.88456 0
M  V30 1629 O 146.494 4.70711 -3.22161 0
M  V30 1630 O 145.428 3.6071 -4.81842 0
M  V30 1631 H 149.254 0.916647 -2.89536 0
M  V30 1632 H 146.839 0.387842 -1.44278 0
M  V30 1633 H 148.721 3.34655 -2.56094 0
M  V30 1634 H 147.396 2.89157 -1.45498 0
M  V30 1635 H 146.303 1.60226 -3.38051 0
M  V30 1636 H 147.636 2.12585 -4.43924 0
M  V30 1637 N 149.288 1.51039 0.449983 0
M  V30 1638 C 150.704 1.38934 0.785462 0
M  V30 1639 C 150.904 0.461817 1.96136 0
M  V30 1640 O 149.96 -0.0877389 2.52348 0
M  V30 1641 C 151.273 2.80724 1.0777 0
M  V30 1642 C 152.821 2.89787 1.1829 0
M  V30 1643 C 153.296 4.32457 1.50815 0
M  V30 1644 N 154.787 4.35505 1.57764 0
M  V30 1645 C 155.522 5.42914 1.84477 0
M  V30 1646 N 155.018 6.60502 2.09068 0
M  V30 1647 N 156.811 5.3038 1.86155 0
M  V30 1648 H 148.962 2.09904 -0.324647 0
M  V30 1649 H 151.225 0.944378 -0.0827957 0
M  V30 1650 H 150.931 3.50531 0.286498 0
M  V30 1651 H 150.805 3.19273 2.00859 0
M  V30 1652 H 153.192 2.20186 1.96474 0
M  V30 1653 H 153.273 2.54752 0.231314 0
M  V30 1654 H 152.917 5.02603 0.731622 0
M  V30 1655 H 152.847 4.64995 2.47158 0
M  V30 1656 H 155.338 3.50724 1.40715 0
M  V30 1657 H 155.651 7.38158 2.28785 0
M  V30 1658 H 153.996 6.63639 2.06416 0
M  V30 1659 H 157.187 4.37505 1.66454 0
M  V30 1660 H 157.36 6.1417 2.06637 0
M  V30 1661 N 150.766 -0.704594 1.40972 0
M  V30 1662 C 152.014 -1.46169 1.39568 0
M  V30 1663 C 152.335 -1.95 0.00253745 0
M  V30 1664 O 151.605 -1.71095 -0.954114 0
M  V30 1665 H 150.185 -0.542326 0.513704 0
M  V30 1666 H 152.847 -0.834553 1.76128 0
M  V30 1667 H 151.943 -2.32922 2.07735 0
M  V30 1668 N 152.244 -1.26651 -0.937939 0
M  V30 1669 C 153.207 -1.08546 -2.01867 0
M  V30 1670 C 154.207 -0.0327327 -1.60767 0
M  V30 1671 O 155.397 -0.276427 -1.71993 0
M  V30 1672 C 152.529 -0.651711 -3.34613 0
M  V30 1673 H 153.722 -2.04502 -2.1936 0
M  V30 1674 H 151.275 -1.09294 -1.11734 0
M  V30 1675 H 152.01 0.309696 -3.22818 0
M  V30 1676 H 151.795 -1.41189 -3.65798 0
M  V30 1677 H 153.285 -0.546973 -4.14002 0
M  V30 1678 N 153.722 1.14298 -1.08507 0
M  V30 1679 C 154.652 2.21542 -0.737646 0
M  V30 1680 C 155.633 1.67773 0.280377 0
M  V30 1681 O 156.818 1.93616 0.150521 0
M  V30 1682 C 153.948 3.46988 -0.147259 0
M  V30 1683 C 152.902 4.13789 -1.09374 0
M  V30 1684 C 152.228 5.33449 -0.365524 0
M  V30 1685 C 153.528 4.62208 -2.4323 0
M  V30 1686 H 155.222 2.5086 -1.6343 0
M  V30 1687 H 152.768 1.20576 -0.787243 0
M  V30 1688 H 154.721 4.21262 0.107808 0
M  V30 1689 H 153.445 3.17037 0.784538 0
M  V30 1690 H 152.104 3.4147 -1.33393 0
M  V30 1691 H 151.752 4.99759 0.57011 0
M  V30 1692 H 151.452 5.79088 -0.996512 0
M  V30 1693 H 152.976 6.10485 -0.118534 0
M  V30 1694 H 154.39 5.27952 -2.23472 0
M  V30 1695 H 152.787 5.18553 -3.02031 0
M  V30 1696 H 153.857 3.77224 -3.04681 0
M  V30 1697 N 155.201 0.870884 1.31352 0
M  V30 1698 C 156.612 0.534714 1.78879 0
M  V30 1699 C 156.963 -0.948423 1.71754 0
M  V30 1700 O 156.088 -1.74055 1.28584 0
M  V30 1701 C 156.683 0.963839 3.24801 0
M  V30 1702 C 155.242 0.679311 3.70219 0
M  V30 1703 C 154.389 1.15465 2.52117 0
M  V30 1704 H 157.34 1.05651 1.18421 0
M  V30 1705 H 157.361 0.286892 3.79417 0
M  V30 1706 H 156.873 2.04332 3.29955 0
M  V30 1707 H 154.974 -0.388769 3.70566 0
M  V30 1708 H 155.087 1.25698 4.62317 0
M  V30 1709 H 153.451 0.574383 2.48139 0
M  V30 1710 H 154.234 2.24157 2.60016 0
M  V30 1711 N 156.679 -1.44442 0.630414 0
M  V30 1712 C 157.612 -2.27862 -0.124247 0
M  V30 1713 C 158.59 -1.38495 -0.851931 0
M  V30 1714 O 159.774 -1.67935 -0.856166 0
M  V30 1715 C 156.901 -3.17407 -1.18197 0
M  V30 1716 C 155.947 -4.22875 -0.554892 0
M  V30 1717 S 156.78 -5.31485 0.654489 0
M  V30 1718 C 157.936 -6.246 -0.40326 0
M  V30 1719 H 158.169 -2.91519 0.583435 0
M  V30 1720 H 155.702 -1.48618 0.418565 0
M  V30 1721 H 157.66 -3.69549 -1.78728 0
M  V30 1722 H 156.321 -2.52971 -1.86184 0
M  V30 1723 H 155.514 -4.85542 -1.35148 0
M  V30 1724 H 155.116 -3.73992 -0.0242105 0
M  V30 1725 H 157.408 -6.65375 -1.27602 0
M  V30 1726 H 158.351 -7.07851 0.187813 0
M  V30 1727 H 158.759 -5.59775 -0.728837 0
M  V30 1728 N 158.157 -0.370918 -1.53173 0
M  V30 1729 C 159.406 0.218249 -2.00516 0
M  V30 1730 C 159.719 1.49429 -1.26215 0
M  V30 1731 O 160.925 2.16239 -1.64174 0
M  V30 1732 C 159.381 0.43948 -3.57207 0
M  V30 1733 C 158.989 -0.822244 -4.4039 0
M  V30 1734 C 160.733 0.986012 -4.1289 0
M  V30 1735 C 158.64 -0.570304 -5.88644 0
M  V30 1736 H 157.57 0.0853333 -0.749156 0
M  V30 1737 H 160.221 -0.490483 -1.76823 0
M  V30 1738 H 158.603 1.20961 -3.77074 0
M  V30 1739 H 159.777 -1.59557 -4.32294 0
M  V30 1740 H 158.092 -1.29238 -3.95836 0
M  V30 1741 H 160.689 1.18991 -5.21292 0
M  V30 1742 H 161.032 1.94972 -3.6782 0
M  V30 1743 H 161.565 0.27592 -3.96842 0
M  V30 1744 H 158.304 -1.50449 -6.38001 0
M  V30 1745 H 157.824 0.164427 -5.99575 0
M  V30 1746 H 159.503 -0.19784 -6.46697 0
M  V30 1747 N 159.635 1.57281 -0.100228 0
M  V30 1748 C 160.912 1.86014 0.604812 0
M  V30 1749 C 161.292 0.998025 1.86018 0
M  V30 1750 O 160.64 0.0718184 2.28387 0
M  V30 1751 C 160.85 3.36784 0.915278 0
M  V30 1752 C 162.198 4.04957 1.27651 0
M  V30 1753 O 163.222 3.41695 1.00613 0
M  V30 1754 O 162.081 5.16593 1.7831 0
M  V30 1755 H 159.175 0.76942 0.303185 0
M  V30 1756 H 161.721 1.69176 -0.133313 0
M  V30 1757 H 160.493 3.91292 0.0248896 0
M  V30 1758 H 160.116 3.58987 1.70921 0
M  V30 1759 N 161.113 -0.173488 1.56642 0
M  V30 1760 C 162.529 -0.525174 1.50712 0
M  V30 1761 C 162.729 -1.8476 0.804107 0
M  V30 1762 O 161.785 -2.49869 0.363574 0
M  V30 1763 C 163.098 -0.559937 2.95441 0
M  V30 1764 C 164.646 -0.647288 3.06234 0
M  V30 1765 C 165.121 -0.712963 4.52417 0
M  V30 1766 N 166.612 -0.775911 4.56655 0
M  V30 1767 C 167.347 -0.847264 5.67106 0
M  V30 1768 N 166.843 -0.879585 6.87194 0
M  V30 1769 N 168.636 -0.886117 5.55071 0
M  V30 1770 H 160.787 0.693681 2.00753 0
M  V30 1771 H 163.05 0.249841 0.914485 0
M  V30 1772 H 162.756 0.343049 3.50023 0
M  V30 1773 H 162.63 -1.40718 3.49969 0
M  V30 1774 H 165.017 -1.5407 2.51687 0
M  V30 1775 H 165.098 0.226586 2.54794 0
M  V30 1776 H 164.742 0.176183 5.07594 0
M  V30 1777 H 164.672 -1.60295 5.0161 0
M  V30 1778 H 167.163 -0.759304 3.70193 0
M  V30 1779 H 167.476 -0.935144 7.67121 0
M  V30 1780 H 165.821 -0.847898 6.89808 0
M  V30 1781 H 169.012 -0.857853 4.60172 0
M  V30 1782 H 169.185 -0.938263 6.41171 0
M  V30 1783 N 162.591 -1.51276 -0.441967 0
M  V30 1784 C 163.839 -1.63392 -1.18943 0
M  V30 1785 C 164.16 -0.350159 -1.9183 0
M  V30 1786 O 163.43 0.633784 -1.85364 0
M  V30 1787 H 162.01 -0.602164 -0.442049 0
M  V30 1788 H 164.672 -1.88186 -0.507165 0
M  V30 1789 H 163.768 -2.45934 -1.92154 0
M  V30 1790 N 164.069 0.697108 -1.41344 0
M  V30 1791 C 165.346 1.45154 -1.31109 0
M  V30 1792 C 165.726 2.11009 0.0620449 0
M  V30 1793 O 165.074 2.01571 1.07618 0
M  V30 1794 C 165.284 2.47223 -2.46337 0
M  V30 1795 C 166.632 3.1252 -2.87431 0
M  V30 1796 O 167.656 2.57547 -2.46065 0
M  V30 1797 O 166.515 4.12083 -3.58957 0
M  V30 1798 H 163.609 0.646365 -0.515889 0
M  V30 1799 H 166.155 0.727716 -1.53305 0
M  V30 1800 H 164.927 1.97204 -3.37974 0
M  V30 1801 H 164.55 3.27116 -2.2601 0
M  V30 1802 N 165.547 1.27147 0.931209 0
M  V30 1803 C 166.796 1.12664 1.67302 0
M  V30 1804 C 167.109 -0.327718 1.92835 0
M  V30 1805 O 168.315 -0.593392 2.64936 0
M  V30 1806 C 166.771 1.9683 3.01307 0
M  V30 1807 C 166.379 3.46901 2.83485 0
M  V30 1808 C 168.123 1.90985 3.79111 0
M  V30 1809 C 166.03 4.23279 4.13024 0
M  V30 1810 H 164.96 0.41803 0.627509 0
M  V30 1811 H 167.611 1.51539 1.03481 0
M  V30 1812 H 165.993 1.50797 3.66164 0
M  V30 1813 H 167.167 4.00773 2.27415 0
M  V30 1814 H 165.482 3.54088 2.19113 0
M  V30 1815 H 168.079 2.45328 4.75098 0
M  V30 1816 H 168.422 0.882718 4.06834 0
M  V30 1817 H 168.955 2.34895 3.21044 0
M  V30 1818 H 165.694 5.26503 3.90481 0
M  V30 1819 H 165.214 3.74186 4.6877 0
M  V30 1820 H 166.893 4.32265 4.81411 0
M  V30 1821 N 167.025 -1.13721 1.09112 0
M  V30 1822 C 168.441 -1.36914 0.820174 0
M  V30 1823 C 168.641 -1.93356 -0.567079 0
M  V30 1824 O 167.697 -2.15093 -1.32255 0
M  V30 1825 C 169.01 -2.3235 1.90877 0
M  V30 1826 C 170.558 -2.45973 1.93562 0
M  V30 1827 C 171.033 -3.44714 3.01556 0
M  V30 1828 N 172.524 -3.52263 3.00775 0
M  V30 1829 C 173.259 -4.28536 3.80978 0
M  V30 1830 N 172.755 -5.07991 4.71081 0
M  V30 1831 N 174.548 -4.23804 3.69251 0
M  V30 1832 H 166.699 -0.754348 1.98553 0
M  V30 1833 H 168.962 -0.3944 0.862063 0
M  V30 1834 H 168.668 -1.98027 2.90651 0
M  V30 1835 H 168.542 -3.32332 1.78424 0
M  V30 1836 H 170.929 -2.79584 0.944286 0
M  V30 1837 H 171.01 -1.45926 2.10093 0
M  V30 1838 H 170.654 -3.11835 4.00901 0
M  V30 1839 H 170.584 -4.44558 2.82269 0
M  V30 1840 H 173.075 -2.95567 2.35475 0
M  V30 1841 H 173.388 -5.63487 5.28869 0
M  V30 1842 H 171.733 -5.07235 4.75119 0
M  V30 1843 H 174.924 -3.60806 2.98222 0
M  V30 1844 H 175.097 -4.82995 4.31995 0
M  V30 1845 N 168.503 -0.877838 -1.30888 0
M  V30 1846 C 169.435 -0.296607 -2.27273 0
M  V30 1847 C 170.448 0.544799 -1.53414 0
M  V30 1848 O 171.637 0.365511 -1.74718 0
M  V30 1849 C 168.737 0.597481 -3.33592 0
M  V30 1850 C 167.91 -0.213251 -4.3688 0
M  V30 1851 C 166.969 0.610208 -5.2265 0
M  V30 1852 O 165.995 0.035441 -5.69189 0
M  V30 1853 N 167.197 1.92071 -5.47804 0
M  V30 1854 H 169.962 -1.12492 -2.77787 0
M  V30 1855 H 167.523 -0.740105 -1.43993 0
M  V30 1856 H 169.515 1.15425 -3.87891 0
M  V30 1857 H 168.085 1.32647 -2.83061 0
M  V30 1858 H 167.305 -0.951466 -3.82545 0
M  V30 1859 H 168.593 -0.769262 -5.02951 0
M  V30 1860 H 167.991 2.4107 -5.11763 0
M  V30 1861 H 166.548 2.42508 -6.05007 0
M  V30 1862 N 169.982 1.44106 -0.638065 0
M  V30 1863 C 170.945 2.29138 0.0531013 0
M  V30 1864 C 171.945 1.41409 0.765506 0
M  V30 1865 O 173.135 1.63206 0.609046 0
M  V30 1866 C 170.267 3.23144 1.08584 0
M  V30 1867 H 171.46 2.91739 -0.694883 0
M  V30 1868 H 169.013 1.51134 -0.398538 0
M  V30 1869 H 169.748 2.65408 1.86357 0
M  V30 1870 H 169.533 3.87804 0.578852 0
M  V30 1871 H 171.023 3.87004 1.56899 0
M  V30 1872 N 171.46 0.379036 1.52974 0
M  V30 1873 C 172.709 -0.207612 2.00629 0
M  V30 1874 C 173.022 -1.48758 1.27006 0
M  V30 1875 O 174.228 -2.15365 1.65318 0
M  V30 1876 C 172.684 -0.42053 3.57435 0
M  V30 1877 C 172.292 0.845587 4.39948 0
M  V30 1878 C 174.036 -0.964102 4.13407 0
M  V30 1879 C 171.943 0.601513 5.88333 0
M  V30 1880 H 170.873 -0.0813591 0.749598 0
M  V30 1881 H 173.524 0.499853 1.76561 0
M  V30 1882 H 171.906 -1.18959 3.7771 0
M  V30 1883 H 173.08 1.61848 4.31442 0
M  V30 1884 H 171.395 1.31336 3.95145 0
M  V30 1885 H 173.992 -1.16225 5.21916 0
M  V30 1886 H 174.335 -1.93019 3.68849 0
M  V30 1887 H 174.868 -0.25487 3.96983 0
M  V30 1888 H 171.607 1.53831 6.37194 0
M  V30 1889 H 171.127 -0.132628 5.99653 0
M  V30 1890 H 172.806 0.232134 6.46583 0
M  V30 1891 N 172.938 -1.57226 0.108567 0
M  V30 1892 C 174.215 -1.86333 -0.594939 0
M  V30 1893 C 174.595 -1.00788 -1.85486 0
M  V30 1894 O 173.943 -0.0839293 -2.28346 0
M  V30 1895 C 174.153 -3.37265 -0.897405 0
M  V30 1896 C 175.501 -4.05629 -1.25501 0
M  V30 1897 O 176.525 -3.42224 -0.987998 0
M  V30 1898 O 175.384 -5.17531 -1.75567 0
M  V30 1899 H 172.478 -0.771018 -0.2991 0
M  V30 1900 H 175.024 -1.69102 0.142283 0
M  V30 1901 H 173.796 -3.913 -0.00413806 0
M  V30 1902 H 173.419 -3.59889 -1.69014 0
M  V30 1903 N 174.416 0.165178 -1.56732 0
M  V30 1904 C 175.832 0.517174 -1.50988 0
M  V30 1905 C 176.032 1.84331 -0.813894 0
M  V30 1906 O 175.088 2.49672 -0.37682 0
M  V30 1907 C 176.401 0.544261 -2.95733 0
M  V30 1908 C 177.949 0.631039 -3.06573 0
M  V30 1909 C 178.424 0.68896 -4.52788 0
M  V30 1910 N 179.915 0.751683 -4.5706 0
M  V30 1911 C 180.65 0.817177 -5.67547 0
M  V30 1912 N 180.146 0.843129 -6.8765 0
M  V30 1913 N 181.939 0.856668 -5.55534 0
M  V30 1914 H 174.09 -0.704318 -2.00382 0
M  V30 1915 H 176.353 -0.254687 -0.913148 0
M  V30 1916 H 176.059 -0.361607 -3.49836 0
M  V30 1917 H 175.933 1.3886 -3.5071 0
M  V30 1918 H 178.32 1.52733 -2.52501 0
M  V30 1919 H 178.401 -0.240095 -2.54671 0
M  V30 1920 H 178.045 -0.2031 -5.07494 0
M  V30 1921 H 177.975 1.57633 -5.02454 0
M  V30 1922 H 180.466 0.739661 -3.70591 0
M  V30 1923 H 180.779 0.894448 -7.67606 0
M  V30 1924 H 179.124 0.811304 -6.90248 0
M  V30 1925 H 182.315 0.833437 -4.60621 0
M  V30 1926 H 182.488 0.904247 -6.4166 0
M  V30 1927 N 175.894 1.51508 0.433938 0
M  V30 1928 C 177.134 1.66006 1.19253 0
M  V30 1929 C 177.498 0.369868 1.88404 0
M  V30 1930 O 178.699 0.39066 2.65946 0
M  V30 1931 C 176.97 2.83229 2.17981 0
M  V30 1932 S 178.529 3.18075 3.02281 0
M  V30 1933 H 175.347 0.584821 0.404358 0
M  V30 1934 H 177.949 1.89425 0.48357 0
M  V30 1935 H 176.653 3.75407 1.65824 0
M  V30 1936 H 176.184 2.6201 2.93453 0
M  V30 1937 H 178.199 2.64772 4.19655 0
M  V30 1938 N 177.372 -0.689602 1.41712 0
M  V30 1939 C 178.597 -1.48329 1.44959 0
M  V30 1940 C 179.022 -1.8801 0.0581283 0
M  V30 1941 O 178.38 -1.55026 -0.940035 0
M  V30 1942 C 178.428 -2.71835 2.36935 0
M  V30 1943 O 177.532 -3.69549 1.8305 0
M  V30 1944 H 176.873 -0.446199 0.491734 0
M  V30 1945 H 179.403 -0.847127 1.86239 0
M  V30 1946 H 179.413 -3.20076 2.53013 0
M  V30 1947 H 178.088 -2.42291 3.38035 0
M  V30 1948 H 176.665 -3.2851 1.76452 0
M  V30 1949 N 178.85 -1.27639 -0.924453 0
M  V30 1950 C 179.798 -1.10485 -2.04685 0
M  V30 1951 C 180.792 -0.0270421 -1.69378 0
M  V30 1952 O 181.998 -0.185008 -1.79047 0
M  V30 1953 H 178.373 -0.340546 -0.670472 0
M  V30 1954 H 180.344 -2.05566 -2.16298 0
M  V30 1955 C 179.093 -0.772229 -3.39016 0
M  V30 1956 H 178.416 -1.59351 -3.66671 0
M  V30 1957 H 179.856 -0.692097 -4.18313 0
M  V30 1958 C 178.315 0.523554 -3.32807 0
M  V30 1959 O 178.845 1.55702 -3.70297 0
M  V30 1960 N 177.051 0.520363 -2.85903 0
M  V30 1961 H 176.598 -0.32107 -2.55591 0
M  V30 1962 H 176.556 1.38742 -2.82131 0
M  V30 1963 N 180.328 1.1314 -1.09713 0
M  V30 1964 C 181.577 1.83838 -0.829851 0
M  V30 1965 C 181.89 1.84599 0.646728 0
M  V30 1966 O 183.096 2.51218 1.02965 0
M  V30 1967 C 181.552 3.30069 -1.43466 0
M  V30 1968 C 181.16 3.37688 -2.94399 0
M  V30 1969 C 182.904 4.05788 -1.24645 0
M  V30 1970 C 180.811 4.78209 -3.47952 0
M  V30 1971 H 179.741 0.68877 -0.306777 0
M  V30 1972 H 182.392 1.27448 -1.3202 0
M  V30 1973 H 180.774 3.8628 -0.871996 0
M  V30 1974 H 181.948 2.91456 -3.56918 0
M  V30 1975 H 180.263 2.75436 -3.12289 0
M  V30 1976 H 182.86 5.09535 -1.62107 0
M  V30 1977 H 183.203 4.15878 -0.187357 0
M  V30 1978 H 183.736 3.55915 -1.77678 0
M  V30 1979 H 180.475 4.73311 -4.53495 0
M  V30 1980 H 179.995 5.24924 -2.90198 0
M  V30 1981 H 181.674 5.47133 -3.45332 0
M  V30 1982 N 181.806 0.884767 1.30421 0
M  V30 1983 C 183.052 0.513218 1.96819 0
M  V30 1984 C 183.407 -0.927347 1.68577 0
M  V30 1985 O 182.7 -1.64644 0.979941 0
M  V30 1986 C 182.894 0.724318 3.49983 0
M  V30 1987 C 182.723 2.18385 3.93113 0
M  V30 1988 C 181.493 2.82839 4.18725 0
M  V30 1989 C 183.691 3.15763 4.05953 0
M  V30 1990 N 181.673 4.1939 4.48314 0
M  V30 1991 C 183.044 4.37387 4.39423 0
M  V30 1992 C 185.099 3.11555 3.88379 0
M  V30 1993 C 183.802 5.55343 4.5715 0
M  V30 1994 C 185.828 4.28782 4.07308 0
M  V30 1995 C 185.19 5.49172 4.41123 0
M  V30 1996 H 181.289 0.237123 0.745182 0
M  V30 1997 H 183.873 1.14246 1.57658 0
M  V30 1998 H 182.044 0.124565 3.882 0
M  V30 1999 H 183.776 0.31969 4.03435 0
M  V30 2000 H 180.531 2.33708 4.11919 0
M  V30 2001 H 180.955 4.89911 4.67243 0
M  V30 2002 H 185.597 2.19576 3.61312 0
M  V30 2003 H 183.315 6.47826 4.8306 0
M  V30 2004 H 186.901 4.26995 3.95179 0
M  V30 2005 H 185.781 6.38371 4.55469 0
M  V30 2006 N 183.284 -1.43765 0.645699 0
M  V30 2007 C 184.247 -2.29163 -0.0409488 0
M  V30 2008 C 185.247 -1.41813 -0.757996 0
M  V30 2009 O 186.437 -1.63527 -0.600382 0
M  V30 2010 C 183.569 -3.23716 -1.06869 0
M  V30 2011 H 184.762 -2.91366 0.710345 0
M  V30 2012 H 182.315 -1.5092 0.406547 0
M  V30 2013 H 183.05 -2.66393 -1.84947 0
M  V30 2014 H 182.835 -3.88105 -0.558277 0
M  V30 2015 H 184.325 -3.87831 -1.54845 0
M  V30 2016 N 184.763 -0.387143 -1.52771 0
M  V30 2017 C 185.988 0.198407 -2.06449 0
M  V30 2018 C 186.413 1.39918 -1.25716 0
M  V30 2019 O 185.771 1.79099 -0.281657 0
M  V30 2020 C 185.819 0.548893 -3.56398 0
M  V30 2021 O 184.923 1.64315 -3.78252 0
M  V30 2022 H 184.264 0.0237731 -0.663574 0
M  V30 2023 H 186.794 -0.553989 -1.96957 0
M  V30 2024 H 186.804 0.813812 -3.99801 0
M  V30 2025 H 185.479 -0.329005 -4.14597 0
M  V30 2026 H 184.056 1.37211 -3.46738 0
M  V30 2027 N 186.241 1.57166 -0.116904 0
M  V30 2028 C 187.171 2.18222 0.830759 0
M  V30 2029 C 188.152 1.12167 1.27877 0
M  V30 2030 O 189.337 1.40394 1.34176 0
M  V30 2031 C 186.467 2.77996 2.08172 0
M  V30 2032 C 185.421 3.89614 1.77157 0
M  V30 2033 C 184.747 4.36187 3.09265 0
M  V30 2034 C 186.047 5.1181 1.04151 0
M  V30 2035 H 187.741 2.97664 0.321992 0
M  V30 2036 H 185.287 1.4318 0.153434 0
M  V30 2037 H 187.24 3.19366 2.74924 0
M  V30 2038 H 185.964 1.9584 2.6137 0
M  V30 2039 H 184.623 3.48816 1.12796 0
M  V30 2040 H 184.271 3.50893 3.60393 0
M  V30 2041 H 183.971 5.11455 2.89288 0
M  V30 2042 H 185.495 4.80207 3.77139 0
M  V30 2043 H 186.909 5.50214 1.61052 0
M  V30 2044 H 185.306 5.92648 0.942762 0
M  V30 2045 H 186.376 4.84892 0.0279022 0
M  V30 2046 N 187.719 -0.156864 1.56817 0
M  V30 2047 C 189.13 -0.717916 1.72345 0
M  V30 2048 C 189.481 -1.82124 0.729747 0
M  V30 2049 O 188.606 -2.16141 -0.105781 0
M  V30 2050 C 189.201 -1.30904 3.12489 0
M  V30 2051 C 187.76 -1.81676 3.29653 0
M  V30 2052 C 186.907 -0.701349 2.68284 0
M  V30 2053 H 189.858 0.0686989 1.58551 0
M  V30 2054 H 189.879 -2.17882 3.11942 0
M  V30 2055 H 189.391 -0.505796 3.8479 0
M  V30 2056 H 187.492 -2.64598 2.62333 0
M  V30 2057 H 187.605 -1.95226 4.3752 0
M  V30 2058 H 185.969 -1.12548 2.28484 0
M  V30 2059 H 186.752 0.0902846 3.43181 0
M  V30 2060 N 189.197 -1.51736 -0.425897 0
M  V30 2061 C 190.445 -1.64644 -1.17204 0
M  V30 2062 C 190.766 -0.370486 -1.91448 0
M  V30 2063 O 190.036 0.614088 -1.86026 0
M  V30 2064 H 188.616 -0.606819 -0.435638 0
M  V30 2065 H 191.278 -1.88713 -0.487177 0
M  V30 2066 H 190.374 -2.47958 -1.89534 0
M  V30 2067 N 190.675 0.682077 -1.42076 0
M  V30 2068 C 191.638 1.77756 -1.44691 0
M  V30 2069 C 192.638 1.5726 -0.335535 0
M  V30 2070 O 193.828 1.63686 -0.596037 0
M  V30 2071 C 190.96 3.16301 -1.27146 0
M  V30 2072 H 192.153 1.76826 -2.42224 0
M  V30 2073 H 189.706 0.891012 -1.28416 0
M  V30 2074 H 190.441 3.22862 -0.305075 0
M  V30 2075 H 190.226 3.32581 -2.07683 0
M  V30 2076 H 191.716 3.96241 -1.31843 0
M  V30 2077 N 192.153 1.28127 0.917671 0
M  V30 2078 C 193.401 1.14825 1.66312 0
M  V30 2079 C 193.722 -0.304379 1.9261 0
M  V30 2080 O 192.992 -1.21149 1.53947 0
M  V30 2081 H 191.572 0.421953 0.616413 0
M  V30 2082 H 194.234 1.608 1.10134 0
M  V30 2083 H 193.33 1.68489 2.62712 0
M  V30 2084 N 193.631 -1.12557 1.10312 0
M  V30 2085 C 194.861 -1.87592 0.865617 0
M  V30 2086 C 195.269 -1.79851 -0.587389 0
M  V30 2087 O 194.612 -1.16949 -1.41664 0
M  V30 2088 C 194.674 -3.37665 1.23381 0
M  V30 2089 C 194.338 -3.69181 2.69359 0
M  V30 2090 C 195.335 -3.67652 3.67597 0
M  V30 2091 C 193.02 -3.98555 3.05711 0
M  V30 2092 C 195.014 -3.95053 5.00212 0
M  V30 2093 C 192.701 -4.25616 4.38514 0
M  V30 2094 C 193.699 -4.23851 5.35574 0
M  V30 2095 O 193.387 -4.50242 6.65986 0
M  V30 2096 H 193.119 -0.600442 0.310557 0
M  V30 2097 H 195.673 -1.4335 1.47105 0
M  V30 2098 H 193.903 -3.82454 0.571467 0
M  V30 2099 H 195.592 -3.94041 0.973994 0
M  V30 2100 H 196.358 -3.45024 3.40857 0
M  V30 2101 H 192.237 -3.99071 2.30789 0
M  V30 2102 H 195.781 -3.93591 5.75962 0
M  V30 2103 H 191.678 -4.47718 4.64994 0
M  V30 2104 H 192.446 -4.67867 6.71597 0
M  V30 2105 N 195.109 -0.891671 -1.2995 0
M  V30 2106 C 196.357 -0.512486 -1.95494 0
M  V30 2107 C 196.678 0.942776 -1.70695 0
M  V30 2108 O 195.948 1.66374 -1.03424 0
M  V30 2109 H 194.528 -0.186533 -0.723336 0
M  V30 2110 H 197.19 -1.13621 -1.58355 0
M  V30 2111 H 196.286 -0.688342 -3.04415 0
M  V30 2112 N 196.587 1.43421 -0.653314 0
M  V30 2113 C 197.519 2.29071 0.0769134 0
M  V30 2114 C 198.532 1.42513 0.787017 0
M  V30 2115 O 199.721 1.66449 0.644757 0
M  V30 2116 C 196.821 3.19436 1.13199 0
M  V30 2117 C 195.994 4.34533 0.500006 0
M  V30 2118 C 195.053 5.05771 1.45198 0
M  V30 2119 O 194.079 5.61037 0.960538 0
M  V30 2120 N 195.281 5.0928 2.78594 0
M  V30 2121 H 198.046 2.92382 -0.658235 0
M  V30 2122 H 195.607 1.54112 -0.496104 0
M  V30 2123 H 197.599 3.63958 1.76964 0
M  V30 2124 H 196.169 2.57724 1.7691 0
M  V30 2125 H 195.389 3.92925 -0.316738 0
M  V30 2126 H 196.677 5.08766 0.0588345 0
M  V30 2127 H 196.075 4.65751 3.2108 0
M  V30 2128 H 194.632 5.57519 3.37662 0
M  V30 2129 N 198.065 0.39524 1.52563 0
M  V30 2130 C 199.312 -0.185044 2.01653 0
M  V30 2131 C 199.64 -1.46317 1.28146 0
M  V30 2132 O 198.895 -1.9213 0.372074 0
M  V30 2133 C 199.194 -0.493444 3.53977 0
M  V30 2134 C 198.86 0.69384 4.4553 0
M  V30 2135 C 197.522 1.01954 4.70275 0
M  V30 2136 C 199.874 1.48785 4.99512 0
M  V30 2137 C 197.202 2.14069 5.46252 0
M  V30 2138 C 199.554 2.59965 5.76716 0
M  V30 2139 C 198.218 2.93037 5.99738 0
M  V30 2140 H 197.488 -0.0677123 0.7379 0
M  V30 2141 H 200.135 0.533807 1.8391 0
M  V30 2142 H 198.44 -1.29369 3.69825 0
M  V30 2143 H 200.137 -0.955163 3.89458 0
M  V30 2144 H 196.727 0.429987 4.26438 0
M  V30 2145 H 200.911 1.24946 4.80315 0
M  V30 2146 H 196.167 2.40056 5.62302 0
M  V30 2147 H 200.341 3.21887 6.17545 0
M  V30 2148 H 197.968 3.8003 6.58393 0
M  V30 2149 N 199.544 -1.57102 0.125237 0
M  V30 2150 C 200.454 -2.19191 -0.8362 0
M  V30 2151 C 201.47 -1.16985 -1.28805 0
M  V30 2152 O 202.646 -1.49479 -1.34974 0
M  V30 2153 C 199.711 -2.78407 -2.06617 0
M  V30 2154 C 198.772 -3.9567 -1.66565 0
M  V30 2155 C 198.005 -4.52052 -2.83698 0
M  V30 2156 O 198.228 -4.07326 -3.99302 0
M  V30 2157 O 197.162 -5.42645 -2.60423 0
M  V30 2158 H 200.988 -3.01816 -0.337776 0
M  V30 2159 H 198.573 -1.4906 -0.100695 0
M  V30 2160 H 200.455 -3.16129 -2.7864 0
M  V30 2161 H 199.13 -1.9881 -2.55453 0
M  V30 2162 H 198.037 -3.62705 -0.916296 0
M  V30 2163 H 199.37 -4.76722 -1.22464 0
M  V30 2164 N 201.022 0.148545 -1.56898 0
M  V30 2165 C 201.972 1.1886 -1.94567 0
M  V30 2166 C 202.956 1.3863 -0.816735 0
M  V30 2167 O 204.148 1.40218 -1.08018 0
M  V30 2168 C 201.277 2.52262 -2.32849 0
M  V30 2169 C 200.363 2.36092 -3.52309 0
M  V30 2170 N 200.754 1.89674 -4.6889 0
M  V30 2171 C 199.052 2.66848 -3.57363 0
M  V30 2172 C 199.753 1.86511 -5.50989 0
M  V30 2173 N 198.729 2.29766 -4.92655 0
M  V30 2174 H 202.531 0.821793 -2.82177 0
M  V30 2175 H 200.045 0.356615 -1.58436 0
M  V30 2176 H 202.042 3.27447 -2.58039 0
M  V30 2177 H 200.702 2.89727 -1.46589 0
M  V30 2178 H 201.713 1.59663 -4.92674 0
M  V30 2179 H 198.39 3.08198 -2.81639 0
M  V30 2180 H 199.78 1.52128 -6.54452 0
M  V30 2181 N 202.5 1.5196 0.417844 0
M  V30 2182 C 203.447 1.74678 1.50852 0
M  V30 2183 C 204.417 0.588947 1.55308 0
M  V30 2184 O 205.602 0.825544 1.72016 0
M  V30 2185 C 202.742 1.89544 2.88387 0
M  V30 2186 C 201.855 3.17166 2.93309 0
M  V30 2187 C 200.99 3.22513 4.22088 0
M  V30 2188 C 200.029 4.44372 4.20951 0
M  V30 2189 N 199.166 4.47161 5.41287 0
M  V30 2190 H 204.006 2.67768 1.30783 0
M  V30 2191 H 201.543 1.32689 0.63498 0
M  V30 2192 H 203.501 1.96146 3.68216 0
M  V30 2193 H 202.131 0.998424 3.06971 0
M  V30 2194 H 201.183 3.19778 2.06024 0
M  V30 2195 H 202.495 4.07021 2.88332 0
M  V30 2196 H 201.649 3.28139 5.10303 0
M  V30 2197 H 200.388 2.30581 4.29748 0
M  V30 2198 H 199.393 4.38902 3.31127 0
M  V30 2199 H 200.618 5.3759 4.14938 0
M  V30 2200 H 198.564 3.58108 5.49632 0
M  V30 2201 H 198.481 5.3085 5.3827 0
M  V30 2202 H 199.749 4.57005 6.3148 0
M  V30 2203 N 203.978 -0.674533 1.42435 0
M  V30 2204 C 204.941 -1.76986 1.45632 0
M  V30 2205 C 205.941 -1.5708 0.343871 0
M  V30 2206 O 207.131 -1.63367 0.604709 0
M  V30 2207 C 204.263 -3.15623 1.28822 0
M  V30 2208 H 205.456 -1.75539 2.43158 0
M  V30 2209 H 203.009 -0.884189 1.28887 0
M  V30 2210 H 203.744 -3.22696 0.322193 0
M  V30 2211 H 203.529 -3.31475 2.09444 0
M  V30 2212 H 205.019 -3.95537 1.33942 0
M  V30 2213 N 205.456 -1.28612 -0.910864 0
M  V30 2214 C 206.733 -1.06632 -1.63979 0
M  V30 2215 C 207.113 0.393351 -2.07403 0
M  V30 2216 O 206.461 1.37999 -1.82122 0
M  V30 2217 C 206.671 -2.0436 -2.8291 0
M  V30 2218 C 208.019 -2.34666 -3.5386 0
M  V30 2219 O 209.043 -2.02467 -2.93062 0
M  V30 2220 O 207.902 -2.89631 -4.63439 0
M  V30 2221 H 204.996 -0.407737 -0.7195 0
M  V30 2222 H 207.542 -1.39942 -0.959914 0
M  V30 2223 H 206.314 -3.02727 -2.47936 0
M  V30 2224 H 205.937 -1.71714 -3.58609 0
M  V30 2225 N 206.934 1.1197 -1.10907 0
M  V30 2226 C 208.159 1.87942 -0.877064 0
M  V30 2227 C 208.584 1.79341 0.567314 0
M  V30 2228 O 207.942 1.15184 1.40009 0
M  V30 2229 C 207.99 3.34926 -1.33629 0
M  V30 2230 O 207.094 4.09303 -0.504447 0
M  V30 2231 H 206.435 0.583785 -0.316371 0
M  V30 2232 H 208.965 1.4157 -1.47712 0
M  V30 2233 H 208.975 3.8577 -1.32837 0
M  V30 2234 H 207.65 3.40504 -2.3881 0
M  V30 2235 H 206.227 3.68393 -0.577993 0
M  V30 2236 N 208.412 0.89855 1.29475 0
M  V30 2237 C 209.342 0.39201 2.30186 0
M  V30 2238 C 210.323 -0.532359 1.61555 0
M  V30 2239 O 211.508 -0.443331 1.89072 0
M  V30 2240 C 208.638 -0.382353 3.45189 0
M  V30 2241 C 207.592 0.451483 4.25612 0
M  V30 2242 C 206.918 -0.450307 5.328 0
M  V30 2243 C 208.218 1.70079 4.93832 0
M  V30 2244 H 209.912 1.23362 2.72804 0
M  V30 2245 H 207.458 0.594638 1.31149 0
M  V30 2246 H 209.411 -0.747451 4.14718 0
M  V30 2247 H 208.135 -1.25774 3.01411 0
M  V30 2248 H 206.794 0.798897 3.57789 0
M  V30 2249 H 206.442 -1.32379 4.85268 0
M  V30 2250 H 206.142 0.103902 5.87508 0
M  V30 2251 H 207.666 -0.811623 6.05182 0
M  V30 2252 H 209.08 1.40549 5.55805 0
M  V30 2253 H 207.477 2.19623 5.58467 0
M  V30 2254 H 208.547 2.43744 4.19186 0
M  V30 2255 N 209.89 -1.43072 0.660911 0
M  V30 2256 C 211.139 -2.00942 0.174735 0
M  V30 2257 C 211.452 -1.52797 -1.22117 0
M  V30 2258 O 212.658 -2.02991 -1.80297 0
M  V30 2259 C 211.114 -3.58948 0.261559 0
M  V30 2260 C 210.722 -4.16085 1.66064 0
M  V30 2261 C 212.466 -4.24173 -0.166617 0
M  V30 2262 C 210.373 -5.6641 1.70098 0
M  V30 2263 H 209.303 -0.751483 0.0615631 0
M  V30 2264 H 211.954 -1.63955 0.824069 0
M  V30 2265 H 210.336 -3.93372 -0.455421 0
M  V30 2266 H 211.51 -3.93147 2.40359 0
M  V30 2267 H 209.825 -3.6326 2.03546 0
M  V30 2268 H 212.422 -5.34471 -0.156433 0
M  V30 2269 H 212.765 -3.98647 -1.19943 0
M  V30 2270 H 213.298 -3.94659 0.498875 0
M  V30 2271 H 210.037 -5.96715 2.71315 0
M  V30 2272 H 209.557 -5.91382 1.00139 0
M  V30 2273 H 211.236 -6.30585 1.44816 0
M  V30 2274 N 211.368 -0.403325 -1.52352 0
M  V30 2275 C 212.331 0.413051 -2.25447 0
M  V30 2276 C 213.331 0.978513 -1.276 0
M  V30 2277 O 214.521 0.858305 -1.51587 0
M  V30 2278 C 211.653 1.58087 -3.02029 0
M  V30 2279 H 212.846 -0.227094 -2.99039 0
M  V30 2280 H 210.399 -0.155722 -1.55522 0
M  V30 2281 H 211.134 2.25804 -2.32772 0
M  V30 2282 H 210.919 1.18195 -3.73861 0
M  V30 2283 H 212.409 2.1585 -3.57489 0
M  V30 2284 N 212.846 1.57033 -0.133567 0
M  V30 2285 C 213.793 2.16074 0.811208 0
M  V30 2286 C 214.763 1.08979 1.2535 0
M  V30 2287 O 215.948 1.36958 1.32843 0
M  V30 2288 C 213.088 2.77595 2.05024 0
M  V30 2289 C 212.201 3.99042 1.65498 0
M  V30 2290 C 211.336 4.48603 2.84479 0
M  V30 2291 C 210.375 5.62547 2.41262 0
M  V30 2292 N 209.512 6.06787 3.53206 0
M  V30 2293 H 214.352 2.96477 0.300906 0
M  V30 2294 H 211.889 1.46462 0.136822 0
M  V30 2295 H 213.847 3.11402 2.77642 0
M  V30 2296 H 212.477 1.99859 2.53488 0
M  V30 2297 H 211.529 3.71302 0.826981 0
M  V30 2298 H 212.841 4.81629 1.29748 0
M  V30 2299 H 211.995 4.84395 3.65303 0
M  V30 2300 H 210.734 3.64995 3.23465 0
M  V30 2301 H 209.739 5.26345 1.58874 0
M  V30 2302 H 210.964 6.47931 2.03377 0
M  V30 2303 H 208.91 5.26117 3.91838 0
M  V30 2304 H 208.827 6.84266 3.21427 0
M  V30 2305 H 210.095 6.4722 4.34427 0
M  V30 2306 N 214.325 -0.140222 1.56975 0
M  V30 2307 C 215.572 -0.851687 1.83719 0
M  V30 2308 C 215.9 -1.80862 0.715485 0
M  V30 2309 O 215.155 -1.93464 -0.294956 0
M  V30 2310 C 215.454 -1.65386 3.16832 0
M  V30 2311 C 215.12 -0.843112 4.42947 0
M  V30 2312 C 213.782 -0.619464 4.77196 0
M  V30 2313 C 216.134 -0.276582 5.20466 0
M  V30 2314 C 213.462 0.181312 5.8642 0
M  V30 2315 C 215.814 0.51127 6.30531 0
M  V30 2316 C 214.478 0.745432 6.63325 0
M  V30 2317 H 213.748 -0.311654 0.672274 0
M  V30 2318 H 216.395 -0.115006 1.91154 0
M  V30 2319 H 214.7 -2.46084 3.04877 0
M  V30 2320 H 216.397 -2.20793 3.34741 0
M  V30 2321 H 212.987 -1.0275 4.16101 0
M  V30 2322 H 217.171 -0.436632 4.94376 0
M  V30 2323 H 212.427 0.372165 6.10266 0
M  V30 2324 H 216.601 0.957354 6.89788 0
M  V30 2325 H 214.228 1.36778 7.47794 0
M  V30 2326 N 215.803 -1.52179 -0.40978 0
M  V30 2327 C 216.75 -1.75475 -1.49924 0
M  V30 2328 C 217.72 -0.597175 -1.54994 0
M  V30 2329 O 218.905 -0.834655 -1.71575 0
M  V30 2330 C 216.045 -1.9107 -2.87378 0
M  V30 2331 C 215.158 -3.18717 -2.91622 0
M  V30 2332 C 214.293 -3.24747 -4.20372 0
M  V30 2333 C 213.332 -4.46598 -4.18588 0
M  V30 2334 N 212.469 -4.50025 -5.38908 0
M  V30 2335 H 217.309 -2.68458 -1.29361 0
M  V30 2336 H 214.846 -1.33024 -0.627934 0
M  V30 2337 H 216.804 -1.98096 -3.6717 0
M  V30 2338 H 215.434 -1.01469 -3.06437 0
M  V30 2339 H 214.486 -3.20866 -2.04326 0
M  V30 2340 H 215.798 -4.08544 -2.86169 0
M  V30 2341 H 214.952 -3.30841 -5.08556 0
M  V30 2342 H 213.691 -2.32857 -4.28519 0
M  V30 2343 H 212.696 -4.40652 -3.28794 0
M  V30 2344 H 213.921 -5.39783 -4.12081 0
M  V30 2345 H 211.867 -3.61017 -5.47725 0
M  V30 2346 H 211.784 -5.33697 -5.35447 0
M  V30 2347 H 213.052 -4.60347 -6.29048 0
M  V30 2348 N 217.281 0.66697 -1.42791 0
M  V30 2349 C 218.191 1.80962 -1.49299 0
M  V30 2350 C 219.207 1.69775 -0.381108 0
M  V30 2351 O 220.383 1.91188 -0.633188 0
M  V30 2352 C 217.448 3.17156 -1.40045 0
M  V30 2353 C 216.509 3.40242 -2.6179 0
M  V30 2354 C 215.742 4.69939 -2.52969 0
M  V30 2355 O 215.965 5.48372 -1.56985 0
M  V30 2356 O 214.899 4.94441 -3.43237 0
M  V30 2357 H 218.725 1.78427 -2.45759 0
M  V30 2358 H 216.31 0.823713 -1.24641 0
M  V30 2359 H 218.192 3.98413 -1.37276 0
M  V30 2360 H 216.867 3.20312 -0.467138 0
M  V30 2361 H 215.774 2.58802 -2.70134 0
M  V30 2362 H 217.107 3.41923 -3.54047 0
M  V30 2363 N 218.759 1.29093 0.90403 0
M  V30 2364 C 219.722 1.1386 1.98919 0
M  V30 2365 C 220.722 0.0753457 1.60623 0
M  V30 2366 O 221.912 0.321931 1.71199 0
M  V30 2367 C 219.044 0.740198 3.32767 0
M  V30 2368 H 220.237 2.10246 2.13861 0
M  V30 2369 H 217.79 1.12218 1.08797 0
M  V30 2370 H 218.525 -0.223997 3.23525 0
M  V30 2371 H 218.31 1.50838 3.61926 0
M  V30 2372 H 219.8 0.656546 4.12407 0
M  V30 2373 N 220.237 -1.11381 1.11499 0
M  V30 2374 C 221.485 -1.8277 0.862524 0
M  V30 2375 C 221.806 -1.85097 -0.613534 0
M  V30 2376 O 221.076 -1.32198 -1.4457 0
M  V30 2377 H 219.656 -0.676823 0.316101 0
M  V30 2378 H 222.318 -1.34816 1.4075 0
M  V30 2379 H 221.414 -2.86614 1.23527 0
M  V30 2380 N 221.715 -0.905404 -1.28997 0
M  V30 2381 C 222.963 -0.533192 -1.9494 0
M  V30 2382 C 223.284 0.924618 -1.71685 0
M  V30 2383 O 222.554 1.65268 -1.05183 0
M  V30 2384 H 221.134 -0.194194 -0.721317 0
M  V30 2385 H 223.796 -1.15294 -1.57141 0
M  V30 2386 H 222.892 -0.72059 -3.03667 0
M  V30 2387 N 223.193 1.4272 -0.668489 0
M  V30 2388 C 224.421 2.05966 -0.196348 0
M  V30 2389 C 224.836 1.50191 1.14403 0
M  V30 2390 O 224.193 0.639208 1.7094 0
M  V30 2391 C 224.244 3.61314 -0.115815 0
M  V30 2392 O 223.965 4.1502 -1.40322 0
M  V30 2393 C 225.466 4.41663 0.380579 0
M  V30 2394 H 222.686 0.663954 -0.0969829 0
M  V30 2395 H 225.23 1.82966 -0.913446 0
M  V30 2396 H 223.385 3.83448 0.551931 0
M  V30 2397 H 223.799 5.08832 -1.27243 0
M  V30 2398 H 225.273 5.5065 0.385848 0
M  V30 2399 H 225.75 4.15792 1.41471 0
M  V30 2400 H 226.356 4.24534 -0.255209 0
M  V30 2401 N 224.671 0.411399 1.52136 0
M  V30 2402 C 225.917 -0.163888 2.02137 0
M  V30 2403 C 226.25 -1.44597 1.29636 0
M  V30 2404 O 225.525 -1.90272 0.403353 0
M  V30 2405 C 225.808 -0.40927 3.57767 0
M  V30 2406 C 225.661 0.889643 4.40914 0
M  V30 2407 C 226.98 -1.19042 4.23694 0
M  V30 2408 H 224.099 -0.0580896 0.734707 0
M  V30 2409 H 226.741 0.54531 1.82007 0
M  V30 2410 H 224.891 -1.0134 3.7505 0
M  V30 2411 H 226.563 1.52575 4.35337 0
M  V30 2412 H 224.806 1.50011 4.07037 0
M  V30 2413 H 225.477 0.672314 5.4789 0
M  V30 2414 H 227.953 -0.678942 4.10524 0
M  V30 2415 H 226.829 -1.33086 5.32522 0
M  V30 2416 H 227.09 -2.21166 3.82803 0
M  V30 2417 N 226.149 -1.5696 0.141893 0
M  V30 2418 C 227.565 -1.58151 -0.21456 0
M  V30 2419 C 227.765 -1.1559 -1.65049 0
M  V30 2420 O 226.821 -0.853832 -2.37626 0
M  V30 2421 C 228.134 -3.00674 0.0395576 0
M  V30 2422 C 229.682 -3.1299 -0.0245529 0
M  V30 2423 C 230.157 -4.57554 0.202167 0
M  V30 2424 N 231.648 -4.62961 0.148919 0
M  V30 2425 C 232.383 -5.7262 0.298924 0
M  V30 2426 N 231.879 -6.90947 0.50637 0
M  V30 2427 N 233.672 -5.61601 0.236886 0
M  V30 2428 H 225.823 -1.8292 1.07953 0
M  V30 2429 H 228.086 -0.846425 0.42693 0
M  V30 2430 H 227.792 -3.36183 1.03315 0
M  V30 2431 H 227.666 -3.70981 -0.682143 0
M  V30 2432 H 230.053 -2.77326 -1.00869 0
M  V30 2433 H 230.134 -2.4518 0.729396 0
M  V30 2434 H 229.778 -4.93922 1.18338 0
M  V30 2435 H 229.708 -5.23484 -0.572044 0
M  V30 2436 H 232.199 -3.77899 -0.00697015 0
M  V30 2437 H 232.512 -7.7038 0.611076 0
M  V30 2438 H 230.857 -6.92878 0.542628 0
M  V30 2439 H 234.048 -4.68039 0.0756209 0
M  V30 2440 H 234.221 -6.47015 0.357227 0
M  V30 2441 N 227.627 0.131896 -1.57047 0
M  V30 2442 C 228.537 1.1815 -2.02676 0
M  V30 2443 C 229.553 1.46113 -0.944824 0
M  V30 2444 O 230.729 1.57485 -1.25541 0
M  V30 2445 C 227.794 2.49139 -2.41103 0
M  V30 2446 C 226.855 2.28688 -3.63318 0
M  V30 2447 C 226.088 3.53431 -3.99903 0
M  V30 2448 O 226.311 4.60223 -3.36973 0
M  V30 2449 O 225.245 3.45198 -4.93074 0
M  V30 2450 H 229.071 0.824069 -2.92306 0
M  V30 2451 H 226.656 0.341745 -1.45439 0
M  V30 2452 H 228.538 3.26338 -2.66611 0
M  V30 2453 H 227.213 2.84382 -1.54624 0
M  V30 2454 H 226.12 1.4939 -3.42977 0
M  V30 2455 H 227.453 1.98355 -4.50462 0
M  V30 2456 N 229.106 1.52395 0.401703 0
M  V30 2457 C 230.355 1.66044 1.14509 0
M  V30 2458 C 230.668 0.400216 1.91462 0
M  V30 2459 O 231.874 0.416632 2.68284 0
M  V30 2460 C 230.33 2.93388 2.0845 0
M  V30 2461 C 229.938 4.26545 1.36978 0
M  V30 2462 C 231.682 3.16402 2.83001 0
M  V30 2463 C 229.589 5.45007 2.29611 0
M  V30 2464 H 228.519 0.618562 0.431158 0
M  V30 2465 H 231.17 1.78886 0.40892 0
M  V30 2466 H 229.552 2.74263 2.8565 0
M  V30 2467 H 230.726 4.56179 0.650916 0
M  V30 2468 H 229.041 4.09692 0.74438 0
M  V30 2469 H 231.638 4.02085 3.52465 0
M  V30 2470 H 231.981 2.30943 3.46368 0
M  V30 2471 H 232.514 3.36034 2.12898 0
M  V30 2472 H 229.253 6.32835 1.70879 0
M  V30 2473 H 228.773 5.19702 2.9945 0
M  V30 2474 H 230.452 5.7838 2.89974 0
M  V30 2475 N 230.584 -0.659388 1.43143 0
M  V30 2476 C 231.861 -1.41627 1.34912 0
M  V30 2477 C 232.241 -2.11099 -0.00607785 0
M  V30 2478 O 231.589 -2.04353 -1.02236 0
M  V30 2479 C 231.799 -2.40604 2.52805 0
M  V30 2480 C 233.147 -3.04789 2.95616 0
M  V30 2481 O 234.171 -2.50932 2.52807 0
M  V30 2482 O 233.03 -4.02421 3.69756 0
M  V30 2483 H 230.124 -0.63246 0.532844 0
M  V30 2484 H 232.67 -0.686814 1.5518 0
M  V30 2485 H 231.442 -1.88174 3.43083 0
M  V30 2486 H 231.065 -3.21009 2.34604 0
M  V30 2487 N 232.062 -1.29571 -0.897171 0
M  V30 2488 C 233.308 -1.17863 -1.65034 0
M  V30 2489 C 233.641 0.268729 -1.92332 0
M  V30 2490 O 232.916 1.19378 -1.53555 0
M  V30 2491 C 233.199 -1.995 -2.99786 0
M  V30 2492 C 233.052 -3.5239 -2.79538 0
M  V30 2493 C 234.371 -1.82335 -4.00552 0
M  V30 2494 H 231.49 -0.429528 -0.598895 0
M  V30 2495 H 234.132 -1.59072 -1.03905 0
M  V30 2496 H 232.282 -1.64485 -3.51962 0
M  V30 2497 H 233.954 -3.97401 -2.34244 0
M  V30 2498 H 232.197 -3.77187 -2.14273 0
M  V30 2499 H 232.868 -4.04787 -3.75302 0
M  V30 2500 H 235.344 -2.12924 -3.57495 0
M  V30 2501 H 234.22 -2.41801 -4.92771 0
M  V30 2502 H 234.481 -0.779209 -4.35179 0
M  V30 2503 O 233.579 1.03276 -1.24162 0
M  V30 2504 H 234.27 1.64832 -1.01735 0
M  V30 END ATOM
M  V30 BEGIN BOND
M  V30 END BOND
M  V30 END CTAB
M  END
$$$$
