drugbank_target|P03891 NADH-ubiquinone oxidoreductase chain 2 (DB00157)
 OpenBabel12092119363D

  0  0  0     0  0            999 V3000
M  V30 BEGIN CTAB
M  V30 COUNTS 5626 5699 0 0 0
M  V30 BEGIN ATOM
M  V30 1 H -0.908 1.98254 -0.117106 0
M  V30 2 N 0 1.576 0 0
M  V30 3 C 0.933 2.03868 1.02534 0
M  V30 4 C 1.911 0.928543 1.3348 0
M  V30 5 O 3.095 1.19667 1.45644 0
M  V30 6 C 0.222 2.43627 2.35294 0
M  V30 7 C -0.732 3.65373 2.2001 0
M  V30 8 S 0.101 5.13292 1.52614 0
M  V30 9 C 1.257 5.56322 2.86805 0
M  V30 10 H 1.49 2.90518 0.631377 0
M  V30 11 H -0.977 1.52953 0.210867 0
M  V30 12 H 0.981 2.67203 3.11629 0
M  V30 13 H -0.358 1.57376 2.7183 0
M  V30 14 H -1.165 3.90944 3.18086 0
M  V30 15 H -1.563 3.418 1.51819 0
M  V30 16 H 0.729 5.58782 3.83104 0
M  V30 17 H 1.672 6.56266 2.65933 0
M  V30 18 H 2.08 4.83886 2.90714 0
M  V30 19 N 1.4781 -0.272755 1.55222 0
M  V30 20 C 2.4261 -1.35705 1.88909 0
M  V30 21 C 3.4201 -1.5112 0.765456 0
M  V30 22 O 4.6261 -1.52901 0.949802 0
M  V30 23 H 1.0011 -0.453868 0.59959 0
M  V30 24 H 2.9721 -1.04544 2.79487 0
M  V30 25 C 1.7211 -2.71049 2.17779 0
M  V30 26 H 1.0441 -2.59979 3.03728 0
M  V30 27 H 2.4841 -3.45858 2.45272 0
M  V30 28 C 0.9431 -3.22165 0.985473 0
M  V30 29 O 1.4731 -4.01096 0.220233 0
M  V30 30 N -0.3209 -2.7985 0.783108 0
M  V30 31 H -0.7739 -2.15775 1.40708 0
M  V30 32 H -0.8159 -3.14397 -0.0130392 0
M  V30 33 N 2.9562 -1.48159 -0.537278 0
M  V30 34 C 4.3672 -1.49429 -1.11928 0
M  V30 35 C 4.7182 -0.26 -1.9447 0
M  V30 36 O 3.8432 0.633489 -2.0692 0
M  V30 37 C 4.4382 -2.70758 -2.03656 0
M  V30 38 C 2.9972 -2.74923 -2.57088 0
M  V30 39 C 2.1442 -2.42835 -1.3389 0
M  V30 40 H 5.0952 -1.55381 -0.322886 0
M  V30 41 H 5.1162 -2.48861 -2.87834 0
M  V30 42 H 4.6282 -3.60575 -1.43553 0
M  V30 43 H 2.7292 -1.89296 -3.20933 0
M  V30 44 H 2.8422 -3.76157 -2.9672 0
M  V30 45 H 1.2062 -1.93836 -1.65226 0
M  V30 46 H 1.9892 -3.34884 -0.755504 0
M  V30 47 N 4.4343 0.785586 -1.36625 0
M  V30 48 C 5.3643 1.91259 -1.33949 0
M  V30 49 C 6.3453 1.68795 -0.210325 0
M  V30 50 O 7.5303 1.89854 -0.408561 0
M  V30 51 C 4.6603 3.28339 -1.13186 0
M  V30 52 C 3.6143 3.65335 -2.22967 0
M  V30 53 C 2.9403 5.00806 -1.87342 0
M  V30 54 C 4.2403 3.7352 -3.65075 0
M  V30 55 H 5.9343 1.93755 -2.28253 0
M  V30 56 H 3.4803 0.930788 -1.09874 0
M  V30 57 H 5.4333 4.06804 -1.09948 0
M  V30 58 H 4.1573 3.2624 -0.153332 0
M  V30 59 H 2.8163 2.89169 -2.25337 0
M  V30 60 H 2.4643 4.95233 -0.880545 0
M  V30 61 H 2.1643 5.26529 -2.60846 0
M  V30 62 H 3.6883 5.81687 -1.85667 0
M  V30 63 H 5.1023 4.42168 -3.64911 0
M  V30 64 H 3.4993 4.10731 -4.37516 0
M  V30 65 H 4.5693 2.74527 -3.99703 0
M  V30 66 N 5.9124 1.20967 1.01018 0
M  V30 67 C 6.8754 0.965918 2.07853 0
M  V30 68 C 7.8754 -0.0610545 1.60684 0
M  V30 69 O 9.0654 0.175681 1.73312 0
M  V30 70 C 6.1974 0.455513 3.37843 0
M  V30 71 H 7.3904 1.91365 2.3091 0
M  V30 72 H 4.9434 1.02594 1.17916 0
M  V30 73 H 5.6784 -0.497381 3.20463 0
M  V30 74 H 5.4634 1.19622 3.73407 0
M  V30 75 H 6.9534 0.304667 4.16487 0
M  V30 76 N 7.3905 -1.2043 1.01659 0
M  V30 77 C 8.3225 -2.22626 0.544988 0
M  V30 78 C 9.3355 -1.58479 -0.372609 0
M  V30 79 O 10.5245 -1.77679 -0.170958 0
M  V30 80 C 7.6245 -3.38141 -0.22663 0
M  V30 81 C 6.7975 -4.31877 0.692876 0
M  V30 82 C 5.8565 -5.26191 -0.0311616 0
M  V30 83 O 4.8825 -5.6612 0.591343 0
M  V30 84 N 6.0845 -5.65618 -1.30601 0
M  V30 85 H 8.8495 -2.63716 1.42388 0
M  V30 86 H 6.4105 -1.34971 0.894116 0
M  V30 87 H 8.4025 -3.98239 -0.72024 0
M  V30 88 H 6.9725 -2.95943 -1.00681 0
M  V30 89 H 6.1925 -3.69746 1.36679 0
M  V30 90 H 7.4805 -4.91426 1.31824 0
M  V30 91 H 6.8785 -5.3519 -1.83269 0
M  V30 92 H 5.4355 -6.28025 -1.74435 0
M  V30 93 N 8.8686 -0.792821 -1.36206 0
M  V30 94 C 10.2796 -0.429513 -1.81692 0
M  V30 95 C 10.6306 1.04695 -1.65932 0
M  V30 96 O 9.7556 1.81256 -1.18218 0
M  V30 97 C 10.3506 -0.772831 -3.29868 0
M  V30 98 C 8.9096 -0.462307 -3.7355 0
M  V30 99 C 8.0566 -1.00569 -2.5842 0
M  V30 100 H 11.0076 -0.985672 -1.24379 0
M  V30 101 H 11.0286 -0.0651928 -3.80444 0
M  V30 102 H 10.5406 -1.84747 -3.41307 0
M  V30 103 H 8.6416 0.604158 -3.67669 0
M  V30 104 H 8.7546 -0.985299 -4.68859 0
M  V30 105 H 7.1186 -0.428734 -2.51066 0
M  V30 106 H 7.9016 -2.08616 -2.72643 0
M  V30 107 N 10.3467 1.47872 -0.545128 0
M  V30 108 C 11.5927 2.02793 -0.0166104 0
M  V30 109 C 11.9257 1.41987 1.32489 0
M  V30 110 O 11.2007 0.571045 1.85928 0
M  V30 111 C 11.4837 3.59989 0.0893294 0
M  V30 112 C 11.3367 4.3125 -1.27841 0
M  V30 113 C 12.6557 4.32606 0.808724 0
M  V30 114 H 9.7747 0.736962 -0.00751035 0
M  V30 115 H 12.4167 1.76433 -0.705085 0
M  V30 116 H 10.5667 3.82579 0.675681 0
M  V30 117 H 12.2387 4.20035 -1.90704 0
M  V30 118 H 10.4817 3.92076 -1.85632 0
M  V30 119 H 11.1527 5.39736 -1.15713 0
M  V30 120 H 13.6287 4.14936 0.310992 0
M  V30 121 H 12.5047 5.42251 0.851782 0
M  V30 122 H 12.7657 4.00963 1.86229 0
M  V30 123 N 11.8248 0.280983 1.55075 0
M  V30 124 C 13.0738 -0.334784 1.98902 0
M  V30 125 C 13.3868 -1.56534 1.17288 0
M  V30 126 O 14.5928 -2.25443 1.51287 0
M  V30 127 C 13.0488 -0.646994 3.54037 0
M  V30 128 C 12.6568 0.564085 4.44435 0
M  V30 129 C 14.4008 -1.22506 4.06439 0
M  V30 130 C 12.3078 0.226137 5.90967 0
M  V30 131 H 11.2378 -0.128866 0.742906 0
M  V30 132 H 13.8888 0.386556 1.79382 0
M  V30 133 H 12.2708 -1.42739 3.6938 0
M  V30 134 H 13.4448 1.34082 4.40861 0
M  V30 135 H 11.7598 1.0594 4.02698 0
M  V30 136 H 14.3568 -1.49182 5.13468 0
M  V30 137 H 14.6998 -2.16085 3.55827 0
M  V30 138 H 15.2328 -0.50682 3.94558 0
M  V30 139 H 11.9718 1.12996 6.45687 0
M  V30 140 H 11.4918 -0.513717 5.97596 0
M  V30 141 H 13.1708 -0.179539 6.46751 0
M  V30 142 N 13.3029 -1.57598 0.00835791 0
M  V30 143 C 14.5329 -1.94931 -0.684496 0
M  V30 144 C 14.9409 -0.882233 -1.67372 0
M  V30 145 O 14.2839 0.146621 -1.83114 0
M  V30 146 C 14.3459 -3.283 -1.4649 0
M  V30 147 C 14.0099 -4.52548 -0.63634 0
M  V30 148 C 15.0069 -5.19839 0.0795586 0
M  V30 149 C 12.6919 -4.98942 -0.579849 0
M  V30 150 C 14.6859 -6.3183 0.840843 0
M  V30 151 C 12.3729 -6.10819 0.185155 0
M  V30 152 C 13.3709 -6.77121 0.894227 0
M  V30 153 O 13.0589 -7.86853 1.64673 0
M  V30 154 H 12.7909 -0.647249 -0.19505 0
M  V30 155 H 15.3449 -2.05318 0.0581272 0
M  V30 156 H 13.5749 -3.14345 -2.2522 0
M  V30 157 H 15.2639 -3.50685 -2.04389 0
M  V30 158 H 16.0299 -4.84979 0.0451202 0
M  V30 159 H 11.9089 -4.47155 -1.1213 0
M  V30 160 H 15.4529 -6.83513 1.39483 0
M  V30 161 H 11.3499 -6.4512 0.221384 0
M  V30 162 H 12.1179 -8.03412 1.56432 0
M  V30 163 N 14.781 0.264519 -1.55364 0
M  V30 164 C 16.006 1.01726 -1.80739 0
M  V30 165 C 16.431 1.78836 -0.583044 0
M  V30 166 O 15.789 1.75167 0.467566 0
M  V30 167 C 15.837 1.94482 -3.03659 0
M  V30 168 O 14.941 3.03386 -2.7934 0
M  V30 169 H 14.282 0.290395 -0.597132 0
M  V30 170 H 16.812 0.290854 -2.02522 0
M  V30 171 H 16.822 2.36278 -3.32621 0
M  V30 172 H 15.497 1.37772 -3.92418 0
M  V30 173 H 14.074 2.65844 -2.61498 0
M  V30 174 N 16.2591 1.48442 0.529413 0
M  V30 175 C 17.4871 1.60151 1.30994 0
M  V30 176 C 17.9021 0.261985 1.86973 0
M  V30 177 O 17.2591 -0.748805 1.66431 0
M  V30 178 C 17.3101 2.64854 2.46038 0
M  V30 179 O 17.0311 3.93608 1.92365 0
M  V30 180 C 18.5321 2.87007 3.37849 0
M  V30 181 H 15.7521 0.539971 0.398338 0
M  V30 182 H 18.2961 1.94273 0.638597 0
M  V30 183 H 16.4511 2.33589 3.09055 0
M  V30 184 H 16.8651 4.51055 2.67675 0
M  V30 185 H 18.3391 3.64068 4.14919 0
M  V30 186 H 18.8161 1.95852 3.93114 0
M  V30 187 H 19.4221 3.19579 2.80623 0
M  V30 188 N 17.7372 -0.778329 1.37039 0
M  V30 189 C 18.9862 -1.53189 1.3121 0
M  V30 190 C 19.2992 -1.95328 -0.103095 0
M  V30 191 O 20.5052 -2.70012 -0.283826 0
M  V30 192 C 18.9612 -2.76591 2.30272 0
M  V30 193 C 18.5692 -2.41577 3.77286 0
M  V30 194 C 20.3132 -3.5455 2.33441 0
M  V30 195 C 18.2202 -3.61441 4.68096 0
M  V30 196 H 17.1502 -0.5751 0.487622 0
M  V30 197 H 19.8012 -0.853101 1.62464 0
M  V30 198 H 18.1832 -3.46326 1.92027 0
M  V30 199 H 19.3572 -1.79668 4.2433 0
M  V30 200 H 17.6722 -1.76806 3.76999 0
M  V30 201 H 20.2692 -4.43628 2.98493 0
M  V30 202 H 20.6122 -3.93936 1.34611 0
M  V30 203 H 21.1452 -2.91805 2.7036 0
M  V30 204 H 17.8842 -3.27142 5.6803 0
M  V30 205 H 17.4042 -4.22478 4.25761 0
M  V30 206 H 19.0832 -4.28335 4.8491 0
M  V30 207 N 19.2153 -1.21501 -1.00376 0
M  V30 208 C 20.4623 -1.03299 -1.74171 0
M  V30 209 C 20.7903 0.433326 -1.89612 0
M  V30 210 O 20.0453 1.33779 -1.42834 0
M  V30 211 C 20.3443 -1.67673 -3.15627 0
M  V30 212 C 20.0103 -3.17533 -3.2013 0
M  V30 213 C 18.6723 -3.58427 -3.21067 0
M  V30 214 C 21.0243 -4.13504 -3.17275 0
M  V30 215 C 18.3523 -4.93794 -3.16835 0
M  V30 216 C 20.7043 -5.48834 -3.14585 0
M  V30 217 C 19.3683 -5.89123 -3.13831 0
M  V30 218 H 18.6383 -0.377999 -0.637336 0
M  V30 219 H 21.2853 -1.51111 -1.17634 0
M  V30 220 H 19.5903 -1.12158 -3.75404 0
M  V30 221 H 21.2873 -1.51091 -3.71446 0
M  V30 222 H 17.8773 -2.84965 -3.20145 0
M  V30 223 H 22.0613 -3.82936 -3.15711 0
M  V30 224 H 17.3173 -5.24255 -3.1459 0
M  V30 225 H 21.4913 -6.22934 -3.1133 0
M  V30 226 H 19.1183 -6.93984 -3.10307 0
M  V30 227 N 20.6934 1.19889 -1.02296 0
M  V30 228 C 21.6564 2.21116 -0.603351 0
M  V30 229 C 22.6564 1.5738 0.329884 0
M  V30 230 O 23.8464 1.73802 0.117702 0
M  V30 231 C 20.9784 3.40696 0.117992 0
M  V30 232 H 22.1714 2.59754 -1.49893 0
M  V30 233 H 19.7244 1.33463 -0.813468 0
M  V30 234 H 20.4594 3.07569 1.0282 0
M  V30 235 H 20.2444 3.88188 -0.552511 0
M  V30 236 H 21.7344 4.15692 0.398696 0
M  V30 237 N 22.1715 0.800033 1.35784 0
M  V30 238 C 23.4195 0.376597 1.9856 0
M  V30 239 C 23.7405 -1.05812 1.63795 0
M  V30 240 O 23.0105 -1.73103 0.917171 0
M  V30 241 H 21.5905 0.136261 0.734467 0
M  V30 242 H 24.2525 1.02442 1.65806 0
M  V30 243 H 23.3485 0.477002 3.08433 0
M  V30 244 N 23.6496 -1.47581 0.552962 0
M  V30 245 C 24.8776 -2.06875 0.0320556 0
M  V30 246 C 25.2926 -1.40625 -1.25976 0
M  V30 247 O 24.6496 -0.501349 -1.75479 0
M  V30 248 C 24.7006 -3.61092 -0.17167 0
M  V30 249 O 24.4216 -4.24858 1.06899 0
M  V30 250 C 25.9226 -4.37242 -0.730344 0
M  V30 251 H 23.1426 -0.669561 0.043915 0
M  V30 252 H 25.6866 -1.89646 0.765163 0
M  V30 253 H 23.8416 -3.7785 -0.854894 0
M  V30 254 H 24.2556 -5.17334 0.864059 0
M  V30 255 H 25.7296 -5.45842 -0.822203 0
M  V30 256 H 26.2066 -4.03235 -1.74064 0
M  V30 257 H 26.8126 -4.25219 -0.0829543 0
M  V30 258 N 25.1277 -0.289203 -1.54924 0
M  V30 259 C 26.0577 0.58549 -2.2604 0
M  V30 260 C 27.0387 1.14753 -1.25562 0
M  V30 261 O 28.2237 1.17906 -1.54311 0
M  V30 262 C 25.3537 1.76305 -2.99222 0
M  V30 263 C 24.3077 1.33191 -4.06748 0
M  V30 264 C 23.6337 2.5937 -4.6758 0
M  V30 265 C 24.9337 0.471775 -5.20165 0
M  V30 266 H 26.6277 -0.00763532 -2.99399 0
M  V30 267 H 24.1737 -0.00511229 -1.43999 0
M  V30 268 H 26.1267 2.38097 -3.47689 0
M  V30 269 H 24.8507 2.38223 -2.23422 0
M  V30 270 H 23.5097 0.737121 -3.59113 0
M  V30 271 H 23.1577 3.19576 -3.88433 0
M  V30 272 H 22.8577 2.31228 -5.40192 0
M  V30 273 H 24.3817 3.21985 -5.18804 0
M  V30 274 H 25.7957 0.995056 -5.64599 0
M  V30 275 H 24.1927 0.284639 -5.99425 0
M  V30 276 H 25.2627 -0.506041 -4.82252 0
M  V30 277 N 26.6058 1.57591 -0.0167156 0
M  V30 278 C 27.8548 1.90461 0.663877 0
M  V30 279 C 28.1678 0.893515 1.73999 0
M  V30 280 O 29.3738 1.11302 2.47637 0
M  V30 281 C 27.8298 3.38155 1.23204 0
M  V30 282 C 27.4378 4.47597 0.189866 0
M  V30 283 C 29.1818 3.80111 1.88986 0
M  V30 284 C 27.0888 5.86379 0.768964 0
M  V30 285 H 26.0188 0.710738 0.251729 0
M  V30 286 H 28.6698 1.83326 -0.0799926 0
M  V30 287 H 27.0518 3.40182 2.02712 0
M  V30 288 H 28.2258 4.57112 -0.581846 0
M  V30 289 H 26.5408 4.14766 -0.368475 0
M  V30 290 H 29.1378 4.81145 2.33247 0
M  V30 291 H 29.4808 3.14511 2.72743 0
M  V30 292 H 30.0138 3.80454 1.16187 0
M  V30 293 H 26.7528 6.55493 -0.0301957 0
M  V30 294 H 26.2728 5.80496 1.50945 0
M  V30 295 H 27.9518 6.34563 1.26251 0
M  V30 296 N 28.0839 -0.256276 1.55502 0
M  V30 297 C 29.3119 -1.00342 1.8094 0
M  V30 298 C 29.7269 -1.79307 0.59114 0
M  V30 299 O 29.0839 -1.77114 -0.440081 0
M  V30 300 C 29.1349 -1.94875 3.04476 0
M  V30 301 O 28.8559 -1.19107 4.21598 0
M  V30 302 C 30.3569 -2.81266 3.42644 0
M  V30 303 H 27.5769 -0.295685 0.602338 0
M  V30 304 H 30.1209 -0.281998 2.02546 0
M  V30 305 H 28.2759 -2.62457 2.84947 0
M  V30 306 H 28.6899 -1.82969 4.91551 0
M  V30 307 H 30.1639 -3.43362 4.32211 0
M  V30 308 H 30.6409 -3.51897 2.62802 0
M  V30 309 H 31.2469 -2.1915 3.64491 0
M  V30 310 N 29.562 -1.4872 -0.521534 0
M  V30 311 C 30.525 -1.63379 -1.60748 0
M  V30 312 C 31.525 -0.50661 -1.52611 0
M  V30 313 O 32.715 -0.772601 -1.5613 0
M  V30 314 C 29.847 -1.61192 -3.00383 0
M  V30 315 H 31.04 -2.60217 -1.49087 0
M  V30 316 H 28.593 -1.37444 -0.744235 0
M  V30 317 H 29.328 -0.65863 -3.17541 0
M  V30 318 H 29.113 -2.43032 -3.07698 0
M  V30 319 H 30.603 -1.7466 -3.7932 0
M  V30 320 N 31.0401 0.771051 -1.3745 0
M  V30 321 C 31.9701 1.89827 -1.3597 0
M  V30 322 C 32.9511 1.68562 -0.228216 0
M  V30 323 O 34.1361 1.8941 -0.428675 0
M  V30 324 C 31.2661 3.2712 -1.16662 0
M  V30 325 C 30.2201 3.6295 -2.2683 0
M  V30 326 C 29.5461 4.98791 -1.92644 0
M  V30 327 C 30.8461 3.69627 -3.69017 0
M  V30 328 H 32.5401 1.91323 -2.30295 0
M  V30 329 H 30.0861 0.919082 -1.10855 0
M  V30 330 H 32.0391 4.05615 -1.14256 0
M  V30 331 H 30.7631 3.26059 -0.187926 0
M  V30 332 H 29.4221 2.86763 -2.28392 0
M  V30 333 H 29.0701 4.94271 -0.933021 0
M  V30 334 H 28.7701 5.23733 -2.66416 0
M  V30 335 H 30.2941 5.79685 -1.91826 0
M  V30 336 H 31.7081 4.38273 -3.69581 0
M  V30 337 H 30.1051 4.06067 -4.41848 0
M  V30 338 H 31.1751 2.70273 -4.02592 0
M  V30 339 N 32.5182 1.22032 0.997298 0
M  V30 340 C 33.7432 1.06921 1.77715 0
M  V30 341 C 34.1682 -0.376226 1.84299 0
M  V30 342 O 33.5262 -1.27165 1.29223 0
M  V30 343 C 33.5742 1.67996 3.19076 0
M  V30 344 O 32.6782 0.930653 4.01762 0
M  V30 345 H 32.0192 0.375814 0.547412 0
M  V30 346 H 34.5492 1.61737 1.25309 0
M  V30 347 H 34.5592 1.72538 3.69723 0
M  V30 348 H 33.2342 2.73182 3.13599 0
M  V30 349 H 31.8112 0.960917 3.60307 0
M  V30 350 N 33.9963 -1.19345 1.0293 0
M  V30 351 C 35.2213 -1.93538 0.745511 0
M  V30 352 C 35.6463 -1.75007 -0.689511 0
M  V30 353 O 35.0043 -1.05265 -1.47611 0
M  V30 354 C 35.0523 -3.43336 1.10239 0
M  V30 355 O 34.1563 -4.11806 0.221289 0
M  V30 356 H 33.4973 -0.604193 0.275404 0
M  V30 357 H 36.0273 -1.5141 1.37609 0
M  V30 358 H 36.0373 -3.94004 1.05947 0
M  V30 359 H 34.7123 -3.56146 2.14786 0
M  V30 360 H 33.2893 -3.715 0.322842 0
M  V30 361 N 35.4744 -0.807222 -1.35358 0
M  V30 362 C 36.4244 -0.190706 -2.27201 0
M  V30 363 C 37.4084 0.635838 -1.47804 0
M  V30 364 O 38.6004 0.492991 -1.69996 0
M  V30 365 C 35.7294 0.659337 -3.36909 0
M  V30 366 C 34.8154 -0.176971 -4.23731 0
M  V30 367 N 35.2064 -1.24029 -4.90357 0
M  V30 368 C 33.5044 0.0412953 -4.45981 0
M  V30 369 C 34.2054 -1.75092 -5.54723 0
M  V30 370 N 33.1814 -1.05727 -5.33219 0
M  V30 371 H 36.9834 -1.0043 -2.76208 0
M  V30 372 H 34.4974 -0.648445 -1.48892 0
M  V30 373 H 36.4944 1.11706 -4.01656 0
M  V30 374 H 35.1544 1.47127 -2.89454 0
M  V30 375 H 36.1654 -1.62295 -4.91814 0
M  V30 376 H 32.8424 0.82232 -4.09322 0
M  V30 377 H 34.2324 -2.63963 -6.17878 0
M  V30 378 N 36.9525 1.47285 -0.560781 0
M  V30 379 C 38.1985 2.03347 -0.0463654 0
M  V30 380 C 38.5535 1.42702 1.2905 0
M  V30 381 O 37.8465 0.574619 1.8278 0
M  V30 382 C 38.0405 3.57258 0.100784 0
M  V30 383 C 37.8695 4.32827 -1.22027 0
M  V30 384 C 36.6395 4.72588 -1.78854 0
M  V30 385 C 38.8375 4.67739 -2.13834 0
M  V30 386 N 36.8195 5.32816 -3.04927 0
M  V30 387 C 38.1905 5.28307 -3.24487 0
M  V30 388 C 40.2455 4.49667 -2.13784 0
M  V30 389 C 38.9485 5.72711 -4.35194 0
M  V30 390 C 40.9745 4.95073 -3.23506 0
M  V30 391 C 40.3365 5.55693 -4.32879 0
M  V30 392 H 36.4355 0.779755 -0.0592166 0
M  V30 393 H 39.0195 1.79723 -0.748857 0
M  V30 394 H 37.1905 3.80642 0.772404 0
M  V30 395 H 38.9225 3.9996 0.617589 0
M  V30 396 H 35.6775 4.54656 -1.32609 0
M  V30 397 H 36.1015 5.67471 -3.69197 0
M  V30 398 H 40.7435 4.02154 -1.30507 0
M  V30 399 H 38.4615 6.19214 -5.1923 0
M  V30 400 H 42.0475 4.82859 -3.24559 0
M  V30 401 H 40.9275 5.90188 -5.1638 0
M  V30 402 N 38.4306 0.297415 1.54768 0
M  V30 403 C 39.6776 -0.312913 2.00068 0
M  V30 404 C 40.0056 -1.54171 1.18582 0
M  V30 405 O 39.2606 -1.94108 0.249133 0
M  V30 406 C 39.5596 -0.717561 3.50123 0
M  V30 407 C 39.2256 0.409095 4.4904 0
M  V30 408 C 37.8876 0.718399 4.75807 0
M  V30 409 C 40.2396 1.16717 5.07963 0
M  V30 410 C 37.5676 1.78896 5.5876 0
M  V30 411 C 39.9196 2.22762 5.92081 0
M  V30 412 C 38.5836 2.54303 6.1716 0
M  V30 413 H 37.8536 -0.114503 0.7321 0
M  V30 414 H 40.5006 0.415767 1.86932 0
M  V30 415 H 38.8056 -1.52627 3.60849 0
M  V30 416 H 40.5026 -1.20091 3.82595 0
M  V30 417 H 37.0926 0.157918 4.28309 0
M  V30 418 H 41.2766 0.941466 4.87289 0
M  V30 419 H 36.5326 2.0381 5.7643 0
M  V30 420 H 40.7066 2.81962 6.36765 0
M  V30 421 H 38.3336 3.3739 6.81229 0
M  V30 422 N 39.9087 -1.5758 0.0250728 0
M  V30 423 C 41.1557 -1.91633 -0.654444 0
M  V30 424 C 41.4837 -0.901103 -1.72367 0
M  V30 425 O 40.7387 0.0905647 -1.9549 0
M  V30 426 C 41.0377 -3.32421 -1.31268 0
M  V30 427 C 40.7037 -4.49344 -0.374223 0
M  V30 428 C 39.3657 -4.8106 -0.115911 0
M  V30 429 C 41.7177 -5.20498 0.270432 0
M  V30 430 C 39.0457 -5.8129 0.79493 0
M  V30 431 C 41.3977 -6.21699 1.1693 0
M  V30 432 C 40.0617 -6.51859 1.43655 0
M  V30 433 H 39.3317 -0.701236 -0.239478 0
M  V30 434 H 41.9787 -1.91307 0.0859734 0
M  V30 435 H 40.2837 -3.28989 -2.12775 0
M  V30 436 H 41.9807 -3.56038 -1.84494 0
M  V30 437 H 38.5707 -4.24579 -0.58573 0
M  V30 438 H 42.7547 -4.96229 0.0839194 0
M  V30 439 H 38.0107 -6.03005 1.00973 0
M  V30 440 H 42.1847 -6.75955 1.67504 0
M  V30 441 H 39.8117 -7.2934 2.144 0
M  V30 442 N 41.3868 0.248026 -1.55636 0
M  V30 443 C 42.6148 0.993808 -1.81469 0
M  V30 444 C 43.0298 1.78991 -0.60064 0
M  V30 445 O 42.3868 1.77345 0.430682 0
M  V30 446 C 42.4378 1.93258 -3.05506 0
M  V30 447 O 42.1588 1.16869 -4.22224 0
M  V30 448 C 43.6598 2.79444 -3.4413 0
M  V30 449 H 40.8798 0.292486 -0.603898 0
M  V30 450 H 43.4238 0.271253 -2.02693 0
M  V30 451 H 41.5788 2.60943 -2.86335 0
M  V30 452 H 41.9928 1.80359 -4.92515 0
M  V30 453 H 43.4668 3.41066 -4.34026 0
M  V30 454 H 43.9438 3.50499 -2.64665 0
M  V30 455 H 44.5498 2.17214 -3.65648 0
M  V30 456 N 42.8649 1.48995 0.513639 0
M  V30 457 C 44.1109 1.59053 1.26783 0
M  V30 458 C 44.4659 0.268136 1.90522 0
M  V30 459 O 43.7589 -0.730534 1.77126 0
M  V30 460 C 43.9529 2.67756 2.36731 0
M  V30 461 C 43.7819 4.10437 1.83771 0
M  V30 462 C 42.5519 4.7738 1.65639 0
M  V30 463 C 44.7499 4.9608 1.35681 0
M  V30 464 N 42.7319 6.04419 1.07476 0
M  V30 465 C 44.1029 6.13496 0.895715 0
M  V30 466 C 46.1579 4.82177 1.24136 0
M  V30 467 C 44.8609 7.1854 0.3306 0
M  V30 468 C 46.8869 5.87358 0.690229 0
M  V30 469 C 46.2489 7.03993 0.239292 0
M  V30 470 H 42.3479 0.636463 0.454355 0
M  V30 471 H 44.9319 1.85948 0.577196 0
M  V30 472 H 43.1029 2.42655 3.03271 0
M  V30 473 H 44.8349 2.67406 3.0377 0
M  V30 474 H 41.5899 4.33974 1.8964 0
M  V30 475 H 42.0139 6.72214 0.803579 0
M  V30 476 H 46.6559 3.92329 1.57601 0
M  V30 477 H 44.3739 8.08098 -0.0163435 0
M  V30 478 H 47.9599 5.78658 0.603852 0
M  V30 479 H 46.8399 7.83992 -0.180526 0
M  V30 480 N 44.343 -0.763751 1.37857 0
M  V30 481 C 45.589 -1.52483 1.33704 0
M  V30 482 C 45.922 -1.94051 -0.0759612 0
M  V30 483 O 45.197 -1.64675 -1.03501 0
M  V30 484 C 45.48 -2.78441 2.28348 0
M  V30 485 C 45.333 -2.43075 3.78463 0
M  V30 486 C 46.652 -3.80415 2.21298 0
M  V30 487 H 43.771 -0.553169 0.487005 0
M  V30 488 H 46.413 -0.875562 1.68624 0
M  V30 489 H 44.563 -3.33842 1.987 0
M  V30 490 H 46.235 -1.93527 4.18742 0
M  V30 491 H 44.478 -1.75666 3.96641 0
M  V30 492 H 45.149 -3.33149 4.40132 0
M  V30 493 H 47.625 -3.34527 2.47449 0
M  V30 494 H 46.501 -4.66257 2.89647 0
M  V30 495 H 46.762 -4.25262 1.20849 0
M  V30 496 N 45.8211 -1.22559 -0.990812 0
M  V30 497 C 47.0691 -1.04933 -1.72724 0
M  V30 498 C 47.3901 0.416158 -1.90508 0
M  V30 499 O 46.6601 1.29918 -1.46622 0
M  V30 500 H 45.2401 -0.385296 -0.639965 0
M  V30 501 H 47.9021 -1.54105 -1.19322 0
M  V30 502 H 46.9981 -1.52886 -2.72089 0
M  V30 503 N 47.2992 1.18797 -1.03562 0
M  V30 504 C 48.2292 2.24472 -0.643019 0
M  V30 505 C 49.2102 1.66433 0.351283 0
M  V30 506 O 50.3952 1.92803 0.232505 0
M  V30 507 C 47.5252 3.473 4.24935e-05 0
M  V30 508 C 46.4792 4.18055 -0.917257 0
M  V30 509 C 45.8052 5.34519 -0.138941 0
M  V30 510 C 47.1052 4.72109 -2.23407 0
M  V30 511 H 48.7992 2.57566 -1.52643 0
M  V30 512 H 46.3452 1.23806 -0.735394 0
M  V30 513 H 48.2982 4.20426 0.286383 0
M  V30 514 H 47.0222 3.13424 0.918299 0
M  V30 515 H 45.6812 3.46821 -1.1879 0
M  V30 516 H 45.3292 4.96891 0.781562 0
M  V30 517 H 45.0292 5.82794 -0.750005 0
M  V30 518 H 46.5532 6.10438 0.1405 0
M  V30 519 H 47.9672 5.36955 -2.00879 0
M  V30 520 H 46.3642 5.30897 -2.79765 0
M  V30 521 H 47.4342 3.89807 -2.88407 0
M  V30 522 N 48.7773 0.814389 1.34928 0
M  V30 523 C 49.6873 0.231978 2.3345 0
M  V30 524 C 50.7033 -0.629139 1.62228 0
M  V30 525 O 51.8793 -0.539052 1.94052 0
M  V30 526 C 48.9443 -0.603482 3.41407 0
M  V30 527 C 48.0053 0.279037 4.28392 0
M  V30 528 C 47.2383 -0.516643 5.31193 0
M  V30 529 O 47.4613 -1.75068 5.4287 0
M  V30 530 O 46.3953 0.0965652 6.01823 0
M  V30 531 H 50.2213 1.04721 2.85074 0
M  V30 532 H 47.8063 0.576343 1.37836 0
M  V30 533 H 49.6883 -1.07908 4.0735 0
M  V30 534 H 48.3633 -1.39618 2.92042 0
M  V30 535 H 47.2703 0.801948 3.65403 0
M  V30 536 H 48.6033 1.03588 4.81176 0
M  V30 537 N 50.2554 -1.46986 0.568584 0
M  V30 538 C 51.1884 -2.27129 -0.220779 0
M  V30 539 C 52.1664 -1.34757 -0.909905 0
M  V30 540 O 53.3504 -1.64152 -0.926622 0
M  V30 541 C 50.4774 -3.12108 -1.31553 0
M  V30 542 C 49.5234 -4.20141 -0.733748 0
M  V30 543 S 50.3564 -5.33783 0.428479 0
M  V30 544 C 51.5124 -6.22327 -0.667811 0
M  V30 545 H 51.7454 -2.93731 0.459267 0
M  V30 546 H 49.2784 -1.5026 0.355154 0
M  V30 547 H 51.2364 -3.61636 -1.94241 0
M  V30 548 H 49.8974 -2.44847 -1.96746 0
M  V30 549 H 49.0904 -4.79373 -1.5562 0
M  V30 550 H 48.6924 -3.73553 -0.182812 0
M  V30 551 H 50.9844 -6.59364 -1.55708 0
M  V30 552 H 51.9274 -7.0801 -0.11258 0
M  V30 553 H 52.3354 -5.5618 -0.965601 0
M  V30 554 N 51.7335 -0.305618 -1.54608 0
M  V30 555 C 52.6815 0.584119 -2.25146 0
M  V30 556 C 53.6755 1.13326 -1.25911 0
M  V30 557 O 54.8815 1.08337 -1.43747 0
M  V30 558 H 51.2565 0.206983 -0.722954 0
M  V30 559 H 53.2275 -0.033291 -2.98381 0
M  V30 560 C 51.9765 1.74225 -3.009 0
M  V30 561 H 51.2995 1.32892 -3.77067 0
M  V30 562 H 52.7395 2.34077 -3.53531 0
M  V30 563 C 51.1985 2.64914 -2.0814 0
M  V30 564 O 51.7285 3.66137 -1.65246 0
M  V30 565 N 49.9345 2.3275 -1.74 0
M  V30 566 H 49.4815 1.50479 -2.09078 0
M  V30 567 H 49.4395 2.93694 -1.12211 0
M  V30 568 N 53.2116 1.57565 -0.0334293 0
M  V30 569 C 54.1446 2.05997 0.981866 0
M  V30 570 C 55.1226 0.956647 1.3148 0
M  V30 571 O 56.3066 1.22729 1.43073 0
M  V30 572 C 53.4336 2.48564 2.30074 0
M  V30 573 C 52.4796 3.69958 2.12211 0
M  V30 574 S 53.3126 5.16414 1.41692 0
M  V30 575 C 54.4686 5.6228 2.7494 0
M  V30 576 H 54.7016 2.91792 0.569612 0
M  V30 577 H 52.2346 1.53366 0.178376 0
M  V30 578 H 54.1926 2.73753 3.05892 0
M  V30 579 H 52.8536 1.63106 2.68431 0
M  V30 580 H 52.0466 3.97603 3.09722 0
M  V30 581 H 51.6486 3.44943 1.44535 0
M  V30 582 H 53.9406 5.66783 3.71165 0
M  V30 583 H 54.8836 6.61759 2.51953 0
M  V30 584 H 55.2916 4.89944 2.80384 0
M  V30 585 N 54.6897 -0.239769 1.55765 0
M  V30 586 C 55.6197 -1.30052 1.9393 0
M  V30 587 C 56.6007 -1.49839 0.805132 0
M  V30 588 O 57.7857 -1.62328 1.06599 0
M  V30 589 C 54.9157 -2.65391 2.2402 0
M  V30 590 C 53.8697 -2.60289 3.39755 0
M  V30 591 C 53.1957 -3.99489 3.55405 0
M  V30 592 C 54.4957 -2.16654 4.75246 0
M  V30 593 H 56.1897 -0.983573 2.82783 0
M  V30 594 H 53.7357 -0.471701 1.36055 0
M  V30 595 H 55.6887 -3.3974 2.49308 0
M  V30 596 H 54.4127 -2.98736 1.32 0
M  V30 597 H 53.0717 -1.88398 3.14487 0
M  V30 598 H 52.7197 -4.30112 2.60793 0
M  V30 599 H 52.4197 -3.96962 4.33238 0
M  V30 600 H 53.9437 -4.75528 3.83022 0
M  V30 601 H 55.3577 -2.80737 4.99859 0
M  V30 602 H 53.7547 -2.25223 5.56232 0
M  V30 603 H 54.8247 -1.11835 4.71827 0
M  V30 604 N 56.1678 -1.49265 -0.50573 0
M  V30 605 C 57.1308 -1.65075 -1.59006 0
M  V30 606 C 58.1308 -0.522768 -1.52065 0
M  V30 607 O 59.3208 -0.789117 -1.55302 0
M  V30 608 C 56.4528 -1.64369 -2.98656 0
M  V30 609 H 57.6458 -2.61784 -1.46319 0
M  V30 610 H 55.1988 -1.38226 -0.729616 0
M  V30 611 H 55.9338 -0.692272 -3.16825 0
M  V30 612 H 55.7188 -2.46282 -3.05103 0
M  V30 613 H 57.2088 -1.78674 -3.77446 0
M  V30 614 N 57.6459 0.756429 -1.3826 0
M  V30 615 C 58.8929 1.51547 -1.34312 0
M  V30 616 C 59.2209 1.94382 0.0677144 0
M  V30 617 O 58.4759 1.65514 1.04421 0
M  V30 618 C 58.7749 2.78313 -2.24224 0
M  V30 619 C 58.4409 2.54455 -3.72241 0
M  V30 620 C 57.1029 2.47657 -4.12576 0
M  V30 621 C 59.4549 2.3354 -4.65949 0
M  V30 622 C 56.7829 2.17956 -5.44713 0
M  V30 623 C 59.1349 2.05359 -5.9834 0
M  V30 624 C 57.7989 1.97016 -6.37762 0
M  V30 625 H 57.0689 0.55455 -0.491482 0
M  V30 626 H 59.7159 0.870039 -1.70595 0
M  V30 627 H 58.0209 3.47492 -1.80987 0
M  V30 628 H 59.7179 3.36259 -2.18474 0
M  V30 629 H 56.3079 2.60616 -3.40261 0
M  V30 630 H 60.4919 2.37772 -4.35635 0
M  V30 631 H 55.7479 2.10003 -5.74203 0
M  V30 632 H 59.9219 1.88179 -6.70494 0
M  V30 633 H 57.5489 1.73766 -7.40074 0
M  V30 634 N 59.124 1.23083 0.984299 0
M  V30 635 C 60.373 1.05466 1.71929 0
M  V30 636 C 60.686 -0.409211 1.91272 0
M  V30 637 O 61.892 -0.705226 2.62181 0
M  V30 638 C 60.348 1.83874 3.09384 0
M  V30 639 C 59.956 3.34566 2.97943 0
M  V30 640 C 61.7 1.74734 3.8687 0
M  V30 641 C 59.607 4.05381 4.30605 0
M  V30 642 H 58.537 0.391039 0.644674 0
M  V30 643 H 61.188 1.47013 1.09815 0
M  V30 644 H 59.57 1.35131 3.72231 0
M  V30 645 H 60.744 3.90767 2.44209 0
M  V30 646 H 59.059 3.44476 2.33934 0
M  V30 647 H 61.656 2.24957 4.85076 0
M  V30 648 H 61.999 0.709372 4.10212 0
M  V30 649 H 62.532 2.21067 3.30717 0
M  V30 650 H 59.271 5.09467 4.1246 0
M  V30 651 H 58.791 3.53967 4.84218 0
M  V30 652 H 60.47 4.11458 4.99311 0
M  V30 653 N 60.6021 -1.18246 1.0419 0
M  V30 654 C 62.0131 -1.69914 0.773698 0
M  V30 655 C 62.3641 -1.83085 -0.705297 0
M  V30 656 O 61.4891 -1.51123 -1.5489 0
M  V30 657 C 62.0841 -3.08619 1.39784 0
M  V30 658 C 60.6431 -3.57494 1.17792 0
M  V30 659 C 59.7901 -2.34013 1.48773 0
M  V30 660 H 62.7411 -1.02904 1.20816 0
M  V30 661 H 62.7621 -3.71958 0.801714 0
M  V30 662 H 62.2741 -2.99001 2.47426 0
M  V30 663 H 60.3751 -3.72406 0.120295 0
M  V30 664 H 60.4881 -4.40852 1.87581 0
M  V30 665 H 58.8521 -2.37986 0.907463 0
M  V30 666 H 59.6351 -2.27013 2.57527 0
M  V30 667 N 62.0802 -0.821533 -1.34494 0
M  V30 668 C 63.3262 -0.409552 -1.98622 0
M  V30 669 C 63.6592 1.0244 -1.64984 0
M  V30 670 O 62.9342 1.71325 -0.920758 0
M  V30 671 C 63.2172 -0.610458 -3.54888 0
M  V30 672 C 63.0702 -2.09043 -3.98273 0
M  V30 673 C 64.3892 -0.0455379 -4.40076 0
M  V30 674 H 61.5082 -0.15028 -0.721516 0
M  V30 675 H 64.1502 -1.03384 -1.59411 0
M  V30 676 H 62.3002 -0.079044 -3.8842 0
M  V30 677 H 63.9722 -2.68537 -3.75081 0
M  V30 678 H 62.2152 -2.58139 -3.48635 0
M  V30 679 H 62.8862 -2.18182 -5.07051 0
M  V30 680 H 65.3622 -0.499557 -4.1309 0
M  V30 681 H 64.2382 -0.215922 -5.48475 0
M  V30 682 H 64.4992 1.04939 -4.29465 0
M  V30 683 N 63.5583 1.46682 -0.576371 0
M  V30 684 C 64.4883 2.33028 0.148397 0
M  V30 685 C 65.4693 1.44961 0.889956 0
M  V30 686 O 66.6543 1.73789 0.866662 0
M  V30 687 C 63.7843 3.27117 1.1667 0
M  V30 688 C 62.7383 4.24575 0.540386 0
M  V30 689 C 62.0643 5.08126 1.6647 0
M  V30 690 C 63.3643 5.19722 -0.518331 0
M  V30 691 H 65.0583 2.93875 -0.572509 0
M  V30 692 H 62.6043 1.41315 -0.276768 0
M  V30 693 H 64.5573 3.86374 1.68204 0
M  V30 694 H 63.2813 2.64364 1.9178 0
M  V30 695 H 61.9403 3.66571 0.0461769 0
M  V30 696 H 61.5883 4.41762 2.40531 0
M  V30 697 H 61.2883 5.74122 1.25131 0
M  V30 698 H 62.8123 5.70246 2.18293 0
M  V30 699 H 64.2263 5.73232 -0.0883058 0
M  V30 700 H 62.6233 5.94026 -0.851679 0
M  V30 701 H 63.6933 4.64037 -1.40703 0
M  V30 702 N 65.0364 0.313813 1.54444 0
M  V30 703 C 66.2644 -0.293918 2.04802 0
M  V30 704 C 66.6794 -1.46537 1.19047 0
M  V30 705 O 66.0364 -1.81182 0.218939 0
M  V30 706 C 66.0874 -0.737806 3.53891 0
M  V30 707 O 65.8084 0.387038 4.36387 0
M  V30 708 C 67.3094 -1.40936 4.203 0
M  V30 709 H 64.5294 -0.0620057 0.668129 0
M  V30 710 H 67.0734 0.457169 1.99324 0
M  V30 711 H 65.2284 -1.43889 3.59687 0
M  V30 712 H 65.6424 0.0391274 5.24485 0
M  V30 713 H 67.1164 -1.67099 5.26101 0
M  V30 714 H 67.5934 -2.35355 3.70816 0
M  V30 715 H 68.1994 -0.751117 4.18615 0
M  V30 716 N 66.5145 -1.57545 0.0417849 0
M  V30 717 C 67.4615 -2.10977 -0.935805 0
M  V30 718 C 68.4315 -1.01486 -1.31491 0
M  V30 719 O 69.6165 -1.2898 -1.40602 0
M  V30 720 C 66.7565 -2.65169 -2.2086 0
M  V30 721 C 65.8695 -3.88714 -1.88482 0
M  V30 722 C 65.0045 -4.31254 -3.1015 0
M  V30 723 C 64.0435 -5.47524 -2.7365 0
M  V30 724 N 63.1805 -5.85162 -3.87982 0
M  V30 725 H 68.0205 -2.94218 -0.473249 0
M  V30 726 H 65.5575 -1.45415 -0.221981 0
M  V30 727 H 67.5155 -2.94685 -2.95325 0
M  V30 728 H 66.1455 -1.8474 -2.64709 0
M  V30 729 H 65.1975 -3.65849 -1.04205 0
M  V30 730 H 66.5095 -4.73245 -1.57608 0
M  V30 731 H 65.6635 -4.62273 -3.92923 0
M  V30 732 H 64.4025 -3.45516 -3.44195 0
M  V30 733 H 63.4075 -5.16187 -1.89291 0
M  V30 734 H 64.6325 -6.34971 -2.40807 0
M  V30 735 H 62.5785 -5.02377 -4.21846 0
M  V30 736 H 62.4955 -6.64362 -3.60775 0
M  V30 737 H 63.7635 -6.20791 -4.71422 0
M  V30 738 N 67.9926 0.231505 -1.5589 0
M  V30 739 C 68.9396 1.28682 -1.91598 0
M  V30 740 C 69.9096 1.47071 -0.771974 0
M  V30 741 O 71.0946 1.60802 -1.027 0
M  V30 742 C 68.2346 2.6342 -2.22944 0
M  V30 743 C 67.3476 2.52912 -3.50228 0
M  V30 744 C 66.4826 3.80106 -3.7107 0
M  V30 745 C 65.5216 3.64279 -4.91902 0
M  V30 746 N 64.6586 4.834 -5.09184 0
M  V30 747 H 69.4986 0.975305 -2.81588 0
M  V30 748 H 67.0356 0.470299 -1.39379 0
M  V30 749 H 68.9936 3.41869 -2.39126 0
M  V30 750 H 67.6236 2.92687 -1.36139 0
M  V30 751 H 66.6756 1.6595 -3.42294 0
M  V30 752 H 67.9876 2.37133 -4.38827 0
M  V30 753 H 67.1416 4.66999 -3.87295 0
M  V30 754 H 65.8806 3.98799 -2.80733 0
M  V30 755 H 64.8856 2.7577 -4.75637 0
M  V30 756 H 66.1106 3.47067 -5.83714 0
M  V30 757 H 64.0566 5.02425 -4.21788 0
M  V30 758 H 63.9736 4.70311 -5.91898 0
M  V30 759 H 65.2416 5.71747 -5.29835 0
M  V30 760 N 69.4707 1.49531 0.497807 0
M  V30 761 C 70.4037 1.61043 1.6168 0
M  V30 762 C 71.3817 0.459386 1.55976 0
M  V30 763 O 72.5657 0.675358 1.75986 0
M  V30 764 C 69.6927 1.56833 3.00202 0
M  V30 765 C 68.7387 2.77173 3.24156 0
M  V30 766 S 69.5717 4.38808 3.06933 0
M  V30 767 C 70.7277 4.37248 4.47845 0
M  V30 768 H 70.9607 2.55702 1.51671 0
M  V30 769 H 68.4937 1.38462 0.683201 0
M  V30 770 H 70.4517 1.55089 3.80076 0
M  V30 771 H 69.1127 0.634561 3.07623 0
M  V30 772 H 68.3057 2.70456 4.25288 0
M  V30 773 H 67.9077 2.76346 2.5201 0
M  V30 774 H 70.1997 4.09164 5.39992 0
M  V30 775 H 71.1427 5.38668 4.59612 0
M  V30 776 H 71.5507 3.67286 4.28674 0
M  V30 777 N 70.9488 -0.749086 1.3866 0
M  V30 778 C 71.8968 -1.88428 1.36373 0
M  V30 779 C 72.8908 -1.67561 0.248929 0
M  V30 780 O 74.0968 -1.75074 0.41821 0
M  V30 781 H 70.4718 -0.620023 0.42553 0
M  V30 782 H 72.4428 -1.87473 2.32156 0
M  V30 783 C 71.1918 -3.25961 1.21014 0
M  V30 784 H 70.5148 -3.42607 2.06059 0
M  V30 785 H 71.9548 -4.05625 1.23469 0
M  V30 786 C 70.4138 -3.36799 -0.0825941 0
M  V30 787 O 70.9438 -3.87517 -1.05797 0
M  V30 788 N 69.1498 -2.90258 -0.140939 0
M  V30 789 H 68.6968 -2.49174 0.653477 0
M  V30 790 H 68.6548 -2.97889 -1.00545 0
M  V30 791 N 72.4269 -1.23603 -0.977757 0
M  V30 792 C 73.8379 -1.06424 -1.53398 0
M  V30 793 C 74.1889 0.367578 -1.92726 0
M  V30 794 O 73.3139 1.25465 -1.76316 0
M  V30 795 C 73.9089 -1.92568 -2.78753 0
M  V30 796 C 72.4679 -1.79642 -3.30765 0
M  V30 797 C 71.6149 -1.88111 -2.03739 0
M  V30 798 H 74.5659 -1.37227 -0.797152 0
M  V30 799 H 74.5869 -1.45203 -3.51705 0
M  V30 800 H 74.0989 -2.96771 -2.50098 0
M  V30 801 H 72.1999 -0.782325 -3.64294 0
M  V30 802 H 72.3129 -2.63174 -4.00345 0
M  V30 803 H 70.6769 -1.31723 -2.17994 0
M  V30 804 H 71.4599 -2.93875 -1.77461 0
M  V30 805 N 73.905 1.17692 -1.04816 0
M  V30 806 C 75.321 1.39863 -0.768794 0
M  V30 807 C 75.521 1.91118 0.638451 0
M  V30 808 O 74.577 2.10036 1.40146 0
M  V30 809 C 75.89 2.39274 -1.82122 0
M  V30 810 C 77.438 2.52987 -1.843 0
M  V30 811 C 77.913 3.55669 -2.88555 0
M  V30 812 N 79.404 3.63183 -2.87493 0
M  V30 813 C 80.139 4.42381 -3.64811 0
M  V30 814 N 79.635 5.25125 -4.51903 0
M  V30 815 N 81.428 4.37217 -3.53267 0
M  V30 816 H 73.579 0.82752 -1.95617 0
M  V30 817 H 75.842 0.426123 -0.846831 0
M  V30 818 H 75.548 2.08678 -2.83102 0
M  V30 819 H 75.422 3.38725 -1.65967 0
M  V30 820 H 77.809 2.82896 -0.839869 0
M  V30 821 H 77.89 1.53623 -2.04532 0
M  V30 822 H 77.534 3.26499 -3.89051 0
M  V30 823 H 77.464 4.54728 -2.65575 0
M  V30 824 H 79.955 3.04103 -2.24343 0
M  V30 825 H 80.268 5.82728 -5.07591 0
M  V30 826 H 78.613 5.24519 -4.55966 0
M  V30 827 H 81.804 3.71626 -2.84625 0
M  V30 828 H 81.977 4.98696 -4.13771 0
M  V30 829 N 75.3831 0.828654 1.34056 0
M  V30 830 C 76.6081 0.431637 2.02859 0
M  V30 831 C 77.0331 -0.956339 1.61975 0
M  V30 832 O 76.3911 -1.62338 0.807228 0
M  V30 833 C 76.4391 0.548323 3.56407 0
M  V30 834 O 75.5431 -0.429556 4.10157 0
M  V30 835 H 74.8841 0.176886 0.640006 0
M  V30 836 H 77.4141 1.12066 1.71179 0
M  V30 837 H 77.4241 0.426196 4.05768 0
M  V30 838 H 76.0991 1.5606 3.8551 0
M  V30 839 H 74.6761 -0.265836 3.71951 0
M  V30 840 N 76.8612 -1.46375 0.584142 0
M  V30 841 C 78.0892 -2.06761 0.0759296 0
M  V30 842 C 78.5042 -1.43266 -1.22965 0
M  V30 843 O 77.8612 -0.538458 -1.74376 0
M  V30 844 C 77.9122 -3.61375 -0.0950384 0
M  V30 845 O 77.6332 -4.22495 1.15887 0
M  V30 846 C 79.1342 -4.38693 -0.637434 0
M  V30 847 H 76.3542 -0.668479 0.0581075 0
M  V30 848 H 78.8982 -1.8798 0.805218 0
M  V30 849 H 77.0532 -3.79578 -0.774554 0
M  V30 850 H 77.4672 -5.15385 0.973598 0
M  V30 851 H 78.9412 -5.47464 -0.706237 0
M  V30 852 H 79.4182 -4.06836 -1.65472 0
M  V30 853 H 80.0242 -4.25299 0.00725967 0
M  V30 854 N 78.3393 -0.321999 -1.54275 0
M  V30 855 C 79.2493 0.553631 -2.27974 0
M  V30 856 C 80.2653 1.13054 -1.32268 0
M  V30 857 O 81.4413 1.15084 -1.6528 0
M  V30 858 C 78.5063 1.69927 -3.02201 0
M  V30 859 C 77.5673 1.15433 -4.1349 0
M  V30 860 C 76.8003 2.24537 -4.84168 0
M  V30 861 O 77.0233 3.44852 -4.5435 0
M  V30 862 O 75.9573 1.90044 -5.7111 0
M  V30 863 H 79.7833 -0.0448345 -3.03667 0
M  V30 864 H 77.3683 -0.0877418 -1.49142 0
M  V30 865 H 79.2503 2.3663 -3.48689 0
M  V30 866 H 77.9253 2.28395 -2.29385 0
M  V30 867 H 76.8323 0.452436 -3.71354 0
M  V30 868 H 78.1653 0.614805 -4.88345 0
M  V30 869 N 79.8174 1.5752 -0.0501392 0
M  V30 870 C 80.7804 2.1037 0.909786 0
M  V30 871 C 81.7804 1.02308 1.24056 0
M  V30 872 O 82.9704 1.28385 1.17741 0
M  V30 873 C 80.1024 2.58708 2.21998 0
M  V30 874 H 81.2954 2.96479 0.451665 0
M  V30 875 H 78.8484 1.55038 0.198248 0
M  V30 876 H 79.5834 1.75989 2.72394 0
M  V30 877 H 79.3684 3.37675 1.99295 0
M  V30 878 H 80.8584 2.99747 2.9076 0
M  V30 879 N 81.2955 -0.223234 1.56011 0
M  V30 880 C 82.2585 -1.26014 1.9145 0
M  V30 881 C 83.2585 -1.3989 0.792937 0
M  V30 882 O 84.4485 -1.38184 1.0607 0
M  V30 883 C 81.5805 -2.63422 2.16383 0
M  V30 884 H 82.7735 -0.95796 2.84189 0
M  V30 885 H 80.3265 -0.463576 1.49267 0
M  V30 886 H 81.0615 -2.98741 1.2619 0
M  V30 887 H 80.8465 -2.54728 2.98088 0
M  V30 888 H 82.3365 -3.38249 2.44903 0
M  V30 889 N 82.7736 -1.49793 -0.48987 0
M  V30 890 C 84.0226 -1.59085 -1.23995 0
M  V30 891 C 84.3356 -0.287907 -1.9347 0
M  V30 892 O 85.5416 -0.259506 -2.70257 0
M  V30 893 C 83.9976 -2.80736 -2.252 0
M  V30 894 C 83.6056 -4.17833 -1.61614 0
M  V30 895 C 85.3496 -2.99364 -3.00967 0
M  V30 896 C 83.2566 -5.30693 -2.60996 0
M  V30 897 H 82.1866 -0.592372 -0.466488 0
M  V30 898 H 84.8376 -1.76197 -0.51252 0
M  V30 899 H 83.2196 -2.57142 -3.01154 0
M  V30 900 H 84.3936 -4.51608 -0.915774 0
M  V30 901 H 82.7086 -4.04656 -0.981977 0
M  V30 902 H 85.3056 -3.80851 -3.75308 0
M  V30 903 H 85.6486 -2.10356 -3.59244 0
M  V30 904 H 86.1816 -3.2305 -2.32128 0
M  V30 905 H 82.9206 -6.21796 -2.07485 0
M  V30 906 H 82.4406 -5.01359 -3.2924 0
M  V30 907 H 84.1196 -5.6049 -3.23202 0
M  V30 908 N 84.2517 0.741722 -1.39055 0
M  V30 909 C 85.1987 1.85566 -1.37237 0
M  V30 910 C 86.1687 1.64457 -0.233072 0
M  V30 911 O 87.3537 1.85957 -0.427147 0
M  V30 912 C 84.4937 3.23004 -1.215 0
M  V30 913 C 83.6067 3.55864 -2.44918 0
M  V30 914 C 82.7417 4.82669 -2.21821 0
M  V30 915 C 81.7807 5.08351 -3.40948 0
M  V30 916 N 80.9177 6.26356 -3.17211 0
M  V30 917 H 85.7577 1.86455 -2.32462 0
M  V30 918 H 83.2947 0.911176 -1.15482 0
M  V30 919 H 85.2527 4.02331 -1.10389 0
M  V30 920 H 83.8827 3.21411 -0.29908 0
M  V30 921 H 82.9347 2.7129 -2.66657 0
M  V30 922 H 84.2467 3.70765 -3.33668 0
M  V30 923 H 83.4007 5.69962 -2.07914 0
M  V30 924 H 82.1397 4.69929 -1.30454 0
M  V30 925 H 81.1447 4.19522 -3.55361 0
M  V30 926 H 82.3697 5.22981 -4.33207 0
M  V30 927 H 80.3157 6.14917 -2.28502 0
M  V30 928 H 80.2327 6.41813 -3.99515 0
M  V30 929 H 81.5007 7.16506 -3.06984 0
M  V30 930 N 85.7298 1.2412 0.971189 0
M  V30 931 C 86.9598 1.10415 1.7462 0
M  V30 932 C 87.3678 -0.346462 1.86001 0
M  V30 933 O 86.7108 -1.25104 1.34517 0
M  V30 934 C 86.7728 1.66596 3.18568 0
M  V30 935 C 86.4368 3.15446 3.3067 0
M  V30 936 C 87.4338 4.12636 3.16271 0
M  V30 937 C 85.1188 3.55337 3.55022 0
M  V30 938 C 87.1128 5.47699 3.26044 0
M  V30 939 C 84.7998 4.90542 3.64434 0
M  V30 940 C 85.7978 5.86532 3.49956 0
M  V30 941 O 85.4858 7.19279 3.59017 0
M  V30 942 H 85.2178 0.386616 0.55453 0
M  V30 943 H 87.7718 1.64633 1.22821 0
M  V30 944 H 86.0018 1.06808 3.71657 0
M  V30 945 H 87.6908 1.48232 3.77865 0
M  V30 946 H 88.4568 3.8316 2.97344 0
M  V30 947 H 84.3358 2.8113 3.65359 0
M  V30 948 H 87.8798 6.22603 3.14661 0
M  V30 949 H 83.7768 5.19691 3.82873 0
M  V30 950 H 84.5448 7.27153 3.75754 0
M  V30 951 N 87.2079 -1.17134 1.05439 0
M  V30 952 C 88.4549 -1.87456 0.765942 0
M  V30 953 C 88.7829 -1.81189 -0.707153 0
M  V30 954 O 88.0379 -1.21633 -1.5331 0
M  V30 955 C 88.3369 -3.36833 1.19491 0
M  V30 956 C 88.0029 -3.63301 2.67063 0
M  V30 957 C 86.6649 -3.70234 3.07376 0
M  V30 958 C 89.0169 -3.74575 3.62413 0
M  V30 959 C 86.3449 -3.85933 4.41896 0
M  V30 960 C 88.6969 -3.91793 4.9667 0
M  V30 961 C 87.3609 -3.96966 5.36633 0
M  V30 962 H 86.6309 -0.685948 0.280278 0
M  V30 963 H 89.2779 -1.38556 1.32192 0
M  V30 964 H 87.5829 -3.87807 0.557969 0
M  V30 965 H 89.2799 -3.89611 0.948893 0
M  V30 966 H 85.8699 -3.58532 2.34846 0
M  V30 967 H 90.0539 -3.68537 3.32406 0
M  V30 968 H 85.3099 -3.88187 4.72357 0
M  V30 969 H 89.4839 -3.99458 5.70444 0
M  V30 970 H 87.1109 -4.08883 6.40874 0
M  V30 971 N 88.686 -0.835752 -1.33615 0
M  V30 972 C 89.616 -0.281739 -2.31794 0
M  V30 973 C 90.597 0.608833 -1.58831 0
M  V30 974 O 91.782 0.533035 -1.86741 0
M  V30 975 C 88.912 0.546612 -3.42971 0
M  V30 976 C 87.866 -0.247904 -4.27281 0
M  V30 977 C 87.192 0.704001 -5.30045 0
M  V30 978 C 88.492 -1.46324 -5.01385 0
M  V30 979 H 90.186 -1.10206 -2.78379 0
M  V30 980 H 87.732 -0.531388 -1.33837 0
M  V30 981 H 89.685 0.944467 -4.1068 0
M  V30 982 H 88.409 1.40011 -2.95067 0
M  V30 983 H 87.068 -0.627281 -3.61194 0
M  V30 984 H 86.716 1.55381 -4.78399 0
M  V30 985 H 86.416 0.176524 -5.87335 0
M  V30 986 H 87.94 1.09944 -6.0062 0
M  V30 987 H 89.354 -1.13871 -5.61877 0
M  V30 988 H 87.751 -1.92728 -5.6831 0
M  V30 989 H 88.821 -2.23467 -4.30338 0
M  V30 990 N 90.1641 1.46063 -0.591896 0
M  V30 991 C 91.3921 2.06717 -0.0868936 0
M  V30 992 C 91.8071 1.43916 1.22203 0
M  V30 993 O 91.1641 0.547698 1.74088 0
M  V30 994 C 91.2151 3.6142 0.0758725 0
M  V30 995 O 90.9361 4.21874 -1.18126 0
M  V30 996 C 92.4371 4.39025 0.61416 0
M  V30 997 H 89.6571 0.668162 -0.0616518 0
M  V30 998 H 92.2011 1.8755 -0.815175 0
M  V30 999 H 90.3561 3.79983 0.754413 0
M  V30 1000 H 90.7701 5.14861 -1.00092 0
M  V30 1001 H 92.2441 5.4783 0.677193 0
M  V30 1002 H 92.7211 4.07708 1.63312 0
M  V30 1003 H 93.3271 4.2529 -0.0298142 0
M  V30 1004 N 91.6422 0.330177 1.54103 0
M  V30 1005 C 92.5742 -0.566902 2.22079 0
M  V30 1006 C 93.5872 -1.07462 1.22294 0
M  V30 1007 O 94.7762 -0.987065 1.48726 0
M  V30 1008 C 91.8762 -1.79138 2.87685 0
M  V30 1009 C 91.0492 -1.42123 4.13666 0
M  V30 1010 C 90.1082 -2.50394 4.62806 0
M  V30 1011 O 89.1342 -2.14261 5.27334 0
M  V30 1012 N 90.3362 -3.81433 4.37595 0
M  V30 1013 H 93.1012 0.0151844 2.99696 0
M  V30 1014 H 90.6622 0.153681 1.61169 0
M  V30 1015 H 92.6542 -2.50975 3.1748 0
M  V30 1016 H 91.2242 -2.28115 2.13734 0
M  V30 1017 H 90.4442 -0.534201 3.90564 0
M  V30 1018 H 91.7322 -1.14971 4.9564 0
M  V30 1019 H 91.1302 -4.13584 3.8596 0
M  V30 1020 H 89.6872 -4.4948 4.72029 0
M  V30 1021 N 93.1203 -1.57491 0.0584922 0
M  V30 1022 C 94.0833 -2.1085 -0.898617 0
M  V30 1023 C 95.0833 -1.02964 -1.23511 0
M  V30 1024 O 96.2733 -1.29007 -1.17059 0
M  V30 1025 C 93.4053 -2.59881 -2.20623 0
M  V30 1026 H 94.5983 -2.96715 -0.435936 0
M  V30 1027 H 92.1513 -1.55141 -0.190023 0
M  V30 1028 H 92.8863 -1.77431 -2.71457 0
M  V30 1029 H 92.6713 -3.38727 -1.97501 0
M  V30 1030 H 94.1613 -3.01285 -2.89166 0
M  V30 1031 N 94.5984 0.214957 -1.56127 0
M  V30 1032 C 95.8264 0.955092 -1.83536 0
M  V30 1033 C 96.2414 1.77677 -0.638472 0
M  V30 1034 O 95.5984 1.78219 0.392968 0
M  V30 1035 C 95.6494 1.86734 -3.09536 0
M  V30 1036 O 95.3704 1.07887 -4.24608 0
M  V30 1037 C 96.8714 2.72082 -3.4998 0
M  V30 1038 H 94.0914 0.279611 -0.609966 0
M  V30 1039 H 96.6354 0.228197 -2.03223 0
M  V30 1040 H 94.7904 2.5481 -2.91806 0
M  V30 1041 H 95.2044 1.69872 -4.9623 0
M  V30 1042 H 96.6784 3.31782 -4.41163 0
M  V30 1043 H 97.1554 3.44806 -2.7204 0
M  V30 1044 H 97.7614 2.09409 -3.70173 0
M  V30 1045 N 96.0765 1.50051 0.48192 0
M  V30 1046 C 97.0395 1.67584 1.5636 0
M  V30 1047 C 98.0395 0.546894 1.51214 0
M  V30 1048 O 99.2295 0.813725 1.54026 0
M  V30 1049 C 96.3615 1.691 2.96003 0
M  V30 1050 H 97.5545 2.64078 1.42136 0
M  V30 1051 H 95.1075 1.39369 0.707533 0
M  V30 1052 H 95.8425 0.742589 3.15684 0
M  V30 1053 H 95.6275 2.51105 3.01146 0
M  V30 1054 H 97.1175 1.84656 3.74556 0
M  V30 1055 N 97.5546 -0.734337 1.39446 0
M  V30 1056 C 98.7796 -1.52866 1.40167 0
M  V30 1057 C 99.2046 -1.881 -0.00171513 0
M  V30 1058 O 98.5626 -1.51957 -0.988879 0
M  V30 1059 C 98.6106 -2.79235 2.28167 0
M  V30 1060 O 97.7146 -3.75185 1.71201 0
M  V30 1061 H 97.0556 -0.461618 0.477289 0
M  V30 1062 H 99.5856 -0.905949 1.8345 0
M  V30 1063 H 99.5956 -3.27963 2.42702 0
M  V30 1064 H 98.2706 -2.52923 3.30156 0
M  V30 1065 H 96.8476 -3.33958 1.65912 0
M  V30 1066 N 99.0327 -1.24633 -0.964593 0
M  V30 1067 C 99.9657 -0.984662 -2.05863 0
M  V30 1068 C 100.944 0.0826554 -1.6239 0
M  V30 1069 O 102.128 -0.0549296 -1.8842 0
M  V30 1070 C 99.2547 -0.486529 -3.35187 0
M  V30 1071 C 98.3007 -1.54286 -3.97615 0
M  V30 1072 S 99.1337 -3.12513 -4.34851 0
M  V30 1073 C 100.29 -2.6441 -5.67308 0
M  V30 1074 H 100.523 -1.91104 -2.27743 0
M  V30 1075 H 98.0557 -1.08052 -1.10291 0
M  V30 1076 H 100.014 -0.205757 -4.09984 0
M  V30 1077 H 98.6747 0.419186 -3.1129 0
M  V30 1078 H 97.8677 -1.14481 -4.90826 0
M  V30 1079 H 97.4697 -1.7738 -3.2926 0
M  V30 1080 H 99.7617 -2.07416 -6.44969 0
M  V30 1081 H 100.705 -3.56222 -6.11973 0
M  V30 1082 H 101.113 -2.04734 -5.26065 0
M  V30 1083 N 100.511 1.16574 -1.06058 0
M  V30 1084 C 101.76 1.86385 -0.770944 0
M  V30 1085 C 102.073 1.82448 0.705129 0
M  V30 1086 O 103.279 2.47815 1.10905 0
M  V30 1087 C 101.735 3.34466 -1.32893 0
M  V30 1088 C 101.343 3.46883 -2.83507 0
M  V30 1089 C 103.087 4.09548 -1.11672 0
M  V30 1090 C 100.994 4.89036 -3.32562 0
M  V30 1091 H 99.9238 0.698181 -0.284709 0
M  V30 1092 H 102.575 1.31583 -1.27899 0
M  V30 1093 H 100.957 3.88859 -0.748662 0
M  V30 1094 H 102.131 3.02663 -3.47465 0
M  V30 1095 H 100.446 2.85232 -3.03368 0
M  V30 1096 H 103.043 5.14434 -1.45814 0
M  V30 1097 H 103.386 4.16264 -0.0549535 0
M  V30 1098 H 103.919 3.61387 -1.66265 0
M  V30 1099 H 100.658 4.87499 -4.38207 0
M  V30 1100 H 100.178 5.3389 -2.73351 0
M  V30 1101 H 101.857 5.57843 -3.2775 0
M  V30 1102 N 101.989 0.842826 1.3317 0
M  V30 1103 C 102.919 0.294028 2.31641 0
M  V30 1104 C 103.9 -0.600401 1.59151 0
M  V30 1105 O 105.085 -0.523124 1.87022 0
M  V30 1106 C 102.215 -0.528416 3.43257 0
M  V30 1107 C 101.169 0.27056 4.27144 0
M  V30 1108 C 100.495 -0.675881 5.30411 0
M  V30 1109 C 101.795 1.48981 5.00602 0
M  V30 1110 H 103.489 1.11681 2.77791 0
M  V30 1111 H 101.035 0.538478 1.33553 0
M  V30 1112 H 102.988 -0.922674 4.11175 0
M  V30 1113 H 101.712 -1.38445 2.95805 0
M  V30 1114 H 100.371 0.646427 3.60856 0
M  V30 1115 H 100.019 -1.52842 4.79216 0
M  V30 1116 H 99.7189 -0.145374 5.8742 0
M  V30 1117 H 101.243 -1.06757 6.01195 0
M  V30 1118 H 102.657 1.16849 5.61266 0
M  V30 1119 H 101.054 1.95739 5.6728 0
M  V30 1120 H 102.124 2.25746 4.29147 0
M  V30 1121 N 103.467 -1.45747 0.599634 0
M  V30 1122 C 104.397 -2.33235 -0.111306 0
M  V30 1123 C 105.378 -1.46359 -0.866781 0
M  V30 1124 O 106.563 -1.75146 -0.838904 0
M  V30 1125 C 103.693 -3.28932 -1.11451 0
M  V30 1126 C 102.647 -4.25381 -0.472772 0
M  V30 1127 C 101.973 -5.1071 -1.58365 0
M  V30 1128 C 103.273 -5.18831 0.600948 0
M  V30 1129 H 104.967 -2.92927 0.61919 0
M  V30 1130 H 102.513 -1.40857 0.299215 0
M  V30 1131 H 104.466 -3.89002 -1.62036 0
M  V30 1132 H 103.19 -2.67381 -1.8755 0
M  V30 1133 H 101.849 -3.66598 0.0121472 0
M  V30 1134 H 101.497 -4.45533 -2.33473 0
M  V30 1135 H 101.197 -5.7604 -1.15982 0
M  V30 1136 H 102.721 -5.73647 -2.09194 0
M  V30 1137 H 104.135 -5.73019 0.179491 0
M  V30 1138 H 102.532 -5.92595 0.946076 0
M  V30 1139 H 103.602 -4.6174 1.48068 0
M  V30 1140 N 104.945 -0.338344 -1.53925 0
M  V30 1141 C 105.878 0.563758 -2.21127 0
M  V30 1142 C 106.856 1.10433 -1.19345 0
M  V30 1143 O 108.04 1.16557 -1.48144 0
M  V30 1144 C 105.167 1.77505 -2.88461 0
M  V30 1145 C 104.213 1.3644 -4.04087 0
M  V30 1146 S 105.046 0.388593 -5.34088 0
M  V30 1147 C 106.202 1.60683 -6.04923 0
M  V30 1148 H 106.435 -0.00704546 -2.97299 0
M  V30 1149 H 103.968 -0.122418 -1.53914 0
M  V30 1150 H 105.926 2.46999 -3.27875 0
M  V30 1151 H 104.587 2.31706 -2.12064 0
M  V30 1152 H 103.78 2.26739 -4.50117 0
M  V30 1153 H 103.382 0.748998 -3.66423 0
M  V30 1154 H 105.674 2.54209 -6.28 0
M  V30 1155 H 106.617 1.18842 -6.98056 0
M  V30 1156 H 107.025 1.80052 -5.35015 0
M  V30 1157 N 106.423 1.57458 -0.0668435 0
M  V30 1158 C 107.386 2.11323 0.887422 0
M  V30 1159 C 108.386 1.03618 1.22964 0
M  V30 1160 O 109.576 1.29626 1.16373 0
M  V30 1161 C 106.708 2.61048 2.19242 0
M  V30 1162 H 107.901 2.96942 0.420194 0
M  V30 1163 H 105.454 1.55239 0.181793 0
M  V30 1164 H 106.189 1.78868 2.70512 0
M  V30 1165 H 105.974 3.39769 1.95702 0
M  V30 1166 H 107.464 3.02814 2.87565 0
M  V30 1167 N 107.901 -0.206675 1.56239 0
M  V30 1168 C 109.15 -0.926964 1.79138 0
M  V30 1169 C 109.463 -1.84901 0.638043 0
M  V30 1170 O 110.669 -2.60906 0.751033 0
M  V30 1171 C 109.125 -1.6986 3.17294 0
M  V30 1172 C 108.733 -0.821956 4.40395 0
M  V30 1173 C 110.477 -2.40922 3.4951 0
M  V30 1174 C 108.384 -1.59179 5.69575 0
M  V30 1175 H 107.314 -0.349864 0.667915 0
M  V30 1176 H 109.965 -0.180487 1.8261 0
M  V30 1177 H 108.347 -2.48853 3.08039 0
M  V30 1178 H 109.521 -0.0715019 4.60745 0
M  V30 1179 H 107.836 -0.222741 4.15804 0
M  V30 1180 H 110.433 -2.99047 4.43255 0
M  V30 1181 H 110.776 -3.14542 2.72707 0
M  V30 1182 H 111.309 -1.68905 3.60161 0
M  V30 1183 H 108.048 -0.898589 6.49312 0
M  V30 1184 H 107.568 -2.31648 5.53262 0
M  V30 1185 H 109.247 -2.14862 6.10281 0
M  V30 1186 N 109.379 -1.50304 -0.473955 0
M  V30 1187 C 110.309 -1.71886 -1.58042 0
M  V30 1188 C 111.29 -0.567799 -1.60344 0
M  V30 1189 O 112.475 -0.806623 -1.76656 0
M  V30 1190 C 109.605 -1.81036 -2.96384 0
M  V30 1191 C 108.559 -2.962 -3.08949 0
M  V30 1192 C 107.885 -2.9049 -4.48909 0
M  V30 1193 C 109.185 -4.36752 -2.86434 0
M  V30 1194 H 110.879 -2.64527 -1.40234 0
M  V30 1195 H 108.425 -1.27295 -0.673201 0
M  V30 1196 H 110.378 -1.94719 -3.73714 0
M  V30 1197 H 109.102 -0.850147 -3.15341 0
M  V30 1198 H 107.761 -2.82164 -2.3405 0
M  V30 1199 H 107.409 -1.92321 -4.64781 0
M  V30 1200 H 107.109 -3.67802 -4.58253 0
M  V30 1201 H 108.633 -3.06218 -5.28264 0
M  V30 1202 H 110.047 -4.5133 -3.53517 0
M  V30 1203 H 108.444 -5.15493 -3.07225 0
M  V30 1204 H 109.514 -4.49321 -1.82316 0
M  V30 1205 N 110.857 0.726932 -1.39834 0
M  V30 1206 C 112.104 1.48664 -1.37496 0
M  V30 1207 C 112.432 1.94482 0.0264678 0
M  V30 1208 O 111.687 1.67692 1.00886 0
M  V30 1209 C 111.986 2.73495 -2.30077 0
M  V30 1210 C 111.652 2.46502 -3.77555 0
M  V30 1211 C 110.314 2.3885 -4.17737 0
M  V30 1212 C 112.666 2.23604 -4.70798 0
M  V30 1213 C 109.994 2.06352 -5.49214 0
M  V30 1214 C 112.346 1.92622 -6.02561 0
M  V30 1215 C 111.01 1.83444 -6.41798 0
M  V30 1216 H 110.28 0.544001 -0.503135 0
M  V30 1217 H 112.927 0.833657 -1.72402 0
M  V30 1218 H 111.232 3.43575 -1.88317 0
M  V30 1219 H 112.929 3.31549 -2.25558 0
M  V30 1220 H 109.519 2.5334 -3.45712 0
M  V30 1221 H 113.703 2.28479 -4.40581 0
M  V30 1222 H 108.959 1.97776 -5.78528 0
M  V30 1223 H 113.133 1.73914 -6.74334 0
M  V30 1224 H 110.76 1.58029 -7.43593 0
M  V30 1225 N 112.336 1.25143 0.95797 0
M  V30 1226 C 113.284 1.05019 2.07542 0
M  V30 1227 C 114.278 -0.0178751 1.69391 0
M  V30 1228 O 115.484 0.137472 1.79474 0
M  V30 1229 H 111.859 0.32265 0.679265 0
M  V30 1230 H 113.83 1.99759 2.21673 0
M  V30 1231 C 112.579 0.682074 3.40944 0
M  V30 1232 H 111.902 1.49573 3.70767 0
M  V30 1233 H 113.342 0.580945 4.20001 0
M  V30 1234 C 111.801 -0.611608 3.31302 0
M  V30 1235 O 112.331 -1.65465 3.66038 0
M  V30 1236 N 110.537 -0.595982 2.84423 0
M  V30 1237 H 110.084 0.253192 2.56353 0
M  V30 1238 H 110.042 -1.46173 2.78354 0
M  V30 1239 N 113.814 -1.1601 1.06675 0
M  V30 1240 C 114.762 -2.22586 0.675157 0
M  V30 1241 C 115.756 -1.66525 -0.310766 0
M  V30 1242 O 116.962 -1.79145 -0.175215 0
M  V30 1243 H 113.337 -0.724855 0.200223 0
M  V30 1244 H 115.308 -2.52899 1.58381 0
M  V30 1245 C 114.057 -3.47604 0.0817162 0
M  V30 1246 H 113.38 -3.91058 0.831484 0
M  V30 1247 H 114.82 -4.23718 -0.154708 0
M  V30 1248 C 113.279 -3.15718 -1.17576 0
M  V30 1249 O 113.809 -3.31878 -2.26318 0
M  V30 1250 N 112.015 -2.69816 -1.07923 0
M  V30 1251 H 111.562 -2.56866 -0.194293 0
M  V30 1252 H 111.52 -2.48855 -1.92141 0
M  V30 1253 N 115.292 -0.849877 -1.32721 0
M  V30 1254 C 116.225 -0.235903 -2.26977 0
M  V30 1255 C 117.203 0.623355 -1.50177 0
M  V30 1256 O 118.387 0.581207 -1.79316 0
M  V30 1257 C 115.514 0.667712 -3.32053 0
M  V30 1258 C 114.56 -0.11753 -4.26338 0
M  V30 1259 S 115.393 -1.48277 -5.14562 0
M  V30 1260 C 116.549 -0.584741 -6.23163 0
M  V30 1261 H 116.782 -1.03495 -2.78704 0
M  V30 1262 H 114.315 -0.64724 -1.40179 0
M  V30 1263 H 116.273 1.18343 -3.93072 0
M  V30 1264 H 114.934 1.44052 -2.7912 0
M  V30 1265 H 114.127 0.57051 -5.00761 0
M  V30 1266 H 113.729 -0.564668 -3.69713 0
M  V30 1267 H 116.021 0.212968 -6.77165 0
M  V30 1268 H 116.964 -1.29947 -6.96074 0
M  V30 1269 H 117.372 -0.161202 -5.6427 0
M  V30 1270 N 116.77 1.45427 -0.607355 0
M  V30 1271 C 117.7 2.3329 0.0989352 0
M  V30 1272 C 118.681 1.46816 0.859007 0
M  V30 1273 O 119.866 1.75588 0.829604 0
M  V30 1274 C 116.996 3.29518 1.09705 0
M  V30 1275 C 115.95 4.25626 0.450206 0
M  V30 1276 C 115.276 5.11542 1.55655 0
M  V30 1277 C 116.576 5.18505 -0.628455 0
M  V30 1278 H 118.27 2.92595 -0.634716 0
M  V30 1279 H 115.816 1.40696 -0.306681 0
M  V30 1280 H 117.769 3.89855 1.59971 0
M  V30 1281 H 116.493 2.68372 1.86129 0
M  V30 1282 H 115.152 3.66586 -0.0315886 0
M  V30 1283 H 114.8 4.46765 2.31107 0
M  V30 1284 H 114.5 5.76647 1.12925 0
M  V30 1285 H 116.024 5.74748 2.06148 0
M  V30 1286 H 117.438 5.72916 -0.209877 0
M  V30 1287 H 115.835 5.92085 -0.977489 0
M  V30 1288 H 116.905 4.60948 -1.50514 0
M  V30 1289 N 118.248 0.346503 1.53744 0
M  V30 1290 C 119.473 -0.253074 2.0585 0
M  V30 1291 C 119.898 -1.43202 1.21962 0
M  V30 1292 O 119.256 -1.79783 0.234073 0
M  V30 1293 C 119.304 -0.643193 3.54817 0
M  V30 1294 O 118.408 -1.74286 3.73762 0
M  V30 1295 H 117.749 -0.0413583 0.662711 0
M  V30 1296 H 120.279 0.501574 1.98357 0
M  V30 1297 H 120.289 -0.919526 3.97503 0
M  V30 1298 H 118.964 0.218966 4.15323 0
M  V30 1299 H 117.541 -1.46356 3.42979 0
M  V30 1300 N 119.726 -1.57421 0.075193 0
M  V30 1301 C 120.974 -1.93236 -0.591974 0
M  V30 1302 C 121.295 -0.956241 -1.69944 0
M  V30 1303 O 120.565 -0.00494792 -1.95899 0
M  V30 1304 H 119.145 -0.713355 -0.22166 0
M  V30 1305 H 121.807 -1.9444 0.133848 0
M  V30 1306 H 120.903 -2.95131 -1.01509 0
M  V30 1307 N 121.204 0.198386 -1.56346 0
M  V30 1308 C 122.136 1.26987 -1.90806 0
M  V30 1309 C 123.149 1.41877 -0.798419 0
M  V30 1310 O 124.338 1.42362 -1.07682 0
M  V30 1311 C 121.438 2.64246 -2.12196 0
M  V30 1312 C 120.611 2.71007 -3.43328 0
M  V30 1313 C 119.67 3.89439 -3.5387 0
M  V30 1314 O 118.696 3.76695 -4.26719 0
M  V30 1315 N 119.898 5.04752 -2.86715 0
M  V30 1316 H 122.663 0.977433 -2.83313 0
M  V30 1317 H 120.224 0.388322 -1.57174 0
M  V30 1318 H 122.216 3.41896 -2.1654 0
M  V30 1319 H 120.786 2.85992 -1.26204 0
M  V30 1320 H 120.006 1.79657 -3.50881 0
M  V30 1321 H 121.294 2.72512 -4.29668 0
M  V30 1322 H 120.692 5.18004 -2.2735 0
M  V30 1323 H 119.249 5.8036 -2.96691 0
M  V30 1324 N 122.682 1.50554 0.465978 0
M  V30 1325 C 123.928 1.63006 1.21658 0
M  V30 1326 C 124.283 0.328613 1.89573 0
M  V30 1327 O 123.576 -0.673813 1.79361 0
M  V30 1328 C 123.77 2.75152 2.28093 0
M  V30 1329 C 123.599 4.16075 1.7062 0
M  V30 1330 C 122.369 4.82408 1.50368 0
M  V30 1331 C 124.567 5.00145 1.1983 0
M  V30 1332 N 122.549 6.07532 0.881924 0
M  V30 1333 C 123.92 6.16035 0.700083 0
M  V30 1334 C 125.975 4.85882 1.08733 0
M  V30 1335 C 124.678 7.19228 0.101835 0
M  V30 1336 C 126.704 5.89257 0.503016 0
M  V30 1337 C 126.066 7.04398 0.0152005 0
M  V30 1338 H 122.165 0.650596 0.433877 0
M  V30 1339 H 124.749 1.8769 0.517746 0
M  V30 1340 H 122.92 2.52181 2.95397 0
M  V30 1341 H 124.652 2.76935 2.95109 0
M  V30 1342 H 121.407 4.39788 1.75737 0
M  V30 1343 H 121.831 6.7443 0.589312 0
M  V30 1344 H 126.473 3.97144 1.4504 0
M  V30 1345 H 124.191 8.07637 -0.273426 0
M  V30 1346 H 127.777 5.80286 0.419451 0
M  V30 1347 H 126.657 7.83021 -0.429856 0
M  V30 1348 N 124.16 -0.719506 1.40217 0
M  V30 1349 C 125.388 -1.50864 1.41589 0
M  V30 1350 C 125.803 -1.88794 0.0145275 0
M  V30 1351 O 125.16 -1.55174 -0.960594 0
M  V30 1352 C 125.211 -2.78646 2.30302 0
M  V30 1353 O 124.932 -2.42321 3.64983 0
M  V30 1354 C 126.433 -3.72569 2.40224 0
M  V30 1355 H 123.653 -0.465709 0.48307 0
M  V30 1356 H 126.197 -0.88785 1.84221 0
M  V30 1357 H 124.352 -3.37019 1.91042 0
M  V30 1358 H 124.766 -3.24514 4.12057 0
M  V30 1359 H 126.24 -4.5908 3.06512 0
M  V30 1360 H 126.717 -4.15403 1.42608 0
M  V30 1361 H 127.323 -3.20109 2.80019 0
M  V30 1362 N 125.638 -1.25649 -0.95132 0
M  V30 1363 C 126.571 -1.00644 -2.04807 0
M  V30 1364 C 127.549 0.0654271 -1.62468 0
M  V30 1365 O 128.733 -0.074911 -1.88351 0
M  V30 1366 C 125.86 -0.522052 -3.34653 0
M  V30 1367 C 124.906 -1.58495 -3.95957 0
M  V30 1368 S 125.739 -3.17108 -4.31512 0
M  V30 1369 C 126.895 -2.70412 -5.64471 0
M  V30 1370 H 127.128 -1.93508 -2.25703 0
M  V30 1371 H 124.661 -1.09216 -1.09139 0
M  V30 1372 H 126.619 -0.24923 -4.09743 0
M  V30 1373 H 125.28 0.386146 -3.11717 0
M  V30 1374 H 124.473 -1.1968 -4.89584 0
M  V30 1375 H 124.075 -1.80862 -3.2736 0
M  V30 1376 H 126.367 -2.14245 -6.42733 0
M  V30 1377 H 127.31 -3.62693 -6.08161 0
M  V30 1378 H 127.718 -2.10302 -5.23864 0
M  V30 1379 N 127.117 1.15442 -1.07289 0
M  V30 1380 C 128.345 1.90096 -0.81676 0
M  V30 1381 C 128.76 1.7798 0.629966 0
M  V30 1382 O 128.117 1.1313 1.43206 0
M  V30 1383 C 128.168 3.40466 -1.21512 0
M  V30 1384 O 127.889 3.52232 -2.60508 0
M  V30 1385 C 129.39 4.32145 -0.988198 0
M  V30 1386 H 126.61 0.602495 -0.295366 0
M  V30 1387 H 129.154 1.4627 -1.42918 0
M  V30 1388 H 127.309 3.81958 -0.647039 0
M  V30 1389 H 127.723 4.45549 -2.76742 0
M  V30 1390 H 129.197 5.36072 -1.31645 0
M  V30 1391 H 129.674 4.39135 0.0755063 0
M  V30 1392 H 130.28 3.96395 -1.54115 0
M  V30 1393 N 128.595 0.856903 1.32268 0
M  V30 1394 C 129.543 0.291987 2.3076 0
M  V30 1395 C 130.537 -0.585857 1.58947 0
M  V30 1396 O 131.743 -0.47341 1.73663 0
M  V30 1397 H 128.118 0.075721 0.748178 0
M  V30 1398 H 130.089 1.13687 2.75895 0
M  V30 1399 C 128.838 -0.502869 3.44044 0
M  V30 1400 H 128.161 0.163328 3.99466 0
M  V30 1401 H 129.601 -0.863691 4.1511 0
M  V30 1402 C 128.06 -1.68898 2.91505 0
M  V30 1403 O 128.59 -2.78811 2.89184 0
M  V30 1404 N 126.796 -1.51679 2.47875 0
M  V30 1405 H 126.343 -0.622666 2.49961 0
M  V30 1406 H 126.301 -2.31184 2.13076 0
M  V30 1407 N 130.073 -1.45103 0.615059 0
M  V30 1408 C 131.301 -2.06553 0.11977 0
M  V30 1409 C 131.716 -1.45842 -1.19898 0
M  V30 1410 O 131.073 -0.575325 -1.73194 0
M  V30 1411 C 131.124 -3.61495 -0.018364 0
M  V30 1412 O 130.845 -4.19942 1.24822 0
M  V30 1413 C 132.346 -4.39947 -0.544237 0
M  V30 1414 H 129.566 -0.667096 0.0722739 0
M  V30 1415 H 132.11 -1.8623 0.84491 0
M  V30 1416 H 130.265 -3.81135 -0.693865 0
M  V30 1417 H 130.679 -5.13204 1.0827 0
M  V30 1418 H 132.153 -5.48838 -0.589953 0
M  V30 1419 H 132.63 -4.10255 -1.56805 0
M  V30 1420 H 133.236 -4.25188 0.0974703 0
M  V30 1421 N 131.551 -0.354651 -1.53558 0
M  V30 1422 C 132.779 0.239515 -2.05509 0
M  V30 1423 C 133.194 1.4333 -1.2289 0
M  V30 1424 O 132.551 1.80538 -0.266899 0
M  V30 1425 C 132.602 0.643719 -3.55723 0
M  V30 1426 O 132.323 -0.502602 -4.35207 0
M  V30 1427 C 133.824 1.29743 -4.23889 0
M  V30 1428 H 131.044 0.0442697 -0.669538 0
M  V30 1429 H 133.588 -0.509856 -1.98042 0
M  V30 1430 H 131.743 1.34302 -3.63376 0
M  V30 1431 H 132.157 -0.178172 -5.24197 0
M  V30 1432 H 133.631 1.53091 -5.30346 0
M  V30 1433 H 134.108 2.25441 -3.76926 0
M  V30 1434 H 134.714 0.639865 -4.20459 0
M  V30 1435 N 133.029 1.57378 -0.0835403 0
M  V30 1436 C 133.977 2.14602 0.89714 0
M  V30 1437 C 134.971 1.08589 1.30018 0
M  V30 1438 O 136.177 1.26952 1.27606 0
M  V30 1439 H 132.552 0.686346 0.3073 0
M  V30 1440 H 134.523 2.95845 0.38969 0
M  V30 1441 C 133.272 2.73188 2.15089 0
M  V30 1442 H 132.595 3.54442 1.84962 0
M  V30 1443 H 134.035 3.1681 2.81793 0
M  V30 1444 C 132.494 1.68517 2.91725 0
M  V30 1445 O 133.024 1.11718 3.85852 0
M  V30 1446 N 131.23 1.39277 2.55049 0
M  V30 1447 H 130.777 1.85655 1.78577 0
M  V30 1448 H 130.735 0.694791 3.06627 0
M  V30 1449 N 134.507 -0.190092 1.56449 0
M  V30 1450 C 135.439 -1.25973 1.91477 0
M  V30 1451 C 136.452 -1.41452 0.805931 0
M  V30 1452 O 137.641 -1.41789 1.08435 0
M  V30 1453 C 134.741 -2.63117 2.13594 0
M  V30 1454 C 133.914 -2.69182 3.4476 0
M  V30 1455 C 132.973 -3.87557 3.5593 0
M  V30 1456 O 131.999 -3.74427 4.28711 0
M  V30 1457 N 133.201 -5.03224 2.89388 0
M  V30 1458 H 135.966 -0.962394 2.83828 0
M  V30 1459 H 133.527 -0.379981 1.57378 0
M  V30 1460 H 135.519 -3.40742 2.1835 0
M  V30 1461 H 134.089 -2.85319 1.27719 0
M  V30 1462 H 133.309 -1.77793 3.51828 0
M  V30 1463 H 134.597 -2.70229 4.31107 0
M  V30 1464 H 133.995 -5.16791 2.30094 0
M  V30 1465 H 132.552 -5.78778 2.99764 0
M  V30 1466 N 135.985 -1.50799 -0.457987 0
M  V30 1467 C 137.215 -1.65977 -1.23025 0
M  V30 1468 C 137.623 -0.347918 -1.85974 0
M  V30 1469 O 136.966 0.68148 -1.70592 0
M  V30 1470 C 137.028 -2.70309 -2.3701 0
M  V30 1471 C 136.692 -4.135 -1.94594 0
M  V30 1472 C 137.689 -4.98949 -1.46101 0
M  V30 1473 C 135.374 -4.5949 -2.02915 0
M  V30 1474 C 137.368 -6.28442 -1.06489 0
M  V30 1475 C 135.055 -5.88984 -1.62914 0
M  V30 1476 C 136.053 -6.73286 -1.1478 0
M  V30 1477 O 135.741 -8.00362 -0.75339 0
M  V30 1478 H 135.473 -0.56064 -0.377702 0
M  V30 1479 H 138.027 -1.97857 -0.551537 0
M  V30 1480 H 136.257 -2.337 -3.08093 0
M  V30 1481 H 137.946 -2.74574 -2.98938 0
M  V30 1482 H 138.712 -4.6463 -1.39084 0
M  V30 1483 H 134.591 -3.94009 -2.39328 0
M  V30 1484 H 138.135 -6.94194 -0.688488 0
M  V30 1485 H 134.032 -6.22822 -1.69595 0
M  V30 1486 H 134.8 -8.13744 -0.88108 0
M  V30 1487 N 137.463 0.71206 -1.40597 0
M  V30 1488 C 138.688 1.50617 -1.42581 0
M  V30 1489 C 139.113 1.88079 -0.0282102 0
M  V30 1490 O 138.471 1.53511 0.964579 0
M  V30 1491 C 138.519 2.7557 -2.3258 0
M  V30 1492 O 137.623 3.72414 -1.77148 0
M  V30 1493 H 136.964 0.453966 -0.484573 0
M  V30 1494 H 139.494 0.876649 -1.84868 0
M  V30 1495 H 139.504 3.2406 -2.47889 0
M  V30 1496 H 138.179 2.47639 -3.34138 0
M  V30 1497 H 136.756 3.31276 -1.71204 0
M  V30 1498 N 138.941 1.26152 0.944643 0
M  V30 1499 C 140.166 1.14363 1.7302 0
M  V30 1500 C 140.591 -0.29772 1.85729 0
M  V30 1501 O 139.949 -1.2157 1.34501 0
M  V30 1502 C 139.997 1.81378 3.11664 0
M  V30 1503 O 139.101 1.10022 3.97453 0
M  V30 1504 H 138.442 0.398694 0.53098 0
M  V30 1505 H 140.972 1.66906 1.18337 0
M  V30 1506 H 140.982 1.88064 3.62072 0
M  V30 1507 H 139.657 2.86237 3.0173 0
M  V30 1508 H 138.234 1.11287 3.55907 0
M  V30 1509 N 140.419 -1.14872 1.07899 0
M  V30 1510 C 141.349 -2.2193 0.725887 0
M  V30 1511 C 142.33 -1.67622 -0.28927 0
M  V30 1512 O 143.515 -1.93533 -0.160787 0
M  V30 1513 C 140.645 -3.47061 0.128856 0
M  V30 1514 C 139.599 -4.14363 1.07178 0
M  V30 1515 C 138.925 -5.33636 0.337229 0
M  V30 1516 C 140.225 -4.63492 2.40775 0
M  V30 1517 H 141.919 -2.51724 1.62097 0
M  V30 1518 H 139.465 -1.20991 0.780838 0
M  V30 1519 H 141.418 -4.21199 -0.130147 0
M  V30 1520 H 140.142 -3.16617 -0.80134 0
M  V30 1521 H 138.801 -3.42173 1.3158 0
M  V30 1522 H 138.449 -4.99449 -0.596606 0
M  V30 1523 H 138.149 -5.79609 0.965788 0
M  V30 1524 H 139.673 -6.10539 0.0861567 0
M  V30 1525 H 141.087 -5.2913 2.20669 0
M  V30 1526 H 139.484 -5.20148 2.99276 0
M  V30 1527 H 140.554 -3.78834 3.02676 0
M  V30 1528 N 141.898 -0.863906 -1.31812 0
M  V30 1529 C 142.831 -0.259963 -2.26714 0
M  V30 1530 C 143.809 0.607392 -1.50829 0
M  V30 1531 O 144.993 0.562155 -1.79922 0
M  V30 1532 C 142.12 0.632456 -3.32743 0
M  V30 1533 C 141.166 -0.162743 -4.26189 0
M  V30 1534 S 141.999 -1.53726 -5.12961 0
M  V30 1535 C 143.155 -0.650803 -6.22507 0
M  V30 1536 H 143.388 -1.06445 -2.77591 0
M  V30 1537 H 140.921 -0.662071 -1.39485 0
M  V30 1538 H 142.879 1.14167 -3.94305 0
M  V30 1539 H 141.54 1.41083 -2.80632 0
M  V30 1540 H 140.733 0.517366 -5.01338 0
M  V30 1541 H 140.335 -0.60385 -3.69093 0
M  V30 1542 H 142.627 0.141134 -6.77353 0
M  V30 1543 H 143.57 -1.37322 -6.94657 0
M  V30 1544 H 143.978 -0.221041 -5.64067 0
M  V30 1545 N 143.376 1.44774 -0.622745 0
M  V30 1546 C 144.625 2.01334 -0.121397 0
M  V30 1547 C 144.938 1.49505 1.26125 0
M  V30 1548 O 146.144 1.98139 1.85616 0
M  V30 1549 C 144.6 3.59516 -0.166298 0
M  V30 1550 C 144.208 4.20342 -1.54974 0
M  V30 1551 C 145.952 4.23582 0.279021 0
M  V30 1552 C 143.859 5.70721 -1.55021 0
M  V30 1553 H 142.789 0.752851 -0.0416172 0
M  V30 1554 H 145.44 1.66083 -0.780309 0
M  V30 1555 H 143.822 3.92027 0.559557 0
M  V30 1556 H 144.996 3.99381 -2.29851 0
M  V30 1557 H 143.311 3.68529 -1.93843 0
M  V30 1558 H 145.908 5.33868 0.298083 0
M  V30 1559 H 146.251 3.95327 1.30471 0
M  V30 1560 H 146.784 3.95843 -0.394063 0
M  V30 1561 H 143.523 6.03698 -2.55399 0
M  V30 1562 H 143.043 5.93829 -0.844245 0
M  V30 1563 H 144.722 6.34203 -1.28047 0
M  V30 1564 N 144.854 0.36279 1.53368 0
M  V30 1565 C 145.787 -0.528507 2.21996 0
M  V30 1566 C 146.765 -1.0852 1.21087 0
M  V30 1567 O 147.949 -1.14186 1.4998 0
M  V30 1568 C 145.076 -1.72893 2.91249 0
M  V30 1569 C 144.122 -1.29994 4.06207 0
M  V30 1570 S 144.955 -0.303575 5.34639 0
M  V30 1571 C 146.111 -1.51039 6.07403 0
M  V30 1572 H 146.344 0.0543423 2.9725 0
M  V30 1573 H 143.877 0.146889 1.537 0
M  V30 1574 H 145.835 -2.41751 3.31763 0
M  V30 1575 H 144.496 -2.28303 2.15724 0
M  V30 1576 H 143.689 -2.19549 4.53667 0
M  V30 1577 H 143.291 -0.690608 3.67569 0
M  V30 1578 H 145.583 -2.44186 6.31965 0
M  V30 1579 H 146.526 -1.07721 6.99858 0
M  V30 1580 H 146.934 -1.71518 5.37812 0
M  V30 1581 N 146.332 -1.57332 0.0918853 0
M  V30 1582 C 147.265 -2.09499 -0.904735 0
M  V30 1583 C 148.243 -1.00479 -1.27839 0
M  V30 1584 O 149.427 -1.27954 -1.38419 0
M  V30 1585 C 146.554 -2.56931 -2.2069 0
M  V30 1586 C 145.6 -3.77579 -1.98334 0
M  V30 1587 S 146.433 -5.21317 -1.22428 0
M  V30 1588 C 147.589 -5.72097 -2.53882 0
M  V30 1589 H 147.822 -2.93705 -0.460922 0
M  V30 1590 H 145.355 -1.53923 -0.121332 0
M  V30 1591 H 147.313 -2.84917 -2.95521 0
M  V30 1592 H 145.974 -1.72956 -2.62192 0
M  V30 1593 H 145.167 -4.08824 -2.94752 0
M  V30 1594 H 144.769 -3.5007 -1.31633 0
M  V30 1595 H 147.061 -5.80168 -3.49874 0
M  V30 1596 H 148.004 -6.70654 -2.27219 0
M  V30 1597 H 148.412 -5.00012 -2.62007 0
M  V30 1598 N 147.81 0.181792 -1.56548 0
M  V30 1599 C 148.773 1.20894 -1.94724 0
M  V30 1600 C 149.773 1.37738 -0.829747 0
M  V30 1601 O 150.963 1.35323 -1.09697 0
M  V30 1602 C 148.095 2.57593 -2.23291 0
M  V30 1603 H 149.288 0.882275 -2.86629 0
M  V30 1604 H 146.841 0.423838 -1.50444 0
M  V30 1605 H 147.576 2.95291 -1.34067 0
M  V30 1606 H 147.361 2.46735 -3.04736 0
M  V30 1607 H 148.851 3.31637 -2.53785 0
M  V30 1608 N 149.288 1.51039 0.449983 0
M  V30 1609 C 150.221 1.66105 1.56474 0
M  V30 1610 C 151.199 0.508776 1.54435 0
M  V30 1611 O 152.383 0.731005 1.73749 0
M  V30 1612 C 149.51 1.66304 2.9506 0
M  V30 1613 C 148.556 2.87346 3.15174 0
M  V30 1614 S 149.389 4.4835 2.92818 0
M  V30 1615 C 150.545 4.51274 4.33708 0
M  V30 1616 H 150.778 2.60397 1.43459 0
M  V30 1617 H 148.311 1.40565 0.638805 0
M  V30 1618 H 150.269 1.67103 3.74949 0
M  V30 1619 H 148.93 0.732108 3.05449 0
M  V30 1620 H 148.123 2.83849 4.16468 0
M  V30 1621 H 147.725 2.84223 2.43091 0
M  V30 1622 H 150.017 4.26136 5.26701 0
M  V30 1623 H 150.96 5.53017 4.42242 0
M  V30 1624 H 151.368 3.80738 4.16772 0
M  V30 1625 N 150.766 -0.704594 1.40972 0
M  V30 1626 C 151.729 -1.80035 1.41845 0
M  V30 1627 C 152.729 -1.57774 0.310474 0
M  V30 1628 O 153.919 -1.64613 0.56992 0
M  V30 1629 C 151.051 -3.18284 1.22098 0
M  V30 1630 H 152.244 -1.80658 2.3938 0
M  V30 1631 H 149.797 -0.911329 1.26982 0
M  V30 1632 H 150.532 -3.23306 0.253672 0
M  V30 1633 H 150.317 -3.35843 2.02366 0
M  V30 1634 H 151.807 -3.98289 1.25522 0
M  V30 1635 N 152.244 -1.26651 -0.937939 0
M  V30 1636 C 153.177 -1.02811 -2.03728 0
M  V30 1637 C 154.155 0.0481915 -1.62529 0
M  V30 1638 O 155.339 -0.0948839 -1.88261 0
M  V30 1639 C 152.466 -0.557517 -3.3408 0
M  V30 1640 C 151.512 -1.62686 -3.94253 0
M  V30 1641 S 152.345 -3.21667 -4.28125 0
M  V30 1642 C 153.501 -2.76384 -5.61572 0
M  V30 1643 H 153.734 -1.95891 -2.23638 0
M  V30 1644 H 151.267 -1.10367 -1.07974 0
M  V30 1645 H 153.225 -0.292674 -4.09455 0
M  V30 1646 H 151.886 0.353062 -3.12109 0
M  V30 1647 H 151.079 -1.24866 -4.88287 0
M  V30 1648 H 150.681 -1.84324 -3.25424 0
M  V30 1649 H 152.973 -2.2105 -6.40424 0
M  V30 1650 H 153.916 -3.69123 -6.0428 0
M  V30 1651 H 154.324 -2.15847 -5.21604 0
M  V30 1652 N 153.722 1.14298 -1.08507 0
M  V30 1653 C 154.669 2.19414 -0.715965 0
M  V30 1654 C 155.639 1.63399 0.298326 0
M  V30 1655 O 156.824 1.89929 0.182101 0
M  V30 1656 C 153.964 3.44845 -0.132534 0
M  V30 1657 C 153.077 4.15007 -1.19973 0
M  V30 1658 C 152.212 5.28024 -0.580048 0
M  V30 1659 C 151.251 5.9002 -1.62921 0
M  V30 1660 N 150.388 6.94485 -1.03125 0
M  V30 1661 H 155.228 2.50336 -1.61666 0
M  V30 1662 H 152.765 1.2293 -0.807882 0
M  V30 1663 H 154.723 4.16601 0.223454 0
M  V30 1664 H 153.353 3.14403 0.731467 0
M  V30 1665 H 152.405 3.41629 -1.67313 0
M  V30 1666 H 153.717 4.57178 -1.99473 0
M  V30 1667 H 152.871 6.06455 -0.172364 0
M  V30 1668 H 151.61 4.87076 0.246603 0
M  V30 1669 H 150.615 5.10291 -2.04654 0
M  V30 1670 H 151.84 6.33042 -2.45835 0
M  V30 1671 H 149.786 6.55612 -0.225711 0
M  V30 1672 H 149.703 7.35148 -1.76334 0
M  V30 1673 H 150.971 7.7679 -0.649458 0
M  V30 1674 N 155.201 0.870884 1.31352 0
M  V30 1675 C 156.131 0.343096 2.30966 0
M  V30 1676 C 157.112 -0.566507 1.60389 0
M  V30 1677 O 158.297 -0.483336 1.88089 0
M  V30 1678 C 155.427 -0.455487 3.443 0
M  V30 1679 C 154.381 0.361103 4.26474 0
M  V30 1680 C 153.707 -0.563221 5.31725 0
M  V30 1681 C 155.007 1.59566 4.97329 0
M  V30 1682 H 156.701 1.17548 2.75359 0
M  V30 1683 H 154.247 0.566686 1.32381 0
M  V30 1684 H 156.2 -0.83525 4.13039 0
M  V30 1685 H 154.924 -1.32139 2.98675 0
M  V30 1686 H 153.583 0.722825 3.59403 0
M  V30 1687 H 153.231 -1.42643 4.82351 0
M  V30 1688 H 152.931 -0.0207409 5.87596 0
M  V30 1689 H 154.455 -0.939808 6.03324 0
M  V30 1690 H 155.869 1.28728 5.58661 0
M  V30 1691 H 154.266 2.07728 5.63 0
M  V30 1692 H 155.336 2.34798 4.24262 0
M  V30 1693 N 156.679 -1.44442 0.630414 0
M  V30 1694 C 157.927 -2.01653 0.134351 0
M  V30 1695 C 158.248 -1.49836 -1.24796 0
M  V30 1696 O 157.518 -0.701684 -1.82902 0
M  V30 1697 H 156.098 -0.74554 0.0466769 0
M  V30 1698 H 158.76 -1.76952 0.816955 0
M  V30 1699 H 157.856 -3.11935 0.101498 0
M  V30 1700 N 158.157 -0.370918 -1.53173 0
M  V30 1701 C 159.09 0.516727 -2.22273 0
M  V30 1702 C 160.068 1.07877 -1.21661 0
M  V30 1703 O 161.252 1.13389 -1.50583 0
M  V30 1704 C 158.379 1.71346 -2.92161 0
M  V30 1705 C 157.425 1.27838 -4.0689 0
M  V30 1706 S 158.258 0.275217 -5.34792 0
M  V30 1707 C 159.414 1.47816 -6.08195 0
M  V30 1708 H 159.647 -0.0701054 -2.97217 0
M  V30 1709 H 157.18 -0.155038 -1.5362 0
M  V30 1710 H 159.138 2.39988 -3.3304 0
M  V30 1711 H 157.799 2.27156 -2.16931 0
M  V30 1712 H 156.992 2.17141 -4.54825 0
M  V30 1713 H 156.594 0.671105 -3.6793 0
M  V30 1714 H 158.886 2.40831 -6.33251 0
M  V30 1715 H 159.829 1.04008 -7.0042 0
M  V30 1716 H 160.237 1.68663 -5.38714 0
M  V30 1717 N 159.635 1.57281 -0.100228 0
M  V30 1718 C 160.598 2.13158 0.842398 0
M  V30 1719 C 161.598 1.06202 1.20738 0
M  V30 1720 O 162.788 1.32066 1.13597 0
M  V30 1721 C 159.92 2.65639 2.13655 0
M  V30 1722 H 161.113 2.97766 0.357114 0
M  V30 1723 H 158.666 1.5559 0.148823 0
M  V30 1724 H 159.401 1.84566 2.66657 0
M  V30 1725 H 159.186 3.43844 1.88451 0
M  V30 1726 H 160.676 3.08846 2.81077 0
M  V30 1727 N 161.113 -0.173488 1.56642 0
M  V30 1728 C 162.524 -0.736155 1.71574 0
M  V30 1729 C 162.875 -1.82888 0.710389 0
M  V30 1730 O 162 -2.16017 -0.1287 0
M  V30 1731 C 162.595 -1.34211 3.11083 0
M  V30 1732 C 161.154 -1.85162 3.27707 0
M  V30 1733 C 160.301 -0.729765 2.67525 0
M  V30 1734 H 163.252 0.0518786 1.58615 0
M  V30 1735 H 163.273 -2.21178 3.09613 0
M  V30 1736 H 162.785 -0.546579 3.84232 0
M  V30 1737 H 160.886 -2.67366 2.59512 0
M  V30 1738 H 160.999 -1.99855 4.35425 0
M  V30 1739 H 159.363 -1.14965 2.27278 0
M  V30 1740 H 160.146 0.0538806 3.43258 0
M  V30 1741 N 162.591 -1.51276 -0.441967 0
M  V30 1742 C 163.838 -1.63715 -1.19179 0
M  V30 1743 C 164.166 -0.351175 -1.91303 0
M  V30 1744 O 163.421 0.664524 -1.84072 0
M  V30 1745 C 163.72 -2.78746 -2.23686 0
M  V30 1746 C 163.386 -4.18189 -1.68607 0
M  V30 1747 C 162.048 -4.56125 -1.53308 0
M  V30 1748 C 164.4 -5.05222 -1.28062 0
M  V30 1749 C 161.728 -5.78804 -0.959317 0
M  V30 1750 C 164.08 -6.28476 -0.721162 0
M  V30 1751 C 162.744 -6.65188 -0.55504 0
M  V30 1752 H 162.014 -0.599076 -0.436106 0
M  V30 1753 H 164.661 -1.85296 -0.48351 0
M  V30 1754 H 162.966 -2.51369 -3.00535 0
M  V30 1755 H 164.663 -2.8557 -2.81515 0
M  V30 1756 H 161.253 -3.88277 -1.8149 0
M  V30 1757 H 165.437 -4.76524 -1.38704 0
M  V30 1758 H 160.693 -6.05899 -0.81833 0
M  V30 1759 H 164.867 -6.95259 -0.398458 0
M  V30 1760 H 162.494 -7.60123 -0.108311 0
M  V30 1761 N 164.069 0.697108 -1.41344 0
M  V30 1762 C 165.019 1.80313 -1.39539 0
M  V30 1763 C 166.003 1.58618 -0.270001 0
M  V30 1764 O 167.195 1.69477 -0.510551 0
M  V30 1765 C 164.324 3.18606 -1.27848 0
M  V30 1766 C 163.41 3.46001 -2.45244 0
M  V30 1767 N 163.801 3.44103 -3.70711 0
M  V30 1768 C 162.099 3.76542 -2.39023 0
M  V30 1769 C 162.8 3.7036 -4.48563 0
M  V30 1770 N 161.776 3.90027 -3.78655 0
M  V30 1771 H 165.578 1.77207 -2.34468 0
M  V30 1772 H 163.092 0.897031 -1.35378 0
M  V30 1773 H 165.089 3.97833 -1.24637 0
M  V30 1774 H 163.749 3.22925 -0.339032 0
M  V30 1775 H 164.76 3.2452 -4.03618 0
M  V30 1776 H 161.437 3.88241 -1.53542 0
M  V30 1777 H 162.827 3.75042 -5.57488 0
M  V30 1778 N 165.547 1.27147 0.931209 0
M  V30 1779 C 166.794 1.13278 1.67852 0
M  V30 1780 C 167.122 -0.32204 1.91815 0
M  V30 1781 O 166.377 -1.25224 1.50391 0
M  V30 1782 C 166.676 1.8579 3.05314 0
M  V30 1783 C 166.342 3.35657 3.01073 0
M  V30 1784 C 165.004 3.76536 2.99623 0
M  V30 1785 C 167.356 4.31299 2.92627 0
M  V30 1786 C 164.684 5.11426 2.87506 0
M  V30 1787 C 167.036 5.66242 2.82051 0
M  V30 1788 C 165.7 6.06418 2.7895 0
M  V30 1789 H 164.97 0.414515 0.614214 0
M  V30 1790 H 167.617 1.57712 1.08624 0
M  V30 1791 H 165.922 1.33854 3.68226 0
M  V30 1792 H 167.619 1.72491 3.62005 0
M  V30 1793 H 164.209 3.03146 3.02986 0
M  V30 1794 H 168.393 4.00692 2.92848 0
M  V30 1795 H 163.649 5.41705 2.83489 0
M  V30 1796 H 167.823 6.40026 2.74481 0
M  V30 1797 H 165.45 7.10895 2.69318 0
M  V30 1798 N 167.025 -1.13721 1.09112 0
M  V30 1799 C 168.271 -1.85413 0.836283 0
M  V30 1800 C 168.626 -1.8175 -0.631249 0
M  V30 1801 O 167.919 -1.24238 -1.45861 0
M  V30 1802 C 168.113 -3.32861 1.30146 0
M  V30 1803 C 167.942 -3.50882 2.81268 0
M  V30 1804 C 166.712 -3.65312 3.49106 0
M  V30 1805 C 168.91 -3.47196 3.7942 0
M  V30 1806 N 166.892 -3.71563 4.88686 0
M  V30 1807 C 168.263 -3.59777 5.04936 0
M  V30 1808 C 170.318 -3.30577 3.72321 0
M  V30 1809 C 169.021 -3.57455 6.24194 0
M  V30 1810 C 171.047 -3.29562 4.91063 0
M  V30 1811 C 170.409 -3.42691 6.15421 0
M  V30 1812 H 166.508 -0.694812 0.358832 0
M  V30 1813 H 169.092 -1.36246 1.39087 0
M  V30 1814 H 167.263 -3.80602 0.774361 0
M  V30 1815 H 168.995 -3.92346 0.99229 0
M  V30 1816 H 165.75 -3.6685 2.9953 0
M  V30 1817 H 166.174 -3.78387 5.61384 0
M  V30 1818 H 170.816 -3.19332 2.77105 0
M  V30 1819 H 168.534 -3.67475 7.19714 0
M  V30 1820 H 172.12 -3.17905 4.87266 0
M  V30 1821 H 171 -3.41862 7.05762 0
M  V30 1822 N 168.503 -0.877838 -1.30888 0
M  V30 1823 C 169.749 -0.493426 -1.96706 0
M  V30 1824 C 170.082 0.953504 -1.6918 0
M  V30 1825 O 169.357 1.67266 -0.992594 0
M  V30 1826 C 169.64 -0.760429 -3.51979 0
M  V30 1827 C 169.493 -2.25747 -3.89048 0
M  V30 1828 C 170.812 -0.232148 -4.39487 0
M  V30 1829 H 167.931 -0.180746 -0.714493 0
M  V30 1830 H 170.573 -1.10052 -1.54882 0
M  V30 1831 H 168.723 -0.243715 -3.87735 0
M  V30 1832 H 170.395 -2.84204 -3.63354 0
M  V30 1833 H 168.638 -2.72694 -3.37373 0
M  V30 1834 H 169.309 -2.39491 -4.97341 0
M  V30 1835 H 171.785 -0.674314 -4.106 0
M  V30 1836 H 170.661 -0.448355 -5.47066 0
M  V30 1837 H 170.922 0.866297 -4.33529 0
M  V30 1838 N 169.982 1.44106 -0.638065 0
M  V30 1839 C 171.393 1.85316 -0.226894 0
M  V30 1840 C 171.744 1.53399 1.22324 0
M  V30 1841 O 170.869 0.975463 1.93167 0
M  V30 1842 C 171.464 3.3637 -0.405013 0
M  V30 1843 C 170.023 3.76369 -0.0482902 0
M  V30 1844 C 169.17 2.67921 -0.715108 0
M  V30 1845 H 172.121 1.34474 -0.842764 0
M  V30 1846 H 172.142 3.7885 0.354 0
M  V30 1847 H 171.654 3.59569 -1.46053 0
M  V30 1848 H 169.755 3.58784 1.00522 0
M  V30 1849 H 169.868 4.76856 -0.463187 0
M  V30 1850 H 168.232 2.54259 -0.149753 0
M  V30 1851 H 169.015 2.93951 -1.77335 0
M  V30 1852 N 171.46 0.379036 1.52974 0
M  V30 1853 C 172.37 -0.468639 2.29872 0
M  V30 1854 C 173.386 -1.08067 1.36373 0
M  V30 1855 O 174.562 -1.08871 1.69438 0
M  V30 1856 C 171.627 -1.58594 3.083 0
M  V30 1857 C 170.688 -1.00007 4.17489 0
M  V30 1858 C 169.921 -2.06413 4.92168 0
M  V30 1859 O 170.144 -3.27751 4.66835 0
M  V30 1860 O 169.078 -1.68717 5.7777 0
M  V30 1861 H 172.904 0.157508 3.03291 0
M  V30 1862 H 170.489 0.143035 1.48714 0
M  V30 1863 H 172.371 -2.23525 3.57232 0
M  V30 1864 H 171.046 -2.19724 2.37703 0
M  V30 1865 H 169.953 -0.314299 3.72777 0
M  V30 1866 H 171.286 -0.433135 4.90291 0
M  V30 1867 N 172.938 -1.57226 0.108567 0
M  V30 1868 C 174.184 -1.95121 -0.552761 0
M  V30 1869 C 174.517 -0.991345 -1.66991 0
M  V30 1870 O 173.792 -0.0267211 -1.94482 0
M  V30 1871 C 174.075 -3.43039 -1.09528 0
M  V30 1872 C 173.928 -4.49797 0.0177332 0
M  V30 1873 C 175.247 -3.92567 -1.98945 0
M  V30 1874 H 172.366 -0.709496 -0.199461 0
M  V30 1875 H 175.008 -1.89126 0.182011 0
M  V30 1876 H 173.158 -3.48279 -1.72146 0
M  V30 1877 H 174.83 -4.56661 0.652584 0
M  V30 1878 H 173.073 -4.284 0.682309 0
M  V30 1879 H 173.744 -5.50528 -0.402919 0
M  V30 1880 H 176.22 -3.89565 -1.46214 0
M  V30 1881 H 175.096 -4.96605 -2.33827 0
M  V30 1882 H 175.357 -3.32648 -2.91201 0
M  V30 1883 N 174.416 0.165178 -1.56732 0
M  V30 1884 C 175.644 0.896218 -1.86482 0
M  V30 1885 C 176.059 1.75555 -0.694675 0
M  V30 1886 O 175.416 1.79379 0.33607 0
M  V30 1887 C 175.467 1.76792 -3.1532 0
M  V30 1888 O 175.188 0.943239 -4.27825 0
M  V30 1889 C 176.689 2.6081 -3.58459 0
M  V30 1890 H 173.909 0.260064 -0.618553 0
M  V30 1891 H 176.453 0.163428 -2.03846 0
M  V30 1892 H 174.608 2.45398 -2.99764 0
M  V30 1893 H 175.022 1.53998 -5.01383 0
M  V30 1894 H 176.496 3.17579 -4.51495 0
M  V30 1895 H 176.973 3.35977 -2.82872 0
M  V30 1896 H 177.579 1.97526 -3.76648 0
M  V30 1897 N 175.894 1.51508 0.433938 0
M  V30 1898 C 176.826 1.69266 1.54537 0
M  V30 1899 C 177.839 0.573276 1.52373 0
M  V30 1900 O 179.028 0.847698 1.57087 0
M  V30 1901 C 176.128 1.69524 2.93453 0
M  V30 1902 C 175.301 2.98101 3.20085 0
M  V30 1903 C 174.36 2.90502 4.38742 0
M  V30 1904 O 173.386 3.64442 4.3723 0
M  V30 1905 N 174.588 2.06586 5.42496 0
M  V30 1906 H 177.353 2.65145 1.39708 0
M  V30 1907 H 174.914 1.49437 0.622922 0
M  V30 1908 H 176.906 1.62004 3.70859 0
M  V30 1909 H 175.476 0.812245 3.01863 0
M  V30 1910 H 174.696 3.19464 2.30947 0
M  V30 1911 H 175.984 3.83207 3.34708 0
M  V30 1912 H 175.382 1.45896 5.46563 0
M  V30 1913 H 173.939 2.04943 6.18742 0
M  V30 1914 N 177.372 -0.689602 1.41712 0
M  V30 1915 C 178.62 -1.4468 1.4111 0
M  V30 1916 C 178.941 -1.94986 0.0232196 0
M  V30 1917 O 178.211 -1.72097 -0.935913 0
M  V30 1918 H 176.791 -0.536847 0.519427 0
M  V30 1919 H 179.453 -0.815825 1.77004 0
M  V30 1920 H 178.549 -2.30706 2.10193 0
M  V30 1921 N 178.85 -1.27639 -0.924453 0
M  V30 1922 C 180.078 -1.16989 -1.70649 0
M  V30 1923 C 180.493 0.272869 -1.86818 0
M  V30 1924 O 179.85 1.18549 -1.38753 0
M  V30 1925 C 179.901 -1.85229 -3.10439 0
M  V30 1926 O 179.622 -3.23868 -2.95028 0
M  V30 1927 C 181.123 -1.80746 -4.04779 0
M  V30 1928 H 178.343 -0.406595 -0.53378 0
M  V30 1929 H 180.887 -1.68569 -1.15778 0
M  V30 1930 H 179.042 -1.37545 -3.6216 0
M  V30 1931 H 179.456 -3.57889 -3.83426 0
M  V30 1932 H 180.93 -2.33101 -5.00368 0
M  V30 1933 H 181.407 -0.777499 -4.32263 0
M  V30 1934 H 182.013 -2.28059 -3.58984 0
M  V30 1935 N 180.328 1.1314 -1.09713 0
M  V30 1936 C 181.739 1.66029 -0.853885 0
M  V30 1937 C 182.09 1.86241 0.617142 0
M  V30 1938 O 181.215 1.5834 1.47503 0
M  V30 1939 C 181.81 3.01599 -1.5435 0
M  V30 1940 C 180.369 3.51467 -1.34714 0
M  V30 1941 C 179.516 2.26648 -1.59769 0
M  V30 1942 H 182.467 0.970226 -1.25588 0
M  V30 1943 H 182.488 3.67709 -0.978267 0
M  V30 1944 H 182 2.86856 -2.6141 0
M  V30 1945 H 180.101 3.71408 -0.297838 0
M  V30 1946 H 180.214 4.314 -2.08401 0
M  V30 1947 H 178.578 2.33385 -1.01998 0
M  V30 1948 H 179.361 2.14467 -2.68065 0
M  V30 1949 N 181.806 0.884767 1.30421 0
M  V30 1950 C 182.736 0.367574 2.30589 0
M  V30 1951 C 183.717 -0.549464 1.60981 0
M  V30 1952 O 184.902 -0.46336 1.88591 0
M  V30 1953 C 182.032 -0.418944 3.44764 0
M  V30 1954 C 180.986 0.406316 4.26067 0
M  V30 1955 C 180.312 -0.506793 5.32293 0
M  V30 1956 C 181.612 1.64832 4.95608 0
M  V30 1957 H 183.306 1.20462 2.74097 0
M  V30 1958 H 180.852 0.580695 1.31772 0
M  V30 1959 H 182.805 -0.791395 4.13902 0
M  V30 1960 H 181.529 -1.28964 3.0006 0
M  V30 1961 H 180.188 0.760903 3.58617 0
M  V30 1962 H 179.836 -1.37519 4.83836 0
M  V30 1963 H 179.536 0.0415828 5.87585 0
M  V30 1964 H 181.06 -0.875764 6.04287 0
M  V30 1965 H 182.474 1.34646 5.57264 0
M  V30 1966 H 180.871 2.13688 5.60765 0
M  V30 1967 H 181.941 2.39284 4.21748 0
M  V30 1968 N 183.284 -1.43765 0.645699 0
M  V30 1969 C 184.512 -2.06253 0.163556 0
M  V30 1970 C 184.927 -1.48352 -1.16778 0
M  V30 1971 O 184.284 -0.611932 -1.71935 0
M  V30 1972 C 184.335 -3.61453 0.0583186 0
M  V30 1973 O 184.056 -4.172 1.33702 0
M  V30 1974 C 185.557 -4.41002 -0.450795 0
M  V30 1975 H 182.777 -0.665413 0.0864077 0
M  V30 1976 H 185.321 -1.84396 0.884222 0
M  V30 1977 H 183.476 -3.82522 -0.612865 0
M  V30 1978 H 183.89 -5.10791 1.19131 0
M  V30 1979 H 185.364 -5.49966 -0.473403 0
M  V30 1980 H 185.841 -4.13488 -1.48068 0
M  V30 1981 H 186.447 -4.24886 0.187637 0
M  V30 1982 N 184.763 -0.387143 -1.52771 0
M  V30 1983 C 185.988 0.198407 -2.06449 0
M  V30 1984 C 186.413 1.39918 -1.25716 0
M  V30 1985 O 185.771 1.79099 -0.281657 0
M  V30 1986 C 185.819 0.548893 -3.56398 0
M  V30 1987 O 184.923 1.64315 -3.78252 0
M  V30 1988 H 184.264 0.0237731 -0.663574 0
M  V30 1989 H 186.794 -0.553989 -1.96957 0
M  V30 1990 H 186.804 0.813812 -3.99801 0
M  V30 1991 H 185.479 -0.329005 -4.14597 0
M  V30 1992 H 184.056 1.37211 -3.46738 0
M  V30 1993 N 186.241 1.57166 -0.116904 0
M  V30 1994 C 187.489 1.94737 0.540533 0
M  V30 1995 C 187.81 1.00096 1.67349 0
M  V30 1996 O 187.08 0.0568854 1.95817 0
M  V30 1997 H 185.66 0.718981 0.202669 0
M  V30 1998 H 188.322 1.94017 -0.185353 0
M  V30 1999 H 187.418 2.97719 0.936483 0
M  V30 2000 N 187.719 -0.156864 1.56817 0
M  V30 2001 C 188.649 -1.19589 2.00551 0
M  V30 2002 C 189.63 -1.4536 0.883426 0
M  V30 2003 O 190.815 -1.56449 1.15054 0
M  V30 2004 C 187.945 -2.53143 2.37773 0
M  V30 2005 C 186.899 -2.41913 3.53075 0
M  V30 2006 C 186.225 -3.80088 3.76081 0
M  V30 2007 C 187.525 -1.91157 4.86062 0
M  V30 2008 H 189.219 -0.832293 2.87599 0
M  V30 2009 H 186.765 -0.398918 1.38364 0
M  V30 2010 H 188.718 -3.26047 2.66967 0
M  V30 2011 H 187.442 -2.91319 1.4765 0
M  V30 2012 H 186.101 -1.71462 3.24031 0
M  V30 2013 H 185.749 -4.15683 2.83225 0
M  V30 2014 H 185.449 -3.73439 4.53671 0
M  V30 2015 H 186.973 -4.54556 4.0769 0
M  V30 2016 H 188.387 -2.53846 5.14038 0
M  V30 2017 H 186.784 -1.95422 5.67389 0
M  V30 2018 H 187.854 -0.866673 4.77092 0
M  V30 2019 N 189.197 -1.51736 -0.425897 0
M  V30 2020 C 190.127 -1.76827 -1.52494 0
M  V30 2021 C 191.108 -0.618524 -1.58456 0
M  V30 2022 O 192.293 -0.862416 -1.74 0
M  V30 2023 C 189.423 -1.90374 -2.90474 0
M  V30 2024 C 188.377 -3.0588 -2.99369 0
M  V30 2025 C 187.703 -3.04625 -4.3944 0
M  V30 2026 C 189.003 -4.45644 -2.72394 0
M  V30 2027 H 190.697 -2.68855 -1.31748 0
M  V30 2028 H 188.243 -1.29372 -0.632362 0
M  V30 2029 H 190.196 -2.0651 -3.6733 0
M  V30 2030 H 188.92 -0.95004 -3.12477 0
M  V30 2031 H 187.579 -2.89467 -2.24954 0
M  V30 2032 H 187.227 -2.0701 -4.58428 0
M  V30 2033 H 186.927 -3.82195 -4.46319 0
M  V30 2034 H 188.451 -3.22869 -5.18255 0
M  V30 2035 H 189.865 -4.62348 -3.38979 0
M  V30 2036 H 188.262 -5.25006 -2.9067 0
M  V30 2037 H 189.332 -4.54893 -1.67929 0
M  V30 2038 N 190.675 0.682077 -1.42076 0
M  V30 2039 C 191.605 1.80796 -1.47767 0
M  V30 2040 C 192.586 1.6677 -0.334954 0
M  V30 2041 O 193.771 1.863 -0.548264 0
M  V30 2042 C 190.901 3.19038 -1.37229 0
M  V30 2043 C 189.855 3.47789 -2.49453 0
M  V30 2044 C 189.181 4.8553 -2.23975 0
M  V30 2045 C 190.481 3.45411 -3.91776 0
M  V30 2046 H 192.175 1.7629 -2.41997 0
M  V30 2047 H 189.721 0.846721 -1.16476 0
M  V30 2048 H 191.674 3.97528 -1.39821 0
M  V30 2049 H 190.398 3.24204 -0.394907 0
M  V30 2050 H 189.057 2.71657 -2.46166 0
M  V30 2051 H 188.705 4.87337 -1.24547 0
M  V30 2052 H 188.405 5.0573 -2.99184 0
M  V30 2053 H 189.929 5.66312 -2.28304 0
M  V30 2054 H 191.343 4.13882 -3.96705 0
M  V30 2055 H 189.74 3.77145 -4.66778 0
M  V30 2056 H 190.81 2.44122 -4.18966 0
M  V30 2057 N 192.153 1.28127 0.917671 0
M  V30 2058 C 193.083 1.14248 2.03641 0
M  V30 2059 C 194.064 0.0412748 1.7005 0
M  V30 2060 O 195.249 0.217566 1.92977 0
M  V30 2061 C 192.379 0.799431 3.37974 0
M  V30 2062 C 191.333 1.85497 3.85713 0
M  V30 2063 C 190.659 1.36565 5.16966 0
M  V30 2064 C 191.959 3.26085 4.08002 0
M  V30 2065 H 193.653 2.07835 2.15511 0
M  V30 2066 H 191.199 1.00064 1.03553 0
M  V30 2067 H 193.152 0.689114 4.15727 0
M  V30 2068 H 191.876 -0.172145 3.26146 0
M  V30 2069 H 190.535 1.95437 3.10161 0
M  V30 2070 H 190.183 0.383253 5.01538 0
M  V30 2071 H 189.883 2.07143 5.49878 0
M  V30 2072 H 191.407 1.26848 5.97279 0
M  V30 2073 H 192.821 3.19089 4.76293 0
M  V30 2074 H 191.218 3.94462 4.52238 0
M  V30 2075 H 192.288 3.70394 3.12948 0
M  V30 2076 N 193.631 -1.12557 1.10312 0
M  V30 2077 C 194.859 -1.87864 0.866873 0
M  V30 2078 C 195.274 -1.79588 -0.582557 0
M  V30 2079 O 194.631 -1.16887 -1.40156 0
M  V30 2080 C 194.682 -3.37125 1.30496 0
M  V30 2081 O 194.403 -3.45201 2.69755 0
M  V30 2082 C 195.904 -4.29373 1.10243 0
M  V30 2083 H 193.124 -0.594452 0.311236 0
M  V30 2084 H 195.668 -1.42429 1.46745 0
M  V30 2085 H 193.823 -3.80109 0.748081 0
M  V30 2086 H 194.237 -4.38056 2.88457 0
M  V30 2087 H 195.711 -5.32394 1.45811 0
M  V30 2088 H 196.188 -4.39181 0.0409492 0
M  V30 2089 H 196.794 -3.92169 1.64571 0
M  V30 2090 N 195.109 -0.891671 -1.2995 0
M  V30 2091 C 196.355 -0.523649 -1.96544 0
M  V30 2092 C 196.71 0.918394 -1.69066 0
M  V30 2093 O 196.003 1.64122 -0.988659 0
M  V30 2094 C 196.197 -0.742868 -3.49594 0
M  V30 2095 C 196.026 -2.20467 -3.9195 0
M  V30 2096 C 194.796 -2.85055 -4.17219 0
M  V30 2097 C 196.994 -3.17912 -4.04273 0
M  V30 2098 N 194.976 -4.21762 -4.46083 0
M  V30 2099 C 196.347 -4.39712 -4.37097 0
M  V30 2100 C 198.402 -3.1361 -3.86721 0
M  V30 2101 C 197.105 -5.5776 -4.54199 0
M  V30 2102 C 199.131 -4.30936 -4.05028 0
M  V30 2103 C 198.493 -5.51504 -4.38204 0
M  V30 2104 H 194.592 -0.241072 -0.743914 0
M  V30 2105 H 197.176 -1.15081 -1.5705 0
M  V30 2106 H 195.347 -0.14515 -3.88129 0
M  V30 2107 H 197.079 -0.341081 -4.0326 0
M  V30 2108 H 193.834 -2.35889 -4.10674 0
M  V30 2109 H 194.258 -4.92382 -4.64638 0
M  V30 2110 H 198.9 -2.21489 -3.60142 0
M  V30 2111 H 196.618 -6.50379 -4.79618 0
M  V30 2112 H 200.204 -4.29085 -3.92909 0
M  V30 2113 H 199.084 -6.40778 -4.52077 0
M  V30 2114 N 196.587 1.43421 -0.653314 0
M  V30 2115 C 197.519 2.29071 0.0769134 0
M  V30 2116 C 198.532 1.42513 0.787017 0
M  V30 2117 O 199.721 1.66449 0.644757 0
M  V30 2118 C 196.821 3.19436 1.13199 0
M  V30 2119 C 195.994 4.34533 0.500006 0
M  V30 2120 C 195.053 5.05771 1.45198 0
M  V30 2121 O 194.079 5.61037 0.960538 0
M  V30 2122 N 195.281 5.0928 2.78594 0
M  V30 2123 H 198.046 2.92382 -0.658235 0
M  V30 2124 H 195.607 1.54112 -0.496104 0
M  V30 2125 H 197.599 3.63958 1.76964 0
M  V30 2126 H 196.169 2.57724 1.7691 0
M  V30 2127 H 195.389 3.92925 -0.316738 0
M  V30 2128 H 196.677 5.08766 0.0588345 0
M  V30 2129 H 196.075 4.65751 3.2108 0
M  V30 2130 H 194.632 5.57519 3.37662 0
M  V30 2131 N 198.065 0.39524 1.52563 0
M  V30 2132 C 199.012 -0.437036 2.26624 0
M  V30 2133 C 199.982 -1.05281 1.28472 0
M  V30 2134 O 201.167 -1.07971 1.57311 0
M  V30 2135 C 198.307 -1.55524 3.08069 0
M  V30 2136 C 197.42 -0.961745 4.21158 0
M  V30 2137 C 196.555 -2.05149 4.89987 0
M  V30 2138 C 195.594 -1.4342 5.95061 0
M  V30 2139 N 194.731 -2.46351 6.57462 0
M  V30 2140 H 199.571 0.200976 2.97322 0
M  V30 2141 H 197.108 0.110944 1.46681 0
M  V30 2142 H 199.066 -2.21437 3.53584 0
M  V30 2143 H 197.696 -2.16348 2.3957 0
M  V30 2144 H 196.748 -0.192048 3.79915 0
M  V30 2145 H 198.06 -0.470701 4.96574 0
M  V30 2146 H 197.214 -2.78819 5.38837 0
M  V30 2147 H 195.953 -2.57615 4.14109 0
M  V30 2148 H 194.958 -0.682774 5.45544 0
M  V30 2149 H 196.183 -0.917416 6.72875 0
M  V30 2150 H 194.129 -2.97975 5.8442 0
M  V30 2151 H 194.046 -2.02019 7.28508 0
M  V30 2152 H 195.314 -3.19633 7.10954 0
M  V30 2153 N 199.544 -1.57102 0.125237 0
M  V30 2154 C 200.474 -2.18659 -0.819174 0
M  V30 2155 C 201.455 -1.12843 -1.27281 0
M  V30 2156 O 202.64 -1.41104 -1.33429 0
M  V30 2157 C 199.77 -2.79096 -2.06695 0
M  V30 2158 C 198.724 -3.90548 -1.75088 0
M  V30 2159 C 198.05 -4.37821 -3.06948 0
M  V30 2160 C 199.35 -5.12356 -1.01435 0
M  V30 2161 H 201.044 -2.9783 -0.306202 0
M  V30 2162 H 198.59 -1.4326 -0.145839 0
M  V30 2163 H 200.543 -3.2082 -2.73226 0
M  V30 2164 H 199.267 -1.97223 -2.60328 0
M  V30 2165 H 197.926 -3.49409 -1.10944 0
M  V30 2166 H 197.574 -3.52799 -3.58527 0
M  V30 2167 H 197.274 -5.12982 -2.86571 0
M  V30 2168 H 198.798 -4.822 -3.74587 0
M  V30 2169 H 200.212 -5.5106 -1.58132 0
M  V30 2170 H 198.609 -5.9314 -0.911319 0
M  V30 2171 H 199.679 -4.849 -0.00218681 0
M  V30 2172 N 201.022 0.148545 -1.56898 0
M  V30 2173 C 201.985 1.16736 -1.97244 0
M  V30 2174 C 202.985 1.35947 -0.858777 0
M  V30 2175 O 204.175 1.32966 -1.12542 0
M  V30 2176 C 201.307 2.52798 -2.28705 0
M  V30 2177 H 202.5 0.821279 -2.88435 0
M  V30 2178 H 200.053 0.391831 -1.51309 0
M  V30 2179 H 200.788 2.92381 -1.403 0
M  V30 2180 H 200.573 2.40216 -3.09901 0
M  V30 2181 H 202.063 3.26179 -2.60762 0
M  V30 2182 N 202.5 1.5196 0.417844 0
M  V30 2183 C 203.911 1.57851 0.997 0
M  V30 2184 C 204.262 0.413714 1.91789 0
M  V30 2185 O 203.387 -0.467057 2.113 0
M  V30 2186 C 203.982 2.86085 1.81496 0
M  V30 2187 C 202.541 2.94483 2.34428 0
M  V30 2188 C 201.688 2.52707 1.14169 0
M  V30 2189 H 204.639 1.57455 0.198392 0
M  V30 2190 H 204.66 2.70947 2.67148 0
M  V30 2191 H 204.172 3.70842 1.14446 0
M  V30 2192 H 202.273 2.142 3.04875 0
M  V30 2193 H 202.386 3.98546 2.65891 0
M  V30 2194 H 200.75 2.06353 1.49301 0
M  V30 2195 H 201.533 3.39828 0.486999 0
M  V30 2196 N 203.978 -0.674533 1.42435 0
M  V30 2197 C 205.227 -1.43034 1.42212 0
M  V30 2198 C 205.54 -1.95555 0.0420788 0
M  V30 2199 O 206.746 -2.71374 -0.0827558 0
M  V30 2200 C 205.202 -2.58748 2.50155 0
M  V30 2201 C 204.81 -2.12925 3.94166 0
M  V30 2202 C 206.554 -3.36257 2.59098 0
M  V30 2203 C 204.461 -3.25723 4.93618 0
M  V30 2204 H 203.391 -0.537345 0.528939 0
M  V30 2205 H 206.042 -0.73024 1.68344 0
M  V30 2206 H 204.424 -3.31128 2.17188 0
M  V30 2207 H 205.598 -1.47697 4.36488 0
M  V30 2208 H 203.913 -1.48354 3.89076 0
M  V30 2209 H 206.51 -4.20264 3.30578 0
M  V30 2210 H 206.853 -3.82866 1.63461 0
M  V30 2211 H 207.386 -2.70947 2.9126 0
M  V30 2212 H 204.125 -2.84105 5.90732 0
M  V30 2213 H 203.645 -3.89732 4.55926 0
M  V30 2214 H 205.324 -3.91186 5.15347 0
M  V30 2215 N 205.456 -1.28612 -0.910864 0
M  V30 2216 C 206.681 -1.1891 -1.69927 0
M  V30 2217 C 207.106 0.248372 -1.86453 0
M  V30 2218 O 206.464 1.17961 -1.37676 0
M  V30 2219 C 206.512 -1.89578 -3.06745 0
M  V30 2220 O 205.616 -1.20521 -3.94396 0
M  V30 2221 H 204.957 -0.412632 -0.520222 0
M  V30 2222 H 207.487 -1.69985 -1.1387 0
M  V30 2223 H 207.497 -1.97597 -3.56958 0
M  V30 2224 H 206.172 -2.94136 -2.94035 0
M  V30 2225 H 204.749 -1.20684 -3.52831 0
M  V30 2226 N 206.934 1.1197 -1.10907 0
M  V30 2227 C 208.183 1.82947 -0.849302 0
M  V30 2228 C 208.496 1.85275 0.627112 0
M  V30 2229 O 209.702 2.52296 1.00295 0
M  V30 2230 C 208.158 3.28529 -1.46959 0
M  V30 2231 C 207.766 3.34546 -2.97965 0
M  V30 2232 C 209.51 4.04443 -1.28942 0
M  V30 2233 C 207.417 4.74491 -3.53004 0
M  V30 2234 H 206.347 0.685477 -0.314065 0
M  V30 2235 H 208.998 1.2604 -1.33365 0
M  V30 2236 H 207.38 3.85333 -0.912917 0
M  V30 2237 H 208.554 2.87654 -3.59989 0
M  V30 2238 H 206.869 2.72108 -3.15192 0
M  V30 2239 H 209.466 5.07787 -1.67502 0
M  V30 2240 H 209.809 4.15656 -0.231456 0
M  V30 2241 H 210.342 3.5401 -1.81443 0
M  V30 2242 H 207.081 4.68474 -4.58489 0
M  V30 2243 H 206.601 5.21816 -2.9575 0
M  V30 2244 H 208.28 5.4344 -3.51115 0
M  V30 2245 N 208.412 0.89855 1.29475 0
M  V30 2246 C 209.345 0.319981 2.25945 0
M  V30 2247 C 210.323 -0.567189 1.52387 0
M  V30 2248 O 211.507 -0.514254 1.8135 0
M  V30 2249 C 208.634 -0.544013 3.34303 0
M  V30 2250 C 207.68 0.275682 4.25608 0
M  V30 2251 S 208.513 1.67272 5.08704 0
M  V30 2252 C 209.669 0.815621 6.20563 0
M  V30 2253 H 209.902 1.13767 2.74671 0
M  V30 2254 H 207.435 0.69882 1.3768 0
M  V30 2255 H 209.393 -1.03673 3.97193 0
M  V30 2256 H 208.054 -1.33593 2.84274 0
M  V30 2257 H 207.247 -0.384263 5.02533 0
M  V30 2258 H 206.849 0.701496 3.67362 0
M  V30 2259 H 209.141 0.0385042 6.77489 0
M  V30 2260 H 210.084 1.55691 6.90772 0
M  V30 2261 H 210.492 0.370516 5.63283 0
M  V30 2262 N 209.89 -1.43072 0.660911 0
M  V30 2263 C 211.12 -2.05769 0.185153 0
M  V30 2264 C 211.528 -1.49668 -1.15742 0
M  V30 2265 O 210.871 -0.625649 -1.72717 0
M  V30 2266 C 210.933 -3.59489 0.0278237 0
M  V30 2267 C 210.597 -4.38212 1.2969 0
M  V30 2268 C 211.594 -4.69772 2.22734 0
M  V30 2269 C 209.279 -4.7809 1.54063 0
M  V30 2270 C 211.273 -5.40129 3.38437 0
M  V30 2271 C 208.96 -5.4819 2.70058 0
M  V30 2272 C 209.958 -5.79132 3.62071 0
M  V30 2273 O 209.646 -6.47798 4.76039 0
M  V30 2274 H 209.378 -0.669873 0.0908086 0
M  V30 2275 H 211.932 -1.84436 0.90402 0
M  V30 2276 H 210.162 -3.79426 -0.746489 0
M  V30 2277 H 211.851 -4.03862 -0.406275 0
M  V30 2278 H 212.617 -4.39476 2.05149 0
M  V30 2279 H 208.496 -4.53408 0.833215 0
M  V30 2280 H 212.04 -5.64198 4.10277 0
M  V30 2281 H 207.937 -5.77902 2.87574 0
M  V30 2282 H 208.705 -6.66283 4.75404 0
M  V30 2283 N 211.368 -0.403325 -1.52352 0
M  V30 2284 C 212.3 0.4603 -2.2453 0
M  V30 2285 C 213.313 1.01505 -1.27282 0
M  V30 2286 O 214.502 0.914982 -1.53266 0
M  V30 2287 C 211.602 1.65208 -2.95905 0
M  V30 2288 C 210.775 1.22224 -4.19976 0
M  V30 2289 C 209.834 2.28028 -4.74226 0
M  V30 2290 O 208.86 1.88857 -5.36956 0
M  V30 2291 N 210.062 3.6012 -4.55295 0
M  V30 2292 H 212.827 -0.158156 -2.99282 0
M  V30 2293 H 210.388 -0.230402 -1.60252 0
M  V30 2294 H 212.38 2.35541 -3.29093 0
M  V30 2295 H 210.95 2.17658 -2.24374 0
M  V30 2296 H 210.17 0.34725 -3.92668 0
M  V30 2297 H 211.458 0.911924 -5.00561 0
M  V30 2298 H 210.856 3.94698 -4.05253 0
M  V30 2299 H 209.413 4.26447 -4.92936 0
M  V30 2300 N 212.846 1.57033 -0.133567 0
M  V30 2301 C 214.095 1.94861 0.520768 0
M  V30 2302 C 214.408 1.02012 1.66892 0
M  V30 2303 O 215.614 1.29365 2.38699 0
M  V30 2304 C 214.07 3.46362 0.977809 0
M  V30 2305 C 213.678 4.47773 -0.142674 0
M  V30 2306 C 215.422 3.93083 1.60269 0
M  V30 2307 C 213.329 5.90468 0.331883 0
M  V30 2308 H 212.259 0.727453 0.198315 0
M  V30 2309 H 214.91 1.82227 -0.215759 0
M  V30 2310 H 213.292 3.54282 1.7692 0
M  V30 2311 H 214.466 4.51536 -0.919317 0
M  V30 2312 H 212.781 4.10891 -0.675124 0
M  V30 2313 H 215.378 4.97121 1.96914 0
M  V30 2314 H 215.721 3.33876 2.48662 0
M  V30 2315 H 216.254 3.88025 0.876453 0
M  V30 2316 H 212.993 6.53463 -0.516341 0
M  V30 2317 H 212.513 5.90094 1.07469 0
M  V30 2318 H 214.192 6.42179 0.788332 0
M  V30 2319 N 214.325 -0.140222 1.56975 0
M  V30 2320 C 215.55 -0.870414 1.88251 0
M  V30 2321 C 215.975 -1.73637 0.723312 0
M  V30 2322 O 215.333 -1.78329 -0.32689 0
M  V30 2323 C 215.381 -1.69737 3.18154 0
M  V30 2324 O 214.485 -2.80229 3.02565 0
M  V30 2325 H 213.826 -0.242025 0.61832 0
M  V30 2326 H 216.356 -0.128999 2.04193 0
M  V30 2327 H 216.366 -2.09099 3.50345 0
M  V30 2328 H 215.041 -1.06152 4.02125 0
M  V30 2329 H 213.618 -2.44224 2.81796 0
M  V30 2330 N 215.803 -1.52179 -0.40978 0
M  V30 2331 C 217.214 -1.58377 -0.988615 0
M  V30 2332 C 217.565 -0.423879 -1.91566 0
M  V30 2333 O 216.69 0.455844 -2.11544 0
M  V30 2334 C 217.285 -2.87044 -1.79976 0
M  V30 2335 C 215.844 -2.95722 -2.32863 0
M  V30 2336 C 214.991 -2.53309 -1.12828 0
M  V30 2337 H 217.942 -1.57558 -0.190039 0
M  V30 2338 H 217.963 -2.7236 -2.65707 0
M  V30 2339 H 217.475 -3.71444 -1.12478 0
M  V30 2340 H 215.576 -2.15814 -3.03735 0
M  V30 2341 H 215.689 -3.99951 -2.63773 0
M  V30 2342 H 214.053 -2.07142 -1.48204 0
M  V30 2343 H 214.836 -3.40082 -0.46897 0
M  V30 2344 N 217.281 0.66697 -1.42791 0
M  V30 2345 C 218.506 1.46004 -1.47301 0
M  V30 2346 C 218.931 1.87894 -0.0880317 0
M  V30 2347 O 218.289 1.56502 0.915253 0
M  V30 2348 C 218.337 2.68031 -2.41229 0
M  V30 2349 O 217.441 3.6659 -1.88906 0
M  V30 2350 H 216.782 0.43832 -0.49877 0
M  V30 2351 H 219.312 0.817391 -1.87563 0
M  V30 2352 H 219.322 3.1601 -2.58073 0
M  V30 2353 H 217.997 2.36883 -3.41847 0
M  V30 2354 H 216.574 3.25661 -1.81656 0
M  V30 2355 N 218.759 1.29093 0.90403 0
M  V30 2356 C 219.689 1.16401 2.02418 0
M  V30 2357 C 220.67 0.0593085 1.69997 0
M  V30 2358 O 221.855 0.238021 1.92736 0
M  V30 2359 C 218.985 0.835233 3.37107 0
M  V30 2360 C 217.939 1.89578 3.83724 0
M  V30 2361 C 217.265 1.42041 5.15489 0
M  V30 2362 C 218.565 3.30394 4.04521 0
M  V30 2363 H 220.259 2.10109 2.13295 0
M  V30 2364 H 217.805 1.01157 1.02486 0
M  V30 2365 H 219.758 0.733169 4.14973 0
M  V30 2366 H 218.482 -0.137543 3.2631 0
M  V30 2367 H 217.141 1.98715 3.08071 0
M  V30 2368 H 216.789 0.436426 5.01103 0
M  V30 2369 H 216.489 2.12964 5.4765 0
M  V30 2370 H 218.013 1.33176 5.959 0
M  V30 2371 H 219.427 3.24123 4.72882 0
M  V30 2372 H 217.824 3.99237 4.48029 0
M  V30 2373 H 218.894 3.73692 3.09002 0
M  V30 2374 N 220.237 -1.11381 1.11499 0
M  V30 2375 C 221.185 -2.19522 0.768956 0
M  V30 2376 C 222.179 -1.67693 -0.239857 0
M  V30 2377 O 223.385 -1.79727 -0.0990755 0
M  V30 2378 H 219.76 -0.715711 0.230786 0
M  V30 2379 H 221.731 -2.45954 1.68964 0
M  V30 2380 C 220.48 -3.46945 0.229073 0
M  V30 2381 H 219.803 -3.8718 0.996596 0
M  V30 2382 H 221.243 -4.23993 0.0251441 0
M  V30 2383 C 219.702 -3.2042 -1.04079 0
M  V30 2384 O 220.232 -3.41178 -2.12038 0
M  V30 2385 N 218.438 -2.74151 -0.963823 0
M  V30 2386 H 217.985 -2.57459 -0.0851722 0
M  V30 2387 H 217.943 -2.56781 -1.81414 0
M  V30 2388 N 221.715 -0.905404 -1.28997 0
M  V30 2389 C 222.961 -0.535039 -1.95615 0
M  V30 2390 C 223.294 0.917404 -1.71165 0
M  V30 2391 O 222.569 1.65123 -1.02785 0
M  V30 2392 C 222.852 -0.834918 -3.50287 0
M  V30 2393 C 222.705 -2.33948 -3.84172 0
M  V30 2394 C 224.024 -0.325318 -4.38896 0
M  V30 2395 H 221.143 -0.195861 -0.710498 0
M  V30 2396 H 223.785 -1.13313 -1.52513 0
M  V30 2397 H 221.935 -0.325904 -3.87131 0
M  V30 2398 H 223.607 -2.91847 -3.57243 0
M  V30 2399 H 221.85 -2.79789 -3.31513 0
M  V30 2400 H 222.521 -2.49987 -4.92149 0
M  V30 2401 H 224.997 -0.761256 -4.09077 0
M  V30 2402 H 223.873 -0.564295 -5.45992 0
M  V30 2403 H 224.134 0.774144 -4.35269 0
M  V30 2404 N 223.193 1.4272 -0.668489 0
M  V30 2405 C 224.418 2.06484 -0.194758 0
M  V30 2406 C 224.843 1.49862 1.13679 0
M  V30 2407 O 224.201 0.614582 1.70565 0
M  V30 2408 C 224.249 3.60353 -0.133546 0
M  V30 2409 O 223.353 4.02464 0.899806 0
M  V30 2410 H 222.694 0.656137 -0.10188 0
M  V30 2411 H 225.224 1.82964 -0.915722 0
M  V30 2412 H 225.234 4.07976 0.0447041 0
M  V30 2413 H 223.909 4.00938 -1.1055 0
M  V30 2414 H 222.486 3.66402 0.693109 0
M  V30 2415 N 224.671 0.411399 1.52136 0
M  V30 2416 C 225.601 -0.404015 2.29978 0
M  V30 2417 C 226.582 -1.04412 1.34284 0
M  V30 2418 O 227.767 -1.0527 1.63192 0
M  V30 2419 C 224.897 -1.5197 3.12286 0
M  V30 2420 C 223.851 -1.00448 4.16046 0
M  V30 2421 C 223.177 -2.21393 4.86712 0
M  V30 2422 C 224.477 -0.0569336 5.22269 0
M  V30 2423 H 226.171 0.245529 2.98392 0
M  V30 2424 H 223.717 0.119525 1.43503 0
M  V30 2425 H 225.67 -2.09715 3.6551 0
M  V30 2426 H 224.394 -2.19716 2.41646 0
M  V30 2427 H 223.053 -0.449421 3.63835 0
M  V30 2428 H 222.701 -2.87699 4.12599 0
M  V30 2429 H 222.401 -1.87571 5.56858 0
M  V30 2430 H 223.925 -2.7974 5.4275 0
M  V30 2431 H 225.339 -0.54325 5.7072 0
M  V30 2432 H 223.736 0.192594 5.99791 0
M  V30 2433 H 224.806 0.887663 4.76706 0
M  V30 2434 N 226.149 -1.5696 0.141893 0
M  V30 2435 C 227.079 -2.19516 -0.795936 0
M  V30 2436 C 228.06 -1.14187 -1.26077 0
M  V30 2437 O 229.245 -1.42511 -1.31925 0
M  V30 2438 C 226.375 -2.81272 -2.03723 0
M  V30 2439 C 225.329 -3.92384 -1.70936 0
M  V30 2440 C 224.655 -4.41052 -3.02287 0
M  V30 2441 C 225.955 -5.13403 -0.959954 0
M  V30 2442 H 227.649 -2.98138 -0.274596 0
M  V30 2443 H 225.195 -1.43406 -0.130636 0
M  V30 2444 H 227.148 -3.237 -2.69808 0
M  V30 2445 H 225.872 -1.99973 -2.58221 0
M  V30 2446 H 224.531 -3.50566 -1.07232 0
M  V30 2447 H 224.179 -3.56582 -3.54765 0
M  V30 2448 H 223.879 -5.15993 -2.81114 0
M  V30 2449 H 225.403 -4.86146 -3.69451 0
M  V30 2450 H 226.817 -5.52706 -1.52279 0
M  V30 2451 H 225.214 -5.94073 -0.848357 0
M  V30 2452 H 226.284 -4.84875 0.0492434 0
M  V30 2453 N 227.627 0.131896 -1.57047 0
M  V30 2454 C 228.557 1.16384 -2.02428 0
M  V30 2455 C 229.538 1.43936 -0.90644 0
M  V30 2456 O 230.723 1.54599 -1.17528 0
M  V30 2457 C 227.853 2.49328 -2.4177 0
M  V30 2458 C 226.807 2.36266 -3.56879 0
M  V30 2459 C 226.133 3.74057 -3.8208 0
M  V30 2460 C 227.433 1.834 -4.89042 0
M  V30 2461 H 229.127 0.786433 -2.88887 0
M  V30 2462 H 226.673 0.376855 -1.38981 0
M  V30 2463 H 228.626 3.21759 -2.7212 0
M  V30 2464 H 227.35 2.88934 -1.52266 0
M  V30 2465 H 226.009 1.66286 -3.26718 0
M  V30 2466 H 225.657 4.11125 -2.89803 0
M  V30 2467 H 225.357 3.66174 -4.59554 0
M  V30 2468 H 226.881 4.48012 -4.1487 0
M  V30 2469 H 228.295 2.45636 -5.18011 0
M  V30 2470 H 226.692 1.8637 -5.70426 0
M  V30 2471 H 227.762 0.790662 -4.7841 0
M  V30 2472 N 229.106 1.52395 0.401703 0
M  V30 2473 C 230.334 1.70676 1.16949 0
M  V30 2474 C 230.749 0.419503 1.8408 0
M  V30 2475 O 230.106 -0.605061 1.72178 0
M  V30 2476 C 230.157 2.84753 2.22706 0
M  V30 2477 O 229.878 4.08495 1.58314 0
M  V30 2478 C 231.379 3.14608 3.12309 0
M  V30 2479 H 228.599 0.571787 0.351142 0
M  V30 2480 H 231.143 1.98987 0.471652 0
M  V30 2481 H 229.298 2.58941 2.88147 0
M  V30 2482 H 229.712 4.72117 2.28485 0
M  V30 2483 H 231.186 3.97923 3.82572 0
M  V30 2484 H 231.663 2.28464 3.75101 0
M  V30 2485 H 232.269 3.42212 2.52529 0
M  V30 2486 N 230.584 -0.659388 1.43143 0
M  V30 2487 C 231.514 -1.78422 1.50625 0
M  V30 2488 C 232.495 -1.66216 0.361443 0
M  V30 2489 O 233.68 -1.85404 0.577834 0
M  V30 2490 C 230.81 -3.16815 1.42287 0
M  V30 2491 C 229.764 -3.43777 2.54954 0
M  V30 2492 C 229.09 -4.81905 2.31671 0
M  V30 2493 C 230.39 -3.39134 3.97222 0
M  V30 2494 H 232.084 -1.72417 2.44771 0
M  V30 2495 H 229.63 -0.828084 1.17808 0
M  V30 2496 H 231.583 -3.95253 1.46127 0
M  V30 2497 H 230.307 -3.23534 0.446435 0
M  V30 2498 H 228.966 -2.67707 2.50457 0
M  V30 2499 H 228.614 -4.85294 1.32284 0
M  V30 2500 H 228.314 -5.00906 3.07192 0
M  V30 2501 H 229.838 -5.62609 2.37284 0
M  V30 2502 H 231.252 -4.07518 4.03239 0
M  V30 2503 H 229.649 -3.69671 4.72719 0
M  V30 2504 H 230.719 -2.37426 4.22797 0
M  V30 2505 N 232.062 -1.29571 -0.897171 0
M  V30 2506 C 233.287 -1.20705 -1.68656 0
M  V30 2507 C 233.712 0.228582 -1.86706 0
M  V30 2508 O 233.07 1.16494 -1.3892 0
M  V30 2509 C 233.118 -1.9282 -3.04717 0
M  V30 2510 O 232.222 -1.24697 -3.93096 0
M  V30 2511 H 231.563 -0.418126 -0.515816 0
M  V30 2512 H 234.093 -1.71183 -1.12061 0
M  V30 2513 H 234.103 -2.01372 -3.54843 0
M  V30 2514 H 232.778 -2.97239 -2.90899 0
M  V30 2515 H 231.355 -1.2442 -3.51531 0
M  V30 2516 N 233.54 1.10788 -1.12088 0
M  V30 2517 C 234.789 1.82036 -0.868659 0
M  V30 2518 C 235.102 1.85929 0.607426 0
M  V30 2519 O 236.308 2.53346 0.97613 0
M  V30 2520 C 234.764 3.26951 -1.50435 0
M  V30 2521 C 234.372 3.31367 -3.01496 0
M  V30 2522 C 236.116 4.03053 -1.33225 0
M  V30 2523 C 234.023 4.7072 -3.58017 0
M  V30 2524 H 232.953 0.682108 -0.321318 0
M  V30 2525 H 235.604 1.24618 -1.34694 0
M  V30 2526 H 233.986 3.84343 -0.953735 0
M  V30 2527 H 235.16 2.83819 -3.6302 0
M  V30 2528 H 233.475 2.6875 -3.18061 0
M  V30 2529 H 236.072 5.05981 -1.72878 0
M  V30 2530 H 236.415 4.15387 -0.275529 0
M  V30 2531 H 236.948 3.52066 -1.85188 0
M  V30 2532 H 233.687 4.63585 -4.63432 0
M  V30 2533 H 233.207 5.1865 -3.01268 0
M  V30 2534 H 234.886 5.39685 -3.56859 0
M  V30 2535 N 235.018 0.912232 1.28515 0
M  V30 2536 C 235.948 0.416403 2.29757 0
M  V30 2537 C 236.929 -0.515194 1.6211 0
M  V30 2538 O 238.114 -0.423253 1.89532 0
M  V30 2539 C 235.244 -0.34572 3.45575 0
M  V30 2540 C 234.198 0.496599 4.25109 0
M  V30 2541 C 233.524 -0.393771 5.33248 0
M  V30 2542 C 234.824 1.75307 4.92001 0
M  V30 2543 H 236.518 1.26249 2.7148 0
M  V30 2544 H 234.064 0.608515 1.30511 0
M  V30 2545 H 236.017 -0.703422 4.15488 0
M  V30 2546 H 234.741 -1.2257 3.02728 0
M  V30 2547 H 233.4 0.8368 3.56922 0
M  V30 2548 H 233.048 -1.27225 4.86644 0
M  V30 2549 H 232.748 0.166209 5.87365 0
M  V30 2550 H 234.272 -0.747389 6.06009 0
M  V30 2551 H 235.686 1.46437 5.54283 0
M  V30 2552 H 234.083 2.25534 5.56106 0
M  V30 2553 H 235.153 2.48176 4.16577 0
M  V30 2554 N 236.496 -1.42363 0.676048 0
M  V30 2555 C 237.721 -2.06377 0.205705 0
M  V30 2556 C 238.146 -1.50463 -1.12883 0
M  V30 2557 O 237.504 -0.623619 -1.70237 0
M  V30 2558 C 237.552 -3.60277 0.152655 0
M  V30 2559 O 236.656 -4.02935 -0.87845 0
M  V30 2560 H 235.997 -0.655588 0.105359 0
M  V30 2561 H 238.527 -1.82475 0.925412 0
M  V30 2562 H 238.537 -4.07993 -0.0230675 0
M  V30 2563 H 237.212 -4.00346 1.12675 0
M  V30 2564 H 235.789 -3.66764 -0.673668 0
M  V30 2565 N 237.974 -0.419461 -1.51915 0
M  V30 2566 C 239.223 0.154346 -2.01109 0
M  V30 2567 C 239.536 1.45338 -1.30905 0
M  V30 2568 O 240.742 2.10906 -1.7097 0
M  V30 2569 C 239.198 0.325615 -3.58424 0
M  V30 2570 C 238.806 -0.961934 -4.37551 0
M  V30 2571 C 240.55 0.854155 -4.15818 0
M  V30 2572 C 238.457 -0.757287 -5.86531 0
M  V30 2573 H 237.387 0.0614563 -0.751491 0
M  V30 2574 H 240.038 -0.54649 -1.75173 0
M  V30 2575 H 238.42 1.08903 -3.80731 0
M  V30 2576 H 239.594 -1.7323 -4.26999 0
M  V30 2577 H 237.909 -1.41766 -3.91524 0
M  V30 2578 H 240.506 1.02346 -5.24814 0
M  V30 2579 H 240.849 1.83172 -3.73837 0
M  V30 2580 H 241.382 0.149528 -3.97519 0
M  V30 2581 H 238.121 -1.70671 -6.32892 0
M  V30 2582 H 237.641 -0.0264061 -5.99794 0
M  V30 2583 H 239.32 -0.403482 -6.45741 0
M  V30 2584 N 239.452 1.56882 -0.150215 0
M  V30 2585 C 240.385 2.12712 0.826358 0
M  V30 2586 C 241.363 1.05154 1.24022 0
M  V30 2587 O 242.547 1.33004 1.33575 0
M  V30 2588 C 239.674 2.64945 2.11002 0
M  V30 2589 C 238.72 3.8468 1.84183 0
M  V30 2590 S 239.553 5.25502 1.02995 0
M  V30 2591 C 240.709 5.81125 2.32474 0
M  V30 2592 H 240.942 2.95214 0.351598 0
M  V30 2593 H 238.475 1.54267 0.0641211 0
M  V30 2594 H 240.433 2.95689 2.84742 0
M  V30 2595 H 239.094 1.82568 2.55593 0
M  V30 2596 H 238.287 4.19482 2.79375 0
M  V30 2597 H 237.889 3.54714 1.1855 0
M  V30 2598 H 240.181 5.92753 3.281 0
M  V30 2599 H 241.124 6.78625 2.02171 0
M  V30 2600 H 241.532 5.09392 2.43269 0
M  V30 2601 N 240.93 -0.123565 1.57115 0
M  V30 2602 C 241.893 -1.13583 1.99076 0
M  V30 2603 C 242.893 -1.34564 0.880296 0
M  V30 2604 O 244.083 -1.31158 1.14644 0
M  V30 2605 C 241.215 -2.49128 2.32698 0
M  V30 2606 H 242.408 -0.775287 2.89706 0
M  V30 2607 H 239.961 -0.36771 1.51913 0
M  V30 2608 H 240.696 -2.90111 1.44934 0
M  V30 2609 H 240.481 -2.35255 3.13684 0
M  V30 2610 H 241.971 -3.2199 2.65918 0
M  V30 2611 N 242.408 -1.52605 -0.393616 0
M  V30 2612 C 243.656 -1.67093 -1.13685 0
M  V30 2613 C 243.977 -0.411011 -1.90619 0
M  V30 2614 O 243.247 0.574491 -1.87287 0
M  V30 2615 H 241.827 -0.615923 -0.422668 0
M  V30 2616 H 244.489 -1.89704 -0.447039 0
M  V30 2617 H 243.585 -2.51922 -1.84232 0
M  V30 2618 N 243.887 0.651787 -1.4349 0
M  V30 2619 C 245.112 1.44434 -1.48841 0
M  V30 2620 C 245.537 1.8779 -0.107955 0
M  V30 2621 O 244.895 1.57464 0.898602 0
M  V30 2622 C 244.943 2.65458 -2.44059 0
M  V30 2623 O 244.047 3.64566 -1.92784 0
M  V30 2624 H 243.388 0.433005 -0.503391 0
M  V30 2625 H 245.918 0.797451 -1.88419 0
M  V30 2626 H 245.928 3.13255 -2.6141 0
M  V30 2627 H 244.603 2.33244 -3.4434 0
M  V30 2628 H 243.18 3.23716 -1.851 0
M  V30 2629 N 245.365 1.30045 0.890287 0
M  V30 2630 C 246.611 1.19747 1.64415 0
M  V30 2631 C 246.966 -0.246591 1.90813 0
M  V30 2632 O 246.259 -1.174 1.51419 0
M  V30 2633 C 246.453 1.95409 2.99249 0
M  V30 2634 C 246.282 3.47025 2.86013 0
M  V30 2635 C 245.052 4.1638 2.86279 0
M  V30 2636 C 247.25 4.42353 2.62351 0
M  V30 2637 N 245.232 5.54293 2.63879 0
M  V30 2638 C 246.603 5.67792 2.49022 0
M  V30 2639 C 248.658 4.32009 2.47533 0
M  V30 2640 C 247.361 6.8406 2.22383 0
M  V30 2641 C 249.387 5.48038 2.22279 0
M  V30 2642 C 248.749 6.72455 2.09722 0
M  V30 2643 H 244.848 0.493223 0.60684 0
M  V30 2644 H 247.432 1.6399 1.04954 0
M  V30 2645 H 245.603 1.53565 3.56752 0
M  V30 2646 H 247.335 1.77298 3.63796 0
M  V30 2647 H 244.09 3.68164 2.97913 0
M  V30 2648 H 244.514 6.26852 2.55706 0
M  V30 2649 H 249.156 3.36503 2.55979 0
M  V30 2650 H 246.874 7.79612 2.12675 0
M  V30 2651 H 250.46 5.41939 2.11643 0
M  V30 2652 H 249.34 7.60722 1.90453 0
M  V30 2653 N 246.843 -1.10192 1.12674 0
M  V30 2654 C 248.091 -1.81845 0.881861 0
M  V30 2655 C 248.412 -1.85737 -0.593867 0
M  V30 2656 O 247.682 -1.33724 -1.4316 0
M  V30 2657 H 246.262 -0.673432 0.323261 0
M  V30 2658 H 248.924 -1.33316 1.42172 0
M  V30 2659 H 248.02 -2.85288 1.2656 0
M  V30 2660 N 248.321 -0.919034 -1.28029 0
M  V30 2661 C 249.569 -0.553838 -1.94363 0
M  V30 2662 C 249.89 0.906357 -1.72656 0
M  V30 2663 O 249.16 1.64143 -1.0693 0
M  V30 2664 H 247.74 -0.201834 -0.719216 0
M  V30 2665 H 250.402 -1.16954 -1.55909 0
M  V30 2666 H 249.498 -0.752758 -3.02886 0
M  V30 2667 N 249.799 1.42003 -0.683588 0
M  V30 2668 C 250.729 2.33487 -0.024866 0
M  V30 2669 C 251.71 1.51163 0.779975 0
M  V30 2670 O 252.895 1.79739 0.735362 0
M  V30 2671 C 250.025 3.3487 0.920836 0
M  V30 2672 C 248.979 4.27414 0.223958 0
M  V30 2673 C 248.305 5.19074 1.2832 0
M  V30 2674 C 249.605 5.14445 -0.90242 0
M  V30 2675 H 251.299 2.88819 -0.788921 0
M  V30 2676 H 248.845 1.38873 -0.38083 0
M  V30 2677 H 250.798 3.97787 1.39081 0
M  V30 2678 H 249.522 2.77861 1.71642 0
M  V30 2679 H 248.181 3.65904 -0.225864 0
M  V30 2680 H 247.829 4.58387 2.071 0
M  V30 2681 H 247.529 5.81822 0.821995 0
M  V30 2682 H 249.053 5.84867 1.75392 0
M  V30 2683 H 250.467 5.70998 -0.513272 0
M  V30 2684 H 248.864 5.86072 -1.28997 0
M  V30 2685 H 249.934 4.52322 -1.74737 0
M  V30 2686 N 251.277 0.427512 1.51691 0
M  V30 2687 C 252.225 -0.403359 2.29076 0
M  V30 2688 C 253.219 -1.02962 1.34518 0
M  V30 2689 O 254.425 -0.965715 1.51901 0
M  V30 2690 H 250.8 -0.148879 0.737115 0
M  V30 2691 H 252.771 0.270295 2.97173 0
M  V30 2692 C 251.52 -1.49763 3.13794 0
M  V30 2693 H 250.843 -1.02508 3.86435 0
M  V30 2694 H 252.283 -2.05244 3.71014 0
M  V30 2695 C 250.742 -2.47536 2.28533 0
M  V30 2696 O 251.272 -3.51848 1.93819 0
M  V30 2697 N 249.478 -2.18187 1.91945 0
M  V30 2698 H 249.025 -1.33389 2.20375 0
M  V30 2699 H 248.983 -2.83848 1.35195 0
M  V30 2700 N 252.755 -1.56801 0.158532 0
M  V30 2701 C 253.687 -2.14488 -0.807923 0
M  V30 2702 C 254.7 -1.09721 -1.20271 0
M  V30 2703 O 255.889 -1.36956 -1.14478 0
M  V30 2704 C 252.989 -2.66217 -2.09718 0
M  V30 2705 C 252.162 -3.95507 -1.86796 0
M  V30 2706 C 251.221 -4.3243 -2.99818 0
M  V30 2707 O 250.247 -5.00543 -2.71008 0
M  V30 2708 N 251.449 -3.92947 -4.27285 0
M  V30 2709 H 254.214 -2.98042 -0.314816 0
M  V30 2710 H 251.775 -1.61881 -0.0246692 0
M  V30 2711 H 253.767 -2.87924 -2.84398 0
M  V30 2712 H 252.337 -1.87324 -2.50257 0
M  V30 2713 H 251.557 -3.82309 -0.96089 0
M  V30 2714 H 252.845 -4.79972 -1.68833 0
M  V30 2715 H 252.243 -3.38087 -4.53557 0
M  V30 2716 H 250.8 -4.19681 -4.9871 0
M  V30 2717 N 254.233 0.115231 -1.57178 0
M  V30 2718 C 255.461 0.836437 -1.89239 0
M  V30 2719 C 255.876 1.73256 -0.750175 0
M  V30 2720 O 255.233 1.80357 0.278832 0
M  V30 2721 C 255.284 1.66671 -3.20785 0
M  V30 2722 O 255.005 0.806652 -4.3061 0
M  V30 2723 C 256.506 2.49274 -3.66575 0
M  V30 2724 H 253.726 0.240253 -0.626514 0
M  V30 2725 H 256.27 0.0984932 -2.04263 0
M  V30 2726 H 254.425 2.35737 -3.0742 0
M  V30 2727 H 254.839 1.37969 -5.06028 0
M  V30 2728 H 256.313 3.03055 -4.6137 0
M  V30 2729 H 256.79 3.26807 -2.93417 0
M  V30 2730 H 257.396 1.85443 -3.82741 0
M  V30 2731 N 255.711 1.52812 0.385517 0
M  V30 2732 C 256.643 1.74096 1.49074 0
M  V30 2733 C 257.656 0.621462 1.50472 0
M  V30 2734 O 258.845 0.897245 1.54311 0
M  V30 2735 C 255.945 1.78774 2.87911 0
M  V30 2736 C 255.118 3.08134 3.10439 0
M  V30 2737 C 254.177 3.04313 4.29278 0
M  V30 2738 O 253.203 3.78168 4.25415 0
M  V30 2739 N 254.405 2.23741 5.35649 0
M  V30 2740 H 257.17 2.69455 1.31202 0
M  V30 2741 H 254.731 1.51343 0.575065 0
M  V30 2742 H 256.723 1.73721 3.65518 0
M  V30 2743 H 255.293 0.907869 2.99126 0
M  V30 2744 H 254.513 3.26649 2.20667 0
M  V30 2745 H 255.801 3.93662 3.22347 0
M  V30 2746 H 255.199 1.63211 5.41645 0
M  V30 2747 H 253.756 2.24524 6.11909 0
M  V30 2748 N 257.189 -0.644168 1.43834 0
M  V30 2749 C 258.119 -1.76814 1.52509 0
M  V30 2750 C 259.1 -1.65823 0.379052 0
M  V30 2751 O 260.285 -1.84781 0.597466 0
M  V30 2752 C 257.415 -3.15288 1.4564 0
M  V30 2753 C 256.369 -3.41053 2.58586 0
M  V30 2754 C 255.695 -4.79421 2.36769 0
M  V30 2755 C 256.995 -3.34902 4.00797 0
M  V30 2756 H 258.689 -1.69812 2.46586 0
M  V30 2757 H 256.235 -0.815542 1.1868 0
M  V30 2758 H 258.188 -3.93681 1.50311 0
M  V30 2759 H 256.912 -3.23043 0.480725 0
M  V30 2760 H 255.571 -2.65035 2.53282 0
M  V30 2761 H 255.219 -4.83863 1.37424 0
M  V30 2762 H 254.919 -4.9762 3.12487 0
M  V30 2763 H 256.443 -5.6006 2.43238 0
M  V30 2764 H 257.857 -4.03218 4.07539 0
M  V30 2765 H 256.254 -3.64637 4.76613 0
M  V30 2766 H 257.324 -2.32928 4.25291 0
M  V30 2767 N 258.668 -1.30515 -0.883378 0
M  V30 2768 C 260.084 -1.08881 -1.16692 0
M  V30 2769 C 260.284 0.149409 -2.00945 0
M  V30 2770 O 259.34 0.84257 -2.38027 0
M  V30 2771 C 260.653 -2.35319 -1.87204 0
M  V30 2772 C 262.201 -2.40799 -1.99962 0
M  V30 2773 C 262.676 -3.67083 -2.73887 0
M  V30 2774 N 264.167 -3.679 -2.81432 0
M  V30 2775 C 264.902 -4.62303 -3.3921 0
M  V30 2776 N 264.398 -5.67052 -3.98025 0
M  V30 2777 N 266.191 -4.49845 -3.3704 0
M  V30 2778 H 258.342 -2.09951 -0.321633 0
M  V30 2779 H 260.605 -0.92556 -0.205043 0
M  V30 2780 H 260.311 -3.25689 -1.3274 0
M  V30 2781 H 260.185 -2.44089 -2.87577 0
M  V30 2782 H 262.572 -1.50907 -2.53597 0
M  V30 2783 H 262.653 -2.36003 -0.98673 0
M  V30 2784 H 262.297 -4.57334 -2.20925 0
M  V30 2785 H 262.227 -3.69141 -3.75556 0
M  V30 2786 H 264.718 -2.92171 -2.39676 0
M  V30 2787 H 265.031 -6.35184 -4.40183 0
M  V30 2788 H 263.376 -5.70842 -3.96439 0
M  V30 2789 H 266.567 -3.67194 -2.90321 0
M  V30 2790 H 266.74 -5.23597 -3.81772 0
M  V30 2791 N 260.146 1.09593 -1.13257 0
M  V30 2792 C 261.093 2.1618 -0.808381 0
M  V30 2793 C 262.063 1.64517 0.228754 0
M  V30 2794 O 263.248 1.9053 0.101381 0
M  V30 2795 C 260.388 3.43973 -0.278675 0
M  V30 2796 C 259.501 4.09545 -1.37466 0
M  V30 2797 C 258.636 5.25088 -0.803479 0
M  V30 2798 C 257.675 5.82579 -1.87799 0
M  V30 2799 N 256.812 6.89486 -1.32488 0
M  V30 2800 H 261.652 2.43254 -1.72138 0
M  V30 2801 H 259.189 1.19392 -0.859294 0
M  V30 2802 H 261.147 4.17174 0.0465583 0
M  V30 2803 H 259.777 3.17223 0.597459 0
M  V30 2804 H 258.829 3.34226 -1.81652 0
M  V30 2805 H 260.141 4.48307 -2.18684 0
M  V30 2806 H 259.295 6.05178 -0.429427 0
M  V30 2807 H 258.034 4.87684 0.0397956 0
M  V30 2808 H 257.039 5.01152 -2.26113 0
M  V30 2809 H 258.264 6.22045 -2.72463 0
M  V30 2810 H 256.21 6.54064 -0.503575 0
M  V30 2811 H 256.127 7.27007 -2.07355 0
M  V30 2812 H 257.395 7.73336 -0.978336 0
M  V30 2813 N 261.624 0.925811 1.2754 0
M  V30 2814 C 262.873 0.561084 1.93739 0
M  V30 2815 C 263.186 -0.901685 1.73577 0
M  V30 2816 O 264.392 -1.37511 2.34101 0
M  V30 2817 C 262.848 0.952668 3.47062 0
M  V30 2818 C 262.456 2.43599 3.75983 0
M  V30 2819 C 264.2 0.659103 4.19352 0
M  V30 2820 C 262.107 2.76707 5.22673 0
M  V30 2821 H 261.037 0.206122 0.725279 0
M  V30 2822 H 263.688 1.12637 1.44863 0
M  V30 2823 H 262.07 0.316053 3.94737 0
M  V30 2824 H 263.244 3.12035 3.39073 0
M  V30 2825 H 261.559 2.70125 3.16893 0
M  V30 2826 H 264.156 0.882985 5.27359 0
M  V30 2827 H 264.499 -0.403607 4.14339 0
M  V30 2828 H 265.032 1.25473 3.77494 0
M  V30 2829 H 261.771 3.8188 5.32774 0
M  V30 2830 H 261.291 2.12919 5.60737 0
M  V30 2831 H 262.97 2.6435 5.90532 0
M  V30 2832 N 263.102 -1.41638 0.69111 0
M  V30 2833 C 264.032 -2.3347 0.037248 0
M  V30 2834 C 265.013 -1.51575 -0.771947 0
M  V30 2835 O 266.198 -1.80126 -0.72582 0
M  V30 2836 C 263.328 -3.35354 -0.903064 0
M  V30 2837 C 262.282 -4.27526 -0.201288 0
M  V30 2838 C 261.608 -5.19747 -1.25565 0
M  V30 2839 C 262.908 -5.13959 0.929689 0
M  V30 2840 H 264.602 -2.88397 0.804227 0
M  V30 2841 H 262.148 -1.38669 0.388189 0
M  V30 2842 H 264.101 -3.98519 -1.36969 0
M  V30 2843 H 262.825 -2.78767 -1.70166 0
M  V30 2844 H 261.484 -3.65779 0.245265 0
M  V30 2845 H 261.132 -4.59479 -2.04666 0
M  V30 2846 H 260.832 -5.8225 -0.791128 0
M  V30 2847 H 262.356 -5.85789 -1.72288 0
M  V30 2848 H 263.77 -5.70718 0.543546 0
M  V30 2849 H 262.167 -5.85379 1.32103 0
M  V30 2850 H 263.237 -4.51389 1.77133 0
M  V30 2851 N 264.58 -0.43555 -1.51462 0
M  V30 2852 C 265.543 0.365137 -2.26273 0
M  V30 2853 C 266.543 0.951227 -1.29647 0
M  V30 2854 O 267.733 0.825958 -1.53374 0
M  V30 2855 C 264.865 1.51645 -3.05314 0
M  V30 2856 H 266.058 -0.290474 -2.9849 0
M  V30 2857 H 263.611 -0.188676 -1.55157 0
M  V30 2858 H 264.346 2.20816 -2.3751 0
M  V30 2859 H 264.131 1.10238 -3.76284 0
M  V30 2860 H 265.621 2.08218 -3.61987 0
M  V30 2861 N 266.058 1.56714 -0.166846 0
M  V30 2862 C 267.288 2.00828 0.48494 0
M  V30 2863 C 267.696 1.04612 1.57648 0
M  V30 2864 O 267.039 0.0383201 1.8366 0
M  V30 2865 C 267.101 3.4137 1.12723 0
M  V30 2866 C 266.765 4.56654 0.177886 0
M  V30 2867 C 267.762 5.16402 -0.60207 0
M  V30 2868 C 265.447 5.02244 0.0750139 0
M  V30 2869 C 267.441 6.20167 -1.47215 0
M  V30 2870 C 265.128 6.05859 -0.798649 0
M  V30 2871 C 266.126 6.64691 -1.57082 0
M  V30 2872 O 265.814 7.66297 -2.42989 0
M  V30 2873 H 265.546 0.663587 0.128953 0
M  V30 2874 H 268.1 2.03692 -0.264365 0
M  V30 2875 H 266.33 3.35406 1.92457 0
M  V30 2876 H 268.019 3.69466 1.68076 0
M  V30 2877 H 268.785 4.82065 -0.53274 0
M  V30 2878 H 264.664 4.56167 0.665812 0
M  V30 2879 H 268.208 6.66016 -2.07531 0
M  V30 2880 H 264.105 6.39621 -0.869199 0
M  V30 2881 H 264.873 7.83601 -2.36455 0
M  V30 2882 N 267.536 -0.106894 1.57237 0
M  V30 2883 C 268.761 -0.830287 1.90055 0
M  V30 2884 C 269.186 -1.72064 0.75998 0
M  V30 2885 O 268.544 -1.78982 -0.288991 0
M  V30 2886 C 268.592 -1.6295 3.21683 0
M  V30 2887 O 267.696 -2.73748 3.08441 0
M  V30 2888 H 267.037 -0.228855 0.623315 0
M  V30 2889 H 269.567 -0.085658 2.04421 0
M  V30 2890 H 269.577 -2.01621 3.54701 0
M  V30 2891 H 268.252 -0.975989 4.04286 0
M  V30 2892 H 266.829 -2.38192 2.86913 0
M  V30 2893 N 269.014 -1.53014 -0.377408 0
M  V30 2894 C 270.239 -1.72818 -1.14668 0
M  V30 2895 C 270.664 -0.450725 -1.8262 0
M  V30 2896 O 270.022 0.59439 -1.7128 0
M  V30 2897 C 270.07 -2.88627 -2.16164 0
M  V30 2898 O 269.174 -2.56409 -3.22998 0
M  V30 2899 H 268.515 -0.574301 -0.333278 0
M  V30 2900 H 271.045 -1.99853 -0.438152 0
M  V30 2901 H 271.055 -3.14455 -2.59966 0
M  V30 2902 H 269.73 -3.81294 -1.66095 0
M  V30 2903 H 268.307 -2.4136 -2.84253 0
M  V30 2904 N 270.492 0.636531 -1.44174 0
M  V30 2905 C 271.741 1.39213 -1.45954 0
M  V30 2906 C 272.054 1.95374 -0.0939119 0
M  V30 2907 O 273.26 2.71498 0.0107767 0
M  V30 2908 C 271.716 2.52025 -2.56927 0
M  V30 2909 C 271.324 2.024 -3.99673 0
M  V30 2910 C 273.068 3.29269 -2.67922 0
M  V30 2911 C 270.975 3.12521 -5.0208 0
M  V30 2912 H 269.905 0.523132 -0.542999 0
M  V30 2913 H 272.556 0.685349 -1.70221 0
M  V30 2914 H 270.938 3.25253 -2.25891 0
M  V30 2915 H 272.112 1.36073 -4.40251 0
M  V30 2916 H 270.427 1.37987 -3.92872 0
M  V30 2917 H 273.024 4.11352 -3.41605 0
M  V30 2918 H 273.367 3.78397 -1.73555 0
M  V30 2919 H 273.9 2.63129 -2.98342 0
M  V30 2920 H 270.639 2.68343 -5.98057 0
M  V30 2921 H 270.159 3.77507 -4.66099 0
M  V30 2922 H 271.838 3.77385 -5.25538 0
M  V30 2923 N 271.97 1.30982 0.876444 0
M  V30 2924 C 273.198 1.23242 1.6619 0
M  V30 2925 C 273.613 -0.203345 1.87702 0
M  V30 2926 O 272.97 -1.13317 1.43057 0
M  V30 2927 C 273.021 1.96623 3.03351 0
M  V30 2928 O 272.742 3.34594 2.82804 0
M  V30 2929 C 274.243 1.95644 3.97792 0
M  V30 2930 H 271.463 0.426126 0.518322 0
M  V30 2931 H 274.007 1.7275 1.09442 0
M  V30 2932 H 272.162 1.50892 3.56806 0
M  V30 2933 H 272.576 3.71873 3.69879 0
M  V30 2934 H 274.05 2.51511 4.91372 0
M  V30 2935 H 274.527 0.937395 4.2908 0
M  V30 2936 H 275.133 2.41225 3.50272 0
M  V30 2937 N 273.449 -1.08991 1.13837 0
M  V30 2938 C 274.399 -2.1393 0.788535 0
M  V30 2939 C 275.383 -1.59396 -0.219516 0
M  V30 2940 O 276.575 -1.76985 -0.0227557 0
M  V30 2941 C 273.704 -3.42305 0.261147 0
M  V30 2942 C 272.79 -4.03736 1.29837 0
M  V30 2943 N 273.181 -4.39659 2.50067 0
M  V30 2944 C 271.479 -4.30993 1.1472 0
M  V30 2945 C 272.18 -4.88113 3.16419 0
M  V30 2946 N 271.156 -4.85846 2.43832 0
M  V30 2947 H 274.958 -2.39516 1.70322 0
M  V30 2948 H 272.472 -1.26263 1.02134 0
M  V30 2949 H 274.469 -4.16899 -0.0077405 0
M  V30 2950 H 273.129 -3.18172 -0.647805 0
M  V30 2951 H 274.14 -4.30878 2.8734 0
M  V30 2952 H 270.817 -4.16444 0.296773 0
M  V30 2953 H 272.207 -5.25336 4.18894 0
M  V30 2954 N 274.927 -0.932562 -1.27047 0
M  V30 2955 C 275.86 -0.379774 -2.25018 0
M  V30 2956 C 276.838 0.526587 -1.53837 0
M  V30 2957 O 278.022 0.465992 -1.82649 0
M  V30 2958 C 275.149 0.455187 -3.35627 0
M  V30 2959 C 274.195 -0.388428 -4.24728 0
M  V30 2960 S 275.028 -1.80701 -5.04091 0
M  V30 2961 C 276.184 -0.979865 -6.18182 0
M  V30 2962 H 276.417 -1.2101 -2.71558 0
M  V30 2963 H 273.95 -0.735078 -1.35779 0
M  V30 2964 H 275.908 0.931052 -3.99802 0
M  V30 2965 H 274.569 1.26009 -2.87716 0
M  V30 2966 H 273.762 0.25089 -5.03375 0
M  V30 2967 H 273.364 -0.798649 -3.65373 0
M  V30 2968 H 275.656 -0.218115 -6.77149 0
M  V30 2969 H 276.599 -1.73951 -6.86401 0
M  V30 2970 H 277.007 -0.51973 -5.62102 0
M  V30 2971 N 276.405 1.4127 -0.698611 0
M  V30 2972 C 277.653 2.00782 -0.230409 0
M  V30 2973 C 277.974 1.5562 1.17505 0
M  V30 2974 O 277.244 0.78815 1.79346 0
M  V30 2975 H 275.824 0.742464 -0.0821944 0
M  V30 2976 H 278.486 1.72852 -0.90045 0
M  V30 2977 H 277.582 3.11095 -0.25021 0
M  V30 2978 N 277.883 0.443576 1.51229 0
M  V30 2979 C 279.129 -0.11321 2.03085 0
M  V30 2980 C 279.484 -1.39841 1.32145 0
M  V30 2981 O 278.777 -1.86723 0.429542 0
M  V30 2982 C 278.971 -0.380579 3.55368 0
M  V30 2983 C 278.8 0.877157 4.41062 0
M  V30 2984 C 277.57 1.4125 4.85156 0
M  V30 2985 C 279.768 1.76503 4.83064 0
M  V30 2986 N 277.75 2.62213 5.55083 0
M  V30 2987 C 279.121 2.82067 5.52122 0
M  V30 2988 C 281.176 1.7787 4.65045 0
M  V30 2989 C 279.879 3.88952 6.05069 0
M  V30 2990 C 281.905 2.83694 5.18914 0
M  V30 2991 C 281.267 3.87978 5.87922 0
M  V30 2992 H 277.366 -0.00210178 0.781997 0
M  V30 2993 H 279.95 0.605641 1.85041 0
M  V30 2994 H 278.121 -1.06847 3.73414 0
M  V30 2995 H 279.853 -0.929274 3.93887 0
M  V30 2996 H 276.608 0.965542 4.63653 0
M  V30 2997 H 277.032 3.23568 5.9467 0
M  V30 2998 H 281.674 0.985744 4.11148 0
M  V30 2999 H 279.392 4.69082 6.58018 0
M  V30 3000 H 282.978 2.85702 5.06819 0
M  V30 3001 H 281.858 4.68517 6.28857 0
M  V30 3002 N 279.361 -1.56624 0.175154 0
M  V30 3003 C 280.294 -2.14 -0.792412 0
M  V30 3004 C 281.272 -1.07114 -1.22333 0
M  V30 3005 O 282.456 -1.35112 -1.31442 0
M  V30 3006 C 279.583 -2.68268 -2.0676 0
M  V30 3007 C 278.629 -3.87562 -1.7804 0
M  V30 3008 S 279.462 -5.27074 -0.946222 0
M  V30 3009 C 280.618 -5.8475 -2.23199 0
M  V30 3010 H 280.851 -2.95736 -0.304588 0
M  V30 3011 H 278.384 -1.54349 -0.0395705 0
M  V30 3012 H 280.342 -3.00182 -2.80002 0
M  V30 3013 H 279.003 -1.86612 -2.52656 0
M  V30 3014 H 278.196 -4.23874 -2.72666 0
M  V30 3015 H 277.798 -3.56555 -1.12891 0
M  V30 3016 H 280.09 -5.97898 -3.18629 0
M  V30 3017 H 281.033 -6.81756 -1.91349 0
M  V30 3018 H 281.441 -5.13198 -2.35134 0
M  V30 3019 N 280.839 0.0985539 -1.57292 0
M  V30 3020 C 281.772 1.15082 -1.97057 0
M  V30 3021 C 282.75 1.39025 -0.843255 0
M  V30 3022 O 283.934 1.52842 -1.10325 0
M  V30 3023 C 281.061 2.50069 -2.28437 0
M  V30 3024 C 280.107 2.42428 -3.509 0
M  V30 3025 S 280.94 1.84414 -5.02744 0
M  V30 3026 C 282.096 3.21032 -5.37298 0
M  V30 3027 H 282.329 0.811815 -2.86002 0
M  V30 3028 H 279.862 0.306102 -1.51335 0
M  V30 3029 H 281.82 3.27729 -2.47192 0
M  V30 3030 H 280.481 2.8114 -1.40069 0
M  V30 3031 H 279.674 3.41911 -3.70288 0
M  V30 3032 H 279.276 1.72896 -3.31637 0
M  V30 3033 H 281.568 4.17297 -5.33731 0
M  V30 3034 H 282.511 3.06452 -6.38352 0
M  V30 3035 H 282.919 3.20404 -4.64759 0
M  V30 3036 N 282.317 1.53212 0.369288 0
M  V30 3037 C 283.28 1.7872 1.43498 0
M  V30 3038 C 284.28 0.657554 1.46741 0
M  V30 3039 O 285.47 0.925736 1.47566 0
M  V30 3040 C 282.602 1.90591 2.82645 0
M  V30 3041 H 283.795 2.73894 1.22156 0
M  V30 3042 H 281.348 1.44233 0.602203 0
M  V30 3043 H 282.083 0.974709 3.09306 0
M  V30 3044 H 281.868 2.72751 2.8169 0
M  V30 3045 H 283.358 2.11931 3.59826 0
M  V30 3046 N 283.795 -0.628877 1.44509 0
M  V30 3047 C 285.041 -1.39045 1.47629 0
M  V30 3048 C 285.374 -1.93892 0.109343 0
M  V30 3049 O 284.649 -1.7379 -0.87334 0
M  V30 3050 C 284.932 -2.55408 2.53848 0
M  V30 3051 C 284.785 -2.05896 3.99909 0
M  V30 3052 C 286.104 -3.5759 2.56549 0
M  V30 3053 H 283.223 -0.504232 0.537512 0
M  V30 3054 H 285.865 -0.710854 1.76201 0
M  V30 3055 H 284.015 -3.13384 2.29615 0
M  V30 3056 H 285.687 -1.52734 4.35282 0
M  V30 3057 H 283.93 -1.37061 4.11578 0
M  V30 3058 H 284.601 -2.89681 4.69882 0
M  V30 3059 H 287.077 -3.09419 2.78207 0
M  V30 3060 H 285.953 -4.36527 3.32769 0
M  V30 3061 H 286.214 -4.11808 1.60832 0
M  V30 3062 N 285.273 -1.31445 -0.869486 0
M  V30 3063 C 286.203 -1.21727 -1.99261 0
M  V30 3064 C 287.184 -0.104359 -1.6978 0
M  V30 3065 O 288.369 -0.289038 -1.92037 0
M  V30 3066 C 285.499 -0.924317 -3.34774 0
M  V30 3067 C 284.453 -1.99685 -3.78563 0
M  V30 3068 C 283.779 -1.55658 -5.11541 0
M  V30 3069 C 285.079 -3.41003 -3.95619 0
M  V30 3070 H 286.773 -2.1569 -2.07649 0
M  V30 3071 H 284.319 -1.03839 -0.997675 0
M  V30 3072 H 286.272 -0.842934 -4.12883 0
M  V30 3073 H 284.996 0.0509793 -3.2656 0
M  V30 3074 H 283.655 -2.06813 -3.02694 0
M  V30 3075 H 283.303 -0.569132 -4.9977 0
M  V30 3076 H 283.003 -2.27409 -5.41811 0
M  V30 3077 H 284.527 -1.48928 -5.92159 0
M  V30 3078 H 285.941 -3.36547 -4.64122 0
M  V30 3079 H 284.338 -4.10975 -4.37286 0
M  V30 3080 H 285.408 -3.81754 -2.98985 0
M  V30 3081 N 286.751 1.08385 -1.14413 0
M  V30 3082 C 288.162 1.62258 -0.923535 0
M  V30 3083 C 288.513 1.88691 0.537595 0
M  V30 3084 O 287.638 1.64454 1.40655 0
M  V30 3085 C 288.233 2.94781 -1.67002 0
M  V30 3086 C 286.792 3.45437 -1.495 0
M  V30 3087 C 285.939 2.19668 -1.69238 0
M  V30 3088 H 288.89 0.916086 -1.2959 0
M  V30 3089 H 288.911 3.63229 -1.13334 0
M  V30 3090 H 288.423 2.7551 -2.73342 0
M  V30 3091 H 286.524 3.6981 -0.455097 0
M  V30 3092 H 286.637 4.22173 -2.2651 0
M  V30 3093 H 285.001 2.28849 -1.11804 0
M  V30 3094 H 285.784 2.02905 -2.7692 0
M  V30 3095 N 288.23 0.939286 1.26551 0
M  V30 3096 C 289.46 0.601663 1.97645 0
M  V30 3097 C 289.868 -0.827206 1.70159 0
M  V30 3098 O 289.211 -1.56291 0.965338 0
M  V30 3099 C 289.273 0.761725 3.51337 0
M  V30 3100 C 288.937 2.16487 4.0247 0
M  V30 3101 C 289.934 3.14016 4.14355 0
M  V30 3102 C 287.619 2.48494 4.36527 0
M  V30 3103 C 289.613 4.41654 4.59587 0
M  V30 3104 C 287.3 3.76364 4.81449 0
M  V30 3105 C 288.298 4.72758 4.92939 0
M  V30 3106 O 287.986 5.98352 5.36871 0
M  V30 3107 H 287.718 0.225758 0.637189 0
M  V30 3108 H 290.272 1.26178 1.62075 0
M  V30 3109 H 288.502 0.0444808 3.86674 0
M  V30 3110 H 290.191 0.427442 4.03643 0
M  V30 3111 H 290.957 2.90613 3.8829 0
M  V30 3112 H 286.836 1.74202 4.26819 0
M  V30 3113 H 290.38 5.16896 4.68471 0
M  V30 3114 H 286.277 3.99582 5.06956 0
M  V30 3115 H 287.045 6.01507 5.55096 0
M  V30 3116 N 289.708 -1.40897 0.706093 0
M  V30 3117 C 290.656 -2.32572 0.0361893 0
M  V30 3118 C 291.65 -1.51532 -0.757266 0
M  V30 3119 O 292.856 -1.67396 -0.661703 0
M  V30 3120 H 289.231 -0.751966 -0.00709935 0
M  V30 3121 H 291.202 -2.86733 0.826249 0
M  V30 3122 C 289.951 -3.36418 -0.87854 0
M  V30 3123 H 289.274 -3.98836 -0.277401 0
M  V30 3124 H 290.714 -4.0308 -1.3154 0
M  V30 3125 C 289.173 -2.71141 -1.99961 0
M  V30 3126 O 289.703 -2.56735 -3.0895 0
M  V30 3127 N 287.909 -2.29671 -1.78043 0
M  V30 3128 H 287.456 -2.41588 -0.894042 0
M  V30 3129 H 287.414 -1.86332 -2.53235 0
M  V30 3130 N 291.186 -0.45159 -1.50991 0
M  V30 3131 C 292.597 0.00818571 -1.86698 0
M  V30 3132 C 292.948 1.40661 -1.3678 0
M  V30 3133 O 292.073 2.0391 -0.724546 0
M  V30 3134 C 292.668 0.0216303 -3.38793 0
M  V30 3135 C 291.227 0.425865 -3.73983 0
M  V30 3136 C 290.374 -0.372163 -2.74791 0
M  V30 3137 H 293.325 -0.666785 -1.44013 0
M  V30 3138 H 293.346 0.828078 -3.7138 0
M  V30 3139 H 292.858 -0.996288 -3.75094 0
M  V30 3140 H 290.959 1.44886 -3.43277 0
M  V30 3141 H 291.072 0.140761 -4.78893 0
M  V30 3142 H 289.436 0.171498 -2.54122 0
M  V30 3143 H 290.219 -1.38922 -3.13935 0
M  V30 3144 N 292.664 1.56529 -0.183458 0
M  V30 3145 C 293.612 2.19873 0.758845 0
M  V30 3146 C 294.606 1.16638 1.22849 0
M  V30 3147 O 295.812 1.3481 1.19274 0
M  V30 3148 H 292.187 0.7045 0.263029 0
M  V30 3149 H 294.158 2.97724 0.200755 0
M  V30 3150 C 292.907 2.86314 1.9728 0
M  V30 3151 H 292.23 3.65487 1.62047 0
M  V30 3152 H 293.67 3.3409 2.61075 0
M  V30 3153 C 292.129 1.86729 2.80418 0
M  V30 3154 O 292.659 1.36031 3.77966 0
M  V30 3155 N 290.865 1.55216 2.45675 0
M  V30 3156 H 290.412 1.96636 1.66409 0
M  V30 3157 H 290.37 0.888388 3.01588 0
M  V30 3158 N 294.142 -0.090211 1.57342 0
M  V30 3159 C 295.075 -1.14035 1.97664 0
M  V30 3160 C 296.053 -1.38576 0.850616 0
M  V30 3161 O 297.237 -1.52255 1.11134 0
M  V30 3162 C 294.364 -2.48854 2.2976 0
M  V30 3163 C 293.41 -2.40564 3.52181 0
M  V30 3164 S 294.243 -1.81745 5.03715 0
M  V30 3165 C 295.399 -3.18178 5.38993 0
M  V30 3166 H 295.632 -0.796636 2.86428 0
M  V30 3167 H 293.165 -0.298072 1.51496 0
M  V30 3168 H 295.123 -3.26413 2.48927 0
M  V30 3169 H 293.784 -2.80393 1.41558 0
M  V30 3170 H 292.977 -3.39942 3.72096 0
M  V30 3171 H 292.579 -1.71135 3.32549 0
M  V30 3172 H 294.871 -4.14461 5.35937 0
M  V30 3173 H 295.814 -3.03062 6.39968 0
M  V30 3174 H 296.222 -3.17935 4.66452 0
M  V30 3175 N 295.62 -1.53406 -0.361157 0
M  V30 3176 C 296.848 -1.73717 -1.12383 0
M  V30 3177 C 297.263 -0.468161 -1.82904 0
M  V30 3178 O 296.62 0.559198 -1.73722 0
M  V30 3179 C 296.671 -2.90558 -2.15078 0
M  V30 3180 O 296.392 -4.12549 -1.47428 0
M  V30 3181 C 297.893 -3.22777 -3.03858 0
M  V30 3182 H 295.113 -0.580896 -0.335858 0
M  V30 3183 H 297.657 -2.00167 -0.418728 0
M  V30 3184 H 295.812 -2.66489 -2.8118 0
M  V30 3185 H 296.226 -4.78009 -2.15887 0
M  V30 3186 H 297.7 -4.07927 -3.71887 0
M  V30 3187 H 298.177 -2.38329 -3.68912 0
M  V30 3188 H 298.783 -3.48787 -2.43367 0
M  V30 3189 N 297.098 0.621204 -1.44841 0
M  V30 3190 C 298.347 1.37658 -1.47422 0
M  V30 3191 C 298.66 1.95264 -0.114629 0
M  V30 3192 O 299.866 2.71494 -0.0180199 0
M  V30 3193 C 298.322 2.49285 -2.59586 0
M  V30 3194 C 297.93 1.98149 -4.01797 0
M  V30 3195 C 299.674 3.26409 -2.71399 0
M  V30 3196 C 297.581 3.07178 -5.05367 0
M  V30 3197 H 296.511 0.517344 -0.548517 0
M  V30 3198 H 299.162 0.667257 -1.70938 0
M  V30 3199 H 297.544 3.22839 -2.29328 0
M  V30 3200 H 298.718 1.31395 -4.41669 0
M  V30 3201 H 297.033 1.33812 -3.94314 0
M  V30 3202 H 299.63 4.07706 -3.45948 0
M  V30 3203 H 299.973 3.76535 -1.77559 0
M  V30 3204 H 300.506 2.5995 -3.01116 0
M  V30 3205 H 297.245 2.61985 -6.00869 0
M  V30 3206 H 296.765 3.72542 -4.70077 0
M  V30 3207 H 298.444 3.71789 -5.29511 0
M  V30 3208 N 298.576 1.31904 0.862503 0
M  V30 3209 C 299.506 1.22782 1.98612 0
M  V30 3210 C 300.487 0.113362 1.69722 0
M  V30 3211 O 301.672 0.299218 1.91881 0
M  V30 3212 C 298.802 0.942058 3.34279 0
M  V30 3213 C 297.756 2.0169 3.77499 0
M  V30 3214 C 297.082 1.58369 5.10709 0
M  V30 3215 C 298.382 3.43096 3.93805 0
M  V30 3216 H 300.076 2.16788 2.06502 0
M  V30 3217 H 297.622 1.04366 0.992154 0
M  V30 3218 H 299.575 0.864818 4.1243 0
M  V30 3219 H 298.299 -0.0336603 3.26583 0
M  V30 3220 H 296.958 2.08416 3.01593 0
M  V30 3221 H 296.606 0.595628 4.99461 0
M  V30 3222 H 296.306 2.30279 5.40597 0
M  V30 3223 H 297.83 1.52067 5.91361 0
M  V30 3224 H 299.244 3.39003 4.62331 0
M  V30 3225 H 297.641 4.13288 4.35101 0
M  V30 3226 H 298.711 3.83334 2.96957 0
M  V30 3227 N 300.054 -1.07777 1.14986 0
M  V30 3228 C 301.002 -2.16964 0.838406 0
M  V30 3229 C 301.996 -1.68372 -0.186386 0
M  V30 3230 O 303.202 -1.79951 -0.0418465 0
M  V30 3231 H 299.577 -0.708006 0.253439 0
M  V30 3232 H 301.548 -2.40454 1.76704 0
M  V30 3233 C 300.297 -3.4604 0.339335 0
M  V30 3234 H 299.62 -3.83813 1.11927 0
M  V30 3235 H 301.06 -4.23698 0.160021 0
M  V30 3236 C 299.519 -3.23569 -0.938325 0
M  V30 3237 O 300.049 -3.47752 -2.01077 0
M  V30 3238 N 298.255 -2.77079 -0.876117 0
M  V30 3239 H 297.802 -2.576 -0.00322037 0
M  V30 3240 H 297.76 -2.62422 -1.73153 0
M  V30 3241 N 301.532 -0.945985 -1.26051 0
M  V30 3242 C 302.462 -0.477172 -2.28572 0
M  V30 3243 C 303.443 0.472032 -1.63419 0
M  V30 3244 O 304.628 0.372853 -1.90587 0
M  V30 3245 C 301.758 0.253975 -3.4637 0
M  V30 3246 C 300.712 -0.609135 -4.23643 0
M  V30 3247 C 300.038 0.252252 -5.34105 0
M  V30 3248 C 301.338 -1.8829 -4.8718 0
M  V30 3249 H 303.032 -1.33402 -2.68038 0
M  V30 3250 H 300.578 -0.642904 -1.28852 0
M  V30 3251 H 302.531 0.593016 -4.17207 0
M  V30 3252 H 301.255 1.145 -3.05871 0
M  V30 3253 H 299.914 -0.931138 -3.54578 0
M  V30 3254 H 299.562 1.14278 -4.89846 0
M  V30 3255 H 299.262 -0.32188 -5.86718 0
M  V30 3256 H 300.786 0.586454 -6.07777 0
M  V30 3257 H 302.2 -1.61081 -5.50205 0
M  V30 3258 H 300.597 -2.40199 -5.49931 0
M  V30 3259 H 301.667 -2.59134 -4.09851 0
M  V30 3260 N 303.011 1.40521 -0.713556 0
M  V30 3261 C 304.239 2.05237 -0.261775 0
M  V30 3262 C 304.654 1.53755 1.09567 0
M  V30 3263 O 304.011 0.693268 1.6882 0
M  V30 3264 C 304.062 3.60763 -0.230706 0
M  V30 3265 O 303.783 4.10345 -1.53455 0
M  V30 3266 C 305.284 4.42651 0.239874 0
M  V30 3267 H 302.504 0.660533 -0.118057 0
M  V30 3268 H 305.048 1.79967 -0.971192 0
M  V30 3269 H 303.203 3.8501 0.429661 0
M  V30 3270 H 303.617 5.04526 -1.43366 0
M  V30 3271 H 305.091 5.51599 0.210468 0
M  V30 3272 H 305.568 4.20082 1.28171 0
M  V30 3273 H 306.174 4.23507 -0.390142 0
M  V30 3274 N 304.489 0.459591 1.5075 0
M  V30 3275 C 305.738 -0.100971 2.01447 0
M  V30 3276 C 306.051 -1.41816 1.34713 0
M  V30 3277 O 307.257 -2.06299 1.76502 0
M  V30 3278 C 305.713 -0.23047 3.59161 0
M  V30 3279 C 305.321 1.0776 4.34847 0
M  V30 3280 C 307.065 -0.743608 4.17936 0
M  V30 3281 C 304.972 0.91253 5.84317 0
M  V30 3282 H 303.902 -0.0415102 0.752856 0
M  V30 3283 H 306.553 0.592742 1.73663 0
M  V30 3284 H 304.935 -0.987703 3.83485 0
M  V30 3285 H 306.109 1.8449 4.22256 0
M  V30 3286 H 304.424 1.52097 3.87628 0
M  V30 3287 H 307.021 -0.883959 5.27343 0
M  V30 3288 H 307.364 -1.73196 3.78562 0
M  V30 3289 H 307.897 -0.04408 3.97776 0
M  V30 3290 H 304.636 1.87391 6.28144 0
M  V30 3291 H 304.156 0.185422 5.99513 0
M  V30 3292 H 305.835 0.574547 6.44444 0
M  V30 3293 N 305.967 -1.56429 0.191757 0
M  V30 3294 C 307.197 -2.01574 -0.452928 0
M  V30 3295 C 307.605 -1.07107 -1.55964 0
M  V30 3296 O 306.948 -0.067534 -1.83576 0
M  V30 3297 C 307.01 -3.43121 -1.07278 0
M  V30 3298 C 306.674 -4.56879 -0.105214 0
M  V30 3299 C 307.671 -5.15379 0.684149 0
M  V30 3300 C 305.356 -5.023 0.00489824 0
M  V30 3301 C 307.35 -6.17746 1.57062 0
M  V30 3302 C 305.037 -6.04511 0.894935 0
M  V30 3303 C 306.035 -6.62108 1.67637 0
M  V30 3304 O 305.723 -7.62335 2.55149 0
M  V30 3305 H 305.455 -0.665554 -0.118379 0
M  V30 3306 H 308.009 -2.03245 0.296737 0
M  V30 3307 H 306.239 -3.38425 -1.87097 0
M  V30 3308 H 307.928 -3.72093 -1.62177 0
M  V30 3309 H 308.694 -4.81157 0.609365 0
M  V30 3310 H 304.573 -4.57168 -0.593156 0
M  V30 3311 H 308.117 -6.6263 2.181 0
M  V30 3312 H 304.014 -6.38157 0.970847 0
M  V30 3313 H 304.782 -7.79741 2.48892 0
M  V30 3314 N 307.445 0.0818655 -1.57387 0
M  V30 3315 C 308.694 0.781681 -1.85937 0
M  V30 3316 C 309.007 1.79246 -0.782957 0
M  V30 3317 O 310.213 2.54112 -0.955987 0
M  V30 3318 C 308.669 1.44109 -3.29789 0
M  V30 3319 C 308.277 0.469396 -4.45534 0
M  V30 3320 C 310.021 2.12386 -3.67549 0
M  V30 3321 C 307.928 1.13415 -5.80423 0
M  V30 3322 H 306.858 0.295682 -0.693605 0
M  V30 3323 H 309.509 0.0348051 -1.83467 0
M  V30 3324 H 307.891 2.23588 -3.2684 0
M  V30 3325 H 309.065 -0.294856 -4.59856 0
M  V30 3326 H 307.38 -0.108383 -4.16259 0
M  V30 3327 H 309.977 2.62878 -4.65617 0
M  V30 3328 H 310.32 2.91877 -2.96839 0
M  V30 3329 H 310.853 1.39751 -3.72444 0
M  V30 3330 H 307.592 0.379771 -6.54399 0
M  V30 3331 H 307.112 1.8695 -5.69921 0
M  V30 3332 H 308.791 1.65686 -6.25426 0
M  V30 3333 N 308.923 1.53595 0.353017 0
M  V30 3334 C 310.172 1.69603 1.09168 0
M  V30 3335 C 310.485 0.460925 1.90092 0
M  V30 3336 O 311.691 0.501774 2.66823 0
M  V30 3337 C 310.147 2.99872 1.9901 0
M  V30 3338 C 309.755 4.30687 1.23339 0
M  V30 3339 C 311.499 3.25246 2.72792 0
M  V30 3340 C 309.406 5.52036 2.12156 0
M  V30 3341 H 308.336 0.631966 0.411261 0
M  V30 3342 H 310.987 1.80096 0.351802 0
M  V30 3343 H 309.369 2.83212 2.7678 0
M  V30 3344 H 310.543 4.58019 0.505456 0
M  V30 3345 H 308.858 4.11853 0.613663 0
M  V30 3346 H 311.455 4.13095 3.39495 0
M  V30 3347 H 311.798 2.41846 3.38846 0
M  V30 3348 H 312.331 3.42638 2.021 0
M  V30 3349 H 309.07 6.37951 1.50659 0
M  V30 3350 H 308.59 5.28966 2.82764 0
M  V30 3351 H 310.269 5.87313 2.71427 0
M  V30 3352 N 310.401 -0.613514 1.45168 0
M  V30 3353 C 311.331 -1.7354 1.56225 0
M  V30 3354 C 312.312 -1.64981 0.41414 0
M  V30 3355 O 313.497 -1.83472 0.636526 0
M  V30 3356 C 310.627 -3.12128 1.52295 0
M  V30 3357 C 309.581 -3.35491 2.65762 0
M  V30 3358 C 308.907 -4.74291 2.46885 0
M  V30 3359 C 310.207 -3.26325 4.0781 0
M  V30 3360 H 311.901 -1.64543 2.50132 0
M  V30 3361 H 309.447 -0.790185 1.20383 0
M  V30 3362 H 311.4 -3.90404 1.58628 0
M  V30 3363 H 310.124 -3.2195 0.549139 0
M  V30 3364 H 308.783 -2.59603 2.58847 0
M  V30 3365 H 308.431 -4.80839 1.47657 0
M  V30 3366 H 308.131 -4.9088 3.22972 0
M  V30 3367 H 309.655 -5.54775 2.55063 0
M  V30 3368 H 311.069 -3.94483 4.16 0
M  V30 3369 H 309.466 -3.54445 4.8424 0
M  V30 3370 H 310.536 -2.23855 4.30136 0
M  V30 3371 N 311.879 -1.3236 -0.855495 0
M  V30 3372 C 313.107 -1.2587 -1.64208 0
M  V30 3373 C 313.522 0.173457 -1.88002 0
M  V30 3374 O 312.879 1.11027 -1.44842 0
M  V30 3375 C 312.93 -2.01424 -3.00184 0
M  V30 3376 O 312.651 -3.39051 -2.77445 0
M  V30 3377 C 314.152 -2.01948 -3.94629 0
M  V30 3378 H 311.372 -0.434318 -0.511477 0
M  V30 3379 H 313.916 -1.74469 -1.0668 0
M  V30 3380 H 312.071 -1.56549 -3.5436 0
M  V30 3381 H 312.485 -3.77711 -3.63916 0
M  V30 3382 H 313.959 -2.59297 -4.87308 0
M  V30 3383 H 314.436 -1.00554 -4.27534 0
M  V30 3384 H 315.042 -2.46767 -3.4639 0
M  V30 3385 N 313.357 1.07166 -1.15556 0
M  V30 3386 C 314.585 1.83514 -0.955519 0
M  V30 3387 C 315 1.82163 0.49621 0
M  V30 3388 O 314.357 1.23441 1.34419 0
M  V30 3389 C 314.408 3.30515 -1.46432 0
M  V30 3390 O 314.129 3.31937 -2.85918 0
M  V30 3391 C 315.63 4.23625 -1.30603 0
M  V30 3392 H 312.85 0.578926 -0.339244 0
M  V30 3393 H 315.394 1.35265 -1.53374 0
M  V30 3394 H 313.549 3.76106 -0.928584 0
M  V30 3395 H 313.963 4.23794 -3.09029 0
M  V30 3396 H 315.437 5.24831 -1.71047 0
M  V30 3397 H 315.914 4.38485 -0.250441 0
M  V30 3398 H 316.52 3.83871 -1.83094 0
M  V30 3399 N 314.835 0.952656 1.25548 0
M  V30 3400 C 316.063 0.623496 1.97282 0
M  V30 3401 C 316.478 -0.803987 1.70826 0
M  V30 3402 O 315.835 -1.53755 0.983147 0
M  V30 3403 C 315.886 0.870209 3.5087 0
M  V30 3404 O 315.607 2.24156 3.76412 0
M  V30 3405 C 317.108 0.553164 4.39835 0
M  V30 3406 H 314.328 0.233931 0.628902 0
M  V30 3407 H 316.872 1.27649 1.59768 0
M  V30 3408 H 315.027 0.263652 3.86502 0
M  V30 3409 H 315.441 2.31021 4.70882 0
M  V30 3410 H 316.915 0.776342 5.46513 0
M  V30 3411 H 317.392 -0.512215 4.36203 0
M  V30 3412 H 317.998 1.13896 4.09766 0
M  V30 3413 N 316.313 -1.40141 0.720998 0
M  V30 3414 C 317.276 -2.29058 0.0805834 0
M  V30 3415 C 318.276 -1.45632 -0.681758 0
M  V30 3416 O 319.466 -1.6648 -0.512856 0
M  V30 3417 C 316.598 -3.28925 -0.895593 0
M  V30 3418 H 317.791 -2.87191 0.863793 0
M  V30 3419 H 315.344 -1.48553 0.485975 0
M  V30 3420 H 316.079 -2.75822 -1.70566 0
M  V30 3421 H 315.864 -3.90519 -0.351766 0
M  V30 3422 H 317.354 -3.95494 -1.34069 0
M  V30 3423 N 317.792 -0.46758 -1.50504 0
M  V30 3424 C 319.039 0.0886219 -2.02306 0
M  V30 3425 C 319.367 1.40037 -1.34981 0
M  V30 3426 O 318.622 1.90136 -0.463318 0
M  V30 3427 C 318.921 0.323995 -3.55928 0
M  V30 3428 C 318.587 -0.905618 -4.41712 0
M  V30 3429 C 317.249 -1.24275 -4.64875 0
M  V30 3430 C 319.601 -1.72448 -4.91845 0
M  V30 3431 C 316.929 -2.39888 -5.35417 0
M  V30 3432 C 319.281 -2.87185 -5.63656 0
M  V30 3433 C 317.945 -3.21317 -5.85074 0
M  V30 3434 H 317.215 0.0324291 -0.74029 0
M  V30 3435 H 319.862 -0.620945 -1.81153 0
M  V30 3436 H 318.167 1.11577 -3.75577 0
M  V30 3437 H 319.864 0.76826 -3.93572 0
M  V30 3438 H 316.454 -0.632956 -4.239 0
M  V30 3439 H 320.638 -1.4772 -4.73806 0
M  V30 3440 H 315.894 -2.66611 -5.50208 0
M  V30 3441 H 320.068 -3.50985 -6.01484 0
M  V30 3442 H 317.695 -4.1101 -6.39511 0
M  V30 3443 N 319.27 1.56325 -0.20005 0
M  V30 3444 C 320.2 2.22318 0.713916 0
M  V30 3445 C 321.181 1.18788 1.21752 0
M  V30 3446 O 322.366 1.47309 1.26545 0
M  V30 3447 C 319.496 2.88639 1.93144 0
M  V30 3448 C 318.45 3.98457 1.56255 0
M  V30 3449 C 317.776 4.51967 2.85709 0
M  V30 3450 C 319.076 5.16612 0.768747 0
M  V30 3451 H 320.77 2.98952 0.163755 0
M  V30 3452 H 318.316 1.43792 0.0773219 0
M  V30 3453 H 320.269 3.33491 2.57608 0
M  V30 3454 H 318.993 2.09419 2.50621 0
M  V30 3455 H 317.652 3.54305 0.941471 0
M  V30 3456 H 317.3 3.69503 3.41287 0
M  V30 3457 H 317 5.26071 2.6177 0
M  V30 3458 H 318.524 4.99523 3.51154 0
M  V30 3459 H 319.938 5.57977 1.3166 0
M  V30 3460 H 318.335 5.96812 0.627286 0
M  V30 3461 H 319.405 4.84358 -0.229168 0
M  V30 3462 N 320.748 -0.0735177 1.57428 0
M  V30 3463 C 321.678 -1.0879 2.06608 0
M  V30 3464 C 322.659 -1.40473 0.959237 0
M  V30 3465 O 323.844 -1.5013 1.23185 0
M  V30 3466 C 320.974 -2.40183 2.50857 0
M  V30 3467 C 319.928 -2.22858 3.65402 0
M  V30 3468 C 319.254 -3.59619 3.957 0
M  V30 3469 C 320.554 -1.65123 4.95511 0
M  V30 3470 H 322.248 -0.678673 2.91607 0
M  V30 3471 H 319.794 -0.325013 1.40284 0
M  V30 3472 H 321.747 -3.11437 2.83874 0
M  V30 3473 H 320.471 -2.83083 1.62885 0
M  V30 3474 H 319.13 -1.54045 3.32664 0
M  V30 3475 H 318.778 -4.00086 3.04861 0
M  V30 3476 H 318.478 -3.48866 4.72828 0
M  V30 3477 H 320.002 -4.32306 4.31212 0
M  V30 3478 H 321.416 -2.26241 5.26771 0
M  V30 3479 H 319.813 -1.65071 5.7695 0
M  V30 3480 H 320.883 -0.612559 4.81015 0
M  V30 3481 N 322.226 -1.5378 -0.344866 0
M  V30 3482 C 323.156 -1.84662 -1.42906 0
M  V30 3483 C 324.137 -0.701648 -1.54955 0
M  V30 3484 O 325.322 -0.953438 -1.69184 0
M  V30 3485 C 322.452 -2.05503 -2.79974 0
M  V30 3486 C 321.406 -3.21318 -2.82734 0
M  V30 3487 C 320.732 -3.2749 -4.22675 0
M  V30 3488 C 322.032 -4.59456 -2.48389 0
M  V30 3489 H 323.726 -2.75461 -1.17311 0
M  V30 3490 H 321.272 -1.32542 -0.562896 0
M  V30 3491 H 323.225 -2.25691 -3.55867 0
M  V30 3492 H 321.949 -1.11434 -3.07002 0
M  V30 3493 H 320.608 -3.00984 -2.09294 0
M  V30 3494 H 320.256 -2.31019 -4.4681 0
M  V30 3495 H 319.956 -4.05316 -4.25433 0
M  V30 3496 H 321.48 -3.49887 -5.00412 0
M  V30 3497 H 322.894 -4.79667 -3.13995 0
M  V30 3498 H 321.291 -5.39675 -2.62432 0
M  V30 3499 H 322.361 -4.63155 -1.4358 0
M  V30 3500 N 323.704 0.605807 -1.45491 0
M  V30 3501 C 324.652 1.73754 -1.54636 0
M  V30 3502 C 325.646 1.64207 -0.416219 0
M  V30 3503 O 326.852 1.69979 -0.592199 0
M  V30 3504 H 323.227 0.574073 -0.485741 0
M  V30 3505 H 325.198 1.63169 -2.49837 0
M  V30 3506 C 323.947 3.12135 -1.53189 0
M  V30 3507 H 323.27 3.20141 -2.39478 0
M  V30 3508 H 324.71 3.91147 -1.63645 0
M  V30 3509 C 323.169 3.35921 -0.256616 0
M  V30 3510 O 323.699 3.96194 0.662798 0
M  V30 3511 N 321.905 2.90204 -0.151751 0
M  V30 3512 H 321.452 2.41336 -0.90081 0
M  V30 3513 H 321.41 3.06492 0.700699 0
M  V30 3514 N 325.182 1.32811 0.848464 0
M  V30 3515 C 326.112 1.24882 1.97299 0
M  V30 3516 C 327.093 0.131357 1.69592 0
M  V30 3517 O 328.278 0.319553 1.91553 0
M  V30 3518 C 325.408 0.97746 3.33261 0
M  V30 3519 C 324.362 2.05682 3.75338 0
M  V30 3520 C 323.688 1.63777 5.09 0
M  V30 3521 C 324.988 3.47254 3.90144 0
M  V30 3522 H 326.682 2.18966 2.04191 0
M  V30 3523 H 324.228 1.05413 0.981029 0
M  V30 3524 H 326.181 0.908513 4.1149 0
M  V30 3525 H 324.905 0.000980011 3.266 0
M  V30 3526 H 323.564 2.11603 2.99366 0
M  V30 3527 H 323.212 0.648569 4.98801 0
M  V30 3528 H 322.912 2.36 5.38124 0
M  V30 3529 H 324.436 1.5833 5.89715 0
M  V30 3530 H 325.85 3.43888 4.58709 0
M  V30 3531 H 324.247 4.1788 4.30693 0
M  V30 3532 H 325.317 3.86462 2.92874 0
M  V30 3533 N 326.66 -1.06551 1.16123 0
M  V30 3534 C 327.608 -2.16063 0.861371 0
M  V30 3535 C 328.602 -1.6856 -0.168517 0
M  V30 3536 O 329.808 -1.79986 -0.0227579 0
M  V30 3537 H 326.183 -0.705278 0.260934 0
M  V30 3538 H 328.154 -2.38567 1.79244 0
M  V30 3539 C 326.903 -3.45661 0.376018 0
M  V30 3540 H 326.226 -3.82604 1.15992 0
M  V30 3541 H 327.666 -4.23504 0.204951 0
M  V30 3542 C 326.125 -3.24546 -0.903954 0
M  V30 3543 O 326.655 -3.49865 -1.97377 0
M  V30 3544 N 324.861 -2.77992 -0.846679 0
M  V30 3545 H 324.408 -2.57589 0.0241017 0
M  V30 3546 H 324.366 -2.64244 -1.70359 0
M  V30 3547 N 328.138 -0.959301 -1.25041 0
M  V30 3548 C 329.363 -0.633507 -1.97488 0
M  V30 3549 C 329.788 0.788555 -1.70773 0
M  V30 3550 O 329.146 1.53394 -0.966431 0
M  V30 3551 C 329.194 -0.904057 -3.49083 0
M  V30 3552 O 328.298 0.0147939 -4.12397 0
M  V30 3553 H 327.639 -0.240368 -0.618966 0
M  V30 3554 H 330.169 -1.28717 -1.59038 0
M  V30 3555 H 330.179 -0.832203 -3.99423 0
M  V30 3556 H 328.854 -1.94048 -3.67856 0
M  V30 3557 H 327.431 -0.109664 -3.72739 0
M  V30 3558 N 329.616 1.39756 -0.72842 0
M  V30 3559 C 330.841 2.05472 -0.282159 0
M  V30 3560 C 331.266 1.54549 1.07221 0
M  V30 3561 O 330.624 0.686372 1.67805 0
M  V30 3562 C 330.672 3.59462 -0.286264 0
M  V30 3563 O 329.776 4.05918 0.728298 0
M  V30 3564 H 329.117 0.651226 -0.129618 0
M  V30 3565 H 331.647 1.78915 -0.992499 0
M  V30 3566 H 331.657 4.07798 -0.128373 0
M  V30 3567 H 330.332 3.95889 -1.27456 0
M  V30 3568 H 328.909 3.69012 0.537081 0
M  V30 3569 N 331.094 0.475555 1.50254 0
M  V30 3570 C 332.322 -0.0754493 2.06762 0
M  V30 3571 C 332.737 -1.33111 1.33891 0
M  V30 3572 O 332.094 -1.77846 0.40952 0
M  V30 3573 C 332.145 -0.359008 3.59713 0
M  V30 3574 O 331.866 0.846851 4.29837 0
M  V30 3575 C 333.367 -0.956484 4.32858 0
M  V30 3576 H 330.587 0.00907525 0.670939 0
M  V30 3577 H 333.131 0.665618 1.93364 0
M  V30 3578 H 331.286 -1.05001 3.72899 0
M  V30 3579 H 331.7 0.594162 5.21124 0
M  V30 3580 H 333.174 -1.10463 5.40834 0
M  V30 3581 H 333.651 -1.94775 3.93649 0
M  V30 3582 H 334.257 -0.303723 4.24214 0
M  V30 3583 N 332.573 -1.56217 0.208337 0
M  V30 3584 C 333.801 -2.02337 -0.43215 0
M  V30 3585 C 334.216 -1.08834 -1.54275 0
M  V30 3586 O 333.573 -0.0955462 -1.8225 0
M  V30 3587 C 333.624 -3.48072 -0.976138 0
M  V30 3588 O 333.345 -4.38007 0.0901621 0
M  V30 3589 C 334.846 -4.09773 -1.69119 0
M  V30 3590 H 332.066 -0.662385 -0.10718 0
M  V30 3591 H 334.61 -2.01966 0.320923 0
M  V30 3592 H 332.765 -3.49099 -1.67954 0
M  V30 3593 H 333.179 -5.23543 -0.316701 0
M  V30 3594 H 334.653 -5.13556 -2.02397 0
M  V30 3595 H 335.13 -3.53999 -2.59964 0
M  V30 3596 H 335.736 -4.12556 -1.03332 0
M  V30 3597 N 334.051 0.0651679 -1.57465 0
M  V30 3598 C 335.279 0.775808 -1.91804 0
M  V30 3599 C 335.694 1.70782 -0.804916 0
M  V30 3600 O 335.051 1.81153 0.221311 0
M  V30 3601 C 335.102 1.56381 -3.25925 0
M  V30 3602 O 334.823 0.669248 -4.32958 0
M  V30 3603 C 336.324 2.37485 -3.7432 0
M  V30 3604 H 333.544 0.2202 -0.63384 0
M  V30 3605 H 336.088 0.0334587 -2.04473 0
M  V30 3606 H 334.243 2.25837 -3.14764 0
M  V30 3607 H 334.657 1.21801 -5.10162 0
M  V30 3608 H 336.131 2.88223 -4.70778 0
M  V30 3609 H 336.608 3.17307 -3.03666 0
M  V30 3610 H 337.214 1.73173 -3.88447 0
M  V30 3611 N 335.529 1.53961 0.336706 0
M  V30 3612 C 336.459 1.85417 1.41925 0
M  V30 3613 C 337.44 0.709856 1.5458 0
M  V30 3614 O 338.625 0.962396 1.68676 0
M  V30 3615 C 335.755 2.06985 2.78881 0
M  V30 3616 C 334.709 3.22813 2.81026 0
M  V30 3617 C 334.035 3.29727 4.20932 0
M  V30 3618 C 335.335 4.60767 2.45949 0
M  V30 3619 H 337.029 2.76079 1.15848 0
M  V30 3620 H 334.575 1.32839 0.555859 0
M  V30 3621 H 336.528 2.27575 3.54665 0
M  V30 3622 H 335.252 1.13061 3.06406 0
M  V30 3623 H 333.911 3.0209 2.07695 0
M  V30 3624 H 333.559 2.33385 4.45579 0
M  V30 3625 H 333.259 4.07566 4.23277 0
M  V30 3626 H 334.783 3.52536 4.98549 0
M  V30 3627 H 336.197 4.81325 3.11446 0
M  V30 3628 H 334.594 5.4106 2.59566 0
M  V30 3629 H 335.664 4.6391 1.41122 0
M  V30 3630 N 337.007 -0.598083 1.45811 0
M  V30 3631 C 337.937 -1.71873 1.58057 0
M  V30 3632 C 338.918 -1.64533 0.431615 0
M  V30 3633 O 340.103 -1.82787 0.65595 0
M  V30 3634 C 337.233 -3.10495 1.55597 0
M  V30 3635 C 336.187 -3.32654 2.69305 0
M  V30 3636 C 335.513 -4.71646 2.51902 0
M  V30 3637 C 336.813 -3.21981 4.11248 0
M  V30 3638 H 338.507 -1.61881 2.51863 0
M  V30 3639 H 336.053 -0.777372 1.21214 0
M  V30 3640 H 338.006 -3.88699 1.6276 0
M  V30 3641 H 336.73 -3.2135 0.583255 0
M  V30 3642 H 335.389 -2.56843 2.61586 0
M  V30 3643 H 335.037 -4.79246 1.52748 0
M  V30 3644 H 334.737 -4.87426 3.2816 0
M  V30 3645 H 336.261 -5.52038 2.60933 0
M  V30 3646 H 337.675 -3.90049 4.20161 0
M  V30 3647 H 336.072 -3.49289 4.87972 0
M  V30 3648 H 337.142 -2.1928 4.32486 0
M  V30 3649 N 338.485 -1.33259 -0.841409 0
M  V30 3650 C 339.415 -1.25926 -1.96634 0
M  V30 3651 C 340.396 -0.140349 -1.6952 0
M  V30 3652 O 341.581 -0.329707 -1.91381 0
M  V30 3653 C 338.711 -0.99512 -3.32738 0
M  V30 3654 C 337.665 -2.0767 -3.74242 0
M  V30 3655 C 336.991 -1.66474 -5.08125 0
M  V30 3656 C 338.291 -3.49318 -3.88297 0
M  V30 3657 H 339.985 -2.20046 -2.03027 0
M  V30 3658 H 337.531 -1.05931 -0.975425 0
M  V30 3659 H 339.484 -0.930323 -4.11002 0
M  V30 3660 H 338.208 -0.0183004 -3.26595 0
M  V30 3661 H 336.867 -2.13187 -2.98239 0
M  V30 3662 H 336.515 -0.675012 -4.9845 0
M  V30 3663 H 336.215 -2.3885 -5.36865 0
M  V30 3664 H 337.739 -1.61455 -5.88867 0
M  V30 3665 H 339.153 -3.46316 -4.56879 0
M  V30 3666 H 337.55 -4.20158 -4.28471 0
M  V30 3667 H 338.62 -3.8801 -2.9082 0
M  V30 3668 N 339.963 1.05934 -1.16686 0
M  V30 3669 C 341.188 1.83029 -0.975455 0
M  V30 3670 C 341.613 1.82096 0.471452 0
M  V30 3671 O 340.971 1.22443 1.33706 0
M  V30 3672 C 341.019 3.27372 -1.51195 0
M  V30 3673 O 340.123 4.06054 -0.720701 0
M  V30 3674 H 339.464 0.566194 -0.346872 0
M  V30 3675 H 341.994 1.33541 -1.55009 0
M  V30 3676 H 342.004 3.78186 -1.53099 0
M  V30 3677 H 340.679 3.27366 -2.56523 0
M  V30 3678 H 339.256 3.64812 -0.772458 0
M  V30 3679 N 341.441 0.965919 1.2453 0
M  V30 3680 C 342.857 0.67216 1.44756 0
M  V30 3681 C 343.057 -0.766609 1.86347 0
M  V30 3682 O 342.113 -1.5407 2.00047 0
M  V30 3683 C 343.426 1.65473 2.51076 0
M  V30 3684 C 344.974 1.66716 2.64905 0
M  V30 3685 C 345.449 2.63766 3.74421 0
M  V30 3686 N 346.94 2.62198 3.81846 0
M  V30 3687 C 347.675 3.33966 4.66106 0
M  V30 3688 N 347.171 4.15245 5.54566 0
M  V30 3689 N 348.964 3.22799 4.60171 0
M  V30 3690 H 341.115 1.89553 0.958293 0
M  V30 3691 H 343.378 0.815979 0.482579 0
M  V30 3692 H 343.084 2.68296 2.27399 0
M  V30 3693 H 342.958 1.4261 3.49202 0
M  V30 3694 H 345.345 0.646057 2.87941 0
M  V30 3695 H 345.426 1.93642 1.67142 0
M  V30 3696 H 345.07 3.6601 3.52135 0
M  V30 3697 H 345 2.34121 4.71694 0
M  V30 3698 H 347.491 2.032 3.18619 0
M  V30 3699 H 347.804 4.66898 6.15814 0
M  V30 3700 H 346.149 4.1934 5.54237 0
M  V30 3701 H 349.34 2.58764 3.90075 0
M  V30 3702 H 349.513 3.78994 5.25612 0
M  V30 3703 N 342.919 -1.39368 0.735821 0
M  V30 3704 C 344.147 -2.04795 0.294393 0
M  V30 3705 C 344.562 -1.55478 -1.07107 0
M  V30 3706 O 343.919 -0.720038 -1.67695 0
M  V30 3707 C 343.97 -3.6035 0.288071 0
M  V30 3708 O 343.691 -4.07852 1.59963 0
M  V30 3709 C 345.192 -4.42976 -0.169422 0
M  V30 3710 H 342.412 -0.658571 0.128551 0
M  V30 3711 H 344.956 -1.78399 0.999701 0
M  V30 3712 H 343.111 -3.85645 -0.368355 0
M  V30 3713 H 343.525 -5.02181 1.51375 0
M  V30 3714 H 344.999 -5.51864 -0.122687 0
M  V30 3715 H 345.476 -4.22068 -1.21472 0
M  V30 3716 H 346.082 -4.22832 0.457469 0
M  V30 3717 N 344.397 -0.483516 -1.5 0
M  V30 3718 C 345.643 0.0593261 -2.03313 0
M  V30 3719 C 345.998 1.36288 -1.35806 0
M  V30 3720 O 345.291 1.85519 -0.478897 0
M  V30 3721 C 345.485 0.286226 -3.56252 0
M  V30 3722 C 345.314 -0.993788 -4.38582 0
M  V30 3723 C 344.084 -1.54064 -4.81241 0
M  V30 3724 C 346.282 -1.89249 -4.78215 0
M  V30 3725 N 344.264 -2.76838 -5.47936 0
M  V30 3726 C 345.635 -2.96606 -5.44449 0
M  V30 3727 C 347.69 -1.90138 -4.60165 0
M  V30 3728 C 346.393 -4.04857 -5.94544 0
M  V30 3729 C 348.419 -2.97353 -5.1121 0
M  V30 3730 C 347.781 -4.03429 -5.77429 0
M  V30 3731 H 343.88 -0.0186322 -0.781778 0
M  V30 3732 H 346.464 -0.654489 -1.8337 0
M  V30 3733 H 344.635 0.969086 -3.76116 0
M  V30 3734 H 346.367 0.824515 -3.96212 0
M  V30 3735 H 343.122 -1.08813 -4.6093 0
M  V30 3736 H 343.546 -3.39221 -5.85882 0
M  V30 3737 H 348.188 -1.09441 -4.0839 0
M  V30 3738 H 345.906 -4.86363 -6.4535 0
M  V30 3739 H 349.492 -2.99039 -4.99066 0
M  V30 3740 H 348.372 -4.85025 -6.16214 0
M  V30 3741 N 345.875 1.56104 -0.216619 0
M  V30 3742 C 346.823 2.21434 0.712036 0
M  V30 3743 C 347.817 1.19218 1.20348 0
M  V30 3744 O 349.023 1.3731 1.16387 0
M  V30 3745 H 345.398 0.70992 0.248026 0
M  V30 3746 H 347.369 2.98083 0.137558 0
M  V30 3747 C 346.118 2.90434 1.91163 0
M  V30 3748 H 345.441 3.68842 1.54258 0
M  V30 3749 H 346.881 3.39552 2.5393 0
M  V30 3750 C 345.34 1.92635 2.76394 0
M  V30 3751 O 345.87 1.44017 3.74996 0
M  V30 3752 N 344.076 1.60392 2.42328 0
M  V30 3753 H 343.623 2.00122 1.622 0
M  V30 3754 H 343.581 0.952159 2.99635 0
M  V30 3755 N 347.353 -0.0568162 1.57498 0
M  V30 3756 C 348.3 -1.06591 2.04712 0
M  V30 3757 C 349.27 -1.3758 0.930644 0
M  V30 3758 O 350.455 -1.48392 1.19935 0
M  V30 3759 C 347.595 -2.3701 2.50839 0
M  V30 3760 C 346.708 -2.12421 3.76167 0
M  V30 3761 C 345.843 -3.36511 4.11015 0
M  V30 3762 C 344.882 -3.07353 5.2934 0
M  V30 3763 N 344.019 -4.23816 5.59754 0
M  V30 3764 H 348.859 -0.65631 2.90683 0
M  V30 3765 H 346.396 -0.312481 1.43743 0
M  V30 3766 H 348.354 -3.13175 2.7564 0
M  V30 3767 H 346.984 -2.75744 1.67825 0
M  V30 3768 H 346.036 -1.2688 3.58616 0
M  V30 3769 H 347.348 -1.86894 4.62463 0
M  V30 3770 H 346.502 -4.21062 4.36797 0
M  V30 3771 H 345.241 -3.65128 3.23315 0
M  V30 3772 H 344.246 -2.212 5.03339 0
M  V30 3773 H 345.471 -2.80043 6.1867 0
M  V30 3774 H 343.417 -4.52436 4.75014 0
M  V30 3775 H 343.334 -4.01614 6.40501 0
M  V30 3776 H 344.602 -5.0932 5.90096 0
M  V30 3777 N 348.832 -1.54138 -0.328536 0
M  V30 3778 C 349.762 -1.86167 -1.40939 0
M  V30 3779 C 350.743 -0.718044 -1.54202 0
M  V30 3780 O 351.928 -0.971328 -1.68163 0
M  V30 3781 C 349.058 -2.08461 -2.77779 0
M  V30 3782 C 348.012 -3.24299 -2.7931 0
M  V30 3783 C 347.338 -3.31955 -4.19178 0
M  V30 3784 C 348.638 -4.62065 -2.43502 0
M  V30 3785 H 350.332 -2.76689 -1.14383 0
M  V30 3786 H 347.878 -1.33132 -0.548806 0
M  V30 3787 H 349.831 -2.29453 -3.53454 0
M  V30 3788 H 348.555 -1.14684 -3.05802 0
M  V30 3789 H 347.214 -3.03187 -2.0609 0
M  V30 3790 H 346.862 -2.35745 -4.44335 0
M  V30 3791 H 346.562 -4.09805 -4.2111 0
M  V30 3792 H 348.086 -3.55175 -4.96672 0
M  V30 3793 H 349.5 -4.8297 -3.08889 0
M  V30 3794 H 347.897 -5.42429 -2.56693 0
M  V30 3795 H 348.967 -4.64652 -1.38659 0
M  V30 3796 N 350.31 0.590341 -1.46126 0
M  V30 3797 C 351.538 1.37504 -1.54597 0
M  V30 3798 C 351.953 1.87897 -0.184447 0
M  V30 3799 O 351.31 1.63192 0.816984 0
M  V30 3800 C 351.361 2.56779 -2.54454 0
M  V30 3801 O 351.082 2.08476 -3.85317 0
M  V30 3802 C 352.583 3.49427 -2.72792 0
M  V30 3803 H 349.803 0.420325 -0.523037 0
M  V30 3804 H 352.347 0.718383 -1.91467 0
M  V30 3805 H 350.502 3.1845 -2.20609 0
M  V30 3806 H 350.916 2.86097 -4.396 0
M  V30 3807 H 352.39 4.29619 -3.466 0
M  V30 3808 H 352.867 4.00876 -1.79429 0
M  V30 3809 H 353.473 2.93598 -3.07702 0
M  V30 3810 N 351.788 1.33704 0.83433 0
M  V30 3811 C 353.034 1.26612 1.59188 0
M  V30 3812 C 353.389 -0.165439 1.91687 0
M  V30 3813 O 352.682 -1.10873 1.56262 0
M  V30 3814 C 352.876 2.07926 2.90692 0
M  V30 3815 C 352.705 3.58844 2.71038 0
M  V30 3816 C 351.475 4.28148 2.68361 0
M  V30 3817 C 353.673 4.53082 2.43353 0
M  V30 3818 N 351.655 5.64987 2.40132 0
M  V30 3819 C 353.026 5.77843 2.24716 0
M  V30 3820 C 355.081 4.42119 2.28987 0
M  V30 3821 C 353.784 6.92877 1.9317 0
M  V30 3822 C 355.81 5.56973 1.98835 0
M  V30 3823 C 355.172 6.80745 1.81012 0
M  V30 3824 H 351.271 0.518517 0.585375 0
M  V30 3825 H 353.855 1.68294 0.979044 0
M  V30 3826 H 352.026 1.68558 3.49918 0
M  V30 3827 H 353.758 1.92568 3.55949 0
M  V30 3828 H 350.513 3.80469 2.82029 0
M  V30 3829 H 350.937 6.37133 2.28889 0
M  V30 3830 H 355.579 3.47058 2.41477 0
M  V30 3831 H 353.297 7.87931 1.79418 0
M  V30 3832 H 356.883 5.50428 1.88468 0
M  V30 3833 H 355.763 7.68115 1.58017 0
M  V30 3834 N 353.266 -1.05314 1.17247 0
M  V30 3835 C 354.196 -2.1498 0.911362 0
M  V30 3836 C 355.177 -1.69471 -0.146169 0
M  V30 3837 O 356.362 -1.942 0.003812 0
M  V30 3838 C 353.492 -3.4472 0.422528 0
M  V30 3839 C 352.446 -4.03789 1.4191 0
M  V30 3840 C 351.772 -5.28858 0.788274 0
M  V30 3841 C 353.072 -4.41418 2.7919 0
M  V30 3842 H 354.766 -2.3708 1.82848 0
M  V30 3843 H 352.312 -1.13938 0.880569 0
M  V30 3844 H 354.265 -4.20787 0.227289 0
M  V30 3845 H 352.989 -3.22269 -0.530123 0
M  V30 3846 H 351.648 -3.2979 1.60106 0
M  V30 3847 H 351.296 -5.02709 -0.171173 0
M  V30 3848 H 350.996 -5.69338 1.45353 0
M  V30 3849 H 352.52 -6.07612 0.603282 0
M  V30 3850 H 353.934 -5.08524 2.64719 0
M  V30 3851 H 352.331 -4.92913 3.42282 0
M  V30 3852 H 353.401 -3.51819 3.33693 0
M  V30 3853 N 354.744 -0.972509 -1.24016 0
M  V30 3854 C 355.972 -0.654803 -1.96265 0
M  V30 3855 C 356.387 0.776708 -1.72083 0
M  V30 3856 O 355.744 1.52171 -1.00748 0
M  V30 3857 C 355.795 -0.92592 -3.49441 0
M  V30 3858 O 355.516 -2.30116 -3.72798 0
M  V30 3859 C 357.017 -0.623068 -4.38899 0
M  V30 3860 H 354.237 -0.243907 -0.6251 0
M  V30 3861 H 356.781 -1.30175 -1.57717 0
M  V30 3862 H 354.936 -0.325108 -3.86033 0
M  V30 3863 H 355.35 -2.38483 -4.67147 0
M  V30 3864 H 356.824 -0.863189 -5.45209 0
M  V30 3865 H 357.301 0.442754 -4.36963 0
M  V30 3866 H 357.907 -1.204 -4.07902 0
M  V30 3867 N 356.222 1.38976 -0.743202 0
M  V30 3868 C 357.633 1.83123 -0.363732 0
M  V30 3869 C 357.984 1.6205 1.10609 0
M  V30 3870 O 357.109 1.11606 1.854 0
M  V30 3871 C 357.704 3.32439 -0.653408 0
M  V30 3872 C 356.263 3.74974 -0.327338 0
M  V30 3873 C 355.41 2.61878 -0.911875 0
M  V30 3874 H 358.361 1.27852 -0.940191 0
M  V30 3875 H 358.382 3.80432 0.0720031 0
M  V30 3876 H 357.894 3.47745 -1.72323 0
M  V30 3877 H 355.995 3.65252 0.736314 0
M  V30 3878 H 356.108 4.72106 -0.815631 0
M  V30 3879 H 354.472 2.52448 -0.337944 0
M  V30 3880 H 355.255 2.79987 -1.98651 0
M  V30 3881 N 357.7 0.491464 1.49741 0
M  V30 3882 C 358.63 -0.28154 2.31796 0
M  V30 3883 C 359.611 -0.971473 1.3963 0
M  V30 3884 O 360.796 -0.964719 1.68543 0
M  V30 3885 C 357.926 -1.35203 3.19902 0
M  V30 3886 C 356.88 -0.782529 4.20786 0
M  V30 3887 C 356.206 -1.95283 4.97764 0
M  V30 3888 C 357.506 0.21999 5.21837 0
M  V30 3889 H 359.2 0.403355 2.96671 0
M  V30 3890 H 356.746 0.195425 1.42668 0
M  V30 3891 H 358.699 -1.90045 3.76113 0
M  V30 3892 H 357.423 -2.06598 2.52953 0
M  V30 3893 H 356.082 -0.255928 3.65706 0
M  V30 3894 H 355.73 -2.65423 4.2727 0
M  V30 3895 H 355.43 -1.57789 5.66018 0
M  V30 3896 H 356.954 -2.50577 5.56816 0
M  V30 3897 H 358.368 -0.23996 5.72798 0
M  V30 3898 H 356.765 0.51026 5.97927 0
M  V30 3899 H 357.835 1.13911 4.7133 0
M  V30 3900 N 359.178 -1.55987 0.224894 0
M  V30 3901 C 360.427 -1.97566 -0.406273 0
M  V30 3902 C 360.74 -1.11569 -1.6066 0
M  V30 3903 O 361.946 -1.43062 -2.3075 0
M  V30 3904 C 360.402 -3.51474 -0.774207 0
M  V30 3905 C 360.01 -4.46179 0.403496 0
M  V30 3906 C 361.754 -4.01758 -1.37079 0
M  V30 3907 C 359.661 -5.91399 0.0129412 0
M  V30 3908 H 358.591 -0.737777 -0.155565 0
M  V30 3909 H 361.242 -1.80659 0.321635 0
M  V30 3910 H 359.624 -3.63994 -1.55963 0
M  V30 3911 H 360.798 -4.45409 1.18101 0
M  V30 3912 H 359.113 -4.06255 0.913536 0
M  V30 3913 H 361.71 -5.07756 -1.67596 0
M  V30 3914 H 362.053 -3.47805 -2.28773 0
M  V30 3915 H 362.586 -3.92475 -0.648733 0
M  V30 3916 H 359.325 -6.49341 0.896451 0
M  V30 3917 H 358.845 -5.95356 -0.728821 0
M  V30 3918 H 360.524 -6.45683 -0.412582 0
M  V30 3919 N 360.656 0.0484629 -1.57525 0
M  V30 3920 C 362.067 0.597486 -1.76881 0
M  V30 3921 C 362.418 1.76664 -0.853475 0
M  V30 3922 O 361.543 2.16357 -0.0433656 0
M  V30 3923 C 362.138 1.09066 -3.20765 0
M  V30 3924 C 360.697 1.58535 -3.41385 0
M  V30 3925 C 359.844 0.514868 -2.72478 0
M  V30 3926 H 362.795 -0.177758 -1.57701 0
M  V30 3927 H 362.816 1.95875 -3.2621 0
M  V30 3928 H 362.328 0.239521 -3.8736 0
M  V30 3929 H 360.429 2.45898 -2.79937 0
M  V30 3930 H 360.542 1.64622 -4.49929 0
M  V30 3931 H 358.906 0.965407 -2.35695 0
M  V30 3932 H 359.689 -0.32648 -3.41744 0
M  V30 3933 N 362.134 1.5431 0.320358 0
M  V30 3934 C 363.359 1.76954 1.08175 0
M  V30 3935 C 363.784 0.518193 1.80821 0
M  V30 3936 O 363.142 -0.530411 1.73368 0
M  V30 3937 C 363.19 2.96451 2.05303 0
M  V30 3938 O 362.294 2.68221 3.13259 0
M  V30 3939 H 361.635 0.586275 0.311733 0
M  V30 3940 H 364.165 2.01342 0.363676 0
M  V30 3941 H 364.175 3.23887 2.48116 0
M  V30 3942 H 362.85 3.87196 1.51829 0
M  V30 3943 H 361.427 2.51744 2.75099 0
M  V30 3944 N 363.613 -0.582584 1.46437 0
M  V30 3945 C 364.841 -1.36682 1.55324 0
M  V30 3946 C 365.256 -1.87796 0.194409 0
M  V30 3947 O 364.613 -1.63623 -0.808318 0
M  V30 3948 C 364.664 -2.55426 2.55812 0
M  V30 3949 O 364.385 -2.0643 3.86417 0
M  V30 3950 C 365.886 -3.47976 2.74641 0
M  V30 3951 H 363.106 -0.417545 0.525259 0
M  V30 3952 H 365.65 -0.708219 1.91845 0
M  V30 3953 H 363.805 -3.17275 2.22295 0
M  V30 3954 H 364.219 -2.83762 4.41111 0
M  V30 3955 H 365.693 -4.27775 3.48874 0
M  V30 3956 H 366.17 -3.99919 1.81553 0
M  V30 3957 H 366.776 -2.91962 3.09255 0
M  V30 3958 N 365.091 -1.34144 -0.827227 0
M  V30 3959 C 366.021 -1.28005 -1.95287 0
M  V30 3960 C 367.002 -0.158321 -1.69362 0
M  V30 3961 O 368.187 -0.349987 -1.9102 0
M  V30 3962 C 365.317 -1.03036 -3.31664 0
M  V30 3963 C 364.271 -2.11628 -3.72019 0
M  V30 3964 C 363.597 -1.71854 -5.0633 0
M  V30 3965 C 364.897 -3.53417 -3.8457 0
M  V30 3966 H 366.591 -2.22187 -2.00682 0
M  V30 3967 H 364.137 -1.0696 -0.964135 0
M  V30 3968 H 366.09 -0.973863 -4.09993 0
M  V30 3969 H 364.814 -0.0529391 -3.26557 0
M  V30 3970 H 363.473 -2.16339 -2.95961 0
M  V30 3971 H 363.121 -0.727841 -4.97706 0
M  V30 3972 H 362.821 -2.44531 -5.34302 0
M  V30 3973 H 364.345 -1.67692 -5.87122 0
M  V30 3974 H 365.759 -3.51142 -4.5318 0
M  V30 3975 H 364.156 -4.24679 -4.2399 0
M  V30 3976 H 365.226 -3.91072 -2.86689 0
M  V30 3977 N 366.569 1.04691 -1.17803 0
M  V30 3978 C 367.499 2.14494 -0.92275 0
M  V30 3979 C 368.48 1.69546 0.137179 0
M  V30 3980 O 369.665 1.94195 -0.0141108 0
M  V30 3981 C 366.795 3.44491 -0.440803 0
M  V30 3982 C 365.749 4.03031 -1.4405 0
M  V30 3983 C 365.075 5.28432 -0.81631 0
M  V30 3984 C 366.375 4.39932 -2.81527 0
M  V30 3985 H 368.069 2.36107 -1.84103 0
M  V30 3986 H 365.615 1.1347 -0.886599 0
M  V30 3987 H 367.568 4.2066 -0.249602 0
M  V30 3988 H 366.292 3.22546 0.513025 0
M  V30 3989 H 364.951 3.28937 -1.61853 0
M  V30 3990 H 364.599 5.02792 0.144511 0
M  V30 3991 H 364.299 5.68559 -1.48371 0
M  V30 3992 H 365.823 6.07284 -0.635496 0
M  V30 3993 H 367.237 5.07113 -2.67412 0
M  V30 3994 H 365.634 4.9109 -3.44892 0
M  V30 3995 H 366.704 3.50045 -3.35554 0
M  V30 3996 N 368.047 0.979072 1.23499 0
M  V30 3997 C 369.272 0.664845 1.96455 0
M  V30 3998 C 369.697 -0.761287 1.72006 0
M  V30 3999 O 369.055 -1.51837 0.990713 0
M  V30 4000 C 369.103 0.959479 3.47601 0
M  V30 4001 O 368.207 0.0508168 4.12369 0
M  V30 4002 H 367.548 0.250185 0.615064 0
M  V30 4003 H 370.078 1.31231 1.5697 0
M  V30 4004 H 370.088 0.895642 3.98048 0
M  V30 4005 H 368.763 1.99876 3.64723 0
M  V30 4006 H 367.34 0.16895 3.72517 0
M  V30 4007 N 369.525 -1.3858 0.750561 0
M  V30 4008 C 370.455 -2.33102 0.136237 0
M  V30 4009 C 371.436 -1.54713 -0.706965 0
M  V30 4010 O 372.621 -1.83043 -0.648769 0
M  V30 4011 C 369.751 -3.38882 -0.760017 0
M  V30 4012 C 368.705 -4.27995 -0.0197785 0
M  V30 4013 C 368.031 -5.24605 -1.03408 0
M  V30 4014 C 369.331 -5.09554 1.14684 0
M  V30 4015 H 371.025 -2.84726 0.925822 0
M  V30 4016 H 368.571 -1.36898 0.446654 0
M  V30 4017 H 370.524 -4.0397 -1.19943 0
M  V30 4018 H 369.248 -2.85734 -1.58189 0
M  V30 4019 H 367.907 -3.64409 0.400184 0
M  V30 4020 H 367.555 -4.67746 -1.84994 0
M  V30 4021 H 367.255 -5.85081 -0.543464 0
M  V30 4022 H 368.779 -5.9257 -1.47288 0
M  V30 4023 H 370.193 -5.67899 0.785118 0
M  V30 4024 H 368.59 -5.7925 1.56812 0
M  V30 4025 H 369.66 -4.4347 1.96118 0
M  V30 4026 N 371.003 -0.499398 -1.49478 0
M  V30 4027 C 372.251 0.0455996 -2.02049 0
M  V30 4028 C 372.572 1.37633 -1.38138 0
M  V30 4029 O 371.842 1.8842 -0.536166 0
M  V30 4030 H 370.422 0.0198416 -0.746736 0
M  V30 4031 H 373.084 -0.656274 -1.83519 0
M  V30 4032 H 372.18 0.176445 -3.11601 0
M  V30 4033 N 372.481 1.55866 -0.233164 0
M  V30 4034 C 373.729 1.9821 0.394593 0
M  V30 4035 C 374.05 1.12234 1.59463 0
M  V30 4036 O 373.32 0.201981 1.94856 0
M  V30 4037 H 371.9 0.732034 0.148778 0
M  V30 4038 H 374.562 1.92107 -0.32876 0
M  V30 4039 H 373.658 3.03845 0.713063 0
M  V30 4040 N 373.959 -0.0401083 1.57549 0
M  V30 4041 C 374.889 -1.04384 2.08869 0
M  V30 4042 C 375.87 -1.38407 0.988817 0
M  V30 4043 O 377.055 -1.47483 1.26342 0
M  V30 4044 C 374.185 -2.34808 2.55895 0
M  V30 4045 C 373.139 -2.15057 3.70047 0
M  V30 4046 C 372.465 -3.51145 4.03239 0
M  V30 4047 C 373.765 -1.54576 4.98902 0
M  V30 4048 H 375.459 -0.616666 2.92981 0
M  V30 4049 H 373.005 -0.295184 1.40942 0
M  V30 4050 H 374.958 -3.05346 2.90417 0
M  V30 4051 H 373.682 -2.79565 1.68853 0
M  V30 4052 H 372.341 -1.46954 3.35857 0
M  V30 4053 H 371.989 -3.93529 3.13279 0
M  V30 4054 H 371.689 -3.38758 4.80122 0
M  V30 4055 H 373.213 -4.23062 4.40285 0
M  V30 4056 H 374.627 -2.15017 5.31451 0
M  V30 4057 H 373.024 -1.52796 5.80322 0
M  V30 4058 H 374.094 -0.51039 4.82206 0
M  V30 4059 N 375.437 -1.54477 -0.31217 0
M  V30 4060 C 376.848 -1.64344 -0.885891 0
M  V30 4061 C 377.199 -0.54485 -1.88483 0
M  V30 4062 O 376.324 0.320387 -2.14015 0
M  V30 4063 C 376.919 -2.97908 -1.61357 0
M  V30 4064 C 375.478 -3.09933 -2.13585 0
M  V30 4065 C 374.625 -2.59971 -0.964897 0
M  V30 4066 H 377.576 -1.58448 -0.0894528 0
M  V30 4067 H 377.597 -2.88706 -2.47848 0
M  V30 4068 H 377.109 -3.77845 -0.886277 0
M  V30 4069 H 375.21 -2.34694 -2.89395 0
M  V30 4070 H 375.323 -4.15916 -2.37804 0
M  V30 4071 H 373.687 -2.16147 -1.34731 0
M  V30 4072 H 374.47 -3.42376 -0.251742 0
M  V30 4073 N 376.915 0.57481 -1.46744 0
M  V30 4074 C 378.326 1.15695 -1.46532 0
M  V30 4075 C 378.677 1.95068 -0.210425 0
M  V30 4076 O 377.802 2.05241 0.685944 0
M  V30 4077 C 378.397 2.1048 -2.65487 0
M  V30 4078 C 376.956 2.64002 -2.68291 0
M  V30 4079 C 376.103 1.40026 -2.39349 0
M  V30 4080 H 379.054 0.362325 -1.54509 0
M  V30 4081 H 379.075 2.94074 -2.41455 0
M  V30 4082 H 378.587 1.52683 -3.56805 0
M  V30 4083 H 376.688 3.25646 -1.81067 0
M  V30 4084 H 376.801 3.06197 -3.68483 0
M  V30 4085 H 375.165 1.70106 -1.89568 0
M  V30 4086 H 375.948 0.840485 -3.32852 0
M  V30 4087 N 378.394 1.34581 0.820102 0
M  V30 4088 C 379.324 1.29038 1.94606 0
M  V30 4089 C 380.305 0.1673 1.69275 0
M  V30 4090 O 381.49 0.360112 1.90832 0
M  V30 4091 C 378.62 1.04793 3.31113 0
M  V30 4092 C 377.574 2.13597 3.70891 0
M  V30 4093 C 376.9 1.74537 5.05412 0
M  V30 4094 C 378.2 3.55451 3.8269 0
M  V30 4095 H 379.894 2.23248 1.99501 0
M  V30 4096 H 377.44 1.0747 0.958449 0
M  V30 4097 H 379.393 0.995592 4.0947 0
M  V30 4098 H 378.117 0.0702565 3.26524 0
M  V30 4099 H 376.776 2.17905 2.9481 0
M  V30 4100 H 376.424 0.754226 4.97313 0
M  V30 4101 H 376.124 2.47361 5.32997 0
M  V30 4102 H 377.648 1.70803 5.86224 0
M  V30 4103 H 379.062 3.5354 4.51312 0
M  V30 4104 H 377.459 4.26922 4.21732 0
M  V30 4105 H 378.529 3.92587 2.84611 0
M  V30 4106 N 379.872 -1.04064 1.18357 0
M  V30 4107 C 381.1 -1.80916 1.00384 0
M  V30 4108 C 381.515 -1.83414 -0.447738 0
M  V30 4109 O 380.872 -1.26962 -1.31099 0
M  V30 4110 C 380.923 -3.26516 1.55144 0
M  V30 4111 O 380.644 -3.2424 2.94618 0
M  V30 4112 C 382.145 -4.20013 1.41789 0
M  V30 4113 H 379.365 -0.569728 0.354474 0
M  V30 4114 H 381.909 -1.31151 1.56906 0
M  V30 4115 H 380.064 -3.73512 1.02798 0
M  V30 4116 H 380.478 -4.15452 3.20156 0
M  V30 4117 H 381.952 -5.20111 1.84901 0
M  V30 4118 H 382.429 -4.37667 0.36661 0
M  V30 4119 H 383.035 -3.78881 1.93207 0
M  V30 4120 N 381.35 -0.985608 -1.22978 0
M  V30 4121 C 382.598 -0.656087 -1.91154 0
M  V30 4122 C 382.919 0.813561 -1.77218 0
M  V30 4123 O 382.189 1.58244 -1.1548 0
M  V30 4124 H 380.769 -0.239674 -0.707506 0
M  V30 4125 H 383.431 -1.25054 -1.49491 0
M  V30 4126 H 382.527 -0.912253 -2.9847 0
M  V30 4127 N 382.828 1.3818 -0.7579 0
M  V30 4128 C 384.075 2.00019 -0.315985 0
M  V30 4129 C 384.403 1.60163 1.10355 0
M  V30 4130 O 383.658 0.83264 1.77103 0
M  V30 4131 C 383.957 3.55252 -0.391218 0
M  V30 4132 C 383.623 4.14834 -1.76702 0
M  V30 4133 C 382.285 4.30821 -2.14353 0
M  V30 4134 C 384.637 4.47658 -2.66931 0
M  V30 4135 C 381.965 4.76928 -3.41696 0
M  V30 4136 C 384.317 4.95184 -3.93669 0
M  V30 4137 C 382.981 5.09377 -4.31383 0
M  V30 4138 H 382.251 0.731923 -0.115627 0
M  V30 4139 H 384.898 1.65161 -0.969223 0
M  V30 4140 H 383.203 3.90273 0.34558 0
M  V30 4141 H 384.9 4.00988 -0.030805 0
M  V30 4142 H 381.49 4.02808 -1.46435 0
M  V30 4143 H 385.674 4.34904 -2.39106 0
M  V30 4144 H 380.93 4.86103 -3.70829 0
M  V30 4145 H 385.104 5.19551 -4.63724 0
M  V30 4146 H 382.731 5.44865 -5.30119 0
M  V30 4147 N 384.306 0.507319 1.49211 0
M  V30 4148 C 385.236 -0.256939 2.32082 0
M  V30 4149 C 386.217 -0.956609 1.40652 0
M  V30 4150 O 387.402 -0.946788 1.69557 0
M  V30 4151 C 384.532 -1.31802 3.21318 0
M  V30 4152 C 383.486 -0.737855 4.21592 0
M  V30 4153 C 382.812 -1.89992 4.99807 0
M  V30 4154 C 384.112 0.275325 5.21574 0
M  V30 4155 H 385.806 0.434798 2.96226 0
M  V30 4156 H 383.352 0.210546 1.42452 0
M  V30 4157 H 385.305 -1.86045 3.78107 0
M  V30 4158 H 384.029 -2.03903 2.5513 0
M  V30 4159 H 382.688 -0.217126 3.65956 0
M  V30 4160 H 382.336 -2.60877 4.30061 0
M  V30 4161 H 382.036 -1.51777 5.6766 0
M  V30 4162 H 383.56 -2.44657 5.59442 0
M  V30 4163 H 384.974 -0.179193 5.7302 0
M  V30 4164 H 383.371 0.573649 5.97352 0
M  V30 4165 H 384.441 1.18903 4.70096 0
M  V30 4166 N 385.784 -1.5574 0.241426 0
M  V30 4167 C 387.195 -1.84842 -0.262755 0
M  V30 4168 C 387.546 -1.16317 -1.58003 0
M  V30 4169 O 386.671 -0.439653 -2.11887 0
M  V30 4170 C 387.266 -3.35332 -0.483523 0
M  V30 4171 C 385.825 -3.6468 -0.931977 0
M  V30 4172 C 384.972 -2.77299 -0.0061151 0
M  V30 4173 H 387.923 -1.51761 0.464129 0
M  V30 4174 H 387.944 -3.56615 -1.32688 0
M  V30 4175 H 387.456 -3.85178 0.47537 0
M  V30 4176 H 385.557 -3.20307 -1.90353 0
M  V30 4177 H 385.67 -4.72498 -0.792628 0
M  V30 4178 H 384.034 -2.49408 -0.516503 0
M  V30 4179 H 384.817 -3.2995 0.948052 0
M  V30 4180 N 387.262 0.0317525 -1.57568 0
M  V30 4181 C 388.209 1.0332 -2.06382 0
M  V30 4182 C 389.179 1.36082 -0.952414 0
M  V30 4183 O 390.364 1.46466 -1.2228 0
M  V30 4184 C 387.504 2.32989 -2.54578 0
M  V30 4185 C 386.617 2.0641 -3.79498 0
M  V30 4186 C 385.752 3.2993 -4.16317 0
M  V30 4187 C 384.791 2.98893 -5.34162 0
M  V30 4188 N 383.928 4.14857 -5.66426 0
M  V30 4189 H 388.768 0.609982 -2.9169 0
M  V30 4190 H 386.305 0.289573 -1.44222 0
M  V30 4191 H 388.263 3.0875 -2.80587 0
M  V30 4192 H 386.893 2.73039 -1.7219 0
M  V30 4193 H 385.945 1.21158 -3.6059 0
M  V30 4194 H 387.257 1.79513 -4.65378 0
M  V30 4195 H 386.411 4.1406 -4.4344 0
M  V30 4196 H 385.15 3.59938 -3.29083 0
M  V30 4197 H 384.155 2.13164 -5.06795 0
M  V30 4198 H 385.38 2.70165 -6.23047 0
M  V30 4199 H 383.326 4.44821 -4.82151 0
M  V30 4200 H 383.243 3.91374 -6.4681 0
M  V30 4201 H 384.511 4.99868 -5.98124 0
M  V30 4202 N 388.74 1.54641 0.303973 0
M  V30 4203 C 389.986 1.74969 1.03718 0
M  V30 4204 C 390.341 0.527461 1.85029 0
M  V30 4205 O 389.634 -0.480143 1.85486 0
M  V30 4206 C 389.828 2.97753 1.97681 0
M  V30 4207 C 389.657 4.318 1.25613 0
M  V30 4208 C 388.427 4.95616 0.984518 0
M  V30 4209 C 390.625 5.10021 0.662081 0
M  V30 4210 N 388.607 6.13455 0.233794 0
M  V30 4211 C 389.978 6.19984 0.0439736 0
M  V30 4212 C 392.033 4.94663 0.566835 0
M  V30 4213 C 390.736 7.16264 -0.66016 0
M  V30 4214 C 392.762 5.91271 -0.123637 0
M  V30 4215 C 392.124 7.00601 -0.730608 0
M  V30 4216 H 388.223 0.692873 0.362562 0
M  V30 4217 H 390.807 1.92116 0.316135 0
M  V30 4218 H 388.978 2.82036 2.6704 0
M  V30 4219 H 390.71 3.06621 2.64132 0
M  V30 4220 H 387.465 4.55921 1.28191 0
M  V30 4221 H 387.889 6.76879 -0.127996 0
M  V30 4222 H 392.531 4.10267 1.02181 0
M  V30 4223 H 390.249 8.00204 -1.12691 0
M  V30 4224 H 393.835 5.81466 -0.197236 0
M  V30 4225 H 392.715 7.7407 -1.2564 0
M  V30 4226 N 390.218 -0.567019 1.47046 0
M  V30 4227 C 391.181 -1.65696 1.58359 0
M  V30 4228 C 392.181 -1.54097 0.459441 0
M  V30 4229 O 393.371 -1.58432 0.724225 0
M  V30 4230 C 390.503 -3.05197 1.51879 0
M  V30 4231 H 391.696 -1.57019 2.5551 0
M  V30 4232 H 389.249 -0.786148 1.3509 0
M  V30 4233 H 389.984 -3.19417 0.560673 0
M  V30 4234 H 389.769 -3.15025 2.33455 0
M  V30 4235 H 391.259 -3.84511 1.62913 0
M  V30 4236 N 391.696 -1.35014 -0.812953 0
M  V30 4237 C 392.945 -1.27269 -1.56479 0
M  V30 4238 C 393.258 0.152771 -1.95002 0
M  V30 4239 O 394.464 0.352451 -2.69203 0
M  V30 4240 C 392.92 -2.23159 -2.82362 0
M  V30 4241 C 392.528 -3.71016 -2.511 0
M  V30 4242 C 394.272 -2.24342 -3.60376 0
M  V30 4243 C 392.179 -4.58746 -3.73237 0
M  V30 4244 H 391.109 -0.472829 -0.587324 0
M  V30 4245 H 393.76 -1.6024 -0.894171 0
M  V30 4246 H 392.142 -1.83151 -3.51101 0
M  V30 4247 H 393.316 -4.1962 -1.90409 0
M  V30 4248 H 391.631 -3.72378 -1.86343 0
M  V30 4249 H 394.228 -2.87107 -4.51081 0
M  V30 4250 H 394.571 -1.24542 -3.97234 0
M  V30 4251 H 395.104 -2.62846 -2.98591 0
M  V30 4252 H 391.843 -5.59521 -3.41492 0
M  V30 4253 H 391.363 -4.14871 -4.33176 0
M  V30 4254 H 393.042 -4.73852 -4.40537 0
M  V30 4255 N 393.175 1.03435 -1.18907 0
M  V30 4256 C 394.424 1.76143 -0.982669 0
M  V30 4257 C 394.737 1.89416 0.487953 0
M  V30 4258 O 395.943 2.59041 0.813036 0
M  V30 4259 C 394.399 3.16722 -1.70924 0
M  V30 4260 C 394.007 3.11522 -3.21959 0
M  V30 4261 C 395.751 3.93764 -1.58588 0
M  V30 4262 C 393.658 4.46999 -3.87228 0
M  V30 4263 H 392.588 0.660292 -0.364047 0
M  V30 4264 H 395.239 1.158 -1.42347 0
M  V30 4265 H 393.621 3.775 -1.19623 0
M  V30 4266 H 394.795 2.60158 -3.80335 0
M  V30 4267 H 393.11 2.47978 -3.34508 0
M  V30 4268 H 395.707 4.93963 -2.04707 0
M  V30 4269 H 396.05 4.12794 -0.539142 0
M  V30 4270 H 396.583 3.39576 -2.07203 0
M  V30 4271 H 393.322 4.33174 -4.91976 0
M  V30 4272 H 392.842 4.98441 -3.33642 0
M  V30 4273 H 394.521 5.15898 -3.90459 0
M  V30 4274 N 394.653 0.992116 1.22453 0
M  V30 4275 C 395.563 0.55065 2.28046 0
M  V30 4276 C 396.579 -0.400189 1.69335 0
M  V30 4277 O 397.755 -0.267215 1.99619 0
M  V30 4278 C 394.82 -0.128496 3.46462 0
M  V30 4279 C 393.881 0.865208 4.20491 0
M  V30 4280 C 393.114 0.218377 5.33253 0
M  V30 4281 O 393.337 -0.987894 5.6178 0
M  V30 4282 O 392.271 0.922845 5.94783 0
M  V30 4283 H 396.097 1.4291 2.67975 0
M  V30 4284 H 393.682 0.760326 1.28606 0
M  V30 4285 H 395.564 -0.508947 4.18315 0
M  V30 4286 H 394.239 -0.981526 3.0846 0
M  V30 4287 H 393.146 1.29658 3.50913 0
M  V30 4288 H 394.479 1.68741 4.62371 0
M  V30 4289 N 396.131 -1.37776 0.765217 0
M  V30 4290 C 397.041 -2.34135 0.147666 0
M  V30 4291 C 398.057 -1.59854 -0.687215 0
M  V30 4292 O 399.233 -1.91983 -0.608659 0
M  V30 4293 C 396.298 -3.3901 -0.72617 0
M  V30 4294 C 395.359 -4.2912 0.124417 0
M  V30 4295 C 394.592 -5.28986 -0.707807 0
M  V30 4296 O 394.815 -5.36205 -1.94525 0
M  V30 4297 O 393.749 -6.01779 -0.12046 0
M  V30 4298 H 397.575 -2.88664 0.943758 0
M  V30 4299 H 395.16 -1.39824 0.526277 0
M  V30 4300 H 397.042 -4.03195 -1.22524 0
M  V30 4301 H 395.717 -2.86819 -1.50056 0
M  V30 4302 H 394.624 -3.68057 0.669696 0
M  V30 4303 H 395.957 -4.84598 0.861736 0
M  V30 4304 N 397.609 -0.515225 -1.4894 0
M  V30 4305 C 398.856 0.024215 -2.02486 0
M  V30 4306 C 399.184 1.35671 -1.39368 0
M  V30 4307 O 398.439 1.88566 -0.523574 0
M  V30 4308 C 398.738 0.210595 -3.56779 0
M  V30 4309 C 398.404 -1.04569 -4.38607 0
M  V30 4310 C 397.066 -1.39002 -4.60686 0
M  V30 4311 C 399.418 -1.88008 -4.86109 0
M  V30 4312 C 396.746 -2.568 -5.27514 0
M  V30 4313 C 399.098 -3.04972 -5.54234 0
M  V30 4314 C 397.762 -3.39768 -5.74555 0
M  V30 4315 H 397.032 0.00886088 -0.740947 0
M  V30 4316 H 399.679 -0.678263 -1.79086 0
M  V30 4317 H 397.984 0.99572 -3.78936 0
M  V30 4318 H 399.681 0.642659 -3.95817 0
M  V30 4319 H 396.271 -0.767497 -4.21672 0
M  V30 4320 H 400.455 -1.62719 -4.68867 0
M  V30 4321 H 395.711 -2.8398 -5.41447 0
M  V30 4322 H 399.885 -3.69943 -5.90013 0
M  V30 4323 H 397.512 -4.31148 -6.26112 0
M  V30 4324 N 399.087 1.5561 -0.249682 0
M  V30 4325 C 400.315 2.03411 0.378352 0
M  V30 4326 C 400.73 1.12886 1.51335 0
M  V30 4327 O 400.087 0.143833 1.81932 0
M  V30 4328 C 400.138 3.50537 0.88351 0
M  V30 4329 O 399.859 4.37614 -0.20626 0
M  V30 4330 C 401.36 4.14113 1.58195 0
M  V30 4331 H 398.58 0.664994 0.08958 0
M  V30 4332 H 401.124 2.01044 -0.374357 0
M  V30 4333 H 399.279 3.5343 1.58639 0
M  V30 4334 H 399.693 5.24199 0.177782 0
M  V30 4335 H 401.167 5.18741 1.8871 0
M  V30 4336 H 401.644 3.60767 2.50487 0
M  V30 4337 H 402.25 4.15151 0.923573 0
M  V30 4338 N 400.565 -0.0233959 1.57583 0
M  V30 4339 C 401.512 -1.02224 2.06927 0
M  V30 4340 C 402.482 -1.35575 0.959617 0
M  V30 4341 O 403.667 -1.45815 1.23055 0
M  V30 4342 C 400.807 -2.31636 2.5581 0
M  V30 4343 C 399.92 -2.04394 3.80588 0
M  V30 4344 C 399.055 -3.27717 4.18061 0
M  V30 4345 C 398.094 -2.96056 5.3574 0
M  V30 4346 N 397.231 -4.11847 5.68618 0
M  V30 4347 H 402.071 -0.594504 2.9201 0
M  V30 4348 H 399.608 -0.281921 1.44373 0
M  V30 4349 H 401.566 -3.07258 2.82221 0
M  V30 4350 H 400.196 -2.72122 1.73636 0
M  V30 4351 H 399.248 -1.19244 3.61227 0
M  V30 4352 H 400.56 -1.77042 4.66323 0
M  V30 4353 H 399.714 -4.11702 4.4563 0
M  V30 4354 H 398.453 -3.58188 3.30988 0
M  V30 4355 H 397.458 -2.10474 5.07918 0
M  V30 4356 H 398.683 -2.66857 6.24471 0
M  V30 4357 H 396.629 -4.42258 4.84504 0
M  V30 4358 H 396.546 -3.87938 6.48876 0
M  V30 4359 H 397.814 -4.96689 6.00766 0
M  V30 4360 N 402.043 -1.548 -0.295768 0
M  V30 4361 C 402.991 -1.86874 -1.38495 0
M  V30 4362 C 403.985 -0.742938 -1.52239 0
M  V30 4363 O 405.191 -0.926999 -1.54294 0
M  V30 4364 H 401.566 -0.592786 -0.462719 0
M  V30 4365 H 403.537 -2.77904 -1.08682 0
M  V30 4366 C 402.286 -2.13732 -2.74252 0
M  V30 4367 H 401.609 -2.99835 -2.64459 0
M  V30 4368 H 403.049 -2.4011 -3.49461 0
M  V30 4369 C 401.508 -0.937539 -3.23592 0
M  V30 4370 O 402.038 -0.160665 -4.01379 0
M  V30 4371 N 400.244 -0.741478 -2.80981 0
M  V30 4372 H 399.791 -1.37489 -2.1784 0
M  V30 4373 H 399.749 0.0597103 -3.14343 0
M  V30 4374 N 403.521 0.559213 -1.47345 0
M  V30 4375 C 404.469 1.68747 -1.60085 0
M  V30 4376 C 405.463 1.628 -0.46825 0
M  V30 4377 O 406.669 1.68009 -0.645977 0
M  V30 4378 H 403.044 0.558329 -0.503759 0
M  V30 4379 H 405.015 1.55138 -2.54902 0
M  V30 4380 C 403.764 3.07103 -1.63042 0
M  V30 4381 H 403.087 3.12361 -2.49541 0
M  V30 4382 H 404.527 3.85743 -1.76006 0
M  V30 4383 C 402.986 3.34935 -0.363357 0
M  V30 4384 O 403.516 3.98102 0.536416 0
M  V30 4385 N 401.722 2.89574 -0.244 0
M  V30 4386 H 401.269 2.38348 -0.977133 0
M  V30 4387 H 401.227 3.08566 0.602836 0
M  V30 4388 N 404.999 1.35443 0.805782 0
M  V30 4389 C 406.224 1.32037 1.59941 0
M  V30 4390 C 406.649 -0.0994215 1.87837 0
M  V30 4391 O 406.007 -1.06648 1.46615 0
M  V30 4392 C 406.055 2.13354 2.90711 0
M  V30 4393 O 405.159 1.5148 3.83572 0
M  V30 4394 H 404.5 0.452666 0.485787 0
M  V30 4395 H 407.03 1.78496 1.00002 0
M  V30 4396 H 407.04 2.25338 3.40128 0
M  V30 4397 H 405.715 3.16572 2.69732 0
M  V30 4398 H 404.292 1.4834 3.42125 0
M  V30 4399 N 406.477 -1.02803 1.19454 0
M  V30 4400 C 407.407 -2.12999 0.956758 0
M  V30 4401 C 408.388 -1.69743 -0.110188 0
M  V30 4402 O 409.573 -1.94148 0.0450038 0
M  V30 4403 C 406.703 -3.43746 0.495553 0
M  V30 4404 C 405.657 -4.00688 1.50443 0
M  V30 4405 C 404.983 -5.27067 0.900275 0
M  V30 4406 C 406.283 -4.35397 2.8849 0
M  V30 4407 H 407.977 -2.33148 1.87836 0
M  V30 4408 H 405.523 -1.12045 0.904539 0
M  V30 4409 H 407.476 -4.2021 0.316493 0
M  V30 4410 H 406.2 -3.23321 -0.461646 0
M  V30 4411 H 404.859 -3.2632 1.67065 0
M  V30 4412 H 404.507 -5.02959 -0.064503 0
M  V30 4413 H 404.207 -5.66127 1.57397 0
M  V30 4414 H 405.731 -6.06196 0.73203 0
M  V30 4415 H 407.145 -5.02795 2.75446 0
M  V30 4416 H 405.542 -4.85541 3.52661 0
M  V30 4417 H 406.612 -3.44662 3.41081 0
M  V30 4418 N 407.956 -0.998596 -1.21925 0
M  V30 4419 C 409.205 -0.673085 -1.90138 0
M  V30 4420 C 409.518 0.79895 -1.78539 0
M  V30 4421 O 410.724 1.23628 -2.4172 0
M  V30 4422 C 409.18 -1.15339 -3.40918 0
M  V30 4423 C 408.788 -2.65106 -3.61141 0
M  V30 4424 C 410.532 -0.902476 -4.14796 0
M  V30 4425 C 408.439 -3.0671 -5.05651 0
M  V30 4426 H 407.369 -0.248057 -0.712028 0
M  V30 4427 H 410.02 -1.20891 -1.38049 0
M  V30 4428 H 408.402 -0.545658 -3.92223 0
M  V30 4429 H 409.576 -3.31274 -3.20304 0
M  V30 4430 H 407.891 -2.88142 -3.00605 0
M  V30 4431 H 410.488 -1.18895 -5.21314 0
M  V30 4432 H 410.831 0.161349 -4.15987 0
M  V30 4433 H 411.364 -1.47269 -3.69536 0
M  V30 4434 H 408.103 -4.12292 -5.09603 0
M  V30 4435 H 407.623 -2.45249 -5.47369 0
M  V30 4436 H 409.302 -2.9833 -5.74115 0
M  V30 4437 N 409.434 1.37368 -0.772513 0
M  V30 4438 C 410.683 1.98918 -0.333861 0
M  V30 4439 C 410.996 1.62017 1.09589 0
M  V30 4440 O 412.202 2.16676 1.63596 0
M  V30 4441 C 410.658 3.55735 -0.545971 0
M  V30 4442 C 410.266 4.01573 -1.98603 0
M  V30 4443 C 412.01 4.24156 -0.170979 0
M  V30 4444 C 409.917 5.51102 -2.1457 0
M  V30 4445 H 408.847 0.744214 -0.121085 0
M  V30 4446 H 411.498 1.56888 -0.95175 0
M  V30 4447 H 409.88 3.95748 0.141387 0
M  V30 4448 H 411.054 3.72803 -2.7084 0
M  V30 4449 H 409.369 3.45937 -2.31769 0
M  V30 4450 H 411.966 5.34024 -0.26878 0
M  V30 4451 H 412.309 4.06917 0.878855 0
M  V30 4452 H 412.842 3.89447 -0.810914 0
M  V30 4453 H 409.581 5.73268 -3.17875 0
M  V30 4454 H 409.101 5.81554 -1.46817 0
M  V30 4455 H 410.78 6.17083 -1.94468 0
M  V30 4456 N 410.912 0.523116 1.48665 0
M  V30 4457 C 412.323 0.0808997 1.86525 0
M  V30 4458 C 412.674 -1.33975 1.43336 0
M  V30 4459 O 411.799 -2.00221 0.821009 0
M  V30 4460 C 412.394 0.140037 3.3851 0
M  V30 4461 C 410.953 -0.246948 3.75589 0
M  V30 4462 C 410.1 0.502845 2.72703 0
M  V30 4463 H 413.051 0.734736 1.40667 0
M  V30 4464 H 413.072 -0.649945 3.74908 0
M  V30 4465 H 412.584 1.17412 3.69914 0
M  V30 4466 H 410.685 -1.28343 3.49798 0
M  V30 4467 H 410.798 0.0878859 4.79019 0
M  V30 4468 H 409.162 -0.0500581 2.54651 0
M  V30 4469 H 409.945 1.53743 3.0695 0
M  V30 4470 N 412.39 -1.55475 0.257931 0
M  V30 4471 C 413.618 -2.03609 -0.367559 0
M  V30 4472 C 414.033 -1.13687 -1.50734 0
M  V30 4473 O 413.39 -0.153479 -1.81853 0
M  V30 4474 C 413.441 -3.51001 -0.864908 0
M  V30 4475 O 413.162 -4.37499 0.229465 0
M  V30 4476 C 414.663 -4.14946 -1.55997 0
M  V30 4477 H 411.883 -0.665459 -0.0860521 0
M  V30 4478 H 414.427 -2.00843 0.385014 0
M  V30 4479 H 412.582 -3.54266 -1.56762 0
M  V30 4480 H 412.996 -5.24286 -0.14998 0
M  V30 4481 H 414.47 -5.19735 -1.85956 0
M  V30 4482 H 414.947 -3.6209 -2.4857 0
M  V30 4483 H 415.553 -4.15635 -0.901543 0
M  V30 4484 N 413.868 0.0150385 -1.57593 0
M  V30 4485 C 415.117 0.702115 -1.89085 0
M  V30 4486 C 415.43 1.75764 -0.858277 0
M  V30 4487 O 416.636 2.49829 -1.0629 0
M  V30 4488 C 415.092 1.29992 -3.35604 0
M  V30 4489 C 414.7 0.280007 -4.47124 0
M  V30 4490 C 416.444 1.96606 -3.76227 0
M  V30 4491 C 414.351 0.886949 -5.84711 0
M  V30 4492 H 413.281 0.265997 -0.705522 0
M  V30 4493 H 415.932 -0.0430408 -1.8345 0
M  V30 4494 H 414.314 2.09525 -3.36029 0
M  V30 4495 H 415.488 -0.489631 -4.58191 0
M  V30 4496 H 413.803 -0.284835 -4.15425 0
M  V30 4497 H 416.4 2.42893 -4.76347 0
M  V30 4498 H 416.743 2.79024 -3.08952 0
M  V30 4499 H 417.276 1.23828 -3.78036 0
M  V30 4500 H 414.015 0.101876 -6.55421 0
M  V30 4501 H 413.535 1.6261 -5.77337 0
M  V30 4502 H 415.214 1.39011 -6.3189 0
M  V30 4503 N 415.346 1.54954 0.287554 0
M  V30 4504 C 416.279 1.81737 1.3801 0
M  V30 4505 C 417.257 0.669412 1.48181 0
M  V30 4506 O 418.441 0.910839 1.65033 0
M  V30 4507 C 415.568 1.96606 2.75796 0
M  V30 4508 C 414.614 3.19098 2.82982 0
M  V30 4509 S 415.447 4.7683 2.43707 0
M  V30 4510 C 416.603 4.94653 3.83496 0
M  V30 4511 H 416.836 2.74122 1.15085 0
M  V30 4512 H 414.369 1.46538 0.486403 0
M  V30 4513 H 416.327 2.05858 3.55152 0
M  V30 4514 H 414.988 1.05136 2.95982 0
M  V30 4515 H 414.181 3.26344 3.84077 0
M  V30 4516 H 413.783 3.08361 2.11635 0
M  V30 4517 H 416.075 4.79502 4.78628 0
M  V30 4518 H 417.018 5.96728 3.8121 0
M  V30 4519 H 417.426 4.2272 3.74123 0
M  V30 4520 N 416.824 -0.551391 1.4764 0
M  V30 4521 C 417.787 -1.64007 1.60107 0
M  V30 4522 C 418.787 -1.53601 0.47576 0
M  V30 4523 O 419.977 -1.57655 0.740988 0
M  V30 4524 C 417.109 -3.03569 1.55108 0
M  V30 4525 H 418.302 -1.543 2.57161 0
M  V30 4526 H 415.855 -0.771776 1.35917 0
M  V30 4527 H 416.59 -3.18804 0.594519 0
M  V30 4528 H 416.375 -3.12532 2.36783 0
M  V30 4529 H 417.865 -3.82762 1.66982 0
M  V30 4530 N 418.302 -1.35869 -0.798587 0
M  V30 4531 C 419.53 -1.32722 -1.58722 0
M  V30 4532 C 419.945 0.0935631 -1.88568 0
M  V30 4533 O 419.302 1.04784 -1.49421 0
M  V30 4534 C 419.353 -2.13974 -2.91371 0
M  V30 4535 O 419.074 -3.50514 -2.62815 0
M  V30 4536 C 420.575 -2.18504 -3.85708 0
M  V30 4537 H 417.795 -0.45562 -0.492596 0
M  V30 4538 H 420.339 -1.78837 -0.991843 0
M  V30 4539 H 418.494 -1.71438 -3.47402 0
M  V30 4540 H 418.908 -3.92806 -3.47568 0
M  V30 4541 H 420.382 -2.79732 -4.75872 0
M  V30 4542 H 420.859 -1.18597 -4.22885 0
M  V30 4543 H 421.465 -2.61236 -3.35612 0
M  V30 4544 N 419.78 1.02168 -1.19998 0
M  V30 4545 C 421.029 1.75091 -1.0013 0
M  V30 4546 C 421.342 1.89923 0.467835 0
M  V30 4547 O 422.548 2.59888 0.785515 0
M  V30 4548 C 421.004 3.14892 -1.74273 0
M  V30 4549 C 420.612 3.0809 -3.25245 0
M  V30 4550 C 422.356 3.9206 -1.62755 0
M  V30 4551 C 420.263 4.42867 -3.91948 0
M  V30 4552 H 419.193 0.656394 -0.37103 0
M  V30 4553 H 421.844 1.14284 -1.43567 0
M  V30 4554 H 420.226 3.7621 -1.2362 0
M  V30 4555 H 421.4 2.5611 -3.83072 0
M  V30 4556 H 419.715 2.44416 -3.3712 0
M  V30 4557 H 422.312 4.91764 -2.09934 0
M  V30 4558 H 422.655 4.12199 -0.582894 0
M  V30 4559 H 423.188 3.37359 -2.10793 0
M  V30 4560 H 419.927 4.27931 -4.96543 0
M  V30 4561 H 419.447 4.94874 -3.3891 0
M  V30 4562 H 421.126 5.11728 -3.95909 0
M  V30 4563 N 421.258 1.00505 1.21394 0
M  V30 4564 C 422.486 0.706609 1.9446 0
M  V30 4565 C 422.901 -0.73081 1.74082 0
M  V30 4566 O 422.258 -1.49446 1.04747 0
M  V30 4567 C 422.309 1.01824 3.46863 0
M  V30 4568 O 422.03 2.39919 3.66566 0
M  V30 4569 C 423.531 0.739216 4.37093 0
M  V30 4570 H 420.751 0.260394 0.618414 0
M  V30 4571 H 423.295 1.34311 1.54211 0
M  V30 4572 H 421.45 0.427343 3.85036 0
M  V30 4573 H 421.864 2.50784 4.6066 0
M  V30 4574 H 423.338 1.00744 5.42729 0
M  V30 4575 H 423.815 -0.326746 4.37983 0
M  V30 4576 H 424.421 1.31173 4.04566 0
M  V30 4577 N 422.737 -1.36956 0.779787 0
M  V30 4578 C 423.667 -2.32761 0.185651 0
M  V30 4579 C 424.648 -1.56177 -0.673989 0
M  V30 4580 O 425.833 -1.84378 -0.609797 0
M  V30 4581 C 422.963 -3.40418 -0.687964 0
M  V30 4582 C 421.917 -4.27941 0.0710102 0
M  V30 4583 C 421.243 -5.26681 -0.922573 0
M  V30 4584 C 422.543 -5.07006 1.25467 0
M  V30 4585 H 424.237 -2.82698 0.986008 0
M  V30 4586 H 421.783 -1.3592 0.475592 0
M  V30 4587 H 423.736 -4.06423 -1.11348 0
M  V30 4588 H 422.46 -2.89025 -1.52093 0
M  V30 4589 H 421.119 -3.63478 0.47739 0
M  V30 4590 H 420.767 -4.71565 -1.7503 0
M  V30 4591 H 420.467 -5.86103 -0.419237 0
M  V30 4592 H 421.991 -5.9556 -1.34686 0
M  V30 4593 H 423.405 -5.66105 0.905401 0
M  V30 4594 H 421.802 -5.75793 1.69063 0
M  V30 4595 H 422.872 -4.3921 2.05481 0
M  V30 4596 N 424.215 -0.530993 -1.48385 0
M  V30 4597 C 425.145 0.219985 -2.32461 0
M  V30 4598 C 426.126 0.934111 -1.42156 0
M  V30 4599 O 427.311 0.919694 -1.71042 0
M  V30 4600 C 424.441 1.26674 -3.23375 0
M  V30 4601 C 423.395 0.67069 -4.22712 0
M  V30 4602 C 422.721 1.82017 -5.02766 0
M  V30 4603 C 424.021 -0.358268 -5.2107 0
M  V30 4604 H 425.715 -0.48187 -2.95497 0
M  V30 4605 H 423.261 -0.233182 -1.42099 0
M  V30 4606 H 425.214 1.80006 -3.81019 0
M  V30 4607 H 423.938 1.99818 -2.58341 0
M  V30 4608 H 422.597 0.158878 -3.66256 0
M  V30 4609 H 422.245 2.54002 -4.34157 0
M  V30 4610 H 421.945 1.42727 -5.70003 0
M  V30 4611 H 423.469 2.35725 -5.63264 0
M  V30 4612 H 424.883 0.0880081 -5.73232 0
M  V30 4613 H 423.28 -0.66861 -5.96364 0
M  V30 4614 H 424.35 -1.26367 -4.68145 0
M  V30 4615 N 425.693 1.55336 -0.266172 0
M  V30 4616 C 426.641 2.23587 0.641228 0
M  V30 4617 C 427.635 1.22986 1.16494 0
M  V30 4618 O 428.841 1.40943 1.1196 0
M  V30 4619 H 425.216 0.717452 0.225315 0
M  V30 4620 H 427.187 2.9837 0.0426561 0
M  V30 4621 C 425.936 2.96369 1.81826 0
M  V30 4622 H 425.259 3.73563 1.42445 0
M  V30 4623 H 426.699 3.47459 2.42998 0
M  V30 4624 C 425.158 2.0133 2.70125 0
M  V30 4625 O 425.688 1.55875 3.70224 0
M  V30 4626 N 423.894 1.6802 2.37102 0
M  V30 4627 H 423.441 2.05181 1.55751 0
M  V30 4628 H 423.399 1.047 2.96454 0
M  V30 4629 N 427.171 -0.0066808 1.57599 0
M  V30 4630 C 428.101 -0.999296 2.11036 0
M  V30 4631 C 429.082 -1.36278 1.01795 0
M  V30 4632 O 430.267 -1.4477 1.29442 0
M  V30 4633 C 427.397 -2.29328 2.60818 0
M  V30 4634 C 426.351 -2.07159 3.74525 0
M  V30 4635 C 425.677 -3.42512 4.10596 0
M  V30 4636 C 426.977 -1.43959 5.02069 0
M  V30 4637 H 428.671 -0.554382 2.94223 0
M  V30 4638 H 426.217 -0.265221 1.41536 0
M  V30 4639 H 428.17 -2.99117 2.96828 0
M  V30 4640 H 426.894 -2.7592 1.74745 0
M  V30 4641 H 425.553 -1.39797 3.38899 0
M  V30 4642 H 425.201 -3.86795 3.21556 0
M  V30 4643 H 424.901 -3.28498 4.87199 0
M  V30 4644 H 426.425 -4.13628 4.4916 0
M  V30 4645 H 427.839 -2.03696 5.35893 0
M  V30 4646 H 426.236 -1.40452 5.83432 0
M  V30 4647 H 427.306 -0.407992 4.83181 0
M  V30 4648 N 428.649 -1.55105 -0.279332 0
M  V30 4649 C 429.879 -1.7917 -1.02867 0
M  V30 4650 C 430.287 -0.56204 -1.80659 0
M  V30 4651 O 429.63 0.478266 -1.77365 0
M  V30 4652 C 429.692 -2.96061 -2.03932 0
M  V30 4653 C 429.356 -4.33341 -1.45137 0
M  V30 4654 C 430.353 -5.12565 -0.870266 0
M  V30 4655 C 428.038 -4.79987 -1.48048 0
M  V30 4656 C 430.032 -6.36565 -0.326097 0
M  V30 4657 C 427.719 -6.03944 -0.932443 0
M  V30 4658 C 428.717 -6.8207 -0.356247 0
M  V30 4659 O 428.405 -8.03691 0.183412 0
M  V30 4660 H 428.137 -0.600796 -0.309872 0
M  V30 4661 H 430.691 -2.02932 -0.317468 0
M  V30 4662 H 428.921 -2.67975 -2.78794 0
M  V30 4663 H 430.61 -3.07506 -2.64943 0
M  V30 4664 H 431.376 -4.77661 -0.840521 0
M  V30 4665 H 427.255 -4.1919 -1.91835 0
M  V30 4666 H 430.799 -6.97489 0.124286 0
M  V30 4667 H 426.696 -6.3833 -0.959407 0
M  V30 4668 H 427.464 -8.18468 0.0721681 0
M  V30 4669 N 430.127 0.543554 -1.4793 0
M  V30 4670 C 431.374 1.30008 -1.55255 0
M  V30 4671 C 431.702 1.93245 -0.220612 0
M  V30 4672 O 430.957 1.79141 0.787843 0
M  V30 4673 C 431.256 2.42078 -2.62932 0
M  V30 4674 C 430.922 1.96583 -4.0579 0
M  V30 4675 C 429.584 1.83893 -4.44676 0
M  V30 4676 C 431.936 1.62034 -4.95373 0
M  V30 4677 C 429.264 1.34969 -5.70964 0
M  V30 4678 C 431.616 1.14577 -6.22137 0
M  V30 4679 C 430.28 1.00493 -6.59892 0
M  V30 4680 H 429.55 0.475735 -0.568117 0
M  V30 4681 H 432.197 0.608075 -1.81589 0
M  V30 4682 H 430.502 3.16892 -2.30406 0
M  V30 4683 H 432.199 3.00236 -2.65818 0
M  V30 4684 H 428.789 2.07407 -3.75074 0
M  V30 4685 H 432.973 1.70705 -4.66019 0
M  V30 4686 H 428.229 1.2274 -5.98953 0
M  V30 4687 H 432.403 0.869109 -6.90955 0
M  V30 4688 H 430.03 0.623624 -7.57638 0
M  V30 4689 N 431.605 1.3629 0.791371 0
M  V30 4690 C 432.835 1.33368 1.57786 0
M  V30 4691 C 433.243 -0.0875188 1.88997 0
M  V30 4692 O 432.586 -1.05427 1.50435 0
M  V30 4693 C 432.648 2.08802 2.92646 0
M  V30 4694 C 432.312 3.57903 2.84174 0
M  V30 4695 C 433.309 4.52191 2.56553 0
M  V30 4696 C 430.994 4.00762 3.02812 0
M  V30 4697 C 432.988 5.87315 2.47669 0
M  V30 4698 C 430.675 5.35977 2.93551 0
M  V30 4699 C 431.673 6.29066 2.66017 0
M  V30 4700 O 431.361 7.61798 2.56746 0
M  V30 4701 H 431.093 0.459166 0.496128 0
M  V30 4702 H 433.647 1.79952 0.990269 0
M  V30 4703 H 431.877 1.56878 3.53449 0
M  V30 4704 H 433.566 1.98762 3.53904 0
M  V30 4705 H 434.332 4.20393 2.41858 0
M  V30 4706 H 430.211 3.2868 3.2325 0
M  V30 4707 H 433.755 6.59943 2.26099 0
M  V30 4708 H 429.652 5.67384 3.07808 0
M  V30 4709 H 430.42 7.71898 2.72242 0
M  V30 4710 N 433.083 -1.0153 1.20538 0
M  V30 4711 C 434.013 -2.11972 0.979295 0
M  V30 4712 C 434.994 -1.6985 -0.0921787 0
M  V30 4713 O 436.179 -1.94089 0.0655932 0
M  V30 4714 C 433.309 -3.43201 0.531984 0
M  V30 4715 C 432.263 -3.9907 1.54685 0
M  V30 4716 C 431.589 -5.26082 0.956127 0
M  V30 4717 C 432.889 -4.32313 2.93092 0
M  V30 4718 H 434.583 -2.31143 1.90298 0
M  V30 4719 H 432.129 -1.11079 0.916372 0
M  V30 4720 H 434.082 -4.1985 0.361044 0
M  V30 4721 H 432.806 -3.23792 -0.427327 0
M  V30 4722 H 431.465 -3.2453 1.70517 0
M  V30 4723 H 431.113 -5.02999 -0.0111538 0
M  V30 4724 H 430.813 -5.64426 1.63393 0
M  V30 4725 H 432.337 -6.05386 0.796284 0
M  V30 4726 H 433.751 -4.99845 2.80763 0
M  V30 4727 H 432.148 -4.81774 3.57791 0
M  V30 4728 H 433.218 -3.41025 3.44717 0
M  V30 4729 N 434.561 -1.01147 -1.20859 0
M  V30 4730 C 435.977 -0.725422 -1.42161 0
M  V30 4731 C 436.177 0.696919 -1.89064 0
M  V30 4732 O 435.233 1.46539 -2.05627 0
M  V30 4733 C 436.546 -1.74678 -2.44761 0
M  V30 4734 C 438.094 -1.76433 -2.58535 0
M  V30 4735 C 438.569 -2.77481 -3.64374 0
M  V30 4736 N 440.06 -2.76189 -3.71852 0
M  V30 4737 C 440.795 -3.51035 -4.53389 0
M  V30 4738 N 440.291 -4.35541 -5.38773 0
M  V30 4739 N 442.084 -3.39655 -4.47873 0
M  V30 4740 H 434.235 -1.92979 -0.887282 0
M  V30 4741 H 436.498 -0.833327 -0.451962 0
M  V30 4742 H 436.204 -2.76551 -2.17285 0
M  V30 4743 H 436.078 -1.55472 -3.43669 0
M  V30 4744 H 438.465 -0.75248 -2.85345 0
M  V30 4745 H 438.546 -1.99712 -1.5984 0
M  V30 4746 H 438.19 -3.78827 -3.38308 0
M  V30 4747 H 438.12 -2.51466 -4.6268 0
M  V30 4748 H 440.611 -2.14885 -3.10858 0
M  V30 4749 H 440.924 -4.89432 -5.98061 0
M  V30 4750 H 439.269 -4.39621 -5.38292 0
M  V30 4751 H 442.46 -2.73063 -3.80203 0
M  V30 4752 H 442.633 -3.9824 -5.11184 0
M  V30 4753 N 436.039 1.36541 -0.78704 0
M  V30 4754 C 436.969 2.32659 -0.197992 0
M  V30 4755 C 437.95 1.56533 0.665697 0
M  V30 4756 O 439.135 1.84698 0.60001 0
M  V30 4757 C 436.265 3.40778 0.669901 0
M  V30 4758 C 435.219 4.27897 -0.0937039 0
M  V30 4759 C 434.545 5.27163 0.894629 0
M  V30 4760 C 435.845 5.06334 -1.28154 0
M  V30 4761 H 437.539 2.82171 -1.00099 0
M  V30 4762 H 435.085 1.35665 -0.482793 0
M  V30 4763 H 437.038 4.07008 1.09191 0
M  V30 4764 H 435.762 2.89827 1.50558 0
M  V30 4765 H 434.421 3.6322 -0.49666 0
M  V30 4766 H 434.069 4.72486 1.72527 0
M  V30 4767 H 433.769 5.86317 0.388149 0
M  V30 4768 H 435.293 5.96266 1.31525 0
M  V30 4769 H 436.707 5.65617 -0.93541 0
M  V30 4770 H 435.104 5.74888 -1.72115 0
M  V30 4771 H 436.174 4.38114 -2.07807 0
M  V30 4772 N 437.518 0.538854 1.48102 0
M  V30 4773 C 438.767 0.0059532 2.01699 0
M  V30 4774 C 439.08 -1.34476 1.42041 0
M  V30 4775 O 440.286 -1.96653 1.87189 0
M  V30 4776 C 438.742 -0.0397627 3.59878 0
M  V30 4777 C 438.35 1.30659 4.28523 0
M  V30 4778 C 440.094 -0.521024 4.2129 0
M  V30 4779 C 438.001 1.22098 5.78659 0
M  V30 4780 H 436.931 -0.00154456 0.753998 0
M  V30 4781 H 439.582 0.683963 1.70277 0
M  V30 4782 H 437.964 -0.783037 3.88181 0
M  V30 4783 H 439.138 2.06613 4.11883 0
M  V30 4784 H 437.453 1.7243 3.79021 0
M  V30 4785 H 440.05 -0.603184 5.31287 0
M  V30 4786 H 440.393 -1.52885 3.8721 0
M  V30 4787 H 440.926 0.166834 3.9745 0
M  V30 4788 H 437.665 2.20424 6.17328 0
M  V30 4789 H 437.185 0.50295 5.97688 0
M  V30 4790 H 438.864 0.915345 6.40492 0
M  V30 4791 N 438.996 -1.55193 0.274407 0
M  V30 4792 C 440.226 -2.03692 -0.345442 0
M  V30 4793 C 440.634 -1.15224 -1.50067 0
M  V30 4794 O 439.977 -0.164749 -1.8296 0
M  V30 4795 C 440.039 -3.48325 -0.88939 0
M  V30 4796 C 439.703 -4.56794 0.137115 0
M  V30 4797 C 440.7 -5.11028 0.956378 0
M  V30 4798 C 438.385 -5.01568 0.27115 0
M  V30 4799 C 440.379 -6.08552 1.89587 0
M  V30 4800 C 438.066 -5.98918 1.21412 0
M  V30 4801 C 439.064 -6.52291 2.02498 0
M  V30 4802 O 438.752 -7.47738 2.952 0
M  V30 4803 H 438.484 -0.670893 -0.0829332 0
M  V30 4804 H 441.038 -2.01387 0.404056 0
M  V30 4805 H 439.268 -3.47867 -1.68895 0
M  V30 4806 H 440.957 -3.80167 -1.42225 0
M  V30 4807 H 441.723 -4.7725 0.863559 0
M  V30 4808 H 437.602 -4.5967 -0.349987 0
M  V30 4809 H 441.146 -6.50137 2.52918 0
M  V30 4810 H 437.043 -6.32114 1.30776 0
M  V30 4811 H 437.811 -7.65451 2.89874 0
M  V30 4812 N 440.474 -0.00167713 -1.576 0
M  V30 4813 C 441.699 0.69739 -1.95323 0
M  V30 4814 C 442.124 1.6642 -0.876706 0
M  V30 4815 O 441.482 1.80548 0.165007 0
M  V30 4816 C 441.53 1.40403 -3.32144 0
M  V30 4817 O 440.634 2.5185 -3.26566 0
M  V30 4818 H 439.975 0.185373 -0.637599 0
M  V30 4819 H 442.505 -0.0553665 -2.04525 0
M  V30 4820 H 442.515 1.76707 -3.67748 0
M  V30 4821 H 441.19 0.695167 -4.10049 0
M  V30 4822 H 439.767 2.17861 -3.0264 0
M  V30 4823 N 441.952 1.55251 0.271103 0
M  V30 4824 C 443.18 1.79974 1.02064 0
M  V30 4825 C 443.595 0.574003 1.79863 0
M  V30 4826 O 442.952 -0.456962 1.76686 0
M  V30 4827 C 443.003 3.02603 1.97772 0
M  V30 4828 O 442.724 4.20443 1.23124 0
M  V30 4829 C 444.225 3.39944 2.84522 0
M  V30 4830 H 441.445 0.599489 0.301419 0
M  V30 4831 H 443.989 2.02268 0.301313 0
M  V30 4832 H 442.144 2.8243 2.65165 0
M  V30 4833 H 442.558 4.89783 1.87651 0
M  V30 4834 H 444.032 4.28915 3.47471 0
M  V30 4835 H 444.509 2.59432 3.54389 0
M  V30 4836 H 445.115 3.62383 2.22618 0
M  V30 4837 N 443.43 -0.535701 1.48216 0
M  V30 4838 C 444.655 -1.32149 1.59848 0
M  V30 4839 C 445.08 -1.86338 0.256842 0
M  V30 4840 O 444.438 -1.64107 -0.770632 0
M  V30 4841 C 444.486 -2.45224 2.64381 0
M  V30 4842 O 443.59 -3.48093 2.21144 0
M  V30 4843 H 442.931 -0.391634 0.536208 0
M  V30 4844 H 445.461 -0.645202 1.94161 0
M  V30 4845 H 445.471 -2.91491 2.85476 0
M  V30 4846 H 444.146 -2.05143 3.61786 0
M  V30 4847 H 442.723 -3.07984 2.10239 0
M  V30 4848 N 444.908 -1.36708 -0.784132 0
M  V30 4849 C 446.157 -1.30559 -1.53744 0
M  V30 4850 C 446.47 0.111374 -1.95283 0
M  V30 4851 O 447.676 0.29527 -2.6989 0
M  V30 4852 C 446.132 -2.29098 -2.77565 0
M  V30 4853 C 445.74 -3.76258 -2.43174 0
M  V30 4854 C 447.484 -2.31936 -3.55536 0
M  V30 4855 C 445.391 -4.6656 -3.63422 0
M  V30 4856 H 444.321 -0.48518 -0.577162 0
M  V30 4857 H 446.972 -1.62101 -0.859981 0
M  V30 4858 H 445.354 -1.90557 -3.47137 0
M  V30 4859 H 446.528 -4.23565 -1.81465 0
M  V30 4860 H 444.843 -3.76246 -1.78403 0
M  V30 4861 H 447.44 -2.9661 -4.44889 0
M  V30 4862 H 447.783 -1.3294 -3.94503 0
M  V30 4863 H 448.316 -2.6912 -2.92949 0
M  V30 4864 H 445.055 -5.66638 -3.29547 0
M  V30 4865 H 444.575 -4.23966 -4.24279 0
M  V30 4866 H 446.254 -4.8309 -4.30387 0
M  V30 4867 N 446.386 1.0089 -1.21074 0
M  V30 4868 C 447.614 1.78191 -1.05145 0
M  V30 4869 C 448.029 1.84537 0.398952 0
M  V30 4870 O 447.386 1.30393 1.27687 0
M  V30 4871 C 447.437 3.22288 -1.63746 0
M  V30 4872 O 447.158 3.16315 -3.03111 0
M  V30 4873 C 448.659 4.16106 -1.52875 0
M  V30 4874 H 445.879 0.560129 -0.369454 0
M  V30 4875 H 448.423 1.26945 -1.60328 0
M  V30 4876 H 446.578 3.70655 -1.12664 0
M  V30 4877 H 446.992 4.06817 -3.31059 0
M  V30 4878 H 448.466 5.15026 -1.98626 0
M  V30 4879 H 448.943 4.36541 -0.482521 0
M  V30 4880 H 449.549 3.73625 -2.03185 0
M  V30 4881 N 447.864 1.01787 1.20321 0
M  V30 4882 C 448.794 0.609625 2.25401 0
M  V30 4883 C 449.775 -0.375951 1.65893 0
M  V30 4884 O 450.96 -0.261101 1.92437 0
M  V30 4885 C 448.09 -0.0515995 3.47262 0
M  V30 4886 C 447.044 0.855095 4.19371 0
M  V30 4887 C 446.37 0.0595757 5.34667 0
M  V30 4888 C 447.67 2.16374 4.75373 0
M  V30 4889 H 449.364 1.48803 2.59804 0
M  V30 4890 H 446.91 0.716934 1.24884 0
M  V30 4891 H 448.863 -0.348764 4.19954 0
M  V30 4892 H 447.587 -0.964726 3.12027 0
M  V30 4893 H 446.246 1.13628 3.48546 0
M  V30 4894 H 445.894 -0.85524 4.95676 0
M  V30 4895 H 445.594 0.663406 5.83843 0
M  V30 4896 H 447.118 -0.231105 6.10162 0
M  V30 4897 H 448.532 1.92885 5.39878 0
M  V30 4898 H 446.929 2.71853 5.34991 0
M  V30 4899 H 447.999 2.82589 3.94045 0
M  V30 4900 N 449.342 -1.36122 0.79427 0
M  V30 4901 C 450.272 -2.32551 0.210328 0
M  V30 4902 C 451.253 -1.56884 -0.657386 0
M  V30 4903 O 452.438 -1.85014 -0.590207 0
M  V30 4904 C 449.568 -3.41128 -0.651819 0
M  V30 4905 C 448.522 -4.27842 0.116395 0
M  V30 4906 C 447.848 -5.2763 -0.86666 0
M  V30 4907 C 449.148 -5.05647 1.30837 0
M  V30 4908 H 450.842 -2.81636 1.01594 0
M  V30 4909 H 448.388 -1.35407 0.489981 0
M  V30 4910 H 450.341 -4.07581 -1.07031 0
M  V30 4911 H 449.065 -2.90622 -1.49019 0
M  V30 4912 H 447.724 -3.62952 0.515915 0
M  V30 4913 H 447.372 -4.73395 -1.70019 0
M  V30 4914 H 447.072 -5.86514 -0.35705 0
M  V30 4915 H 448.596 -5.96955 -1.28361 0
M  V30 4916 H 450.01 -5.65113 0.965393 0
M  V30 4917 H 448.407 -5.73967 1.75161 0
M  V30 4918 H 449.477 -4.37006 2.10128 0
M  V30 4919 N 450.82 -0.546701 -1.47814 0
M  V30 4920 C 452.231 -0.110564 -1.86372 0
M  V30 4921 C 452.582 1.31678 -1.45449 0
M  V30 4922 O 451.707 1.98889 -0.852758 0
M  V30 4923 C 452.302 -0.193873 -3.38245 0
M  V30 4924 C 450.861 0.187164 -3.75934 0
M  V30 4925 C 450.008 -0.546166 -2.71868 0
M  V30 4926 H 452.959 -0.757022 -1.39481 0
M  V30 4927 H 452.98 0.590218 -3.75895 0
M  V30 4928 H 452.492 -1.23282 -3.67999 0
M  V30 4929 H 450.593 1.22762 -3.51796 0
M  V30 4930 H 450.706 -0.164083 -4.78819 0
M  V30 4931 H 449.07 0.00953904 -2.54698 0
M  V30 4932 H 449.853 -1.58606 -3.04465 0
M  V30 4933 N 452.299 1.55045 -0.282633 0
M  V30 4934 C 453.232 2.18951 0.64311 0
M  V30 4935 C 454.21 1.15287 1.14664 0
M  V30 4936 O 455.394 1.43846 1.21822 0
M  V30 4937 C 452.521 2.81874 1.87789 0
M  V30 4938 C 451.567 3.98906 1.50919 0
M  V30 4939 S 452.4 5.3234 0.580884 0
M  V30 4940 C 453.556 5.98737 1.82387 0
M  V30 4941 H 453.789 2.97131 0.100138 0
M  V30 4942 H 451.322 1.54255 -0.0668514 0
M  V30 4943 H 453.28 3.18757 2.58658 0
M  V30 4944 H 451.941 2.03573 2.392 0
M  V30 4945 H 451.134 4.4165 2.42819 0
M  V30 4946 H 450.736 3.63485 0.88061 0
M  V30 4947 H 453.028 6.18427 2.76684 0
M  V30 4948 H 453.971 6.93318 1.4393 0
M  V30 4949 H 454.379 5.28177 1.99223 0
M  V30 4950 N 453.777 0.010035 1.57597 0
M  V30 4951 C 455.002 -0.687021 1.95691 0
M  V30 4952 C 455.427 -1.65952 0.885519 0
M  V30 4953 O 454.785 -1.80633 -0.15543 0
M  V30 4954 C 454.833 -1.3864 3.32884 0
M  V30 4955 O 453.937 -2.50115 3.27897 0
M  V30 4956 H 453.278 -0.181989 0.638573 0
M  V30 4957 H 455.808 0.0662122 2.04493 0
M  V30 4958 H 455.818 -1.74754 3.6868 0
M  V30 4959 H 454.493 -0.673411 4.10412 0
M  V30 4960 H 453.07 -2.16253 3.03791 0
M  V30 4961 N 455.255 -1.55392 -0.262866 0
M  V30 4962 C 456.203 -1.8977 -1.345 0
M  V30 4963 C 457.197 -0.775063 -1.50629 0
M  V30 4964 O 458.403 -0.959519 -1.52293 0
M  V30 4965 H 454.778 -0.602467 -0.450041 0
M  V30 4966 H 456.749 -2.80147 -1.02762 0
M  V30 4967 C 455.498 -2.19501 -2.69657 0
M  V30 4968 H 454.821 -3.05378 -2.5804 0
M  V30 4969 H 456.261 -2.47469 -3.44289 0
M  V30 4970 C 454.72 -1.00597 -3.21531 0
M  V30 4971 O 455.25 -0.245768 -4.00947 0
M  V30 4972 N 453.456 -0.800911 -2.79345 0
M  V30 4973 H 453.003 -1.42079 -2.14875 0
M  V30 4974 H 452.961 -0.00697996 -3.14399 0
M  V30 4975 N 456.733 0.527833 -1.48498 0
M  V30 4976 C 457.681 1.65313 -1.63628 0
M  V30 4977 C 458.675 1.6177 -0.502676 0
M  V30 4978 O 459.881 1.66601 -0.681469 0
M  V30 4979 H 456.256 0.547518 -0.515488 0
M  V30 4980 H 458.227 1.49696 -2.58135 0
M  V30 4981 C 456.976 3.03576 -1.6952 0
M  V30 4982 H 456.299 3.06997 -2.56111 0
M  V30 4983 H 457.739 3.81923 -1.84149 0
M  V30 4984 C 456.198 3.34089 -0.43432 0
M  V30 4985 O 456.728 3.99151 0.451852 0
M  V30 4986 N 454.934 2.88991 -0.305368 0
M  V30 4987 H 454.481 2.36222 -1.02747 0
M  V30 4988 H 454.439 3.09776 0.537249 0
M  V30 4989 N 458.211 1.37122 0.776871 0
M  V30 4990 C 459.457 1.32243 1.53752 0
M  V30 4991 C 459.79 -0.0944745 1.9397 0
M  V30 4992 O 459.065 -1.05068 1.6368 0
M  V30 4993 C 459.348 2.25681 2.80607 0
M  V30 4994 C 459.201 3.76127 2.46676 0
M  V30 4995 C 460.52 2.17657 3.82509 0
M  V30 4996 H 457.639 0.481704 0.557791 0
M  V30 4997 H 460.281 1.6778 0.891612 0
M  V30 4998 H 458.431 1.95505 3.35723 0
M  V30 4999 H 460.103 4.16877 1.97513 0
M  V30 5000 H 458.346 3.94946 1.79443 0
M  V30 5001 H 459.017 4.36933 3.37333 0
M  V30 5002 H 461.493 2.44245 3.36873 0
M  V30 5003 H 460.369 2.85185 4.69 0
M  V30 5004 H 460.63 1.16785 4.26396 0
M  V30 5005 N 459.689 -1.00246 1.21608 0
M  V30 5006 C 460.636 -2.09073 0.977613 0
M  V30 5007 C 461.606 -1.65815 -0.097297 0
M  V30 5008 O 462.791 -1.90734 0.0503445 0
M  V30 5009 C 459.931 -3.40671 0.551133 0
M  V30 5010 C 459.044 -3.97326 1.69576 0
M  V30 5011 C 458.179 -5.17043 1.2182 0
M  V30 5012 C 457.218 -5.65813 2.335 0
M  V30 5013 N 456.355 -6.76778 1.86859 0
M  V30 5014 H 461.195 -2.28806 1.90924 0
M  V30 5015 H 458.732 -1.12186 0.951452 0
M  V30 5016 H 460.69 -4.16225 0.285097 0
M  V30 5017 H 459.32 -3.20967 -0.343489 0
M  V30 5018 H 458.372 -3.18734 2.07637 0
M  V30 5019 H 459.684 -4.29511 2.53617 0
M  V30 5020 H 458.838 -5.99852 0.908975 0
M  V30 5021 H 457.577 -4.86458 0.347869 0
M  V30 5022 H 456.582 -4.81599 2.65222 0
M  V30 5023 H 457.807 -5.98427 3.21033 0
M  V30 5024 H 455.753 -6.47994 1.02174 0
M  V30 5025 H 455.67 -7.08231 2.64471 0
M  V30 5026 H 456.938 -7.63116 1.58978 0
M  V30 5027 N 461.167 -1.02423 -1.1978 0
M  V30 5028 C 462.1 -0.545641 -2.21581 0
M  V30 5029 C 463.078 0.411024 -1.57319 0
M  V30 5030 O 464.262 0.329223 -1.85603 0
M  V30 5031 C 461.389 0.204973 -3.38079 0
M  V30 5032 C 460.435 -0.70241 -4.20676 0
M  V30 5033 S 461.268 -2.17595 -4.89298 0
M  V30 5034 C 462.424 -1.43572 -6.09211 0
M  V30 5035 H 462.657 -1.4082 -2.61834 0
M  V30 5036 H 460.19 -0.833771 -1.29952 0
M  V30 5037 H 462.148 0.631924 -4.05607 0
M  V30 5038 H 460.809 1.0432 -2.9627 0
M  V30 5039 H 460.002 -0.123193 -5.03849 0
M  V30 5040 H 459.604 -1.06747 -3.58442 0
M  V30 5041 H 461.896 -0.719806 -6.73665 0
M  V30 5042 H 462.839 -2.24388 -6.71607 0
M  V30 5043 H 463.247 -0.935252 -5.56699 0
M  V30 5044 N 462.645 1.35699 -0.801477 0
M  V30 5045 C 463.592 2.29876 -0.206294 0
M  V30 5046 C 464.562 1.52565 0.656752 0
M  V30 5047 O 465.747 1.81024 0.602906 0
M  V30 5048 C 462.887 3.39052 0.643272 0
M  V30 5049 C 462 4.31335 -0.239644 0
M  V30 5050 C 461.135 5.27599 0.61744 0
M  V30 5051 C 460.174 6.11521 -0.26619 0
M  V30 5052 N 459.311 6.99938 0.550571 0
M  V30 5053 H 464.151 2.80187 -1.01484 0
M  V30 5054 H 461.688 1.37902 -0.511997 0
M  V30 5055 H 463.646 4.0101 1.15094 0
M  V30 5056 H 462.276 2.9003 1.41713 0
M  V30 5057 H 461.328 3.70426 -0.865381 0
M  V30 5058 H 462.64 4.90243 -0.919985 0
M  V30 5059 H 461.794 5.94906 1.19045 0
M  V30 5060 H 460.533 4.69176 1.33137 0
M  V30 5061 H 459.538 5.43166 -0.851507 0
M  V30 5062 H 460.763 6.72022 -0.9779 0
M  V30 5063 H 458.709 6.44008 1.24856 0
M  V30 5064 H 458.626 7.55966 -0.071832 0
M  V30 5065 H 459.894 7.71599 1.10702 0
M  V30 5066 N 464.123 0.554532 1.47522 0
M  V30 5067 C 465.369 0.0377449 2.03365 0
M  V30 5068 C 465.724 -1.29654 1.42154 0
M  V30 5069 O 465.017 -1.83022 0.566865 0
M  V30 5070 C 465.211 -0.115927 3.57212 0
M  V30 5071 C 465.04 1.20191 4.33341 0
M  V30 5072 C 463.81 1.76849 4.73342 0
M  V30 5073 C 466.008 2.11849 4.68641 0
M  V30 5074 N 463.99 3.02665 5.34104 0
M  V30 5075 C 465.361 3.22245 5.29677 0
M  V30 5076 C 467.416 2.11876 4.5057 0
M  V30 5077 C 466.119 4.32763 5.74551 0
M  V30 5078 C 468.145 3.21405 4.9644 0
M  V30 5079 C 467.507 4.30519 5.57523 0
M  V30 5080 H 463.606 0.0559107 0.779999 0
M  V30 5081 H 466.19 0.741232 1.80038 0
M  V30 5082 H 464.361 -0.788533 3.80311 0
M  V30 5083 H 466.093 -0.634538 3.99695 0
M  V30 5084 H 462.848 1.30681 4.55214 0
M  V30 5085 H 463.272 3.66788 5.69031 0
M  V30 5086 H 467.914 1.28801 4.02704 0
M  V30 5087 H 465.632 5.166 6.2141 0
M  V30 5088 H 469.218 3.22509 4.8423 0
M  V30 5089 H 468.098 5.13873 5.92371 0
M  V30 5090 N 465.601 -1.54893 0.290851 0
M  V30 5091 C 466.533 -2.20564 -0.623236 0
M  V30 5092 C 467.546 -1.19519 -1.1054 0
M  V30 5093 O 468.735 -1.46165 -1.02459 0
M  V30 5094 C 465.835 -2.83033 -1.86401 0
M  V30 5095 C 465.008 -4.09916 -1.52604 0
M  V30 5096 C 464.067 -4.56284 -2.62091 0
M  V30 5097 O 463.093 -5.2171 -2.27612 0
M  V30 5098 N 464.295 -4.27746 -3.92446 0
M  V30 5099 H 467.06 -2.99638 -0.0610915 0
M  V30 5100 H 464.621 -1.61508 0.112615 0
M  V30 5101 H 466.613 -3.1099 -2.58973 0
M  V30 5102 H 465.183 -2.0786 -2.33481 0
M  V30 5103 H 464.403 -3.89078 -0.633424 0
M  V30 5104 H 465.691 -4.92554 -1.27547 0
M  V30 5105 H 465.089 -3.7531 -4.23272 0
M  V30 5106 H 463.646 -4.60437 -4.61347 0
M  V30 5107 N 467.08 -0.0183926 -1.57589 0
M  V30 5108 C 468.327 0.662562 -1.91354 0
M  V30 5109 C 468.655 1.72747 -0.893788 0
M  V30 5110 O 467.91 1.9545 0.0988509 0
M  V30 5111 C 468.209 1.32676 -3.31861 0
M  V30 5112 C 467.875 0.393267 -4.49182 0
M  V30 5113 C 466.537 0.136302 -4.81007 0
M  V30 5114 C 468.889 -0.248366 -5.20608 0
M  V30 5115 C 466.217 -0.770282 -5.81621 0
M  V30 5116 C 468.569 -1.14294 -6.22189 0
M  V30 5117 C 467.233 -1.4089 -6.52462 0
M  V30 5118 H 466.503 0.242448 -0.700214 0
M  V30 5119 H 469.15 -0.0778629 -1.91342 0
M  V30 5120 H 467.455 2.14168 -3.28084 0
M  V30 5121 H 469.152 1.86001 -3.55253 0
M  V30 5122 H 465.742 0.603723 -4.24327 0
M  V30 5123 H 469.926 -0.062883 -4.9626 0
M  V30 5124 H 465.182 -0.984154 -6.03427 0
M  V30 5125 H 469.356 -1.64637 -6.76659 0
M  V30 5126 H 466.983 -2.11306 -7.30242 0
M  V30 5127 N 468.558 1.5553 0.254621 0
M  V30 5128 C 469.468 1.92789 1.33677 0
M  V30 5129 C 470.484 0.827356 1.53071 0
M  V30 5130 O 471.66 1.12807 1.66843 0
M  V30 5131 C 468.725 2.20827 2.67275 0
M  V30 5132 C 467.786 3.4427 2.5647 0
M  V30 5133 C 467.019 3.70961 3.83697 0
M  V30 5134 O 467.242 2.99852 4.85227 0
M  V30 5135 O 466.176 4.64491 3.82794 0
M  V30 5136 H 470.002 2.84945 1.05071 0
M  V30 5137 H 467.587 1.42312 0.454723 0
M  V30 5138 H 469.469 2.40204 3.46237 0
M  V30 5139 H 468.144 1.31851 2.9563 0
M  V30 5140 H 467.051 3.30209 1.75821 0
M  V30 5141 H 468.384 4.33524 2.33062 0
M  V30 5142 N 470.036 -0.519951 1.48776 0
M  V30 5143 C 470.986 -1.61995 1.60442 0
M  V30 5144 C 471.97 -1.54155 0.460991 0
M  V30 5145 O 473.162 -1.62006 0.712965 0
M  V30 5146 C 470.291 -3.00683 1.65664 0
M  V30 5147 C 469.377 -3.1359 2.8552 0
M  V30 5148 N 469.768 -2.96441 4.09825 0
M  V30 5149 C 468.066 -3.44662 2.83062 0
M  V30 5150 C 468.767 -3.1303 4.90293 0
M  V30 5151 N 467.743 -3.41058 4.23297 0
M  V30 5152 H 471.545 -1.47362 2.54287 0
M  V30 5153 H 469.059 -0.725649 1.45286 0
M  V30 5154 H 471.056 -3.79712 1.72117 0
M  V30 5155 H 469.716 -3.16401 0.729425 0
M  V30 5156 H 470.727 -2.72999 4.40104 0
M  V30 5157 H 467.404 -3.66675 1.9964 0
M  V30 5158 H 468.794 -3.04424 5.98979 0
M  V30 5159 N 471.514 -1.37532 -0.769588 0
M  V30 5160 C 472.742 -1.36059 -1.55871 0
M  V30 5161 C 473.157 0.053544 -1.88724 0
M  V30 5162 O 472.514 1.01591 -1.5161 0
M  V30 5163 C 472.565 -2.20107 -2.86767 0
M  V30 5164 O 472.286 -3.56009 -2.55321 0
M  V30 5165 C 473.787 -2.26636 -3.80987 0
M  V30 5166 H 471.007 -0.465967 -0.482821 0
M  V30 5167 H 473.551 -1.80901 -0.953686 0
M  V30 5168 H 471.706 -1.78768 -3.43687 0
M  V30 5169 H 472.12 -4.0009 -3.39158 0
M  V30 5170 H 473.594 -2.89763 -4.69831 0
M  V30 5171 H 474.071 -1.2754 -4.20274 0
M  V30 5172 H 474.677 -2.68296 -3.29996 0
M  V30 5173 N 472.992 0.995999 -1.22138 0
M  V30 5174 C 473.939 2.08551 -0.988687 0
M  V30 5175 C 474.909 1.65864 0.0885021 0
M  V30 5176 O 476.094 1.90704 -0.0604589 0
M  V30 5177 C 473.234 3.40374 -0.569191 0
M  V30 5178 C 472.347 3.96421 -1.71681 0
M  V30 5179 C 471.482 5.1639 -1.2456 0
M  V30 5180 C 470.521 5.64567 -2.36497 0
M  V30 5181 N 469.658 6.75777 -1.90445 0
M  V30 5182 H 474.498 2.2779 -1.92135 0
M  V30 5183 H 472.035 1.1168 -0.957388 0
M  V30 5184 H 473.993 4.16068 -0.307166 0
M  V30 5185 H 472.623 3.21145 0.326462 0
M  V30 5186 H 471.675 3.17628 -2.09324 0
M  V30 5187 H 472.987 4.2816 -2.55891 0
M  V30 5188 H 472.141 5.99362 -0.940774 0
M  V30 5189 H 470.88 4.86266 -0.373662 0
M  V30 5190 H 469.885 4.80185 -2.67772 0
M  V30 5191 H 471.11 5.96716 -3.24202 0
M  V30 5192 H 469.056 6.47443 -1.05609 0
M  V30 5193 H 468.973 7.06818 -2.68223 0
M  V30 5194 H 470.241 7.62262 -1.63022 0
M  V30 5195 N 474.47 1.03057 1.19235 0
M  V30 5196 C 475.881 0.757449 1.70645 0
M  V30 5197 C 476.232 -0.722735 1.82403 0
M  V30 5198 O 475.357 -1.56325 1.49638 0
M  V30 5199 C 475.952 1.36833 3.09939 0
M  V30 5200 C 474.511 1.14375 3.58602 0
M  V30 5201 C 473.658 1.46533 2.35422 0
M  V30 5202 H 476.609 1.19828 1.04052 0
M  V30 5203 H 476.63 0.766184 3.72706 0
M  V30 5204 H 476.142 2.44562 3.01349 0
M  V30 5205 H 474.243 0.0847542 3.72504 0
M  V30 5206 H 474.356 1.83366 4.42622 0
M  V30 5207 H 472.72 0.884712 2.38841 0
M  V30 5208 H 473.503 2.55349 2.2946 0
M  V30 5209 N 475.948 -1.35272 0.808662 0
M  V30 5210 C 477.176 -2.02946 0.402537 0
M  V30 5211 C 477.591 -1.60937 -0.987147 0
M  V30 5212 O 476.948 -0.807917 -1.63643 0
M  V30 5213 C 476.999 -3.58317 0.47868 0
M  V30 5214 O 476.72 -3.98799 1.81358 0
M  V30 5215 C 478.221 -4.43251 0.0656281 0
M  V30 5216 H 475.441 -0.650831 0.163279 0
M  V30 5217 H 477.985 -1.72849 1.09286 0
M  V30 5218 H 476.14 -3.87055 -0.163415 0
M  V30 5219 H 476.554 -4.93451 1.77781 0
M  V30 5220 H 478.028 -5.51738 0.170017 0
M  V30 5221 H 478.505 -4.27913 -0.989278 0
M  V30 5222 H 479.111 -4.19813 0.68096 0
M  V30 5223 N 477.426 -0.562348 -1.47226 0
M  V30 5224 C 478.837 -0.130325 -1.86245 0
M  V30 5225 C 479.188 1.30128 -1.46838 0
M  V30 5226 O 478.313 1.97974 -0.873805 0
M  V30 5227 C 478.908 -0.229738 -3.3802 0
M  V30 5228 C 477.467 0.14728 -3.76112 0
M  V30 5229 C 476.614 -0.574971 -2.71274 0
M  V30 5230 H 479.565 -0.771773 -1.3867 0
M  V30 5231 H 479.586 0.550316 -3.76499 0
M  V30 5232 H 479.098 -1.27178 -3.66671 0
M  V30 5233 H 477.199 1.19023 -3.53078 0
M  V30 5234 H 477.312 -0.214858 -4.78618 0
M  V30 5235 H 475.676 -0.0174756 -2.54694 0
M  V30 5236 H 476.459 -1.61827 -3.02766 0
M  V30 5237 N 478.904 1.54736 -0.299062 0
M  V30 5238 C 480.151 2.00101 0.310784 0
M  V30 5239 C 480.479 1.18746 1.54045 0
M  V30 5240 O 479.734 0.251198 1.94081 0
M  V30 5241 C 480.033 3.50199 0.713835 0
M  V30 5242 C 479.699 4.48997 -0.413873 0
M  V30 5243 C 478.361 4.7573 -0.723462 0
M  V30 5244 C 480.713 5.07839 -1.17257 0
M  V30 5245 C 478.041 5.5857 -1.79491 0
M  V30 5246 C 480.393 5.91844 -2.23392 0
M  V30 5247 C 479.057 6.16889 -2.54959 0
M  V30 5248 H 478.327 0.732221 0.113724 0
M  V30 5249 H 480.974 1.86888 -0.417756 0
M  V30 5250 H 479.279 3.61012 1.52243 0
M  V30 5251 H 480.976 3.82723 1.19684 0
M  V30 5252 H 477.566 4.28292 -0.162476 0
M  V30 5253 H 481.75 4.87188 -0.946651 0
M  V30 5254 H 477.006 5.76213 -2.04423 0
M  V30 5255 H 481.18 6.36465 -2.8264 0
M  V30 5256 H 478.807 6.80869 -3.38114 0
M  V30 5257 N 480.382 0.0267497 1.57577 0
M  V30 5258 C 481.312 -0.954308 2.13108 0
M  V30 5259 C 482.293 -1.34088 1.04663 0
M  V30 5260 O 483.478 -1.41992 1.32484 0
M  V30 5261 C 480.608 -2.23744 2.65624 0
M  V30 5262 C 479.562 -1.99168 3.78835 0
M  V30 5263 C 478.888 -3.33726 4.17769 0
M  V30 5264 C 480.188 -1.33277 5.0501 0
M  V30 5265 H 481.882 -0.491848 2.95332 0
M  V30 5266 H 479.428 -0.23514 1.42067 0
M  V30 5267 H 481.381 -2.92754 3.03106 0
M  V30 5268 H 480.105 -2.72151 1.80558 0
M  V30 5269 H 478.764 -1.32577 3.41788 0
M  V30 5270 H 478.412 -3.79888 3.29688 0
M  V30 5271 H 478.112 -3.18089 4.94058 0
M  V30 5272 H 479.636 -4.04008 4.57832 0
M  V30 5273 H 481.05 -1.92283 5.40093 0
M  V30 5274 H 479.447 -1.28045 5.8628 0
M  V30 5275 H 480.517 -0.305411 4.83937 0
M  V30 5276 N 481.861 -1.55662 -0.24637 0
M  V30 5277 C 483.272 -1.67953 -0.81539 0
M  V30 5278 C 483.623 -0.624302 -1.86002 0
M  V30 5279 O 482.748 0.229328 -2.15181 0
M  V30 5280 C 483.343 -3.04484 -1.48576 0
M  V30 5281 C 481.902 -3.18713 -2.00248 0
M  V30 5282 C 481.049 -2.6383 -0.853766 0
M  V30 5283 H 484 -1.58685 -0.0221692 0
M  V30 5284 H 484.021 -2.98959 -2.3538 0
M  V30 5285 H 483.533 -3.81264 -0.725222 0
M  V30 5286 H 481.634 -2.46757 -2.79181 0
M  V30 5287 H 481.747 -4.25628 -2.1995 0
M  V30 5288 H 480.111 -2.21667 -1.25442 0
M  V30 5289 H 480.894 -3.43135 -0.106302 0
M  V30 5290 N 483.339 0.512053 -1.4905 0
M  V30 5291 C 484.567 1.29116 -1.61669 0
M  V30 5292 C 484.982 1.86655 -0.283787 0
M  V30 5293 O 484.339 1.67293 0.729331 0
M  V30 5294 C 484.39 2.4293 -2.67707 0
M  V30 5295 O 484.111 1.87758 -3.95826 0
M  V30 5296 C 485.612 3.34476 -2.90931 0
M  V30 5297 H 482.832 0.392009 -0.544583 0
M  V30 5298 H 485.376 0.615881 -1.95006 0
M  V30 5299 H 483.531 3.06308 -2.37179 0
M  V30 5300 H 483.945 2.62393 -4.54148 0
M  V30 5301 H 485.419 4.10642 -3.68886 0
M  V30 5302 H 485.896 3.90801 -2.00427 0
M  V30 5303 H 486.502 2.76874 -3.22832 0
M  V30 5304 N 484.817 1.37938 0.762283 0
M  V30 5305 C 485.747 1.37176 1.88958 0
M  V30 5306 C 486.728 0.238945 1.68413 0
M  V30 5307 O 487.913 0.440726 1.89133 0
M  V30 5308 C 485.043 1.18742 3.2637 0
M  V30 5309 C 483.997 2.29136 3.61498 0
M  V30 5310 C 483.323 1.95816 4.97554 0
M  V30 5311 C 484.623 3.71363 3.6727 0
M  V30 5312 H 486.317 2.31509 1.89853 0
M  V30 5313 H 483.863 1.11438 0.912005 0
M  V30 5314 H 485.816 1.16837 4.04879 0
M  V30 5315 H 484.54 0.208683 3.25933 0
M  V30 5316 H 483.199 2.30213 2.85303 0
M  V30 5317 H 482.847 0.964475 4.93667 0
M  V30 5318 H 482.547 2.69745 5.22026 0
M  V30 5319 H 484.071 1.95513 5.78452 0
M  V30 5320 H 485.485 3.72364 4.35911 0
M  V30 5321 H 483.882 4.44425 4.03245 0
M  V30 5322 H 484.952 4.04305 2.67704 0
M  V30 5323 N 486.295 -0.989507 1.22664 0
M  V30 5324 C 487.544 -1.72375 1.04737 0
M  V30 5325 C 487.857 -1.91096 -0.417316 0
M  V30 5326 O 489.063 -2.6188 -0.716334 0
M  V30 5327 C 487.519 -3.10161 1.82561 0
M  V30 5328 C 487.127 -2.99358 3.333 0
M  V30 5329 C 488.871 -3.87607 1.73093 0
M  V30 5330 C 486.778 -4.32319 4.03552 0
M  V30 5331 H 485.708 -0.646326 0.388302 0
M  V30 5332 H 488.359 -1.10437 1.46546 0
M  V30 5333 H 486.741 -3.728 1.33552 0
M  V30 5334 H 487.915 -2.45863 3.89728 0
M  V30 5335 H 486.23 -2.35392 3.43481 0
M  V30 5336 H 488.827 -4.86025 2.22899 0
M  V30 5337 H 489.17 -4.10509 0.691976 0
M  V30 5338 H 489.703 -3.31652 2.19663 0
M  V30 5339 H 486.442 -4.14616 5.07714 0
M  V30 5340 H 485.962 -4.85714 3.51911 0
M  V30 5341 H 487.641 -5.01051 4.09337 0
M  V30 5342 N 487.773 -1.03688 -1.18687 0
M  V30 5343 C 488.736 -0.629115 -2.20397 0
M  V30 5344 C 489.736 0.311495 -1.57754 0
M  V30 5345 O 490.926 0.0974107 -1.73927 0
M  V30 5346 C 488.058 0.0782231 -3.4081 0
M  V30 5347 H 489.251 -1.52915 -2.57987 0
M  V30 5348 H 486.804 -0.828988 -1.32505 0
M  V30 5349 H 487.539 0.992233 -3.08748 0
M  V30 5350 H 487.324 -0.597776 -3.87517 0
M  V30 5351 H 488.814 0.350156 -4.16129 0
M  V30 5352 N 489.251 1.34841 -0.815825 0
M  V30 5353 C 490.181 2.32187 -0.247298 0
M  V30 5354 C 491.162 1.5791 0.632344 0
M  V30 5355 O 492.347 1.8593 0.560698 0
M  V30 5356 C 489.477 3.42122 0.597466 0
M  V30 5357 C 488.431 4.27602 -0.184446 0
M  V30 5358 C 487.757 5.28942 0.782609 0
M  V30 5359 C 489.057 5.03502 -1.38865 0
M  V30 5360 H 490.751 2.79985 -1.06061 0
M  V30 5361 H 488.297 1.34611 -0.511461 0
M  V30 5362 H 490.25 4.09232 1.00533 0
M  V30 5363 H 488.974 2.92956 1.44376 0
M  V30 5364 H 487.633 3.62085 -0.573592 0
M  V30 5365 H 487.281 4.7604 1.62466 0
M  V30 5366 H 486.981 5.87008 0.263695 0
M  V30 5367 H 488.505 5.98922 1.18848 0
M  V30 5368 H 489.919 5.63506 -1.05518 0
M  V30 5369 H 488.316 5.71108 -1.8427 0
M  V30 5370 H 489.386 4.33608 -2.17054 0
M  V30 5371 N 490.729 0.570148 1.46925 0
M  V30 5372 C 491.957 0.0561966 2.06824 0
M  V30 5373 C 492.372 -1.24326 1.42086 0
M  V30 5374 O 491.729 -1.74882 0.521794 0
M  V30 5375 C 491.78 -0.129517 3.61268 0
M  V30 5376 O 491.501 1.1185 4.23581 0
M  V30 5377 C 493.002 -0.679266 4.38065 0
M  V30 5378 H 490.222 0.0517261 0.669003 0
M  V30 5379 H 492.766 0.787243 1.8874 0
M  V30 5380 H 490.921 -0.810739 3.78822 0
M  V30 5381 H 491.335 0.924375 5.1629 0
M  V30 5382 H 492.809 -0.758445 5.46765 0
M  V30 5383 H 493.286 -1.69346 4.05239 0
M  V30 5384 H 493.892 -0.0333237 4.25287 0
M  V30 5385 N 492.207 -1.54576 0.307264 0
M  V30 5386 C 493.435 -2.04675 -0.302597 0
M  V30 5387 C 493.85 -1.18425 -1.47041 0
M  V30 5388 O 493.207 -0.211257 -1.81273 0
M  V30 5389 C 493.258 -3.53575 -0.752801 0
M  V30 5390 O 492.979 -4.36547 0.368536 0
M  V30 5391 C 494.48 -4.19699 -1.42717 0
M  V30 5392 H 491.7 -0.66786 -0.0648374 0
M  V30 5393 H 494.244 -1.99516 0.448716 0
M  V30 5394 H 492.399 -3.59074 -1.45412 0
M  V30 5395 H 492.813 -5.24497 0.0168937 0
M  V30 5396 H 494.287 -5.25388 -1.69327 0
M  V30 5397 H 494.764 -3.69815 -2.36925 0
M  V30 5398 H 495.37 -4.18293 -0.768856 0
M  V30 5399 N 493.685 -0.035106 -1.57561 0
M  V30 5400 C 494.615 0.942993 -2.13612 0
M  V30 5401 C 495.596 1.33531 -1.05373 0
M  V30 5402 O 496.781 1.41287 -1.33235 0
M  V30 5403 C 493.911 2.22332 -2.66807 0
M  V30 5404 C 492.865 1.97156 -3.79886 0
M  V30 5405 C 492.191 3.31506 -4.19533 0
M  V30 5406 C 493.491 1.30596 -5.05709 0
M  V30 5407 H 495.185 0.476179 -2.95589 0
M  V30 5408 H 492.731 0.227602 -1.4219 0
M  V30 5409 H 494.684 2.91142 -3.04654 0
M  V30 5410 H 493.408 2.7119 -1.81999 0
M  V30 5411 H 492.067 1.30763 -3.42486 0
M  V30 5412 H 491.715 3.78134 -3.31698 0
M  V30 5413 H 491.415 3.15465 -4.95738 0
M  V30 5414 H 492.939 4.01574 -4.59968 0
M  V30 5415 H 494.353 1.89416 -5.41105 0
M  V30 5416 H 492.75 1.24934 -5.86951 0
M  V30 5417 H 493.82 0.279742 -4.84092 0
M  V30 5418 N 495.163 1.55791 0.238111 0
M  V30 5419 C 496.093 1.94068 1.29846 0
M  V30 5420 C 497.074 0.806726 1.49753 0
M  V30 5421 O 498.259 1.06772 1.62214 0
M  V30 5422 C 495.389 2.24302 2.65153 0
M  V30 5423 C 494.343 3.40032 2.59927 0
M  V30 5424 C 493.669 3.55829 3.99111 0
M  V30 5425 C 494.969 4.75476 2.16148 0
M  V30 5426 H 496.663 2.82887 0.980563 0
M  V30 5427 H 494.209 1.36105 0.470253 0
M  V30 5428 H 496.162 2.4967 3.39475 0
M  V30 5429 H 494.886 1.32318 2.98596 0
M  V30 5430 H 493.545 3.14687 1.88063 0
M  V30 5431 H 493.193 2.6125 4.29834 0
M  V30 5432 H 492.893 4.3366 3.96501 0
M  V30 5433 H 494.417 3.83528 4.7512 0
M  V30 5434 H 495.831 5.00158 2.80205 0
M  V30 5435 H 494.228 5.56472 2.24631 0
M  V30 5436 H 495.298 4.71946 1.11333 0
M  V30 5437 N 496.642 -0.504142 1.49319 0
M  V30 5438 C 497.572 -1.61473 1.68667 0
M  V30 5439 C 498.553 -1.61455 0.535378 0
M  V30 5440 O 499.738 -1.78245 0.770868 0
M  V30 5441 C 496.868 -2.99971 1.75028 0
M  V30 5442 C 495.822 -3.14854 2.89916 0
M  V30 5443 C 495.148 -4.54671 2.81387 0
M  V30 5444 C 496.448 -2.95176 4.30893 0
M  V30 5445 H 498.142 -1.45535 2.61648 0
M  V30 5446 H 495.688 -0.698711 1.25913 0
M  V30 5447 H 497.641 -3.77562 1.8715 0
M  V30 5448 H 496.365 -3.1699 0.786441 0
M  V30 5449 H 495.024 -2.39687 2.77391 0
M  V30 5450 H 494.672 -4.68562 1.82917 0
M  V30 5451 H 494.372 -4.6557 3.58494 0
M  V30 5452 H 495.896 -5.34327 2.95512 0
M  V30 5453 H 497.31 -3.62538 4.44116 0
M  V30 5454 H 495.707 -3.17549 5.09198 0
M  V30 5455 H 496.777 -1.91332 4.45556 0
M  V30 5456 N 498.12 -1.38341 -0.754957 0
M  V30 5457 C 499.531 -1.30803 -1.3322 0
M  V30 5458 C 499.882 0.0368 -1.96165 0
M  V30 5459 O 499.007 0.938844 -1.94974 0
M  V30 5460 C 499.602 -2.3688 -2.42225 0
M  V30 5461 C 498.161 -2.32925 -2.95674 0
M  V30 5462 C 497.308 -2.19819 -1.69042 0
M  V30 5463 H 500.259 -1.48719 -0.553937 0
M  V30 5464 H 500.28 -2.02517 -3.22129 0
M  V30 5465 H 499.792 -3.34747 -1.96383 0
M  V30 5466 H 497.893 -1.38635 -3.45848 0
M  V30 5467 H 498.006 -3.27008 -3.50146 0
M  V30 5468 H 496.37 -1.66648 -1.92615 0
M  V30 5469 H 497.153 -3.19625 -1.25279 0
M  V30 5470 N 499.598 0.982988 -1.23187 0
M  V30 5471 C 500.847 1.71817 -1.05649 0
M  V30 5472 C 501.16 1.91315 0.407176 0
M  V30 5473 O 502.366 2.62256 0.702436 0
M  V30 5474 C 500.822 3.09188 -1.84203 0
M  V30 5475 C 500.43 2.97586 -3.34882 0
M  V30 5476 C 502.174 3.86684 -1.75146 0
M  V30 5477 C 500.081 4.30173 -4.05839 0
M  V30 5478 H 499.011 0.644258 -0.391724 0
M  V30 5479 H 501.662 1.09659 -1.4713 0
M  V30 5480 H 500.044 3.72087 -1.35527 0
M  V30 5481 H 501.218 2.43793 -3.91026 0
M  V30 5482 H 499.533 2.33567 -3.44725 0
M  V30 5483 H 502.13 4.84836 -2.25473 0
M  V30 5484 H 502.473 4.10136 -0.713737 0
M  V30 5485 H 503.006 3.30482 -2.21419 0
M  V30 5486 H 499.745 4.11918 -5.09906 0
M  V30 5487 H 499.265 4.83841 -3.54482 0
M  V30 5488 H 500.944 4.98873 -4.11989 0
M  V30 5489 N 501.076 1.04316 1.18135 0
M  V30 5490 C 502.301 0.768047 1.92655 0
M  V30 5491 C 502.726 -0.66904 1.758 0
M  V30 5492 O 502.084 -1.46372 1.06981 0
M  V30 5493 C 502.132 1.14239 3.42026 0
M  V30 5494 O 501.236 0.269333 4.1152 0
M  V30 5495 H 500.577 0.282436 0.600937 0
M  V30 5496 H 503.107 1.39367 1.49793 0
M  V30 5497 H 503.117 1.10538 3.92741 0
M  V30 5498 H 501.792 2.18928 3.53615 0
M  V30 5499 H 500.369 0.366175 3.71098 0
M  V30 5500 N 502.554 -1.34406 0.822964 0
M  V30 5501 C 503.965 -1.8069 0.469879 0
M  V30 5502 C 504.316 -1.68223 -1.00972 0
M  V30 5503 O 503.441 -1.22226 -1.78577 0
M  V30 5504 C 504.036 -3.28064 0.846118 0
M  V30 5505 C 502.595 -3.72428 0.545402 0
M  V30 5506 C 501.742 -2.56116 1.06301 0
M  V30 5507 H 504.693 -1.22153 1.01313 0
M  V30 5508 H 504.714 -3.80205 0.149922 0
M  V30 5509 H 504.226 -3.37107 1.92304 0
M  V30 5510 H 502.327 -3.68924 -0.522109 0
M  V30 5511 H 502.44 -4.66548 1.0895 0
M  V30 5512 H 500.804 -2.50048 0.484554 0
M  V30 5513 H 501.587 -2.67928 2.14638 0
M  V30 5514 N 504.032 -0.577932 -1.46621 0
M  V30 5515 C 505.279 -0.0616879 -2.02406 0
M  V30 5516 C 505.607 1.29638 -1.44997 0
M  V30 5517 O 504.862 1.86176 -0.60308 0
M  V30 5518 C 505.161 0.0590832 -3.57351 0
M  V30 5519 C 504.827 -1.23077 -4.33777 0
M  V30 5520 C 503.489 -1.58416 -4.54376 0
M  V30 5521 C 505.841 -2.08457 -4.77698 0
M  V30 5522 C 503.169 -2.78943 -5.16147 0
M  V30 5523 C 505.521 -3.28204 -5.408 0
M  V30 5524 C 504.185 -3.63832 -5.59627 0
M  V30 5525 H 503.455 -0.0225732 -0.740656 0
M  V30 5526 H 506.102 -0.753609 -1.76048 0
M  V30 5527 H 504.407 0.834104 -3.82818 0
M  V30 5528 H 506.104 0.474202 -3.98186 0
M  V30 5529 H 502.694 -0.945652 -4.18038 0
M  V30 5530 H 506.878 -1.82459 -4.61544 0
M  V30 5531 H 502.134 -3.06689 -5.28916 0
M  V30 5532 H 506.308 -3.94634 -5.73792 0
M  V30 5533 H 503.935 -4.57315 -6.07262 0
M  V30 5534 N 505.51 1.54411 -0.315457 0
M  V30 5535 C 506.443 2.20265 0.596522 0
M  V30 5536 C 507.421 1.17693 1.12192 0
M  V30 5537 O 508.605 1.46397 1.18744 0
M  V30 5538 C 505.732 2.85794 1.81767 0
M  V30 5539 C 504.778 4.02017 1.42424 0
M  V30 5540 S 505.611 5.33452 0.467836 0
M  V30 5541 C 506.767 6.02471 1.69645 0
M  V30 5542 H 507 2.97277 0.0370896 0
M  V30 5543 H 504.533 1.54079 -0.0995562 0
M  V30 5544 H 506.491 3.24172 2.51839 0
M  V30 5545 H 505.152 2.08601 2.34828 0
M  V30 5546 H 504.345 4.46701 2.33396 0
M  V30 5547 H 503.947 3.65271 0.803311 0
M  V30 5548 H 506.239 6.24157 2.63504 0
M  V30 5549 H 507.182 6.96215 1.29192 0
M  V30 5550 H 507.59 5.32284 1.87974 0
M  V30 5551 N 506.988 0.0434614 1.5754 0
M  V30 5552 C 507.918 -0.931651 2.14109 0
M  V30 5553 C 508.899 -1.32971 1.06079 0
M  V30 5554 O 510.084 -1.40579 1.33982 0
M  V30 5555 C 507.214 -2.20914 2.67982 0
M  V30 5556 C 506.168 -1.95139 3.80926 0
M  V30 5557 C 505.494 -3.29276 4.21285 0
M  V30 5558 C 506.794 -1.27913 5.06395 0
M  V30 5559 H 508.488 -0.460497 2.95837 0
M  V30 5560 H 506.034 -0.220058 1.42309 0
M  V30 5561 H 507.987 -2.89522 3.06194 0
M  V30 5562 H 506.711 -2.70221 1.83434 0
M  V30 5563 H 505.37 -1.28945 3.43175 0
M  V30 5564 H 505.018 -3.76369 3.33699 0
M  V30 5565 H 504.718 -3.12831 4.97404 0
M  V30 5566 H 506.242 -3.99129 4.62091 0
M  V30 5567 H 507.656 -1.86544 5.42102 0
M  V30 5568 H 506.053 -1.2182 5.87605 0
M  V30 5569 H 507.123 -0.254066 4.84234 0
M  V30 5570 N 508.466 -1.55915 -0.229846 0
M  V30 5571 C 509.399 -1.86734 -1.3117 0
M  V30 5572 C 510.377 -0.723947 -1.45595 0
M  V30 5573 O 511.561 -0.971462 -1.61539 0
M  V30 5574 C 508.688 -2.06707 -2.68309 0
M  V30 5575 C 507.734 -3.2938 -2.70944 0
M  V30 5576 S 508.567 -4.85547 -2.25842 0
M  V30 5577 C 509.723 -5.08546 -3.64873 0
M  V30 5578 H 509.956 -2.78204 -1.04832 0
M  V30 5579 H 507.489 -1.48243 -0.431681 0
M  V30 5580 H 509.447 -2.18898 -3.47267 0
M  V30 5581 H 508.108 -1.16049 -2.91876 0
M  V30 5582 H 507.301 -3.40374 -3.71701 0
M  V30 5583 H 506.903 -3.16004 -2.00044 0
M  V30 5584 H 509.195 -4.96935 -4.60502 0
M  V30 5585 H 510.138 -6.10465 -3.58801 0
M  V30 5586 H 510.546 -4.36314 -3.58176 0
M  V30 5587 N 509.944 0.496216 -1.49584 0
M  V30 5588 C 511.193 1.24668 -1.58558 0
M  V30 5589 C 511.506 1.9359 -0.279703 0
M  V30 5590 O 512.712 2.70365 -0.248048 0
M  V30 5591 C 511.168 2.26388 -2.79779 0
M  V30 5592 C 510.776 1.63384 -4.17145 0
M  V30 5593 C 512.52 3.02233 -2.98086 0
M  V30 5594 C 510.427 2.63243 -5.29582 0
M  V30 5595 H 509.357 0.468995 -0.590389 0
M  V30 5596 H 512.008 0.519985 -1.75978 0
M  V30 5597 H 510.39 3.02241 -2.55863 0
M  V30 5598 H 511.564 0.93491 -4.51216 0
M  V30 5599 H 509.879 0.999121 -4.04236 0
M  V30 5600 H 512.476 3.76919 -3.79257 0
M  V30 5601 H 512.819 3.60132 -2.08831 0
M  V30 5602 H 513.352 2.33495 -3.22063 0
M  V30 5603 H 510.091 2.10119 -6.20911 0
M  V30 5604 H 509.611 3.31363 -4.99959 0
M  V30 5605 H 511.29 3.25575 -5.59115 0
M  V30 5606 N 511.423 1.38739 0.74761 0
M  V30 5607 C 512.353 1.39173 1.87492 0
M  V30 5608 C 513.334 0.256794 1.6815 0
M  V30 5609 O 514.519 0.460762 1.88655 0
M  V30 5610 C 511.649 1.22197 3.25093 0
M  V30 5611 C 510.603 2.32957 3.59047 0
M  V30 5612 C 509.929 2.01082 4.95449 0
M  V30 5613 C 511.229 3.75237 3.6331 0
M  V30 5614 H 512.923 2.3351 1.87386 0
M  V30 5615 H 510.469 1.12399 0.900134 0
M  V30 5616 H 512.422 1.21124 4.03617 0
M  V30 5617 H 511.146 0.243241 3.25693 0
M  V30 5618 H 509.805 2.33226 2.82845 0
M  V30 5619 H 509.453 1.01678 4.92616 0
M  V30 5620 H 509.153 2.75267 5.19136 0
M  V30 5621 H 510.677 2.01638 5.76346 0
M  V30 5622 H 512.091 3.76966 4.31937 0
M  V30 5623 H 510.488 4.48677 3.98509 0
M  V30 5624 H 511.558 4.07122 2.634 0
M  V30 5625 O 512.94 -0.888371 1.34871 0
M  V30 5626 H 513.631 -1.52504 1.19424 0
M  V30 END ATOM
M  V30 BEGIN BOND
M  V30 END BOND
M  V30 END CTAB
M  END
$$$$
