drugbank_target|P03923 NADH-ubiquinone oxidoreductase chain 6 (DB00157)
 OpenBabel12092119293D

  0  0  0     0  0            999 V3000
M  V30 BEGIN CTAB
M  V30 COUNTS 2643 2675 0 0 0
M  V30 BEGIN ATOM
M  V30 1 H -0.908 1.98254 -0.117106 0
M  V30 2 N 0 1.576 0 0
M  V30 3 C 0.933 2.03868 1.02534 0
M  V30 4 C 1.911 0.928543 1.3348 0
M  V30 5 O 3.095 1.19667 1.45644 0
M  V30 6 C 0.222 2.43627 2.35294 0
M  V30 7 C -0.732 3.65373 2.2001 0
M  V30 8 S 0.101 5.13292 1.52614 0
M  V30 9 C 1.257 5.56322 2.86805 0
M  V30 10 H 1.49 2.90518 0.631377 0
M  V30 11 H -0.977 1.52953 0.210867 0
M  V30 12 H 0.981 2.67203 3.11629 0
M  V30 13 H -0.358 1.57376 2.7183 0
M  V30 14 H -1.165 3.90944 3.18086 0
M  V30 15 H -1.563 3.418 1.51819 0
M  V30 16 H 0.729 5.58782 3.83104 0
M  V30 17 H 1.672 6.56266 2.65933 0
M  V30 18 H 2.08 4.83886 2.90714 0
M  V30 19 N 1.4781 -0.272755 1.55222 0
M  V30 20 C 2.4111 -1.3627 1.83046 0
M  V30 21 C 3.3891 -1.47536 0.683521 0
M  V30 22 O 4.5731 -1.64157 0.926545 0
M  V30 23 C 1.7001 -2.73908 1.99229 0
M  V30 24 C 0.7461 -2.79925 3.21783 0
M  V30 25 S 1.5791 -2.39146 4.79134 0
M  V30 26 C 2.7351 -3.78758 4.9829 0
M  V30 27 H 2.9681 -1.12464 2.75207 0
M  V30 28 H 0.5011 -0.472398 1.46996 0
M  V30 29 H 2.4591 -3.53171 2.09238 0
M  V30 30 H 1.1201 -2.94965 1.07956 0
M  V30 31 H 0.3131 -3.80946 3.29994 0
M  V30 32 H -0.0849 -2.08683 3.10367 0
M  V30 33 H 2.2071 -4.7403 4.84047 0
M  V30 34 H 3.1501 -3.75499 6.00338 0
M  V30 35 H 3.5581 -3.70072 4.26271 0
M  V30 36 N 2.9562 -1.48159 -0.537278 0
M  V30 37 C 4.1862 -1.59223 -1.3165 0
M  V30 38 C 4.5942 -0.248849 -1.87556 0
M  V30 39 O 3.9372 0.770949 -1.6674 0
M  V30 40 C 3.9992 -2.57365 -2.51005 0
M  V30 41 C 3.6632 -4.02603 -2.16239 0
M  V30 42 C 4.6602 -4.90503 -1.72344 0
M  V30 43 C 2.3452 -4.48088 -2.26986 0
M  V30 44 C 4.3392 -6.21913 -1.39651 0
M  V30 45 C 2.0262 -5.7952 -1.93906 0
M  V30 46 C 3.0242 -6.66255 -1.50309 0
M  V30 47 O 2.7122 -7.95243 -1.17659 0
M  V30 48 H 2.4442 -0.539831 -0.406889 0
M  V30 49 H 4.9982 -1.94655 -0.655641 0
M  V30 50 H 3.2282 -2.1704 -3.20048 0
M  V30 51 H 4.9172 -2.58342 -3.13072 0
M  V30 52 H 5.6832 -4.56604 -1.63517 0
M  V30 53 H 1.5622 -3.80769 -2.59877 0
M  V30 54 H 5.1062 -6.89569 -1.0555 0
M  V30 55 H 1.0032 -6.12957 -2.02371 0
M  V30 56 H 1.7712 -8.0793 -1.31119 0
M  V30 57 N 4.4343 0.785586 -1.36625 0
M  V30 58 C 5.3973 1.87999 -1.31107 0
M  V30 59 C 6.3973 1.59316 -0.217959 0
M  V30 60 O 7.5873 1.67656 -0.472977 0
M  V30 61 C 4.7193 3.24861 -1.03334 0
M  V30 62 H 5.9123 1.94307 -2.2844 0
M  V30 63 H 3.4653 0.983813 -1.21453 0
M  V30 64 H 4.2003 3.24235 -0.0647432 0
M  V30 65 H 3.9853 3.4707 -1.82441 0
M  V30 66 H 5.4753 4.04929 -1.02088 0
M  V30 67 N 5.9124 1.20967 1.01018 0
M  V30 68 C 6.8424 0.988272 2.11555 0
M  V30 69 C 7.8234 -0.0849778 1.69888 0
M  V30 70 O 9.0084 0.0738202 1.9406 0
M  V30 71 C 6.1384 0.546528 3.42973 0
M  V30 72 C 5.0924 1.56375 3.9841 0
M  V30 73 C 4.4184 0.97842 5.25672 0
M  V30 74 C 5.7184 2.94922 4.31066 0
M  V30 75 H 7.4124 1.91276 2.30334 0
M  V30 76 H 4.9584 0.921073 1.1069 0
M  V30 77 H 6.9114 0.378839 4.19694 0
M  V30 78 H 5.6354 -0.413598 3.23971 0
M  V30 79 H 4.2944 1.71891 3.23804 0
M  V30 80 H 3.9424 0.0101688 5.02999 0
M  V30 81 H 3.6424 1.65784 5.63728 0
M  V30 82 H 5.1664 0.821939 6.05043 0
M  V30 83 H 6.5804 2.8288 4.9865 0
M  V30 84 H 4.9774 3.5983 4.80253 0
M  V30 85 H 6.0474 3.4616 3.39561 0
M  V30 86 N 7.3905 -1.2043 1.01659 0
M  V30 87 C 8.6375 -1.89797 0.705917 0
M  V30 88 C 8.9655 -1.78848 -0.764439 0
M  V30 89 O 8.2205 -1.16694 -1.57102 0
M  V30 90 C 8.5195 -3.40464 1.08714 0
M  V30 91 C 8.1855 -3.71614 2.5537 0
M  V30 92 C 6.8475 -3.79826 2.95441 0
M  V30 93 C 9.1995 -3.85915 3.50313 0
M  V30 94 C 6.5275 -3.99797 4.29394 0
M  V30 95 C 8.8795 -4.07396 4.83954 0
M  V30 96 C 7.5435 -4.13837 5.23732 0
M  V30 97 H 6.8135 -0.694518 0.258313 0
M  V30 98 H 9.4605 -1.42691 1.27717 0
M  V30 99 H 7.7655 -3.89385 0.434309 0
M  V30 100 H 9.4625 -3.92433 0.824461 0
M  V30 101 H 6.0525 -3.65822 2.23321 0
M  V30 102 H 10.2365 -3.78926 3.20513 0
M  V30 103 H 5.4925 -4.03018 4.59768 0
M  V30 104 H 9.6665 -4.17404 5.57447 0
M  V30 105 H 7.2935 -4.29064 6.27541 0
M  V30 106 N 8.8686 -0.792821 -1.36206 0
M  V30 107 C 9.7986 -0.207853 -2.32573 0
M  V30 108 C 10.7796 0.659055 -1.56813 0
M  V30 109 O 11.9646 0.592176 -1.84951 0
M  V30 110 C 9.0946 0.655449 -3.41059 0
M  V30 111 C 8.0486 -0.111842 -4.27854 0
M  V30 112 C 7.3746 0.872274 -5.27537 0
M  V30 113 C 8.6746 -1.30299 -5.05786 0
M  V30 114 H 10.3686 -1.01294 -2.81744 0
M  V30 115 H 7.9146 -0.48854 -1.3546 0
M  V30 116 H 9.8676 1.07464 -4.07467 0
M  V30 117 H 8.5916 1.49328 -2.90463 0
M  V30 118 H 7.2506 -0.512053 -3.63006 0
M  V30 119 H 6.8986 1.70523 -4.73214 0
M  V30 120 H 6.5986 0.363291 -5.86476 0
M  V30 121 H 8.1226 1.28996 -5.96818 0
M  V30 122 H 9.5366 -0.959379 -5.65216 0
M  V30 123 H 7.9336 -1.7455 -5.74154 0
M  V30 124 H 9.0036 -2.09663 -4.37229 0
M  V30 125 N 10.3467 1.47872 -0.545128 0
M  V30 126 C 11.2767 2.32661 0.197793 0
M  V30 127 C 12.2577 1.43041 0.920504 0
M  V30 128 O 13.4427 1.71912 0.90333 0
M  V30 129 C 10.5727 3.24569 1.23582 0
M  V30 130 C 9.5267 4.23333 0.630323 0
M  V30 131 C 8.8527 5.0448 1.77211 0
M  V30 132 C 10.1527 5.20704 -0.407974 0
M  V30 133 H 11.8467 2.95024 -0.510045 0
M  V30 134 H 9.3927 1.4187 -0.246731 0
M  V30 135 H 11.3457 3.8272 1.76362 0
M  V30 136 H 10.0697 2.60236 1.97344 0
M  V30 137 H 8.7287 3.6639 0.123922 0
M  V30 138 H 8.3767 4.36561 2.49847 0
M  V30 139 H 8.0767 5.71339 1.37281 0
M  V30 140 H 9.6007 5.65487 2.3034 0
M  V30 141 H 11.0147 5.7329 0.033305 0
M  V30 142 H 9.4117 5.95699 -0.725486 0
M  V30 143 H 10.4817 4.66917 -1.30828 0
M  V30 144 N 11.8248 0.280983 1.55075 0
M  V30 145 C 13.0498 -0.340154 2.04592 0
M  V30 146 C 13.4748 -1.48246 1.15779 0
M  V30 147 O 12.8328 -1.80614 0.15761 0
M  V30 148 C 12.8808 -0.793104 3.5177 0
M  V30 149 O 11.9848 -1.89981 3.66034 0
M  V30 150 H 11.3258 -0.0694289 0.66036 0
M  V30 151 H 13.8558 0.416993 2.00306 0
M  V30 152 H 13.8658 -1.08729 3.93245 0
M  V30 153 H 12.5408 0.0426163 4.15878 0
M  V30 154 H 11.1178 -1.60771 3.36463 0
M  V30 155 N 13.3029 -1.57598 0.00835791 0
M  V30 156 C 14.5489 -1.91211 -0.675732 0
M  V30 157 C 14.8819 -0.883139 -1.72958 0
M  V30 158 O 14.1569 0.097016 -1.94258 0
M  V30 159 C 14.4399 -3.35379 -1.31123 0
M  V30 160 C 14.2929 -4.48999 -0.268356 0
M  V30 161 C 15.6119 -3.7912 -2.23508 0
M  V30 162 H 12.7309 -0.695374 -0.244179 0
M  V30 163 H 15.3729 -1.89901 0.0613655 0
M  V30 164 H 13.5229 -3.36626 -1.93946 0
M  V30 165 H 15.1949 -4.59887 0.360844 0
M  V30 166 H 13.4379 -4.31873 0.408482 0
M  V30 167 H 14.1089 -5.46851 -0.752218 0
M  V30 168 H 16.5849 -3.79477 -1.70693 0
M  V30 169 H 15.4609 -4.80729 -2.64936 0
M  V30 170 H 15.7219 -3.13455 -3.11766 0
M  V30 171 N 14.781 0.264519 -1.55364 0
M  V30 172 C 16.029 0.993021 -1.76021 0
M  V30 173 C 16.35 1.86511 -0.569099 0
M  V30 174 O 15.62 1.91438 0.415735 0
M  V30 175 H 14.2 0.369639 -0.649135 0
M  V30 176 H 16.862 0.286707 -1.9278 0
M  V30 177 H 15.958 1.62502 -2.66457 0
M  V30 178 N 16.2591 1.48442 0.529413 0
M  V30 179 C 17.1891 1.65902 1.64313 0
M  V30 180 C 18.1701 0.507897 1.6234 0
M  V30 181 O 19.3551 0.740503 1.79528 0
M  V30 182 C 16.4851 1.69911 3.02898 0
M  V30 183 C 15.4391 2.8453 3.19729 0
M  V30 184 C 14.7651 2.73629 4.59381 0
M  V30 185 C 16.0651 4.25821 3.02447 0
M  V30 186 H 17.7591 2.5914 1.49955 0
M  V30 187 H 15.3051 1.24709 0.719982 0
M  V30 188 H 17.2581 1.80715 3.80684 0
M  V30 189 H 15.9821 0.732524 3.18279 0
M  V30 190 H 14.6411 2.73283 2.44361 0
M  V30 191 H 14.2891 1.74938 4.71599 0
M  V30 192 H 13.9891 3.50541 4.71588 0
M  V30 193 H 15.5131 2.86401 5.39265 0
M  V30 194 H 16.9271 4.37898 3.70024 0
M  V30 195 H 15.3241 5.03735 3.26146 0
M  V30 196 H 16.3941 4.42244 1.98867 0
M  V30 197 N 17.7372 -0.778329 1.37039 0
M  V30 198 C 18.9832 -1.53892 1.32079 0
M  V30 199 C 19.3162 -1.9396 -0.0965386 0
M  V30 200 O 18.5912 -1.63568 -1.05242 0
M  V30 201 C 18.8742 -2.80847 2.25382 0
M  V30 202 C 18.7272 -2.47076 3.75864 0
M  V30 203 C 20.0462 -3.82741 2.1725 0
M  V30 204 H 17.1652 -0.558303 0.48111 0
M  V30 205 H 19.8072 -0.893397 1.67685 0
M  V30 206 H 17.9572 -3.35931 1.95148 0
M  V30 207 H 19.6292 -1.97957 4.16666 0
M  V30 208 H 17.8722 -1.79863 3.94755 0
M  V30 209 H 18.5432 -3.37798 4.36574 0
M  V30 210 H 21.0192 -3.37133 2.43887 0
M  V30 211 H 19.8952 -4.69303 2.84686 0
M  V30 212 H 20.1562 -4.2652 1.16331 0
M  V30 213 N 19.2153 -1.21501 -1.00376 0
M  V30 214 C 20.1483 -0.918669 -2.08892 0
M  V30 215 C 21.1263 0.134277 -1.62045 0
M  V30 216 O 22.3103 0.00504255 -1.88499 0
M  V30 217 C 19.4373 -0.379645 -3.36566 0
M  V30 218 C 18.4833 -1.41559 -4.02323 0
M  V30 219 S 19.3163 -2.98521 -4.44574 0
M  V30 220 C 20.4723 -2.46228 -5.75433 0
M  V30 221 H 20.7053 -1.83761 -2.33707 0
M  V30 222 H 18.2383 -1.04489 -1.13673 0
M  V30 223 H 20.1963 -0.0752195 -4.10431 0
M  V30 224 H 18.8573 0.518008 -3.09799 0
M  V30 225 H 18.0503 -0.988076 -4.9422 0
M  V30 226 H 17.6523 -1.66815 -3.34737 0
M  V30 227 H 19.9443 -1.86791 -6.51241 0
M  V30 228 H 20.8873 -3.36572 -6.22997 0
M  V30 229 H 21.2953 -1.87894 -5.32312 0
M  V30 230 N 20.6934 1.19889 -1.02296 0
M  V30 231 C 21.9414 1.89046 -0.714558 0
M  V30 232 C 22.2624 1.79636 0.758681 0
M  V30 233 O 21.5324 1.20292 1.54618 0
M  V30 234 H 20.1124 0.699802 -0.261317 0
M  V30 235 H 22.7744 1.45574 -1.29592 0
M  V30 236 H 21.8704 2.95524 -1.0036 0
M  V30 237 N 22.1715 0.800033 1.35784 0
M  V30 238 C 23.4185 0.377342 1.98953 0
M  V30 239 C 23.7465 -1.05378 1.6348 0
M  V30 240 O 23.0015 -1.74459 0.886707 0
M  V30 241 C 23.3005 0.500276 3.53881 0
M  V30 242 C 22.9665 1.89375 4.09204 0
M  V30 243 C 21.6285 2.27499 4.24025 0
M  V30 244 C 23.9805 2.8057 4.39238 0
M  V30 245 C 21.3085 3.562 4.66195 0
M  V30 246 C 23.6605 4.0871 4.82844 0
M  V30 247 C 22.3245 4.46843 4.95871 0
M  V30 248 H 21.5945 0.138079 0.728021 0
M  V30 249 H 24.2415 1.01955 1.62103 0
M  V30 250 H 22.5465 -0.225405 3.91151 0
M  V30 251 H 24.2435 0.154097 4.00704 0
M  V30 252 H 20.8335 1.58753 3.98115 0
M  V30 253 H 25.0175 2.52367 4.27346 0
M  V30 254 H 20.2735 3.85602 4.74469 0
M  V30 255 H 24.4475 4.79481 5.05046 0
M  V30 256 H 22.0745 5.46623 5.28306 0
M  V30 257 N 23.6496 -1.47581 0.552962 0
M  V30 258 C 24.8956 -2.02782 0.0273648 0
M  V30 259 C 25.2286 -1.42687 -1.31734 0
M  V30 260 O 24.5036 -0.580897 -1.85623 0
M  V30 261 C 24.7866 -3.60031 -0.0702371 0
M  V30 262 C 24.6396 -4.30566 1.30126 0
M  V30 263 C 25.9586 -4.33028 -0.785771 0
M  V30 264 H 23.0776 -0.736912 0.0114185 0
M  V30 265 H 25.7196 -1.76056 0.714432 0
M  V30 266 H 23.8696 -3.82932 -0.655382 0
M  V30 267 H 25.5416 -4.19018 1.92929 0
M  V30 268 H 23.7846 -3.91086 1.87709 0
M  V30 269 H 24.4556 -5.39114 1.18573 0
M  V30 270 H 26.9316 -4.15095 -0.288982 0
M  V30 271 H 25.8076 -5.42695 -0.823013 0
M  V30 272 H 26.0686 -4.01945 -1.841 0
M  V30 273 N 25.1277 -0.289203 -1.54924 0
M  V30 274 C 26.3757 0.322879 -1.99504 0
M  V30 275 C 26.6967 1.55313 -1.1791 0
M  V30 276 O 25.9667 1.94001 -0.272097 0
M  V30 277 H 24.5467 0.122291 -0.736922 0
M  V30 278 H 27.2087 -0.397802 -1.90797 0
M  V30 279 H 26.3047 0.603061 -3.06218 0
M  V30 280 N 26.6058 1.57591 -0.0167156 0
M  V30 281 C 27.8528 1.91283 0.664597 0
M  V30 282 C 28.1808 0.891949 1.72842 0
M  V30 283 O 27.4358 -0.100931 1.9544 0
M  V30 284 C 27.7348 3.3172 1.33029 0
M  V30 285 C 27.4008 4.4914 0.398047 0
M  V30 286 C 26.0628 4.80992 0.141421 0
M  V30 287 C 28.4148 5.20634 -0.242825 0
M  V30 288 C 25.7428 5.81703 -0.764092 0
M  V30 289 C 28.0948 6.22311 -1.13632 0
M  V30 290 C 26.7588 6.52611 -1.40196 0
M  V30 291 H 26.0288 0.699956 0.243193 0
M  V30 292 H 28.6758 1.9135 -0.0758267 0
M  V30 293 H 26.9808 3.27856 2.14517 0
M  V30 294 H 28.6778 3.55055 1.86379 0
M  V30 295 H 25.2678 4.24262 0.608238 0
M  V30 296 H 29.4518 4.96267 -0.0576019 0
M  V30 297 H 24.7078 6.03532 -0.977732 0
M  V30 298 H 28.8818 6.76834 -1.63917 0
M  V30 299 H 26.5088 7.30467 -2.10529 0
M  V30 300 N 28.0839 -0.256276 1.55502 0
M  V30 301 C 29.3089 -1.00766 1.81276 0
M  V30 302 C 29.7339 -1.78524 0.59252 0
M  V30 303 O 29.0919 -1.75413 -0.45827 0
M  V30 304 C 29.1399 -1.92869 3.04687 0
M  V30 305 O 28.2439 -3.019 2.80945 0
M  V30 306 H 27.5849 -0.287224 0.598664 0
M  V30 307 H 30.1149 -0.280109 2.02674 0
M  V30 308 H 30.1249 -2.34511 3.33869 0
M  V30 309 H 28.7999 -1.35689 3.93143 0
M  V30 310 H 27.3769 -2.64454 2.62904 0
M  V30 311 N 29.562 -1.4872 -0.521534 0
M  V30 312 C 30.787 -1.61101 -1.30618 0
M  V30 313 C 31.212 -0.274611 -1.86085 0
M  V30 314 O 30.57 0.754937 -1.64834 0
M  V30 315 C 30.618 -2.66709 -2.4269 0
M  V30 316 O 29.722 -2.24456 -3.45967 0
M  V30 317 H 29.063 -0.539921 -0.386499 0
M  V30 318 H 31.593 -1.94767 -0.626645 0
M  V30 319 H 31.603 -2.88245 -2.88754 0
M  V30 320 H 30.278 -3.63727 -2.01682 0
M  V30 321 H 28.855 -2.13168 -3.05964 0
M  V30 322 N 31.0401 0.771051 -1.3745 0
M  V30 323 C 31.9871 1.88435 -1.3327 0
M  V30 324 C 32.9571 1.64914 -0.198136 0
M  V30 325 O 34.1421 1.86821 -0.387606 0
M  V30 326 C 31.2821 3.25509 -1.14622 0
M  V30 327 C 30.3951 3.60979 -2.37314 0
M  V30 328 C 29.5301 4.87265 -2.11533 0
M  V30 329 C 28.5691 5.15469 -3.30088 0
M  V30 330 N 27.7061 6.32944 -3.03853 0
M  V30 331 H 32.5461 1.91344 -2.28455 0
M  V30 332 H 30.0831 0.935466 -1.13523 0
M  V30 333 H 32.0411 4.04582 -1.01831 0
M  V30 334 H 30.6711 3.21974 -0.230837 0
M  V30 335 H 29.7231 2.76885 -2.60842 0
M  V30 336 H 31.0351 3.77759 -3.25729 0
M  V30 337 H 30.1891 5.74244 -1.95777 0
M  V30 338 H 28.9281 4.7259 -1.20457 0
M  V30 339 H 27.9331 4.26966 -3.46382 0
M  V30 340 H 29.1581 5.32052 -4.22016 0
M  V30 341 H 27.1041 6.19625 -2.15407 0
M  V30 342 H 27.0211 6.50143 -3.85812 0
M  V30 343 H 28.2891 7.22857 -2.91716 0
M  V30 344 N 32.5182 1.22032 0.997298 0
M  V30 345 C 33.9292 1.0397 1.55071 0
M  V30 346 C 34.2802 -0.398192 1.92117 0
M  V30 347 O 33.4052 -1.28254 1.74298 0
M  V30 348 C 34.0002 1.88109 2.81781 0
M  V30 349 C 32.5592 1.74357 3.33581 0
M  V30 350 C 31.7062 1.84846 2.06706 0
M  V30 351 H 34.6572 1.35941 0.818883 0
M  V30 352 H 34.6782 1.39589 3.53971 0
M  V30 353 H 34.1902 2.92754 2.54787 0
M  V30 354 H 32.2912 0.72427 3.65493 0
M  V30 355 H 32.4042 2.56772 4.04481 0
M  V30 356 H 30.7682 1.28238 2.20062 0
M  V30 357 H 31.5512 2.91014 1.82114 0
M  V30 358 N 33.9963 -1.19345 1.0293 0
M  V30 359 C 35.2213 -1.93538 0.745511 0
M  V30 360 C 35.6463 -1.75007 -0.689511 0
M  V30 361 O 35.0043 -1.05265 -1.47611 0
M  V30 362 C 35.0523 -3.43336 1.10239 0
M  V30 363 O 34.1563 -4.11806 0.221289 0
M  V30 364 H 33.4973 -0.604193 0.275404 0
M  V30 365 H 36.0273 -1.5141 1.37609 0
M  V30 366 H 36.0373 -3.94004 1.05947 0
M  V30 367 H 34.7123 -3.56146 2.14786 0
M  V30 368 H 33.2893 -3.715 0.322842 0
M  V30 369 N 35.4744 -0.807222 -1.35358 0
M  V30 370 C 36.8854 -0.44876 -1.81226 0
M  V30 371 C 37.2364 1.02929 -1.67033 0
M  V30 372 O 36.3614 1.79991 -1.20133 0
M  V30 373 C 36.9564 -0.807774 -3.2903 0
M  V30 374 C 35.5154 -0.501901 -3.73039 0
M  V30 375 C 34.6624 -1.03304 -2.57339 0
M  V30 376 H 37.6134 -0.998808 -1.23327 0
M  V30 377 H 37.6344 -0.10554 -3.80354 0
M  V30 378 H 37.1464 -1.88357 -3.39328 0
M  V30 379 H 35.2474 0.565128 -3.68289 0
M  V30 380 H 35.3604 -1.03497 -4.67787 0
M  V30 381 H 33.7244 -0.455339 -2.50597 0
M  V30 382 H 34.5074 -2.11496 -2.70415 0
M  V30 383 N 36.9525 1.47285 -0.560781 0
M  V30 384 C 38.2015 2.01668 -0.035895 0
M  V30 385 C 38.5145 1.44021 1.32353 0
M  V30 386 O 39.7205 1.90088 1.93853 0
M  V30 387 C 38.1765 3.59897 -0.0136659 0
M  V30 388 C 37.7845 4.26536 -1.37006 0
M  V30 389 C 39.5285 4.22017 0.458425 0
M  V30 390 C 37.4355 5.76782 -1.30675 0
M  V30 391 H 36.3655 0.753938 -0.00964879 0
M  V30 392 H 39.0165 1.69243 -0.709166 0
M  V30 393 H 37.3985 3.89301 0.725325 0
M  V30 394 H 38.5725 4.0877 -2.12705 0
M  V30 395 H 36.8875 3.76419 -1.78038 0
M  V30 396 H 39.4845 5.32124 0.524247 0
M  V30 397 H 39.8275 3.89437 1.4712 0
M  V30 398 H 40.3605 3.97159 -0.225818 0
M  V30 399 H 37.0995 6.13988 -2.29564 0
M  V30 400 H 36.6195 5.96875 -0.591622 0
M  V30 401 H 38.2985 6.39063 -1.01033 0
M  V30 402 N 38.4306 0.297415 1.54768 0
M  V30 403 C 39.6606 -0.315165 2.04182 0
M  V30 404 C 40.0686 -1.4834 1.17439 0
M  V30 405 O 39.4116 -1.82695 0.191891 0
M  V30 406 C 39.4736 -0.837583 3.49607 0
M  V30 407 C 39.1376 0.204912 4.5654 0
M  V30 408 C 40.1346 1.03214 5.09552 0
M  V30 409 C 37.8196 0.345578 5.0111 0
M  V30 410 C 39.8136 1.986 6.05671 0
M  V30 411 C 37.5006 1.30289 5.97049 0
M  V30 412 C 38.4986 2.12159 6.49213 0
M  V30 413 O 38.1866 3.06268 7.43273 0
M  V30 414 H 37.9186 -0.0729646 0.672051 0
M  V30 415 H 40.4726 0.433907 2.00765 0
M  V30 416 H 38.7026 -1.63712 3.50336 0
M  V30 417 H 40.3916 -1.36566 3.82236 0
M  V30 418 H 41.1576 0.934312 4.75916 0
M  V30 419 H 37.0366 -0.28171 4.60138 0
M  V30 420 H 40.5806 2.62542 6.46311 0
M  V30 421 H 36.4776 1.40145 6.30103 0
M  V30 422 H 37.2456 3.01205 7.61064 0
M  V30 423 N 39.9087 -1.5758 0.0250728 0
M  V30 424 C 41.1567 -1.91255 -0.653151 0
M  V30 425 C 41.4777 -0.901691 -1.729 0
M  V30 426 O 40.7477 0.0573785 -1.95816 0
M  V30 427 H 39.3277 -0.705942 -0.244243 0
M  V30 428 H 41.9897 -1.94767 0.0719209 0
M  V30 429 H 41.0857 -2.91752 -1.10847 0
M  V30 430 N 41.3868 0.248026 -1.55636 0
M  V30 431 C 42.6348 0.974295 -1.77065 0
M  V30 432 C 42.9558 1.85897 -0.588849 0
M  V30 433 O 42.2258 1.91868 0.395407 0
M  V30 434 H 40.8058 0.362733 -0.653019 0
M  V30 435 H 43.4678 0.266244 -1.93073 0
M  V30 436 H 42.5638 1.59667 -2.68166 0
M  V30 437 N 42.8649 1.48995 0.513639 0
M  V30 438 C 43.7949 1.67636 1.62544 0
M  V30 439 C 44.7759 0.525087 1.61793 0
M  V30 440 O 45.9609 0.759502 1.78732 0
M  V30 441 C 43.0909 1.73114 3.01079 0
M  V30 442 C 42.0449 2.87905 3.16693 0
M  V30 443 C 41.3709 2.78486 4.56453 0
M  V30 444 C 42.6709 4.29005 2.97913 0
M  V30 445 H 44.3649 2.60716 1.47198 0
M  V30 446 H 41.9109 1.25465 0.706714 0
M  V30 447 H 43.8639 1.84742 3.78746 0
M  V30 448 H 42.5879 0.766241 3.17484 0
M  V30 449 H 41.2469 2.75859 2.41448 0
M  V30 450 H 40.8949 1.7993 4.69717 0
M  V30 451 H 40.5949 3.55523 4.67843 0
M  V30 452 H 42.1189 2.92104 5.36197 0
M  V30 453 H 43.5329 4.41798 3.65359 0
M  V30 454 H 41.9299 5.07166 3.20785 0
M  V30 455 H 42.9999 4.44329 1.94165 0
M  V30 456 N 44.343 -0.763751 1.37857 0
M  V30 457 C 45.589 -1.52483 1.33704 0
M  V30 458 C 45.922 -1.94051 -0.0759612 0
M  V30 459 O 45.197 -1.64675 -1.03501 0
M  V30 460 C 45.48 -2.78441 2.28348 0
M  V30 461 C 45.333 -2.43075 3.78463 0
M  V30 462 C 46.652 -3.80415 2.21298 0
M  V30 463 H 43.771 -0.553169 0.487005 0
M  V30 464 H 46.413 -0.875562 1.68624 0
M  V30 465 H 44.563 -3.33842 1.987 0
M  V30 466 H 46.235 -1.93527 4.18742 0
M  V30 467 H 44.478 -1.75666 3.96641 0
M  V30 468 H 45.149 -3.33149 4.40132 0
M  V30 469 H 47.625 -3.34527 2.47449 0
M  V30 470 H 46.501 -4.66257 2.89647 0
M  V30 471 H 46.762 -4.25262 1.20849 0
M  V30 472 N 45.8211 -1.22559 -0.990812 0
M  V30 473 C 46.7511 -1.0218 -2.09956 0
M  V30 474 C 47.7321 0.0579394 -1.70001 0
M  V30 475 O 48.9171 -0.104684 -1.93918 0
M  V30 476 C 46.0471 -0.601023 -3.4206 0
M  V30 477 C 45.0011 -1.62694 -3.95872 0
M  V30 478 C 44.3271 -1.06193 -5.24049 0
M  V30 479 C 45.6271 -3.01743 -4.2632 0
M  V30 480 H 47.3211 -1.94916 -2.27262 0
M  V30 481 H 44.8671 -0.938566 -1.09211 0
M  V30 482 H 46.8201 -0.445561 -4.19038 0
M  V30 483 H 45.5441 0.362005 -3.24588 0
M  V30 484 H 44.2031 -1.77021 -3.21028 0
M  V30 485 H 43.8511 -0.0901903 -5.02919 0
M  V30 486 H 43.5511 -1.74732 -5.61019 0
M  V30 487 H 45.0751 -0.918092 -6.03658 0
M  V30 488 H 46.4891 -2.90777 -4.94087 0
M  V30 489 H 44.8861 -3.67425 -4.74467 0
M  V30 490 H 45.9561 -3.51518 -3.34011 0
M  V30 491 N 47.2992 1.18797 -1.03562 0
M  V30 492 C 48.5482 1.87978 -0.731235 0
M  V30 493 C 48.8612 1.80911 0.743671 0
M  V30 494 O 50.0672 2.45407 1.16137 0
M  V30 495 C 48.5232 3.3721 -1.25768 0
M  V30 496 C 48.1312 3.52818 -2.76085 0
M  V30 497 C 49.8752 4.11825 -1.0296 0
M  V30 498 C 47.7822 4.9598 -3.22114 0
M  V30 499 H 46.7122 0.704063 -0.269835 0
M  V30 500 H 49.3632 1.34266 -1.25079 0
M  V30 501 H 47.7452 3.90359 -0.666011 0
M  V30 502 H 48.9192 3.09965 -3.40966 0
M  V30 503 H 47.2342 2.91602 -2.97249 0
M  V30 504 H 49.8312 5.17411 -1.34869 0
M  V30 505 H 50.1742 4.16287 0.0333546 0
M  V30 506 H 50.7072 3.64833 -1.58562 0
M  V30 507 H 47.4462 4.96684 -4.27768 0
M  V30 508 H 46.9662 5.39569 -2.61965 0
M  V30 509 H 48.6452 5.6467 -3.15844 0
M  V30 510 N 48.7773 0.814389 1.34928 0
M  V30 511 C 50.0233 0.399013 1.98836 0
M  V30 512 C 50.3563 -1.03314 1.64438 0
M  V30 513 O 49.6313 -1.71811 0.911659 0
M  V30 514 C 49.9143 0.591629 3.55207 0
M  V30 515 C 49.7673 2.06928 3.99376 0
M  V30 516 C 51.0863 0.022199 4.40094 0
M  V30 517 H 48.2053 0.146451 0.722303 0
M  V30 518 H 50.8473 1.02537 1.59957 0
M  V30 519 H 48.9973 0.0584441 3.88456 0
M  V30 520 H 50.6693 2.66544 3.76499 0
M  V30 521 H 48.9123 2.56287 3.49999 0
M  V30 522 H 49.5833 2.1549 5.08201 0
M  V30 523 H 52.0593 0.477643 4.13349 0
M  V30 524 H 50.9353 0.186832 5.48582 0
M  V30 525 H 51.1963 -1.07215 4.28902 0
M  V30 526 N 50.2554 -1.46986 0.568584 0
M  V30 527 C 51.4804 -2.07335 0.0520528 0
M  V30 528 C 51.9054 -1.41675 -1.23733 0
M  V30 529 O 51.2634 -0.495623 -1.74394 0
M  V30 530 C 51.3114 -3.60417 -0.11501 0
M  V30 531 O 50.4154 -3.95309 -1.17492 0
M  V30 532 H 49.7564 -0.661597 0.0564385 0
M  V30 533 H 52.2864 -1.88837 0.787507 0
M  V30 534 H 52.2964 -4.06698 -0.325644 0
M  V30 535 H 50.9714 -4.07601 0.826675 0
M  V30 536 H 49.5484 -3.60757 -0.943869 0
M  V30 537 N 51.7335 -0.305618 -1.54608 0
M  V30 538 C 52.9815 0.301701 -1.99835 0
M  V30 539 C 53.3025 1.54054 -1.19551 0
M  V30 540 O 52.5725 1.93702 -0.292658 0
M  V30 541 H 51.1525 0.114468 -0.738178 0
M  V30 542 H 53.8145 -0.418016 -1.90364 0
M  V30 543 H 52.9105 0.570548 -3.06841 0
M  V30 544 N 53.2116 1.57565 -0.0334293 0
M  V30 545 C 54.4576 1.92262 0.645226 0
M  V30 546 C 54.7906 0.910543 1.71531 0
M  V30 547 O 54.0656 -0.066099 1.94388 0
M  V30 548 C 54.3486 3.37422 1.2577 0
M  V30 549 C 54.2016 4.49369 0.196891 0
M  V30 550 C 55.5206 3.82628 2.17449 0
M  V30 551 H 52.6396 0.699171 0.233085 0
M  V30 552 H 55.2816 1.89779 -0.0915694 0
M  V30 553 H 53.4316 3.39669 1.88566 0
M  V30 554 H 55.1036 4.59254 -0.433962 0
M  V30 555 H 53.3466 4.31168 -0.477137 0
M  V30 556 H 54.0176 5.47978 0.665124 0
M  V30 557 H 56.4936 3.82145 1.64634 0
M  V30 558 H 55.3696 4.84883 2.57254 0
M  V30 559 H 55.6306 3.18376 3.0674 0
M  V30 560 N 54.6897 -0.239769 1.55765 0
M  V30 561 C 55.9357 -0.968234 1.78194 0
M  V30 562 C 56.2687 -1.84701 0.599938 0
M  V30 563 O 55.5437 -1.9031 -0.401524 0
M  V30 564 C 55.8267 -1.8227 3.10564 0
M  V30 565 C 55.6797 -0.971633 4.3918 0
M  V30 566 C 56.9987 -2.80388 3.39221 0
M  V30 567 H 54.1177 -0.350572 0.648281 0
M  V30 568 H 56.7597 -0.238259 1.885 0
M  V30 569 H 54.9097 -2.44507 3.01908 0
M  V30 570 H 56.5817 -0.367408 4.59835 0
M  V30 571 H 54.8247 -0.276276 4.32919 0
M  V30 572 H 55.4957 -1.60346 5.28198 0
M  V30 573 H 57.9717 -2.28287 3.47885 0
M  V30 574 H 56.8477 -3.3729 4.33044 0
M  V30 575 H 57.1087 -3.57212 2.60484 0
M  V30 576 N 56.1678 -1.49265 -0.50573 0
M  V30 577 C 57.4158 -1.582 -1.25766 0
M  V30 578 C 57.7368 -0.268482 -1.93143 0
M  V30 579 O 57.0068 0.711833 -1.8251 0
M  V30 580 H 55.5868 -0.582873 -0.467191 0
M  V30 581 H 58.2488 -1.85865 -0.586525 0
M  V30 582 H 57.3448 -2.37563 -2.02412 0
M  V30 583 N 57.6459 0.756429 -1.3826 0
M  V30 584 C 58.8859 1.52833 -1.35725 0
M  V30 585 C 59.2499 1.91926 0.0534106 0
M  V30 586 O 60.4509 2.68028 0.203613 0
M  V30 587 C 58.7219 2.74919 -2.28373 0
M  V30 588 S 60.2809 3.64817 -2.43832 0
M  V30 589 H 57.0989 0.523043 -0.481608 0
M  V30 590 H 59.7009 0.888212 -1.74158 0
M  V30 591 H 58.4049 2.44304 -3.29763 0
M  V30 592 H 57.9359 3.43878 -1.91079 0
M  V30 593 H 59.9509 4.676 -1.66027 0
M  V30 594 N 59.124 1.23083 0.984299 0
M  V30 595 C 60.37 1.06214 1.72761 0
M  V30 596 C 60.703 -0.400584 1.90024 0
M  V30 597 O 59.978 -1.29672 1.44967 0
M  V30 598 C 60.261 1.78375 3.12817 0
M  V30 599 C 60.114 3.32296 3.03149 0
M  V30 600 C 61.433 1.54309 4.12161 0
M  V30 601 H 58.552 0.387251 0.627061 0
M  V30 602 H 61.194 1.51536 1.14616 0
M  V30 603 H 59.344 1.39848 3.62457 0
M  V30 604 H 61.016 3.8032 2.61064 0
M  V30 605 H 59.259 3.6153 2.39747 0
M  V30 606 H 59.93 3.77972 4.02295 0
M  V30 607 H 62.406 1.87791 3.71314 0
M  V30 608 H 61.282 2.07281 5.08258 0
M  V30 609 H 61.543 0.477572 4.39513 0
M  V30 610 N 60.6021 -1.18246 1.0419 0
M  V30 611 C 61.8511 -1.87588 0.741194 0
M  V30 612 C 62.1641 -1.81303 -0.734066 0
M  V30 613 O 63.3701 -2.46019 -1.14834 0
M  V30 614 C 61.8261 -3.36538 1.27555 0
M  V30 615 C 61.4341 -3.51349 2.77953 0
M  V30 616 C 63.1781 -4.11273 1.05143 0
M  V30 617 C 61.0851 -4.94265 3.2474 0
M  V30 618 H 60.0151 -0.702622 0.273565 0
M  V30 619 H 62.6661 -1.33601 1.25789 0
M  V30 620 H 61.0481 -3.9 0.686703 0
M  V30 621 H 62.2221 -3.08153 3.42605 0
M  V30 622 H 60.5371 -2.90022 2.98791 0
M  V30 623 H 63.1341 -5.16689 1.37611 0
M  V30 624 H 63.4771 -4.16298 -0.0112774 0
M  V30 625 H 64.0101 -3.63987 1.60495 0
M  V30 626 H 60.7491 -4.94408 4.30396 0
M  V30 627 H 60.2691 -5.38172 2.64823 0
M  V30 628 H 61.9481 -5.62987 3.18834 0
M  V30 629 N 62.0802 -0.821533 -1.34494 0
M  V30 630 C 63.3292 -0.405355 -1.97585 0
M  V30 631 C 63.6422 1.03677 -1.65863 0
M  V30 632 O 64.8482 1.55679 -2.22433 0
M  V30 633 C 63.3042 -0.673861 -3.53535 0
M  V30 634 C 62.9122 -2.12951 -3.94152 0
M  V30 635 C 64.6562 -0.32378 -4.23263 0
M  V30 636 C 62.5632 -2.34298 -5.43009 0
M  V30 637 H 61.4932 -0.147836 -0.739365 0
M  V30 638 H 64.1442 -1.00769 -1.53355 0
M  V30 639 H 62.5262 -0.00137554 -3.96 0
M  V30 640 H 63.7002 -2.84104 -3.62797 0
M  V30 641 H 62.0152 -2.44089 -3.37356 0
M  V30 642 H 64.6122 -0.461126 -5.32708 0
M  V30 643 H 64.9552 0.731586 -4.09821 0
M  V30 644 H 65.4882 -0.950786 -3.8627 0
M  V30 645 H 62.2272 -3.38335 -5.61435 0
M  V30 646 H 61.7472 -1.67687 -5.75883 0
M  V30 647 H 63.4262 -2.16588 -6.09671 0
M  V30 648 N 63.5583 1.46682 -0.576371 0
M  V30 649 C 64.4883 2.33028 0.148397 0
M  V30 650 C 65.4693 1.44961 0.889956 0
M  V30 651 O 66.6543 1.73789 0.866662 0
M  V30 652 C 63.7843 3.27117 1.1667 0
M  V30 653 C 62.7383 4.24575 0.540386 0
M  V30 654 C 62.0643 5.08126 1.6647 0
M  V30 655 C 63.3643 5.19722 -0.518331 0
M  V30 656 H 65.0583 2.93875 -0.572509 0
M  V30 657 H 62.6043 1.41315 -0.276768 0
M  V30 658 H 64.5573 3.86374 1.68204 0
M  V30 659 H 63.2813 2.64364 1.9178 0
M  V30 660 H 61.9403 3.66571 0.0461769 0
M  V30 661 H 61.5883 4.41762 2.40531 0
M  V30 662 H 61.2883 5.74122 1.25131 0
M  V30 663 H 62.8123 5.70246 2.18293 0
M  V30 664 H 64.2263 5.73232 -0.0883058 0
M  V30 665 H 62.6233 5.94026 -0.851679 0
M  V30 666 H 63.6933 4.64037 -1.40703 0
M  V30 667 N 65.0364 0.313813 1.54444 0
M  V30 668 C 65.9844 -0.572171 2.25453 0
M  V30 669 C 66.9784 -1.12657 1.2651 0
M  V30 670 O 68.1844 -1.07573 1.44319 0
M  V30 671 H 64.5594 -0.203146 0.724041 0
M  V30 672 H 66.5304 0.0491145 2.9836 0
M  V30 673 C 65.2794 -1.72626 3.0182 0
M  V30 674 H 64.6024 -1.30891 3.77767 0
M  V30 675 H 66.0424 -2.32199 3.54767 0
M  V30 676 C 64.5014 -2.63806 2.09542 0
M  V30 677 O 65.0314 -3.65256 1.67185 0
M  V30 678 N 63.2374 -2.31824 1.75232 0
M  V30 679 H 62.7844 -1.49368 2.09873 0
M  V30 680 H 62.7424 -2.93095 1.13767 0
M  V30 681 N 66.5145 -1.57545 0.0417849 0
M  V30 682 C 67.7615 -1.92317 -0.634082 0
M  V30 683 C 68.0895 -0.919334 -1.71402 0
M  V30 684 O 67.3445 0.0698253 -1.95575 0
M  V30 685 C 67.6435 -3.33794 -1.27735 0
M  V30 686 C 67.3095 -4.49716 -0.326543 0
M  V30 687 C 65.9715 -4.81156 -0.0648814 0
M  V30 688 C 68.3235 -5.20182 0.325623 0
M  V30 689 C 65.6515 -5.80414 0.856539 0
M  V30 690 C 68.0035 -6.20424 1.23518 0
M  V30 691 C 66.6675 -6.50298 1.5056 0
M  V30 692 H 65.9375 -0.703736 -0.232027 0
M  V30 693 H 68.5845 -1.91205 0.106259 0
M  V30 694 H 66.8895 -3.31228 -2.09274 0
M  V30 695 H 68.5865 -3.57975 -1.80707 0
M  V30 696 H 65.1765 -4.25176 -0.540665 0
M  V30 697 H 69.3605 -4.96112 0.136546 0
M  V30 698 H 64.6165 -6.019 1.07363 0
M  V30 699 H 68.7905 -6.74141 1.74664 0
M  V30 700 H 66.4175 -7.27025 2.22123 0
M  V30 701 N 67.9926 0.231505 -1.5589 0
M  V30 702 C 69.2406 0.955461 -1.78088 0
M  V30 703 C 69.5616 1.85262 -0.608533 0
M  V30 704 O 68.8316 1.92277 0.375035 0
M  V30 705 H 67.4116 0.355787 -0.656829 0
M  V30 706 H 70.0736 0.245751 -1.93344 0
M  V30 707 H 69.1696 1.56814 -2.69844 0
M  V30 708 N 69.4707 1.49531 0.497807 0
M  V30 709 C 70.7187 1.58865 1.24926 0
M  V30 710 C 71.0397 0.278721 1.92998 0
M  V30 711 O 70.3097 -0.702144 1.82885 0
M  V30 712 H 68.8897 0.585343 0.464094 0
M  V30 713 H 71.5517 1.86174 0.57666 0
M  V30 714 H 70.6477 2.38633 2.01149 0
M  V30 715 N 70.9488 -0.749086 1.3866 0
M  V30 716 C 72.1968 -1.50535 1.34847 0
M  V30 717 C 72.5178 -1.94909 -0.0595016 0
M  V30 718 O 71.7878 -1.67973 -1.00806 0
M  V30 719 H 70.3678 -0.558395 0.49619 0
M  V30 720 H 73.0298 -0.890165 1.73384 0
M  V30 721 H 72.1258 -2.39413 2.00219 0
M  V30 722 N 72.4269 -1.23603 -0.977757 0
M  V30 723 C 73.6569 -1.09487 -1.75203 0
M  V30 724 C 74.0649 0.356321 -1.85814 0
M  V30 725 O 73.4079 1.25816 -1.33851 0
M  V30 726 C 73.4699 -1.64905 -3.19447 0
M  V30 727 C 73.1339 -3.13688 -3.32338 0
M  V30 728 C 74.1309 -4.10953 -3.18455 0
M  V30 729 C 71.8159 -3.53449 -3.56902 0
M  V30 730 C 73.8099 -5.45962 -3.28944 0
M  V30 731 C 71.4969 -4.88602 -3.6703 0
M  V30 732 C 72.4949 -5.84668 -3.53062 0
M  V30 733 O 72.1829 -7.17365 -3.62826 0
M  V30 734 H 71.9149 -0.38367 -0.556573 0
M  V30 735 H 74.4689 -1.6398 -1.23693 0
M  V30 736 H 72.6989 -1.04835 -3.72218 0
M  V30 737 H 74.3879 -1.46226 -3.78646 0
M  V30 738 H 75.1539 -3.81577 -2.99372 0
M  V30 739 H 71.0329 -2.79188 -3.66844 0
M  V30 740 H 74.5769 -6.20925 -3.17958 0
M  V30 741 H 70.4739 -5.17653 -3.85623 0
M  V30 742 H 71.2419 -7.2515 -3.79605 0
M  V30 743 N 73.905 1.17692 -1.04816 0
M  V30 744 C 74.838 2.20436 -0.590173 0
M  V30 745 C 75.816 1.58115 0.379244 0
M  V30 746 O 77 1.86228 0.291762 0
M  V30 747 C 74.127 3.38424 0.136817 0
M  V30 748 C 73.173 4.19176 -0.787023 0
M  V30 749 S 74.006 4.84815 -2.27409 0
M  V30 750 C 75.162 6.06195 -1.55817 0
M  V30 751 H 75.395 2.58944 -1.46067 0
M  V30 752 H 72.928 1.28246 -0.859784 0
M  V30 753 H 74.886 4.06798 0.550076 0
M  V30 754 H 73.547 2.98312 0.983299 0
M  V30 755 H 72.74 5.03499 -0.224681 0
M  V30 756 H 72.342 3.56219 -1.13947 0
M  V30 757 H 74.634 6.72078 -0.855387 0
M  V30 758 H 75.577 6.6695 -2.37873 0
M  V30 759 H 75.985 5.54701 -1.04722 0
M  V30 760 N 75.3831 0.828654 1.34056 0
M  V30 761 C 76.6311 0.41863 1.97717 0
M  V30 762 C 76.9521 -1.02314 1.66002 0
M  V30 763 O 76.2221 -1.71119 0.953683 0
M  V30 764 H 74.8021 0.151809 0.731412 0
M  V30 765 H 77.4641 1.05936 1.63596 0
M  V30 766 H 76.5601 0.542318 3.07352 0
M  V30 767 N 76.8612 -1.46375 0.584142 0
M  V30 768 C 77.7912 -2.33103 -0.136037 0
M  V30 769 C 78.7722 -1.45431 -0.882255 0
M  V30 770 O 79.9572 -1.74246 -0.857434 0
M  V30 771 C 77.0872 -3.27731 -1.14933 0
M  V30 772 C 76.0412 -4.24855 -0.517862 0
M  V30 773 C 75.3672 -5.09001 -1.63773 0
M  V30 774 C 76.6672 -5.19439 0.545886 0
M  V30 775 H 78.3612 -2.93568 0.588086 0
M  V30 776 H 75.9072 -1.41166 0.284259 0
M  V30 777 H 77.8602 -3.87261 -1.66153 0
M  V30 778 H 76.5842 -2.65377 -1.90375 0
M  V30 779 H 75.2432 -3.6659 -0.0267361 0
M  V30 780 H 74.8912 -4.43031 -2.38185 0
M  V30 781 H 74.5912 -5.74777 -1.22085 0
M  V30 782 H 76.1152 -5.71396 -2.15266 0
M  V30 783 H 77.5292 -5.73177 0.118704 0
M  V30 784 H 75.9262 -5.93566 0.88317 0
M  V30 785 H 76.9962 -4.63285 1.43162 0
M  V30 786 N 78.3393 -0.321999 -1.54275 0
M  V30 787 C 79.2723 0.58718 -2.20516 0
M  V30 788 C 80.2503 1.11693 -1.18167 0
M  V30 789 O 81.4343 1.18122 -1.46899 0
M  V30 790 C 78.5613 1.80554 -2.86562 0
M  V30 791 C 77.6073 1.40718 -4.02617 0
M  V30 792 S 78.4403 0.445218 -5.33646 0
M  V30 793 C 79.5963 1.6709 -6.03185 0
M  V30 794 H 79.8293 0.0244875 -2.9729 0
M  V30 795 H 77.3623 -0.106087 -1.54035 0
M  V30 796 H 79.3203 2.50462 -3.25237 0
M  V30 797 H 77.9813 2.33942 -2.09595 0
M  V30 798 H 77.1743 2.31501 -4.47687 0
M  V30 799 H 76.7763 0.78782 -3.65608 0
M  V30 800 H 79.0683 2.60856 -6.25268 0
M  V30 801 H 80.0113 1.26239 -6.96756 0
M  V30 802 H 80.4193 1.85716 -5.33076 0
M  V30 803 N 79.8174 1.5752 -0.0501392 0
M  V30 804 C 81.0634 1.92936 0.624798 0
M  V30 805 C 81.3964 0.928685 1.70555 0
M  V30 806 O 80.6714 -0.0454779 1.94447 0
M  V30 807 C 80.9544 3.38737 1.22185 0
M  V30 808 C 80.8074 4.49552 0.149218 0
M  V30 809 C 82.1264 3.84913 2.13378 0
M  V30 810 H 79.2454 0.701604 0.225657 0
M  V30 811 H 81.8874 1.89671 -0.111693 0
M  V30 812 H 80.0374 3.4165 1.84953 0
M  V30 813 H 81.7094 4.58768 -0.482648 0
M  V30 814 H 79.9524 4.30638 -0.522841 0
M  V30 815 H 80.6234 5.48653 0.606966 0
M  V30 816 H 83.0994 3.8387 1.60572 0
M  V30 817 H 81.9754 4.87584 2.52097 0
M  V30 818 H 82.2364 3.21611 3.03346 0
M  V30 819 N 81.2955 -0.223234 1.56011 0
M  V30 820 C 82.5425 -0.947875 1.78946 0
M  V30 821 C 82.8705 -1.844 0.618608 0
M  V30 822 O 82.1255 -1.91629 -0.397093 0
M  V30 823 C 82.4245 -1.81948 3.0762 0
M  V30 824 C 82.0905 -1.07672 4.37856 0
M  V30 825 C 80.7525 -0.871544 4.73242 0
M  V30 826 C 83.1045 -0.552081 5.18268 0
M  V30 827 C 80.4325 -0.129791 5.86556 0
M  V30 828 C 82.7845 0.17632 6.32354 0
M  V30 829 C 81.4485 0.39277 6.66343 0
M  V30 830 H 80.7185 -0.346852 0.654809 0
M  V30 831 H 83.3655 -0.216171 1.90276 0
M  V30 832 H 81.6705 -2.61899 2.91404 0
M  V30 833 H 83.3675 -2.38227 3.22566 0
M  V30 834 H 79.9575 -1.24662 4.1007 0
M  V30 835 H 84.1415 -0.698076 4.91366 0
M  V30 836 H 79.3975 0.048153 6.11381 0
M  V30 837 H 83.5715 0.590367 6.93893 0
M  V30 838 H 81.1985 0.969466 7.53993 0
M  V30 839 N 82.7736 -1.49793 -0.48987 0
M  V30 840 C 83.7036 -1.70201 -1.59856 0
M  V30 841 C 84.6846 -0.55076 -1.60937 0
M  V30 842 O 85.8696 -0.787841 -1.77501 0
M  V30 843 C 82.9996 -1.77882 -2.98287 0
M  V30 844 C 81.9536 -2.92907 -3.12073 0
M  V30 845 C 81.2796 -2.85712 -4.51965 0
M  V30 846 C 82.5796 -4.3369 -2.91051 0
M  V30 847 H 84.2736 -2.63025 -1.43032 0
M  V30 848 H 81.8196 -1.26574 -0.686664 0
M  V30 849 H 83.7726 -1.90744 -3.75759 0
M  V30 850 H 82.4966 -0.816653 -3.16225 0
M  V30 851 H 81.1556 -2.79665 -2.37029 0
M  V30 852 H 80.8036 -1.8738 -4.66795 0
M  V30 853 H 80.5036 -3.62921 -4.62128 0
M  V30 854 H 82.0276 -3.00598 -5.31482 0
M  V30 855 H 83.4416 -4.47555 -3.58284 0
M  V30 856 H 81.8386 -5.12205 -3.12675 0
M  V30 857 H 82.9086 -4.47362 -1.87071 0
M  V30 858 N 84.2517 0.741722 -1.39055 0
M  V30 859 C 85.5007 1.49656 -1.35225 0
M  V30 860 C 85.8137 1.95533 0.0512708 0
M  V30 861 O 87.0197 2.7067 0.212138 0
M  V30 862 C 85.4757 2.70389 -2.37525 0
M  V30 863 C 85.0837 2.31489 -3.83558 0
M  V30 864 C 86.8277 3.48236 -2.42759 0
M  V30 865 C 84.7347 3.48903 -4.77515 0
M  V30 866 H 83.6647 0.56197 -0.502699 0
M  V30 867 H 86.3157 0.809727 -1.64668 0
M  V30 868 H 84.6977 3.41113 -2.01142 0
M  V30 869 H 85.8717 1.68354 -4.28945 0
M  V30 870 H 84.1867 1.66749 -3.81554 0
M  V30 871 H 86.7837 4.35558 -3.1015 0
M  V30 872 H 87.1267 3.90229 -1.45008 0
M  V30 873 H 87.6597 2.84535 -2.78002 0
M  V30 874 H 84.3987 3.11966 -5.76504 0
M  V30 875 H 83.9187 4.11041 -4.36813 0
M  V30 876 H 85.5977 4.15328 -4.96096 0
M  V30 877 N 85.7298 1.2412 0.971189 0
M  V30 878 C 86.9598 1.10415 1.7462 0
M  V30 879 C 87.3678 -0.346462 1.86001 0
M  V30 880 O 86.7108 -1.25104 1.34517 0
M  V30 881 C 86.7728 1.66596 3.18568 0
M  V30 882 C 86.4368 3.15446 3.3067 0
M  V30 883 C 87.4338 4.12636 3.16271 0
M  V30 884 C 85.1188 3.55337 3.55022 0
M  V30 885 C 87.1128 5.47699 3.26044 0
M  V30 886 C 84.7998 4.90542 3.64434 0
M  V30 887 C 85.7978 5.86532 3.49956 0
M  V30 888 O 85.4858 7.19279 3.59017 0
M  V30 889 H 85.2178 0.386616 0.55453 0
M  V30 890 H 87.7718 1.64633 1.22821 0
M  V30 891 H 86.0018 1.06808 3.71657 0
M  V30 892 H 87.6908 1.48232 3.77865 0
M  V30 893 H 88.4568 3.8316 2.97344 0
M  V30 894 H 84.3358 2.8113 3.65359 0
M  V30 895 H 87.8798 6.22603 3.14661 0
M  V30 896 H 83.7768 5.19691 3.82873 0
M  V30 897 H 84.5448 7.27153 3.75754 0
M  V30 898 N 87.2079 -1.17134 1.05439 0
M  V30 899 C 88.1379 -2.2342 0.678649 0
M  V30 900 C 89.1189 -1.66971 -0.32476 0
M  V30 901 O 90.3039 -1.93149 -0.201802 0
M  V30 902 C 87.4339 -3.47256 0.0552099 0
M  V30 903 C 86.3879 -4.16543 0.98365 0
M  V30 904 C 85.7139 -5.34231 0.223961 0
M  V30 905 C 87.0139 -4.68495 2.3089 0
M  V30 906 H 88.7079 -2.55105 1.56722 0
M  V30 907 H 86.2539 -1.2262 0.754998 0
M  V30 908 H 88.2069 -4.20828 -0.21946 0
M  V30 909 H 86.9309 -3.14846 -0.868319 0
M  V30 910 H 85.5899 -3.44887 1.24293 0
M  V30 911 H 85.2379 -4.98071 -0.702412 0
M  V30 912 H 84.9379 -5.81527 0.842627 0
M  V30 913 H 86.4619 -6.10585 -0.0433671 0
M  V30 914 H 87.8759 -5.33691 2.09396 0
M  V30 915 H 86.2729 -5.26379 2.88176 0
M  V30 916 H 87.3429 -3.85169 2.94572 0
M  V30 917 N 88.686 -0.835752 -1.33615 0
M  V30 918 C 89.934 -0.429109 -1.97492 0
M  V30 919 C 90.255 1.01433 -1.66543 0
M  V30 920 O 89.525 1.70611 -0.962744 0
M  V30 921 H 88.105 -0.155686 -0.730596 0
M  V30 922 H 90.767 -1.06802 -1.63031 0
M  V30 923 H 89.863 -0.55861 -3.0706 0
M  V30 924 N 90.1641 1.46063 -0.591896 0
M  V30 925 C 91.4121 2.01938 -0.0808391 0
M  V30 926 C 91.7331 1.46475 1.28725 0
M  V30 927 O 91.0031 0.652944 1.84698 0
M  V30 928 H 89.5831 0.746516 -0.0268938 0
M  V30 929 H 92.2451 1.79055 -0.769752 0
M  V30 930 H 91.3411 3.12094 -0.0187578 0
M  V30 931 N 91.6422 0.330177 1.54103 0
M  V30 932 C 92.5752 -0.575477 2.20825 0
M  V30 933 C 93.5532 -1.11064 1.18758 0
M  V30 934 O 94.7372 -1.17341 1.47524 0
M  V30 935 C 91.8642 -1.79032 2.87516 0
M  V30 936 C 90.9102 -1.38581 4.03358 0
M  V30 937 S 91.7432 -0.416911 5.33875 0
M  V30 938 C 92.8992 -1.63889 6.04062 0
M  V30 939 H 93.1322 -0.00872114 2.97299 0
M  V30 940 H 90.6652 0.114254 1.53977 0
M  V30 941 H 92.6232 -2.48734 3.2656 0
M  V30 942 H 91.2842 -2.32827 2.10832 0
M  V30 943 H 90.4772 -2.29123 4.48908 0
M  V30 944 H 90.0792 -0.768419 3.66021 0
M  V30 945 H 92.3712 -2.57536 6.26643 0
M  V30 946 H 93.3142 -1.22542 6.97416 0
M  V30 947 H 93.7222 -1.82887 5.34053 0
M  V30 948 N 93.1203 -1.57491 0.0584922 0
M  V30 949 C 94.0533 -2.07533 -0.948969 0
M  V30 950 C 95.0313 -0.977444 -1.29942 0
M  V30 951 O 96.2153 -1.2499 -1.41102 0
M  V30 952 C 93.3423 -2.52192 -2.2609 0
M  V30 953 C 92.3883 -3.73287 -2.06298 0
M  V30 954 S 93.2213 -5.18603 -1.33459 0
M  V30 955 C 94.3773 -5.66583 -2.65959 0
M  V30 956 H 94.6103 -2.92662 -0.523118 0
M  V30 957 H 92.1433 -1.53631 -0.153954 0
M  V30 958 H 94.1013 -2.78585 -3.01498 0
M  V30 959 H 92.7623 -1.67356 -2.65802 0
M  V30 960 H 91.9553 -4.0248 -3.03357 0
M  V30 961 H 91.5573 -3.47199 -1.39029 0
M  V30 962 H 93.8493 -5.72616 -3.62101 0
M  V30 963 H 94.7923 -6.65684 -2.41393 0
M  V30 964 H 95.2003 -4.94342 -2.72554 0
M  V30 965 N 94.5984 0.214957 -1.56127 0
M  V30 966 C 95.8444 0.939762 -1.79712 0
M  V30 967 C 96.1774 1.83723 -0.629247 0
M  V30 968 O 95.4524 1.90925 0.371197 0
M  V30 969 C 95.7354 1.77306 -3.13424 0
M  V30 970 C 95.5884 0.90164 -4.40671 0
M  V30 971 C 96.9074 2.74956 -3.43638 0
M  V30 972 H 94.0264 0.340214 -0.653776 0
M  V30 973 H 96.6684 0.20824 -1.88855 0
M  V30 974 H 94.8184 2.39673 -3.0576 0
M  V30 975 H 96.4904 0.294206 -4.60361 0
M  V30 976 H 94.7334 0.207368 -4.33304 0
M  V30 977 H 95.4044 1.51923 -5.30682 0
M  V30 978 H 97.8804 2.22724 -3.51473 0
M  V30 979 H 96.7564 3.30358 -4.38355 0
M  V30 980 H 97.0174 3.53023 -2.66134 0
M  V30 981 N 96.0765 1.50051 0.48192 0
M  V30 982 C 97.3225 1.60736 1.2366 0
M  V30 983 C 97.6555 0.301786 1.91841 0
M  V30 984 O 96.9305 -0.696025 1.8162 0
M  V30 985 C 97.2135 2.78009 2.28874 0
M  V30 986 C 97.0665 4.18416 1.65069 0
M  V30 987 C 98.3855 2.90867 3.30279 0
M  V30 988 H 95.5045 0.585031 0.448228 0
M  V30 989 H 98.1465 1.82402 0.531946 0
M  V30 990 H 96.2965 2.59667 2.88973 0
M  V30 991 H 97.9685 4.48322 1.0865 0
M  V30 992 H 96.2115 4.23177 0.954148 0
M  V30 993 H 96.8825 4.96381 2.41474 0
M  V30 994 H 99.3585 3.07623 2.80191 0
M  V30 995 H 98.2345 3.74566 4.01238 0
M  V30 996 H 98.4955 2.01021 3.93755 0
M  V30 997 N 97.5546 -0.734337 1.39446 0
M  V30 998 C 98.8016 -1.49391 1.36706 0
M  V30 999 C 99.1296 -1.94465 -0.0367813 0
M  V30 1000 O 98.3846 -1.67154 -1.01774 0
M  V30 1001 C 98.6836 -2.74711 2.28623 0
M  V30 1002 C 98.3496 -2.48501 3.76242 0
M  V30 1003 C 97.0116 -2.41062 4.16464 0
M  V30 1004 C 99.3636 -2.26098 4.69606 0
M  V30 1005 C 96.6916 -2.09262 5.48112 0
M  V30 1006 C 99.0436 -1.95814 6.01531 0
M  V30 1007 C 97.7076 -1.86845 6.40816 0
M  V30 1008 H 96.9776 -0.546661 0.500243 0
M  V30 1009 H 99.6246 -0.842788 1.71957 0
M  V30 1010 H 97.9296 -3.44569 1.86492 0
M  V30 1011 H 99.6266 -3.32741 2.23796 0
M  V30 1012 H 96.2166 -2.55169 3.44364 0
M  V30 1013 H 100.401 -2.30812 4.39363 0
M  V30 1014 H 95.6566 -2.00841 5.77471 0
M  V30 1015 H 99.8306 -1.77488 6.73403 0
M  V30 1016 H 97.4576 -1.6197 7.42745 0
M  V30 1017 N 99.0327 -1.24633 -0.964593 0
M  V30 1018 C 100.281 -1.08573 -1.70459 0
M  V30 1019 C 100.602 0.375655 -1.91347 0
M  V30 1020 O 99.8717 1.26779 -1.49345 0
M  V30 1021 H 98.4517 -0.398784 -0.631649 0
M  V30 1022 H 101.114 -1.56601 -1.16026 0
M  V30 1023 H 100.21 -1.58623 -2.68785 0
M  V30 1024 N 100.511 1.16574 -1.06058 0
M  V30 1025 C 101.741 1.90675 -0.795397 0
M  V30 1026 C 102.149 1.77547 0.653735 0
M  V30 1027 O 101.492 1.11611 1.45907 0
M  V30 1028 C 101.554 3.42011 -1.10764 0
M  V30 1029 C 101.218 3.78924 -2.55471 0
M  V30 1030 C 102.215 3.81042 -3.53699 0
M  V30 1031 C 99.8998 4.09626 -2.90708 0
M  V30 1032 C 101.894 4.13346 -4.85205 0
M  V30 1033 C 99.5808 4.41597 -4.22416 0
M  V30 1034 C 100.579 4.43436 -5.19474 0
M  V30 1035 O 100.267 4.74649 -6.48817 0
M  V30 1036 H 99.9988 0.611554 -0.288058 0
M  V30 1037 H 102.553 1.48711 -1.41683 0
M  V30 1038 H 100.783 3.84312 -0.429128 0
M  V30 1039 H 102.472 3.97384 -0.827077 0
M  V30 1040 H 103.238 3.57437 -3.27817 0
M  V30 1041 H 99.1168 4.07361 -2.15819 0
M  V30 1042 H 102.661 4.14696 -5.60957 0
M  V30 1043 H 98.5578 4.64667 -4.48056 0
M  V30 1044 H 99.3258 4.9247 -6.5377 0
M  V30 1045 N 101.989 0.842826 1.3317 0
M  V30 1046 C 103.217 0.454055 2.01856 0
M  V30 1047 C 103.632 -0.94587 1.63397 0
M  V30 1048 O 102.989 -1.61534 0.849302 0
M  V30 1049 C 103.04 0.569715 3.56982 0
M  V30 1050 O 102.761 1.91448 3.94055 0
M  V30 1051 C 104.262 0.178412 4.42941 0
M  V30 1052 H 101.482 0.17979 0.646465 0
M  V30 1053 H 104.026 1.1365 1.70012 0
M  V30 1054 H 102.181 -0.0648587 3.87346 0
M  V30 1055 H 102.595 1.90282 4.88767 0
M  V30 1056 H 104.069 0.310376 5.51127 0
M  V30 1057 H 104.546 -0.880056 4.30293 0
M  V30 1058 H 105.152 0.787579 4.17944 0
M  V30 1059 N 103.467 -1.45747 0.599634 0
M  V30 1060 C 104.695 -2.06668 0.0978551 0
M  V30 1061 C 105.11 -1.44562 -1.21439 0
M  V30 1062 O 104.467 -0.556923 -1.73795 0
M  V30 1063 C 104.518 -3.61456 -0.0567044 0
M  V30 1064 O 104.239 -4.21242 1.20361 0
M  V30 1065 C 105.74 -4.39345 -0.590869 0
M  V30 1066 H 102.96 -0.667825 0.0651943 0
M  V30 1067 H 105.504 -1.87115 0.82511 0
M  V30 1068 H 103.659 -3.80378 -0.734251 0
M  V30 1069 H 104.073 -5.14323 1.02821 0
M  V30 1070 H 105.547 -5.48182 -0.648131 0
M  V30 1071 H 106.024 -4.08568 -1.61147 0
M  V30 1072 H 106.63 -4.25268 0.0523679 0
M  V30 1073 N 104.945 -0.338344 -1.53925 0
M  V30 1074 C 105.908 0.508299 -2.23493 0
M  V30 1075 C 106.908 1.03175 -1.23335 0
M  V30 1076 O 108.098 0.921826 -1.47811 0
M  V30 1077 C 105.23 1.70754 -2.95052 0
M  V30 1078 H 106.423 -0.100058 -2.99733 0
M  V30 1079 H 103.976 -0.0896198 -1.56043 0
M  V30 1080 H 104.711 2.35474 -2.22986 0
M  V30 1081 H 104.496 1.33946 -3.68512 0
M  V30 1082 H 105.986 2.30818 -3.48013 0
M  V30 1083 N 106.423 1.57458 -0.0668435 0
M  V30 1084 C 107.356 2.08033 0.93795 0
M  V30 1085 C 108.334 0.984321 1.29421 0
M  V30 1086 O 109.518 1.25736 1.40437 0
M  V30 1087 C 106.645 2.53388 2.24749 0
M  V30 1088 C 105.691 3.74376 2.04315 0
M  V30 1089 S 106.524 5.19303 1.30706 0
M  V30 1090 C 107.68 5.67986 2.62951 0
M  V30 1091 H 107.913 2.92935 0.50759 0
M  V30 1092 H 105.446 1.5371 0.145804 0
M  V30 1093 H 107.404 2.8018 3.00016 0
M  V30 1094 H 106.065 1.68763 2.64911 0
M  V30 1095 H 105.258 4.04083 3.01218 0
M  V30 1096 H 104.86 3.47931 1.37186 0
M  V30 1097 H 107.152 5.74528 3.5906 0
M  V30 1098 H 108.095 6.66955 2.3786 0
M  V30 1099 H 108.503 4.95781 2.69929 0
M  V30 1100 N 107.901 -0.206675 1.56239 0
M  V30 1101 C 108.864 -1.23976 1.92776 0
M  V30 1102 C 109.864 -1.39041 0.807729 0
M  V30 1103 O 111.054 -1.37051 1.0753 0
M  V30 1104 C 108.186 -2.61112 2.19165 0
M  V30 1105 H 109.379 -0.927764 2.85189 0
M  V30 1106 H 106.932 -0.447718 1.4975 0
M  V30 1107 H 107.667 -2.97386 1.29352 0
M  V30 1108 H 107.452 -2.51552 3.00772 0
M  V30 1109 H 108.942 -3.35633 2.48476 0
M  V30 1110 N 109.379 -1.50304 -0.473955 0
M  V30 1111 C 110.628 -1.60392 -1.22301 0
M  V30 1112 C 110.941 -0.308411 -1.93153 0
M  V30 1113 O 112.147 -0.288156 -2.69966 0
M  V30 1114 C 110.603 -2.83109 -2.2221 0
M  V30 1115 C 110.211 -4.19524 -1.57173 0
M  V30 1116 C 111.955 -3.0254 -2.97775 0
M  V30 1117 C 109.862 -5.33431 -2.55353 0
M  V30 1118 H 108.792 -0.597286 -0.460179 0
M  V30 1119 H 111.443 -1.76731 -0.493803 0
M  V30 1120 H 109.825 -2.60322 -2.9841 0
M  V30 1121 H 110.999 -4.52554 -0.867824 0
M  V30 1122 H 109.314 -4.05674 -0.939002 0
M  V30 1123 H 111.911 -3.84811 -3.71248 0
M  V30 1124 H 112.254 -2.14154 -3.56992 0
M  V30 1125 H 112.787 -3.25494 -2.28688 0
M  V30 1126 H 109.526 -6.23962 -2.00878 0
M  V30 1127 H 109.046 -5.04823 -3.23904 0
M  V30 1128 H 110.725 -5.63887 -3.17239 0
M  V30 1129 N 110.857 0.726932 -1.39834 0
M  V30 1130 C 111.767 1.87131 -1.41489 0
M  V30 1131 C 112.783 1.71239 -0.308757 0
M  V30 1132 O 113.959 1.93701 -0.551529 0
M  V30 1133 C 111.024 3.22811 -1.26468 0
M  V30 1134 C 110.085 3.51039 -2.47124 0
M  V30 1135 C 109.318 4.80245 -2.3281 0
M  V30 1136 O 109.541 5.54537 -1.33585 0
M  V30 1137 O 108.475 5.08554 -3.21957 0
M  V30 1138 H 112.301 1.8869 -2.3797 0
M  V30 1139 H 109.886 0.875837 -1.21035 0
M  V30 1140 H 111.768 4.03877 -1.20255 0
M  V30 1141 H 110.443 3.22005 -0.330862 0
M  V30 1142 H 109.35 2.70027 -2.58914 0
M  V30 1143 H 110.683 3.56632 -3.39227 0
M  V30 1144 N 112.336 1.25143 0.95797 0
M  V30 1145 C 113.246 1.06968 2.08794 0
M  V30 1146 C 114.262 0.00773911 1.73998 0
M  V30 1147 O 115.438 0.207972 2.00323 0
M  V30 1148 C 112.503 0.68691 3.39827 0
M  V30 1149 C 111.564 1.82641 3.88511 0
M  V30 1150 C 110.797 1.46181 5.1329 0
M  V30 1151 O 111.02 0.355971 5.69288 0
M  V30 1152 O 109.954 2.29085 5.566 0
M  V30 1153 H 113.78 2.01723 2.27027 0
M  V30 1154 H 111.365 1.04051 1.07209 0
M  V30 1155 H 113.247 0.485417 4.18595 0
M  V30 1156 H 111.922 -0.231417 3.22872 0
M  V30 1157 H 110.829 2.08274 3.10762 0
M  V30 1158 H 112.162 2.72386 4.09959 0
M  V30 1159 N 113.814 -1.1601 1.06675 0
M  V30 1160 C 115.044 -1.90251 0.805497 0
M  V30 1161 C 115.452 -1.77891 -0.64431 0
M  V30 1162 O 114.795 -1.12383 -1.45313 0
M  V30 1163 C 114.857 -3.41419 1.12576 0
M  V30 1164 C 114.521 -3.77564 2.57477 0
M  V30 1165 C 115.518 -3.79161 3.55715 0
M  V30 1166 C 113.203 -4.08079 2.92877 0
M  V30 1167 C 115.197 -4.10767 4.8739 0
M  V30 1168 C 112.884 -4.39351 4.24751 0
M  V30 1169 C 113.882 -4.40675 5.21818 0
M  V30 1170 O 113.57 -4.71202 6.51325 0
M  V30 1171 H 113.302 -0.610018 0.291297 0
M  V30 1172 H 115.856 -1.47958 1.4247 0
M  V30 1173 H 114.086 -3.84079 0.449503 0
M  V30 1174 H 115.775 -3.9694 0.84814 0
M  V30 1175 H 116.541 -3.55693 3.29708 0
M  V30 1176 H 112.42 -4.06211 2.17976 0
M  V30 1177 H 115.964 -4.11715 5.63148 0
M  V30 1178 H 111.861 -4.62285 4.50514 0
M  V30 1179 H 112.629 -4.88996 6.56373 0
M  V30 1180 N 115.292 -0.849877 -1.32721 0
M  V30 1181 C 116.703 -0.506188 -1.79707 0
M  V30 1182 C 117.054 0.975627 -1.70223 0
M  V30 1183 O 116.179 1.76078 -1.25799 0
M  V30 1184 C 116.774 -0.912044 -3.26293 0
M  V30 1185 C 115.333 -0.620326 -3.71253 0
M  V30 1186 C 114.48 -1.11439 -2.53922 0
M  V30 1187 H 117.431 -1.03754 -1.20087 0
M  V30 1188 H 117.452 -0.226493 -3.79825 0
M  V30 1189 H 116.964 -1.99057 -3.33164 0
M  V30 1190 H 115.065 0.447674 -3.69901 0
M  V30 1191 H 115.178 -1.18327 -4.64258 0
M  V30 1192 H 113.542 -0.534834 -2.49021 0
M  V30 1193 H 114.325 -2.19992 -2.6355 0
M  V30 1194 N 116.77 1.45427 -0.607355 0
M  V30 1195 C 117.68 2.34325 0.113463 0
M  V30 1196 C 118.696 1.51226 0.860617 0
M  V30 1197 O 119.872 1.84029 0.818255 0
M  V30 1198 C 116.937 3.28839 1.09844 0
M  V30 1199 C 115.998 4.27844 0.353271 0
M  V30 1200 C 115.231 5.17842 1.29133 0
M  V30 1201 O 115.454 5.11264 2.52913 0
M  V30 1202 O 114.388 5.96713 0.788523 0
M  V30 1203 H 118.214 2.97364 -0.617094 0
M  V30 1204 H 115.799 1.44807 -0.367619 0
M  V30 1205 H 117.681 3.8708 1.66575 0
M  V30 1206 H 116.356 2.68365 1.81003 0
M  V30 1207 H 115.263 3.7322 -0.256494 0
M  V30 1208 H 116.596 4.91173 -0.317822 0
M  V30 1209 N 118.248 0.346503 1.53744 0
M  V30 1210 C 119.211 -0.496439 2.23759 0
M  V30 1211 C 120.211 -1.0252 1.2388 0
M  V30 1212 O 121.401 -0.913974 1.48297 0
M  V30 1213 C 118.533 -1.69187 2.95954 0
M  V30 1214 H 119.726 0.115952 2.99676 0
M  V30 1215 H 117.279 0.0978939 1.55993 0
M  V30 1216 H 118.014 -2.34288 2.24231 0
M  V30 1217 H 117.799 -1.31989 3.69217 0
M  V30 1218 H 119.289 -2.28969 3.49232 0
M  V30 1219 N 119.726 -1.57421 0.075193 0
M  V30 1220 C 120.972 -1.94716 -0.587998 0
M  V30 1221 C 121.327 -0.955205 -1.67014 0
M  V30 1222 O 120.62 0.0219842 -1.91587 0
M  V30 1223 C 120.814 -3.36428 -1.20626 0
M  V30 1224 C 120.643 -4.49317 -0.185541 0
M  V30 1225 C 119.413 -5.04772 0.23099 0
M  V30 1226 C 121.611 -5.11036 0.57854 0
M  V30 1227 N 119.593 -6.01204 1.24206 0
M  V30 1228 C 120.964 -6.02998 1.44199 0
M  V30 1229 C 123.019 -4.93844 0.634237 0
M  V30 1230 C 121.722 -6.79614 2.3562 0
M  V30 1231 C 123.748 -5.71106 1.53597 0
M  V30 1232 C 123.11 -6.6272 2.38709 0
M  V30 1233 H 119.209 -0.759536 -0.186089 0
M  V30 1234 H 121.793 -1.94097 0.153128 0
M  V30 1235 H 119.964 -3.37778 -1.9173 0
M  V30 1236 H 121.696 -3.60951 -1.8302 0
M  V30 1237 H 118.451 -4.73353 -0.152807 0
M  V30 1238 H 118.875 -6.54119 1.74521 0
M  V30 1239 H 123.517 -4.22799 -0.00960004 0
M  V30 1240 H 121.235 -7.49934 3.01038 0
M  V30 1241 H 124.821 -5.59824 1.58394 0
M  V30 1242 H 123.701 -7.2146 3.07352 0
M  V30 1243 N 121.204 0.198386 -1.56346 0
M  V30 1244 C 122.452 0.91747 -1.80075 0
M  V30 1245 C 122.773 1.83929 -0.647692 0
M  V30 1246 O 122.043 1.93029 0.334166 0
M  V30 1247 H 120.623 0.341774 -0.664228 0
M  V30 1248 H 123.285 0.204684 -1.93822 0
M  V30 1249 H 122.381 1.51055 -2.7311 0
M  V30 1250 N 122.682 1.50554 0.465978 0
M  V30 1251 C 123.907 1.65838 1.24549 0
M  V30 1252 C 124.332 0.343486 1.84937 0
M  V30 1253 O 123.69 -0.69324 1.67523 0
M  V30 1254 C 123.738 2.75533 2.32624 0
M  V30 1255 O 122.842 2.37142 3.37398 0
M  V30 1256 H 122.183 0.553893 0.366194 0
M  V30 1257 H 124.713 1.96959 0.553927 0
M  V30 1258 H 124.723 2.98763 2.77857 0
M  V30 1259 H 123.398 3.70962 1.88043 0
M  V30 1260 H 121.975 2.24377 2.97841 0
M  V30 1261 N 124.16 -0.719506 1.40217 0
M  V30 1262 C 125.408 -1.47641 1.3801 0
M  V30 1263 C 125.729 -1.94992 -0.018145 0
M  V30 1264 O 124.999 -1.70073 -0.972207 0
M  V30 1265 H 123.579 -0.547744 0.507923 0
M  V30 1266 H 126.241 -0.853187 1.75233 0
M  V30 1267 H 125.337 -2.35112 2.05253 0
M  V30 1268 N 125.638 -1.25649 -0.95132 0
M  V30 1269 C 126.884 -1.10757 -1.69884 0
M  V30 1270 C 127.217 0.350061 -1.91019 0
M  V30 1271 O 126.492 1.25783 -1.48354 0
M  V30 1272 C 126.775 -1.86606 -3.07978 0
M  V30 1273 C 126.628 -3.40217 -2.94232 0
M  V30 1274 C 127.947 -1.65182 -4.07925 0
M  V30 1275 H 125.066 -0.40374 -0.616574 0
M  V30 1276 H 127.708 -1.54521 -1.10558 0
M  V30 1277 H 125.858 -1.49409 -3.58621 0
M  V30 1278 H 127.53 -3.87108 -2.50889 0
M  V30 1279 H 125.773 -3.67759 -2.30078 0
M  V30 1280 H 126.444 -3.88505 -3.92133 0
M  V30 1281 H 128.92 -1.9757 -3.66204 0
M  V30 1282 H 127.796 -2.20683 -5.02583 0
M  V30 1283 H 128.057 -0.593933 -4.38092 0
M  V30 1284 N 127.117 1.15442 -1.07289 0
M  V30 1285 C 128.027 2.23786 -0.704057 0
M  V30 1286 C 129.043 1.7166 0.284413 0
M  V30 1287 O 130.219 2.00972 0.131205 0
M  V30 1288 C 127.284 3.46535 -0.106792 0
M  V30 1289 C 126.345 4.13654 -1.14842 0
M  V30 1290 C 125.578 5.30544 -0.57956 0
M  V30 1291 O 125.801 5.67187 0.604585 0
M  V30 1292 O 124.735 5.87154 -1.32414 0
M  V30 1293 H 128.561 2.57664 -1.60757 0
M  V30 1294 H 126.146 1.23152 -0.845803 0
M  V30 1295 H 128.028 4.20804 0.224048 0
M  V30 1296 H 126.703 3.14407 0.770049 0
M  V30 1297 H 125.61 3.4131 -1.5316 0
M  V30 1298 H 126.943 4.49861 -1.99714 0
M  V30 1299 N 128.595 0.856903 1.32268 0
M  V30 1300 C 129.841 0.462069 1.97466 0
M  V30 1301 C 130.174 -0.980298 1.67642 0
M  V30 1302 O 129.449 -1.68824 0.965858 0
M  V30 1303 C 129.732 0.704336 3.53145 0
M  V30 1304 C 129.585 2.19529 3.9259 0
M  V30 1305 C 130.904 0.1622 4.39801 0
M  V30 1306 H 128.023 0.169357 0.717278 0
M  V30 1307 H 130.665 1.07574 1.56614 0
M  V30 1308 H 128.815 0.181999 3.88073 0
M  V30 1309 H 130.487 2.78387 3.67829 0
M  V30 1310 H 128.73 2.67292 3.41668 0
M  V30 1311 H 129.401 2.31549 5.01088 0
M  V30 1312 H 131.877 0.608905 4.11621 0
M  V30 1313 H 130.753 0.361265 5.4771 0
M  V30 1314 H 131.014 -0.935158 4.32096 0
M  V30 1315 N 130.073 -1.45103 0.615059 0
M  V30 1316 C 131.003 -2.33339 -0.0865619 0
M  V30 1317 C 131.984 -1.4727 -0.851209 0
M  V30 1318 O 133.169 -1.76026 -0.820281 0
M  V30 1319 C 130.299 -3.30095 -1.07956 0
M  V30 1320 C 129.253 -4.25858 -0.427628 0
M  V30 1321 C 128.579 -5.12361 -1.5294 0
M  V30 1322 C 129.879 -5.18165 0.655944 0
M  V30 1323 H 131.573 -2.92254 0.650224 0
M  V30 1324 H 129.119 -1.40532 0.314138 0
M  V30 1325 H 131.072 -3.90698 -1.57901 0
M  V30 1326 H 129.796 -2.69355 -1.84703 0
M  V30 1327 H 128.455 -3.66564 0.0510292 0
M  V30 1328 H 128.103 -4.47984 -2.28734 0
M  V30 1329 H 127.803 -5.77238 -1.09865 0
M  V30 1330 H 129.327 -5.75833 -2.03098 0
M  V30 1331 H 130.741 -5.72796 0.240257 0
M  V30 1332 H 129.138 -5.91559 1.00888 0
M  V30 1333 H 130.208 -4.60144 1.52957 0
M  V30 1334 N 131.551 -0.354651 -1.53558 0
M  V30 1335 C 132.797 0.238797 -2.01389 0
M  V30 1336 C 133.13 1.49309 -1.2418 0
M  V30 1337 O 132.405 1.91638 -0.332457 0
M  V30 1338 C 132.688 0.541771 -3.56001 0
M  V30 1339 C 132.541 -0.725388 -4.43912 0
M  V30 1340 C 133.86 1.34685 -4.18984 0
M  V30 1341 H 130.979 0.0853177 -0.732045 0
M  V30 1342 H 133.621 -0.477384 -1.83905 0
M  V30 1343 H 131.771 1.15189 -3.71031 0
M  V30 1344 H 133.443 -1.36313 -4.407 0
M  V30 1345 H 131.686 -1.34801 -4.12324 0
M  V30 1346 H 132.357 -0.468505 -5.50008 0
M  V30 1347 H 134.833 0.830837 -4.07721 0
M  V30 1348 H 133.709 1.52759 -5.27215 0
M  V30 1349 H 133.97 2.35221 -3.74331 0
M  V30 1350 N 133.029 1.57378 -0.0835403 0
M  V30 1351 C 134.254 1.98682 0.594987 0
M  V30 1352 C 134.679 0.961969 1.61641 0
M  V30 1353 O 134.037 -0.0709989 1.81161 0
M  V30 1354 C 134.085 3.38988 1.2296 0
M  V30 1355 O 133.189 3.39208 2.34546 0
M  V30 1356 H 132.53 0.646368 0.152002 0
M  V30 1357 H 135.06 2.03961 -0.161533 0
M  V30 1358 H 135.07 3.76431 1.57366 0
M  V30 1359 H 133.745 4.13107 0.481228 0
M  V30 1360 H 132.322 3.13548 2.01846 0
M  V30 1361 N 134.507 -0.190092 1.56449 0
M  V30 1362 C 135.753 -0.911052 1.81184 0
M  V30 1363 C 136.086 -1.82699 0.658396 0
M  V30 1364 O 135.361 -1.91491 -0.340775 0
M  V30 1365 C 135.644 -1.72297 3.16205 0
M  V30 1366 C 135.497 -0.831419 4.42049 0
M  V30 1367 C 136.816 -2.69454 3.47969 0
M  V30 1368 H 133.935 -0.32977 0.659106 0
M  V30 1369 H 136.577 -0.178169 1.89163 0
M  V30 1370 H 134.727 -2.34778 3.09534 0
M  V30 1371 H 136.399 -0.220929 4.60771 0
M  V30 1372 H 134.642 -0.138406 4.33579 0
M  V30 1373 H 135.313 -1.43461 5.33032 0
M  V30 1374 H 137.789 -2.17104 3.54972 0
M  V30 1375 H 136.665 -3.23342 4.43555 0
M  V30 1376 H 136.926 -3.48744 2.71717 0
M  V30 1377 N 135.985 -1.50799 -0.457987 0
M  V30 1378 C 136.915 -1.73553 -1.5621 0
M  V30 1379 C 137.896 -0.584774 -1.59732 0
M  V30 1380 O 139.081 -0.825314 -1.7579 0
M  V30 1381 C 136.211 -1.84169 -2.94447 0
M  V30 1382 C 135.165 -2.99461 -3.0579 0
M  V30 1383 C 134.491 -2.95235 -4.45803 0
M  V30 1384 C 135.791 -4.39766 -2.81786 0
M  V30 1385 H 137.485 -2.66 -1.37421 0
M  V30 1386 H 135.031 -1.28002 -0.659662 0
M  V30 1387 H 136.984 -1.98672 -3.71628 0
M  V30 1388 H 135.708 -0.883545 -3.14422 0
M  V30 1389 H 134.367 -2.8463 -2.31044 0
M  V30 1390 H 134.015 -1.97239 -4.62715 0
M  V30 1391 H 133.715 -3.72642 -4.54326 0
M  V30 1392 H 135.239 -3.11803 -5.24987 0
M  V30 1393 H 136.653 -4.55054 -3.4871 0
M  V30 1394 H 135.05 -5.18722 -3.0174 0
M  V30 1395 H 136.12 -4.51229 -1.7754 0
M  V30 1396 N 137.463 0.71206 -1.40597 0
M  V30 1397 C 138.709 1.47416 -1.39271 0
M  V30 1398 C 139.042 1.942 0.00388791 0
M  V30 1399 O 138.317 1.68403 0.973179 0
M  V30 1400 C 138.6 2.69774 -2.38525 0
M  V30 1401 C 138.453 2.28861 -3.87224 0
M  V30 1402 C 139.772 3.71939 -2.35264 0
M  V30 1403 H 136.891 0.534713 -0.5072 0
M  V30 1404 H 139.533 0.812375 -1.71757 0
M  V30 1405 H 137.683 3.26238 -2.10953 0
M  V30 1406 H 139.355 1.77852 -4.25636 0
M  V30 1407 H 137.598 1.60824 -4.02887 0
M  V30 1408 H 138.269 3.16584 -4.52193 0
M  V30 1409 H 140.745 3.25113 -2.59694 0
M  V30 1410 H 139.621 4.55186 -3.06753 0
M  V30 1411 H 139.882 4.20484 -1.36549 0
M  V30 1412 N 138.941 1.26152 0.944643 0
M  V30 1413 C 140.189 1.11271 1.6871 0
M  V30 1414 C 140.51 -0.345166 1.91921 0
M  V30 1415 O 139.78 -1.24387 1.51343 0
M  V30 1416 H 138.36 0.408783 0.625224 0
M  V30 1417 H 141.022 1.58427 1.1352 0
M  V30 1418 H 140.118 1.62879 2.66227 0
M  V30 1419 N 140.419 -1.14872 1.07899 0
M  V30 1420 C 141.349 -2.2193 0.725887 0
M  V30 1421 C 142.33 -1.67622 -0.28927 0
M  V30 1422 O 143.515 -1.93533 -0.160787 0
M  V30 1423 C 140.645 -3.47061 0.128856 0
M  V30 1424 C 139.599 -4.14363 1.07178 0
M  V30 1425 C 138.925 -5.33636 0.337229 0
M  V30 1426 C 140.225 -4.63492 2.40775 0
M  V30 1427 H 141.919 -2.51724 1.62097 0
M  V30 1428 H 139.465 -1.20991 0.780838 0
M  V30 1429 H 141.418 -4.21199 -0.130147 0
M  V30 1430 H 140.142 -3.16617 -0.80134 0
M  V30 1431 H 138.801 -3.42173 1.3158 0
M  V30 1432 H 138.449 -4.99449 -0.596606 0
M  V30 1433 H 138.149 -5.79609 0.965788 0
M  V30 1434 H 139.673 -6.10539 0.0861567 0
M  V30 1435 H 141.087 -5.2913 2.20669 0
M  V30 1436 H 139.484 -5.20148 2.99276 0
M  V30 1437 H 140.554 -3.78834 3.02676 0
M  V30 1438 N 141.898 -0.863906 -1.31812 0
M  V30 1439 C 142.861 -0.320212 -2.26952 0
M  V30 1440 C 143.861 0.525369 -1.51975 0
M  V30 1441 O 145.051 0.335547 -1.70938 0
M  V30 1442 C 142.183 0.545919 -3.365 0
M  V30 1443 H 143.376 -1.16004 -2.76556 0
M  V30 1444 H 140.929 -0.638995 -1.42641 0
M  V30 1445 H 141.664 1.40718 -2.92179 0
M  V30 1446 H 141.449 -0.0594674 -3.92055 0
M  V30 1447 H 142.939 0.918796 -4.07367 0
M  V30 1448 N 143.376 1.44774 -0.622745 0
M  V30 1449 C 144.309 2.27792 0.136329 0
M  V30 1450 C 145.287 1.38041 0.859264 0
M  V30 1451 O 146.471 1.67478 0.86506 0
M  V30 1452 C 143.598 3.16776 1.19878 0
M  V30 1453 C 142.644 4.22575 0.57731 0
M  V30 1454 S 143.477 5.31825 -0.626294 0
M  V30 1455 C 144.633 6.24377 0.436378 0
M  V30 1456 H 144.866 2.91824 -0.567967 0
M  V30 1457 H 142.399 1.48838 -0.410677 0
M  V30 1458 H 144.357 3.68596 1.80686 0
M  V30 1459 H 143.018 2.5198 1.87523 0
M  V30 1460 H 142.211 4.84818 1.37721 0
M  V30 1461 H 141.813 3.73974 0.0440439 0
M  V30 1462 H 144.105 6.64689 1.31128 0
M  V30 1463 H 145.048 7.07941 -0.150271 0
M  V30 1464 H 145.456 5.59381 0.758513 0
M  V30 1465 N 144.854 0.36279 1.53368 0
M  V30 1466 C 145.764 -0.492994 2.29362 0
M  V30 1467 C 146.78 -1.09507 1.35219 0
M  V30 1468 O 147.956 -1.10662 1.68273 0
M  V30 1469 C 145.021 -1.61855 3.066 0
M  V30 1470 C 144.082 -1.04429 4.16405 0
M  V30 1471 C 143.315 -2.11621 4.89951 0
M  V30 1472 O 143.538 -3.32684 4.63333 0
M  V30 1473 O 142.472 -1.74835 5.75948 0
M  V30 1474 H 146.298 0.125331 3.03441 0
M  V30 1475 H 143.883 0.127253 1.48857 0
M  V30 1476 H 145.765 -2.27302 3.54841 0
M  V30 1477 H 144.44 -2.22233 2.3536 0
M  V30 1478 H 143.347 -0.353819 3.72423 0
M  V30 1479 H 144.68 -0.485113 4.89804 0
M  V30 1480 N 146.332 -1.57332 0.0918853 0
M  V30 1481 C 147.578 -1.94524 -0.573425 0
M  V30 1482 C 147.911 -0.973578 -1.68033 0
M  V30 1483 O 147.186 -0.00609226 -1.94499 0
M  V30 1484 C 147.469 -3.41858 -1.13161 0
M  V30 1485 C 147.322 -4.4979 -0.0299747 0
M  V30 1486 C 148.641 -3.90435 -2.03098 0
M  V30 1487 H 145.76 -0.70734 -0.206975 0
M  V30 1488 H 148.402 -1.89309 0.161942 0
M  V30 1489 H 146.552 -3.46433 -1.7583 0
M  V30 1490 H 148.224 -4.57327 0.604112 0
M  V30 1491 H 146.467 -4.291 0.636833 0
M  V30 1492 H 147.138 -5.50069 -0.461287 0
M  V30 1493 H 149.614 -3.87992 -1.50338 0
M  V30 1494 H 148.49 -4.94097 -2.39081 0
M  V30 1495 H 148.751 -3.29541 -2.94712 0
M  V30 1496 N 147.81 0.181792 -1.56548 0
M  V30 1497 C 149.058 0.89832 -1.81038 0
M  V30 1498 C 149.379 1.83232 -0.667164 0
M  V30 1499 O 148.649 1.93372 0.313673 0
M  V30 1500 H 147.229 0.33471 -0.667816 0
M  V30 1501 H 149.891 0.184116 -1.94028 0
M  V30 1502 H 148.987 1.4815 -2.74696 0
M  V30 1503 N 149.288 1.51039 0.449983 0
M  V30 1504 C 150.218 1.74379 1.55288 0
M  V30 1505 C 151.199 0.593236 1.5942 0
M  V30 1506 O 152.384 0.834625 1.7535 0
M  V30 1507 C 149.514 1.85728 2.93466 0
M  V30 1508 C 148.468 3.01078 3.04197 0
M  V30 1509 C 147.794 2.97595 4.44231 0
M  V30 1510 C 149.094 4.41254 2.7945 0
M  V30 1511 H 150.788 2.66725 1.36008 0
M  V30 1512 H 148.334 1.2835 0.652864 0
M  V30 1513 H 150.287 2.0064 3.70569 0
M  V30 1514 H 149.011 0.900207 3.13949 0
M  V30 1515 H 147.67 2.85851 2.29531 0
M  V30 1516 H 147.318 1.99691 4.61663 0
M  V30 1517 H 147.018 3.75046 4.52343 0
M  V30 1518 H 148.542 3.14583 5.23326 0
M  V30 1519 H 149.956 4.56897 3.46292 0
M  V30 1520 H 148.353 5.20315 2.98985 0
M  V30 1521 H 149.423 4.52164 1.75144 0
M  V30 1522 N 150.766 -0.704594 1.40972 0
M  V30 1523 C 152.012 -1.46675 1.40051 0
M  V30 1524 C 152.345 -1.94199 0.00641102 0
M  V30 1525 O 151.62 -1.68916 -0.964235 0
M  V30 1526 C 151.903 -2.68505 2.39952 0
M  V30 1527 C 151.756 -2.26805 3.88432 0
M  V30 1528 C 153.075 -3.70686 2.37233 0
M  V30 1529 H 150.194 -0.532015 0.510028 0
M  V30 1530 H 152.836 -0.803255 1.72185 0
M  V30 1531 H 150.986 -3.25114 2.1268 0
M  V30 1532 H 152.658 -1.75592 4.26574 0
M  V30 1533 H 150.901 -1.58685 4.03734 0
M  V30 1534 H 151.572 -3.14181 4.53866 0
M  V30 1535 H 154.048 -3.23731 2.61415 0
M  V30 1536 H 152.924 -4.53553 3.09162 0
M  V30 1537 H 153.185 -4.19754 1.38777 0
M  V30 1538 N 152.244 -1.26651 -0.937939 0
M  V30 1539 C 153.174 -1.10993 -2.05433 0
M  V30 1540 C 154.155 -0.0142161 -1.70094 0
M  V30 1541 O 155.34 -0.186837 -1.93299 0
M  V30 1542 C 152.47 -0.745561 -3.39203 0
M  V30 1543 C 151.424 -1.79337 -3.88616 0
M  V30 1544 C 150.75 -1.28324 -5.19073 0
M  V30 1545 C 152.05 -3.19553 -4.13138 0
M  V30 1546 H 153.744 -2.0438 -2.1879 0
M  V30 1547 H 151.29 -0.984041 -1.05131 0
M  V30 1548 H 153.243 -0.622888 -4.16771 0
M  V30 1549 H 151.967 0.22401 -3.25831 0
M  V30 1550 H 150.626 -1.90477 -3.13231 0
M  V30 1551 H 150.274 -0.303414 -5.02084 0
M  V30 1552 H 149.974 -1.98369 -5.53103 0
M  V30 1553 H 151.498 -1.1733 -5.99221 0
M  V30 1554 H 152.912 -3.11471 -4.81309 0
M  V30 1555 H 151.309 -3.87218 -4.58457 0
M  V30 1556 H 152.379 -3.65368 -3.18801 0
M  V30 1557 N 153.722 1.14298 -1.08507 0
M  V30 1558 C 154.968 1.85854 -0.826438 0
M  V30 1559 C 155.323 1.81413 0.640878 0
M  V30 1560 O 154.616 1.23463 1.46518 0
M  V30 1561 C 154.81 3.33547 -1.28379 0
M  V30 1562 C 154.639 3.52369 -2.79403 0
M  V30 1563 C 153.409 3.67159 -3.47164 0
M  V30 1564 C 155.607 3.49203 -3.77573 0
M  V30 1565 N 153.589 3.74149 -4.86709 0
M  V30 1566 C 154.96 3.6245 -5.03021 0
M  V30 1567 C 157.015 3.32547 -3.70563 0
M  V30 1568 C 155.718 3.60761 -6.2229 0
M  V30 1569 C 157.744 3.32162 -4.89308 0
M  V30 1570 C 157.106 3.45949 -6.13595 0
M  V30 1571 H 153.205 0.696705 -0.355143 0
M  V30 1572 H 155.789 1.36981 -1.38362 0
M  V30 1573 H 153.96 3.81008 -0.754166 0
M  V30 1574 H 155.692 3.92867 -0.971469 0
M  V30 1575 H 152.447 3.68433 -2.9758 0
M  V30 1576 H 152.871 3.81359 -5.5937 0
M  V30 1577 H 157.513 3.20797 -2.75407 0
M  V30 1578 H 155.231 3.71286 -7.17755 0
M  V30 1579 H 158.817 3.20485 -4.85573 0
M  V30 1580 H 157.697 3.456 -7.03939 0
M  V30 1581 N 155.201 0.870884 1.31352 0
M  V30 1582 C 156.447 0.482987 1.96965 0
M  V30 1583 C 156.78 -0.962462 1.68672 0
M  V30 1584 O 156.055 -1.6779 0.98371 0
M  V30 1585 C 156.338 0.741752 3.52378 0
M  V30 1586 C 156.191 2.2368 3.9024 0
M  V30 1587 C 157.51 0.208838 4.39604 0
M  V30 1588 H 154.629 0.176955 0.715441 0
M  V30 1589 H 157.271 1.09229 1.55464 0
M  V30 1590 H 155.421 0.223149 3.87859 0
M  V30 1591 H 157.093 2.82273 3.64856 0
M  V30 1592 H 155.336 2.70901 3.38814 0
M  V30 1593 H 156.007 2.3685 4.98604 0
M  V30 1594 H 158.483 0.652529 4.10952 0
M  V30 1595 H 157.359 0.419336 5.47296 0
M  V30 1596 H 157.62 -0.889275 4.33064 0
M  V30 1597 N 156.679 -1.44442 0.630414 0
M  V30 1598 C 157.626 -2.30678 -0.0749355 0
M  V30 1599 C 158.596 -1.4344 -0.837502 0
M  V30 1600 O 159.781 -1.72343 -0.818684 0
M  V30 1601 C 156.921 -3.28706 -1.05103 0
M  V30 1602 C 156.034 -4.31046 -0.286954 0
M  V30 1603 C 155.169 -5.16167 -1.2548 0
M  V30 1604 C 154.208 -6.10216 -0.479843 0
M  V30 1605 N 153.345 -6.88039 -1.39811 0
M  V30 1606 H 158.185 -2.90454 0.666386 0
M  V30 1607 H 155.722 -1.43107 0.340404 0
M  V30 1608 H 157.68 -3.84027 -1.63031 0
M  V30 1609 H 156.31 -2.70632 -1.75949 0
M  V30 1610 H 155.362 -3.78203 0.408243 0
M  V30 1611 H 156.674 -4.97794 0.316657 0
M  V30 1612 H 155.828 -5.76002 -1.90544 0
M  V30 1613 H 154.567 -4.49491 -1.89233 0
M  V30 1614 H 153.572 -5.49491 0.184295 0
M  V30 1615 H 154.797 -6.78928 0.152965 0
M  V30 1616 H 152.743 -6.24032 -2.02287 0
M  V30 1617 H 152.66 -7.51223 -0.848508 0
M  V30 1618 H 153.928 -7.52397 -2.03762 0
M  V30 1619 N 158.157 -0.370918 -1.53173 0
M  V30 1620 C 159.067 0.480823 -2.2962 0
M  V30 1621 C 160.083 1.08789 -1.35798 0
M  V30 1622 O 161.259 1.09768 -1.68858 0
M  V30 1623 C 158.324 1.60227 -3.07454 0
M  V30 1624 C 157.385 1.0222 -4.16953 0
M  V30 1625 C 156.618 2.0902 -4.91066 0
M  V30 1626 O 156.841 3.30222 -4.65091 0
M  V30 1627 O 155.775 1.71778 -5.76867 0
M  V30 1628 H 159.601 -0.141421 -3.03371 0
M  V30 1629 H 157.186 -0.135146 -1.48787 0
M  V30 1630 H 159.068 2.25417 -3.56041 0
M  V30 1631 H 157.743 2.20982 -2.36535 0
M  V30 1632 H 156.65 0.334064 -3.72605 0
M  V30 1633 H 157.983 0.459131 -4.90054 0
M  V30 1634 N 159.635 1.57281 -0.100228 0
M  V30 1635 C 160.865 1.98591 0.569681 0
M  V30 1636 C 161.273 0.978315 1.61943 0
M  V30 1637 O 160.616 -0.0396108 1.83657 0
M  V30 1638 C 160.678 3.36282 1.271 0
M  V30 1639 C 160.342 4.55488 0.371409 0
M  V30 1640 C 161.339 5.18491 -0.382504 0
M  V30 1641 C 159.024 5.01474 0.287965 0
M  V30 1642 C 161.018 6.25852 -1.20779 0
M  V30 1643 C 158.705 6.08701 -0.540965 0
M  V30 1644 C 159.703 6.70755 -1.28749 0
M  V30 1645 O 159.391 7.75914 -2.10269 0
M  V30 1646 H 159.123 0.65752 0.156982 0
M  V30 1647 H 161.677 2.0463 -0.177734 0
M  V30 1648 H 159.907 3.26941 2.0651 0
M  V30 1649 H 161.596 3.62005 1.83595 0
M  V30 1650 H 162.362 4.83891 -0.3278 0
M  V30 1651 H 158.241 4.52932 0.858689 0
M  V30 1652 H 161.785 6.74218 -1.79096 0
M  V30 1653 H 157.682 6.42732 -0.597131 0
M  V30 1654 H 158.45 7.92925 -2.03007 0
M  V30 1655 N 161.113 -0.173488 1.56642 0
M  V30 1656 C 162.39 -0.917617 1.7274 0
M  V30 1657 C 162.77 -2.00484 0.661027 0
M  V30 1658 O 162.118 -2.26184 -0.32453 0
M  V30 1659 C 162.328 -1.48433 3.15862 0
M  V30 1660 C 163.676 -1.95809 3.76754 0
M  V30 1661 O 164.7 -1.58231 3.19126 0
M  V30 1662 O 163.559 -2.65024 4.77938 0
M  V30 1663 H 160.653 -0.431772 0.705338 0
M  V30 1664 H 163.199 -0.161487 1.6893 0
M  V30 1665 H 161.971 -0.701715 3.84957 0
M  V30 1666 H 161.594 -2.30471 3.23989 0
M  V30 1667 N 162.591 -1.51276 -0.441967 0
M  V30 1668 C 163.839 -1.63392 -1.18943 0
M  V30 1669 C 164.16 -0.350159 -1.9183 0
M  V30 1670 O 163.43 0.633784 -1.85364 0
M  V30 1671 H 162.01 -0.602164 -0.442049 0
M  V30 1672 H 164.672 -1.88186 -0.507165 0
M  V30 1673 H 163.768 -2.45934 -1.92154 0
M  V30 1674 N 164.069 0.697108 -1.41344 0
M  V30 1675 C 165.315 1.4593 -1.40827 0
M  V30 1676 C 165.648 1.94193 -0.0167098 0
M  V30 1677 O 164.923 1.69425 0.955263 0
M  V30 1678 C 165.206 2.67229 -2.41373 0
M  V30 1679 C 165.059 2.24741 -3.8963 0
M  V30 1680 C 166.378 3.69423 -2.39196 0
M  V30 1681 H 163.497 0.529303 -0.512842 0
M  V30 1682 H 166.139 0.794112 -1.72609 0
M  V30 1683 H 164.289 3.23982 -2.14401 0
M  V30 1684 H 165.961 1.73327 -4.27499 0
M  V30 1685 H 164.204 1.56542 -4.0457 0
M  V30 1686 H 164.875 3.1177 -4.55525 0
M  V30 1687 H 167.351 3.2234 -2.63128 0
M  V30 1688 H 166.227 4.51907 -3.11563 0
M  V30 1689 H 166.488 4.19012 -1.41001 0
M  V30 1690 N 165.547 1.27147 0.931209 0
M  V30 1691 C 166.793 1.13446 1.68101 0
M  V30 1692 C 167.126 -0.319628 1.91552 0
M  V30 1693 O 166.401 -1.23407 1.50336 0
M  V30 1694 C 166.684 1.91482 3.0497 0
M  V30 1695 C 166.537 3.44855 2.88782 0
M  V30 1696 C 167.856 1.71651 4.05246 0
M  V30 1697 H 164.975 0.413498 0.610072 0
M  V30 1698 H 167.617 1.56261 1.08086 0
M  V30 1699 H 165.767 1.55095 3.56199 0
M  V30 1700 H 167.439 3.9105 2.44698 0
M  V30 1701 H 165.682 3.71373 2.24198 0
M  V30 1702 H 166.353 3.94694 3.85902 0
M  V30 1703 H 168.829 2.0337 3.63015 0
M  V30 1704 H 167.705 2.28651 4.99009 0
M  V30 1705 H 167.966 0.663555 4.37092 0
M  V30 1706 N 167.025 -1.13721 1.09112 0
M  V30 1707 C 168.271 -1.85198 0.826414 0
M  V30 1708 C 168.604 -1.83129 -0.646319 0
M  V30 1709 O 167.879 -1.2671 -1.47563 0
M  V30 1710 C 168.162 -3.33507 1.35812 0
M  V30 1711 C 168.015 -3.44108 2.89672 0
M  V30 1712 C 169.334 -4.28838 0.989256 0
M  V30 1713 H 166.453 -0.67243 0.301675 0
M  V30 1714 H 169.095 -1.33499 1.35197 0
M  V30 1715 H 167.245 -3.77666 0.911082 0
M  V30 1716 H 168.917 -3.08684 3.428 0
M  V30 1717 H 167.16 -2.85087 3.26967 0
M  V30 1718 H 167.831 -4.48388 3.21951 0
M  V30 1719 H 170.307 -3.92734 1.37475 0
M  V30 1720 H 169.183 -5.31051 1.38838 0
M  V30 1721 H 169.444 -4.4198 -0.102924 0
M  V30 1722 N 168.503 -0.877838 -1.30888 0
M  V30 1723 C 169.749 -0.493426 -1.96706 0
M  V30 1724 C 170.082 0.953504 -1.6918 0
M  V30 1725 O 169.357 1.67266 -0.992594 0
M  V30 1726 C 169.64 -0.760429 -3.51979 0
M  V30 1727 C 169.493 -2.25747 -3.89048 0
M  V30 1728 C 170.812 -0.232148 -4.39487 0
M  V30 1729 H 167.931 -0.180746 -0.714493 0
M  V30 1730 H 170.573 -1.10052 -1.54882 0
M  V30 1731 H 168.723 -0.243715 -3.87735 0
M  V30 1732 H 170.395 -2.84204 -3.63354 0
M  V30 1733 H 168.638 -2.72694 -3.37373 0
M  V30 1734 H 169.309 -2.39491 -4.97341 0
M  V30 1735 H 171.785 -0.674314 -4.106 0
M  V30 1736 H 170.661 -0.448355 -5.47066 0
M  V30 1737 H 170.922 0.866297 -4.33529 0
M  V30 1738 N 169.982 1.44106 -0.638065 0
M  V30 1739 C 171.228 2.02277 -0.145546 0
M  V30 1740 C 171.561 1.50125 1.23191 0
M  V30 1741 O 170.836 0.688133 1.8192 0
M  V30 1742 C 171.119 3.59829 -0.139791 0
M  V30 1743 C 170.972 4.22247 -1.55008 0
M  V30 1744 C 172.291 4.36873 0.531966 0
M  V30 1745 H 169.41 0.734992 -0.0543632 0
M  V30 1746 H 172.052 1.71592 -0.815863 0
M  V30 1747 H 170.202 3.86102 0.431007 0
M  V30 1748 H 171.874 4.07057 -2.1703 0
M  V30 1749 H 170.117 3.79476 -2.10191 0
M  V30 1750 H 170.788 5.31284 -1.49804 0
M  V30 1751 H 173.264 4.16074 0.0464781 0
M  V30 1752 H 172.14 5.4657 0.505206 0
M  V30 1753 H 172.401 4.11995 1.60352 0
M  V30 1754 N 171.46 0.379036 1.52974 0
M  V30 1755 C 172.408 -0.476033 2.27677 0
M  V30 1756 C 173.402 -1.0719 1.31174 0
M  V30 1757 O 174.608 -1.01355 1.48752 0
M  V30 1758 H 170.983 -0.172255 0.732006 0
M  V30 1759 H 172.954 0.175615 2.97883 0
M  V30 1760 C 171.703 -1.5967 3.0887 0
M  V30 1761 H 171.026 -1.1475 3.82978 0
M  V30 1762 H 172.466 -2.16943 3.64296 0
M  V30 1763 C 170.925 -2.54682 2.20542 0
M  V30 1764 O 171.455 -3.57836 1.82527 0
M  V30 1765 N 169.661 -2.24183 1.84907 0
M  V30 1766 H 169.208 -1.40333 2.1602 0
M  V30 1767 H 169.166 -2.88006 1.26096 0
M  V30 1768 N 172.938 -1.57226 0.108567 0
M  V30 1769 C 174.185 -1.94833 -0.551943 0
M  V30 1770 C 174.513 -0.991204 -1.67348 0
M  V30 1771 O 173.768 -0.0131878 -1.95696 0
M  V30 1772 C 174.067 -3.38911 -1.13463 0
M  V30 1773 C 173.733 -4.50696 -0.135509 0
M  V30 1774 C 172.395 -4.80998 0.139252 0
M  V30 1775 C 174.747 -5.18333 0.545957 0
M  V30 1776 C 172.075 -5.76259 1.10194 0
M  V30 1777 C 174.427 -6.14627 1.49721 0
M  V30 1778 C 173.091 -6.43327 1.78006 0
M  V30 1779 H 172.361 -0.712944 -0.20197 0
M  V30 1780 H 175.008 -1.90582 0.18726 0
M  V30 1781 H 173.313 -3.39805 -1.95037 0
M  V30 1782 H 175.01 -3.65317 -1.65362 0
M  V30 1783 H 171.6 -4.27087 -0.359846 0
M  V30 1784 H 175.784 -4.95087 0.346842 0
M  V30 1785 H 171.04 -5.96804 1.32795 0
M  V30 1786 H 175.214 -6.66126 2.03099 0
M  V30 1787 H 172.841 -7.1695 2.52759 0
M  V30 1788 N 174.416 0.165178 -1.56732 0
M  V30 1789 C 175.364 1.22369 -1.97809 0
M  V30 1790 C 176.358 1.45488 -0.867741 0
M  V30 1791 O 177.564 1.45995 -1.05288 0
M  V30 1792 H 173.939 0.411486 -0.629431 0
M  V30 1793 H 175.91 0.850425 -2.86025 0
M  V30 1794 C 174.659 2.55403 -2.35934 0
M  V30 1795 H 173.982 2.38438 -3.20916 0
M  V30 1796 H 175.422 3.2814 -2.68514 0
M  V30 1797 C 173.881 3.14611 -1.20506 0
M  V30 1798 O 174.411 3.98626 -0.496016 0
M  V30 1799 N 172.617 2.7379 -0.97403 0
M  V30 1800 H 172.164 2.0557 -1.55238 0
M  V30 1801 H 172.122 3.1374 -0.203573 0
M  V30 1802 N 175.894 1.51508 0.433938 0
M  V30 1803 C 177.119 1.68443 1.21003 0
M  V30 1804 C 177.544 0.382636 1.84167 0
M  V30 1805 O 176.902 -0.65755 1.68956 0
M  V30 1806 C 176.95 2.80405 2.26727 0
M  V30 1807 O 176.054 2.44245 3.32292 0
M  V30 1808 H 175.395 0.561536 0.354363 0
M  V30 1809 H 177.925 1.9809 0.512024 0
M  V30 1810 H 177.935 3.0459 2.71457 0
M  V30 1811 H 176.61 3.74867 1.80132 0
M  V30 1812 H 175.187 2.30644 2.93015 0
M  V30 1813 N 177.372 -0.689602 1.41712 0
M  V30 1814 C 178.618 -1.45181 1.41599 0
M  V30 1815 C 178.951 -1.94181 0.0270081 0
M  V30 1816 O 178.226 -1.6993 -0.946265 0
M  V30 1817 C 178.509 -2.65945 2.42787 0
M  V30 1818 C 178.362 -2.22672 3.90816 0
M  V30 1819 C 179.681 -3.68149 2.41151 0
M  V30 1820 H 176.8 -0.526576 0.515642 0
M  V30 1821 H 179.442 -0.784947 1.73028 0
M  V30 1822 H 177.592 -3.2284 2.16116 0
M  V30 1823 H 179.264 -1.71058 4.28412 0
M  V30 1824 H 177.507 -1.54394 4.05395 0
M  V30 1825 H 178.178 -3.0935 4.57172 0
M  V30 1826 H 180.654 -3.2094 2.64834 0
M  V30 1827 H 179.53 -4.50248 3.13955 0
M  V30 1828 H 179.791 -4.18259 1.43221 0
M  V30 1829 N 178.85 -1.27639 -0.924453 0
M  V30 1830 C 180.098 -1.13941 -1.66918 0
M  V30 1831 C 180.419 0.314589 -1.92446 0
M  V30 1832 O 179.689 1.21964 -1.53303 0
M  V30 1833 H 178.269 -0.418678 -0.618642 0
M  V30 1834 H 180.931 -1.60213 -1.10985 0
M  V30 1835 H 180.027 -1.67094 -2.63602 0
M  V30 1836 N 180.328 1.1314 -1.09713 0
M  V30 1837 C 181.553 1.88862 -0.857081 0
M  V30 1838 C 181.978 1.78729 0.586304 0
M  V30 1839 O 181.336 1.13692 1.41222 0
M  V30 1840 C 181.384 3.36325 -1.30069 0
M  V30 1841 O 180.488 4.09815 -0.461007 0
M  V30 1842 H 179.829 0.587108 -0.310162 0
M  V30 1843 H 182.359 1.43129 -1.46203 0
M  V30 1844 H 182.369 3.87157 -1.28738 0
M  V30 1845 H 181.044 3.43017 -2.35185 0
M  V30 1846 H 179.621 3.68986 -0.538888 0
M  V30 1847 N 181.806 0.884767 1.30421 0
M  V30 1848 C 183.052 0.513218 1.96819 0
M  V30 1849 C 183.407 -0.927347 1.68577 0
M  V30 1850 O 182.7 -1.64644 0.979941 0
M  V30 1851 C 182.894 0.724318 3.49983 0
M  V30 1852 C 182.723 2.18385 3.93113 0
M  V30 1853 C 181.493 2.82839 4.18725 0
M  V30 1854 C 183.691 3.15763 4.05953 0
M  V30 1855 N 181.673 4.1939 4.48314 0
M  V30 1856 C 183.044 4.37387 4.39423 0
M  V30 1857 C 185.099 3.11555 3.88379 0
M  V30 1858 C 183.802 5.55343 4.5715 0
M  V30 1859 C 185.828 4.28782 4.07308 0
M  V30 1860 C 185.19 5.49172 4.41123 0
M  V30 1861 H 181.289 0.237123 0.745182 0
M  V30 1862 H 183.873 1.14246 1.57658 0
M  V30 1863 H 182.044 0.124565 3.882 0
M  V30 1864 H 183.776 0.31969 4.03435 0
M  V30 1865 H 180.531 2.33708 4.11919 0
M  V30 1866 H 180.955 4.89911 4.67243 0
M  V30 1867 H 185.597 2.19576 3.61312 0
M  V30 1868 H 183.315 6.47826 4.8306 0
M  V30 1869 H 186.901 4.26995 3.95179 0
M  V30 1870 H 185.781 6.38371 4.55469 0
M  V30 1871 N 183.284 -1.43765 0.645699 0
M  V30 1872 C 184.217 -2.2798 -0.100072 0
M  V30 1873 C 185.195 -1.39391 -0.837194 0
M  V30 1874 O 186.379 -1.68833 -0.838306 0
M  V30 1875 C 183.506 -3.18643 -1.14823 0
M  V30 1876 C 182.552 -4.2344 -0.510009 0
M  V30 1877 S 183.385 -5.30761 0.710824 0
M  V30 1878 C 184.541 -6.24992 -0.33699 0
M  V30 1879 H 184.774 -2.90884 0.614322 0
M  V30 1880 H 182.307 -1.48166 0.434304 0
M  V30 1881 H 184.265 -3.71424 -1.74799 0
M  V30 1882 H 182.926 -2.54932 -1.8349 0
M  V30 1883 H 182.119 -4.86948 -1.29991 0
M  V30 1884 H 181.721 -3.73997 0.0154577 0
M  V30 1885 H 184.013 -6.66691 -1.20537 0
M  V30 1886 H 184.956 -7.07612 0.262879 0
M  V30 1887 H 185.364 -5.60517 -0.669425 0
M  V30 1888 N 184.763 -0.387143 -1.52771 0
M  V30 1889 C 186.012 0.19697 -2.00736 0
M  V30 1890 C 186.325 1.48082 -1.27793 0
M  V30 1891 O 187.531 2.14485 -1.66458 0
M  V30 1892 C 185.987 0.401568 -3.57653 0
M  V30 1893 C 185.595 -0.868907 -4.39493 0
M  V30 1894 C 187.339 0.942164 -4.13912 0
M  V30 1895 C 185.246 -0.632705 -5.88006 0
M  V30 1896 H 184.176 0.0773827 -0.750019 0
M  V30 1897 H 186.827 -0.50921 -1.76293 0
M  V30 1898 H 185.209 1.16954 -3.78335 0
M  V30 1899 H 186.383 -1.64133 -4.30577 0
M  V30 1900 H 184.698 -1.33429 -3.94443 0
M  V30 1901 H 187.295 1.13455 -5.22525 0
M  V30 1902 H 187.638 1.9106 -3.69867 0
M  V30 1903 H 188.171 0.233814 -3.97112 0
M  V30 1904 H 184.91 -1.57208 -6.36369 0
M  V30 1905 H 184.43 0.100825 -5.99715 0
M  V30 1906 H 186.109 -0.26642 -6.46451 0
M  V30 1907 N 186.241 1.57166 -0.116904 0
M  V30 1908 C 187.471 1.99184 0.548586 0
M  V30 1909 C 187.879 0.995436 1.60897 0
M  V30 1910 O 187.222 -0.0201293 1.83689 0
M  V30 1911 C 187.284 3.37611 1.23526 0
M  V30 1912 C 186.948 4.55857 0.323077 0
M  V30 1913 C 187.945 5.18056 -0.437476 0
M  V30 1914 C 185.63 5.01751 0.234761 0
M  V30 1915 C 187.624 6.24536 -1.2741 0
M  V30 1916 C 185.311 6.08093 -0.605496 0
M  V30 1917 C 186.309 6.69352 -1.35856 0
M  V30 1918 O 185.997 7.7364 -2.18487 0
M  V30 1919 H 185.729 0.659148 0.149999 0
M  V30 1920 H 188.283 2.0443 -0.199428 0
M  V30 1921 H 186.513 3.29113 2.0303 0
M  V30 1922 H 188.202 3.63932 1.79745 0
M  V30 1923 H 188.968 4.83516 -0.379105 0
M  V30 1924 H 184.847 4.53817 0.810601 0
M  V30 1925 H 188.391 6.72281 -1.86237 0
M  V30 1926 H 184.288 6.42063 -0.665268 0
M  V30 1927 H 185.056 7.90727 -2.11406 0
M  V30 1928 N 187.719 -0.156864 1.56817 0
M  V30 1929 C 188.629 -1.2136 2.00771 0
M  V30 1930 C 189.645 -1.47598 0.921459 0
M  V30 1931 O 190.821 -1.59462 1.2302 0
M  V30 1932 C 187.886 -2.52943 2.37109 0
M  V30 1933 C 186.947 -2.34439 3.59634 0
M  V30 1934 C 186.18 -3.59748 3.94229 0
M  V30 1935 O 186.403 -4.65526 3.29609 0
M  V30 1936 O 185.337 -3.52998 4.8752 0
M  V30 1937 H 189.163 -0.870468 2.90958 0
M  V30 1938 H 186.748 -0.36484 1.44877 0
M  V30 1939 H 188.63 -3.30538 2.61386 0
M  V30 1940 H 187.305 -2.86806 1.5008 0
M  V30 1941 H 186.212 -1.54828 3.40557 0
M  V30 1942 H 187.545 -2.05496 4.4725 0
M  V30 1943 N 189.197 -1.51736 -0.425897 0
M  V30 1944 C 190.445 -1.64644 -1.17204 0
M  V30 1945 C 190.766 -0.370486 -1.91448 0
M  V30 1946 O 190.036 0.614088 -1.86026 0
M  V30 1947 H 188.616 -0.606819 -0.435638 0
M  V30 1948 H 191.278 -1.88713 -0.487177 0
M  V30 1949 H 190.374 -2.47958 -1.89534 0
M  V30 1950 N 190.675 0.682077 -1.42076 0
M  V30 1951 C 191.585 1.82535 -1.47371 0
M  V30 1952 C 192.601 1.7017 -0.363079 0
M  V30 1953 O 193.777 1.91848 -0.612875 0
M  V30 1954 C 190.842 3.18624 -1.36674 0
M  V30 1955 C 189.903 3.42999 -2.58167 0
M  V30 1956 C 189.136 4.72595 -2.4797 0
M  V30 1957 O 189.359 5.50006 -1.5116 0
M  V30 1958 O 188.293 4.98054 -3.37974 0
M  V30 1959 H 192.119 1.81023 -2.43853 0
M  V30 1960 H 189.704 0.836887 -1.2376 0
M  V30 1961 H 191.586 3.99847 -1.33043 0
M  V30 1962 H 190.261 3.20789 -0.433138 0
M  V30 1963 H 189.168 2.61653 -2.67373 0
M  V30 1964 H 190.501 3.45659 -3.50401 0
M  V30 1965 N 192.153 1.28127 0.917671 0
M  V30 1966 C 193.401 1.14825 1.66312 0
M  V30 1967 C 193.722 -0.304379 1.9261 0
M  V30 1968 O 192.992 -1.21149 1.53947 0
M  V30 1969 H 191.572 0.421953 0.616413 0
M  V30 1970 H 194.234 1.608 1.10134 0
M  V30 1971 H 193.33 1.68489 2.62712 0
M  V30 1972 N 193.631 -1.12557 1.10312 0
M  V30 1973 C 194.856 -1.88405 0.867085 0
M  V30 1974 C 195.281 -1.79038 -0.576817 0
M  V30 1975 O 194.639 -1.14439 -1.40618 0
M  V30 1976 C 194.687 -3.3563 1.31851 0
M  V30 1977 O 193.791 -4.09565 0.482734 0
M  V30 1978 H 193.132 -0.585455 0.313271 0
M  V30 1979 H 195.662 -1.42352 1.4696 0
M  V30 1980 H 195.672 -3.86469 1.3079 0
M  V30 1981 H 194.347 -3.41765 2.37001 0
M  V30 1982 H 192.924 -3.68695 0.558448 0
M  V30 1983 N 195.109 -0.891671 -1.2995 0
M  V30 1984 C 196.357 -0.512486 -1.95494 0
M  V30 1985 C 196.678 0.942776 -1.70695 0
M  V30 1986 O 195.948 1.66374 -1.03424 0
M  V30 1987 H 194.528 -0.186533 -0.723336 0
M  V30 1988 H 197.19 -1.13621 -1.58355 0
M  V30 1989 H 196.286 -0.688342 -3.04415 0
M  V30 1990 N 196.587 1.43421 -0.653314 0
M  V30 1991 C 197.517 2.33487 0.0246656 0
M  V30 1992 C 198.498 1.49475 0.811863 0
M  V30 1993 O 199.683 1.78139 0.773322 0
M  V30 1994 C 196.813 3.32841 0.99166 0
M  V30 1995 C 195.767 4.26842 0.314568 0
M  V30 1996 C 195.093 5.16236 1.39302 0
M  V30 1997 C 196.393 5.16243 -0.793095 0
M  V30 1998 H 198.087 2.90427 -0.727481 0
M  V30 1999 H 195.633 1.39649 -0.351287 0
M  V30 2000 H 197.586 3.94747 1.47487 0
M  V30 2001 H 196.31 2.74158 1.77497 0
M  V30 2002 H 194.969 3.663 -0.148199 0
M  V30 2003 H 194.617 4.53891 2.16776 0
M  V30 2004 H 194.317 5.79948 0.945223 0
M  V30 2005 H 195.841 5.81015 1.87759 0
M  V30 2006 H 197.255 5.71958 -0.392039 0
M  V30 2007 H 195.652 5.88676 -1.16536 0
M  V30 2008 H 196.722 4.55927 -1.65103 0
M  V30 2009 N 198.065 0.39524 1.52563 0
M  V30 2010 C 199.314 -0.186321 2.00838 0
M  V30 2011 C 199.627 -1.47402 1.28577 0
M  V30 2012 O 200.833 -2.13599 1.67593 0
M  V30 2013 C 199.289 -0.382595 3.57861 0
M  V30 2014 C 198.897 0.892202 4.39026 0
M  V30 2015 C 200.641 -0.9202 4.14406 0
M  V30 2016 C 198.548 0.66388 5.87662 0
M  V30 2017 H 197.478 -0.0734041 0.750418 0
M  V30 2018 H 200.129 0.518552 1.76021 0
M  V30 2019 H 198.511 -1.14946 3.7895 0
M  V30 2020 H 199.685 1.66414 4.29701 0
M  V30 2021 H 198 1.35519 3.9373 0
M  V30 2022 H 200.597 -1.10683 5.23119 0
M  V30 2023 H 200.94 -1.89096 3.70875 0
M  V30 2024 H 201.473 -0.212751 3.97231 0
M  V30 2025 H 198.212 1.6058 6.35527 0
M  V30 2026 H 197.732 -0.0690193 5.9976 0
M  V30 2027 H 199.411 0.300699 6.46301 0
M  V30 2028 N 199.544 -1.57102 0.125237 0
M  V30 2029 C 200.96 -1.57915 -0.231322 0
M  V30 2030 C 201.16 -1.13833 -1.66266 0
M  V30 2031 O 200.216 -0.828581 -2.38518 0
M  V30 2032 C 201.529 -3.00699 0.00766489 0
M  V30 2033 C 203.077 -3.12947 -0.0577483 0
M  V30 2034 C 203.552 -4.57742 0.153626 0
M  V30 2035 N 205.043 -4.63092 0.0998073 0
M  V30 2036 C 205.778 -5.72905 0.238174 0
M  V30 2037 N 205.274 -6.91445 0.433057 0
M  V30 2038 N 207.067 -5.6182 0.177308 0
M  V30 2039 H 199.218 -1.84055 1.06007 0
M  V30 2040 H 201.481 -0.850905 0.417929 0
M  V30 2041 H 201.187 -3.3726 0.997431 0
M  V30 2042 H 201.061 -3.70236 -0.721452 0
M  V30 2043 H 203.448 -2.7624 -1.03804 0
M  V30 2044 H 203.529 -2.4594 0.70335 0
M  V30 2045 H 203.173 -4.95149 1.13092 0
M  V30 2046 H 203.103 -5.22848 -0.627534 0
M  V30 2047 H 205.594 -3.77871 -0.047051 0
M  V30 2048 H 205.907 -7.70985 0.529332 0
M  V30 2049 H 204.252 -6.93415 0.469109 0
M  V30 2050 H 207.443 -4.68093 0.0259748 0
M  V30 2051 H 207.616 -6.47357 0.288582 0
M  V30 2052 N 201.022 0.148545 -1.56898 0
M  V30 2053 C 201.932 1.20293 -2.01412 0
M  V30 2054 C 202.948 1.47107 -0.929273 0
M  V30 2055 O 204.124 1.58807 -1.23863 0
M  V30 2056 C 201.189 2.51682 -2.38447 0
M  V30 2057 C 200.25 2.32529 -3.60872 0
M  V30 2058 C 199.483 3.57653 -3.96132 0
M  V30 2059 O 199.706 4.63771 -3.32073 0
M  V30 2060 O 198.64 3.50408 -4.89385 0
M  V30 2061 H 202.466 0.855025 -2.91416 0
M  V30 2062 H 200.051 0.357151 -1.45068 0
M  V30 2063 H 201.933 3.29147 -2.63135 0
M  V30 2064 H 200.608 2.86006 -1.51599 0
M  V30 2065 H 199.515 1.53019 -3.41373 0
M  V30 2066 H 200.848 2.03121 -4.48333 0
M  V30 2067 N 202.5 1.5196 0.417844 0
M  V30 2068 C 203.777 1.56146 1.17803 0
M  V30 2069 C 204.157 0.337275 2.08388 0
M  V30 2070 O 203.505 -0.676447 2.18258 0
M  V30 2071 C 203.715 2.88566 1.96293 0
M  V30 2072 C 205.063 3.41244 2.52662 0
M  V30 2073 O 206.087 2.90247 2.06483 0
M  V30 2074 O 204.946 4.30273 3.36938 0
M  V30 2075 H 202.04 0.628598 0.537395 0
M  V30 2076 H 204.586 1.64283 0.425331 0
M  V30 2077 H 203.358 3.69116 1.2988 0
M  V30 2078 H 202.981 2.83681 2.78587 0
M  V30 2079 N 203.978 -0.674533 1.42435 0
M  V30 2080 C 205.389 -1.25514 1.38214 0
M  V30 2081 C 205.74 -1.96055 0.0755464 0
M  V30 2082 O 204.865 -2.00028 -0.8257 0
M  V30 2083 C 205.46 -2.28269 2.50357 0
M  V30 2084 C 204.019 -2.81856 2.49467 0
M  V30 2085 C 203.166 -1.56182 2.29134 0
M  V30 2086 H 206.117 -0.467902 1.51646 0
M  V30 2087 H 206.138 -3.10009 2.20624 0
M  V30 2088 H 205.65 -1.769 3.45439 0
M  V30 2089 H 203.751 -3.37346 1.58204 0
M  V30 2090 H 203.864 -3.30854 3.46515 0
M  V30 2091 H 202.228 -1.82761 1.774 0
M  V30 2092 H 203.011 -1.06778 3.26272 0
M  V30 2093 N 205.456 -1.28612 -0.910864 0
M  V30 2094 C 206.705 -1.15311 -1.65488 0
M  V30 2095 C 207.018 0.296999 -1.93332 0
M  V30 2096 O 208.224 0.551168 -2.65847 0
M  V30 2097 C 206.68 -2.01599 -2.98137 0
M  V30 2098 C 206.288 -3.51367 -2.7793 0
M  V30 2099 C 208.032 -1.96993 -3.76024 0
M  V30 2100 C 205.939 -4.29797 -4.06237 0
M  V30 2101 H 204.869 -0.42796 -0.620779 0
M  V30 2102 H 207.52 -1.53166 -1.01057 0
M  V30 2103 H 205.902 -1.56603 -3.63719 0
M  V30 2104 H 207.076 -4.0434 -2.21011 0
M  V30 2105 H 205.391 -3.57529 -2.13452 0
M  V30 2106 H 207.988 -2.52856 -4.71135 0
M  V30 2107 H 208.331 -0.94733 -4.05378 0
M  V30 2108 H 208.864 -2.39973 -3.17266 0
M  V30 2109 H 205.603 -5.32648 -3.82055 0
M  V30 2110 H 205.123 -3.81596 -4.62757 0
M  V30 2111 H 206.802 -4.39869 -4.74473 0
M  V30 2112 N 206.934 1.1197 -1.10907 0
M  V30 2113 C 208.182 1.83225 -0.852819 0
M  V30 2114 C 208.503 1.84769 0.623341 0
M  V30 2115 O 207.773 1.3143 1.45269 0
M  V30 2116 H 206.353 0.67849 -0.312507 0
M  V30 2117 H 209.015 1.3556 -1.40033 0
M  V30 2118 H 208.111 2.87265 -1.22005 0
M  V30 2119 N 208.412 0.89855 1.29475 0
M  V30 2120 C 209.375 0.380272 2.26023 0
M  V30 2121 C 210.375 -0.484891 1.53315 0
M  V30 2122 O 211.565 -0.290108 1.71767 0
M  V30 2123 C 208.697 -0.45651 3.3783 0
M  V30 2124 H 209.89 1.23295 2.73383 0
M  V30 2125 H 207.443 0.676589 1.40897 0
M  V30 2126 H 208.178 -1.32922 2.95808 0
M  V30 2127 H 207.963 0.163393 3.91759 0
M  V30 2128 H 209.453 -0.810466 4.0966 0
M  V30 2129 N 209.89 -1.43072 0.660911 0
M  V30 2130 C 211.138 -2.01323 0.177094 0
M  V30 2131 C 211.459 -1.5245 -1.2159 0
M  V30 2132 O 210.729 -0.740322 -1.81373 0
M  V30 2133 H 209.309 -0.744382 0.0624804 0
M  V30 2134 H 211.971 -1.75179 0.854305 0
M  V30 2135 H 211.067 -3.11649 0.167641 0
M  V30 2136 N 211.368 -0.403325 -1.52352 0
M  V30 2137 C 212.331 0.413051 -2.25447 0
M  V30 2138 C 213.331 0.978513 -1.276 0
M  V30 2139 O 214.521 0.858305 -1.51587 0
M  V30 2140 C 211.653 1.58087 -3.02029 0
M  V30 2141 H 212.846 -0.227094 -2.99039 0
M  V30 2142 H 210.399 -0.155722 -1.55522 0
M  V30 2143 H 211.134 2.25804 -2.32772 0
M  V30 2144 H 210.919 1.18195 -3.73861 0
M  V30 2145 H 212.409 2.1585 -3.57489 0
M  V30 2146 N 212.846 1.57033 -0.133567 0
M  V30 2147 C 213.776 2.1909 0.807567 0
M  V30 2148 C 214.757 1.13517 1.26681 0
M  V30 2149 O 215.942 1.41809 1.32679 0
M  V30 2150 C 213.072 2.80188 2.05212 0
M  V30 2151 C 212.026 3.91471 1.73015 0
M  V30 2152 C 211.352 4.39443 3.04622 0
M  V30 2153 C 212.652 5.12886 0.987168 0
M  V30 2154 H 214.346 2.97988 0.290403 0
M  V30 2155 H 211.892 1.43335 0.138239 0
M  V30 2156 H 213.845 3.22264 2.71521 0
M  V30 2157 H 212.569 1.98601 2.59278 0
M  V30 2158 H 211.228 3.49993 1.0909 0
M  V30 2159 H 210.876 3.54695 3.56651 0
M  V30 2160 H 210.576 5.14495 2.83847 0
M  V30 2161 H 212.1 4.8418 3.72024 0
M  V30 2162 H 213.514 5.51891 1.55208 0
M  V30 2163 H 211.911 5.93615 0.87985 0
M  V30 2164 H 212.981 4.84894 -0.0235286 0
M  V30 2165 N 214.325 -0.140222 1.56975 0
M  V30 2166 C 215.555 -0.865181 1.87612 0
M  V30 2167 C 215.963 -1.74942 0.72055 0
M  V30 2168 O 215.306 -1.80917 -0.318561 0
M  V30 2169 C 215.368 -1.76782 3.13031 0
M  V30 2170 C 215.032 -1.06005 4.44536 0
M  V30 2171 C 216.029 -0.410768 5.18275 0
M  V30 2172 C 213.714 -1.04754 4.91255 0
M  V30 2173 C 215.708 0.241572 6.36942 0
M  V30 2174 C 213.395 -0.391394 6.09845 0
M  V30 2175 C 214.393 0.252029 6.82535 0
M  V30 2176 O 214.081 0.897757 7.98871 0
M  V30 2177 H 213.813 -0.255188 0.625983 0
M  V30 2178 H 216.367 -0.135653 2.04952 0
M  V30 2179 H 214.597 -2.53846 2.91718 0
M  V30 2180 H 216.286 -2.36533 3.29859 0
M  V30 2181 H 217.052 -0.412195 4.83245 0
M  V30 2182 H 212.931 -1.53777 4.34596 0
M  V30 2183 H 216.475 0.744375 6.93617 0
M  V30 2184 H 212.372 -0.387656 6.44335 0
M  V30 2185 H 213.14 0.800102 8.1458 0
M  V30 2186 N 215.803 -1.52179 -0.40978 0
M  V30 2187 C 217.08 -1.56769 -1.16974 0
M  V30 2188 C 217.46 -0.348322 -2.08206 0
M  V30 2189 O 216.808 0.664862 -2.18613 0
M  V30 2190 C 217.018 -2.89603 -1.9476 0
M  V30 2191 C 218.366 -3.42579 -2.50849 0
M  V30 2192 O 219.39 -2.91338 -2.04941 0
M  V30 2193 O 218.249 -4.32054 -3.34652 0
M  V30 2194 H 215.343 -0.631439 -0.534054 0
M  V30 2195 H 217.889 -1.64507 -0.416613 0
M  V30 2196 H 216.661 -3.698 -1.27921 0
M  V30 2197 H 216.284 -2.85155 -2.77079 0
M  V30 2198 N 217.281 0.66697 -1.42791 0
M  V30 2199 C 218.511 1.45294 -1.46878 0
M  V30 2200 C 218.919 1.89027 -0.0809861 0
M  V30 2201 O 218.262 1.59219 0.916246 0
M  V30 2202 C 218.324 2.72908 -2.34012 0
M  V30 2203 C 217.988 2.51203 -3.81767 0
M  V30 2204 C 218.985 2.15302 -4.73224 0
M  V30 2205 C 216.67 2.65954 -4.26115 0
M  V30 2206 C 218.664 1.94431 -6.07022 0
M  V30 2207 C 216.351 2.44699 -5.59969 0
M  V30 2208 C 217.349 2.08992 -6.5024 0
M  V30 2209 O 217.037 1.87948 -7.81621 0
M  V30 2210 H 216.769 0.453306 -0.501487 0
M  V30 2211 H 219.323 0.826232 -1.88049 0
M  V30 2212 H 217.553 3.38089 -1.87703 0
M  V30 2213 H 219.242 3.34816 -2.29462 0
M  V30 2214 H 220.008 2.03495 -4.40244 0
M  V30 2215 H 215.887 2.92724 -3.56137 0
M  V30 2216 H 219.431 1.66484 -6.77443 0
M  V30 2217 H 215.328 2.56105 -5.9252 0
M  V30 2218 H 216.096 2.02483 -7.93059 0
M  V30 2219 N 218.759 1.29093 0.90403 0
M  V30 2220 C 220.007 1.16583 1.65085 0
M  V30 2221 C 220.328 -0.283933 1.92922 0
M  V30 2222 O 219.598 -1.19509 1.55224 0
M  V30 2223 H 218.178 0.428467 0.611903 0
M  V30 2224 H 220.84 1.61959 1.08422 0
M  V30 2225 H 219.936 1.71266 2.6091 0
M  V30 2226 N 220.237 -1.11381 1.11499 0
M  V30 2227 C 221.653 -1.35143 0.849031 0
M  V30 2228 C 221.853 -1.94515 -0.525938 0
M  V30 2229 O 220.909 -2.1785 -1.27662 0
M  V30 2230 C 222.222 -2.28249 1.95762 0
M  V30 2231 C 223.77 -2.41812 1.98736 0
M  V30 2232 C 224.245 -3.3824 3.088 0
M  V30 2233 N 225.736 -3.45803 3.08179 0
M  V30 2234 C 226.471 -4.20358 3.89982 0
M  V30 2235 N 225.967 -4.97884 4.8175 0
M  V30 2236 N 227.76 -4.15877 3.78157 0
M  V30 2237 H 219.911 -0.712062 2.00109 0
M  V30 2238 H 222.174 -0.376025 0.870235 0
M  V30 2239 H 221.88 -1.91817 2.94787 0
M  V30 2240 H 221.754 -3.28473 1.85433 0
M  V30 2241 H 224.141 -2.77518 1.00338 0
M  V30 2242 H 224.222 -1.41437 2.13141 0
M  V30 2243 H 223.866 -3.03261 4.07425 0
M  V30 2244 H 223.796 -4.38471 2.91635 0
M  V30 2245 H 226.287 -2.90506 2.41691 0
M  V30 2246 H 226.6 -5.52142 5.40702 0
M  V30 2247 H 224.945 -4.97043 4.85771 0
M  V30 2248 H 228.136 -3.544 3.05808 0
M  V30 2249 H 228.309 -4.73723 4.42143 0
M  V30 2250 N 221.715 -0.905404 -1.28997 0
M  V30 2251 C 222.961 -0.544465 -1.95977 0
M  V30 2252 C 223.316 0.90041 -1.70031 0
M  V30 2253 O 222.609 1.63064 -1.00601 0
M  V30 2254 C 222.803 -0.779906 -3.48787 0
M  V30 2255 C 222.632 -2.24612 -3.89589 0
M  V30 2256 C 221.402 -2.89464 -4.14172 0
M  V30 2257 C 223.6 -3.22182 -4.00878 0
M  V30 2258 N 221.582 -4.26469 -4.41585 0
M  V30 2259 C 222.953 -4.44323 -4.32409 0
M  V30 2260 C 225.008 -3.17694 -3.83373 0
M  V30 2261 C 223.711 -5.62546 -4.48258 0
M  V30 2262 C 225.737 -4.35208 -4.00435 0
M  V30 2263 C 225.099 -5.56121 -4.3233 0
M  V30 2264 H 221.198 -0.248948 -0.741316 0
M  V30 2265 H 223.782 -1.1674 -1.5582 0
M  V30 2266 H 221.953 -0.186308 -3.87953 0
M  V30 2267 H 223.685 -0.383833 -4.02876 0
M  V30 2268 H 220.44 -2.40232 -4.08149 0
M  V30 2269 H 220.864 -4.97283 -4.5939 0
M  V30 2270 H 225.506 -2.25297 -3.57773 0
M  V30 2271 H 223.224 -6.55429 -4.72692 0
M  V30 2272 H 226.81 -4.33228 -3.88336 0
M  V30 2273 H 225.69 -6.45537 -4.45255 0
M  V30 2274 N 223.193 1.4272 -0.668489 0
M  V30 2275 C 224.123 2.335 -0.000100175 0
M  V30 2276 C 225.104 1.50328 0.795964 0
M  V30 2277 O 226.289 1.78949 0.754385 0
M  V30 2278 C 223.419 3.33874 0.956302 0
M  V30 2279 C 222.373 4.27152 0.269278 0
M  V30 2280 C 221.699 5.17684 1.33818 0
M  V30 2281 C 222.999 5.15373 -0.847805 0
M  V30 2282 H 224.693 2.89639 -0.758244 0
M  V30 2283 H 222.239 1.39269 -0.366079 0
M  V30 2284 H 224.192 3.9629 1.43292 0
M  V30 2285 H 222.916 2.76025 1.74579 0
M  V30 2286 H 221.575 3.66123 -0.187042 0
M  V30 2287 H 221.223 4.56165 2.1195 0
M  V30 2288 H 220.923 5.80918 0.883659 0
M  V30 2289 H 222.447 5.82974 1.81586 0
M  V30 2290 H 223.861 5.7151 -0.452681 0
M  V30 2291 H 222.258 5.87407 -1.22773 0
M  V30 2292 H 223.328 4.5415 -1.69929 0
M  V30 2293 N 224.671 0.411399 1.52136 0
M  V30 2294 C 225.917 -0.163888 2.02137 0
M  V30 2295 C 226.25 -1.44597 1.29636 0
M  V30 2296 O 225.525 -1.90272 0.403353 0
M  V30 2297 C 225.808 -0.40927 3.57767 0
M  V30 2298 C 225.661 0.889643 4.40914 0
M  V30 2299 C 226.98 -1.19042 4.23694 0
M  V30 2300 H 224.099 -0.0580896 0.734707 0
M  V30 2301 H 226.741 0.54531 1.82007 0
M  V30 2302 H 224.891 -1.0134 3.7505 0
M  V30 2303 H 226.563 1.52575 4.35337 0
M  V30 2304 H 224.806 1.50011 4.07037 0
M  V30 2305 H 225.477 0.672314 5.4789 0
M  V30 2306 H 227.953 -0.678942 4.10524 0
M  V30 2307 H 226.829 -1.33086 5.32522 0
M  V30 2308 H 227.09 -2.21166 3.82803 0
M  V30 2309 N 226.149 -1.5696 0.141893 0
M  V30 2310 C 227.395 -1.9625 -0.511248 0
M  V30 2311 C 227.728 -1.02654 -1.64851 0
M  V30 2312 O 227.003 -0.0679676 -1.94381 0
M  V30 2313 C 227.286 -3.45285 -1.02227 0
M  V30 2314 C 227.139 -4.49658 0.113138 0
M  V30 2315 C 228.458 -3.96698 -1.90574 0
M  V30 2316 H 225.577 -0.713567 -0.184367 0
M  V30 2317 H 228.219 -1.88698 0.222087 0
M  V30 2318 H 226.369 -3.51852 -1.64719 0
M  V30 2319 H 228.041 -4.55174 0.749302 0
M  V30 2320 H 226.284 -4.26857 0.773026 0
M  V30 2321 H 226.955 -5.51258 -0.286053 0
M  V30 2322 H 229.431 -3.92578 -1.37918 0
M  V30 2323 H 228.307 -5.01453 -2.2324 0
M  V30 2324 H 228.568 -3.3875 -2.84079 0
M  V30 2325 N 227.627 0.131896 -1.57047 0
M  V30 2326 C 228.873 0.843179 -1.84441 0
M  V30 2327 C 229.206 1.80129 -0.725749 0
M  V30 2328 O 228.481 1.92624 0.269469 0
M  V30 2329 C 228.764 1.60442 -3.22382 0
M  V30 2330 C 228.617 0.666782 -4.4483 0
M  V30 2331 C 229.936 2.56354 -3.5773 0
M  V30 2332 H 227.055 0.305081 -0.670891 0
M  V30 2333 H 229.697 0.107839 -1.89694 0
M  V30 2334 H 227.847 2.23128 -3.18035 0
M  V30 2335 H 229.519 0.0497646 -4.61273 0
M  V30 2336 H 227.762 -0.022609 -4.33794 0
M  V30 2337 H 228.433 1.23579 -5.37989 0
M  V30 2338 H 230.909 2.0378 -3.62785 0
M  V30 2339 H 229.785 3.06657 -4.5525 0
M  V30 2340 H 230.046 3.38419 -2.84473 0
M  V30 2341 N 229.106 1.52395 0.401703 0
M  V30 2342 C 230.334 1.70676 1.16949 0
M  V30 2343 C 230.749 0.419503 1.8408 0
M  V30 2344 O 230.106 -0.605061 1.72178 0
M  V30 2345 C 230.157 2.84753 2.22706 0
M  V30 2346 O 229.878 4.08495 1.58314 0
M  V30 2347 C 231.379 3.14608 3.12309 0
M  V30 2348 H 228.599 0.571787 0.351142 0
M  V30 2349 H 231.143 1.98987 0.471652 0
M  V30 2350 H 229.298 2.58941 2.88147 0
M  V30 2351 H 229.712 4.72117 2.28485 0
M  V30 2352 H 231.186 3.97923 3.82572 0
M  V30 2353 H 231.663 2.28464 3.75101 0
M  V30 2354 H 232.269 3.42212 2.52529 0
M  V30 2355 N 230.584 -0.659388 1.43143 0
M  V30 2356 C 231.832 -1.41654 1.44147 0
M  V30 2357 C 232.153 -1.94893 0.0645739 0
M  V30 2358 O 231.423 -1.74044 -0.899198 0
M  V30 2359 H 230.003 -0.525708 0.530697 0
M  V30 2360 H 232.665 -0.778097 1.78694 0
M  V30 2361 H 231.761 -2.26195 2.1504 0
M  V30 2362 N 232.062 -1.29571 -0.897171 0
M  V30 2363 C 233.308 -1.18873 -1.65048 0
M  V30 2364 C 233.663 0.256707 -1.9068 0
M  V30 2365 O 232.956 1.18202 -1.50794 0
M  V30 2366 C 233.15 -1.9382 -3.00281 0
M  V30 2367 C 232.979 -3.45503 -2.8785 0
M  V30 2368 C 231.749 -4.14856 -2.88483 0
M  V30 2369 C 233.947 -4.40956 -2.64693 0
M  V30 2370 N 231.929 -5.52886 -2.66815 0
M  V30 2371 C 233.3 -5.66464 -2.5203 0
M  V30 2372 C 235.355 -4.3069 -2.49821 0
M  V30 2373 C 234.058 -6.82871 -2.26008 0
M  V30 2374 C 236.084 -5.46852 -2.25182 0
M  V30 2375 C 235.446 -6.71333 -2.13286 0
M  V30 2376 H 231.545 -0.489998 -0.609447 0
M  V30 2377 H 234.129 -1.63431 -1.05822 0
M  V30 2378 H 232.3 -1.51671 -3.57562 0
M  V30 2379 H 234.032 -1.75366 -3.64731 0
M  V30 2380 H 230.787 -3.66579 -2.99861 0
M  V30 2381 H 231.211 -6.25487 -2.59027 0
M  V30 2382 H 235.853 -3.35141 -2.5776 0
M  V30 2383 H 233.571 -7.78473 -2.16806 0
M  V30 2384 H 237.157 -5.40809 -2.14515 0
M  V30 2385 H 236.037 -7.59701 -1.94485 0
M  V30 2386 N 233.54 1.10788 -1.12088 0
M  V30 2387 C 234.768 1.86461 -0.896651 0
M  V30 2388 C 235.183 1.80492 0.553912 0
M  V30 2389 O 234.54 1.19102 1.38278 0
M  V30 2390 C 234.591 3.35006 -1.35843 0
M  V30 2391 O 234.312 3.40866 -2.75213 0
M  V30 2392 C 235.813 4.27565 -1.1706 0
M  V30 2393 H 233.033 0.589425 -0.320654 0
M  V30 2394 H 235.577 1.40076 -1.48993 0
M  V30 2395 H 233.732 3.7887 -0.808458 0
M  V30 2396 H 234.146 4.33411 -2.9539 0
M  V30 2397 H 235.62 5.30007 -1.54263 0
M  V30 2398 H 236.097 4.3906 -0.110814 0
M  V30 2399 H 236.703 3.89501 -1.70789 0
M  V30 2400 N 235.018 0.912232 1.28515 0
M  V30 2401 C 235.948 0.416403 2.29757 0
M  V30 2402 C 236.929 -0.515194 1.6211 0
M  V30 2403 O 238.114 -0.423253 1.89532 0
M  V30 2404 C 235.244 -0.34572 3.45575 0
M  V30 2405 C 234.198 0.496599 4.25109 0
M  V30 2406 C 233.524 -0.393771 5.33248 0
M  V30 2407 C 234.824 1.75307 4.92001 0
M  V30 2408 H 236.518 1.26249 2.7148 0
M  V30 2409 H 234.064 0.608515 1.30511 0
M  V30 2410 H 236.017 -0.703422 4.15488 0
M  V30 2411 H 234.741 -1.2257 3.02728 0
M  V30 2412 H 233.4 0.8368 3.56922 0
M  V30 2413 H 233.048 -1.27225 4.86644 0
M  V30 2414 H 232.748 0.166209 5.87365 0
M  V30 2415 H 234.272 -0.747389 6.06009 0
M  V30 2416 H 235.686 1.46437 5.54283 0
M  V30 2417 H 234.083 2.25534 5.56106 0
M  V30 2418 H 235.153 2.48176 4.16577 0
M  V30 2419 N 236.496 -1.42363 0.676048 0
M  V30 2420 C 237.743 -2.01522 0.19883 0
M  V30 2421 C 238.071 -1.53456 -1.19505 0
M  V30 2422 O 237.326 -0.727967 -1.81657 0
M  V30 2423 C 237.625 -3.56929 0.183431 0
M  V30 2424 C 237.291 -4.24431 1.52215 0
M  V30 2425 C 235.953 -4.42585 1.8887 0
M  V30 2426 C 238.305 -4.62459 2.40377 0
M  V30 2427 C 235.633 -4.96039 3.13309 0
M  V30 2428 C 237.985 -5.17294 3.64129 0
M  V30 2429 C 236.649 -5.33661 4.00951 0
M  V30 2430 H 235.919 -0.737419 0.0727571 0
M  V30 2431 H 238.566 -1.70531 0.871281 0
M  V30 2432 H 236.871 -3.87594 -0.572532 0
M  V30 2433 H 238.568 -4.00486 -0.203035 0
M  V30 2434 H 235.158 -4.10661 1.22701 0
M  V30 2435 H 239.342 -4.48105 2.13343 0
M  V30 2436 H 234.598 -5.06896 3.41857 0
M  V30 2437 H 238.772 -5.45704 4.32644 0
M  V30 2438 H 236.399 -5.74845 4.9745 0
M  V30 2439 N 237.974 -0.419461 -1.51915 0
M  V30 2440 C 239.22 0.153166 -2.02221 0
M  V30 2441 C 239.553 1.43907 -1.30401 0
M  V30 2442 O 238.828 1.90055 -0.413438 0
M  V30 2443 C 239.111 0.390291 -3.57979 0
M  V30 2444 C 238.964 -0.913014 -4.40436 0
M  V30 2445 C 240.283 1.16794 -4.2432 0
M  V30 2446 H 237.402 0.0541924 -0.735005 0
M  V30 2447 H 240.044 -0.554955 -1.81715 0
M  V30 2448 H 238.194 0.993491 -3.75582 0
M  V30 2449 H 239.866 -1.54882 -4.34522 0
M  V30 2450 H 238.109 -1.52168 -4.06236 0
M  V30 2451 H 238.78 -0.701361 -5.47526 0
M  V30 2452 H 241.256 0.657161 -4.10878 0
M  V30 2453 H 240.132 1.3026 -5.3322 0
M  V30 2454 H 240.393 2.19132 -3.83971 0
M  V30 2455 N 239.452 1.56882 -0.150215 0
M  V30 2456 C 240.7 1.9584 0.499105 0
M  V30 2457 C 241.021 1.03623 1.65188 0
M  V30 2458 O 240.291 0.0984084 1.95653 0
M  V30 2459 H 238.871 0.723119 0.187373 0
M  V30 2460 H 241.533 1.9358 -0.226466 0
M  V30 2461 H 240.629 2.99638 0.873122 0
M  V30 2462 N 240.93 -0.123565 1.57115 0
M  V30 2463 C 242.176 -0.833386 1.84885 0
M  V30 2464 C 242.509 -1.79742 0.735292 0
M  V30 2465 O 241.784 -1.92764 -0.25925 0
M  V30 2466 C 242.067 -1.5873 3.23228 0
M  V30 2467 C 241.92 -0.643183 4.45178 0
M  V30 2468 C 243.239 -2.54453 3.59085 0
M  V30 2469 H 240.358 -0.301518 0.6725 0
M  V30 2470 H 243 -0.097778 1.89748 0
M  V30 2471 H 241.15 -2.21438 3.19214 0
M  V30 2472 H 242.822 -0.0253015 4.61293 0
M  V30 2473 H 241.065 0.0456139 4.33776 0
M  V30 2474 H 241.736 -1.20724 5.38637 0
M  V30 2475 H 244.212 -2.01853 3.63861 0
M  V30 2476 H 243.088 -3.04238 4.5687 0
M  V30 2477 H 243.349 -3.36906 2.86264 0
M  V30 2478 N 242.408 -1.52605 -0.393616 0
M  V30 2479 C 243.638 -1.71046 -1.15874 0
M  V30 2480 C 244.046 -0.426483 -1.84331 0
M  V30 2481 O 243.389 0.608513 -1.73329 0
M  V30 2482 C 243.451 -2.80118 -2.25332 0
M  V30 2483 C 243.115 -4.21381 -1.76881 0
M  V30 2484 C 244.112 -5.04697 -1.24808 0
M  V30 2485 C 241.797 -4.67683 -1.83244 0
M  V30 2486 C 243.791 -6.32393 -0.797387 0
M  V30 2487 C 241.478 -5.95364 -1.37787 0
M  V30 2488 C 242.476 -6.77549 -0.861208 0
M  V30 2489 O 242.164 -8.02837 -0.413252 0
M  V30 2490 H 241.896 -0.576155 -0.353583 0
M  V30 2491 H 244.45 -2.00018 -0.467123 0
M  V30 2492 H 242.68 -2.46557 -2.97904 0
M  V30 2493 H 244.369 -2.87006 -2.87023 0
M  V30 2494 H 245.135 -4.70111 -1.19252 0
M  V30 2495 H 241.014 -4.03805 -2.22401 0
M  V30 2496 H 244.558 -6.9649 -0.393437 0
M  V30 2497 H 240.455 -6.29455 -1.43026 0
M  V30 2498 H 241.223 -8.16749 -0.53515 0
M  V30 2499 N 243.887 0.651787 -1.4349 0
M  V30 2500 C 245.136 1.40754 -1.44469 0
M  V30 2501 C 245.449 1.95463 -0.0731845 0
M  V30 2502 O 246.655 2.71471 0.0395721 0
M  V30 2503 C 245.111 2.54735 -2.5424 0
M  V30 2504 C 244.719 2.06628 -3.97504 0
M  V30 2505 C 246.463 3.32092 -2.64414 0
M  V30 2506 C 244.37 3.17829 -4.98737 0
M  V30 2507 H 243.3 0.528862 -0.53742 0
M  V30 2508 H 245.951 0.703365 -1.69485 0
M  V30 2509 H 244.333 3.2763 -2.22428 0
M  V30 2510 H 245.507 1.40734 -4.38783 0
M  V30 2511 H 243.822 1.42146 -3.91387 0
M  V30 2512 H 246.419 4.14952 -3.37223 0
M  V30 2513 H 246.762 3.80217 -1.69532 0
M  V30 2514 H 247.295 2.66279 -2.95534 0
M  V30 2515 H 244.034 2.74671 -5.95177 0
M  V30 2516 H 243.554 3.82429 -4.62069 0
M  V30 2517 H 245.233 3.82937 -5.21505 0
M  V30 2518 N 245.365 1.30045 0.890287 0
M  V30 2519 C 246.611 1.18737 1.64406 0
M  V30 2520 C 246.944 -0.258525 1.92472 0
M  V30 2521 O 246.219 -1.18562 1.54186 0
M  V30 2522 C 246.502 2.01087 2.98724 0
M  V30 2523 C 246.355 3.53867 2.77665 0
M  V30 2524 C 247.674 1.84457 3.9958 0
M  V30 2525 H 244.793 0.432698 0.596608 0
M  V30 2526 H 247.435 1.5962 1.0306 0
M  V30 2527 H 245.585 1.66349 3.51084 0
M  V30 2528 H 247.257 3.98637 2.32133 0
M  V30 2529 H 245.5 3.78318 2.12269 0
M  V30 2530 H 246.171 4.06772 3.7315 0
M  V30 2531 H 248.647 2.14817 3.56361 0
M  V30 2532 H 247.523 2.44411 4.91482 0
M  V30 2533 H 247.784 0.802276 4.3476 0
M  V30 2534 N 246.843 -1.10192 1.12674 0
M  V30 2535 C 248.092 -1.81573 0.8783 0
M  V30 2536 C 248.405 -1.86249 -0.597557 0
M  V30 2537 O 249.611 -2.5386 -0.962681 0
M  V30 2538 C 248.067 -3.26149 1.52167 0
M  V30 2539 C 247.675 -3.29763 3.03249 0
M  V30 2540 C 249.419 -4.0234 1.3536 0
M  V30 2541 C 247.326 -4.68815 3.60508 0
M  V30 2542 H 246.256 -0.680394 0.324931 0
M  V30 2543 H 248.907 -1.23902 1.35353 0
M  V30 2544 H 247.289 -3.83832 0.974104 0
M  V30 2545 H 248.463 -2.8189 3.6452 0
M  V30 2546 H 246.778 -2.67059 3.19481 0
M  V30 2547 H 249.375 -5.05058 1.75559 0
M  V30 2548 H 249.718 -4.15235 0.297554 0
M  V30 2549 H 250.251 -3.51079 1.87052 0
M  V30 2550 H 246.99 -4.61121 4.65884 0
M  V30 2551 H 246.51 -5.17045 3.04014 0
M  V30 2552 H 248.189 -5.37785 3.59717 0
M  V30 2553 N 248.321 -0.919034 -1.28029 0
M  V30 2554 C 249.231 -0.416756 -2.30869 0
M  V30 2555 C 250.247 0.498235 -1.66714 0
M  V30 2556 O 251.423 0.383144 -1.97722 0
M  V30 2557 C 248.488 0.330274 -3.45123 0
M  V30 2558 C 247.549 -0.618578 -4.2482 0
M  V30 2559 C 246.782 0.0928959 -5.33619 0
M  V30 2560 O 247.005 1.31375 -5.55065 0
M  V30 2561 O 245.939 -0.574499 -5.99152 0
M  V30 2562 H 249.765 -1.27043 -2.75851 0
M  V30 2563 H 247.35 -0.684052 -1.3282 0
M  V30 2564 H 249.232 0.751972 -4.14636 0
M  V30 2565 H 247.907 1.1597 -3.02213 0
M  V30 2566 H 246.814 -1.08978 -3.57875 0
M  V30 2567 H 248.147 -1.41497 -4.71423 0
M  V30 2568 N 249.799 1.42003 -0.683588 0
M  V30 2569 C 251.048 2.00638 -0.206681 0
M  V30 2570 C 251.361 1.5472 1.19671 0
M  V30 2571 O 252.567 2.05833 1.77045 0
M  V30 2572 C 251.023 3.58487 -0.318632 0
M  V30 2573 C 250.631 4.1339 -1.72663 0
M  V30 2574 C 252.375 4.24384 0.0991141 0
M  V30 2575 C 250.282 5.63633 -1.79087 0
M  V30 2576 H 249.212 0.750408 -0.0735107 0
M  V30 2577 H 251.863 1.62624 -0.850048 0
M  V30 2578 H 250.245 3.94047 0.392781 0
M  V30 2579 H 251.419 3.89273 -2.46583 0
M  V30 2580 H 249.734 3.59976 -2.09299 0
M  V30 2581 H 252.331 5.34652 0.0713833 0
M  V30 2582 H 252.674 4.00505 1.13586 0
M  V30 2583 H 253.207 3.93816 -0.561599 0
M  V30 2584 H 249.946 5.92323 -2.80774 0
M  V30 2585 H 249.466 5.89714 -1.09535 0
M  V30 2586 H 251.145 6.28201 -1.5483 0
M  V30 2587 N 251.277 0.427512 1.51691 0
M  V30 2588 C 252.24 -0.377132 2.26076 0
M  V30 2589 C 253.24 -0.958089 1.29141 0
M  V30 2590 O 254.43 -0.83408 1.52934 0
M  V30 2591 C 251.562 -1.53262 3.04506 0
M  V30 2592 H 252.755 0.27464 2.9864 0
M  V30 2593 H 250.308 0.180445 1.55255 0
M  V30 2594 H 251.043 -2.22072 2.36335 0
M  V30 2595 H 250.828 -1.12232 3.75694 0
M  V30 2596 H 252.318 -2.10135 3.60878 0
M  V30 2597 N 252.755 -1.56801 0.158532 0
M  V30 2598 C 254.171 -1.5837 -0.197774 0
M  V30 2599 C 254.371 -1.17334 -1.63814 0
M  V30 2600 O 253.427 -0.878988 -2.36707 0
M  V30 2601 C 254.74 -3.00615 0.0714459 0
M  V30 2602 C 256.288 -3.12999 0.00864533 0
M  V30 2603 C 256.763 -4.57313 0.250685 0
M  V30 2604 N 258.254 -4.62777 0.198014 0
M  V30 2605 C 258.989 -5.72271 0.359642 0
M  V30 2606 N 258.485 -6.90371 0.579625 0
M  V30 2607 N 260.278 -5.61318 0.296438 0
M  V30 2608 H 252.429 -1.81765 1.09887 0
M  V30 2609 H 254.692 -0.841849 0.435884 0
M  V30 2610 H 254.398 -3.35068 1.06874 0
M  V30 2611 H 254.272 -3.71683 -0.642757 0
M  V30 2612 H 256.659 -2.7838 -0.979217 0
M  V30 2613 H 256.74 -2.44393 0.755359 0
M  V30 2614 H 256.384 -4.92639 1.2357 0
M  V30 2615 H 256.314 -5.24061 -0.516489 0
M  V30 2616 H 258.805 -3.77885 0.0331115 0
M  V30 2617 H 259.118 -7.69689 0.69275 0
M  V30 2618 H 257.463 -6.92264 0.616087 0
M  V30 2619 H 260.654 -4.67932 0.125258 0
M  V30 2620 H 260.827 -6.46599 0.425831 0
M  V30 2621 N 254.233 0.115231 -1.57178 0
M  V30 2622 C 255.481 0.820727 -1.84685 0
M  V30 2623 C 255.802 1.80237 -0.744279 0
M  V30 2624 O 255.072 1.94529 0.231375 0
M  V30 2625 H 253.652 0.306084 -0.681411 0
M  V30 2626 H 256.314 0.101656 -1.94635 0
M  V30 2627 H 255.41 1.36366 -2.80733 0
M  V30 2628 N 255.711 1.52812 0.385517 0
M  V30 2629 C 256.659 1.78482 1.49155 0
M  V30 2630 C 257.653 0.652914 1.56312 0
M  V30 2631 O 258.859 0.835464 1.59436 0
M  V30 2632 H 255.234 0.5648 0.496493 0
M  V30 2633 H 257.205 2.71095 1.24699 0
M  V30 2634 C 255.954 1.97378 2.86247 0
M  V30 2635 H 255.277 2.83907 2.81491 0
M  V30 2636 H 256.717 2.19327 3.62866 0
M  V30 2637 C 255.176 0.74728 3.28508 0
M  V30 2638 O 255.706 -0.0736232 4.01633 0
M  V30 2639 N 253.912 0.576396 2.84826 0
M  V30 2640 H 253.459 1.24555 2.25486 0
M  V30 2641 H 253.417 -0.24288 3.1346 0
M  V30 2642 O 257.228 -0.531464 1.52505 0
M  V30 2643 H 257.919 -1.18658 1.53101 0
M  V30 END ATOM
M  V30 BEGIN BOND
M  V30 END BOND
M  V30 END CTAB
M  END
$$$$
