drugbank_target|P03901 NADH-ubiquinone oxidoreductase chain 4L (DB00157)
 OpenBabel12092119283D

  0  0  0     0  0            999 V3000
M  V30 BEGIN CTAB
M  V30 COUNTS 1538 1549 0 0 0
M  V30 BEGIN ATOM
M  V30 1 H -0.908 1.98254 -0.117106 0
M  V30 2 N 0 1.576 0 0
M  V30 3 C 0.933 2.03868 1.02534 0
M  V30 4 C 1.911 0.928543 1.3348 0
M  V30 5 O 3.095 1.19667 1.45644 0
M  V30 6 C 0.222 2.43627 2.35294 0
M  V30 7 C -0.732 3.65373 2.2001 0
M  V30 8 S 0.101 5.13292 1.52614 0
M  V30 9 C 1.257 5.56322 2.86805 0
M  V30 10 H 1.49 2.90518 0.631377 0
M  V30 11 H -0.977 1.52953 0.210867 0
M  V30 12 H 0.981 2.67203 3.11629 0
M  V30 13 H -0.358 1.57376 2.7183 0
M  V30 14 H -1.165 3.90944 3.18086 0
M  V30 15 H -1.563 3.418 1.51819 0
M  V30 16 H 0.729 5.58782 3.83104 0
M  V30 17 H 1.672 6.56266 2.65933 0
M  V30 18 H 2.08 4.83886 2.90714 0
M  V30 19 N 1.4781 -0.272755 1.55222 0
M  V30 20 C 2.8891 -0.84378 1.66545 0
M  V30 21 C 3.2401 -1.87035 0.592641 0
M  V30 22 O 2.3651 -2.14761 -0.265818 0
M  V30 23 C 2.9601 -1.53723 3.01918 0
M  V30 24 C 1.5191 -2.05628 3.15268 0
M  V30 25 C 0.6661 -0.898424 2.62343 0
M  V30 26 H 3.6171 -0.0490998 1.58624 0
M  V30 27 H 3.6381 -2.40421 2.94921 0
M  V30 28 H 3.1501 -0.78983 3.79978 0
M  V30 29 H 1.2511 -2.83329 2.41983 0
M  V30 30 H 1.3641 -2.27142 4.21833 0
M  V30 31 H -0.2719 -1.29186 2.19506 0
M  V30 32 H 0.5111 -0.164528 3.42906 0
M  V30 33 N 2.9562 -1.48159 -0.537278 0
M  V30 34 C 3.8862 -1.65029 -1.6519 0
M  V30 35 C 4.8672 -0.499281 -1.62607 0
M  V30 36 O 6.0522 -0.730972 -1.79918 0
M  V30 37 C 3.1822 -1.68303 -3.03795 0
M  V30 38 C 2.1362 -2.8283 -3.21234 0
M  V30 39 C 1.4622 -2.71189 -4.60826 0
M  V30 40 C 2.7622 -4.24211 -3.04701 0
M  V30 41 H 4.4562 -2.58341 -1.51328 0
M  V30 42 H 2.0022 -1.24325 -0.726585 0
M  V30 43 H 3.9552 -1.78693 -3.81637 0
M  V30 44 H 2.6792 -0.715635 -3.18663 0
M  V30 45 H 1.3382 -2.71983 -2.45807 0
M  V30 46 H 0.9862 -1.72435 -4.7252 0
M  V30 47 H 0.6862 -3.48035 -4.7344 0
M  V30 48 H 2.2102 -2.83537 -5.40777 0
M  V30 49 H 3.6242 -4.3593 -3.72341 0
M  V30 50 H 2.0212 -5.01998 -3.28813 0
M  V30 51 H 3.0912 -4.41184 -2.01209 0
M  V30 52 N 4.4343 0.785586 -1.36625 0
M  V30 53 C 5.6833 1.53883 -1.30396 0
M  V30 54 C 5.9963 1.95271 0.113452 0
M  V30 55 O 7.2023 2.69858 0.298142 0
M  V30 56 C 5.6583 2.77808 -2.28802 0
M  V30 57 C 5.2663 2.43574 -3.75999 0
M  V30 58 C 7.0103 3.55783 -2.31558 0
M  V30 59 C 4.9173 3.63919 -4.66173 0
M  V30 60 H 3.8473 0.577678 -0.484566 0
M  V30 61 H 6.4983 0.861705 -1.62009 0
M  V30 62 H 4.8803 3.47339 -1.90188 0
M  V30 63 H 6.0543 1.81916 -4.23371 0
M  V30 64 H 4.3693 1.78803 -3.76056 0
M  V30 65 H 6.9663 4.45205 -2.96137 0
M  V30 66 H 7.3093 3.94644 -1.3252 0
M  V30 67 H 7.8423 2.93235 -2.68809 0
M  V30 68 H 4.5813 3.3015 -5.66287 0
M  V30 69 H 4.1013 4.2473 -4.23515 0
M  V30 70 H 5.7803 4.30901 -4.82632 0
M  V30 71 N 5.9124 1.20967 1.01018 0
M  V30 72 C 7.1424 1.04803 1.78044 0
M  V30 73 C 7.5504 -0.405462 1.84804 0
M  V30 74 O 6.8934 -1.2932 1.30468 0
M  V30 75 C 6.9554 1.56377 3.23707 0
M  V30 76 C 6.6194 3.04767 3.40538 0
M  V30 77 C 7.6164 4.02366 3.29239 0
M  V30 78 C 5.3014 3.43862 3.66147 0
M  V30 79 C 7.2954 5.37049 3.43304 0
M  V30 80 C 4.9824 4.78699 3.79855 0
M  V30 81 C 5.9804 5.75101 3.68439 0
M  V30 82 O 5.6684 7.07493 3.81719 0
M  V30 83 H 5.4004 0.368778 0.56655 0
M  V30 84 H 7.9544 1.60642 1.27997 0
M  V30 85 H 6.1844 0.949297 3.74867 0
M  V30 86 H 7.8734 1.36136 3.8239 0
M  V30 87 H 8.6394 3.73506 3.09384 0
M  V30 88 H 4.5184 2.69364 3.74118 0
M  V30 89 H 8.0624 6.12277 3.34309 0
M  V30 90 H 3.9594 5.07247 3.99213 0
M  V30 91 H 4.7274 7.1483 3.98697 0
M  V30 92 N 7.3905 -1.2043 1.01659 0
M  V30 93 C 8.3235 -2.21924 0.531521 0
M  V30 94 C 9.3015 -1.57054 -0.421032 0
M  V30 95 O 10.4855 -1.85389 -0.341035 0
M  V30 96 C 7.6125 -3.37942 -0.226496 0
M  V30 97 C 6.6585 -4.21115 0.67561 0
M  V30 98 S 7.4915 -4.90674 2.14475 0
M  V30 99 C 8.6475 -6.10113 1.3969 0
M  V30 100 H 8.8805 -2.62725 1.3915 0
M  V30 101 H 6.4135 -1.30481 0.825479 0
M  V30 102 H 8.3715 -4.05196 -0.657738 0
M  V30 103 H 7.0325 -2.956 -1.06205 0
M  V30 104 H 6.2255 -5.03918 0.091108 0
M  V30 105 H 5.8275 -3.59115 1.04463 0
M  V30 106 H 8.1195 -6.7411 0.676897 0
M  V30 107 H 9.0625 -6.73022 2.20107 0
M  V30 108 H 9.4705 -5.57283 0.899786 0
M  V30 109 N 8.8686 -0.792821 -1.36206 0
M  V30 110 C 9.8166 -0.181555 -2.3189 0
M  V30 111 C 10.8106 0.661025 -1.55971 0
M  V30 112 O 12.0166 0.555728 -1.71206 0
M  V30 113 H 8.3916 -0.0399382 -0.750939 0
M  V30 114 H 10.3626 -1.00394 -2.81005 0
M  V30 115 C 9.1116 0.666444 -3.41253 0
M  V30 116 H 8.4346 0.0274489 -3.99791 0
M  V30 117 H 9.8746 1.06076 -4.10517 0
M  V30 118 C 8.3336 1.82614 -2.83114 0
M  V30 119 O 8.8636 2.9229 -2.75553 0
M  V30 120 N 7.0696 1.63333 -2.40356 0
M  V30 121 H 6.6166 0.741217 -2.46706 0
M  V30 122 H 6.5746 2.41087 -2.01803 0
M  V30 123 N 10.3467 1.47872 -0.545128 0
M  V30 124 C 11.5957 2.01695 -0.0145033 0
M  V30 125 C 11.9087 1.42609 1.33873 0
M  V30 126 O 13.1147 1.88021 1.95858 0
M  V30 127 C 11.5707 3.59892 0.0245068 0
M  V30 128 C 11.1787 4.27966 -1.32475 0
M  V30 129 C 12.9227 4.21507 0.50316 0
M  V30 130 C 10.8297 5.78136 -1.2455 0
M  V30 131 H 9.7597 0.753998 -0.00165172 0
M  V30 132 H 12.4107 1.69985 -0.691175 0
M  V30 133 H 10.7927 3.88509 0.766575 0
M  V30 134 H 11.9667 4.11003 -2.08357 0
M  V30 135 H 10.2817 3.78286 -1.74036 0
M  V30 136 H 12.8787 5.31538 0.580656 0
M  V30 137 H 13.2217 3.87855 1.51243 0
M  V30 138 H 13.7547 3.97376 -0.183681 0
M  V30 139 H 10.4937 6.16388 -2.23039 0
M  V30 140 H 10.0137 5.97469 -0.528282 0
M  V30 141 H 11.6927 6.40099 -0.942488 0
M  V30 142 N 11.8248 0.280983 1.55075 0
M  V30 143 C 12.7578 -0.645439 2.18882 0
M  V30 144 C 13.7358 -1.14786 1.15165 0
M  V30 145 O 14.9198 -1.21975 1.43716 0
M  V30 146 C 12.0468 -1.88088 2.81674 0
M  V30 147 C 11.0928 -1.51343 3.98745 0
M  V30 148 S 11.9258 -0.586548 5.32278 0
M  V30 149 C 13.0818 -1.83024 5.98543 0
M  V30 150 H 13.3148 -0.1033 2.9712 0
M  V30 151 H 10.8478 0.0652099 1.54262 0
M  V30 152 H 12.8058 -2.58997 3.18482 0
M  V30 153 H 11.4668 -2.39417 2.03318 0
M  V30 154 H 10.6598 -2.43289 4.41392 0
M  V30 155 H 10.2618 -0.884477 3.63391 0
M  V30 156 H 12.5538 -2.77342 6.18133 0
M  V30 157 H 13.4968 -1.44668 6.93164 0
M  V30 158 H 13.9048 -1.99785 5.27964 0
M  V30 159 N 13.3029 -1.57598 0.00835791 0
M  V30 160 C 14.2329 -2.1198 -0.979113 0
M  V30 161 C 15.2139 -1.03091 -1.35301 0
M  V30 162 O 16.3989 -1.30818 -1.43528 0
M  V30 163 C 13.5289 -2.62995 -2.26828 0
M  V30 164 C 12.4829 -3.76485 -2.03576 0
M  V30 165 C 11.8089 -4.13846 -3.38579 0
M  V30 166 C 13.1089 -5.0342 -1.39161 0
M  V30 167 H 14.8029 -2.94738 -0.526281 0
M  V30 168 H 12.3489 -1.41783 -0.251704 0
M  V30 169 H 14.3019 -2.99669 -2.96271 0
M  V30 170 H 13.0259 -1.7737 -2.7424 0
M  V30 171 H 11.6849 -3.40217 -1.36557 0
M  V30 172 H 11.3329 -3.25232 -3.83709 0
M  V30 173 H 11.0329 -4.90312 -3.23834 0
M  V30 174 H 12.5569 -4.53086 -4.09323 0
M  V30 175 H 13.9709 -5.37812 -1.98573 0
M  V30 176 H 12.3679 -5.84746 -1.34878 0
M  V30 177 H 13.4379 -4.83548 -0.361868 0
M  V30 178 N 14.781 0.264519 -1.55364 0
M  V30 179 C 15.744 1.31046 -1.88042 0
M  V30 180 C 16.744 1.41943 -0.755569 0
M  V30 181 O 17.934 1.40947 -1.02369 0
M  V30 182 C 15.066 2.69067 -2.09323 0
M  V30 183 H 16.259 1.03297 -2.81549 0
M  V30 184 H 13.812 0.502989 -1.47986 0
M  V30 185 H 14.547 3.01982 -1.18226 0
M  V30 186 H 14.332 2.62542 -2.91229 0
M  V30 187 H 15.822 3.44623 -2.35848 0
M  V30 188 N 16.2591 1.48442 0.529413 0
M  V30 189 C 17.5061 1.56488 1.28521 0
M  V30 190 C 17.8341 0.239042 1.93025 0
M  V30 191 O 17.0891 -0.770713 1.79885 0
M  V30 192 C 17.3881 2.6523 2.39558 0
M  V30 193 C 17.0541 4.07648 1.92702 0
M  V30 194 C 15.7161 4.46411 1.79641 0
M  V30 195 C 18.0681 4.96896 1.573 0
M  V30 196 C 15.3961 5.72226 1.29514 0
M  V30 197 C 17.7481 6.23202 1.08636 0
M  V30 198 C 16.4121 6.60821 0.941919 0
M  V30 199 H 15.6821 0.572631 0.470292 0
M  V30 200 H 18.3291 1.82161 0.59072 0
M  V30 201 H 16.6341 2.33419 3.14679 0
M  V30 202 H 18.3311 2.68671 2.97686 0
M  V30 203 H 14.9211 3.77036 2.03819 0
M  V30 204 H 19.1051 4.67626 1.66251 0
M  V30 205 H 14.3611 6.00097 1.17019 0
M  V30 206 H 18.5351 6.91753 0.803136 0
M  V30 207 H 16.1621 7.58198 0.5513 0
M  V30 208 N 17.7372 -0.778329 1.37039 0
M  V30 209 C 18.9652 -1.56734 1.35063 0
M  V30 210 C 19.3802 -1.88686 -0.0655597 0
M  V30 211 O 18.7372 -1.5096 -1.02554 0
M  V30 212 C 18.7882 -2.88163 2.18276 0
M  V30 213 O 18.5092 -2.57583 3.54376 0
M  V30 214 C 20.0102 -3.82422 2.24206 0
M  V30 215 H 17.2302 -0.485778 0.462883 0
M  V30 216 H 19.7742 -0.965185 1.8029 0
M  V30 217 H 17.9292 -3.44818 1.76576 0
M  V30 218 H 18.3432 -3.41699 3.97922 0
M  V30 219 H 19.8172 -4.71667 2.86765 0
M  V30 220 H 20.2942 -4.21078 1.24861 0
M  V30 221 H 20.9002 -3.31697 2.6619 0
M  V30 222 N 19.2153 -1.21501 -1.00376 0
M  V30 223 C 20.4643 -1.02718 -1.73586 0
M  V30 224 C 20.7773 0.439589 -1.90596 0
M  V30 225 O 21.9833 0.746848 -2.61026 0
M  V30 226 C 20.4393 -1.78929 -3.1227 0
M  V30 227 C 20.0473 -3.29783 -3.03228 0
M  V30 228 C 21.7913 -1.68557 -3.89601 0
M  V30 229 C 19.6983 -3.98479 -4.36999 0
M  V30 230 H 18.6283 -0.380733 -0.650814 0
M  V30 231 H 21.2793 -1.45248 -1.1214 0
M  V30 232 H 19.6613 -1.29192 -3.74333 0
M  V30 233 H 20.8353 -3.86832 -2.50395 0
M  V30 234 H 19.1503 -3.40711 -2.39385 0
M  V30 235 H 21.7473 -2.17211 -4.88593 0
M  V30 236 H 22.0903 -0.644021 -4.11288 0
M  V30 237 H 22.6233 -2.15778 -3.34193 0
M  V30 238 H 19.3623 -5.02841 -4.20513 0
M  V30 239 H 18.8823 -3.46219 -4.89788 0
M  V30 240 H 20.5613 -4.03462 -5.05794 0
M  V30 241 N 20.6934 1.19889 -1.02296 0
M  V30 242 C 21.9184 1.9393 -0.735237 0
M  V30 243 C 22.3434 1.74639 0.698782 0
M  V30 244 O 21.7014 1.04481 1.48167 0
M  V30 245 C 21.7494 3.43916 -1.08417 0
M  V30 246 O 20.8534 4.11917 -0.199446 0
M  V30 247 H 20.1944 0.605645 -0.272196 0
M  V30 248 H 22.7244 1.52137 -1.36804 0
M  V30 249 H 22.7344 3.9456 -1.03856 0
M  V30 250 H 21.4094 3.5728 -2.12894 0
M  V30 251 H 19.9864 3.71666 -0.303136 0
M  V30 252 N 22.1715 0.800033 1.35784 0
M  V30 253 C 23.1015 0.220184 2.3246 0
M  V30 254 C 24.0825 -0.65073 1.57161 0
M  V30 255 O 25.2675 -0.582359 1.85263 0
M  V30 256 C 22.3975 -0.637353 3.41402 0
M  V30 257 C 21.3515 0.134531 4.27789 0
M  V30 258 C 20.6775 -0.844285 5.27992 0
M  V30 259 C 21.9775 1.32979 5.05088 0
M  V30 260 H 23.6715 1.02787 2.81203 0
M  V30 261 H 21.2175 0.495717 1.35199 0
M  V30 262 H 23.1705 -1.05302 4.08031 0
M  V30 263 H 21.8945 -1.47785 2.91251 0
M  V30 264 H 20.5535 0.531296 3.6273 0
M  V30 265 H 20.2015 -1.68011 4.74111 0
M  V30 266 H 19.9015 -0.332184 5.8666 0
M  V30 267 H 21.4255 -1.2583 5.97494 0
M  V30 268 H 22.8395 0.98934 5.64699 0
M  V30 269 H 21.2365 1.77593 5.7322 0
M  V30 270 H 22.3065 2.11978 4.36111 0
M  V30 271 N 23.6496 -1.47581 0.552962 0
M  V30 272 C 24.5796 -2.32762 -0.185451 0
M  V30 273 C 25.5606 -1.43527 -0.912905 0
M  V30 274 O 26.7456 -1.72388 -0.894201 0
M  V30 275 C 23.8756 -3.25219 -1.21859 0
M  V30 276 C 22.8296 -4.23661 -0.607864 0
M  V30 277 C 22.1556 -5.05413 -1.74533 0
M  V30 278 C 23.4556 -5.20481 0.435582 0
M  V30 279 H 25.1496 -2.94749 0.525684 0
M  V30 280 H 22.6956 -1.41738 0.254251 0
M  V30 281 H 24.6486 -3.8365 -1.7433 0
M  V30 282 H 23.3726 -2.61279 -1.95961 0
M  V30 283 H 22.0316 -3.66451 -0.104489 0
M  V30 284 H 21.6796 -4.3788 -2.47529 0
M  V30 285 H 21.3796 -5.72059 -1.34249 0
M  V30 286 H 22.9036 -5.66701 -2.27338 0
M  V30 287 H 24.3176 -5.733 -0.00290157 0
M  V30 288 H 22.7146 -5.95305 0.757067 0
M  V30 289 H 23.7846 -4.66217 1.33303 0
M  V30 290 N 25.1277 -0.289203 -1.54924 0
M  V30 291 C 26.3757 0.322879 -1.99504 0
M  V30 292 C 26.6967 1.55313 -1.1791 0
M  V30 293 O 25.9667 1.94001 -0.272097 0
M  V30 294 H 24.5467 0.122291 -0.736922 0
M  V30 295 H 27.2087 -0.397802 -1.90797 0
M  V30 296 H 26.3047 0.603061 -3.06218 0
M  V30 297 N 26.6058 1.57591 -0.0167156 0
M  V30 298 C 27.5388 2.04944 1.00366 0
M  V30 299 C 28.5168 0.942648 1.32487 0
M  V30 300 O 29.7008 1.21205 1.44367 0
M  V30 301 C 26.8278 2.46109 2.32697 0
M  V30 302 C 25.8738 3.67686 2.16123 0
M  V30 303 S 26.7068 5.14882 1.47161 0
M  V30 304 C 27.8628 5.59332 2.80888 0
M  V30 305 H 28.0958 2.91172 0.600528 0
M  V30 306 H 25.6288 1.53168 0.194632 0
M  V30 307 H 27.5868 2.70493 3.08778 0
M  V30 308 H 26.2478 1.6025 2.70146 0
M  V30 309 H 25.4408 3.94296 3.13922 0
M  V30 310 H 25.0428 3.43391 1.48185 0
M  V30 311 H 27.3348 5.62814 3.77156 0
M  V30 312 H 28.2778 6.5905 2.58958 0
M  V30 313 H 28.6858 4.86942 2.85565 0
M  V30 314 N 28.0839 -0.256276 1.55502 0
M  V30 315 C 29.0139 -1.32102 1.92539 0
M  V30 316 C 29.9949 -1.50684 0.789194 0
M  V30 317 O 31.1799 -1.63449 1.04872 0
M  V30 318 C 28.3099 -2.67752 2.21192 0
M  V30 319 C 27.2639 -2.63878 3.36975 0
M  V30 320 C 26.5899 -4.03236 3.51147 0
M  V30 321 C 27.8899 -2.21682 4.72921 0
M  V30 322 H 29.5839 -1.01351 2.81724 0
M  V30 323 H 27.1299 -0.486105 1.35547 0
M  V30 324 H 29.0829 -3.42365 2.45691 0
M  V30 325 H 27.8069 -3.0012 1.28824 0
M  V30 326 H 26.4659 -1.91722 3.12471 0
M  V30 327 H 26.1139 -4.32854 2.56216 0
M  V30 328 H 25.8139 -4.01535 4.29003 0
M  V30 329 H 27.3379 -4.79563 3.77957 0
M  V30 330 H 28.7519 -2.86023 4.96854 0
M  V30 331 H 27.1489 -2.3111 5.53812 0
M  V30 332 H 28.2189 -1.16833 4.70615 0
M  V30 333 N 29.562 -1.4872 -0.521534 0
M  V30 334 C 30.808 -1.574 -1.27879 0
M  V30 335 C 31.141 -0.250817 -1.92573 0
M  V30 336 O 30.416 0.743934 -1.79711 0
M  V30 337 C 30.699 -2.71843 -2.36164 0
M  V30 338 C 30.552 -4.13893 -1.76105 0
M  V30 339 C 31.871 -2.82008 -3.37875 0
M  V30 340 H 28.99 -0.572941 -0.463581 0
M  V30 341 H 31.632 -1.80927 -0.580119 0
M  V30 342 H 29.782 -2.51914 -2.95756 0
M  V30 343 H 31.454 -4.45284 -1.20499 0
M  V30 344 H 29.697 -4.20498 -1.06601 0
M  V30 345 H 30.368 -4.89804 -2.5455 0
M  V30 346 H 32.844 -3.00086 -2.88249 0
M  V30 347 H 31.72 -3.63796 -4.11028 0
M  V30 348 H 31.981 -1.90511 -3.98946 0
M  V30 349 N 31.0401 0.771051 -1.3745 0
M  V30 350 C 32.2701 1.55789 -1.35696 0
M  V30 351 C 32.6781 1.89107 0.0594523 0
M  V30 352 O 32.0211 1.51984 1.03183 0
M  V30 353 C 32.0831 2.89515 -2.13123 0
M  V30 354 C 31.7471 2.78829 -3.62082 0
M  V30 355 C 32.7441 2.49812 -4.5595 0
M  V30 356 C 30.4291 2.9683 -4.05213 0
M  V30 357 C 32.4231 2.38923 -5.90927 0
M  V30 358 C 30.1101 2.85562 -5.40276 0
M  V30 359 C 31.1081 2.56649 -6.32946 0
M  V30 360 O 30.7961 2.45408 -7.65526 0
M  V30 361 H 30.5281 0.489257 -0.466481 0
M  V30 362 H 33.0821 0.963446 -1.81403 0
M  V30 363 H 31.3121 3.51081 -1.62107 0
M  V30 364 H 33.0011 3.50915 -2.03994 0
M  V30 365 H 33.7671 2.3559 -4.23937 0
M  V30 366 H 29.6461 3.18335 -3.33442 0
M  V30 367 H 33.1901 2.16277 -6.63227 0
M  V30 368 H 29.0871 2.99351 -5.71891 0
M  V30 369 H 29.8551 2.60753 -7.75855 0
M  V30 370 N 32.5182 1.22032 0.997298 0
M  V30 371 C 33.9342 0.979326 1.26021 0
M  V30 372 C 34.1342 -0.32972 1.98784 0
M  V30 373 O 33.1902 -1.05345 2.29475 0
M  V30 374 C 34.5032 2.17509 2.07631 0
M  V30 375 C 36.0512 2.21817 2.2083 0
M  V30 376 C 36.5262 3.40933 3.05825 0
M  V30 377 N 38.0172 3.41067 3.13412 0
M  V30 378 C 38.7522 4.29885 3.79455 0
M  V30 379 N 38.2482 5.28914 4.47462 0
M  V30 380 N 40.0412 4.17673 3.76173 0
M  V30 381 H 32.1922 2.06202 0.509352 0
M  V30 382 H 34.4552 0.90334 0.287541 0
M  V30 383 H 34.1612 3.12415 1.61524 0
M  V30 384 H 34.0352 2.17206 3.08385 0
M  V30 385 H 36.4222 1.27462 2.66153 0
M  V30 386 H 36.5032 2.2616 1.1952 0
M  V30 387 H 36.1472 4.35586 2.61203 0
M  V30 388 H 36.0772 3.33829 4.07266 0
M  V30 389 H 38.5682 2.69406 2.65007 0
M  V30 390 H 38.8812 5.92973 4.95583 0
M  V30 391 H 37.2262 5.32831 4.46224 0
M  V30 392 H 40.4172 3.39564 3.22202 0
M  V30 393 H 40.5902 4.87098 4.27363 0
M  V30 394 N 33.9963 -1.19345 1.0293 0
M  V30 395 C 35.2213 -1.93538 0.745511 0
M  V30 396 C 35.6463 -1.75007 -0.689511 0
M  V30 397 O 35.0043 -1.05265 -1.47611 0
M  V30 398 C 35.0523 -3.43336 1.10239 0
M  V30 399 O 34.1563 -4.11806 0.221289 0
M  V30 400 H 33.4973 -0.604193 0.275404 0
M  V30 401 H 36.0273 -1.5141 1.37609 0
M  V30 402 H 36.0373 -3.94004 1.05947 0
M  V30 403 H 34.7123 -3.56146 2.14786 0
M  V30 404 H 33.2893 -3.715 0.322842 0
M  V30 405 N 35.4744 -0.807222 -1.35358 0
M  V30 406 C 36.4244 -0.190706 -2.27201 0
M  V30 407 C 37.4084 0.635838 -1.47804 0
M  V30 408 O 38.6004 0.492991 -1.69996 0
M  V30 409 C 35.7294 0.659337 -3.36909 0
M  V30 410 C 34.8154 -0.176971 -4.23731 0
M  V30 411 N 35.2064 -1.24029 -4.90357 0
M  V30 412 C 33.5044 0.0412953 -4.45981 0
M  V30 413 C 34.2054 -1.75092 -5.54723 0
M  V30 414 N 33.1814 -1.05727 -5.33219 0
M  V30 415 H 36.9834 -1.0043 -2.76208 0
M  V30 416 H 34.4974 -0.648445 -1.48892 0
M  V30 417 H 36.4944 1.11706 -4.01656 0
M  V30 418 H 35.1544 1.47127 -2.89454 0
M  V30 419 H 36.1654 -1.62295 -4.91814 0
M  V30 420 H 32.8424 0.82232 -4.09322 0
M  V30 421 H 34.2324 -2.63963 -6.17878 0
M  V30 422 N 36.9525 1.47285 -0.560781 0
M  V30 423 C 37.8825 2.32857 0.173105 0
M  V30 424 C 38.8635 1.44009 0.905281 0
M  V30 425 O 40.0485 1.7286 0.885046 0
M  V30 426 C 37.1785 3.25861 1.20133 0
M  V30 427 C 36.1325 4.23978 0.585388 0
M  V30 428 C 35.4585 5.06332 1.7185 0
M  V30 429 C 36.7585 5.20242 -0.463178 0
M  V30 430 H 38.4525 2.94466 -0.541307 0
M  V30 431 H 35.9985 1.41601 -0.261764 0
M  V30 432 H 37.9515 3.84569 1.72293 0
M  V30 433 H 36.6755 2.62315 1.94573 0
M  V30 434 H 35.3345 3.66501 0.085054 0
M  V30 435 H 34.9825 4.39186 2.45203 0
M  V30 436 H 34.6825 5.72762 1.31213 0
M  V30 437 H 36.2065 5.67899 2.24329 0
M  V30 438 H 37.6205 5.73293 -0.027502 0
M  V30 439 H 36.0175 5.94896 -0.788627 0
M  V30 440 H 37.0875 4.65504 -1.35773 0
M  V30 441 N 38.4306 0.297415 1.54768 0
M  V30 442 C 39.3636 -0.622188 2.19554 0
M  V30 443 C 40.3416 -1.13558 1.16376 0
M  V30 444 O 41.5256 -1.20444 1.45002 0
M  V30 445 C 38.6526 -1.8509 2.83653 0
M  V30 446 C 37.6986 -1.47106 4.00328 0
M  V30 447 S 38.5316 -0.53006 5.3287 0
M  V30 448 C 39.6876 -1.76665 6.0045 0
M  V30 449 H 39.9206 -0.0717806 2.97213 0
M  V30 450 H 37.4536 0.0815678 1.54184 0
M  V30 451 H 39.4116 -2.55605 3.21211 0
M  V30 452 H 38.0726 -2.37247 2.05846 0
M  V30 453 H 37.2656 -2.38594 4.43947 0
M  V30 454 H 36.8676 -0.845885 3.64309 0
M  V30 455 H 39.1596 -2.7077 6.21039 0
M  V30 456 H 40.1026 -1.37308 6.9466 0
M  V30 457 H 40.5106 -1.94174 5.30054 0
M  V30 458 N 39.9087 -1.5758 0.0250728 0
M  V30 459 C 41.1337 -1.96337 -0.668317 0
M  V30 460 C 41.5587 -0.901314 -1.651 0
M  V30 461 O 40.9167 0.138187 -1.80773 0
M  V30 462 C 40.9647 -3.34191 -1.35457 0
M  V30 463 O 40.0687 -3.30269 -2.46974 0
M  V30 464 H 39.4097 -0.640281 -0.175887 0
M  V30 465 H 41.9397 -2.0442 0.0857224 0
M  V30 466 H 41.9497 -3.70331 -1.71228 0
M  V30 467 H 40.6247 -4.11036 -0.634218 0
M  V30 468 H 39.2017 -3.05841 -2.13344 0
M  V30 469 N 41.3868 0.248026 -1.55636 0
M  V30 470 C 42.6118 0.998028 -1.81808 0
M  V30 471 C 43.0368 1.78207 -0.601979 0
M  V30 472 O 42.3948 1.75653 0.448961 0
M  V30 473 C 42.4428 1.9125 -3.05705 0
M  V30 474 O 41.5468 3.00406 -2.82542 0
M  V30 475 H 40.8878 0.284045 -0.600179 0
M  V30 476 H 43.4178 0.269357 -2.02819 0
M  V30 477 H 43.4278 2.32737 -3.35108 0
M  V30 478 H 42.1028 1.33602 -3.93857 0
M  V30 479 H 40.6798 2.63056 -2.64303 0
M  V30 480 N 42.8649 1.48995 0.513639 0
M  V30 481 C 43.7949 1.67636 1.62544 0
M  V30 482 C 44.7759 0.525087 1.61793 0
M  V30 483 O 45.9609 0.759502 1.78732 0
M  V30 484 C 43.0909 1.73114 3.01079 0
M  V30 485 C 42.0449 2.87905 3.16693 0
M  V30 486 C 41.3709 2.78486 4.56453 0
M  V30 487 C 42.6709 4.29005 2.97913 0
M  V30 488 H 44.3649 2.60716 1.47198 0
M  V30 489 H 41.9109 1.25465 0.706714 0
M  V30 490 H 43.8639 1.84742 3.78746 0
M  V30 491 H 42.5879 0.766241 3.17484 0
M  V30 492 H 41.2469 2.75859 2.41448 0
M  V30 493 H 40.8949 1.7993 4.69717 0
M  V30 494 H 40.5949 3.55523 4.67843 0
M  V30 495 H 42.1189 2.92104 5.36197 0
M  V30 496 H 43.5329 4.41798 3.65359 0
M  V30 497 H 41.9299 5.07166 3.20785 0
M  V30 498 H 42.9999 4.44329 1.94165 0
M  V30 499 N 44.343 -0.763751 1.37857 0
M  V30 500 C 45.273 -1.89103 1.36975 0
M  V30 501 C 46.254 -1.68439 0.237152 0
M  V30 502 O 47.439 -1.8918 0.438713 0
M  V30 503 C 44.569 -3.26496 1.18395 0
M  V30 504 C 43.523 -3.61741 2.28751 0
M  V30 505 C 42.849 -4.97762 1.95286 0
M  V30 506 C 44.149 -3.67665 3.70972 0
M  V30 507 H 45.843 -1.90099 2.31307 0
M  V30 508 H 43.389 -0.91319 1.11341 0
M  V30 509 H 45.342 -4.05003 1.16406 0
M  V30 510 H 44.066 -3.25955 0.205215 0
M  V30 511 H 42.725 -2.85547 2.29909 0
M  V30 512 H 42.373 -4.93769 0.959221 0
M  V30 513 H 42.073 -5.22313 2.69189 0
M  V30 514 H 43.597 -5.7866 1.94898 0
M  V30 515 H 45.011 -4.36307 3.719 0
M  V30 516 H 43.408 -4.03718 4.43995 0
M  V30 517 H 44.478 -2.68134 4.0402 0
M  V30 518 N 45.8211 -1.22559 -0.990812 0
M  V30 519 C 47.0611 -1.06302 -1.74583 0
M  V30 520 C 47.4251 0.394737 -1.87898 0
M  V30 521 O 48.6261 0.678214 -2.60103 0
M  V30 522 C 46.8971 -1.75699 -3.11231 0
M  V30 523 S 48.4561 -1.74882 -4.02445 0
M  V30 524 H 45.2741 -0.380639 -0.600529 0
M  V30 525 H 47.8761 -1.55532 -1.18449 0
M  V30 526 H 46.5801 -2.80923 -2.99183 0
M  V30 527 H 46.1111 -1.26708 -3.72436 0
M  V30 528 H 48.1261 -0.799997 -4.89709 0
M  V30 529 N 47.2992 1.18797 -1.03562 0
M  V30 530 C 48.2292 2.24472 -0.643019 0
M  V30 531 C 49.2102 1.66433 0.351283 0
M  V30 532 O 50.3952 1.92803 0.232505 0
M  V30 533 C 47.5252 3.473 4.24935e-05 0
M  V30 534 C 46.4792 4.18055 -0.917257 0
M  V30 535 C 45.8052 5.34519 -0.138941 0
M  V30 536 C 47.1052 4.72109 -2.23407 0
M  V30 537 H 48.7992 2.57566 -1.52643 0
M  V30 538 H 46.3452 1.23806 -0.735394 0
M  V30 539 H 48.2982 4.20426 0.286383 0
M  V30 540 H 47.0222 3.13424 0.918299 0
M  V30 541 H 45.6812 3.46821 -1.1879 0
M  V30 542 H 45.3292 4.96891 0.781562 0
M  V30 543 H 45.0292 5.82794 -0.750005 0
M  V30 544 H 46.5532 6.10438 0.1405 0
M  V30 545 H 47.9672 5.36955 -2.00879 0
M  V30 546 H 46.3642 5.30897 -2.79765 0
M  V30 547 H 47.4342 3.89807 -2.88407 0
M  V30 548 N 48.7773 0.814389 1.34928 0
M  V30 549 C 49.6873 0.231978 2.3345 0
M  V30 550 C 50.7033 -0.629139 1.62228 0
M  V30 551 O 51.8793 -0.539052 1.94052 0
M  V30 552 C 48.9443 -0.603482 3.41407 0
M  V30 553 C 48.0053 0.279037 4.28392 0
M  V30 554 C 47.2383 -0.516643 5.31193 0
M  V30 555 O 47.4613 -1.75068 5.4287 0
M  V30 556 O 46.3953 0.0965652 6.01823 0
M  V30 557 H 50.2213 1.04721 2.85074 0
M  V30 558 H 47.8063 0.576343 1.37836 0
M  V30 559 H 49.6883 -1.07908 4.0735 0
M  V30 560 H 48.3633 -1.39618 2.92042 0
M  V30 561 H 47.2703 0.801948 3.65403 0
M  V30 562 H 48.6033 1.03588 4.81176 0
M  V30 563 N 50.2554 -1.46986 0.568584 0
M  V30 564 C 51.5034 -2.02041 0.0487022 0
M  V30 565 C 51.8244 -1.44408 -1.31039 0
M  V30 566 O 51.0944 -0.623477 -1.85714 0
M  V30 567 H 49.6744 -0.746849 0.015014 0
M  V30 568 H 52.3364 -1.80257 0.741168 0
M  V30 569 H 51.4324 -3.12085 -0.0308961 0
M  V30 570 N 51.7335 -0.305618 -1.54608 0
M  V30 571 C 52.6665 0.610536 -2.19881 0
M  V30 572 C 53.6445 1.1294 -1.16976 0
M  V30 573 O 54.8285 1.19673 -1.45638 0
M  V30 574 C 51.9555 1.83583 -2.84631 0
M  V30 575 C 51.0015 1.4498 -4.01102 0
M  V30 576 S 51.8345 0.501793 -5.33144 0
M  V30 577 C 52.9905 1.73478 -6.01379 0
M  V30 578 H 53.2235 0.0560177 -2.97247 0
M  V30 579 H 50.7565 -0.0897434 -1.54139 0
M  V30 580 H 52.7145 2.53898 -3.22562 0
M  V30 581 H 51.3755 2.36152 -2.07102 0
M  V30 582 H 50.5685 2.36236 -4.45206 0
M  V30 583 H 50.1705 0.826553 -3.64752 0
M  V30 584 H 52.4625 2.67473 -6.22467 0
M  V30 585 H 53.4055 1.33622 -6.95378 0
M  V30 586 H 53.8135 1.9136 -5.31076 0
M  V30 587 N 53.2116 1.57565 -0.0334293 0
M  V30 588 C 54.1446 2.05997 0.981866 0
M  V30 589 C 55.1226 0.956647 1.3148 0
M  V30 590 O 56.3066 1.22729 1.43073 0
M  V30 591 C 53.4336 2.48564 2.30074 0
M  V30 592 C 52.4796 3.69958 2.12211 0
M  V30 593 S 53.3126 5.16414 1.41692 0
M  V30 594 C 54.4686 5.6228 2.7494 0
M  V30 595 H 54.7016 2.91792 0.569612 0
M  V30 596 H 52.2346 1.53366 0.178376 0
M  V30 597 H 54.1926 2.73753 3.05892 0
M  V30 598 H 52.8536 1.63106 2.68431 0
M  V30 599 H 52.0466 3.97603 3.09722 0
M  V30 600 H 51.6486 3.44943 1.44535 0
M  V30 601 H 53.9406 5.66783 3.71165 0
M  V30 602 H 54.8836 6.61759 2.51953 0
M  V30 603 H 55.2916 4.89944 2.80384 0
M  V30 604 N 54.6897 -0.239769 1.55765 0
M  V30 605 C 55.6197 -1.30052 1.9393 0
M  V30 606 C 56.6007 -1.49839 0.805132 0
M  V30 607 O 57.7857 -1.62328 1.06599 0
M  V30 608 C 54.9157 -2.65391 2.2402 0
M  V30 609 C 53.8697 -2.60289 3.39755 0
M  V30 610 C 53.1957 -3.99489 3.55405 0
M  V30 611 C 54.4957 -2.16654 4.75246 0
M  V30 612 H 56.1897 -0.983573 2.82783 0
M  V30 613 H 53.7357 -0.471701 1.36055 0
M  V30 614 H 55.6887 -3.3974 2.49308 0
M  V30 615 H 54.4127 -2.98736 1.32 0
M  V30 616 H 53.0717 -1.88398 3.14487 0
M  V30 617 H 52.7197 -4.30112 2.60793 0
M  V30 618 H 52.4197 -3.96962 4.33238 0
M  V30 619 H 53.9437 -4.75528 3.83022 0
M  V30 620 H 55.3577 -2.80737 4.99859 0
M  V30 621 H 53.7547 -2.25223 5.56232 0
M  V30 622 H 54.8247 -1.11835 4.71827 0
M  V30 623 N 56.1678 -1.49265 -0.50573 0
M  V30 624 C 57.3928 -1.62478 -1.28902 0
M  V30 625 C 57.8178 -0.294332 -1.85783 0
M  V30 626 O 57.1758 0.737412 -1.65626 0
M  V30 627 C 57.2238 -2.69268 -2.39848 0
M  V30 628 O 56.3278 -2.28113 -3.43567 0
M  V30 629 H 55.6688 -0.54399 -0.380751 0
M  V30 630 H 58.1988 -1.95421 -0.605952 0
M  V30 631 H 58.2088 -2.91291 -2.85681 0
M  V30 632 H 56.8838 -3.65846 -1.97812 0
M  V30 633 H 55.4608 -2.16401 -3.03685 0
M  V30 634 N 57.6459 0.756429 -1.3826 0
M  V30 635 C 58.5759 1.88374 -1.37976 0
M  V30 636 C 59.5569 1.68311 -0.246082 0
M  V30 637 O 60.7419 1.88944 -0.44874 0
M  V30 638 C 57.8719 3.25864 -1.20125 0
M  V30 639 C 56.8259 3.60523 -2.30666 0
M  V30 640 C 56.1519 4.9672 -1.97923 0
M  V30 641 C 57.4519 3.65692 -3.72916 0
M  V30 642 H 59.1459 1.88869 -2.32312 0
M  V30 643 H 56.6919 0.907272 -1.11824 0
M  V30 644 H 58.6449 4.0438 -1.18552 0
M  V30 645 H 57.3689 3.25841 -0.222498 0
M  V30 646 H 56.0279 2.84324 -2.3142 0
M  V30 647 H 55.6759 4.93253 -0.985393 0
M  V30 648 H 55.3759 5.20878 -2.71955 0
M  V30 649 H 56.8999 5.77618 -1.97964 0
M  V30 650 H 58.3139 4.34328 -3.74208 0
M  V30 651 H 56.7109 4.01358 -4.4613 0
M  V30 652 H 57.7809 2.65987 -4.05436 0
M  V30 653 N 59.124 1.23083 0.984299 0
M  V30 654 C 60.371 1.06057 1.72505 0
M  V30 655 C 60.699 -0.403105 1.90277 0
M  V30 656 O 59.954 -1.3149 1.44944 0
M  V30 657 C 60.253 1.72673 3.1292 0
M  V30 658 C 59.919 3.22586 3.15038 0
M  V30 659 C 58.581 3.63489 3.15324 0
M  V30 660 C 60.933 4.185 3.10657 0
M  V30 661 C 58.261 4.98772 3.08939 0
M  V30 662 C 60.613 5.53769 3.05814 0
M  V30 663 C 59.277 5.94041 3.04419 0
M  V30 664 H 58.547 0.388091 0.631242 0
M  V30 665 H 61.194 1.52963 1.15215 0
M  V30 666 H 59.499 1.18116 3.73572 0
M  V30 667 H 61.196 1.56982 3.68996 0
M  V30 668 H 57.786 2.90022 3.15571 0
M  V30 669 H 61.97 3.87911 3.09579 0
M  V30 670 H 57.226 5.29193 3.0621 0
M  V30 671 H 61.4 6.27808 3.0138 0
M  V30 672 H 59.027 6.98833 2.99227 0
M  V30 673 N 60.6021 -1.18246 1.0419 0
M  V30 674 C 61.8511 -1.87588 0.741194 0
M  V30 675 C 62.1641 -1.81303 -0.734066 0
M  V30 676 O 63.3701 -2.46019 -1.14834 0
M  V30 677 C 61.8261 -3.36538 1.27555 0
M  V30 678 C 61.4341 -3.51349 2.77953 0
M  V30 679 C 63.1781 -4.11273 1.05143 0
M  V30 680 C 61.0851 -4.94265 3.2474 0
M  V30 681 H 60.0151 -0.702622 0.273565 0
M  V30 682 H 62.6661 -1.33601 1.25789 0
M  V30 683 H 61.0481 -3.9 0.686703 0
M  V30 684 H 62.2221 -3.08153 3.42605 0
M  V30 685 H 60.5371 -2.90022 2.98791 0
M  V30 686 H 63.1341 -5.16689 1.37611 0
M  V30 687 H 63.4771 -4.16298 -0.0112774 0
M  V30 688 H 64.0101 -3.63987 1.60495 0
M  V30 689 H 60.7491 -4.94408 4.30396 0
M  V30 690 H 60.2691 -5.38172 2.64823 0
M  V30 691 H 61.9481 -5.62987 3.18834 0
M  V30 692 N 62.0802 -0.821533 -1.34494 0
M  V30 693 C 63.0132 -0.187704 -2.27427 0
M  V30 694 C 63.9912 0.65507 -1.48821 0
M  V30 695 O 65.1752 0.619111 -1.78043 0
M  V30 696 C 62.3022 0.737996 -3.30562 0
M  V30 697 C 61.3482 -0.0270713 -4.26491 0
M  V30 698 S 62.1812 -1.37329 -5.17592 0
M  V30 699 C 63.3372 -0.452427 -6.24263 0
M  V30 700 H 63.5702 -0.975598 -2.80837 0
M  V30 701 H 61.1032 -0.61736 -1.4152 0
M  V30 702 H 63.0612 1.26654 -3.90473 0
M  V30 703 H 61.7222 1.4994 -2.76001 0
M  V30 704 H 60.9152 0.6766 -4.99438 0
M  V30 705 H 60.5172 -0.48612 -3.70827 0
M  V30 706 H 62.8092 0.356557 -6.76561 0
M  V30 707 H 63.7522 -1.15153 -6.98674 0
M  V30 708 H 64.1602 -0.0414755 -5.64485 0
M  V30 709 N 63.5583 1.46682 -0.576371 0
M  V30 710 C 64.5213 2.28707 0.150239 0
M  V30 711 C 65.5213 1.38035 0.824794 0
M  V30 712 O 66.7113 1.60476 0.677719 0
M  V30 713 C 63.8433 3.18248 1.22192 0
M  V30 714 H 65.0363 2.94423 -0.570521 0
M  V30 715 H 62.5893 1.52688 -0.334078 0
M  V30 716 H 63.3243 2.57265 1.97447 0
M  V30 717 H 63.1093 3.85 0.742812 0
M  V30 718 H 64.5993 3.80001 1.73172 0
M  V30 719 N 65.0364 0.313813 1.54444 0
M  V30 720 C 66.2644 -0.293918 2.04802 0
M  V30 721 C 66.6794 -1.46537 1.19047 0
M  V30 722 O 66.0364 -1.81182 0.218939 0
M  V30 723 C 66.0874 -0.737806 3.53891 0
M  V30 724 O 65.8084 0.387038 4.36387 0
M  V30 725 C 67.3094 -1.40936 4.203 0
M  V30 726 H 64.5294 -0.0620057 0.668129 0
M  V30 727 H 67.0734 0.457169 1.99324 0
M  V30 728 H 65.2284 -1.43889 3.59687 0
M  V30 729 H 65.6424 0.0391274 5.24485 0
M  V30 730 H 67.1164 -1.67099 5.26101 0
M  V30 731 H 67.5934 -2.35355 3.70816 0
M  V30 732 H 68.1994 -0.751117 4.18615 0
M  V30 733 N 66.5145 -1.57545 0.0417849 0
M  V30 734 C 67.4445 -2.14009 -0.933929 0
M  V30 735 C 68.4255 -1.05938 -1.33083 0
M  V30 736 O 69.6105 -1.33833 -1.40721 0
M  V30 737 C 66.7405 -2.67747 -2.21199 0
M  V30 738 C 65.6945 -3.80718 -1.95544 0
M  V30 739 C 65.0205 -4.20935 -3.29724 0
M  V30 740 C 66.3205 -5.06258 -1.28452 0
M  V30 741 H 68.0145 -2.95788 -0.463645 0
M  V30 742 H 65.5605 -1.42285 -0.221573 0
M  V30 743 H 67.5135 -3.05886 -2.89848 0
M  V30 744 H 66.2375 -1.83147 -2.70416 0
M  V30 745 H 64.8965 -3.43037 -1.2931 0
M  V30 746 H 64.5445 -3.33298 -3.76724 0
M  V30 747 H 64.2445 -4.9707 -3.13361 0
M  V30 748 H 65.7685 -4.61666 -3.9962 0
M  V30 749 H 67.1825 -5.41903 -1.8712 0
M  V30 750 H 65.5795 -5.87475 -1.22445 0
M  V30 751 H 66.6495 -4.84207 -0.259219 0
M  V30 752 N 67.9926 0.231505 -1.5589 0
M  V30 753 C 68.9256 1.31369 -1.86595 0
M  V30 754 C 69.9036 1.45671 -0.722397 0
M  V30 755 O 71.0876 1.61642 -0.969743 0
M  V30 756 C 68.2146 2.68529 -2.06421 0
M  V30 757 C 67.2606 2.71295 -3.29092 0
M  V30 758 S 68.0936 2.26358 -4.85306 0
M  V30 759 C 69.2496 3.65414 -5.08157 0
M  V30 760 H 69.4826 1.05128 -2.78092 0
M  V30 761 H 67.0156 0.433259 -1.48197 0
M  V30 762 H 68.9736 3.47499 -2.18528 0
M  V30 763 H 67.6346 2.91999 -1.15738 0
M  V30 764 H 66.8276 3.72063 -3.39978 0
M  V30 765 H 66.4296 2.0038 -3.15791 0
M  V30 766 H 68.7216 4.6103 -4.96445 0
M  V30 767 H 69.6646 3.5945 -6.10083 0
M  V30 768 H 70.0726 3.5864 -4.35933 0
M  V30 769 N 69.4707 1.49531 0.497807 0
M  V30 770 C 70.6987 1.62893 1.27567 0
M  V30 771 C 71.1137 0.301585 1.86376 0
M  V30 772 O 70.4707 -0.713335 1.67982 0
M  V30 773 C 70.5217 2.70013 2.40364 0
M  V30 774 O 70.2427 3.976 1.83972 0
M  V30 775 C 71.7437 2.94109 3.31685 0
M  V30 776 H 68.9637 0.548298 0.386794 0
M  V30 777 H 71.5077 1.95584 0.597245 0
M  V30 778 H 69.6627 2.40092 3.04031 0
M  V30 779 H 70.0767 4.56631 2.58047 0
M  V30 780 H 71.5507 3.72788 4.07104 0
M  V30 781 H 72.0277 2.04147 3.88871 0
M  V30 782 H 72.6337 3.2546 2.73781 0
M  V30 783 N 70.9488 -0.749086 1.3866 0
M  V30 784 C 71.8788 -1.8764 1.38973 0
M  V30 785 C 72.8598 -1.68178 0.255004 0
M  V30 786 O 74.0448 -1.88704 0.458754 0
M  V30 787 C 71.1748 -3.25222 1.21851 0
M  V30 788 C 70.1288 -3.59295 2.32575 0
M  V30 789 C 69.4548 -4.95663 2.00555 0
M  V30 790 C 70.7548 -3.63709 3.7485 0
M  V30 791 H 72.4488 -1.87635 2.3331 0
M  V30 792 H 69.9948 -0.901329 1.12303 0
M  V30 793 H 71.9478 -4.03746 1.20695 0
M  V30 794 H 70.6718 -3.25719 0.239775 0
M  V30 795 H 69.3308 -2.83093 2.32925 0
M  V30 796 H 68.9788 -4.92724 1.01154 0
M  V30 797 H 68.6788 -5.19429 2.74714 0
M  V30 798 H 70.2028 -5.7656 2.01024 0
M  V30 799 H 71.6168 -4.32338 3.76506 0
M  V30 800 H 70.0138 -3.98986 4.48252 0
M  V30 801 H 71.0838 -2.63834 4.06841 0
M  V30 802 N 72.4269 -1.23603 -0.977757 0
M  V30 803 C 73.3749 -1.01704 -2.09187 0
M  V30 804 C 74.3689 0.0448214 -1.69341 0
M  V30 805 O 75.5749 -0.108902 -1.7967 0
M  V30 806 H 71.9499 -0.311803 -0.684312 0
M  V30 807 H 73.9209 -1.96207 -2.24823 0
M  V30 808 C 72.6699 -0.627746 -3.41986 0
M  V30 809 H 71.9929 -1.43656 -3.73099 0
M  V30 810 H 73.4329 -0.514053 -4.20872 0
M  V30 811 C 71.8919 0.664238 -3.30287 0
M  V30 812 O 72.4219 1.71268 -3.6336 0
M  V30 813 N 70.6279 0.641156 -2.83439 0
M  V30 814 H 70.1749 -0.212376 -2.56723 0
M  V30 815 H 70.1329 1.50583 -2.75993 0
M  V30 816 N 73.905 1.17692 -1.04816 0
M  V30 817 C 75.133 1.91786 -0.776254 0
M  V30 818 C 75.548 1.76604 0.667577 0
M  V30 819 O 74.905 1.10067 1.45573 0
M  V30 820 C 74.956 3.42967 -1.14263 0
M  V30 821 O 74.677 3.57678 -2.52978 0
M  V30 822 C 76.178 4.34144 -0.896311 0
M  V30 823 H 73.398 0.608624 -0.282519 0
M  V30 824 H 75.942 1.49268 -1.39783 0
M  V30 825 H 74.097 3.83245 -0.565874 0
M  V30 826 H 74.511 4.51319 -2.67229 0
M  V30 827 H 75.985 5.38744 -1.20244 0
M  V30 828 H 76.462 4.38876 0.168636 0
M  V30 829 H 77.068 3.99574 -1.45672 0
M  V30 830 N 75.3831 0.828654 1.34056 0
M  V30 831 C 76.3331 0.226828 2.26869 0
M  V30 832 C 77.3171 -0.612243 1.48796 0
M  V30 833 O 78.5091 -0.465884 1.70759 0
M  V30 834 C 75.6381 -0.605654 3.37915 0
M  V30 835 C 74.7241 0.244361 4.23395 0
M  V30 836 N 75.1151 1.31815 4.88322 0
M  V30 837 C 73.4131 0.0296616 4.4599 0
M  V30 838 C 74.1141 1.83895 5.51867 0
M  V30 839 N 73.0901 1.14196 5.3147 0
M  V30 840 H 76.8921 1.04811 2.74576 0
M  V30 841 H 74.4061 0.67205 1.47842 0
M  V30 842 H 76.4031 -1.05302 4.03382 0
M  V30 843 H 75.0631 -1.42504 2.91758 0
M  V30 844 H 76.0741 1.70099 4.8917 0
M  V30 845 H 72.7511 -0.757097 4.10578 0
M  V30 846 H 74.1411 2.7376 6.136 0
M  V30 847 N 76.8612 -1.46375 0.584142 0
M  V30 848 C 78.0862 -2.07268 0.0740405 0
M  V30 849 C 78.5112 -1.42979 -1.22223 0
M  V30 850 O 77.8692 -0.514092 -1.73859 0
M  V30 851 C 77.9172 -3.60518 -0.0767769 0
M  V30 852 O 77.0212 -3.96533 -1.13292 0
M  V30 853 H 76.3622 -0.660961 0.0634524 0
M  V30 854 H 78.8922 -1.87991 0.807492 0
M  V30 855 H 78.9022 -4.07021 -0.282489 0
M  V30 856 H 77.5772 -4.06702 0.86986 0
M  V30 857 H 76.1542 -3.61738 -0.905553 0
M  V30 858 N 78.3393 -0.321999 -1.54275 0
M  V30 859 C 79.2693 0.537411 -2.27231 0
M  V30 860 C 80.2503 1.12064 -1.27968 0
M  V30 861 O 81.4353 1.14606 -1.56777 0
M  V30 862 C 78.5653 1.69919 -3.02894 0
M  V30 863 C 77.5193 1.24534 -4.09482 0
M  V30 864 C 76.8453 2.49394 -4.72977 0
M  V30 865 C 78.1453 0.361335 -5.21049 0
M  V30 866 H 79.8393 -0.0711406 -2.99315 0
M  V30 867 H 77.3853 -0.0356555 -1.43956 0
M  V30 868 H 79.3383 2.30668 -3.52662 0
M  V30 869 H 78.0623 2.33431 -2.28424 0
M  V30 870 H 76.7213 0.660782 -3.60596 0
M  V30 871 H 76.3693 3.11265 -3.95124 0
M  V30 872 H 76.0693 2.19718 -5.44975 0
M  V30 873 H 77.5933 3.10908 -5.25517 0
M  V30 874 H 79.0073 0.875072 -5.66582 0
M  V30 875 H 77.4043 0.157428 -5.99893 0
M  V30 876 H 78.4743 -0.60822 -4.8107 0
M  V30 877 N 79.8174 1.5752 -0.0501392 0
M  V30 878 C 80.7474 2.14502 0.922566 0
M  V30 879 C 81.7284 1.06642 1.3252 0
M  V30 880 O 82.9134 1.34577 1.4001 0
M  V30 881 C 80.0434 2.68916 2.19776 0
M  V30 882 C 78.9974 3.8175 1.93523 0
M  V30 883 C 78.3234 4.22677 3.27487 0
M  V30 884 C 79.6234 5.06932 1.25765 0
M  V30 885 H 81.3174 2.9603 0.447952 0
M  V30 886 H 78.8634 1.42401 0.214024 0
M  V30 887 H 80.8164 3.07419 2.88222 0
M  V30 888 H 79.5404 1.84578 2.69441 0
M  V30 889 H 78.1994 3.43718 1.27489 0
M  V30 890 H 77.8474 3.35291 3.74952 0
M  V30 891 H 77.5474 4.98725 3.1072 0
M  V30 892 H 79.0714 4.63779 3.97166 0
M  V30 893 H 80.4854 5.42888 1.84244 0
M  V30 894 H 78.8824 5.88116 1.19328 0
M  V30 895 H 79.9524 4.84337 0.233536 0
M  V30 896 N 81.2955 -0.223234 1.56011 0
M  V30 897 C 82.2585 -1.26014 1.9145 0
M  V30 898 C 83.2585 -1.3989 0.792937 0
M  V30 899 O 84.4485 -1.38184 1.0607 0
M  V30 900 C 81.5805 -2.63422 2.16383 0
M  V30 901 H 82.7735 -0.95796 2.84189 0
M  V30 902 H 80.3265 -0.463576 1.49267 0
M  V30 903 H 81.0615 -2.98741 1.2619 0
M  V30 904 H 80.8465 -2.54728 2.98088 0
M  V30 905 H 82.3365 -3.38249 2.44903 0
M  V30 906 N 82.7736 -1.49793 -0.48987 0
M  V30 907 C 83.7216 -1.67783 -1.61095 0
M  V30 908 C 84.7156 -0.543683 -1.60438 0
M  V30 909 O 85.9216 -0.723647 -1.64813 0
M  V30 910 H 82.2966 -0.529255 -0.534222 0
M  V30 911 H 84.2676 -2.61861 -1.43078 0
M  V30 912 C 83.0166 -1.77191 -2.99164 0
M  V30 913 H 82.3396 -2.63841 -3.0038 0
M  V30 914 H 83.7796 -1.93809 -3.77113 0
M  V30 915 C 82.2386 -0.519203 -3.32875 0
M  V30 916 O 82.7686 0.350124 -4.00171 0
M  V30 917 N 80.9746 -0.378816 -2.8812 0
M  V30 918 H 80.5216 -1.08725 -2.33531 0
M  V30 919 H 80.4796 0.458239 -3.11043 0
M  V30 920 N 84.2517 0.741722 -1.39055 0
M  V30 921 C 85.5007 1.49656 -1.35225 0
M  V30 922 C 85.8137 1.95533 0.0512708 0
M  V30 923 O 87.0197 2.7067 0.212138 0
M  V30 924 C 85.4757 2.70389 -2.37525 0
M  V30 925 C 85.0837 2.31489 -3.83558 0
M  V30 926 C 86.8277 3.48236 -2.42759 0
M  V30 927 C 84.7347 3.48903 -4.77515 0
M  V30 928 H 83.6647 0.56197 -0.502699 0
M  V30 929 H 86.3157 0.809727 -1.64668 0
M  V30 930 H 84.6977 3.41113 -2.01142 0
M  V30 931 H 85.8717 1.68354 -4.28945 0
M  V30 932 H 84.1867 1.66749 -3.81554 0
M  V30 933 H 86.7837 4.35558 -3.1015 0
M  V30 934 H 87.1267 3.90229 -1.45008 0
M  V30 935 H 87.6597 2.84535 -2.78002 0
M  V30 936 H 84.3987 3.11966 -5.76504 0
M  V30 937 H 83.9187 4.11041 -4.36813 0
M  V30 938 H 85.5977 4.15328 -4.96096 0
M  V30 939 N 85.7298 1.2412 0.971189 0
M  V30 940 C 86.9758 1.08041 1.71625 0
M  V30 941 C 87.3088 -0.380407 1.90438 0
M  V30 942 O 86.5838 -1.28127 1.46334 0
M  V30 943 C 86.8668 1.81682 3.10908 0
M  V30 944 C 86.7198 3.35493 2.99608 0
M  V30 945 C 88.0388 1.58671 4.10501 0
M  V30 946 H 85.1578 0.39388 0.622919 0
M  V30 947 H 87.7998 1.52743 1.13003 0
M  V30 948 H 85.9498 1.43684 3.60953 0
M  V30 949 H 87.6218 3.83068 2.57015 0
M  V30 950 H 85.8648 3.64052 2.35899 0
M  V30 951 H 86.5358 3.82217 3.98264 0
M  V30 952 H 89.0118 1.91719 3.69301 0
M  V30 953 H 87.8878 2.1266 5.06031 0
M  V30 954 H 88.1488 0.524161 4.38982 0
M  V30 955 N 87.2079 -1.17134 1.05439 0
M  V30 956 C 88.6189 -1.69084 0.791676 0
M  V30 957 C 88.9699 -1.83822 -0.685839 0
M  V30 958 O 88.0949 -1.52757 -1.53278 0
M  V30 959 C 88.6899 -3.07119 1.4305 0
M  V30 960 C 87.2489 -3.56225 1.21577 0
M  V30 961 C 86.3959 -2.32421 1.51247 0
M  V30 962 H 89.3469 -1.01617 1.219 0
M  V30 963 H 89.3679 -3.71087 0.84112 0
M  V30 964 H 88.8799 -2.9636 2.50584 0
M  V30 965 H 86.9809 -3.72257 0.159787 0
M  V30 966 H 87.0939 -4.38837 1.92246 0
M  V30 967 H 85.4579 -2.3701 0.932653 0
M  V30 968 H 86.2409 -2.24268 2.5992 0
M  V30 969 N 88.686 -0.835752 -1.33615 0
M  V30 970 C 89.935 -0.426289 -1.97144 0
M  V30 971 C 90.248 1.01912 -1.66953 0
M  V30 972 O 91.454 1.53311 -2.24072 0
M  V30 973 C 89.91 -0.711321 -3.52801 0
M  V30 974 C 89.518 -2.1712 -3.91871 0
M  V30 975 C 91.262 -0.368654 -4.22896 0
M  V30 976 C 89.169 -2.40044 -5.40493 0
M  V30 977 H 88.099 -0.15567 -0.737755 0
M  V30 978 H 90.75 -1.0239 -1.52278 0
M  V30 979 H 89.132 -0.0433766 -3.95976 0
M  V30 980 H 90.306 -2.87936 -3.59763 0
M  V30 981 H 88.621 -2.47654 -3.34749 0
M  V30 982 H 91.218 -0.517601 -5.32189 0
M  V30 983 H 91.561 0.688078 -4.10574 0
M  V30 984 H 92.094 -0.991702 -3.8524 0
M  V30 985 H 88.833 -3.44271 -5.57815 0
M  V30 986 H 88.353 -1.73785 -5.74072 0
M  V30 987 H 90.032 -2.23042 -6.0734 0
M  V30 988 N 90.1641 1.46063 -0.591896 0
M  V30 989 C 91.1271 2.28854 0.125973 0
M  V30 990 C 92.1271 1.38903 0.810107 0
M  V30 991 O 93.3171 1.61186 0.66066 0
M  V30 992 C 90.4491 3.19526 1.1881 0
M  V30 993 H 91.6421 2.93802 -0.601717 0
M  V30 994 H 89.1951 1.52325 -0.350254 0
M  V30 995 H 89.9301 2.59345 1.94707 0
M  V30 996 H 89.7151 3.85766 0.701936 0
M  V30 997 H 91.2051 3.81817 1.69132 0
M  V30 998 N 91.6422 0.330177 1.54103 0
M  V30 999 C 92.5752 -0.575477 2.20825 0
M  V30 1000 C 93.5532 -1.11064 1.18758 0
M  V30 1001 O 94.7372 -1.17341 1.47524 0
M  V30 1002 C 91.8642 -1.79032 2.87516 0
M  V30 1003 C 90.9102 -1.38581 4.03358 0
M  V30 1004 S 91.7432 -0.416911 5.33875 0
M  V30 1005 C 92.8992 -1.63889 6.04062 0
M  V30 1006 H 93.1322 -0.00872114 2.97299 0
M  V30 1007 H 90.6652 0.114254 1.53977 0
M  V30 1008 H 92.6232 -2.48734 3.2656 0
M  V30 1009 H 91.2842 -2.32827 2.10832 0
M  V30 1010 H 90.4772 -2.29123 4.48908 0
M  V30 1011 H 90.0792 -0.768419 3.66021 0
M  V30 1012 H 92.3712 -2.57536 6.26643 0
M  V30 1013 H 93.3142 -1.22542 6.97416 0
M  V30 1014 H 93.7222 -1.82887 5.34053 0
M  V30 1015 N 93.1203 -1.57491 0.0584922 0
M  V30 1016 C 94.0503 -2.14988 -0.911178 0
M  V30 1017 C 95.0313 -1.07343 -1.31952 0
M  V30 1018 O 96.2163 -1.35318 -1.39294 0
M  V30 1019 C 93.3463 -2.70078 -2.18347 0
M  V30 1020 C 92.3003 -3.82771 -1.91495 0
M  V30 1021 C 91.6263 -4.24408 -3.25241 0
M  V30 1022 C 92.9263 -5.07592 -1.23075 0
M  V30 1023 H 94.6203 -2.96263 -0.432246 0
M  V30 1024 H 92.1663 -1.42512 -0.206469 0
M  V30 1025 H 94.1193 -3.08943 -2.86587 0
M  V30 1026 H 92.8433 -1.86005 -2.68458 0
M  V30 1027 H 91.5023 -3.44389 -1.25664 0
M  V30 1028 H 91.1503 -3.37275 -3.73168 0
M  V30 1029 H 90.8503 -5.00366 -3.08071 0
M  V30 1030 H 92.3743 -4.65879 -3.94701 0
M  V30 1031 H 93.7883 -5.43857 -1.81362 0
M  V30 1032 H 92.1853 -5.88741 -1.16207 0
M  V30 1033 H 93.2553 -4.84454 -0.207847 0
M  V30 1034 N 94.5984 0.214957 -1.56127 0
M  V30 1035 C 95.8444 0.939762 -1.79712 0
M  V30 1036 C 96.1774 1.83723 -0.629247 0
M  V30 1037 O 95.4524 1.90925 0.371197 0
M  V30 1038 C 95.7354 1.77306 -3.13424 0
M  V30 1039 C 95.5884 0.90164 -4.40671 0
M  V30 1040 C 96.9074 2.74956 -3.43638 0
M  V30 1041 H 94.0264 0.340214 -0.653776 0
M  V30 1042 H 96.6684 0.20824 -1.88855 0
M  V30 1043 H 94.8184 2.39673 -3.0576 0
M  V30 1044 H 96.4904 0.294206 -4.60361 0
M  V30 1045 H 94.7334 0.207368 -4.33304 0
M  V30 1046 H 95.4044 1.51923 -5.30682 0
M  V30 1047 H 97.8804 2.22724 -3.51473 0
M  V30 1048 H 96.7564 3.30358 -4.38355 0
M  V30 1049 H 97.0174 3.53023 -2.66134 0
M  V30 1050 N 96.0765 1.50051 0.48192 0
M  V30 1051 C 97.3235 1.60498 1.23477 0
M  V30 1052 C 97.6515 0.300331 1.92167 0
M  V30 1053 O 96.9065 -0.713094 1.82246 0
M  V30 1054 C 97.2055 2.72717 2.30998 0
M  V30 1055 C 96.8715 4.13572 1.79636 0
M  V30 1056 C 95.5335 4.519 1.65348 0
M  V30 1057 C 97.8855 5.01649 1.41412 0
M  V30 1058 C 95.2135 5.76057 1.11244 0
M  V30 1059 C 97.5655 6.26343 0.887538 0
M  V30 1060 C 96.2295 6.63483 0.731207 0
M  V30 1061 H 95.4995 0.587303 0.451836 0
M  V30 1062 H 98.1465 1.83948 0.532468 0
M  V30 1063 H 96.4515 2.43312 3.07094 0
M  V30 1064 H 98.1485 2.78006 2.88988 0
M  V30 1065 H 94.7385 3.83329 1.91721 0
M  V30 1066 H 98.9225 4.72679 1.51289 0
M  V30 1067 H 94.1785 6.03516 0.978686 0
M  V30 1068 H 98.3525 6.93958 0.582654 0
M  V30 1069 H 95.9795 7.59568 0.309806 0
M  V30 1070 N 97.5546 -0.734337 1.39446 0
M  V30 1071 C 98.5176 -1.83004 1.37994 0
M  V30 1072 C 99.5176 -1.58397 0.276938 0
M  V30 1073 O 100.708 -1.65785 0.534875 0
M  V30 1074 C 97.8396 -3.20802 1.1532 0
M  V30 1075 H 99.0326 -1.85694 2.35494 0
M  V30 1076 H 96.5856 -0.938059 1.25021 0
M  V30 1077 H 97.3206 -3.23772 0.185036 0
M  V30 1078 H 97.1056 -3.4006 1.95197 0
M  V30 1079 H 98.5956 -4.00862 1.17046 0
M  V30 1080 N 99.0327 -1.24633 -0.964593 0
M  V30 1081 C 99.9957 -1.0424 -2.04124 0
M  V30 1082 C 100.996 0.00137563 -1.608 0
M  V30 1083 O 102.186 -0.239883 -1.7254 0
M  V30 1084 C 99.3177 -0.580588 -3.3592 0
M  V30 1085 H 100.511 -1.99803 -2.23649 0
M  V30 1086 H 98.0637 -1.06899 -1.14027 0
M  V30 1087 H 98.7987 0.3781 -3.22088 0
M  V30 1088 H 98.5837 -1.33398 -3.6871 0
M  V30 1089 H 100.074 -0.459034 -4.15069 0
M  V30 1090 N 100.511 1.16574 -1.06058 0
M  V30 1091 C 101.751 1.88723 -0.78504 0
M  V30 1092 C 102.115 1.79706 0.676006 0
M  V30 1093 O 103.316 2.46757 1.06603 0
M  V30 1094 C 101.587 3.34338 -1.26304 0
M  V30 1095 S 103.146 4.24366 -1.1162 0
M  V30 1096 H 99.9638 0.651448 -0.284846 0
M  V30 1097 H 102.566 1.40732 -1.35701 0
M  V30 1098 H 101.27 3.38439 -2.32136 0
M  V30 1099 H 100.801 3.87378 -0.685719 0
M  V30 1100 H 102.816 4.96179 -0.0456539 0
M  V30 1101 N 101.989 0.842826 1.3317 0
M  V30 1102 C 102.899 0.281444 2.32906 0
M  V30 1103 C 103.915 -0.594587 1.63526 0
M  V30 1104 O 105.091 -0.49777 1.95152 0
M  V30 1105 C 102.156 -0.530929 3.42611 0
M  V30 1106 C 101.217 0.369843 4.27704 0
M  V30 1107 C 100.45 -0.403853 5.3217 0
M  V30 1108 O 100.673 -1.63513 5.46461 0
M  V30 1109 O 99.6069 0.224199 6.01482 0
M  V30 1110 H 103.433 1.10744 2.82789 0
M  V30 1111 H 101.018 0.60545 1.36582 0
M  V30 1112 H 102.9 -0.992437 4.09547 0
M  V30 1113 H 101.575 -1.33392 2.94938 0
M  V30 1114 H 100.482 0.879275 3.6362 0
M  V30 1115 H 101.815 1.13771 4.78871 0
M  V30 1116 N 103.467 -1.45747 0.599634 0
M  V30 1117 C 104.43 -2.28917 -0.113835 0
M  V30 1118 C 105.43 -1.3933 -0.802729 0
M  V30 1119 O 106.62 -1.61534 -0.652103 0
M  V30 1120 C 103.752 -3.20152 -1.17114 0
M  V30 1121 H 104.945 -2.93478 0.617289 0
M  V30 1122 H 102.498 -1.52137 0.358327 0
M  V30 1123 H 103.233 -2.60374 -1.93329 0
M  V30 1124 H 103.018 -3.86133 -0.681468 0
M  V30 1125 H 104.508 -3.82708 -1.67105 0
M  V30 1126 N 104.945 -0.338344 -1.53925 0
M  V30 1127 C 105.908 0.508299 -2.23493 0
M  V30 1128 C 106.908 1.03175 -1.23335 0
M  V30 1129 O 108.098 0.921826 -1.47811 0
M  V30 1130 C 105.23 1.70754 -2.95052 0
M  V30 1131 H 106.423 -0.100058 -2.99733 0
M  V30 1132 H 103.976 -0.0896198 -1.56043 0
M  V30 1133 H 104.711 2.35474 -2.22986 0
M  V30 1134 H 104.496 1.33946 -3.68512 0
M  V30 1135 H 105.986 2.30818 -3.48013 0
M  V30 1136 N 106.423 1.57458 -0.0668435 0
M  V30 1137 C 107.669 1.93587 0.6043 0
M  V30 1138 C 108.002 0.946722 1.69561 0
M  V30 1139 O 107.277 -0.0248516 1.94484 0
M  V30 1140 C 107.56 3.40014 1.18585 0
M  V30 1141 C 107.413 4.49685 0.101529 0
M  V30 1142 C 108.732 3.87154 2.09284 0
M  V30 1143 H 105.851 0.703958 0.218202 0
M  V30 1144 H 108.493 1.89542 -0.131804 0
M  V30 1145 H 106.643 3.43592 1.81319 0
M  V30 1146 H 108.315 4.5823 -0.531279 0
M  V30 1147 H 106.558 4.30059 -0.568487 0
M  V30 1148 H 107.229 5.49266 0.54874 0
M  V30 1149 H 109.705 3.85551 1.56491 0
M  V30 1150 H 108.581 4.90231 2.46911 0
M  V30 1151 H 108.842 3.2481 2.99918 0
M  V30 1152 N 107.901 -0.206675 1.56239 0
M  V30 1153 C 109.149 -0.927007 1.79586 0
M  V30 1154 C 109.47 -1.8427 0.637929 0
M  V30 1155 O 108.74 -1.92849 -0.344398 0
M  V30 1156 H 107.32 -0.345292 0.662407 0
M  V30 1157 H 109.982 -0.21496 1.93711 0
M  V30 1158 H 109.078 -1.52501 2.72305 0
M  V30 1159 N 109.379 -1.50304 -0.473955 0
M  V30 1160 C 110.309 -1.71886 -1.58042 0
M  V30 1161 C 111.29 -0.567799 -1.60344 0
M  V30 1162 O 112.475 -0.806623 -1.76656 0
M  V30 1163 C 109.605 -1.81036 -2.96384 0
M  V30 1164 C 108.559 -2.962 -3.08949 0
M  V30 1165 C 107.885 -2.9049 -4.48909 0
M  V30 1166 C 109.185 -4.36752 -2.86434 0
M  V30 1167 H 110.879 -2.64527 -1.40234 0
M  V30 1168 H 108.425 -1.27295 -0.673201 0
M  V30 1169 H 110.378 -1.94719 -3.73714 0
M  V30 1170 H 109.102 -0.850147 -3.15341 0
M  V30 1171 H 107.761 -2.82164 -2.3405 0
M  V30 1172 H 107.409 -1.92321 -4.64781 0
M  V30 1173 H 107.109 -3.67802 -4.58253 0
M  V30 1174 H 108.633 -3.06218 -5.28264 0
M  V30 1175 H 110.047 -4.5133 -3.53517 0
M  V30 1176 H 108.444 -5.15493 -3.07225 0
M  V30 1177 H 109.514 -4.49321 -1.82316 0
M  V30 1178 N 110.857 0.726932 -1.39834 0
M  V30 1179 C 111.82 1.82269 -1.38962 0
M  V30 1180 C 112.82 1.58248 -0.285334 0
M  V30 1181 O 114.01 1.65499 -0.54366 0
M  V30 1182 C 111.142 3.20186 -1.17019 0
M  V30 1183 H 112.335 1.84443 -2.36476 0
M  V30 1184 H 109.888 0.931416 -1.25516 0
M  V30 1185 H 110.623 3.23669 -0.202204 0
M  V30 1186 H 110.408 3.3902 -1.96998 0
M  V30 1187 H 111.898 4.00235 -1.1917 0
M  V30 1188 N 112.336 1.25143 0.95797 0
M  V30 1189 C 113.266 1.07711 2.07173 0
M  V30 1190 C 114.247 -0.0128462 1.70095 0
M  V30 1191 O 115.432 0.156061 1.93572 0
M  V30 1192 C 112.562 0.691503 3.40346 0
M  V30 1193 C 111.516 1.73132 3.9142 0
M  V30 1194 C 110.842 1.20049 5.21049 0
M  V30 1195 C 112.142 3.1294 4.1817 0
M  V30 1196 H 113.836 2.00873 2.22014 0
M  V30 1197 H 111.382 0.967191 1.06684 0
M  V30 1198 H 113.335 0.556505 4.17709 0
M  V30 1199 H 112.059 -0.275819 3.25433 0
M  V30 1200 H 110.718 1.8547 3.16222 0
M  V30 1201 H 110.366 0.223499 5.02503 0
M  V30 1202 H 110.066 1.89545 5.56189 0
M  V30 1203 H 111.59 1.07782 6.01012 0
M  V30 1204 H 113.004 3.03775 4.86203 0
M  V30 1205 H 111.401 3.79875 4.64559 0
M  V30 1206 H 112.471 3.6025 3.24573 0
M  V30 1207 N 113.814 -1.1601 1.06675 0
M  V30 1208 C 114.744 -2.22688 0.702307 0
M  V30 1209 C 115.725 -1.67306 -0.307032 0
M  V30 1210 O 116.91 -1.93352 -0.181305 0
M  V30 1211 C 114.04 -3.47178 0.092038 0
M  V30 1212 C 112.994 -4.15477 1.02777 0
M  V30 1213 C 112.32 -5.33963 0.28061 0
M  V30 1214 C 113.62 -4.66019 2.35846 0
M  V30 1215 H 115.314 -2.53429 1.59419 0
M  V30 1216 H 112.86 -1.21813 0.767961 0
M  V30 1217 H 114.813 -4.21037 -0.174814 0
M  V30 1218 H 113.537 -3.15749 -0.834877 0
M  V30 1219 H 112.196 -3.43549 1.27944 0
M  V30 1220 H 111.844 -4.98788 -0.649545 0
M  V30 1221 H 111.544 -5.806 0.904258 0
M  V30 1222 H 113.068 -6.10596 0.021396 0
M  V30 1223 H 114.482 -5.3144 2.15045 0
M  V30 1224 H 112.879 -5.23293 2.93743 0
M  V30 1225 H 113.949 -3.82023 2.98641 0
M  V30 1226 N 115.292 -0.849877 -1.32721 0
M  V30 1227 C 116.538 -0.451591 -1.97708 0
M  V30 1228 C 116.871 0.989175 -1.6712 0
M  V30 1229 O 116.146 1.69334 -0.956891 0
M  V30 1230 C 116.429 -0.685598 -3.53513 0
M  V30 1231 C 116.282 -2.17444 -3.93749 0
M  V30 1232 C 117.601 -0.138874 -4.39881 0
M  V30 1233 H 114.72 -0.16555 -0.718166 0
M  V30 1234 H 117.362 -1.06742 -1.57182 0
M  V30 1235 H 115.512 -0.161416 -3.88165 0
M  V30 1236 H 117.184 -2.76433 -3.693 0
M  V30 1237 H 115.427 -2.65476 -3.43081 0
M  V30 1238 H 116.098 -2.28888 -5.02309 0
M  V30 1239 H 118.574 -0.587068 -4.11938 0
M  V30 1240 H 117.45 -0.332213 -5.47894 0
M  V30 1241 H 117.711 0.95806 -4.31594 0
M  V30 1242 N 116.77 1.45427 -0.607355 0
M  V30 1243 C 117.995 2.07124 -0.107006 0
M  V30 1244 C 118.42 1.44906 1.19933 0
M  V30 1245 O 117.778 0.541687 1.73019 0
M  V30 1246 C 117.826 3.60595 0.0194119 0
M  V30 1247 O 116.93 3.98285 1.0697 0
M  V30 1248 H 116.271 0.659868 -0.0739597 0
M  V30 1249 H 118.801 1.86683 -0.837297 0
M  V30 1250 H 118.811 4.07419 0.2177 0
M  V30 1251 H 117.486 4.05266 -0.934453 0
M  V30 1252 H 116.063 3.63133 0.847889 0
M  V30 1253 N 118.248 0.346503 1.53744 0
M  V30 1254 C 119.497 -0.250122 2.00143 0
M  V30 1255 C 119.81 -1.51418 1.23822 0
M  V30 1256 O 121.016 -2.18823 1.60713 0
M  V30 1257 C 119.472 -0.496252 3.56462 0
M  V30 1258 C 119.08 0.752077 4.41642 0
M  V30 1259 C 120.824 -1.05157 4.11269 0
M  V30 1260 C 118.731 0.476583 5.89477 0
M  V30 1261 H 117.661 -0.0972409 0.747703 0
M  V30 1262 H 120.312 0.46229 1.77581 0
M  V30 1263 H 118.694 -1.26944 3.75102 0
M  V30 1264 H 119.868 1.5266 4.34778 0
M  V30 1265 H 118.183 1.22925 3.97842 0
M  V30 1266 H 120.78 -1.27269 5.19333 0
M  V30 1267 H 121.123 -2.00799 3.64672 0
M  V30 1268 H 121.656 -0.339019 3.96353 0
M  V30 1269 H 118.395 1.4028 6.40314 0
M  V30 1270 H 117.915 -0.259794 5.99237 0
M  V30 1271 H 119.594 0.0949315 6.4693 0
M  V30 1272 N 119.726 -1.57421 0.075193 0
M  V30 1273 C 120.951 -1.98364 -0.605515 0
M  V30 1274 C 121.376 -0.953383 -1.62149 0
M  V30 1275 O 120.734 0.0806053 -1.81121 0
M  V30 1276 C 120.782 -3.38332 -1.24756 0
M  V30 1277 O 119.886 -3.37959 -2.36342 0
M  V30 1278 H 119.227 -0.645553 -0.155428 0
M  V30 1279 H 121.757 -2.04044 0.150714 0
M  V30 1280 H 121.767 -3.75591 -1.5936 0
M  V30 1281 H 120.442 -4.12846 -0.503129 0
M  V30 1282 H 119.019 -3.12474 -2.03506 0
M  V30 1283 N 121.204 0.198386 -1.56346 0
M  V30 1284 C 122.152 1.26538 -1.95169 0
M  V30 1285 C 123.146 1.47295 -0.836685 0
M  V30 1286 O 124.352 1.48195 -1.02167 0
M  V30 1287 H 120.727 0.424744 -0.620561 0
M  V30 1288 H 122.698 0.910904 -2.84157 0
M  V30 1289 C 121.447 2.6035 -2.30463 0
M  V30 1290 H 120.77 2.45192 -3.15786 0
M  V30 1291 H 122.21 3.33762 -2.61494 0
M  V30 1292 C 120.669 3.17096 -1.13806 0
M  V30 1293 O 121.199 3.99588 -0.41135 0
M  V30 1294 N 119.405 2.75795 -0.915736 0
M  V30 1295 H 118.952 2.08816 -1.50843 0
M  V30 1296 H 118.91 3.14101 -0.136979 0
M  V30 1297 N 122.682 1.50554 0.465978 0
M  V30 1298 C 123.91 1.65563 1.24083 0
M  V30 1299 C 124.325 0.341051 1.85694 0
M  V30 1300 O 123.682 -0.677543 1.69457 0
M  V30 1301 C 123.733 2.75051 2.34583 0
M  V30 1302 O 123.454 4.01413 1.75497 0
M  V30 1303 C 124.955 3.01078 3.25372 0
M  V30 1304 H 122.175 0.55638 0.375077 0
M  V30 1305 H 124.719 1.96807 0.555624 0
M  V30 1306 H 122.874 2.46486 2.9887 0
M  V30 1307 H 123.288 4.62002 2.48303 0
M  V30 1308 H 124.762 3.81339 3.99105 0
M  V30 1309 H 125.239 2.12349 3.84453 0
M  V30 1310 H 125.845 3.31194 2.66816 0
M  V30 1311 N 124.16 -0.719506 1.40217 0
M  V30 1312 C 125.39 -1.50646 1.41384 0
M  V30 1313 C 125.798 -1.89197 0.0107743 0
M  V30 1314 O 125.141 -1.55709 -0.974708 0
M  V30 1315 C 125.203 -2.81405 2.23722 0
M  V30 1316 C 124.867 -2.65199 3.72181 0
M  V30 1317 C 125.864 -2.32717 4.64907 0
M  V30 1318 C 123.549 -2.81586 4.1595 0
M  V30 1319 C 125.543 -2.16827 5.99387 0
M  V30 1320 C 123.23 -2.65313 5.50502 0
M  V30 1321 C 124.228 -2.32981 6.42035 0
M  V30 1322 O 123.916 -2.16827 7.74107 0
M  V30 1323 H 123.648 -0.471606 0.484318 0
M  V30 1324 H 126.202 -0.895456 1.84853 0
M  V30 1325 H 124.432 -3.44823 1.75026 0
M  V30 1326 H 126.121 -3.43102 2.16878 0
M  V30 1327 H 126.887 -2.19694 4.32388 0
M  V30 1328 H 122.766 -3.0574 3.45027 0
M  V30 1329 H 126.31 -1.91513 6.70797 0
M  V30 1330 H 122.207 -2.7792 5.82607 0
M  V30 1331 H 122.975 -2.31778 7.84998 0
M  V30 1332 N 125.638 -1.25649 -0.95132 0
M  V30 1333 C 126.886 -1.10375 -1.69298 0
M  V30 1334 C 127.207 0.355339 -1.91735 0
M  V30 1335 O 126.477 1.25188 -1.50681 0
M  V30 1336 H 125.057 -0.405461 -0.627384 0
M  V30 1337 H 127.719 -1.57823 -1.14358 0
M  V30 1338 H 126.815 -1.61465 -2.67087 0
M  V30 1339 N 127.117 1.15442 -1.07289 0
M  V30 1340 C 128.047 2.22312 -0.714107 0
M  V30 1341 C 129.028 1.67467 0.298155 0
M  V30 1342 O 130.213 1.93445 0.171048 0
M  V30 1343 C 127.343 3.47124 -0.110448 0
M  V30 1344 C 126.297 4.14926 -1.04979 0
M  V30 1345 C 125.623 5.33807 -0.308924 0
M  V30 1346 C 126.923 4.64762 -2.38314 0
M  V30 1347 H 128.617 2.5258 -1.6076 0
M  V30 1348 H 126.163 1.21404 -0.77441 0
M  V30 1349 H 128.116 4.21124 0.152482 0
M  V30 1350 H 126.84 3.16187 0.81812 0
M  V30 1351 H 125.499 3.42866 -1.29764 0
M  V30 1352 H 125.147 4.99126 0.623084 0
M  V30 1353 H 124.847 5.80113 -0.935036 0
M  V30 1354 H 126.371 6.10576 -0.0537771 0
M  V30 1355 H 127.785 5.30292 -2.1786 0
M  V30 1356 H 126.182 5.21728 -2.96514 0
M  V30 1357 H 127.252 3.80434 -3.00663 0
M  V30 1358 N 128.595 0.856903 1.32268 0
M  V30 1359 C 129.872 0.382583 1.91822 0
M  V30 1360 C 130.252 -1.13407 1.78051 0
M  V30 1361 O 129.6 -1.95673 1.18001 0
M  V30 1362 C 129.81 0.849446 3.38505 0
M  V30 1363 C 131.158 0.867936 4.15634 0
M  V30 1364 O 132.182 0.794232 3.47232 0
M  V30 1365 O 131.041 0.972286 5.37781 0
M  V30 1366 H 128.135 0.112014 0.819379 0
M  V30 1367 H 130.681 0.943952 1.41024 0
M  V30 1368 H 129.453 1.89267 3.42482 0
M  V30 1369 H 129.076 0.265652 3.96712 0
M  V30 1370 N 130.073 -1.45103 0.615059 0
M  V30 1371 C 131.303 -2.06254 0.119596 0
M  V30 1372 C 131.711 -1.4591 -1.20445 0
M  V30 1373 O 131.054 -0.570384 -1.7462 0
M  V30 1374 C 131.116 -3.59396 -0.0865591 0
M  V30 1375 C 130.78 -4.42116 1.15683 0
M  V30 1376 C 131.777 -4.7662 2.07676 0
M  V30 1377 C 129.462 -4.82749 1.38775 0
M  V30 1378 C 131.456 -5.50622 3.21082 0
M  V30 1379 C 129.143 -5.56504 2.52481 0
M  V30 1380 C 130.141 -5.90358 3.43463 0
M  V30 1381 O 129.829 -6.62615 4.55189 0
M  V30 1382 H 129.561 -0.672423 0.0694512 0
M  V30 1383 H 132.115 -1.87219 0.844885 0
M  V30 1384 H 130.345 -3.76859 -0.866823 0
M  V30 1385 H 132.034 -4.02365 -0.534555 0
M  V30 1386 H 132.8 -4.4578 1.91063 0
M  V30 1387 H 128.679 -4.55829 0.688545 0
M  V30 1388 H 132.223 -5.76965 3.92119 0
M  V30 1389 H 128.12 -5.86759 2.69043 0
M  V30 1390 H 128.888 -6.81071 4.53966 0
M  V30 1391 N 131.551 -0.354651 -1.53558 0
M  V30 1392 C 132.797 0.238797 -2.01389 0
M  V30 1393 C 133.13 1.49309 -1.2418 0
M  V30 1394 O 132.405 1.91638 -0.332457 0
M  V30 1395 C 132.688 0.541771 -3.56001 0
M  V30 1396 C 132.541 -0.725388 -4.43912 0
M  V30 1397 C 133.86 1.34685 -4.18984 0
M  V30 1398 H 130.979 0.0853177 -0.732045 0
M  V30 1399 H 133.621 -0.477384 -1.83905 0
M  V30 1400 H 131.771 1.15189 -3.71031 0
M  V30 1401 H 133.443 -1.36313 -4.407 0
M  V30 1402 H 131.686 -1.34801 -4.12324 0
M  V30 1403 H 132.357 -0.468505 -5.50008 0
M  V30 1404 H 134.833 0.830837 -4.07721 0
M  V30 1405 H 133.709 1.52759 -5.27215 0
M  V30 1406 H 133.97 2.35221 -3.74331 0
M  V30 1407 N 133.029 1.57378 -0.0835403 0
M  V30 1408 C 133.979 2.09916 0.889905 0
M  V30 1409 C 134.963 1.01151 1.25129 0
M  V30 1410 O 136.155 1.27443 1.2283 0
M  V30 1411 C 133.284 2.67379 2.15322 0
M  V30 1412 C 132.37 3.83167 1.81779 0
M  V30 1413 N 132.761 4.91665 1.18739 0
M  V30 1414 C 131.059 3.92685 2.11459 0
M  V30 1415 C 131.76 5.72409 1.0355 0
M  V30 1416 N 130.736 5.21062 1.54906 0
M  V30 1417 H 134.538 2.91188 0.398378 0
M  V30 1418 H 132.052 1.61956 0.120013 0
M  V30 1419 H 134.049 3.0334 2.8599 0
M  V30 1420 H 132.709 1.87558 2.65051 0
M  V30 1421 H 133.72 5.10784 0.855604 0
M  V30 1422 H 130.397 3.23856 2.63483 0
M  V30 1423 H 131.787 6.69699 0.543425 0
M  V30 1424 N 134.507 -0.190092 1.56449 0
M  V30 1425 C 135.455 -1.25501 1.95837 0
M  V30 1426 C 136.449 -1.4685 0.844485 0
M  V30 1427 O 137.655 -1.47651 1.02952 0
M  V30 1428 H 134.03 -0.421447 0.622805 0
M  V30 1429 H 136.001 -0.895821 2.84636 0
M  V30 1430 C 134.75 -2.59124 2.31841 0
M  V30 1431 H 134.073 -2.43514 3.17082 0
M  V30 1432 H 135.513 -3.32371 2.6326 0
M  V30 1433 C 133.972 -3.16488 1.15486 0
M  V30 1434 O 134.502 -3.99365 0.432535 0
M  V30 1435 N 132.708 -2.75305 0.930349 0
M  V30 1436 H 132.255 -2.08013 1.51948 0
M  V30 1437 H 132.213 -3.14024 0.153634 0
M  V30 1438 N 135.985 -1.50799 -0.457987 0
M  V30 1439 C 136.915 -1.73553 -1.5621 0
M  V30 1440 C 137.896 -0.584774 -1.59732 0
M  V30 1441 O 139.081 -0.825314 -1.7579 0
M  V30 1442 C 136.211 -1.84169 -2.94447 0
M  V30 1443 C 135.165 -2.99461 -3.0579 0
M  V30 1444 C 134.491 -2.95235 -4.45803 0
M  V30 1445 C 135.791 -4.39766 -2.81786 0
M  V30 1446 H 137.485 -2.66 -1.37421 0
M  V30 1447 H 135.031 -1.28002 -0.659662 0
M  V30 1448 H 136.984 -1.98672 -3.71628 0
M  V30 1449 H 135.708 -0.883545 -3.14422 0
M  V30 1450 H 134.367 -2.8463 -2.31044 0
M  V30 1451 H 134.015 -1.97239 -4.62715 0
M  V30 1452 H 133.715 -3.72642 -4.54326 0
M  V30 1453 H 135.239 -3.11803 -5.24987 0
M  V30 1454 H 136.653 -4.55054 -3.4871 0
M  V30 1455 H 135.05 -5.18722 -3.0174 0
M  V30 1456 H 136.12 -4.51229 -1.7754 0
M  V30 1457 N 137.463 0.71206 -1.40597 0
M  V30 1458 C 138.411 1.84746 -1.41321 0
M  V30 1459 C 139.405 1.66842 -0.293268 0
M  V30 1460 O 140.611 1.73904 -0.464481 0
M  V30 1461 H 136.986 0.608522 -0.441819 0
M  V30 1462 H 138.957 1.81252 -2.37045 0
M  V30 1463 C 137.706 3.22638 -1.29614 0
M  V30 1464 H 137.029 3.37023 -2.15071 0
M  V30 1465 H 138.469 4.02209 -1.3418 0
M  V30 1466 C 136.928 3.36899 -0.00673121 0
M  V30 1467 O 137.458 3.90186 0.954859 0
M  V30 1468 N 135.664 2.9053 0.0639327 0
M  V30 1469 H 135.211 2.47353 -0.719311 0
M  V30 1470 H 135.169 3.0045 0.926118 0
M  V30 1471 N 138.941 1.26152 0.944643 0
M  V30 1472 C 139.871 1.09902 2.06019 0
M  V30 1473 C 140.852 0.00519538 1.70099 0
M  V30 1474 O 142.037 0.176583 1.93396 0
M  V30 1475 C 139.167 0.727562 3.39594 0
M  V30 1476 C 138.121 1.77274 3.89561 0
M  V30 1477 C 137.447 1.25569 5.19747 0
M  V30 1478 C 138.747 3.17357 4.14827 0
M  V30 1479 H 140.441 2.03217 2.19871 0
M  V30 1480 H 137.987 0.978452 1.05652 0
M  V30 1481 H 139.94 0.600777 4.17095 0
M  V30 1482 H 138.664 -0.241287 3.25707 0
M  V30 1483 H 137.323 1.88814 3.14237 0
M  V30 1484 H 136.971 0.276783 5.02238 0
M  V30 1485 H 136.671 1.95433 5.54148 0
M  V30 1486 H 138.195 1.1415 5.99835 0
M  V30 1487 H 139.609 3.08914 4.82954 0
M  V30 1488 H 138.006 3.84781 4.60504 0
M  V30 1489 H 139.076 3.63673 3.20734 0
M  V30 1490 N 140.419 -1.14872 1.07899 0
M  V30 1491 C 141.349 -2.2193 0.725887 0
M  V30 1492 C 142.33 -1.67622 -0.28927 0
M  V30 1493 O 143.515 -1.93533 -0.160787 0
M  V30 1494 C 140.645 -3.47061 0.128856 0
M  V30 1495 C 139.599 -4.14363 1.07178 0
M  V30 1496 C 138.925 -5.33636 0.337229 0
M  V30 1497 C 140.225 -4.63492 2.40775 0
M  V30 1498 H 141.919 -2.51724 1.62097 0
M  V30 1499 H 139.465 -1.20991 0.780838 0
M  V30 1500 H 141.418 -4.21199 -0.130147 0
M  V30 1501 H 140.142 -3.16617 -0.80134 0
M  V30 1502 H 138.801 -3.42173 1.3158 0
M  V30 1503 H 138.449 -4.99449 -0.596606 0
M  V30 1504 H 138.149 -5.79609 0.965788 0
M  V30 1505 H 139.673 -6.10539 0.0861567 0
M  V30 1506 H 141.087 -5.2913 2.20669 0
M  V30 1507 H 139.484 -5.20148 2.99276 0
M  V30 1508 H 140.554 -3.78834 3.02676 0
M  V30 1509 N 141.898 -0.863906 -1.31812 0
M  V30 1510 C 142.83 -0.272485 -2.27575 0
M  V30 1511 C 143.843 0.56104 -1.52827 0
M  V30 1512 O 145.032 0.384021 -1.7432 0
M  V30 1513 C 142.132 0.63283 -3.32939 0
M  V30 1514 C 141.305 -0.166902 -4.37081 0
M  V30 1515 C 140.364 0.665608 -5.21973 0
M  V30 1516 O 139.39 0.0958091 -5.69119 0
M  V30 1517 N 140.592 1.9787 -5.45736 0
M  V30 1518 H 143.357 -1.0954 -2.78964 0
M  V30 1519 H 140.918 -0.724791 -1.4477 0
M  V30 1520 H 142.91 1.19532 -3.86645 0
M  V30 1521 H 141.48 1.35642 -2.81638 0
M  V30 1522 H 140.7 -0.910838 -3.83533 0
M  V30 1523 H 141.988 -0.715874 -5.03739 0
M  V30 1524 H 141.386 2.46484 -5.09178 0
M  V30 1525 H 139.943 2.48911 -6.024 0
M  V30 1526 N 143.376 1.44774 -0.622745 0
M  V30 1527 C 144.616 2.04004 -0.127102 0
M  V30 1528 C 144.98 1.47862 1.22478 0
M  V30 1529 O 146.181 1.98541 1.81204 0
M  V30 1530 C 144.452 3.57247 -0.104429 0
M  V30 1531 S 146.011 4.37574 0.327814 0
M  V30 1532 H 142.829 0.708713 -0.0569776 0
M  V30 1533 H 145.431 1.77275 -0.824253 0
M  V30 1534 H 144.135 3.95616 -1.09159 0
M  V30 1535 H 143.666 3.88575 0.614236 0
M  V30 1536 H 145.681 4.70575 1.57395 0
M  V30 1537 O 144.893 0.504988 1.53402 0
M  V30 1538 H 145.584 -0.0115839 1.93697 0
M  V30 END ATOM
M  V30 BEGIN BOND
M  V30 END BOND
M  V30 END CTAB
M  END
$$$$
