drugbank_target|P04080 Cystatin-B (DB09131)
 OpenBabel12092121063D

  0  0  0     0  0            999 V3000
M  V30 BEGIN CTAB
M  V30 COUNTS 1555 1574 0 0 0
M  V30 BEGIN ATOM
M  V30 1 H -0.908 1.98254 -0.117106 0
M  V30 2 N 0 1.576 0 0
M  V30 3 C 0.933 2.03868 1.02534 0
M  V30 4 C 1.911 0.928543 1.3348 0
M  V30 5 O 3.095 1.19667 1.45644 0
M  V30 6 C 0.222 2.43627 2.35294 0
M  V30 7 C -0.732 3.65373 2.2001 0
M  V30 8 S 0.101 5.13292 1.52614 0
M  V30 9 C 1.257 5.56322 2.86805 0
M  V30 10 H 1.49 2.90518 0.631377 0
M  V30 11 H -0.977 1.52953 0.210867 0
M  V30 12 H 0.981 2.67203 3.11629 0
M  V30 13 H -0.358 1.57376 2.7183 0
M  V30 14 H -1.165 3.90944 3.18086 0
M  V30 15 H -1.563 3.418 1.51819 0
M  V30 16 H 0.729 5.58782 3.83104 0
M  V30 17 H 1.672 6.56266 2.65933 0
M  V30 18 H 2.08 4.83886 2.90714 0
M  V30 19 N 1.4781 -0.272755 1.55222 0
M  V30 20 C 2.4111 -1.3627 1.83046 0
M  V30 21 C 3.3891 -1.47536 0.683521 0
M  V30 22 O 4.5731 -1.64157 0.926545 0
M  V30 23 C 1.7001 -2.73908 1.99229 0
M  V30 24 C 0.7461 -2.79925 3.21783 0
M  V30 25 S 1.5791 -2.39146 4.79134 0
M  V30 26 C 2.7351 -3.78758 4.9829 0
M  V30 27 H 2.9681 -1.12464 2.75207 0
M  V30 28 H 0.5011 -0.472398 1.46996 0
M  V30 29 H 2.4591 -3.53171 2.09238 0
M  V30 30 H 1.1201 -2.94965 1.07956 0
M  V30 31 H 0.3131 -3.80946 3.29994 0
M  V30 32 H -0.0849 -2.08683 3.10367 0
M  V30 33 H 2.2071 -4.7403 4.84047 0
M  V30 34 H 3.1501 -3.75499 6.00338 0
M  V30 35 H 3.5581 -3.70072 4.26271 0
M  V30 36 N 2.9562 -1.48159 -0.537278 0
M  V30 37 C 4.1962 -1.57397 -1.30405 0
M  V30 38 C 4.5602 -0.239202 -1.90504 0
M  V30 39 O 5.7612 -0.206528 -2.68005 0
M  V30 40 C 4.0322 -2.6754 -2.36974 0
M  V30 41 S 5.5912 -2.96496 -3.23475 0
M  V30 42 H 2.4092 -0.555577 -0.443684 0
M  V30 43 H 5.0112 -1.85644 -0.612912 0
M  V30 44 H 3.7152 -3.63092 -1.91291 0
M  V30 45 H 3.2462 -2.41172 -3.10805 0
M  V30 46 H 5.2612 -2.35234 -4.36897 0
M  V30 47 N 4.4343 0.785586 -1.36625 0
M  V30 48 C 5.6823 1.54057 -1.30808 0
M  V30 49 C 6.0033 1.94683 0.111157 0
M  V30 50 O 5.2733 1.65241 1.05224 0
M  V30 51 H 3.8533 0.571354 -0.481211 0
M  V30 52 H 6.5153 0.935821 -1.70963 0
M  V30 53 H 5.6113 2.44637 -1.93801 0
M  V30 54 N 5.9124 1.20967 1.01018 0
M  V30 55 C 6.8754 0.965918 2.07853 0
M  V30 56 C 7.8754 -0.0610545 1.60684 0
M  V30 57 O 9.0654 0.175681 1.73312 0
M  V30 58 C 6.1974 0.455513 3.37843 0
M  V30 59 H 7.3904 1.91365 2.3091 0
M  V30 60 H 4.9434 1.02594 1.17916 0
M  V30 61 H 5.6784 -0.497381 3.20463 0
M  V30 62 H 5.4634 1.19622 3.73407 0
M  V30 63 H 6.9534 0.304667 4.16487 0
M  V30 64 N 7.3905 -1.2043 1.01659 0
M  V30 65 C 8.8015 -1.71517 0.737482 0
M  V30 66 C 9.1525 -1.81547 -0.743973 0
M  V30 67 O 8.2775 -1.47803 -1.58061 0
M  V30 68 C 8.8725 -3.11515 1.33206 0
M  V30 69 C 7.4315 -3.59912 1.10183 0
M  V30 70 C 6.5785 -2.37116 1.43776 0
M  V30 71 H 9.5295 -1.05444 1.18606 0
M  V30 72 H 9.5505 -3.73575 0.722636 0
M  V30 73 H 9.0625 -3.04182 2.41028 0
M  V30 74 H 7.1635 -3.72577 0.0412756 0
M  V30 75 H 7.2765 -4.44731 1.78188 0
M  V30 76 H 5.6405 -2.39857 0.856778 0
M  V30 77 H 6.4235 -2.32424 2.52654 0
M  V30 78 N 8.8686 -0.792821 -1.36206 0
M  V30 79 C 10.0936 -0.377701 -2.03932 0
M  V30 80 C 10.5186 0.998947 -1.59382 0
M  V30 81 O 9.8766 1.64421 -0.763903 0
M  V30 82 C 9.9246 -0.453635 -3.57735 0
M  V30 83 O 9.0286 0.538151 -4.08874 0
M  V30 84 H 8.3696 -0.159855 -0.644471 0
M  V30 85 H 10.8996 -1.07488 -1.7409 0
M  V30 86 H 10.9096 -0.318464 -4.06755 0
M  V30 87 H 9.5846 -1.45784 -3.89512 0
M  V30 88 H 8.1616 0.364359 -3.71116 0
M  V30 89 N 10.3467 1.47872 -0.545128 0
M  V30 90 C 11.3097 2.28337 0.198717 0
M  V30 91 C 12.3097 1.36255 0.853888 0
M  V30 92 O 13.4997 1.59003 0.711606 0
M  V30 93 C 10.6317 3.15585 1.28915 0
M  V30 94 H 11.8247 2.95567 -0.507941 0
M  V30 95 H 9.3777 1.53362 -0.301616 0
M  V30 96 H 10.1127 2.53019 2.02859 0
M  V30 97 H 9.8977 3.83337 0.824309 0
M  V30 98 H 11.3877 3.76243 1.81194 0
M  V30 99 N 11.8248 0.280983 1.55075 0
M  V30 100 C 13.0528 -0.337293 2.04132 0
M  V30 101 C 13.4678 -1.4903 1.15912 0
M  V30 102 O 12.8248 -1.81606 0.180459 0
M  V30 103 C 12.8758 -0.812706 3.52246 0
M  V30 104 O 12.5968 0.294387 4.3711 0
M  V30 105 C 14.0978 -1.4982 4.17216 0
M  V30 106 H 11.3178 -0.0761638 0.666663 0
M  V30 107 H 13.8618 0.414787 2.00249 0
M  V30 108 H 12.0168 -1.51486 3.56554 0
M  V30 109 H 12.4308 -0.0721325 5.2445 0
M  V30 110 H 13.9048 -1.7822 5.22438 0
M  V30 111 H 14.3818 -2.43168 3.65741 0
M  V30 112 H 14.9878 -0.839742 4.16927 0
M  V30 113 N 13.3029 -1.57598 0.00835791 0
M  V30 114 C 14.2349 -2.05811 -1.00868 0
M  V30 115 C 15.2479 -0.977579 -1.30182 0
M  V30 116 O 16.4369 -1.25421 -1.27011 0
M  V30 117 C 13.5369 -2.45016 -2.34137 0
M  V30 118 C 12.7099 -3.75903 -2.23643 0
M  V30 119 C 11.7689 -4.01884 -3.3967 0
M  V30 120 O 10.7949 -4.72433 -3.17483 0
M  V30 121 N 11.9969 -3.50432 -4.62793 0
M  V30 122 H 14.7619 -2.93684 -0.597458 0
M  V30 123 H 12.3229 -1.60909 -0.178852 0
M  V30 124 H 14.3149 -2.59506 -3.10546 0
M  V30 125 H 12.8849 -1.62618 -2.66972 0
M  V30 126 H 12.1049 -3.7141 -1.32091 0
M  V30 127 H 13.3929 -4.61695 -2.13812 0
M  V30 128 H 12.7909 -2.93317 -4.83716 0
M  V30 129 H 11.3479 -3.70236 -5.3644 0
M  V30 130 N 14.781 0.264519 -1.55364 0
M  V30 131 C 16.192 0.834936 -1.6699 0
M  V30 132 C 16.543 1.86718 -0.602552 0
M  V30 133 O 15.668 2.14899 0.254425 0
M  V30 134 C 16.263 1.5212 -3.02729 0
M  V30 135 C 14.822 2.03954 -3.16354 0
M  V30 136 C 13.969 0.884498 -2.62815 0
M  V30 137 H 16.92 0.0406869 -1.58648 0
M  V30 138 H 16.941 2.38853 -2.96191 0
M  V30 139 H 16.453 0.769668 -3.80392 0
M  V30 140 H 14.554 2.82041 -2.43482 0
M  V30 141 H 14.667 2.24902 -4.23032 0
M  V30 142 H 13.031 1.2802 -2.20188 0
M  V30 143 H 13.814 0.14634 -3.42988 0
M  V30 144 N 16.2591 1.48442 0.529413 0
M  V30 145 C 17.2221 1.62524 1.61612 0
M  V30 146 C 18.2221 0.498509 1.52877 0
M  V30 147 O 19.4121 0.76431 1.56537 0
M  V30 148 C 16.5441 1.59597 3.01233 0
M  V30 149 H 17.7371 2.59423 1.50465 0
M  V30 150 H 15.2901 1.37047 0.751514 0
M  V30 151 H 16.0251 0.641781 3.17886 0
M  V30 152 H 15.8101 2.41397 3.08982 0
M  V30 153 H 17.3001 1.72646 3.80241 0
M  V30 154 N 17.7372 -0.778329 1.37039 0
M  V30 155 C 18.9652 -1.56734 1.35063 0
M  V30 156 C 19.3802 -1.88686 -0.0655597 0
M  V30 157 O 18.7372 -1.5096 -1.02554 0
M  V30 158 C 18.7882 -2.88163 2.18276 0
M  V30 159 O 18.5092 -2.57583 3.54376 0
M  V30 160 C 20.0102 -3.82422 2.24206 0
M  V30 161 H 17.2302 -0.485778 0.462883 0
M  V30 162 H 19.7742 -0.965185 1.8029 0
M  V30 163 H 17.9292 -3.44818 1.76576 0
M  V30 164 H 18.3432 -3.41699 3.97922 0
M  V30 165 H 19.8172 -4.71667 2.86765 0
M  V30 166 H 20.2942 -4.21078 1.24861 0
M  V30 167 H 20.9002 -3.31697 2.6619 0
M  V30 168 N 19.2153 -1.21501 -1.00376 0
M  V30 169 C 20.1783 -0.976927 -2.07337 0
M  V30 170 C 21.1783 0.0525322 -1.60714 0
M  V30 171 O 22.3683 -0.184869 -1.73216 0
M  V30 172 C 19.5003 -0.473423 -3.37597 0
M  V30 173 H 20.6933 -1.92587 -2.29892 0
M  V30 174 H 18.2463 -1.03217 -1.17371 0
M  V30 175 H 18.9813 0.480379 -3.20722 0
M  V30 176 H 18.7663 -1.216 -3.72768 0
M  V30 177 H 20.2563 -0.32675 -4.1632 0
M  V30 178 N 20.6934 1.19889 -1.02296 0
M  V30 179 C 21.6034 2.26571 -0.608508 0
M  V30 180 C 22.6194 1.70299 0.356964 0
M  V30 181 O 23.7954 2.00235 0.216326 0
M  V30 182 C 20.8604 3.46677 0.0402814 0
M  V30 183 C 19.9214 4.18153 -0.97194 0
M  V30 184 C 19.1544 5.32525 -0.354016 0
M  V30 185 O 19.3774 5.64112 0.844604 0
M  V30 186 O 18.3114 5.92242 -1.07391 0
M  V30 187 H 22.1374 2.64251 -1.49684 0
M  V30 188 H 19.7224 1.26629 -0.792809 0
M  V30 189 H 21.6044 4.19475 0.402324 0
M  V30 190 H 20.2794 3.10858 0.902707 0
M  V30 191 H 19.1864 3.47499 -1.38546 0
M  V30 192 H 20.5194 4.57927 -1.80454 0
M  V30 193 N 22.1715 0.800033 1.35784 0
M  V30 194 C 23.3995 0.389606 2.03199 0
M  V30 195 C 23.8145 -0.997375 1.60306 0
M  V30 196 O 23.1715 -1.64154 0.797481 0
M  V30 197 C 23.2225 0.455855 3.58614 0
M  V30 198 O 22.9435 1.78815 3.99946 0
M  V30 199 C 24.4445 0.0374032 4.43284 0
M  V30 200 H 21.6645 0.159132 0.651857 0
M  V30 201 H 24.2085 1.08183 1.73541 0
M  V30 202 H 22.3635 -0.188057 3.86943 0
M  V30 203 H 22.7775 1.74636 4.94573 0
M  V30 204 H 24.2515 0.134882 5.51835 0
M  V30 205 H 24.7285 -1.01651 4.27275 0
M  V30 206 H 25.3345 0.654215 4.20238 0
M  V30 207 N 23.6496 -1.47581 0.552962 0
M  V30 208 C 24.5816 -2.27997 -0.234533 0
M  V30 209 C 25.5946 -1.36753 -0.883321 0
M  V30 210 O 26.7836 -1.61612 -0.757889 0
M  V30 211 C 23.8836 -3.10879 -1.34935 0
M  V30 212 C 23.0566 -4.30056 -0.798158 0
M  V30 213 C 22.1156 -4.94567 -1.79694 0
M  V30 214 O 21.1416 -5.53087 -1.34474 0
M  V30 215 N 22.3436 -4.88878 -3.13015 0
M  V30 216 H 25.1086 -2.96222 0.455255 0
M  V30 217 H 22.6696 -1.57163 0.388761 0
M  V30 218 H 24.6616 -3.50903 -2.01616 0
M  V30 219 H 23.2316 -2.44924 -1.94244 0
M  V30 220 H 22.4516 -3.94174 0.0453079 0
M  V30 221 H 23.7396 -5.07152 -0.409173 0
M  V30 222 H 23.1376 -4.42526 -3.52402 0
M  V30 223 H 21.6946 -5.32934 -3.75266 0
M  V30 224 N 25.1277 -0.289203 -1.54924 0
M  V30 225 C 26.0777 0.606939 -2.19773 0
M  V30 226 C 27.0617 1.10783 -1.16687 0
M  V30 227 O 28.2537 1.05057 -1.4245 0
M  V30 228 C 25.3827 1.78398 -2.93307 0
M  V30 229 C 24.4687 1.29961 -4.03697 0
M  V30 230 N 24.8597 0.532377 -5.0299 0
M  V30 231 C 23.1577 1.58136 -4.17024 0
M  V30 232 C 23.8587 0.275912 -5.81045 0
M  V30 233 N 22.8347 0.852365 -5.36876 0
M  V30 234 H 26.6367 0.0130779 -2.93897 0
M  V30 235 H 24.1507 -0.09341 -1.62131 0
M  V30 236 H 26.1477 2.43741 -3.38225 0
M  V30 237 H 24.8077 2.38166 -2.20697 0
M  V30 238 H 25.8187 0.17838 -5.17593 0
M  V30 239 H 22.4957 2.18738 -3.55612 0
M  V30 240 H 23.8857 -0.339502 -6.71042 0
M  V30 241 N 26.6058 1.57591 -0.0167156 0
M  V30 242 C 27.8548 1.90461 0.663877 0
M  V30 243 C 28.1678 0.893515 1.73999 0
M  V30 244 O 29.3738 1.11302 2.47637 0
M  V30 245 C 27.8298 3.38155 1.23204 0
M  V30 246 C 27.4378 4.47597 0.189866 0
M  V30 247 C 29.1818 3.80111 1.88986 0
M  V30 248 C 27.0888 5.86379 0.768964 0
M  V30 249 H 26.0188 0.710738 0.251729 0
M  V30 250 H 28.6698 1.83326 -0.0799926 0
M  V30 251 H 27.0518 3.40182 2.02712 0
M  V30 252 H 28.2258 4.57112 -0.581846 0
M  V30 253 H 26.5408 4.14766 -0.368475 0
M  V30 254 H 29.1378 4.81145 2.33247 0
M  V30 255 H 29.4808 3.14511 2.72743 0
M  V30 256 H 30.0138 3.80454 1.16187 0
M  V30 257 H 26.7528 6.55493 -0.0301957 0
M  V30 258 H 26.2728 5.80496 1.50945 0
M  V30 259 H 27.9518 6.34563 1.26251 0
M  V30 260 N 28.0839 -0.256276 1.55502 0
M  V30 261 C 29.0469 -1.30047 1.88734 0
M  V30 262 C 30.0469 -1.4154 0.763086 0
M  V30 263 O 31.2369 -1.40403 1.03115 0
M  V30 264 C 28.3689 -2.67953 2.10747 0
M  V30 265 H 29.5619 -1.01802 2.82093 0
M  V30 266 H 27.1149 -0.495134 1.4825 0
M  V30 267 H 27.8499 -3.01351 1.19825 0
M  V30 268 H 27.6349 -2.60993 2.92617 0
M  V30 269 H 29.1249 -3.43368 2.37673 0
M  V30 270 N 29.562 -1.4872 -0.521534 0
M  V30 271 C 30.839 -1.4766 -1.2828 0
M  V30 272 C 31.219 -0.19292 -2.10217 0
M  V30 273 O 30.567 0.825193 -2.13079 0
M  V30 274 C 30.777 -2.74358 -2.15705 0
M  V30 275 C 32.125 -3.23028 -2.75569 0
M  V30 276 O 33.149 -2.75333 -2.25987 0
M  V30 277 O 32.008 -4.0604 -3.65778 0
M  V30 278 H 29.102 -0.590085 -0.579421 0
M  V30 279 H 31.648 -1.60963 -0.537492 0
M  V30 280 H 30.42 -3.59292 -1.54999 0
M  V30 281 H 30.043 -2.63816 -2.97467 0
M  V30 282 N 31.0401 0.771051 -1.3745 0
M  V30 283 C 31.9721 1.89352 -1.29146 0
M  V30 284 C 32.9851 1.61477 -0.207124 0
M  V30 285 O 34.1741 1.72382 -0.463324 0
M  V30 286 C 31.2741 3.24596 -0.974195 0
M  V30 287 C 30.4471 3.80111 -2.16413 0
M  V30 288 C 29.5061 4.93832 -1.81703 0
M  V30 289 O 28.5321 5.09382 -2.54006 0
M  V30 290 N 29.7341 5.75483 -0.761573 0
M  V30 291 H 32.4991 1.96991 -2.25864 0
M  V30 292 H 30.0601 0.950191 -1.31084 0
M  V30 293 H 32.0521 3.98193 -0.722828 0
M  V30 294 H 30.6221 3.12454 -0.0955527 0
M  V30 295 H 29.8421 2.98284 -2.57721 0
M  V30 296 H 31.1301 4.13932 -2.95867 0
M  V30 297 H 30.5281 5.65469 -0.161609 0
M  V30 298 H 29.0851 6.49302 -0.570064 0
M  V30 299 N 32.5182 1.22032 0.997298 0
M  V30 300 C 33.7642 1.04376 1.73878 0
M  V30 301 C 34.0972 -0.420716 1.89588 0
M  V30 302 O 33.3722 -1.31202 1.43583 0
M  V30 303 C 33.6552 1.75047 3.14691 0
M  V30 304 C 33.5082 3.29062 3.06656 0
M  V30 305 C 34.8272 1.49928 4.13775 0
M  V30 306 H 31.9462 0.380578 0.631133 0
M  V30 307 H 34.5882 1.50312 1.16217 0
M  V30 308 H 32.7382 1.35996 3.63919 0
M  V30 309 H 34.4102 3.7753 2.65083 0
M  V30 310 H 32.6532 3.58967 2.43568 0
M  V30 311 H 33.3242 3.73683 4.06282 0
M  V30 312 H 35.8002 1.83842 3.73285 0
M  V30 313 H 34.6762 2.01878 5.10428 0
M  V30 314 H 34.9372 0.430929 4.39995 0
M  V30 315 N 33.9963 -1.19345 1.0293 0
M  V30 316 C 35.4123 -1.41069 0.746446 0
M  V30 317 C 35.6123 -1.90078 -0.668776 0
M  V30 318 O 34.6683 -2.0778 -1.4347 0
M  V30 319 C 35.9813 -2.42141 1.78292 0
M  V30 320 C 37.5293 -2.55887 1.80252 0
M  V30 321 C 38.0043 -3.60214 2.8286 0
M  V30 322 N 39.4953 -3.67711 2.81679 0
M  V30 323 C 40.2303 -4.48128 3.57727 0
M  V30 324 N 39.7263 -5.32248 4.43491 0
M  V30 325 N 41.5193 -4.42782 3.46267 0
M  V30 326 H 33.6703 -0.858536 1.94275 0
M  V30 327 H 35.9333 -0.439541 0.839945 0
M  V30 328 H 35.6393 -2.13155 2.79746 0
M  V30 329 H 35.5133 -3.41323 1.60557 0
M  V30 330 H 37.9003 -2.84196 0.794757 0
M  V30 331 H 37.9813 -1.56858 2.02062 0
M  V30 332 H 37.6253 -3.32647 3.83807 0
M  V30 333 H 37.5553 -4.58895 2.58307 0
M  V30 334 H 40.0463 -3.07634 2.19476 0
M  V30 335 H 40.3593 -5.90729 4.98256 0
M  V30 336 H 38.7043 -5.31707 4.47564 0
M  V30 337 H 41.8953 -3.76107 2.78677 0
M  V30 338 H 42.0683 -5.05215 4.05785 0
M  V30 339 N 35.4744 -0.807222 -1.35358 0
M  V30 340 C 36.6994 -0.399309 -2.0352 0
M  V30 341 C 37.1244 0.981986 -1.60433 0
M  V30 342 O 36.4824 1.63601 -0.781299 0
M  V30 343 C 36.5304 -0.491552 -3.57234 0
M  V30 344 O 35.6344 0.494754 -4.09421 0
M  V30 345 H 34.9754 -0.166682 -0.642739 0
M  V30 346 H 37.5054 -1.09328 -1.72941 0
M  V30 347 H 37.5154 -0.361588 -4.06395 0
M  V30 348 H 36.1904 -1.49907 -3.87944 0
M  V30 349 H 34.7674 0.324977 -3.71481 0
M  V30 350 N 36.9525 1.47285 -0.560781 0
M  V30 351 C 37.8845 2.28118 0.222438 0
M  V30 352 C 38.8975 1.37219 0.876056 0
M  V30 353 O 40.0865 1.62011 0.749307 0
M  V30 354 C 37.1865 3.1159 1.33285 0
M  V30 355 C 36.3595 4.30473 0.77534 0
M  V30 356 C 35.4185 4.95513 1.77069 0
M  V30 357 O 34.4445 5.53792 1.31539 0
M  V30 358 N 35.6465 4.90531 3.10418 0
M  V30 359 H 38.4115 2.95976 -0.470958 0
M  V30 360 H 35.9725 1.56955 -0.39709 0
M  V30 361 H 37.9645 3.51967 1.99752 0
M  V30 362 H 36.5345 2.45951 1.92943 0
M  V30 363 H 35.7545 3.94144 -0.0662113 0
M  V30 364 H 37.0425 5.07362 0.382272 0
M  V30 365 H 36.4405 4.44389 3.5005 0
M  V30 366 H 34.9975 5.34917 3.72434 0
M  V30 367 N 38.4306 0.297415 1.54768 0
M  V30 368 C 39.3606 -0.573494 2.26348 0
M  V30 369 C 40.3416 -1.14085 1.26169 0
M  V30 370 O 41.5266 -1.17086 1.54934 0
M  V30 371 C 38.6566 -1.74716 3.00153 0
M  V30 372 C 37.6106 -1.31032 4.07449 0
M  V30 373 C 36.9366 -2.56887 4.68949 0
M  V30 374 C 38.2366 -0.444183 5.20408 0
M  V30 375 H 39.9306 0.0235131 2.99391 0
M  V30 376 H 37.4766 0.0127488 1.43994 0
M  V30 377 H 39.4296 -2.3625 3.48947 0
M  V30 378 H 38.1536 -2.37035 2.24682 0
M  V30 379 H 36.8126 -0.718066 3.59499 0
M  V30 380 H 36.4606 -3.17512 3.90122 0
M  V30 381 H 36.1606 -2.2836 5.41411 0
M  V30 382 H 37.6846 -3.19229 5.20505 0
M  V30 383 H 39.0986 -0.9651 5.65118 0
M  V30 384 H 37.4956 -0.252846 5.99567 0
M  V30 385 H 38.5656 0.531609 4.81977 0
M  V30 386 N 39.9087 -1.5758 0.0250728 0
M  V30 387 C 40.8187 -2.1343 -0.973905 0
M  V30 388 C 41.8347 -1.08556 -1.35984 0
M  V30 389 O 43.0107 -1.40592 -1.44207 0
M  V30 390 C 40.0757 -2.64703 -2.23904 0
M  V30 391 C 39.1367 -3.84276 -1.91391 0
M  V30 392 C 38.3697 -4.33095 -3.11873 0
M  V30 393 O 38.5927 -3.81107 -4.24398 0
M  V30 394 O 37.5267 -5.24984 -2.94406 0
M  V30 395 H 41.3527 -2.99057 -0.529036 0
M  V30 396 H 38.9377 -1.48118 -0.195288 0
M  V30 397 H 40.8197 -2.97769 -2.98181 0
M  V30 398 H 39.4947 -1.82161 -2.6758 0
M  V30 399 H 38.4017 -3.56143 -1.14511 0
M  V30 400 H 39.7347 -4.67968 -1.52534 0
M  V30 401 N 41.3868 0.248026 -1.55636 0
M  V30 402 C 42.2968 1.32859 -1.93354 0
M  V30 403 C 43.3128 1.52719 -0.833838 0
M  V30 404 O 44.4888 1.66363 -1.13513 0
M  V30 405 C 41.5538 2.66337 -2.21958 0
M  V30 406 C 40.6148 2.55008 -3.45354 0
M  V30 407 C 39.8478 3.82121 -3.72584 0
M  V30 408 O 40.0708 4.83951 -3.01907 0
M  V30 409 O 39.0048 3.80822 -4.6611 0
M  V30 410 H 42.8308 1.03862 -2.85388 0
M  V30 411 H 40.4158 0.448686 -1.42503 0
M  V30 412 H 42.2978 3.45216 -2.4167 0
M  V30 413 H 40.9728 2.95068 -1.33103 0
M  V30 414 H 39.8798 1.7442 -3.30951 0
M  V30 415 H 41.2128 2.31222 -4.34508 0
M  V30 416 N 42.8649 1.48995 0.513639 0
M  V30 417 C 43.8119 1.6473 1.61656 0
M  V30 418 C 44.7819 0.488984 1.58739 0
M  V30 419 O 45.9669 0.714478 1.76918 0
M  V30 420 C 43.1069 1.7082 2.99858 0
M  V30 421 C 42.2199 2.9787 3.12885 0
M  V30 422 C 41.3549 2.95017 4.41744 0
M  V30 423 C 40.3939 4.16702 4.48359 0
M  V30 424 N 39.5309 4.11832 5.68629 0
M  V30 425 H 44.3709 2.58909 1.47547 0
M  V30 426 H 41.9079 1.28382 0.71808 0
M  V30 427 H 43.8659 1.72331 3.79944 0
M  V30 428 H 42.4959 0.801181 3.12699 0
M  V30 429 H 41.5479 3.06029 2.25944 0
M  V30 430 H 42.8599 3.8786 3.13633 0
M  V30 431 H 42.0139 2.95021 5.30139 0
M  V30 432 H 40.7529 2.02784 4.43542 0
M  V30 433 H 39.7579 4.16955 3.58369 0
M  V30 434 H 40.9829 5.10113 4.48287 0
M  V30 435 H 38.9289 3.22428 5.71293 0
M  V30 436 H 38.8459 4.95543 5.7094 0
M  V30 437 H 40.1139 4.1592 6.59266 0
M  V30 438 N 44.343 -0.763751 1.37857 0
M  V30 439 C 45.253 -1.90817 1.36478 0
M  V30 440 C 46.269 -1.71997 0.263248 0
M  V30 441 O 47.445 -1.95095 0.499979 0
M  V30 442 C 44.51 -3.2605 1.17864 0
M  V30 443 C 43.571 -3.57467 2.3773 0
M  V30 444 C 42.804 -4.86249 2.19995 0
M  V30 445 O 43.027 -5.57884 1.18836 0
M  V30 446 O 41.961 -5.16911 3.08361 0
M  V30 447 H 45.787 -1.94933 2.32884 0
M  V30 448 H 43.372 -0.907619 1.1867 0
M  V30 449 H 45.254 -4.06924 1.09504 0
M  V30 450 H 43.929 -3.22769 0.245372 0
M  V30 451 H 42.836 -2.76796 2.51664 0
M  V30 452 H 44.169 -3.655 3.29652 0
M  V30 453 N 45.8211 -1.22559 -0.990812 0
M  V30 454 C 46.7691 -0.994798 -2.10253 0
M  V30 455 C 47.7631 0.0627798 -1.69284 0
M  V30 456 O 48.9691 -0.0898392 -1.79776 0
M  V30 457 H 45.3441 -0.304527 -0.687581 0
M  V30 458 H 47.3151 -1.93812 -2.26891 0
M  V30 459 C 46.0641 -0.591439 -3.42633 0
M  V30 460 H 45.3871 -1.3969 -3.74602 0
M  V30 461 H 46.8271 -0.469385 -4.21394 0
M  V30 462 C 45.2861 0.699232 -3.29564 0
M  V30 463 O 45.8161 1.75112 -3.61523 0
M  V30 464 N 44.0221 0.671182 -2.82743 0
M  V30 465 H 43.5691 -0.185136 -2.56934 0
M  V30 466 H 43.5271 1.53502 -2.7438 0
M  V30 467 N 47.2992 1.18797 -1.03562 0
M  V30 468 C 48.2462 2.22253 -0.622259 0
M  V30 469 C 49.2162 1.61987 0.36736 0
M  V30 470 O 50.4012 1.88986 0.262492 0
M  V30 471 C 47.5412 3.45097 0.0138462 0
M  V30 472 C 46.6542 4.19722 -1.02263 0
M  V30 473 C 45.7892 5.30009 -0.355573 0
M  V30 474 C 44.8282 5.96399 -1.37749 0
M  V30 475 N 43.9652 6.98234 -0.735766 0
M  V30 476 H 48.8052 2.56968 -1.50903 0
M  V30 477 H 46.3422 1.26245 -0.755017 0
M  V30 478 H 48.3002 4.15279 0.399948 0
M  V30 479 H 46.9302 3.11018 0.864158 0
M  V30 480 H 45.9822 3.48418 -1.52673 0
M  V30 481 H 47.2942 4.65227 -1.79903 0
M  V30 482 H 46.4482 6.0664 0.0850095 0
M  V30 483 H 45.1872 4.85592 0.452967 0
M  V30 484 H 44.1922 5.18512 -1.82826 0
M  V30 485 H 45.4172 6.42899 -2.18764 0
M  V30 486 H 43.3632 6.55979 0.0525597 0
M  V30 487 H 43.2802 7.41965 -1.44995 0
M  V30 488 H 44.5482 7.78845 -0.31941 0
M  V30 489 N 48.7773 0.814389 1.34928 0
M  V30 490 C 49.7243 0.22822 2.29669 0
M  V30 491 C 50.6943 -0.642164 1.53184 0
M  V30 492 O 51.8793 -0.585605 1.81591 0
M  V30 493 C 49.0193 -0.61089 3.3965 0
M  V30 494 C 48.1323 0.280792 4.31086 0
M  V30 495 C 47.2673 -0.567067 5.28165 0
M  V30 496 C 46.3063 0.324531 6.11239 0
M  V30 497 N 45.4433 -0.483756 7.00431 0
M  V30 498 H 50.2833 1.04153 2.79206 0
M  V30 499 H 47.8203 0.525133 1.37407 0
M  V30 500 H 49.7783 -1.11263 4.0209 0
M  V30 501 H 48.4083 -1.38939 2.91369 0
M  V30 502 H 47.4603 0.900688 3.69583 0
M  V30 503 H 48.7723 0.966723 4.89342 0
M  V30 504 H 47.9263 -1.13363 5.96015 0
M  V30 505 H 46.6653 -1.28654 4.70425 0
M  V30 506 H 45.6703 0.903298 5.42329 0
M  V30 507 H 46.8953 1.04198 6.71059 0
M  V30 508 H 44.8413 -1.18706 6.45171 0
M  V30 509 H 44.7583 0.143965 7.55863 0
M  V30 510 H 46.0263 -1.03334 7.7262 0
M  V30 511 N 50.2554 -1.46986 0.568584 0
M  V30 512 C 51.5024 -2.02441 0.0487986 0
M  V30 513 C 51.8304 -1.44169 -1.30559 0
M  V30 514 O 51.0854 -0.591213 -1.86556 0
M  V30 515 C 51.3844 -3.57306 -0.081836 0
M  V30 516 C 51.0504 -4.34552 1.20313 0
M  V30 517 C 49.7124 -4.55376 1.5552 0
M  V30 518 C 52.0644 -4.79016 2.05411 0
M  V30 519 C 49.3924 -5.17913 2.7565 0
M  V30 520 C 51.7444 -5.42879 3.24754 0
M  V30 521 C 50.4084 -5.61933 3.60261 0
M  V30 522 H 49.6784 -0.740785 0.0178567 0
M  V30 523 H 52.3254 -1.76525 0.742384 0
M  V30 524 H 50.6304 -3.8228 -0.858463 0
M  V30 525 H 52.3274 -3.97876 -0.499546 0
M  V30 526 H 48.9174 -4.18631 0.919014 0
M  V30 527 H 53.1014 -4.62696 1.79516 0
M  V30 528 H 48.3574 -5.30858 3.03315 0
M  V30 529 H 52.5314 -5.76293 3.90973 0
M  V30 530 H 50.1584 -6.10161 4.53439 0
M  V30 531 N 51.7335 -0.305618 -1.54608 0
M  V30 532 C 53.1445 0.186098 -1.8577 0
M  V30 533 C 53.4955 1.53058 -1.22751 0
M  V30 534 O 52.6205 2.09888 -0.526893 0
M  V30 535 C 53.2155 0.344449 -3.37044 0
M  V30 536 C 51.7745 0.780384 -3.68221 0
M  V30 537 C 50.9215 -0.108554 -2.77087 0
M  V30 538 H 53.8725 -0.526485 -1.49712 0
M  V30 539 H 53.8935 1.17828 -3.61796 0
M  V30 540 H 53.4055 -0.634235 -3.82883 0
M  V30 541 H 51.5065 1.76945 -3.27904 0
M  V30 542 H 51.6195 0.596572 -4.75371 0
M  V30 543 H 49.9835 0.412931 -2.5133 0
M  V30 544 H 50.7665 -1.08368 -3.25747 0
M  V30 545 N 53.2116 1.57565 -0.0334293 0
M  V30 546 C 54.4576 1.92262 0.645226 0
M  V30 547 C 54.7906 0.910543 1.71531 0
M  V30 548 O 54.0656 -0.066099 1.94388 0
M  V30 549 C 54.3486 3.37422 1.2577 0
M  V30 550 C 54.2016 4.49369 0.196891 0
M  V30 551 C 55.5206 3.82628 2.17449 0
M  V30 552 H 52.6396 0.699171 0.233085 0
M  V30 553 H 55.2816 1.89779 -0.0915694 0
M  V30 554 H 53.4316 3.39669 1.88566 0
M  V30 555 H 55.1036 4.59254 -0.433962 0
M  V30 556 H 53.3466 4.31168 -0.477137 0
M  V30 557 H 54.0176 5.47978 0.665124 0
M  V30 558 H 56.4936 3.82145 1.64634 0
M  V30 559 H 55.3696 4.84883 2.57254 0
M  V30 560 H 55.6306 3.18376 3.0674 0
M  V30 561 N 54.6897 -0.239769 1.55765 0
M  V30 562 C 55.9367 -0.966801 1.7793 0
M  V30 563 C 56.2647 -1.85046 0.599015 0
M  V30 564 O 55.5197 -1.91197 -0.417395 0
M  V30 565 C 55.8187 -1.852 3.05672 0
M  V30 566 C 55.4847 -1.1231 4.36689 0
M  V30 567 C 54.1467 -0.921689 4.72291 0
M  V30 568 C 56.4987 -0.607019 5.17653 0
M  V30 569 C 53.8267 -0.191996 5.86386 0
M  V30 570 C 56.1787 0.109241 6.32506 0
M  V30 571 C 54.8427 0.322073 6.66723 0
M  V30 572 H 54.1127 -0.353778 0.651093 0
M  V30 573 H 56.7597 -0.23634 1.90036 0
M  V30 574 H 55.0647 -2.64975 2.8861 0
M  V30 575 H 56.7617 -2.41635 3.20021 0
M  V30 576 H 53.3517 -1.29004 4.08725 0
M  V30 577 H 57.5357 -0.750153 4.90598 0
M  V30 578 H 52.7917 -0.0166949 6.11398 0
M  V30 579 H 56.9657 0.516737 6.9448 0
M  V30 580 H 54.5927 0.88944 7.54979 0
M  V30 581 N 56.1678 -1.49265 -0.50573 0
M  V30 582 C 57.1148 -1.65585 -1.6078 0
M  V30 583 C 58.0848 -0.497396 -1.58478 0
M  V30 584 O 59.2698 -0.72385 -1.76536 0
M  V30 585 C 56.4098 -1.72408 -2.98948 0
M  V30 586 C 55.5228 -2.99525 -3.11301 0
M  V30 587 C 54.6578 -2.97356 -4.40174 0
M  V30 588 C 53.6968 -4.19074 -4.46143 0
M  V30 589 N 52.8338 -4.14841 -5.66437 0
M  V30 590 H 57.6738 -2.59688 -1.46172 0
M  V30 591 H 55.2108 -1.28761 -0.711261 0
M  V30 592 H 57.1688 -1.74344 -3.79025 0
M  V30 593 H 55.7988 -0.817753 -3.1227 0
M  V30 594 H 54.8508 -3.07222 -2.24318 0
M  V30 595 H 56.1628 -3.89518 -3.11572 0
M  V30 596 H 55.3168 -2.97829 -5.28567 0
M  V30 597 H 54.0558 -2.05133 -4.42461 0
M  V30 598 H 53.0608 -4.1885 -3.56153 0
M  V30 599 H 54.2858 -5.12483 -4.45575 0
M  V30 600 H 52.2318 -3.25453 -5.69575 0
M  V30 601 H 52.1488 -4.98564 -5.68304 0
M  V30 602 H 53.4168 -4.1941 -6.57051 0
M  V30 603 N 57.6459 0.756429 -1.3826 0
M  V30 604 C 58.6089 1.85176 -1.35065 0
M  V30 605 C 59.6089 1.58818 -0.251703 0
M  V30 606 O 60.7989 1.66615 -0.508433 0
M  V30 607 C 57.9309 3.22596 -1.10201 0
M  V30 608 H 59.1239 1.89417 -2.3251 0
M  V30 609 H 56.6769 0.95783 -1.23512 0
M  V30 610 H 57.4119 3.24025 -0.133504 0
M  V30 611 H 57.1969 3.43122 -1.89762 0
M  V30 612 H 58.6869 4.02673 -1.10654 0
M  V30 613 N 59.124 1.23083 0.984299 0
M  V30 614 C 60.37 1.06214 1.72761 0
M  V30 615 C 60.703 -0.400584 1.90024 0
M  V30 616 O 59.978 -1.29672 1.44967 0
M  V30 617 C 60.261 1.78375 3.12817 0
M  V30 618 C 60.114 3.32296 3.03149 0
M  V30 619 C 61.433 1.54309 4.12161 0
M  V30 620 H 58.552 0.387251 0.627061 0
M  V30 621 H 61.194 1.51536 1.14616 0
M  V30 622 H 59.344 1.39848 3.62457 0
M  V30 623 H 61.016 3.8032 2.61064 0
M  V30 624 H 59.259 3.6153 2.39747 0
M  V30 625 H 59.93 3.77972 4.02295 0
M  V30 626 H 62.406 1.87791 3.71314 0
M  V30 627 H 61.282 2.07281 5.08258 0
M  V30 628 H 61.543 0.477572 4.39513 0
M  V30 629 N 60.6021 -1.18246 1.0419 0
M  V30 630 C 61.8271 -1.92736 0.765996 0
M  V30 631 C 62.2521 -1.75728 -0.67091 0
M  V30 632 O 61.6101 -1.06825 -1.46486 0
M  V30 633 C 61.6581 -3.42148 1.13875 0
M  V30 634 O 60.7621 -4.11548 0.264954 0
M  V30 635 H 60.1031 -0.601238 0.281797 0
M  V30 636 H 62.6331 -1.49942 1.39207 0
M  V30 637 H 62.6431 -3.92858 1.1012 0
M  V30 638 H 61.3181 -3.53848 2.18551 0
M  V30 639 H 59.8951 -3.71137 0.362226 0
M  V30 640 N 62.0802 -0.821533 -1.34494 0
M  V30 641 C 63.3272 -0.408946 -1.98328 0
M  V30 642 C 63.6552 1.02764 -1.65136 0
M  V30 643 O 62.9102 1.73026 -0.914349 0
M  V30 644 C 63.2092 -0.556512 -3.53041 0
M  V30 645 C 62.8752 -1.95861 -4.0614 0
M  V30 646 C 61.5372 -2.34217 -4.20352 0
M  V30 647 C 63.8892 -2.87523 -4.34718 0
M  V30 648 C 61.2172 -3.63572 -4.6047 0
M  V30 649 C 63.5692 -4.1634 -4.76281 0
M  V30 650 C 62.2332 -4.54675 -4.88699 0
M  V30 651 H 61.5032 -0.149644 -0.725732 0
M  V30 652 H 64.1502 -1.04521 -1.6046 0
M  V30 653 H 62.4552 0.163148 -3.9146 0
M  V30 654 H 64.1522 -0.217826 -4.00408 0
M  V30 655 H 60.7422 -1.65066 -3.95539 0
M  V30 656 H 64.9262 -2.59133 -4.23277 0
M  V30 657 H 60.1822 -3.93101 -4.68275 0
M  V30 658 H 64.3562 -4.87455 -4.97354 0
M  V30 659 H 61.9832 -5.54959 -5.19542 0
M  V30 660 N 63.5583 1.46682 -0.576371 0
M  V30 661 C 64.5053 2.30241 0.160499 0
M  V30 662 C 65.4753 1.40233 0.890162 0
M  V30 663 O 66.6603 1.69186 0.882084 0
M  V30 664 C 63.8003 3.24578 1.1723 0
M  V30 665 C 62.9133 4.29684 0.446736 0
M  V30 666 C 62.0483 5.11154 1.44551 0
M  V30 667 C 61.0873 6.08015 0.70599 0
M  V30 668 N 60.2243 6.82376 1.65251 0
M  V30 669 H 65.0643 2.92727 -0.558127 0
M  V30 670 H 62.6013 1.44272 -0.287056 0
M  V30 671 H 64.5593 3.77711 1.77172 0
M  V30 672 H 63.1893 2.63916 1.85872 0
M  V30 673 H 62.2413 3.79458 -0.267594 0
M  V30 674 H 63.5533 4.98626 -0.131686 0
M  V30 675 H 62.7073 5.68533 2.11791 0
M  V30 676 H 61.4463 4.42158 2.05786 0
M  V30 677 H 60.4513 5.49796 0.0197725 0
M  V30 678 H 61.6763 6.79028 0.09912 0
M  V30 679 H 59.6223 6.16094 2.25308 0
M  V30 680 H 59.5393 7.47556 1.12673 0
M  V30 681 H 60.8073 7.44316 2.31546 0
M  V30 682 N 65.0364 0.313813 1.54444 0
M  V30 683 C 66.2614 -0.296681 2.05267 0
M  V30 684 C 66.6864 -1.45757 1.18897 0
M  V30 685 O 66.0444 -1.80239 0.195886 0
M  V30 686 C 66.0924 -0.71831 3.53373 0
M  V30 687 O 65.1964 -1.82175 3.69981 0
M  V30 688 H 64.5374 -0.0554061 0.661684 0
M  V30 689 H 67.0674 0.459387 1.99376 0
M  V30 690 H 67.0774 -1.00364 3.95463 0
M  V30 691 H 65.7524 0.130821 4.15694 0
M  V30 692 H 64.3294 -1.53598 3.39797 0
M  V30 693 N 66.5145 -1.57545 0.0417849 0
M  V30 694 C 67.4465 -2.07904 -0.964799 0
M  V30 695 C 68.4595 -1.00497 -1.28079 0
M  V30 696 O 69.6485 -1.28087 -1.24322 0
M  V30 697 C 66.7485 -2.49928 -2.28887 0
M  V30 698 C 65.9215 -3.80562 -2.15619 0
M  V30 699 C 64.9805 -4.08999 -3.31069 0
M  V30 700 O 64.0065 -4.79061 -3.0739 0
M  V30 701 N 65.2085 -3.6017 -4.55256 0
M  V30 702 H 67.9735 -2.94886 -0.535029 0
M  V30 703 H 65.5345 -1.61252 -0.144681 0
M  V30 704 H 67.5265 -2.66034 -3.04972 0
M  V30 705 H 66.0965 -1.68245 -2.63463 0
M  V30 706 H 65.3165 -3.74129 -1.24183 0
M  V30 707 H 66.6045 -4.66126 -2.03971 0
M  V30 708 H 66.0025 -3.03512 -4.77386 0
M  V30 709 H 64.5595 -3.81532 -5.28466 0
M  V30 710 N 67.9926 0.231505 -1.5589 0
M  V30 711 C 69.2386 0.95877 -1.78705 0
M  V30 712 C 69.5716 1.8438 -0.609725 0
M  V30 713 O 68.8466 1.90521 0.391426 0
M  V30 714 C 69.1296 1.8062 -3.11526 0
M  V30 715 C 68.9826 0.948328 -4.39689 0
M  V30 716 C 70.3016 2.78585 -3.40703 0
M  V30 717 H 67.4206 0.347129 -0.650131 0
M  V30 718 H 70.0626 0.228259 -1.88624 0
M  V30 719 H 68.2126 2.42902 -3.03201 0
M  V30 720 H 69.8846 0.343016 -4.60023 0
M  V30 721 H 68.1276 0.253314 -4.3306 0
M  V30 722 H 68.7986 1.57543 -5.29041 0
M  V30 723 H 71.2746 2.26439 -3.49091 0
M  V30 724 H 70.1506 3.34988 -4.34826 0
M  V30 725 H 70.4116 3.55825 -2.62375 0
M  V30 726 N 69.4707 1.49531 0.497807 0
M  V30 727 C 70.7167 1.59415 1.25358 0
M  V30 728 C 71.0497 0.281422 1.9215 0
M  V30 729 O 70.3247 -0.715249 1.80871 0
M  V30 730 C 70.6077 2.75566 2.3181 0
M  V30 731 C 70.4607 4.16642 1.69498 0
M  V30 732 C 71.7797 2.87347 3.33346 0
M  V30 733 H 68.8987 0.580244 0.454408 0
M  V30 734 H 71.5407 1.81827 0.551262 0
M  V30 735 H 69.6907 2.56587 2.91711 0
M  V30 736 H 71.3627 4.47145 1.13399 0
M  V30 737 H 69.6057 4.22141 0.998978 0
M  V30 738 H 70.2767 4.93792 2.46725 0
M  V30 739 H 72.7527 3.04634 2.83438 0
M  V30 740 H 71.6287 3.70289 4.05188 0
M  V30 741 H 71.8897 1.96834 3.95865 0
M  V30 742 N 70.9488 -0.749086 1.3866 0
M  V30 743 C 71.9118 -1.84457 1.36045 0
M  V30 744 C 72.9118 -1.58682 0.260122 0
M  V30 745 O 74.1018 -1.66343 0.517261 0
M  V30 746 C 71.2338 -3.22008 1.11911 0
M  V30 747 H 72.4268 -1.88182 2.33512 0
M  V30 748 H 69.9798 -0.951266 1.24019 0
M  V30 749 H 70.7148 -3.2395 0.150686 0
M  V30 750 H 70.4998 -3.42111 1.91579 0
M  V30 751 H 71.9898 -4.0208 1.12788 0
M  V30 752 N 72.4269 -1.23603 -0.977757 0
M  V30 753 C 73.6749 -1.06759 -1.71601 0
M  V30 754 C 73.9959 0.395929 -1.90938 0
M  V30 755 O 73.2659 1.28356 -1.47992 0
M  V30 756 H 71.8459 -0.392062 -0.635843 0
M  V30 757 H 74.5079 -1.55362 -1.1768 0
M  V30 758 H 73.6039 -1.55763 -2.70452 0
M  V30 759 N 73.905 1.17692 -1.04816 0
M  V30 760 C 75.133 1.91786 -0.776254 0
M  V30 761 C 75.548 1.76604 0.667577 0
M  V30 762 O 74.905 1.10067 1.45573 0
M  V30 763 C 74.956 3.42967 -1.14263 0
M  V30 764 O 74.677 3.57678 -2.52978 0
M  V30 765 C 76.178 4.34144 -0.896311 0
M  V30 766 H 73.398 0.608624 -0.282519 0
M  V30 767 H 75.942 1.49268 -1.39783 0
M  V30 768 H 74.097 3.83245 -0.565874 0
M  V30 769 H 74.511 4.51319 -2.67229 0
M  V30 770 H 75.985 5.38744 -1.20244 0
M  V30 771 H 76.462 4.38876 0.168636 0
M  V30 772 H 77.068 3.99574 -1.45672 0
M  V30 773 N 75.3831 0.828654 1.34056 0
M  V30 774 C 76.3311 0.242973 2.31327 0
M  V30 775 C 77.3251 -0.61944 1.57668 0
M  V30 776 O 78.5311 -0.51014 1.7262 0
M  V30 777 H 74.9061 0.059834 0.749616 0
M  V30 778 H 76.8771 1.07809 2.78244 0
M  V30 779 C 75.6261 -0.575733 3.429 0
M  V30 780 H 74.9491 0.0785582 3.99723 0
M  V30 781 H 76.3891 -0.951547 4.13185 0
M  V30 782 C 74.8481 -1.75044 2.87856 0
M  V30 783 O 75.3781 -2.84882 2.83205 0
M  V30 784 N 73.5841 -1.56903 2.44602 0
M  V30 785 H 73.1311 -0.675547 2.48584 0
M  V30 786 H 73.0891 -2.35652 2.08124 0
M  V30 787 N 76.8612 -1.46375 0.584142 0
M  V30 788 C 78.0912 -2.06461 0.0758195 0
M  V30 789 C 78.4992 -1.43322 -1.23512 0
M  V30 790 O 77.8422 -0.533216 -1.75791 0
M  V30 791 C 77.9042 -3.59131 -0.162773 0
M  V30 792 C 77.5682 -4.4447 1.06279 0
M  V30 793 C 78.5652 -4.80918 1.97519 0
M  V30 794 C 76.2502 -4.85584 1.28504 0
M  V30 795 C 78.2442 -5.57309 3.09331 0
M  V30 796 C 75.9312 -5.61734 2.4062 0
M  V30 797 C 76.9292 -5.9751 3.30863 0
M  V30 798 O 76.6172 -6.72121 4.41032 0
M  V30 799 H 76.3492 -0.673745 0.0551725 0
M  V30 800 H 78.9032 -1.88969 0.804984 0
M  V30 801 H 77.1332 -3.74936 -0.946565 0
M  V30 802 H 78.8222 -4.0114 -0.619782 0
M  V30 803 H 79.5882 -4.49732 1.81565 0
M  V30 804 H 75.4672 -4.57187 0.591702 0
M  V30 805 H 79.0112 -5.85152 3.79793 0
M  V30 806 H 74.9082 -5.92334 2.56537 0
M  V30 807 H 75.6762 -6.90547 4.39417 0
M  V30 808 N 78.3393 -0.321999 -1.54275 0
M  V30 809 C 79.5863 0.281044 -2.0054 0
M  V30 810 C 79.9143 1.52265 -1.21019 0
M  V30 811 O 79.1693 1.93687 -0.279982 0
M  V30 812 C 79.4683 0.661769 -3.5122 0
M  V30 813 C 79.1343 -0.480482 -4.48333 0
M  V30 814 C 77.7963 -0.794005 -4.74604 0
M  V30 815 C 80.1483 -1.24783 -5.06042 0
M  V30 816 C 77.4763 -1.87763 -5.55844 0
M  V30 817 C 79.8283 -2.32153 -5.88462 0
M  V30 818 C 78.4923 -2.64089 -6.13036 0
M  V30 819 H 77.7623 0.102841 -0.733829 0
M  V30 820 H 80.4093 -0.445453 -1.86247 0
M  V30 821 H 78.7143 1.46867 -3.63232 0
M  V30 822 H 80.4113 1.13989 -3.84457 0
M  V30 823 H 77.0013 -0.226039 -4.28004 0
M  V30 824 H 81.1853 -1.01887 -4.85729 0
M  V30 825 H 76.4413 -2.12954 -5.73115 0
M  V30 826 H 80.6153 -2.92057 -6.32199 0
M  V30 827 H 78.2423 -3.48185 -6.75775 0
M  V30 828 N 79.8174 1.5752 -0.0501392 0
M  V30 829 C 81.0664 1.91827 0.623328 0
M  V30 830 C 81.3794 0.930222 1.72065 0
M  V30 831 O 82.5854 1.1653 2.4522 0
M  V30 832 C 81.0414 3.40692 1.16003 0
M  V30 833 C 80.6494 4.479 0.0948811 0
M  V30 834 C 82.3934 3.84034 1.80881 0
M  V30 835 C 80.3004 5.87879 0.644411 0
M  V30 836 H 79.2304 0.715918 0.236596 0
M  V30 837 H 81.8814 1.83115 -0.118861 0
M  V30 838 H 80.2634 3.44405 1.9545 0
M  V30 839 H 81.4374 4.55775 -0.678675 0
M  V30 840 H 79.7524 4.13892 -0.45637 0
M  V30 841 H 82.3494 4.85984 2.22988 0
M  V30 842 H 82.6924 3.20225 2.6601 0
M  V30 843 H 83.2254 3.82833 1.0809 0
M  V30 844 H 79.9644 6.55282 -0.169229 0
M  V30 845 H 79.4844 5.83567 1.38598 0
M  V30 846 H 81.1634 6.37098 1.12763 0
M  V30 847 N 81.2955 -0.223234 1.56011 0
M  V30 848 C 82.2425 -1.27664 1.92277 0
M  V30 849 C 83.2125 -1.46659 0.779763 0
M  V30 850 O 84.3975 -1.60256 1.03551 0
M  V30 851 C 81.5375 -2.62234 2.24338 0
M  V30 852 C 80.6505 -2.51051 3.51564 0
M  V30 853 C 79.7855 -3.78133 3.7308 0
M  V30 854 C 78.8245 -3.61665 4.93827 0
M  V30 855 N 77.9615 -4.80693 5.11741 0
M  V30 856 H 82.8015 -0.960358 2.82101 0
M  V30 857 H 80.3385 -0.462901 1.39627 0
M  V30 858 H 82.2965 -3.40596 2.40936 0
M  V30 859 H 80.9265 -2.91961 1.3769 0
M  V30 860 H 79.9785 -1.64132 3.43169 0
M  V30 861 H 81.2905 -2.34803 4.40079 0
M  V30 862 H 80.4445 -4.64938 3.89766 0
M  V30 863 H 79.1835 -3.97304 2.82844 0
M  V30 864 H 78.1885 -2.73244 4.77093 0
M  V30 865 H 79.4135 -3.43966 5.85546 0
M  V30 866 H 77.3595 -5.00181 4.24446 0
M  V30 867 H 77.2765 -4.67165 5.94384 0
M  V30 868 H 78.5445 -5.6893 5.3286 0
M  V30 869 N 82.7736 -1.49793 -0.48987 0
M  V30 870 C 84.0196 -1.60078 -1.24511 0
M  V30 871 C 84.3526 -0.291608 -1.91998 0
M  V30 872 O 83.6276 0.705647 -1.81248 0
M  V30 873 C 83.9106 -2.76791 -2.30345 0
M  V30 874 C 83.7636 -4.17535 -1.67286 0
M  V30 875 C 85.0826 -2.89111 -3.31817 0
M  V30 876 H 82.2016 -0.582645 -0.451324 0
M  V30 877 H 84.8436 -1.82117 -0.541612 0
M  V30 878 H 82.9936 -2.5813 -2.90346 0
M  V30 879 H 84.6656 -4.4774 -1.11026 0
M  V30 880 H 82.9086 -4.22665 -0.976577 0
M  V30 881 H 83.5796 -4.95094 -2.44103 0
M  V30 882 H 86.0556 -3.06133 -2.81819 0
M  V30 883 H 84.9316 -3.72433 -4.03219 0
M  V30 884 H 85.1926 -1.9893 -3.94815 0
M  V30 885 N 84.2517 0.741722 -1.39055 0
M  V30 886 C 85.2017 1.84661 -1.33732 0
M  V30 887 C 86.1857 1.59397 -0.219401 0
M  V30 888 O 87.3777 1.71015 -0.456375 0
M  V30 889 C 84.5067 3.22512 -1.17647 0
M  V30 890 C 83.5927 3.53628 -2.34112 0
M  V30 891 N 83.9837 3.55723 -3.59576 0
M  V30 892 C 82.2817 3.83956 -2.26923 0
M  V30 893 C 82.9827 3.84443 -4.36553 0
M  V30 894 N 81.9587 4.01877 -3.66055 0
M  V30 895 H 85.7607 1.84576 -2.28711 0
M  V30 896 H 83.2747 0.939647 -1.32455 0
M  V30 897 H 85.2717 4.01597 -1.11917 0
M  V30 898 H 83.9317 3.2384 -0.236124 0
M  V30 899 H 84.9427 3.37196 -3.93089 0
M  V30 900 H 81.6197 3.92929 -1.41113 0
M  V30 901 H 83.0097 3.92588 -5.45274 0
M  V30 902 N 85.7298 1.2412 0.971189 0
M  V30 903 C 86.9758 1.08041 1.71625 0
M  V30 904 C 87.3088 -0.380407 1.90438 0
M  V30 905 O 86.5838 -1.28127 1.46334 0
M  V30 906 C 86.8668 1.81682 3.10908 0
M  V30 907 C 86.7198 3.35493 2.99608 0
M  V30 908 C 88.0388 1.58671 4.10501 0
M  V30 909 H 85.1578 0.39388 0.622919 0
M  V30 910 H 87.7998 1.52743 1.13003 0
M  V30 911 H 85.9498 1.43684 3.60953 0
M  V30 912 H 87.6218 3.83068 2.57015 0
M  V30 913 H 85.8648 3.64052 2.35899 0
M  V30 914 H 86.5358 3.82217 3.98264 0
M  V30 915 H 89.0118 1.91719 3.69301 0
M  V30 916 H 87.8878 2.1266 5.06031 0
M  V30 917 H 88.1488 0.524161 4.38982 0
M  V30 918 N 87.2079 -1.17134 1.05439 0
M  V30 919 C 88.4559 -1.87085 0.764429 0
M  V30 920 C 88.7769 -1.81584 -0.710787 0
M  V30 921 O 88.0469 -1.24349 -1.51374 0
M  V30 922 H 86.6269 -0.692627 0.279779 0
M  V30 923 H 89.2889 -1.42087 1.33406 0
M  V30 924 H 88.3849 -2.92759 1.0816 0
M  V30 925 N 88.686 -0.835752 -1.33615 0
M  V30 926 C 89.963 -0.352017 -1.92406 0
M  V30 927 C 90.343 1.16225 -1.76224 0
M  V30 928 O 89.691 1.97526 -1.14873 0
M  V30 929 C 89.901 -0.795485 -3.39813 0
M  V30 930 C 91.249 -0.801703 -4.16963 0
M  V30 931 O 92.273 -0.738889 -3.48452 0
M  V30 932 O 91.132 -0.886607 -5.3926 0
M  V30 933 H 88.226 -0.0989641 -0.821057 0
M  V30 934 H 90.772 -0.921397 -1.42507 0
M  V30 935 H 89.544 -1.83795 -3.45449 0
M  V30 936 H 89.167 -0.202505 -3.97084 0
M  V30 937 N 90.1641 1.46063 -0.591896 0
M  V30 938 C 91.0741 2.34192 0.13831 0
M  V30 939 C 92.0901 1.50305 0.876608 0
M  V30 940 O 93.2661 1.8315 0.837728 0
M  V30 941 C 90.3311 3.27656 1.13326 0
M  V30 942 C 89.3921 4.27445 0.39863 0
M  V30 943 C 88.6251 5.16443 1.34618 0
M  V30 944 O 88.8481 5.08553 2.58321 0
M  V30 945 O 87.7821 5.95843 0.851768 0
M  V30 946 H 91.6081 2.98002 -0.58552 0
M  V30 947 H 89.1931 1.45188 -0.352239 0
M  V30 948 H 91.0751 3.85291 1.70671 0
M  V30 949 H 89.7501 2.6643 1.83839 0
M  V30 950 H 88.6571 3.73471 -0.216895 0
M  V30 951 H 89.9901 4.91482 -0.265709 0
M  V30 952 N 91.6422 0.330177 1.54103 0
M  V30 953 C 92.9192 -0.325007 1.92881 0
M  V30 954 C 93.2992 -1.6934 1.26045 0
M  V30 955 O 92.6472 -2.24855 0.406526 0
M  V30 956 C 92.8572 -0.410634 3.46576 0
M  V30 957 C 94.2052 -0.667801 4.19316 0
M  V30 958 O 95.2292 -0.49329 3.52768 0
M  V30 959 O 94.0882 -1.00491 5.37181 0
M  V30 960 H 91.1822 -0.186873 0.80561 0
M  V30 961 H 93.7282 0.380376 1.65382 0
M  V30 962 H 92.5002 0.550164 3.87413 0
M  V30 963 H 92.1232 -1.16333 3.802 0
M  V30 964 N 93.1203 -1.57491 0.0584922 0
M  V30 965 C 94.3673 -1.92978 -0.613648 0
M  V30 966 C 94.6953 -0.937461 -1.70417 0
M  V30 967 O 93.9503 0.049078 -1.95638 0
M  V30 968 C 94.2493 -3.3513 -1.24188 0
M  V30 969 C 93.9153 -4.50037 -0.278826 0
M  V30 970 C 92.5773 -4.81198 -0.0138447 0
M  V30 971 C 94.9293 -5.19807 0.380777 0
M  V30 972 C 92.2573 -5.79473 0.918052 0
M  V30 973 C 94.6093 -6.19079 1.30091 0
M  V30 974 C 93.2733 -6.48665 1.57449 0
M  V30 975 H 92.5433 -0.706157 -0.22455 0
M  V30 976 H 95.1903 -1.91082 0.126533 0
M  V30 977 H 93.4953 -3.33429 -2.05749 0
M  V30 978 H 95.1923 -3.59871 -1.769 0
M  V30 979 H 91.7823 -4.25726 -0.495539 0
M  V30 980 H 95.9663 -4.95939 0.189158 0
M  V30 981 H 91.2223 -6.00727 1.1374 0
M  V30 982 H 95.3963 -6.7225 1.81804 0
M  V30 983 H 93.0233 -7.24628 2.29822 0
M  V30 984 N 94.5984 0.214957 -1.56127 0
M  V30 985 C 95.8444 0.939762 -1.79712 0
M  V30 986 C 96.1774 1.83723 -0.629247 0
M  V30 987 O 95.4524 1.90925 0.371197 0
M  V30 988 C 95.7354 1.77306 -3.13424 0
M  V30 989 C 95.5884 0.90164 -4.40671 0
M  V30 990 C 96.9074 2.74956 -3.43638 0
M  V30 991 H 94.0264 0.340214 -0.653776 0
M  V30 992 H 96.6684 0.20824 -1.88855 0
M  V30 993 H 94.8184 2.39673 -3.0576 0
M  V30 994 H 96.4904 0.294206 -4.60361 0
M  V30 995 H 94.7334 0.207368 -4.33304 0
M  V30 996 H 95.4044 1.51923 -5.30682 0
M  V30 997 H 97.8804 2.22724 -3.51473 0
M  V30 998 H 96.7564 3.30358 -4.38355 0
M  V30 999 H 97.0174 3.53023 -2.66134 0
M  V30 1000 N 96.0765 1.50051 0.48192 0
M  V30 1001 C 97.0265 1.64512 1.5786 0
M  V30 1002 C 98.0105 0.500073 1.52932 0
M  V30 1003 O 99.2025 0.753964 1.60139 0
M  V30 1004 C 96.3315 1.73263 2.9637 0
M  V30 1005 C 95.4175 2.93409 3.06222 0
M  V30 1006 N 95.8085 4.17236 2.85915 0
M  V30 1007 C 94.1065 2.91742 3.37346 0
M  V30 1008 C 94.8075 4.981 3.00451 0
M  V30 1009 N 93.7835 4.3184 3.30174 0
M  V30 1010 H 97.5855 2.57955 1.40842 0
M  V30 1011 H 95.0995 1.47086 0.688439 0
M  V30 1012 H 97.0965 1.81724 3.75209 0
M  V30 1013 H 95.7565 0.809711 3.14442 0
M  V30 1014 H 96.7675 4.46909 2.6171 0
M  V30 1015 H 93.4445 2.08907 3.61475 0
M  V30 1016 H 94.8345 6.06532 2.89082 0
M  V30 1017 N 97.5546 -0.734337 1.39446 0
M  V30 1018 C 98.4846 -1.86155 1.40955 0
M  V30 1019 C 99.4656 -1.67898 0.272827 0
M  V30 1020 O 100.651 -1.88207 0.478743 0
M  V30 1021 C 97.7806 -3.23912 1.25294 0
M  V30 1022 C 96.7346 -3.56808 2.36373 0
M  V30 1023 C 96.0606 -4.93508 2.058 0
M  V30 1024 C 97.3606 -3.59713 3.78687 0
M  V30 1025 H 99.0546 -1.8515 2.35287 0
M  V30 1026 H 96.6006 -0.889367 1.13253 0
M  V30 1027 H 98.5536 -4.02443 1.2497 0
M  V30 1028 H 97.2776 -3.25446 0.274308 0
M  V30 1029 H 95.9366 -2.80606 2.35914 0
M  V30 1030 H 95.5846 -4.91623 1.06374 0
M  V30 1031 H 95.2846 -5.16486 2.80208 0
M  V30 1032 H 96.8086 -5.74396 2.07128 0
M  V30 1033 H 98.2226 -4.2832 3.81071 0
M  V30 1034 H 96.6196 -3.94209 4.52459 0
M  V30 1035 H 97.6896 -2.59504 4.09617 0
M  V30 1036 N 99.0327 -1.24633 -0.964593 0
M  V30 1037 C 100.449 -1.01239 -1.2338 0
M  V30 1038 C 100.649 0.2769 -1.99588 0
M  V30 1039 O 99.7047 0.992241 -2.32187 0
M  V30 1040 C 101.018 -2.22937 -2.01791 0
M  V30 1041 C 102.566 -2.27594 -2.14872 0
M  V30 1042 C 103.041 -3.48921 -2.96678 0
M  V30 1043 N 104.532 -3.49257 -3.04259 0
M  V30 1044 C 105.267 -4.39795 -3.67924 0
M  V30 1045 N 104.763 -5.40591 -4.33281 0
M  V30 1046 N 106.556 -4.275 -3.64966 0
M  V30 1047 H 98.7067 -2.0748 -0.454502 0
M  V30 1048 H 100.97 -0.910647 -0.26349 0
M  V30 1049 H 100.676 -3.16587 -1.53184 0
M  V30 1050 H 100.55 -2.25306 -3.02518 0
M  V30 1051 H 102.937 -1.34473 -2.6268 0
M  V30 1052 H 103.018 -2.2925 -1.13482 0
M  V30 1053 H 102.662 -4.42359 -2.49562 0
M  V30 1054 H 102.592 -3.4451 -3.98272 0
M  V30 1055 H 105.083 -2.76337 -2.57771 0
M  V30 1056 H 105.396 -6.05904 -4.79687 0
M  V30 1057 H 103.741 -5.44475 -4.3194 0
M  V30 1058 H 106.932 -3.47987 -3.13086 0
M  V30 1059 H 107.105 -4.98258 -4.14298 0
M  V30 1060 N 100.511 1.16574 -1.06058 0
M  V30 1061 C 101.757 1.87324 -0.777022 0
M  V30 1062 C 102.09 1.81351 0.694645 0
M  V30 1063 O 101.365 1.22753 1.50871 0
M  V30 1064 C 101.648 3.36991 -1.26922 0
M  V30 1065 C 101.501 3.51667 -2.80447 0
M  V30 1066 C 102.82 4.3131 -0.87521 0
M  V30 1067 H 99.9388 0.680191 -0.28374 0
M  V30 1068 H 102.581 1.37036 -1.3161 0
M  V30 1069 H 100.731 3.79949 -0.81063 0
M  V30 1070 H 102.403 3.17664 -3.34495 0
M  V30 1071 H 100.646 2.93656 -3.19294 0
M  V30 1072 H 101.317 4.56766 -3.0995 0
M  V30 1073 H 103.793 3.9624 -1.27014 0
M  V30 1074 H 102.669 5.34545 -1.2471 0
M  V30 1075 H 102.93 4.41552 0.220071 0
M  V30 1076 N 101.989 0.842826 1.3317 0
M  V30 1077 C 103.236 0.440447 1.97652 0
M  V30 1078 C 103.564 -1.00123 1.6675 0
M  V30 1079 O 102.819 -1.7155 0.941761 0
M  V30 1080 C 103.118 0.612607 3.52111 0
M  V30 1081 C 102.784 2.02297 4.02972 0
M  V30 1082 C 101.446 2.40874 4.16573 0
M  V30 1083 C 103.798 2.94402 4.30089 0
M  V30 1084 C 101.126 3.70852 4.54627 0
M  V30 1085 C 103.478 4.23865 4.69597 0
M  V30 1086 C 102.142 4.62392 4.81404 0
M  V30 1087 H 101.412 0.161171 0.72326 0
M  V30 1088 H 104.059 1.07061 1.58777 0
M  V30 1089 H 102.364 -0.100849 3.9167 0
M  V30 1090 H 104.061 0.2815 4.00011 0
M  V30 1091 H 100.651 1.71338 3.92863 0
M  V30 1092 H 104.835 2.65835 4.19101 0
M  V30 1093 H 100.091 4.00501 4.61962 0
M  V30 1094 H 104.265 4.95306 4.89536 0
M  V30 1095 H 101.892 5.63154 5.10648 0
M  V30 1096 N 103.467 -1.45747 0.599634 0
M  V30 1097 C 104.399 -2.28628 -0.161879 0
M  V30 1098 C 105.412 -1.39494 -0.839367 0
M  V30 1099 O 106.601 -1.63941 -0.706089 0
M  V30 1100 C 103.701 -3.15014 -1.24976 0
M  V30 1101 C 102.874 -4.32378 -0.660935 0
M  V30 1102 C 101.933 -5.00033 -1.63869 0
M  V30 1103 O 100.959 -5.57085 -1.1681 0
M  V30 1104 N 102.161 -4.98589 -2.97303 0
M  V30 1105 H 104.926 -2.94624 0.549265 0
M  V30 1106 H 102.487 -1.55847 0.438565 0
M  V30 1107 H 104.479 -3.5714 -1.9035 0
M  V30 1108 H 103.049 -2.5098 -1.86354 0
M  V30 1109 H 102.269 -3.9383 0.170688 0
M  V30 1110 H 103.557 -5.08197 -0.247619 0
M  V30 1111 H 102.955 -4.53514 -3.38145 0
M  V30 1112 H 101.512 -5.44603 -3.58121 0
M  V30 1113 N 104.945 -0.338344 -1.53925 0
M  V30 1114 C 106.17 0.263987 -2.05713 0
M  V30 1115 C 106.595 1.43847 -1.21201 0
M  V30 1116 O 105.953 1.79904 -0.224535 0
M  V30 1117 C 106.001 0.662 -3.54471 0
M  V30 1118 O 105.105 1.76265 -3.72833 0
M  V30 1119 H 104.446 0.0448722 -0.662482 0
M  V30 1120 H 106.976 -0.491048 -1.9862 0
M  V30 1121 H 106.986 0.940594 -3.9701 0
M  V30 1122 H 105.661 -0.196937 -4.15433 0
M  V30 1123 H 104.238 1.48173 -3.42198 0
M  V30 1124 N 106.423 1.57458 -0.0668435 0
M  V30 1125 C 107.353 2.15468 0.899764 0
M  V30 1126 C 108.334 1.08042 1.31381 0
M  V30 1127 O 109.519 1.36054 1.38574 0
M  V30 1128 C 106.649 2.71232 2.16911 0
M  V30 1129 C 105.603 3.83781 1.89463 0
M  V30 1130 C 104.929 4.26127 3.22986 0
M  V30 1131 C 106.229 5.08238 1.20381 0
M  V30 1132 H 107.923 2.96488 0.416529 0
M  V30 1133 H 105.469 1.4262 0.198908 0
M  V30 1134 H 107.422 3.10458 2.84945 0
M  V30 1135 H 106.146 1.87426 2.67468 0
M  V30 1136 H 104.805 3.45051 1.23836 0
M  V30 1137 H 104.453 3.39249 3.71374 0
M  V30 1138 H 104.153 5.01993 3.05413 0
M  V30 1139 H 105.677 4.67966 3.92225 0
M  V30 1140 H 107.091 5.44811 1.78475 0
M  V30 1141 H 105.488 5.89349 1.13083 0
M  V30 1142 H 106.558 4.84558 0.182153 0
M  V30 1143 N 107.901 -0.206675 1.56239 0
M  V30 1144 C 109.312 -0.772383 1.69974 0
M  V30 1145 C 109.663 -1.84353 0.671436 0
M  V30 1146 O 108.788 -2.15695 -0.174491 0
M  V30 1147 C 109.383 -1.40779 3.08167 0
M  V30 1148 C 107.942 -1.92072 3.23706 0
M  V30 1149 C 107.089 -0.786347 2.65917 0
M  V30 1150 H 110.04 0.0182223 1.5869 0
M  V30 1151 H 110.061 -2.27696 3.04852 0
M  V30 1152 H 109.573 -0.627958 3.82986 0
M  V30 1153 H 107.674 -2.7281 2.53782 0
M  V30 1154 H 107.787 -2.09046 4.31087 0
M  V30 1155 H 106.151 -1.1976 2.24788 0
M  V30 1156 H 106.934 -0.0189416 3.43295 0
M  V30 1157 N 109.379 -1.50304 -0.473955 0
M  V30 1158 C 110.329 -1.65347 -1.56985 0
M  V30 1159 C 111.313 -0.508176 -1.52664 0
M  V30 1160 O 112.505 -0.762446 -1.59737 0
M  V30 1161 C 109.634 -1.74832 -2.95447 0
M  V30 1162 C 108.72 -2.95028 -3.04662 0
M  V30 1163 N 109.111 -4.18747 -2.83698 0
M  V30 1164 C 107.409 -2.93527 -3.35795 0
M  V30 1165 C 108.11 -4.99687 -2.97805 0
M  V30 1166 N 107.086 -4.33585 -3.2788 0
M  V30 1167 H 110.888 -2.58698 -1.39472 0
M  V30 1168 H 108.402 -1.47449 -0.680629 0
M  V30 1169 H 110.399 -1.83712 -3.7424 0
M  V30 1170 H 109.059 -0.826376 -3.14008 0
M  V30 1171 H 110.07 -4.48291 -2.59337 0
M  V30 1172 H 106.747 -2.10821 -3.60362 0
M  V30 1173 H 108.137 -6.08057 -2.85861 0
M  V30 1174 N 110.857 0.726932 -1.39834 0
M  V30 1175 C 111.767 1.87131 -1.41489 0
M  V30 1176 C 112.783 1.71239 -0.308757 0
M  V30 1177 O 113.959 1.93701 -0.551529 0
M  V30 1178 C 111.024 3.22811 -1.26468 0
M  V30 1179 C 110.085 3.51039 -2.47124 0
M  V30 1180 C 109.318 4.80245 -2.3281 0
M  V30 1181 O 109.541 5.54537 -1.33585 0
M  V30 1182 O 108.475 5.08554 -3.21957 0
M  V30 1183 H 112.301 1.8869 -2.3797 0
M  V30 1184 H 109.886 0.875837 -1.21035 0
M  V30 1185 H 111.768 4.03877 -1.20255 0
M  V30 1186 H 110.443 3.22005 -0.330862 0
M  V30 1187 H 109.35 2.70027 -2.58914 0
M  V30 1188 H 110.683 3.56632 -3.39227 0
M  V30 1189 N 112.336 1.25143 0.95797 0
M  V30 1190 C 113.284 1.05019 2.07542 0
M  V30 1191 C 114.278 -0.0178751 1.69391 0
M  V30 1192 O 115.484 0.137472 1.79474 0
M  V30 1193 H 111.859 0.32265 0.679265 0
M  V30 1194 H 113.83 1.99759 2.21673 0
M  V30 1195 C 112.579 0.682074 3.40944 0
M  V30 1196 H 111.902 1.49573 3.70767 0
M  V30 1197 H 113.342 0.580945 4.20001 0
M  V30 1198 C 111.801 -0.611608 3.31302 0
M  V30 1199 O 112.331 -1.65465 3.66038 0
M  V30 1200 N 110.537 -0.595982 2.84423 0
M  V30 1201 H 110.084 0.253192 2.56353 0
M  V30 1202 H 110.042 -1.46173 2.78354 0
M  V30 1203 N 113.814 -1.1601 1.06675 0
M  V30 1204 C 114.761 -2.20525 0.680967 0
M  V30 1205 C 115.731 -1.62904 -0.324283 0
M  V30 1206 O 116.916 -1.89615 -0.212294 0
M  V30 1207 C 114.056 -3.45013 0.0776551 0
M  V30 1208 C 113.169 -4.16863 1.13355 0
M  V30 1209 C 112.304 -5.2888 0.49597 0
M  V30 1210 C 111.343 -5.92537 1.53513 0
M  V30 1211 N 110.48 -6.96038 0.920631 0
M  V30 1212 H 115.32 -2.52876 1.57663 0
M  V30 1213 H 112.857 -1.24199 0.788223 0
M  V30 1214 H 114.815 -4.16193 -0.289704 0
M  V30 1215 H 113.445 -3.132 -0.781393 0
M  V30 1216 H 112.497 -3.44248 1.61857 0
M  V30 1217 H 113.809 -4.60294 1.92174 0
M  V30 1218 H 112.963 -6.06653 0.0758604 0
M  V30 1219 H 111.702 -4.86622 -0.324062 0
M  V30 1220 H 110.707 -5.13482 1.9651 0
M  V30 1221 H 111.932 -6.36873 2.35733 0
M  V30 1222 H 109.878 -6.55888 0.12138 0
M  V30 1223 H 109.795 -7.3786 1.64616 0
M  V30 1224 H 111.063 -7.77725 0.525795 0
M  V30 1225 N 115.292 -0.849877 -1.32721 0
M  V30 1226 C 116.703 -0.506188 -1.79707 0
M  V30 1227 C 117.054 0.975627 -1.70223 0
M  V30 1228 O 116.179 1.76078 -1.25799 0
M  V30 1229 C 116.774 -0.912044 -3.26293 0
M  V30 1230 C 115.333 -0.620326 -3.71253 0
M  V30 1231 C 114.48 -1.11439 -2.53922 0
M  V30 1232 H 117.431 -1.03754 -1.20087 0
M  V30 1233 H 117.452 -0.226493 -3.79825 0
M  V30 1234 H 116.964 -1.99057 -3.33164 0
M  V30 1235 H 115.065 0.447674 -3.69901 0
M  V30 1236 H 115.178 -1.18327 -4.64258 0
M  V30 1237 H 113.542 -0.534834 -2.49021 0
M  V30 1238 H 114.325 -2.19992 -2.6355 0
M  V30 1239 N 116.77 1.45427 -0.607355 0
M  V30 1240 C 117.7 2.3329 0.0989352 0
M  V30 1241 C 118.681 1.46816 0.859007 0
M  V30 1242 O 119.866 1.75588 0.829604 0
M  V30 1243 C 116.996 3.29518 1.09705 0
M  V30 1244 C 115.95 4.25626 0.450206 0
M  V30 1245 C 115.276 5.11542 1.55655 0
M  V30 1246 C 116.576 5.18505 -0.628455 0
M  V30 1247 H 118.27 2.92595 -0.634716 0
M  V30 1248 H 115.816 1.40696 -0.306681 0
M  V30 1249 H 117.769 3.89855 1.59971 0
M  V30 1250 H 116.493 2.68372 1.86129 0
M  V30 1251 H 115.152 3.66586 -0.0315886 0
M  V30 1252 H 114.8 4.46765 2.31107 0
M  V30 1253 H 114.5 5.76647 1.12925 0
M  V30 1254 H 116.024 5.74748 2.06148 0
M  V30 1255 H 117.438 5.72916 -0.209877 0
M  V30 1256 H 115.835 5.92085 -0.977489 0
M  V30 1257 H 116.905 4.60948 -1.50514 0
M  V30 1258 N 118.248 0.346503 1.53744 0
M  V30 1259 C 119.476 -0.25041 2.05379 0
M  V30 1260 C 119.891 -1.43979 1.22129 0
M  V30 1261 O 119.248 -1.80677 0.257321 0
M  V30 1262 C 119.299 -0.662575 3.55376 0
M  V30 1263 O 119.02 0.479515 4.35468 0
M  V30 1264 C 120.521 -1.31989 4.23195 0
M  V30 1265 H 117.741 -0.0478198 0.669294 0
M  V30 1266 H 120.285 0.499346 1.9831 0
M  V30 1267 H 118.44 -1.36227 3.62658 0
M  V30 1268 H 118.854 0.15037 5.24284 0
M  V30 1269 H 120.328 -1.55902 5.29527 0
M  V30 1270 H 120.805 -2.27436 3.75725 0
M  V30 1271 H 121.411 -0.662154 4.20114 0
M  V30 1272 N 119.726 -1.57421 0.075193 0
M  V30 1273 C 120.656 -2.15942 -0.888324 0
M  V30 1274 C 121.637 -1.08737 -1.30806 0
M  V30 1275 O 122.822 -1.36787 -1.37851 0
M  V30 1276 C 119.952 -2.72379 -2.1547 0
M  V30 1277 C 118.906 -3.8478 -1.87425 0
M  V30 1278 C 118.232 -4.27834 -3.20721 0
M  V30 1279 C 119.532 -5.08869 -1.17684 0
M  V30 1280 H 121.226 -2.96705 -0.400799 0
M  V30 1281 H 118.772 -1.42723 -0.191342 0
M  V30 1282 H 120.725 -3.11965 -2.83295 0
M  V30 1283 H 119.449 -1.88841 -2.6647 0
M  V30 1284 H 118.108 -3.45703 -1.22004 0
M  V30 1285 H 117.756 -3.41214 -3.6957 0
M  V30 1286 H 117.456 -5.03605 -3.02746 0
M  V30 1287 H 118.98 -4.70039 -3.89738 0
M  V30 1288 H 120.394 -5.4575 -1.75584 0
M  V30 1289 H 118.791 -5.8994 -1.09956 0
M  V30 1290 H 119.861 -4.84648 -0.156453 0
M  V30 1291 N 121.204 0.198386 -1.56346 0
M  V30 1292 C 122.429 0.939682 -1.84891 0
M  V30 1293 C 122.854 1.76202 -0.658369 0
M  V30 1294 O 122.212 1.76993 0.392851 0
M  V30 1295 C 122.26 1.81428 -3.11635 0
M  V30 1296 O 121.364 2.91265 -2.91956 0
M  V30 1297 H 120.705 0.264807 -0.608912 0
M  V30 1298 H 123.235 0.204695 -2.03573 0
M  V30 1299 H 123.245 2.21958 -3.42343 0
M  V30 1300 H 121.92 1.21004 -3.97908 0
M  V30 1301 H 120.497 2.54514 -2.72538 0
M  V30 1302 N 122.682 1.50554 0.465978 0
M  V30 1303 C 123.63 1.70324 1.58406 0
M  V30 1304 C 124.624 0.569139 1.59553 0
M  V30 1305 O 125.83 0.749776 1.63641 0
M  V30 1306 H 122.205 0.537688 0.525734 0
M  V30 1307 H 124.176 2.64104 1.38894 0
M  V30 1308 C 122.925 1.81928 2.96307 0
M  V30 1309 H 122.248 2.68586 2.96144 0
M  V30 1310 H 123.688 1.99784 3.73982 0
M  V30 1311 C 122.147 0.572095 3.32007 0
M  V30 1312 O 122.677 -0.286416 4.00678 0
M  V30 1313 N 120.883 0.424606 2.87481 0
M  V30 1314 H 120.43 1.12427 2.31771 0
M  V30 1315 H 120.388 -0.408697 3.11732 0
M  V30 1316 N 124.16 -0.719506 1.40217 0
M  V30 1317 C 125.39 -1.50646 1.41384 0
M  V30 1318 C 125.798 -1.89197 0.0107743 0
M  V30 1319 O 125.141 -1.55709 -0.974708 0
M  V30 1320 C 125.203 -2.81405 2.23722 0
M  V30 1321 C 124.867 -2.65199 3.72181 0
M  V30 1322 C 125.864 -2.32717 4.64907 0
M  V30 1323 C 123.549 -2.81586 4.1595 0
M  V30 1324 C 125.543 -2.16827 5.99387 0
M  V30 1325 C 123.23 -2.65313 5.50502 0
M  V30 1326 C 124.228 -2.32981 6.42035 0
M  V30 1327 O 123.916 -2.16827 7.74107 0
M  V30 1328 H 123.648 -0.471606 0.484318 0
M  V30 1329 H 126.202 -0.895456 1.84853 0
M  V30 1330 H 124.432 -3.44823 1.75026 0
M  V30 1331 H 126.121 -3.43102 2.16878 0
M  V30 1332 H 126.887 -2.19694 4.32388 0
M  V30 1333 H 122.766 -3.0574 3.45027 0
M  V30 1334 H 126.31 -1.91513 6.70797 0
M  V30 1335 H 122.207 -2.7792 5.82607 0
M  V30 1336 H 122.975 -2.31778 7.84998 0
M  V30 1337 N 125.638 -1.25649 -0.95132 0
M  V30 1338 C 126.57 -1.02112 -2.05197 0
M  V30 1339 C 127.583 0.0150571 -1.62793 0
M  V30 1340 O 128.772 -0.223874 -1.77091 0
M  V30 1341 C 125.872 -0.522361 -3.3485 0
M  V30 1342 C 125.045 -1.62546 -4.06076 0
M  V30 1343 C 124.104 -1.12649 -5.14001 0
M  V30 1344 O 123.13 -1.82156 -5.39266 0
M  V30 1345 N 124.332 0.03047 -5.80492 0
M  V30 1346 H 127.097 -1.96885 -2.25957 0
M  V30 1347 H 124.658 -1.16899 -1.1201 0
M  V30 1348 H 126.65 -0.172961 -4.0433 0
M  V30 1349 H 125.22 0.33151 -3.10837 0
M  V30 1350 H 124.44 -2.14628 -3.30649 0
M  V30 1351 H 125.728 -2.36644 -4.50419 0
M  V30 1352 H 125.126 0.611169 -5.62389 0
M  V30 1353 H 123.683 0.320875 -6.5101 0
M  V30 1354 N 127.117 1.15442 -1.07289 0
M  V30 1355 C 128.345 1.90096 -0.81676 0
M  V30 1356 C 128.76 1.7798 0.629966 0
M  V30 1357 O 128.117 1.1313 1.43206 0
M  V30 1358 C 128.168 3.40466 -1.21512 0
M  V30 1359 O 127.889 3.52232 -2.60508 0
M  V30 1360 C 129.39 4.32145 -0.988198 0
M  V30 1361 H 126.61 0.602495 -0.295366 0
M  V30 1362 H 129.154 1.4627 -1.42918 0
M  V30 1363 H 127.309 3.81958 -0.647039 0
M  V30 1364 H 127.723 4.45549 -2.76742 0
M  V30 1365 H 129.197 5.36072 -1.31645 0
M  V30 1366 H 129.674 4.39135 0.0755063 0
M  V30 1367 H 130.28 3.96395 -1.54115 0
M  V30 1368 N 128.595 0.856903 1.32268 0
M  V30 1369 C 129.543 0.291987 2.3076 0
M  V30 1370 C 130.537 -0.585857 1.58947 0
M  V30 1371 O 131.743 -0.47341 1.73663 0
M  V30 1372 H 128.118 0.075721 0.748178 0
M  V30 1373 H 130.089 1.13687 2.75895 0
M  V30 1374 C 128.838 -0.502869 3.44044 0
M  V30 1375 H 128.161 0.163328 3.99466 0
M  V30 1376 H 129.601 -0.863691 4.1511 0
M  V30 1377 C 128.06 -1.68898 2.91505 0
M  V30 1378 O 128.59 -2.78811 2.89184 0
M  V30 1379 N 126.796 -1.51679 2.47875 0
M  V30 1380 H 126.343 -0.622666 2.49961 0
M  V30 1381 H 126.301 -2.31184 2.13076 0
M  V30 1382 N 130.073 -1.45103 0.615059 0
M  V30 1383 C 131.02 -2.30586 -0.0993978 0
M  V30 1384 C 131.99 -1.42544 -0.852669 0
M  V30 1385 O 133.175 -1.71465 -0.836917 0
M  V30 1386 C 130.315 -3.27572 -1.08583 0
M  V30 1387 C 129.428 -4.30717 -0.332656 0
M  V30 1388 C 128.563 -5.14807 -1.30947 0
M  V30 1389 C 127.602 -6.09673 -0.544538 0
M  V30 1390 N 126.739 -6.86517 -1.47101 0
M  V30 1391 H 131.579 -2.91144 0.635542 0
M  V30 1392 H 129.116 -1.4346 0.325206 0
M  V30 1393 H 131.074 -3.82276 -1.67095 0
M  V30 1394 H 129.704 -2.68751 -1.78809 0
M  V30 1395 H 128.756 -3.78615 0.368107 0
M  V30 1396 H 130.068 -4.98102 0.263842 0
M  V30 1397 H 129.222 -5.73948 -1.96643 0
M  V30 1398 H 127.961 -4.47458 -1.9399 0
M  V30 1399 H 126.966 -5.49656 0.126003 0
M  V30 1400 H 128.191 -6.79052 0.080947 0
M  V30 1401 H 126.137 -6.21851 -2.08895 0
M  V30 1402 H 126.054 -7.50281 -0.928137 0
M  V30 1403 H 127.322 -7.50194 -2.11731 0
M  V30 1404 N 131.551 -0.354651 -1.53558 0
M  V30 1405 C 132.514 0.484566 -2.24019 0
M  V30 1406 C 133.514 1.01861 -1.24422 0
M  V30 1407 O 134.704 0.906097 -1.4878 0
M  V30 1408 C 131.836 1.67615 -2.96847 0
M  V30 1409 H 133.029 -0.131843 -2.9961 0
M  V30 1410 H 130.582 -0.106165 -1.55939 0
M  V30 1411 H 131.317 2.33095 -2.25471 0
M  V30 1412 H 131.102 1.30029 -3.69912 0
M  V30 1413 H 132.592 2.27114 -3.50441 0
M  V30 1414 N 133.029 1.57378 -0.0835403 0
M  V30 1415 C 133.976 2.13384 0.879539 0
M  V30 1416 C 134.946 1.04936 1.28754 0
M  V30 1417 O 136.131 1.32662 1.37133 0
M  V30 1418 C 133.271 2.70932 2.13752 0
M  V30 1419 C 132.384 3.93575 1.7811 0
M  V30 1420 C 131.519 4.39326 2.98607 0
M  V30 1421 C 130.558 5.54587 2.59037 0
M  V30 1422 N 129.695 5.95243 3.72331 0
M  V30 1423 H 134.535 2.9537 0.395076 0
M  V30 1424 H 132.072 1.45953 0.183349 0
M  V30 1425 H 134.03 3.02411 2.87408 0
M  V30 1426 H 132.66 1.91693 2.59718 0
M  V30 1427 H 131.712 3.68483 0.94469 0
M  V30 1428 H 133.024 4.77258 1.45005 0
M  V30 1429 H 132.178 4.72528 3.80529 0
M  V30 1430 H 130.917 3.5452 3.34913 0
M  V30 1431 H 129.922 5.21024 1.75539 0
M  V30 1432 H 131.147 6.41133 2.23887 0
M  V30 1433 H 129.093 5.13385 4.08378 0
M  V30 1434 H 129.01 6.73694 3.43034 0
M  V30 1435 H 130.278 6.33072 4.54797 0
M  V30 1436 N 134.507 -0.190092 1.56449 0
M  V30 1437 C 135.457 -1.23977 1.91347 0
M  V30 1438 C 136.441 -1.40747 0.779693 0
M  V30 1439 O 137.633 -1.43033 1.04262 0
M  V30 1440 C 134.762 -2.58347 2.26079 0
M  V30 1441 C 133.848 -2.4535 3.45925 0
M  V30 1442 N 134.239 -2.02039 4.63696 0
M  V30 1443 C 132.537 -2.76229 3.50162 0
M  V30 1444 C 133.238 -2.01053 5.4585 0
M  V30 1445 N 132.214 -2.42747 4.8639 0
M  V30 1446 H 136.016 -0.896318 2.79899 0
M  V30 1447 H 133.53 -0.398496 1.57435 0
M  V30 1448 H 135.527 -3.34173 2.49267 0
M  V30 1449 H 134.187 -2.93512 1.38856 0
M  V30 1450 H 135.198 -1.7267 4.88268 0
M  V30 1451 H 131.875 -3.15556 2.73369 0
M  V30 1452 H 133.265 -1.69426 6.50188 0
M  V30 1453 N 135.985 -1.50799 -0.457987 0
M  V30 1454 C 137.262 -1.52968 -1.21902 0
M  V30 1455 C 137.642 -0.281906 -2.09209 0
M  V30 1456 O 136.99 0.734076 -2.16388 0
M  V30 1457 C 137.2 -2.8326 -2.03875 0
M  V30 1458 C 138.548 -3.34425 -2.6162 0
M  V30 1459 O 139.572 -2.8467 -2.14106 0
M  V30 1460 O 138.431 -4.21188 -3.48228 0
M  V30 1461 H 135.525 -0.614129 -0.553873 0
M  V30 1462 H 138.071 -1.63098 -0.468739 0
M  V30 1463 H 136.843 -3.65543 -1.39621 0
M  V30 1464 H 136.466 -2.76195 -2.8601 0
M  V30 1465 N 137.463 0.71206 -1.40597 0
M  V30 1466 C 138.373 1.8562 -1.43466 0
M  V30 1467 C 139.389 1.70902 -0.326902 0
M  V30 1468 O 140.565 1.93105 -0.572043 0
M  V30 1469 C 137.63 3.21451 -1.29884 0
M  V30 1470 C 136.691 3.48398 -2.50833 0
M  V30 1471 C 135.924 4.77749 -2.3789 0
M  V30 1472 O 136.147 5.53089 -1.39459 0
M  V30 1473 O 135.081 5.05111 -3.27333 0
M  V30 1474 H 138.907 1.86155 -2.39958 0
M  V30 1475 H 136.492 0.86295 -1.21957 0
M  V30 1476 H 138.374 4.02579 -1.24531 0
M  V30 1477 H 137.049 3.21636 -0.364997 0
M  V30 1478 H 135.956 2.67265 -2.61763 0
M  V30 1479 H 137.289 3.53014 -3.4299 0
M  V30 1480 N 138.941 1.26152 0.944643 0
M  V30 1481 C 139.871 1.09902 2.06019 0
M  V30 1482 C 140.852 0.00519538 1.70099 0
M  V30 1483 O 142.037 0.176583 1.93396 0
M  V30 1484 C 139.167 0.727562 3.39594 0
M  V30 1485 C 138.121 1.77274 3.89561 0
M  V30 1486 C 137.447 1.25569 5.19747 0
M  V30 1487 C 138.747 3.17357 4.14827 0
M  V30 1488 H 140.441 2.03217 2.19871 0
M  V30 1489 H 137.987 0.978452 1.05652 0
M  V30 1490 H 139.94 0.600777 4.17095 0
M  V30 1491 H 138.664 -0.241287 3.25707 0
M  V30 1492 H 137.323 1.88814 3.14237 0
M  V30 1493 H 136.971 0.276783 5.02238 0
M  V30 1494 H 136.671 1.95433 5.54148 0
M  V30 1495 H 138.195 1.1415 5.99835 0
M  V30 1496 H 139.609 3.08914 4.82954 0
M  V30 1497 H 138.006 3.84781 4.60504 0
M  V30 1498 H 139.076 3.63673 3.20734 0
M  V30 1499 N 140.419 -1.14872 1.07899 0
M  V30 1500 C 141.647 -1.89661 0.82683 0
M  V30 1501 C 142.062 -1.78312 -0.620519 0
M  V30 1502 O 141.419 -1.13888 -1.42604 0
M  V30 1503 C 141.47 -3.39817 1.23316 0
M  V30 1504 O 141.191 -3.50845 2.62372 0
M  V30 1505 C 142.692 -4.31615 1.0111 0
M  V30 1506 H 139.912 -0.60092 0.298557 0
M  V30 1507 H 142.456 -1.4551 1.43691 0
M  V30 1508 H 140.611 -3.8161 0.667286 0
M  V30 1509 H 141.025 -4.44076 2.79101 0
M  V30 1510 H 142.499 -5.35367 1.34486 0
M  V30 1511 H 142.976 -4.39169 -0.0522168 0
M  V30 1512 H 143.582 -3.95572 1.56215 0
M  V30 1513 N 141.898 -0.863906 -1.31812 0
M  V30 1514 C 143.128 -0.485406 -2.00817 0
M  V30 1515 C 143.536 0.925007 -1.65046 0
M  V30 1516 O 142.879 1.61653 -0.872574 0
M  V30 1517 C 142.941 -0.555589 -3.55181 0
M  V30 1518 C 142.605 -1.92654 -4.14407 0
M  V30 1519 C 143.602 -2.89324 -4.31958 0
M  V30 1520 C 141.287 -2.2262 -4.50273 0
M  V30 1521 C 143.281 -4.14108 -4.84555 0
M  V30 1522 C 140.968 -3.47654 -5.02573 0
M  V30 1523 C 141.966 -4.43214 -5.19664 0
M  V30 1524 O 141.654 -5.66033 -5.70843 0
M  V30 1525 H 141.386 -0.188224 -0.649267 0
M  V30 1526 H 143.94 -1.16514 -1.69156 0
M  V30 1527 H 142.17 0.181037 -3.86276 0
M  V30 1528 H 143.859 -0.19138 -4.05449 0
M  V30 1529 H 144.625 -2.6748 -4.04573 0
M  V30 1530 H 140.504 -1.4902 -4.3625 0
M  V30 1531 H 144.048 -4.88703 -4.9781 0
M  V30 1532 H 139.945 -3.69345 -5.29391 0
M  V30 1533 H 140.713 -5.6812 -5.89222 0
M  V30 1534 N 143.376 1.44774 -0.622745 0
M  V30 1535 C 144.623 2.02121 -0.1239 0
M  V30 1536 C 144.951 1.48915 1.25118 0
M  V30 1537 O 144.206 0.660045 1.84233 0
M  V30 1538 C 144.505 3.57364 -0.0508323 0
M  V30 1539 C 144.171 4.29787 -1.36358 0
M  V30 1540 C 142.833 4.4929 -1.72314 0
M  V30 1541 C 145.185 4.71062 -2.23048 0
M  V30 1542 C 142.513 5.07325 -2.94682 0
M  V30 1543 C 144.865 5.30452 -3.44679 0
M  V30 1544 C 143.529 5.48175 -3.80868 0
M  V30 1545 H 142.799 0.739612 -0.0453381 0
M  V30 1546 H 145.446 1.73648 -0.807389 0
M  V30 1547 H 143.751 3.85202 0.715991 0
M  V30 1548 H 145.448 3.99456 0.351533 0
M  V30 1549 H 142.038 4.14932 -1.07375 0
M  V30 1550 H 146.222 4.55715 -1.96565 0
M  V30 1551 H 141.478 5.19235 -3.22809 0
M  V30 1552 H 145.652 5.61385 -4.12092 0
M  V30 1553 H 143.279 5.92912 -4.75773 0
M  V30 1554 O 144.893 0.504988 1.53402 0
M  V30 1555 H 145.584 -0.0115839 1.93697 0
M  V30 END ATOM
M  V30 BEGIN BOND
M  V30 END BOND
M  V30 END CTAB
M  END
$$$$
