drugbank_target|P04070 Vitamin K-dependent protein C (DB00170; DB00464; DB09131; DB09332; DB13149)
 OpenBabel12092119303D

  0  0  0     0  0            999 V3000
M  V30 BEGIN CTAB
M  V30 COUNTS 7194 7284 0 0 0
M  V30 BEGIN ATOM
M  V30 1 H -0.908 1.98254 -0.117106 0
M  V30 2 N 0 1.576 0 0
M  V30 3 C 0.933 2.03868 1.02534 0
M  V30 4 C 1.911 0.928543 1.3348 0
M  V30 5 O 3.095 1.19667 1.45644 0
M  V30 6 C 0.222 2.43627 2.35294 0
M  V30 7 C -0.732 3.65373 2.2001 0
M  V30 8 S 0.101 5.13292 1.52614 0
M  V30 9 C 1.257 5.56322 2.86805 0
M  V30 10 H 1.49 2.90518 0.631377 0
M  V30 11 H -0.977 1.52953 0.210867 0
M  V30 12 H 0.981 2.67203 3.11629 0
M  V30 13 H -0.358 1.57376 2.7183 0
M  V30 14 H -1.165 3.90944 3.18086 0
M  V30 15 H -1.563 3.418 1.51819 0
M  V30 16 H 0.729 5.58782 3.83104 0
M  V30 17 H 1.672 6.56266 2.65933 0
M  V30 18 H 2.08 4.83886 2.90714 0
M  V30 19 N 1.4781 -0.272755 1.55222 0
M  V30 20 C 2.7241 -1.00172 1.77023 0
M  V30 21 C 3.0791 -1.83928 0.564633 0
M  V30 22 O 2.3721 -1.86416 -0.442674 0
M  V30 23 C 2.5661 -1.91642 3.01675 0
M  V30 24 C 2.3951 -1.16888 4.34243 0
M  V30 25 C 1.1651 -0.884464 4.97499 0
M  V30 26 C 3.3631 -0.55919 5.11251 0
M  V30 27 N 1.3451 -0.11015 6.13801 0
M  V30 28 C 2.7161 0.0809469 6.19947 0
M  V30 29 C 4.7711 -0.467058 4.95705 0
M  V30 30 C 3.4741 0.804335 7.14789 0
M  V30 31 C 5.5001 0.242739 5.90902 0
M  V30 32 C 4.8621 0.871613 6.98987 0
M  V30 33 H 0.9611 -0.348529 0.700037 0
M  V30 34 H 3.5451 -0.277365 1.92714 0
M  V30 35 H 1.7161 -2.61303 2.87359 0
M  V30 36 H 3.4481 -2.57901 3.1188 0
M  V30 37 H 0.2031 -1.18979 4.58411 0
M  V30 38 H 0.6271 0.264344 6.76484 0
M  V30 39 H 5.2691 -0.93894 4.12242 0
M  V30 40 H 2.9871 1.2879 7.97771 0
M  V30 41 H 6.5731 0.314347 5.8095 0
M  V30 42 H 5.4531 1.4121 7.71381 0
M  V30 43 N 2.9562 -1.48159 -0.537278 0
M  V30 44 C 3.8882 -1.58218 -1.65831 0
M  V30 45 C 4.9012 -0.466948 -1.5596 0
M  V30 46 O 6.0902 -0.73747 -1.62553 0
M  V30 47 C 3.1902 -1.48906 -3.04434 0
M  V30 48 C 2.3632 -2.75343 -3.3986 0
M  V30 49 C 1.4222 -2.59588 -4.57712 0
M  V30 50 O 0.4482 -3.33457 -4.61297 0
M  V30 51 N 1.6502 -1.68724 -5.55439 0
M  V30 52 H 4.4152 -2.54891 -1.57641 0
M  V30 53 H 1.9762 -1.4479 -0.724386 0
M  V30 54 H 3.9682 -1.36072 -3.81139 0
M  V30 55 H 2.5382 -0.602368 -3.06741 0
M  V30 56 H 1.7582 -3.02795 -2.52406 0
M  V30 57 H 3.0462 -3.5924 -3.60311 0
M  V30 58 H 2.4442 -1.07898 -5.55315 0
M  V30 59 H 1.0012 -1.61832 -6.3139 0
M  V30 60 N 4.4343 0.785586 -1.36625 0
M  V30 61 C 5.3643 1.91259 -1.33949 0
M  V30 62 C 6.3453 1.68795 -0.210325 0
M  V30 63 O 7.5303 1.89854 -0.408561 0
M  V30 64 C 4.6603 3.28339 -1.13186 0
M  V30 65 C 3.6143 3.65335 -2.22967 0
M  V30 66 C 2.9403 5.00806 -1.87342 0
M  V30 67 C 4.2403 3.7352 -3.65075 0
M  V30 68 H 5.9343 1.93755 -2.28253 0
M  V30 69 H 3.4803 0.930788 -1.09874 0
M  V30 70 H 5.4333 4.06804 -1.09948 0
M  V30 71 H 4.1573 3.2624 -0.153332 0
M  V30 72 H 2.8163 2.89169 -2.25337 0
M  V30 73 H 2.4643 4.95233 -0.880545 0
M  V30 74 H 2.1643 5.26529 -2.60846 0
M  V30 75 H 3.6883 5.81687 -1.85667 0
M  V30 76 H 5.1023 4.42168 -3.64911 0
M  V30 77 H 3.4993 4.10731 -4.37516 0
M  V30 78 H 4.5693 2.74527 -3.99703 0
M  V30 79 N 5.9124 1.20967 1.01018 0
M  V30 80 C 7.1404 1.04956 1.78303 0
M  V30 81 C 7.5554 -0.400915 1.84494 0
M  V30 82 O 6.9124 -1.27826 1.30257 0
M  V30 83 C 6.9634 1.63403 3.22462 0
M  V30 84 O 6.6844 3.02775 3.16637 0
M  V30 85 C 8.1854 1.52432 4.16268 0
M  V30 86 H 5.4054 0.368858 0.560522 0
M  V30 87 H 7.9494 1.60193 1.27116 0
M  V30 88 H 6.1044 1.1227 3.70775 0
M  V30 89 H 6.5184 3.30626 4.07169 0
M  V30 90 H 7.9924 1.98078 5.15237 0
M  V30 91 H 8.4694 0.477875 4.36592 0
M  V30 92 H 9.0754 2.02787 3.73841 0
M  V30 93 N 7.3905 -1.2043 1.01659 0
M  V30 94 C 8.6155 -1.94318 0.724942 0
M  V30 95 C 9.0405 -1.74266 -0.708034 0
M  V30 96 O 8.3985 -1.03694 -1.48719 0
M  V30 97 C 8.4465 -3.44486 1.06591 0
M  V30 98 O 7.5505 -4.12017 0.177599 0
M  V30 99 H 6.8915 -0.60708 0.26898 0
M  V30 100 H 9.4215 -1.52861 1.35995 0
M  V30 101 H 9.4315 -3.95106 1.01762 0
M  V30 102 H 8.1065 -3.58404 2.10997 0
M  V30 103 H 6.6835 -3.71821 0.283421 0
M  V30 104 N 8.8686 -0.792821 -1.36206 0
M  V30 105 C 9.7986 -0.207853 -2.32573 0
M  V30 106 C 10.7796 0.659055 -1.56813 0
M  V30 107 O 11.9646 0.592176 -1.84951 0
M  V30 108 C 9.0946 0.655449 -3.41059 0
M  V30 109 C 8.0486 -0.111842 -4.27854 0
M  V30 110 C 7.3746 0.872274 -5.27537 0
M  V30 111 C 8.6746 -1.30299 -5.05786 0
M  V30 112 H 10.3686 -1.01294 -2.81744 0
M  V30 113 H 7.9146 -0.48854 -1.3546 0
M  V30 114 H 9.8676 1.07464 -4.07467 0
M  V30 115 H 8.5916 1.49328 -2.90463 0
M  V30 116 H 7.2506 -0.512053 -3.63006 0
M  V30 117 H 6.8986 1.70523 -4.73214 0
M  V30 118 H 6.5986 0.363291 -5.86476 0
M  V30 119 H 8.1226 1.28996 -5.96818 0
M  V30 120 H 9.5366 -0.959379 -5.65216 0
M  V30 121 H 7.9336 -1.7455 -5.74154 0
M  V30 122 H 9.0036 -2.09663 -4.37229 0
M  V30 123 N 10.3467 1.47872 -0.545128 0
M  V30 124 C 11.2767 2.32661 0.197793 0
M  V30 125 C 12.2577 1.43041 0.920504 0
M  V30 126 O 13.4427 1.71912 0.90333 0
M  V30 127 C 10.5727 3.24569 1.23582 0
M  V30 128 C 9.5267 4.23333 0.630323 0
M  V30 129 C 8.8527 5.0448 1.77211 0
M  V30 130 C 10.1527 5.20704 -0.407974 0
M  V30 131 H 11.8467 2.95024 -0.510045 0
M  V30 132 H 9.3927 1.4187 -0.246731 0
M  V30 133 H 11.3457 3.8272 1.76362 0
M  V30 134 H 10.0697 2.60236 1.97344 0
M  V30 135 H 8.7287 3.6639 0.123922 0
M  V30 136 H 8.3767 4.36561 2.49847 0
M  V30 137 H 8.0767 5.71339 1.37281 0
M  V30 138 H 9.6007 5.65487 2.3034 0
M  V30 139 H 11.0147 5.7329 0.033305 0
M  V30 140 H 9.4117 5.95699 -0.725486 0
M  V30 141 H 10.4817 4.66917 -1.30828 0
M  V30 142 N 11.8248 0.280983 1.55075 0
M  V30 143 C 12.7548 -0.597469 2.25727 0
M  V30 144 C 13.7358 -1.15417 1.24952 0
M  V30 145 O 14.9208 -1.18722 1.53684 0
M  V30 146 C 12.0508 -1.7789 2.98283 0
M  V30 147 C 11.0048 -1.35347 4.06036 0
M  V30 148 C 10.3308 -2.61846 4.66198 0
M  V30 149 C 11.6308 -0.499354 5.19907 0
M  V30 150 H 13.3248 -0.00824265 2.99399 0
M  V30 151 H 10.8708 -0.0025244 1.44 0
M  V30 152 H 12.8238 -2.39937 3.46422 0
M  V30 153 H 11.5478 -2.39405 2.22155 0
M  V30 154 H 10.2068 -0.756156 3.58717 0
M  V30 155 H 9.8548 -3.21632 3.86732 0
M  V30 156 H 9.5548 -2.3409 5.38958 0
M  V30 157 H 11.0788 -3.24732 5.1709 0
M  V30 158 H 12.4928 -1.02498 5.64063 0
M  V30 159 H 10.8898 -0.316424 5.99265 0
M  V30 160 H 11.9598 0.480459 4.82514 0
M  V30 161 N 13.3029 -1.57598 0.00835791 0
M  V30 162 C 14.5499 -1.90928 -0.674732 0
M  V30 163 C 14.8779 -0.88277 -1.73313 0
M  V30 164 O 14.1329 0.111294 -1.95383 0
M  V30 165 C 14.4319 -3.3101 -1.34787 0
M  V30 166 C 14.0979 -4.48922 -0.421861 0
M  V30 167 C 12.7599 -4.8091 -0.166927 0
M  V30 168 C 15.1119 -5.20755 0.215211 0
M  V30 169 C 12.4399 -5.821 0.733232 0
M  V30 170 C 14.7919 -6.22905 1.1033 0
M  V30 171 C 13.4559 -6.53346 1.36733 0
M  V30 172 H 12.7259 -0.698656 -0.246902 0
M  V30 173 H 15.3729 -1.91387 0.0656779 0
M  V30 174 H 13.6779 -3.26714 -2.16253 0
M  V30 175 H 15.3749 -3.54061 -1.8826 0
M  V30 176 H 11.9649 -4.23934 -0.630729 0
M  V30 177 H 16.1489 -4.9629 0.0312829 0
M  V30 178 H 11.4049 -6.04042 0.945712 0
M  V30 179 H 15.5789 -6.77694 1.60325 0
M  V30 180 H 13.2059 -7.31573 2.06652 0
M  V30 181 N 14.781 0.264519 -1.55364 0
M  V30 182 C 16.027 0.99646 -1.76631 0
M  V30 183 C 16.36 1.85632 -0.570478 0
M  V30 184 O 15.635 1.89647 0.43175 0
M  V30 185 C 15.918 1.87187 -3.07625 0
M  V30 186 C 15.771 1.04138 -4.37579 0
M  V30 187 C 17.09 2.85749 -3.34717 0
M  V30 188 H 14.209 0.360841 -0.642622 0
M  V30 189 H 16.851 0.268218 -1.88097 0
M  V30 190 H 15.001 2.49279 -2.9798 0
M  V30 191 H 16.673 0.440517 -4.59192 0
M  V30 192 H 14.916 0.345115 -4.32425 0
M  V30 193 H 15.587 1.68729 -5.2558 0
M  V30 194 H 18.063 2.33793 -3.4421 0
M  V30 195 H 16.939 3.44136 -4.27623 0
M  V30 196 H 17.2 3.61311 -2.54768 0
M  V30 197 N 16.2591 1.48442 0.529413 0
M  V30 198 C 17.2221 1.62524 1.61612 0
M  V30 199 C 18.2221 0.498509 1.52877 0
M  V30 200 O 19.4121 0.76431 1.56537 0
M  V30 201 C 16.5441 1.59597 3.01233 0
M  V30 202 H 17.7371 2.59423 1.50465 0
M  V30 203 H 15.2901 1.37047 0.751514 0
M  V30 204 H 16.0251 0.641781 3.17886 0
M  V30 205 H 15.8101 2.41397 3.08982 0
M  V30 206 H 17.3001 1.72646 3.80241 0
M  V30 207 N 17.7372 -0.778329 1.37039 0
M  V30 208 C 18.9652 -1.56734 1.35063 0
M  V30 209 C 19.3802 -1.88686 -0.0655597 0
M  V30 210 O 18.7372 -1.5096 -1.02554 0
M  V30 211 C 18.7882 -2.88163 2.18276 0
M  V30 212 O 18.5092 -2.57583 3.54376 0
M  V30 213 C 20.0102 -3.82422 2.24206 0
M  V30 214 H 17.2302 -0.485778 0.462883 0
M  V30 215 H 19.7742 -0.965185 1.8029 0
M  V30 216 H 17.9292 -3.44818 1.76576 0
M  V30 217 H 18.3432 -3.41699 3.97922 0
M  V30 218 H 19.8172 -4.71667 2.86765 0
M  V30 219 H 20.2942 -4.21078 1.24861 0
M  V30 220 H 20.9002 -3.31697 2.6619 0
M  V30 221 N 19.2153 -1.21501 -1.00376 0
M  V30 222 C 20.4613 -1.04457 -1.74529 0
M  V30 223 C 20.8163 0.417386 -1.87818 0
M  V30 224 O 20.1093 1.30556 -1.40234 0
M  V30 225 C 20.3033 -1.67673 -3.15627 0
M  V30 226 C 20.1323 -3.19865 -3.16096 0
M  V30 227 C 18.9023 -3.88915 -3.22604 0
M  V30 228 C 21.1003 -4.16936 -3.01112 0
M  V30 229 N 19.0823 -5.28284 -3.12712 0
M  V30 230 C 20.4533 -5.43066 -2.99131 0
M  V30 231 C 22.5083 -4.07968 -2.85423 0
M  V30 232 C 21.2113 -6.6126 -2.83068 0
M  V30 233 C 23.2373 -5.258 -2.70718 0
M  V30 234 C 22.5993 -6.50842 -2.69414 0
M  V30 235 H 18.6983 -0.436584 -0.648782 0
M  V30 236 H 21.2823 -1.53875 -1.19293 0
M  V30 237 H 19.4533 -1.20822 -3.6913 0
M  V30 238 H 21.1853 -1.43824 -3.78281 0
M  V30 239 H 17.9403 -3.39847 -3.2985 0
M  V30 240 H 18.3643 -6.01284 -3.11105 0
M  V30 241 H 23.0063 -3.1209 -2.85236 0
M  V30 242 H 20.7243 -7.57298 -2.82002 0
M  V30 243 H 24.3103 -5.20683 -2.59577 0
M  V30 244 H 23.1903 -7.40485 -2.5817 0
M  V30 245 N 20.6934 1.19889 -1.02296 0
M  V30 246 C 21.9414 1.89046 -0.714558 0
M  V30 247 C 22.2624 1.79636 0.758681 0
M  V30 248 O 21.5324 1.20292 1.54618 0
M  V30 249 H 20.1124 0.699802 -0.261317 0
M  V30 250 H 22.7744 1.45574 -1.29592 0
M  V30 251 H 21.8704 2.95524 -1.0036 0
M  V30 252 N 22.1715 0.800033 1.35784 0
M  V30 253 C 23.4205 0.37387 1.98205 0
M  V30 254 C 23.7335 -1.06302 1.64193 0
M  V30 255 O 24.9395 -1.59198 2.19928 0
M  V30 256 C 23.3955 0.617532 3.54562 0
M  V30 257 C 23.0035 2.06654 3.9749 0
M  V30 258 C 24.7475 0.256401 4.23725 0
M  V30 259 C 22.6545 2.2563 5.46667 0
M  V30 260 H 21.5845 0.136055 0.741623 0
M  V30 261 H 24.2355 0.983166 1.54939 0
M  V30 262 H 22.6175 -0.0616248 3.95952 0
M  V30 263 H 23.7915 2.78296 3.67271 0
M  V30 264 H 22.1065 2.38691 3.41197 0
M  V30 265 H 24.7035 0.376318 5.33374 0
M  V30 266 H 25.0465 -0.796692 4.08606 0
M  V30 267 H 25.5795 0.889214 3.87734 0
M  V30 268 H 22.3185 3.2936 5.66747 0
M  V30 269 H 21.8385 1.58504 5.78478 0
M  V30 270 H 23.5175 2.06861 6.1304 0
M  V30 271 N 23.6496 -1.47581 0.552962 0
M  V30 272 C 24.8746 -2.07378 0.0300593 0
M  V30 273 C 25.2996 -1.40355 -1.25229 0
M  V30 274 O 24.6576 -0.477099 -1.7491 0
M  V30 275 C 24.7056 -3.60274 -0.153231 0
M  V30 276 O 23.8096 -3.94041 -1.21678 0
M  V30 277 H 23.1506 -0.662158 0.0494182 0
M  V30 278 H 25.6806 -1.89662 0.767434 0
M  V30 279 H 25.6906 -4.0633 -0.368761 0
M  V30 280 H 24.3656 -4.08455 0.783397 0
M  V30 281 H 22.9426 -3.59735 -0.982079 0
M  V30 282 N 25.1277 -0.289203 -1.54924 0
M  V30 283 C 26.3757 0.322879 -1.99504 0
M  V30 284 C 26.6967 1.55313 -1.1791 0
M  V30 285 O 25.9667 1.94001 -0.272097 0
M  V30 286 H 24.5467 0.122291 -0.736922 0
M  V30 287 H 27.2087 -0.397802 -1.90797 0
M  V30 288 H 26.3047 0.603061 -3.06218 0
M  V30 289 N 26.6058 1.57591 -0.0167156 0
M  V30 290 C 27.8338 1.95575 0.675128 0
M  V30 291 C 28.2488 0.892542 1.6637 0
M  V30 292 O 27.6058 -0.126912 1.82058 0
M  V30 293 C 27.6568 3.33608 1.39239 0
M  V30 294 O 27.3778 4.3585 0.443444 0
M  V30 295 C 28.8788 3.86151 2.17721 0
M  V30 296 H 26.0988 0.644423 0.186978 0
M  V30 297 H 28.6428 2.0437 -0.0728 0
M  V30 298 H 26.7978 3.2607 2.09182 0
M  V30 299 H 27.2118 5.158 0.951358 0
M  V30 300 H 28.6858 4.85114 2.63379 0
M  V30 301 H 29.1628 3.19738 3.01105 0
M  V30 302 H 29.7688 3.96918 1.52761 0
M  V30 303 N 28.0839 -0.256276 1.55502 0
M  V30 304 C 29.4949 -0.826068 1.67431 0
M  V30 305 C 29.8459 -1.86396 0.612446 0
M  V30 306 O 28.9709 -2.15031 -0.243025 0
M  V30 307 C 29.5659 -1.50512 3.03532 0
M  V30 308 C 28.1249 -2.02273 3.17431 0
M  V30 309 C 27.2719 -0.870548 2.63281 0
M  V30 310 H 30.2229 -0.0322728 1.58667 0
M  V30 311 H 30.2439 -2.37279 2.97454 0
M  V30 312 H 29.7559 -0.749484 3.80794 0
M  V30 313 H 27.8569 -2.80746 2.44974 0
M  V30 314 H 27.9699 -2.22655 4.24219 0
M  V30 315 H 26.3339 -1.26851 2.20864 0
M  V30 316 H 27.1169 -0.128149 3.43061 0
M  V30 317 N 29.562 -1.4872 -0.521534 0
M  V30 318 C 30.525 -1.63379 -1.60748 0
M  V30 319 C 31.525 -0.50661 -1.52611 0
M  V30 320 O 32.715 -0.772601 -1.5613 0
M  V30 321 C 29.847 -1.61192 -3.00383 0
M  V30 322 H 31.04 -2.60217 -1.49087 0
M  V30 323 H 28.593 -1.37444 -0.744235 0
M  V30 324 H 29.328 -0.65863 -3.17541 0
M  V30 325 H 29.113 -2.43032 -3.07698 0
M  V30 326 H 30.603 -1.7466 -3.7932 0
M  V30 327 N 31.0401 0.771051 -1.3745 0
M  V30 328 C 32.4511 1.34737 -1.29239 0
M  V30 329 C 32.8021 1.96109 0.0596908 0
M  V30 330 O 31.9271 1.93865 0.961534 0
M  V30 331 C 32.5221 2.44973 -2.34037 0
M  V30 332 C 31.0811 2.98372 -2.29458 0
M  V30 333 C 30.2281 1.71595 -2.17831 0
M  V30 334 H 33.1791 0.571256 -1.48062 0
M  V30 335 H 33.2001 3.24471 -1.98744 0
M  V30 336 H 32.7121 2.00276 -3.32432 0
M  V30 337 H 30.8131 3.47443 -1.34589 0
M  V30 338 H 30.9261 3.53939 -3.229 0
M  V30 339 H 29.2901 1.94547 -1.64388 0
M  V30 340 H 30.0731 1.29001 -3.18141 0
M  V30 341 N 32.5182 1.22032 0.997298 0
M  V30 342 C 33.4482 1.01065 2.10495 0
M  V30 343 C 34.4292 -0.0669542 1.69968 0
M  V30 344 O 35.6142 0.0943987 1.9397 0
M  V30 345 C 32.7442 0.582874 3.42374 0
M  V30 346 C 31.6982 1.60592 3.96729 0
M  V30 347 C 31.0242 1.03412 5.24605 0
M  V30 348 C 32.3242 2.99478 4.27914 0
M  V30 349 H 34.0182 1.93708 2.28292 0
M  V30 350 H 31.5642 0.932761 1.09707 0
M  V30 351 H 33.5172 0.423332 4.19268 0
M  V30 352 H 32.2412 -0.379213 3.24391 0
M  V30 353 H 30.9002 1.75316 3.21963 0
M  V30 354 H 30.5482 0.063518 5.0296 0
M  V30 355 H 30.2482 1.71754 5.61938 0
M  V30 356 H 31.7722 0.886066 6.04137 0
M  V30 357 H 33.1862 2.88153 4.95622 0
M  V30 358 H 31.5832 3.64903 4.76409 0
M  V30 359 H 32.6532 3.49742 3.3587 0
M  V30 360 N 33.9963 -1.19345 1.0293 0
M  V30 361 C 35.2733 -1.84811 0.640642 0
M  V30 362 C 35.6533 -1.91855 -0.88062 0
M  V30 363 O 35.0013 -1.43587 -1.7775 0
M  V30 364 C 35.2113 -3.23755 1.30321 0
M  V30 365 C 36.5593 -3.99912 1.42673 0
M  V30 366 O 37.5833 -3.33155 1.26041 0
M  V30 367 O 36.4423 -5.19494 1.6967 0
M  V30 368 H 33.5363 -0.796443 0.222726 0
M  V30 369 H 36.0823 -1.26831 1.12748 0
M  V30 370 H 34.8543 -3.13466 2.34211 0
M  V30 371 H 34.4773 -3.89381 0.804261 0
M  V30 372 N 35.4744 -0.807222 -1.35358 0
M  V30 373 C 36.6994 -0.399309 -2.0352 0
M  V30 374 C 37.1244 0.981986 -1.60433 0
M  V30 375 O 36.4824 1.63601 -0.781299 0
M  V30 376 C 36.5304 -0.491552 -3.57234 0
M  V30 377 O 35.6344 0.494754 -4.09421 0
M  V30 378 H 34.9754 -0.166682 -0.642739 0
M  V30 379 H 37.5054 -1.09328 -1.72941 0
M  V30 380 H 37.5154 -0.361588 -4.06395 0
M  V30 381 H 36.1904 -1.49907 -3.87944 0
M  V30 382 H 34.7674 0.324977 -3.71481 0
M  V30 383 N 36.9525 1.47285 -0.560781 0
M  V30 384 C 38.1985 2.02764 -0.0381184 0
M  V30 385 C 38.5315 1.43384 1.30976 0
M  V30 386 O 37.8065 0.590733 1.85312 0
M  V30 387 C 38.0895 3.60064 0.0511427 0
M  V30 388 C 37.9425 4.2987 -1.32408 0
M  V30 389 C 39.2615 4.33439 0.762795 0
M  V30 390 H 36.3805 0.736841 -0.0153264 0
M  V30 391 H 39.0225 1.75675 -0.723759 0
M  V30 392 H 37.1725 3.83274 0.635065 0
M  V30 393 H 38.8445 4.17989 -1.95148 0
M  V30 394 H 37.0875 3.90085 -1.8978 0
M  V30 395 H 37.7585 5.38478 -1.21431 0
M  V30 396 H 40.2345 4.15243 0.266965 0
M  V30 397 H 39.1105 5.43124 0.794221 0
M  V30 398 H 39.3715 4.02915 1.81966 0
M  V30 399 N 38.4306 0.297415 1.54768 0
M  V30 400 C 39.6776 -0.312913 2.00068 0
M  V30 401 C 40.0056 -1.54171 1.18582 0
M  V30 402 O 39.2606 -1.94108 0.249133 0
M  V30 403 C 39.5596 -0.717561 3.50123 0
M  V30 404 C 39.2256 0.409095 4.4904 0
M  V30 405 C 37.8876 0.718399 4.75807 0
M  V30 406 C 40.2396 1.16717 5.07963 0
M  V30 407 C 37.5676 1.78896 5.5876 0
M  V30 408 C 39.9196 2.22762 5.92081 0
M  V30 409 C 38.5836 2.54303 6.1716 0
M  V30 410 H 37.8536 -0.114503 0.7321 0
M  V30 411 H 40.5006 0.415767 1.86932 0
M  V30 412 H 38.8056 -1.52627 3.60849 0
M  V30 413 H 40.5026 -1.20091 3.82595 0
M  V30 414 H 37.0926 0.157918 4.28309 0
M  V30 415 H 41.2766 0.941466 4.87289 0
M  V30 416 H 36.5326 2.0381 5.7643 0
M  V30 417 H 40.7066 2.81962 6.36765 0
M  V30 418 H 38.3336 3.3739 6.81229 0
M  V30 419 N 39.9087 -1.5758 0.0250728 0
M  V30 420 C 41.1337 -1.96337 -0.668317 0
M  V30 421 C 41.5587 -0.901314 -1.651 0
M  V30 422 O 40.9167 0.138187 -1.80773 0
M  V30 423 C 40.9647 -3.34191 -1.35457 0
M  V30 424 O 40.0687 -3.30269 -2.46974 0
M  V30 425 H 39.4097 -0.640281 -0.175887 0
M  V30 426 H 41.9397 -2.0442 0.0857224 0
M  V30 427 H 41.9497 -3.70331 -1.71228 0
M  V30 428 H 40.6247 -4.11036 -0.634218 0
M  V30 429 H 39.2017 -3.05841 -2.13344 0
M  V30 430 N 41.3868 0.248026 -1.55636 0
M  V30 431 C 42.6118 0.998028 -1.81808 0
M  V30 432 C 43.0368 1.78207 -0.601979 0
M  V30 433 O 42.3948 1.75653 0.448961 0
M  V30 434 C 42.4428 1.9125 -3.05705 0
M  V30 435 O 41.5468 3.00406 -2.82542 0
M  V30 436 H 40.8878 0.284045 -0.600179 0
M  V30 437 H 43.4178 0.269357 -2.02819 0
M  V30 438 H 43.4278 2.32737 -3.35108 0
M  V30 439 H 42.1028 1.33602 -3.93857 0
M  V30 440 H 40.6798 2.63056 -2.64303 0
M  V30 441 N 42.8649 1.48995 0.513639 0
M  V30 442 C 44.0899 1.61792 1.29762 0
M  V30 443 C 44.5149 0.284475 1.85936 0
M  V30 444 O 43.8729 -0.746185 1.65232 0
M  V30 445 C 43.9209 2.67993 2.41272 0
M  V30 446 O 43.0249 2.26287 3.44772 0
M  V30 447 H 42.3659 0.541963 0.38363 0
M  V30 448 H 44.8959 1.95097 0.616307 0
M  V30 449 H 44.9059 2.89772 2.87221 0
M  V30 450 H 43.5809 3.64791 1.9975 0
M  V30 451 H 42.1579 2.14788 3.04829 0
M  V30 452 N 44.343 -0.763751 1.37857 0
M  V30 453 C 45.253 -1.90817 1.36478 0
M  V30 454 C 46.269 -1.71997 0.263248 0
M  V30 455 O 47.445 -1.95095 0.499979 0
M  V30 456 C 44.51 -3.2605 1.17864 0
M  V30 457 C 43.571 -3.57467 2.3773 0
M  V30 458 C 42.804 -4.86249 2.19995 0
M  V30 459 O 43.027 -5.57884 1.18836 0
M  V30 460 O 41.961 -5.16911 3.08361 0
M  V30 461 H 45.787 -1.94933 2.32884 0
M  V30 462 H 43.372 -0.907619 1.1867 0
M  V30 463 H 45.254 -4.06924 1.09504 0
M  V30 464 H 43.929 -3.22769 0.245372 0
M  V30 465 H 42.836 -2.76796 2.51664 0
M  V30 466 H 44.169 -3.655 3.29652 0
M  V30 467 N 45.8211 -1.22559 -0.990812 0
M  V30 468 C 47.2371 -0.985996 -1.255 0
M  V30 469 C 47.4371 0.319173 -1.98956 0
M  V30 470 O 46.4931 1.04127 -2.3003 0
M  V30 471 C 47.8061 -2.18607 -2.06474 0
M  V30 472 C 49.3541 -2.22985 -2.19651 0
M  V30 473 C 49.8291 -3.4255 -3.04012 0
M  V30 474 N 51.3201 -3.42725 -3.11599 0
M  V30 475 C 52.0551 -4.31892 -3.7717 0
M  V30 476 N 51.5511 -5.31279 -4.44651 0
M  V30 477 N 53.3441 -4.19662 -3.73952 0
M  V30 478 H 45.4951 -2.06469 -0.49841 0
M  V30 479 H 47.7581 -0.904853 -0.282747 0
M  V30 480 H 47.4641 -3.13267 -1.59865 0
M  V30 481 H 47.3381 -2.18838 -3.07229 0
M  V30 482 H 49.7251 -1.28871 -2.65474 0
M  V30 483 H 49.8061 -2.26791 -1.18319 0
M  V30 484 H 49.4501 -4.36965 -2.58889 0
M  V30 485 H 49.3801 -3.35984 -4.0549 0
M  V30 486 H 51.8711 -2.70807 -2.63575 0
M  V30 487 H 52.1841 -5.95593 -4.92431 0
M  V30 488 H 50.5291 -5.3519 -4.43392 0
M  V30 489 H 53.7201 -3.41268 -3.20396 0
M  V30 490 H 53.8931 -4.89358 -4.24774 0
M  V30 491 N 47.2992 1.18797 -1.03562 0
M  V30 492 C 48.2622 2.20464 -0.626769 0
M  V30 493 C 49.2622 1.57721 0.313173 0
M  V30 494 O 50.4522 1.73917 0.0992615 0
M  V30 495 C 47.5842 3.40802 0.0818498 0
M  V30 496 H 48.7772 2.58149 -1.5264 0
M  V30 497 H 46.3302 1.32593 -0.827578 0
M  V30 498 H 47.0652 3.08642 0.995518 0
M  V30 499 H 46.8502 3.8758 -0.593652 0
M  V30 500 H 48.3402 4.16092 0.354584 0
M  V30 501 N 48.7773 0.814389 1.34928 0
M  V30 502 C 49.7273 0.202752 2.27097 0
M  V30 503 C 50.7113 -0.62799 1.48139 0
M  V30 504 O 51.9033 -0.483969 1.70255 0
M  V30 505 C 49.0323 -0.64146 3.37254 0
M  V30 506 C 48.1183 0.19944 4.23631 0
M  V30 507 N 48.5093 1.26628 4.89693 0
M  V30 508 C 46.8073 -0.0176433 4.45997 0
M  V30 509 C 47.5083 1.78031 5.53787 0
M  V30 510 N 46.4843 1.08553 5.32651 0
M  V30 511 H 50.2863 1.01893 2.75672 0
M  V30 512 H 47.8003 0.656332 1.48546 0
M  V30 513 H 49.7973 -1.09575 4.02243 0
M  V30 514 H 48.4573 -1.4559 2.9023 0
M  V30 515 H 49.4683 1.64901 4.90946 0
M  V30 516 H 46.1453 -0.800601 4.09752 0
M  V30 517 H 47.5353 2.67236 6.16469 0
M  V30 518 N 50.2554 -1.46986 0.568584 0
M  V30 519 C 51.1874 -2.28233 -0.210337 0
M  V30 520 C 52.2004 -1.37682 -0.868767 0
M  V30 521 O 53.3894 -1.62406 -0.740705 0
M  V30 522 C 50.4894 -3.12293 -1.3163 0
M  V30 523 C 49.6624 -4.30878 -0.7525 0
M  V30 524 C 48.7214 -4.96445 -1.74439 0
M  V30 525 O 47.7474 -5.54482 -1.286 0
M  V30 526 N 48.9494 -4.92171 -3.07812 0
M  V30 527 H 51.7144 -2.95723 0.486648 0
M  V30 528 H 49.2754 -1.56742 0.405409 0
M  V30 529 H 51.2674 -3.53022 -1.97883 0
M  V30 530 H 49.8374 -2.46971 -1.91636 0
M  V30 531 H 49.0574 -3.94104 0.0871128 0
M  V30 532 H 50.3454 -5.07558 -0.35536 0
M  V30 533 H 49.7434 -4.46239 -3.47688 0
M  V30 534 H 48.3004 -5.36884 -3.69592 0
M  V30 535 N 51.7335 -0.305618 -1.54608 0
M  V30 536 C 52.9795 0.302746 -2.00528 0
M  V30 537 C 53.3125 1.53184 -1.19367 0
M  V30 538 O 52.5875 1.92598 -0.271321 0
M  V30 539 C 52.8705 0.654756 -3.54097 0
M  V30 540 C 52.7235 -0.583793 -4.45995 0
M  V30 541 C 54.0425 1.47947 -4.14487 0
M  V30 542 H 51.1615 0.108564 -0.72896 0
M  V30 543 H 53.8035 -0.418634 -1.85331 0
M  V30 544 H 51.9535 1.26935 -3.67178 0
M  V30 545 H 53.6255 -1.22224 -4.44814 0
M  V30 546 H 51.8685 -1.21615 -4.16404 0
M  V30 547 H 52.5395 -0.293287 -5.5122 0
M  V30 548 H 55.0155 0.96013 -4.04871 0
M  V30 549 H 53.8915 1.69454 -5.22088 0
M  V30 550 H 54.1525 2.47011 -3.66658 0
M  V30 551 N 53.2116 1.57565 -0.0334293 0
M  V30 552 C 54.1416 2.13511 0.945265 0
M  V30 553 C 55.1226 1.05231 1.33643 0
M  V30 554 O 56.3076 1.33084 1.41429 0
M  V30 555 C 53.4376 2.6657 2.22616 0
M  V30 556 C 52.3916 3.79676 1.97561 0
M  V30 557 C 51.7176 4.1918 3.31952 0
M  V30 558 C 53.0176 5.0557 1.31135 0
M  V30 559 H 54.7116 2.95538 0.479325 0
M  V30 560 H 52.2576 1.42166 0.229115 0
M  V30 561 H 54.2106 3.04344 2.91466 0
M  V30 562 H 52.9346 1.8171 2.71384 0
M  V30 563 H 51.5936 3.42347 1.31127 0
M  V30 564 H 51.2416 3.31296 3.78487 0
M  V30 565 H 50.9416 4.95402 3.15992 0
M  V30 566 H 52.4656 4.59541 4.02063 0
M  V30 567 H 53.8796 5.40903 1.89992 0
M  V30 568 H 52.2766 5.86818 1.25559 0
M  V30 569 H 53.3466 4.84062 0.284894 0
M  V30 570 N 54.6897 -0.239769 1.55765 0
M  V30 571 C 56.1057 -0.588624 1.48349 0
M  V30 572 C 56.3057 -1.88005 0.72502 0
M  V30 573 O 55.3617 -2.51186 0.257269 0
M  V30 574 C 56.6747 -0.68474 2.928 0
M  V30 575 C 58.2227 -0.77659 3.03213 0
M  V30 576 C 58.6977 -0.904207 4.48986 0
M  V30 577 N 60.1887 -0.968896 4.52953 0
M  V30 578 C 60.9237 -1.08703 5.63002 0
M  V30 579 N 60.4197 -1.17026 6.82845 0
M  V30 580 N 62.2127 -1.12074 5.50814 0
M  V30 581 H 54.3637 0.607911 2.03515 0
M  V30 582 H 56.6267 0.21083 0.924259 0
M  V30 583 H 56.3327 0.194284 3.51163 0
M  V30 584 H 56.2067 -1.55435 3.43686 0
M  V30 585 H 58.5937 -1.64606 2.44926 0
M  V30 586 H 58.6747 0.118315 2.55526 0
M  V30 587 H 58.3187 -0.0392633 5.07885 0
M  V30 588 H 58.2487 -1.81426 4.9436 0
M  V30 589 H 60.7397 -0.915633 3.6664 0
M  V30 590 H 61.0527 -1.25966 7.62465 0
M  V30 591 H 59.3977 -1.13971 6.85591 0
M  V30 592 H 62.5887 -1.05226 4.5612 0
M  V30 593 H 62.7617 -1.20936 6.36615 0
M  V30 594 N 56.1678 -1.49265 -0.50573 0
M  V30 595 C 57.4168 -1.57761 -1.25675 0
M  V30 596 C 57.7298 -0.267371 -1.93764 0
M  V30 597 O 58.9358 -0.230827 -2.70517 0
M  V30 598 C 57.3918 -2.78332 -2.28165 0
M  V30 599 C 56.9998 -4.16096 -1.66037 0
M  V30 600 C 58.7438 -2.96155 -3.04125 0
M  V30 601 C 56.6508 -5.27895 -2.6661 0
M  V30 602 H 55.5808 -0.587391 -0.472745 0
M  V30 603 H 58.2318 -1.75644 -0.53118 0
M  V30 604 H 56.6138 -2.53934 -3.03865 0
M  V30 605 H 57.7878 -4.50612 -0.963622 0
M  V30 606 H 56.1028 -4.03591 -1.02484 0
M  V30 607 H 58.6998 -3.76849 -3.79327 0
M  V30 608 H 59.0428 -2.06534 -3.61455 0
M  V30 609 H 59.5758 -3.2057 -2.35541 0
M  V30 610 H 56.3148 -6.1956 -2.14068 0
M  V30 611 H 55.8348 -4.97839 -3.34539 0
M  V30 612 H 57.5138 -5.57031 -3.29129 0
M  V30 613 N 57.6459 0.756429 -1.3826 0
M  V30 614 C 59.0619 1.0591 -1.19395 0
M  V30 615 C 59.2619 2.01459 -0.0406567 0
M  V30 616 O 58.3179 2.44909 0.614467 0
M  V30 617 C 59.6309 1.64191 -2.51916 0
M  V30 618 C 61.1789 1.76376 -2.58574 0
M  V30 619 C 61.6539 2.38069 -3.91264 0
M  V30 620 N 63.1449 2.45503 -3.92788 0
M  V30 621 C 63.8799 2.94126 -4.92217 0
M  V30 622 N 63.3759 3.42805 -6.02043 0
M  V30 623 N 65.1689 2.9314 -4.7961 0
M  V30 624 H 57.3199 0.122313 -2.12048 0
M  V30 625 H 59.5829 0.116892 -0.940766 0
M  V30 626 H 59.2889 1.01451 -3.3675 0
M  V30 627 H 59.1629 2.6329 -2.70108 0
M  V30 628 H 61.5499 2.38244 -1.74137 0
M  V30 629 H 61.6309 0.759894 -2.44252 0
M  V30 630 H 61.2749 1.76835 -4.76121 0
M  V30 631 H 61.2049 3.39091 -4.02895 0
M  V30 632 H 63.6959 2.1107 -3.13461 0
M  V30 633 H 64.0089 3.78354 -6.73846 0
M  V30 634 H 62.3539 3.4087 -6.05667 0
M  V30 635 H 65.5449 2.54419 -3.92923 0
M  V30 636 H 65.7179 3.30721 -5.5725 0
M  V30 637 N 59.124 1.23083 0.984299 0
M  V30 638 C 60.071 1.00854 2.07598 0
M  V30 639 C 61.041 -0.0726709 1.65941 0
M  V30 640 O 62.226 0.0786535 1.90638 0
M  V30 641 C 59.366 0.601645 3.39815 0
M  V30 642 C 58.479 1.75456 3.94765 0
M  V30 643 C 57.614 1.29482 5.15177 0
M  V30 644 C 56.653 2.41873 5.62284 0
M  V30 645 N 55.79 1.96885 6.73929 0
M  V30 646 H 60.63 1.943 2.25946 0
M  V30 647 H 58.167 0.968001 1.10762 0
M  V30 648 H 60.125 0.346854 4.15756 0
M  V30 649 H 58.755 -0.295803 3.21442 0
M  V30 650 H 57.807 2.12346 3.15616 0
M  V30 651 H 59.119 2.59965 4.25699 0
M  V30 652 H 58.273 0.997923 5.98437 0
M  V30 653 H 57.012 0.420046 4.85888 0
M  V30 654 H 56.017 2.72342 4.77608 0
M  V30 655 H 57.242 3.29881 5.93595 0
M  V30 656 H 55.188 1.11782 6.46406 0
M  V30 657 H 55.105 2.74956 7.04227 0
M  V30 658 H 56.373 1.70289 7.60672 0
M  V30 659 N 60.6021 -1.18246 1.0419 0
M  V30 660 C 62.0181 -1.40269 0.761366 0
M  V30 661 C 62.2181 -1.90777 -0.648578 0
M  V30 662 O 61.2741 -2.0929 -1.41258 0
M  V30 663 C 62.5871 -2.40237 1.8085 0
M  V30 664 C 64.1351 -2.53961 1.82955 0
M  V30 665 C 64.6101 -3.57194 2.86664 0
M  V30 666 N 66.1011 -3.64702 2.85563 0
M  V30 667 C 66.8361 -4.44309 3.6246 0
M  V30 668 N 66.3321 -5.27514 4.49111 0
M  V30 669 N 68.1251 -4.39084 3.50944 0
M  V30 670 H 60.2761 -0.837882 1.95175 0
M  V30 671 H 62.5391 -0.430608 0.84456 0
M  V30 672 H 62.2451 -2.10176 2.81991 0
M  V30 673 H 62.1191 -3.39601 1.64168 0
M  V30 674 H 64.5061 -2.83338 0.824855 0
M  V30 675 H 64.5871 -1.54706 2.03715 0
M  V30 676 H 64.2311 -3.28558 3.87314 0
M  V30 677 H 64.1611 -4.5613 2.6316 0
M  V30 678 H 66.6521 -3.05289 2.22727 0
M  V30 679 H 66.9651 -5.85411 5.04493 0
M  V30 680 H 65.3101 -5.2693 4.53178 0
M  V30 681 H 68.5011 -3.7313 2.82651 0
M  V30 682 H 68.6741 -5.00883 4.11121 0
M  V30 683 N 62.0802 -0.821533 -1.34494 0
M  V30 684 C 63.0432 -0.247847 -2.27856 0
M  V30 685 C 64.0432 0.573453 -1.50227 0
M  V30 686 O 65.2332 0.389759 -1.69784 0
M  V30 687 C 62.3652 0.652698 -3.34593 0
M  V30 688 H 63.5582 -1.07146 -2.80107 0
M  V30 689 H 61.1112 -0.593291 -1.44602 0
M  V30 690 H 61.8462 1.49943 -2.87555 0
M  V30 691 H 61.6312 0.065292 -3.92046 0
M  V30 692 H 63.1212 1.04793 -4.04238 0
M  V30 693 N 63.5583 1.46682 -0.576371 0
M  V30 694 C 64.5063 2.31953 0.17335 0
M  V30 695 C 65.5003 1.44098 0.89062 0
M  V30 696 O 66.7063 1.60759 0.809728 0
M  V30 697 H 63.0813 0.748273 0.0747727 0
M  V30 698 H 65.0523 2.93007 -0.564738 0
M  V30 699 C 63.8013 3.27142 1.17786 0
M  V30 700 H 63.1243 3.94719 0.635361 0
M  V30 701 H 64.5643 3.896 1.67296 0
M  V30 702 C 63.0233 2.52036 2.23561 0
M  V30 703 O 63.5533 2.27877 3.3081 0
M  V30 704 N 61.7593 2.12709 1.97998 0
M  V30 705 H 61.3063 2.32557 1.10792 0
M  V30 706 H 61.2643 1.62776 2.68982 0
M  V30 707 N 65.0364 0.313813 1.54444 0
M  V30 708 C 66.2614 -0.296681 2.05267 0
M  V30 709 C 66.6864 -1.45757 1.18897 0
M  V30 710 O 66.0444 -1.80239 0.195886 0
M  V30 711 C 66.0924 -0.71831 3.53373 0
M  V30 712 O 65.1964 -1.82175 3.69981 0
M  V30 713 H 64.5374 -0.0554061 0.661684 0
M  V30 714 H 67.0674 0.459387 1.99376 0
M  V30 715 H 67.0774 -1.00364 3.95463 0
M  V30 716 H 65.7524 0.130821 4.15694 0
M  V30 717 H 64.3294 -1.53598 3.39797 0
M  V30 718 N 66.5145 -1.57545 0.0417849 0
M  V30 719 C 67.7615 -1.92317 -0.634082 0
M  V30 720 C 68.0895 -0.919334 -1.71402 0
M  V30 721 O 67.3445 0.0698253 -1.95575 0
M  V30 722 C 67.6435 -3.33794 -1.27735 0
M  V30 723 C 67.3095 -4.49716 -0.326543 0
M  V30 724 C 65.9715 -4.81156 -0.0648814 0
M  V30 725 C 68.3235 -5.20182 0.325623 0
M  V30 726 C 65.6515 -5.80414 0.856539 0
M  V30 727 C 68.0035 -6.20424 1.23518 0
M  V30 728 C 66.6675 -6.50298 1.5056 0
M  V30 729 H 65.9375 -0.703736 -0.232027 0
M  V30 730 H 68.5845 -1.91205 0.106259 0
M  V30 731 H 66.8895 -3.31228 -2.09274 0
M  V30 732 H 68.5865 -3.57975 -1.80707 0
M  V30 733 H 65.1765 -4.25176 -0.540665 0
M  V30 734 H 69.3605 -4.96112 0.136546 0
M  V30 735 H 64.6165 -6.019 1.07363 0
M  V30 736 H 68.7905 -6.74141 1.74664 0
M  V30 737 H 66.4175 -7.27025 2.22123 0
M  V30 738 N 67.9926 0.231505 -1.5589 0
M  V30 739 C 68.9226 1.29022 -1.94617 0
M  V30 740 C 69.9036 1.4941 -0.813067 0
M  V30 741 O 71.0886 1.6176 -1.07459 0
M  V30 742 C 68.2186 2.64199 -2.25424 0
M  V30 743 C 67.1726 2.58484 -3.41131 0
M  V30 744 C 66.4986 3.97599 -3.57518 0
M  V30 745 C 67.7986 2.1413 -4.76388 0
M  V30 746 H 69.4926 0.968563 -2.83301 0
M  V30 747 H 67.0386 0.464479 -1.36303 0
M  V30 748 H 68.9916 3.38413 -2.51107 0
M  V30 749 H 67.7156 2.98032 -1.33583 0
M  V30 750 H 66.3746 1.86727 -3.15481 0
M  V30 751 H 66.0226 4.28723 -2.6307 0
M  V30 752 H 65.7226 3.94659 -4.35337 0
M  V30 753 H 67.2466 4.7349 -3.85538 0
M  V30 754 H 68.6606 2.78083 -5.01341 0
M  V30 755 H 67.0576 2.2227 -5.57419 0
M  V30 756 H 68.1276 1.09331 -4.72414 0
M  V30 757 N 69.4707 1.49531 0.497807 0
M  V30 758 C 70.3807 1.69176 1.62532 0
M  V30 759 C 71.3967 0.5744 1.64246 0
M  V30 760 O 72.5727 0.849497 1.82608 0
M  V30 761 C 69.6377 1.75695 2.98885 0
M  V30 762 C 68.6987 2.9929 3.07773 0
M  V30 763 C 67.9317 3.05488 4.37622 0
M  V30 764 O 68.1547 2.19192 5.26603 0
M  V30 765 O 67.0887 3.9798 4.51548 0
M  V30 766 H 70.9147 2.647 1.48887 0
M  V30 767 H 68.4997 1.3331 0.674441 0
M  V30 768 H 70.3817 1.82317 3.79919 0
M  V30 769 H 69.0567 0.8335 3.12785 0
M  V30 770 H 67.9637 2.98183 2.25915 0
M  V30 771 H 69.2967 3.91125 2.98801 0
M  V30 772 N 70.9488 -0.749086 1.3866 0
M  V30 773 C 71.8588 -1.89358 1.38494 0
M  V30 774 C 72.8748 -1.71708 0.281476 0
M  V30 775 O 74.0508 -1.94554 0.520643 0
M  V30 776 C 71.1158 -3.24782 1.21316 0
M  V30 777 C 70.1768 -3.54926 2.41508 0
M  V30 778 C 69.4098 -4.83888 2.2514 0
M  V30 779 O 69.6328 -5.56592 1.24746 0
M  V30 780 O 68.5668 -5.13612 3.13826 0
M  V30 781 H 72.3928 -1.92452 2.34938 0
M  V30 782 H 69.9778 -0.894981 1.19626 0
M  V30 783 H 71.8598 -4.05739 1.13814 0
M  V30 784 H 70.5348 -3.2249 0.279592 0
M  V30 785 H 69.4418 -2.74112 2.54585 0
M  V30 786 H 70.7748 -3.61983 3.3351 0
M  V30 787 N 72.4269 -1.23603 -0.977757 0
M  V30 788 C 73.3569 -1.04401 -2.0886 0
M  V30 789 C 74.3379 0.0399052 -1.70053 0
M  V30 790 O 75.5229 -0.125246 -1.93796 0
M  V30 791 C 72.6529 -0.637269 -3.41403 0
M  V30 792 C 71.6069 -1.66883 -3.94124 0
M  V30 793 C 70.9329 -1.11745 -5.22893 0
M  V30 794 C 72.2329 -3.06247 -4.23096 0
M  V30 795 H 73.9269 -1.97316 -2.25182 0
M  V30 796 H 71.4729 -0.950096 -1.08209 0
M  V30 797 H 73.4259 -0.48998 -4.18542 0
M  V30 798 H 72.1499 0.327557 -3.24953 0
M  V30 799 H 70.8089 -1.80416 -3.19133 0
M  V30 800 H 70.4569 -0.143527 -5.02795 0
M  V30 801 H 70.1569 -1.80672 -5.59134 0
M  V30 802 H 71.6809 -0.982067 -6.02651 0
M  V30 803 H 73.0949 -2.96001 -4.90975 0
M  V30 804 H 71.4919 -3.72436 -4.70544 0
M  V30 805 H 72.5619 -3.55041 -3.30263 0
M  V30 806 N 73.905 1.17692 -1.04816 0
M  V30 807 C 75.321 1.39863 -0.768794 0
M  V30 808 C 75.521 1.91118 0.638451 0
M  V30 809 O 74.577 2.10036 1.40146 0
M  V30 810 C 75.89 2.39274 -1.82122 0
M  V30 811 C 77.438 2.52987 -1.843 0
M  V30 812 C 77.913 3.55669 -2.88555 0
M  V30 813 N 79.404 3.63183 -2.87493 0
M  V30 814 C 80.139 4.42381 -3.64811 0
M  V30 815 N 79.635 5.25125 -4.51903 0
M  V30 816 N 81.428 4.37217 -3.53267 0
M  V30 817 H 73.579 0.82752 -1.95617 0
M  V30 818 H 75.842 0.426123 -0.846831 0
M  V30 819 H 75.548 2.08678 -2.83102 0
M  V30 820 H 75.422 3.38725 -1.65967 0
M  V30 821 H 77.809 2.82896 -0.839869 0
M  V30 822 H 77.89 1.53623 -2.04532 0
M  V30 823 H 77.534 3.26499 -3.89051 0
M  V30 824 H 77.464 4.54728 -2.65575 0
M  V30 825 H 79.955 3.04103 -2.24343 0
M  V30 826 H 80.268 5.82728 -5.07591 0
M  V30 827 H 78.613 5.24519 -4.55966 0
M  V30 828 H 81.804 3.71626 -2.84625 0
M  V30 829 H 81.977 4.98696 -4.13771 0
M  V30 830 N 75.3831 0.828654 1.34056 0
M  V30 831 C 76.3331 0.226828 2.26869 0
M  V30 832 C 77.3171 -0.612243 1.48796 0
M  V30 833 O 78.5091 -0.465884 1.70759 0
M  V30 834 C 75.6381 -0.605654 3.37915 0
M  V30 835 C 74.7241 0.244361 4.23395 0
M  V30 836 N 75.1151 1.31815 4.88322 0
M  V30 837 C 73.4131 0.0296616 4.4599 0
M  V30 838 C 74.1141 1.83895 5.51867 0
M  V30 839 N 73.0901 1.14196 5.3147 0
M  V30 840 H 76.8921 1.04811 2.74576 0
M  V30 841 H 74.4061 0.67205 1.47842 0
M  V30 842 H 76.4031 -1.05302 4.03382 0
M  V30 843 H 75.0631 -1.42504 2.91758 0
M  V30 844 H 76.0741 1.70099 4.8917 0
M  V30 845 H 72.7511 -0.757097 4.10578 0
M  V30 846 H 74.1411 2.7376 6.136 0
M  V30 847 N 76.8612 -1.46375 0.584142 0
M  V30 848 C 78.0862 -2.07268 0.0740405 0
M  V30 849 C 78.5112 -1.42979 -1.22223 0
M  V30 850 O 77.8692 -0.514092 -1.73859 0
M  V30 851 C 77.9172 -3.60518 -0.0767769 0
M  V30 852 O 77.0212 -3.96533 -1.13292 0
M  V30 853 H 76.3622 -0.660961 0.0634524 0
M  V30 854 H 78.8922 -1.87991 0.807492 0
M  V30 855 H 78.9022 -4.07021 -0.282489 0
M  V30 856 H 77.5772 -4.06702 0.86986 0
M  V30 857 H 76.1542 -3.61738 -0.905553 0
M  V30 858 N 78.3393 -0.321999 -1.54275 0
M  V30 859 C 79.5643 0.285791 -2.05422 0
M  V30 860 C 79.9893 1.45124 -1.19669 0
M  V30 861 O 79.3473 1.80132 -0.205441 0
M  V30 862 C 79.3953 0.69956 -3.53749 0
M  V30 863 O 78.4993 1.8021 -3.70942 0
M  V30 864 H 77.8403 0.0518962 -0.661969 0
M  V30 865 H 80.3703 -0.469954 -1.9913 0
M  V30 866 H 80.3803 0.982649 -3.9599 0
M  V30 867 H 79.0553 -0.152864 -4.15619 0
M  V30 868 H 77.6323 1.51794 -3.40607 0
M  V30 869 N 79.8174 1.5752 -0.0501392 0
M  V30 870 C 80.7474 2.14502 0.922566 0
M  V30 871 C 81.7284 1.06642 1.3252 0
M  V30 872 O 82.9134 1.34577 1.4001 0
M  V30 873 C 80.0434 2.68916 2.19776 0
M  V30 874 C 78.9974 3.8175 1.93523 0
M  V30 875 C 78.3234 4.22677 3.27487 0
M  V30 876 C 79.6234 5.06932 1.25765 0
M  V30 877 H 81.3174 2.9603 0.447952 0
M  V30 878 H 78.8634 1.42401 0.214024 0
M  V30 879 H 80.8164 3.07419 2.88222 0
M  V30 880 H 79.5404 1.84578 2.69441 0
M  V30 881 H 78.1994 3.43718 1.27489 0
M  V30 882 H 77.8474 3.35291 3.74952 0
M  V30 883 H 77.5474 4.98725 3.1072 0
M  V30 884 H 79.0714 4.63779 3.97166 0
M  V30 885 H 80.4854 5.42888 1.84244 0
M  V30 886 H 78.8824 5.88116 1.19328 0
M  V30 887 H 79.9524 4.84337 0.233536 0
M  V30 888 N 81.2955 -0.223234 1.56011 0
M  V30 889 C 82.2055 -1.29766 1.95443 0
M  V30 890 C 83.2215 -1.51373 0.858028 0
M  V30 891 O 84.3975 -1.64536 1.16146 0
M  V30 892 C 81.4625 -2.62772 2.26167 0
M  V30 893 C 80.5235 -2.49482 3.49367 0
M  V30 894 C 79.7565 -3.76145 3.78616 0
M  V30 895 O 79.9795 -4.79087 3.09568 0
M  V30 896 O 78.9135 -3.73358 4.72109 0
M  V30 897 H 82.7395 -0.99309 2.87004 0
M  V30 898 H 80.3245 -0.425958 1.43199 0
M  V30 899 H 82.2065 -3.41327 2.47131 0
M  V30 900 H 80.8815 -2.92913 1.37781 0
M  V30 901 H 79.7885 -1.69133 3.33684 0
M  V30 902 H 81.1215 -2.2428 4.38131 0
M  V30 903 N 82.7736 -1.49793 -0.48987 0
M  V30 904 C 84.1896 -1.36803 -0.822022 0
M  V30 905 C 84.3896 -0.409652 -1.97292 0
M  V30 906 O 83.4456 0.154614 -2.52026 0
M  V30 907 C 84.7586 -2.77768 -1.15175 0
M  V30 908 C 86.3066 -2.86549 -1.25931 0
M  V30 909 C 86.7816 -4.28306 -1.62228 0
M  V30 910 N 88.2726 -4.31169 -1.69256 0
M  V30 911 C 89.0076 -5.37832 -1.98807 0
M  V30 912 N 88.5036 -6.54726 -2.26507 0
M  V30 913 N 90.2966 -5.25258 -2.00152 0
M  V30 914 H 82.4476 -2.10691 0.268881 0
M  V30 915 H 84.7106 -0.946241 0.057728 0
M  V30 916 H 84.4166 -3.49648 -0.379335 0
M  V30 917 H 84.2906 -3.13836 -2.09253 0
M  V30 918 H 86.6776 -2.14899 -2.02243 0
M  V30 919 H 86.7586 -2.54049 -0.298776 0
M  V30 920 H 86.4026 -5.00486 -0.864622 0
M  V30 921 H 86.3326 -4.58279 -2.594 0
M  V30 922 H 88.8236 -3.4687 -1.49965 0
M  V30 923 H 89.1366 -7.31833 -2.48276 0
M  V30 924 H 87.4816 -6.57933 -2.23939 0
M  V30 925 H 90.6726 -4.32938 -1.77996 0
M  V30 926 H 90.8456 -6.08476 -2.22848 0
M  V30 927 N 84.2517 0.741722 -1.39055 0
M  V30 928 C 85.1617 1.88621 -1.39496 0
M  V30 929 C 86.1777 1.71557 -0.290578 0
M  V30 930 O 87.3537 1.94275 -0.530954 0
M  V30 931 C 84.4187 3.24134 -1.23037 0
M  V30 932 C 83.4797 3.5364 -2.43387 0
M  V30 933 C 82.7127 4.82687 -2.27703 0
M  V30 934 O 82.9357 5.55922 -1.27696 0
M  V30 935 O 81.8697 5.1194 -3.16545 0
M  V30 936 H 85.6957 1.91203 -2.35956 0
M  V30 937 H 83.2807 0.888625 -1.20099 0
M  V30 938 H 85.1627 4.0513 -1.15964 0
M  V30 939 H 83.8377 3.22337 -0.296691 0
M  V30 940 H 82.7447 2.72758 -2.56035 0
M  V30 941 H 84.0777 3.60209 -3.35425 0
M  V30 942 N 85.7298 1.2412 0.971189 0
M  V30 943 C 86.9698 1.09066 1.7287 0
M  V30 944 C 87.3338 -0.364794 1.88503 0
M  V30 945 O 88.5348 -0.636748 2.61149 0
M  V30 946 C 86.8058 1.80629 3.08396 0
M  V30 947 S 88.3648 1.81263 3.99611 0
M  V30 948 H 85.1828 0.390145 0.594397 0
M  V30 949 H 87.7848 1.57397 1.15959 0
M  V30 950 H 86.4888 2.85647 2.94676 0
M  V30 951 H 86.0198 1.32617 3.70373 0
M  V30 952 H 88.0348 0.877804 4.88374 0
M  V30 953 N 87.2079 -1.17134 1.05439 0
M  V30 954 C 88.4569 -1.86791 0.761049 0
M  V30 955 C 88.7699 -1.82072 -0.714795 0
M  V30 956 O 89.9759 -2.47223 -1.12218 0
M  V30 957 C 88.4319 -3.35166 1.31117 0
M  V30 958 C 88.0399 -3.48381 2.81664 0
M  V30 959 C 89.7839 -4.10134 1.09499 0
M  V30 960 C 87.6909 -4.90793 3.29964 0
M  V30 961 H 86.6209 -0.699681 0.281002 0
M  V30 962 H 89.2719 -1.3226 1.27199 0
M  V30 963 H 87.6539 -3.8925 0.72803 0
M  V30 964 H 88.8279 -3.04502 3.45855 0
M  V30 965 H 87.1429 -2.86836 3.01851 0
M  V30 966 H 89.7399 -5.152 1.43084 0
M  V30 967 H 90.0829 -4.16287 0.0328772 0
M  V30 968 H 90.6159 -3.62264 1.64346 0
M  V30 969 H 87.3549 -4.89816 4.35616 0
M  V30 970 H 86.8749 -5.35333 2.70516 0
M  V30 971 H 88.5539 -5.59573 3.24787 0
M  V30 972 N 88.686 -0.835752 -1.33615 0
M  V30 973 C 89.596 -0.269088 -2.33052 0
M  V30 974 C 90.612 0.603251 -1.63208 0
M  V30 975 O 91.788 0.508112 -1.94885 0
M  V30 976 C 88.853 0.549091 -3.42324 0
M  V30 977 C 87.914 -0.347156 -4.27894 0
M  V30 978 C 87.147 0.43207 -5.31948 0
M  V30 979 O 87.37 1.66409 -5.45586 0
M  V30 980 O 86.304 -0.192298 -6.01593 0
M  V30 981 H 90.13 -1.09243 -2.83372 0
M  V30 982 H 87.715 -0.598198 -1.36901 0
M  V30 983 H 89.597 1.01414 -4.09015 0
M  V30 984 H 88.272 1.34955 -2.94226 0
M  V30 985 H 87.179 -0.859979 -3.64081 0
M  V30 986 H 88.512 -1.1123 -4.79467 0
M  V30 987 N 90.1641 1.46063 -0.591896 0
M  V30 988 C 91.0741 2.34192 0.13831 0
M  V30 989 C 92.0901 1.50305 0.876608 0
M  V30 990 O 93.2661 1.8315 0.837728 0
M  V30 991 C 90.3311 3.27656 1.13326 0
M  V30 992 C 89.3921 4.27445 0.39863 0
M  V30 993 C 88.6251 5.16443 1.34618 0
M  V30 994 O 88.8481 5.08553 2.58321 0
M  V30 995 O 87.7821 5.95843 0.851768 0
M  V30 996 H 91.6081 2.98002 -0.58552 0
M  V30 997 H 89.1931 1.45188 -0.352239 0
M  V30 998 H 91.0751 3.85291 1.70671 0
M  V30 999 H 89.7501 2.6643 1.83839 0
M  V30 1000 H 88.6571 3.73471 -0.216895 0
M  V30 1001 H 89.9901 4.91482 -0.265709 0
M  V30 1002 N 91.6422 0.330177 1.54103 0
M  V30 1003 C 92.8912 -0.271336 1.99867 0
M  V30 1004 C 93.2042 -1.52723 1.22209 0
M  V30 1005 O 94.4102 -2.20515 1.58383 0
M  V30 1006 C 92.8662 -0.534032 3.55916 0
M  V30 1007 C 92.4742 0.705193 4.42415 0
M  V30 1008 C 94.2182 -1.09514 4.1013 0
M  V30 1009 C 92.1252 0.414035 5.89949 0
M  V30 1010 H 91.0552 -0.105166 0.74663 0
M  V30 1011 H 93.7062 0.443429 1.78062 0
M  V30 1012 H 92.0882 -1.30915 3.73734 0
M  V30 1013 H 93.2622 1.4804 4.36372 0
M  V30 1014 H 91.5772 1.18698 3.99124 0
M  V30 1015 H 94.1742 -1.3277 5.17954 0
M  V30 1016 H 94.5172 -2.04656 3.62521 0
M  V30 1017 H 95.0502 -0.381038 3.95971 0
M  V30 1018 H 91.7892 1.33481 6.41766 0
M  V30 1019 H 91.3092 -0.323336 5.98928 0
M  V30 1020 H 92.9882 0.0263105 6.46995 0
M  V30 1021 N 93.1203 -1.57491 0.0584922 0
M  V30 1022 C 94.3603 -1.94851 -0.617458 0
M  V30 1023 C 94.7243 -0.937165 -1.67575 0
M  V30 1024 O 95.9253 -1.19795 -2.40629 0
M  V30 1025 C 94.1963 -3.36955 -1.19147 0
M  V30 1026 S 95.7553 -3.96277 -1.8844 0
M  V30 1027 H 92.5733 -0.681539 -0.202547 0
M  V30 1028 H 95.1753 -1.95073 0.129176 0
M  V30 1029 H 93.8793 -4.08355 -0.409215 0
M  V30 1030 H 93.4103 -3.40245 -1.97476 0
M  V30 1031 H 95.4253 -3.82099 -3.16568 0
M  V30 1032 N 94.5984 0.214957 -1.56127 0
M  V30 1033 C 95.8754 0.963093 -1.70247 0
M  V30 1034 C 96.2554 2.02166 -0.60764 0
M  V30 1035 O 95.6034 2.25244 0.384385 0
M  V30 1036 C 95.8134 1.56756 -3.11815 0
M  V30 1037 C 97.1614 2.0573 -3.7143 0
M  V30 1038 O 98.1854 1.66637 -3.14818 0
M  V30 1039 O 97.0444 2.77603 -4.70743 0
M  V30 1040 H 94.1384 0.450321 -0.693643 0
M  V30 1041 H 96.6844 0.206219 -1.68442 0
M  V30 1042 H 95.4564 0.803533 -3.82961 0
M  V30 1043 H 95.0794 2.3898 -3.17765 0
M  V30 1044 N 96.0765 1.50051 0.48192 0
M  V30 1045 C 97.3235 1.60498 1.23477 0
M  V30 1046 C 97.6515 0.300331 1.92167 0
M  V30 1047 O 96.9065 -0.713094 1.82246 0
M  V30 1048 C 97.2055 2.72717 2.30998 0
M  V30 1049 C 96.8715 4.13572 1.79636 0
M  V30 1050 C 95.5335 4.519 1.65348 0
M  V30 1051 C 97.8855 5.01649 1.41412 0
M  V30 1052 C 95.2135 5.76057 1.11244 0
M  V30 1053 C 97.5655 6.26343 0.887538 0
M  V30 1054 C 96.2295 6.63483 0.731207 0
M  V30 1055 H 95.4995 0.587303 0.451836 0
M  V30 1056 H 98.1465 1.83948 0.532468 0
M  V30 1057 H 96.4515 2.43312 3.07094 0
M  V30 1058 H 98.1485 2.78006 2.88988 0
M  V30 1059 H 94.7385 3.83329 1.91721 0
M  V30 1060 H 98.9225 4.72679 1.51289 0
M  V30 1061 H 94.1785 6.03516 0.978686 0
M  V30 1062 H 98.3525 6.93958 0.582654 0
M  V30 1063 H 95.9795 7.59568 0.309806 0
M  V30 1064 N 97.5546 -0.734337 1.39446 0
M  V30 1065 C 98.4646 -1.87879 1.40495 0
M  V30 1066 C 99.4806 -1.714 0.299672 0
M  V30 1067 O 100.657 -1.93991 0.541249 0
M  V30 1068 C 97.7216 -3.23477 1.24754 0
M  V30 1069 C 96.7826 -3.52344 2.45259 0
M  V30 1070 C 96.0156 -4.81473 2.30259 0
M  V30 1071 O 96.2386 -5.55237 1.30643 0
M  V30 1072 O 95.1726 -5.10254 3.19256 0
M  V30 1073 H 98.9986 -1.89949 2.36966 0
M  V30 1074 H 96.5836 -0.882243 1.20569 0
M  V30 1075 H 98.4656 -4.04509 1.18111 0
M  V30 1076 H 97.1406 -3.22176 0.313781 0
M  V30 1077 H 96.0476 -2.71396 2.57478 0
M  V30 1078 H 97.3806 -3.58426 3.37331 0
M  V30 1079 N 99.0327 -1.24633 -0.964593 0
M  V30 1080 C 99.9427 -1.05859 -2.09359 0
M  V30 1081 C 100.959 0.00148855 -1.74 0
M  V30 1082 O 102.135 -0.197346 -2.00431 0
M  V30 1083 C 99.1997 -0.668879 -3.40187 0
M  V30 1084 C 98.2607 -1.80578 -3.89474 0
M  V30 1085 C 97.4937 -1.43457 -5.14058 0
M  V30 1086 O 97.7167 -0.325775 -5.69469 0
M  V30 1087 O 96.6507 -2.2613 -5.57807 0
M  V30 1088 H 100.477 -2.00516 -2.28094 0
M  V30 1089 H 98.0617 -1.03481 -1.0776 0
M  V30 1090 H 99.9437 -0.463211 -4.18846 0
M  V30 1091 H 98.6187 0.248536 -3.22744 0
M  V30 1092 H 97.5257 -2.06623 -3.11862 0
M  V30 1093 H 98.8587 -2.70208 -4.11398 0
M  V30 1094 N 100.511 1.16574 -1.06058 0
M  V30 1095 C 101.474 2.19085 -0.673392 0
M  V30 1096 C 102.474 1.5835 0.279648 0
M  V30 1097 O 103.664 1.74088 0.0623488 0
M  V30 1098 C 100.796 3.40899 0.00954234 0
M  V30 1099 H 101.989 2.54853 -1.58081 0
M  V30 1100 H 99.5418 1.30808 -0.855516 0
M  V30 1101 H 100.277 3.10684 0.929826 0
M  V30 1102 H 100.062 3.86233 -0.67573 0
M  V30 1103 H 101.552 4.1675 0.266245 0
M  V30 1104 N 101.989 0.842826 1.3317 0
M  V30 1105 C 102.936 0.276885 2.29133 0
M  V30 1106 C 103.906 -0.609527 1.54512 0
M  V30 1107 O 105.091 -0.546955 1.82792 0
M  V30 1108 C 102.231 -0.538707 3.40869 0
M  V30 1109 C 101.344 0.372169 4.30394 0
M  V30 1110 C 100.479 -0.454908 5.29249 0
M  V30 1111 C 99.5179 0.45411 6.10413 0
M  V30 1112 N 98.6549 -0.335075 7.013 0
M  V30 1113 H 103.495 1.10052 2.76934 0
M  V30 1114 H 101.032 0.554161 1.36262 0
M  V30 1115 H 102.99 -1.02709 4.0436 0
M  V30 1116 H 101.62 -1.32727 2.9425 0
M  V30 1117 H 100.672 0.97888 3.6759 0
M  V30 1118 H 101.984 1.0703 4.87182 0
M  V30 1119 H 101.138 -1.00695 5.98285 0
M  V30 1120 H 99.8769 -1.18646 4.73048 0
M  V30 1121 H 98.8819 1.01813 5.40291 0
M  V30 1122 H 100.107 1.18409 6.68697 0
M  V30 1123 H 98.0529 -1.04994 6.47543 0
M  V30 1124 H 97.9699 0.304262 7.55387 0
M  V30 1125 H 99.2379 -0.869224 7.74638 0
M  V30 1126 N 103.467 -1.45747 0.599634 0
M  V30 1127 C 104.377 -2.34262 -0.125888 0
M  V30 1128 C 105.393 -1.50768 -0.868625 0
M  V30 1129 O 106.569 -1.83592 -0.828003 0
M  V30 1130 C 103.634 -3.28252 -1.11587 0
M  V30 1131 C 102.695 -4.27651 -0.375956 0
M  V30 1132 C 101.928 -5.1715 -1.31877 0
M  V30 1133 O 102.151 -5.09916 -2.55621 0
M  V30 1134 O 101.085 -5.96286 -0.820157 0
M  V30 1135 H 104.911 -2.97688 0.601315 0
M  V30 1136 H 102.496 -1.44999 0.359934 0
M  V30 1137 H 104.378 -3.86191 -1.68626 0
M  V30 1138 H 103.053 -2.67401 -1.82424 0
M  V30 1139 H 101.96 -3.7335 0.236698 0
M  V30 1140 H 103.293 -4.91334 0.29177 0
M  V30 1141 N 104.945 -0.338344 -1.53925 0
M  V30 1142 C 106.194 0.260732 -2.00008 0
M  V30 1143 C 106.507 1.52073 -1.23017 0
M  V30 1144 O 107.713 2.19672 -1.5955 0
M  V30 1145 C 106.169 0.51515 -3.56194 0
M  V30 1146 C 105.777 -0.728645 -4.42035 0
M  V30 1147 C 107.521 1.07337 -4.10706 0
M  V30 1148 C 105.428 -0.445315 -5.89721 0
M  V30 1149 H 104.358 0.101205 -0.747177 0
M  V30 1150 H 107.009 -0.452866 -1.77824 0
M  V30 1151 H 105.391 1.28932 -3.74423 0
M  V30 1152 H 106.565 -1.50352 -4.35581 0
M  V30 1153 H 104.88 -1.20813 -3.98489 0
M  V30 1154 H 107.477 1.30022 -5.18651 0
M  V30 1155 H 107.82 2.0273 -3.63602 0
M  V30 1156 H 108.353 0.360034 -3.96167 0
M  V30 1157 H 105.092 -1.36883 -6.41049 0
M  V30 1158 H 104.612 0.291569 -5.99091 0
M  V30 1159 H 106.291 -0.0606218 -6.46972 0
M  V30 1160 N 106.423 1.57458 -0.0668435 0
M  V30 1161 C 107.67 1.93301 0.603406 0
M  V30 1162 C 107.998 0.946486 1.69917 0
M  V30 1163 O 107.253 -0.0387021 1.95662 0
M  V30 1164 C 107.552 3.35784 1.22409 0
M  V30 1165 C 107.218 4.50179 0.254955 0
M  V30 1166 C 105.88 4.81199 -0.0116746 0
M  V30 1167 C 108.232 5.19598 -0.408338 0
M  V30 1168 C 105.56 5.78978 -0.94877 0
M  V30 1169 C 107.912 6.18381 -1.33372 0
M  V30 1170 C 106.576 6.47821 -1.60887 0
M  V30 1171 H 105.846 0.707338 0.220802 0
M  V30 1172 H 108.493 1.91012 -0.136665 0
M  V30 1173 H 106.798 3.34515 2.03978 0
M  V30 1174 H 108.495 3.60804 1.74989 0
M  V30 1175 H 105.085 4.25983 0.472954 0
M  V30 1176 H 109.269 4.95832 -0.215456 0
M  V30 1177 H 104.525 6.00115 -1.16925 0
M  V30 1178 H 108.699 6.71277 -1.85367 0
M  V30 1179 H 106.326 7.23399 -2.33661 0
M  V30 1180 N 107.901 -0.206675 1.56239 0
M  V30 1181 C 108.833 -1.27997 1.9013 0
M  V30 1182 C 109.846 -1.42299 0.790883 0
M  V30 1183 O 111.035 -1.42931 1.06925 0
M  V30 1184 C 108.135 -2.65368 2.10792 0
M  V30 1185 C 107.308 -2.72824 3.41886 0
M  V30 1186 C 106.367 -3.9131 3.51799 0
M  V30 1187 O 105.393 -3.78953 4.24716 0
M  V30 1188 N 106.595 -5.06265 2.84035 0
M  V30 1189 H 109.36 -0.992444 2.82791 0
M  V30 1190 H 106.921 -0.396652 1.56966 0
M  V30 1191 H 108.913 -3.43039 2.14724 0
M  V30 1192 H 107.483 -2.86657 1.24685 0
M  V30 1193 H 106.703 -1.81515 3.49923 0
M  V30 1194 H 107.991 -2.74786 4.28217 0
M  V30 1195 H 107.389 -5.19203 2.246 0
M  V30 1196 H 105.946 -5.81925 2.93609 0
M  V30 1197 N 109.379 -1.50304 -0.473955 0
M  V30 1198 C 110.327 -1.69482 -1.59307 0
M  V30 1199 C 111.321 -0.560669 -1.59853 0
M  V30 1200 O 112.527 -0.741087 -1.64036 0
M  V30 1201 H 108.902 -0.534892 -0.528578 0
M  V30 1202 H 110.873 -2.63364 -1.40293 0
M  V30 1203 C 109.622 -1.80354 -2.97267 0
M  V30 1204 H 108.945 -2.67012 -2.97564 0
M  V30 1205 H 110.385 -1.97798 -3.75036 0
M  V30 1206 C 108.844 -0.55448 -3.32306 0
M  V30 1207 O 109.374 0.307661 -4.0052 0
M  V30 1208 N 107.58 -0.409354 -2.87702 0
M  V30 1209 H 107.127 -1.11196 -2.32364 0
M  V30 1210 H 107.085 0.425223 -3.11511 0
M  V30 1211 N 110.857 0.726932 -1.39834 0
M  V30 1212 C 112.103 1.48884 -1.377 0
M  V30 1213 C 112.436 1.94185 0.0244852 0
M  V30 1214 O 111.711 1.67361 0.990986 0
M  V30 1215 C 111.994 2.72288 -2.3565 0
M  V30 1216 C 111.847 2.32956 -3.84775 0
M  V30 1217 C 113.166 3.74414 -2.31306 0
M  V30 1218 H 110.285 0.540062 -0.5015 0
M  V30 1219 H 112.927 0.830547 -1.70886 0
M  V30 1220 H 111.077 3.28457 -2.07481 0
M  V30 1221 H 112.749 1.82356 -4.23726 0
M  V30 1222 H 110.992 1.65088 -4.01159 0
M  V30 1223 H 111.663 3.21362 -4.4881 0
M  V30 1224 H 114.139 3.27849 -2.56231 0
M  V30 1225 H 113.015 4.58414 -3.01907 0
M  V30 1226 H 113.276 4.21909 -1.32081 0
M  V30 1227 N 112.336 1.25143 0.95797 0
M  V30 1228 C 113.613 1.00472 1.67823 0
M  V30 1229 C 113.993 -0.470056 2.058 0
M  V30 1230 O 113.341 -1.44663 1.76875 0
M  V30 1231 C 113.551 1.9372 2.90299 0
M  V30 1232 C 114.899 2.21371 3.62326 0
M  V30 1233 O 115.923 1.91451 3.00375 0
M  V30 1234 O 114.782 2.72231 4.7387 0
M  V30 1235 H 111.876 0.380752 0.734137 0
M  V30 1236 H 114.422 1.36283 1.01119 0
M  V30 1237 H 113.194 2.93316 2.59001 0
M  V30 1238 H 112.817 1.58286 3.64735 0
M  V30 1239 N 113.814 -1.1601 1.06675 0
M  V30 1240 C 115.091 -1.82679 0.699114 0
M  V30 1241 C 115.471 -1.94559 -0.819137 0
M  V30 1242 O 114.819 -1.49169 -1.73092 0
M  V30 1243 C 115.029 -3.19445 1.40555 0
M  V30 1244 C 116.377 -3.95171 1.55323 0
M  V30 1245 O 117.401 -3.28976 1.36577 0
M  V30 1246 O 116.26 -5.13833 1.86112 0
M  V30 1247 H 113.354 -0.788954 0.247951 0
M  V30 1248 H 115.9 -1.23179 1.16726 0
M  V30 1249 H 114.672 -3.05856 2.44065 0
M  V30 1250 H 114.295 -3.86625 0.927733 0
M  V30 1251 N 115.292 -0.849877 -1.32721 0
M  V30 1252 C 116.52 -0.464754 -2.01613 0
M  V30 1253 C 116.935 0.937191 -1.63897 0
M  V30 1254 O 116.292 1.61081 -0.857856 0
M  V30 1255 C 116.343 -0.588638 -3.56675 0
M  V30 1256 O 116.064 -1.93535 -3.93034 0
M  V30 1257 C 117.565 -0.2019 -4.4284 0
M  V30 1258 H 114.785 -0.183215 -0.645502 0
M  V30 1259 H 117.329 -1.1455 -1.69407 0
M  V30 1260 H 115.484 0.0443159 -3.87375 0
M  V30 1261 H 115.898 -1.92871 -4.87751 0
M  V30 1262 H 117.372 -0.339599 -5.50954 0
M  V30 1263 H 117.849 0.857224 -4.30753 0
M  V30 1264 H 118.455 -0.809733 -4.17521 0
M  V30 1265 N 116.77 1.45427 -0.607355 0
M  V30 1266 C 117.7 2.3329 0.0989352 0
M  V30 1267 C 118.681 1.46816 0.859007 0
M  V30 1268 O 119.866 1.75588 0.829604 0
M  V30 1269 C 116.996 3.29518 1.09705 0
M  V30 1270 C 115.95 4.25626 0.450206 0
M  V30 1271 C 115.276 5.11542 1.55655 0
M  V30 1272 C 116.576 5.18505 -0.628455 0
M  V30 1273 H 118.27 2.92595 -0.634716 0
M  V30 1274 H 115.816 1.40696 -0.306681 0
M  V30 1275 H 117.769 3.89855 1.59971 0
M  V30 1276 H 116.493 2.68372 1.86129 0
M  V30 1277 H 115.152 3.66586 -0.0315886 0
M  V30 1278 H 114.8 4.46765 2.31107 0
M  V30 1279 H 114.5 5.76647 1.12925 0
M  V30 1280 H 116.024 5.74748 2.06148 0
M  V30 1281 H 117.438 5.72916 -0.209877 0
M  V30 1282 H 115.835 5.92085 -0.977489 0
M  V30 1283 H 116.905 4.60948 -1.50514 0
M  V30 1284 N 118.248 0.346503 1.53744 0
M  V30 1285 C 119.211 -0.496439 2.23759 0
M  V30 1286 C 120.211 -1.0252 1.2388 0
M  V30 1287 O 121.401 -0.913974 1.48297 0
M  V30 1288 C 118.533 -1.69187 2.95954 0
M  V30 1289 H 119.726 0.115952 2.99676 0
M  V30 1290 H 117.279 0.0978939 1.55993 0
M  V30 1291 H 118.014 -2.34288 2.24231 0
M  V30 1292 H 117.799 -1.31989 3.69217 0
M  V30 1293 H 119.289 -2.28969 3.49232 0
M  V30 1294 N 119.726 -1.57421 0.075193 0
M  V30 1295 C 120.973 -1.93618 -0.593146 0
M  V30 1296 C 121.301 -0.955484 -1.69413 0
M  V30 1297 O 120.556 0.0283251 -1.9568 0
M  V30 1298 C 120.855 -3.36428 -1.20626 0
M  V30 1299 C 120.521 -4.50307 -0.231078 0
M  V30 1300 C 119.183 -4.81186 0.0371936 0
M  V30 1301 C 121.535 -5.19374 0.435888 0
M  V30 1302 C 118.863 -5.78466 0.979461 0
M  V30 1303 C 121.215 -6.17665 1.3665 0
M  V30 1304 C 119.879 -6.46958 1.6432 0
M  V30 1305 H 119.149 -0.708499 -0.217047 0
M  V30 1306 H 121.796 -1.90937 0.146793 0
M  V30 1307 H 120.101 -3.35592 -2.02201 0
M  V30 1308 H 121.798 -3.61727 -1.73073 0
M  V30 1309 H 118.388 -4.26227 -0.450357 0
M  V30 1310 H 122.572 -4.95711 0.241748 0
M  V30 1311 H 117.828 -5.99487 1.20106 0
M  V30 1312 H 122.002 -6.70284 1.88924 0
M  V30 1313 H 119.629 -7.2215 2.37494 0
M  V30 1314 N 121.204 0.198386 -1.56346 0
M  V30 1315 C 122.45 0.916115 -1.81601 0
M  V30 1316 C 122.805 1.81025 -0.651744 0
M  V30 1317 O 122.098 1.88316 0.353229 0
M  V30 1318 C 122.292 1.77031 -3.10475 0
M  V30 1319 C 122.121 0.960365 -4.39326 0
M  V30 1320 C 120.891 0.646093 -5.01152 0
M  V30 1321 C 123.089 0.314628 -5.13337 0
M  V30 1322 N 121.071 -0.182828 -6.13628 0
M  V30 1323 C 122.442 -0.37664 -6.18855 0
M  V30 1324 C 124.497 0.230019 -4.97368 0
M  V30 1325 C 123.2 -1.14445 -7.10137 0
M  V30 1326 C 125.226 -0.524389 -5.89071 0
M  V30 1327 C 124.588 -1.20412 -6.94032 0
M  V30 1328 H 120.687 0.314732 -0.715868 0
M  V30 1329 H 123.271 0.185102 -1.93818 0
M  V30 1330 H 121.442 2.47295 -2.99499 0
M  V30 1331 H 123.174 2.42727 -3.2383 0
M  V30 1332 H 119.929 0.969724 -4.63566 0
M  V30 1333 H 120.353 -0.586802 -6.74452 0
M  V30 1334 H 124.995 0.741184 -4.16253 0
M  V30 1335 H 122.713 -1.66706 -7.90718 0
M  V30 1336 H 126.299 -0.591167 -5.78789 0
M  V30 1337 H 125.179 -1.77853 -7.63766 0
M  V30 1338 N 122.682 1.50554 0.465978 0
M  V30 1339 C 123.907 1.65838 1.24549 0
M  V30 1340 C 124.332 0.343486 1.84937 0
M  V30 1341 O 123.69 -0.69324 1.67523 0
M  V30 1342 C 123.738 2.75533 2.32624 0
M  V30 1343 O 122.842 2.37142 3.37398 0
M  V30 1344 H 122.183 0.553893 0.366194 0
M  V30 1345 H 124.713 1.96959 0.553927 0
M  V30 1346 H 124.723 2.98763 2.77857 0
M  V30 1347 H 123.398 3.70962 1.88043 0
M  V30 1348 H 121.975 2.24377 2.97841 0
M  V30 1349 N 124.16 -0.719506 1.40217 0
M  V30 1350 C 125.107 -1.83359 1.40172 0
M  V30 1351 C 126.077 -1.64065 0.259206 0
M  V30 1352 O 127.262 -1.85254 0.456677 0
M  V30 1353 C 124.402 -3.2103 1.26624 0
M  V30 1354 C 123.515 -3.51923 2.50548 0
M  V30 1355 C 122.65 -4.79079 2.29471 0
M  V30 1356 C 121.689 -5.02863 3.48992 0
M  V30 1357 N 120.826 -6.2123 3.27135 0
M  V30 1358 H 125.666 -1.82733 2.35399 0
M  V30 1359 H 123.203 -0.892688 1.16917 0
M  V30 1360 H 125.161 -4.00524 1.16776 0
M  V30 1361 H 123.791 -3.20895 0.350176 0
M  V30 1362 H 122.843 -2.67014 2.70939 0
M  V30 1363 H 124.155 -3.6541 3.39525 0
M  V30 1364 H 123.309 -5.66582 2.16955 0
M  V30 1365 H 122.048 -4.67794 1.37913 0
M  V30 1366 H 121.053 -4.13816 3.6199 0
M  V30 1367 H 122.278 -5.16023 4.41472 0
M  V30 1368 H 120.224 -6.11204 2.38256 0
M  V30 1369 H 120.141 -6.35375 4.09675 0
M  V30 1370 H 121.409 -7.11532 3.18344 0
M  V30 1371 N 125.638 -1.25649 -0.95132 0
M  V30 1372 C 126.588 -1.03004 -2.03406 0
M  V30 1373 C 127.572 0.034187 -1.60864 0
M  V30 1374 O 128.764 -0.181549 -1.76066 0
M  V30 1375 C 125.893 -0.654255 -3.37008 0
M  V30 1376 C 124.979 -1.75542 -3.86065 0
M  V30 1377 N 125.37 -2.99113 -4.07879 0
M  V30 1378 C 123.668 -1.63669 -4.14884 0
M  V30 1379 C 124.369 -3.70611 -4.48356 0
M  V30 1380 N 123.345 -2.98247 -4.54477 0
M  V30 1381 H 127.147 -1.96813 -2.1827 0
M  V30 1382 H 124.661 -1.16017 -1.13639 0
M  V30 1383 H 126.658 -0.473206 -4.14206 0
M  V30 1384 H 125.318 0.276468 -3.23521 0
M  V30 1385 H 126.329 -3.35124 -3.94857 0
M  V30 1386 H 123.006 -0.775161 -4.10241 0
M  V30 1387 H 124.396 -4.76695 -4.73509 0
M  V30 1388 N 127.117 1.15442 -1.07289 0
M  V30 1389 C 128.363 1.86489 -0.796846 0
M  V30 1390 C 128.696 1.82078 0.675371 0
M  V30 1391 O 127.971 1.24346 1.4956 0
M  V30 1392 C 128.254 3.35626 -1.30489 0
M  V30 1393 C 128.107 3.48673 -2.84161 0
M  V30 1394 C 129.426 4.30357 -0.920907 0
M  V30 1395 H 126.545 0.677144 -0.290939 0
M  V30 1396 H 129.187 1.35633 -1.33056 0
M  V30 1397 H 127.337 3.79068 -0.850883 0
M  V30 1398 H 129.009 3.14099 -3.37846 0
M  V30 1399 H 127.252 2.90253 -3.22391 0
M  V30 1400 H 127.923 4.53453 -3.14777 0
M  V30 1401 H 130.399 3.94871 -1.3121 0
M  V30 1402 H 129.275 5.33193 -1.30372 0
M  V30 1403 H 129.536 4.4176 0.173226 0
M  V30 1404 N 128.595 0.856903 1.32268 0
M  V30 1405 C 129.872 0.382583 1.91822 0
M  V30 1406 C 130.252 -1.13407 1.78051 0
M  V30 1407 O 129.6 -1.95673 1.18001 0
M  V30 1408 C 129.81 0.849446 3.38505 0
M  V30 1409 C 131.158 0.867936 4.15634 0
M  V30 1410 O 132.182 0.794232 3.47232 0
M  V30 1411 O 131.041 0.972286 5.37781 0
M  V30 1412 H 128.135 0.112014 0.819379 0
M  V30 1413 H 130.681 0.943952 1.41024 0
M  V30 1414 H 129.453 1.89267 3.42482 0
M  V30 1415 H 129.076 0.265652 3.96712 0
M  V30 1416 N 130.073 -1.45103 0.615059 0
M  V30 1417 C 131.321 -2.01784 0.112955 0
M  V30 1418 C 131.642 -1.48504 -1.26378 0
M  V30 1419 O 130.912 -0.682245 -1.83636 0
M  V30 1420 H 129.492 -0.745993 0.0387668 0
M  V30 1421 H 132.154 -1.77808 0.798141 0
M  V30 1422 H 131.25 -3.12025 0.0684069 0
M  V30 1423 N 131.551 -0.354651 -1.53558 0
M  V30 1424 C 132.828 0.294281 -1.93374 0
M  V30 1425 C 133.208 1.67313 -1.28723 0
M  V30 1426 O 132.556 2.24179 -0.442247 0
M  V30 1427 C 132.766 0.355445 -3.47185 0
M  V30 1428 C 134.114 0.601007 -4.20325 0
M  V30 1429 O 135.138 0.437106 -3.53508 0
M  V30 1430 O 133.997 0.919322 -5.38712 0
M  V30 1431 H 131.091 0.174033 -0.808481 0
M  V30 1432 H 133.637 -0.406638 -1.64756 0
M  V30 1433 H 132.409 -0.611729 -3.86489 0
M  V30 1434 H 132.032 1.1027 -3.82003 0
M  V30 1435 N 133.029 1.57378 -0.0835403 0
M  V30 1436 C 133.961 2.10389 0.909338 0
M  V30 1437 C 134.974 1.03858 1.25369 0
M  V30 1438 O 136.163 1.31338 1.20882 0
M  V30 1439 C 133.263 2.55908 2.2218 0
M  V30 1440 C 132.436 3.86145 2.05453 0
M  V30 1441 C 131.495 4.17633 3.20108 0
M  V30 1442 O 130.521 4.87043 2.94581 0
M  V30 1443 N 131.723 3.72113 4.45547 0
M  V30 1444 H 134.488 2.962 0.456657 0
M  V30 1445 H 132.049 1.61579 0.101877 0
M  V30 1446 H 134.041 2.74027 2.97811 0
M  V30 1447 H 132.611 1.75171 2.58909 0
M  V30 1448 H 131.831 3.7729 1.1422 0
M  V30 1449 H 133.119 4.7137 1.91541 0
M  V30 1450 H 132.517 3.16062 4.69171 0
M  V30 1451 H 131.074 3.95409 5.18165 0
M  V30 1452 N 134.507 -0.190092 1.56449 0
M  V30 1453 C 135.747 -0.916414 1.82705 0
M  V30 1454 C 136.111 -1.80235 0.661763 0
M  V30 1455 O 137.312 -2.56484 0.80433 0
M  V30 1456 C 135.583 -1.70691 3.14005 0
M  V30 1457 S 137.142 -2.48457 3.61683 0
M  V30 1458 H 133.96 -0.307281 0.64117 0
M  V30 1459 H 136.562 -0.179433 1.94675 0
M  V30 1460 H 135.266 -1.04677 3.96826 0
M  V30 1461 H 134.797 -2.48562 3.04927 0
M  V30 1462 H 136.812 -3.72756 3.27517 0
M  V30 1463 N 135.985 -1.50799 -0.457987 0
M  V30 1464 C 136.915 -1.73553 -1.5621 0
M  V30 1465 C 137.896 -0.584774 -1.59732 0
M  V30 1466 O 139.081 -0.825314 -1.7579 0
M  V30 1467 C 136.211 -1.84169 -2.94447 0
M  V30 1468 C 135.165 -2.99461 -3.0579 0
M  V30 1469 C 134.491 -2.95235 -4.45803 0
M  V30 1470 C 135.791 -4.39766 -2.81786 0
M  V30 1471 H 137.485 -2.66 -1.37421 0
M  V30 1472 H 135.031 -1.28002 -0.659662 0
M  V30 1473 H 136.984 -1.98672 -3.71628 0
M  V30 1474 H 135.708 -0.883545 -3.14422 0
M  V30 1475 H 134.367 -2.8463 -2.31044 0
M  V30 1476 H 134.015 -1.97239 -4.62715 0
M  V30 1477 H 133.715 -3.72642 -4.54326 0
M  V30 1478 H 135.239 -3.11803 -5.24987 0
M  V30 1479 H 136.653 -4.55054 -3.4871 0
M  V30 1480 H 135.05 -5.18722 -3.0174 0
M  V30 1481 H 136.12 -4.51229 -1.7754 0
M  V30 1482 N 137.463 0.71206 -1.40597 0
M  V30 1483 C 138.709 1.47416 -1.39271 0
M  V30 1484 C 139.042 1.942 0.00388791 0
M  V30 1485 O 138.317 1.68403 0.973179 0
M  V30 1486 C 138.6 2.69774 -2.38525 0
M  V30 1487 C 138.453 2.28861 -3.87224 0
M  V30 1488 C 139.772 3.71939 -2.35264 0
M  V30 1489 H 136.891 0.534713 -0.5072 0
M  V30 1490 H 139.533 0.812375 -1.71757 0
M  V30 1491 H 137.683 3.26238 -2.10953 0
M  V30 1492 H 139.355 1.77852 -4.25636 0
M  V30 1493 H 137.598 1.60824 -4.02887 0
M  V30 1494 H 138.269 3.16584 -4.52193 0
M  V30 1495 H 140.745 3.25113 -2.59694 0
M  V30 1496 H 139.621 4.55186 -3.06753 0
M  V30 1497 H 139.882 4.20484 -1.36549 0
M  V30 1498 N 138.941 1.26152 0.944643 0
M  V30 1499 C 139.871 1.09902 2.06019 0
M  V30 1500 C 140.852 0.00519538 1.70099 0
M  V30 1501 O 142.037 0.176583 1.93396 0
M  V30 1502 C 139.167 0.727562 3.39594 0
M  V30 1503 C 138.121 1.77274 3.89561 0
M  V30 1504 C 137.447 1.25569 5.19747 0
M  V30 1505 C 138.747 3.17357 4.14827 0
M  V30 1506 H 140.441 2.03217 2.19871 0
M  V30 1507 H 137.987 0.978452 1.05652 0
M  V30 1508 H 139.94 0.600777 4.17095 0
M  V30 1509 H 138.664 -0.241287 3.25707 0
M  V30 1510 H 137.323 1.88814 3.14237 0
M  V30 1511 H 136.971 0.276783 5.02238 0
M  V30 1512 H 136.671 1.95433 5.54148 0
M  V30 1513 H 138.195 1.1415 5.99835 0
M  V30 1514 H 139.609 3.08914 4.82954 0
M  V30 1515 H 138.006 3.84781 4.60504 0
M  V30 1516 H 139.076 3.63673 3.20734 0
M  V30 1517 N 140.419 -1.14872 1.07899 0
M  V30 1518 C 141.83 -1.67367 0.827363 0
M  V30 1519 C 142.181 -1.85236 -0.646693 0
M  V30 1520 O 141.306 -1.55974 -1.50004 0
M  V30 1521 C 141.901 -3.04016 1.49532 0
M  V30 1522 C 140.46 -3.53566 1.29106 0
M  V30 1523 C 139.607 -2.29161 1.56143 0
M  V30 1524 H 142.558 -0.990083 1.24028 0
M  V30 1525 H 142.579 -3.69219 0.919643 0
M  V30 1526 H 142.091 -2.90978 2.56814 0
M  V30 1527 H 140.192 -3.71835 0.238713 0
M  V30 1528 H 140.305 -4.34661 2.01511 0
M  V30 1529 H 138.669 -2.34978 0.982717 0
M  V30 1530 H 139.452 -2.18705 2.64619 0
M  V30 1531 N 141.898 -0.863906 -1.31812 0
M  V30 1532 C 142.828 -0.330843 -2.31144 0
M  V30 1533 C 143.809 0.575005 -1.60087 0
M  V30 1534 O 144.994 0.493304 -1.8783 0
M  V30 1535 C 142.124 0.47374 -3.44054 0
M  V30 1536 C 141.078 -0.338481 -4.26659 0
M  V30 1537 C 140.404 0.591412 -5.31419 0
M  V30 1538 C 141.704 -1.56926 -4.98168 0
M  V30 1539 H 143.398 -1.16086 -2.75979 0
M  V30 1540 H 140.944 -0.559657 -1.32679 0
M  V30 1541 H 142.897 0.857143 -4.12591 0
M  V30 1542 H 141.621 1.33721 -2.9797 0
M  V30 1543 H 140.28 -0.703754 -3.59782 0
M  V30 1544 H 139.928 1.45199 -4.81587 0
M  V30 1545 H 139.628 0.0519022 -5.87577 0
M  V30 1546 H 141.152 0.97179 -6.02817 0
M  V30 1547 H 142.566 -1.25764 -5.59336 0
M  V30 1548 H 140.963 -2.04739 -5.64094 0
M  V30 1549 H 142.033 -2.32544 -4.25501 0
M  V30 1550 N 143.376 1.44774 -0.622745 0
M  V30 1551 C 144.286 2.34433 0.0886031 0
M  V30 1552 C 145.302 1.52131 0.844529 0
M  V30 1553 O 146.478 1.84886 0.798691 0
M  V30 1554 C 143.543 3.29986 1.0635 0
M  V30 1555 C 142.604 4.28195 0.307873 0
M  V30 1556 C 141.837 5.19183 1.23633 0
M  V30 1557 O 142.06 5.13918 2.47476 0
M  V30 1558 O 140.994 5.97515 0.725189 0
M  V30 1559 H 144.82 2.96693 -0.648599 0
M  V30 1560 H 142.405 1.44408 -0.382957 0
M  V30 1561 H 144.287 3.88825 1.6246 0
M  V30 1562 H 142.962 2.70269 1.78146 0
M  V30 1563 H 141.869 3.72927 -0.296064 0
M  V30 1564 H 143.202 4.90808 -0.3699 0
M  V30 1565 N 144.854 0.36279 1.53368 0
M  V30 1566 C 145.804 -0.501391 2.22419 0
M  V30 1567 C 146.788 -1.0509 1.2184 0
M  V30 1568 O 147.98 -0.981404 1.47301 0
M  V30 1569 C 145.109 -1.64201 3.01484 0
M  V30 1570 C 144.195 -1.10552 4.09438 0
M  V30 1571 N 144.586 -0.291788 5.04958 0
M  V30 1572 C 142.884 -1.3806 4.24094 0
M  V30 1573 C 143.585 0.00162655 5.817 0
M  V30 1574 N 142.561 -0.595244 5.40331 0
M  V30 1575 H 146.363 0.127159 2.93625 0
M  V30 1576 H 143.877 0.170658 1.61501 0
M  V30 1577 H 145.874 -2.27326 3.49469 0
M  V30 1578 H 144.534 -2.27365 2.31809 0
M  V30 1579 H 145.545 0.0687731 5.17854 0
M  V30 1580 H 142.222 -2.01522 3.65644 0
M  V30 1581 H 143.612 0.659278 6.68658 0
M  V30 1582 N 146.332 -1.57332 0.0918853 0
M  V30 1583 C 147.743 -1.81496 -0.437739 0
M  V30 1584 C 148.094 -1.00727 -1.6837 0
M  V30 1585 O 147.219 -0.235694 -2.15113 0
M  V30 1586 C 147.814 -3.29197 -0.800939 0
M  V30 1587 C 146.373 -3.54136 -1.27532 0
M  V30 1588 C 145.52 -2.75979 -0.270392 0
M  V30 1589 H 148.471 -1.55494 0.317366 0
M  V30 1590 H 148.492 -3.42344 -1.66074 0
M  V30 1591 H 148.004 -3.87955 0.106078 0
M  V30 1592 H 146.105 -3.00705 -2.20016 0
M  V30 1593 H 146.218 -4.62792 -1.23938 0
M  V30 1594 H 144.582 -2.43349 -0.751872 0
M  V30 1595 H 145.365 -3.37484 0.629248 0
M  V30 1596 N 147.81 0.181792 -1.56548 0
M  V30 1597 C 149.05 0.906711 -1.83189 0
M  V30 1598 C 149.414 1.79882 -0.671312 0
M  V30 1599 O 150.615 2.56054 -0.81792 0
M  V30 1600 C 148.886 1.69023 -3.14906 0
M  V30 1601 S 150.445 2.46535 -3.62996 0
M  V30 1602 H 147.263 0.303877 -0.642791 0
M  V30 1603 H 149.865 0.169107 -1.94767 0
M  V30 1604 H 148.569 1.02571 -3.97376 0
M  V30 1605 H 148.1 2.46941 -3.06241 0
M  V30 1606 H 150.115 3.71014 -3.29489 0
M  V30 1607 N 149.288 1.51039 0.449983 0
M  V30 1608 C 150.251 1.70863 1.5277 0
M  V30 1609 C 151.251 0.578846 1.5002 0
M  V30 1610 O 152.441 0.846213 1.52266 0
M  V30 1611 C 149.573 1.75341 2.9235 0
M  V30 1612 H 150.766 2.67034 1.36502 0
M  V30 1613 H 148.319 1.40838 0.677812 0
M  V30 1614 H 149.054 0.809383 3.14037 0
M  V30 1615 H 148.839 2.57436 2.95752 0
M  V30 1616 H 150.329 1.92559 3.70555 0
M  V30 1617 N 150.766 -0.704594 1.40972 0
M  V30 1618 C 151.991 -1.49858 1.43378 0
M  V30 1619 C 152.416 -1.88061 0.038184 0
M  V30 1620 O 151.774 -1.5402 -0.956425 0
M  V30 1621 C 151.822 -2.74333 2.34038 0
M  V30 1622 O 150.926 -3.7147 1.7912 0
M  V30 1623 H 150.267 -0.45139 0.486974 0
M  V30 1624 H 152.797 -0.866832 1.8533 0
M  V30 1625 H 152.807 -3.22741 2.49604 0
M  V30 1626 H 151.482 -2.45863 3.35446 0
M  V30 1627 H 150.059 -3.30363 1.72958 0
M  V30 1628 N 152.244 -1.26651 -0.937939 0
M  V30 1629 C 153.174 -1.10993 -2.05433 0
M  V30 1630 C 154.155 -0.0142161 -1.70094 0
M  V30 1631 O 155.34 -0.186837 -1.93299 0
M  V30 1632 C 152.47 -0.745561 -3.39203 0
M  V30 1633 C 151.424 -1.79337 -3.88616 0
M  V30 1634 C 150.75 -1.28324 -5.19073 0
M  V30 1635 C 152.05 -3.19553 -4.13138 0
M  V30 1636 H 153.744 -2.0438 -2.1879 0
M  V30 1637 H 151.29 -0.984041 -1.05131 0
M  V30 1638 H 153.243 -0.622888 -4.16771 0
M  V30 1639 H 151.967 0.22401 -3.25831 0
M  V30 1640 H 150.626 -1.90477 -3.13231 0
M  V30 1641 H 150.274 -0.303414 -5.02084 0
M  V30 1642 H 149.974 -1.98369 -5.53103 0
M  V30 1643 H 151.498 -1.1733 -5.99221 0
M  V30 1644 H 152.912 -3.11471 -4.81309 0
M  V30 1645 H 151.309 -3.87218 -4.58457 0
M  V30 1646 H 152.379 -3.65368 -3.18801 0
M  V30 1647 N 153.722 1.14298 -1.08507 0
M  V30 1648 C 154.962 1.87016 -0.824894 0
M  V30 1649 C 155.326 1.81099 0.637735 0
M  V30 1650 O 156.527 2.48963 1.01345 0
M  V30 1651 C 154.798 3.31584 -1.33368 0
M  V30 1652 S 156.357 4.21903 -1.20596 0
M  V30 1653 H 153.175 0.645259 -0.2986 0
M  V30 1654 H 155.777 1.37822 -1.38656 0
M  V30 1655 H 154.481 3.33439 -2.39262 0
M  V30 1656 H 154.012 3.85836 -0.767734 0
M  V30 1657 H 156.027 4.95971 -0.150891 0
M  V30 1658 N 155.201 0.870884 1.31352 0
M  V30 1659 C 156.441 0.488783 1.9847 0
M  V30 1660 C 156.805 -0.941536 1.67329 0
M  V30 1661 O 158.006 -1.42903 2.27667 0
M  V30 1662 C 156.277 0.739688 3.49662 0
M  V30 1663 S 157.836 0.457582 4.36408 0
M  V30 1664 H 154.654 0.18242 0.6872 0
M  V30 1665 H 157.256 1.12711 1.59739 0
M  V30 1666 H 155.96 1.77944 3.69816 0
M  V30 1667 H 155.491 0.0883905 3.93301 0
M  V30 1668 H 157.506 -0.709752 4.91098 0
M  V30 1669 N 156.679 -1.44442 0.630414 0
M  V30 1670 C 157.927 -2.01653 0.134351 0
M  V30 1671 C 158.248 -1.49836 -1.24796 0
M  V30 1672 O 157.518 -0.701684 -1.82902 0
M  V30 1673 H 156.098 -0.74554 0.0466769 0
M  V30 1674 H 158.76 -1.76952 0.816955 0
M  V30 1675 H 157.856 -3.11935 0.101498 0
M  V30 1676 N 158.157 -0.370918 -1.53173 0
M  V30 1677 C 159.107 0.489588 -2.22681 0
M  V30 1678 C 160.091 1.04442 -1.22395 0
M  V30 1679 O 161.283 0.973578 -1.47819 0
M  V30 1680 C 158.412 1.626 -3.02351 0
M  V30 1681 C 157.498 1.08379 -4.10018 0
M  V30 1682 N 157.889 0.265004 -5.05105 0
M  V30 1683 C 156.187 1.35809 -4.2482 0
M  V30 1684 C 156.888 -0.0324755 -5.81691 0
M  V30 1685 N 155.864 0.566581 -5.40639 0
M  V30 1686 H 159.666 -0.142729 -2.93553 0
M  V30 1687 H 157.18 -0.179221 -1.61408 0
M  V30 1688 H 159.177 2.2547 -3.50669 0
M  V30 1689 H 157.837 2.26132 -2.33011 0
M  V30 1690 H 158.848 -0.0962352 -5.17811 0
M  V30 1691 H 155.525 1.9958 -3.66707 0
M  V30 1692 H 156.915 -0.69473 -6.68299 0
M  V30 1693 N 159.635 1.57281 -0.100228 0
M  V30 1694 C 160.883 1.94153 0.561157 0
M  V30 1695 C 161.204 0.983157 1.68401 0
M  V30 1696 O 160.474 0.0361132 1.95867 0
M  V30 1697 H 159.054 0.716791 0.210283 0
M  V30 1698 H 161.716 1.94202 -0.164765 0
M  V30 1699 H 160.812 2.96709 0.968008 0
M  V30 1700 N 161.113 -0.173488 1.56642 0
M  V30 1701 C 162.341 -0.906095 1.86004 0
M  V30 1702 C 162.756 -1.75921 0.685355 0
M  V30 1703 O 162.113 -1.79198 -0.345578 0
M  V30 1704 C 162.164 -1.78462 3.14378 0
M  V30 1705 O 161.885 -0.965914 4.27319 0
M  V30 1706 C 163.386 -2.62707 3.57071 0
M  V30 1707 H 160.606 -0.263341 0.617165 0
M  V30 1708 H 163.15 -0.174236 2.03756 0
M  V30 1709 H 161.305 -2.46984 2.98459 0
M  V30 1710 H 161.719 -1.56655 5.00559 0
M  V30 1711 H 163.193 -3.19969 4.49804 0
M  V30 1712 H 163.67 -3.37472 2.81086 0
M  V30 1713 H 164.276 -1.99521 3.75595 0
M  V30 1714 N 162.591 -1.51276 -0.441967 0
M  V30 1715 C 163.831 -1.65372 -1.20132 0
M  V30 1716 C 164.195 -0.359871 -1.88597 0
M  V30 1717 O 165.396 -0.376551 -2.66149 0
M  V30 1718 C 163.667 -2.8207 -2.1948 0
M  V30 1719 S 165.226 -3.16467 -3.03964 0
M  V30 1720 H 162.044 -0.582669 -0.407453 0
M  V30 1721 H 164.646 -1.89166 -0.493609 0
M  V30 1722 H 163.35 -3.74523 -1.67812 0
M  V30 1723 H 162.881 -2.6045 -2.94838 0
M  V30 1724 H 164.896 -2.62543 -4.21053 0
M  V30 1725 N 164.069 0.697108 -1.41344 0
M  V30 1726 C 165.318 1.45279 -1.39918 0
M  V30 1727 C 165.631 1.95597 -0.0109624 0
M  V30 1728 O 166.837 2.71208 0.125919 0
M  V30 1729 C 165.293 2.62695 -2.46007 0
M  V30 1730 C 164.901 2.19169 -3.90729 0
M  V30 1731 C 166.645 3.40336 -2.53715 0
M  V30 1732 C 164.552 3.33535 -4.88373 0
M  V30 1733 H 163.482 0.545692 -0.520323 0
M  V30 1734 H 166.133 0.756929 -1.67161 0
M  V30 1735 H 164.515 3.34541 -2.11892 0
M  V30 1736 H 165.689 1.54623 -4.34083 0
M  V30 1737 H 164.004 1.54525 -3.86666 0
M  V30 1738 H 166.601 4.2547 -3.2385 0
M  V30 1739 H 166.944 3.85418 -1.5735 0
M  V30 1740 H 167.477 2.75546 -2.86913 0
M  V30 1741 H 164.216 2.93468 -5.86137 0
M  V30 1742 H 163.736 3.96936 -4.49668 0
M  V30 1743 H 165.415 3.99335 -5.09059 0
M  V30 1744 N 165.547 1.27147 0.931209 0
M  V30 1745 C 166.824 1.0401 1.65654 0
M  V30 1746 C 167.204 -0.426297 2.06751 0
M  V30 1747 O 166.552 -1.40879 1.79904 0
M  V30 1748 C 166.762 1.99834 2.86125 0
M  V30 1749 C 168.11 2.29007 3.57549 0
M  V30 1750 O 169.134 1.97779 2.96246 0
M  V30 1751 O 167.993 2.82222 4.67989 0
M  V30 1752 H 165.087 0.396239 0.725895 0
M  V30 1753 H 167.633 1.38397 0.982056 0
M  V30 1754 H 166.405 2.98744 2.52721 0
M  V30 1755 H 166.028 1.65987 3.61295 0
M  V30 1756 N 167.025 -1.13721 1.09112 0
M  V30 1757 C 168.273 -1.84559 0.823562 0
M  V30 1758 C 168.594 -1.83754 -0.652658 0
M  V30 1759 O 167.864 -1.29102 -1.47342 0
M  V30 1760 H 166.444 -0.683376 0.301673 0
M  V30 1761 H 169.106 -1.37771 1.37859 0
M  V30 1762 H 168.202 -2.8917 1.17419 0
M  V30 1763 N 168.503 -0.877838 -1.30888 0
M  V30 1764 C 169.752 -0.488793 -1.95688 0
M  V30 1765 C 170.065 0.965485 -1.70111 0
M  V30 1766 O 171.271 1.46104 -2.28836 0
M  V30 1767 C 169.727 -0.823201 -3.50359 0
M  V30 1768 C 169.335 -2.29477 -3.84765 0
M  V30 1769 C 171.079 -0.503009 -4.21509 0
M  V30 1770 C 168.986 -2.57118 -5.32583 0
M  V30 1771 H 167.916 -0.179062 -0.732429 0
M  V30 1772 H 170.567 -1.07183 -1.48943 0
M  V30 1773 H 168.949 -0.169331 -3.95638 0
M  V30 1774 H 170.123 -2.99236 -3.5042 0
M  V30 1775 H 168.438 -2.58178 -3.267 0
M  V30 1776 H 171.035 -0.68665 -5.30273 0
M  V30 1777 H 171.378 0.557109 -4.12555 0
M  V30 1778 H 171.911 -1.11376 -3.8189 0
M  V30 1779 H 168.65 -3.61843 -5.4658 0
M  V30 1780 H 168.17 -1.91961 -5.68253 0
M  V30 1781 H 169.849 -2.42251 -5.99936 0
M  V30 1782 N 169.982 1.44106 -0.638065 0
M  V30 1783 C 171.23 2.01579 -0.145043 0
M  V30 1784 C 171.551 1.50496 1.24 0
M  V30 1785 O 170.821 0.711374 1.82527 0
M  V30 1786 H 169.401 0.745282 -0.05063 0
M  V30 1787 H 172.063 1.76516 -0.826327 0
M  V30 1788 H 171.159 3.11877 -0.118039 0
M  V30 1789 N 171.46 0.379036 1.52974 0
M  V30 1790 C 172.685 -0.209353 2.06341 0
M  V30 1791 C 173.11 -1.40583 1.24972 0
M  V30 1792 O 172.468 -1.79246 0.272155 0
M  V30 1793 C 172.516 -0.567786 3.56102 0
M  V30 1794 O 171.62 -1.66318 3.77375 0
M  V30 1795 H 170.961 -0.0272919 0.663439 0
M  V30 1796 H 173.491 0.543536 1.97248 0
M  V30 1797 H 173.501 -0.835003 3.99364 0
M  V30 1798 H 172.176 0.307013 4.14765 0
M  V30 1799 H 170.753 -1.39048 3.46006 0
M  V30 1800 N 172.938 -1.57226 0.108567 0
M  V30 1801 C 174.185 -1.94833 -0.551943 0
M  V30 1802 C 174.513 -0.991204 -1.67348 0
M  V30 1803 O 173.768 -0.0131878 -1.95696 0
M  V30 1804 C 174.067 -3.38911 -1.13463 0
M  V30 1805 C 173.733 -4.50696 -0.135509 0
M  V30 1806 C 172.395 -4.80998 0.139252 0
M  V30 1807 C 174.747 -5.18333 0.545957 0
M  V30 1808 C 172.075 -5.76259 1.10194 0
M  V30 1809 C 174.427 -6.14627 1.49721 0
M  V30 1810 C 173.091 -6.43327 1.78006 0
M  V30 1811 H 172.361 -0.712944 -0.20197 0
M  V30 1812 H 175.008 -1.90582 0.18726 0
M  V30 1813 H 173.313 -3.39805 -1.95037 0
M  V30 1814 H 175.01 -3.65317 -1.65362 0
M  V30 1815 H 171.6 -4.27087 -0.359846 0
M  V30 1816 H 175.784 -4.95087 0.346842 0
M  V30 1817 H 171.04 -5.96804 1.32795 0
M  V30 1818 H 175.214 -6.66126 2.03099 0
M  V30 1819 H 172.841 -7.1695 2.52759 0
M  V30 1820 N 174.416 0.165178 -1.56732 0
M  V30 1821 C 175.641 0.900253 -1.86843 0
M  V30 1822 C 176.066 1.74766 -0.695596 0
M  V30 1823 O 175.424 1.77786 0.35522 0
M  V30 1824 C 175.472 1.74777 -3.15413 0
M  V30 1825 O 174.576 2.85007 -2.98068 0
M  V30 1826 H 173.917 0.251832 -0.614391 0
M  V30 1827 H 176.447 0.161468 -2.03962 0
M  V30 1828 H 176.457 2.14646 -3.46974 0
M  V30 1829 H 175.132 1.12537 -4.00385 0
M  V30 1830 H 173.709 2.48676 -2.77875 0
M  V30 1831 N 175.894 1.51508 0.433938 0
M  V30 1832 C 177.134 1.66006 1.19253 0
M  V30 1833 C 177.498 0.369868 1.88404 0
M  V30 1834 O 178.699 0.39066 2.65946 0
M  V30 1835 C 176.97 2.83229 2.17981 0
M  V30 1836 S 178.529 3.18075 3.02281 0
M  V30 1837 H 175.347 0.584821 0.404358 0
M  V30 1838 H 177.949 1.89425 0.48357 0
M  V30 1839 H 176.653 3.75407 1.65824 0
M  V30 1840 H 176.184 2.6201 2.93453 0
M  V30 1841 H 178.199 2.64772 4.19655 0
M  V30 1842 N 177.372 -0.689602 1.41712 0
M  V30 1843 C 178.649 -1.44457 1.31877 0
M  V30 1844 C 179.029 -2.11039 -0.0508537 0
M  V30 1845 O 178.377 -2.02138 -1.06547 0
M  V30 1846 C 178.587 -2.45913 2.47645 0
M  V30 1847 C 179.935 -3.10991 2.89084 0
M  V30 1848 O 180.959 -2.56238 2.47428 0
M  V30 1849 O 179.818 -4.10174 3.61137 0
M  V30 1850 H 176.912 -0.64362 0.519309 0
M  V30 1851 H 179.458 -0.719576 1.53689 0
M  V30 1852 H 178.23 -1.95409 3.39015 0
M  V30 1853 H 177.853 -3.25913 2.27742 0
M  V30 1854 N 178.85 -1.27639 -0.924453 0
M  V30 1855 C 180.09 -1.15407 -1.68703 0
M  V30 1856 C 180.454 0.294581 -1.89727 0
M  V30 1857 O 181.655 0.539385 -2.63333 0
M  V30 1858 C 179.926 -1.9195 -3.0148 0
M  V30 1859 S 181.485 -1.95969 -3.92609 0
M  V30 1860 H 178.303 -0.411937 -0.579507 0
M  V30 1861 H 180.905 -1.61592 -1.10038 0
M  V30 1862 H 179.609 -2.96387 -2.83871 0
M  V30 1863 H 179.14 -1.46272 -3.65196 0
M  V30 1864 H 181.155 -1.05846 -4.84779 0
M  V30 1865 N 180.328 1.1314 -1.09713 0
M  V30 1866 C 181.744 1.36477 -0.827423 0
M  V30 1867 C 181.944 1.93654 0.556817 0
M  V30 1868 O 181 2.15791 1.31112 0
M  V30 1869 C 182.313 2.31334 -1.92106 0
M  V30 1870 C 183.861 2.44943 -1.94864 0
M  V30 1871 C 184.336 3.4311 -3.0338 0
M  V30 1872 N 185.827 3.50662 -3.02639 0
M  V30 1873 C 186.562 4.2651 -3.83246 0
M  V30 1874 N 186.058 5.05485 -4.73768 0
M  V30 1875 N 187.851 4.2184 -3.71493 0
M  V30 1876 H 180.002 0.743807 -1.9895 0
M  V30 1877 H 182.265 0.389823 -0.864143 0
M  V30 1878 H 181.971 1.96483 -2.91698 0
M  V30 1879 H 181.845 3.31381 -1.80184 0
M  V30 1880 H 184.232 2.79079 -0.959099 0
M  V30 1881 H 184.313 1.4481 -2.10864 0
M  V30 1882 H 183.957 3.09704 -4.02549 0
M  V30 1883 H 183.887 4.43055 -2.84622 0
M  V30 1884 H 186.378 2.94315 -2.37039 0
M  V30 1885 H 186.691 5.60675 -5.3185 0
M  V30 1886 H 185.036 5.04708 -4.77802 0
M  V30 1887 H 188.227 3.5922 -3.00131 0
M  V30 1888 H 188.4 4.80697 -4.3455 0
M  V30 1889 N 181.806 0.884767 1.30421 0
M  V30 1890 C 183.031 0.517288 2.00845 0
M  V30 1891 C 183.456 -0.886779 1.65885 0
M  V30 1892 O 182.814 -1.58768 0.875354 0
M  V30 1893 C 182.862 0.698994 3.5376 0
M  V30 1894 O 181.966 -0.255208 4.1161 0
M  V30 1895 H 181.307 0.203872 0.631927 0
M  V30 1896 H 183.837 1.19225 1.66272 0
M  V30 1897 H 183.847 0.597912 4.03595 0
M  V30 1898 H 182.522 1.72271 3.78544 0
M  V30 1899 H 181.099 -0.10784 3.72744 0
M  V30 1900 N 183.284 -1.43765 0.645699 0
M  V30 1901 C 184.532 -2.01499 0.155731 0
M  V30 1902 C 184.853 -1.51151 -1.232 0
M  V30 1903 O 184.123 -0.721044 -1.82148 0
M  V30 1904 H 182.703 -0.745003 0.0545817 0
M  V30 1905 H 185.365 -1.76075 0.835677 0
M  V30 1906 H 184.461 -3.1181 0.134577 0
M  V30 1907 N 184.763 -0.387143 -1.52771 0
M  V30 1908 C 186.009 0.188506 -2.02525 0
M  V30 1909 C 186.364 1.44649 -1.26864 0
M  V30 1910 O 185.657 1.88189 -0.359945 0
M  V30 1911 C 185.851 0.512209 -3.53711 0
M  V30 1912 C 185.68 -0.712855 -4.44014 0
M  V30 1913 C 184.45 -1.23147 -4.90064 0
M  V30 1914 C 186.648 -1.58453 -4.89282 0
M  V30 1915 N 184.63 -2.41431 -5.64433 0
M  V30 1916 C 186.001 -2.61381 -5.6221 0
M  V30 1917 C 188.056 -1.60488 -4.71326 0
M  V30 1918 C 186.759 -3.66227 -6.19088 0
M  V30 1919 C 188.785 -2.6424 -5.29085 0
M  V30 1920 C 188.147 -3.6589 -6.01917 0
M  V30 1921 H 184.246 0.0311236 -0.78138 0
M  V30 1922 H 186.83 -0.536548 -1.87161 0
M  V30 1923 H 185.001 1.20632 -3.69192 0
M  V30 1924 H 186.733 1.07482 -3.90166 0
M  V30 1925 H 183.488 -0.792795 -4.66917 0
M  V30 1926 H 183.912 -3.01274 -6.0627 0
M  V30 1927 H 188.554 -0.83247 -4.14524 0
M  V30 1928 H 186.272 -4.44337 -6.74974 0
M  V30 1929 H 189.858 -2.66695 -5.17074 0
M  V30 1930 H 188.738 -4.44855 -6.45813 0
M  V30 1931 N 186.241 1.57166 -0.116904 0
M  V30 1932 C 187.151 2.18745 0.847812 0
M  V30 1933 C 188.167 1.163 1.29423 0
M  V30 1934 O 189.343 1.48761 1.35765 0
M  V30 1935 C 186.408 2.77307 2.0809 0
M  V30 1936 C 185.469 3.94781 1.68661 0
M  V30 1937 C 184.702 4.50541 2.86091 0
M  V30 1938 O 184.925 4.05202 4.01456 0
M  V30 1939 O 183.859 5.41256 2.63298 0
M  V30 1940 H 187.685 3.01632 0.353778 0
M  V30 1941 H 185.27 1.49005 0.108599 0
M  V30 1942 H 187.152 3.14647 2.80313 0
M  V30 1943 H 185.827 1.97452 2.56504 0
M  V30 1944 H 184.734 3.62214 0.935518 0
M  V30 1945 H 186.067 4.76065 1.24991 0
M  V30 1946 N 187.719 -0.156864 1.56817 0
M  V30 1947 C 188.967 -0.869404 1.82444 0
M  V30 1948 C 189.288 -1.82147 0.69623 0
M  V30 1949 O 188.558 -1.93847 -0.28287 0
M  V30 1950 H 187.138 -0.324043 0.673056 0
M  V30 1951 H 189.8 -0.153224 1.94297 0
M  V30 1952 H 188.896 -1.43761 2.77019 0
M  V30 1953 N 189.197 -1.51736 -0.425897 0
M  V30 1954 C 190.613 -1.40166 -0.76326 0
M  V30 1955 C 190.813 -0.492962 -1.95377 0
M  V30 1956 O 189.869 0.0475815 -2.52455 0
M  V30 1957 C 191.182 -2.82403 -1.03291 0
M  V30 1958 C 192.73 -2.91632 -1.13665 0
M  V30 1959 C 193.205 -4.34801 -1.43916 0
M  V30 1960 N 194.696 -4.3796 -1.50816 0
M  V30 1961 C 195.431 -5.4578 -1.75817 0
M  V30 1962 N 194.927 -6.63744 -1.98534 0
M  V30 1963 N 196.72 -5.33274 -1.77694 0
M  V30 1964 H 188.871 -2.09361 0.358 0
M  V30 1965 H 191.134 -0.942941 0.0978094 0
M  V30 1966 H 190.84 -3.50943 -0.230696 0
M  V30 1967 H 190.714 -3.22428 -1.95754 0
M  V30 1968 H 193.101 -2.23284 -1.92947 0
M  V30 1969 H 193.182 -2.55088 -0.190756 0
M  V30 1970 H 192.826 -5.03703 -0.65157 0
M  V30 1971 H 192.756 -4.68868 -2.39729 0
M  V30 1972 H 195.247 -3.52919 -1.35118 0
M  V30 1973 H 195.56 -7.41704 -2.17013 0
M  V30 1974 H 193.905 -6.66839 -1.95832 0
M  V30 1975 H 197.096 -4.40098 -1.59473 0
M  V30 1976 H 197.269 -6.1738 -1.9684 0
M  V30 1977 N 190.675 0.682077 -1.42076 0
M  V30 1978 C 191.922 1.44215 -1.42156 0
M  V30 1979 C 192.25 1.94468 -0.0354186 0
M  V30 1980 O 191.505 1.70816 0.955002 0
M  V30 1981 C 191.804 2.66036 -2.38662 0
M  V30 1982 C 191.47 2.34366 -3.85206 0
M  V30 1983 C 190.132 2.25439 -4.25124 0
M  V30 1984 C 192.484 2.08513 -4.77673 0
M  V30 1985 C 189.812 1.88775 -5.55501 0
M  V30 1986 C 192.164 1.73354 -6.08384 0
M  V30 1987 C 190.828 1.62933 -6.47309 0
M  V30 1988 H 190.098 0.527718 -0.520187 0
M  V30 1989 H 192.745 0.778387 -1.74967 0
M  V30 1990 H 191.05 3.3741 -1.99152 0
M  V30 1991 H 192.747 3.24205 -2.35991 0
M  V30 1992 H 189.337 2.42213 -3.53597 0
M  V30 1993 H 193.521 2.14346 -4.47626 0
M  V30 1994 H 188.777 1.7927 -5.84527 0
M  V30 1995 H 192.951 1.52373 -6.79526 0
M  V30 1996 H 190.578 1.34292 -7.48244 0
M  V30 1997 N 192.153 1.28127 0.917671 0
M  V30 1998 C 193.393 1.163 1.68088 0
M  V30 1999 C 193.757 -0.284515 1.8988 0
M  V30 2000 O 194.958 -0.525413 2.63615 0
M  V30 2001 C 193.229 1.93546 3.00457 0
M  V30 2002 S 194.788 1.98048 3.91564 0
M  V30 2003 H 191.606 0.415005 0.577315 0
M  V30 2004 H 194.208 1.62173 1.09179 0
M  V30 2005 H 192.912 2.97888 2.82295 0
M  V30 2006 H 192.443 1.48207 3.64415 0
M  V30 2007 H 194.458 1.08415 4.84211 0
M  V30 2008 N 193.631 -1.12557 1.10312 0
M  V30 2009 C 194.563 -2.17971 0.708625 0
M  V30 2010 C 195.576 -1.60806 -0.254027 0
M  V30 2011 O 196.765 -1.78458 -0.0386891 0
M  V30 2012 C 193.865 -3.38891 0.0248198 0
M  V30 2013 C 193.038 -4.25548 1.01132 0
M  V30 2014 C 192.097 -5.24972 0.35924 0
M  V30 2015 O 191.123 -5.60174 1.00965 0
M  V30 2016 N 192.325 -5.73747 -0.882847 0
M  V30 2017 H 195.09 -2.52427 1.61557 0
M  V30 2018 H 192.651 -1.27967 0.991771 0
M  V30 2019 H 194.643 -4.02485 -0.422852 0
M  V30 2020 H 193.213 -3.02596 -0.784514 0
M  V30 2021 H 192.433 -3.58589 1.6373 0
M  V30 2022 H 193.721 -4.80294 1.67914 0
M  V30 2023 H 193.119 -5.4731 -1.43065 0
M  V30 2024 H 191.676 -6.39234 -1.27369 0
M  V30 2025 N 195.109 -0.891671 -1.2995 0
M  V30 2026 C 196.525 -0.58662 -1.48428 0
M  V30 2027 C 196.725 0.873951 -1.81561 0
M  V30 2028 O 195.781 1.65471 -1.90724 0
M  V30 2029 C 197.094 -1.50553 -2.60296 0
M  V30 2030 C 198.642 -1.50988 -2.74175 0
M  V30 2031 C 199.117 -2.41488 -3.89163 0
M  V30 2032 N 200.608 -2.39489 -3.96483 0
M  V30 2033 C 201.343 -3.06223 -4.84784 0
M  V30 2034 N 200.839 -3.82206 -5.77833 0
M  V30 2035 N 202.632 -2.95421 -4.78208 0
M  V30 2036 H 194.783 -1.83644 -1.06718 0
M  V30 2037 H 197.046 -0.786455 -0.529332 0
M  V30 2038 H 196.752 -2.54581 -2.42654 0
M  V30 2039 H 196.626 -1.22008 -3.56923 0
M  V30 2040 H 199.013 -0.47708 -2.91218 0
M  V30 2041 H 199.094 -1.83567 -1.78148 0
M  V30 2042 H 198.738 -3.44857 -3.72876 0
M  V30 2043 H 198.668 -2.06222 -4.84541 0
M  V30 2044 H 201.159 -1.84278 -3.29924 0
M  V30 2045 H 201.472 -4.302 -6.41988 0
M  V30 2046 H 199.817 -3.86313 -5.77743 0
M  V30 2047 H 203.008 -2.35581 -4.04499 0
M  V30 2048 H 203.181 -3.47704 -5.46814 0
M  V30 2049 N 196.587 1.43421 -0.653314 0
M  V30 2050 C 197.497 2.34568 0.0388565 0
M  V30 2051 C 198.513 1.53888 0.81207 0
M  V30 2052 O 199.689 1.86539 0.759294 0
M  V30 2053 C 196.754 3.32167 0.993269 0
M  V30 2054 C 195.815 4.28751 0.216977 0
M  V30 2055 C 195.048 5.21688 1.12593 0
M  V30 2056 O 195.271 5.19052 2.36519 0
M  V30 2057 O 194.205 5.98919 0.598284 0
M  V30 2058 H 198.031 2.95251 -0.711386 0
M  V30 2059 H 195.616 1.43564 -0.413502 0
M  V30 2060 H 197.498 3.92183 1.54176 0
M  V30 2061 H 196.173 2.73987 1.72374 0
M  V30 2062 H 195.08 3.72215 -0.375101 0
M  V30 2063 H 196.413 4.89913 -0.473924 0
M  V30 2064 N 198.065 0.39524 1.52563 0
M  V30 2065 C 199.311 -0.185318 2.01952 0
M  V30 2066 C 199.644 -1.45964 1.28095 0
M  V30 2067 O 198.919 -1.90689 0.38315 0
M  V30 2068 C 199.202 -0.447193 3.57312 0
M  V30 2069 C 199.055 0.842828 4.41833 0
M  V30 2070 C 200.374 -1.23529 4.22408 0
M  V30 2071 H 197.493 -0.0658788 0.73405 0
M  V30 2072 H 200.135 0.525975 1.82575 0
M  V30 2073 H 198.285 -1.05312 3.73954 0
M  V30 2074 H 199.957 1.4795 4.36931 0
M  V30 2075 H 198.2 1.45686 4.08605 0
M  V30 2076 H 198.871 0.614165 5.48573 0
M  V30 2077 H 201.347 -0.722445 4.0978 0
M  V30 2078 H 200.223 -1.38727 5.3108 0
M  V30 2079 H 200.484 -2.25213 3.80436 0
M  V30 2080 N 199.544 -1.57102 0.125237 0
M  V30 2081 C 200.769 -2.0019 -0.542101 0
M  V30 2082 C 201.194 -1.00449 -1.59034 0
M  V30 2083 O 200.552 0.0229423 -1.81285 0
M  V30 2084 C 200.6 -3.42129 -1.13929 0
M  V30 2085 O 199.704 -3.45307 -2.2547 0
M  V30 2086 H 199.045 -0.650171 -0.134812 0
M  V30 2087 H 201.575 -2.03461 0.215553 0
M  V30 2088 H 201.585 -3.80471 -1.4733 0
M  V30 2089 H 200.26 -4.14237 -0.371531 0
M  V30 2090 H 198.837 -3.1879 -1.93462 0
M  V30 2091 N 201.022 0.148545 -1.56898 0
M  V30 2092 C 202.269 0.861418 -1.83264 0
M  V30 2093 C 202.597 1.81239 -0.705883 0
M  V30 2094 O 201.852 1.93305 0.305212 0
M  V30 2095 C 202.151 1.67064 -3.1595 0
M  V30 2096 C 201.817 0.866591 -4.42494 0
M  V30 2097 C 200.479 0.644762 -4.76861 0
M  V30 2098 C 202.831 0.30418 -5.20312 0
M  V30 2099 C 200.159 -0.15021 -5.86508 0
M  V30 2100 C 202.511 -0.477824 -6.30793 0
M  V30 2101 C 201.175 -0.710244 -6.63711 0
M  V30 2102 H 200.445 0.315215 -0.670612 0
M  V30 2103 H 203.092 0.125142 -1.91091 0
M  V30 2104 H 201.397 2.47698 -3.03567 0
M  V30 2105 H 203.094 2.22566 -3.33565 0
M  V30 2106 H 199.684 1.04955 -4.15551 0
M  V30 2107 H 203.868 0.462844 -4.94137 0
M  V30 2108 H 199.124 -0.339796 -6.10455 0
M  V30 2109 H 203.298 -0.92076 -6.90286 0
M  V30 2110 H 200.925 -1.3281 -7.48509 0
M  V30 2111 N 202.5 1.5196 0.417844 0
M  V30 2112 C 203.43 1.77634 1.51554 0
M  V30 2113 C 204.411 0.626918 1.58126 0
M  V30 2114 O 205.596 0.871632 1.7354 0
M  V30 2115 C 202.726 1.91911 2.8946 0
M  V30 2116 C 201.68 3.07463 2.97743 0
M  V30 2117 C 201.006 3.06951 4.37819 0
M  V30 2118 C 202.306 4.47082 2.70027 0
M  V30 2119 H 204 2.6955 1.3032 0
M  V30 2120 H 201.546 1.29706 0.625492 0
M  V30 2121 H 203.499 2.08455 3.6623 0
M  V30 2122 H 202.223 0.966598 3.11969 0
M  V30 2123 H 200.882 2.90656 2.23416 0
M  V30 2124 H 200.53 2.09438 4.57323 0
M  V30 2125 H 200.23 3.84556 4.44286 0
M  V30 2126 H 201.754 3.25613 5.16535 0
M  V30 2127 H 203.168 4.6414 3.36522 0
M  V30 2128 H 201.565 5.2654 2.87881 0
M  V30 2129 H 202.635 4.55777 1.65514 0
M  V30 2130 N 203.978 -0.674533 1.42435 0
M  V30 2131 C 204.926 -1.80934 1.46169 0
M  V30 2132 C 205.92 -1.66006 0.3374 0
M  V30 2133 O 207.126 -1.72611 0.510425 0
M  V30 2134 H 203.501 -0.596594 0.457798 0
M  V30 2135 H 205.472 -1.74903 2.41767 0
M  V30 2136 C 204.221 -3.19088 1.38123 0
M  V30 2137 H 203.544 -3.31203 2.23931 0
M  V30 2138 H 204.984 -3.9851 1.44797 0
M  V30 2139 C 203.443 -3.36763 0.0960517 0
M  V30 2140 O 203.973 -3.92581 -0.851073 0
M  V30 2141 N 202.179 -2.90597 0.0131186 0
M  V30 2142 H 201.726 -2.45359 0.784639 0
M  V30 2143 H 201.684 -3.028 -0.846133 0
M  V30 2144 N 205.456 -1.28612 -0.910864 0
M  V30 2145 C 206.696 -1.1719 -1.67469 0
M  V30 2146 C 207.06 0.274441 -1.90028 0
M  V30 2147 O 208.261 0.511425 -2.6389 0
M  V30 2148 C 206.532 -1.95137 -2.99427 0
M  V30 2149 S 208.091 -2.00122 -3.90508 0
M  V30 2150 H 204.909 -0.41806 -0.575106 0
M  V30 2151 H 207.511 -1.6275 -1.08317 0
M  V30 2152 H 206.215 -2.99381 -2.80712 0
M  V30 2153 H 205.746 -1.50137 -3.63624 0
M  V30 2154 H 207.761 -1.10981 -4.8363 0
M  V30 2155 N 206.934 1.1197 -1.10907 0
M  V30 2156 C 208.159 1.87942 -0.877064 0
M  V30 2157 C 208.584 1.79341 0.567314 0
M  V30 2158 O 207.942 1.15184 1.40009 0
M  V30 2159 C 207.99 3.34926 -1.33629 0
M  V30 2160 O 207.094 4.09303 -0.504447 0
M  V30 2161 H 206.435 0.583785 -0.316371 0
M  V30 2162 H 208.965 1.4157 -1.47712 0
M  V30 2163 H 208.975 3.8577 -1.32837 0
M  V30 2164 H 207.65 3.40504 -2.3881 0
M  V30 2165 H 206.227 3.68393 -0.577993 0
M  V30 2166 N 208.412 0.89855 1.29475 0
M  V30 2167 C 209.342 0.39201 2.30186 0
M  V30 2168 C 210.323 -0.532359 1.61555 0
M  V30 2169 O 211.508 -0.443331 1.89072 0
M  V30 2170 C 208.638 -0.382353 3.45189 0
M  V30 2171 C 207.592 0.451483 4.25612 0
M  V30 2172 C 206.918 -0.450307 5.328 0
M  V30 2173 C 208.218 1.70079 4.93832 0
M  V30 2174 H 209.912 1.23362 2.72804 0
M  V30 2175 H 207.458 0.594638 1.31149 0
M  V30 2176 H 209.411 -0.747451 4.14718 0
M  V30 2177 H 208.135 -1.25774 3.01411 0
M  V30 2178 H 206.794 0.798897 3.57789 0
M  V30 2179 H 206.442 -1.32379 4.85268 0
M  V30 2180 H 206.142 0.103902 5.87508 0
M  V30 2181 H 207.666 -0.811623 6.05182 0
M  V30 2182 H 209.08 1.40549 5.55805 0
M  V30 2183 H 207.477 2.19623 5.58467 0
M  V30 2184 H 208.547 2.43744 4.19186 0
M  V30 2185 N 209.89 -1.43072 0.660911 0
M  V30 2186 C 211.167 -1.95307 0.107017 0
M  V30 2187 C 211.547 -1.60192 -1.37484 0
M  V30 2188 O 210.895 -0.890949 -2.10415 0
M  V30 2189 C 211.105 -3.47124 0.361402 0
M  V30 2190 C 212.453 -4.23738 0.270455 0
M  V30 2191 O 213.477 -3.54981 0.294382 0
M  V30 2192 O 212.336 -5.46131 0.200737 0
M  V30 2193 H 209.43 -0.826984 -0.00517729 0
M  V30 2194 H 211.976 -1.52972 0.734681 0
M  V30 2195 H 210.748 -3.65837 1.38848 0
M  V30 2196 H 210.371 -3.96475 -0.298953 0
M  V30 2197 N 211.368 -0.403325 -1.52352 0
M  V30 2198 C 212.316 0.439752 -2.28405 0
M  V30 2199 C 213.31 1.05089 -1.32863 0
M  V30 2200 O 214.516 0.989759 -1.50345 0
M  V30 2201 H 210.891 0.160587 -0.734653 0
M  V30 2202 H 212.862 -0.222983 -2.97566 0
M  V30 2203 C 211.611 1.54736 -3.11371 0
M  V30 2204 H 210.934 1.08643 -3.84755 0
M  V30 2205 H 212.374 2.1112 -3.67701 0
M  V30 2206 C 210.833 2.51141 -2.24566 0
M  V30 2207 O 211.363 3.54887 -1.88196 0
M  V30 2208 N 209.569 2.21213 -1.8845 0
M  V30 2209 H 209.116 1.36878 -2.18225 0
M  V30 2210 H 209.074 2.85963 -1.30662 0
M  V30 2211 N 212.846 1.57033 -0.133567 0
M  V30 2212 C 214.094 1.953 0.519848 0
M  V30 2213 C 214.415 1.01866 1.66278 0
M  V30 2214 O 213.685 0.0776513 1.95746 0
M  V30 2215 H 212.265 0.721091 0.195032 0
M  V30 2216 H 214.927 1.93809 -0.205921 0
M  V30 2217 H 214.023 2.98695 0.904854 0
M  V30 2218 N 214.325 -0.140222 1.56975 0
M  V30 2219 C 215.573 -0.850005 1.83356 0
M  V30 2220 C 215.894 -1.81399 0.71551 0
M  V30 2221 O 215.164 -1.94136 -0.262294 0
M  V30 2222 H 213.744 -0.316886 0.676456 0
M  V30 2223 H 216.406 -0.132608 1.94448 0
M  V30 2224 H 215.502 -1.40814 2.78528 0
M  V30 2225 N 215.803 -1.52179 -0.40978 0
M  V30 2226 C 217.043 -1.67882 -1.16597 0
M  V30 2227 C 217.407 -0.399795 -1.87791 0
M  V30 2228 O 218.608 -0.43292 -2.65291 0
M  V30 2229 C 216.879 -2.86662 -2.13448 0
M  V30 2230 S 218.438 -3.22843 -2.97183 0
M  V30 2231 H 215.256 -0.59118 -0.395002 0
M  V30 2232 H 217.858 -1.9017 -0.453373 0
M  V30 2233 H 216.562 -3.77998 -1.59831 0
M  V30 2234 H 216.093 -2.66645 -2.89247 0
M  V30 2235 H 218.108 -2.71415 -4.15389 0
M  V30 2236 N 217.281 0.66697 -1.42791 0
M  V30 2237 C 218.509 1.45505 -1.47091 0
M  V30 2238 C 218.924 1.8861 -0.0845873 0
M  V30 2239 O 218.281 1.58632 0.90234 0
M  V30 2240 C 218.332 2.69906 -2.40485 0
M  V30 2241 O 218.053 2.28608 -3.73725 0
M  V30 2242 C 219.554 3.63396 -2.53886 0
M  V30 2243 H 216.774 0.447459 -0.500022 0
M  V30 2244 H 219.318 0.818866 -1.8739 0
M  V30 2245 H 217.473 3.29696 -2.03419 0
M  V30 2246 H 217.887 3.08997 -4.23817 0
M  V30 2247 H 219.361 4.47387 -3.2334 0
M  V30 2248 H 219.838 4.09824 -1.57927 0
M  V30 2249 H 220.444 3.09495 -2.91706 0
M  V30 2250 N 218.759 1.29093 0.90403 0
M  V30 2251 C 219.709 1.10482 1.99443 0
M  V30 2252 C 220.693 0.0255401 1.6088 0
M  V30 2253 O 221.885 0.24677 1.75271 0
M  V30 2254 C 219.014 0.778882 3.34348 0
M  V30 2255 C 218.1 1.89749 3.79284 0
M  V30 2256 N 218.491 3.14045 3.96497 0
M  V30 2257 C 216.789 1.78955 4.08523 0
M  V30 2258 C 217.49 3.86996 4.34292 0
M  V30 2259 N 216.466 3.14909 4.43095 0
M  V30 2260 H 220.268 2.04778 2.10815 0
M  V30 2261 H 217.782 1.20155 1.09255 0
M  V30 2262 H 219.779 0.62661 4.12164 0
M  V30 2263 H 218.439 -0.156205 3.24324 0
M  V30 2264 H 219.45 3.49548 3.82148 0
M  V30 2265 H 216.127 0.926886 4.07081 0
M  V30 2266 H 217.517 4.93941 4.55491 0
M  V30 2267 N 220.237 -1.11381 1.11499 0
M  V30 2268 C 221.467 -1.86663 0.885464 0
M  V30 2269 C 221.875 -1.80464 -0.568281 0
M  V30 2270 O 221.218 -1.18445 -1.40415 0
M  V30 2271 C 221.28 -3.36337 1.26956 0
M  V30 2272 C 220.944 -3.66304 2.73259 0
M  V30 2273 C 221.941 -3.63733 3.71476 0
M  V30 2274 C 219.626 -3.9529 3.09921 0
M  V30 2275 C 221.62 -3.89725 5.04374 0
M  V30 2276 C 219.307 -4.20941 4.43004 0
M  V30 2277 C 220.305 -4.18147 5.40039 0
M  V30 2278 O 219.993 -4.43153 6.70724 0
M  V30 2279 H 219.725 -0.597114 0.316908 0
M  V30 2280 H 222.279 -1.41782 1.48617 0
M  V30 2281 H 220.509 -3.81826 0.611999 0
M  V30 2282 H 222.198 -3.92986 1.01573 0
M  V30 2283 H 222.964 -3.41389 3.44498 0
M  V30 2284 H 218.843 -3.966 2.35009 0
M  V30 2285 H 222.387 -3.8746 5.80104 0
M  V30 2286 H 218.284 -4.42761 4.69716 0
M  V30 2287 H 219.052 -4.60717 6.76522 0
M  V30 2288 N 221.715 -0.905404 -1.28997 0
M  V30 2289 C 222.955 -0.541232 -1.97104 0
M  V30 2290 C 223.319 0.896841 -1.69767 0
M  V30 2291 O 224.52 1.36817 -2.31375 0
M  V30 2292 C 222.791 -0.832134 -3.47578 0
M  V30 2293 S 224.35 -0.573127 -4.35041 0
M  V30 2294 H 221.168 -0.200576 -0.682122 0
M  V30 2295 H 223.77 -1.16906 -1.56694 0
M  V30 2296 H 222.474 -1.87687 -3.64968 0
M  V30 2297 H 222.005 -0.192636 -3.92928 0
M  V30 2298 H 224.02 0.579297 -4.92807 0
M  V30 2299 N 223.193 1.4272 -0.668489 0
M  V30 2300 C 224.123 2.335 -0.000100175 0
M  V30 2301 C 225.104 1.50328 0.795964 0
M  V30 2302 O 226.289 1.78949 0.754385 0
M  V30 2303 C 223.419 3.33874 0.956302 0
M  V30 2304 C 222.373 4.27152 0.269278 0
M  V30 2305 C 221.699 5.17684 1.33818 0
M  V30 2306 C 222.999 5.15373 -0.847805 0
M  V30 2307 H 224.693 2.89639 -0.758244 0
M  V30 2308 H 222.239 1.39269 -0.366079 0
M  V30 2309 H 224.192 3.9629 1.43292 0
M  V30 2310 H 222.916 2.76025 1.74579 0
M  V30 2311 H 221.575 3.66123 -0.187042 0
M  V30 2312 H 221.223 4.56165 2.1195 0
M  V30 2313 H 220.923 5.80918 0.883659 0
M  V30 2314 H 222.447 5.82974 1.81586 0
M  V30 2315 H 223.861 5.7151 -0.452681 0
M  V30 2316 H 222.258 5.87407 -1.22773 0
M  V30 2317 H 223.328 4.5415 -1.69929 0
M  V30 2318 N 224.671 0.411399 1.52136 0
M  V30 2319 C 225.581 -0.419774 2.30814 0
M  V30 2320 C 226.597 -1.0515 1.38634 0
M  V30 2321 O 227.773 -1.05252 1.71709 0
M  V30 2322 C 224.838 -1.52019 3.11594 0
M  V30 2323 C 223.899 -0.91129 4.19516 0
M  V30 2324 C 223.132 -1.95927 4.96436 0
M  V30 2325 O 223.355 -3.17775 4.73683 0
M  V30 2326 O 222.289 -1.56423 5.81219 0
M  V30 2327 H 226.115 0.221805 3.02889 0
M  V30 2328 H 223.7 0.174547 1.48377 0
M  V30 2329 H 225.582 -2.15898 3.61892 0
M  V30 2330 H 224.257 -2.14633 2.42311 0
M  V30 2331 H 223.164 -0.235157 3.7336 0
M  V30 2332 H 224.497 -0.32904 4.91099 0
M  V30 2333 N 226.149 -1.5696 0.141893 0
M  V30 2334 C 227.059 -2.20066 -0.812905 0
M  V30 2335 C 228.075 -1.18344 -1.27557 0
M  V30 2336 O 229.251 -1.50902 -1.33381 0
M  V30 2337 C 226.316 -2.80583 -2.03652 0
M  V30 2338 C 225.377 -3.97414 -1.62359 0
M  V30 2339 C 224.61 -4.55036 -2.78887 0
M  V30 2340 O 224.833 -4.11538 -3.94959 0
M  V30 2341 O 223.767 -5.45376 -2.54653 0
M  V30 2342 H 227.593 -3.02157 -0.305746 0
M  V30 2343 H 225.178 -1.49159 -0.0848799 0
M  V30 2344 H 227.06 -3.19067 -2.75272 0
M  V30 2345 H 225.735 -2.01508 -2.5333 0
M  V30 2346 H 224.642 -3.63656 -0.877775 0
M  V30 2347 H 225.975 -4.77994 -1.17401 0
M  V30 2348 N 227.627 0.131896 -1.57047 0
M  V30 2349 C 228.873 0.843179 -1.84441 0
M  V30 2350 C 229.206 1.80129 -0.725749 0
M  V30 2351 O 228.481 1.92624 0.269469 0
M  V30 2352 C 228.764 1.60442 -3.22382 0
M  V30 2353 C 228.617 0.666782 -4.4483 0
M  V30 2354 C 229.936 2.56354 -3.5773 0
M  V30 2355 H 227.055 0.305081 -0.670891 0
M  V30 2356 H 229.697 0.107839 -1.89694 0
M  V30 2357 H 227.847 2.23128 -3.18035 0
M  V30 2358 H 229.519 0.0497646 -4.61273 0
M  V30 2359 H 227.762 -0.022609 -4.33794 0
M  V30 2360 H 228.433 1.23579 -5.37989 0
M  V30 2361 H 230.909 2.0378 -3.62785 0
M  V30 2362 H 229.785 3.06657 -4.5525 0
M  V30 2363 H 230.046 3.38419 -2.84473 0
M  V30 2364 N 229.106 1.52395 0.401703 0
M  V30 2365 C 230.354 1.66488 1.14569 0
M  V30 2366 C 230.675 0.400897 1.90835 0
M  V30 2367 O 229.945 -0.584415 1.8698 0
M  V30 2368 H 228.525 0.613672 0.425929 0
M  V30 2369 H 231.187 1.89464 0.457093 0
M  V30 2370 H 230.283 2.50942 1.85566 0
M  V30 2371 N 230.584 -0.659388 1.43143 0
M  V30 2372 C 231.83 -1.41984 1.45644 0
M  V30 2373 C 232.185 -1.92245 0.0771718 0
M  V30 2374 O 231.478 -1.68976 -0.903205 0
M  V30 2375 C 231.672 -2.62206 2.42864 0
M  V30 2376 C 231.501 -2.23711 3.90107 0
M  V30 2377 C 230.271 -2.12332 4.58523 0
M  V30 2378 C 232.469 -1.84384 4.80112 0
M  V30 2379 N 230.451 -1.67102 5.9072 0
M  V30 2380 C 231.822 -1.5019 6.01534 0
M  V30 2381 C 233.877 -1.71512 4.67427 0
M  V30 2382 C 232.58 -1.04414 7.11681 0
M  V30 2383 C 234.606 -1.27142 5.77572 0
M  V30 2384 C 233.968 -0.938808 6.98116 0
M  V30 2385 H 230.067 -0.515448 0.588079 0
M  V30 2386 H 232.651 -0.759409 1.79279 0
M  V30 2387 H 230.822 -3.25917 2.11265 0
M  V30 2388 H 232.554 -3.28877 2.35843 0
M  V30 2389 H 229.309 -2.31893 4.12944 0
M  V30 2390 H 229.733 -1.46866 6.60878 0
M  V30 2391 H 234.375 -1.95868 3.74694 0
M  V30 2392 H 232.093 -0.788061 8.04248 0
M  V30 2393 H 235.679 -1.17681 5.69774 0
M  V30 2394 H 234.559 -0.6007 7.81896 0
M  V30 2395 N 232.062 -1.29571 -0.897171 0
M  V30 2396 C 233.478 -1.07637 -1.17841 0
M  V30 2397 C 233.678 0.170713 -2.00776 0
M  V30 2398 O 232.734 0.867768 -2.3712 0
M  V30 2399 C 234.047 -2.3332 -1.8969 0
M  V30 2400 C 235.595 -2.38664 -2.02505 0
M  V30 2401 C 236.07 -3.64157 -2.77765 0
M  V30 2402 N 237.561 -3.64894 -2.85318 0
M  V30 2403 C 238.296 -4.58679 -3.44094 0
M  V30 2404 N 237.792 -5.62799 -4.04017 0
M  V30 2405 N 239.585 -4.46245 -3.41793 0
M  V30 2406 H 231.736 -2.09598 -0.343883 0
M  V30 2407 H 233.999 -0.923333 -0.214848 0
M  V30 2408 H 233.705 -3.24262 -1.36187 0
M  V30 2409 H 233.579 -2.41025 -2.9015 0
M  V30 2410 H 235.966 -1.48208 -2.55183 0
M  V30 2411 H 236.047 -2.34943 -1.01171 0
M  V30 2412 H 235.691 -4.54965 -2.25763 0
M  V30 2413 H 235.621 -3.65137 -3.7945 0
M  V30 2414 H 238.112 -2.89613 -2.42761 0
M  V30 2415 H 238.425 -6.3048 -4.46895 0
M  V30 2416 H 236.77 -5.66605 -4.02472 0
M  V30 2417 H 239.961 -3.64094 -2.94199 0
M  V30 2418 H 240.134 -5.19518 -3.87304 0
M  V30 2419 N 233.54 1.10788 -1.12088 0
M  V30 2420 C 234.956 1.34691 -0.856186 0
M  V30 2421 C 235.156 1.94791 0.515615 0
M  V30 2422 O 234.212 2.18524 1.26505 0
M  V30 2423 C 235.525 2.27208 -1.9697 0
M  V30 2424 C 237.073 2.40755 -2.00016 0
M  V30 2425 C 237.548 3.36598 -3.1059 0
M  V30 2426 N 239.039 3.44164 -3.10008 0
M  V30 2427 C 239.774 4.18284 -3.92206 0
M  V30 2428 N 239.27 4.95322 -4.84384 0
M  V30 2429 N 241.063 4.13865 -3.80357 0
M  V30 2430 H 233.214 0.70144 -2.00483 0
M  V30 2431 H 235.477 0.371405 -0.872217 0
M  V30 2432 H 235.183 1.90251 -2.958 0
M  V30 2433 H 235.057 3.27485 -1.87172 0
M  V30 2434 H 237.444 2.76982 -1.01808 0
M  V30 2435 H 237.525 1.40305 -2.13888 0
M  V30 2436 H 237.169 3.01096 -4.09028 0
M  V30 2437 H 237.099 4.36918 -2.93956 0
M  V30 2438 H 239.59 2.8922 -2.43228 0
M  V30 2439 H 239.903 5.49267 -5.43623 0
M  V30 2440 H 238.248 4.94459 -4.884 0
M  V30 2441 H 241.439 3.52773 -3.07683 0
M  V30 2442 H 241.612 4.71372 -4.44649 0
M  V30 2443 N 235.018 0.912232 1.28515 0
M  V30 2444 C 236.258 0.551677 1.96814 0
M  V30 2445 C 236.622 -0.887825 1.7024 0
M  V30 2446 O 237.823 -1.35588 2.32098 0
M  V30 2447 C 236.094 0.850555 3.47132 0
M  V30 2448 S 237.653 0.59619 4.34731 0
M  V30 2449 H 234.471 0.204191 0.681049 0
M  V30 2450 H 237.073 1.17736 1.56072 0
M  V30 2451 H 235.777 1.8962 3.63968 0
M  V30 2452 H 235.308 0.213471 3.9282 0
M  V30 2453 H 237.323 -0.553154 4.93107 0
M  V30 2454 N 236.496 -1.42363 0.676048 0
M  V30 2455 C 237.721 -2.06377 0.205705 0
M  V30 2456 C 238.146 -1.50463 -1.12883 0
M  V30 2457 O 237.504 -0.623619 -1.70237 0
M  V30 2458 C 237.552 -3.60277 0.152655 0
M  V30 2459 O 236.656 -4.02935 -0.87845 0
M  V30 2460 H 235.997 -0.655588 0.105359 0
M  V30 2461 H 238.527 -1.82475 0.925412 0
M  V30 2462 H 238.537 -4.07993 -0.0230675 0
M  V30 2463 H 237.212 -4.00346 1.12675 0
M  V30 2464 H 235.789 -3.66764 -0.673668 0
M  V30 2465 N 237.974 -0.419461 -1.51915 0
M  V30 2466 C 239.214 0.152336 -2.03832 0
M  V30 2467 C 239.578 1.41501 -1.29775 0
M  V30 2468 O 240.779 2.06591 -1.7197 0
M  V30 2469 C 239.05 0.383812 -3.55333 0
M  V30 2470 S 240.609 0.921577 -4.29013 0
M  V30 2471 H 237.427 0.0402193 -0.709862 0
M  V30 2472 H 240.029 -0.574758 -1.8686 0
M  V30 2473 H 238.733 -0.541794 -4.06808 0
M  V30 2474 H 238.264 1.13849 -3.76566 0
M  V30 2475 H 240.279 2.20108 -4.4471 0
M  V30 2476 N 239.452 1.56882 -0.150215 0
M  V30 2477 C 240.415 2.1573 0.774157 0
M  V30 2478 C 241.415 1.0999 1.17298 0
M  V30 2479 O 242.605 1.35613 1.09338 0
M  V30 2480 C 239.737 2.72302 2.05096 0
M  V30 2481 H 240.93 2.98752 0.262201 0
M  V30 2482 H 238.483 1.55985 0.099248 0
M  V30 2483 H 239.218 1.92956 2.6065 0
M  V30 2484 H 239.003 3.49665 1.77416 0
M  V30 2485 H 240.493 3.17632 2.71109 0
M  V30 2486 N 240.93 -0.123565 1.57115 0
M  V30 2487 C 242.341 -0.681198 1.73829 0
M  V30 2488 C 242.692 -1.80535 0.768214 0
M  V30 2489 O 241.817 -2.16317 -0.0599103 0
M  V30 2490 C 242.412 -1.24246 3.15196 0
M  V30 2491 C 240.971 -1.74643 3.33432 0
M  V30 2492 C 240.118 -0.644284 2.69711 0
M  V30 2493 H 243.069 0.102315 1.5837 0
M  V30 2494 H 243.09 -2.11216 3.16493 0
M  V30 2495 H 242.602 -0.424062 3.85776 0
M  V30 2496 H 240.703 -2.58974 2.67886 0
M  V30 2497 H 240.816 -1.85902 4.41562 0
M  V30 2498 H 239.18 -1.07676 2.3082 0
M  V30 2499 H 239.963 0.163058 3.42913 0
M  V30 2500 N 242.408 -1.52605 -0.393616 0
M  V30 2501 C 243.656 -1.67093 -1.13685 0
M  V30 2502 C 243.977 -0.411011 -1.90619 0
M  V30 2503 O 243.247 0.574491 -1.87287 0
M  V30 2504 H 241.827 -0.615923 -0.422668 0
M  V30 2505 H 244.489 -1.89704 -0.447039 0
M  V30 2506 H 243.585 -2.51922 -1.84232 0
M  V30 2507 N 243.887 0.651787 -1.4349 0
M  V30 2508 C 245.117 1.43728 -1.48411 0
M  V30 2509 C 245.525 1.8893 -0.10103 0
M  V30 2510 O 244.868 1.60182 0.899307 0
M  V30 2511 C 244.93 2.70411 -2.36893 0
M  V30 2512 C 244.594 2.4714 -3.8441 0
M  V30 2513 C 245.591 2.10271 -4.75481 0
M  V30 2514 C 243.276 2.6142 -4.28912 0
M  V30 2515 C 245.27 1.87982 -6.0905 0
M  V30 2516 C 242.957 2.38746 -5.62533 0
M  V30 2517 C 243.955 2.02083 -6.5242 0
M  V30 2518 O 243.643 1.79647 -7.8357 0
M  V30 2519 H 243.375 0.447962 -0.506267 0
M  V30 2520 H 245.929 0.80624 -1.88915 0
M  V30 2521 H 244.159 3.36079 -1.91278 0
M  V30 2522 H 245.848 3.32364 -2.33 0
M  V30 2523 H 246.614 1.98814 -4.42378 0
M  V30 2524 H 242.493 2.88931 -3.59222 0
M  V30 2525 H 246.037 1.5929 -6.7917 0
M  V30 2526 H 241.934 2.49806 -5.95203 0
M  V30 2527 H 242.702 1.9406 -7.95162 0
M  V30 2528 N 245.365 1.30045 0.890287 0
M  V30 2529 C 246.312 1.15976 1.99545 0
M  V30 2530 C 247.282 0.0506202 1.66023 0
M  V30 2531 O 248.467 0.219847 1.89529 0
M  V30 2532 C 245.607 0.852054 3.34416 0
M  V30 2533 C 244.72 2.04255 3.80662 0
M  V30 2534 C 243.855 1.6734 5.04154 0
M  V30 2535 C 242.894 2.82916 5.42794 0
M  V30 2536 N 242.031 2.46333 6.57468 0
M  V30 2537 H 246.871 2.10524 2.10911 0
M  V30 2538 H 244.408 1.04749 1.03276 0
M  V30 2539 H 246.366 0.654296 4.12037 0
M  V30 2540 H 244.996 -0.0565502 3.2275 0
M  V30 2541 H 244.048 2.35172 2.98995 0
M  V30 2542 H 245.36 2.90826 4.05242 0
M  V30 2543 H 244.514 1.43908 5.89386 0
M  V30 2544 H 243.253 0.779308 4.81433 0
M  V30 2545 H 242.258 3.0702 4.56091 0
M  V30 2546 H 243.483 3.73004 5.6749 0
M  V30 2547 H 241.429 1.59423 6.36334 0
M  V30 2548 H 241.346 3.26436 6.81891 0
M  V30 2549 H 242.614 2.26244 7.45945 0
M  V30 2550 N 246.843 -1.10192 1.12674 0
M  V30 2551 C 247.773 -2.18652 0.819362 0
M  V30 2552 C 248.754 -1.68698 -0.217915 0
M  V30 2553 O 249.939 -1.94041 -0.0785581 0
M  V30 2554 C 247.069 -3.46202 0.27594 0
M  V30 2555 C 246.023 -4.09444 1.24656 0
M  V30 2556 C 245.349 -5.31725 0.563258 0
M  V30 2557 C 246.649 -4.52863 2.60217 0
M  V30 2558 H 248.343 -2.44622 1.72628 0
M  V30 2559 H 245.889 -1.17571 0.831451 0
M  V30 2560 H 247.842 -4.21372 0.0486149 0
M  V30 2561 H 246.566 -3.1973 -0.666331 0
M  V30 2562 H 245.225 -3.36284 1.45974 0
M  V30 2563 H 244.873 -5.0153 -0.384235 0
M  V30 2564 H 244.573 -5.74991 1.21075 0
M  V30 2565 H 246.097 -6.09624 0.34503 0
M  V30 2566 H 247.511 -5.19294 2.42913 0
M  V30 2567 H 245.908 -5.06986 3.21068 0
M  V30 2568 H 246.978 -3.65656 3.18471 0
M  V30 2569 N 248.321 -0.919034 -1.28029 0
M  V30 2570 C 249.569 -0.553838 -1.94363 0
M  V30 2571 C 249.89 0.906357 -1.72656 0
M  V30 2572 O 249.16 1.64143 -1.0693 0
M  V30 2573 H 247.74 -0.201834 -0.719216 0
M  V30 2574 H 250.402 -1.16954 -1.55909 0
M  V30 2575 H 249.498 -0.752758 -3.02886 0
M  V30 2576 N 249.799 1.42003 -0.683588 0
M  V30 2577 C 251.076 1.95112 -0.138075 0
M  V30 2578 C 251.456 1.62359 1.34918 0
M  V30 2579 O 250.804 0.924311 2.08971 0
M  V30 2580 C 251.014 3.46505 -0.416581 0
M  V30 2581 C 252.362 4.23254 -0.337834 0
M  V30 2582 O 253.386 3.54468 -0.35082 0
M  V30 2583 O 252.245 5.45743 -0.287596 0
M  V30 2584 H 249.339 0.826961 -0.00797996 0
M  V30 2585 H 251.885 1.51784 -0.758924 0
M  V30 2586 H 250.657 3.63582 -1.4465 0
M  V30 2587 H 250.28 3.969 0.235839 0
M  V30 2588 N 251.277 0.427512 1.51691 0
M  V30 2589 C 252.554 -0.201684 1.94557 0
M  V30 2590 C 252.934 -1.60981 1.36559 0
M  V30 2591 O 252.282 -2.21814 0.548702 0
M  V30 2592 C 252.492 -0.189394 3.48486 0
M  V30 2593 C 253.84 -0.39978 4.22714 0
M  V30 2594 O 254.864 -0.267945 3.55191 0
M  V30 2595 O 253.723 -0.661249 5.42485 0
M  V30 2596 H 250.817 -0.135261 0.815864 0
M  V30 2597 H 253.363 0.484782 1.62628 0
M  V30 2598 H 252.135 0.795431 3.8313 0
M  V30 2599 H 251.758 -0.919187 3.86829 0
M  V30 2600 N 252.755 -1.56801 0.158532 0
M  V30 2601 C 253.685 -2.20347 -0.772609 0
M  V30 2602 C 254.666 -1.15518 -1.24859 0
M  V30 2603 O 255.851 -1.43902 -1.30406 0
M  V30 2604 C 252.981 -2.83417 -2.00729 0
M  V30 2605 C 251.935 -3.94174 -1.66765 0
M  V30 2606 C 251.261 -4.44233 -2.97592 0
M  V30 2607 C 252.561 -5.14392 -0.905447 0
M  V30 2608 H 254.255 -2.98413 -0.242959 0
M  V30 2609 H 251.801 -1.43537 -0.115419 0
M  V30 2610 H 253.754 -3.26543 -2.6636 0
M  V30 2611 H 252.478 -2.02701 -2.56086 0
M  V30 2612 H 251.137 -3.51684 -1.03508 0
M  V30 2613 H 250.785 -3.60325 -3.50963 0
M  V30 2614 H 250.485 -5.18945 -2.75626 0
M  V30 2615 H 252.009 -4.90037 -3.64274 0
M  V30 2616 H 253.423 -5.5429 -1.46408 0
M  V30 2617 H 251.82 -5.9494 -0.7853 0
M  V30 2618 H 252.89 -4.84795 0.100668 0
M  V30 2619 N 254.233 0.115231 -1.57178 0
M  V30 2620 C 255.163 1.1423 -2.03651 0
M  V30 2621 C 256.144 1.42967 -0.921655 0
M  V30 2622 O 257.329 1.53343 -1.19162 0
M  V30 2623 C 254.459 2.4675 -2.44401 0
M  V30 2624 C 253.413 2.32467 -3.59365 0
M  V30 2625 C 252.739 3.69984 -3.86026 0
M  V30 2626 C 254.039 1.78203 -4.90959 0
M  V30 2627 H 255.733 0.755749 -2.89705 0
M  V30 2628 H 253.279 0.362093 -1.39373 0
M  V30 2629 H 255.232 3.18854 -2.75517 0
M  V30 2630 H 253.956 2.87302 -1.55322 0
M  V30 2631 H 252.615 1.62811 -3.28463 0
M  V30 2632 H 252.263 4.08028 -2.94147 0
M  V30 2633 H 251.963 3.61279 -4.63412 0
M  V30 2634 H 253.487 4.43587 -4.19599 0
M  V30 2635 H 254.901 2.40128 -5.20587 0
M  V30 2636 H 253.298 1.8031 -5.72371 0
M  V30 2637 H 254.368 0.739876 -4.79222 0
M  V30 2638 N 255.711 1.52812 0.385517 0
M  V30 2639 C 256.643 1.74096 1.49074 0
M  V30 2640 C 257.656 0.621462 1.50472 0
M  V30 2641 O 258.845 0.897245 1.54311 0
M  V30 2642 C 255.945 1.78774 2.87911 0
M  V30 2643 C 255.118 3.08134 3.10439 0
M  V30 2644 C 254.177 3.04313 4.29278 0
M  V30 2645 O 253.203 3.78168 4.25415 0
M  V30 2646 N 254.405 2.23741 5.35649 0
M  V30 2647 H 257.17 2.69455 1.31202 0
M  V30 2648 H 254.731 1.51343 0.575065 0
M  V30 2649 H 256.723 1.73721 3.65518 0
M  V30 2650 H 255.293 0.907869 2.99126 0
M  V30 2651 H 254.513 3.26649 2.20667 0
M  V30 2652 H 255.801 3.93662 3.22347 0
M  V30 2653 H 255.199 1.63211 5.41645 0
M  V30 2654 H 253.756 2.24524 6.11909 0
M  V30 2655 N 257.189 -0.644168 1.43834 0
M  V30 2656 C 258.429 -1.41565 1.47441 0
M  V30 2657 C 258.793 -1.91743 0.0992723 0
M  V30 2658 O 259.994 -2.68798 0.0100192 0
M  V30 2659 C 258.265 -2.55902 2.49498 0
M  V30 2660 S 259.824 -3.44287 2.72051 0
M  V30 2661 H 256.642 -0.483118 0.521649 0
M  V30 2662 H 259.244 -0.747008 1.80666 0
M  V30 2663 H 257.948 -2.17327 3.48134 0
M  V30 2664 H 257.479 -3.27607 2.17801 0
M  V30 2665 H 259.494 -4.52927 2.0266 0
M  V30 2666 N 258.668 -1.30515 -0.883378 0
M  V30 2667 C 259.618 -1.13641 -1.9766 0
M  V30 2668 C 260.602 -0.0511314 -1.60819 0
M  V30 2669 O 261.794 -0.274623 -1.74857 0
M  V30 2670 C 258.923 -0.831976 -3.33066 0
M  V30 2671 C 258.009 -1.95759 -3.76217 0
M  V30 2672 N 258.4 -3.20313 -3.9145 0
M  V30 2673 C 256.698 -1.85431 -4.05625 0
M  V30 2674 C 257.399 -3.93856 -4.2808 0
M  V30 2675 N 256.375 -3.21919 -4.38029 0
M  V30 2676 H 260.177 -2.08106 -2.07531 0
M  V30 2677 H 257.691 -1.21877 -1.0733 0
M  V30 2678 H 259.688 -0.692102 -4.11115 0
M  V30 2679 H 258.348 0.104588 -3.24532 0
M  V30 2680 H 259.359 -3.55583 -3.76538 0
M  V30 2681 H 256.036 -0.991531 -4.05555 0
M  V30 2682 H 257.426 -5.01125 -4.47575 0
M  V30 2683 N 260.146 1.09593 -1.13257 0
M  V30 2684 C 261.557 1.63229 -0.906274 0
M  V30 2685 C 261.908 1.8811 0.557578 0
M  V30 2686 O 261.033 1.62953 1.42391 0
M  V30 2687 C 261.628 2.96535 -1.63867 0
M  V30 2688 C 260.187 3.47003 -1.45828 0
M  V30 2689 C 259.334 2.2145 -1.66898 0
M  V30 2690 H 262.285 0.92978 -1.28611 0
M  V30 2691 H 262.306 3.64411 -1.09476 0
M  V30 2692 H 261.818 2.78394 -2.70404 0
M  V30 2693 H 259.919 3.70272 -0.415848 0
M  V30 2694 H 260.032 4.24551 -2.2202 0
M  V30 2695 H 258.396 2.30022 -1.09371 0
M  V30 2696 H 259.179 2.0583 -2.74752 0
M  V30 2697 N 261.624 0.925811 1.2754 0
M  V30 2698 C 262.587 0.428129 2.25166 0
M  V30 2699 C 263.587 -0.452261 1.54309 0
M  V30 2700 O 264.777 -0.253608 1.72344 0
M  V30 2701 C 261.909 -0.384749 3.38722 0
M  V30 2702 H 263.102 1.29066 2.70706 0
M  V30 2703 H 260.655 0.706323 1.3943 0
M  V30 2704 H 261.39 -1.26618 2.98561 0
M  V30 2705 H 261.175 0.246454 3.91325 0
M  V30 2706 H 262.665 -0.723389 4.11287 0
M  V30 2707 N 263.102 -1.41638 0.69111 0
M  V30 2708 C 264.348 -2.01598 0.220519 0
M  V30 2709 C 264.681 -1.54594 -1.17535 0
M  V30 2710 O 263.956 -0.755177 -1.79241 0
M  V30 2711 C 264.239 -3.59062 0.273243 0
M  V30 2712 C 264.092 -4.16203 1.70573 0
M  V30 2713 C 265.411 -4.38546 -0.369457 0
M  V30 2714 H 262.53 -0.732468 0.0816045 0
M  V30 2715 H 265.172 -1.68445 0.878986 0
M  V30 2716 H 263.322 -3.87435 -0.287411 0
M  V30 2717 H 264.994 -3.98722 2.31989 0
M  V30 2718 H 263.237 -3.71414 2.2413 0
M  V30 2719 H 263.908 -5.25358 1.69419 0
M  V30 2720 H 266.384 -4.1596 0.107977 0
M  V30 2721 H 265.26 -5.48069 -0.302002 0
M  V30 2722 H 265.521 -4.17662 -1.44951 0
M  V30 2723 N 264.58 -0.43555 -1.51462 0
M  V30 2724 C 265.527 0.376797 -2.27703 0
M  V30 2725 C 266.497 1.01838 -1.31219 0
M  V30 2726 O 267.682 1.03762 -1.60119 0
M  V30 2727 C 264.822 1.47301 -3.12084 0
M  V30 2728 C 263.935 0.849744 -4.2356 0
M  V30 2729 C 263.07 1.92086 -4.95254 0
M  V30 2730 C 262.109 1.27593 -5.98654 0
M  V30 2731 N 261.246 2.28833 -6.63762 0
M  V30 2732 H 266.086 -0.279734 -2.96684 0
M  V30 2733 H 263.623 -0.149795 -1.46335 0
M  V30 2734 H 265.581 2.11984 -3.59331 0
M  V30 2735 H 264.211 2.0992 -2.45221 0
M  V30 2736 H 263.263 0.0912529 -3.80291 0
M  V30 2737 H 264.575 0.338878 -4.97648 0
M  V30 2738 H 263.729 2.64435 -5.46039 0
M  V30 2739 H 262.468 2.46545 -4.20793 0
M  V30 2740 H 261.473 0.537893 -5.47162 0
M  V30 2741 H 262.698 0.738693 -6.7507 0
M  V30 2742 H 260.644 2.82375 -5.92115 0
M  V30 2743 H 260.561 1.82632 -7.33608 0
M  V30 2744 H 261.829 3.00671 -7.19178 0
M  V30 2745 N 266.058 1.56714 -0.166846 0
M  V30 2746 C 267.305 1.96747 0.479252 0
M  V30 2747 C 267.633 1.05263 1.63554 0
M  V30 2748 O 266.888 0.0858098 1.95512 0
M  V30 2749 C 267.187 3.42889 1.00806 0
M  V30 2750 C 266.853 4.50889 -0.0318574 0
M  V30 2751 C 265.515 4.8015 -0.317675 0
M  V30 2752 C 267.867 5.15949 -0.737956 0
M  V30 2753 C 265.195 5.71772 -1.31506 0
M  V30 2754 C 267.547 6.08647 -1.72429 0
M  V30 2755 C 266.211 6.36277 -2.0176 0
M  V30 2756 H 265.481 0.719949 0.175371 0
M  V30 2757 H 268.128 1.89756 -0.257864 0
M  V30 2758 H 266.433 3.4681 1.82291 0
M  V30 2759 H 268.13 3.71203 1.51689 0
M  V30 2760 H 264.72 4.28128 0.201088 0
M  V30 2761 H 268.904 4.93458 -0.530351 0
M  V30 2762 H 264.16 5.91465 -1.54853 0
M  V30 2763 H 268.334 6.58129 -2.27682 0
M  V30 2764 H 265.961 7.07075 -2.79194 0
M  V30 2765 N 267.536 -0.106894 1.57237 0
M  V30 2766 C 268.947 -0.662723 1.74542 0
M  V30 2767 C 269.298 -1.7971 0.787319 0
M  V30 2768 O 268.423 -2.16368 -0.0369636 0
M  V30 2769 C 269.018 -1.20896 3.16496 0
M  V30 2770 C 267.577 -1.71096 3.35266 0
M  V30 2771 C 266.724 -0.615642 2.7038 0
M  V30 2772 H 269.675 0.119106 1.58252 0
M  V30 2773 H 269.696 -2.07847 3.18716 0
M  V30 2774 H 269.208 -0.383122 3.86204 0
M  V30 2775 H 267.309 -2.56119 2.70618 0
M  V30 2776 H 267.422 -1.81208 4.43509 0
M  V30 2777 H 265.786 -1.05222 2.31949 0
M  V30 2778 H 266.569 0.199419 3.4272 0
M  V30 2779 N 269.014 -1.53014 -0.377408 0
M  V30 2780 C 270.254 -1.70318 -1.1301 0
M  V30 2781 C 270.618 -0.439538 -1.86901 0
M  V30 2782 O 271.819 -0.489095 -2.64313 0
M  V30 2783 C 270.09 -2.91125 -2.07319 0
M  V30 2784 S 271.649 -3.29075 -2.90268 0
M  V30 2785 H 268.467 -0.599426 -0.382374 0
M  V30 2786 H 271.069 -1.91089 -0.412933 0
M  V30 2787 H 269.773 -3.81303 -1.51777 0
M  V30 2788 H 269.304 -2.7272 -2.83526 0
M  V30 2789 H 271.319 -2.80165 -4.09539 0
M  V30 2790 N 270.492 0.636531 -1.44174 0
M  V30 2791 C 271.74 1.39343 -1.46383 0
M  V30 2792 C 272.061 1.94766 -0.0955715 0
M  V30 2793 O 271.331 1.75452 0.871395 0
M  V30 2794 H 269.911 0.517199 -0.538994 0
M  V30 2795 H 272.573 0.74957 -1.7991 0
M  V30 2796 H 271.669 2.22746 -2.18611 0
M  V30 2797 N 271.97 1.30982 0.876444 0
M  V30 2798 C 273.386 1.09498 1.16113 0
M  V30 2799 C 273.586 -0.13875 2.01022 0
M  V30 2800 O 272.642 -0.829935 2.38471 0
M  V30 2801 C 273.955 2.36308 1.85954 0
M  V30 2802 C 275.503 2.41856 1.98683 0
M  V30 2803 C 275.978 3.6853 2.71937 0
M  V30 2804 N 277.469 3.69387 2.79477 0
M  V30 2805 C 278.204 4.64096 3.36753 0
M  V30 2806 N 277.7 5.69155 3.95012 0
M  V30 2807 N 279.493 4.51626 3.3465 0
M  V30 2808 H 271.644 2.10118 0.310494 0
M  V30 2809 H 273.907 0.926634 0.200131 0
M  V30 2810 H 273.613 3.26388 1.31011 0
M  V30 2811 H 273.487 2.4561 2.86278 0
M  V30 2812 H 275.874 1.52249 2.52793 0
M  V30 2813 H 275.955 2.36523 0.9742 0
M  V30 2814 H 275.599 4.58499 2.18496 0
M  V30 2815 H 275.529 3.71127 3.73593 0
M  V30 2816 H 278.02 2.93438 2.38123 0
M  V30 2817 H 278.333 6.3751 4.36808 0
M  V30 2818 H 276.678 5.72937 3.93406 0
M  V30 2819 H 279.869 3.68728 2.8837 0
M  V30 2820 H 280.042 5.25614 3.7899 0
M  V30 2821 N 273.449 -1.08991 1.13837 0
M  V30 2822 C 274.86 -1.62746 0.914917 0
M  V30 2823 C 275.211 -1.88403 -0.547594 0
M  V30 2824 O 274.336 -1.63706 -1.41525 0
M  V30 2825 C 274.931 -2.95662 1.65437 0
M  V30 2826 C 273.49 -3.46225 1.47666 0
M  V30 2827 C 272.637 -2.20562 1.6807 0
M  V30 2828 H 275.588 -0.922946 1.29102 0
M  V30 2829 H 275.609 -3.63825 1.11407 0
M  V30 2830 H 275.121 -2.76956 2.71877 0
M  V30 2831 H 273.222 -3.70046 0.435478 0
M  V30 2832 H 273.335 -4.23368 2.24268 0
M  V30 2833 H 271.699 -2.29439 1.10589 0
M  V30 2834 H 272.482 -2.0437 2.7584 0
M  V30 2835 N 274.927 -0.932562 -1.27047 0
M  V30 2836 C 276.173 -0.585913 -1.94778 0
M  V30 2837 C 276.528 0.864142 -1.71902 0
M  V30 2838 O 275.821 1.60894 -1.04037 0
M  V30 2839 C 276.015 -0.853713 -3.47054 0
M  V30 2840 C 275.844 -2.32825 -3.84737 0
M  V30 2841 C 274.614 -2.98184 -4.07939 0
M  V30 2842 C 276.812 -3.30612 -3.93954 0
M  V30 2843 N 274.794 -4.3574 -4.3244 0
M  V30 2844 C 276.165 -4.53395 -4.22887 0
M  V30 2845 C 278.22 -3.25755 -3.76548 0
M  V30 2846 C 276.923 -5.71927 -4.36224 0
M  V30 2847 C 278.949 -4.43604 -3.91113 0
M  V30 2848 C 278.311 -5.65166 -4.20437 0
M  V30 2849 H 274.41 -0.264617 -0.735868 0
M  V30 2850 H 276.994 -1.20019 -1.53309 0
M  V30 2851 H 275.165 -0.268557 -3.8747 0
M  V30 2852 H 276.897 -0.469202 -4.01971 0
M  V30 2853 H 273.652 -2.48835 -4.02961 0
M  V30 2854 H 274.076 -5.06915 -4.48738 0
M  V30 2855 H 278.718 -2.32835 -3.52913 0
M  V30 2856 H 276.436 -6.65308 -4.58683 0
M  V30 2857 H 280.022 -4.41368 -3.79059 0
M  V30 2858 H 278.902 -6.54836 -4.31462 0
M  V30 2859 N 276.405 1.4127 -0.698611 0
M  V30 2860 C 277.352 2.30773 -0.0352094 0
M  V30 2861 C 278.322 1.47273 0.768111 0
M  V30 2862 O 279.507 1.76053 0.735524 0
M  V30 2863 C 276.647 3.33346 0.893 0
M  V30 2864 C 275.76 4.31924 0.0809695 0
M  V30 2865 C 274.895 5.21566 1.0071 0
M  V30 2866 C 273.934 6.11811 0.188155 0
M  V30 2867 N 273.071 6.93926 1.06825 0
M  V30 2868 H 277.911 2.86943 -0.804207 0
M  V30 2869 H 275.448 1.4132 -0.408294 0
M  V30 2870 H 277.406 3.91368 1.44523 0
M  V30 2871 H 276.036 2.78719 1.62836 0
M  V30 2872 H 275.088 3.75825 -0.588224 0
M  V30 2873 H 276.4 4.95716 -0.553801 0
M  V30 2874 H 275.554 5.84437 1.62845 0
M  V30 2875 H 274.293 4.58008 1.67572 0
M  V30 2876 H 273.298 5.47986 -0.446254 0
M  V30 2877 H 274.523 6.77425 -0.476716 0
M  V30 2878 H 272.469 6.32973 1.72283 0
M  V30 2879 H 272.386 7.54416 0.489123 0
M  V30 2880 H 273.654 7.61262 1.67632 0
M  V30 2881 N 277.883 0.443576 1.51229 0
M  V30 2882 C 279.299 0.0962001 1.5931 0
M  V30 2883 C 279.499 -1.39501 1.45402 0
M  V30 2884 O 278.555 -2.16557 1.29843 0
M  V30 2885 C 279.868 0.621875 2.94199 0
M  V30 2886 C 281.416 0.582865 3.07525 0
M  V30 2887 C 281.891 1.08562 4.44948 0
M  V30 2888 N 283.382 1.04387 4.51284 0
M  V30 2889 C 284.117 1.40368 5.55954 0
M  V30 2890 N 283.613 1.83664 6.68011 0
M  V30 2891 N 285.406 1.32145 5.46346 0
M  V30 2892 H 277.557 1.41376 1.58514 0
M  V30 2893 H 279.82 0.582965 0.747567 0
M  V30 2894 H 279.526 1.66546 3.09767 0
M  V30 2895 H 279.4 0.0502125 3.77167 0
M  V30 2896 H 281.787 -0.451749 2.91622 0
M  V30 2897 H 281.868 1.191 2.26382 0
M  V30 2898 H 281.512 2.11873 4.61598 0
M  V30 2899 H 281.442 0.453956 5.2464 0
M  V30 2900 H 283.933 0.725986 3.70861 0
M  V30 2901 H 284.246 2.0934 7.43906 0
M  V30 2902 H 282.591 1.87596 6.69203 0
M  V30 2903 H 285.782 0.981808 4.57688 0
M  V30 2904 H 285.955 1.60514 6.27805 0
M  V30 2905 N 279.361 -1.56624 0.175154 0
M  V30 2906 C 280.294 -2.14 -0.792412 0
M  V30 2907 C 281.272 -1.07114 -1.22333 0
M  V30 2908 O 282.456 -1.35112 -1.31442 0
M  V30 2909 C 279.583 -2.68268 -2.0676 0
M  V30 2910 C 278.629 -3.87562 -1.7804 0
M  V30 2911 S 279.462 -5.27074 -0.946222 0
M  V30 2912 C 280.618 -5.8475 -2.23199 0
M  V30 2913 H 280.851 -2.95736 -0.304588 0
M  V30 2914 H 278.384 -1.54349 -0.0395705 0
M  V30 2915 H 280.342 -3.00182 -2.80002 0
M  V30 2916 H 279.003 -1.86612 -2.52656 0
M  V30 2917 H 278.196 -4.23874 -2.72666 0
M  V30 2918 H 277.798 -3.56555 -1.12891 0
M  V30 2919 H 280.09 -5.97898 -3.18629 0
M  V30 2920 H 281.033 -6.81756 -1.91349 0
M  V30 2921 H 281.441 -5.13198 -2.35134 0
M  V30 2922 N 280.839 0.0985539 -1.57292 0
M  V30 2923 C 281.749 1.13824 -2.05137 0
M  V30 2924 C 282.765 1.44076 -0.975604 0
M  V30 2925 O 283.941 1.54786 -1.28853 0
M  V30 2926 C 281.006 2.43969 -2.46333 0
M  V30 2927 C 280.067 2.2093 -3.68087 0
M  V30 2928 C 279.3 3.44869 -4.0731 0
M  V30 2929 O 279.523 4.52972 -3.46659 0
M  V30 2930 O 278.457 3.34661 -5.00285 0
M  V30 2931 H 282.283 0.761881 -2.93988 0
M  V30 2932 H 279.868 0.310818 -1.46131 0
M  V30 2933 H 281.75 3.20609 -2.73473 0
M  V30 2934 H 280.425 2.81038 -1.60621 0
M  V30 2935 H 279.332 1.42081 -3.46069 0
M  V30 2936 H 280.665 1.88755 -4.54568 0
M  V30 2937 N 282.317 1.53212 0.369288 0
M  V30 2938 C 283.264 1.79388 1.45219 0
M  V30 2939 C 284.234 0.638059 1.53356 0
M  V30 2940 O 285.419 0.879852 1.69302 0
M  V30 2941 C 282.559 1.98623 2.82211 0
M  V30 2942 C 281.672 3.26337 2.8307 0
M  V30 2943 C 280.807 3.35779 4.11614 0
M  V30 2944 C 279.846 4.5754 4.06601 0
M  V30 2945 N 278.983 4.64155 5.26787 0
M  V30 2946 H 283.823 2.71794 1.22198 0
M  V30 2947 H 281.36 1.34642 0.592444 0
M  V30 2948 H 283.318 2.07761 3.61789 0
M  V30 2949 H 281.948 1.09558 3.03639 0
M  V30 2950 H 281 3.26171 1.95747 0
M  V30 2951 H 282.312 4.15988 2.75237 0
M  V30 2952 H 281.466 3.44208 4.99606 0
M  V30 2953 H 280.205 2.44137 4.22195 0
M  V30 2954 H 279.21 4.49215 3.16996 0
M  V30 2955 H 280.435 5.50519 3.97625 0
M  V30 2956 H 278.381 3.75413 5.3796 0
M  V30 2957 H 278.298 5.47706 5.21109 0
M  V30 2958 H 279.566 4.76863 6.16621 0
M  V30 2959 N 283.795 -0.628877 1.44509 0
M  V30 2960 C 284.742 -1.74074 1.51549 0
M  V30 2961 C 285.712 -1.62084 0.363021 0
M  V30 2962 O 286.897 -1.81975 0.573567 0
M  V30 2963 C 284.037 -3.12328 1.46784 0
M  V30 2964 C 283.15 -3.35277 2.72422 0
M  V30 2965 C 282.285 -4.63515 2.59475 0
M  V30 2966 C 281.324 -4.7965 3.80266 0
M  V30 2967 N 280.461 -5.99168 3.65981 0
M  V30 2968 H 285.301 -1.67392 2.46544 0
M  V30 2969 H 282.838 -0.816527 1.22357 0
M  V30 2970 H 284.796 -3.92286 1.42012 0
M  V30 2971 H 283.426 -3.18018 0.553544 0
M  V30 2972 H 282.478 -2.49242 2.87372 0
M  V30 2973 H 283.79 -3.43078 3.62076 0
M  V30 2974 H 282.944 -5.51638 2.52548 0
M  V30 2975 H 281.683 -4.58076 1.67384 0
M  V30 2976 H 280.688 -3.89957 3.87574 0
M  V30 2977 H 281.913 -4.86902 4.73395 0
M  V30 2978 H 279.859 -5.94814 2.76644 0
M  V30 2979 H 279.776 -6.08035 4.49254 0
M  V30 2980 H 281.044 -6.89846 3.6295 0
M  V30 2981 N 285.273 -1.31445 -0.869486 0
M  V30 2982 C 286.689 -1.10113 -1.15531 0
M  V30 2983 C 286.889 0.128087 -2.01092 0
M  V30 2984 O 285.945 0.817276 -2.38908 0
M  V30 2985 C 287.258 -2.37291 -1.84698 0
M  V30 2986 C 288.806 -2.42906 -1.97397 0
M  V30 2987 C 289.281 -3.69967 -2.69979 0
M  V30 2988 N 290.772 -3.70864 -2.77514 0
M  V30 2989 C 291.507 -4.65875 -3.34287 0
M  V30 2990 N 291.003 -5.71242 -3.91988 0
M  V30 2991 N 292.796 -4.53394 -3.3225 0
M  V30 2992 H 284.947 -2.1028 -0.299347 0
M  V30 2993 H 287.21 -0.927683 -0.195214 0
M  V30 2994 H 286.916 -3.27078 -1.29278 0
M  V30 2995 H 286.79 -2.47125 -2.84972 0
M  V30 2996 H 289.177 -1.53588 -2.51982 0
M  V30 2997 H 289.258 -2.37036 -0.961643 0
M  V30 2998 H 288.902 -4.59652 -2.16062 0
M  V30 2999 H 288.832 -3.73103 -3.7162 0
M  V30 3000 H 291.323 -2.94697 -2.36563 0
M  V30 3001 H 291.636 -6.39817 -4.33421 0
M  V30 3002 H 289.981 -5.75015 -3.90362 0
M  V30 3003 H 293.172 -3.70252 -2.8641 0
M  V30 3004 H 293.345 -5.27617 -3.76197 0
M  V30 3005 N 286.751 1.08385 -1.14413 0
M  V30 3006 C 287.976 1.85057 -0.936413 0
M  V30 3007 C 288.401 1.81055 0.509971 0
M  V30 3008 O 287.759 1.1958 1.36273 0
M  V30 3009 C 287.807 3.30505 -1.44217 0
M  V30 3010 O 286.911 4.07491 -0.634409 0
M  V30 3011 H 286.252 0.573425 -0.334784 0
M  V30 3012 H 288.782 1.36799 -1.52142 0
M  V30 3013 H 288.792 3.81348 -1.45043 0
M  V30 3014 H 287.467 3.32734 -2.49522 0
M  V30 3015 H 286.044 3.66368 -0.694902 0
M  V30 3016 N 288.23 0.939286 1.26551 0
M  V30 3017 C 289.18 0.418284 2.2413 0
M  V30 3018 C 290.164 -0.483935 1.5345 0
M  V30 3019 O 291.356 -0.319489 1.74093 0
M  V30 3020 C 288.485 -0.31709 3.41832 0
M  V30 3021 C 287.571 0.602311 4.19801 0
M  V30 3022 N 287.962 1.72726 4.75394 0
M  V30 3023 C 286.26 0.407534 4.44134 0
M  V30 3024 C 286.961 2.30004 5.34297 0
M  V30 3025 N 285.937 1.58828 5.1988 0
M  V30 3026 H 289.739 1.27705 2.64705 0
M  V30 3027 H 287.253 0.794929 1.41614 0
M  V30 3028 H 289.25 -0.707364 4.10855 0
M  V30 3029 H 287.91 -1.17264 3.02786 0
M  V30 3030 H 288.921 2.10944 4.72994 0
M  V30 3031 H 285.598 -0.406406 4.15517 0
M  V30 3032 H 286.988 3.24778 5.88191 0
M  V30 3033 N 289.708 -1.40897 0.706093 0
M  V30 3034 C 290.638 -2.33418 0.0620085 0
M  V30 3035 C 291.619 -1.52385 -0.755827 0
M  V30 3036 O 292.804 -1.80886 -0.706674 0
M  V30 3037 C 289.934 -3.36293 -0.867445 0
M  V30 3038 C 288.888 -4.27716 -0.155932 0
M  V30 3039 C 288.214 -5.2105 -1.20046 0
M  V30 3040 C 289.514 -5.12944 0.984149 0
M  V30 3041 H 291.208 -2.87527 0.83477 0
M  V30 3042 H 288.754 -1.38249 0.402875 0
M  V30 3043 H 290.707 -3.99949 -1.32735 0
M  V30 3044 H 289.431 -2.80556 -1.67199 0
M  V30 3045 H 288.09 -3.65498 0.284047 0
M  V30 3046 H 287.738 -4.61624 -1.99781 0
M  V30 3047 H 287.438 -5.83056 -0.729328 0
M  V30 3048 H 288.962 -5.87584 -1.66066 0
M  V30 3049 H 290.376 -5.70109 0.604048 0
M  V30 3050 H 288.773 -5.83945 1.38304 0
M  V30 3051 H 289.843 -4.49485 1.81911 0
M  V30 3052 N 291.186 -0.45159 -1.50991 0
M  V30 3053 C 292.133 0.352625 -2.2809 0
M  V30 3054 C 293.103 1.0044 -1.32291 0
M  V30 3055 O 294.288 1.02058 -1.6121 0
M  V30 3056 C 291.428 1.43983 -3.13629 0
M  V30 3057 C 290.541 0.804772 -4.24438 0
M  V30 3058 C 289.676 1.86822 -4.97263 0
M  V30 3059 C 288.715 1.21236 -5.99973 0
M  V30 3060 N 287.852 2.2178 -6.66152 0
M  V30 3061 H 292.692 -0.311186 -2.96371 0
M  V30 3062 H 290.229 -0.165308 -1.46168 0
M  V30 3063 H 292.187 2.08161 -3.61559 0
M  V30 3064 H 290.817 2.07307 -2.47434 0
M  V30 3065 H 289.869 0.0509129 -3.80366 0
M  V30 3066 H 291.181 0.286076 -4.97979 0
M  V30 3067 H 290.335 2.58628 -5.48813 0
M  V30 3068 H 289.074 2.42068 -4.23385 0
M  V30 3069 H 288.079 0.479828 -5.47702 0
M  V30 3070 H 289.304 0.667051 -6.75816 0
M  V30 3071 H 287.25 2.76079 -5.95077 0
M  V30 3072 H 287.167 1.74841 -7.35504 0
M  V30 3073 H 288.435 2.93026 -7.22327 0
M  V30 3074 N 292.664 1.56529 -0.183458 0
M  V30 3075 C 294.08 1.58664 0.172554 0
M  V30 3076 C 294.28 1.19925 1.61926 0
M  V30 3077 O 293.336 0.916534 2.35278 0
M  V30 3078 C 294.649 3.00463 -0.119262 0
M  V30 3079 C 296.197 3.12945 -0.0584396 0
M  V30 3080 C 296.672 4.56857 -0.323408 0
M  V30 3081 N 298.163 4.62403 -0.271612 0
M  V30 3082 C 298.898 5.71626 -0.450639 0
M  V30 3083 N 298.394 6.89362 -0.689384 0
M  V30 3084 N 300.187 5.60775 -0.385701 0
M  V30 3085 H 292.338 1.79994 -1.12765 0
M  V30 3086 H 294.601 0.834808 -0.449222 0
M  V30 3087 H 294.307 3.33326 -1.12192 0
M  V30 3088 H 294.181 3.72659 0.583544 0
M  V30 3089 H 296.568 2.79902 0.934805 0
M  V30 3090 H 296.649 2.4316 -0.794144 0
M  V30 3091 H 296.293 4.9061 -1.31392 0
M  V30 3092 H 296.223 5.24816 0.43305 0
M  V30 3093 H 298.714 3.77785 -0.0932256 0
M  V30 3094 H 299.027 7.68489 -0.815113 0
M  V30 3095 H 297.372 6.91196 -0.726142 0
M  V30 3096 H 300.563 4.67674 -0.199687 0
M  V30 3097 H 300.736 6.4584 -0.528646 0
M  V30 3098 N 294.142 -0.090211 1.57342 0
M  V30 3099 C 295.419 -0.824761 1.77361 0
M  V30 3100 C 295.799 -1.96698 0.76637 0
M  V30 3101 O 295.147 -2.27586 -0.204179 0
M  V30 3102 C 295.357 -1.31481 3.23286 0
M  V30 3103 C 296.705 -1.75563 3.86604 0
M  V30 3104 O 297.729 -1.41093 3.27065 0
M  V30 3105 O 296.588 -2.39317 4.91314 0
M  V30 3106 H 293.682 -0.393776 0.727234 0
M  V30 3107 H 296.228 -0.0717138 1.69548 0
M  V30 3108 H 295 -0.496671 3.88135 0
M  V30 3109 H 294.623 -2.12973 3.35751 0
M  V30 3110 N 295.62 -1.53406 -0.361157 0
M  V30 3111 C 296.848 -1.73717 -1.12383 0
M  V30 3112 C 297.263 -0.468161 -1.82904 0
M  V30 3113 O 296.62 0.559198 -1.73722 0
M  V30 3114 C 296.671 -2.90558 -2.15078 0
M  V30 3115 O 296.392 -4.12549 -1.47428 0
M  V30 3116 C 297.893 -3.22777 -3.03858 0
M  V30 3117 H 295.113 -0.580896 -0.335858 0
M  V30 3118 H 297.657 -2.00167 -0.418728 0
M  V30 3119 H 295.812 -2.66489 -2.8118 0
M  V30 3120 H 296.226 -4.78009 -2.15887 0
M  V30 3121 H 297.7 -4.07927 -3.71887 0
M  V30 3122 H 298.177 -2.38329 -3.68912 0
M  V30 3123 H 298.783 -3.48787 -2.43367 0
M  V30 3124 N 297.098 0.621204 -1.44841 0
M  V30 3125 C 298.008 1.7612 -1.5498 0
M  V30 3126 C 299.024 1.68477 -0.434927 0
M  V30 3127 O 300.2 1.89076 -0.693693 0
M  V30 3128 C 297.265 3.1254 -1.50065 0
M  V30 3129 C 296.326 3.31741 -2.72482 0
M  V30 3130 C 295.559 4.61653 -2.67792 0
M  V30 3131 O 295.782 5.431 -1.74352 0
M  V30 3132 O 294.716 4.83271 -3.58794 0
M  V30 3133 H 298.542 1.70518 -2.51311 0
M  V30 3134 H 296.127 0.783643 -1.27198 0
M  V30 3135 H 298.009 3.93844 -1.49882 0
M  V30 3136 H 296.684 3.18663 -0.568806 0
M  V30 3137 H 295.591 2.50077 -2.7823 0
M  V30 3138 H 296.924 3.30486 -3.64746 0
M  V30 3139 N 298.576 1.31904 0.862503 0
M  V30 3140 C 299.853 1.12644 1.59908 0
M  V30 3141 C 300.233 -0.316104 2.0872 0
M  V30 3142 O 299.581 -1.31145 1.87118 0
M  V30 3143 C 299.791 2.1472 2.7513 0
M  V30 3144 C 301.139 2.47637 3.44907 0
M  V30 3145 O 302.163 2.13205 2.85346 0
M  V30 3146 O 301.022 3.06632 4.52371 0
M  V30 3147 H 298.116 0.43416 0.703871 0
M  V30 3148 H 300.662 1.43408 0.907314 0
M  V30 3149 H 299.434 3.1172 2.3653 0
M  V30 3150 H 299.057 1.84905 3.51989 0
M  V30 3151 N 300.054 -1.07777 1.14986 0
M  V30 3152 C 300.986 -2.14769 0.800436 0
M  V30 3153 C 301.999 -1.61739 -0.185595 0
M  V30 3154 O 303.188 -1.78462 0.0370358 0
M  V30 3155 C 300.288 -3.38481 0.168533 0
M  V30 3156 C 299.461 -4.20876 1.1909 0
M  V30 3157 C 298.52 -5.22976 0.581575 0
M  V30 3158 O 297.546 -5.55388 1.24633 0
M  V30 3159 N 298.748 -5.76976 -0.638706 0
M  V30 3160 H 301.513 -2.45348 1.72118 0
M  V30 3161 H 299.074 -1.23645 1.04515 0
M  V30 3162 H 301.066 -4.03916 -0.251764 0
M  V30 3163 H 299.636 -3.05651 -0.655467 0
M  V30 3164 H 298.856 -3.51322 1.78791 0
M  V30 3165 H 300.144 -4.7274 1.88133 0
M  V30 3166 H 299.542 -5.52886 -1.19723 0
M  V30 3167 H 298.099 -6.44061 -1.00142 0
M  V30 3168 N 301.532 -0.945985 -1.26051 0
M  V30 3169 C 302.442 -0.465633 -2.29933 0
M  V30 3170 C 303.458 0.462761 -1.67733 0
M  V30 3171 O 304.634 0.341118 -1.9849 0
M  V30 3172 C 301.699 0.256994 -3.45746 0
M  V30 3173 C 300.76 -0.708549 -4.23412 0
M  V30 3174 C 299.993 -0.0203135 -5.33696 0
M  V30 3175 O 300.216 1.19571 -5.57726 0
M  V30 3176 O 299.15 -0.701459 -5.97799 0
M  V30 3177 H 302.976 -1.32866 -2.73094 0
M  V30 3178 H 300.561 -0.712071 -1.31339 0
M  V30 3179 H 302.443 0.663852 -4.16138 0
M  V30 3180 H 301.118 1.09533 -3.04605 0
M  V30 3181 H 300.025 -1.16545 -3.55483 0
M  V30 3182 H 301.358 -1.51465 -4.68315 0
M  V30 3183 N 303.011 1.40521 -0.713556 0
M  V30 3184 C 304.288 1.94775 -0.17943 0
M  V30 3185 C 304.668 1.65184 1.31444 0
M  V30 3186 O 304.016 0.968429 2.06963 0
M  V30 3187 C 304.226 3.45543 -0.489986 0
M  V30 3188 C 305.574 4.22442 -0.427536 0
M  V30 3189 O 306.598 3.53644 -0.425929 0
M  V30 3190 O 305.457 5.4501 -0.403292 0
M  V30 3191 H 302.551 0.826606 -0.0255192 0
M  V30 3192 H 305.097 1.5014 -0.790949 0
M  V30 3193 H 303.869 3.60432 -1.5233 0
M  V30 3194 H 303.492 3.97311 0.151598 0
M  V30 3195 N 304.489 0.459591 1.5075 0
M  V30 3196 C 305.421 -0.37665 2.26084 0
M  V30 3197 C 306.434 -0.967109 1.30961 0
M  V30 3198 O 307.623 -0.857468 1.56556 0
M  V30 3199 C 304.723 -1.54112 3.01832 0
M  V30 3200 C 303.896 -1.06553 4.24223 0
M  V30 3201 C 302.955 -2.1027 4.82362 0
M  V30 3202 O 301.981 -1.68798 5.43595 0
M  V30 3203 N 303.183 -3.42974 4.68347 0
M  V30 3204 H 305.948 0.269124 2.98489 0
M  V30 3205 H 303.509 0.28972 1.59287 0
M  V30 3206 H 305.501 -2.23165 3.37608 0
M  V30 3207 H 304.071 -2.0918 2.32298 0
M  V30 3208 H 303.291 -0.201274 3.93686 0
M  V30 3209 H 304.579 -0.725516 5.03601 0
M  V30 3210 H 303.977 -3.79385 4.19623 0
M  V30 3211 H 302.534 -4.07858 5.08424 0
M  V30 3212 N 305.967 -1.56429 0.191757 0
M  V30 3213 C 307.213 -1.97777 -0.448554 0
M  V30 3214 C 307.546 -1.07847 -1.61501 0
M  V30 3215 O 306.821 -0.129774 -1.94067 0
M  V30 3216 C 307.104 -3.48362 -0.911906 0
M  V30 3217 C 306.957 -4.4907 0.256136 0
M  V30 3218 C 308.276 -4.02561 -1.77857 0
M  V30 3219 H 305.395 -0.719071 -0.161572 0
M  V30 3220 H 308.037 -1.87896 0.282007 0
M  V30 3221 H 306.187 -3.56914 -1.53442 0
M  V30 3222 H 307.859 -4.5256 0.893733 0
M  V30 3223 H 306.102 -4.24181 0.908436 0
M  V30 3224 H 306.773 -5.51889 -0.11053 0
M  V30 3225 H 309.249 -3.96767 -1.25359 0
M  V30 3226 H 308.125 -5.08301 -2.07174 0
M  V30 3227 H 308.386 -3.47616 -2.73158 0
M  V30 3228 N 307.445 0.0818655 -1.57387 0
M  V30 3229 C 308.722 0.815343 -1.77796 0
M  V30 3230 C 309.102 1.96289 -0.77679 0
M  V30 3231 O 308.45 2.27691 0.192106 0
M  V30 3232 C 308.66 1.29765 -3.23978 0
M  V30 3233 C 310.008 1.7351 -3.8753 0
M  V30 3234 O 311.032 1.39356 -3.27808 0
M  V30 3235 O 309.891 2.36708 -4.92576 0
M  V30 3236 H 306.985 0.389914 -0.729312 0
M  V30 3237 H 309.531 0.0627213 -1.69584 0
M  V30 3238 H 308.303 0.47608 -3.88393 0
M  V30 3239 H 307.926 2.11189 -3.36875 0
M  V30 3240 N 308.923 1.53595 0.353017 0
M  V30 3241 C 310.334 1.61937 0.929153 0
M  V30 3242 C 310.685 0.494686 1.89861 0
M  V30 3243 O 309.81 -0.377017 2.1309 0
M  V30 3244 C 310.405 2.93526 1.69199 0
M  V30 3245 C 308.964 3.04161 2.21727 0
M  V30 3246 C 308.111 2.57322 1.03348 0
M  V30 3247 H 311.062 1.58155 0.131431 0
M  V30 3248 H 311.083 2.82034 2.55416 0
M  V30 3249 H 310.595 3.75362 0.986144 0
M  V30 3250 H 308.696 2.26938 2.95516 0
M  V30 3251 H 308.809 4.09465 2.48748 0
M  V30 3252 H 307.173 2.12499 1.40414 0
M  V30 3253 H 307.956 3.41588 0.342428 0
M  V30 3254 N 310.401 -0.613514 1.45168 0
M  V30 3255 C 311.817 -0.933629 1.29443 0
M  V30 3256 C 312.017 -2.00028 0.243101 0
M  V30 3257 O 311.073 -2.49848 -0.364992 0
M  V30 3258 C 312.386 -1.38018 2.67155 0
M  V30 3259 C 313.934 -1.49471 2.75004 0
M  V30 3260 C 314.409 -1.97503 4.13227 0
M  V30 3261 N 315.9 -2.04746 4.15491 0
M  V30 3262 C 316.635 -2.43121 5.19307 0
M  V30 3263 N 316.131 -2.80506 6.33473 0
M  V30 3264 N 317.924 -2.43408 5.06664 0
M  V30 3265 H 310.075 0.0916097 2.12202 0
M  V30 3266 H 312.338 -0.0216655 0.947752 0
M  V30 3267 H 312.044 -0.670625 3.45247 0
M  V30 3268 H 311.918 -2.34784 2.95222 0
M  V30 3269 H 314.305 -2.19519 1.9722 0
M  V30 3270 H 314.386 -0.510342 2.50657 0
M  V30 3271 H 314.03 -1.28045 4.91495 0
M  V30 3272 H 313.96 -2.96843 4.34962 0
M  V30 3273 H 316.451 -1.78468 3.33103 0
M  V30 3274 H 316.764 -3.08652 7.08487 0
M  V30 3275 H 315.109 -2.78216 6.36884 0
M  V30 3276 H 318.3 -2.13604 4.16523 0
M  V30 3277 H 318.473 -2.72989 5.87691 0
M  V30 3278 N 311.879 -1.3236 -0.855495 0
M  V30 3279 C 312.809 -1.23833 -1.97958 0
M  V30 3280 C 313.79 -0.122361 -1.69659 0
M  V30 3281 O 314.975 -0.30939 -1.9172 0
M  V30 3282 C 312.105 -0.959772 -3.33775 0
M  V30 3283 C 311.059 -2.03689 -3.76424 0
M  V30 3284 C 310.385 -1.61075 -5.09862 0
M  V30 3285 C 311.685 -3.4518 -3.9198 0
M  V30 3286 H 313.379 -2.1788 -2.0535 0
M  V30 3287 H 310.925 -1.04891 -0.986605 0
M  V30 3288 H 312.878 -0.886678 -4.11966 0
M  V30 3289 H 311.602 0.0163404 -3.26596 0
M  V30 3290 H 310.261 -2.10012 -3.00484 0
M  V30 3291 H 309.909 -0.622107 -4.99138 0
M  V30 3292 H 309.609 -2.33143 -5.39368 0
M  V30 3293 H 311.133 -1.55201 -5.90546 0
M  V30 3294 H 312.547 -3.4145 -4.60526 0
M  V30 3295 H 310.944 -4.1559 -4.32903 0
M  V30 3296 H 312.014 -3.84903 -2.94919 0
M  V30 3297 N 313.357 1.07166 -1.15556 0
M  V30 3298 C 314.606 1.79181 -0.926132 0
M  V30 3299 C 314.919 1.87768 0.547967 0
M  V30 3300 O 316.125 2.56323 0.895036 0
M  V30 3301 C 314.581 3.22 -1.60761 0
M  V30 3302 C 314.189 3.21607 -3.11886 0
M  V30 3303 C 315.933 3.9861 -1.4598 0
M  V30 3304 C 313.84 4.59092 -3.72812 0
M  V30 3305 H 312.77 0.67154 -0.342856 0
M  V30 3306 H 315.421 1.2027 -1.3859 0
M  V30 3307 H 313.803 3.81115 -1.07553 0
M  V30 3308 H 314.977 2.72127 -3.71865 0
M  V30 3309 H 313.292 2.58495 -3.2645 0
M  V30 3310 H 315.889 5.00225 -1.88888 0
M  V30 3311 H 316.232 4.143 -0.407541 0
M  V30 3312 H 316.765 3.45996 -1.96295 0
M  V30 3313 H 313.504 4.48606 -4.77946 0
M  V30 3314 H 313.024 5.08803 -3.17616 0
M  V30 3315 H 314.703 5.28059 -3.73848 0
M  V30 3316 N 314.835 0.952656 1.25548 0
M  V30 3317 C 316.112 0.523818 1.88456 0
M  V30 3318 C 316.492 -0.998871 1.85973 0
M  V30 3319 O 315.84 -1.86381 1.3219 0
M  V30 3320 C 316.05 1.0982 3.31271 0
M  V30 3321 C 317.398 1.17385 4.08051 0
M  V30 3322 O 318.422 1.04961 3.40384 0
M  V30 3323 O 317.281 1.36852 5.29088 0
M  V30 3324 H 314.375 0.172485 0.808813 0
M  V30 3325 H 316.921 1.04596 1.33633 0
M  V30 3326 H 315.693 2.1415 3.27499 0
M  V30 3327 H 315.316 0.559191 3.93648 0
M  V30 3328 N 316.313 -1.40141 0.720998 0
M  V30 3329 C 317.561 -2.0039 0.262323 0
M  V30 3330 C 317.882 -1.57469 -1.15015 0
M  V30 3331 O 317.152 -0.816582 -1.78069 0
M  V30 3332 H 315.732 -0.741063 0.093996 0
M  V30 3333 H 318.394 -1.71398 0.927835 0
M  V30 3334 H 317.49 -3.10658 0.299671 0
M  V30 3335 N 317.792 -0.46758 -1.50504 0
M  V30 3336 C 318.739 0.328413 -2.28452 0
M  V30 3337 C 319.709 0.990313 -1.33349 0
M  V30 3338 O 320.894 1.00343 -1.62284 0
M  V30 3339 C 318.034 1.40648 -3.15138 0
M  V30 3340 C 317.147 0.759709 -4.25267 0
M  V30 3341 C 316.282 1.81537 -4.99217 0
M  V30 3342 C 315.321 1.14866 -6.01226 0
M  V30 3343 N 314.458 2.14702 -6.68467 0
M  V30 3344 H 319.298 -0.342603 -2.96024 0
M  V30 3345 H 316.835 -0.180801 -1.45985 0
M  V30 3346 H 318.793 2.04315 -3.63746 0
M  V30 3347 H 317.423 2.04671 -2.49619 0
M  V30 3348 H 316.475 0.0105671 -3.80399 0
M  V30 3349 H 317.787 0.233243 -4.98254 0
M  V30 3350 H 316.941 2.52793 -5.51526 0
M  V30 3351 H 315.68 2.37564 -4.25928 0
M  V30 3352 H 314.685 0.42171 -5.4818 0
M  V30 3353 H 315.91 0.595334 -6.76485 0
M  V30 3354 H 313.856 2.69752 -5.97972 0
M  V30 3355 H 313.773 1.6703 -7.37317 0
M  V30 3356 H 315.041 2.85348 -7.25394 0
M  V30 3357 N 319.27 1.56325 -0.20005 0
M  V30 3358 C 320.203 2.15234 0.758267 0
M  V30 3359 C 321.181 1.09046 1.20614 0
M  V30 3360 O 322.365 1.37186 1.29276 0
M  V30 3361 C 319.492 2.71524 2.02466 0
M  V30 3362 C 318.538 3.90345 1.71852 0
M  V30 3363 S 319.371 5.28513 0.862249 0
M  V30 3364 C 320.527 5.88227 2.13868 0
M  V30 3365 H 320.76 2.96183 0.2575 0
M  V30 3366 H 318.293 1.54393 0.0150099 0
M  V30 3367 H 320.251 3.04598 2.75191 0
M  V30 3368 H 318.912 1.90607 2.49655 0
M  V30 3369 H 318.105 4.28158 2.65888 0
M  V30 3370 H 317.707 3.58306 1.07205 0
M  V30 3371 H 319.999 6.02891 3.09076 0
M  V30 3372 H 320.942 6.84714 1.80479 0
M  V30 3373 H 321.35 5.16874 2.2694 0
M  V30 3374 N 320.748 -0.0735177 1.57428 0
M  V30 3375 C 321.976 -0.785969 1.9139 0
M  V30 3376 C 322.391 -1.71207 0.795847 0
M  V30 3377 O 321.748 -1.81033 -0.230915 0
M  V30 3378 C 321.799 -1.58107 3.25091 0
M  V30 3379 O 321.52 -0.6922 4.32597 0
M  V30 3380 C 323.021 -2.39467 3.73055 0
M  V30 3381 H 320.241 -0.223558 0.632663 0
M  V30 3382 H 322.785 -0.044302 2.04452 0
M  V30 3383 H 320.94 -2.27503 3.13562 0
M  V30 3384 H 321.354 -1.24504 5.09508 0
M  V30 3385 H 322.828 -2.90716 4.69242 0
M  V30 3386 H 323.305 -3.18913 3.01979 0
M  V30 3387 H 323.911 -1.7523 3.87523 0
M  V30 3388 N 322.226 -1.5378 -0.344866 0
M  V30 3389 C 323.642 -1.44015 -0.687888 0
M  V30 3390 C 323.842 -0.595834 -1.92489 0
M  V30 3391 O 322.898 -0.0863064 -2.52352 0
M  V30 3392 C 324.211 -2.87481 -0.881758 0
M  V30 3393 C 325.759 -2.97247 -0.980459 0
M  V30 3394 C 326.234 -4.41819 -1.20665 0
M  V30 3395 N 327.725 -4.45339 -1.27389 0
M  V30 3396 C 328.46 -5.54333 -1.46639 0
M  V30 3397 N 327.956 -6.73335 -1.63071 0
M  V30 3398 N 329.749 -5.41944 -1.49176 0
M  V30 3399 H 321.9 -2.07169 0.468475 0
M  V30 3400 H 324.163 -0.93643 0.147655 0
M  V30 3401 H 323.869 -3.51672 -0.0443444 0
M  V30 3402 H 323.743 -3.32352 -1.78388 0
M  V30 3403 H 326.13 -2.33197 -1.8084 0
M  V30 3404 H 326.211 -2.5574 -0.0552713 0
M  V30 3405 H 325.855 -5.06449 -0.383652 0
M  V30 3406 H 325.785 -4.80917 -2.14539 0
M  V30 3407 H 328.276 -3.59585 -1.1622 0
M  V30 3408 H 328.589 -7.52165 -1.77391 0
M  V30 3409 H 326.934 -6.76282 -1.60209 0
M  V30 3410 H 330.125 -4.47932 -1.3592 0
M  V30 3411 H 330.298 -6.26946 -1.63837 0
M  V30 3412 N 323.704 0.605807 -1.45491 0
M  V30 3413 C 325.12 0.926751 -1.29936 0
M  V30 3414 C 325.32 1.99896 -0.253706 0
M  V30 3415 O 324.376 2.50038 0.351737 0
M  V30 3416 C 325.689 1.36599 -2.67883 0
M  V30 3417 C 327.237 1.4801 -2.75793 0
M  V30 3418 C 327.712 1.95309 -4.14268 0
M  V30 3419 N 329.203 2.0254 -4.16571 0
M  V30 3420 C 329.938 2.40363 -5.20589 0
M  V30 3421 N 329.434 2.77143 -6.34952 0
M  V30 3422 N 331.227 2.40718 -5.07948 0
M  V30 3423 H 323.378 -0.102862 -2.12151 0
M  V30 3424 H 325.641 0.016639 -0.947854 0
M  V30 3425 H 325.347 0.652306 -3.45598 0
M  V30 3426 H 325.221 2.33215 -2.96463 0
M  V30 3427 H 327.608 2.1847 -1.98381 0
M  V30 3428 H 327.689 0.497041 -2.50925 0
M  V30 3429 H 327.333 1.25436 -4.92167 0
M  V30 3430 H 327.263 2.94532 -4.3653 0
M  V30 3431 H 329.754 1.76699 -3.34045 0
M  V30 3432 H 330.067 3.0489 -7.10114 0
M  V30 3433 H 328.412 2.74834 -6.3835 0
M  V30 3434 H 331.603 2.11392 -4.1765 0
M  V30 3435 H 331.776 2.69869 -5.89131 0
M  V30 3436 N 325.182 1.32811 0.848464 0
M  V30 3437 C 326.43 1.23479 1.59991 0
M  V30 3438 C 326.751 -0.201853 1.93952 0
M  V30 3439 O 326.021 -1.12818 1.60153 0
M  V30 3440 H 324.601 0.454034 0.593179 0
M  V30 3441 H 327.263 1.66412 1.01455 0
M  V30 3442 H 326.359 1.82178 2.53412 0
M  V30 3443 N 326.66 -1.06551 1.16123 0
M  V30 3444 C 327.937 -1.76097 0.85142 0
M  V30 3445 C 328.317 -2.00802 -0.6513 0
M  V30 3446 O 327.665 -1.63302 -1.59827 0
M  V30 3447 C 327.875 -3.06384 1.67122 0
M  V30 3448 C 329.223 -3.80585 1.88255 0
M  V30 3449 O 330.247 -3.16218 1.63966 0
M  V30 3450 O 329.106 -4.96212 2.2899 0
M  V30 3451 H 326.2 -0.765102 0.313923 0
M  V30 3452 H 328.746 -1.12844 1.26745 0
M  V30 3453 H 327.518 -2.84071 2.69108 0
M  V30 3454 H 327.141 -3.77371 1.25206 0
M  V30 3455 N 328.138 -0.959301 -1.25041 0
M  V30 3456 C 329.363 -0.633507 -1.97488 0
M  V30 3457 C 329.788 0.788555 -1.70773 0
M  V30 3458 O 329.146 1.53394 -0.966431 0
M  V30 3459 C 329.194 -0.904057 -3.49083 0
M  V30 3460 O 328.298 0.0147939 -4.12397 0
M  V30 3461 H 327.639 -0.240368 -0.618966 0
M  V30 3462 H 330.169 -1.28717 -1.59038 0
M  V30 3463 H 330.179 -0.832203 -3.99423 0
M  V30 3464 H 328.854 -1.94048 -3.67856 0
M  V30 3465 H 327.431 -0.109664 -3.72739 0
M  V30 3466 N 329.616 1.39756 -0.72842 0
M  V30 3467 C 331.027 1.83498 -0.344289 0
M  V30 3468 C 331.378 1.60868 1.12321 0
M  V30 3469 O 330.503 1.09634 1.86573 0
M  V30 3470 C 331.098 3.33114 -0.618112 0
M  V30 3471 C 329.657 3.753 -0.287549 0
M  V30 3472 C 328.804 2.62831 -0.884048 0
M  V30 3473 H 331.755 1.28842 -0.926578 0
M  V30 3474 H 331.776 3.80334 0.112349 0
M  V30 3475 H 331.288 3.49553 -1.68625 0
M  V30 3476 H 329.389 3.64451 0.775012 0
M  V30 3477 H 329.502 4.72945 -0.765512 0
M  V30 3478 H 327.866 2.52792 -0.311149 0
M  V30 3479 H 328.649 2.82078 -1.95671 0
M  V30 3480 N 331.094 0.475555 1.50254 0
M  V30 3481 C 332.34 -0.0701075 2.03279 0
M  V30 3482 C 332.695 -1.37007 1.35081 0
M  V30 3483 O 331.988 -1.8577 0.469052 0
M  V30 3484 C 332.182 -0.305114 3.56095 0
M  V30 3485 C 332.011 0.970515 4.39103 0
M  V30 3486 C 330.781 1.51509 4.82051 0
M  V30 3487 C 332.979 1.8671 4.79212 0
M  V30 3488 N 330.961 2.73928 5.49397 0
M  V30 3489 C 332.332 2.93715 5.46014 0
M  V30 3490 C 334.387 1.87695 4.61167 0
M  V30 3491 C 333.09 4.01699 5.96683 0
M  V30 3492 C 335.116 2.94637 5.12779 0
M  V30 3493 C 334.478 4.00361 5.79561 0
M  V30 3494 H 330.577 0.014486 0.781866 0
M  V30 3495 H 333.161 0.644755 1.83714 0
M  V30 3496 H 331.332 -0.989019 3.75597 0
M  V30 3497 H 333.064 -0.845516 3.95769 0
M  V30 3498 H 329.819 1.06367 4.61501 0
M  V30 3499 H 330.243 3.36109 5.87673 0
M  V30 3500 H 334.885 1.07273 4.08965 0
M  V30 3501 H 332.603 4.82934 6.4792 0
M  V30 3502 H 336.189 2.96388 5.00645 0
M  V30 3503 H 335.069 4.81751 6.18778 0
M  V30 3504 N 332.573 -1.56217 0.208337 0
M  V30 3505 C 333.505 -2.1695 -0.739276 0
M  V30 3506 C 334.518 -1.13492 -1.1672 0
M  V30 3507 O 335.707 -1.40529 -1.10063 0
M  V30 3508 C 332.807 -2.72755 -2.01142 0
M  V30 3509 C 331.98 -4.0125 -1.74118 0
M  V30 3510 C 331.039 -4.41749 -2.85909 0
M  V30 3511 O 330.065 -5.08912 -2.54946 0
M  V30 3512 N 331.267 -4.06342 -4.14568 0
M  V30 3513 H 334.032 -2.98893 -0.219837 0
M  V30 3514 H 331.593 -1.61878 0.0268445 0
M  V30 3515 H 333.585 -2.96826 -2.75094 0
M  V30 3516 H 332.155 -1.95191 -2.4417 0
M  V30 3517 H 331.375 -3.85173 -0.838775 0
M  V30 3518 H 332.663 -4.851 -1.53477 0
M  V30 3519 H 332.061 -3.52345 -4.42571 0
M  V30 3520 H 330.618 -4.35335 -4.85105 0
M  V30 3521 N 334.051 0.0651679 -1.57465 0
M  V30 3522 C 335.297 0.764193 -1.87851 0
M  V30 3523 C 335.63 1.76889 -0.801495 0
M  V30 3524 O 334.905 1.93594 0.187528 0
M  V30 3525 C 335.188 1.46625 -3.28897 0
M  V30 3526 C 335.041 0.477515 -4.47258 0
M  V30 3527 C 336.36 2.4095 -3.68281 0
M  V30 3528 H 333.479 0.276351 -0.683227 0
M  V30 3529 H 336.121 0.0272868 -1.8998 0
M  V30 3530 H 334.271 2.09438 -3.27212 0
M  V30 3531 H 335.943 -0.145922 -4.61069 0
M  V30 3532 H 334.186 -0.206576 -4.33308 0
M  V30 3533 H 334.857 1.0065 -5.42746 0
M  V30 3534 H 337.333 1.88209 -3.71102 0
M  V30 3535 H 336.209 2.87072 -4.67847 0
M  V30 3536 H 336.47 3.26049 -2.98571 0
M  V30 3537 N 335.529 1.53961 0.336706 0
M  V30 3538 C 336.775 1.7179 1.07777 0
M  V30 3539 C 337.108 0.483263 1.88091 0
M  V30 3540 O 336.383 -0.519747 1.87427 0
M  V30 3541 C 336.666 2.98558 2.01334 0
M  V30 3542 C 336.519 4.32245 1.24437 0
M  V30 3543 C 337.838 3.21023 3.01052 0
M  V30 3544 H 334.957 0.625089 0.390426 0
M  V30 3545 H 337.599 1.86641 0.35567 0
M  V30 3546 H 335.749 2.86028 2.62908 0
M  V30 3547 H 337.421 4.56637 0.654243 0
M  V30 3548 H 335.664 4.30344 0.546458 0
M  V30 3549 H 336.335 5.17137 1.93063 0
M  V30 3550 H 338.811 3.32929 2.49595 0
M  V30 3551 H 337.687 4.11104 3.6371 0
M  V30 3552 H 337.948 2.37637 3.72802 0
M  V30 3553 N 337.007 -0.598083 1.45811 0
M  V30 3554 C 337.937 -1.71873 1.58057 0
M  V30 3555 C 338.918 -1.64533 0.431615 0
M  V30 3556 O 340.103 -1.82787 0.65595 0
M  V30 3557 C 337.233 -3.10495 1.55597 0
M  V30 3558 C 336.187 -3.32654 2.69305 0
M  V30 3559 C 335.513 -4.71646 2.51902 0
M  V30 3560 C 336.813 -3.21981 4.11248 0
M  V30 3561 H 338.507 -1.61881 2.51863 0
M  V30 3562 H 336.053 -0.777372 1.21214 0
M  V30 3563 H 338.006 -3.88699 1.6276 0
M  V30 3564 H 336.73 -3.2135 0.583255 0
M  V30 3565 H 335.389 -2.56843 2.61586 0
M  V30 3566 H 335.037 -4.79246 1.52748 0
M  V30 3567 H 334.737 -4.87426 3.2816 0
M  V30 3568 H 336.261 -5.52038 2.60933 0
M  V30 3569 H 337.675 -3.90049 4.20161 0
M  V30 3570 H 336.072 -3.49289 4.87972 0
M  V30 3571 H 337.142 -2.1928 4.32486 0
M  V30 3572 N 338.485 -1.33259 -0.841409 0
M  V30 3573 C 339.415 -1.25926 -1.96634 0
M  V30 3574 C 340.396 -0.140349 -1.6952 0
M  V30 3575 O 341.581 -0.329707 -1.91381 0
M  V30 3576 C 338.711 -0.99512 -3.32738 0
M  V30 3577 C 337.665 -2.0767 -3.74242 0
M  V30 3578 C 336.991 -1.66474 -5.08125 0
M  V30 3579 C 338.291 -3.49318 -3.88297 0
M  V30 3580 H 339.985 -2.20046 -2.03027 0
M  V30 3581 H 337.531 -1.05931 -0.975425 0
M  V30 3582 H 339.484 -0.930323 -4.11002 0
M  V30 3583 H 338.208 -0.0183004 -3.26595 0
M  V30 3584 H 336.867 -2.13187 -2.98239 0
M  V30 3585 H 336.515 -0.675012 -4.9845 0
M  V30 3586 H 336.215 -2.3885 -5.36865 0
M  V30 3587 H 337.739 -1.61455 -5.88867 0
M  V30 3588 H 339.153 -3.46316 -4.56879 0
M  V30 3589 H 337.55 -4.20158 -4.28471 0
M  V30 3590 H 338.62 -3.8801 -2.9082 0
M  V30 3591 N 339.963 1.05934 -1.16686 0
M  V30 3592 C 341.24 1.75643 -0.860747 0
M  V30 3593 C 341.62 2.01144 0.640641 0
M  V30 3594 O 340.968 1.64147 1.58959 0
M  V30 3595 C 341.178 3.05493 -1.68745 0
M  V30 3596 C 342.526 3.79581 -1.90271 0
M  V30 3597 O 343.55 3.15344 -1.65641 0
M  V30 3598 O 342.409 4.9499 -2.31618 0
M  V30 3599 H 339.503 0.763426 -0.317977 0
M  V30 3600 H 342.049 1.1217 -1.27342 0
M  V30 3601 H 340.821 2.8264 -2.70611 0
M  V30 3602 H 340.444 3.76702 -1.27206 0
M  V30 3603 N 341.441 0.965919 1.2453 0
M  V30 3604 C 342.666 0.643971 1.97149 0
M  V30 3605 C 343.091 -0.779487 1.71189 0
M  V30 3606 O 342.449 -1.5288 0.974553 0
M  V30 3607 C 342.497 0.922557 3.48599 0
M  V30 3608 O 341.601 0.00707672 4.12399 0
M  V30 3609 H 340.942 0.243647 0.617683 0
M  V30 3610 H 343.472 1.29558 1.58353 0
M  V30 3611 H 343.482 0.853373 3.98976 0
M  V30 3612 H 342.157 1.95996 3.66822 0
M  V30 3613 H 340.734 0.12943 3.72675 0
M  V30 3614 N 342.919 -1.39368 0.735821 0
M  V30 3615 C 343.866 -2.30599 0.0963825 0
M  V30 3616 C 344.836 -1.49257 -0.728794 0
M  V30 3617 O 346.021 -1.77941 -0.688588 0
M  V30 3618 C 343.161 -3.35596 -0.804305 0
M  V30 3619 C 342.274 -4.31987 0.0335761 0
M  V30 3620 C 341.409 -5.24053 -0.868461 0
M  V30 3621 C 340.448 -6.12095 -0.0258776 0
M  V30 3622 N 339.585 -6.96514 -0.883893 0
M  V30 3623 H 344.425 -2.8471 0.880002 0
M  V30 3624 H 341.962 -1.40188 0.445619 0
M  V30 3625 H 343.92 -3.95062 -1.34096 0
M  V30 3626 H 342.55 -2.82938 -1.55389 0
M  V30 3627 H 341.602 -3.74133 0.68766 0
M  V30 3628 H 342.914 -4.94074 0.685036 0
M  V30 3629 H 342.068 -5.88549 -1.47293 0
M  V30 3630 H 340.807 -4.62289 -1.5537 0
M  V30 3631 H 339.812 -5.4661 0.591386 0
M  V30 3632 H 341.037 -6.75923 0.656156 0
M  V30 3633 H 338.983 -6.37318 -1.55441 0
M  V30 3634 H 338.9 -7.55448 -0.288931 0
M  V30 3635 H 340.168 -7.65439 -1.4739 0
M  V30 3636 N 344.397 -0.483516 -1.5 0
M  V30 3637 C 345.344 0.304164 -2.28787 0
M  V30 3638 C 346.314 0.976114 -1.34392 0
M  V30 3639 O 347.499 0.986156 -1.63339 0
M  V30 3640 C 344.639 1.37298 -3.16612 0
M  V30 3641 C 343.752 0.714561 -4.26049 0
M  V30 3642 C 342.887 1.76232 -5.01114 0
M  V30 3643 C 341.926 1.08483 -6.0241 0
M  V30 3644 N 341.063 2.076 -6.70706 0
M  V30 3645 H 345.903 -0.373981 -2.95644 0
M  V30 3646 H 343.44 -0.196275 -1.45785 0
M  V30 3647 H 345.398 2.00445 -3.65893 0
M  V30 3648 H 344.028 2.02012 -2.51776 0
M  V30 3649 H 343.08 -0.0297798 -3.80388 0
M  V30 3650 H 344.392 0.180383 -4.98474 0
M  V30 3651 H 343.546 2.46929 -5.54176 0
M  V30 3652 H 342.285 2.33033 -4.28424 0
M  V30 3653 H 341.29 0.363545 -5.48597 0
M  V30 3654 H 342.515 0.523551 -6.77079 0
M  V30 3655 H 340.461 2.63394 -6.00799 0
M  V30 3656 H 340.378 1.59201 -7.39047 0
M  V30 3657 H 341.646 2.77639 -7.2838 0
M  V30 3658 N 345.875 1.56104 -0.216619 0
M  V30 3659 C 346.822 2.2007 0.695531 0
M  V30 3660 C 347.792 1.15471 1.19397 0
M  V30 3661 O 348.977 1.43807 1.25396 0
M  V30 3662 C 346.117 2.88073 1.90021 0
M  V30 3663 C 345.23 4.07253 1.44113 0
M  V30 3664 C 344.365 4.63052 2.603 0
M  V30 3665 C 343.404 5.74545 2.11103 0
M  V30 3666 N 342.541 6.24656 3.20545 0
M  V30 3667 H 347.381 2.97655 0.143327 0
M  V30 3668 H 344.918 1.46982 0.0589934 0
M  V30 3669 H 346.876 3.25681 2.60745 0
M  V30 3670 H 345.506 2.13015 2.42538 0
M  V30 3671 H 344.558 3.75164 0.628999 0
M  V30 3672 H 345.87 4.8783 1.04036 0
M  V30 3673 H 345.024 5.03078 3.39113 0
M  V30 3674 H 343.763 3.81628 3.03663 0
M  V30 3675 H 342.768 5.34027 1.3075 0
M  V30 3676 H 343.993 6.57801 1.68746 0
M  V30 3677 H 341.939 5.46148 3.63399 0
M  V30 3678 H 341.856 7.00343 2.84704 0
M  V30 3679 H 343.124 6.69338 3.99508 0
M  V30 3680 N 347.353 -0.0568162 1.57498 0
M  V30 3681 C 348.283 -1.06593 2.0775 0
M  V30 3682 C 349.264 -1.39448 0.974082 0
M  V30 3683 O 350.449 -1.48815 1.24771 0
M  V30 3684 C 347.579 -2.37509 2.5339 0
M  V30 3685 C 346.533 -2.1897 3.67745 0
M  V30 3686 C 345.859 -3.55402 3.99492 0
M  V30 3687 C 347.159 -1.59859 4.97235 0
M  V30 3688 H 348.853 -0.647706 2.9231 0
M  V30 3689 H 346.399 -0.310116 1.40621 0
M  V30 3690 H 348.352 -3.08409 2.87162 0
M  V30 3691 H 347.076 -2.8134 1.65878 0
M  V30 3692 H 345.735 -1.50508 3.3428 0
M  V30 3693 H 345.383 -3.9683 3.09088 0
M  V30 3694 H 345.083 -3.43831 4.76502 0
M  V30 3695 H 346.607 -4.27708 4.35773 0
M  V30 3696 H 348.021 -2.20642 5.29141 0
M  V30 3697 H 346.418 -1.58942 5.78669 0
M  V30 3698 H 347.488 -0.561506 4.81638 0
M  V30 3699 N 348.832 -1.54138 -0.328536 0
M  V30 3700 C 349.795 -1.82462 -1.38709 0
M  V30 3701 C 350.795 -0.696229 -1.44946 0
M  V30 3702 O 351.985 -0.964535 -1.4506 0
M  V30 3703 C 349.117 -1.98018 -2.77492 0
M  V30 3704 H 350.31 -2.77037 -1.14851 0
M  V30 3705 H 347.863 -1.45779 -0.563751 0
M  V30 3706 H 348.598 -1.05637 -3.06613 0
M  V30 3707 H 348.383 -2.80124 -2.74359 0
M  V30 3708 H 349.873 -2.21396 -3.54081 0
M  V30 3709 N 350.31 0.590341 -1.46126 0
M  V30 3710 C 351.55 1.35995 -1.52593 0
M  V30 3711 C 351.914 1.91243 -0.170368 0
M  V30 3712 O 353.115 2.68576 -0.109775 0
M  V30 3713 C 351.386 2.46465 -2.58823 0
M  V30 3714 S 352.945 3.33953 -2.84641 0
M  V30 3715 H 349.763 0.463425 -0.53922 0
M  V30 3716 H 352.365 0.67944 -1.83314 0
M  V30 3717 H 351.069 2.04256 -3.5596 0
M  V30 3718 H 350.6 3.19297 -2.2981 0
M  V30 3719 H 352.615 4.45094 -2.19331 0
M  V30 3720 N 351.788 1.33704 0.83433 0
M  V30 3721 C 353.036 1.25169 1.58673 0
M  V30 3722 C 353.357 -0.18127 1.94156 0
M  V30 3723 O 352.627 -1.11113 1.6134 0
M  V30 3724 H 351.207 0.4603 0.58833 0
M  V30 3725 H 353.869 1.67478 0.996847 0
M  V30 3726 H 352.965 1.84856 2.51465 0
M  V30 3727 N 353.266 -1.05314 1.17247 0
M  V30 3728 C 354.229 -2.112 0.890357 0
M  V30 3729 C 355.229 -1.60359 -0.118943 0
M  V30 3730 O 356.419 -1.73833 0.113086 0
M  V30 3731 C 353.551 -3.39266 0.333422 0
M  V30 3732 H 354.744 -2.37659 1.82916 0
M  V30 3733 H 352.297 -1.21538 0.982758 0
M  V30 3734 H 353.032 -3.18462 -0.612587 0
M  V30 3735 H 352.817 -3.77477 1.06082 0
M  V30 3736 H 354.307 -4.17315 0.154322 0
M  V30 3737 N 354.744 -0.972509 -1.24016 0
M  V30 3738 C 355.99 -0.637978 -1.92504 0
M  V30 3739 C 356.323 0.825383 -1.75787 0
M  V30 3740 O 355.598 1.59442 -1.11393 0
M  V30 3741 C 355.881 -1.01942 -3.45369 0
M  V30 3742 C 355.734 -2.53983 -3.71231 0
M  V30 3743 C 357.053 -0.55751 -4.36555 0
M  V30 3744 H 354.172 -0.233248 -0.699117 0
M  V30 3745 H 356.814 -1.21238 -1.46292 0
M  V30 3746 H 354.964 -0.530656 -3.84859 0
M  V30 3747 H 356.636 -3.10374 -3.41271 0
M  V30 3748 H 354.879 -2.96968 -3.16216 0
M  V30 3749 H 355.55 -2.75723 -4.78206 0
M  V30 3750 H 358.026 -0.977029 -4.04467 0
M  V30 3751 H 356.902 -0.85292 -5.42233 0
M  V30 3752 H 357.163 0.542328 -4.38761 0
M  V30 3753 N 356.222 1.38976 -0.743202 0
M  V30 3754 C 357.152 2.33171 -0.123873 0
M  V30 3755 C 358.133 1.54336 0.71516 0
M  V30 3756 O 359.318 1.82696 0.658467 0
M  V30 3757 C 356.448 3.38474 0.777978 0
M  V30 3758 C 355.402 4.27979 0.0424758 0
M  V30 3759 C 354.728 5.2405 1.06189 0
M  V30 3760 C 356.028 5.10155 -1.1198 0
M  V30 3761 H 357.722 2.85213 -0.910709 0
M  V30 3762 H 355.268 1.37133 -0.439388 0
M  V30 3763 H 357.221 4.03328 1.22084 0
M  V30 3764 H 355.945 2.84891 1.59702 0
M  V30 3765 H 354.604 3.64616 -0.380853 0
M  V30 3766 H 354.252 4.66758 1.87472 0
M  V30 3767 H 353.952 5.84785 0.574485 0
M  V30 3768 H 355.476 5.9178 1.50428 0
M  V30 3769 H 356.89 5.68307 -0.75499 0
M  V30 3770 H 355.287 5.80073 -1.53738 0
M  V30 3771 H 356.357 4.44504 -1.93764 0
M  V30 3772 N 357.7 0.491464 1.49741 0
M  V30 3773 C 358.949 -0.0582189 2.01616 0
M  V30 3774 C 359.262 -1.38927 1.3769 0
M  V30 3775 O 360.468 -2.02509 1.80838 0
M  V30 3776 C 358.924 -0.154235 3.59569 0
M  V30 3777 C 358.532 1.1696 4.32463 0
M  V30 3778 C 360.276 -0.65479 4.1942 0
M  V30 3779 C 358.183 1.03627 5.8225 0
M  V30 3780 H 357.113 -0.0255317 0.753568 0
M  V30 3781 H 359.764 0.629445 1.72367 0
M  V30 3782 H 358.146 -0.906138 3.85493 0
M  V30 3783 H 359.32 1.93405 4.18248 0
M  V30 3784 H 357.635 1.60285 3.84315 0
M  V30 3785 H 360.232 -0.771903 5.29099 0
M  V30 3786 H 360.575 -1.65127 3.8215 0
M  V30 3787 H 361.108 0.040304 3.9778 0
M  V30 3788 H 357.847 2.00672 6.24028 0
M  V30 3789 H 357.367 0.312546 5.98985 0
M  V30 3790 H 359.046 0.711114 6.4308 0
M  V30 3791 N 359.178 -1.55987 0.224894 0
M  V30 3792 C 360.128 -2.17076 -0.697296 0
M  V30 3793 C 361.112 -1.12006 -1.15514 0
M  V30 3794 O 362.304 -1.37985 -1.10857 0
M  V30 3795 C 359.433 -2.85679 -1.90374 0
M  V30 3796 C 358.519 -3.97977 -1.46543 0
M  V30 3797 N 358.91 -5.00359 -0.739909 0
M  V30 3798 C 357.208 -4.10128 -1.75245 0
M  V30 3799 C 357.909 -5.79407 -0.515939 0
M  V30 3800 N 356.885 -5.32892 -1.07364 0
M  V30 3801 H 360.687 -2.93592 -0.134594 0
M  V30 3802 H 358.201 -1.62379 0.0262885 0
M  V30 3803 H 360.198 -3.27857 -2.57518 0
M  V30 3804 H 358.858 -2.1066 -2.47088 0
M  V30 3805 H 359.869 -5.16412 -0.392253 0
M  V30 3806 H 356.546 -3.46263 -2.33255 0
M  V30 3807 H 357.936 -6.71872 0.0617349 0
M  V30 3808 N 360.656 0.0484629 -1.57525 0
M  V30 3809 C 362.067 0.597486 -1.76881 0
M  V30 3810 C 362.418 1.76664 -0.853475 0
M  V30 3811 O 361.543 2.16357 -0.0433656 0
M  V30 3812 C 362.138 1.09066 -3.20765 0
M  V30 3813 C 360.697 1.58535 -3.41385 0
M  V30 3814 C 359.844 0.514868 -2.72478 0
M  V30 3815 H 362.795 -0.177758 -1.57701 0
M  V30 3816 H 362.816 1.95875 -3.2621 0
M  V30 3817 H 362.328 0.239521 -3.8736 0
M  V30 3818 H 360.429 2.45898 -2.79937 0
M  V30 3819 H 360.542 1.64622 -4.49929 0
M  V30 3820 H 358.906 0.965407 -2.35695 0
M  V30 3821 H 359.689 -0.32648 -3.41744 0
M  V30 3822 N 362.134 1.5431 0.320358 0
M  V30 3823 C 363.359 1.76954 1.08175 0
M  V30 3824 C 363.784 0.518193 1.80821 0
M  V30 3825 O 363.142 -0.530411 1.73368 0
M  V30 3826 C 363.19 2.96451 2.05303 0
M  V30 3827 O 362.294 2.68221 3.13259 0
M  V30 3828 H 361.635 0.586275 0.311733 0
M  V30 3829 H 364.165 2.01342 0.363676 0
M  V30 3830 H 364.175 3.23887 2.48116 0
M  V30 3831 H 362.85 3.87196 1.51829 0
M  V30 3832 H 361.427 2.51744 2.75099 0
M  V30 3833 N 363.613 -0.582584 1.46437 0
M  V30 3834 C 364.859 -1.34064 1.52965 0
M  V30 3835 C 365.214 -1.91566 0.178968 0
M  V30 3836 O 364.507 -1.73526 -0.812365 0
M  V30 3837 C 364.701 -2.48964 2.56421 0
M  V30 3838 C 364.53 -2.02717 4.01417 0
M  V30 3839 C 363.3 -1.87728 4.69134 0
M  V30 3840 C 365.498 -1.58675 4.8921 0
M  V30 3841 N 363.48 -1.35554 5.98747 0
M  V30 3842 C 364.851 -1.18093 6.08649 0
M  V30 3843 C 366.906 -1.46494 4.75861 0
M  V30 3844 C 365.609 -0.665427 7.16215 0
M  V30 3845 C 367.635 -0.96347 5.83499 0
M  V30 3846 C 366.997 -0.567432 7.02111 0
M  V30 3847 H 363.096 -0.483551 0.614575 0
M  V30 3848 H 365.68 -0.663309 1.83053 0
M  V30 3849 H 363.851 -3.1426 2.28244 0
M  V30 3850 H 365.583 -3.15913 2.52944 0
M  V30 3851 H 362.338 -2.09678 4.24655 0
M  V30 3852 H 362.762 -1.11628 6.67734 0
M  V30 3853 H 367.404 -1.75731 3.8455 0
M  V30 3854 H 365.122 -0.360639 8.07295 0
M  V30 3855 H 368.708 -0.873129 5.75211 0
M  V30 3856 H 367.588 -0.185389 7.83981 0
M  V30 3857 N 365.091 -1.34144 -0.827227 0
M  V30 3858 C 366.337 -1.26446 -1.58554 0
M  V30 3859 C 366.67 0.1664 -1.93486 0
M  V30 3860 O 365.945 1.1107 -1.59667 0
M  V30 3861 C 366.228 -2.15111 -2.8879 0
M  V30 3862 C 366.081 -3.66712 -2.60465 0
M  V30 3863 C 367.4 -2.03311 -3.90324 0
M  V30 3864 H 364.519 -0.46067 -0.575284 0
M  V30 3865 H 367.161 -1.64356 -0.953269 0
M  V30 3866 H 365.311 -1.8291 -3.42748 0
M  V30 3867 H 366.983 -4.09259 -2.1285 0
M  V30 3868 H 365.226 -3.88014 -1.93978 0
M  V30 3869 H 365.897 -4.24112 -3.53317 0
M  V30 3870 H 368.373 -2.31574 -3.45706 0
M  V30 3871 H 367.249 -2.67582 -4.79261 0
M  V30 3872 H 367.51 -1.00879 -4.30437 0
M  V30 3873 N 366.569 1.04691 -1.17803 0
M  V30 3874 C 367.499 2.14494 -0.92275 0
M  V30 3875 C 368.48 1.69546 0.137179 0
M  V30 3876 O 369.665 1.94195 -0.0141108 0
M  V30 3877 C 366.795 3.44491 -0.440803 0
M  V30 3878 C 365.749 4.03031 -1.4405 0
M  V30 3879 C 365.075 5.28432 -0.81631 0
M  V30 3880 C 366.375 4.39932 -2.81527 0
M  V30 3881 H 368.069 2.36107 -1.84103 0
M  V30 3882 H 365.615 1.1347 -0.886599 0
M  V30 3883 H 367.568 4.2066 -0.249602 0
M  V30 3884 H 366.292 3.22546 0.513025 0
M  V30 3885 H 364.951 3.28937 -1.61853 0
M  V30 3886 H 364.599 5.02792 0.144511 0
M  V30 3887 H 364.299 5.68559 -1.48371 0
M  V30 3888 H 365.823 6.07284 -0.635496 0
M  V30 3889 H 367.237 5.07113 -2.67412 0
M  V30 3890 H 365.634 4.9109 -3.44892 0
M  V30 3891 H 366.704 3.50045 -3.35554 0
M  V30 3892 N 368.047 0.979072 1.23499 0
M  V30 3893 C 369.275 0.665202 1.95915 0
M  V30 3894 C 369.69 -0.767571 1.72493 0
M  V30 3895 O 369.047 -1.51635 1.01554 0
M  V30 3896 C 369.098 0.944438 3.48945 0
M  V30 3897 O 368.819 2.3209 3.71572 0
M  V30 3898 C 370.32 0.646336 4.38563 0
M  V30 3899 H 367.54 0.247218 0.623798 0
M  V30 3900 H 370.084 1.31009 1.57025 0
M  V30 3901 H 368.239 0.345575 3.85856 0
M  V30 3902 H 368.653 2.40957 4.65876 0
M  V30 3903 H 370.127 0.892091 5.44744 0
M  V30 3904 H 370.604 -0.419575 4.37191 0
M  V30 3905 H 371.21 1.22562 4.07258 0
M  V30 3906 N 369.525 -1.3858 0.750561 0
M  V30 3907 C 370.488 -2.28836 0.129152 0
M  V30 3908 C 371.488 -1.47045 -0.650714 0
M  V30 3909 O 372.678 -1.6753 -0.477428 0
M  V30 3910 C 369.81 -3.30751 -0.825622 0
M  V30 3911 H 371.003 -2.85294 0.924516 0
M  V30 3912 H 368.556 -1.47489 0.517376 0
M  V30 3913 H 369.291 -2.79378 -1.64677 0
M  V30 3914 H 369.076 -3.91177 -0.268852 0
M  V30 3915 H 370.566 -3.98249 -1.2565 0
M  V30 3916 N 371.003 -0.499398 -1.49478 0
M  V30 3917 C 371.966 0.268838 -2.27618 0
M  V30 3918 C 372.966 0.895383 -1.33565 0
M  V30 3919 O 374.156 0.760164 -1.56739 0
M  V30 3920 C 371.288 1.38559 -3.11471 0
M  V30 3921 H 372.481 -0.416812 -2.96989 0
M  V30 3922 H 370.034 -0.254313 -1.54217 0
M  V30 3923 H 370.769 2.10544 -2.46661 0
M  V30 3924 H 370.554 0.941797 -3.80621 0
M  V30 3925 H 372.044 1.92678 -3.70493 0
M  V30 3926 N 372.481 1.55866 -0.233164 0
M  V30 3927 C 373.431 2.17442 0.685774 0
M  V30 3928 C 374.415 1.12617 1.14918 0
M  V30 3929 O 375.607 1.3857 1.10124 0
M  V30 3930 C 372.736 2.86685 1.88856 0
M  V30 3931 C 371.822 3.98749 1.4443 0
M  V30 3932 N 372.213 5.00744 0.713364 0
M  V30 3933 C 370.511 4.11052 1.73068 0
M  V30 3934 C 371.212 5.79673 0.485205 0
M  V30 3935 N 370.188 5.33454 1.04536 0
M  V30 3936 H 373.99 2.93659 0.119022 0
M  V30 3937 H 371.504 1.62362 -0.0348995 0
M  V30 3938 H 373.501 3.29218 2.55776 0
M  V30 3939 H 372.161 2.11967 2.45967 0
M  V30 3940 H 373.172 5.16613 0.364861 0
M  V30 3941 H 369.849 3.47495 2.31416 0
M  V30 3942 H 371.239 6.71829 -0.097365 0
M  V30 3943 N 373.959 -0.0401083 1.57549 0
M  V30 3944 C 375.199 -0.738098 1.90608 0
M  V30 3945 C 375.563 -1.73107 0.830539 0
M  V30 3946 O 376.764 -2.4765 1.04513 0
M  V30 3947 C 375.035 -1.39985 3.28845 0
M  V30 3948 S 376.594 -2.12852 3.83718 0
M  V30 3949 H 373.412 -0.24477 0.667539 0
M  V30 3950 H 376.014 0.00693599 1.95499 0
M  V30 3951 H 374.718 -0.663775 4.04997 0
M  V30 3952 H 374.249 -2.18366 3.2723 0
M  V30 3953 H 376.264 -3.39842 3.61555 0
M  V30 3954 N 375.437 -1.54477 -0.31217 0
M  V30 3955 C 376.37 -1.79519 -1.40884 0
M  V30 3956 C 377.348 -0.645753 -1.49227 0
M  V30 3957 O 378.532 -0.884468 -1.66461 0
M  V30 3958 C 375.659 -1.92194 -2.78889 0
M  V30 3959 C 374.705 -3.14555 -2.88023 0
M  V30 3960 S 375.538 -4.72893 -2.51262 0
M  V30 3961 C 376.694 -4.8849 -3.91317 0
M  V30 3962 H 376.927 -2.72256 -1.19432 0
M  V30 3963 H 374.46 -1.45746 -0.509654 0
M  V30 3964 H 376.418 -2.00182 -3.58382 0
M  V30 3965 H 375.079 -1.00414 -2.97617 0
M  V30 3966 H 374.272 -3.20193 -3.89221 0
M  V30 3967 H 373.874 -3.04955 -2.16514 0
M  V30 3968 H 376.166 -4.71826 -4.86196 0
M  V30 3969 H 377.109 -5.90588 -3.90656 0
M  V30 3970 H 377.517 -4.16715 -3.80801 0
M  V30 3971 N 376.915 0.57481 -1.46744 0
M  V30 3972 C 378.192 1.3352 -1.4294 0
M  V30 3973 C 378.572 2.10775 -0.117009 0
M  V30 3974 O 377.92 2.09966 0.901474 0
M  V30 3975 C 378.13 2.25456 -2.66403 0
M  V30 3976 C 379.478 2.87035 -3.12883 0
M  V30 3977 O 380.502 2.35766 -2.67007 0
M  V30 3978 O 379.361 3.80179 -3.92589 0
M  V30 3979 H 376.455 0.600318 -0.568812 0
M  V30 3980 H 379.001 0.595171 -1.58921 0
M  V30 3981 H 377.773 1.67851 -3.53471 0
M  V30 3982 H 377.396 3.06785 -2.52921 0
M  V30 3983 N 378.394 1.34581 0.820102 0
M  V30 3984 C 379.304 1.28471 1.96297 0
M  V30 3985 C 380.32 0.191902 1.72939 0
M  V30 3986 O 381.496 0.418879 1.96996 0
M  V30 3987 C 378.561 1.04281 3.30645 0
M  V30 3988 C 377.622 2.22745 3.66992 0
M  V30 3989 C 376.855 1.997 4.9493 0
M  V30 3990 O 377.078 0.956656 5.6232 0
M  V30 3991 O 376.012 2.86723 5.2922 0
M  V30 3992 H 379.838 2.24624 2.04396 0
M  V30 3993 H 377.423 1.14816 0.955913 0
M  V30 3994 H 379.305 0.925841 4.11104 0
M  V30 3995 H 377.98 0.111697 3.23507 0
M  V30 3996 H 376.887 2.40003 2.86966 0
M  V30 3997 H 378.22 3.14257 3.78819 0
M  V30 3998 N 379.872 -1.04064 1.18357 0
M  V30 3999 C 381.097 -1.81454 1.00445 0
M  V30 4000 C 381.522 -1.82823 -0.442423 0
M  V30 4001 O 380.88 -1.24555 -1.31741 0
M  V30 4002 C 380.928 -3.24925 1.56384 0
M  V30 4003 O 380.032 -4.04856 0.785209 0
M  V30 4004 H 379.373 -0.560604 0.355835 0
M  V30 4005 H 381.903 -1.31059 1.57114 0
M  V30 4006 H 381.913 -3.75702 1.59097 0
M  V30 4007 H 380.588 -3.23244 2.61699 0
M  V30 4008 H 379.165 -3.63537 0.830399 0
M  V30 4009 N 381.35 -0.985608 -1.22978 0
M  V30 4010 C 382.297 -0.529825 -2.24636 0
M  V30 4011 C 383.267 0.434028 -1.60329 0
M  V30 4012 O 384.452 0.340414 -1.87739 0
M  V30 4013 C 381.592 0.156533 -3.44745 0
M  V30 4014 C 380.705 -0.848197 -4.23591 0
M  V30 4015 C 379.84 -0.136109 -5.31026 0
M  V30 4016 C 378.879 -1.1297 -6.01585 0
M  V30 4017 N 378.016 -0.446415 -7.00679 0
M  V30 4018 H 382.856 -1.40148 -2.62988 0
M  V30 4019 H 380.393 -0.702168 -1.29259 0
M  V30 4020 H 382.351 0.571324 -4.1327 0
M  V30 4021 H 380.981 0.992025 -3.07179 0
M  V30 4022 H 380.033 -1.38135 -3.54433 0
M  V30 4023 H 381.345 -1.60512 -4.72268 0
M  V30 4024 H 380.499 0.335784 -6.0577 0
M  V30 4025 H 379.238 0.653373 -4.83304 0
M  V30 4026 H 378.243 -1.6123 -5.25628 0
M  V30 4027 H 379.468 -1.91993 -6.51395 0
M  V30 4028 H 377.414 0.323763 -6.55201 0
M  V30 4029 H 377.331 -1.1419 -7.47326 0
M  V30 4030 H 378.599 0.00291697 -7.795 0
M  V30 4031 N 382.828 1.3818 -0.7579 0
M  V30 4032 C 383.775 2.30416 -0.133057 0
M  V30 4033 C 384.745 1.50398 0.704957 0
M  V30 4034 O 385.93 1.79014 0.660192 0
M  V30 4035 C 383.07 3.36834 0.750813 0
M  V30 4036 C 382.183 4.31879 -0.102297 0
M  V30 4037 C 381.318 5.25368 0.784979 0
M  V30 4038 C 380.357 6.12058 -0.0715046 0
M  V30 4039 N 379.494 6.97832 0.772972 0
M  V30 4040 H 384.334 2.83274 -0.925186 0
M  V30 4041 H 381.871 1.39461 -0.467866 0
M  V30 4042 H 383.829 3.97145 1.27794 0
M  V30 4043 H 382.459 2.85374 1.50868 0
M  V30 4044 H 381.511 3.72991 -0.747095 0
M  V30 4045 H 382.823 4.92921 -0.763552 0
M  V30 4046 H 381.977 5.90818 1.37911 0
M  V30 4047 H 380.716 4.64703 1.47996 0
M  V30 4048 H 379.721 5.456 -0.678272 0
M  V30 4049 H 380.946 6.74793 -0.763606 0
M  V30 4050 H 378.892 6.3971 1.45282 0
M  V30 4051 H 378.809 7.55812 0.168709 0
M  V30 4052 H 380.077 7.67687 1.35194 0
M  V30 4053 N 384.306 0.507319 1.49211 0
M  V30 4054 C 385.236 -0.256939 2.32082 0
M  V30 4055 C 386.217 -0.956609 1.40652 0
M  V30 4056 O 387.402 -0.946788 1.69557 0
M  V30 4057 C 384.532 -1.31802 3.21318 0
M  V30 4058 C 383.486 -0.737855 4.21592 0
M  V30 4059 C 382.812 -1.89992 4.99807 0
M  V30 4060 C 384.112 0.275325 5.21574 0
M  V30 4061 H 385.806 0.434798 2.96226 0
M  V30 4062 H 383.352 0.210546 1.42452 0
M  V30 4063 H 385.305 -1.86045 3.78107 0
M  V30 4064 H 384.029 -2.03903 2.5513 0
M  V30 4065 H 382.688 -0.217126 3.65956 0
M  V30 4066 H 382.336 -2.60877 4.30061 0
M  V30 4067 H 382.036 -1.51777 5.6766 0
M  V30 4068 H 383.56 -2.44657 5.59442 0
M  V30 4069 H 384.974 -0.179193 5.7302 0
M  V30 4070 H 383.371 0.573649 5.97352 0
M  V30 4071 H 384.441 1.18903 4.70096 0
M  V30 4072 N 385.784 -1.5574 0.241426 0
M  V30 4073 C 386.714 -2.24133 -0.654722 0
M  V30 4074 C 387.695 -1.21974 -1.1856 0
M  V30 4075 O 388.88 -1.50612 -1.22595 0
M  V30 4076 C 386.01 -2.93659 -1.85423 0
M  V30 4077 C 384.964 -4.0246 -1.45636 0
M  V30 4078 C 384.29 -4.59383 -2.73626 0
M  V30 4079 C 385.59 -5.18468 -0.631506 0
M  V30 4080 H 387.284 -2.99281 -0.0844353 0
M  V30 4081 H 384.83 -1.43947 -0.0391707 0
M  V30 4082 H 386.783 -3.40203 -2.48676 0
M  V30 4083 H 385.507 -2.15991 -2.44981 0
M  V30 4084 H 384.166 -3.56676 -0.847202 0
M  V30 4085 H 383.814 -3.78422 -3.3137 0
M  V30 4086 H 383.514 -5.32826 -2.4773 0
M  V30 4087 H 385.038 -5.08658 -3.37786 0
M  V30 4088 H 386.452 -5.61272 -1.1682 0
M  V30 4089 H 384.849 -5.98266 -0.468831 0
M  V30 4090 H 385.919 -4.8358 0.357506 0
M  V30 4091 N 387.262 0.0317525 -1.57568 0
M  V30 4092 C 388.508 0.724175 -1.8943 0
M  V30 4093 C 388.841 1.75149 -0.838836 0
M  V30 4094 O 388.116 1.93948 0.146422 0
M  V30 4095 C 388.399 1.39615 -3.31933 0
M  V30 4096 C 388.252 0.382537 -4.4817 0
M  V30 4097 C 389.571 2.33084 -3.73309 0
M  V30 4098 H 386.69 0.261797 -0.688935 0
M  V30 4099 H 389.332 -0.013017 -1.89996 0
M  V30 4100 H 387.482 2.02451 -3.31581 0
M  V30 4101 H 389.154 -0.243689 -4.60656 0
M  V30 4102 H 387.397 -0.29844 -4.32772 0
M  V30 4103 H 388.068 0.891145 -5.44759 0
M  V30 4104 H 390.544 1.80295 -3.7501 0
M  V30 4105 H 389.42 2.77084 -4.73831 0
M  V30 4106 H 389.681 3.19643 -3.05419 0
M  V30 4107 N 388.74 1.54641 0.303973 0
M  V30 4108 C 390.156 1.45788 0.649463 0
M  V30 4109 C 390.356 0.64666 1.90842 0
M  V30 4110 O 389.412 0.153183 2.52035 0
M  V30 4111 C 390.725 2.89718 0.805227 0
M  V30 4112 C 392.273 2.99742 0.901305 0
M  V30 4113 C 392.748 4.44863 1.08909 0
M  V30 4114 N 394.239 4.48559 1.15536 0
M  V30 4115 C 394.974 5.58026 1.3189 0
M  V30 4116 N 394.47 6.77422 1.45161 0
M  V30 4117 N 396.263 5.45708 1.34755 0
M  V30 4118 H 388.414 2.05854 -0.523237 0
M  V30 4119 H 390.677 0.932186 -0.172431 0
M  V30 4120 H 390.383 3.51666 -0.0489108 0
M  V30 4121 H 390.257 3.36964 1.69513 0
M  V30 4122 H 392.644 2.3791 1.74593 0
M  V30 4123 H 392.725 2.55797 -0.0125531 0
M  V30 4124 H 392.369 5.07288 0.249241 0
M  V30 4125 H 392.299 4.86436 2.01713 0
M  V30 4126 H 394.79 3.6254 1.06646 0
M  V30 4127 H 395.103 7.56604 1.57387 0
M  V30 4128 H 393.448 6.80292 1.42223 0
M  V30 4129 H 396.639 4.51378 1.23996 0
M  V30 4130 H 396.812 6.3107 1.47157 0
M  V30 4131 N 390.218 -0.567019 1.47046 0
M  V30 4132 C 391.148 -1.68482 1.61667 0
M  V30 4133 C 392.129 -1.6358 0.466418 0
M  V30 4134 O 393.314 -1.81354 0.694574 0
M  V30 4135 C 390.444 -3.07124 1.62148 0
M  V30 4136 C 389.398 -3.26867 2.76301 0
M  V30 4137 C 388.724 -4.66196 2.61849 0
M  V30 4138 C 390.024 -3.13186 4.17986 0
M  V30 4139 H 391.718 -1.56502 2.5524 0
M  V30 4140 H 389.264 -0.751486 1.22836 0
M  V30 4141 H 391.217 -3.8516 1.70968 0
M  V30 4142 H 389.941 -3.2004 0.651287 0
M  V30 4143 H 388.6 -2.51237 2.66975 0
M  V30 4144 H 388.248 -4.75898 1.62879 0
M  V30 4145 H 387.948 -4.80356 3.38425 0
M  V30 4146 H 389.472 -5.46379 2.72584 0
M  V30 4147 H 390.886 -3.81049 4.2834 0
M  V30 4148 H 389.283 -3.3886 4.95272 0
M  V30 4149 H 390.353 -2.10057 4.3704 0
M  V30 4150 N 391.696 -1.35014 -0.812953 0
M  V30 4151 C 392.944 -1.27678 -1.56661 0
M  V30 4152 C 393.265 0.150359 -1.94419 0
M  V30 4153 O 392.535 1.08532 -1.63088 0
M  V30 4154 H 391.115 -0.469602 -0.580933 0
M  V30 4155 H 393.777 -1.69043 -0.970076 0
M  V30 4156 H 392.873 -1.88833 -2.48492 0
M  V30 4157 N 393.175 1.03435 -1.18907 0
M  V30 4158 C 394.085 2.15075 -0.937015 0
M  V30 4159 C 395.101 1.73706 0.101085 0
M  V30 4160 O 396.277 2.01232 -0.0822948 0
M  V30 4161 C 393.342 3.43458 -0.473057 0
M  V30 4162 C 392.403 3.99172 -1.57989 0
M  V30 4163 C 391.636 5.21427 -1.13797 0
M  V30 4164 O 391.859 5.704 0.000725941 0
M  V30 4165 O 390.793 5.69837 -1.9383 0
M  V30 4166 H 394.619 2.39198 -1.87131 0
M  V30 4167 H 392.204 1.13506 -0.971427 0
M  V30 4168 H 394.086 4.20811 -0.222702 0
M  V30 4169 H 392.761 3.20793 0.432869 0
M  V30 4170 H 391.668 3.23178 -1.88433 0
M  V30 4171 H 393.001 4.2619 -2.46217 0
M  V30 4172 N 394.653 0.992116 1.22453 0
M  V30 4173 C 395.883 0.684949 1.94915 0
M  V30 4174 C 396.291 -0.754292 1.73514 0
M  V30 4175 O 395.634 -1.52056 1.03076 0
M  V30 4176 C 395.696 0.910054 3.47791 0
M  V30 4177 C 395.36 2.33363 3.92926 0
M  V30 4178 C 396.357 3.31308 4.00663 0
M  V30 4179 C 394.042 2.66785 4.25595 0
M  V30 4180 C 396.036 4.6075 4.40441 0
M  V30 4181 C 393.723 3.96446 4.65053 0
M  V30 4182 C 394.721 4.9324 4.72444 0
M  V30 4183 O 394.409 6.20584 5.1101 0
M  V30 4184 H 394.141 0.25258 0.62704 0
M  V30 4185 H 396.695 1.32939 1.56577 0
M  V30 4186 H 394.925 0.208443 3.86138 0
M  V30 4187 H 396.614 0.598257 4.01467 0
M  V30 4188 H 397.38 3.0682 3.75615 0
M  V30 4189 H 393.259 1.92148 4.19047 0
M  V30 4190 H 396.803 5.363 4.46126 0
M  V30 4191 H 392.7 4.20724 4.89552 0
M  V30 4192 H 393.468 6.24509 5.29085 0
M  V30 4193 N 396.131 -1.37776 0.765217 0
M  V30 4194 C 397.408 -1.93975 0.251596 0
M  V30 4195 C 397.788 -1.69949 -1.25222 0
M  V30 4196 O 397.136 -1.04457 -2.03226 0
M  V30 4197 C 397.346 -3.43487 0.617895 0
M  V30 4198 C 398.694 -4.20564 0.584029 0
M  V30 4199 O 399.718 -3.5182 0.556888 0
M  V30 4200 O 398.577 -5.43138 0.605291 0
M  V30 4201 H 395.671 -0.82509 0.0561806 0
M  V30 4202 H 398.217 -1.47101 0.846128 0
M  V30 4203 H 396.989 -3.5453 1.65602 0
M  V30 4204 H 396.612 -3.976 -0.00403411 0
M  V30 4205 N 397.609 -0.515225 -1.4894 0
M  V30 4206 C 398.539 0.244628 -2.32215 0
M  V30 4207 C 399.52 0.949136 -1.41157 0
M  V30 4208 O 400.705 0.937783 -1.70057 0
M  V30 4209 C 397.835 1.30096 -3.22013 0
M  V30 4210 C 396.789 0.715486 -4.21977 0
M  V30 4211 C 396.115 1.87339 -5.00808 0
M  V30 4212 C 397.415 -0.302982 -5.2142 0
M  V30 4213 H 399.109 -0.450501 -2.95991 0
M  V30 4214 H 396.655 -0.218098 -1.42339 0
M  V30 4215 H 398.608 1.84037 -3.79089 0
M  V30 4216 H 397.332 2.02547 -2.56207 0
M  V30 4217 H 395.991 0.197715 -3.66066 0
M  V30 4218 H 395.639 2.58592 -4.31438 0
M  V30 4219 H 395.339 1.48764 -5.68457 0
M  V30 4220 H 396.863 2.41686 -5.60732 0
M  V30 4221 H 398.277 0.148802 -5.73107 0
M  V30 4222 H 396.674 -0.60532 -5.97039 0
M  V30 4223 H 397.744 -1.21395 -4.69459 0
M  V30 4224 N 399.087 1.5561 -0.249682 0
M  V30 4225 C 400.503 1.59254 0.105103 0
M  V30 4226 C 400.703 1.26685 1.56694 0
M  V30 4227 O 399.759 1.0155 2.31179 0
M  V30 4228 C 401.072 2.99687 -0.246592 0
M  V30 4229 C 402.62 3.12416 -0.191118 0
M  V30 4230 C 403.095 4.55074 -0.516885 0
M  V30 4231 N 404.586 4.60835 -0.467489 0
M  V30 4232 C 405.321 5.69201 -0.69268 0
M  V30 4233 N 404.817 6.85817 -0.981146 0
M  V30 4234 N 406.61 5.58635 -0.623198 0
M  V30 4235 H 398.761 1.75049 -1.20298 0
M  V30 4236 H 401.024 0.815003 -0.484225 0
M  V30 4237 H 400.73 3.28267 -1.26228 0
M  V30 4238 H 400.604 3.74798 0.424962 0
M  V30 4239 H 402.991 2.83615 0.815247 0
M  V30 4240 H 403.072 2.39573 -0.896563 0
M  V30 4241 H 402.716 4.84596 -1.52082 0
M  V30 4242 H 402.646 5.26181 0.210068 0
M  V30 4243 H 405.137 3.7705 -0.253373 0
M  V30 4244 H 405.45 7.64341 -1.14032 0
M  V30 4245 H 403.795 6.87494 -1.01865 0
M  V30 4246 H 406.986 4.66406 -0.397863 0
M  V30 4247 H 407.159 6.43017 -0.802093 0
M  V30 4248 N 400.565 -0.0233959 1.57583 0
M  V30 4249 C 401.981 -0.379134 1.55031 0
M  V30 4250 C 402.181 -1.76255 0.976548 0
M  V30 4251 O 401.237 -2.45266 0.600078 0
M  V30 4252 C 402.55 -0.275792 2.99433 0
M  V30 4253 C 404.098 -0.352458 3.11009 0
M  V30 4254 C 404.573 -0.278501 4.57152 0
M  V30 4255 N 406.064 -0.337123 4.61972 0
M  V30 4256 C 406.799 -0.302876 5.726 0
M  V30 4257 N 406.295 -0.220589 6.92449 0
M  V30 4258 N 408.088 -0.353023 5.6099 0
M  V30 4259 H 400.239 0.881869 1.93227 0
M  V30 4260 H 402.502 0.335867 0.886509 0
M  V30 4261 H 402.208 0.675108 3.4516 0
M  V30 4262 H 402.082 -1.06721 3.61788 0
M  V30 4263 H 404.469 -1.29379 2.65226 0
M  V30 4264 H 404.55 0.468409 2.51475 0
M  V30 4265 H 404.194 0.659189 5.03604 0
M  V30 4266 H 404.124 -1.11755 5.14605 0
M  V30 4267 H 406.615 -0.403002 3.75745 0
M  V30 4268 H 406.928 -0.199713 7.72542 0
M  V30 4269 H 405.273 -0.186555 6.9475 0
M  V30 4270 H 408.464 -0.415339 4.66254 0
M  V30 4271 H 408.637 -0.322866 6.47195 0
M  V30 4272 N 402.043 -1.548 -0.295768 0
M  V30 4273 C 403.289 -1.75517 -1.02789 0
M  V30 4274 C 403.644 -0.537266 -1.84746 0
M  V30 4275 O 402.937 0.470299 -1.85738 0
M  V30 4276 C 403.131 -2.98797 -1.961 0
M  V30 4277 C 402.96 -4.3246 -1.23321 0
M  V30 4278 C 401.73 -4.96131 -0.95822 0
M  V30 4279 C 403.928 -5.10365 -0.635024 0
M  V30 4280 N 401.91 -6.1357 -0.201257 0
M  V30 4281 C 403.281 -6.19999 -0.0110937 0
M  V30 4282 C 405.336 -4.94957 -0.540594 0
M  V30 4283 C 404.039 -7.15904 0.698136 0
M  V30 4284 C 406.065 -5.91197 0.154992 0
M  V30 4285 C 405.427 -7.00203 0.767752 0
M  V30 4286 H 401.526 -0.694786 -0.358882 0
M  V30 4287 H 404.11 -1.92281 -0.305943 0
M  V30 4288 H 402.281 -2.83448 -2.6554 0
M  V30 4289 H 404.013 -3.08017 -2.62502 0
M  V30 4290 H 400.768 -4.56595 -1.25771 0
M  V30 4291 H 401.192 -6.76802 0.16389 0
M  V30 4292 H 405.834 -4.10803 -1.00003 0
M  V30 4293 H 403.552 -7.99595 1.16933 0
M  V30 4294 H 407.138 -5.81353 0.228069 0
M  V30 4295 H 406.018 -7.73393 1.29743 0
M  V30 4296 N 403.521 0.559213 -1.47345 0
M  V30 4297 C 404.431 1.69388 -1.62311 0
M  V30 4298 C 405.447 1.6648 -0.505993 0
M  V30 4299 O 406.623 1.85964 -0.773262 0
M  V30 4300 C 403.688 3.05894 -1.63185 0
M  V30 4301 C 402.749 3.19885 -2.86307 0
M  V30 4302 C 401.982 4.49879 -2.87131 0
M  V30 4303 O 402.205 5.35217 -1.97229 0
M  V30 4304 O 401.139 4.67618 -3.78968 0
M  V30 4305 H 404.965 1.59706 -2.58317 0
M  V30 4306 H 402.55 0.728989 -1.30407 0
M  V30 4307 H 404.432 3.87133 -1.66451 0
M  V30 4308 H 403.107 3.15964 -0.70345 0
M  V30 4309 H 402.014 2.38052 -2.88587 0
M  V30 4310 H 403.347 3.14718 -3.78435 0
M  V30 4311 N 404.999 1.35443 0.805782 0
M  V30 4312 C 405.946 1.28431 1.91766 0
M  V30 4313 C 406.916 0.156102 1.65365 0
M  V30 4314 O 408.101 0.339936 1.87747 0
M  V30 4315 C 405.241 1.06301 3.2832 0
M  V30 4316 C 404.354 2.2805 3.66902 0
M  V30 4317 C 403.489 1.99064 4.92491 0
M  V30 4318 C 402.528 3.16863 5.23703 0
M  V30 4319 N 401.665 2.87647 6.40471 0
M  V30 4320 H 406.505 2.23511 1.97096 0
M  V30 4321 H 404.042 1.11105 0.964054 0
M  V30 4322 H 406 0.915012 4.07042 0
M  V30 4323 H 404.63 0.148822 3.22457 0
M  V30 4324 H 403.682 2.53711 2.83434 0
M  V30 4325 H 404.994 3.1601 3.85927 0
M  V30 4326 H 404.148 1.81099 5.7904 0
M  V30 4327 H 402.887 1.0839 4.75503 0
M  V30 4328 H 401.892 3.35404 4.35642 0
M  V30 4329 H 403.117 4.08339 5.4262 0
M  V30 4330 H 401.063 1.99568 6.24907 0
M  V30 4331 H 400.98 3.69141 6.59751 0
M  V30 4332 H 402.248 2.73226 7.30047 0
M  V30 4333 N 406.477 -1.02803 1.19454 0
M  V30 4334 C 407.723 -1.76598 1.0092 0
M  V30 4335 C 408.078 -1.86939 -0.455142 0
M  V30 4336 O 407.371 -1.37575 -1.33355 0
M  V30 4337 C 407.565 -3.18941 1.6128 0
M  V30 4338 C 407.394 -3.22476 3.13431 0
M  V30 4339 C 406.164 -3.30375 3.82336 0
M  V30 4340 C 408.362 -3.09451 4.10785 0
M  V30 4341 N 406.344 -3.23292 5.21877 0
M  V30 4342 C 407.715 -3.10012 5.36929 0
M  V30 4343 C 409.77 -2.93585 4.02135 0
M  V30 4344 C 408.473 -2.96334 6.55423 0
M  V30 4345 C 410.499 -2.81256 5.20239 0
M  V30 4346 C 409.861 -2.82472 6.45282 0
M  V30 4347 H 405.96 -0.657447 0.423424 0
M  V30 4348 H 408.544 -1.22369 1.5144 0
M  V30 4349 H 406.715 -3.71489 1.1336 0
M  V30 4350 H 408.447 -3.81102 1.36173 0
M  V30 4351 H 405.202 -3.3663 3.33132 0
M  V30 4352 H 405.626 -3.23156 5.94894 0
M  V30 4353 H 410.268 -2.91466 3.0628 0
M  V30 4354 H 407.986 -2.97203 7.51463 0
M  V30 4355 H 411.572 -2.70014 5.15348 0
M  V30 4356 H 410.452 -2.73036 7.35133 0
M  V30 4357 N 407.956 -0.998596 -1.21925 0
M  V30 4358 C 408.866 -0.562736 -2.27751 0
M  V30 4359 C 409.882 0.391203 -1.69545 0
M  V30 4360 O 411.058 0.256625 -1.99758 0
M  V30 4361 C 408.123 0.11012 -3.46525 0
M  V30 4362 C 407.184 -0.887495 -4.20026 0
M  V30 4363 C 406.417 -0.246654 -5.3313 0
M  V30 4364 O 406.64 0.958088 -5.62296 0
M  V30 4365 O 405.574 -0.954374 -5.94286 0
M  V30 4366 H 409.4 -1.44329 -2.67213 0
M  V30 4367 H 406.985 -0.767135 -1.28201 0
M  V30 4368 H 408.867 0.486756 -4.18579 0
M  V30 4369 H 407.542 0.965154 -3.08976 0
M  V30 4370 H 406.449 -1.31517 -3.5022 0
M  V30 4371 H 407.782 -1.71191 -4.6147 0
M  V30 4372 N 409.434 1.37368 -0.772513 0
M  V30 4373 C 410.364 2.32856 -0.173304 0
M  V30 4374 C 411.345 1.55818 0.682262 0
M  V30 4375 O 412.53 1.84052 0.619566 0
M  V30 4376 C 409.66 3.40048 0.706007 0
M  V30 4377 C 408.614 4.27973 -0.0483144 0
M  V30 4378 C 407.94 5.26184 0.950491 0
M  V30 4379 C 409.24 5.07665 -1.22776 0
M  V30 4380 H 410.934 2.83217 -0.971002 0
M  V30 4381 H 408.48 1.3617 -0.468377 0
M  V30 4382 H 410.433 4.05827 1.13501 0
M  V30 4383 H 409.157 2.88214 1.53623 0
M  V30 4384 H 407.816 3.63726 -0.458107 0
M  V30 4385 H 407.464 4.7063 1.77529 0
M  V30 4386 H 407.164 5.85872 0.450314 0
M  V30 4387 H 408.688 5.94838 1.37842 0
M  V30 4388 H 410.102 5.66578 -0.875366 0
M  V30 4389 H 408.499 5.76681 -1.66007 0
M  V30 4390 H 409.569 4.40294 -2.03149 0
M  V30 4391 N 410.912 0.523116 1.48665 0
M  V30 4392 C 412.189 -0.0775449 1.95446 0
M  V30 4393 C 412.569 -1.5197 1.4652 0
M  V30 4394 O 411.917 -2.17876 0.688657 0
M  V30 4395 C 412.127 0.0326135 3.48985 0
M  V30 4396 C 413.475 -0.130141 4.24401 0
M  V30 4397 O 414.499 -0.0415142 3.56176 0
M  V30 4398 O 413.358 -0.31491 5.45592 0
M  V30 4399 H 410.452 -0.0831012 0.822814 0
M  V30 4400 H 412.998 0.587227 1.59216 0
M  V30 4401 H 411.77 1.03748 3.77296 0
M  V30 4402 H 411.393 -0.671317 3.91892 0
M  V30 4403 N 412.39 -1.55475 0.257931 0
M  V30 4404 C 413.32 -2.24815 -0.630912 0
M  V30 4405 C 414.301 -1.23224 -1.17259 0
M  V30 4406 O 415.486 -1.51904 -1.20991 0
M  V30 4407 C 412.616 -2.95609 -1.82298 0
M  V30 4408 C 411.57 -4.03982 -1.41359 0
M  V30 4409 C 410.896 -4.6226 -2.68738 0
M  V30 4410 C 412.196 -5.19109 -0.57648 0
M  V30 4411 H 413.89 -2.99354 -0.0526878 0
M  V30 4412 H 411.436 -1.4398 -0.023901 0
M  V30 4413 H 413.389 -3.42822 -2.45054 0
M  V30 4414 H 412.113 -2.18577 -2.42676 0
M  V30 4415 H 410.772 -3.57555 -0.809324 0
M  V30 4416 H 410.42 -3.81915 -3.27338 0
M  V30 4417 H 410.12 -5.35424 -2.42065 0
M  V30 4418 H 411.644 -5.12212 -3.32372 0
M  V30 4419 H 413.058 -5.62479 -1.10861 0
M  V30 4420 H 411.455 -5.98729 -0.405351 0
M  V30 4421 H 412.525 -4.83174 0.408776 0
M  V30 4422 N 413.868 0.0150385 -1.57593 0
M  V30 4423 C 415.145 0.7392 -1.81094 0
M  V30 4424 C 415.525 1.92817 -0.859344 0
M  V30 4425 O 414.873 2.28301 0.095362 0
M  V30 4426 C 415.083 1.15907 -3.29191 0
M  V30 4427 C 416.431 1.56918 -3.9454 0
M  V30 4428 O 417.455 1.25328 -3.33424 0
M  V30 4429 O 416.314 2.15604 -5.02173 0
M  V30 4430 H 413.408 0.358631 -0.745193 0
M  V30 4431 H 415.954 -0.00926156 -1.69697 0
M  V30 4432 H 414.726 0.310921 -3.90063 0
M  V30 4433 H 414.349 1.96711 -3.45529 0
M  V30 4434 N 415.346 1.54954 0.287554 0
M  V30 4435 C 416.595 1.74081 1.01877 0
M  V30 4436 C 416.908 0.541135 1.87966 0
M  V30 4437 O 418.114 0.614491 2.64455 0
M  V30 4438 C 416.57 3.08042 1.86113 0
M  V30 4439 C 416.178 4.35531 1.04961 0
M  V30 4440 C 417.922 3.36523 2.58752 0
M  V30 4441 C 415.829 5.60538 1.88551 0
M  V30 4442 H 414.759 0.64884 0.384087 0
M  V30 4443 H 417.41 1.81426 0.275101 0
M  V30 4444 H 415.792 2.94696 2.64519 0
M  V30 4445 H 416.966 4.59751 0.31074 0
M  V30 4446 H 415.281 4.14085 0.43843 0
M  V30 4447 H 417.878 4.27122 3.21668 0
M  V30 4448 H 418.221 2.56 3.28283 0
M  V30 4449 H 418.754 3.50901 1.87386 0
M  V30 4450 H 415.493 6.43767 1.23466 0
M  V30 4451 H 415.013 5.40483 2.60074 0
M  V30 4452 H 416.692 5.98297 2.46273 0
M  V30 4453 N 416.824 -0.551391 1.4764 0
M  V30 4454 C 417.771 -1.65796 1.60563 0
M  V30 4455 C 418.741 -1.59932 0.448428 0
M  V30 4456 O 419.926 -1.78679 0.669222 0
M  V30 4457 C 417.066 -3.04108 1.63133 0
M  V30 4458 C 416.179 -3.20365 2.89811 0
M  V30 4459 C 415.314 -4.49109 2.8368 0
M  V30 4460 C 414.353 -4.58819 4.05156 0
M  V30 4461 N 413.49 -5.78926 3.97227 0
M  V30 4462 H 418.33 -1.54088 2.5507 0
M  V30 4463 H 415.867 -0.75052 1.26513 0
M  V30 4464 H 417.825 -3.84207 1.62606 0
M  V30 4465 H 416.455 -3.14637 0.721341 0
M  V30 4466 H 415.507 -2.33659 3.00179 0
M  V30 4467 H 416.819 -3.23402 3.79753 0
M  V30 4468 H 415.973 -5.37475 2.81434 0
M  V30 4469 H 414.712 -4.4856 1.91431 0
M  V30 4470 H 413.717 -3.68864 4.077 0
M  V30 4471 H 414.942 -4.61124 4.98539 0
M  V30 4472 H 412.888 -5.79314 3.07785 0
M  V30 4473 H 412.805 -5.83367 4.80853 0
M  V30 4474 H 414.073 -6.69637 3.99007 0
M  V30 4475 N 418.302 -1.35869 -0.798587 0
M  V30 4476 C 419.212 -1.31578 -1.94228 0
M  V30 4477 C 420.228 -0.21939 -1.72611 0
M  V30 4478 O 421.404 -0.450167 -1.96305 0
M  V30 4479 C 418.469 -1.09528 -3.28944 0
M  V30 4480 C 417.53 -2.28556 -3.63402 0
M  V30 4481 C 416.763 -2.07549 -4.9169 0
M  V30 4482 O 416.986 -1.046 -5.60727 0
M  V30 4483 O 415.92 -2.95106 -5.24591 0
M  V30 4484 H 419.746 -2.27847 -2.00796 0
M  V30 4485 H 417.331 -1.16322 -0.937526 0
M  V30 4486 H 419.213 -0.991127 -4.09579 0
M  V30 4487 H 417.888 -0.16315 -3.23289 0
M  V30 4488 H 416.795 -2.44538 -2.83112 0
M  V30 4489 H 418.128 -3.20244 -3.73771 0
M  V30 4490 N 419.78 1.02168 -1.19998 0
M  V30 4491 C 421.026 1.75945 -1.00852 0
M  V30 4492 C 421.359 1.88702 0.458828 0
M  V30 4493 O 420.634 1.40911 1.34069 0
M  V30 4494 C 420.917 3.18154 -1.68671 0
M  V30 4495 C 420.77 3.13224 -3.22817 0
M  V30 4496 C 422.089 4.16711 -1.41561 0
M  V30 4497 H 419.208 0.638673 -0.367785 0
M  V30 4498 H 421.85 1.19222 -1.4794 0
M  V30 4499 H 420 3.66586 -1.28636 0
M  V30 4500 H 421.672 2.72635 -3.72112 0
M  V30 4501 H 419.915 2.50751 -3.53986 0
M  V30 4502 H 420.586 4.13728 -3.65422 0
M  V30 4503 H 423.062 3.76913 -1.76284 0
M  V30 4504 H 421.938 5.14391 -1.91553 0
M  V30 4505 H 422.199 4.40774 -0.342193 0
M  V30 4506 N 421.258 1.00505 1.21394 0
M  V30 4507 C 422.505 0.687774 1.90462 0
M  V30 4508 C 422.833 -0.78147 1.7811 0
M  V30 4509 O 422.088 -1.58208 1.1519 0
M  V30 4510 C 422.387 1.0546 3.41486 0
M  V30 4511 C 422.053 2.51812 3.74034 0
M  V30 4512 C 420.715 2.91804 3.82628 0
M  V30 4513 C 423.067 3.46614 3.8924 0
M  V30 4514 C 420.395 4.2556 4.03876 0
M  V30 4515 C 422.747 4.80044 4.11995 0
M  V30 4516 C 421.411 5.19759 4.18816 0
M  V30 4517 H 420.681 0.251674 0.696951 0
M  V30 4518 H 423.328 1.26349 1.43903 0
M  V30 4519 H 421.633 0.397133 3.89782 0
M  V30 4520 H 423.33 0.786976 3.93202 0
M  V30 4521 H 419.92 2.1982 3.67936 0
M  V30 4522 H 424.104 3.16883 3.81967 0
M  V30 4523 H 419.36 4.55901 4.07387 0
M  V30 4524 H 423.534 5.53439 4.22704 0
M  V30 4525 H 421.161 6.23418 4.35033 0
M  V30 4526 N 422.737 -1.36956 0.779787 0
M  V30 4527 C 423.983 -1.99787 0.348281 0
M  V30 4528 C 424.316 -1.61756 -1.07465 0
M  V30 4529 O 423.591 -0.867639 -1.74075 0
M  V30 4530 C 423.874 -3.56597 0.50104 0
M  V30 4531 C 423.727 -4.04513 1.96697 0
M  V30 4532 C 425.046 -4.40008 -0.0898097 0
M  V30 4533 H 422.165 -0.725796 0.128022 0
M  V30 4534 H 424.807 -1.62514 0.984331 0
M  V30 4535 H 422.957 -3.88479 -0.0404347 0
M  V30 4536 H 424.629 -3.83161 2.56876 0
M  V30 4537 H 422.872 -3.56408 2.47297 0
M  V30 4538 H 423.543 -5.1352 2.02486 0
M  V30 4539 H 426.019 -4.14431 0.372293 0
M  V30 4540 H 424.895 -5.4888 0.0471605 0
M  V30 4541 H 425.156 -4.26035 -1.18096 0
M  V30 4542 N 424.215 -0.530993 -1.48385 0
M  V30 4543 C 425.165 0.251092 -2.26613 0
M  V30 4544 C 426.149 0.908977 -1.32765 0
M  V30 4545 O 427.341 0.811616 -1.57295 0
M  V30 4546 C 424.47 1.29677 -3.17866 0
M  V30 4547 C 423.556 0.643627 -4.19188 0
M  V30 4548 N 423.947 -0.271223 -5.05072 0
M  V30 4549 C 422.245 0.900711 -4.3681 0
M  V30 4550 C 422.946 -0.648109 -5.78078 0
M  V30 4551 N 421.922 -0.00895987 -5.43599 0
M  V30 4552 H 425.724 -0.452702 -2.90393 0
M  V30 4553 H 423.238 -0.349091 -1.58604 0
M  V30 4554 H 425.235 1.87079 -3.72568 0
M  V30 4555 H 423.895 2.00193 -2.55642 0
M  V30 4556 H 424.906 -0.643883 -5.13882 0
M  V30 4557 H 421.583 1.59636 -3.85775 0
M  V30 4558 H 422.973 -1.39833 -6.57188 0
M  V30 4559 N 425.693 1.55336 -0.266172 0
M  V30 4560 C 427.104 1.85236 0.233315 0
M  V30 4561 C 427.455 1.18816 1.56132 0
M  V30 4562 O 426.58 0.473307 2.11161 0
M  V30 4563 C 427.175 3.36059 0.430113 0
M  V30 4564 C 425.734 3.66116 0.873842 0
M  V30 4565 C 424.881 2.77274 -0.0380016 0
M  V30 4566 H 427.832 1.51004 -0.488214 0
M  V30 4567 H 427.853 3.58681 1.26998 0
M  V30 4568 H 427.365 3.84373 -0.536588 0
M  V30 4569 H 425.466 3.23295 1.85233 0
M  V30 4570 H 425.579 4.73699 0.717358 0
M  V30 4571 H 423.943 2.50198 0.476759 0
M  V30 4572 H 424.726 3.284 -1.00042 0
M  V30 4573 N 427.171 -0.0066808 1.57599 0
M  V30 4574 C 428.119 -1.01851 2.09115 0
M  V30 4575 C 429.113 -1.36021 1.00969 0
M  V30 4576 O 430.319 -1.34663 1.19439 0
M  V30 4577 H 426.694 -0.346083 0.667631 0
M  V30 4578 H 428.665 -0.558394 2.93129 0
M  V30 4579 C 427.414 -2.30374 2.60429 0
M  V30 4580 H 426.737 -2.04947 3.43273 0
M  V30 4581 H 428.177 -2.99466 3.00161 0
M  V30 4582 C 426.636 -3.00893 1.51542 0
M  V30 4583 O 427.166 -3.91614 0.894484 0
M  V30 4584 N 425.372 -2.62603 1.2445 0
M  V30 4585 H 424.919 -1.88911 1.75129 0
M  V30 4586 H 424.877 -3.10101 0.518137 0
M  V30 4587 N 428.649 -1.55105 -0.279332 0
M  V30 4588 C 429.879 -1.7917 -1.02867 0
M  V30 4589 C 430.287 -0.56204 -1.80659 0
M  V30 4590 O 429.63 0.478266 -1.77365 0
M  V30 4591 C 429.692 -2.96061 -2.03932 0
M  V30 4592 C 429.356 -4.33341 -1.45137 0
M  V30 4593 C 430.353 -5.12565 -0.870266 0
M  V30 4594 C 428.038 -4.79987 -1.48048 0
M  V30 4595 C 430.032 -6.36565 -0.326097 0
M  V30 4596 C 427.719 -6.03944 -0.932443 0
M  V30 4597 C 428.717 -6.8207 -0.356247 0
M  V30 4598 O 428.405 -8.03691 0.183412 0
M  V30 4599 H 428.137 -0.600796 -0.309872 0
M  V30 4600 H 430.691 -2.02932 -0.317468 0
M  V30 4601 H 428.921 -2.67975 -2.78794 0
M  V30 4602 H 430.61 -3.07506 -2.64943 0
M  V30 4603 H 431.376 -4.77661 -0.840521 0
M  V30 4604 H 427.255 -4.1919 -1.91835 0
M  V30 4605 H 430.799 -6.97489 0.124286 0
M  V30 4606 H 426.696 -6.3833 -0.959407 0
M  V30 4607 H 427.464 -8.18468 0.0721681 0
M  V30 4608 N 430.127 0.543554 -1.4793 0
M  V30 4609 C 431.352 1.32995 -1.59145 0
M  V30 4610 C 431.777 1.86472 -0.246956 0
M  V30 4611 O 431.135 1.63696 0.779324 0
M  V30 4612 C 431.183 2.46623 -2.63077 0
M  V30 4613 O 430.287 3.49261 -2.19295 0
M  V30 4614 H 429.628 0.394472 -0.534124 0
M  V30 4615 H 432.158 0.655489 -1.93816 0
M  V30 4616 H 432.168 2.93001 -2.83926 0
M  V30 4617 H 430.843 2.07059 -3.60693 0
M  V30 4618 H 429.42 3.09094 -2.08603 0
M  V30 4619 N 431.605 1.3629 0.791371 0
M  V30 4620 C 432.552 1.30458 1.90393 0
M  V30 4621 C 433.522 0.173632 1.6519 0
M  V30 4622 O 434.707 0.35983 1.87376 0
M  V30 4623 C 431.847 1.09777 3.27174 0
M  V30 4624 C 430.96 2.31929 3.64462 0
M  V30 4625 C 430.095 2.04276 4.90352 0
M  V30 4626 C 429.134 3.224 5.20312 0
M  V30 4627 N 428.271 2.94424 6.37385 0
M  V30 4628 H 433.111 2.25589 1.94714 0
M  V30 4629 H 430.648 1.12122 0.952216 0
M  V30 4630 H 432.606 0.958133 4.06049 0
M  V30 4631 H 431.236 0.183014 3.22281 0
M  V30 4632 H 430.288 2.56703 2.80727 0
M  V30 4633 H 431.6 3.20085 3.82553 0
M  V30 4634 H 430.754 1.87231 5.77087 0
M  V30 4635 H 429.493 1.13428 4.74326 0
M  V30 4636 H 428.498 3.40005 4.32061 0
M  V30 4637 H 429.723 4.14071 5.38258 0
M  V30 4638 H 427.669 2.06185 6.22755 0
M  V30 4639 H 427.586 3.76118 6.55798 0
M  V30 4640 H 428.854 2.80953 7.27108 0
M  V30 4641 N 433.083 -1.0153 1.20538 0
M  V30 4642 C 434.308 -1.79283 1.04271 0
M  V30 4643 C 434.733 -1.8372 -0.403544 0
M  V30 4644 O 434.091 -1.27321 -1.2907 0
M  V30 4645 C 434.139 -3.21535 1.63241 0
M  V30 4646 O 433.243 -4.03099 0.870908 0
M  V30 4647 H 432.584 -0.55293 0.367647 0
M  V30 4648 H 435.114 -1.27696 1.59859 0
M  V30 4649 H 435.124 -3.72243 1.6703 0
M  V30 4650 H 433.799 -3.1762 2.68497 0
M  V30 4651 H 432.376 -3.61693 0.907323 0
M  V30 4652 N 434.561 -1.01147 -1.20859 0
M  V30 4653 C 435.789 -0.716911 -1.94082 0
M  V30 4654 C 436.204 0.721568 -1.74467 0
M  V30 4655 O 435.561 1.48889 -1.05539 0
M  V30 4656 C 435.612 -1.03662 -3.46318 0
M  V30 4657 O 435.333 -2.4186 -3.65288 0
M  V30 4658 C 436.834 -0.762386 -4.36695 0
M  V30 4659 H 434.054 -0.26367 -0.617024 0
M  V30 4660 H 436.598 -1.35127 -1.53496 0
M  V30 4661 H 434.753 -0.447757 -3.84804 0
M  V30 4662 H 435.167 -2.53224 -4.59323 0
M  V30 4663 H 436.641 -1.03621 -5.42187 0
M  V30 4664 H 437.118 0.303514 -4.3815 0
M  V30 4665 H 437.724 -1.33316 -4.03865 0
M  V30 4666 N 436.039 1.36541 -0.78704 0
M  V30 4667 C 437.267 2.03561 -0.370199 0
M  V30 4668 C 437.682 1.59347 1.01263 0
M  V30 4669 O 437.039 0.781781 1.64907 0
M  V30 4670 C 437.09 3.59033 -0.421614 0
M  V30 4671 O 436.811 4.01634 -1.7499 0
M  V30 4672 C 438.312 4.433 0.00489763 0
M  V30 4673 H 435.532 0.653346 -0.152904 0
M  V30 4674 H 438.076 1.74566 -1.06522 0
M  V30 4675 H 436.231 3.86746 0.224971 0
M  V30 4676 H 436.645 4.96217 -1.69909 0
M  V30 4677 H 438.119 5.51939 -0.0822184 0
M  V30 4678 H 438.596 4.26285 1.05723 0
M  V30 4679 H 439.202 4.20843 -0.614085 0
M  V30 4680 N 437.518 0.538854 1.48102 0
M  V30 4681 C 438.795 -0.0568108 1.95517 0
M  V30 4682 C 439.175 -1.50408 1.48124 0
M  V30 4683 O 438.523 -2.17133 0.711727 0
M  V30 4684 C 438.733 0.0696262 3.48931 0
M  V30 4685 C 440.081 -0.0851202 4.24515 0
M  V30 4686 O 441.105 -0.0037347 3.562 0
M  V30 4687 O 439.964 -0.257025 5.45895 0
M  V30 4688 H 437.058 -0.0743695 0.823649 0
M  V30 4689 H 439.604 0.604081 1.58584 0
M  V30 4690 H 438.376 1.07744 3.76174 0
M  V30 4691 H 437.999 -0.629714 3.92582 0
M  V30 4692 N 438.996 -1.55193 0.274407 0
M  V30 4693 C 439.944 -2.23924 -0.629362 0
M  V30 4694 C 440.938 -1.23602 -1.1584 0
M  V30 4695 O 442.144 -1.41535 -1.11211 0
M  V30 4696 H 438.519 -0.718637 -0.221507 0
M  V30 4697 H 440.49 -2.98388 -0.0268322 0
M  V30 4698 C 439.239 -2.97329 -1.80252 0
M  V30 4699 H 438.562 -3.74313 -1.40462 0
M  V30 4700 H 440.002 -3.48743 -2.41152 0
M  V30 4701 C 438.461 -2.0276 -2.69054 0
M  V30 4702 O 438.991 -1.57836 -3.69392 0
M  V30 4703 N 437.197 -1.69275 -2.36208 0
M  V30 4704 H 436.744 -2.06004 -1.54661 0
M  V30 4705 H 436.702 -1.06271 -2.95895 0
M  V30 4706 N 440.474 -0.00167713 -1.576 0
M  V30 4707 C 441.751 0.719951 -1.81868 0
M  V30 4708 C 442.131 1.91895 -0.879747 0
M  V30 4709 O 441.479 2.28389 0.0711423 0
M  V30 4710 C 441.689 1.12409 -3.30402 0
M  V30 4711 C 443.037 1.52724 -3.96182 0
M  V30 4712 O 444.061 1.21784 -3.34734 0
M  V30 4713 O 442.92 2.10265 -5.04431 0
M  V30 4714 H 440.014 0.350707 -0.748955 0
M  V30 4715 H 442.56 -0.0272597 -1.69678 0
M  V30 4716 H 441.332 0.269532 -3.90371 0
M  V30 4717 H 440.955 1.93035 -3.47596 0
M  V30 4718 N 441.952 1.55251 0.271103 0
M  V30 4719 C 443.201 1.75151 1.00025 0
M  V30 4720 C 443.514 0.561041 1.87381 0
M  V30 4721 O 444.72 0.642506 2.63788 0
M  V30 4722 C 443.176 3.09999 1.82835 0
M  V30 4723 C 442.784 4.3662 1.00336 0
M  V30 4724 C 444.528 3.39249 2.55168 0
M  V30 4725 C 442.435 5.62506 1.82595 0
M  V30 4726 H 441.365 0.652877 0.377183 0
M  V30 4727 H 444.016 1.81708 0.255843 0
M  V30 4728 H 442.398 2.97485 2.61378 0
M  V30 4729 H 443.572 4.60055 0.261959 0
M  V30 4730 H 441.887 4.14527 0.394486 0
M  V30 4731 H 444.484 4.3051 3.1712 0
M  V30 4732 H 444.827 2.59467 3.2555 0
M  V30 4733 H 445.36 3.52869 1.83653 0
M  V30 4734 H 442.099 6.45041 1.16631 0
M  V30 4735 H 441.619 5.43211 2.54327 0
M  V30 4736 H 443.298 6.00875 2.39913 0
M  V30 4737 N 443.43 -0.535701 1.48216 0
M  V30 4738 C 444.393 -1.623 1.61838 0
M  V30 4739 C 445.393 -1.53087 0.492024 0
M  V30 4740 O 446.583 -1.5686 0.757668 0
M  V30 4741 C 443.715 -3.01907 1.58319 0
M  V30 4742 H 444.908 -1.51564 2.58783 0
M  V30 4743 H 442.461 -0.757317 1.36727 0
M  V30 4744 H 443.196 -3.18155 0.628299 0
M  V30 4745 H 442.981 -3.10003 2.40085 0
M  V30 4746 H 444.471 -3.80969 1.71033 0
M  V30 4747 N 444.908 -1.36708 -0.784132 0
M  V30 4748 C 445.838 -1.34153 -1.91116 0
M  V30 4749 C 446.819 -0.212121 -1.68772 0
M  V30 4750 O 448.004 -0.410581 -1.8981 0
M  V30 4751 C 445.134 -1.13535 -3.28218 0
M  V30 4752 C 444.088 -2.23356 -3.65097 0
M  V30 4753 C 443.414 -1.87875 -5.00607 0
M  V30 4754 C 444.714 -3.65473 -3.73131 0
M  V30 4755 H 446.408 -2.28459 -1.93512 0
M  V30 4756 H 443.954 -1.09973 -0.929618 0
M  V30 4757 H 445.907 -1.10381 -4.06687 0
M  V30 4758 H 444.631 -0.156804 -3.26223 0
M  V30 4759 H 443.29 -2.25645 -2.88929 0
M  V30 4760 H 442.938 -0.885814 -4.95139 0
M  V30 4761 H 442.638 -2.61406 -5.26252 0
M  V30 4762 H 444.162 -1.86286 -5.81489 0
M  V30 4763 H 445.576 -3.65382 -4.41779 0
M  V30 4764 H 443.973 -4.37953 -4.10265 0
M  V30 4765 H 445.043 -3.99995 -2.74102 0
M  V30 4766 N 446.386 1.0089 -1.21074 0
M  V30 4767 C 447.316 2.1145 -0.990523 0
M  V30 4768 C 448.297 1.69897 0.0831699 0
M  V30 4769 O 449.482 1.94052 -0.0758853 0
M  V30 4770 C 446.612 3.42914 -0.550177 0
M  V30 4771 C 445.566 3.98244 -1.56799 0
M  V30 4772 C 444.892 5.25568 -0.984013 0
M  V30 4773 C 446.192 4.30752 -2.95381 0
M  V30 4774 H 447.886 2.3013 -1.91521 0
M  V30 4775 H 445.432 1.10592 -0.92225 0
M  V30 4776 H 447.385 4.19653 -0.383305 0
M  V30 4777 H 446.109 3.24014 0.41015 0
M  V30 4778 H 444.768 3.23621 -1.72236 0
M  V30 4779 H 444.416 5.02998 -0.0155216 0
M  V30 4780 H 444.116 5.63551 -1.66384 0
M  V30 4781 H 445.64 6.04955 -0.828378 0
M  V30 4782 H 447.054 4.98349 -2.8341 0
M  V30 4783 H 445.451 4.79869 -3.60341 0
M  V30 4784 H 446.521 3.39192 -3.46521 0
M  V30 4785 N 447.864 1.01787 1.20321 0
M  V30 4786 C 448.814 0.559976 2.21016 0
M  V30 4787 C 449.798 -0.385366 1.56217 0
M  V30 4788 O 450.99 -0.208126 1.75772 0
M  V30 4789 C 448.119 -0.0990553 3.43157 0
M  V30 4790 C 447.205 0.86807 4.15121 0
M  V30 4791 N 447.596 2.0261 4.63447 0
M  V30 4792 C 445.894 0.689162 4.40643 0
M  V30 4793 C 446.595 2.63518 5.18588 0
M  V30 4794 N 445.571 1.91569 5.08726 0
M  V30 4795 H 449.373 1.44281 2.56048 0
M  V30 4796 H 446.887 0.883381 1.36272 0
M  V30 4797 H 448.884 -0.444643 4.14522 0
M  V30 4798 H 447.544 -0.977709 3.0963 0
M  V30 4799 H 448.555 2.40598 4.58621 0
M  V30 4800 H 445.232 -0.14133 4.17261 0
M  V30 4801 H 446.622 3.61527 5.66346 0
M  V30 4802 N 449.342 -1.36122 0.79427 0
M  V30 4803 C 450.272 -2.32551 0.210328 0
M  V30 4804 C 451.253 -1.56884 -0.657386 0
M  V30 4805 O 452.438 -1.85014 -0.590207 0
M  V30 4806 C 449.568 -3.41128 -0.651819 0
M  V30 4807 C 448.522 -4.27842 0.116395 0
M  V30 4808 C 447.848 -5.2763 -0.86666 0
M  V30 4809 C 449.148 -5.05647 1.30837 0
M  V30 4810 H 450.842 -2.81636 1.01594 0
M  V30 4811 H 448.388 -1.35407 0.489981 0
M  V30 4812 H 450.341 -4.07581 -1.07031 0
M  V30 4813 H 449.065 -2.90622 -1.49019 0
M  V30 4814 H 447.724 -3.62952 0.515915 0
M  V30 4815 H 447.372 -4.73395 -1.70019 0
M  V30 4816 H 447.072 -5.86514 -0.35705 0
M  V30 4817 H 448.596 -5.96955 -1.28361 0
M  V30 4818 H 450.01 -5.65113 0.965393 0
M  V30 4819 H 448.407 -5.73967 1.75161 0
M  V30 4820 H 449.477 -4.37006 2.10128 0
M  V30 4821 N 450.82 -0.546701 -1.47814 0
M  V30 4822 C 451.783 0.196287 -2.28358 0
M  V30 4823 C 452.783 0.852437 -1.36346 0
M  V30 4824 O 453.973 0.709913 -1.59078 0
M  V30 4825 C 451.105 1.28579 -3.15722 0
M  V30 4826 H 452.298 -0.511086 -2.95513 0
M  V30 4827 H 449.851 -0.303248 -1.5333 0
M  V30 4828 H 450.586 2.0259 -2.53235 0
M  V30 4829 H 450.371 0.820229 -3.83425 0
M  V30 4830 H 451.861 1.80793 -3.76435 0
M  V30 4831 N 452.299 1.55045 -0.282633 0
M  V30 4832 C 453.231 2.2023 0.634924 0
M  V30 4833 C 454.244 1.18931 1.11172 0
M  V30 4834 O 455.433 1.4562 1.03233 0
M  V30 4835 C 452.533 2.82041 1.87899 0
M  V30 4836 C 451.706 4.091 1.54776 0
M  V30 4837 C 450.765 4.54887 2.64507 0
M  V30 4838 O 449.791 5.20496 2.30375 0
M  V30 4839 N 450.993 4.25659 3.94709 0
M  V30 4840 H 453.758 2.99601 0.0769811 0
M  V30 4841 H 451.319 1.61565 -0.104048 0
M  V30 4842 H 453.311 3.09613 2.60619 0
M  V30 4843 H 451.881 2.06618 2.3458 0
M  V30 4844 H 451.101 3.88736 0.654049 0
M  V30 4845 H 452.389 4.9187 1.30158 0
M  V30 4846 H 451.787 3.7306 4.25256 0
M  V30 4847 H 450.344 4.57984 4.63782 0
M  V30 4848 N 453.777 0.010035 1.57597 0
M  V30 4849 C 455.188 -0.531426 1.78977 0
M  V30 4850 C 455.539 -1.73375 0.918454 0
M  V30 4851 O 454.664 -2.16047 0.123635 0
M  V30 4852 C 455.259 -0.97086 3.24592 0
M  V30 4853 C 453.818 -1.45756 3.47033 0
M  V30 4854 C 452.965 -0.413384 2.74201 0
M  V30 4855 H 455.916 0.236166 1.56933 0
M  V30 4856 H 455.937 -1.83633 3.33255 0
M  V30 4857 H 455.449 -0.0955893 3.87982 0
M  V30 4858 H 453.55 -2.35339 2.88871 0
M  V30 4859 H 453.663 -1.4781 4.55729 0
M  V30 4860 H 452.027 -0.877266 2.39115 0
M  V30 4861 H 452.81 0.453092 3.40297 0
M  V30 4862 N 455.255 -1.55392 -0.262866 0
M  V30 4863 C 456.218 -1.88181 -1.30846 0
M  V30 4864 C 457.218 -0.757079 -1.41862 0
M  V30 4865 O 458.408 -1.02519 -1.40838 0
M  V30 4866 C 455.54 -2.09609 -2.68844 0
M  V30 4867 H 456.733 -2.81659 -1.02997 0
M  V30 4868 H 454.286 -1.48039 -0.501414 0
M  V30 4869 H 455.021 -1.18547 -3.01856 0
M  V30 4870 H 454.806 -2.91508 -2.62231 0
M  V30 4871 H 456.296 -2.36215 -3.44372 0
M  V30 4872 N 456.733 0.527833 -1.48498 0
M  V30 4873 C 457.961 1.30823 -1.6029 0
M  V30 4874 C 458.376 1.86945 -0.263974 0
M  V30 4875 O 457.733 1.6651 0.747034 0
M  V30 4876 C 457.784 2.45756 -2.65116 0
M  V30 4877 O 457.505 1.91946 -3.93813 0
M  V30 4878 C 459.006 3.37543 -2.87367 0
M  V30 4879 H 456.226 0.397763 -0.540394 0
M  V30 4880 H 458.77 0.636529 -1.94341 0
M  V30 4881 H 456.925 3.08806 -2.33917 0
M  V30 4882 H 457.339 2.67195 -4.51339 0
M  V30 4883 H 458.813 4.14532 -3.6451 0
M  V30 4884 H 459.29 3.92905 -1.9627 0
M  V30 4885 H 459.896 2.80283 -3.19878 0
M  V30 4886 N 458.211 1.37122 0.776871 0
M  V30 4887 C 459.141 1.35164 1.90402 0
M  V30 4888 C 460.122 0.221069 1.68657 0
M  V30 4889 O 461.307 0.420642 1.8959 0
M  V30 4890 C 458.437 1.15274 3.27611 0
M  V30 4891 C 457.391 2.25289 3.63908 0
M  V30 4892 C 456.717 1.90527 4.99603 0
M  V30 4893 C 458.017 3.67446 3.71188 0
M  V30 4894 H 459.711 2.29482 1.92297 0
M  V30 4895 H 457.257 1.10465 0.923773 0
M  V30 4896 H 459.21 1.12536 4.06096 0
M  V30 4897 H 457.934 0.174102 3.26136 0
M  V30 4898 H 456.593 2.27174 2.87728 0
M  V30 4899 H 456.241 0.91206 4.94662 0
M  V30 4900 H 455.941 2.64193 5.24858 0
M  V30 4901 H 457.465 1.89367 5.80493 0
M  V30 4902 H 458.879 3.67719 4.39836 0
M  V30 4903 H 457.276 4.40123 4.07936 0
M  V30 4904 H 458.346 4.01443 2.71977 0
M  V30 4905 N 459.689 -1.00246 1.21608 0
M  V30 4906 C 460.914 -1.78167 1.06167 0
M  V30 4907 C 461.339 -1.84138 -0.384035 0
M  V30 4908 O 460.697 -1.28683 -1.27712 0
M  V30 4909 C 460.745 -3.19786 1.66642 0
M  V30 4910 O 459.849 -4.02153 0.913613 0
M  V30 4911 H 459.19 -0.549 0.37349 0
M  V30 4912 H 461.72 -1.25994 1.61204 0
M  V30 4913 H 461.73 -3.70451 1.70969 0
M  V30 4914 H 460.405 -3.14754 2.7185 0
M  V30 4915 H 458.982 -3.60711 0.945635 0
M  V30 4916 N 461.167 -1.02423 -1.1978 0
M  V30 4917 C 462.099 -0.559152 -2.22275 0
M  V30 4918 C 463.112 0.36251 -1.58713 0
M  V30 4919 O 464.301 0.159641 -1.77785 0
M  V30 4920 C 461.401 0.205094 -3.38279 0
M  V30 4921 C 460.574 -0.720361 -4.31427 0
M  V30 4922 C 459.633 -0.00234368 -5.262 0
M  V30 4923 O 458.659 -0.627378 -5.65732 0
M  V30 4924 N 459.861 1.26996 -5.66438 0
M  V30 4925 H 462.626 -1.44064 -2.62804 0
M  V30 4926 H 460.187 -0.902692 -1.34399 0
M  V30 4927 H 462.179 0.694868 -3.9869 0
M  V30 4928 H 460.749 0.987947 -2.96578 0
M  V30 4929 H 459.969 -1.39031 -3.68869 0
M  V30 4930 H 461.257 -1.3495 -4.90577 0
M  V30 4931 H 460.655 1.79858 -5.36347 0
M  V30 4932 H 459.212 1.70432 -6.29123 0
M  V30 4933 N 462.645 1.35699 -0.801477 0
M  V30 4934 C 463.873 2.03157 -0.391768 0
M  V30 4935 C 464.288 1.60412 0.995668 0
M  V30 4936 O 463.645 0.799228 1.64069 0
M  V30 4937 C 463.696 3.58566 -0.459671 0
M  V30 4938 O 463.417 3.99756 -1.7924 0
M  V30 4939 C 464.918 4.4328 -0.0421205 0
M  V30 4940 H 462.138 0.651688 -0.159825 0
M  V30 4941 H 464.682 1.73426 -1.08368 0
M  V30 4942 H 462.837 3.86963 0.183939 0
M  V30 4943 H 463.251 4.94387 -1.75162 0
M  V30 4944 H 464.725 5.51821 -0.140754 0
M  V30 4945 H 465.202 4.27383 1.01196 0
M  V30 4946 H 465.808 4.20168 -0.658687 0
M  V30 4947 N 464.123 0.554532 1.47522 0
M  V30 4948 C 465.372 0.0273458 2.01681 0
M  V30 4949 C 465.685 -1.32962 1.43459 0
M  V30 4950 O 466.891 -1.94657 1.89265 0
M  V30 4951 C 465.347 -0.00159057 3.599 0
M  V30 4952 C 464.955 1.35197 4.27113 0
M  V30 4953 C 466.699 -0.476311 4.21819 0
M  V30 4954 C 464.606 1.28229 5.77331 0
M  V30 4955 H 463.536 0.00645269 0.753972 0
M  V30 4956 H 466.187 0.701985 1.69542 0
M  V30 4957 H 464.569 -0.741821 3.8899 0
M  V30 4958 H 465.743 2.1097 4.09668 0
M  V30 4959 H 464.058 1.76441 3.77171 0
M  V30 4960 H 466.655 -0.5468 5.31897 0
M  V30 4961 H 466.998 -1.4877 3.8881 0
M  V30 4962 H 467.531 0.20898 3.97251 0
M  V30 4963 H 464.27 2.26959 6.14955 0
M  V30 4964 H 463.79 0.566314 5.97121 0
M  V30 4965 H 465.469 0.983226 6.39485 0
M  V30 4966 N 465.601 -1.54893 0.290851 0
M  V30 4967 C 466.847 -2.0023 -0.321867 0
M  V30 4968 C 467.18 -1.179 -1.54316 0
M  V30 4969 O 466.455 -0.25293 -1.92848 0
M  V30 4970 C 466.738 -3.53456 -0.688515 0
M  V30 4971 C 466.591 -4.46532 0.541209 0
M  V30 4972 C 467.91 -4.13057 -1.51895 0
M  V30 4973 H 465.029 -0.727891 -0.115515 0
M  V30 4974 H 467.671 -1.85722 0.400931 0
M  V30 4975 H 465.821 -3.6595 -1.30433 0
M  V30 4976 H 467.493 -4.4596 1.17973 0
M  V30 4977 H 465.736 -4.17545 1.17636 0
M  V30 4978 H 466.407 -5.51475 0.240675 0
M  V30 4979 H 468.883 -4.03937 -0.99872 0
M  V30 4980 H 467.759 -5.20448 -1.74429 0
M  V30 4981 H 468.02 -3.64284 -2.50498 0
M  V30 4982 N 467.08 -0.0183926 -1.57589 0
M  V30 4983 C 468.491 0.521927 -1.79256 0
M  V30 4984 C 468.842 1.72885 -0.927636 0
M  V30 4985 O 467.967 2.15978 -0.135091 0
M  V30 4986 C 468.562 0.953632 -3.25102 0
M  V30 4987 C 467.121 1.43913 -3.47801 0
M  V30 4988 C 466.268 0.398837 -2.74417 0
M  V30 4989 H 469.219 -0.244485 -1.56805 0
M  V30 4990 H 469.24 1.81863 -3.34224 0
M  V30 4991 H 468.752 0.0750123 -3.88028 0
M  V30 4992 H 466.853 2.33804 -2.90115 0
M  V30 4993 H 466.966 1.45391 -4.56507 0
M  V30 4994 H 465.33 0.864572 -2.39577 0
M  V30 4995 H 466.113 -0.471132 -3.40052 0
M  V30 4996 N 468.558 1.5553 0.254621 0
M  V30 4997 C 469.807 1.76202 0.981612 0
M  V30 4998 C 470.12 0.580883 1.86776 0
M  V30 4999 O 471.326 0.670448 2.63092 0
M  V30 5000 C 469.782 3.11921 1.79537 0
M  V30 5001 C 469.39 4.37659 0.956991 0
M  V30 5002 C 471.134 3.41936 2.51555 0
M  V30 5003 C 469.041 5.64411 1.76619 0
M  V30 5004 H 467.971 0.656841 0.370237 0
M  V30 5005 H 470.622 1.81969 0.236556 0
M  V30 5006 H 469.004 3.00241 2.58208 0
M  V30 5007 H 470.178 4.60307 0.21315 0
M  V30 5008 H 468.493 4.14922 0.350497 0
M  V30 5009 H 471.09 4.33849 3.12536 0
M  V30 5010 H 471.433 2.62905 3.22779 0
M  V30 5011 H 471.966 3.54797 1.799 0
M  V30 5012 H 468.705 6.46241 1.09783 0
M  V30 5013 H 468.225 5.45877 2.48551 0
M  V30 5014 H 469.904 6.03386 2.33527 0
M  V30 5015 N 470.036 -0.519951 1.48776 0
M  V30 5016 C 471.276 -1.2856 1.58908 0
M  V30 5017 C 471.64 -1.90212 0.261418 0
M  V30 5018 O 472.841 -2.67746 0.237791 0
M  V30 5019 C 471.112 -2.33836 2.70288 0
M  V30 5020 S 472.671 -3.19992 3.0025 0
M  V30 5021 H 469.489 -0.43717 0.560717 0
M  V30 5022 H 472.091 -0.591205 1.86346 0
M  V30 5023 H 470.795 -1.87041 3.653 0
M  V30 5024 H 470.326 -3.07969 2.44783 0
M  V30 5025 H 472.341 -4.34122 2.40317 0
M  V30 5026 N 471.514 -1.37532 -0.769588 0
M  V30 5027 C 472.444 -1.36172 -1.89682 0
M  V30 5028 C 473.425 -0.23001 -1.68538 0
M  V30 5029 O 474.61 -0.43069 -1.89364 0
M  V30 5030 C 471.74 -1.1701 -3.26995 0
M  V30 5031 C 470.694 -2.27216 -3.62708 0
M  V30 5032 C 470.02 -1.93174 -4.98586 0
M  V30 5033 C 471.32 -3.6941 -3.69234 0
M  V30 5034 H 473.014 -2.30499 -1.91078 0
M  V30 5035 H 470.56 -1.10953 -0.917902 0
M  V30 5036 H 472.513 -1.14688 -4.05493 0
M  V30 5037 H 471.237 -0.191395 -3.26039 0
M  V30 5038 H 469.896 -2.28697 -2.86519 0
M  V30 5039 H 469.544 -0.938281 -4.94171 0
M  V30 5040 H 469.244 -2.66973 -5.23449 0
M  V30 5041 H 470.768 -1.92443 -5.79481 0
M  V30 5042 H 472.182 -3.70047 -4.37879 0
M  V30 5043 H 470.579 -4.4228 -4.05597 0
M  V30 5044 H 471.649 -4.0288 -2.69844 0
M  V30 5045 N 472.992 0.995999 -1.22138 0
M  V30 5046 C 474.403 1.54961 -1.04135 0
M  V30 5047 C 474.754 1.92159 0.396147 0
M  V30 5048 O 473.879 1.74435 1.28069 0
M  V30 5049 C 474.474 2.81581 -1.88408 0
M  V30 5050 C 473.033 3.33396 -1.74712 0
M  V30 5051 C 472.18 2.06509 -1.85066 0
M  V30 5052 H 475.131 0.817436 -1.36028 0
M  V30 5053 H 475.152 3.53822 -1.39966 0
M  V30 5054 H 474.664 2.54476 -2.93025 0
M  V30 5055 H 472.765 3.65416 -0.728159 0
M  V30 5056 H 472.878 4.04208 -2.57202 0
M  V30 5057 H 471.242 2.19925 -1.28472 0
M  V30 5058 H 472.025 1.81804 -2.91208 0
M  V30 5059 N 474.47 1.03057 1.19235 0
M  V30 5060 C 475.747 0.642608 1.84743 0
M  V30 5061 C 476.127 -0.878577 1.91948 0
M  V30 5062 O 475.475 -1.77597 1.43776 0
M  V30 5063 C 475.685 1.30665 3.23616 0
M  V30 5064 C 477.033 1.43098 3.9976 0
M  V30 5065 O 478.057 1.26396 3.3302 0
M  V30 5066 O 476.916 1.70223 5.19313 0
M  V30 5067 H 474.01 0.223573 0.796206 0
M  V30 5068 H 476.556 1.12883 1.26711 0
M  V30 5069 H 475.328 2.34544 3.13217 0
M  V30 5070 H 474.951 0.808405 3.89295 0
M  V30 5071 N 475.948 -1.35272 0.808662 0
M  V30 5072 C 477.173 -2.03477 0.401475 0
M  V30 5073 C 477.598 -1.60537 -0.980279 0
M  V30 5074 O 476.956 -0.78304 -1.63518 0
M  V30 5075 C 477.004 -3.57181 0.495354 0
M  V30 5076 O 476.108 -4.09474 -0.490397 0
M  V30 5077 H 475.449 -0.642561 0.167366 0
M  V30 5078 H 477.979 -1.72824 1.09512 0
M  V30 5079 H 477.989 -4.06356 0.365912 0
M  V30 5080 H 476.664 -3.87784 1.5032 0
M  V30 5081 H 475.241 -3.71516 -0.321023 0
M  V30 5082 N 477.426 -0.562348 -1.47226 0
M  V30 5083 C 478.674 -0.0401371 -2.0206 0
M  V30 5084 C 478.995 1.3165 -1.43852 0
M  V30 5085 O 478.265 1.85976 -0.615599 0
M  V30 5086 H 476.845 -0.0118479 -0.746906 0
M  V30 5087 H 479.507 -0.73352 -1.8057 0
M  V30 5088 H 478.603 0.0441254 -3.12069 0
M  V30 5089 N 478.904 1.54736 -0.299062 0
M  V30 5090 C 479.834 2.26409 0.571085 0
M  V30 5091 C 480.815 1.2629 1.13951 0
M  V30 5092 O 482 1.55059 1.16921 0
M  V30 5093 C 479.13 3.00338 1.74396 0
M  V30 5094 C 478.084 4.07588 1.30599 0
M  V30 5095 C 477.41 4.69222 2.56387 0
M  V30 5096 C 478.71 5.20455 0.438645 0
M  V30 5097 H 480.404 2.99388 -0.0266991 0
M  V30 5098 H 477.95 1.43993 -0.0142812 0
M  V30 5099 H 479.903 3.49198 2.35878 0
M  V30 5100 H 478.627 2.24934 2.36796 0
M  V30 5101 H 477.286 3.59575 0.71424 0
M  V30 5102 H 476.934 3.9046 3.17097 0
M  V30 5103 H 476.634 5.41653 2.27784 0
M  V30 5104 H 478.158 5.20844 3.18675 0
M  V30 5105 H 479.572 5.65221 0.959085 0
M  V30 5106 H 477.969 5.99594 0.246466 0
M  V30 5107 H 479.039 4.8192 -0.536738 0
M  V30 5108 N 480.382 0.0267497 1.57577 0
M  V30 5109 C 481.345 -0.940916 2.08996 0
M  V30 5110 C 482.345 -1.25561 1.00455 0
M  V30 5111 O 483.535 -1.19634 1.26623 0
M  V30 5112 C 480.667 -2.25814 2.55384 0
M  V30 5113 H 481.86 -0.495628 2.95776 0
M  V30 5114 H 479.413 -0.221241 1.54726 0
M  V30 5115 H 480.148 -2.74976 1.71926 0
M  V30 5116 H 479.933 -2.04285 3.34679 0
M  V30 5117 H 481.423 -2.95178 2.95398 0
M  V30 5118 N 481.861 -1.55662 -0.24637 0
M  V30 5119 C 482.771 -1.93495 -1.32653 0
M  V30 5120 C 483.787 -0.835462 -1.5263 0
M  V30 5121 O 484.963 -1.1369 -1.66242 0
M  V30 5122 C 482.028 -2.22242 -2.66101 0
M  V30 5123 C 481.089 -3.45625 -2.54641 0
M  V30 5124 C 480.322 -3.72991 -3.81724 0
M  V30 5125 O 480.545 -3.02421 -4.8363 0
M  V30 5126 O 479.479 -4.66515 -3.80325 0
M  V30 5127 H 483.305 -2.85498 -1.03559 0
M  V30 5128 H 480.89 -1.42551 -0.44717 0
M  V30 5129 H 482.772 -2.42037 -3.44958 0
M  V30 5130 H 481.447 -1.33417 -2.94926 0
M  V30 5131 H 480.354 -3.31136 -1.74067 0
M  V30 5132 H 481.687 -4.34754 -2.3076 0
M  V30 5133 N 483.339 0.512053 -1.4905 0
M  V30 5134 C 484.755 0.84224 -1.35567 0
M  V30 5135 C 484.955 1.97878 -0.380319 0
M  V30 5136 O 484.011 2.51769 0.19201 0
M  V30 5137 C 485.324 1.19286 -2.76028 0
M  V30 5138 C 486.872 1.30171 -2.84648 0
M  V30 5139 C 487.347 1.68568 -4.25851 0
M  V30 5140 N 488.838 1.75638 -4.28609 0
M  V30 5141 C 489.573 2.06769 -5.34821 0
M  V30 5142 N 489.069 2.36201 -6.51292 0
M  V30 5143 N 490.862 2.07927 -5.22229 0
M  V30 5144 H 483.013 -0.237574 -2.11067 0
M  V30 5145 H 485.276 -0.0436747 -0.946993 0
M  V30 5146 H 484.982 0.431199 -3.49047 0
M  V30 5147 H 484.856 2.13889 -3.10695 0
M  V30 5148 H 487.243 2.05411 -2.11873 0
M  V30 5149 H 487.324 0.336457 -2.53578 0
M  V30 5150 H 486.968 0.938824 -4.99148 0
M  V30 5151 H 486.898 2.66174 -4.54377 0
M  V30 5152 H 489.389 1.55097 -3.44606 0
M  V30 5153 H 489.702 2.59112 -7.28066 0
M  V30 5154 H 488.047 2.33681 -6.54536 0
M  V30 5155 H 491.238 1.84403 -4.30248 0
M  V30 5156 H 491.411 2.31856 -6.05101 0
M  V30 5157 N 484.817 1.37938 0.762283 0
M  V30 5158 C 485.727 1.36681 1.90671 0
M  V30 5159 C 486.743 0.265078 1.71969 0
M  V30 5160 O 487.919 0.502055 1.95042 0
M  V30 5161 C 484.984 1.18211 3.25925 0
M  V30 5162 C 484.045 2.3811 3.57214 0
M  V30 5163 C 483.278 2.20512 4.86014 0
M  V30 5164 O 483.501 1.19429 5.57757 0
M  V30 5165 O 482.435 3.08911 5.16583 0
M  V30 5166 H 486.261 2.33091 1.94685 0
M  V30 5167 H 483.846 1.18767 0.906356 0
M  V30 5168 H 485.728 1.09937 4.06807 0
M  V30 5169 H 484.403 0.248807 3.22742 0
M  V30 5170 H 483.31 2.51958 2.76529 0
M  V30 5171 H 484.643 3.30041 3.65149 0
M  V30 5172 N 486.295 -0.989507 1.22664 0
M  V30 5173 C 487.225 -2.09847 1.02404 0
M  V30 5174 C 488.206 -1.70007 -0.0561303 0
M  V30 5175 O 489.391 -1.93906 0.106748 0
M  V30 5176 C 486.521 -3.41996 0.604663 0
M  V30 5177 C 485.475 -3.95699 1.63115 0
M  V30 5178 C 484.801 -5.23936 1.0675 0
M  V30 5179 C 486.101 -4.25999 3.02196 0
M  V30 5180 H 487.795 -2.27054 1.95158 0
M  V30 5181 H 485.341 -1.09111 0.939727 0
M  V30 5182 H 487.294 -4.1899 0.45002 0
M  V30 5183 H 486.018 -3.24626 -0.35855 0
M  V30 5184 H 484.677 -3.2084 1.77362 0
M  V30 5185 H 484.325 -5.02909 0.0955422 0
M  V30 5186 H 484.025 -5.60833 1.75328 0
M  V30 5187 H 485.549 -6.0356 0.924516 0
M  V30 5188 H 486.963 -4.93777 2.91303 0
M  V30 5189 H 485.36 -4.74076 3.67929 0
M  V30 5190 H 486.43 -3.33636 3.51873 0
M  V30 5191 N 487.773 -1.03688 -1.18687 0
M  V30 5192 C 488.721 -0.618292 -2.24232 0
M  V30 5193 C 489.715 0.353045 -1.6568 0
M  V30 5194 O 490.921 0.220749 -1.78641 0
M  V30 5195 H 487.296 -0.181711 -0.729716 0
M  V30 5196 H 489.267 -1.51893 -2.56848 0
M  V30 5197 C 488.016 0.00677342 -3.47699 0
M  V30 5198 H 487.339 -0.731692 -3.93047 0
M  V30 5199 H 488.779 0.262492 -4.23187 0
M  V30 5200 C 487.238 1.25572 -3.12623 0
M  V30 5201 O 487.768 2.34691 -3.26011 0
M  V30 5202 N 485.974 1.14755 -2.66982 0
M  V30 5203 H 485.521 0.259601 -2.56289 0
M  V30 5204 H 485.479 1.98412 -2.43885 0
M  V30 5205 N 489.251 1.34841 -0.815825 0
M  V30 5206 C 490.183 2.28409 -0.190265 0
M  V30 5207 C 491.196 1.50705 0.615771 0
M  V30 5208 O 492.385 1.72822 0.446616 0
M  V30 5209 C 489.485 3.30441 0.752446 0
M  V30 5210 C 488.658 4.37399 -0.00922152 0
M  V30 5211 C 487.717 5.19234 0.853351 0
M  V30 5212 O 486.743 5.68404 0.300919 0
M  V30 5213 N 487.945 5.38248 2.17416 0
M  V30 5214 H 490.71 2.82732 -0.994114 0
M  V30 5215 H 488.271 1.47289 -0.672129 0
M  V30 5216 H 490.263 3.82084 1.33394 0
M  V30 5217 H 488.833 2.76565 1.45707 0
M  V30 5218 H 488.053 3.86567 -0.771979 0
M  V30 5219 H 489.341 5.05992 -0.533807 0
M  V30 5220 H 488.739 4.99961 2.6468 0
M  V30 5221 H 487.296 5.93035 2.70467 0
M  V30 5222 N 490.729 0.570148 1.46925 0
M  V30 5223 C 491.692 -0.159933 2.28641 0
M  V30 5224 C 492.692 -0.830638 1.37685 0
M  V30 5225 O 493.882 -0.684516 1.60187 0
M  V30 5226 C 491.014 -1.2354 3.17727 0
M  V30 5227 H 492.207 0.558035 2.94662 0
M  V30 5228 H 489.76 0.327603 1.52828 0
M  V30 5229 H 490.495 -1.98535 2.56426 0
M  V30 5230 H 490.28 -0.759125 3.84681 0
M  V30 5231 H 491.77 -1.74782 3.79264 0
M  V30 5232 N 492.207 -1.54576 0.307264 0
M  V30 5233 C 493.455 -1.99867 -0.299574 0
M  V30 5234 C 493.776 -1.19714 -1.53927 0
M  V30 5235 O 493.046 -0.29472 -1.9367 0
M  V30 5236 H 491.626 -0.738299 -0.113683 0
M  V30 5237 H 494.288 -1.9032 0.420042 0
M  V30 5238 H 493.384 -3.06901 -0.567283 0
M  V30 5239 N 493.685 -0.035106 -1.57561 0
M  V30 5240 C 494.617 0.973604 -2.07494 0
M  V30 5241 C 495.63 1.28504 -0.999534 0
M  V30 5242 O 496.819 1.24864 -1.27559 0
M  V30 5243 C 493.919 2.29945 -2.48955 0
M  V30 5244 C 493.092 2.1723 -3.79644 0
M  V30 5245 C 492.151 3.328 -4.07592 0
M  V30 5246 O 491.177 3.09418 -4.77754 0
M  V30 5247 N 492.379 4.56779 -3.58236 0
M  V30 5248 H 495.144 0.547525 -2.94656 0
M  V30 5249 H 492.705 0.151515 -1.61189 0
M  V30 5250 H 494.697 3.06097 -2.64739 0
M  V30 5251 H 493.267 2.64173 -1.67126 0
M  V30 5252 H 492.487 1.25768 -3.73599 0
M  V30 5253 H 493.775 2.05945 -4.65257 0
M  V30 5254 H 493.173 4.78668 -3.01485 0
M  V30 5255 H 491.73 5.30079 -3.79288 0
M  V30 5256 N 495.163 1.55791 0.238111 0
M  V30 5257 C 496.073 1.94196 1.31625 0
M  V30 5258 C 497.089 0.843545 1.52185 0
M  V30 5259 O 498.265 1.1457 1.65637 0
M  V30 5260 C 495.33 2.2365 2.64918 0
M  V30 5261 C 494.391 3.46971 2.52804 0
M  V30 5262 C 493.624 3.7501 3.79741 0
M  V30 5263 O 493.847 3.04982 4.82019 0
M  V30 5264 O 492.781 4.68525 3.77846 0
M  V30 5265 H 496.607 2.86044 1.02043 0
M  V30 5266 H 494.192 1.42786 0.439603 0
M  V30 5267 H 496.074 2.43863 3.4367 0
M  V30 5268 H 494.749 1.34979 2.94215 0
M  V30 5269 H 493.656 3.32055 1.72309 0
M  V30 5270 H 494.989 4.35971 2.28451 0
M  V30 5271 N 496.642 -0.504142 1.49319 0
M  V30 5272 C 497.87 -1.28256 1.62351 0
M  V30 5273 C 498.285 -1.86502 0.293682 0
M  V30 5274 O 497.642 -1.67678 -0.720449 0
M  V30 5275 C 497.693 -2.41507 2.68992 0
M  V30 5276 O 497.414 -1.85656 3.96817 0
M  V30 5277 C 498.915 -3.32929 2.927 0
M  V30 5278 H 496.135 -0.389115 0.546654 0
M  V30 5279 H 498.679 -0.605531 1.95329 0
M  V30 5280 H 496.834 -3.05046 2.38801 0
M  V30 5281 H 497.248 -2.59981 4.55533 0
M  V30 5282 H 498.722 -4.0868 3.71058 0
M  V30 5283 H 499.199 -3.89733 2.02496 0
M  V30 5284 H 499.805 -2.75158 3.24296 0
M  V30 5285 N 498.12 -1.38341 -0.754957 0
M  V30 5286 C 499.05 -1.38176 -1.88227 0
M  V30 5287 C 500.031 -0.247873 -1.68284 0
M  V30 5288 O 501.216 -0.45075 -1.88896 0
M  V30 5289 C 498.346 -1.20471 -3.25736 0
M  V30 5290 C 497.3 -2.3105 -3.60278 0
M  V30 5291 C 496.626 -1.98452 -4.96509 0
M  V30 5292 C 497.926 -3.73305 -3.65295 0
M  V30 5293 H 499.62 -2.32512 -1.88622 0
M  V30 5294 H 497.166 -1.1192 -0.906082 0
M  V30 5295 H 499.119 -1.18982 -4.04254 0
M  V30 5296 H 497.843 -0.225965 -3.25817 0
M  V30 5297 H 496.502 -2.31723 -2.84078 0
M  V30 5298 H 496.15 -0.990641 -4.93148 0
M  V30 5299 H 495.85 -2.7251 -5.20588 0
M  V30 5300 H 497.374 -1.98578 -5.77407 0
M  V30 5301 H 498.788 -3.7467 -4.3393 0
M  V30 5302 H 497.185 -4.46557 -4.00883 0
M  V30 5303 H 498.255 -4.05719 -2.65556 0
M  V30 5304 N 499.598 0.982988 -1.23187 0
M  V30 5305 C 500.844 1.72648 -1.06398 0
M  V30 5306 C 501.177 1.90066 0.398561 0
M  V30 5307 O 500.452 1.45105 1.29518 0
M  V30 5308 C 500.735 3.12627 -1.78707 0
M  V30 5309 C 500.588 3.02795 -3.32618 0
M  V30 5310 C 501.907 4.11997 -1.54747 0
M  V30 5311 H 499.026 0.626649 -0.387918 0
M  V30 5312 H 501.668 1.14455 -1.51658 0
M  V30 5313 H 499.818 3.62308 -1.40234 0
M  V30 5314 H 501.49 2.60659 -3.80598 0
M  V30 5315 H 499.733 2.39362 -3.61785 0
M  V30 5316 H 500.404 4.01893 -3.78399 0
M  V30 5317 H 502.88 3.71114 -1.88186 0
M  V30 5318 H 501.756 5.08037 -2.07821 0
M  V30 5319 H 502.017 4.39462 -0.482249 0
M  V30 5320 N 501.076 1.04316 1.18135 0
M  V30 5321 C 502.304 0.768117 1.92113 0
M  V30 5322 C 502.719 -0.675057 1.76319 0
M  V30 5323 O 502.076 -1.46038 1.09449 0
M  V30 5324 C 502.127 1.12808 3.43448 0
M  V30 5325 O 501.848 2.5146 3.58747 0
M  V30 5326 C 503.349 0.8779 4.3452 0
M  V30 5327 H 500.569 0.279937 0.609817 0
M  V30 5328 H 503.113 1.39149 1.49859 0
M  V30 5329 H 501.268 0.549623 3.83481 0
M  V30 5330 H 501.682 2.65313 4.52448 0
M  V30 5331 H 503.156 1.17959 5.39249 0
M  V30 5332 H 503.633 -0.187239 4.38801 0
M  V30 5333 H 504.239 1.43977 4.00188 0
M  V30 5334 N 502.554 -1.34406 0.822964 0
M  V30 5335 C 503.802 -1.97892 0.410245 0
M  V30 5336 C 504.123 -1.65567 -1.03017 0
M  V30 5337 O 503.393 -0.94642 -1.71522 0
M  V30 5338 H 501.973 -0.732049 0.148707 0
M  V30 5339 H 504.635 -1.64043 1.05242 0
M  V30 5340 H 503.731 -3.07579 0.529284 0
M  V30 5341 N 504.032 -0.577932 -1.46621 0
M  V30 5342 C 505.278 -0.0700937 -2.03279 0
M  V30 5343 C 505.633 1.27376 -1.44198 0
M  V30 5344 O 504.926 1.82097 -0.595911 0
M  V30 5345 C 505.12 0.0590832 -3.57351 0
M  V30 5346 C 504.949 -1.2707 -4.31374 0
M  V30 5347 C 503.719 -1.84357 -4.70469 0
M  V30 5348 C 505.917 -2.19278 -4.65211 0
M  V30 5349 N 503.899 -3.11124 -5.29221 0
M  V30 5350 C 505.27 -3.30631 -5.24484 0
M  V30 5351 C 507.325 -2.19018 -4.47142 0
M  V30 5352 C 506.028 -4.41849 -5.67593 0
M  V30 5353 C 508.054 -3.29262 -4.91264 0
M  V30 5354 C 507.416 -4.39335 -5.50604 0
M  V30 5355 H 503.515 -0.0683127 -0.779011 0
M  V30 5356 H 506.099 -0.76978 -1.78836 0
M  V30 5357 H 504.27 0.727929 -3.81518 0
M  V30 5358 H 506.002 0.57087 -4.00653 0
M  V30 5359 H 502.757 -1.37906 -4.53077 0
M  V30 5360 H 503.181 -3.75794 -5.63123 0
M  V30 5361 H 507.823 -1.35191 -4.00604 0
M  V30 5362 H 505.541 -5.26421 -6.13112 0
M  V30 5363 H 509.127 -3.30172 -4.79038 0
M  V30 5364 H 508.007 -5.23233 -5.84121 0
M  V30 5365 N 505.51 1.54411 -0.315457 0
M  V30 5366 C 506.758 2.00023 0.288971 0
M  V30 5367 C 507.079 1.20529 1.5329 0
M  V30 5368 O 506.349 0.304986 1.93511 0
M  V30 5369 H 504.929 0.738891 0.109766 0
M  V30 5370 H 507.591 1.90094 -0.430129 0
M  V30 5371 H 506.687 3.07198 0.550999 0
M  V30 5372 N 506.988 0.0434614 1.5754 0
M  V30 5373 C 508.218 -0.640905 1.96408 0
M  V30 5374 C 508.626 -1.65365 0.919297 0
M  V30 5375 O 507.969 -1.83395 -0.105795 0
M  V30 5376 C 508.031 -1.39141 3.31482 0
M  V30 5377 C 507.695 -0.535375 4.53853 0
M  V30 5378 C 508.692 0.195335 5.19533 0
M  V30 5379 C 506.377 -0.468564 5.0011 0
M  V30 5380 C 508.371 0.981377 6.298 0
M  V30 5381 C 506.058 0.321171 6.10255 0
M  V30 5382 C 507.056 1.04484 6.74961 0
M  V30 5383 O 506.744 1.8216 7.8299 0
M  V30 5384 H 506.476 -0.180584 0.651433 0
M  V30 5385 H 509.03 0.103848 2.05137 0
M  V30 5386 H 507.26 -2.18162 3.19284 0
M  V30 5387 H 508.949 -1.96526 3.55151 0
M  V30 5388 H 509.715 0.15314 4.84758 0
M  V30 5389 H 505.594 -1.02142 4.49542 0
M  V30 5390 H 509.138 1.54674 6.80237 0
M  V30 5391 H 505.035 0.365032 6.44467 0
M  V30 5392 H 505.803 1.74289 7.99728 0
M  V30 5393 N 508.466 -1.55915 -0.229846 0
M  V30 5394 C 509.416 -1.8813 -1.28807 0
M  V30 5395 C 510.4 -0.743621 -1.42685 0
M  V30 5396 O 511.592 -1.00588 -1.4564 0
M  V30 5397 C 508.721 -2.19431 -2.64017 0
M  V30 5398 C 507.807 -3.39569 -2.54074 0
M  V30 5399 N 508.198 -4.58404 -2.13774 0
M  V30 5400 C 506.496 -3.43019 -2.85051 0
M  V30 5401 C 507.197 -5.40557 -2.1488 0
M  V30 5402 N 506.173 -4.80054 -2.55047 0
M  V30 5403 H 509.975 -2.77527 -0.967261 0
M  V30 5404 H 507.489 -1.5637 -0.438433 0
M  V30 5405 H 509.486 -2.40681 -3.40409 0
M  V30 5406 H 508.146 -1.31341 -2.9695 0
M  V30 5407 H 509.157 -4.83716 -1.8504 0
M  V30 5408 H 505.834 -2.65249 -3.22411 0
M  V30 5409 H 507.224 -6.45666 -1.85918 0
M  V30 5410 N 509.944 0.496216 -1.49584 0
M  V30 5411 C 511.169 1.27865 -1.63295 0
M  V30 5412 C 511.594 1.85592 -0.306156 0
M  V30 5413 O 510.952 1.66092 0.726851 0
M  V30 5414 C 511 2.38128 -2.7079 0
M  V30 5415 O 510.104 3.42108 -2.30296 0
M  V30 5416 H 509.445 0.377279 -0.546403 0
M  V30 5417 H 511.975 0.593497 -1.95803 0
M  V30 5418 H 511.985 2.8382 -2.93104 0
M  V30 5419 H 510.66 1.95479 -3.67098 0
M  V30 5420 H 509.237 3.02301 -2.18331 0
M  V30 5421 N 511.423 1.38739 0.74761 0
M  V30 5422 C 512.648 1.38702 1.54197 0
M  V30 5423 C 513.073 -0.019664 1.8809 0
M  V30 5424 O 512.431 -1.00333 1.51006 0
M  V30 5425 C 512.479 2.25492 2.814 0
M  V30 5426 O 511.583 1.67613 3.76802 0
M  V30 5427 H 510.924 0.472863 0.466151 0
M  V30 5428 H 513.454 1.82577 0.923413 0
M  V30 5429 H 513.464 2.39561 3.30264 0
M  V30 5430 H 512.139 3.27727 2.56062 0
M  V30 5431 H 510.716 1.62718 3.35526 0
M  V30 5432 N 512.901 -0.976442 1.23707 0
M  V30 5433 C 514.317 -1.24341 1.00058 0
M  V30 5434 C 514.517 -1.99315 -0.295932 0
M  V30 5435 O 513.573 -2.3123 -1.01435 0
M  V30 5436 C 514.886 -2.03909 2.21001 0
M  V30 5437 C 516.434 -2.17034 2.25534 0
M  V30 5438 C 516.909 -2.99994 3.46075 0
M  V30 5439 N 518.4 -3.07578 3.46338 0
M  V30 5440 C 519.135 -3.72104 4.36264 0
M  V30 5441 N 518.631 -4.3842 5.36432 0
M  V30 5442 N 520.424 -3.69029 4.23998 0
M  V30 5443 H 512.575 -0.47428 2.07037 0
M  V30 5444 H 514.838 -0.272167 0.908091 0
M  V30 5445 H 514.544 -1.56198 3.15111 0
M  V30 5446 H 514.418 -3.04654 2.22409 0
M  V30 5447 H 516.805 -2.63951 1.31961 0
M  V30 5448 H 516.886 -1.15664 2.28156 0
M  V30 5449 H 516.53 -2.53772 4.39957 0
M  V30 5450 H 516.46 -4.01541 3.40694 0
M  V30 5451 H 518.951 -2.60397 2.73865 0
M  V30 5452 H 519.264 -4.85447 6.013 0
M  V30 5453 H 517.609 -4.37116 5.40328 0
M  V30 5454 H 520.8 -3.16392 3.44984 0
M  V30 5455 H 520.973 -4.19034 4.94282 0
M  V30 5456 N 514.379 -1.04941 -1.1758 0
M  V30 5457 C 515.289 -0.658826 -2.25159 0
M  V30 5458 C 516.305 0.318941 -1.71052 0
M  V30 5459 O 517.481 0.171669 -2.00667 0
M  V30 5460 C 514.546 -0.0369522 -3.4668 0
M  V30 5461 C 513.607 -1.06484 -4.15884 0
M  V30 5462 C 512.84 -0.472551 -5.31604 0
M  V30 5463 O 513.063 0.718736 -5.65854 0
M  V30 5464 O 511.997 -1.20557 -5.89703 0
M  V30 5465 H 515.823 -1.55533 -2.60851 0
M  V30 5466 H 513.408 -0.820819 -1.24832 0
M  V30 5467 H 515.29 0.308784 -4.20267 0
M  V30 5468 H 513.965 0.833238 -3.12792 0
M  V30 5469 H 512.872 -1.46253 -3.44327 0
M  V30 5470 H 514.205 -1.9061 -4.53794 0
M  V30 5471 N 515.857 1.33968 -0.830081 0
M  V30 5472 C 516.804 2.29387 -0.255008 0
M  V30 5473 C 517.774 1.53923 0.624243 0
M  V30 5474 O 518.959 1.82262 0.564372 0
M  V30 5475 C 516.099 3.4034 0.571209 0
M  V30 5476 C 515.212 4.30729 -0.331083 0
M  V30 5477 C 514.347 5.2879 0.505389 0
M  V30 5478 C 513.386 6.10819 -0.395843 0
M  V30 5479 N 512.523 7.00948 0.401979 0
M  V30 5480 H 517.363 2.77972 -1.07404 0
M  V30 5481 H 514.9 1.36785 -0.541133 0
M  V30 5482 H 516.858 4.03361 1.06562 0
M  V30 5483 H 515.488 2.9297 1.35529 0
M  V30 5484 H 514.54 3.68507 -0.943759 0
M  V30 5485 H 515.852 4.88181 -1.02377 0
M  V30 5486 H 515.006 5.97297 1.06399 0
M  V30 5487 H 513.745 4.71894 1.23155 0
M  V30 5488 H 512.75 5.41238 -0.966529 0
M  V30 5489 H 513.975 6.69797 -1.12023 0
M  V30 5490 H 511.921 6.46512 1.11168 0
M  V30 5491 H 511.838 7.55643 -0.232167 0
M  V30 5492 H 513.106 7.73774 0.943102 0
M  V30 5493 N 517.335 0.585699 1.46312 0
M  V30 5494 C 518.245 -0.148236 2.34131 0
M  V30 5495 C 519.261 -0.882972 1.49932 0
M  V30 5496 O 520.437 -0.845484 1.82794 0
M  V30 5497 C 517.502 -1.14714 3.27172 0
M  V30 5498 C 516.563 -0.416746 4.27272 0
M  V30 5499 C 515.796 -1.36806 5.15868 0
M  V30 5500 O 516.019 -2.60475 5.07454 0
M  V30 5501 O 514.953 -0.877018 5.95476 0
M  V30 5502 H 518.779 0.572882 2.98248 0
M  V30 5503 H 516.364 0.346082 1.45336 0
M  V30 5504 H 518.246 -1.72303 3.84564 0
M  V30 5505 H 516.921 -1.84967 2.65648 0
M  V30 5506 H 515.828 0.201061 3.73559 0
M  V30 5507 H 517.161 0.244872 4.9159 0
M  V30 5508 N 518.813 -1.54241 0.323641 0
M  V30 5509 C 519.776 -2.22997 -0.529602 0
M  V30 5510 C 520.776 -1.22345 -1.04347 0
M  V30 5511 O 521.966 -1.46924 -0.935889 0
M  V30 5512 C 519.098 -2.93409 -1.73562 0
M  V30 5513 H 520.291 -2.99815 0.0714518 0
M  V30 5514 H 517.844 -1.56121 0.0747258 0
M  V30 5515 H 518.579 -2.20729 -2.37591 0
M  V30 5516 H 518.364 -3.67217 -1.37456 0
M  V30 5517 H 519.854 -3.45794 -2.34128 0
M  V30 5518 N 520.291 -0.0518155 -1.57515 0
M  V30 5519 C 521.238 0.922352 -2.11569 0
M  V30 5520 C 522.208 1.30842 -1.02321 0
M  V30 5521 O 523.393 1.39778 -1.29872 0
M  V30 5522 C 520.533 2.19167 -2.6657 0
M  V30 5523 C 519.646 1.86003 -3.89906 0
M  V30 5524 C 518.781 3.07398 -4.33221 0
M  V30 5525 C 517.82 2.70158 -5.49255 0
M  V30 5526 N 516.957 3.84248 -5.8762 0
M  V30 5527 H 521.797 0.454506 -2.94514 0
M  V30 5528 H 519.334 0.212718 -1.45554 0
M  V30 5529 H 521.292 2.93443 -2.96559 0
M  V30 5530 H 519.922 2.63528 -1.86421 0
M  V30 5531 H 518.974 1.01874 -3.66505 0
M  V30 5532 H 520.286 1.54592 -4.74239 0
M  V30 5533 H 519.44 3.89972 -4.64765 0
M  V30 5534 H 518.179 3.41988 -3.477 0
M  V30 5535 H 517.184 1.86001 -5.17382 0
M  V30 5536 H 518.409 2.36759 -6.36492 0
M  V30 5537 H 516.355 4.18638 -5.05053 0
M  V30 5538 H 516.272 3.56538 -6.66646 0
M  V30 5539 H 517.54 4.6746 -6.2378 0
M  V30 5540 N 521.769 1.56035 0.221574 0
M  V30 5541 C 523.185 1.49026 0.571271 0
M  V30 5542 C 523.385 0.746912 1.87146 0
M  V30 5543 O 522.441 0.286566 2.50869 0
M  V30 5544 C 523.754 2.93579 0.650522 0
M  V30 5545 C 525.302 3.04099 0.741151 0
M  V30 5546 C 525.777 4.5001 0.851747 0
M  V30 5547 N 527.268 4.54053 0.915968 0
M  V30 5548 C 528.003 5.64232 1.02125 0
M  V30 5549 N 527.499 6.84164 1.09049 0
M  V30 5550 N 529.292 5.52084 1.05639 0
M  V30 5551 H 521.443 2.02791 -0.63162 0
M  V30 5552 H 523.706 0.921736 -0.221602 0
M  V30 5553 H 523.412 3.50912 -0.235253 0
M  V30 5554 H 523.286 3.45476 1.51413 0
M  V30 5555 H 525.673 2.4683 1.61737 0
M  V30 5556 H 525.754 2.55371 -0.148128 0
M  V30 5557 H 525.398 5.07896 -0.0200117 0
M  V30 5558 H 525.328 4.96444 1.75644 0
M  V30 5559 H 527.819 3.67683 0.872782 0
M  V30 5560 H 528.132 7.63883 1.1706 0
M  V30 5561 H 526.477 6.86875 1.05962 0
M  V30 5562 H 529.668 4.57317 0.998953 0
M  V30 5563 H 529.841 6.37983 1.13498 0
M  V30 5564 N 523.247 -0.488276 1.49845 0
M  V30 5565 C 524.195 -1.60917 1.67954 0
M  V30 5566 C 525.189 -1.6038 0.54539 0
M  V30 5567 O 526.395 -1.64736 0.7254 0
M  V30 5568 H 522.77 -0.533658 0.529824 0
M  V30 5569 H 524.741 -1.428 2.62013 0
M  V30 5570 C 523.49 -2.98975 1.77509 0
M  V30 5571 H 522.813 -3.00099 2.6416 0
M  V30 5572 H 524.253 -3.76906 1.9421 0
M  V30 5573 C 522.712 -3.3282 0.522745 0
M  V30 5574 O 523.242 -4.00208 -0.345866 0
M  V30 5575 N 521.448 -2.8808 0.381882 0
M  V30 5576 H 520.995 -2.33415 1.08974 0
M  V30 5577 H 520.953 -3.11091 -0.454929 0
M  V30 5578 N 524.725 -1.39134 -0.740242 0
M  V30 5579 C 526.141 -1.20623 -1.0451 0
M  V30 5580 C 526.341 -0.0641651 -2.01398 0
M  V30 5581 O 525.397 0.585843 -2.4561 0
M  V30 5582 C 526.71 -2.53815 -1.6124 0
M  V30 5583 C 528.258 -2.60615 -1.73346 0
M  V30 5584 C 528.733 -3.94015 -2.33486 0
M  V30 5585 N 530.224 -3.95627 -2.40902 0
M  V30 5586 C 530.959 -4.95616 -2.88361 0
M  V30 5587 N 530.455 -6.06003 -3.35756 0
M  V30 5588 N 532.248 -4.82998 -2.87523 0
M  V30 5589 H 524.399 -2.12176 -0.0975576 0
M  V30 5590 H 526.662 -0.942066 -0.105904 0
M  V30 5591 H 526.368 -3.37911 -0.975144 0
M  V30 5592 H 526.242 -2.73162 -2.6012 0
M  V30 5593 H 528.629 -1.76906 -2.36195 0
M  V30 5594 H 528.71 -2.45123 -0.731336 0
M  V30 5595 H 528.354 -4.78153 -1.71267 0
M  V30 5596 H 528.284 -4.06825 -3.34366 0
M  V30 5597 H 530.775 -3.15903 -2.07398 0
M  V30 5598 H 531.088 -6.78215 -3.70464 0
M  V30 5599 H 529.433 -6.09604 -3.33778 0
M  V30 5600 H 532.624 -3.95866 -2.49816 0
M  V30 5601 H 532.797 -5.61072 -3.24196 0
M  V30 5602 N 526.204 0.969867 -1.24223 0
M  V30 5603 C 527.432 1.74756 -1.10761 0
M  V30 5604 C 527.847 1.85713 0.340041 0
M  V30 5605 O 527.204 1.34389 1.23474 0
M  V30 5606 C 527.255 3.16915 -1.73917 0
M  V30 5607 O 526.976 3.06511 -3.13021 0
M  V30 5608 C 528.477 4.11032 -1.66036 0
M  V30 5609 H 525.697 0.548092 -0.387087 0
M  V30 5610 H 528.241 1.2178 -1.64286 0
M  V30 5611 H 526.396 3.66884 -1.244 0
M  V30 5612 H 526.81 3.96079 -3.43834 0
M  V30 5613 H 528.284 5.08446 -2.14911 0
M  V30 5614 H 528.761 4.34785 -0.621159 0
M  V30 5615 H 529.367 3.66972 -2.14969 0
M  V30 5616 N 527.682 1.05563 1.17022 0
M  V30 5617 C 528.929 0.767937 1.87374 0
M  V30 5618 C 529.257 -0.705224 1.81265 0
M  V30 5619 O 528.512 -1.5318 1.21796 0
M  V30 5620 C 528.811 1.19849 3.36706 0
M  V30 5621 C 528.477 2.6745 3.63017 0
M  V30 5622 C 527.139 3.0777 3.69907 0
M  V30 5623 C 529.491 3.62811 3.74189 0
M  V30 5624 C 526.819 4.42307 3.85463 0
M  V30 5625 C 529.171 4.97087 3.91264 0
M  V30 5626 C 527.835 5.37055 3.96394 0
M  V30 5627 H 527.105 0.281008 0.68565 0
M  V30 5628 H 529.752 1.32339 1.38415 0
M  V30 5629 H 528.057 0.562096 3.87747 0
M  V30 5630 H 529.754 0.953038 3.8951 0
M  V30 5631 H 526.344 2.35228 3.58282 0
M  V30 5632 H 530.528 3.32798 3.68183 0
M  V30 5633 H 525.784 4.72769 3.87684 0
M  V30 5634 H 529.958 5.70869 3.9885 0
M  V30 5635 H 527.585 6.41308 4.082 0
M  V30 5636 N 529.16 -1.33526 0.837174 0
M  V30 5637 C 530.406 -1.9813 0.432704 0
M  V30 5638 C 530.739 -1.66168 -1.00508 0
M  V30 5639 O 530.014 -0.94069 -1.70239 0
M  V30 5640 C 530.297 -3.54151 0.651834 0
M  V30 5641 C 530.15 -3.95806 2.13676 0
M  V30 5642 C 531.469 -4.39993 0.0968937 0
M  V30 5643 H 528.588 -0.719713 0.15869 0
M  V30 5644 H 531.23 -1.58193 1.05237 0
M  V30 5645 H 529.38 -3.88301 0.124369 0
M  V30 5646 H 531.052 -3.71921 2.72896 0
M  V30 5647 H 529.295 -3.45599 2.62191 0
M  V30 5648 H 529.966 -5.0447 2.24084 0
M  V30 5649 H 532.442 -4.12479 0.547733 0
M  V30 5650 H 531.318 -5.48186 0.279917 0
M  V30 5651 H 531.579 -4.3066 -0.9992 0
M  V30 5652 N 530.638 -0.59345 -1.46 0
M  V30 5653 C 531.568 0.121192 -2.33185 0
M  V30 5654 C 532.549 0.872977 -1.4599 0
M  V30 5655 O 533.734 0.846321 -1.74789 0
M  V30 5656 C 530.864 1.12844 -3.28456 0
M  V30 5657 C 529.818 0.4908 -4.25177 0
M  V30 5658 C 529.144 1.60529 -5.10034 0
M  V30 5659 C 530.444 -0.578949 -5.19081 0
M  V30 5660 H 532.138 -0.606767 -2.93187 0
M  V30 5661 H 529.684 -0.293242 -1.40983 0
M  V30 5662 H 531.637 1.63684 -3.88311 0
M  V30 5663 H 530.361 1.88681 -2.66584 0
M  V30 5664 H 529.02 0.00339328 -3.666 0
M  V30 5665 H 528.668 2.35359 -4.44539 0
M  V30 5666 H 528.368 1.18422 -5.75543 0
M  V30 5667 H 529.892 2.11623 -5.72755 0
M  V30 5668 H 531.306 -0.155199 -5.7309 0
M  V30 5669 H 529.703 -0.920947 -5.92991 0
M  V30 5670 H 530.773 -1.46109 -4.62364 0
M  V30 5671 N 532.116 1.54067 -0.331816 0
M  V30 5672 C 533.064 2.26105 0.54582 0
M  V30 5673 C 534.058 1.27816 1.11173 0
M  V30 5674 O 535.264 1.45565 1.05882 0
M  V30 5675 H 531.639 0.726363 0.194683 0
M  V30 5676 H 533.61 2.98282 -0.083931 0
M  V30 5677 C 532.359 3.03814 1.69092 0
M  V30 5678 H 531.682 3.79269 1.26473 0
M  V30 5679 H 533.122 3.57453 2.28043 0
M  V30 5680 C 531.581 2.12606 2.61343 0
M  V30 5681 O 532.111 1.71437 3.6328 0
M  V30 5682 N 530.317 1.77925 2.29763 0
M  V30 5683 H 529.864 2.11602 1.46909 0
M  V30 5684 H 529.822 1.1718 2.91747 0
M  V30 5685 N 533.594 0.0601682 1.57485 0
M  V30 5686 C 534.841 -0.611594 1.93043 0
M  V30 5687 C 535.169 -1.70317 0.939274 0
M  V30 5688 O 534.424 -1.95644 -0.046996 0
M  V30 5689 C 534.723 -1.23831 3.35262 0
M  V30 5690 C 534.389 -0.274037 4.50066 0
M  V30 5691 C 533.051 -0.00872394 4.81199 0
M  V30 5692 C 535.403 0.386308 5.19766 0
M  V30 5693 C 532.731 0.924218 5.79375 0
M  V30 5694 C 535.083 1.3075 6.1894 0
M  V30 5695 C 533.747 1.58139 6.48497 0
M  V30 5696 H 533.017 -0.223798 0.706396 0
M  V30 5697 H 535.664 0.128566 1.91068 0
M  V30 5698 H 533.969 -2.05394 3.33647 0
M  V30 5699 H 535.666 -1.76517 3.60059 0
M  V30 5700 H 532.256 -0.491008 4.25778 0
M  V30 5701 H 536.44 0.194436 4.95919 0
M  V30 5702 H 531.696 1.1438 6.00606 0
M  V30 5703 H 535.87 1.82519 6.72056 0
M  V30 5704 H 533.497 2.30593 7.24383 0
M  V30 5705 N 535.072 -1.5615 -0.213296 0
M  V30 5706 C 536.321 -1.78743 -0.93455 0
M  V30 5707 C 536.634 -0.630199 -1.8517 0
M  V30 5708 O 537.84 -0.739966 -2.61222 0
M  V30 5709 C 536.296 -3.16571 -1.71203 0
M  V30 5710 C 535.904 -4.40043 -0.840617 0
M  V30 5711 C 537.648 -3.48485 -2.42401 0
M  V30 5712 C 535.555 -5.68895 -1.61592 0
M  V30 5713 H 534.485 -0.666426 -0.352692 0
M  V30 5714 H 537.136 -1.82532 -0.188227 0
M  V30 5715 H 535.518 -3.06981 -2.50157 0
M  V30 5716 H 536.692 -4.6071 -0.0910326 0
M  V30 5717 H 535.007 -4.15706 -0.240365 0
M  V30 5718 H 537.604 -4.41983 -3.00924 0
M  V30 5719 H 537.947 -2.71371 -3.15695 0
M  V30 5720 H 538.48 -3.59442 -1.7043 0
M  V30 5721 H 535.219 -6.48925 -0.926106 0
M  V30 5722 H 534.739 -5.52275 -2.33991 0
M  V30 5723 H 536.418 -6.09365 -2.17447 0
M  V30 5724 N 536.55 0.480323 -1.50102 0
M  V30 5725 C 537.497 1.57946 -1.6829 0
M  V30 5726 C 538.467 1.57611 -0.524223 0
M  V30 5727 O 539.652 1.75282 -0.753709 0
M  V30 5728 C 536.792 2.95978 -1.77457 0
M  V30 5729 C 535.905 3.06173 -3.04766 0
M  V30 5730 C 535.04 4.35063 -3.04784 0
M  V30 5731 C 534.079 4.38966 -4.26586 0
M  V30 5732 N 533.216 5.59314 -4.24396 0
M  V30 5733 H 538.056 1.41743 -2.62131 0
M  V30 5734 H 535.593 0.689304 -1.2995 0
M  V30 5735 H 537.551 3.76011 -1.80752 0
M  V30 5736 H 536.181 3.10837 -0.870637 0
M  V30 5737 H 535.233 2.19071 -3.10986 0
M  V30 5738 H 536.545 3.04916 -3.9475 0
M  V30 5739 H 535.699 5.23436 -3.06757 0
M  V30 5740 H 534.438 4.38915 -2.12614 0
M  V30 5741 H 533.443 3.48992 -4.24835 0
M  V30 5742 H 534.668 4.36813 -5.19972 0
M  V30 5743 H 532.614 5.63969 -3.35074 0
M  V30 5744 H 532.531 5.5976 -5.08138 0
M  V30 5745 H 533.799 6.49837 -4.30502 0
M  V30 5746 N 538.028 1.39524 0.732853 0
M  V30 5747 C 539.277 1.36175 1.48792 0
M  V30 5748 C 539.59 -0.0388195 1.95561 0
M  V30 5749 O 540.796 -0.194899 2.708 0
M  V30 5750 C 539.252 2.39242 2.68871 0
M  V30 5751 C 538.86 3.85024 2.29042 0
M  V30 5752 C 540.604 2.44972 3.46683 0
M  V30 5753 C 538.511 4.79727 3.45856 0
M  V30 5754 H 537.441 0.506267 0.558757 0
M  V30 5755 H 540.092 1.65181 0.799226 0
M  V30 5756 H 538.474 2.0331 3.39825 0
M  V30 5757 H 539.648 4.30008 1.6562 0
M  V30 5758 H 537.963 3.82609 1.64316 0
M  V30 5759 H 540.56 3.12918 4.33574 0
M  V30 5760 H 540.903 1.4749 3.89297 0
M  V30 5761 H 541.436 2.79808 2.82759 0
M  V30 5762 H 538.175 5.78479 3.08289 0
M  V30 5763 H 537.695 4.39421 4.08251 0
M  V30 5764 H 539.374 4.98731 4.12161 0
M  V30 5765 N 539.506 -0.963266 1.24736 0
M  V30 5766 C 540.917 -1.52145 1.08207 0
M  V30 5767 C 541.268 -1.93142 -0.345061 0
M  V30 5768 O 540.393 -1.77769 -1.23399 0
M  V30 5769 C 540.988 -2.76486 1.95808 0
M  V30 5770 C 539.547 -3.28646 1.8349 0
M  V30 5771 C 538.694 -2.01529 1.90476 0
M  V30 5772 H 541.645 -0.781083 1.38148 0
M  V30 5773 H 541.666 -3.49986 1.49297 0
M  V30 5774 H 541.178 -2.46617 2.99669 0
M  V30 5775 H 539.279 -3.63357 0.824787 0
M  V30 5776 H 539.392 -3.97246 2.67829 0
M  V30 5777 H 537.756 -2.16442 1.34258 0
M  V30 5778 H 538.539 -1.7402 2.95926 0
M  V30 5779 N 540.985 -1.06182 -1.16461 0
M  V30 5780 C 542.231 -0.779015 -1.87241 0
M  V30 5781 C 542.564 0.692715 -1.81425 0
M  V30 5782 O 541.839 1.5074 -1.22913 0
M  V30 5783 C 542.122 -1.2728 -3.36856 0
M  V30 5784 C 541.975 -2.80821 -3.51368 0
M  V30 5785 C 543.294 -0.879799 -4.31216 0
M  V30 5786 H 540.413 -0.284464 -0.679889 0
M  V30 5787 H 543.055 -1.31755 -1.36896 0
M  V30 5788 H 541.205 -0.814673 -3.79862 0
M  V30 5789 H 542.877 -3.34833 -3.17308 0
M  V30 5790 H 541.12 -3.19606 -2.93316 0
M  V30 5791 H 541.791 -3.10435 -4.56436 0
M  V30 5792 H 544.267 -1.27436 -3.96105 0
M  V30 5793 H 543.143 -1.25278 -5.34412 0
M  V30 5794 H 543.404 0.215372 -4.41575 0
M  V30 5795 N 542.463 1.3308 -0.844243 0
M  V30 5796 C 543.709 1.97898 -0.443206 0
M  V30 5797 C 544.042 1.66699 0.99625 0
M  V30 5798 O 543.317 0.949704 1.69738 0
M  V30 5799 C 543.6 3.53801 -0.670606 0
M  V30 5800 C 543.453 3.94667 -2.15772 0
M  V30 5801 C 544.772 4.39936 -0.120226 0
M  V30 5802 H 541.891 0.718861 -0.162504 0
M  V30 5803 H 544.533 1.57633 -1.06075 0
M  V30 5804 H 542.683 3.88229 -0.14496 0
M  V30 5805 H 544.355 3.70469 -2.74865 0
M  V30 5806 H 542.598 3.44203 -2.6402 0
M  V30 5807 H 543.269 5.03275 -2.26757 0
M  V30 5808 H 545.745 4.12183 -0.5696 0
M  V30 5809 H 544.621 5.4803 -0.308984 0
M  V30 5810 H 544.882 4.31184 0.976347 0
M  V30 5811 N 543.941 0.601185 1.45683 0
M  V30 5812 C 545.352 0.179659 1.85834 0
M  V30 5813 C 545.703 -1.26189 1.50236 0
M  V30 5814 O 544.828 -1.95587 0.925987 0
M  V30 5815 C 545.423 0.319277 3.37292 0
M  V30 5816 C 543.982 -0.0475092 3.7637 0
M  V30 5817 C 543.129 0.646692 2.69654 0
M  V30 5818 H 546.08 0.808268 1.36575 0
M  V30 5819 H 546.101 -0.4503 3.77826 0
M  V30 5820 H 545.613 1.36855 3.6317 0
M  V30 5821 H 543.714 -1.0962 3.5611 0
M  V30 5822 H 543.827 0.34168 4.7788 0
M  V30 5823 H 542.191 0.0849971 2.54558 0
M  V30 5824 H 542.974 1.69797 2.98369 0
M  V30 5825 N 545.419 -1.53889 0.339982 0
M  V30 5826 C 546.369 -2.2165 -0.534354 0
M  V30 5827 C 547.353 -1.20266 -1.06887 0
M  V30 5828 O 548.545 -1.45827 -1.00316 0
M  V30 5829 C 545.674 -2.99014 -1.68659 0
M  V30 5830 C 544.76 -4.07751 -1.16618 0
M  V30 5831 N 545.151 -5.04469 -0.366717 0
M  V30 5832 C 543.449 -4.21998 -1.4434 0
M  V30 5833 C 544.15 -5.81638 -0.0847275 0
M  V30 5834 N 543.126 -5.39388 -0.675391 0
M  V30 5835 H 546.928 -2.93781 0.0835562 0
M  V30 5836 H 544.442 -1.61736 0.146665 0
M  V30 5837 H 546.439 -3.46056 -2.32489 0
M  V30 5838 H 545.099 -2.28408 -2.30781 0
M  V30 5839 H 546.11 -5.17899 -0.00811038 0
M  V30 5840 H 542.787 -3.62612 -2.06928 0
M  V30 5841 H 544.177 -6.69563 0.559943 0
M  V30 5842 N 546.897 -0.0685191 -1.57451 0
M  V30 5843 C 547.845 0.917577 -2.13736 0
M  V30 5844 C 548.839 1.31049 -1.07344 0
M  V30 5845 O 550.045 1.28811 -1.25728 0
M  V30 5846 H 546.42 0.313835 -0.683382 0
M  V30 5847 H 548.391 0.417903 -2.95459 0
M  V30 5848 C 547.14 2.17686 -2.71123 0
M  V30 5849 H 546.463 1.88336 -3.52661 0
M  V30 5850 H 547.903 2.84803 -3.14107 0
M  V30 5851 C 546.362 2.9332 -1.65726 0
M  V30 5852 O 546.892 3.86901 -1.08031 0
M  V30 5853 N 545.098 2.56367 -1.36837 0
M  V30 5854 H 544.645 1.80341 -1.83943 0
M  V30 5855 H 544.603 3.07276 -0.665501 0
M  V30 5856 N 548.375 1.56261 0.205012 0
M  V30 5857 C 549.285 1.96944 1.27476 0
M  V30 5858 C 550.301 0.875636 1.50362 0
M  V30 5859 O 551.477 1.18058 1.6317 0
M  V30 5860 C 548.542 2.29219 2.60115 0
M  V30 5861 C 547.603 3.52255 2.45387 0
M  V30 5862 C 546.836 3.8298 3.71701 0
M  V30 5863 O 547.059 3.15138 4.75441 0
M  V30 5864 O 545.993 4.76435 3.67823 0
M  V30 5865 H 549.819 2.88144 0.959527 0
M  V30 5866 H 547.404 1.43686 0.409217 0
M  V30 5867 H 549.286 2.51098 3.3842 0
M  V30 5868 H 547.961 1.4119 2.91285 0
M  V30 5869 H 546.868 3.35635 1.65227 0
M  V30 5870 H 548.201 4.40719 2.19152 0
M  V30 5871 N 549.853 -0.472356 1.50355 0
M  V30 5872 C 551.093 -1.23439 1.62918 0
M  V30 5873 C 551.457 -1.89284 0.321801 0
M  V30 5874 O 552.658 -2.66854 0.322852 0
M  V30 5875 C 550.929 -2.25119 2.7759 0
M  V30 5876 S 552.488 -3.10278 3.10279 0
M  V30 5877 H 549.306 -0.41911 0.574341 0
M  V30 5878 H 551.908 -0.531621 1.88133 0
M  V30 5879 H 550.612 -1.75324 3.71066 0
M  V30 5880 H 550.143 -3.00026 2.54457 0
M  V30 5881 H 552.158 -4.26257 2.54007 0
M  V30 5882 N 551.331 -1.39911 -0.725443 0
M  V30 5883 C 552.556 -1.41137 -1.5197 0
M  V30 5884 C 552.981 -0.010262 -1.88097 0
M  V30 5885 O 552.339 0.979184 -1.52583 0
M  V30 5886 C 552.387 -2.2994 -2.77777 0
M  V30 5887 O 551.491 -1.73586 -3.74088 0
M  V30 5888 H 550.832 -0.480219 -0.458569 0
M  V30 5889 H 553.362 -1.84023 -0.894249 0
M  V30 5890 H 553.372 -2.44785 -3.26411 0
M  V30 5891 H 552.047 -3.31759 -2.50816 0
M  V30 5892 H 550.624 -1.68035 -3.32894 0
M  V30 5893 N 552.809 0.956637 -1.25245 0
M  V30 5894 C 553.719 2.0868 -1.0719 0
M  V30 5895 C 554.735 1.73997 -0.00959074 0
M  V30 5896 O 555.911 2.00301 -0.210104 0
M  V30 5897 C 552.976 3.39754 -0.690526 0
M  V30 5898 C 552.037 3.88316 -1.83055 0
M  V30 5899 C 551.27 5.13134 -1.46728 0
M  V30 5900 O 551.493 5.6925 -0.362029 0
M  V30 5901 O 550.427 5.56356 -2.29677 0
M  V30 5902 H 554.253 2.26813 -2.01965 0
M  V30 5903 H 551.838 1.07098 -1.04165 0
M  V30 5904 H 553.72 4.18543 -0.489871 0
M  V30 5905 H 552.395 3.22896 0.227981 0
M  V30 5906 H 551.302 3.1054 -2.08604 0
M  V30 5907 H 552.635 4.09669 -2.72822 0
M  V30 5908 N 554.287 1.06798 1.15896 0
M  V30 5909 C 555.533 0.788934 1.86825 0
M  V30 5910 C 555.866 -0.683084 1.8179 0
M  V30 5911 O 555.141 -1.50086 1.23711 0
M  V30 5912 C 555.424 1.29065 3.36176 0
M  V30 5913 C 555.277 2.8268 3.49874 0
M  V30 5914 C 556.596 0.902655 4.30744 0
M  V30 5915 H 553.715 0.288066 0.678371 0
M  V30 5916 H 556.357 1.32479 1.36195 0
M  V30 5917 H 554.507 0.834806 3.79425 0
M  V30 5918 H 556.179 3.36511 3.15528 0
M  V30 5919 H 554.422 3.21157 2.91617 0
M  V30 5920 H 555.093 3.12852 4.54783 0
M  V30 5921 H 557.569 1.29535 3.95424 0
M  V30 5922 H 556.445 1.28111 5.3374 0
M  V30 5923 H 556.706 -0.191951 4.41683 0
M  V30 5924 N 555.766 -1.3263 0.851289 0
M  V30 5925 C 556.699 -2.26952 0.238318 0
M  V30 5926 C 557.677 -1.50243 -0.621757 0
M  V30 5927 O 558.861 -1.79378 -0.579298 0
M  V30 5928 C 555.988 -3.32124 -0.664178 0
M  V30 5929 C 555.034 -4.26325 0.122067 0
M  V30 5930 S 555.867 -5.14404 1.48824 0
M  V30 5931 C 557.023 -6.231 0.591372 0
M  V30 5932 H 557.256 -2.78594 1.03791 0
M  V30 5933 H 554.789 -1.4011 0.648731 0
M  V30 5934 H 556.747 -3.93197 -1.17924 0
M  V30 5935 H 555.408 -2.79273 -1.43755 0
M  V30 5936 H 554.601 -5.00821 -0.565181 0
M  V30 5937 H 554.203 -3.69652 0.568602 0
M  V30 5938 H 556.495 -6.77187 -0.205762 0
M  V30 5939 H 557.438 -6.95936 1.30687 0
M  V30 5940 H 557.846 -5.64252 0.167206 0
M  V30 5941 N 557.244 -0.608902 -1.45362 0
M  V30 5942 C 558.469 -0.10921 -2.07112 0
M  V30 5943 C 558.894 1.19779 -1.45033 0
M  V30 5944 O 558.252 1.72961 -0.543527 0
M  V30 5945 C 558.3 0.0155745 -3.60597 0
M  V30 5946 O 557.404 1.06546 -3.98399 0
M  V30 5947 H 556.745 -0.0746619 -0.659789 0
M  V30 5948 H 559.275 -0.839283 -1.86594 0
M  V30 5949 H 559.285 0.213364 -4.07442 0
M  V30 5950 H 557.96 -0.938765 -4.05167 0
M  V30 5951 H 556.537 0.844024 -3.63223 0
M  V30 5952 N 558.722 1.53707 -0.348139 0
M  V30 5953 C 559.67 2.26671 0.521808 0
M  V30 5954 C 560.664 1.28988 1.09811 0
M  V30 5955 O 561.87 1.4668 1.04332 0
M  V30 5956 H 558.245 0.728387 0.186968 0
M  V30 5957 H 560.216 2.98176 -0.115563 0
M  V30 5958 C 558.965 3.05591 1.6586 0
M  V30 5959 H 558.288 3.80589 1.22443 0
M  V30 5960 H 559.728 3.59851 2.24239 0
M  V30 5961 C 558.187 2.15366 2.59073 0
M  V30 5962 O 558.717 1.7528 3.61441 0
M  V30 5963 N 556.923 1.80352 2.27863 0
M  V30 5964 H 556.47 2.13149 1.44656 0
M  V30 5965 H 556.428 1.20268 2.90488 0
M  V30 5966 N 560.2 0.0768682 1.57412 0
M  V30 5967 C 561.133 -0.924685 2.08626 0
M  V30 5968 C 562.111 -1.28792 0.992542 0
M  V30 5969 O 563.295 -1.39634 1.26628 0
M  V30 5970 C 560.422 -2.23131 2.54814 0
M  V30 5971 C 559.468 -2.01928 3.75669 0
M  V30 5972 S 560.301 -1.27397 5.20125 0
M  V30 5973 C 561.457 -2.59329 5.69648 0
M  V30 5974 H 561.69 -0.488928 2.93252 0
M  V30 5975 H 559.223 -0.136014 1.538 0
M  V30 5976 H 561.181 -2.98226 2.82084 0
M  V30 5977 H 559.842 -2.63831 1.70447 0
M  V30 5978 H 559.035 -2.98639 4.05993 0
M  V30 5979 H 558.637 -1.34967 3.48798 0
M  V30 5980 H 560.929 -3.55394 5.76803 0
M  V30 5981 H 561.872 -2.33608 6.68456 0
M  V30 5982 H 562.28 -2.66767 4.9749 0
M  V30 5983 N 561.678 -1.56367 -0.196722 0
M  V30 5984 C 562.924 -1.80796 -0.918725 0
M  V30 5985 C 563.257 -0.650645 -1.82976 0
M  V30 5986 O 562.532 0.348889 -1.91345 0
M  V30 5987 C 562.815 -3.15472 -1.73636 0
M  V30 5988 C 562.668 -4.41693 -0.85015 0
M  V30 5989 C 563.987 -3.46824 -2.70927 0
M  V30 5990 H 561.106 -0.657702 -0.332561 0
M  V30 5991 H 563.748 -1.89086 -0.186186 0
M  V30 5992 H 561.898 -3.08536 -2.36088 0
M  V30 5993 H 563.57 -4.60673 -0.240459 0
M  V30 5994 H 561.813 -4.33517 -0.156785 0
M  V30 5995 H 562.484 -5.32419 -1.45719 0
M  V30 5996 H 564.96 -3.54049 -2.18607 0
M  V30 5997 H 563.836 -4.4218 -3.25219 0
M  V30 5998 H 564.097 -2.70236 -3.49893 0
M  V30 5999 N 563.156 0.464375 -1.50603 0
M  V30 6000 C 564.381 1.24372 -1.65971 0
M  V30 6001 C 564.806 1.84901 -0.345453 0
M  V30 6002 O 564.164 1.67596 0.691457 0
M  V30 6003 C 564.212 2.32331 -2.7578 0
M  V30 6004 O 563.316 3.37146 -2.375 0
M  V30 6005 H 562.657 0.365604 -0.554283 0
M  V30 6006 H 565.187 0.55183 -1.97018 0
M  V30 6007 H 565.197 2.77539 -2.99059 0
M  V30 6008 H 563.872 1.87648 -3.71162 0
M  V30 6009 H 562.449 2.97602 -2.24694 0
M  V30 6010 N 564.634 1.40294 0.718013 0
M  V30 6011 C 565.544 1.42678 1.86226 0
M  V30 6012 C 566.56 0.319655 1.71039 0
M  V30 6013 O 567.736 0.563852 1.93346 0
M  V30 6014 C 564.801 1.2852 3.21999 0
M  V30 6015 C 563.862 2.49354 3.49458 0
M  V30 6016 C 563.095 2.35863 4.78753 0
M  V30 6017 O 563.318 1.37114 5.53675 0
M  V30 6018 O 562.252 3.25189 5.06494 0
M  V30 6019 H 566.078 2.39167 1.87171 0
M  V30 6020 H 563.663 1.2159 0.868112 0
M  V30 6021 H 565.545 1.22824 4.03103 0
M  V30 6022 H 564.22 0.351359 3.21787 0
M  V30 6023 H 563.127 2.60628 2.68373 0
M  V30 6024 H 564.46 3.41491 3.54464 0
M  V30 6025 N 566.112 -0.949982 1.2575 0
M  V30 6026 C 567.06 -2.06869 1.06339 0
M  V30 6027 C 568.054 -1.69399 -0.00708901 0
M  V30 6028 O 569.26 -1.79383 0.148897 0
M  V30 6029 H 565.635 -0.677197 0.326969 0
M  V30 6030 H 567.606 -2.20396 2.01167 0
M  V30 6031 C 566.355 -3.40503 0.703769 0
M  V30 6032 H 565.678 -3.69807 1.51931 0
M  V30 6033 H 567.118 -4.19623 0.607677 0
M  V30 6034 C 565.577 -3.31685 -0.5905 0
M  V30 6035 O 566.107 -3.67085 -1.63131 0
M  V30 6036 N 564.313 -2.84797 -0.577859 0
M  V30 6037 H 563.86 -2.56186 0.26951 0
M  V30 6038 H 563.818 -2.79279 -1.44398 0
M  V30 6039 N 567.59 -1.07411 -1.15328 0
M  V30 6040 C 568.523 -0.63913 -2.19067 0
M  V30 6041 C 569.501 0.343929 -1.58921 0
M  V30 6042 O 570.685 0.250207 -1.86832 0
M  V30 6043 C 567.812 0.0613977 -3.38644 0
M  V30 6044 C 566.858 -0.880201 -4.17318 0
M  V30 6045 S 567.691 -2.38152 -4.79629 0
M  V30 6046 C 568.847 -1.69281 -6.02573 0
M  V30 6047 H 569.08 -1.51799 -2.55626 0
M  V30 6048 H 566.613 -0.888138 -1.26299 0
M  V30 6049 H 568.571 0.459323 -4.07922 0
M  V30 6050 H 567.232 0.916605 -3.00428 0
M  V30 6051 H 566.425 -0.336781 -5.02874 0
M  V30 6052 H 566.027 -1.21854 -3.53592 0
M  V30 6053 H 568.319 -1.00488 -6.70006 0
M  V30 6054 H 569.262 -2.52671 -6.61485 0
M  V30 6055 H 569.67 -1.17053 -5.52231 0
M  V30 6056 N 569.068 1.32177 -0.85831 0
M  V30 6057 C 569.998 2.31282 -0.321041 0
M  V30 6058 C 570.979 1.59841 0.581786 0
M  V30 6059 O 572.164 1.87619 0.501262 0
M  V30 6060 C 569.294 3.4385 0.48832 0
M  V30 6061 C 568.248 4.26799 -0.320391 0
M  V30 6062 C 567.574 5.31164 0.613934 0
M  V30 6063 C 568.874 4.98829 -1.54813 0
M  V30 6064 H 570.568 2.76469 -1.14915 0
M  V30 6065 H 568.114 1.32916 -0.554028 0
M  V30 6066 H 570.067 4.12224 0.874626 0
M  V30 6067 H 568.791 2.97401 1.34983 0
M  V30 6068 H 567.45 3.60077 -0.688497 0
M  V30 6069 H 567.098 4.80967 1.47239 0
M  V30 6070 H 566.798 5.8755 0.0768097 0
M  V30 6071 H 568.322 6.024 0.997336 0
M  V30 6072 H 569.736 5.59864 -1.23392 0
M  V30 6073 H 568.133 5.64957 -2.02346 0
M  V30 6074 H 569.203 4.26483 -2.30739 0
M  V30 6075 N 570.547 0.616602 1.45037 0
M  V30 6076 C 571.787 0.118453 2.04056 0
M  V30 6077 C 572.151 -1.23104 1.47341 0
M  V30 6078 O 573.352 -1.82044 1.97771 0
M  V30 6079 C 571.623 0.0892842 3.57288 0
M  V30 6080 S 573.182 -0.346361 4.37431 0
M  V30 6081 H 570 0.0539728 0.708948 0
M  V30 6082 H 572.602 0.816731 1.77623 0
M  V30 6083 H 571.306 1.07481 3.96076 0
M  V30 6084 H 570.837 -0.630703 3.88311 0
M  V30 6085 H 572.852 -1.59389 4.69904 0
M  V30 6086 N 572.025 -1.5352 0.356285 0
M  V30 6087 C 572.988 -2.24071 -0.482182 0
M  V30 6088 C 573.988 -1.24531 -1.01729 0
M  V30 6089 O 575.178 -1.48876 -0.904513 0
M  V30 6090 C 572.31 -2.97025 -1.67299 0
M  V30 6091 H 573.503 -2.99596 0.135031 0
M  V30 6092 H 571.056 -1.55928 0.107825 0
M  V30 6093 H 571.791 -2.25719 -2.32855 0
M  V30 6094 H 571.576 -3.7005 -1.29636 0
M  V30 6095 H 573.066 -3.50683 -2.26741 0
M  V30 6096 N 573.503 -0.0852151 -1.57369 0
M  V30 6097 C 574.751 0.579658 -1.93609 0
M  V30 6098 C 575.072 1.69332 -0.967043 0
M  V30 6099 O 574.342 1.95892 -0.0174215 0
M  V30 6100 H 572.922 0.217113 -0.714752 0
M  V30 6101 H 575.584 -0.146226 -1.94351 0
M  V30 6102 H 574.68 0.996276 -2.95771 0
M  V30 6103 N 574.981 1.5647 0.188427 0
M  V30 6104 C 576.23 1.80207 0.905995 0
M  V30 6105 C 576.543 0.659579 1.84144 0
M  V30 6106 O 577.749 0.781431 2.60011 0
M  V30 6107 C 576.205 3.19255 1.66145 0
M  V30 6108 C 575.813 4.41324 0.770504 0
M  V30 6109 C 577.557 3.52298 2.36826 0
M  V30 6110 C 575.464 5.71394 1.52521 0
M  V30 6111 H 574.394 0.671953 0.342045 0
M  V30 6112 H 577.045 1.82808 0.159164 0
M  V30 6113 H 575.427 3.10922 2.45242 0
M  V30 6114 H 576.601 4.60797 0.0177261 0
M  V30 6115 H 574.916 4.16035 0.174199 0
M  V30 6116 H 577.513 4.46715 2.93854 0
M  V30 6117 H 577.856 2.76359 3.11338 0
M  V30 6118 H 578.389 3.62108 1.6469 0
M  V30 6119 H 575.128 6.50316 0.82275 0
M  V30 6120 H 574.648 5.55928 2.25175 0
M  V30 6121 H 576.327 6.12747 2.07725 0
M  V30 6122 N 576.459 -0.456382 1.50847 0
M  V30 6123 C 577.389 -1.56025 1.73719 0
M  V30 6124 C 578.37 -1.5967 0.586473 0
M  V30 6125 O 579.555 -1.75702 0.827185 0
M  V30 6126 C 576.685 -2.94251 1.84483 0
M  V30 6127 C 575.639 -3.05471 2.99786 0
M  V30 6128 C 574.965 -4.45489 2.95709 0
M  V30 6129 C 576.265 -2.81318 4.40065 0
M  V30 6130 H 577.959 -1.37138 2.66146 0
M  V30 6131 H 575.505 -0.658299 1.28072 0
M  V30 6132 H 577.458 -3.71417 1.99067 0
M  V30 6133 H 576.182 -3.14328 0.886891 0
M  V30 6134 H 574.841 -2.30741 2.84876 0
M  V30 6135 H 574.489 -4.62505 1.97732 0
M  V30 6136 H 574.189 -4.53929 3.73125 0
M  V30 6137 H 575.713 -5.24655 3.12362 0
M  V30 6138 H 577.127 -3.48226 4.55425 0
M  V30 6139 H 575.524 -3.01188 5.19043 0
M  V30 6140 H 576.594 -1.7706 4.51418 0
M  V30 6141 N 577.937 -1.40673 -0.710563 0
M  V30 6142 C 579.185 -1.38947 -1.46759 0
M  V30 6143 C 579.506 0.00572879 -1.94999 0
M  V30 6144 O 578.776 0.961358 -1.70689 0
M  V30 6145 H 577.356 -0.5114 -0.544499 0
M  V30 6146 H 580.018 -1.75773 -0.842012 0
M  V30 6147 H 579.114 -2.06745 -2.33801 0
M  V30 6148 N 579.415 0.9433 -1.26252 0
M  V30 6149 C 580.692 1.66639 -1.02424 0
M  V30 6150 C 581.072 2.06335 0.446006 0
M  V30 6151 O 580.42 1.78551 1.42589 0
M  V30 6152 C 580.63 2.88019 -1.97094 0
M  V30 6153 C 581.978 3.59718 -2.25584 0
M  V30 6154 O 583.002 2.9812 -1.94943 0
M  V30 6155 O 581.861 4.7066 -2.77743 0
M  V30 6156 H 578.955 0.729643 -0.389294 0
M  V30 6157 H 581.501 0.995218 -1.37454 0
M  V30 6158 H 580.273 2.5556 -2.96319 0
M  V30 6159 H 579.896 3.62863 -1.62532 0
M  V30 6160 N 580.893 1.08022 1.14757 0
M  V30 6161 C 582.309 0.807072 1.3769 0
M  V30 6162 C 582.509 -0.585504 1.92806 0
M  V30 6163 O 581.565 -1.34301 2.13821 0
M  V30 6164 C 582.878 1.88651 2.34161 0
M  V30 6165 C 584.426 1.91206 2.47809 0
M  V30 6166 C 584.901 2.98253 3.47576 0
M  V30 6167 N 586.392 2.974 3.55117 0
M  V30 6168 C 587.127 3.76872 4.32152 0
M  V30 6169 N 586.623 4.66212 5.12463 0
M  V30 6170 N 588.416 3.6519 4.27309 0
M  V30 6171 H 580.567 1.97824 0.77326 0
M  V30 6172 H 582.83 0.85826 0.402608 0
M  V30 6173 H 582.536 2.88749 2.00791 0
M  V30 6174 H 582.41 1.75244 3.3402 0
M  V30 6175 H 584.797 0.917564 2.80472 0
M  V30 6176 H 584.878 2.08691 1.47925 0
M  V30 6177 H 584.522 3.97907 3.15646 0
M  V30 6178 H 584.452 2.78014 4.47231 0
M  V30 6179 H 586.943 2.32643 2.97801 0
M  V30 6180 H 587.256 5.23468 5.68508 0
M  V30 6181 H 585.601 4.70257 5.11745 0
M  V30 6182 H 588.792 2.94765 3.63636 0
M  V30 6183 H 588.965 4.27366 4.87095 0
M  V30 6184 N 582.371 -1.3172 0.865308 0
M  V30 6185 C 583.303 -2.27545 0.274906 0
M  V30 6186 C 584.316 -1.52887 -0.559413 0
M  V30 6187 O 585.505 -1.74361 -0.382166 0
M  V30 6188 C 582.605 -3.33006 -0.629286 0
M  V30 6189 C 581.778 -4.37063 0.171553 0
M  V30 6190 C 580.837 -5.22044 -0.660052 0
M  V30 6191 O 579.863 -5.69129 -0.0897527 0
M  V30 6192 N 581.065 -5.45946 -1.97289 0
M  V30 6193 H 583.83 -2.78848 1.09836 0
M  V30 6194 H 581.391 -1.44693 0.726331 0
M  V30 6195 H 583.383 -3.86772 -1.19121 0
M  V30 6196 H 581.953 -2.81782 -1.35342 0
M  V30 6197 H 581.173 -3.83436 0.914919 0
M  V30 6198 H 582.461 -5.03662 0.721235 0
M  V30 6199 H 581.859 -5.0944 -2.45942 0
M  V30 6200 H 580.416 -6.02665 -2.4827 0
M  V30 6201 N 583.85 -0.624285 -1.44708 0
M  V30 6202 C 585.127 -0.0572781 -1.95516 0
M  V30 6203 C 585.507 1.41516 -1.56641 0
M  V30 6204 O 584.855 2.12614 -0.837111 0
M  V30 6205 C 585.065 -0.272944 -3.47931 0
M  V30 6206 C 586.413 -0.162529 -4.24289 0
M  V30 6207 O 587.437 -0.203946 -3.55616 0
M  V30 6208 O 586.296 -0.0616847 -5.46465 0
M  V30 6209 H 583.389 0.0262219 -0.826584 0
M  V30 6210 H 585.936 -0.695512 -1.54793 0
M  V30 6211 H 584.707 -1.29492 -3.69253 0
M  V30 6212 H 584.331 0.399756 -3.95585 0
M  V30 6213 N 585.328 1.53329 -0.364422 0
M  V30 6214 C 586.291 2.24323 0.470292 0
M  V30 6215 C 587.291 1.25068 1.01067 0
M  V30 6216 O 588.481 1.49354 0.896605 0
M  V30 6217 C 585.613 2.97908 1.65722 0
M  V30 6218 H 586.806 2.9952 -0.150917 0
M  V30 6219 H 584.359 1.55868 -0.116092 0
M  V30 6220 H 585.094 2.2695 2.31655 0
M  V30 6221 H 584.879 3.70732 1.27671 0
M  V30 6222 H 586.369 3.5188 2.24878 0
M  V30 6223 N 586.806 0.0935595 1.57322 0
M  V30 6224 C 588.046 -0.573901 1.96178 0
M  V30 6225 C 588.41 -1.65445 0.97426 0
M  V30 6226 O 589.611 -2.37901 1.25126 0
M  V30 6227 C 587.882 -1.11612 3.39526 0
M  V30 6228 S 589.441 -1.79566 4.00377 0
M  V30 6229 H 586.259 -0.187315 0.685882 0
M  V30 6230 H 588.861 0.172597 1.94737 0
M  V30 6231 H 587.565 -0.31815 4.09165 0
M  V30 6232 H 587.096 -1.89848 3.4456 0
M  V30 6233 H 589.111 -3.07978 3.89056 0
M  V30 6234 N 588.284 -1.56567 -0.180126 0
M  V30 6235 C 589.194 -1.98947 -1.24327 0
M  V30 6236 C 590.21 -0.899446 -1.4895 0
M  V30 6237 O 591.386 -1.20639 -1.61271 0
M  V30 6238 C 588.451 -2.33328 -2.56435 0
M  V30 6239 C 587.512 -3.56114 -2.39752 0
M  V30 6240 C 586.745 -3.88845 -3.65561 0
M  V30 6241 O 586.968 -3.22662 -4.70368 0
M  V30 6242 O 585.902 -4.82226 -3.60197 0
M  V30 6243 H 589.728 -2.89634 -0.913565 0
M  V30 6244 H 587.313 -1.44319 -0.386306 0
M  V30 6245 H 589.195 -2.5645 -3.34382 0
M  V30 6246 H 587.87 -1.45806 -2.89002 0
M  V30 6247 H 586.777 -3.38221 -1.59866 0
M  V30 6248 H 588.11 -4.4415 -2.12113 0
M  V30 6249 N 589.762 0.448376 -1.51087 0
M  V30 6250 C 591.01 1.19635 -1.62886 0
M  V30 6251 C 591.331 1.91977 -0.342024 0
M  V30 6252 O 590.601 1.85094 0.641636 0
M  V30 6253 H 589.181 0.444598 -0.600285 0
M  V30 6254 H 591.843 0.515138 -1.87969 0
M  V30 6255 H 590.939 1.93194 -2.45117 0
M  V30 6256 N 591.24 1.41047 0.703093 0
M  V30 6257 C 592.517 1.30493 1.45708 0
M  V30 6258 C 592.897 -0.0709892 2.10981 0
M  V30 6259 O 592.245 -1.08471 2.01113 0
M  V30 6260 C 592.455 2.45287 2.48265 0
M  V30 6261 C 593.803 2.86104 3.13735 0
M  V30 6262 O 594.827 2.44971 2.58587 0
M  V30 6263 O 593.686 3.57206 4.13601 0
M  V30 6264 H 590.78 0.513144 0.648546 0
M  V30 6265 H 593.326 1.52995 0.734208 0
M  V30 6266 H 592.098 3.37135 1.98635 0
M  V30 6267 H 591.721 2.24622 3.28071 0
M  V30 6268 N 592.718 -0.936591 1.26751 0
M  V30 6269 C 593.943 -1.72288 1.15462 0
M  V30 6270 C 594.368 -1.85915 -0.285887 0
M  V30 6271 O 593.726 -1.35272 -1.20711 0
M  V30 6272 C 593.774 -3.10503 1.83359 0
M  V30 6273 O 592.878 -3.96745 1.1255 0
M  V30 6274 H 592.219 -0.52843 0.402067 0
M  V30 6275 H 594.749 -1.17271 1.67656 0
M  V30 6276 H 594.759 -3.60867 1.90365 0
M  V30 6277 H 593.434 -2.99901 2.88153 0
M  V30 6278 H 592.011 -3.55191 1.13551 0
M  V30 6279 N 594.196 -1.08629 -1.14182 0
M  V30 6280 C 595.444 -0.815731 -1.84906 0
M  V30 6281 C 595.765 0.660441 -1.83475 0
M  V30 6282 O 595.035 1.47888 -1.28476 0
M  V30 6283 H 593.615 -0.298773 -0.684648 0
M  V30 6284 H 596.277 -1.37274 -1.38354 0
M  V30 6285 H 595.373 -1.16193 -2.89665 0
M  V30 6286 N 595.674 1.31259 -0.872281 0
M  V30 6287 C 596.922 1.96233 -0.483409 0
M  V30 6288 C 597.243 1.69276 0.968012 0
M  V30 6289 O 596.513 1.00943 1.67891 0
M  V30 6290 H 595.093 0.726025 -0.175774 0
M  V30 6291 H 597.755 1.60024 -1.11258 0
M  V30 6292 H 596.851 3.05403 -0.643075 0
M  V30 6293 N 597.152 0.631951 1.44375 0
M  V30 6294 C 598.563 0.219036 1.85411 0
M  V30 6295 C 598.914 -1.22974 1.52879 0
M  V30 6296 O 598.039 -1.93579 0.967266 0
M  V30 6297 C 598.634 0.39075 3.36539 0
M  V30 6298 C 597.193 0.0323351 3.76386 0
M  V30 6299 C 596.34 0.703744 2.68221 0
M  V30 6300 H 599.291 0.837056 1.3483 0
M  V30 6301 H 599.312 -0.370056 3.78696 0
M  V30 6302 H 598.824 1.44527 3.60185 0
M  V30 6303 H 596.925 -1.02042 3.58355 0
M  V30 6304 H 597.038 0.442969 4.77048 0
M  V30 6305 H 595.402 0.138974 2.54321 0
M  V30 6306 H 596.185 1.76088 2.947 0
M  V30 6307 N 598.631 -1.53133 0.372548 0
M  V30 6308 C 599.564 -2.22328 -0.514361 0
M  V30 6309 C 600.542 -1.21776 -1.07747 0
M  V30 6310 O 601.726 -1.50704 -1.13228 0
M  V30 6311 C 598.853 -2.92343 -1.71035 0
M  V30 6312 C 597.899 -4.07026 -1.27405 0
M  V30 6313 S 598.732 -5.34821 -0.269526 0
M  V30 6314 C 599.888 -6.08352 -1.47168 0
M  V30 6315 H 600.121 -2.9721 0.0732683 0
M  V30 6316 H 597.654 -1.53603 0.156673 0
M  V30 6317 H 599.612 -3.33296 -2.39634 0
M  V30 6318 H 598.273 -2.17173 -2.26925 0
M  V30 6319 H 597.466 -4.55056 -2.16656 0
M  V30 6320 H 597.068 -3.68001 -0.66719 0
M  V30 6321 H 599.36 -6.33507 -2.40157 0
M  V30 6322 H 600.303 -7.0053 -1.03263 0
M  V30 6323 H 600.711 -5.38893 -1.6809 0
M  V30 6324 N 600.109 -0.101901 -1.5727 0
M  V30 6325 C 601.355 0.561027 -1.94885 0
M  V30 6326 C 601.688 1.6741 -0.984258 0
M  V30 6327 O 600.963 1.94491 -0.0184767 0
M  V30 6328 C 601.246 1.10982 -3.42571 0
M  V30 6329 C 601.099 0.00133418 -4.498 0
M  V30 6330 C 602.418 2.00608 -3.9172 0
M  V30 6331 H 599.537 0.202467 -0.708644 0
M  V30 6332 H 602.179 -0.173992 -1.89202 0
M  V30 6333 H 600.329 1.73621 -3.47546 0
M  V30 6334 H 602.001 -0.63322 -4.56933 0
M  V30 6335 H 600.244 -0.664143 -4.28686 0
M  V30 6336 H 600.915 0.426253 -5.50352 0
M  V30 6337 H 603.391 1.47864 -3.88941 0
M  V30 6338 H 602.267 2.3593 -4.95609 0
M  V30 6339 H 602.528 2.92608 -3.3141 0
M  V30 6340 N 601.587 1.56661 0.17182 0
M  V30 6341 C 602.55 1.9549 1.19651 0
M  V30 6342 C 603.55 0.838501 1.37207 0
M  V30 6343 O 604.74 1.10556 1.34622 0
M  V30 6344 C 601.872 2.24927 2.56166 0
M  V30 6345 H 603.065 2.87184 0.864007 0
M  V30 6346 H 600.618 1.50711 0.41425 0
M  V30 6347 H 601.353 1.35944 2.94431 0
M  V30 6348 H 601.138 3.06301 2.4479 0
M  V30 6349 H 602.628 2.55891 3.30014 0
M  V30 6350 N 603.065 -0.440357 1.51323 0
M  V30 6351 C 604.29 -1.21716 1.67928 0
M  V30 6352 C 604.715 -1.84328 0.374826 0
M  V30 6353 O 604.073 -1.68675 -0.664706 0
M  V30 6354 C 604.121 -2.27914 2.79442 0
M  V30 6355 O 603.225 -3.33325 2.42834 0
M  V30 6356 H 602.566 -0.35674 0.560029 0
M  V30 6357 H 605.096 -0.520417 1.97871 0
M  V30 6358 H 605.106 -2.72746 3.03436 0
M  V30 6359 H 603.781 -1.8172 3.741 0
M  V30 6360 H 602.358 -2.9399 2.294 0
M  V30 6361 N 604.543 -1.41418 -0.695603 0
M  V30 6362 C 605.79 -1.40774 -1.45564 0
M  V30 6363 C 606.118 -0.0168604 -1.94493 0
M  V30 6364 O 605.373 0.971259 -1.69897 0
M  V30 6365 C 605.672 -2.36112 -2.68302 0
M  V30 6366 C 605.338 -3.82952 -2.38031 0
M  V30 6367 C 604 -4.22954 -2.29486 0
M  V30 6368 C 606.352 -4.75662 -2.13061 0
M  V30 6369 C 603.68 -5.53674 -1.94067 0
M  V30 6370 C 606.032 -6.06702 -1.79151 0
M  V30 6371 C 604.696 -6.45725 -1.69102 0
M  V30 6372 H 603.966 -0.515128 -0.532658 0
M  V30 6373 H 606.613 -1.74216 -0.795047 0
M  V30 6374 H 604.918 -1.95924 -3.39295 0
M  V30 6375 H 606.615 -2.32887 -3.26442 0
M  V30 6376 H 603.205 -3.5127 -2.45576 0
M  V30 6377 H 607.389 -4.45561 -2.18608 0
M  V30 6378 H 602.645 -5.8279 -1.8484 0
M  V30 6379 H 606.819 -6.78041 -1.5885 0
M  V30 6380 H 604.446 -7.46929 -1.41426 0
M  V30 6381 N 606.021 0.929856 -1.27246 0
M  V30 6382 C 606.971 2.01629 -1.06442 0
M  V30 6383 C 607.955 1.60899 0.00687842 0
M  V30 6384 O 609.147 1.75733 -0.211407 0
M  V30 6385 C 606.276 3.35849 -0.711361 0
M  V30 6386 C 605.362 3.8303 -1.82069 0
M  V30 6387 N 605.753 4.02743 -3.05993 0
M  V30 6388 C 604.051 4.12046 -1.70687 0
M  V30 6389 C 604.752 4.42001 -3.78167 0
M  V30 6390 N 603.728 4.4935 -3.05918 0
M  V30 6391 H 607.53 2.14898 -2.00489 0
M  V30 6392 H 605.044 1.11654 -1.17929 0
M  V30 6393 H 607.041 4.13343 -0.543442 0
M  V30 6394 H 605.701 3.23944 0.221517 0
M  V30 6395 H 606.712 3.89112 -3.41778 0
M  V30 6396 H 603.389 4.08866 -0.844681 0
M  V30 6397 H 604.779 4.6535 -4.84664 0
M  V30 6398 N 607.499 1.09233 1.13605 0
M  V30 6399 C 608.747 0.825525 1.84471 0
M  V30 6400 C 609.068 -0.650702 1.83823 0
M  V30 6401 O 608.338 -1.47204 1.29259 0
M  V30 6402 H 606.918 0.3024 0.683054 0
M  V30 6403 H 609.58 1.38006 1.37624 0
M  V30 6404 H 608.676 1.17727 2.89045 0
M  V30 6405 N 608.977 -1.30795 0.87923 0
M  V30 6406 C 610.205 -2.00527 0.509548 0
M  V30 6407 C 610.62 -1.65944 -0.90045 0
M  V30 6408 O 609.977 -0.893525 -1.5913 0
M  V30 6409 C 610.028 -3.55276 0.667943 0
M  V30 6410 O 609.749 -3.88625 2.02242 0
M  V30 6411 C 611.25 -4.4228 0.300494 0
M  V30 6412 H 608.47 -0.641261 0.197549 0
M  V30 6413 H 611.014 -1.66813 1.18295 0
M  V30 6414 H 609.169 -3.87377 0.0419843 0
M  V30 6415 H 609.583 -4.83334 2.03688 0
M  V30 6416 H 611.057 -5.50061 0.462242 0
M  V30 6417 H 611.534 -4.32556 -0.76106 0
M  V30 6418 H 612.14 -4.15613 0.902536 0
M  V30 6419 N 610.455 -0.639598 -1.44038 0
M  V30 6420 C 611.701 -0.156248 -2.02799 0
M  V30 6421 C 612.056 1.21145 -1.49471 0
M  V30 6422 O 611.349 1.79406 -0.672608 0
M  V30 6423 C 611.543 -0.0925348 -3.5728 0
M  V30 6424 C 611.372 -1.45252 -4.25596 0
M  V30 6425 C 610.142 -2.04145 -4.62226 0
M  V30 6426 C 612.34 -2.38812 -4.55492 0
M  V30 6427 N 610.322 -3.3329 -5.15549 0
M  V30 6428 C 611.693 -3.52578 -5.09989 0
M  V30 6429 C 613.748 -2.37785 -4.3745 0
M  V30 6430 C 612.451 -4.65525 -5.48342 0
M  V30 6431 C 614.477 -3.49802 -4.76857 0
M  V30 6432 C 613.839 -4.62292 -5.31475 0
M  V30 6433 H 609.938 -0.101292 -0.775412 0
M  V30 6434 H 612.522 -0.844938 -1.75411 0
M  V30 6435 H 610.693 0.565459 -3.84262 0
M  V30 6436 H 612.425 0.400426 -4.02714 0
M  V30 6437 H 609.18 -1.56999 -4.4682 0
M  V30 6438 H 609.604 -3.9934 -5.46678 0
M  V30 6439 H 614.246 -1.52061 -3.94509 0
M  V30 6440 H 611.964 -5.51951 -5.90233 0
M  V30 6441 H 615.55 -3.50193 -4.64603 0
M  V30 6442 H 614.43 -5.47536 -5.61403 0
M  V30 6443 N 611.933 1.52934 -0.380664 0
M  V30 6444 C 613.18 2.01467 0.204278 0
M  V30 6445 C 613.508 1.26744 1.47533 0
M  V30 6446 O 612.763 0.353723 1.92477 0
M  V30 6447 C 613.062 3.5349 0.527199 0
M  V30 6448 C 612.728 4.46171 -0.651295 0
M  V30 6449 C 611.39 4.71227 -0.974619 0
M  V30 6450 C 613.742 5.00909 -1.44012 0
M  V30 6451 C 611.07 5.4827 -2.08847 0
M  V30 6452 C 613.422 5.7917 -2.5445 0
M  V30 6453 C 612.086 6.02507 -2.87301 0
M  V30 6454 H 611.356 0.73722 0.0747504 0
M  V30 6455 H 614.003 1.84411 -0.516234 0
M  V30 6456 H 612.308 3.68574 1.32892 0
M  V30 6457 H 614.005 3.88529 0.992283 0
M  V30 6458 H 610.595 4.26829 -0.389276 0
M  V30 6459 H 614.779 4.81485 -1.20357 0
M  V30 6460 H 610.035 5.64567 -2.34679 0
M  V30 6461 H 614.209 6.20588 -3.1598 0
M  V30 6462 H 611.836 6.61989 -3.7373 0
M  V30 6463 N 613.412 0.11024 1.57214 0
M  V30 6464 C 614.342 -0.840002 2.17867 0
M  V30 6465 C 615.323 -1.28352 1.11624 0
M  V30 6466 O 616.508 -1.3477 1.39824 0
M  V30 6467 C 613.638 -2.09349 2.77111 0
M  V30 6468 C 612.592 -1.78807 3.8886 0
M  V30 6469 C 611.918 -3.11112 4.34872 0
M  V30 6470 C 613.218 -1.0632 5.11364 0
M  V30 6471 H 614.912 -0.334608 2.97524 0
M  V30 6472 H 612.458 -0.159502 1.43114 0
M  V30 6473 H 614.411 -2.76275 3.18198 0
M  V30 6474 H 613.135 -2.62198 1.9473 0
M  V30 6475 H 611.794 -1.14273 3.48335 0
M  V30 6476 H 611.442 -3.61877 3.49362 0
M  V30 6477 H 611.142 -2.91453 5.10224 0
M  V30 6478 H 612.666 -3.79171 4.78604 0
M  V30 6479 H 614.08 -1.63383 5.49526 0
M  V30 6480 H 612.477 -0.967876 5.92243 0
M  V30 6481 H 613.547 -0.0484569 4.84876 0
M  V30 6482 N 614.89 -1.56749 -0.16351 0
M  V30 6483 C 616.136 -1.82704 -0.880168 0
M  V30 6484 C 616.469 -0.689311 -1.81555 0
M  V30 6485 O 615.744 0.308224 -1.92042 0
M  V30 6486 C 616.027 -3.19084 -1.66905 0
M  V30 6487 C 615.88 -4.43397 -0.756269 0
M  V30 6488 C 617.199 -3.52493 -2.63509 0
M  V30 6489 H 614.318 -0.664608 -0.318535 0
M  V30 6490 H 616.96 -1.89438 -0.146036 0
M  V30 6491 H 615.11 -3.13475 -2.2949 0
M  V30 6492 H 616.782 -4.61079 -0.14269 0
M  V30 6493 H 615.025 -4.33752 -0.0647944 0
M  V30 6494 H 615.696 -5.3539 -1.34393 0
M  V30 6495 H 618.172 -3.58606 -2.11047 0
M  V30 6496 H 617.048 -4.48979 -3.15767 0
M  V30 6497 H 617.309 -2.77597 -3.44082 0
M  V30 6498 N 616.368 0.432326 -1.51554 0
M  V30 6499 C 617.616 1.17901 -1.64146 0
M  V30 6500 C 617.937 1.91604 -0.362367 0
M  V30 6501 O 617.207 1.85764 0.621968 0
M  V30 6502 H 615.787 0.438206 -0.604966 0
M  V30 6503 H 618.449 0.495172 -1.88505 0
M  V30 6504 H 617.545 1.90584 -2.47152 0
M  V30 6505 N 617.846 1.41785 0.688094 0
M  V30 6506 C 618.776 1.47 1.8142 0
M  V30 6507 C 619.757 0.327881 1.6691 0
M  V30 6508 O 620.942 0.540362 1.86531 0
M  V30 6509 C 618.072 1.35876 3.19617 0
M  V30 6510 C 617.026 2.47976 3.48844 0
M  V30 6511 C 616.352 2.21915 4.86475 0
M  V30 6512 C 617.652 3.90309 3.47068 0
M  V30 6513 H 619.346 2.41247 1.77314 0
M  V30 6514 H 616.892 1.16116 0.851651 0
M  V30 6515 H 618.845 1.38134 3.98117 0
M  V30 6516 H 617.569 0.38116 3.24368 0
M  V30 6517 H 616.228 2.45013 2.72698 0
M  V30 6518 H 615.876 1.2248 4.8786 0
M  V30 6519 H 615.576 2.97037 5.06994 0
M  V30 6520 H 617.1 2.25901 5.67275 0
M  V30 6521 H 618.514 3.94947 4.1556 0
M  V30 6522 H 616.911 4.65175 3.7912 0
M  V30 6523 H 617.981 4.17927 2.45896 0
M  V30 6524 N 619.324 -0.923095 1.27737 0
M  V30 6525 C 620.57 -1.67375 1.14514 0
M  V30 6526 C 620.903 -1.91751 -0.307424 0
M  V30 6527 O 620.178 -1.51119 -1.22447 0
M  V30 6528 C 620.461 -3.03745 1.9342 0
M  V30 6529 C 620.314 -2.86581 3.46686 0
M  V30 6530 C 621.633 -4.04144 1.74228 0
M  V30 6531 H 618.752 -0.607427 0.417374 0
M  V30 6532 H 621.394 -1.07089 1.56946 0
M  V30 6533 H 619.544 -3.55204 1.5736 0
M  V30 6534 H 621.216 -2.42203 3.92601 0
M  V30 6535 H 619.459 -2.21829 3.72793 0
M  V30 6536 H 620.13 -3.83381 3.97143 0
M  V30 6537 H 622.606 -3.61712 2.05678 0
M  V30 6538 H 621.482 -4.97543 2.31824 0
M  V30 6539 H 621.743 -4.36661 0.691373 0
M  V30 6540 N 620.802 -1.09834 -1.13024 0
M  V30 6541 C 622.027 -0.85909 -1.88771 0
M  V30 6542 C 622.452 0.584402 -1.78791 0
M  V30 6543 O 621.81 1.41101 -1.13842 0
M  V30 6544 C 621.858 -1.30427 -3.36186 0
M  V30 6545 O 620.962 -0.465368 -4.09766 0
M  V30 6546 H 620.303 -0.310786 -0.586778 0
M  V30 6547 H 622.833 -1.46355 -1.42973 0
M  V30 6548 H 622.843 -1.2915 -3.8702 0
M  V30 6549 H 621.518 -2.3555 -3.42767 0
M  V30 6550 H 620.095 -0.542814 -3.68928 0
M  V30 6551 N 622.28 1.30327 -0.886154 0
M  V30 6552 C 623.526 1.96764 -0.515312 0
M  V30 6553 C 623.881 1.68675 0.925552 0
M  V30 6554 O 623.174 0.981693 1.6454 0
M  V30 6555 C 623.368 3.49906 -0.728042 0
M  V30 6556 C 623.197 3.92881 -2.18803 0
M  V30 6557 C 621.967 4.18424 -2.83284 0
M  V30 6558 C 624.165 4.05617 -3.16195 0
M  V30 6559 N 622.147 4.47867 -4.19867 0
M  V30 6560 C 623.518 4.38957 -4.37855 0
M  V30 6561 C 625.573 3.88047 -3.11968 0
M  V30 6562 C 624.276 4.56559 -5.55829 0
M  V30 6563 C 626.302 4.06851 -4.29215 0
M  V30 6564 C 625.664 4.40538 -5.49641 0
M  V30 6565 H 621.763 0.74493 -0.237916 0
M  V30 6566 H 624.347 1.57536 -1.14414 0
M  V30 6567 H 622.518 3.88187 -0.128696 0
M  V30 6568 H 624.25 4.03401 -0.323983 0
M  V30 6569 H 621.005 4.1167 -2.34146 0
M  V30 6570 H 621.429 4.66721 -4.90408 0
M  V30 6571 H 626.071 3.61078 -2.19961 0
M  V30 6572 H 623.789 4.8237 -6.4834 0
M  V30 6573 H 627.375 3.94724 -4.27416 0
M  V30 6574 H 626.255 4.54789 -6.38856 0
M  V30 6575 N 623.758 0.647228 1.43697 0
M  V30 6576 C 625.006 0.157876 2.01482 0
M  V30 6577 C 625.327 -1.23039 1.51282 0
M  V30 6578 O 624.597 -1.82071 0.722982 0
M  V30 6579 H 623.177 0.0553745 0.744945 0
M  V30 6580 H 625.839 0.83755 1.75986 0
M  V30 6581 H 624.935 0.137895 3.11795 0
M  V30 6582 N 625.236 -1.5273 0.388769 0
M  V30 6583 C 626.146 -2.30165 -0.453993 0
M  V30 6584 C 627.162 -1.37058 -1.07197 0
M  V30 6585 O 628.338 -1.70127 -1.0779 0
M  V30 6586 C 625.403 -3.09303 -1.56628 0
M  V30 6587 C 624.464 -4.18117 -0.973467 0
M  V30 6588 C 623.697 -4.93472 -2.03275 0
M  V30 6589 O 623.92 -4.68913 -3.24772 0
M  V30 6590 O 622.854 -5.78833 -1.65034 0
M  V30 6591 H 626.68 -3.03185 0.176816 0
M  V30 6592 H 624.265 -1.4862 0.152501 0
M  V30 6593 H 626.147 -3.58648 -2.21246 0
M  V30 6594 H 624.822 -2.39098 -2.18206 0
M  V30 6595 H 623.729 -3.7297 -0.290556 0
M  V30 6596 H 625.062 -4.90556 -0.401908 0
M  V30 6597 N 626.714 -0.118576 -1.57153 0
M  V30 6598 C 627.962 0.538461 -1.94795 0
M  V30 6599 C 628.283 1.67243 -1.00274 0
M  V30 6600 O 627.553 1.95811 -0.0589692 0
M  V30 6601 H 626.133 0.201904 -0.719197 0
M  V30 6602 H 628.795 -0.187418 -1.93997 0
M  V30 6603 H 627.891 0.933315 -2.97818 0
M  V30 6604 N 628.193 1.56834 0.155195 0
M  V30 6605 C 629.433 1.84701 0.875488 0
M  V30 6606 C 629.797 0.701747 1.78716 0
M  V30 6607 O 630.998 0.861263 2.54629 0
M  V30 6608 C 629.269 3.1773 1.63654 0
M  V30 6609 S 630.828 3.67128 2.40338 0
M  V30 6610 H 627.646 0.647856 0.292923 0
M  V30 6611 H 630.248 1.95026 0.136024 0
M  V30 6612 H 628.952 3.99059 0.958117 0
M  V30 6613 H 628.483 3.10388 2.41708 0
M  V30 6614 H 630.498 3.35739 3.65368 0
M  V30 6615 N 629.671 -0.424282 1.51781 0
M  V30 6616 C 630.919 -1.17028 1.64769 0
M  V30 6617 C 631.24 -1.91409 0.372523 0
M  V30 6618 O 630.51 -1.86091 -0.612108 0
M  V30 6619 H 629.09 -0.434992 0.607282 0
M  V30 6620 H 631.752 -0.485169 1.88765 0
M  V30 6621 H 630.848 -1.8927 2.4816 0
M  V30 6622 N 631.149 -1.42148 -0.680565 0
M  V30 6623 C 632.079 -1.4796 -1.80638 0
M  V30 6624 C 633.06 -0.336728 -1.66734 0
M  V30 6625 O 634.245 -0.550247 -1.86242 0
M  V30 6626 C 631.375 -1.37569 -3.18892 0
M  V30 6627 C 630.329 -2.49823 -3.47524 0
M  V30 6628 C 629.655 -2.24491 -4.85291 0
M  V30 6629 C 630.955 -3.92144 -3.44994 0
M  V30 6630 H 632.649 -2.42184 -1.76032 0
M  V30 6631 H 630.195 -1.16566 -0.845481 0
M  V30 6632 H 632.148 -1.40243 -3.97379 0
M  V30 6633 H 630.872 -0.398357 -3.24162 0
M  V30 6634 H 629.531 -2.46455 -2.71395 0
M  V30 6635 H 629.179 -1.25066 -4.87204 0
M  V30 6636 H 628.879 -2.99722 -5.05411 0
M  V30 6637 H 630.403 -2.28906 -5.66069 0
M  V30 6638 H 631.817 -3.97145 -4.13459 0
M  V30 6639 H 630.214 -4.67179 -3.76648 0
M  V30 6640 H 631.284 -4.19225 -2.43676 0
M  V30 6641 N 632.627 0.916307 -1.28225 0
M  V30 6642 C 633.557 2.0352 -1.14464 0
M  V30 6643 C 634.538 1.70045 -0.0430844 0
M  V30 6644 O 635.723 1.92954 -0.219619 0
M  V30 6645 C 632.853 3.37889 -0.803027 0
M  V30 6646 C 631.807 3.85516 -1.85908 0
M  V30 6647 C 631.133 5.1682 -1.37116 0
M  V30 6648 C 632.433 4.07655 -3.26519 0
M  V30 6649 H 634.127 2.1529 -2.08064 0
M  V30 6650 H 631.673 1.03446 -1.00174 0
M  V30 6651 H 633.626 4.15654 -0.693537 0
M  V30 6652 H 632.35 3.26164 0.168674 0
M  V30 6653 H 631.009 3.09953 -1.95767 0
M  V30 6654 H 630.657 5.01497 -0.38859 0
M  V30 6655 H 630.357 5.49657 -2.07728 0
M  V30 6656 H 631.881 5.97143 -1.27484 0
M  V30 6657 H 633.295 4.75953 -3.19596 0
M  V30 6658 H 631.692 4.51818 -3.94943 0
M  V30 6659 H 632.762 3.12553 -3.70727 0
M  V30 6660 N 634.105 1.10431 1.1244 0
M  V30 6661 C 635.055 0.722378 2.16254 0
M  V30 6662 C 636.039 -0.268427 1.58645 0
M  V30 6663 O 637.231 -0.077169 1.76832 0
M  V30 6664 C 634.36 0.155763 3.42946 0
M  V30 6665 C 633.446 1.17361 4.07538 0
M  V30 6666 N 633.837 2.36429 4.47141 0
M  V30 6667 C 632.135 1.01412 4.34317 0
M  V30 6668 C 632.836 3.01259 4.97612 0
M  V30 6669 N 631.812 2.28777 4.93115 0
M  V30 6670 H 635.614 1.62876 2.4464 0
M  V30 6671 H 633.128 0.982031 1.29344 0
M  V30 6672 H 635.125 -0.135936 4.16678 0
M  V30 6673 H 633.785 -0.745339 3.1603 0
M  V30 6674 H 634.796 2.73954 4.39511 0
M  V30 6675 H 631.473 0.168574 4.1716 0
M  V30 6676 H 632.863 4.02541 5.37968 0
M  V30 6677 N 635.583 -1.29855 0.893053 0
M  V30 6678 C 636.531 -2.29867 0.355512 0
M  V30 6679 C 637.525 -1.60502 -0.541801 0
M  V30 6680 O 638.731 -1.74902 -0.425339 0
M  V30 6681 H 635.106 -0.745805 0.0963247 0
M  V30 6682 H 637.077 -2.72655 1.21252 0
M  V30 6683 C 635.826 -3.453 -0.407801 0
M  V30 6684 H 635.149 -3.98864 0.273426 0
M  V30 6685 H 636.589 -4.17334 -0.748887 0
M  V30 6686 C 635.048 -2.96051 -1.60795 0
M  V30 6687 O 635.578 -2.96763 -2.7073 0
M  V30 6688 N 633.784 -2.51963 -1.44786 0
M  V30 6689 H 633.331 -2.51583 -0.553498 0
M  V30 6690 H 633.289 -2.1937 -2.2522 0
M  V30 6691 N 637.061 -0.65484 -1.43351 0
M  V30 6692 C 638.291 -0.176429 -2.05845 0
M  V30 6693 C 638.699 1.16375 -1.49176 0
M  V30 6694 O 638.042 1.72981 -0.618322 0
M  V30 6695 C 638.104 -0.0125844 -3.59498 0
M  V30 6696 C 637.768 -1.27831 -4.38758 0
M  V30 6697 C 638.765 -2.2074 -4.70712 0
M  V30 6698 C 636.45 -1.52035 -4.78739 0
M  V30 6699 C 638.444 -3.36145 -5.41558 0
M  V30 6700 C 636.131 -2.67732 -5.49329 0
M  V30 6701 C 637.129 -3.59612 -5.80662 0
M  V30 6702 O 636.817 -4.73289 -6.4981 0
M  V30 6703 H 636.549 -0.0879682 -0.670252 0
M  V30 6704 H 639.103 -0.896193 -1.84818 0
M  V30 6705 H 637.333 0.762567 -3.79107 0
M  V30 6706 H 639.022 0.423392 -4.03686 0
M  V30 6707 H 639.788 -2.03284 -4.40341 0
M  V30 6708 H 635.667 -0.813987 -4.53757 0
M  V30 6709 H 639.211 -4.07881 -5.65932 0
M  V30 6710 H 635.108 -2.85122 -5.79116 0
M  V30 6711 H 635.876 -4.72575 -6.68293 0
M  V30 6712 N 638.539 1.52521 -0.396863 0
M  V30 6713 C 639.787 2.01274 0.182536 0
M  V30 6714 C 640.108 1.28485 1.46685 0
M  V30 6715 O 639.378 0.407134 1.91623 0
M  V30 6716 H 637.958 0.743671 0.0704442 0
M  V30 6717 H 640.62 1.87547 -0.530289 0
M  V30 6718 H 639.716 3.09687 0.387385 0
M  V30 6719 N 640.017 0.126909 1.57088 0
M  V30 6720 C 641.263 -0.529952 1.95753 0
M  V30 6721 C 641.596 -1.65823 1.01077 0
M  V30 6722 O 640.871 -1.94437 0.0494162 0
M  V30 6723 C 641.154 -1.05517 3.44294 0
M  V30 6724 C 641.007 0.0702253 4.49745 0
M  V30 6725 C 642.326 -1.9435 3.94862 0
M  V30 6726 H 639.445 -0.191168 0.711775 0
M  V30 6727 H 642.087 0.204071 1.88901 0
M  V30 6728 H 640.237 -1.68069 3.50264 0
M  V30 6729 H 641.909 0.705834 4.55868 0
M  V30 6730 H 640.152 0.732259 4.27575 0
M  V30 6731 H 640.823 -0.338642 5.5096 0
M  V30 6732 H 643.299 -1.41658 3.91244 0
M  V30 6733 H 642.175 -2.28015 4.993 0
M  V30 6734 H 642.436 -2.87299 3.36024 0
M  V30 6735 N 641.495 -1.56914 -0.146875 0
M  V30 6736 C 642.725 -1.87243 -0.873126 0
M  V30 6737 C 643.133 -0.713127 -1.75246 0
M  V30 6738 O 642.476 0.326228 -1.8078 0
M  V30 6739 C 642.538 -3.12279 -1.78107 0
M  V30 6740 C 642.202 -4.44082 -1.07889 0
M  V30 6741 C 643.199 -5.18096 -0.432734 0
M  V30 6742 C 640.884 -4.90807 -1.06836 0
M  V30 6743 C 642.878 -6.37039 0.214569 0
M  V30 6744 C 640.565 -6.09674 -0.417243 0
M  V30 6745 C 641.563 -6.82636 0.223093 0
M  V30 6746 O 641.251 -7.99245 0.863884 0
M  V30 6747 H 640.983 -0.624896 -0.257839 0
M  V30 6748 H 643.537 -2.04892 -0.14434 0
M  V30 6749 H 641.767 -2.90639 -2.5508 0
M  V30 6750 H 643.456 -3.28854 -2.37929 0
M  V30 6751 H 644.222 -4.83066 -0.432677 0
M  V30 6752 H 640.101 -4.3394 -1.55618 0
M  V30 6753 H 643.645 -6.93927 0.714965 0
M  V30 6754 H 639.542 -6.44165 -0.414967 0
M  V30 6755 H 640.31 -8.14912 0.765564 0
M  V30 6756 N 642.974 0.416227 -1.52004 0
M  V30 6757 C 644.202 1.18573 -1.69553 0
M  V30 6758 C 644.617 1.84472 -0.401919 0
M  V30 6759 O 643.974 1.71593 0.621463 0
M  V30 6760 C 644.025 2.25413 -2.82615 0
M  V30 6761 O 643.746 1.62205 -4.06966 0
M  V30 6762 C 645.247 3.15297 -3.11613 0
M  V30 6763 H 642.467 0.356582 -0.56841 0
M  V30 6764 H 645.011 0.490618 -1.98528 0
M  V30 6765 H 643.166 2.90604 -2.56179 0
M  V30 6766 H 643.58 2.3298 -4.69916 0
M  V30 6767 H 645.054 3.86351 -3.94255 0
M  V30 6768 H 645.531 3.77264 -2.24874 0
M  V30 6769 H 646.137 2.55783 -3.39787 0
M  V30 6770 N 644.452 1.42507 0.673017 0
M  V30 6771 C 645.399 1.46124 1.78651 0
M  V30 6772 C 646.369 0.313007 1.63124 0
M  V30 6773 O 647.554 0.517337 1.83653 0
M  V30 6774 C 644.694 1.3711 3.16694 0
M  V30 6775 C 643.807 2.61983 3.43495 0
M  V30 6776 C 642.942 2.45098 4.71275 0
M  V30 6777 C 641.981 3.65336 4.91117 0
M  V30 6778 N 641.118 3.47383 6.10139 0
M  V30 6779 H 645.958 2.4128 1.74895 0
M  V30 6780 H 643.495 1.19788 0.853766 0
M  V30 6781 H 645.453 1.29881 3.96468 0
M  V30 6782 H 644.083 0.45549 3.1957 0
M  V30 6783 H 643.135 2.79571 2.57961 0
M  V30 6784 H 644.447 3.51355 3.5405 0
M  V30 6785 H 643.601 2.35466 5.59143 0
M  V30 6786 H 642.34 1.53219 4.63007 0
M  V30 6787 H 641.345 3.754 4.0169 0
M  V30 6788 H 642.57 4.58199 5.01229 0
M  V30 6789 H 640.516 2.58222 6.0304 0
M  V30 6790 H 640.433 4.30344 6.21563 0
M  V30 6791 H 641.701 3.41565 7.00681 0
M  V30 6792 N 645.93 -0.909495 1.28709 0
M  V30 6793 C 647.176 -1.66151 1.16283 0
M  V30 6794 C 647.509 -1.92067 -0.287069 0
M  V30 6795 O 646.784 -1.52409 -1.20837 0
M  V30 6796 C 647.067 -3.01676 1.9663 0
M  V30 6797 C 646.92 -2.82888 3.49707 0
M  V30 6798 C 648.239 -4.02274 1.78504 0
M  V30 6799 H 645.358 -0.602966 0.423793 0
M  V30 6800 H 648 -1.05418 1.58073 0
M  V30 6801 H 646.15 -3.53515 1.61119 0
M  V30 6802 H 647.822 -2.38026 3.95147 0
M  V30 6803 H 646.065 -2.17862 3.75125 0
M  V30 6804 H 646.736 -3.79147 4.01187 0
M  V30 6805 H 649.212 -3.59511 2.09503 0
M  V30 6806 H 648.088 -4.95056 2.37088 0
M  V30 6807 H 648.349 -4.35903 0.737647 0
M  V30 6808 N 647.408 -1.11026 -1.11852 0
M  V30 6809 C 648.633 -0.879064 -1.87849 0
M  V30 6810 C 649.058 0.565406 -1.79401 0
M  V30 6811 O 648.416 1.39886 -1.15333 0
M  V30 6812 C 648.464 -1.33985 -3.34784 0
M  V30 6813 O 647.568 -0.508803 -4.09249 0
M  V30 6814 H 646.909 -0.316992 -0.583448 0
M  V30 6815 H 649.439 -1.47863 -1.41413 0
M  V30 6816 H 649.449 -1.33248 -3.85628 0
M  V30 6817 H 648.124 -2.39172 -3.40249 0
M  V30 6818 H 646.701 -0.581913 -3.68332 0
M  V30 6819 N 648.886 1.2938 -0.899927 0
M  V30 6820 C 650.302 1.48052 -0.596059 0
M  V30 6821 C 650.502 1.82114 0.862372 0
M  V30 6822 O 649.558 1.91774 1.64253 0
M  V30 6823 C 650.871 2.59332 -1.52208 0
M  V30 6824 C 652.419 2.73208 -1.5273 0
M  V30 6825 C 652.894 3.87617 -2.43961 0
M  V30 6826 N 654.385 3.9495 -2.42009 0
M  V30 6827 C 655.12 4.82824 -3.09303 0
M  V30 6828 N 654.616 5.75387 -3.85877 0
M  V30 6829 N 656.409 4.76317 -2.98459 0
M  V30 6830 H 648.56 1.05546 -1.8432 0
M  V30 6831 H 650.823 0.524314 -0.78981 0
M  V30 6832 H 650.529 2.41029 -2.56121 0
M  V30 6833 H 650.403 3.56139 -1.24278 0
M  V30 6834 H 652.79 2.90908 -0.495614 0
M  V30 6835 H 652.871 1.76975 -1.84698 0
M  V30 6836 H 652.515 3.70672 -3.47224 0
M  V30 6837 H 652.445 4.83218 -2.09303 0
M  V30 6838 H 654.936 3.28744 -1.86375 0
M  V30 6839 H 655.249 6.39235 -4.34279 0
M  V30 6840 H 653.594 5.75272 -3.89984 0
M  V30 6841 H 656.785 4.0299 -2.38152 0
M  V30 6842 H 656.958 5.44589 -3.51179 0
M  V30 6843 N 650.364 0.662433 1.43002 0
M  V30 6844 C 651.594 0.187343 2.05749 0
M  V30 6845 C 652.002 -1.15582 1.49791 0
M  V30 6846 O 651.345 -1.72651 0.627487 0
M  V30 6847 C 651.407 0.0316493 3.59486 0
M  V30 6848 C 651.071 1.30156 4.38073 0
M  V30 6849 C 652.068 2.23234 4.69535 0
M  V30 6850 C 649.753 1.54572 4.77926 0
M  V30 6851 C 651.747 3.39012 5.39768 0
M  V30 6852 C 649.434 2.70641 5.47902 0
M  V30 6853 C 650.432 3.62687 5.78746 0
M  V30 6854 O 650.12 4.76728 6.47291 0
M  V30 6855 H 649.852 0.0915214 0.669776 0
M  V30 6856 H 652.406 0.905982 1.8434 0
M  V30 6857 H 650.636 -0.742451 3.79506 0
M  V30 6858 H 652.325 -0.401977 4.03905 0
M  V30 6859 H 653.091 2.05616 4.39257 0
M  V30 6860 H 648.97 0.83804 4.53319 0
M  V30 6861 H 652.514 4.10877 5.63761 0
M  V30 6862 H 648.411 2.88189 5.77596 0
M  V30 6863 H 649.179 4.76113 6.65777 0
M  V30 6864 N 651.842 -1.52309 0.404946 0
M  V30 6865 C 652.772 -2.29805 -0.41376 0
M  V30 6866 C 653.753 -1.3384 -1.0498 0
M  V30 6867 O 654.938 -1.62745 -1.05961 0
M  V30 6868 C 652.068 -3.11639 -1.53292 0
M  V30 6869 C 651.022 -4.15616 -1.02211 0
M  V30 6870 C 650.348 -4.8577 -2.23455 0
M  V30 6871 C 651.648 -5.2224 -0.0790725 0
M  V30 6872 H 653.342 -2.98493 0.232878 0
M  V30 6873 H 650.888 -1.43552 0.113441 0
M  V30 6874 H 652.841 -3.64618 -2.11262 0
M  V30 6875 H 651.565 -2.40712 -2.20738 0
M  V30 6876 H 650.224 -3.63641 -0.46484 0
M  V30 6877 H 649.872 -4.11376 -2.89445 0
M  V30 6878 H 649.572 -5.56058 -1.89929 0
M  V30 6879 H 651.096 -5.4156 -2.82038 0
M  V30 6880 H 652.51 -5.70485 -0.567438 0
M  V30 6881 H 650.907 -5.99867 0.167167 0
M  V30 6882 H 651.977 -4.77078 0.867447 0
M  V30 6883 N 653.32 -0.135238 -1.57019 0
M  V30 6884 C 654.597 0.563227 -1.87316 0
M  V30 6885 C 654.977 1.83749 -1.03921 0
M  V30 6886 O 654.325 2.2817 -0.122675 0
M  V30 6887 C 654.535 0.840031 -3.3874 0
M  V30 6888 C 655.883 1.18598 -4.077 0
M  V30 6889 O 656.907 0.92977 -3.43851 0
M  V30 6890 O 655.766 1.66758 -5.20436 0
M  V30 6891 H 652.86 0.285971 -0.775983 0
M  V30 6892 H 655.406 -0.170965 -1.68837 0
M  V30 6893 H 654.178 -0.0622785 -3.9125 0
M  V30 6894 H 653.801 1.62882 -3.62706 0
M  V30 6895 N 654.798 1.5699 0.138552 0
M  V30 6896 C 656.044 1.84966 0.846116 0
M  V30 6897 C 656.399 0.72038 1.78405 0
M  V30 6898 O 655.692 -0.281076 1.89527 0
M  V30 6899 C 655.886 3.17007 1.65049 0
M  V30 6900 C 655.715 4.42672 0.79194 0
M  V30 6901 C 654.485 5.03254 0.454293 0
M  V30 6902 C 656.683 5.14164 0.118419 0
M  V30 6903 N 654.665 6.12482 -0.416964 0
M  V30 6904 C 656.036 6.16966 -0.61263 0
M  V30 6905 C 658.091 4.97884 0.0399671 0
M  V30 6906 C 656.794 7.0525 -1.41473 0
M  V30 6907 C 658.82 5.86639 -0.748901 0
M  V30 6908 C 658.182 6.88929 -1.4682 0
M  V30 6909 H 654.281 0.727362 0.287172 0
M  V30 6910 H 656.865 1.94383 0.110972 0
M  V30 6911 H 655.036 3.08722 2.35681 0
M  V30 6912 H 656.768 3.3286 2.30187 0
M  V30 6913 H 653.523 4.6693 0.792038 0
M  V30 6914 H 653.947 6.7172 -0.843865 0
M  V30 6915 H 658.589 4.18779 0.581728 0
M  V30 6916 H 656.307 7.83777 -1.96772 0
M  V30 6917 H 659.893 5.7611 -0.811705 0
M  V30 6918 H 658.773 7.56419 -2.06882 0
M  V30 6919 N 656.276 -0.40816 1.52223 0
M  V30 6920 C 657.525 -1.15212 1.65557 0
M  V30 6921 C 657.838 -1.9163 0.392096 0
M  V30 6922 O 659.044 -2.68458 0.405256 0
M  V30 6923 C 657.5 -2.09691 2.92502 0
M  V30 6924 C 657.108 -1.38785 4.25961 0
M  V30 6925 C 658.852 -2.8434 3.152 0
M  V30 6926 C 656.759 -2.31919 5.44029 0
M  V30 6927 H 655.689 -0.433776 0.616729 0
M  V30 6928 H 658.34 -0.4165 1.78711 0
M  V30 6929 H 656.722 -2.8681 2.7305 0
M  V30 6930 H 657.896 -0.670248 4.55899 0
M  V30 6931 H 656.211 -0.761741 4.09373 0
M  V30 6932 H 658.808 -3.54166 4.00587 0
M  V30 6933 H 659.151 -3.47344 2.29473 0
M  V30 6934 H 659.684 -2.14321 3.35129 0
M  V30 6935 H 656.423 -1.7356 6.32105 0
M  V30 6936 H 655.943 -3.0165 5.18428 0
M  V30 6937 H 657.622 -2.92424 5.77146 0
M  V30 6938 N 657.755 -1.42862 -0.66545 0
M  V30 6939 C 658.705 -1.43521 -1.7716 0
M  V30 6940 C 659.689 -0.305267 -1.57978 0
M  V30 6941 O 660.881 -0.548176 -1.68297 0
M  V30 6942 C 658.01 -1.34914 -3.15679 0
M  V30 6943 C 657.096 -2.5289 -3.40452 0
M  V30 6944 N 657.487 -3.78284 -3.3576 0
M  V30 6945 C 655.785 -2.47351 -3.71124 0
M  V30 6946 C 656.486 -4.56701 -3.60276 0
M  V30 6947 N 655.462 -3.87249 -3.81496 0
M  V30 6948 H 659.264 -2.38357 -1.7194 0
M  V30 6949 H 656.778 -1.37342 -0.866653 0
M  V30 6950 H 658.775 -1.33468 -3.94958 0
M  V30 6951 H 657.435 -0.410881 -3.2209 0
M  V30 6952 H 658.446 -4.10746 -3.15448 0
M  V30 6953 H 655.123 -1.62152 -3.84725 0
M  V30 6954 H 656.513 -5.65704 -3.6253 0
M  V30 6955 N 659.233 0.902656 -1.29189 0
M  V30 6956 C 660.481 1.6496 -1.16758 0
M  V30 6957 C 660.802 1.92952 0.28188 0
M  V30 6958 O 660.072 1.55351 1.19344 0
M  V30 6959 H 658.652 0.611447 -0.429118 0
M  V30 6960 H 661.314 1.0825 -1.62074 0
M  V30 6961 H 660.41 2.60728 -1.71544 0
M  V30 6962 N 660.711 1.11618 1.11262 0
M  V30 6963 C 661.661 0.745274 2.15475 0
M  V30 6964 C 662.645 -0.251585 1.58921 0
M  V30 6965 O 663.837 -0.0584093 1.76904 0
M  V30 6966 C 660.966 0.192128 3.42762 0
M  V30 6967 C 660.052 1.21676 4.0627 0
M  V30 6968 N 660.443 2.41158 4.44608 0
M  V30 6969 C 658.741 1.06013 4.33217 0
M  V30 6970 C 659.442 3.0652 4.94389 0
M  V30 6971 N 658.418 2.33994 4.9066 0
M  V30 6972 H 662.22 1.65462 2.42898 0
M  V30 6973 H 659.734 0.995695 1.28295 0
M  V30 6974 H 661.731 -0.0917339 4.16799 0
M  V30 6975 H 660.391 -0.711778 3.16802 0
M  V30 6976 H 661.402 2.786 4.3658 0
M  V30 6977 H 658.079 0.212809 4.16957 0
M  V30 6978 H 659.469 4.08225 5.33669 0
M  V30 6979 N 662.189 -1.289 0.906776 0
M  V30 6980 C 663.438 -1.9455 0.532262 0
M  V30 6981 C 663.751 -1.72219 -0.927353 0
M  V30 6982 O 664.957 -2.32033 -1.40971 0
M  V30 6983 C 663.413 -3.48438 0.901041 0
M  V30 6984 C 663.021 -3.79558 2.37991 0
M  V30 6985 C 664.765 -4.20284 0.596777 0
M  V30 6986 C 662.672 -5.26723 2.68918 0
M  V30 6987 H 661.602 -0.728259 0.195333 0
M  V30 6988 H 664.253 -1.46519 1.10474 0
M  V30 6989 H 662.635 -3.95162 0.257419 0
M  V30 6990 H 663.809 -3.43668 3.06967 0
M  V30 6991 H 662.124 -3.20868 2.65391 0
M  V30 6992 H 664.721 -5.28612 0.8046 0
M  V30 6993 H 665.064 -4.13694 -0.465072 0
M  V30 6994 H 665.597 -3.79315 1.19855 0
M  V30 6995 H 662.336 -5.38384 3.73928 0
M  V30 6996 H 661.856 -5.63836 2.04571 0
M  V30 6997 H 663.535 -5.94391 2.55555 0
M  V30 6998 N 663.667 -0.670007 -1.42649 0
M  V30 6999 C 665.083 -0.33911 -1.55956 0
M  V30 7000 C 665.283 1.1558 -1.65056 0
M  V30 7001 O 664.339 1.94111 -1.61485 0
M  V30 7002 C 665.652 -1.06522 -2.812 0
M  V30 7003 C 667.2 -1.04708 -2.94966 0
M  V30 7004 C 667.675 -1.75442 -4.23065 0
M  V30 7005 N 669.166 -1.72286 -4.29967 0
M  V30 7006 C 669.901 -2.23877 -5.27889 0
M  V30 7007 N 669.397 -2.83829 -6.31991 0
M  V30 7008 N 671.19 -2.14279 -5.19654 0
M  V30 7009 H 663.341 -1.6399 -1.34986 0
M  V30 7010 H 665.604 -0.690603 -0.649439 0
M  V30 7011 H 665.31 -2.12033 -2.80597 0
M  V30 7012 H 665.184 -0.627398 -3.71946 0
M  V30 7013 H 667.571 -0.000315966 -2.951 0
M  V30 7014 H 667.652 -1.52374 -2.05465 0
M  V30 7015 H 667.296 -2.80084 -4.23693 0
M  V30 7016 H 667.226 -1.25229 -5.11493 0
M  V30 7017 H 669.717 -1.28554 -3.55362 0
M  V30 7018 H 670.03 -3.20827 -7.03057 0
M  V30 7019 H 668.375 -2.87896 -6.32567 0
M  V30 7020 H 671.566 -1.67135 -4.37245 0
M  V30 7021 H 671.739 -2.54792 -5.95806 0
M  V30 7022 N 665.145 1.52092 -0.413018 0
M  V30 7023 C 666.422 1.94356 0.22024 0
M  V30 7024 C 666.802 1.35017 1.62277 0
M  V30 7025 O 666.15 0.527511 2.22328 0
M  V30 7026 C 666.36 3.48289 0.222638 0
M  V30 7027 C 667.708 4.22313 0.440098 0
M  V30 7028 O 668.732 3.54919 0.301826 0
M  V30 7029 O 667.591 5.41829 0.712984 0
M  V30 7030 H 664.685 0.814536 0.14304 0
M  V30 7031 H 667.231 1.63083 -0.469242 0
M  V30 7032 H 666.003 3.83872 -0.758836 0
M  V30 7033 H 665.626 3.85934 0.956057 0
M  V30 7034 N 666.623 0.143563 1.56945 0
M  V30 7035 C 667.57 -0.797433 2.16586 0
M  V30 7036 C 668.54 -1.24654 1.09775 0
M  V30 7037 O 669.725 -1.31968 1.37801 0
M  V30 7038 C 666.865 -2.03253 2.78895 0
M  V30 7039 C 665.978 -1.62954 4.00087 0
M  V30 7040 C 665.113 -2.81617 4.50406 0
M  V30 7041 C 664.152 -2.37675 5.64072 0
M  V30 7042 N 663.289 -3.49335 6.09023 0
M  V30 7043 H 668.129 -0.282023 2.96662 0
M  V30 7044 H 665.666 -0.127494 1.46546 0
M  V30 7045 H 667.624 -2.75653 3.13163 0
M  V30 7046 H 666.254 -2.52211 2.01469 0
M  V30 7047 H 665.306 -0.803322 3.71821 0
M  V30 7048 H 666.618 -1.26679 4.82446 0
M  V30 7049 H 665.772 -3.62212 4.86711 0
M  V30 7050 H 664.511 -3.21134 3.67048 0
M  V30 7051 H 663.516 -1.55519 5.27346 0
M  V30 7052 H 664.741 -1.99247 6.49213 0
M  V30 7053 H 662.687 -3.8848 5.28601 0
M  V30 7054 H 662.604 -3.17064 6.86299 0
M  V30 7055 H 663.872 -4.30297 6.49973 0
M  V30 7056 N 668.101 -1.57061 -0.130224 0
M  V30 7057 C 669.011 -2.02802 -1.17934 0
M  V30 7058 C 670.027 -0.946378 -1.46013 0
M  V30 7059 O 671.203 -1.25708 -1.57351 0
M  V30 7060 C 668.268 -2.41368 -2.48882 0
M  V30 7061 C 667.329 -3.63561 -2.28301 0
M  V30 7062 C 666.562 -4.00279 -3.53005 0
M  V30 7063 O 666.785 -3.37463 -4.59864 0
M  V30 7064 O 665.719 -4.93441 -3.44673 0
M  V30 7065 H 669.545 -2.92394 -0.820958 0
M  V30 7066 H 667.13 -1.45475 -0.340197 0
M  V30 7067 H 669.012 -2.66958 -3.26054 0
M  V30 7068 H 667.687 -1.54926 -2.84217 0
M  V30 7069 H 666.594 -3.43136 -1.49025 0
M  V30 7070 H 667.927 -4.50673 -1.97875 0
M  V30 7071 N 669.579 0.400081 -1.52437 0
M  V30 7072 C 670.542 1.4707 -1.75793 0
M  V30 7073 C 671.542 1.48036 -0.627856 0
M  V30 7074 O 672.732 1.49401 -0.895817 0
M  V30 7075 C 669.864 2.86427 -1.84858 0
M  V30 7076 H 671.057 1.27649 -2.71377 0
M  V30 7077 H 668.61 0.631141 -1.42991 0
M  V30 7078 H 669.345 3.11207 -0.912194 0
M  V30 7079 H 669.13 2.87128 -2.6702 0
M  V30 7080 H 670.62 3.64023 -2.04638 0
M  V30 7081 N 671.057 1.43213 0.657864 0
M  V30 7082 C 672.468 1.39669 1.23893 0
M  V30 7083 C 672.819 0.0984217 1.95953 0
M  V30 7084 O 671.944 -0.8023 2.00978 0
M  V30 7085 C 672.539 2.53004 2.25332 0
M  V30 7086 C 671.098 2.5274 2.78926 0
M  V30 7087 C 670.245 2.30941 1.53497 0
M  V30 7088 H 673.196 1.52181 0.450172 0
M  V30 7089 H 673.217 2.24226 3.07413 0
M  V30 7090 H 672.729 3.4748 1.72856 0
M  V30 7091 H 670.83 1.6213 3.35477 0
M  V30 7092 H 670.943 3.50352 3.26787 0
M  V30 7093 H 669.307 1.7952 1.80678 0
M  V30 7094 H 670.09 3.27496 1.02963 0
M  V30 7095 N 672.536 -0.895792 1.29666 0
M  V30 7096 C 673.468 -2.00563 1.10937 0
M  V30 7097 C 674.481 -1.62705 0.055734 0
M  V30 7098 O 675.67 -1.7595 0.300656 0
M  V30 7099 C 672.77 -3.32262 0.667448 0
M  V30 7100 C 671.943 -3.98625 1.80047 0
M  V30 7101 C 671.002 -5.08617 1.3489 0
M  V30 7102 O 670.028 -5.30837 2.05429 0
M  V30 7103 N 671.23 -5.80076 0.221937 0
M  V30 7104 H 673.995 -2.17184 2.06522 0
M  V30 7105 H 671.556 -1.06822 1.21658 0
M  V30 7106 H 673.548 -4.03196 0.348586 0
M  V30 7107 H 672.118 -3.11985 -0.196055 0
M  V30 7108 H 671.338 -3.21005 2.28801 0
M  V30 7109 H 672.626 -4.39704 2.56003 0
M  V30 7110 H 672.024 -5.64514 -0.366084 0
M  V30 7111 H 670.581 -6.51789 -0.0375346 0
M  V30 7112 N 674.014 -1.12206 -1.10668 0
M  V30 7113 C 674.961 -0.787716 -2.16942 0
M  V30 7114 C 675.931 0.244442 -1.64291 0
M  V30 7115 O 677.116 0.119558 -1.90425 0
M  V30 7116 C 674.256 -0.24584 -3.44223 0
M  V30 7117 C 673.369 -1.33552 -4.10838 0
M  V30 7118 C 672.504 -0.753337 -5.25831 0
M  V30 7119 C 671.543 -1.82231 -5.84344 0
M  V30 7120 N 670.68 -1.25902 -6.90719 0
M  V30 7121 H 675.52 -1.69809 -2.44885 0
M  V30 7122 H 673.057 -0.847862 -1.20207 0
M  V30 7123 H 675.015 0.0863639 -4.17111 0
M  V30 7124 H 673.645 0.627702 -3.16638 0
M  V30 7125 H 672.697 -1.78454 -3.35944 0
M  V30 7126 H 674.009 -2.14396 -4.50373 0
M  V30 7127 H 673.163 -0.37166 -6.05561 0
M  V30 7128 H 671.902 0.0863297 -4.87624 0
M  V30 7129 H 670.907 -2.2132 -5.03287 0
M  V30 7130 H 672.132 -2.66515 -6.24617 0
M  V30 7131 H 670.078 -0.44114 -6.54515 0
M  V30 7132 H 669.995 -2.00408 -7.28953 0
M  V30 7133 H 671.263 -0.904498 -7.74235 0
M  V30 7134 N 675.492 1.28418 -0.913599 0
M  V30 7135 C 676.717 1.99643 -0.561899 0
M  V30 7136 C 677.142 1.67819 0.849608 0
M  V30 7137 O 676.5 0.910503 1.56779 0
M  V30 7138 C 676.548 3.52116 -0.777622 0
M  V30 7139 O 675.652 4.12076 0.163457 0
M  V30 7140 H 674.993 0.627229 -0.217898 0
M  V30 7141 H 677.523 1.63575 -1.229 0
M  V30 7142 H 677.533 4.02163 -0.687666 0
M  V30 7143 H 676.208 3.74613 -1.8066 0
M  V30 7144 H 674.785 3.72892 0.0247827 0
M  V30 7145 N 676.97 0.677563 1.42291 0
M  V30 7146 C 678.216 0.209962 2.02313 0
M  V30 7147 C 678.571 -1.1714 1.52631 0
M  V30 7148 O 677.864 -1.7756 0.719938 0
M  V30 7149 C 678.058 0.187229 3.56909 0
M  V30 7150 C 677.887 1.56484 4.21595 0
M  V30 7151 C 676.657 2.16329 4.56651 0
M  V30 7152 C 678.855 2.50805 4.49 0
M  V30 7153 N 676.837 3.46842 5.06531 0
M  V30 7154 C 678.208 3.65976 5.00461 0
M  V30 7155 C 680.263 2.493 4.30992 0
M  V30 7156 C 678.966 4.79899 5.35807 0
M  V30 7157 C 680.992 3.62322 4.67415 0
M  V30 7158 C 680.354 4.76221 5.19031 0
M  V30 7159 H 676.453 0.121815 0.772454 0
M  V30 7160 H 679.037 0.891148 1.73109 0
M  V30 7161 H 677.208 -0.46338 3.85626 0
M  V30 7162 H 678.94 -0.293512 4.03634 0
M  V30 7163 H 675.695 1.6879 4.42501 0
M  V30 7164 H 676.119 4.13694 5.35898 0
M  V30 7165 H 680.761 1.62467 3.90339 0
M  V30 7166 H 678.479 5.67406 5.75392 0
M  V30 7167 H 682.065 3.62388 4.55155 0
M  V30 7168 H 680.945 5.62228 5.46689 0
M  V30 7169 N 678.448 -1.51871 0.421078 0
M  V30 7170 C 679.411 -2.25914 -0.386712 0
M  V30 7171 C 680.411 -1.28733 -0.963555 0
M  V30 7172 O 681.601 -1.52579 -0.840556 0
M  V30 7173 C 678.733 -3.03853 -1.54551 0
M  V30 7174 H 679.926 -2.98754 0.261978 0
M  V30 7175 H 677.479 -1.5533 0.173862 0
M  V30 7176 H 678.214 -2.35392 -2.23072 0
M  V30 7177 H 677.999 -3.75215 -1.13824 0
M  V30 7178 H 679.489 -3.59984 -2.11663 0
M  V30 7179 N 679.926 -0.151884 -1.56866 0
M  V30 7180 C 681.337 0.368128 -1.83035 0
M  V30 7181 C 681.688 1.64402 -1.07082 0
M  V30 7182 O 680.813 2.14056 -0.317647 0
M  V30 7183 C 681.408 0.674676 -3.32014 0
M  V30 7184 C 679.967 1.13919 -3.58747 0
M  V30 7185 C 679.114 0.164833 -2.7681 0
M  V30 7186 H 682.065 -0.376499 -1.54169 0
M  V30 7187 H 682.086 1.52883 -3.48435 0
M  V30 7188 H 681.598 -0.254113 -3.87267 0
M  V30 7189 H 679.699 2.08375 -3.08886 0
M  V30 7190 H 679.812 1.06179 -4.67186 0
M  V30 7191 H 678.176 0.658419 -2.46043 0
M  V30 7192 H 678.959 -0.757633 -3.34836 0
M  V30 7193 O 681.443 1.61494 -0.0134355 0
M  V30 7194 H 682.134 1.84128 0.601368 0
M  V30 END ATOM
M  V30 BEGIN BOND
M  V30 END BOND
M  V30 END CTAB
M  END
$$$$
