drugbank_target|P04003 C4b-binding protein alpha chain (DB01593; DB09130; DB14487; DB14533; DB14548)
 OpenBabel12092121073D

  0  0  0     0  0            999 V3000
M  V30 BEGIN CTAB
M  V30 COUNTS 9250 9388 0 0 0
M  V30 BEGIN ATOM
M  V30 1 H -0.908 1.98254 -0.117106 0
M  V30 2 N 0 1.576 0 0
M  V30 3 C 0.933 2.03868 1.02534 0
M  V30 4 C 1.911 0.928543 1.3348 0
M  V30 5 O 3.095 1.19667 1.45644 0
M  V30 6 C 0.222 2.43627 2.35294 0
M  V30 7 C -0.732 3.65373 2.2001 0
M  V30 8 S 0.101 5.13292 1.52614 0
M  V30 9 C 1.257 5.56322 2.86805 0
M  V30 10 H 1.49 2.90518 0.631377 0
M  V30 11 H -0.977 1.52953 0.210867 0
M  V30 12 H 0.981 2.67203 3.11629 0
M  V30 13 H -0.358 1.57376 2.7183 0
M  V30 14 H -1.165 3.90944 3.18086 0
M  V30 15 H -1.563 3.418 1.51819 0
M  V30 16 H 0.729 5.58782 3.83104 0
M  V30 17 H 1.672 6.56266 2.65933 0
M  V30 18 H 2.08 4.83886 2.90714 0
M  V30 19 N 1.4781 -0.272755 1.55222 0
M  V30 20 C 2.4281 -1.33946 1.84506 0
M  V30 21 C 3.4121 -1.44682 0.70399 0
M  V30 22 O 4.6041 -1.48358 0.965338 0
M  V30 23 C 1.7331 -2.69968 2.12067 0
M  V30 24 C 0.8191 -2.63341 3.32434 0
M  V30 25 N 1.2101 -2.26335 4.52334 0
M  V30 26 C -0.4919 -2.94402 3.35028 0
M  V30 27 C 0.2091 -2.29705 5.34425 0
M  V30 28 N -0.8149 -2.68188 4.72838 0
M  V30 29 H 2.9871 -1.04343 2.74754 0
M  V30 30 H 0.5011 -0.481389 1.55101 0
M  V30 31 H 2.4981 -3.46916 2.31202 0
M  V30 32 H 1.1581 -3.00459 1.23103 0
M  V30 33 H 2.1691 -1.98309 4.78429 0
M  V30 34 H -1.1539 -3.29603 2.56257 0
M  V30 35 H 0.2361 -2.03653 6.40293 0
M  V30 36 N 2.9562 -1.48159 -0.537278 0
M  V30 37 C 4.3672 -1.49429 -1.11928 0
M  V30 38 C 4.7182 -0.26 -1.9447 0
M  V30 39 O 3.8432 0.633489 -2.0692 0
M  V30 40 C 4.4382 -2.70758 -2.03656 0
M  V30 41 C 2.9972 -2.74923 -2.57088 0
M  V30 42 C 2.1442 -2.42835 -1.3389 0
M  V30 43 H 5.0952 -1.55381 -0.322886 0
M  V30 44 H 5.1162 -2.48861 -2.87834 0
M  V30 45 H 4.6282 -3.60575 -1.43553 0
M  V30 46 H 2.7292 -1.89296 -3.20933 0
M  V30 47 H 2.8422 -3.76157 -2.9672 0
M  V30 48 H 1.2062 -1.93836 -1.65226 0
M  V30 49 H 1.9892 -3.34884 -0.755504 0
M  V30 50 N 4.4343 0.785586 -1.36625 0
M  V30 51 C 5.8453 1.36101 -1.27803 0
M  V30 52 C 6.1963 1.96035 0.0804875 0
M  V30 53 O 5.3213 1.92834 0.982042 0
M  V30 54 C 5.9163 2.47442 -2.31426 0
M  V30 55 C 4.4753 3.00789 -2.26281 0
M  V30 56 C 3.6223 1.73896 -2.15999 0
M  V30 57 H 6.5733 0.586928 -1.47448 0
M  V30 58 H 6.5943 3.2656 -1.95291 0
M  V30 59 H 6.1063 2.03791 -3.30289 0
M  V30 60 H 4.2073 3.48851 -1.30896 0
M  V30 61 H 4.3203 3.57343 -3.19128 0
M  V30 62 H 2.6843 1.9628 -1.62316 0
M  V30 63 H 3.4673 1.32368 -3.16755 0
M  V30 64 N 5.9124 1.20967 1.01018 0
M  V30 65 C 6.8594 0.964281 2.09691 0
M  V30 66 C 7.8294 -0.107853 1.65749 0
M  V30 67 O 9.0144 0.0381987 1.90762 0
M  V30 68 C 6.1544 0.52943 3.41015 0
M  V30 69 C 5.2674 1.67043 3.98398 0
M  V30 70 C 4.4024 1.18525 5.17808 0
M  V30 71 C 3.4414 2.29892 5.67288 0
M  V30 72 N 2.5784 1.82546 6.77954 0
M  V30 73 H 7.4184 1.89463 2.30017 0
M  V30 74 H 4.9554 0.944289 1.1279 0
M  V30 75 H 6.9134 0.258588 4.16398 0
M  V30 76 H 5.5434 -0.363919 3.20742 0
M  V30 77 H 4.5954 2.05603 3.20049 0
M  V30 78 H 5.9074 2.50877 4.31117 0
M  V30 79 H 5.0614 0.870762 6.00419 0
M  V30 80 H 3.8004 0.316887 4.86669 0
M  V30 81 H 2.8054 2.6215 4.83278 0
M  V30 82 H 4.0304 3.17216 6.00459 0
M  V30 83 H 1.9764 0.980454 6.48632 0
M  V30 84 H 1.8934 2.59956 7.09901 0
M  V30 85 H 3.1614 1.54115 7.64113 0
M  V30 86 N 7.3905 -1.2043 1.01659 0
M  V30 87 C 8.6185 -1.93777 0.725132 0
M  V30 88 C 9.0335 -1.74772 -0.714166 0
M  V30 89 O 8.3905 -1.06169 -1.4844 0
M  V30 90 C 8.4415 -3.45876 1.05129 0
M  V30 91 O 8.1625 -3.6426 2.43406 0
M  V30 92 C 9.6635 -4.36368 0.780891 0
M  V30 93 H 6.8835 -0.615901 0.266284 0
M  V30 94 H 9.4275 -1.52922 1.35776 0
M  V30 95 H 7.5825 -3.8461 0.464065 0
M  V30 96 H 7.9965 -4.58246 2.55169 0
M  V30 97 H 9.4705 -5.41743 1.05918 0
M  V30 98 H 9.9475 -4.38275 -0.284937 0
M  V30 99 H 10.5535 -4.03296 1.35027 0
M  V30 100 N 8.8686 -0.792821 -1.36206 0
M  V30 101 C 10.2796 -0.429513 -1.81692 0
M  V30 102 C 10.6306 1.04695 -1.65932 0
M  V30 103 O 9.7556 1.81256 -1.18218 0
M  V30 104 C 10.3506 -0.772831 -3.29868 0
M  V30 105 C 8.9096 -0.462307 -3.7355 0
M  V30 106 C 8.0566 -1.00569 -2.5842 0
M  V30 107 H 11.0076 -0.985672 -1.24379 0
M  V30 108 H 11.0286 -0.0651928 -3.80444 0
M  V30 109 H 10.5406 -1.84747 -3.41307 0
M  V30 110 H 8.6416 0.604158 -3.67669 0
M  V30 111 H 8.7546 -0.985299 -4.68859 0
M  V30 112 H 7.1186 -0.428734 -2.51066 0
M  V30 113 H 7.9016 -2.08616 -2.72643 0
M  V30 114 N 10.3467 1.47872 -0.545128 0
M  V30 115 C 11.5717 2.07391 -0.0190611 0
M  V30 116 C 11.9967 1.39688 1.25971 0
M  V30 117 O 11.3547 0.467816 1.7516 0
M  V30 118 C 11.4027 3.60188 0.172335 0
M  V30 119 O 10.5067 3.9339 1.23766 0
M  V30 120 H 9.8477 0.662411 -0.0459059 0
M  V30 121 H 12.3777 1.90066 -0.757365 0
M  V30 122 H 12.3877 4.06129 0.390305 0
M  V30 123 H 11.0627 4.08865 -0.761725 0
M  V30 124 H 9.6397 3.5921 1.00114 0
M  V30 125 N 11.8248 0.280983 1.55075 0
M  V30 126 C 13.0728 -0.333455 1.9933 0
M  V30 127 C 13.3938 -1.55937 1.17085 0
M  V30 128 O 12.6638 -1.94143 0.261805 0
M  V30 129 H 11.2438 -0.126197 0.736263 0
M  V30 130 H 13.9058 0.387678 1.91005 0
M  V30 131 H 13.0018 -0.619292 3.05894 0
M  V30 132 N 13.3029 -1.57598 0.00835791 0
M  V30 133 C 14.2659 -2.07884 -0.965242 0
M  V30 134 C 15.2659 -0.989825 -1.26725 0
M  V30 135 O 16.4559 -1.25218 -1.21104 0
M  V30 136 C 13.5879 -2.52731 -2.28779 0
M  V30 137 H 14.7809 -2.95178 -0.530112 0
M  V30 138 H 12.3339 -1.54458 -0.239283 0
M  V30 139 H 13.0689 -1.68705 -2.76964 0
M  V30 140 H 12.8539 -3.32272 -2.08177 0
M  V30 141 H 14.3439 -2.91933 -2.98605 0
M  V30 142 N 14.781 0.264519 -1.55364 0
M  V30 143 C 15.711 1.33121 -1.91836 0
M  V30 144 C 16.692 1.51101 -0.781192 0
M  V30 145 O 17.877 1.64003 -1.04003 0
M  V30 146 C 15.007 2.68921 -2.19769 0
M  V30 147 C 13.961 2.65661 -3.35571 0
M  V30 148 C 13.287 4.05093 -3.49004 0
M  V30 149 C 14.587 2.24187 -4.71739 0
M  V30 150 H 16.281 1.02844 -2.81182 0
M  V30 151 H 13.827 0.493286 -1.35287 0
M  V30 152 H 15.78 3.43663 -2.43872 0
M  V30 153 H 14.504 3.00799 -1.27231 0
M  V30 154 H 13.163 1.93377 -3.1145 0
M  V30 155 H 12.811 4.34206 -2.53917 0
M  V30 156 H 12.511 4.03804 -4.26868 0
M  V30 157 H 14.035 4.81561 -3.75408 0
M  V30 158 H 15.449 2.88654 -4.9533 0
M  V30 159 H 13.846 2.34044 -5.52579 0
M  V30 160 H 14.916 1.19327 -4.69988 0
M  V30 161 N 16.2591 1.48442 0.529413 0
M  V30 162 C 17.2091 1.59407 1.63014 0
M  V30 163 C 18.1931 0.451166 1.54445 0
M  V30 164 O 19.3851 0.702635 1.62456 0
M  V30 165 C 16.5141 1.63746 3.01732 0
M  V30 166 C 15.6001 2.83518 3.15402 0
M  V30 167 N 15.9911 4.07929 2.99045 0
M  V30 168 C 14.2891 2.80862 3.46457 0
M  V30 169 C 14.9901 4.8829 3.16146 0
M  V30 170 N 13.9661 4.21117 3.43746 0
M  V30 171 H 17.7681 2.53343 1.48978 0
M  V30 172 H 15.2821 1.44821 0.734885 0
M  V30 173 H 17.2791 1.69695 3.80801 0
M  V30 174 H 15.9391 0.709264 3.16859 0
M  V30 175 H 16.9501 4.38357 2.75796 0
M  V30 176 H 13.6271 1.97301 3.67938 0
M  V30 177 H 15.0171 5.97028 3.08232 0
M  V30 178 N 17.7372 -0.778329 1.37039 0
M  V30 179 C 19.1532 -1.07796 1.17695 0
M  V30 180 C 19.3532 -2.01498 0.00860115 0
M  V30 181 O 18.4092 -2.43901 -0.653352 0
M  V30 182 C 19.7222 -1.68178 2.49272 0
M  V30 183 C 21.2702 -1.80467 2.55735 0
M  V30 184 C 21.7452 -2.44263 3.87427 0
M  V30 185 N 23.2362 -2.51721 3.88833 0
M  V30 186 C 23.9712 -3.01919 4.87476 0
M  V30 187 N 23.4672 -3.5234 5.96513 0
M  V30 188 N 25.2602 -3.00733 4.74885 0
M  V30 189 H 17.4112 -0.156032 2.11826 0
M  V30 190 H 19.6742 -0.131844 0.938787 0
M  V30 191 H 19.3802 -1.06796 3.35093 0
M  V30 192 H 19.2542 -2.67554 2.65885 0
M  V30 193 H 21.6412 -2.40984 1.70325 0
M  V30 194 H 21.7222 -0.798656 2.43013 0
M  V30 195 H 21.3662 -1.84388 4.73248 0
M  V30 196 H 21.2962 -3.45458 3.9745 0
M  V30 197 H 23.7872 -2.1603 3.10063 0
M  V30 198 H 24.1002 -3.89027 6.67741 0
M  V30 199 H 22.4452 -3.50462 6.00168 0
M  V30 200 H 25.6362 -2.60638 3.88826 0
M  V30 201 H 25.8092 -3.39545 5.51918 0
M  V30 202 N 19.2153 -1.21501 -1.00376 0
M  V30 203 C 20.1623 -0.975387 -2.09177 0
M  V30 204 C 21.1323 0.0990615 -1.65804 0
M  V30 205 O 22.3173 -0.0483147 -1.90739 0
M  V30 206 C 19.4573 -0.547507 -3.40729 0
M  V30 207 C 18.5703 -1.69153 -3.97506 0
M  V30 208 C 17.7053 -1.2127 -5.17172 0
M  V30 209 C 16.7443 -2.32897 -5.66061 0
M  V30 210 N 15.8813 -1.86138 -6.76976 0
M  V30 211 H 20.7213 -1.9068 -2.29009 0
M  V30 212 H 18.2583 -0.950257 -1.12288 0
M  V30 213 H 20.2163 -0.280667 -4.16255 0
M  V30 214 H 18.8463 0.346904 -3.20931 0
M  V30 215 H 17.8983 -2.07298 -3.18954 0
M  V30 216 H 19.2103 -2.5316 -4.29781 0
M  V30 217 H 18.3643 -0.902591 -5.99948 0
M  V30 218 H 17.1033 -0.342692 -4.86495 0
M  V30 219 H 16.1083 -2.64709 -4.81881 0
M  V30 220 H 17.3333 -3.20396 -5.98768 0
M  V30 221 H 15.2793 -1.01484 -6.48103 0
M  V30 222 H 15.1963 -2.63717 -7.08512 0
M  V30 223 H 16.4643 -1.58165 -7.63285 0
M  V30 224 N 20.6934 1.19889 -1.02296 0
M  V30 225 C 22.1094 1.41462 -0.738954 0
M  V30 226 C 22.3094 1.89721 0.678846 0
M  V30 227 O 21.3654 2.07016 1.4457 0
M  V30 228 C 22.6784 2.43083 -1.77005 0
M  V30 229 C 24.2264 2.5684 -1.78892 0
M  V30 230 C 24.7014 3.61709 -2.80945 0
M  V30 231 N 26.1924 3.69199 -2.79725 0
M  V30 232 C 26.9274 4.50019 -3.55345 0
M  V30 233 N 26.4234 5.34592 -4.40662 0
M  V30 234 N 28.2164 4.44612 -3.43914 0
M  V30 235 H 20.3674 0.868827 -1.93817 0
M  V30 236 H 22.6304 0.44399 -0.837602 0
M  V30 237 H 22.3364 2.14636 -2.78612 0
M  V30 238 H 22.2104 3.4217 -1.58744 0
M  V30 239 H 24.5974 2.84614 -0.779674 0
M  V30 240 H 24.6784 1.57927 -2.01228 0
M  V30 241 H 24.3224 3.34678 -3.82038 0
M  V30 242 H 24.2524 4.60259 -2.5587 0
M  V30 243 H 26.7434 3.08794 -2.17842 0
M  V30 244 H 27.0564 5.93363 -4.95116 0
M  V30 245 H 25.4014 5.34073 -4.44737 0
M  V30 246 H 28.5924 3.7758 -2.76679 0
M  V30 247 H 28.7654 5.0736 -4.031 0
M  V30 248 N 22.1715 0.800033 1.35784 0
M  V30 249 C 23.1185 0.203848 2.29898 0
M  V30 250 C 24.0885 -0.658375 1.52495 0
M  V30 251 O 25.2735 -0.604832 1.8096 0
M  V30 252 C 22.4135 -0.64688 3.38983 0
M  V30 253 C 21.5265 0.235054 4.3136 0
M  V30 254 C 20.6615 -0.623054 5.27533 0
M  V30 255 C 19.7005 0.259682 6.11549 0
M  V30 256 N 18.8375 -0.558019 6.99879 0
M  V30 257 H 23.6775 1.01186 2.80295 0
M  V30 258 H 21.2145 0.51053 1.37957 0
M  V30 259 H 23.1725 -1.15521 4.00887 0
M  V30 260 H 21.8025 -1.42021 2.89879 0
M  V30 261 H 20.8545 0.861438 3.70518 0
M  V30 262 H 22.1665 0.914768 4.9034 0
M  V30 263 H 21.3205 -1.19678 5.94779 0
M  V30 264 H 20.0595 -1.33636 4.69034 0
M  V30 265 H 19.0645 0.845726 5.43256 0
M  V30 266 H 20.2895 0.970748 6.72126 0
M  V30 267 H 18.2355 -1.25542 6.43875 0
M  V30 268 H 18.1525 0.0637872 7.55973 0
M  V30 269 H 19.4205 -1.11523 7.71481 0
M  V30 270 N 23.6496 -1.47581 0.552962 0
M  V30 271 C 24.5826 -2.26883 -0.244857 0
M  V30 272 C 25.5606 -1.33784 -0.924147 0
M  V30 273 O 26.7446 -1.6316 -0.943981 0
M  V30 274 C 23.8716 -3.10695 -1.34856 0
M  V30 275 C 22.9176 -4.19339 -0.778268 0
M  V30 276 S 23.7506 -5.34207 0.37184 0
M  V30 277 C 24.9066 -6.21584 -0.733779 0
M  V30 278 H 25.1396 -2.94202 0.428087 0
M  V30 279 H 22.6726 -1.50628 0.339197 0
M  V30 280 H 24.6306 -3.59555 -1.98066 0
M  V30 281 H 23.2916 -2.42746 -1.99332 0
M  V30 282 H 22.4846 -4.77695 -1.60696 0
M  V30 283 H 22.0866 -3.73338 -0.222422 0
M  V30 284 H 24.3786 -6.57676 -1.62692 0
M  V30 285 H 25.3216 -7.07851 -0.187668 0
M  V30 286 H 25.7296 -5.55125 -1.02454 0
M  V30 287 N 25.1277 -0.289203 -1.54924 0
M  V30 288 C 26.0907 0.579144 -2.21762 0
M  V30 289 C 27.0907 1.07047 -1.1999 0
M  V30 290 O 28.2807 0.968384 -1.44803 0
M  V30 291 C 25.4127 1.80055 -2.8947 0
M  V30 292 H 26.6057 -0.00464908 -2.999 0
M  V30 293 H 24.1587 -0.0399306 -1.56249 0
M  V30 294 H 24.8937 2.42449 -2.15381 0
M  V30 295 H 24.6787 1.45602 -3.64064 0
M  V30 296 H 26.1687 2.41773 -3.40493 0
M  V30 297 N 26.6058 1.57591 -0.0167156 0
M  V30 298 C 27.5688 2.08393 0.954204 0
M  V30 299 C 28.5688 0.996531 1.26198 0
M  V30 300 O 29.7588 1.25858 1.20438 0
M  V30 301 C 26.8908 2.5394 2.27436 0
M  V30 302 H 28.0838 2.95455 0.514451 0
M  V30 303 H 25.6368 1.54582 0.231089 0
M  V30 304 H 26.3718 1.70171 2.76066 0
M  V30 305 H 26.1568 3.33371 2.06412 0
M  V30 306 H 27.6468 2.93512 2.97053 0
M  V30 307 N 28.0839 -0.256276 1.55502 0
M  V30 308 C 29.3299 -0.982884 1.78076 0
M  V30 309 C 29.6849 -1.83319 0.584109 0
M  V30 310 O 28.9779 -1.86875 -0.422877 0
M  V30 311 C 29.1719 -1.88432 3.03691 0
M  V30 312 C 29.0009 -1.12276 4.35459 0
M  V30 313 C 27.7709 -0.831647 4.98409 0
M  V30 314 C 29.9689 -0.504933 5.11815 0
M  V30 315 N 27.9509 -0.0450423 6.13883 0
M  V30 316 C 29.3219 0.146696 6.19826 0
M  V30 317 C 31.3769 -0.414455 4.96172 0
M  V30 318 C 30.0799 0.880103 7.13895 0
M  V30 319 C 32.1059 0.305398 5.90611 0
M  V30 320 C 31.4679 0.945701 6.98023 0
M  V30 321 H 27.5669 -0.341084 0.703694 0
M  V30 322 H 30.1509 -0.256909 1.92998 0
M  V30 323 H 28.3219 -2.58241 2.90114 0
M  V30 324 H 30.0539 -2.54579 3.14598 0
M  V30 325 H 26.8089 -1.14111 4.59647 0
M  V30 326 H 27.2329 0.336079 6.76165 0
M  V30 327 H 31.8749 -0.895163 4.13215 0
M  V30 328 H 29.5929 1.37244 7.9636 0
M  V30 329 H 33.1789 0.375946 5.80584 0
M  V30 330 H 32.0589 1.49383 7.6984 0
M  V30 331 N 29.562 -1.4872 -0.521534 0
M  V30 332 C 30.973 -1.50607 -1.10337 0
M  V30 333 C 31.324 -0.280612 -1.94183 0
M  V30 334 O 30.449 0.611507 -2.0758 0
M  V30 335 C 31.044 -2.72903 -2.00772 0
M  V30 336 C 29.603 -2.77634 -2.54158 0
M  V30 337 C 28.75 -2.44241 -1.31307 0
M  V30 338 H 31.701 -1.55714 -0.306388 0
M  V30 339 H 31.722 -2.519 -2.85178 0
M  V30 340 H 31.234 -3.62077 -1.39721 0
M  V30 341 H 29.335 -1.92689 -3.18907 0
M  V30 342 H 29.448 -3.79283 -2.92714 0
M  V30 343 H 27.812 -1.95577 -1.63161 0
M  V30 344 H 28.595 -3.35666 -0.719943 0
M  V30 345 N 31.0401 0.771051 -1.3745 0
M  V30 346 C 32.2871 1.52963 -1.32697 0
M  V30 347 C 32.6151 1.94299 0.0883274 0
M  V30 348 O 31.8701 1.64397 1.0617 0
M  V30 349 C 32.1691 2.80676 -2.2126 0
M  V30 350 C 31.8351 2.58389 -3.69521 0
M  V30 351 C 30.4971 2.52019 -4.09927 0
M  V30 352 C 32.8491 2.38469 -4.63446 0
M  V30 353 C 30.1771 2.23721 -5.42371 0
M  V30 354 C 32.5291 2.11694 -5.96128 0
M  V30 355 C 31.1931 2.03769 -6.35637 0
M  V30 356 H 30.4631 0.559732 -0.485573 0
M  V30 357 H 33.1101 0.888083 -1.69662 0
M  V30 358 H 31.4151 3.49392 -1.77291 0
M  V30 359 H 33.1121 3.38557 -2.14895 0
M  V30 360 H 29.7021 2.6421 -3.37478 0
M  V30 361 H 33.8861 2.4238 -4.33089 0
M  V30 362 H 29.1421 2.16081 -5.71943 0
M  V30 363 H 33.3161 1.9528 -6.6846 0
M  V30 364 H 30.9431 1.81606 -7.38189 0
M  V30 365 N 32.5182 1.22032 0.997298 0
M  V30 366 C 33.7432 1.06921 1.77715 0
M  V30 367 C 34.1682 -0.376226 1.84299 0
M  V30 368 O 33.5262 -1.27165 1.29223 0
M  V30 369 C 33.5742 1.67996 3.19076 0
M  V30 370 O 32.6782 0.930653 4.01762 0
M  V30 371 H 32.0192 0.375814 0.547412 0
M  V30 372 H 34.5492 1.61737 1.25309 0
M  V30 373 H 34.5592 1.72538 3.69723 0
M  V30 374 H 33.2342 2.73182 3.13599 0
M  V30 375 H 31.8112 0.960917 3.60307 0
M  V30 376 N 33.9963 -1.19345 1.0293 0
M  V30 377 C 35.4123 -1.41069 0.746446 0
M  V30 378 C 35.6123 -1.90078 -0.668776 0
M  V30 379 O 34.6683 -2.0778 -1.4347 0
M  V30 380 C 35.9813 -2.42141 1.78292 0
M  V30 381 C 37.5293 -2.55887 1.80252 0
M  V30 382 C 38.0043 -3.60214 2.8286 0
M  V30 383 N 39.4953 -3.67711 2.81679 0
M  V30 384 C 40.2303 -4.48128 3.57727 0
M  V30 385 N 39.7263 -5.32248 4.43491 0
M  V30 386 N 41.5193 -4.42782 3.46267 0
M  V30 387 H 33.6703 -0.858536 1.94275 0
M  V30 388 H 35.9333 -0.439541 0.839945 0
M  V30 389 H 35.6393 -2.13155 2.79746 0
M  V30 390 H 35.5133 -3.41323 1.60557 0
M  V30 391 H 37.9003 -2.84196 0.794757 0
M  V30 392 H 37.9813 -1.56858 2.02062 0
M  V30 393 H 37.6253 -3.32647 3.83807 0
M  V30 394 H 37.5553 -4.58895 2.58307 0
M  V30 395 H 40.0463 -3.07634 2.19476 0
M  V30 396 H 40.3593 -5.90729 4.98256 0
M  V30 397 H 38.7043 -5.31707 4.47564 0
M  V30 398 H 41.8953 -3.76107 2.78677 0
M  V30 399 H 42.0683 -5.05215 4.05785 0
M  V30 400 N 35.4744 -0.807222 -1.35358 0
M  V30 401 C 36.4044 -0.232509 -2.3234 0
M  V30 402 C 37.3854 0.642386 -1.57504 0
M  V30 403 O 38.5704 0.572526 -1.85569 0
M  V30 404 C 35.7004 0.619238 -3.41735 0
M  V30 405 C 34.6544 -0.157215 -4.27711 0
M  V30 406 C 33.9804 0.816273 -5.28433 0
M  V30 407 C 35.2804 -1.35656 -5.04376 0
M  V30 408 H 36.9744 -1.04276 -2.80654 0
M  V30 409 H 34.5204 -0.50288 -1.34934 0
M  V30 410 H 36.4734 1.03137 -4.08584 0
M  V30 411 H 35.1974 1.46239 -2.92031 0
M  V30 412 H 33.8564 -0.550525 -3.62443 0
M  V30 413 H 33.5044 1.65494 -4.74996 0
M  V30 414 H 33.2044 0.301067 -5.86828 0
M  V30 415 H 34.7284 1.22659 -5.98153 0
M  V30 416 H 36.1424 -1.01927 -5.64166 0
M  V30 417 H 34.5394 -1.8063 -5.7227 0
M  V30 418 H 35.6094 -2.14288 -4.34981 0
M  V30 419 N 36.9525 1.47285 -0.560781 0
M  V30 420 C 38.1985 2.03347 -0.0463654 0
M  V30 421 C 38.5535 1.42702 1.2905 0
M  V30 422 O 37.8465 0.574619 1.8278 0
M  V30 423 C 38.0405 3.57258 0.100784 0
M  V30 424 C 37.8695 4.32827 -1.22027 0
M  V30 425 C 36.6395 4.72588 -1.78854 0
M  V30 426 C 38.8375 4.67739 -2.13834 0
M  V30 427 N 36.8195 5.32816 -3.04927 0
M  V30 428 C 38.1905 5.28307 -3.24487 0
M  V30 429 C 40.2455 4.49667 -2.13784 0
M  V30 430 C 38.9485 5.72711 -4.35194 0
M  V30 431 C 40.9745 4.95073 -3.23506 0
M  V30 432 C 40.3365 5.55693 -4.32879 0
M  V30 433 H 36.4355 0.779755 -0.0592166 0
M  V30 434 H 39.0195 1.79723 -0.748857 0
M  V30 435 H 37.1905 3.80642 0.772404 0
M  V30 436 H 38.9225 3.9996 0.617589 0
M  V30 437 H 35.6775 4.54656 -1.32609 0
M  V30 438 H 36.1015 5.67471 -3.69197 0
M  V30 439 H 40.7435 4.02154 -1.30507 0
M  V30 440 H 38.4615 6.19214 -5.1923 0
M  V30 441 H 42.0475 4.82859 -3.24559 0
M  V30 442 H 40.9275 5.90188 -5.1638 0
M  V30 443 N 38.4306 0.297415 1.54768 0
M  V30 444 C 39.3776 -0.580276 2.23386 0
M  V30 445 C 40.3476 -1.13238 1.21517 0
M  V30 446 O 41.5326 -1.17757 1.50126 0
M  V30 447 C 38.6726 -1.74801 2.97555 0
M  V30 448 C 37.7856 -1.22764 4.1419 0
M  V30 449 C 36.9206 -2.35895 4.75949 0
M  V30 450 C 35.9596 -1.80974 5.84735 0
M  V30 451 N 35.0966 -2.87664 6.40464 0
M  V30 452 H 39.9366 0.0114833 2.97998 0
M  V30 453 H 37.4736 0.0174361 1.4709 0
M  V30 454 H 39.4316 -2.43475 3.38786 0
M  V30 455 H 38.0616 -2.31145 2.25326 0
M  V30 456 H 37.1136 -0.433271 3.77924 0
M  V30 457 H 38.4256 -0.785551 4.92575 0
M  V30 458 H 37.5796 -3.12523 5.20014 0
M  V30 459 H 36.3186 -2.83429 3.96887 0
M  V30 460 H 35.3236 -1.02834 5.40097 0
M  V30 461 H 36.5486 -1.34348 6.65678 0
M  V30 462 H 34.4946 -3.34538 5.64287 0
M  V30 463 H 34.4116 -2.4794 7.14186 0
M  V30 464 H 35.6796 -3.642 6.89187 0
M  V30 465 N 39.9087 -1.5758 0.0250728 0
M  V30 466 C 41.1547 -1.91917 -0.655413 0
M  V30 467 C 41.4877 -0.901433 -1.72011 0
M  V30 468 O 40.7627 0.0764069 -1.9435 0
M  V30 469 C 41.0457 -3.36751 -1.27558 0
M  V30 470 C 40.8987 -4.49258 -0.220719 0
M  V30 471 C 42.2177 -3.81469 -2.19475 0
M  V30 472 H 39.3367 -0.697925 -0.23679 0
M  V30 473 H 41.9787 -1.89825 0.0815036 0
M  V30 474 H 40.1287 -3.38664 -1.90365 0
M  V30 475 H 41.8007 -4.59478 0.409601 0
M  V30 476 H 40.0437 -4.31415 0.454264 0
M  V30 477 H 40.7147 -5.47618 -0.694175 0
M  V30 478 H 43.1907 -3.81266 -1.66659 0
M  V30 479 H 42.0667 -4.83512 -2.59822 0
M  V30 480 H 42.3277 -3.16744 -3.08424 0
M  V30 481 N 41.3868 0.248026 -1.55636 0
M  V30 482 C 42.6118 0.998028 -1.81808 0
M  V30 483 C 43.0368 1.78207 -0.601979 0
M  V30 484 O 42.3948 1.75653 0.448961 0
M  V30 485 C 42.4428 1.9125 -3.05705 0
M  V30 486 O 41.5468 3.00406 -2.82542 0
M  V30 487 H 40.8878 0.284045 -0.600179 0
M  V30 488 H 43.4178 0.269357 -2.02819 0
M  V30 489 H 43.4278 2.32737 -3.35108 0
M  V30 490 H 42.1028 1.33602 -3.93857 0
M  V30 491 H 40.6798 2.63056 -2.64303 0
M  V30 492 N 42.8649 1.48995 0.513639 0
M  V30 493 C 44.1419 1.48338 1.27495 0
M  V30 494 C 44.5219 0.204065 2.10111 0
M  V30 495 O 43.8699 -0.813881 2.13514 0
M  V30 496 C 44.0799 2.75498 2.14247 0
M  V30 497 C 45.4279 3.24484 2.73852 0
M  V30 498 O 46.4519 2.76528 2.24523 0
M  V30 499 O 45.3109 4.07974 3.6362 0
M  V30 500 H 42.4049 0.593149 0.576284 0
M  V30 501 H 44.9509 1.61246 0.528948 0
M  V30 502 H 43.7229 3.60109 1.53092 0
M  V30 503 H 43.3459 2.6539 2.96064 0
M  V30 504 N 44.343 -0.763751 1.37857 0
M  V30 505 C 45.754 -1.3405 1.29952 0
M  V30 506 C 46.105 -1.96138 -0.0492898 0
M  V30 507 O 45.23 -1.94372 -0.951239 0
M  V30 508 C 45.825 -2.43729 2.35333 0
M  V30 509 C 44.384 -2.97151 2.31037 0
M  V30 510 C 43.531 -1.70438 2.18738 0
M  V30 511 H 46.482 -0.563396 1.48363 0
M  V30 512 H 46.503 -3.23412 2.00462 0
M  V30 513 H 46.015 -1.9851 3.33489 0
M  V30 514 H 44.116 -3.46724 1.3643 0
M  V30 515 H 44.229 -3.52221 3.24772 0
M  V30 516 H 42.593 -1.93673 1.65418 0
M  V30 517 H 43.376 -1.27312 3.18821 0
M  V30 518 N 45.8211 -1.22559 -0.990812 0
M  V30 519 C 47.0701 -1.04553 -1.72486 0
M  V30 520 C 47.3831 0.419349 -1.91052 0
M  V30 521 O 48.5891 0.719121 -2.61803 0
M  V30 522 C 47.0451 -1.82231 -3.10355 0
M  V30 523 C 46.6531 -3.32981 -2.99713 0
M  V30 524 C 48.3971 -1.7268 -3.87791 0
M  V30 525 C 46.3041 -4.03091 -4.32748 0
M  V30 526 H 45.2341 -0.387614 -0.646739 0
M  V30 527 H 47.8851 -1.46429 -1.10593 0
M  V30 528 H 46.2671 -1.33155 -3.72942 0
M  V30 529 H 47.4411 -3.89466 -2.46278 0
M  V30 530 H 45.7561 -3.43231 -2.35758 0
M  V30 531 H 48.3531 -2.22381 -4.86262 0
M  V30 532 H 48.6961 -0.687607 -4.10582 0
M  V30 533 H 49.2291 -2.1931 -3.31885 0
M  V30 534 H 45.9681 -5.07273 -4.15156 0
M  V30 535 H 45.4881 -3.51394 -4.86089 0
M  V30 536 H 47.1671 -4.08804 -5.01486 0
M  V30 537 N 47.2992 1.18797 -1.03562 0
M  V30 538 C 48.2292 2.24472 -0.643019 0
M  V30 539 C 49.2102 1.66433 0.351283 0
M  V30 540 O 50.3952 1.92803 0.232505 0
M  V30 541 C 47.5252 3.473 4.24935e-05 0
M  V30 542 C 46.4792 4.18055 -0.917257 0
M  V30 543 C 45.8052 5.34519 -0.138941 0
M  V30 544 C 47.1052 4.72109 -2.23407 0
M  V30 545 H 48.7992 2.57566 -1.52643 0
M  V30 546 H 46.3452 1.23806 -0.735394 0
M  V30 547 H 48.2982 4.20426 0.286383 0
M  V30 548 H 47.0222 3.13424 0.918299 0
M  V30 549 H 45.6812 3.46821 -1.1879 0
M  V30 550 H 45.3292 4.96891 0.781562 0
M  V30 551 H 45.0292 5.82794 -0.750005 0
M  V30 552 H 46.5532 6.10438 0.1405 0
M  V30 553 H 47.9672 5.36955 -2.00879 0
M  V30 554 H 46.3642 5.30897 -2.79765 0
M  V30 555 H 47.4342 3.89807 -2.88407 0
M  V30 556 N 48.7773 0.814389 1.34928 0
M  V30 557 C 50.0243 0.398423 1.98542 0
M  V30 558 C 50.3523 -1.03638 1.64589 0
M  V30 559 O 49.6073 -1.73509 0.90516 0
M  V30 560 C 49.9063 0.537781 3.53331 0
M  V30 561 C 49.5723 1.93704 4.07172 0
M  V30 562 C 48.2343 2.31984 4.21589 0
M  V30 563 C 50.5863 2.85213 4.36237 0
M  V30 564 C 47.9143 3.61125 4.62391 0
M  V30 565 C 50.2663 4.13809 4.78482 0
M  V30 566 C 48.9303 4.52077 4.91104 0
M  V30 567 H 48.2003 0.145793 0.726516 0
M  V30 568 H 50.8473 1.03669 1.61012 0
M  V30 569 H 49.1523 -0.183906 3.91368 0
M  V30 570 H 50.8493 0.196588 4.00518 0
M  V30 571 H 47.4393 1.62966 3.96409 0
M  V30 572 H 51.6233 2.56885 4.24645 0
M  V30 573 H 46.8793 3.90612 4.70353 0
M  V30 574 H 51.0533 4.84811 4.99932 0
M  V30 575 H 48.6803 5.52196 5.22478 0
M  V30 576 N 50.2554 -1.46986 0.568584 0
M  V30 577 C 51.1874 -2.28233 -0.210337 0
M  V30 578 C 52.2004 -1.37682 -0.868767 0
M  V30 579 O 53.3894 -1.62406 -0.740705 0
M  V30 580 C 50.4894 -3.12293 -1.3163 0
M  V30 581 C 49.6624 -4.30878 -0.7525 0
M  V30 582 C 48.7214 -4.96445 -1.74439 0
M  V30 583 O 47.7474 -5.54482 -1.286 0
M  V30 584 N 48.9494 -4.92171 -3.07812 0
M  V30 585 H 51.7144 -2.95723 0.486648 0
M  V30 586 H 49.2754 -1.56742 0.405409 0
M  V30 587 H 51.2674 -3.53022 -1.97883 0
M  V30 588 H 49.8374 -2.46971 -1.91636 0
M  V30 589 H 49.0574 -3.94104 0.0871128 0
M  V30 590 H 50.3454 -5.07558 -0.35536 0
M  V30 591 H 49.7434 -4.46239 -3.47688 0
M  V30 592 H 48.3004 -5.36884 -3.69592 0
M  V30 593 N 51.7335 -0.305618 -1.54608 0
M  V30 594 C 52.6665 0.610536 -2.19881 0
M  V30 595 C 53.6445 1.1294 -1.16976 0
M  V30 596 O 54.8285 1.19673 -1.45638 0
M  V30 597 C 51.9555 1.83583 -2.84631 0
M  V30 598 C 51.0015 1.4498 -4.01102 0
M  V30 599 S 51.8345 0.501793 -5.33144 0
M  V30 600 C 52.9905 1.73478 -6.01379 0
M  V30 601 H 53.2235 0.0560177 -2.97247 0
M  V30 602 H 50.7565 -0.0897434 -1.54139 0
M  V30 603 H 52.7145 2.53898 -3.22562 0
M  V30 604 H 51.3755 2.36152 -2.07102 0
M  V30 605 H 50.5685 2.36236 -4.45206 0
M  V30 606 H 50.1705 0.826553 -3.64752 0
M  V30 607 H 52.4625 2.67473 -6.22467 0
M  V30 608 H 53.4055 1.33622 -6.95378 0
M  V30 609 H 53.8135 1.9136 -5.31076 0
M  V30 610 N 53.2116 1.57565 -0.0334293 0
M  V30 611 C 54.4396 1.9628 0.654347 0
M  V30 612 C 54.8546 0.910138 1.65414 0
M  V30 613 O 54.2116 -0.107595 1.82183 0
M  V30 614 C 54.2626 3.35067 1.35693 0
M  V30 615 O 53.9836 4.36296 0.397191 0
M  V30 616 C 55.4846 3.88439 2.13613 0
M  V30 617 H 52.7046 0.646369 0.180132 0
M  V30 618 H 55.2486 2.04282 -0.0944721 0
M  V30 619 H 53.4036 3.2827 2.05712 0
M  V30 620 H 53.8176 5.1678 0.896597 0
M  V30 621 H 55.2916 4.8788 2.58219 0
M  V30 622 H 55.7686 3.22914 2.97696 0
M  V30 623 H 56.3746 3.98516 1.48543 0
M  V30 624 N 54.6897 -0.239769 1.55765 0
M  V30 625 C 55.6197 -1.30052 1.9393 0
M  V30 626 C 56.6007 -1.49839 0.805132 0
M  V30 627 O 57.7857 -1.62328 1.06599 0
M  V30 628 C 54.9157 -2.65391 2.2402 0
M  V30 629 C 53.8697 -2.60289 3.39755 0
M  V30 630 C 53.1957 -3.99489 3.55405 0
M  V30 631 C 54.4957 -2.16654 4.75246 0
M  V30 632 H 56.1897 -0.983573 2.82783 0
M  V30 633 H 53.7357 -0.471701 1.36055 0
M  V30 634 H 55.6887 -3.3974 2.49308 0
M  V30 635 H 54.4127 -2.98736 1.32 0
M  V30 636 H 53.0717 -1.88398 3.14487 0
M  V30 637 H 52.7197 -4.30112 2.60793 0
M  V30 638 H 52.4197 -3.96962 4.33238 0
M  V30 639 H 53.9437 -4.75528 3.83022 0
M  V30 640 H 55.3577 -2.80737 4.99859 0
M  V30 641 H 53.7547 -2.25223 5.56232 0
M  V30 642 H 54.8247 -1.11835 4.71827 0
M  V30 643 N 56.1678 -1.49265 -0.50573 0
M  V30 644 C 57.4168 -1.57761 -1.25675 0
M  V30 645 C 57.7298 -0.267371 -1.93764 0
M  V30 646 O 58.9358 -0.230827 -2.70517 0
M  V30 647 C 57.3918 -2.78332 -2.28165 0
M  V30 648 C 56.9998 -4.16096 -1.66037 0
M  V30 649 C 58.7438 -2.96155 -3.04125 0
M  V30 650 C 56.6508 -5.27895 -2.6661 0
M  V30 651 H 55.5808 -0.587391 -0.472745 0
M  V30 652 H 58.2318 -1.75644 -0.53118 0
M  V30 653 H 56.6138 -2.53934 -3.03865 0
M  V30 654 H 57.7878 -4.50612 -0.963622 0
M  V30 655 H 56.1028 -4.03591 -1.02484 0
M  V30 656 H 58.6998 -3.76849 -3.79327 0
M  V30 657 H 59.0428 -2.06534 -3.61455 0
M  V30 658 H 59.5758 -3.2057 -2.35541 0
M  V30 659 H 56.3148 -6.1956 -2.14068 0
M  V30 660 H 55.8348 -4.97839 -3.34539 0
M  V30 661 H 57.5138 -5.57031 -3.29129 0
M  V30 662 N 57.6459 0.756429 -1.3826 0
M  V30 663 C 58.6089 1.85176 -1.35065 0
M  V30 664 C 59.6089 1.58818 -0.251703 0
M  V30 665 O 60.7989 1.66615 -0.508433 0
M  V30 666 C 57.9309 3.22596 -1.10201 0
M  V30 667 H 59.1239 1.89417 -2.3251 0
M  V30 668 H 56.6769 0.95783 -1.23512 0
M  V30 669 H 57.4119 3.24025 -0.133504 0
M  V30 670 H 57.1969 3.43122 -1.89762 0
M  V30 671 H 58.6869 4.02673 -1.10654 0
M  V30 672 N 59.124 1.23083 0.984299 0
M  V30 673 C 60.087 1.00979 2.05757 0
M  V30 674 C 61.087 -0.0269573 1.60777 0
M  V30 675 O 62.277 0.212403 1.729 0
M  V30 676 C 59.409 0.527072 3.36801 0
M  V30 677 H 60.602 1.9622 2.26799 0
M  V30 678 H 58.155 1.05072 1.15714 0
M  V30 679 H 58.89 -0.429294 3.21446 0
M  V30 680 H 58.675 1.27515 3.70786 0
M  V30 681 H 60.165 0.392942 4.15747 0
M  V30 682 N 60.6021 -1.18246 1.0419 0
M  V30 683 C 61.5321 -2.24127 0.654914 0
M  V30 684 C 62.5131 -1.66617 -0.342451 0
M  V30 685 O 63.6981 -1.92924 -0.222277 0
M  V30 686 C 60.8281 -3.47295 0.0183757 0
M  V30 687 C 59.7821 -4.17563 0.939414 0
M  V30 688 C 59.1081 -5.34438 0.167286 0
M  V30 689 C 60.4081 -4.70917 2.25908 0
M  V30 690 H 62.1021 -2.56753 1.54007 0
M  V30 691 H 59.6481 -1.23414 0.74195 0
M  V30 692 H 61.6011 -4.20572 -0.264082 0
M  V30 693 H 60.3251 -3.13907 -0.901664 0
M  V30 694 H 58.9841 -3.46186 1.20628 0
M  V30 695 H 58.6321 -4.97298 -0.7552 0
M  V30 696 H 58.3321 -5.82388 0.780901 0
M  V30 697 H 59.8561 -6.10504 -0.108125 0
M  V30 698 H 61.2701 -5.35882 2.03724 0
M  V30 699 H 59.6671 -5.29406 2.82577 0
M  V30 700 H 60.7371 -3.88272 2.9047 0
M  V30 701 N 62.0802 -0.821533 -1.34494 0
M  V30 702 C 63.0102 -0.257138 -2.3208 0
M  V30 703 C 63.9912 0.625645 -1.58176 0
M  V30 704 O 65.1762 0.552811 -1.86166 0
M  V30 705 C 62.3062 0.582958 -3.42372 0
M  V30 706 C 61.2602 -0.202571 -4.2752 0
M  V30 707 C 60.5862 0.760179 -5.29269 0
M  V30 708 C 61.8862 -1.40998 -5.02908 0
M  V30 709 H 63.5802 -1.07247 -2.79532 0
M  V30 710 H 61.1262 -0.517163 -1.34393 0
M  V30 711 H 63.0792 0.987972 -4.09655 0
M  V30 712 H 61.8032 1.43133 -2.93565 0
M  V30 713 H 60.4622 -0.588936 -3.61838 0
M  V30 714 H 60.1102 1.60447 -4.76724 0
M  V30 715 H 59.8102 0.238809 -5.87115 0
M  V30 716 H 61.3342 1.16308 -5.9942 0
M  V30 717 H 62.7482 -1.07905 -5.63054 0
M  V30 718 H 61.1452 -1.86689 -5.70322 0
M  V30 719 H 62.2152 -2.1889 -4.32684 0
M  V30 720 N 63.5583 1.46682 -0.576371 0
M  V30 721 C 64.9693 1.86112 -0.148091 0
M  V30 722 C 65.3203 1.48073 1.2872 0
M  V30 723 O 64.4453 0.892656 1.97131 0
M  V30 724 C 65.0403 3.37786 -0.261982 0
M  V30 725 C 63.5993 3.76235 0.111384 0
M  V30 726 C 62.7463 2.70713 -0.60083 0
M  V30 727 H 65.6973 1.37927 -0.78497 0
M  V30 728 H 65.7183 3.77007 0.514364 0
M  V30 729 H 65.2303 3.6544 -1.30671 0
M  V30 730 H 63.3313 3.54198 1.15649 0
M  V30 731 H 63.4443 4.78391 -0.26052 0
M  V30 732 H 61.8083 2.54666 -0.0417783 0
M  V30 733 H 62.5913 3.01208 -1.64708 0
M  V30 734 N 65.0364 0.313813 1.54444 0
M  V30 735 C 65.9994 -0.54379 2.22656 0
M  V30 736 C 66.9994 -1.05124 1.21678 0
M  V30 737 O 68.1894 -0.945225 1.46325 0
M  V30 738 C 65.3214 -1.75427 2.92298 0
M  V30 739 H 66.5144 0.0523599 2.99854 0
M  V30 740 H 64.0674 0.0647834 1.56166 0
M  V30 741 H 64.8024 -2.38991 2.19211 0
M  V30 742 H 64.5874 -1.39791 3.66334 0
M  V30 743 H 66.0774 -2.36325 3.44297 0
M  V30 744 N 66.5145 -1.57545 0.0417849 0
M  V30 745 C 67.7605 -1.92601 -0.635021 0
M  V30 746 C 68.0935 -0.919627 -1.71045 0
M  V30 747 O 67.3685 0.0557892 -1.9442 0
M  V30 748 C 67.6515 -3.38085 -1.23979 0
M  V30 749 C 67.5045 -4.49467 -0.173057 0
M  V30 750 C 68.8235 -3.83776 -2.15416 0
M  V30 751 H 65.9425 -0.700397 -0.229374 0
M  V30 752 H 68.5845 -1.89728 0.101633 0
M  V30 753 H 66.7345 -3.40664 -1.86762 0
M  V30 754 H 68.4065 -4.59018 0.458312 0
M  V30 755 H 66.6495 -4.30909 0.499996 0
M  V30 756 H 67.3205 -5.48323 -0.636054 0
M  V30 757 H 69.7965 -3.83013 -1.62605 0
M  V30 758 H 68.6725 -4.8624 -2.54679 0
M  V30 759 H 68.9335 -3.19998 -3.05047 0
M  V30 760 N 67.9926 0.231505 -1.5589 0
M  V30 761 C 68.9226 1.29022 -1.94617 0
M  V30 762 C 69.9036 1.4941 -0.813067 0
M  V30 763 O 71.0886 1.6176 -1.07459 0
M  V30 764 C 68.2186 2.64199 -2.25424 0
M  V30 765 C 67.1726 2.58484 -3.41131 0
M  V30 766 C 66.4986 3.97599 -3.57518 0
M  V30 767 C 67.7986 2.1413 -4.76388 0
M  V30 768 H 69.4926 0.968563 -2.83301 0
M  V30 769 H 67.0386 0.464479 -1.36303 0
M  V30 770 H 68.9916 3.38413 -2.51107 0
M  V30 771 H 67.7156 2.98032 -1.33583 0
M  V30 772 H 66.3746 1.86727 -3.15481 0
M  V30 773 H 66.0226 4.28723 -2.6307 0
M  V30 774 H 65.7226 3.94659 -4.35337 0
M  V30 775 H 67.2466 4.7349 -3.85538 0
M  V30 776 H 68.6606 2.78083 -5.01341 0
M  V30 777 H 67.0576 2.2227 -5.57419 0
M  V30 778 H 68.1276 1.09331 -4.72414 0
M  V30 779 N 69.4707 1.49531 0.497807 0
M  V30 780 C 70.7187 1.58865 1.24926 0
M  V30 781 C 71.0397 0.278721 1.92998 0
M  V30 782 O 70.3097 -0.702144 1.82885 0
M  V30 783 H 68.8897 0.585343 0.464094 0
M  V30 784 H 71.5517 1.86174 0.57666 0
M  V30 785 H 70.6477 2.38633 2.01149 0
M  V30 786 N 70.9488 -0.749086 1.3866 0
M  V30 787 C 71.8968 -1.88428 1.36373 0
M  V30 788 C 72.8908 -1.67561 0.248929 0
M  V30 789 O 74.0968 -1.75074 0.41821 0
M  V30 790 H 70.4718 -0.620023 0.42553 0
M  V30 791 H 72.4428 -1.87473 2.32156 0
M  V30 792 C 71.1918 -3.25961 1.21014 0
M  V30 793 H 70.5148 -3.42607 2.06059 0
M  V30 794 H 71.9548 -4.05625 1.23469 0
M  V30 795 C 70.4138 -3.36799 -0.0825941 0
M  V30 796 O 70.9438 -3.87517 -1.05797 0
M  V30 797 N 69.1498 -2.90258 -0.140939 0
M  V30 798 H 68.6968 -2.49174 0.653477 0
M  V30 799 H 68.6548 -2.97889 -1.00545 0
M  V30 800 N 72.4269 -1.23603 -0.977757 0
M  V30 801 C 73.6669 -1.08148 -1.73446 0
M  V30 802 C 74.0309 0.374785 -1.88307 0
M  V30 803 O 75.2319 0.650588 -2.60808 0
M  V30 804 C 73.5029 -1.78991 -3.0935 0
M  V30 805 S 75.0619 -1.79141 -4.00567 0
M  V30 806 H 71.8799 -0.386987 -0.596458 0
M  V30 807 H 74.4819 -1.5678 -1.16792 0
M  V30 808 H 73.1859 -2.8408 -2.96187 0
M  V30 809 H 72.7169 -1.30651 -3.71071 0
M  V30 810 H 74.7319 -0.851892 -4.88833 0
M  V30 811 N 73.905 1.17692 -1.04816 0
M  V30 812 C 75.153 1.87488 -0.754497 0
M  V30 813 C 75.474 1.81205 0.720407 0
M  V30 814 O 74.744 1.23544 1.52032 0
M  V30 815 H 73.324 0.694101 -0.276102 0
M  V30 816 H 75.986 1.42793 -1.32651 0
M  V30 817 H 75.082 2.93328 -1.06606 0
M  V30 818 N 75.3831 0.828654 1.34056 0
M  V30 819 C 76.7941 0.477534 1.8049 0
M  V30 820 C 77.1451 -1.00258 1.6865 0
M  V30 821 O 76.2701 -1.78057 1.22982 0
M  V30 822 C 76.8651 0.860018 3.27703 0
M  V30 823 C 75.4241 0.561185 3.72193 0
M  V30 824 C 74.5711 1.07385 2.55663 0
M  V30 825 H 77.5221 1.0183 1.21722 0
M  V30 826 H 77.5431 0.166038 3.80138 0
M  V30 827 H 77.0551 1.93731 3.36288 0
M  V30 828 H 75.1561 -0.506465 3.69142 0
M  V30 829 H 75.2691 1.10926 4.66082 0
M  V30 830 H 73.6331 0.495149 2.49841 0
M  V30 831 H 74.4161 2.15771 2.67016 0
M  V30 832 N 76.8612 -1.46375 0.584142 0
M  V30 833 C 78.2722 -1.86031 0.157959 0
M  V30 834 C 78.6232 -1.48753 -1.27933 0
M  V30 835 O 77.7482 -0.903098 -1.96655 0
M  V30 836 C 78.3432 -3.37642 0.279892 0
M  V30 837 C 76.9022 -3.76289 -0.09143 0
M  V30 838 C 76.0492 -2.7039 0.615178 0
M  V30 839 H 79.0002 -1.37509 0.792274 0
M  V30 840 H 79.0212 -3.77275 -0.494364 0
M  V30 841 H 78.5332 -3.64742 1.32607 0
M  V30 842 H 76.6342 -3.54806 -1.13769 0
M  V30 843 H 76.7472 -4.78246 0.285886 0
M  V30 844 H 75.1112 -2.5464 0.0552833 0
M  V30 845 H 75.8942 -3.0033 1.66303 0
M  V30 846 N 78.3393 -0.321999 -1.54275 0
M  V30 847 C 79.7503 0.166384 -1.85957 0
M  V30 848 C 80.1013 1.51747 -1.24367 0
M  V30 849 O 79.2263 2.09317 -0.549124 0
M  V30 850 C 79.8213 0.308681 -3.37391 0
M  V30 851 C 78.3803 0.741286 -3.69028 0
M  V30 852 C 77.5273 -0.137937 -2.76957 0
M  V30 853 H 80.4783 -0.542335 -1.49146 0
M  V30 854 H 80.4993 1.13984 -3.63026 0
M  V30 855 H 80.0113 -0.674809 -3.82188 0
M  V30 856 H 78.1123 1.73458 -3.29762 0
M  V30 857 H 78.2253 0.546118 -4.75977 0
M  V30 858 H 76.5893 0.386251 -2.51754 0
M  V30 859 H 77.3723 -1.11816 -3.2458 0
M  V30 860 N 79.8174 1.5752 -0.0501392 0
M  V30 861 C 81.0454 1.96963 0.633492 0
M  V30 862 C 81.4604 0.927631 1.6444 0
M  V30 863 O 80.8174 -0.0882665 1.82286 0
M  V30 864 C 80.8684 3.36487 1.32132 0
M  V30 865 O 80.5894 4.36693 0.350894 0
M  V30 866 C 82.0904 3.90682 2.09481 0
M  V30 867 H 79.3104 0.648244 0.173266 0
M  V30 868 H 81.8544 2.0417 -0.116134 0
M  V30 869 H 80.0094 3.30434 2.02218 0
M  V30 870 H 80.4234 5.17702 0.841735 0
M  V30 871 H 81.8974 4.90591 2.5303 0
M  V30 872 H 82.3744 3.26053 2.94255 0
M  V30 873 H 82.9804 4.00069 1.44307 0
M  V30 874 N 81.2955 -0.223234 1.56011 0
M  V30 875 C 82.2255 -1.27988 1.95298 0
M  V30 876 C 83.2065 -1.48976 0.820979 0
M  V30 877 O 84.3915 -1.61188 1.08315 0
M  V30 878 C 81.5215 -2.63 2.26822 0
M  V30 879 C 80.4755 -2.56671 3.42497 0
M  V30 880 C 79.8015 -3.95697 3.59622 0
M  V30 881 C 81.1015 -2.11601 4.77517 0
M  V30 882 H 82.7955 -0.953525 2.8381 0
M  V30 883 H 80.3415 -0.457244 1.36548 0
M  V30 884 H 82.2945 -3.37077 2.52898 0
M  V30 885 H 81.0185 -2.9732 1.35161 0
M  V30 886 H 79.6775 -1.85051 3.16467 0
M  V30 887 H 79.3255 -4.27322 2.6534 0
M  V30 888 H 79.0255 -3.92345 4.37424 0
M  V30 889 H 80.5495 -4.71438 3.88044 0
M  V30 890 H 81.9635 -2.7542 5.02809 0
M  V30 891 H 80.3605 -2.19311 5.5859 0
M  V30 892 H 81.4305 -1.06824 4.72987 0
M  V30 893 N 82.7736 -1.49793 -0.48987 0
M  V30 894 C 83.9986 -1.63836 -1.27172 0
M  V30 895 C 84.4236 -0.31402 -1.8546 0
M  V30 896 O 83.7816 0.719803 -1.66399 0
M  V30 897 C 83.8296 -2.71797 -2.36978 0
M  V30 898 O 82.9336 -2.31744 -3.41128 0
M  V30 899 H 82.2746 -0.547997 -0.37496 0
M  V30 900 H 84.8046 -1.96053 -0.585191 0
M  V30 901 H 84.8146 -2.94305 -2.82575 0
M  V30 902 H 83.4896 -3.67923 -1.93921 0
M  V30 903 H 82.0666 -2.1961 -3.01373 0
M  V30 904 N 84.2517 0.741722 -1.39055 0
M  V30 905 C 85.4987 1.50114 -1.35912 0
M  V30 906 C 85.8267 1.94443 0.0470937 0
M  V30 907 O 85.0817 1.66612 1.02659 0
M  V30 908 C 85.3807 2.7592 -2.27163 0
M  V30 909 C 85.0467 2.50493 -3.74919 0
M  V30 910 C 83.7087 2.43267 -4.1518 0
M  V30 911 C 86.0607 2.28585 -4.684 0
M  V30 912 C 83.3887 2.12166 -5.46994 0
M  V30 913 C 85.7407 1.99002 -6.00484 0
M  V30 914 C 84.4047 1.90241 -6.39816 0
M  V30 915 H 83.6747 0.549306 -0.497336 0
M  V30 916 H 86.3217 0.851896 -1.71508 0
M  V30 917 H 84.6267 3.45553 -1.84663 0
M  V30 918 H 86.3237 3.33923 -2.22028 0
M  V30 919 H 82.9137 2.56992 -3.43006 0
M  V30 920 H 87.0977 2.33139 -4.38132 0
M  V30 921 H 82.3537 2.03901 -5.76398 0
M  V30 922 H 86.5277 1.81057 -6.72452 0
M  V30 923 H 84.1547 1.65907 -7.41875 0
M  V30 924 N 85.7298 1.2412 0.971189 0
M  V30 925 C 86.6928 1.03156 2.04674 0
M  V30 926 C 87.6928 -0.00990322 1.60797 0
M  V30 927 O 88.8828 0.230729 1.72665 0
M  V30 928 C 86.0148 0.562765 3.36223 0
M  V30 929 H 87.2078 1.98614 2.24705 0
M  V30 930 H 84.7608 1.06293 1.14593 0
M  V30 931 H 85.4958 -0.395176 3.21883 0
M  V30 932 H 85.2808 1.31441 3.69413 0
M  V30 933 H 86.7708 0.437015 4.15307 0
M  V30 934 N 87.2079 -1.17134 1.05439 0
M  V30 935 C 88.1709 -2.19439 0.661764 0
M  V30 936 C 89.1709 -1.58199 -0.288042 0
M  V30 937 O 90.3609 -1.74053 -0.0715803 0
M  V30 938 C 87.4929 -3.40889 -0.0276209 0
M  V30 939 H 88.6859 -2.55688 1.56728 0
M  V30 940 H 86.2389 -1.31259 0.848567 0
M  V30 941 H 86.9739 -3.10187 -0.94629 0
M  V30 942 H 86.7589 -3.86586 0.655238 0
M  V30 943 H 88.2489 -4.16603 -0.288342 0
M  V30 944 N 88.686 -0.835752 -1.33615 0
M  V30 945 C 90.097 -0.487099 -1.80234 0
M  V30 946 C 90.448 0.993627 -1.69179 0
M  V30 947 O 89.573 1.77403 -1.23924 0
M  V30 948 C 90.168 -0.877385 -3.27242 0
M  V30 949 C 88.727 -0.580915 -3.7189 0
M  V30 950 C 87.874 -1.0874 -2.5509 0
M  V30 951 H 90.825 -1.02474 -1.2118 0
M  V30 952 H 90.846 -0.186195 -3.80044 0
M  V30 953 H 90.358 -1.95512 -3.35256 0
M  V30 954 H 88.459 0.486881 -3.69405 0
M  V30 955 H 88.572 -1.13396 -4.65487 0
M  V30 956 H 86.936 -0.508392 -2.49575 0
M  V30 957 H 87.719 -2.17184 -2.65868 0
M  V30 958 N 90.1641 1.46063 -0.591896 0
M  V30 959 C 91.0971 2.27452 0.184617 0
M  V30 960 C 92.0751 1.36188 0.888351 0
M  V30 961 O 93.2591 1.65606 0.90039 0
M  V30 962 C 90.3861 3.14162 1.26571 0
M  V30 963 C 89.4321 4.21255 0.666814 0
M  V30 964 S 90.2651 5.33034 -0.513345 0
M  V30 965 C 91.4211 6.23311 0.56872 0
M  V30 966 H 91.6541 2.92963 -0.505939 0
M  V30 967 H 89.1871 1.49676 -0.379014 0
M  V30 968 H 91.1451 3.6468 1.88463 0
M  V30 969 H 89.8061 2.47946 1.92826 0
M  V30 970 H 88.9991 4.81788 1.47974 0
M  V30 971 H 88.6011 3.73797 0.123359 0
M  V30 972 H 90.8931 6.61758 1.45198 0
M  V30 973 H 91.8361 7.081 -7.23824e-05 0
M  V30 974 H 92.2441 5.57646 0.876996 0
M  V30 975 N 91.6422 0.330177 1.54103 0
M  V30 976 C 92.9192 -0.325007 1.92881 0
M  V30 977 C 93.2992 -1.6934 1.26045 0
M  V30 978 O 92.6472 -2.24855 0.406526 0
M  V30 979 C 92.8572 -0.410634 3.46576 0
M  V30 980 C 94.2052 -0.667801 4.19316 0
M  V30 981 O 95.2292 -0.49329 3.52768 0
M  V30 982 O 94.0882 -1.00491 5.37181 0
M  V30 983 H 91.1822 -0.186873 0.80561 0
M  V30 984 H 93.7282 0.380376 1.65382 0
M  V30 985 H 92.5002 0.550164 3.87413 0
M  V30 986 H 92.1232 -1.16333 3.802 0
M  V30 987 N 93.1203 -1.57491 0.0584922 0
M  V30 988 C 94.3693 -1.92155 -0.613146 0
M  V30 989 C 94.6823 -0.939334 -1.71569 0
M  V30 990 O 95.8883 -1.17829 -2.44599 0
M  V30 991 C 94.3443 -3.41303 -1.14195 0
M  V30 992 C 93.9523 -4.47944 -0.0711265 0
M  V30 993 C 95.6963 -3.84988 -1.78841 0
M  V30 994 C 93.6033 -5.88212 -0.613225 0
M  V30 995 H 92.5333 -0.717162 -0.232796 0
M  V30 996 H 95.1843 -1.83049 0.12857 0
M  V30 997 H 93.5663 -3.45437 -1.93621 0
M  V30 998 H 94.7403 -4.55408 0.702836 0
M  V30 999 H 93.0553 -4.13644 0.478313 0
M  V30 1000 H 95.6523 -4.87159 -2.20408 0
M  V30 1001 H 95.9953 -3.21632 -2.64308 0
M  V30 1002 H 96.5283 -3.83401 -1.06059 0
M  V30 1003 H 93.2673 -6.55183 0.203978 0
M  V30 1004 H 92.7873 -5.84294 -1.35501 0
M  V30 1005 H 94.4663 -6.37687 -1.09383 0
M  V30 1006 N 94.5984 0.214957 -1.56127 0
M  V30 1007 C 95.8264 0.955092 -1.83536 0
M  V30 1008 C 96.2414 1.77677 -0.638472 0
M  V30 1009 O 95.5984 1.78219 0.392968 0
M  V30 1010 C 95.6494 1.86734 -3.09536 0
M  V30 1011 O 95.3704 1.07887 -4.24608 0
M  V30 1012 C 96.8714 2.72082 -3.4998 0
M  V30 1013 H 94.0914 0.279611 -0.609966 0
M  V30 1014 H 96.6354 0.228197 -2.03223 0
M  V30 1015 H 94.7904 2.5481 -2.91806 0
M  V30 1016 H 95.2044 1.69872 -4.9623 0
M  V30 1017 H 96.6784 3.31782 -4.41163 0
M  V30 1018 H 97.1554 3.44806 -2.7204 0
M  V30 1019 H 97.7614 2.09409 -3.70173 0
M  V30 1020 N 96.0765 1.50051 0.48192 0
M  V30 1021 C 97.0065 1.71046 1.58951 0
M  V30 1022 C 97.9875 0.559288 1.60642 0
M  V30 1023 O 99.1725 0.797243 1.77081 0
M  V30 1024 C 96.3025 1.79462 2.97339 0
M  V30 1025 C 95.2565 2.94558 3.10515 0
M  V30 1026 C 94.5825 2.88105 4.50444 0
M  V30 1027 C 95.8825 4.35227 2.88747 0
M  V30 1028 H 97.5765 2.6378 1.41635 0
M  V30 1029 H 95.1225 1.26936 0.679942 0
M  V30 1030 H 97.0755 1.92734 3.74742 0
M  V30 1031 H 95.7995 0.833412 3.15788 0
M  V30 1032 H 94.4585 2.80918 2.35543 0
M  V30 1033 H 94.1065 1.89853 4.65795 0
M  V30 1034 H 93.8065 3.65366 4.60197 0
M  V30 1035 H 95.3305 3.03412 5.29881 0
M  V30 1036 H 96.7445 4.49449 3.55905 0
M  V30 1037 H 95.1415 5.13856 3.09955 0
M  V30 1038 H 96.2115 4.48347 1.84696 0
M  V30 1039 N 97.5546 -0.734337 1.39446 0
M  V30 1040 C 98.7826 -1.52358 1.39981 0
M  V30 1041 C 99.1976 -1.88799 -0.0054975 0
M  V30 1042 O 98.5546 -1.54146 -0.976998 0
M  V30 1043 C 98.6056 -2.81072 2.27333 0
M  V30 1044 O 98.3266 -2.46178 3.62392 0
M  V30 1045 C 99.8276 -3.75096 2.36259 0
M  V30 1046 H 97.0476 -0.470806 0.478103 0
M  V30 1047 H 99.5916 -0.907339 1.83269 0
M  V30 1048 H 97.7466 -3.39026 1.87457 0
M  V30 1049 H 98.1606 -3.28866 4.08592 0
M  V30 1050 H 99.6346 -4.62305 3.01626 0
M  V30 1051 H 100.112 -4.16892 1.38194 0
M  V30 1052 H 100.718 -3.23061 2.76608 0
M  V30 1053 N 99.0327 -1.24633 -0.964593 0
M  V30 1054 C 99.9427 -1.05859 -2.09359 0
M  V30 1055 C 100.959 0.00148855 -1.74 0
M  V30 1056 O 102.135 -0.197346 -2.00431 0
M  V30 1057 C 99.1997 -0.668879 -3.40187 0
M  V30 1058 C 98.2607 -1.80578 -3.89474 0
M  V30 1059 C 97.4937 -1.43457 -5.14058 0
M  V30 1060 O 97.7167 -0.325775 -5.69469 0
M  V30 1061 O 96.6507 -2.2613 -5.57807 0
M  V30 1062 H 100.477 -2.00516 -2.28094 0
M  V30 1063 H 98.0617 -1.03481 -1.0776 0
M  V30 1064 H 99.9437 -0.463211 -4.18846 0
M  V30 1065 H 98.6187 0.248536 -3.22744 0
M  V30 1066 H 97.5257 -2.06623 -3.11862 0
M  V30 1067 H 98.8587 -2.70208 -4.11398 0
M  V30 1068 N 100.511 1.16574 -1.06058 0
M  V30 1069 C 101.739 1.90952 -0.796552 0
M  V30 1070 C 102.154 1.77302 0.648808 0
M  V30 1071 O 101.511 1.11605 1.44397 0
M  V30 1072 C 101.562 3.41736 -1.17894 0
M  V30 1073 O 101.283 3.54975 -2.56758 0
M  V30 1074 C 102.784 4.33169 -0.942308 0
M  V30 1075 H 100.004 0.605594 -0.288959 0
M  V30 1076 H 102.548 1.47777 -1.41358 0
M  V30 1077 H 100.703 3.82623 -0.606491 0
M  V30 1078 H 101.117 4.4846 -2.72 0
M  V30 1079 H 102.591 5.37439 -1.25952 0
M  V30 1080 H 103.068 4.3903 0.122078 0
M  V30 1081 H 103.674 3.98007 -1.49902 0
M  V30 1082 N 101.989 0.842826 1.3317 0
M  V30 1083 C 103.405 0.531128 1.50503 0
M  V30 1084 C 103.605 -0.940734 1.78192 0
M  V30 1085 O 102.661 -1.72436 1.84451 0
M  V30 1086 C 103.974 1.40789 2.65705 0
M  V30 1087 C 105.522 1.40708 2.79589 0
M  V30 1088 C 105.997 2.26878 3.97857 0
M  V30 1089 N 107.488 2.24609 4.05099 0
M  V30 1090 C 108.223 2.88019 4.95815 0
M  V30 1091 N 107.719 3.60496 5.9162 0
M  V30 1092 N 109.512 2.77469 4.88843 0
M  V30 1093 H 101.663 1.79557 1.1346 0
M  V30 1094 H 103.926 0.766267 0.558156 0
M  V30 1095 H 103.632 2.454 2.51936 0
M  V30 1096 H 103.506 1.08677 3.61205 0
M  V30 1097 H 105.893 0.368668 2.92788 0
M  V30 1098 H 105.974 1.76829 1.84838 0
M  V30 1099 H 105.618 3.3078 3.85418 0
M  V30 1100 H 105.548 1.88096 4.91861 0
M  V30 1101 H 108.039 1.71906 3.36536 0
M  V30 1102 H 108.352 4.06076 6.57512 0
M  V30 1103 H 106.697 3.64604 5.91683 0
M  V30 1104 H 109.888 2.20406 4.12963 0
M  V30 1105 H 110.061 3.2717 5.59342 0
M  V30 1106 N 103.467 -1.45747 0.599634 0
M  V30 1107 C 104.714 -2.02292 0.0917284 0
M  V30 1108 C 105.042 -1.46906 -1.27472 0
M  V30 1109 O 104.297 -0.630652 -1.8526 0
M  V30 1110 C 104.596 -3.57399 -0.00602758 0
M  V30 1111 C 104.262 -4.31902 1.29503 0
M  V30 1112 C 102.924 -4.51974 1.65144 0
M  V30 1113 C 105.276 -4.74551 2.15525 0
M  V30 1114 C 102.604 -5.11949 2.86574 0
M  V30 1115 C 104.956 -5.35868 3.36196 0
M  V30 1116 C 103.62 -5.54165 3.72099 0
M  V30 1117 H 102.89 -0.740239 0.0335658 0
M  V30 1118 H 105.537 -1.7491 0.779661 0
M  V30 1119 H 103.842 -3.84014 -0.777183 0
M  V30 1120 H 105.539 -3.98846 -0.415038 0
M  V30 1121 H 102.129 -4.16588 1.00761 0
M  V30 1122 H 106.313 -4.58784 1.8929 0
M  V30 1123 H 101.569 -5.24305 3.14507 0
M  V30 1124 H 105.743 -5.6787 4.03109 0
M  V30 1125 H 103.37 -6.00406 4.6628 0
M  V30 1126 N 104.945 -0.338344 -1.53925 0
M  V30 1127 C 105.892 0.520845 -2.24846 0
M  V30 1128 C 106.862 1.09976 -1.24477 0
M  V30 1129 O 108.047 1.13735 -1.53196 0
M  V30 1130 C 105.187 1.6685 -3.02084 0
M  V30 1131 C 104.3 1.11739 -4.17299 0
M  V30 1132 C 103.435 2.23193 -4.82036 0
M  V30 1133 C 102.474 1.65407 -5.89328 0
M  V30 1134 N 101.611 2.70582 -6.47866 0
M  V30 1135 H 106.451 -0.0904881 -2.97863 0
M  V30 1136 H 103.988 -0.0564282 -1.46992 0
M  V30 1137 H 105.946 2.34407 -3.45122 0
M  V30 1138 H 104.576 2.2509 -2.31375 0
M  V30 1139 H 103.628 0.332919 -3.7894 0
M  V30 1140 H 104.94 0.654677 -4.94485 0
M  V30 1141 H 104.094 2.98626 -5.28117 0
M  V30 1142 H 102.833 2.72807 -4.04262 0
M  V30 1143 H 101.838 0.884779 -5.42634 0
M  V30 1144 H 103.063 1.16652 -6.69006 0
M  V30 1145 H 101.009 3.1946 -5.72959 0
M  V30 1146 H 100.926 2.28917 -7.20509 0
M  V30 1147 H 102.194 3.45799 -6.98601 0
M  V30 1148 N 106.423 1.57458 -0.0668435 0
M  V30 1149 C 107.651 1.97624 0.612565 0
M  V30 1150 C 108.066 0.94502 1.63447 0
M  V30 1151 O 107.423 -0.0689276 1.8237 0
M  V30 1152 C 107.474 3.37869 1.28555 0
M  V30 1153 O 107.195 4.3704 0.304557 0
M  V30 1154 C 108.696 3.92882 2.05325 0
M  V30 1155 H 105.916 0.650045 0.166381 0
M  V30 1156 H 108.46 2.04035 -0.137782 0
M  V30 1157 H 106.615 3.3256 1.98702 0
M  V30 1158 H 107.029 5.18565 0.786779 0
M  V30 1159 H 108.503 4.93247 2.47812 0
M  V30 1160 H 108.98 3.29156 2.9078 0
M  V30 1161 H 109.586 4.01577 1.40056 0
M  V30 1162 N 107.901 -0.206675 1.56239 0
M  V30 1163 C 109.149 -0.927007 1.79586 0
M  V30 1164 C 109.47 -1.8427 0.637929 0
M  V30 1165 O 108.74 -1.92849 -0.344398 0
M  V30 1166 H 107.32 -0.345292 0.662407 0
M  V30 1167 H 109.982 -0.21496 1.93711 0
M  V30 1168 H 109.078 -1.52501 2.72305 0
M  V30 1169 N 109.379 -1.50304 -0.473955 0
M  V30 1170 C 110.607 -1.64902 -1.24959 0
M  V30 1171 C 111.022 -0.331198 -1.85872 0
M  V30 1172 O 110.379 0.68652 -1.69095 0
M  V30 1173 C 110.43 -2.73803 -2.36038 0
M  V30 1174 O 110.151 -4.00477 -1.77624 0
M  V30 1175 C 111.652 -2.99349 -3.26964 0
M  V30 1176 H 108.872 -0.554383 -0.378022 0
M  V30 1177 H 111.416 -1.9651 -0.566054 0
M  V30 1178 H 109.571 -2.44898 -3.00173 0
M  V30 1179 H 109.985 -4.60678 -2.5075 0
M  V30 1180 H 111.459 -3.79217 -4.01121 0
M  V30 1181 H 111.936 -2.10307 -3.85574 0
M  V30 1182 H 112.542 -3.29774 -2.68569 0
M  V30 1183 N 110.857 0.726932 -1.39834 0
M  V30 1184 C 112.085 1.51613 -1.40787 0
M  V30 1185 C 112.5 1.88799 -0.00451505 0
M  V30 1186 O 111.857 1.54662 0.968809 0
M  V30 1187 C 111.908 2.79863 -2.28821 0
M  V30 1188 O 111.629 2.44253 -3.63692 0
M  V30 1189 C 113.13 3.73837 -2.38245 0
M  V30 1190 H 110.35 0.468264 -0.480593 0
M  V30 1191 H 112.894 0.897607 -1.83748 0
M  V30 1192 H 111.049 3.38027 -1.89252 0
M  V30 1193 H 111.463 3.26695 -4.1033 0
M  V30 1194 H 112.937 4.60699 -3.04073 0
M  V30 1195 H 113.414 4.16153 -1.40403 0
M  V30 1196 H 114.02 3.21589 -2.78317 0
M  V30 1197 N 112.336 1.25143 0.95797 0
M  V30 1198 C 113.266 1.07711 2.07173 0
M  V30 1199 C 114.247 -0.0128462 1.70095 0
M  V30 1200 O 115.432 0.156061 1.93572 0
M  V30 1201 C 112.562 0.691503 3.40346 0
M  V30 1202 C 111.516 1.73132 3.9142 0
M  V30 1203 C 110.842 1.20049 5.21049 0
M  V30 1204 C 112.142 3.1294 4.1817 0
M  V30 1205 H 113.836 2.00873 2.22014 0
M  V30 1206 H 111.382 0.967191 1.06684 0
M  V30 1207 H 113.335 0.556505 4.17709 0
M  V30 1208 H 112.059 -0.275819 3.25433 0
M  V30 1209 H 110.718 1.8547 3.16222 0
M  V30 1210 H 110.366 0.223499 5.02503 0
M  V30 1211 H 110.066 1.89545 5.56189 0
M  V30 1212 H 111.59 1.07782 6.01012 0
M  V30 1213 H 113.004 3.03775 4.86203 0
M  V30 1214 H 111.401 3.79875 4.64559 0
M  V30 1215 H 112.471 3.6025 3.24573 0
M  V30 1216 N 113.814 -1.1601 1.06675 0
M  V30 1217 C 114.761 -2.20525 0.680967 0
M  V30 1218 C 115.731 -1.62904 -0.324283 0
M  V30 1219 O 116.916 -1.89615 -0.212294 0
M  V30 1220 C 114.056 -3.45013 0.0776551 0
M  V30 1221 C 113.169 -4.16863 1.13355 0
M  V30 1222 C 112.304 -5.2888 0.49597 0
M  V30 1223 C 111.343 -5.92537 1.53513 0
M  V30 1224 N 110.48 -6.96038 0.920631 0
M  V30 1225 H 115.32 -2.52876 1.57663 0
M  V30 1226 H 112.857 -1.24199 0.788223 0
M  V30 1227 H 114.815 -4.16193 -0.289704 0
M  V30 1228 H 113.445 -3.132 -0.781393 0
M  V30 1229 H 112.497 -3.44248 1.61857 0
M  V30 1230 H 113.809 -4.60294 1.92174 0
M  V30 1231 H 112.963 -6.06653 0.0758604 0
M  V30 1232 H 111.702 -4.86622 -0.324062 0
M  V30 1233 H 110.707 -5.13482 1.9651 0
M  V30 1234 H 111.932 -6.36873 2.35733 0
M  V30 1235 H 109.878 -6.55888 0.12138 0
M  V30 1236 H 109.795 -7.3786 1.64616 0
M  V30 1237 H 111.063 -7.77725 0.525795 0
M  V30 1238 N 115.292 -0.849877 -1.32721 0
M  V30 1239 C 116.522 -0.46408 -2.0132 0
M  V30 1240 C 116.93 0.94246 -1.64056 0
M  V30 1241 O 116.273 1.6257 -0.855379 0
M  V30 1242 C 116.335 -0.517887 -3.5575 0
M  V30 1243 C 115.999 -1.88248 -4.16427 0
M  V30 1244 C 116.996 -2.84726 -4.35002 0
M  V30 1245 C 114.681 -2.17832 -4.52609 0
M  V30 1246 C 116.675 -4.08945 -4.8892 0
M  V30 1247 C 114.362 -3.42304 -5.06232 0
M  V30 1248 C 115.36 -4.37677 -5.24335 0
M  V30 1249 O 115.048 -5.59946 -5.76815 0
M  V30 1250 H 114.78 -0.181327 -0.651227 0
M  V30 1251 H 117.334 -1.14713 -1.70382 0
M  V30 1252 H 115.564 0.221997 -3.86062 0
M  V30 1253 H 117.253 -0.148366 -4.05629 0
M  V30 1254 H 118.019 -2.63174 -4.07388 0
M  V30 1255 H 113.898 -1.44385 -4.37806 0
M  V30 1256 H 117.442 -4.83396 -5.02966 0
M  V30 1257 H 113.339 -3.63709 -5.33278 0
M  V30 1258 H 114.107 -5.61838 -5.95214 0
M  V30 1259 N 116.77 1.45427 -0.607355 0
M  V30 1260 C 117.998 2.06614 -0.108814 0
M  V30 1261 C 118.413 1.45204 1.2067 0
M  V30 1262 O 117.77 0.566132 1.73497 0
M  V30 1263 C 117.821 3.61481 0.0375347 0
M  V30 1264 O 117.542 4.20598 -1.22593 0
M  V30 1265 C 119.043 4.39652 0.567561 0
M  V30 1266 H 116.263 0.66747 -0.0687351 0
M  V30 1267 H 118.807 1.86675 -0.835022 0
M  V30 1268 H 116.962 3.80762 0.714068 0
M  V30 1269 H 117.376 5.1377 -1.05547 0
M  V30 1270 H 118.85 5.48518 0.61905 0
M  V30 1271 H 119.327 4.09417 1.58978 0
M  V30 1272 H 119.933 4.25234 -0.0749202 0
M  V30 1273 N 118.248 0.346503 1.53744 0
M  V30 1274 C 119.488 -0.249413 2.02873 0
M  V30 1275 C 119.852 -1.47532 1.22876 0
M  V30 1276 O 121.053 -2.1456 1.61918 0
M  V30 1277 C 119.324 -0.552909 3.53097 0
M  V30 1278 S 120.883 -1.12521 4.24128 0
M  V30 1279 H 117.701 -0.074042 0.707134 0
M  V30 1280 H 120.303 0.48495 1.8939 0
M  V30 1281 H 119.007 0.347083 4.0893 0
M  V30 1282 H 118.538 -1.31686 3.70705 0
M  V30 1283 H 120.553 -2.41075 4.33702 0
M  V30 1284 N 119.726 -1.57421 0.075193 0
M  V30 1285 C 120.656 -2.15942 -0.888324 0
M  V30 1286 C 121.637 -1.08737 -1.30806 0
M  V30 1287 O 122.822 -1.36787 -1.37851 0
M  V30 1288 C 119.952 -2.72379 -2.1547 0
M  V30 1289 C 118.906 -3.8478 -1.87425 0
M  V30 1290 C 118.232 -4.27834 -3.20721 0
M  V30 1291 C 119.532 -5.08869 -1.17684 0
M  V30 1292 H 121.226 -2.96705 -0.400799 0
M  V30 1293 H 118.772 -1.42723 -0.191342 0
M  V30 1294 H 120.725 -3.11965 -2.83295 0
M  V30 1295 H 119.449 -1.88841 -2.6647 0
M  V30 1296 H 118.108 -3.45703 -1.22004 0
M  V30 1297 H 117.756 -3.41214 -3.6957 0
M  V30 1298 H 117.456 -5.03605 -3.02746 0
M  V30 1299 H 118.98 -4.70039 -3.89738 0
M  V30 1300 H 120.394 -5.4575 -1.75584 0
M  V30 1301 H 118.791 -5.8994 -1.09956 0
M  V30 1302 H 119.861 -4.84648 -0.156453 0
M  V30 1303 N 121.204 0.198386 -1.56346 0
M  V30 1304 C 122.615 0.763358 -1.70381 0
M  V30 1305 C 122.966 1.83995 -0.681203 0
M  V30 1306 O 122.091 2.15785 0.16305 0
M  V30 1307 C 122.686 1.39143 -3.08909 0
M  V30 1308 C 121.245 1.90352 -3.2472 0
M  V30 1309 C 120.392 0.772233 -2.6633 0
M  V30 1310 H 123.343 -0.0266377 -1.58678 0
M  V30 1311 H 123.364 2.26076 -3.06055 0
M  V30 1312 H 122.876 0.607638 -3.83314 0
M  V30 1313 H 120.977 2.71461 -2.55225 0
M  V30 1314 H 121.09 2.06757 -4.3219 0
M  V30 1315 H 119.454 1.18566 -2.2542 0
M  V30 1316 H 120.237 0.00073556 -3.433 0
M  V30 1317 N 122.682 1.50554 0.465978 0
M  V30 1318 C 123.93 1.61479 1.21528 0
M  V30 1319 C 124.251 0.319596 1.92363 0
M  V30 1320 O 123.521 -0.663194 1.84333 0
M  V30 1321 H 122.101 0.595055 0.451573 0
M  V30 1322 H 124.763 1.87355 0.53704 0
M  V30 1323 H 123.859 2.42846 1.96042 0
M  V30 1324 N 124.16 -0.719506 1.40217 0
M  V30 1325 C 125.39 -1.50646 1.41384 0
M  V30 1326 C 125.798 -1.89197 0.0107743 0
M  V30 1327 O 125.141 -1.55709 -0.974708 0
M  V30 1328 C 125.203 -2.81405 2.23722 0
M  V30 1329 C 124.867 -2.65199 3.72181 0
M  V30 1330 C 125.864 -2.32717 4.64907 0
M  V30 1331 C 123.549 -2.81586 4.1595 0
M  V30 1332 C 125.543 -2.16827 5.99387 0
M  V30 1333 C 123.23 -2.65313 5.50502 0
M  V30 1334 C 124.228 -2.32981 6.42035 0
M  V30 1335 O 123.916 -2.16827 7.74107 0
M  V30 1336 H 123.648 -0.471606 0.484318 0
M  V30 1337 H 126.202 -0.895456 1.84853 0
M  V30 1338 H 124.432 -3.44823 1.75026 0
M  V30 1339 H 126.121 -3.43102 2.16878 0
M  V30 1340 H 126.887 -2.19694 4.32388 0
M  V30 1341 H 122.766 -3.0574 3.45027 0
M  V30 1342 H 126.31 -1.91513 6.70797 0
M  V30 1343 H 122.207 -2.7792 5.82607 0
M  V30 1344 H 122.975 -2.31778 7.84998 0
M  V30 1345 N 125.638 -1.25649 -0.95132 0
M  V30 1346 C 126.884 -1.10757 -1.69884 0
M  V30 1347 C 127.217 0.350061 -1.91019 0
M  V30 1348 O 126.492 1.25783 -1.48354 0
M  V30 1349 C 126.775 -1.86606 -3.07978 0
M  V30 1350 C 126.628 -3.40217 -2.94232 0
M  V30 1351 C 127.947 -1.65182 -4.07925 0
M  V30 1352 H 125.066 -0.40374 -0.616574 0
M  V30 1353 H 127.708 -1.54521 -1.10558 0
M  V30 1354 H 125.858 -1.49409 -3.58621 0
M  V30 1355 H 127.53 -3.87108 -2.50889 0
M  V30 1356 H 125.773 -3.67759 -2.30078 0
M  V30 1357 H 126.444 -3.88505 -3.92133 0
M  V30 1358 H 128.92 -1.9757 -3.66204 0
M  V30 1359 H 127.796 -2.20683 -5.02583 0
M  V30 1360 H 128.057 -0.593933 -4.38092 0
M  V30 1361 N 127.117 1.15442 -1.07289 0
M  V30 1362 C 128.533 1.38201 -0.798288 0
M  V30 1363 C 128.733 1.92429 0.597769 0
M  V30 1364 O 127.789 2.12962 1.3566 0
M  V30 1365 C 129.102 2.35357 -1.87156 0
M  V30 1366 C 130.65 2.49021 -1.89624 0
M  V30 1367 C 131.125 3.49468 -2.96034 0
M  V30 1368 N 132.616 3.57003 -2.95132 0
M  V30 1369 C 133.351 4.34543 -3.74112 0
M  V30 1370 N 132.847 5.15421 -4.6294 0
M  V30 1371 N 134.64 4.29625 -3.62462 0
M  V30 1372 H 126.791 0.78584 -1.97328 0
M  V30 1373 H 129.054 0.408065 -0.855679 0
M  V30 1374 H 128.76 2.02626 -2.87464 0
M  V30 1375 H 128.634 3.35129 -1.73114 0
M  V30 1376 H 131.021 2.81051 -0.899687 0
M  V30 1377 H 131.102 1.4925 -2.07745 0
M  V30 1378 H 130.746 3.18173 -3.95889 0
M  V30 1379 H 130.676 4.48992 -2.75161 0
M  V30 1380 H 133.167 2.99276 -2.30743 0
M  V30 1381 H 133.48 5.7183 -5.19837 0
M  V30 1382 H 131.825 5.14729 -4.66989 0
M  V30 1383 H 135.016 3.65505 -2.92444 0
M  V30 1384 H 135.189 4.89807 -4.24256 0
M  V30 1385 N 128.595 0.856903 1.32268 0
M  V30 1386 C 129.82 0.474569 2.01897 0
M  V30 1387 C 130.245 -0.921766 1.63967 0
M  V30 1388 O 129.603 -1.60589 0.84148 0
M  V30 1389 C 129.651 0.623799 3.55164 0
M  V30 1390 O 128.755 -0.342459 4.10976 0
M  V30 1391 H 128.096 0.190422 0.63611 0
M  V30 1392 H 130.626 1.15672 1.68764 0
M  V30 1393 H 130.636 0.512169 4.04773 0
M  V30 1394 H 129.311 1.64202 3.82113 0
M  V30 1395 H 127.888 -0.18688 3.72431 0
M  V30 1396 N 130.073 -1.45103 0.615059 0
M  V30 1397 C 131.023 -2.27679 -0.120966 0
M  V30 1398 C 132.007 -1.3775 -0.831491 0
M  V30 1399 O 133.199 -1.61683 -0.720249 0
M  V30 1400 C 130.328 -3.24767 -1.1127 0
M  V30 1401 C 129.414 -4.22184 -0.402627 0
M  V30 1402 N 129.805 -5.02692 0.559884 0
M  V30 1403 C 128.103 -4.4125 -0.649202 0
M  V30 1404 C 128.804 -5.73421 0.977942 0
M  V30 1405 N 127.78 -5.42657 0.320104 0
M  V30 1406 H 131.582 -2.87325 0.618181 0
M  V30 1407 H 129.096 -1.56345 0.439304 0
M  V30 1408 H 131.093 -3.82666 -1.65446 0
M  V30 1409 H 129.753 -2.66682 -1.85232 0
M  V30 1410 H 130.764 -5.09354 0.936976 0
M  V30 1411 H 127.441 -3.9428 -1.37293 0
M  V30 1412 H 128.831 -6.48107 1.77222 0
M  V30 1413 N 131.551 -0.354651 -1.53558 0
M  V30 1414 C 132.776 0.242153 -2.05981 0
M  V30 1415 C 133.201 1.42553 -1.2272 0
M  V30 1416 O 132.559 1.79656 -0.243604 0
M  V30 1417 C 132.607 0.624367 -3.55154 0
M  V30 1418 O 131.711 1.72301 -3.74681 0
M  V30 1419 H 131.052 0.0378432 -0.662921 0
M  V30 1420 H 133.582 -0.512087 -1.98088 0
M  V30 1421 H 133.592 0.898433 -3.97985 0
M  V30 1422 H 132.267 -0.240989 -4.15201 0
M  V30 1423 H 130.844 1.44535 -3.4375 0
M  V30 1424 N 133.029 1.57378 -0.0835403 0
M  V30 1425 C 134.257 1.98263 0.59157 0
M  V30 1426 C 134.672 0.962302 1.62435 0
M  V30 1427 O 134.029 -0.049581 1.82433 0
M  V30 1428 C 134.08 3.39214 1.24965 0
M  V30 1429 O 133.801 4.37339 0.258186 0
M  V30 1430 C 135.302 3.95038 2.01147 0
M  V30 1431 H 132.522 0.651773 0.159477 0
M  V30 1432 H 135.066 2.03878 -0.159415 0
M  V30 1433 H 133.221 3.34649 1.95164 0
M  V30 1434 H 133.635 5.19371 0.731734 0
M  V30 1435 H 135.109 4.95848 2.42567 0
M  V30 1436 H 135.586 3.32222 2.87272 0
M  V30 1437 H 136.192 4.0304 1.35789 0
M  V30 1438 N 134.507 -0.190092 1.56449 0
M  V30 1439 C 135.439 -1.25973 1.91477 0
M  V30 1440 C 136.452 -1.41452 0.805931 0
M  V30 1441 O 137.641 -1.41789 1.08435 0
M  V30 1442 C 134.741 -2.63117 2.13594 0
M  V30 1443 C 133.914 -2.69182 3.4476 0
M  V30 1444 C 132.973 -3.87557 3.5593 0
M  V30 1445 O 131.999 -3.74427 4.28711 0
M  V30 1446 N 133.201 -5.03224 2.89388 0
M  V30 1447 H 135.966 -0.962394 2.83828 0
M  V30 1448 H 133.527 -0.379981 1.57378 0
M  V30 1449 H 135.519 -3.40742 2.1835 0
M  V30 1450 H 134.089 -2.85319 1.27719 0
M  V30 1451 H 133.309 -1.77793 3.51828 0
M  V30 1452 H 134.597 -2.70229 4.31107 0
M  V30 1453 H 133.995 -5.16791 2.30094 0
M  V30 1454 H 132.552 -5.78778 2.99764 0
M  V30 1455 N 135.985 -1.50799 -0.457987 0
M  V30 1456 C 137.213 -1.66218 -1.23203 0
M  V30 1457 C 137.628 -0.350894 -1.85511 0
M  V30 1458 O 136.985 0.668546 -1.69814 0
M  V30 1459 C 137.036 -2.76291 -2.33121 0
M  V30 1460 O 136.757 -4.02338 -1.73366 0
M  V30 1461 C 138.258 -3.028 -3.2377 0
M  V30 1462 H 135.478 -0.558361 -0.372121 0
M  V30 1463 H 138.022 -1.97099 -0.545179 0
M  V30 1464 H 136.177 -2.48068 -2.97558 0
M  V30 1465 H 136.591 -4.63312 -2.4585 0
M  V30 1466 H 138.065 -3.8345 -3.97077 0
M  V30 1467 H 138.542 -2.14385 -3.83322 0
M  V30 1468 H 139.148 -3.32604 -2.65056 0
M  V30 1469 N 137.463 0.71206 -1.40597 0
M  V30 1470 C 138.393 1.83889 -1.43899 0
M  V30 1471 C 139.374 1.67442 -0.299504 0
M  V30 1472 O 140.559 1.87421 -0.508624 0
M  V30 1473 C 137.689 3.21877 -1.30431 0
M  V30 1474 C 136.643 3.53002 -2.42019 0
M  V30 1475 C 135.969 4.90172 -2.13626 0
M  V30 1476 C 137.269 3.53643 -3.84362 0
M  V30 1477 H 138.963 1.81383 -2.38203 0
M  V30 1478 H 136.509 0.871237 -1.14654 0
M  V30 1479 H 138.462 4.00404 -1.31357 0
M  V30 1480 H 137.186 3.24968 -0.326049 0
M  V30 1481 H 135.845 2.76818 -2.40349 0
M  V30 1482 H 135.493 4.89869 -1.14182 0
M  V30 1483 H 135.193 5.11962 -2.88389 0
M  V30 1484 H 136.717 5.71028 -2.1624 0
M  V30 1485 H 138.131 4.22203 -3.87837 0
M  V30 1486 H 136.528 3.86961 -4.58673 0
M  V30 1487 H 137.598 2.52954 -4.13693 0
M  V30 1488 N 138.941 1.26152 0.944643 0
M  V30 1489 C 140.169 1.14259 1.72489 0
M  V30 1490 C 140.584 -0.302555 1.8636 0
M  V30 1491 O 139.941 -1.20741 1.36849 0
M  V30 1492 C 139.992 1.80266 3.13347 0
M  V30 1493 O 139.713 3.19133 3.00143 0
M  V30 1494 C 141.214 1.74283 4.07603 0
M  V30 1495 H 138.434 0.398051 0.540181 0
M  V30 1496 H 140.978 1.66706 1.18446 0
M  V30 1497 H 139.133 1.31766 3.64303 0
M  V30 1498 H 139.547 3.51744 3.89071 0
M  V30 1499 H 141.021 2.25111 5.04013 0
M  V30 1500 H 141.498 0.708631 4.33446 0
M  V30 1501 H 142.104 2.22319 3.62567 0
M  V30 1502 N 140.419 -1.14872 1.07899 0
M  V30 1503 C 141.659 -1.8745 0.814965 0
M  V30 1504 C 142.023 -1.80758 -0.64733 0
M  V30 1505 O 143.224 -2.48422 -1.02664 0
M  V30 1506 C 141.495 -3.32286 1.31607 0
M  V30 1507 S 143.054 -4.22537 1.18357 0
M  V30 1508 H 139.872 -0.646833 0.295174 0
M  V30 1509 H 142.474 -1.38555 1.37923 0
M  V30 1510 H 141.178 -3.34703 2.37491 0
M  V30 1511 H 140.709 -3.86238 0.747261 0
M  V30 1512 H 142.724 -4.96044 0.124586 0
M  V30 1513 N 141.898 -0.863906 -1.31812 0
M  V30 1514 C 142.846 -0.30422 -2.30602 0
M  V30 1515 C 143.84 0.577419 -1.59255 0
M  V30 1516 O 145.046 0.464194 -1.73912 0
M  V30 1517 H 141.421 -0.0796877 -0.747766 0
M  V30 1518 H 143.392 -1.15148 -2.75288 0
M  V30 1519 C 142.141 0.484617 -3.44306 0
M  V30 1520 H 141.464 -0.18451 -3.99374 0
M  V30 1521 H 142.904 0.841664 -4.15562 0
M  V30 1522 C 141.363 1.6735 -2.92396 0
M  V30 1523 O 141.893 2.77273 -2.90659 0
M  V30 1524 N 140.099 1.50362 -2.48676 0
M  V30 1525 H 139.646 0.609402 -2.50288 0
M  V30 1526 H 139.604 2.30051 -2.14299 0
M  V30 1527 N 143.376 1.44774 -0.622745 0
M  V30 1528 C 144.601 2.06999 -0.128968 0
M  V30 1529 C 145.026 1.4617 1.1839 0
M  V30 1530 O 144.384 0.560007 1.72434 0
M  V30 1531 C 144.432 3.60595 -0.0188351 0
M  V30 1532 O 143.536 3.99398 1.02739 0
M  V30 1533 H 142.877 0.659047 -0.0809544 0
M  V30 1534 H 145.407 1.85784 -0.85705 0
M  V30 1535 H 145.417 4.07627 0.174476 0
M  V30 1536 H 144.092 4.04252 -0.977384 0
M  V30 1537 H 142.669 3.64011 0.809326 0
M  V30 1538 N 144.854 0.36279 1.53368 0
M  V30 1539 C 146.131 -0.284021 1.93527 0
M  V30 1540 C 146.511 -1.66628 1.29608 0
M  V30 1541 O 145.859 -2.23942 0.45413 0
M  V30 1542 C 146.069 -0.337028 3.47369 0
M  V30 1543 C 147.417 -0.578708 4.20638 0
M  V30 1544 O 148.441 -0.418352 3.53735 0
M  V30 1545 O 147.3 -0.89074 5.39192 0
M  V30 1546 H 144.394 -0.169743 0.809393 0
M  V30 1547 H 146.94 0.41537 1.64538 0
M  V30 1548 H 145.712 0.632217 3.86159 0
M  V30 1549 H 145.335 -1.08243 3.82582 0
M  V30 1550 N 146.332 -1.57332 0.0918853 0
M  V30 1551 C 147.58 -1.93853 -0.571446 0
M  V30 1552 C 147.901 -0.974212 -1.6892 0
M  V30 1553 O 147.171 -0.0257254 -1.95883 0
M  V30 1554 H 145.751 -0.715666 -0.214082 0
M  V30 1555 H 148.413 -1.94287 0.154464 0
M  V30 1556 H 147.509 -2.96191 -0.983729 0
M  V30 1557 N 147.81 0.181792 -1.56548 0
M  V30 1558 C 148.72 1.24538 -1.98815 0
M  V30 1559 C 149.736 1.49045 -0.897861 0
M  V30 1560 O 150.912 1.61399 -1.20467 0
M  V30 1561 C 147.977 2.56683 -2.33055 0
M  V30 1562 C 147.038 2.40131 -3.55859 0
M  V30 1563 C 146.271 3.65975 -3.88456 0
M  V30 1564 O 146.494 4.70711 -3.22161 0
M  V30 1565 O 145.428 3.6071 -4.81842 0
M  V30 1566 H 149.254 0.916647 -2.89536 0
M  V30 1567 H 146.839 0.387842 -1.44278 0
M  V30 1568 H 148.721 3.34655 -2.56094 0
M  V30 1569 H 147.396 2.89157 -1.45498 0
M  V30 1570 H 146.303 1.60226 -3.38051 0
M  V30 1571 H 147.636 2.12585 -4.43924 0
M  V30 1572 N 149.288 1.51039 0.449983 0
M  V30 1573 C 150.534 1.64287 1.19923 0
M  V30 1574 C 150.889 0.348701 1.89214 0
M  V30 1575 O 150.182 -0.654751 1.80065 0
M  V30 1576 C 150.376 2.77556 2.25161 0
M  V30 1577 C 150.205 4.17862 1.66198 0
M  V30 1578 C 148.975 4.83976 1.45243 0
M  V30 1579 C 151.173 5.01388 1.14519 0
M  V30 1580 N 149.155 6.08433 0.817437 0
M  V30 1581 C 150.526 6.16743 0.634705 0
M  V30 1582 C 152.581 4.87008 1.03574 0
M  V30 1583 C 151.284 7.19295 0.0255452 0
M  V30 1584 C 153.31 5.89757 0.440489 0
M  V30 1585 C 152.672 7.04375 -0.0595112 0
M  V30 1586 H 148.771 0.655161 0.426952 0
M  V30 1587 H 151.355 1.88228 0.49781 0
M  V30 1588 H 149.526 2.553 2.92706 0
M  V30 1589 H 151.258 2.80049 2.92155 0
M  V30 1590 H 148.013 4.41627 1.71063 0
M  V30 1591 H 148.437 6.75017 0.517747 0
M  V30 1592 H 153.079 3.9866 1.4082 0
M  V30 1593 H 150.797 8.07302 -0.359071 0
M  V30 1594 H 154.383 5.80698 0.35788 0
M  V30 1595 H 153.263 7.82521 -0.512882 0
M  V30 1596 N 150.766 -0.704594 1.40972 0
M  V30 1597 C 152.012 -1.46675 1.40051 0
M  V30 1598 C 152.345 -1.94199 0.00641102 0
M  V30 1599 O 151.62 -1.68916 -0.964235 0
M  V30 1600 C 151.903 -2.68505 2.39952 0
M  V30 1601 C 151.756 -2.26805 3.88432 0
M  V30 1602 C 153.075 -3.70686 2.37233 0
M  V30 1603 H 150.194 -0.532015 0.510028 0
M  V30 1604 H 152.836 -0.803255 1.72185 0
M  V30 1605 H 150.986 -3.25114 2.1268 0
M  V30 1606 H 152.658 -1.75592 4.26574 0
M  V30 1607 H 150.901 -1.58685 4.03734 0
M  V30 1608 H 151.572 -3.14181 4.53866 0
M  V30 1609 H 154.048 -3.23731 2.61415 0
M  V30 1610 H 152.924 -4.53553 3.09162 0
M  V30 1611 H 153.185 -4.19754 1.38777 0
M  V30 1612 N 152.244 -1.26651 -0.937939 0
M  V30 1613 C 153.474 -1.15006 -1.71631 0
M  V30 1614 C 153.882 0.297026 -1.86854 0
M  V30 1615 O 153.225 1.21493 -1.37786 0
M  V30 1616 C 153.287 -1.74984 -3.14039 0
M  V30 1617 C 152.951 -3.24103 -3.2219 0
M  V30 1618 C 153.948 -4.20877 -3.05219 0
M  V30 1619 C 151.633 -3.64625 -3.45476 0
M  V30 1620 C 153.627 -5.56151 -3.11408 0
M  V30 1621 C 151.314 -5.00032 -3.513 0
M  V30 1622 C 152.312 -5.95604 -3.34282 0
M  V30 1623 O 152 -7.28545 -3.3982 0
M  V30 1624 H 151.732 -0.401183 -0.544085 0
M  V30 1625 H 154.286 -1.67832 -1.18413 0
M  V30 1626 H 152.516 -1.16624 -3.68695 0
M  V30 1627 H 154.205 -1.58199 -3.73802 0
M  V30 1628 H 154.971 -3.90908 -2.87081 0
M  V30 1629 H 150.85 -2.90718 -3.57777 0
M  V30 1630 H 154.394 -6.30727 -2.98043 0
M  V30 1631 H 150.291 -5.29659 -3.68959 0
M  V30 1632 H 151.059 -7.3686 -3.56343 0
M  V30 1633 N 153.722 1.14298 -1.08507 0
M  V30 1634 C 154.67 2.21483 -0.710483 0
M  V30 1635 C 155.664 1.66998 0.284234 0
M  V30 1636 O 156.87 1.79401 0.146692 0
M  V30 1637 H 153.245 0.721578 -0.211729 0
M  V30 1638 H 155.216 2.50348 -1.62384 0
M  V30 1639 C 153.965 3.4743 -0.137007 0
M  V30 1640 H 153.288 3.89686 -0.893592 0
M  V30 1641 H 154.728 4.2391 0.0872789 0
M  V30 1642 C 153.187 3.17548 1.12538 0
M  V30 1643 O 153.717 3.35437 2.21009 0
M  V30 1644 N 151.923 2.71499 1.03617 0
M  V30 1645 H 151.47 2.57143 0.153403 0
M  V30 1646 H 151.428 2.51881 1.88158 0
M  V30 1647 N 155.201 0.870884 1.31352 0
M  V30 1648 C 156.429 0.49677 2.00848 0
M  V30 1649 C 156.844 -0.910998 1.65367 0
M  V30 1650 O 156.201 -1.59696 0.883374 0
M  V30 1651 C 156.252 0.645308 3.55694 0
M  V30 1652 O 155.973 1.99764 3.89905 0
M  V30 1653 C 157.474 0.272326 4.42463 0
M  V30 1654 H 154.694 0.193462 0.642506 0
M  V30 1655 H 157.238 1.1723 1.67563 0
M  V30 1656 H 155.393 0.0173176 3.87396 0
M  V30 1657 H 155.807 2.00607 4.84621 0
M  V30 1658 H 157.281 0.427208 5.50344 0
M  V30 1659 H 157.758 -0.788587 4.32062 0
M  V30 1660 H 158.364 0.876054 4.1618 0
M  V30 1661 N 156.679 -1.44442 0.630414 0
M  V30 1662 C 157.926 -2.02052 0.134617 0
M  V30 1663 C 158.254 -1.49576 -1.24327 0
M  V30 1664 O 157.509 -0.669806 -1.83881 0
M  V30 1665 C 157.808 -3.57332 0.0697835 0
M  V30 1666 C 157.474 -4.29058 1.38635 0
M  V30 1667 C 156.136 -4.4837 1.74694 0
M  V30 1668 C 158.488 -4.69872 2.25543 0
M  V30 1669 C 155.816 -5.05756 2.97369 0
M  V30 1670 C 158.168 -5.28616 3.47487 0
M  V30 1671 C 156.832 -5.46147 3.8377 0
M  V30 1672 H 156.102 -0.739361 0.0492598 0
M  V30 1673 H 158.749 -1.73217 0.816586 0
M  V30 1674 H 157.054 -3.85577 -0.695553 0
M  V30 1675 H 158.751 -3.99637 -0.330344 0
M  V30 1676 H 155.341 -4.14357 1.09574 0
M  V30 1677 H 159.525 -4.54666 1.98979 0
M  V30 1678 H 154.781 -5.17515 3.25558 0
M  V30 1679 H 158.955 -5.59192 4.15063 0
M  V30 1680 H 156.582 -5.9038 4.7891 0
M  V30 1681 N 158.157 -0.370918 -1.53173 0
M  V30 1682 C 159.397 0.217106 -2.03244 0
M  V30 1683 C 159.761 1.45558 -1.25207 0
M  V30 1684 O 160.962 2.11957 -1.65311 0
M  V30 1685 C 159.233 0.496664 -3.53932 0
M  V30 1686 S 160.792 1.0576 -4.25864 0
M  V30 1687 H 157.61 0.0627827 -0.708223 0
M  V30 1688 H 160.212 -0.515019 -1.88594 0
M  V30 1689 H 158.916 -0.412096 -4.08326 0
M  V30 1690 H 158.447 1.25772 -3.72753 0
M  V30 1691 H 160.462 2.34145 -4.37482 0
M  V30 1692 N 159.635 1.57281 -0.100228 0
M  V30 1693 C 160.884 1.93713 0.561984 0
M  V30 1694 C 161.197 0.984492 1.69018 0
M  V30 1695 O 162.403 1.24273 2.41389 0
M  V30 1696 C 160.859 3.4421 1.05106 0
M  V30 1697 C 160.467 4.47975 -0.0476628 0
M  V30 1698 C 162.211 3.89595 1.68571 0
M  V30 1699 C 160.118 5.89631 0.457055 0
M  V30 1700 H 159.048 0.723082 0.2137 0
M  V30 1701 H 161.699 1.82644 -0.177057 0
M  V30 1702 H 160.081 3.50449 1.84395 0
M  V30 1703 H 161.255 4.53385 -0.823333 0
M  V30 1704 H 159.57 4.1223 -0.587816 0
M  V30 1705 H 162.167 4.92832 2.07414 0
M  V30 1706 H 162.51 3.28526 2.55688 0
M  V30 1707 H 163.043 3.86078 0.958562 0
M  V30 1708 H 159.782 6.54411 -0.377616 0
M  V30 1709 H 159.302 5.87681 1.19962 0
M  V30 1710 H 160.981 6.40363 0.92437 0
M  V30 1711 N 161.113 -0.173488 1.56642 0
M  V30 1712 C 162.343 -0.904781 1.85734 0
M  V30 1713 C 162.751 -1.76431 0.68328 0
M  V30 1714 O 162.094 -1.802 -0.356865 0
M  V30 1715 C 162.156 -1.83382 3.09211 0
M  V30 1716 C 161.82 -1.15411 4.42187 0
M  V30 1717 C 162.817 -0.520609 5.17287 0
M  V30 1718 C 160.502 -1.15151 4.88923 0
M  V30 1719 C 162.496 0.106412 6.37311 0
M  V30 1720 C 160.183 -0.520664 6.08878 0
M  V30 1721 C 161.181 0.107196 6.82916 0
M  V30 1722 O 160.869 0.728102 8.00596 0
M  V30 1723 H 160.601 -0.268408 0.62043 0
M  V30 1724 H 163.155 -0.179096 2.04618 0
M  V30 1725 H 161.385 -2.59976 2.86268 0
M  V30 1726 H 163.074 -2.43476 3.24768 0
M  V30 1727 H 163.84 -0.514606 4.82262 0
M  V30 1728 H 159.719 -1.62961 4.31236 0
M  V30 1729 H 163.263 0.597081 6.9504 0
M  V30 1730 H 159.16 -0.524242 6.43368 0
M  V30 1731 H 159.928 0.627138 8.16094 0
M  V30 1732 N 162.591 -1.51276 -0.441967 0
M  V30 1733 C 163.538 -1.72256 -1.53612 0
M  V30 1734 C 164.508 -0.564164 -1.56225 0
M  V30 1735 O 165.693 -0.798074 -1.73307 0
M  V30 1736 C 162.833 -1.84932 -2.91366 0
M  V30 1737 C 161.946 -3.12459 -2.98317 0
M  V30 1738 C 161.081 -3.15758 -4.27166 0
M  V30 1739 C 160.12 -4.37619 -4.27967 0
M  V30 1740 N 159.257 -4.38493 -5.48333 0
M  V30 1741 H 164.097 -2.65654 -1.35026 0
M  V30 1742 H 161.634 -1.31662 -0.656009 0
M  V30 1743 H 163.592 -1.90263 -3.7129 0
M  V30 1744 H 162.222 -0.949461 -3.08521 0
M  V30 1745 H 161.274 -3.1646 -2.11086 0
M  V30 1746 H 162.586 -4.02382 -2.94771 0
M  V30 1747 H 161.74 -3.19979 -5.15459 0
M  V30 1748 H 160.479 -2.23715 -4.33362 0
M  V30 1749 H 159.484 -4.33579 -3.38067 0
M  V30 1750 H 160.709 -5.30921 -4.23438 0
M  V30 1751 H 158.655 -3.49318 -5.55259 0
M  V30 1752 H 158.572 -5.22219 -5.46647 0
M  V30 1753 H 159.84 -4.469 -6.38671 0
M  V30 1754 N 164.069 0.697108 -1.41344 0
M  V30 1755 C 165.485 1.00751 -1.2378 0
M  V30 1756 C 165.685 2.01105 -0.126066 0
M  V30 1757 O 164.741 2.47295 0.51004 0
M  V30 1758 C 166.054 1.53359 -2.58653 0
M  V30 1759 C 167.602 1.6525 -2.65822 0
M  V30 1760 C 168.077 2.2126 -4.01009 0
M  V30 1761 N 169.568 2.28622 -4.02847 0
M  V30 1762 C 170.303 2.72984 -5.04249 0
M  V30 1763 N 169.799 3.16962 -6.16041 0
M  V30 1764 N 171.592 2.72534 -4.91611 0
M  V30 1765 H 163.743 0.0322662 -2.12375 0
M  V30 1766 H 166.006 0.0768853 -0.944877 0
M  V30 1767 H 165.712 0.870773 -3.4075 0
M  V30 1768 H 165.586 2.51597 -2.81032 0
M  V30 1769 H 167.973 2.30644 -1.84086 0
M  V30 1770 H 168.054 0.655614 -2.47256 0
M  V30 1771 H 167.698 1.56482 -4.83193 0
M  V30 1772 H 167.628 3.21698 -4.16915 0
M  V30 1773 H 170.119 1.97585 -3.22131 0
M  V30 1774 H 170.432 3.49434 -6.89287 0
M  V30 1775 H 168.777 3.14875 -6.1958 0
M  V30 1776 H 171.968 2.37525 -4.0336 0
M  V30 1777 H 172.141 3.06789 -5.70775 0
M  V30 1778 N 165.547 1.27147 0.931209 0
M  V30 1779 C 166.787 1.14511 1.69312 0
M  V30 1780 C 167.151 -0.304638 1.89568 0
M  V30 1781 O 168.352 -0.553343 2.63043 0
M  V30 1782 C 166.623 1.90349 3.02493 0
M  V30 1783 S 168.182 1.93884 3.93642 0
M  V30 1784 H 165 0.408858 0.581684 0
M  V30 1785 H 167.602 1.61006 1.10893 0
M  V30 1786 H 166.306 2.94877 2.85439 0
M  V30 1787 H 165.837 1.44333 3.65966 0
M  V30 1788 H 167.852 1.03273 4.85334 0
M  V30 1789 N 167.025 -1.13721 1.09112 0
M  V30 1790 C 168.441 -1.36914 0.820174 0
M  V30 1791 C 168.641 -1.93356 -0.567079 0
M  V30 1792 O 167.697 -2.15093 -1.32255 0
M  V30 1793 C 169.01 -2.3235 1.90877 0
M  V30 1794 C 170.558 -2.45973 1.93562 0
M  V30 1795 C 171.033 -3.44714 3.01556 0
M  V30 1796 N 172.524 -3.52263 3.00775 0
M  V30 1797 C 173.259 -4.28536 3.80978 0
M  V30 1798 N 172.755 -5.07991 4.71081 0
M  V30 1799 N 174.548 -4.23804 3.69251 0
M  V30 1800 H 166.699 -0.754348 1.98553 0
M  V30 1801 H 168.962 -0.3944 0.862063 0
M  V30 1802 H 168.668 -1.98027 2.90651 0
M  V30 1803 H 168.542 -3.32332 1.78424 0
M  V30 1804 H 170.929 -2.79584 0.944286 0
M  V30 1805 H 171.01 -1.45926 2.10093 0
M  V30 1806 H 170.654 -3.11835 4.00901 0
M  V30 1807 H 170.584 -4.44558 2.82269 0
M  V30 1808 H 173.075 -2.95567 2.35475 0
M  V30 1809 H 173.388 -5.63487 5.28869 0
M  V30 1810 H 171.733 -5.07235 4.75119 0
M  V30 1811 H 174.924 -3.60806 2.98222 0
M  V30 1812 H 175.097 -4.82995 4.31995 0
M  V30 1813 N 168.503 -0.877838 -1.30888 0
M  V30 1814 C 169.453 -0.310872 -2.25871 0
M  V30 1815 C 170.437 0.556596 -1.50966 0
M  V30 1816 O 171.629 0.402187 -1.7237 0
M  V30 1817 C 168.758 0.479821 -3.3993 0
M  V30 1818 C 167.844 -0.401333 -4.22197 0
M  V30 1819 N 168.235 -1.49848 -4.83093 0
M  V30 1820 C 166.533 -0.195167 -4.45573 0
M  V30 1821 C 167.234 -2.0425 -5.44662 0
M  V30 1822 N 166.21 -1.33843 -5.26865 0
M  V30 1823 H 170.012 -1.1493 -2.70496 0
M  V30 1824 H 167.526 -0.726458 -1.45246 0
M  V30 1825 H 169.523 0.902582 -4.07012 0
M  V30 1826 H 168.183 1.31577 -2.96846 0
M  V30 1827 H 169.194 -1.88137 -4.82519 0
M  V30 1828 H 165.871 0.604192 -4.13105 0
M  V30 1829 H 167.261 -2.96345 -6.03017 0
M  V30 1830 N 169.982 1.44106 -0.638065 0
M  V30 1831 C 171.393 1.85316 -0.226894 0
M  V30 1832 C 171.744 1.53399 1.22324 0
M  V30 1833 O 170.869 0.975463 1.93167 0
M  V30 1834 C 171.464 3.3637 -0.405013 0
M  V30 1835 C 170.023 3.76369 -0.0482902 0
M  V30 1836 C 169.17 2.67921 -0.715108 0
M  V30 1837 H 172.121 1.34474 -0.842764 0
M  V30 1838 H 172.142 3.7885 0.354 0
M  V30 1839 H 171.654 3.59569 -1.46053 0
M  V30 1840 H 169.755 3.58784 1.00522 0
M  V30 1841 H 169.868 4.76856 -0.463187 0
M  V30 1842 H 168.232 2.54259 -0.149753 0
M  V30 1843 H 169.015 2.93951 -1.77335 0
M  V30 1844 N 171.46 0.379036 1.52974 0
M  V30 1845 C 172.708 -0.206014 2.01047 0
M  V30 1846 C 173.029 -1.48175 1.26765 0
M  V30 1847 O 172.299 -1.92085 0.384743 0
M  V30 1848 H 170.879 -0.0791184 0.742798 0
M  V30 1849 H 173.541 0.508366 1.88153 0
M  V30 1850 H 172.637 -0.423501 3.09213 0
M  V30 1851 N 172.938 -1.57226 0.108567 0
M  V30 1852 C 173.848 -2.18292 -0.859401 0
M  V30 1853 C 174.864 -1.15612 -1.30038 0
M  V30 1854 O 176.04 -1.48039 -1.36552 0
M  V30 1855 C 173.105 -2.762 -2.09558 0
M  V30 1856 C 172.166 -3.93881 -1.70752 0
M  V30 1857 C 171.399 -4.49018 -2.88477 0
M  V30 1858 O 171.622 -4.03068 -4.036 0
M  V30 1859 O 170.556 -5.39852 -2.66164 0
M  V30 1860 H 174.382 -3.01441 -0.369769 0
M  V30 1861 H 171.967 -1.48945 -0.1165 0
M  V30 1862 H 173.849 -3.13156 -2.81978 0
M  V30 1863 H 172.524 -1.96089 -2.57548 0
M  V30 1864 H 171.431 -3.61713 -0.954714 0
M  V30 1865 H 172.764 -4.75396 -1.27513 0
M  V30 1866 N 174.416 0.165178 -1.56732 0
M  V30 1867 C 175.346 1.20651 -1.99914 0
M  V30 1868 C 176.327 1.45827 -0.875705 0
M  V30 1869 O 177.512 1.57057 -1.14223 0
M  V30 1870 C 174.642 2.54401 -2.36427 0
M  V30 1871 C 173.596 2.43782 -3.51787 0
M  V30 1872 C 172.922 3.82078 -3.7406 0
M  V30 1873 C 174.222 1.93732 -4.85041 0
M  V30 1874 H 175.916 0.847534 -2.87154 0
M  V30 1875 H 173.462 0.40625 -1.38151 0
M  V30 1876 H 175.415 3.27458 -2.65234 0
M  V30 1877 H 174.139 2.92098 -1.46103 0
M  V30 1878 H 172.798 1.73178 -3.23117 0
M  V30 1879 H 172.446 4.17179 -2.81017 0
M  V30 1880 H 172.146 3.7584 -4.51684 0
M  V30 1881 H 173.67 4.56712 -4.05274 0
M  V30 1882 H 175.084 2.56569 -5.12684 0
M  V30 1883 H 173.481 1.98428 -5.66345 0
M  V30 1884 H 174.551 0.891962 -4.76626 0
M  V30 1885 N 175.894 1.51508 0.433938 0
M  V30 1886 C 177.31 1.39759 0.770682 0
M  V30 1887 C 177.51 0.482594 1.95636 0
M  V30 1888 O 176.566 -0.0609691 2.52426 0
M  V30 1889 C 177.879 2.81851 1.04787 0
M  V30 1890 C 179.427 2.91025 1.1521 0
M  V30 1891 C 179.902 4.34032 1.46219 0
M  V30 1892 N 181.393 4.37154 1.53136 0
M  V30 1893 C 182.128 5.4484 1.78709 0
M  V30 1894 N 181.624 6.62682 2.02051 0
M  V30 1895 N 183.417 5.32324 1.80519 0
M  V30 1896 H 175.568 2.09548 -0.346892 0
M  V30 1897 H 177.831 0.943446 -0.0928074 0
M  V30 1898 H 177.537 3.50815 0.249304 0
M  V30 1899 H 177.411 3.21386 1.97461 0
M  V30 1900 H 179.798 2.22257 1.94128 0
M  V30 1901 H 179.879 2.54983 0.204281 0
M  V30 1902 H 179.523 5.03351 0.678274 0
M  V30 1903 H 179.453 4.6759 2.42212 0
M  V30 1904 H 181.944 3.52197 1.36987 0
M  V30 1905 H 182.257 7.40543 2.20943 0
M  V30 1906 H 180.602 6.65791 1.99366 0
M  V30 1907 H 183.793 4.39246 1.61805 0
M  V30 1908 H 183.966 6.16328 2.00111 0
M  V30 1909 N 177.372 -0.689602 1.41712 0
M  V30 1910 C 178.32 -1.82475 1.44242 0
M  V30 1911 C 179.314 -1.66354 0.319774 0
M  V30 1912 O 180.52 -1.73143 0.492089 0
M  V30 1913 H 176.895 -0.601416 0.451445 0
M  V30 1914 H 178.866 -1.77458 2.39899 0
M  V30 1915 C 177.615 -3.20535 1.3473 0
M  V30 1916 H 176.938 -3.33559 2.20405 0
M  V30 1917 H 178.378 -4.00023 1.40562 0
M  V30 1918 C 176.837 -3.36846 0.0603281 0
M  V30 1919 O 177.367 -3.91656 -0.892663 0
M  V30 1920 N 175.573 -2.90595 -0.0177039 0
M  V30 1921 H 175.12 -2.46178 0.758572 0
M  V30 1922 H 175.078 -3.01886 -0.878201 0
M  V30 1923 N 178.85 -1.27639 -0.924453 0
M  V30 1924 C 180.098 -1.13941 -1.66918 0
M  V30 1925 C 180.419 0.314589 -1.92446 0
M  V30 1926 O 179.689 1.21964 -1.53303 0
M  V30 1927 H 178.269 -0.418678 -0.618642 0
M  V30 1928 H 180.931 -1.60213 -1.10985 0
M  V30 1929 H 180.027 -1.67094 -2.63602 0
M  V30 1930 N 180.328 1.1314 -1.09713 0
M  V30 1931 C 181.26 2.18343 -0.697056 0
M  V30 1932 C 182.273 1.60669 0.262551 0
M  V30 1933 O 183.462 1.78435 0.0481527 0
M  V30 1934 C 180.562 3.38899 -0.00684728 0
M  V30 1935 C 179.735 4.26078 -0.988741 0
M  V30 1936 C 178.794 5.25155 -0.331394 0
M  V30 1937 O 177.82 5.60701 -0.979926 0
M  V30 1938 N 179.022 5.73271 0.913261 0
M  V30 1939 H 181.787 2.5328 -1.60216 0
M  V30 1940 H 179.348 1.28491 -0.984971 0
M  V30 1941 H 181.34 4.02255 0.444191 0
M  V30 1942 H 179.91 3.02175 0.800551 0
M  V30 1943 H 179.13 3.59453 -1.61826 0
M  V30 1944 H 180.418 4.81178 -1.65364 0
M  V30 1945 H 179.816 5.46544 1.45966 0
M  V30 1946 H 178.373 6.3855 1.30757 0
M  V30 1947 N 181.806 0.884767 1.30421 0
M  V30 1948 C 183.052 0.503851 1.96441 0
M  V30 1949 C 183.385 -0.944518 1.69684 0
M  V30 1950 O 182.66 -1.66737 1.00145 0
M  V30 1951 C 182.943 0.779085 3.51571 0
M  V30 1952 C 182.796 2.27807 3.87846 0
M  V30 1953 C 184.115 0.255452 4.39358 0
M  V30 1954 H 181.234 0.184533 0.713524 0
M  V30 1955 H 183.876 1.10872 1.54297 0
M  V30 1956 H 182.026 0.264274 3.876 0
M  V30 1957 H 183.698 2.86127 3.61841 0
M  V30 1958 H 181.941 2.74479 3.35922 0
M  V30 1959 H 182.612 2.42125 4.96064 0
M  V30 1960 H 185.088 0.696079 4.10236 0
M  V30 1961 H 183.964 0.477361 5.4682 0
M  V30 1962 H 184.225 -0.843293 4.33983 0
M  V30 1963 N 183.284 -1.43765 0.645699 0
M  V30 1964 C 184.194 -2.34544 -0.0512957 0
M  V30 1965 C 185.21 -1.53455 -0.82022 0
M  V30 1966 O 186.386 -1.86133 -0.769176 0
M  V30 1967 C 183.451 -3.31636 -1.01087 0
M  V30 1968 C 182.512 -4.2863 -0.239712 0
M  V30 1969 C 181.745 -5.21084 -1.15358 0
M  V30 1970 O 181.968 -5.1779 -2.39269 0
M  V30 1971 O 180.902 -5.98593 -0.630038 0
M  V30 1972 H 184.728 -2.95624 0.695718 0
M  V30 1973 H 182.313 -1.43781 0.405882 0
M  V30 1974 H 184.195 -3.9136 -1.56254 0
M  V30 1975 H 182.87 -2.73069 -1.73824 0
M  V30 1976 H 181.777 -3.72408 0.355356 0
M  V30 1977 H 183.11 -4.90157 0.447936 0
M  V30 1978 N 184.763 -0.387143 -1.52771 0
M  V30 1979 C 186.012 0.19697 -2.00736 0
M  V30 1980 C 186.325 1.48082 -1.27793 0
M  V30 1981 O 187.531 2.14485 -1.66458 0
M  V30 1982 C 185.987 0.401568 -3.57653 0
M  V30 1983 C 185.595 -0.868907 -4.39493 0
M  V30 1984 C 187.339 0.942164 -4.13912 0
M  V30 1985 C 185.246 -0.632705 -5.88006 0
M  V30 1986 H 184.176 0.0773827 -0.750019 0
M  V30 1987 H 186.827 -0.50921 -1.76293 0
M  V30 1988 H 185.209 1.16954 -3.78335 0
M  V30 1989 H 186.383 -1.64133 -4.30577 0
M  V30 1990 H 184.698 -1.33429 -3.94443 0
M  V30 1991 H 187.295 1.13455 -5.22525 0
M  V30 1992 H 187.638 1.9106 -3.69867 0
M  V30 1993 H 188.171 0.233814 -3.97112 0
M  V30 1994 H 184.91 -1.57208 -6.36369 0
M  V30 1995 H 184.43 0.100825 -5.99715 0
M  V30 1996 H 186.109 -0.26642 -6.46451 0
M  V30 1997 N 186.241 1.57166 -0.116904 0
M  V30 1998 C 187.188 2.15202 0.83408 0
M  V30 1999 C 188.158 1.07644 1.26499 0
M  V30 2000 O 189.343 1.35541 1.34288 0
M  V30 2001 C 186.483 2.75405 2.07957 0
M  V30 2002 C 185.596 3.97264 1.69721 0
M  V30 2003 C 184.731 4.45561 2.89221 0
M  V30 2004 C 183.77 5.59956 2.47215 0
M  V30 2005 N 182.907 6.03006 3.59622 0
M  V30 2006 H 187.747 2.96141 0.332335 0
M  V30 2007 H 185.284 1.46309 0.152349 0
M  V30 2008 H 187.242 3.08439 2.80929 0
M  V30 2009 H 185.872 1.97159 2.55594 0
M  V30 2010 H 184.924 3.70404 0.866316 0
M  V30 2011 H 186.236 4.80226 1.34849 0
M  V30 2012 H 185.39 4.80493 3.7042 0
M  V30 2013 H 184.129 3.61544 3.27318 0
M  V30 2014 H 183.134 5.2463 1.64448 0
M  V30 2015 H 184.359 6.45738 2.10238 0
M  V30 2016 H 182.305 5.21931 3.97396 0
M  V30 2017 H 182.222 6.80819 3.28667 0
M  V30 2018 H 183.49 6.42576 4.41267 0
M  V30 2019 N 187.719 -0.156864 1.56817 0
M  V30 2020 C 188.947 -0.886316 1.86955 0
M  V30 2021 C 189.362 -1.75185 0.703975 0
M  V30 2022 O 188.719 -1.79555 -0.326552 0
M  V30 2023 C 188.77 -1.75117 3.16253 0
M  V30 2024 O 188.491 -0.920537 4.2832 0
M  V30 2025 C 189.992 -2.58905 3.59837 0
M  V30 2026 H 187.212 -0.25678 0.619923 0
M  V30 2027 H 189.756 -0.152615 2.0393 0
M  V30 2028 H 187.911 -2.43805 3.01062 0
M  V30 2029 H 188.325 -1.51337 5.02192 0
M  V30 2030 H 189.799 -3.1518 4.53172 0
M  V30 2031 H 190.276 -3.34472 2.84649 0
M  V30 2032 H 190.882 -1.95526 3.7769 0
M  V30 2033 N 189.197 -1.51736 -0.425897 0
M  V30 2034 C 190.474 -1.55519 -1.1863 0
M  V30 2035 C 190.854 -0.326219 -2.08564 0
M  V30 2036 O 190.202 0.688012 -2.17896 0
M  V30 2037 C 190.412 -2.87521 -1.9782 0
M  V30 2038 C 191.76 -3.39899 -2.54468 0
M  V30 2039 O 192.784 -2.89148 -2.08019 0
M  V30 2040 O 191.643 -4.2848 -3.39215 0
M  V30 2041 H 188.737 -0.625739 -0.540721 0
M  V30 2042 H 191.283 -1.64055 -0.434038 0
M  V30 2043 H 190.055 -3.68422 -1.31836 0
M  V30 2044 H 189.678 -2.822 -2.80088 0
M  V30 2045 N 190.675 0.682077 -1.42076 0
M  V30 2046 C 191.605 1.80796 -1.47767 0
M  V30 2047 C 192.586 1.6677 -0.334954 0
M  V30 2048 O 193.771 1.863 -0.548264 0
M  V30 2049 C 190.901 3.19038 -1.37229 0
M  V30 2050 C 189.855 3.47789 -2.49453 0
M  V30 2051 C 189.181 4.8553 -2.23975 0
M  V30 2052 C 190.481 3.45411 -3.91776 0
M  V30 2053 H 192.175 1.7629 -2.41997 0
M  V30 2054 H 189.721 0.846721 -1.16476 0
M  V30 2055 H 191.674 3.97528 -1.39821 0
M  V30 2056 H 190.398 3.24204 -0.394907 0
M  V30 2057 H 189.057 2.71657 -2.46166 0
M  V30 2058 H 188.705 4.87337 -1.24547 0
M  V30 2059 H 188.405 5.0573 -2.99184 0
M  V30 2060 H 189.929 5.66312 -2.28304 0
M  V30 2061 H 191.343 4.13882 -3.96705 0
M  V30 2062 H 189.74 3.77145 -4.66778 0
M  V30 2063 H 190.81 2.44122 -4.18966 0
M  V30 2064 N 192.153 1.28127 0.917671 0
M  V30 2065 C 193.378 1.18007 1.70555 0
M  V30 2066 C 193.803 -0.258257 1.86319 0
M  V30 2067 O 193.161 -1.1869 1.37049 0
M  V30 2068 C 193.209 1.87948 3.07746 0
M  V30 2069 O 192.313 1.18427 3.9503 0
M  V30 2070 H 191.654 0.409867 0.522403 0
M  V30 2071 H 194.184 1.69379 1.1477 0
M  V30 2072 H 194.194 1.95701 3.58001 0
M  V30 2073 H 192.869 2.92573 2.95591 0
M  V30 2074 H 191.446 1.18811 3.53466 0
M  V30 2075 N 193.631 -1.12557 1.10312 0
M  V30 2076 C 194.878 -1.84038 0.844759 0
M  V30 2077 C 195.206 -1.84026 -0.629668 0
M  V30 2078 O 194.461 -1.28026 -1.48013 0
M  V30 2079 C 194.76 -3.31462 1.33669 0
M  V30 2080 C 194.426 -3.51647 2.82232 0
M  V30 2081 C 193.088 -3.56864 3.22802 0
M  V30 2082 C 195.44 -3.58867 3.77974 0
M  V30 2083 C 192.768 -3.66844 4.57867 0
M  V30 2084 C 195.12 -3.70375 5.1284 0
M  V30 2085 C 193.784 -3.73848 5.52986 0
M  V30 2086 H 193.054 -0.673444 0.309119 0
M  V30 2087 H 195.701 -1.32824 1.37949 0
M  V30 2088 H 194.006 -3.85091 0.721949 0
M  V30 2089 H 195.703 -3.85236 1.11329 0
M  V30 2090 H 192.293 -3.48249 2.49842 0
M  V30 2091 H 196.477 -3.54107 3.47738 0
M  V30 2092 H 191.733 -3.67804 4.88396 0
M  V30 2093 H 195.907 -3.74904 5.86873 0
M  V30 2094 H 193.534 -3.81333 6.57639 0
M  V30 2095 N 195.109 -0.891671 -1.2995 0
M  V30 2096 C 196.357 -0.512486 -1.95494 0
M  V30 2097 C 196.678 0.942776 -1.70695 0
M  V30 2098 O 195.948 1.66374 -1.03424 0
M  V30 2099 H 194.528 -0.186533 -0.723336 0
M  V30 2100 H 197.19 -1.13621 -1.58355 0
M  V30 2101 H 196.286 -0.688342 -3.04415 0
M  V30 2102 N 196.587 1.43421 -0.653314 0
M  V30 2103 C 197.812 2.06678 -0.172846 0
M  V30 2104 C 198.237 1.48648 1.15262 0
M  V30 2105 O 197.595 0.596457 1.71208 0
M  V30 2106 C 197.643 3.60474 -0.0953184 0
M  V30 2107 O 196.747 4.01487 0.942442 0
M  V30 2108 H 196.088 0.657181 -0.0949155 0
M  V30 2109 H 198.618 1.83925 -0.896265 0
M  V30 2110 H 198.628 4.07905 0.0879728 0
M  V30 2111 H 197.303 4.02088 -1.06291 0
M  V30 2112 H 195.88 3.65646 0.731932 0
M  V30 2113 N 198.065 0.39524 1.52563 0
M  V30 2114 C 198.997 -0.472201 2.24283 0
M  V30 2115 C 200.01 -1.02178 1.26742 0
M  V30 2116 O 201.199 -0.923097 1.52778 0
M  V30 2117 C 198.299 -1.66775 2.95024 0
M  V30 2118 C 197.472 -1.2445 4.19322 0
M  V30 2119 C 196.531 -2.30539 4.7301 0
M  V30 2120 O 195.557 -1.91702 5.35947 0
M  V30 2121 N 196.759 -3.6253 4.53379 0
M  V30 2122 H 199.524 0.142282 2.99362 0
M  V30 2123 H 197.085 0.2219 1.60372 0
M  V30 2124 H 199.077 -2.37283 3.27839 0
M  V30 2125 H 197.647 -2.18845 2.23217 0
M  V30 2126 H 196.867 -0.368069 3.92478 0
M  V30 2127 H 198.155 -0.938457 5.0007 0
M  V30 2128 H 197.553 -3.96841 4.03154 0
M  V30 2129 H 196.11 -4.29055 4.90668 0
M  V30 2130 N 199.544 -1.57102 0.125237 0
M  V30 2131 C 200.793 -1.94582 -0.531095 0
M  V30 2132 C 201.106 -1.01126 -1.6743 0
M  V30 2133 O 202.312 -1.28097 -2.39381 0
M  V30 2134 C 200.768 -3.45839 -0.996164 0
M  V30 2135 C 200.376 -4.47842 0.118926 0
M  V30 2136 C 202.12 -3.92227 -1.62352 0
M  V30 2137 C 200.027 -5.90284 -0.363192 0
M  V30 2138 H 198.957 -0.726391 -0.20217 0
M  V30 2139 H 201.608 -1.82339 0.206092 0
M  V30 2140 H 199.99 -3.53338 -1.78796 0
M  V30 2141 H 201.164 -4.52018 0.895358 0
M  V30 2142 H 199.479 -4.11243 0.653324 0
M  V30 2143 H 202.076 -4.96069 -1.99548 0
M  V30 2144 H 202.419 -3.32552 -2.50429 0
M  V30 2145 H 202.952 -3.87554 -0.897019 0
M  V30 2146 H 199.691 -6.53728 0.481679 0
M  V30 2147 H 199.211 -5.89515 -1.10597 0
M  V30 2148 H 200.89 -6.41752 -0.822377 0
M  V30 2149 N 201.022 0.148545 -1.56898 0
M  V30 2150 C 201.932 1.20293 -2.01412 0
M  V30 2151 C 202.948 1.47107 -0.929273 0
M  V30 2152 O 204.124 1.58807 -1.23863 0
M  V30 2153 C 201.189 2.51682 -2.38447 0
M  V30 2154 C 200.25 2.32529 -3.60872 0
M  V30 2155 C 199.483 3.57653 -3.96132 0
M  V30 2156 O 199.706 4.63771 -3.32073 0
M  V30 2157 O 198.64 3.50408 -4.89385 0
M  V30 2158 H 202.466 0.855025 -2.91416 0
M  V30 2159 H 200.051 0.357151 -1.45068 0
M  V30 2160 H 201.933 3.29147 -2.63135 0
M  V30 2161 H 200.608 2.86006 -1.51599 0
M  V30 2162 H 199.515 1.53019 -3.41373 0
M  V30 2163 H 200.848 2.03121 -4.48333 0
M  V30 2164 N 202.5 1.5196 0.417844 0
M  V30 2165 C 203.747 1.65591 1.16559 0
M  V30 2166 C 204.075 0.381565 1.90721 0
M  V30 2167 O 203.33 -0.635156 1.85106 0
M  V30 2168 C 203.629 2.82269 2.19223 0
M  V30 2169 C 203.295 4.20819 1.61933 0
M  V30 2170 C 201.957 4.58506 1.46033 0
M  V30 2171 C 204.309 5.07196 1.20008 0
M  V30 2172 C 201.637 5.80257 0.867113 0
M  V30 2173 C 203.989 6.29544 0.621086 0
M  V30 2174 C 202.653 6.65987 0.449144 0
M  V30 2175 H 201.923 0.605939 0.42652 0
M  V30 2176 H 204.57 1.86041 0.45397 0
M  V30 2177 H 202.875 2.56118 2.96498 0
M  V30 2178 H 204.572 2.90012 2.76936 0
M  V30 2179 H 201.162 3.91116 1.7529 0
M  V30 2180 H 205.346 4.7867 1.31105 0
M  V30 2181 H 200.602 6.07124 0.721833 0
M  V30 2182 H 204.776 6.95805 0.287798 0
M  V30 2183 H 202.403 7.60199 -0.012632 0
M  V30 2184 N 203.978 -0.674533 1.42435 0
M  V30 2185 C 205.203 -1.46784 1.46524 0
M  V30 2186 C 205.628 -1.87938 0.078066 0
M  V30 2187 O 204.986 -1.56014 -0.92354 0
M  V30 2188 C 205.034 -2.69307 2.39805 0
M  V30 2189 O 204.138 -3.67587 1.86959 0
M  V30 2190 H 203.479 -0.440959 0.496439 0
M  V30 2191 H 206.009 -0.827326 1.87127 0
M  V30 2192 H 206.019 -3.17374 2.56393 0
M  V30 2193 H 204.694 -2.38692 3.40586 0
M  V30 2194 H 203.271 -3.2662 1.79927 0
M  V30 2195 N 205.456 -1.28612 -0.910864 0
M  V30 2196 C 206.696 -1.1719 -1.67469 0
M  V30 2197 C 207.06 0.274441 -1.90028 0
M  V30 2198 O 208.261 0.511425 -2.6389 0
M  V30 2199 C 206.532 -1.95137 -2.99427 0
M  V30 2200 S 208.091 -2.00122 -3.90508 0
M  V30 2201 H 204.909 -0.41806 -0.575106 0
M  V30 2202 H 207.511 -1.6275 -1.08317 0
M  V30 2203 H 206.215 -2.99381 -2.80712 0
M  V30 2204 H 205.746 -1.50137 -3.63624 0
M  V30 2205 H 207.761 -1.10981 -4.8363 0
M  V30 2206 N 206.934 1.1197 -1.10907 0
M  V30 2207 C 208.159 1.87942 -0.877064 0
M  V30 2208 C 208.584 1.79341 0.567314 0
M  V30 2209 O 207.942 1.15184 1.40009 0
M  V30 2210 C 207.99 3.34926 -1.33629 0
M  V30 2211 O 207.094 4.09303 -0.504447 0
M  V30 2212 H 206.435 0.583785 -0.316371 0
M  V30 2213 H 208.965 1.4157 -1.47712 0
M  V30 2214 H 208.975 3.8577 -1.32837 0
M  V30 2215 H 207.65 3.40504 -2.3881 0
M  V30 2216 H 206.227 3.68393 -0.577993 0
M  V30 2217 N 208.412 0.89855 1.29475 0
M  V30 2218 C 209.322 0.379974 2.31502 0
M  V30 2219 C 210.338 -0.524695 1.659 0
M  V30 2220 O 211.514 -0.414551 1.97087 0
M  V30 2221 C 208.579 -0.385138 3.44554 0
M  V30 2222 C 207.64 0.550914 4.2575 0
M  V30 2223 C 206.873 -0.177778 5.33404 0
M  V30 2224 O 207.096 -1.40189 5.52904 0
M  V30 2225 O 206.03 0.479106 5.9999 0
M  V30 2226 H 209.856 1.22639 2.77837 0
M  V30 2227 H 207.441 0.662834 1.33891 0
M  V30 2228 H 209.323 -0.817841 4.13388 0
M  V30 2229 H 207.998 -1.20763 3.0033 0
M  V30 2230 H 206.905 1.03271 3.59564 0
M  V30 2231 H 208.238 1.33979 4.73614 0
M  V30 2232 N 209.89 -1.43072 0.660911 0
M  V30 2233 C 211.138 -2.01323 0.177094 0
M  V30 2234 C 211.459 -1.5245 -1.2159 0
M  V30 2235 O 210.729 -0.740322 -1.81373 0
M  V30 2236 H 209.309 -0.744382 0.0624804 0
M  V30 2237 H 211.971 -1.75179 0.854305 0
M  V30 2238 H 211.067 -3.11649 0.167641 0
M  V30 2239 N 211.368 -0.403325 -1.52352 0
M  V30 2240 C 212.615 0.174347 -2.01748 0
M  V30 2241 C 212.943 1.45636 -1.2892 0
M  V30 2242 O 212.198 1.9193 -0.382258 0
M  V30 2243 C 212.497 0.474665 -3.54234 0
M  V30 2244 C 212.163 -0.717458 -4.45155 0
M  V30 2245 C 210.825 -1.04447 -4.69728 0
M  V30 2246 C 213.177 -1.51432 -4.98716 0
M  V30 2247 C 210.505 -2.16963 -5.45109 0
M  V30 2248 C 212.857 -2.6302 -5.75329 0
M  V30 2249 C 211.521 -2.96213 -5.98175 0
M  V30 2250 H 210.791 0.0637981 -0.738248 0
M  V30 2251 H 213.438 -0.543553 -1.83624 0
M  V30 2252 H 211.743 1.27406 -3.70506 0
M  V30 2253 H 213.44 0.934496 -3.89959 0
M  V30 2254 H 210.03 -0.452596 -4.26204 0
M  V30 2255 H 214.214 -1.27491 -4.79645 0
M  V30 2256 H 209.47 -2.43034 -5.61021 0
M  V30 2257 H 213.644 -3.25158 -6.15829 0
M  V30 2258 H 211.271 -3.83516 -6.56368 0
M  V30 2259 N 212.846 1.57033 -0.133567 0
M  V30 2260 C 214.093 1.95686 0.520877 0
M  V30 2261 C 214.421 1.0177 1.6575 0
M  V30 2262 O 213.676 0.0443195 1.9565 0
M  V30 2263 C 213.975 3.40674 1.08057 0
M  V30 2264 C 213.641 4.50855 0.0637899 0
M  V30 2265 C 212.303 4.80716 -0.215757 0
M  V30 2266 C 214.655 5.17398 -0.62835 0
M  V30 2267 C 211.983 5.74433 -1.19348 0
M  V30 2268 C 214.335 6.12167 -1.5948 0
M  V30 2269 C 212.999 6.40414 -1.88218 0
M  V30 2270 H 212.269 0.716067 0.190602 0
M  V30 2271 H 214.916 1.9026 -0.217556 0
M  V30 2272 H 213.221 3.42865 1.89606 0
M  V30 2273 H 214.918 3.67902 1.59529 0
M  V30 2274 H 211.508 4.27605 0.291855 0
M  V30 2275 H 215.692 4.94472 -0.425562 0
M  V30 2276 H 210.948 5.94616 -1.42272 0
M  V30 2277 H 215.122 6.6281 -2.13671 0
M  V30 2278 H 212.749 7.12838 -2.64133 0
M  V30 2279 N 214.325 -0.140222 1.56975 0
M  V30 2280 C 215.255 -1.17456 2.01808 0
M  V30 2281 C 216.236 -1.44415 0.898794 0
M  V30 2282 O 217.421 -1.5522 1.16707 0
M  V30 2283 C 214.551 -2.50607 2.40444 0
M  V30 2284 C 213.505 -2.38155 3.55621 0
M  V30 2285 C 212.831 -3.76078 3.80091 0
M  V30 2286 C 214.131 -1.85991 4.88062 0
M  V30 2287 H 215.825 -0.801743 2.88466 0
M  V30 2288 H 213.371 -0.38422 1.38779 0
M  V30 2289 H 215.324 -3.23197 2.7041 0
M  V30 2290 H 214.048 -2.89737 1.50732 0
M  V30 2291 H 212.707 -1.68016 3.25832 0
M  V30 2292 H 212.355 -4.12656 2.87618 0
M  V30 2293 H 212.055 -3.68606 4.57606 0
M  V30 2294 H 213.579 -4.50206 4.12488 0
M  V30 2295 H 214.993 -2.4838 5.16701 0
M  V30 2296 H 213.39 -1.89393 5.6943 0
M  V30 2297 H 214.46 -0.816023 4.77984 0
M  V30 2298 N 215.803 -1.52179 -0.40978 0
M  V30 2299 C 217.052 -1.65434 -1.15388 0
M  V30 2300 C 217.365 -0.390056 -1.91671 0
M  V30 2301 O 218.571 -0.402399 -2.68501 0
M  V30 2302 C 217.027 -2.92279 -2.10003 0
M  V30 2303 C 216.635 -4.25813 -1.39239 0
M  V30 2304 C 218.379 -3.14897 -2.84675 0
M  V30 2305 C 216.286 -5.43782 -2.32498 0
M  V30 2306 H 215.216 -0.616267 -0.434432 0
M  V30 2307 H 217.867 -1.78666 -0.418401 0
M  V30 2308 H 216.249 -2.72744 -2.871 0
M  V30 2309 H 217.423 -4.55828 -0.675099 0
M  V30 2310 H 215.738 -4.09292 -0.766097 0
M  V30 2311 H 218.335 -4.0021 -3.54593 0
M  V30 2312 H 218.678 -2.29103 -3.47588 0
M  V30 2313 H 219.211 -3.34901 -2.14677 0
M  V30 2314 H 215.95 -6.3192 -1.74233 0
M  V30 2315 H 215.47 -5.18106 -3.02201 0
M  V30 2316 H 217.149 -5.76834 -2.93038 0
M  V30 2317 N 217.281 0.66697 -1.42791 0
M  V30 2318 C 218.529 1.42417 -1.43394 0
M  V30 2319 C 218.85 1.94925 -0.0542373 0
M  V30 2320 O 218.12 1.73564 0.908415 0
M  V30 2321 H 216.7 0.528515 -0.527902 0
M  V30 2322 H 219.362 0.787562 -1.78279 0
M  V30 2323 H 218.458 2.27333 -2.13837 0
M  V30 2324 N 218.759 1.29093 0.90403 0
M  V30 2325 C 219.984 1.19809 1.69294 0
M  V30 2326 C 220.409 -0.238481 1.86582 0
M  V30 2327 O 219.767 -1.1723 1.383 0
M  V30 2328 C 219.815 1.91202 3.05736 0
M  V30 2329 O 218.919 1.22611 3.93752 0
M  V30 2330 H 218.26 0.415385 0.518027 0
M  V30 2331 H 220.79 1.70586 1.12967 0
M  V30 2332 H 220.8 1.99487 3.55906 0
M  V30 2333 H 219.475 2.95692 2.92471 0
M  V30 2334 H 218.052 1.22554 3.52186 0
M  V30 2335 N 220.237 -1.11381 1.11499 0
M  V30 2336 C 221.465 -1.86934 0.88675 0
M  V30 2337 C 221.88 -1.80195 -0.563476 0
M  V30 2338 O 221.237 -1.18367 -1.38908 0
M  V30 2339 C 221.288 -3.35722 1.34064 0
M  V30 2340 O 221.009 -3.4232 2.73401 0
M  V30 2341 C 222.51 -4.2818 1.14791 0
M  V30 2342 H 219.73 -0.591117 0.317523 0
M  V30 2343 H 222.274 -1.40865 1.48248 0
M  V30 2344 H 220.429 -3.79294 0.788355 0
M  V30 2345 H 220.843 -4.34971 2.93087 0
M  V30 2346 H 222.317 -5.30817 1.5145 0
M  V30 2347 H 222.794 -4.39113 0.0875279 0
M  V30 2348 H 223.4 -3.90402 1.68721 0
M  V30 2349 N 221.715 -0.905404 -1.28997 0
M  V30 2350 C 222.943 -0.549846 -1.9946 0
M  V30 2351 C 223.358 0.866834 -1.67724 0
M  V30 2352 O 222.715 1.57298 -0.925404 0
M  V30 2353 C 222.766 -0.739387 -3.53858 0
M  V30 2354 O 222.487 -2.10031 -3.84472 0
M  V30 2355 C 223.988 -0.389541 -4.41585 0
M  V30 2356 H 221.208 -0.210429 -0.637151 0
M  V30 2357 H 223.752 -1.21632 -1.64396 0
M  V30 2358 H 221.907 -0.120023 -3.87214 0
M  V30 2359 H 222.321 -2.13385 -4.79132 0
M  V30 2360 H 223.795 -0.572972 -5.49018 0
M  V30 2361 H 224.272 0.673756 -4.34001 0
M  V30 2362 H 224.878 -0.986089 -4.1371 0
M  V30 2363 N 223.193 1.4272 -0.668489 0
M  V30 2364 C 224.418 2.06484 -0.194758 0
M  V30 2365 C 224.843 1.49862 1.13679 0
M  V30 2366 O 224.201 0.614582 1.70565 0
M  V30 2367 C 224.249 3.60353 -0.133546 0
M  V30 2368 O 223.353 4.02464 0.899806 0
M  V30 2369 H 222.694 0.656137 -0.10188 0
M  V30 2370 H 225.224 1.82964 -0.915722 0
M  V30 2371 H 225.234 4.07976 0.0447041 0
M  V30 2372 H 223.909 4.00938 -1.1055 0
M  V30 2373 H 222.486 3.66402 0.693109 0
M  V30 2374 N 224.671 0.411399 1.52136 0
M  V30 2375 C 226.087 0.0623865 1.59478 0
M  V30 2376 C 226.287 -1.42554 1.4241 0
M  V30 2377 O 225.343 -2.19263 1.2522 0
M  V30 2378 C 226.656 0.559331 2.95452 0
M  V30 2379 C 228.204 0.517503 3.08692 0
M  V30 2380 C 228.679 0.990994 4.4715 0
M  V30 2381 N 230.17 0.947908 4.53397 0
M  V30 2382 C 230.905 1.28544 5.58806 0
M  V30 2383 N 230.401 1.69454 6.71757 0
M  V30 2384 N 232.194 1.20526 5.49026 0
M  V30 2385 H 224.345 1.37982 1.61477 0
M  V30 2386 H 226.608 0.566977 0.759764 0
M  V30 2387 H 226.314 1.59938 3.1323 0
M  V30 2388 H 226.188 -0.0298014 3.77188 0
M  V30 2389 H 228.575 -0.513505 2.90598 0
M  V30 2390 H 228.656 1.14272 2.28857 0
M  V30 2391 H 228.3 2.02034 4.65988 0
M  V30 2392 H 228.23 0.34257 5.25485 0
M  V30 2393 H 230.721 0.647157 3.72317 0
M  V30 2394 H 231.034 1.93513 7.48179 0
M  V30 2395 H 229.379 1.73359 6.73032 0
M  V30 2396 H 232.57 0.884505 4.59667 0
M  V30 2397 H 232.743 1.47161 6.31069 0
M  V30 2398 N 226.149 -1.5696 0.141893 0
M  V30 2399 C 227.389 -1.9785 -0.513304 0
M  V30 2400 C 227.753 -1.02467 -1.62371 0
M  V30 2401 O 228.954 -1.32382 -2.33941 0
M  V30 2402 C 227.225 -3.42797 -1.01118 0
M  V30 2403 S 228.784 -4.05709 -1.67169 0
M  V30 2404 H 225.602 -0.691318 -0.166135 0
M  V30 2405 H 228.204 -1.94114 0.232398 0
M  V30 2406 H 226.908 -4.0995 -0.192179 0
M  V30 2407 H 226.439 -3.50235 -1.79162 0
M  V30 2408 H 228.454 -3.98342 -2.95868 0
M  V30 2409 N 227.627 0.131896 -1.57047 0
M  V30 2410 C 228.537 1.1815 -2.02676 0
M  V30 2411 C 229.553 1.46113 -0.944824 0
M  V30 2412 O 230.729 1.57485 -1.25541 0
M  V30 2413 C 227.794 2.49139 -2.41103 0
M  V30 2414 C 226.855 2.28688 -3.63318 0
M  V30 2415 C 226.088 3.53431 -3.99903 0
M  V30 2416 O 226.311 4.60223 -3.36973 0
M  V30 2417 O 225.245 3.45198 -4.93074 0
M  V30 2418 H 229.071 0.824069 -2.92306 0
M  V30 2419 H 226.656 0.341745 -1.45439 0
M  V30 2420 H 228.538 3.26338 -2.66611 0
M  V30 2421 H 227.213 2.84382 -1.54624 0
M  V30 2422 H 226.12 1.4939 -3.42977 0
M  V30 2423 H 227.453 1.98355 -4.50462 0
M  V30 2424 N 229.106 1.52395 0.401703 0
M  V30 2425 C 230.352 1.67065 1.14966 0
M  V30 2426 C 230.685 0.403052 1.89971 0
M  V30 2427 O 229.96 -0.598774 1.85054 0
M  V30 2428 C 230.243 2.8975 2.13815 0
M  V30 2429 C 230.096 4.26578 1.42658 0
M  V30 2430 C 231.415 3.07965 3.14397 0
M  V30 2431 H 228.534 0.607968 0.416587 0
M  V30 2432 H 231.176 1.84965 0.434511 0
M  V30 2433 H 229.326 2.74619 2.74803 0
M  V30 2434 H 230.998 4.53451 0.847329 0
M  V30 2435 H 229.241 4.27639 0.72849 0
M  V30 2436 H 229.912 5.08483 2.14823 0
M  V30 2437 H 232.388 3.22043 2.63491 0
M  V30 2438 H 231.264 3.95308 3.80819 0
M  V30 2439 H 231.525 2.21611 3.82545 0
M  V30 2440 N 230.584 -0.659388 1.43143 0
M  V30 2441 C 231.516 -1.7849 1.43784 0
M  V30 2442 C 232.529 -1.5932 0.334787 0
M  V30 2443 O 233.718 -1.68155 0.598842 0
M  V30 2444 C 230.818 -3.15828 1.22906 0
M  V30 2445 C 229.991 -3.61711 2.45934 0
M  V30 2446 C 229.05 -4.77831 2.20371 0
M  V30 2447 O 228.076 -4.87586 2.93681 0
M  V30 2448 N 229.278 -5.67611 1.21647 0
M  V30 2449 H 232.043 -1.7842 2.40803 0
M  V30 2450 H 229.604 -0.84302 1.3822 0
M  V30 2451 H 231.596 -3.91189 1.03697 0
M  V30 2452 H 230.166 -3.10707 0.343542 0
M  V30 2453 H 229.386 -2.76861 2.80609 0
M  V30 2454 H 230.674 -3.89112 3.27825 0
M  V30 2455 H 230.072 -5.62397 0.610449 0
M  V30 2456 H 228.629 -6.42719 1.08423 0
M  V30 2457 N 232.062 -1.29571 -0.897171 0
M  V30 2458 C 233.339 -1.08365 -1.62839 0
M  V30 2459 C 233.719 0.371331 -2.07808 0
M  V30 2460 O 233.067 1.3606 -1.83576 0
M  V30 2461 C 233.277 -2.0735 -2.80726 0
M  V30 2462 C 234.625 -2.38406 -3.51351 0
M  V30 2463 O 235.649 -2.05564 -2.90898 0
M  V30 2464 O 234.508 -2.9453 -4.60341 0
M  V30 2465 H 231.602 -0.415345 -0.715134 0
M  V30 2466 H 234.148 -1.40952 -0.945018 0
M  V30 2467 H 232.92 -3.05339 -2.44711 0
M  V30 2468 H 232.543 -1.75507 -3.56767 0
M  V30 2469 N 233.54 1.10788 -1.12088 0
M  V30 2470 C 234.956 1.34691 -0.856186 0
M  V30 2471 C 235.156 1.94791 0.515615 0
M  V30 2472 O 234.212 2.18524 1.26505 0
M  V30 2473 C 235.525 2.27208 -1.9697 0
M  V30 2474 C 237.073 2.40755 -2.00016 0
M  V30 2475 C 237.548 3.36598 -3.1059 0
M  V30 2476 N 239.039 3.44164 -3.10008 0
M  V30 2477 C 239.774 4.18284 -3.92206 0
M  V30 2478 N 239.27 4.95322 -4.84384 0
M  V30 2479 N 241.063 4.13865 -3.80357 0
M  V30 2480 H 233.214 0.70144 -2.00483 0
M  V30 2481 H 235.477 0.371405 -0.872217 0
M  V30 2482 H 235.183 1.90251 -2.958 0
M  V30 2483 H 235.057 3.27485 -1.87172 0
M  V30 2484 H 237.444 2.76982 -1.01808 0
M  V30 2485 H 237.525 1.40305 -2.13888 0
M  V30 2486 H 237.169 3.01096 -4.09028 0
M  V30 2487 H 237.099 4.36918 -2.93956 0
M  V30 2488 H 239.59 2.8922 -2.43228 0
M  V30 2489 H 239.903 5.49267 -5.43623 0
M  V30 2490 H 238.248 4.94459 -4.884 0
M  V30 2491 H 241.439 3.52773 -3.07683 0
M  V30 2492 H 241.612 4.71372 -4.44649 0
M  V30 2493 N 235.018 0.912232 1.28515 0
M  V30 2494 C 236.266 0.543523 1.94654 0
M  V30 2495 C 236.587 -0.9155 1.72173 0
M  V30 2496 O 235.857 -1.64708 1.06058 0
M  V30 2497 H 234.437 0.198017 0.720277 0
M  V30 2498 H 237.099 1.16126 1.56527 0
M  V30 2499 H 236.195 0.736684 3.03281 0
M  V30 2500 N 236.496 -1.42363 0.676048 0
M  V30 2501 C 237.742 -2.0182 0.199125 0
M  V30 2502 C 238.075 -1.53339 -1.19168 0
M  V30 2503 O 237.35 -0.736124 -1.80032 0
M  V30 2504 C 237.633 -3.59331 0.235144 0
M  V30 2505 C 237.486 -4.17989 1.66149 0
M  V30 2506 C 238.805 -4.3813 -0.41595 0
M  V30 2507 H 235.924 -0.733293 0.0738311 0
M  V30 2508 H 238.566 -1.69368 0.86107 0
M  V30 2509 H 236.716 -3.87109 -0.328487 0
M  V30 2510 H 238.388 -4.0116 2.27747 0
M  V30 2511 H 236.631 -3.7377 2.20178 0
M  V30 2512 H 237.302 -5.27126 1.63837 0
M  V30 2513 H 239.778 -4.16051 0.0638529 0
M  V30 2514 H 238.654 -5.47717 -0.360115 0
M  V30 2515 H 238.915 -4.16101 -1.49373 0
M  V30 2516 N 237.974 -0.419461 -1.51915 0
M  V30 2517 C 239.222 0.152637 -2.01523 0
M  V30 2518 C 239.543 1.44762 -1.30649 0
M  V30 2519 O 238.813 1.90997 -0.435535 0
M  V30 2520 H 237.393 0.0593966 -0.744635 0
M  V30 2521 H 240.055 -0.558073 -1.86739 0
M  V30 2522 H 239.151 0.341369 -3.10227 0
M  V30 2523 N 239.452 1.56882 -0.150215 0
M  V30 2524 C 240.698 1.97299 0.494427 0
M  V30 2525 C 241.053 1.0338 1.62266 0
M  V30 2526 O 240.346 0.0694497 1.91474 0
M  V30 2527 C 240.54 3.41801 1.04437 0
M  V30 2528 C 240.369 4.49691 -0.0290451 0
M  V30 2529 C 239.139 5.03095 -0.47156 0
M  V30 2530 C 241.337 5.07693 -0.821703 0
M  V30 2531 N 239.319 5.94593 -1.52749 0
M  V30 2532 C 240.69 5.95431 -1.72805 0
M  V30 2533 C 242.745 4.90256 -0.869134 0
M  V30 2534 C 241.448 6.67599 -2.67777 0
M  V30 2535 C 243.474 5.63127 -1.8067 0
M  V30 2536 C 242.836 6.50576 -2.70057 0
M  V30 2537 H 238.935 0.76755 0.149639 0
M  V30 2538 H 241.519 1.93145 -0.24556 0
M  V30 2539 H 239.69 3.46541 1.75396 0
M  V30 2540 H 241.422 3.69272 1.6559 0
M  V30 2541 H 238.177 4.73543 -0.0732101 0
M  V30 2542 H 238.601 6.45047 -2.05531 0
M  V30 2543 H 243.243 4.22363 -0.192134 0
M  V30 2544 H 240.961 7.34717 -3.36476 0
M  V30 2545 H 244.547 5.51629 -1.84924 0
M  V30 2546 H 243.427 7.05974 -3.41424 0
M  V30 2547 N 240.93 -0.123565 1.57115 0
M  V30 2548 C 242.155 -0.850398 1.89164 0
M  V30 2549 C 242.58 -1.7286 0.741688 0
M  V30 2550 O 241.938 -1.78665 -0.307958 0
M  V30 2551 C 241.986 -1.66353 3.19936 0
M  V30 2552 O 241.09 -2.77004 3.0552 0
M  V30 2553 H 240.431 -0.235454 0.620852 0
M  V30 2554 H 242.961 -0.107335 2.04318 0
M  V30 2555 H 242.971 -2.05372 3.52543 0
M  V30 2556 H 241.646 -1.01881 4.03228 0
M  V30 2557 H 240.223 -2.41221 2.84371 0
M  V30 2558 N 242.408 -1.52605 -0.393616 0
M  V30 2559 C 243.358 -1.73436 -1.48 0
M  V30 2560 C 244.342 -0.588386 -1.49756 0
M  V30 2561 O 245.534 -0.846047 -1.5547 0
M  V30 2562 C 242.663 -1.90247 -2.85764 0
M  V30 2563 C 241.749 -3.10763 -2.88595 0
M  V30 2564 N 242.14 -4.33196 -2.61103 0
M  V30 2565 C 240.438 -3.10914 -3.19763 0
M  V30 2566 C 241.139 -5.1477 -2.70899 0
M  V30 2567 N 240.115 -4.50356 -3.04435 0
M  V30 2568 H 243.917 -2.65727 -1.25563 0
M  V30 2569 H 241.431 -1.5085 -0.601513 0
M  V30 2570 H 243.428 -2.03291 -3.63976 0
M  V30 2571 H 242.088 -0.991663 -3.09186 0
M  V30 2572 H 243.099 -4.61408 -2.35209 0
M  V30 2573 H 239.776 -2.29626 -3.4868 0
M  V30 2574 H 241.166 -6.22355 -2.53227 0
M  V30 2575 N 243.887 0.651787 -1.4349 0
M  V30 2576 C 245.298 1.233 -1.40193 0
M  V30 2577 C 245.649 1.9591 -0.106727 0
M  V30 2578 O 244.774 2.01316 0.793773 0
M  V30 2579 C 245.369 2.24257 -2.53957 0
M  V30 2580 C 243.928 2.77852 -2.5392 0
M  V30 2581 C 243.075 1.52517 -2.3159 0
M  V30 2582 H 246.026 0.443717 -1.52371 0
M  V30 2583 H 246.047 3.0646 -2.25528 0
M  V30 2584 H 245.559 1.71382 -3.4821 0
M  V30 2585 H 243.66 3.34786 -1.63551 0
M  V30 2586 H 243.773 3.25299 -3.51735 0
M  V30 2587 H 242.137 1.79915 -1.80285 0
M  V30 2588 H 242.92 1.01574 -3.27929 0
M  V30 2589 N 245.365 1.30045 0.890287 0
M  V30 2590 C 246.295 1.18541 2.01172 0
M  V30 2591 C 247.276 0.0773356 1.69924 0
M  V30 2592 O 248.461 0.25845 1.92473 0
M  V30 2593 C 245.591 0.870941 3.36202 0
M  V30 2594 C 244.545 1.93637 3.81692 0
M  V30 2595 C 243.871 1.475 5.13953 0
M  V30 2596 C 245.171 3.34666 4.00994 0
M  V30 2597 H 246.865 2.12359 2.11054 0
M  V30 2598 H 244.411 1.02238 1.01407 0
M  V30 2599 H 246.364 0.777141 4.14172 0
M  V30 2600 H 245.088 -0.102926 3.26438 0
M  V30 2601 H 243.747 2.01972 3.05946 0
M  V30 2602 H 243.395 0.489551 5.00612 0
M  V30 2603 H 243.095 2.1876 5.4536 0
M  V30 2604 H 244.619 1.39489 5.94454 0
M  V30 2605 H 246.033 3.2912 4.69417 0
M  V30 2606 H 244.43 4.03966 4.43769 0
M  V30 2607 H 245.5 3.76949 3.05021 0
M  V30 2608 N 246.843 -1.10192 1.12674 0
M  V30 2609 C 248.254 -1.63707 0.897604 0
M  V30 2610 C 248.605 -1.87812 -0.567546 0
M  V30 2611 O 247.73 -1.62196 -1.43253 0
M  V30 2612 C 248.325 -2.974 1.62292 0
M  V30 2613 C 246.884 -3.47772 1.43986 0
M  V30 2614 C 246.031 -2.22332 1.65722 0
M  V30 2615 H 248.982 -0.936587 1.28116 0
M  V30 2616 H 249.003 -3.64986 1.07541 0
M  V30 2617 H 248.515 -2.79824 2.68924 0
M  V30 2618 H 246.616 -3.70487 0.396206 0
M  V30 2619 H 246.729 -4.25723 2.19765 0
M  V30 2620 H 245.093 -2.30599 1.08149 0
M  V30 2621 H 245.876 -2.07285 2.73657 0
M  V30 2622 N 248.321 -0.919034 -1.28029 0
M  V30 2623 C 249.253 -0.368762 -2.26214 0
M  V30 2624 C 250.266 0.495716 -1.55069 0
M  V30 2625 O 251.455 0.30974 -1.75792 0
M  V30 2626 C 248.555 0.491049 -3.35324 0
M  V30 2627 C 247.728 -0.352133 -4.3598 0
M  V30 2628 C 246.787 0.443622 -5.24327 0
M  V30 2629 O 245.813 -0.14566 -5.69014 0
M  V30 2630 N 247.015 1.74545 -5.53637 0
M  V30 2631 H 249.78 -1.21273 -2.74068 0
M  V30 2632 H 247.341 -0.785541 -1.41566 0
M  V30 2633 H 249.333 1.03026 -3.91366 0
M  V30 2634 H 247.903 1.23574 -2.87138 0
M  V30 2635 H 247.123 -1.07269 -3.79324 0
M  V30 2636 H 248.411 -0.928883 -5.00249 0
M  V30 2637 H 247.809 2.24666 -5.19174 0
M  V30 2638 H 246.366 2.23138 -6.12416 0
M  V30 2639 N 249.799 1.42003 -0.683588 0
M  V30 2640 C 251.039 2.03282 -0.213513 0
M  V30 2641 C 251.403 1.52924 1.16097 0
M  V30 2642 O 252.604 2.06048 1.7262 0
M  V30 2643 C 250.875 3.56483 -0.255856 0
M  V30 2644 S 252.434 4.3857 0.14193 0
M  V30 2645 H 249.252 0.705659 -0.0869853 0
M  V30 2646 H 251.854 1.73619 -0.8987 0
M  V30 2647 H 250.558 3.90631 -1.25841 0
M  V30 2648 H 250.089 3.90831 0.448875 0
M  V30 2649 H 252.104 4.76828 1.37295 0
M  V30 2650 N 251.277 0.427512 1.51691 0
M  V30 2651 C 252.187 -0.39527 2.31246 0
M  V30 2652 C 253.203 -1.03674 1.39742 0
M  V30 2653 O 254.379 -1.03425 1.72816 0
M  V30 2654 C 251.444 -1.48706 3.13189 0
M  V30 2655 C 250.505 -0.866743 4.20459 0
M  V30 2656 C 249.738 -1.90651 4.98486 0
M  V30 2657 O 249.961 -3.12733 4.77026 0
M  V30 2658 O 248.895 -1.5025 5.82845 0
M  V30 2659 H 252.721 0.253918 3.02637 0
M  V30 2660 H 250.306 0.190274 1.48183 0
M  V30 2661 H 252.188 -2.12047 3.64162 0
M  V30 2662 H 250.863 -2.12051 2.44573 0
M  V30 2663 H 249.77 -0.195544 3.73589 0
M  V30 2664 H 251.103 -0.276934 4.9142 0
M  V30 2665 N 252.755 -1.56801 0.158532 0
M  V30 2666 C 254.004 -1.95665 -0.489702 0
M  V30 2667 C 254.317 -1.04654 -1.65248 0
M  V30 2668 O 255.523 -1.33146 -2.3661 0
M  V30 2669 C 253.979 -3.47874 -0.922582 0
M  V30 2670 C 253.587 -4.47489 0.213893 0
M  V30 2671 C 255.331 -3.95583 -1.53996 0
M  V30 2672 C 253.238 -5.90921 -0.237903 0
M  V30 2673 H 252.168 -0.730516 -0.186716 0
M  V30 2674 H 254.819 -1.81861 0.244722 0
M  V30 2675 H 253.201 -3.57051 -1.71261 0
M  V30 2676 H 254.375 -4.50017 0.991036 0
M  V30 2677 H 252.69 -4.09764 0.740407 0
M  V30 2678 H 255.287 -5.0019 -1.8898 0
M  V30 2679 H 255.63 -3.37789 -2.43319 0
M  V30 2680 H 256.163 -3.8937 -0.814611 0
M  V30 2681 H 252.902 -6.52559 0.620236 0
M  V30 2682 H 252.422 -5.91729 -0.980676 0
M  V30 2683 H 254.101 -6.43352 -0.686067 0
M  V30 2684 N 254.233 0.115231 -1.57178 0
M  V30 2685 C 255.479 0.82357 -1.85325 0
M  V30 2686 C 255.812 1.79349 -0.744814 0
M  V30 2687 O 255.087 1.92899 0.249024 0
M  V30 2688 C 255.37 1.57014 -3.24066 0
M  V30 2689 C 255.223 0.619565 -4.45513 0
M  V30 2690 C 256.542 2.52545 -3.60429 0
M  V30 2691 H 253.661 0.297948 -0.674089 0
M  V30 2692 H 256.303 0.0877138 -1.89797 0
M  V30 2693 H 254.453 2.19742 -3.20383 0
M  V30 2694 H 256.125 0.000837639 -4.613 0
M  V30 2695 H 254.368 -0.0686174 -4.33746 0
M  V30 2696 H 255.039 1.17866 -5.3927 0
M  V30 2697 H 257.515 1.9992 -3.64926 0
M  V30 2698 H 256.391 3.01811 -4.58477 0
M  V30 2699 H 256.652 3.35383 -2.88047 0
M  V30 2700 N 255.711 1.52812 0.385517 0
M  V30 2701 C 256.658 1.77838 1.47113 0
M  V30 2702 C 257.628 0.621757 1.54024 0
M  V30 2703 O 258.813 0.861846 1.70226 0
M  V30 2704 C 255.953 1.95618 2.84302 0
M  V30 2705 C 255.066 3.23316 2.86515 0
M  V30 2706 C 254.201 3.31394 4.15152 0
M  V30 2707 C 253.24 4.53201 4.1143 0
M  V30 2708 N 252.377 4.58542 5.3168 0
M  V30 2709 H 257.217 2.70482 1.25073 0
M  V30 2710 H 254.754 1.34006 0.606692 0
M  V30 2711 H 256.712 2.03912 3.63972 0
M  V30 2712 H 255.342 1.06331 3.04784 0
M  V30 2713 H 254.394 3.24076 1.99195 0
M  V30 2714 H 255.706 4.13045 2.79634 0
M  V30 2715 H 254.86 3.3889 5.03228 0
M  V30 2716 H 253.599 2.39645 4.24761 0
M  V30 2717 H 252.604 4.45827 3.21742 0
M  V30 2718 H 253.829 5.46271 4.03442 0
M  V30 2719 H 251.775 3.69686 5.41912 0
M  V30 2720 H 251.692 5.42148 5.26889 0
M  V30 2721 H 252.96 4.70296 6.21644 0
M  V30 2722 N 257.189 -0.644168 1.43834 0
M  V30 2723 C 258.429 -1.41565 1.47441 0
M  V30 2724 C 258.793 -1.91743 0.0992723 0
M  V30 2725 O 259.994 -2.68798 0.0100192 0
M  V30 2726 C 258.265 -2.55902 2.49498 0
M  V30 2727 S 259.824 -3.44287 2.72051 0
M  V30 2728 H 256.642 -0.483118 0.521649 0
M  V30 2729 H 259.244 -0.747008 1.80666 0
M  V30 2730 H 257.948 -2.17327 3.48134 0
M  V30 2731 H 257.479 -3.27607 2.17801 0
M  V30 2732 H 259.494 -4.52927 2.0266 0
M  V30 2733 N 258.668 -1.30515 -0.883378 0
M  V30 2734 C 259.615 -1.17032 -1.98927 0
M  V30 2735 C 260.585 -0.0594241 -1.65994 0
M  V30 2736 O 261.77 -0.229895 -1.8941 0
M  V30 2737 C 258.91 -0.869777 -3.33959 0
M  V30 2738 C 258.023 -2.06271 -3.79574 0
M  V30 2739 C 257.158 -1.70011 -5.03259 0
M  V30 2740 C 256.197 -2.8579 -5.41286 0
M  V30 2741 N 255.334 -2.49816 -6.56153 0
M  V30 2742 H 260.174 -2.1164 -2.09792 0
M  V30 2743 H 257.711 -1.05296 -1.02719 0
M  V30 2744 H 259.669 -0.676138 -4.11685 0
M  V30 2745 H 258.299 0.0394332 -3.22776 0
M  V30 2746 H 257.351 -2.36755 -2.97744 0
M  V30 2747 H 258.663 -2.92971 -4.03694 0
M  V30 2748 H 257.817 -1.47032 -5.88614 0
M  V30 2749 H 256.556 -0.804829 -4.81013 0
M  V30 2750 H 255.561 -3.09434 -4.54456 0
M  V30 2751 H 256.786 -3.76008 -5.65504 0
M  V30 2752 H 254.732 -1.62795 -6.35479 0
M  V30 2753 H 254.649 -3.30048 -6.8015 0
M  V30 2754 H 255.917 -2.30197 -7.44735 0
M  V30 2755 N 260.146 1.09593 -1.13257 0
M  V30 2756 C 261.557 1.63229 -0.906274 0
M  V30 2757 C 261.908 1.8811 0.557578 0
M  V30 2758 O 261.033 1.62953 1.42391 0
M  V30 2759 C 261.628 2.96535 -1.63867 0
M  V30 2760 C 260.187 3.47003 -1.45828 0
M  V30 2761 C 259.334 2.2145 -1.66898 0
M  V30 2762 H 262.285 0.92978 -1.28611 0
M  V30 2763 H 262.306 3.64411 -1.09476 0
M  V30 2764 H 261.818 2.78394 -2.70404 0
M  V30 2765 H 259.919 3.70272 -0.415848 0
M  V30 2766 H 260.032 4.24551 -2.2202 0
M  V30 2767 H 258.396 2.30022 -1.09371 0
M  V30 2768 H 259.179 2.0583 -2.74752 0
M  V30 2769 N 261.624 0.925811 1.2754 0
M  V30 2770 C 263.035 0.610102 1.7645 0
M  V30 2771 C 263.386 -0.874723 1.75622 0
M  V30 2772 O 262.511 -1.68444 1.35851 0
M  V30 2773 C 263.106 1.10073 3.20421 0
M  V30 2774 C 261.665 0.835723 3.67005 0
M  V30 2775 C 260.812 1.26054 2.46993 0
M  V30 2776 H 263.763 1.10579 1.13833 0
M  V30 2777 H 263.784 0.447557 3.77859 0
M  V30 2778 H 263.296 2.18143 3.20991 0
M  V30 2779 H 261.397 -0.231249 3.71882 0
M  V30 2780 H 261.51 1.45193 4.56569 0
M  V30 2781 H 259.874 0.679111 2.45479 0
M  V30 2782 H 260.657 2.34984 2.50275 0
M  V30 2783 N 263.102 -1.41638 0.69111 0
M  V30 2784 C 264.513 -1.84346 0.295517 0
M  V30 2785 C 264.864 -1.57833 -1.16547 0
M  V30 2786 O 263.989 -1.04648 -1.89414 0
M  V30 2787 C 264.584 -3.34636 0.529575 0
M  V30 2788 C 263.143 -3.7593 0.187944 0
M  V30 2789 C 262.29 -2.65082 0.814052 0
M  V30 2790 H 265.241 -1.31253 0.892092 0
M  V30 2791 H 265.262 -3.79903 -0.213148 0
M  V30 2792 H 264.774 -3.53901 1.59297 0
M  V30 2793 H 262.875 -3.62268 -0.871367 0
M  V30 2794 H 262.988 -4.74808 0.63985 0
M  V30 2795 H 261.352 -2.53528 0.244017 0
M  V30 2796 H 262.135 -2.87167 1.88123 0
M  V30 2797 N 264.58 -0.43555 -1.51462 0
M  V30 2798 C 265.857 0.191364 -1.94662 0
M  V30 2799 C 266.237 1.60254 -1.37411 0
M  V30 2800 O 265.585 2.2152 -0.560458 0
M  V30 2801 C 265.795 0.17091 -3.48581 0
M  V30 2802 C 267.143 0.377357 -4.2292 0
M  V30 2803 O 268.167 0.249104 -3.55328 0
M  V30 2804 O 267.026 0.63247 -5.42828 0
M  V30 2805 H 264.12 0.130932 -0.816569 0
M  V30 2806 H 266.666 -0.4934 -1.62369 0
M  V30 2807 H 265.438 -0.815738 -3.82703 0
M  V30 2808 H 265.061 0.898659 -3.87311 0
M  V30 2809 N 266.058 1.56714 -0.166846 0
M  V30 2810 C 267.307 1.95922 0.479318 0
M  V30 2811 C 267.62 1.05529 1.6469 0
M  V30 2812 O 268.826 1.34399 2.35901 0
M  V30 2813 C 267.282 3.48359 0.90412 0
M  V30 2814 C 266.89 4.47369 -0.237621 0
M  V30 2815 C 268.634 3.96394 1.51896 0
M  V30 2816 C 266.541 5.91039 0.206561 0
M  V30 2817 H 265.471 0.731495 0.18284 0
M  V30 2818 H 268.122 1.81728 -0.254363 0
M  V30 2819 H 266.504 3.57955 1.69365 0
M  V30 2820 H 267.678 4.49485 -1.01489 0
M  V30 2821 H 265.993 4.09366 -0.762128 0
M  V30 2822 H 268.59 5.01186 1.86325 0
M  V30 2823 H 268.933 3.39075 2.41524 0
M  V30 2824 H 269.466 3.89796 0.79395 0
M  V30 2825 H 266.205 6.52221 -0.654834 0
M  V30 2826 H 265.725 5.9224 0.949282 0
M  V30 2827 H 267.404 6.43707 0.651939 0
M  V30 2828 N 267.536 -0.106894 1.57237 0
M  V30 2829 C 268.952 -0.46078 1.52804 0
M  V30 2830 C 269.152 -1.81184 0.881746 0
M  V30 2831 O 268.208 -2.48102 0.469224 0
M  V30 2832 C 269.521 -0.434127 2.9755 0
M  V30 2833 C 271.069 -0.516821 3.08704 0
M  V30 2834 C 271.544 -0.520436 4.55033 0
M  V30 2835 N 273.035 -0.58153 4.59535 0
M  V30 2836 C 273.77 -0.605973 5.70189 0
M  V30 2837 N 273.266 -0.587331 6.90306 0
M  V30 2838 N 275.059 -0.649895 5.5833 0
M  V30 2839 H 267.21 0.778203 1.9763 0
M  V30 2840 H 269.473 0.288403 0.903066 0
M  V30 2841 H 269.179 0.491197 3.48253 0
M  V30 2842 H 269.053 -1.25748 3.55622 0
M  V30 2843 H 271.44 -1.43256 2.57995 0
M  V30 2844 H 271.521 0.334449 2.53604 0
M  V30 2845 H 271.165 0.391313 5.0639 0
M  V30 2846 H 271.095 -1.38876 5.07958 0
M  V30 2847 H 273.586 -0.60161 3.73081 0
M  V30 2848 H 273.899 -0.60894 7.70397 0
M  V30 2849 H 272.244 -0.554564 6.92784 0
M  V30 2850 H 275.435 -0.661907 4.63397 0
M  V30 2851 H 275.608 -0.665476 6.44574 0
M  V30 2852 N 269.014 -1.53014 -0.377408 0
M  V30 2853 C 269.962 -1.7927 -1.48206 0
M  V30 2854 C 270.956 -0.661195 -1.55963 0
M  V30 2855 O 272.162 -0.843908 -1.58991 0
M  V30 2856 H 268.537 -0.567425 -0.493491 0
M  V30 2857 H 270.508 -2.71753 -1.2326 0
M  V30 2858 C 269.257 -1.98894 -2.85196 0
M  V30 2859 H 268.58 -2.85395 -2.79981 0
M  V30 2860 H 270.02 -2.21249 -3.61698 0
M  V30 2861 C 268.479 -0.764691 -3.28107 0
M  V30 2862 O 269.009 0.0523226 -4.01666 0
M  V30 2863 N 267.215 -0.591493 -2.84517 0
M  V30 2864 H 266.762 -1.25749 -2.24822 0
M  V30 2865 H 266.72 0.226253 -3.13585 0
M  V30 2866 N 270.492 0.636531 -1.44174 0
M  V30 2867 C 271.74 1.39343 -1.46383 0
M  V30 2868 C 272.061 1.94766 -0.0955715 0
M  V30 2869 O 271.331 1.75452 0.871395 0
M  V30 2870 H 269.911 0.517199 -0.538994 0
M  V30 2871 H 272.573 0.74957 -1.7991 0
M  V30 2872 H 271.669 2.22746 -2.18611 0
M  V30 2873 N 271.97 1.30982 0.876444 0
M  V30 2874 C 273.386 1.09498 1.16113 0
M  V30 2875 C 273.586 -0.13875 2.01022 0
M  V30 2876 O 272.642 -0.829935 2.38471 0
M  V30 2877 C 273.955 2.36308 1.85954 0
M  V30 2878 C 275.503 2.41856 1.98683 0
M  V30 2879 C 275.978 3.6853 2.71937 0
M  V30 2880 N 277.469 3.69387 2.79477 0
M  V30 2881 C 278.204 4.64096 3.36753 0
M  V30 2882 N 277.7 5.69155 3.95012 0
M  V30 2883 N 279.493 4.51626 3.3465 0
M  V30 2884 H 271.644 2.10118 0.310494 0
M  V30 2885 H 273.907 0.926634 0.200131 0
M  V30 2886 H 273.613 3.26388 1.31011 0
M  V30 2887 H 273.487 2.4561 2.86278 0
M  V30 2888 H 275.874 1.52249 2.52793 0
M  V30 2889 H 275.955 2.36523 0.9742 0
M  V30 2890 H 275.599 4.58499 2.18496 0
M  V30 2891 H 275.529 3.71127 3.73593 0
M  V30 2892 H 278.02 2.93438 2.38123 0
M  V30 2893 H 278.333 6.3751 4.36808 0
M  V30 2894 H 276.678 5.72937 3.93406 0
M  V30 2895 H 279.869 3.68728 2.8837 0
M  V30 2896 H 280.042 5.25614 3.7899 0
M  V30 2897 N 273.449 -1.08991 1.13837 0
M  V30 2898 C 274.399 -2.1393 0.788535 0
M  V30 2899 C 275.383 -1.59396 -0.219516 0
M  V30 2900 O 276.575 -1.76985 -0.0227557 0
M  V30 2901 C 273.704 -3.42305 0.261147 0
M  V30 2902 C 272.79 -4.03736 1.29837 0
M  V30 2903 N 273.181 -4.39659 2.50067 0
M  V30 2904 C 271.479 -4.30993 1.1472 0
M  V30 2905 C 272.18 -4.88113 3.16419 0
M  V30 2906 N 271.156 -4.85846 2.43832 0
M  V30 2907 H 274.958 -2.39516 1.70322 0
M  V30 2908 H 272.472 -1.26263 1.02134 0
M  V30 2909 H 274.469 -4.16899 -0.0077405 0
M  V30 2910 H 273.129 -3.18172 -0.647805 0
M  V30 2911 H 274.14 -4.30878 2.8734 0
M  V30 2912 H 270.817 -4.16444 0.296773 0
M  V30 2913 H 272.207 -5.25336 4.18894 0
M  V30 2914 N 274.927 -0.932562 -1.27047 0
M  V30 2915 C 276.152 -0.591474 -1.98787 0
M  V30 2916 C 276.577 0.824601 -1.69062 0
M  V30 2917 O 275.935 1.5541 -0.933677 0
M  V30 2918 C 275.983 -0.829808 -3.50922 0
M  V30 2919 O 275.087 0.102266 -4.12273 0
M  V30 2920 H 274.428 -0.227185 -0.623926 0
M  V30 2921 H 276.958 -1.25314 -1.61733 0
M  V30 2922 H 276.968 -0.747292 -4.01098 0
M  V30 2923 H 275.643 -1.86201 -3.7189 0
M  V30 2924 H 274.22 -0.0305761 -3.72887 0
M  V30 2925 N 276.405 1.4127 -0.698611 0
M  V30 2926 C 277.653 2.00782 -0.230409 0
M  V30 2927 C 277.974 1.5562 1.17505 0
M  V30 2928 O 277.244 0.78815 1.79346 0
M  V30 2929 H 275.824 0.742464 -0.0821944 0
M  V30 2930 H 278.486 1.72852 -0.90045 0
M  V30 2931 H 277.582 3.11095 -0.25021 0
M  V30 2932 N 277.883 0.443576 1.51229 0
M  V30 2933 C 278.793 -0.370721 2.31652 0
M  V30 2934 C 279.809 -1.02186 1.40833 0
M  V30 2935 O 280.985 -1.01586 1.73903 0
M  V30 2936 C 278.05 -1.45376 3.14749 0
M  V30 2937 C 277.111 -0.822099 4.21355 0
M  V30 2938 C 276.344 -1.85353 5.0048 0
M  V30 2939 O 276.567 -3.07656 4.80316 0
M  V30 2940 O 275.501 -1.4406 5.84406 0
M  V30 2941 H 279.327 0.286002 3.0235 0
M  V30 2942 H 276.912 0.20598 1.47973 0
M  V30 2943 H 278.794 -2.08173 3.66391 0
M  V30 2944 H 277.469 -2.09445 2.46809 0
M  V30 2945 H 276.376 -0.155909 3.73775 0
M  V30 2946 H 277.709 -0.224797 4.91686 0
M  V30 2947 N 279.361 -1.56624 0.175154 0
M  V30 2948 C 280.271 -2.21741 -0.766042 0
M  V30 2949 C 281.287 -1.21023 -1.25018 0
M  V30 2950 O 282.463 -1.53697 -1.3015 0
M  V30 2951 C 279.528 -2.84839 -1.97655 0
M  V30 2952 C 278.589 -4.00769 -1.53892 0
M  V30 2953 C 277.822 -4.60849 -2.69173 0
M  V30 2954 O 278.045 -4.19823 -3.86141 0
M  V30 2955 O 276.979 -5.50655 -2.43028 0
M  V30 2956 H 280.805 -3.02738 -0.241585 0
M  V30 2957 H 278.39 -1.49305 -0.053222 0
M  V30 2958 H 280.272 -3.24834 -2.68442 0
M  V30 2959 H 278.947 -2.06836 -2.48999 0
M  V30 2960 H 277.854 -3.65436 -0.80044 0
M  V30 2961 H 279.187 -4.80376 -1.07236 0
M  V30 2962 N 280.839 0.0985539 -1.57292 0
M  V30 2963 C 281.787 1.1387 -2.02821 0
M  V30 2964 C 282.781 1.41676 -0.928666 0
M  V30 2965 O 283.987 1.41398 -1.11385 0
M  V30 2966 H 280.362 0.384419 -0.646317 0
M  V30 2967 H 282.333 0.728347 -2.89375 0
M  V30 2968 C 281.082 2.45166 -2.46554 0
M  V30 2969 H 280.405 2.24613 -3.3074 0
M  V30 2970 H 281.845 3.16456 -2.8219 0
M  V30 2971 C 280.304 3.09216 -1.33742 0
M  V30 2972 O 280.834 3.96163 -0.66464 0
M  V30 2973 N 279.04 2.69413 -1.08928 0
M  V30 2974 H 278.587 1.98801 -1.63817 0
M  V30 2975 H 278.545 3.12594 -0.336458 0
M  V30 2976 N 282.317 1.53212 0.369288 0
M  V30 2977 C 283.564 1.69215 1.11232 0
M  V30 2978 C 283.892 0.442048 1.8941 0
M  V30 2979 O 283.147 -0.575944 1.87033 0
M  V30 2980 C 283.446 2.89101 2.10132 0
M  V30 2981 C 283.112 4.25758 1.48463 0
M  V30 2982 C 281.774 4.6292 1.31372 0
M  V30 2983 C 284.126 5.10757 1.03811 0
M  V30 2984 C 281.454 5.82722 0.68207 0
M  V30 2985 C 283.806 6.31201 0.420487 0
M  V30 2986 C 282.47 6.67079 0.237038 0
M  V30 2987 H 281.74 0.619201 0.407027 0
M  V30 2988 H 284.387 1.87391 0.394552 0
M  V30 2989 H 282.692 2.65421 2.88199 0
M  V30 2990 H 284.389 2.98676 2.6757 0
M  V30 2991 H 280.979 3.96494 1.62758 0
M  V30 2992 H 285.163 4.82599 1.1581 0
M  V30 2993 H 280.419 6.09113 0.528316 0
M  V30 2994 H 284.593 6.96368 0.0662874 0
M  V30 2995 H 282.22 7.59774 -0.254477 0
M  V30 2996 N 283.795 -0.628877 1.44509 0
M  V30 2997 C 285.025 -1.41349 1.50678 0
M  V30 2998 C 285.433 -1.88745 0.131075 0
M  V30 2999 O 284.776 -1.61592 -0.87371 0
M  V30 3000 C 284.838 -2.66608 2.41165 0
M  V30 3001 C 284.502 -2.40993 3.88293 0
M  V30 3002 C 285.499 -2.0268 4.78766 0
M  V30 3003 C 283.184 -2.54563 4.33016 0
M  V30 3004 C 285.178 -1.78269 6.11963 0
M  V30 3005 C 282.865 -2.29766 5.6626 0
M  V30 3006 C 283.863 -1.91678 6.55552 0
M  V30 3007 O 283.551 -1.67158 7.86329 0
M  V30 3008 H 283.283 -0.439851 0.51333 0
M  V30 3009 H 285.837 -0.776084 1.90174 0
M  V30 3010 H 284.067 -3.32994 1.96601 0
M  V30 3011 H 285.756 -3.28615 2.38259 0
M  V30 3012 H 286.522 -1.91751 4.45485 0
M  V30 3013 H 282.401 -2.83179 3.63773 0
M  V30 3014 H 285.945 -1.48465 6.81619 0
M  V30 3015 H 281.842 -2.40306 5.99102 0
M  V30 3016 H 282.61 -1.81386 7.98149 0
M  V30 3017 N 285.273 -1.31445 -0.869486 0
M  V30 3018 C 286.236 -1.19094 -1.9583 0
M  V30 3019 C 287.236 -0.117906 -1.60367 0
M  V30 3020 O 288.426 -0.367208 -1.70286 0
M  V30 3021 C 285.558 -0.828165 -3.30688 0
M  V30 3022 H 286.751 -2.15842 -2.08212 0
M  V30 3023 H 284.304 -1.15063 -1.05784 0
M  V30 3024 H 285.039 0.138142 -3.24006 0
M  V30 3025 H 284.824 -1.6038 -3.578 0
M  V30 3026 H 286.314 -0.765658 -4.10521 0
M  V30 3027 N 286.751 1.08385 -1.14413 0
M  V30 3028 C 287.981 1.8425 -0.934644 0
M  V30 3029 C 288.389 1.81907 0.520234 0
M  V30 3030 O 287.732 1.22126 1.37226 0
M  V30 3031 C 287.794 3.32853 -1.35828 0
M  V30 3032 C 287.458 3.5893 -2.82875 0
M  V30 3033 C 288.455 3.53756 -3.80989 0
M  V30 3034 C 286.14 3.86934 -3.20293 0
M  V30 3035 C 288.134 3.76216 -5.14529 0
M  V30 3036 C 285.821 4.09047 -4.54008 0
M  V30 3037 C 286.819 4.03682 -5.50936 0
M  V30 3038 O 286.507 4.25214 -6.82238 0
M  V30 3039 H 286.239 0.588502 -0.332628 0
M  V30 3040 H 288.793 1.37792 -1.52324 0
M  V30 3041 H 287.023 3.8007 -0.713019 0
M  V30 3042 H 288.712 3.90154 -1.11957 0
M  V30 3043 H 289.478 3.32135 -3.53428 0
M  V30 3044 H 285.357 3.9023 -2.45442 0
M  V30 3045 H 288.901 3.71943 -5.90173 0
M  V30 3046 H 284.798 4.30151 -4.8129 0
M  V30 3047 H 285.566 4.42619 -6.88499 0
M  V30 3048 N 288.23 0.939286 1.26551 0
M  V30 3049 C 289.478 0.58469 1.93457 0
M  V30 3050 C 289.799 -0.878774 1.74076 0
M  V30 3051 O 289.069 -1.62421 1.09528 0
M  V30 3052 H 287.649 0.21325 0.715914 0
M  V30 3053 H 290.311 1.1942 1.54029 0
M  V30 3054 H 289.407 0.800849 3.0165 0
M  V30 3055 N 289.708 -1.40897 0.706093 0
M  V30 3056 C 290.955 -2.01054 0.241531 0
M  V30 3057 C 291.283 -1.55956 -1.16223 0
M  V30 3058 O 290.538 -0.766336 -1.80072 0
M  V30 3059 C 290.837 -3.5646 0.259099 0
M  V30 3060 C 290.503 -4.21106 1.61184 0
M  V30 3061 C 289.165 -4.38479 1.98216 0
M  V30 3062 C 291.517 -4.57256 2.50132 0
M  V30 3063 C 288.845 -4.89282 3.2376 0
M  V30 3064 C 291.197 -5.09454 3.7502 0
M  V30 3065 C 289.861 -5.25037 4.12181 0
M  V30 3066 H 289.131 -0.73571 0.0883825 0
M  V30 3067 H 291.778 -1.68645 0.907257 0
M  V30 3068 H 290.083 -3.88721 -0.490189 0
M  V30 3069 H 291.78 -4.00826 -0.11804 0
M  V30 3070 H 288.37 -4.07966 1.31384 0
M  V30 3071 H 292.554 -4.43479 2.228 0
M  V30 3072 H 287.81 -4.99531 3.52532 0
M  V30 3073 H 291.984 -5.36404 4.44121 0
M  V30 3074 H 289.611 -5.64164 5.09532 0
M  V30 3075 N 291.186 -0.45159 -1.50991 0
M  V30 3076 C 292.411 0.110667 -2.07105 0
M  V30 3077 C 292.836 1.3446 -1.31538 0
M  V30 3078 O 292.194 1.77743 -0.357365 0
M  V30 3079 C 292.242 0.397238 -3.58405 0
M  V30 3080 O 291.346 1.48124 -3.84881 0
M  V30 3081 H 290.687 -0.00439271 -0.663985 0
M  V30 3082 H 293.217 -0.637026 -1.9443 0
M  V30 3083 H 293.227 0.64351 -4.02893 0
M  V30 3084 H 291.902 -0.504553 -4.12828 0
M  V30 3085 H 290.479 1.22381 -3.52246 0
M  V30 3086 N 292.664 1.56529 -0.183458 0
M  V30 3087 C 293.91 1.97537 0.459036 0
M  V30 3088 C 294.243 1.06989 1.62071 0
M  V30 3089 O 293.518 0.11948 1.94133 0
M  V30 3090 C 293.801 3.47874 0.930368 0
M  V30 3091 C 293.654 4.492 -0.232317 0
M  V30 3092 C 294.973 4.01612 1.79989 0
M  V30 3093 H 292.092 0.718204 0.165383 0
M  V30 3094 H 294.734 1.88042 -0.272038 0
M  V30 3095 H 292.884 3.56095 1.55333 0
M  V30 3096 H 294.556 4.53027 -0.86972 0
M  V30 3097 H 292.799 4.24657 -0.885928 0
M  V30 3098 H 293.47 5.51823 0.139796 0
M  V30 3099 H 295.946 3.96097 1.27461 0
M  V30 3100 H 294.822 5.07195 2.09867 0
M  V30 3101 H 295.083 3.46163 2.74998 0
M  V30 3102 N 294.142 -0.090211 1.57342 0
M  V30 3103 C 295.37 -0.806224 1.90546 0
M  V30 3104 C 295.785 -1.72041 0.777644 0
M  V30 3105 O 295.142 -1.80778 -0.250103 0
M  V30 3106 C 295.193 -1.61546 3.23396 0
M  V30 3107 O 294.914 -0.738043 4.31839 0
M  V30 3108 C 296.415 -2.4341 3.70495 0
M  V30 3109 H 293.635 -0.230256 0.630257 0
M  V30 3110 H 296.179 -0.0659843 2.04394 0
M  V30 3111 H 294.334 -2.30816 3.11131 0
M  V30 3112 H 294.748 -1.29901 5.08159 0
M  V30 3113 H 296.222 -2.95676 4.66133 0
M  V30 3114 H 296.699 -3.22098 2.98579 0
M  V30 3115 H 297.305 -1.79331 3.85643 0
M  V30 3116 N 295.62 -1.53406 -0.361157 0
M  V30 3117 C 296.85 -1.73465 -1.1222 0
M  V30 3118 C 297.258 -0.465486 -1.83384 0
M  V30 3119 O 296.601 0.571611 -1.7458 0
M  V30 3120 C 296.663 -2.84834 -2.19339 0
M  V30 3121 C 296.327 -4.25038 -1.67903 0
M  V30 3122 C 297.324 -5.07231 -1.14074 0
M  V30 3123 C 295.009 -4.71464 -1.73282 0
M  V30 3124 C 297.003 -6.33942 -0.663068 0
M  V30 3125 C 294.69 -5.98153 -1.25127 0
M  V30 3126 C 295.688 -6.79223 -0.717296 0
M  V30 3127 O 295.376 -8.03533 -0.242865 0
M  V30 3128 H 295.108 -0.583526 -0.341283 0
M  V30 3129 H 297.662 -2.00964 -0.424591 0
M  V30 3130 H 295.892 -2.5282 -2.92607 0
M  V30 3131 H 297.581 -2.9303 -2.80871 0
M  V30 3132 H 298.347 -4.72534 -1.09254 0
M  V30 3133 H 294.226 -4.08432 -2.13786 0
M  V30 3134 H 297.77 -6.97167 -0.245612 0
M  V30 3135 H 293.667 -6.32347 -1.29642 0
M  V30 3136 H 294.435 -8.177 -0.361786 0
M  V30 3137 N 297.098 0.621204 -1.44841 0
M  V30 3138 C 298.323 1.41244 -1.51871 0
M  V30 3139 C 298.748 1.87519 -0.147764 0
M  V30 3140 O 298.106 1.59334 0.865 0
M  V30 3141 C 298.154 2.60221 -2.49634 0
M  V30 3142 O 297.258 3.60395 -2.00473 0
M  V30 3143 H 296.599 0.42223 -0.512463 0
M  V30 3144 H 299.129 0.757305 -1.90069 0
M  V30 3145 H 299.139 3.0764 -2.67996 0
M  V30 3146 H 297.814 2.25887 -3.4921 0
M  V30 3147 H 296.391 3.19717 -1.91925 0
M  V30 3148 N 298.576 1.31904 0.862503 0
M  V30 3149 C 299.816 1.23324 1.63004 0
M  V30 3150 C 300.18 -0.203724 1.90916 0
M  V30 3151 O 301.381 -0.413132 2.65606 0
M  V30 3152 C 299.652 2.06116 2.91978 0
M  V30 3153 S 301.211 2.14478 3.82812 0
M  V30 3154 H 298.029 0.439117 0.559193 0
M  V30 3155 H 300.631 1.66658 1.02202 0
M  V30 3156 H 299.335 3.09593 2.69407 0
M  V30 3157 H 298.866 1.6353 3.57801 0
M  V30 3158 H 300.881 1.28855 4.79177 0
M  V30 3159 N 300.054 -1.07777 1.14986 0
M  V30 3160 C 301.331 -1.7699 0.832695 0
M  V30 3161 C 301.711 -2.001 -0.672561 0
M  V30 3162 O 301.059 -1.61598 -1.6155 0
M  V30 3163 C 301.269 -3.08139 1.63863 0
M  V30 3164 C 302.617 -3.8256 1.84208 0
M  V30 3165 O 303.641 -3.17939 1.60603 0
M  V30 3166 O 302.5 -4.98612 2.23714 0
M  V30 3167 H 299.594 -0.768389 0.305791 0
M  V30 3168 H 302.14 -1.14182 1.25541 0
M  V30 3169 H 300.912 -2.86909 2.6608 0
M  V30 3170 H 300.535 -3.78678 1.21197 0
M  V30 3171 N 301.532 -0.945985 -1.26051 0
M  V30 3172 C 302.943 -0.638096 -1.75457 0
M  V30 3173 C 303.294 0.846672 -1.76991 0
M  V30 3174 O 302.419 1.66262 -1.38513 0
M  V30 3175 C 303.014 -1.15157 -3.18629 0
M  V30 3176 C 301.573 -0.894004 -3.65629 0
M  V30 3177 C 300.72 -1.29967 -2.44957 0
M  V30 3178 H 303.671 -1.12376 -1.1206 0
M  V30 3179 H 303.692 -0.507615 -3.77099 0
M  V30 3180 H 303.204 -2.23222 -3.1748 0
M  V30 3181 H 301.305 0.172057 -3.72203 0
M  V30 3182 H 301.418 -1.52439 -4.54202 0
M  V30 3183 H 299.782 -0.718078 -2.44368 0
M  V30 3184 H 300.565 -2.38935 -2.46505 0
M  V30 3185 N 303.011 1.40521 -0.713556 0
M  V30 3186 C 304.427 1.54839 -0.386907 0
M  V30 3187 C 304.627 1.68532 1.1045 0
M  V30 3188 O 303.683 1.67377 1.89053 0
M  V30 3189 C 304.996 2.77792 -1.15118 0
M  V30 3190 C 306.544 2.91607 -1.13729 0
M  V30 3191 C 307.019 4.1747 -1.88368 0
M  V30 3192 N 308.51 4.24466 -1.85427 0
M  V30 3193 C 309.245 5.20755 -2.40004 0
M  V30 3194 N 308.741 6.22965 -3.03129 0
M  V30 3195 N 310.534 5.1282 -2.30158 0
M  V30 3196 H 302.685 1.29879 -1.68063 0
M  V30 3197 H 304.948 0.627896 -0.710247 0
M  V30 3198 H 304.654 2.73944 -2.20561 0
M  V30 3199 H 304.528 3.6984 -0.741477 0
M  V30 3200 H 306.915 2.94959 -0.0910608 0
M  V30 3201 H 306.996 2.00682 -1.5862 0
M  V30 3202 H 306.64 4.1488 -2.9298 0
M  V30 3203 H 306.57 5.074 -1.40898 0
M  V30 3204 H 309.061 3.51241 -1.3942 0
M  V30 3205 H 309.374 6.92859 -3.42295 0
M  V30 3206 H 307.719 6.23415 -3.07212 0
M  V30 3207 H 310.91 4.31899 -1.80501 0
M  V30 3208 H 311.083 5.87689 -2.72993 0
M  V30 3209 N 304.489 0.459591 1.5075 0
M  V30 3210 C 305.736 -0.0993495 2.02256 0
M  V30 3211 C 306.064 -1.40751 1.34237 0
M  V30 3212 O 305.319 -1.90379 0.453228 0
M  V30 3213 C 305.618 -0.342866 3.55752 0
M  V30 3214 C 305.284 0.88218 4.42186 0
M  V30 3215 C 303.946 1.21808 4.65528 0
M  V30 3216 C 306.298 1.69837 4.92752 0
M  V30 3217 C 303.626 2.37045 5.36681 0
M  V30 3218 C 305.978 2.84192 5.65171 0
M  V30 3219 C 304.642 3.1821 5.8677 0
M  V30 3220 H 303.912 -0.0363545 0.740108 0
M  V30 3221 H 306.559 0.611329 1.8148 0
M  V30 3222 H 304.864 -1.13567 3.7498 0
M  V30 3223 H 306.561 -0.789121 3.93159 0
M  V30 3224 H 303.151 0.610467 4.2423 0
M  V30 3225 H 307.335 1.45205 4.74583 0
M  V30 3226 H 302.591 2.63689 5.51614 0
M  V30 3227 H 306.765 3.4779 6.03337 0
M  V30 3228 H 304.392 4.07613 6.41682 0
M  V30 3229 N 305.967 -1.56429 0.191757 0
M  V30 3230 C 307.192 -2.02309 -0.456706 0
M  V30 3231 C 307.617 -1.07103 -1.5463 0
M  V30 3232 O 306.975 -0.0539677 -1.8122 0
M  V30 3233 C 307.023 -3.46654 -0.993159 0
M  V30 3234 O 306.127 -3.54559 -2.10622 0
M  V30 3235 H 305.468 -0.655303 -0.107114 0
M  V30 3236 H 307.998 -2.02364 0.301653 0
M  V30 3237 H 308.008 -3.86377 -1.31061 0
M  V30 3238 H 306.683 -4.1544 -0.195504 0
M  V30 3239 H 305.26 -3.26708 -1.79767 0
M  V30 3240 N 307.445 0.0818655 -1.57387 0
M  V30 3241 C 308.375 1.09885 -2.06028 0
M  V30 3242 C 309.356 1.4098 -0.951774 0
M  V30 3243 O 310.541 1.50781 -1.22387 0
M  V30 3244 C 307.671 2.4151 -2.4958 0
M  V30 3245 C 306.625 2.24792 -3.64215 0
M  V30 3246 C 305.951 3.61712 -3.93787 0
M  V30 3247 C 307.251 1.67749 -4.94629 0
M  V30 3248 H 308.945 0.694128 -2.91243 0
M  V30 3249 H 306.491 0.332448 -1.4011 0
M  V30 3250 H 308.444 3.12939 -2.82219 0
M  V30 3251 H 307.168 2.83943 -1.61381 0
M  V30 3252 H 305.827 1.55807 -3.31843 0
M  V30 3253 H 305.475 4.01697 -3.02735 0
M  V30 3254 H 305.175 3.51368 -4.70971 0
M  V30 3255 H 306.699 4.34587 -4.28913 0
M  V30 3256 H 308.113 2.29032 -5.25564 0
M  V30 3257 H 306.51 1.68128 -5.76067 0
M  V30 3258 H 307.58 0.638059 -4.80684 0
M  V30 3259 N 308.923 1.53595 0.353017 0
M  V30 3260 C 309.853 1.83902 1.43883 0
M  V30 3261 C 310.834 0.693421 1.55324 0
M  V30 3262 O 312.019 0.944452 1.69687 0
M  V30 3263 C 309.149 2.04016 2.8106 0
M  V30 3264 C 308.103 3.19814 2.84434 0
M  V30 3265 C 307.429 3.25244 4.24406 0
M  V30 3266 C 308.729 4.58133 2.50822 0
M  V30 3267 H 310.423 2.74835 1.1877 0
M  V30 3268 H 307.969 1.32242 0.569917 0
M  V30 3269 H 309.922 2.238 3.57059 0
M  V30 3270 H 308.646 1.09804 3.07588 0
M  V30 3271 H 307.305 2.9987 2.10887 0
M  V30 3272 H 306.953 2.28646 4.48029 0
M  V30 3273 H 306.653 4.03054 4.27576 0
M  V30 3274 H 308.177 3.47228 5.0226 0
M  V30 3275 H 309.591 4.77995 3.16534 0
M  V30 3276 H 307.988 5.38276 2.6529 0
M  V30 3277 H 309.058 4.62387 1.46034 0
M  V30 3278 N 310.401 -0.613514 1.45168 0
M  V30 3279 C 311.649 -1.36997 1.48581 0
M  V30 3280 C 311.97 -1.94589 0.126545 0
M  V30 3281 O 311.24 -1.76816 -0.843372 0
M  V30 3282 H 309.82 -0.508558 0.547154 0
M  V30 3283 H 312.482 -0.720853 1.81079 0
M  V30 3284 H 311.578 -2.1924 2.22127 0
M  V30 3285 N 311.879 -1.3236 -0.855495 0
M  V30 3286 C 312.829 -1.17809 -1.95205 0
M  V30 3287 C 313.813 -0.0852319 -1.60674 0
M  V30 3288 O 315.005 -0.311651 -1.74235 0
M  V30 3289 C 312.134 -0.902437 -3.31226 0
M  V30 3290 C 311.22 -2.03695 -3.7198 0
M  V30 3291 N 311.611 -3.28544 -3.84568 0
M  V30 3292 C 309.909 -1.93993 -4.016 0
M  V30 3293 C 310.61 -4.02847 -4.19629 0
M  V30 3294 N 309.586 -3.31138 -4.31102 0
M  V30 3295 H 313.388 -2.12462 -2.0307 0
M  V30 3296 H 310.902 -1.24127 -1.0472 0
M  V30 3297 H 312.899 -0.77915 -4.09554 0
M  V30 3298 H 311.559 0.0357267 -3.2468 0
M  V30 3299 H 312.57 -3.6349 -3.68911 0
M  V30 3300 H 309.247 -1.07733 -4.03361 0
M  V30 3301 H 310.637 -5.10506 -4.36845 0
M  V30 3302 N 313.357 1.07166 -1.15556 0
M  V30 3303 C 314.32 2.12589 -0.856644 0
M  V30 3304 C 315.32 1.6015 0.14444 0
M  V30 3305 O 316.51 1.7399 -0.0854163 0
M  V30 3306 C 313.642 3.39753 -0.279405 0
M  V30 3307 H 314.835 2.40539 -1.79112 0
M  V30 3308 H 312.388 1.23086 -0.963298 0
M  V30 3309 H 313.123 3.17447 0.663174 0
M  V30 3310 H 312.908 3.79117 -1.00063 0
M  V30 3311 H 314.398 4.17507 -0.0879113 0
M  V30 3312 N 314.835 0.952656 1.25548 0
M  V30 3313 C 316.06 0.623025 1.97821 0
M  V30 3314 C 316.485 -0.7976 1.70352 0
M  V30 3315 O 315.843 -1.53905 0.958283 0
M  V30 3316 C 315.891 0.885532 3.49558 0
M  V30 3317 O 314.995 -0.0366641 4.12384 0
M  V30 3318 H 314.336 0.237082 0.620232 0
M  V30 3319 H 316.866 1.27871 1.59719 0
M  V30 3320 H 316.876 0.811009 3.99858 0
M  V30 3321 H 315.551 1.92094 3.6888 0
M  V30 3322 H 314.128 0.0898954 3.72792 0
M  V30 3323 N 316.313 -1.40141 0.720998 0
M  V30 3324 C 317.562 -2.0002 0.259804 0
M  V30 3325 C 317.875 -1.57839 -1.15526 0
M  V30 3326 O 319.081 -2.10455 -1.71525 0
M  V30 3327 C 317.537 -3.57516 0.413566 0
M  V30 3328 C 317.145 -4.08667 1.83562 0
M  V30 3329 C 318.889 -4.24498 0.0134387 0
M  V30 3330 C 316.796 -5.58686 1.93968 0
M  V30 3331 H 315.726 -0.748195 0.0933806 0
M  V30 3332 H 318.377 -1.60313 0.892866 0
M  V30 3333 H 316.759 -3.9495 -0.288169 0
M  V30 3334 H 317.933 -3.82598 2.56817 0
M  V30 3335 H 316.248 -3.543 2.1877 0
M  V30 3336 H 318.845 -5.34654 0.0703954 0
M  V30 3337 H 319.188 -4.03375 -1.02927 0
M  V30 3338 H 319.721 -3.92188 0.665815 0
M  V30 3339 H 316.46 -5.8467 2.96379 0
M  V30 3340 H 315.98 -5.86602 1.25131 0
M  V30 3341 H 317.659 -6.23875 1.71431 0
M  V30 3342 N 317.792 -0.46758 -1.50504 0
M  V30 3343 C 319.017 0.0886943 -2.0721 0
M  V30 3344 C 319.442 1.33057 -1.32956 0
M  V30 3345 O 318.8 1.77354 -0.376197 0
M  V30 3346 C 318.848 0.359202 -3.58806 0
M  V30 3347 O 317.952 1.44034 -3.8643 0
M  V30 3348 H 317.293 -0.0114349 -0.663902 0
M  V30 3349 H 319.823 -0.657613 -1.93744 0
M  V30 3350 H 319.833 0.600742 -4.03553 0
M  V30 3351 H 318.508 -0.548311 -4.1227 0
M  V30 3352 H 317.085 1.18638 -3.53524 0
M  V30 3353 N 319.27 1.56325 -0.20005 0
M  V30 3354 C 320.51 1.99619 0.439519 0
M  V30 3355 C 320.874 1.08423 1.58456 0
M  V30 3356 O 322.075 1.40973 2.28867 0
M  V30 3357 C 320.346 3.46314 0.883258 0
M  V30 3358 S 321.905 4.11634 1.51997 0
M  V30 3359 H 318.723 0.697007 0.140363 0
M  V30 3360 H 321.325 1.93118 -0.304282 0
M  V30 3361 H 320.029 4.10381 0.0398967 0
M  V30 3362 H 319.56 3.56643 1.6604 0
M  V30 3363 H 321.575 4.09049 2.8088 0
M  V30 3364 N 320.748 -0.0735177 1.57428 0
M  V30 3365 C 321.976 -0.785969 1.9139 0
M  V30 3366 C 322.391 -1.71207 0.795847 0
M  V30 3367 O 321.748 -1.81033 -0.230915 0
M  V30 3368 C 321.799 -1.58107 3.25091 0
M  V30 3369 O 321.52 -0.6922 4.32597 0
M  V30 3370 C 323.021 -2.39467 3.73055 0
M  V30 3371 H 320.241 -0.223558 0.632663 0
M  V30 3372 H 322.785 -0.044302 2.04452 0
M  V30 3373 H 320.94 -2.27503 3.13562 0
M  V30 3374 H 321.354 -1.24504 5.09508 0
M  V30 3375 H 322.828 -2.90716 4.69242 0
M  V30 3376 H 323.305 -3.18913 3.01979 0
M  V30 3377 H 323.911 -1.7523 3.87523 0
M  V30 3378 N 322.226 -1.5378 -0.344866 0
M  V30 3379 C 323.472 -1.71216 -1.08687 0
M  V30 3380 C 323.805 -0.473281 -1.88345 0
M  V30 3381 O 323.08 0.52968 -1.87149 0
M  V30 3382 C 323.363 -2.97486 -2.02914 0
M  V30 3383 C 323.216 -4.31579 -1.26727 0
M  V30 3384 C 324.535 -3.19422 -3.0275 0
M  V30 3385 H 321.654 -0.62301 -0.393735 0
M  V30 3386 H 324.296 -1.8645 -0.365563 0
M  V30 3387 H 322.446 -2.84629 -2.64421 0
M  V30 3388 H 324.118 -4.56284 -0.67845 0
M  V30 3389 H 322.361 -4.30049 -0.569273 0
M  V30 3390 H 323.032 -5.16106 -1.95803 0
M  V30 3391 H 325.508 -3.316 -2.51357 0
M  V30 3392 H 324.384 -4.09169 -3.65885 0
M  V30 3393 H 324.645 -2.35656 -3.74057 0
M  V30 3394 N 323.704 0.605807 -1.45491 0
M  V30 3395 C 324.614 1.74466 -1.56839 0
M  V30 3396 C 325.63 1.68006 -0.452772 0
M  V30 3397 O 326.806 1.8833 -0.713708 0
M  V30 3398 C 323.871 3.10931 -1.53371 0
M  V30 3399 C 322.932 3.28832 -2.75986 0
M  V30 3400 C 322.165 4.58787 -2.72673 0
M  V30 3401 O 322.388 5.4122 -1.80102 0
M  V30 3402 O 321.322 4.79438 -3.63899 0
M  V30 3403 H 325.148 1.67843 -2.53106 0
M  V30 3404 H 322.733 0.770108 -1.28022 0
M  V30 3405 H 324.615 3.92233 -1.54051 0
M  V30 3406 H 323.29 3.18042 -0.602572 0
M  V30 3407 H 322.197 2.47112 -2.80867 0
M  V30 3408 H 323.53 3.26599 -3.68231 0
M  V30 3409 N 325.182 1.32811 0.848464 0
M  V30 3410 C 326.13 1.22231 1.97895 0
M  V30 3411 C 327.124 0.125749 1.68933 0
M  V30 3412 O 328.33 0.289083 1.77663 0
M  V30 3413 H 324.705 0.379058 0.649476 0
M  V30 3414 H 326.676 2.17828 2.03945 0
M  V30 3415 C 325.425 0.968572 3.33937 0
M  V30 3416 H 324.748 1.80458 3.56756 0
M  V30 3417 H 326.188 0.934808 4.13567 0
M  V30 3418 C 324.647 -0.328628 3.35293 0
M  V30 3419 O 325.177 -1.33848 3.78745 0
M  V30 3420 N 323.383 -0.352788 2.88451 0
M  V30 3421 H 322.93 0.469541 2.53285 0
M  V30 3422 H 322.888 -1.22057 2.89741 0
M  V30 3423 N 326.66 -1.06551 1.16123 0
M  V30 3424 C 327.57 -2.17484 0.879662 0
M  V30 3425 C 328.586 -1.73377 -0.147104 0
M  V30 3426 O 329.762 -2.01379 0.0289128 0
M  V30 3427 C 326.827 -3.44591 0.381829 0
M  V30 3428 C 325.888 -4.0322 1.4735 0
M  V30 3429 C 325.121 -5.24261 0.999324 0
M  V30 3430 O 325.344 -5.70198 -0.151957 0
M  V30 3431 O 324.278 -5.74775 1.78653 0
M  V30 3432 H 328.104 -2.44075 1.80724 0
M  V30 3433 H 325.689 -1.16042 0.940992 0
M  V30 3434 H 327.571 -4.21254 0.111053 0
M  V30 3435 H 326.246 -3.19532 -0.51777 0
M  V30 3436 H 325.153 -3.2806 1.79798 0
M  V30 3437 H 326.486 -4.32568 2.34831 0
M  V30 3438 N 328.138 -0.959301 -1.25041 0
M  V30 3439 C 329.366 -0.633949 -1.96948 0
M  V30 3440 C 329.781 0.794916 -1.7125 0
M  V30 3441 O 329.138 1.53231 -0.991287 0
M  V30 3442 C 329.189 -0.888805 -3.50403 0
M  V30 3443 O 328.91 -2.26149 -3.75218 0
M  V30 3444 C 330.411 -0.576482 -4.39536 0
M  V30 3445 H 327.631 -0.237263 -0.627652 0
M  V30 3446 H 330.175 -1.28495 -1.59089 0
M  V30 3447 H 328.33 -0.284145 -3.86357 0
M  V30 3448 H 328.744 -2.33514 -4.6965 0
M  V30 3449 H 330.218 -0.805314 -5.46094 0
M  V30 3450 H 330.695 0.489075 -4.36468 0
M  V30 3451 H 331.301 -1.16067 -4.09156 0
M  V30 3452 N 329.616 1.39756 -0.72842 0
M  V30 3453 C 330.865 1.99879 -0.270407 0
M  V30 3454 C 331.178 1.58449 1.14688 0
M  V30 3455 O 332.384 2.11362 1.70407 0
M  V30 3456 C 330.84 3.57292 -0.43252 0
M  V30 3457 C 330.448 4.07688 -1.85727 0
M  V30 3458 C 332.192 4.24485 -0.0359507 0
M  V30 3459 C 330.099 5.5765 -1.96928 0
M  V30 3460 H 329.029 0.747689 -0.0973472 0
M  V30 3461 H 331.68 1.59837 -0.901355 0
M  V30 3462 H 330.062 3.95097 0.267219 0
M  V30 3463 H 331.236 3.81231 -2.58843 0
M  V30 3464 H 329.551 3.53135 -2.20646 0
M  V30 3465 H 332.148 5.34609 -0.0987484 0
M  V30 3466 H 332.491 4.03915 1.00787 0
M  V30 3467 H 333.024 3.9183 -0.686604 0
M  V30 3468 H 329.763 5.8309 -2.99476 0
M  V30 3469 H 329.283 5.8593 -1.28241 0
M  V30 3470 H 330.962 6.22957 -1.74737 0
M  V30 3471 N 331.094 0.475555 1.50254 0
M  V30 3472 C 332.342 -0.077738 2.0195 0
M  V30 3473 C 332.663 -1.39813 1.35931 0
M  V30 3474 O 331.933 -1.89249 0.506123 0
M  V30 3475 H 330.513 -0.031719 0.746326 0
M  V30 3476 H 333.175 0.626995 1.84539 0
M  V30 3477 H 332.271 -0.225995 3.11281 0
M  V30 3478 N 332.573 -1.56217 0.208337 0
M  V30 3479 C 333.819 -1.98242 -0.427552 0
M  V30 3480 C 334.152 -1.09554 -1.60348 0
M  V30 3481 O 333.427 -0.15035 -1.93918 0
M  V30 3482 C 333.71 -3.4931 -0.874907 0
M  V30 3483 C 333.563 -4.48773 0.303751 0
M  V30 3484 C 334.882 -4.04424 -1.73577 0
M  V30 3485 H 332.001 -0.720744 -0.153936 0
M  V30 3486 H 334.643 -1.87586 0.30192 0
M  V30 3487 H 332.793 -3.58522 -1.49648 0
M  V30 3488 H 334.465 -4.51586 0.941682 0
M  V30 3489 H 332.708 -4.23194 0.953375 0
M  V30 3490 H 333.379 -5.51976 -0.0519883 0
M  V30 3491 H 335.855 -3.98075 -1.21143 0
M  V30 3492 H 334.731 -5.1047 -2.01771 0
M  V30 3493 H 334.992 -3.50494 -2.69456 0
M  V30 3494 N 334.051 0.0651679 -1.57465 0
M  V30 3495 C 335.297 0.758912 -1.88712 0
M  V30 3496 C 335.652 1.7485 -0.802819 0
M  V30 3497 O 334.945 1.90632 0.192359 0
M  V30 3498 C 335.139 1.50081 -3.24362 0
M  V30 3499 C 334.968 0.584579 -4.45884 0
M  V30 3500 C 333.738 0.219039 -5.04825 0
M  V30 3501 C 335.936 -0.121559 -5.14156 0
M  V30 3502 N 333.918 -0.702222 -6.09871 0
M  V30 3503 C 335.289 -0.899767 -6.13436 0
M  V30 3504 C 337.344 -0.192331 -4.97528 0
M  V30 3505 C 336.047 -1.74218 -6.97883 0
M  V30 3506 C 338.073 -1.02174 -5.82507 0
M  V30 3507 C 337.435 -1.78798 -6.8133 0
M  V30 3508 H 333.534 0.25293 -0.739967 0
M  V30 3509 H 336.118 0.0201744 -1.9469 0
M  V30 3510 H 334.289 2.21023 -3.1938 0
M  V30 3511 H 336.021 2.14409 -3.43236 0
M  V30 3512 H 332.776 0.57336 -4.70117 0
M  V30 3513 H 333.2 -1.15629 -6.67052 0
M  V30 3514 H 337.842 0.385741 -4.21037 0
M  V30 3515 H 335.56 -2.3312 -7.73745 0
M  V30 3516 H 339.146 -1.07957 -5.71696 0
M  V30 3517 H 338.026 -2.41942 -7.45945 0
M  V30 3518 N 335.529 1.53961 0.336706 0
M  V30 3519 C 336.945 1.44378 0.680241 0
M  V30 3520 C 337.145 0.606034 1.9217 0
M  V30 3521 O 336.201 0.099688 2.52303 0
M  V30 3522 C 337.514 2.87945 0.8665 0
M  V30 3523 C 339.062 2.97763 0.964682 0
M  V30 3524 C 339.537 4.42453 1.18321 0
M  V30 3525 N 341.028 4.46008 1.25025 0
M  V30 3526 C 341.763 5.55102 1.43697 0
M  V30 3527 N 341.259 6.7419 1.59498 0
M  V30 3528 N 343.052 5.42727 1.463 0
M  V30 3529 H 335.203 2.06918 -0.479455 0
M  V30 3530 H 337.466 0.935634 -0.152619 0
M  V30 3531 H 337.172 3.51691 0.0256937 0
M  V30 3532 H 337.046 3.33293 1.76623 0
M  V30 3533 H 339.433 2.34153 1.796 0
M  V30 3534 H 339.514 2.55766 0.041708 0
M  V30 3535 H 339.158 5.06645 0.356788 0
M  V30 3536 H 339.088 4.82048 2.11985 0
M  V30 3537 H 341.579 3.60196 1.14312 0
M  V30 3538 H 341.892 7.53095 1.734 0
M  V30 3539 H 340.237 6.77123 1.56621 0
M  V30 3540 H 343.428 4.48647 1.33543 0
M  V30 3541 H 343.601 6.27806 1.6051 0
M  V30 3542 N 337.007 -0.598083 1.45811 0
M  V30 3543 C 338.418 -1.18011 1.44673 0
M  V30 3544 C 338.769 -1.95378 0.179364 0
M  V30 3545 O 337.894 -2.04124 -0.718509 0
M  V30 3546 C 338.489 -2.14677 2.62105 0
M  V30 3547 C 337.048 -2.68236 2.64057 0
M  V30 3548 C 336.195 -1.43816 2.37091 0
M  V30 3549 H 339.146 -0.38686 1.53913 0
M  V30 3550 H 339.167 -2.97878 2.36746 0
M  V30 3551 H 338.679 -1.5834 3.5433 0
M  V30 3552 H 336.78 -3.28486 1.75864 0
M  V30 3553 H 336.893 -3.12021 3.63566 0
M  V30 3554 H 335.257 -1.731 1.86838 0
M  V30 3555 H 336.04 -0.893333 3.31473 0
M  V30 3556 N 338.485 -1.33259 -0.841409 0
M  V30 3557 C 339.71 -1.2775 -1.63385 0
M  V30 3558 C 340.135 0.149188 -1.87507 0
M  V30 3559 O 339.493 1.10498 -1.43736 0
M  V30 3560 C 339.541 -2.05571 -2.96265 0
M  V30 3561 O 338.645 -1.41257 -3.87453 0
M  V30 3562 H 337.986 -0.439627 -0.497618 0
M  V30 3563 H 340.516 -1.75782 -1.04699 0
M  V30 3564 H 340.526 -2.16241 -3.45982 0
M  V30 3565 H 339.201 -3.09309 -2.7803 0
M  V30 3566 H 337.778 -1.39217 -3.45938 0
M  V30 3567 N 339.963 1.05934 -1.16686 0
M  V30 3568 C 341.374 1.60263 -0.957745 0
M  V30 3569 C 341.725 1.89789 0.49745 0
M  V30 3570 O 340.85 1.67401 1.37135 0
M  V30 3571 C 341.445 2.91172 -1.73218 0
M  V30 3572 C 340.004 3.42188 -1.56794 0
M  V30 3573 C 339.151 2.16028 -1.73859 0
M  V30 3574 H 342.102 0.888392 -1.31504 0
M  V30 3575 H 342.123 3.60744 -1.21014 0
M  V30 3576 H 341.635 2.6965 -2.79124 0
M  V30 3577 H 339.736 3.68762 -0.533437 0
M  V30 3578 H 339.849 4.17273 -2.35414 0
M  V30 3579 H 338.213 2.26426 -1.16633 0
M  V30 3580 H 338.996 1.96985 -2.81161 0
M  V30 3581 N 341.441 0.965919 1.2453 0
M  V30 3582 C 342.852 0.665929 1.7442 0
M  V30 3583 C 343.203 -0.818407 1.78316 0
M  V30 3584 O 342.328 -1.64037 1.41141 0
M  V30 3585 C 342.923 1.20211 3.16757 0
M  V30 3586 C 341.482 0.952059 3.6416 0
M  V30 3587 C 340.629 1.33848 2.42858 0
M  V30 3588 H 343.58 1.14144 1.10258 0
M  V30 3589 H 343.601 0.567544 3.76244 0
M  V30 3590 H 343.113 2.28244 3.13889 0
M  V30 3591 H 341.214 -0.112821 3.72429 0
M  V30 3592 H 341.327 1.59645 4.51719 0
M  V30 3593 H 339.691 0.756864 2.43195 0
M  V30 3594 H 340.474 2.42827 2.42673 0
M  V30 3595 N 342.919 -1.39368 0.735821 0
M  V30 3596 C 344.147 -2.04795 0.294393 0
M  V30 3597 C 344.562 -1.55478 -1.07107 0
M  V30 3598 O 343.919 -0.720038 -1.67695 0
M  V30 3599 C 343.97 -3.6035 0.288071 0
M  V30 3600 O 343.691 -4.07852 1.59963 0
M  V30 3601 C 345.192 -4.42976 -0.169422 0
M  V30 3602 H 342.412 -0.658571 0.128551 0
M  V30 3603 H 344.956 -1.78399 0.999701 0
M  V30 3604 H 343.111 -3.85645 -0.368355 0
M  V30 3605 H 343.525 -5.02181 1.51375 0
M  V30 3606 H 344.999 -5.51864 -0.122687 0
M  V30 3607 H 345.476 -4.22068 -1.21472 0
M  V30 3608 H 346.082 -4.22832 0.457469 0
M  V30 3609 N 344.397 -0.483516 -1.5 0
M  V30 3610 C 345.637 0.0657469 -2.04294 0
M  V30 3611 C 346.001 1.35869 -1.35659 0
M  V30 3612 O 347.202 1.99111 -1.80578 0
M  V30 3613 C 345.473 0.232758 -3.56641 0
M  V30 3614 S 347.032 0.738788 -4.32536 0
M  V30 3615 H 343.85 0.0100755 -0.710929 0
M  V30 3616 H 346.452 -0.653494 -1.84254 0
M  V30 3617 H 345.156 -0.713847 -4.04144 0
M  V30 3618 H 344.687 0.977751 -3.81056 0
M  V30 3619 H 346.702 2.01048 -4.53645 0
M  V30 3620 N 345.875 1.56104 -0.216619 0
M  V30 3621 C 346.785 2.23694 0.706982 0
M  V30 3622 C 347.801 1.24295 1.21765 0
M  V30 3623 O 348.977 1.57094 1.2603 0
M  V30 3624 C 346.042 2.8998 1.90033 0
M  V30 3625 C 345.103 4.04708 1.43213 0
M  V30 3626 C 344.336 4.67824 2.56859 0
M  V30 3627 O 344.559 4.29913 3.74874 0
M  V30 3628 O 343.493 5.56905 2.28343 0
M  V30 3629 H 347.319 3.03272 0.161235 0
M  V30 3630 H 344.904 1.49394 0.0136177 0
M  V30 3631 H 346.786 3.31837 2.59735 0
M  V30 3632 H 345.461 2.13365 2.43428 0
M  V30 3633 H 344.368 3.6743 0.70327 0
M  V30 3634 H 345.701 4.83051 0.944615 0
M  V30 3635 N 347.353 -0.0568162 1.57498 0
M  V30 3636 C 348.3 -1.06591 2.04712 0
M  V30 3637 C 349.27 -1.3758 0.930644 0
M  V30 3638 O 350.455 -1.48392 1.19935 0
M  V30 3639 C 347.595 -2.3701 2.50839 0
M  V30 3640 C 346.708 -2.12421 3.76167 0
M  V30 3641 C 345.843 -3.36511 4.11015 0
M  V30 3642 C 344.882 -3.07353 5.2934 0
M  V30 3643 N 344.019 -4.23816 5.59754 0
M  V30 3644 H 348.859 -0.65631 2.90683 0
M  V30 3645 H 346.396 -0.312481 1.43743 0
M  V30 3646 H 348.354 -3.13175 2.7564 0
M  V30 3647 H 346.984 -2.75744 1.67825 0
M  V30 3648 H 346.036 -1.2688 3.58616 0
M  V30 3649 H 347.348 -1.86894 4.62463 0
M  V30 3650 H 346.502 -4.21062 4.36797 0
M  V30 3651 H 345.241 -3.65128 3.23315 0
M  V30 3652 H 344.246 -2.212 5.03339 0
M  V30 3653 H 345.471 -2.80043 6.1867 0
M  V30 3654 H 343.417 -4.52436 4.75014 0
M  V30 3655 H 343.334 -4.01614 6.40501 0
M  V30 3656 H 344.602 -5.0932 5.90096 0
M  V30 3657 N 348.832 -1.54138 -0.328536 0
M  V30 3658 C 350.081 -1.71318 -1.06456 0
M  V30 3659 C 350.394 -0.491109 -1.89334 0
M  V30 3660 O 351.6 -0.54416 -2.65991 0
M  V30 3661 C 350.056 -3.03 -1.94214 0
M  V30 3662 C 349.664 -4.32595 -1.16471 0
M  V30 3663 C 351.408 -3.29544 -2.67583 0
M  V30 3664 C 349.315 -5.55341 -2.03347 0
M  V30 3665 H 348.245 -0.638429 -0.401155 0
M  V30 3666 H 350.896 -1.80633 -0.323106 0
M  V30 3667 H 349.278 -2.87579 -2.72239 0
M  V30 3668 H 350.452 -4.58766 -0.432525 0
M  V30 3669 H 348.767 -4.12777 -0.548063 0
M  V30 3670 H 351.364 -4.18444 -3.3288 0
M  V30 3671 H 351.707 -2.47206 -3.34955 0
M  V30 3672 H 352.24 -3.45809 -1.96623 0
M  V30 3673 H 348.979 -6.40268 -1.40491 0
M  V30 3674 H 348.499 -5.33397 -2.74313 0
M  V30 3675 H 350.178 -5.91557 -2.62049 0
M  V30 3676 N 350.31 0.590341 -1.46126 0
M  V30 3677 C 351.538 1.37504 -1.54597 0
M  V30 3678 C 351.953 1.87897 -0.184447 0
M  V30 3679 O 351.31 1.63192 0.816984 0
M  V30 3680 C 351.361 2.56779 -2.54454 0
M  V30 3681 O 351.082 2.08476 -3.85317 0
M  V30 3682 C 352.583 3.49427 -2.72792 0
M  V30 3683 H 349.803 0.420325 -0.523037 0
M  V30 3684 H 352.347 0.718383 -1.91467 0
M  V30 3685 H 350.502 3.1845 -2.20609 0
M  V30 3686 H 350.916 2.86097 -4.396 0
M  V30 3687 H 352.39 4.29619 -3.466 0
M  V30 3688 H 352.867 4.00876 -1.79429 0
M  V30 3689 H 353.473 2.93598 -3.07702 0
M  V30 3690 N 351.788 1.33704 0.83433 0
M  V30 3691 C 353.028 1.26754 1.60352 0
M  V30 3692 C 353.392 -0.163182 1.91305 0
M  V30 3693 O 354.593 -0.3567 2.66423 0
M  V30 3694 C 352.864 2.12262 2.8754 0
M  V30 3695 S 354.423 2.22549 3.78176 0
M  V30 3696 H 351.241 0.450879 0.549753 0
M  V30 3697 H 353.843 1.68788 0.986444 0
M  V30 3698 H 352.547 3.15238 2.62779 0
M  V30 3699 H 352.078 1.71082 3.54252 0
M  V30 3700 H 354.093 1.3899 4.76336 0
M  V30 3701 N 353.266 -1.05314 1.17247 0
M  V30 3702 C 354.682 -1.30452 0.919473 0
M  V30 3703 C 354.882 -1.9703 -0.42209 0
M  V30 3704 O 353.938 -2.24311 -1.15935 0
M  V30 3705 C 355.251 -2.17551 2.07586 0
M  V30 3706 C 356.799 -2.30937 2.11275 0
M  V30 3707 C 357.274 -3.21396 3.26296 0
M  V30 3708 N 358.765 -3.28981 3.26076 0
M  V30 3709 C 359.5 -3.99095 4.11716 0
M  V30 3710 N 358.996 -4.71648 5.07465 0
M  V30 3711 N 360.789 -3.95247 3.9967 0
M  V30 3712 H 352.94 -0.604988 2.03602 0
M  V30 3713 H 355.203 -0.329368 0.888944 0
M  V30 3714 H 354.909 -1.75921 3.0454 0
M  V30 3715 H 354.783 -3.18182 2.02584 0
M  V30 3716 H 357.17 -2.71809 1.14907 0
M  V30 3717 H 357.251 -1.2994 2.20339 0
M  V30 3718 H 356.895 -2.81238 4.22927 0
M  V30 3719 H 356.825 -4.22395 3.14467 0
M  V30 3720 H 359.316 -2.77286 2.5675 0
M  V30 3721 H 359.629 -5.22705 5.6921 0
M  V30 3722 H 357.974 -4.70594 5.11435 0
M  V30 3723 H 361.165 -3.37691 3.24164 0
M  V30 3724 H 361.338 -4.4962 4.66632 0
M  V30 3725 N 354.744 -0.972509 -1.24016 0
M  V30 3726 C 355.691 -0.505969 -2.25186 0
M  V30 3727 C 356.661 0.451009 -1.5986 0
M  V30 3728 O 357.846 0.360307 -1.87367 0
M  V30 3729 C 354.986 0.193089 -3.44559 0
M  V30 3730 C 354.099 -0.803222 -4.24467 0
M  V30 3731 C 353.234 -0.0797793 -5.3114 0
M  V30 3732 C 352.273 -1.06583 -6.02749 0
M  V30 3733 N 351.41 -0.372074 -7.01113 0
M  V30 3734 H 356.25 -1.37351 -2.64459 0
M  V30 3735 H 353.787 -0.688419 -1.29997 0
M  V30 3736 H 355.745 0.615125 -4.1264 0
M  V30 3737 H 354.375 1.02455 -3.06109 0
M  V30 3738 H 353.427 -1.34368 -3.55878 0
M  V30 3739 H 354.739 -1.55494 -4.73944 0
M  V30 3740 H 353.893 0.400015 -6.0538 0
M  V30 3741 H 352.632 0.704597 -4.82583 0
M  V30 3742 H 351.637 -1.55645 -5.27309 0
M  V30 3743 H 352.862 -1.85074 -6.53395 0
M  V30 3744 H 350.808 0.393238 -6.5482 0
M  V30 3745 H 350.725 -1.06258 -7.48495 0
M  V30 3746 H 351.993 0.0855932 -7.79453 0
M  V30 3747 N 356.222 1.38976 -0.743202 0
M  V30 3748 C 357.633 1.83123 -0.363732 0
M  V30 3749 C 357.984 1.6205 1.10609 0
M  V30 3750 O 357.109 1.11606 1.854 0
M  V30 3751 C 357.704 3.32439 -0.653408 0
M  V30 3752 C 356.263 3.74974 -0.327338 0
M  V30 3753 C 355.41 2.61878 -0.911875 0
M  V30 3754 H 358.361 1.27852 -0.940191 0
M  V30 3755 H 358.382 3.80432 0.0720031 0
M  V30 3756 H 357.894 3.47745 -1.72323 0
M  V30 3757 H 355.995 3.65252 0.736314 0
M  V30 3758 H 356.108 4.72106 -0.815631 0
M  V30 3759 H 354.472 2.52448 -0.337944 0
M  V30 3760 H 355.255 2.79987 -1.98651 0
M  V30 3761 N 357.7 0.491464 1.49741 0
M  V30 3762 C 358.977 -0.118984 1.95238 0
M  V30 3763 C 359.357 -1.55044 1.43264 0
M  V30 3764 O 358.705 -2.19287 0.642287 0
M  V30 3765 C 358.915 -0.0414187 3.48975 0
M  V30 3766 C 360.263 -0.220133 4.24029 0
M  V30 3767 O 361.287 -0.117055 3.56008 0
M  V30 3768 O 360.146 -0.430567 5.44801 0
M  V30 3769 H 357.24 -0.100536 0.820866 0
M  V30 3770 H 359.786 0.553322 1.60426 0
M  V30 3771 H 358.558 0.957214 3.79412 0
M  V30 3772 H 358.181 -0.754292 3.9038 0
M  V30 3773 N 359.178 -1.55987 0.224894 0
M  V30 3774 C 360.424 -1.98684 -0.406502 0
M  V30 3775 C 360.757 -1.11248 -1.59177 0
M  V30 3776 O 360.032 -0.170909 -1.93748 0
M  V30 3777 C 360.315 -3.50218 -0.837808 0
M  V30 3778 C 360.168 -4.48426 0.351332 0
M  V30 3779 C 361.487 -4.06243 -1.69278 0
M  V30 3780 H 358.606 -0.722337 -0.146283 0
M  V30 3781 H 361.248 -1.87255 0.321799 0
M  V30 3782 H 359.398 -3.60089 -1.45837 0
M  V30 3783 H 361.07 -4.50562 0.989526 0
M  V30 3784 H 359.313 -4.22159 0.998207 0
M  V30 3785 H 359.984 -5.52 0.00655905 0
M  V30 3786 H 362.46 -3.99337 -1.16914 0
M  V30 3787 H 361.336 -5.12581 -1.96346 0
M  V30 3788 H 361.597 -3.53332 -2.65723 0
M  V30 3789 N 360.656 0.0484629 -1.57525 0
M  V30 3790 C 361.881 0.759177 -1.93006 0
M  V30 3791 C 362.306 1.69125 -0.823317 0
M  V30 3792 O 361.664 1.79931 0.222364 0
M  V30 3793 C 361.712 1.50899 -3.27509 0
M  V30 3794 O 360.816 2.62112 -3.18388 0
M  V30 3795 H 360.157 0.205564 -0.631379 0
M  V30 3796 H 362.687 0.00972959 -2.04598 0
M  V30 3797 H 362.697 1.88317 -3.6194 0
M  V30 3798 H 361.372 0.825269 -4.0763 0
M  V30 3799 H 359.949 2.27379 -2.95556 0
M  V30 3800 N 362.134 1.5431 0.320358 0
M  V30 3801 C 363.084 1.803 1.39556 0
M  V30 3802 C 364.068 0.659166 1.46778 0
M  V30 3803 O 365.26 0.91926 1.51257 0
M  V30 3804 C 362.389 2.03665 2.76361 0
M  V30 3805 C 361.475 3.24178 2.73439 0
M  V30 3806 N 361.866 4.4516 2.40137 0
M  V30 3807 C 360.164 3.25816 3.04565 0
M  V30 3808 C 360.865 5.27109 2.4603 0
M  V30 3809 N 359.841 4.64368 2.82601 0
M  V30 3810 H 363.643 2.71416 1.12742 0
M  V30 3811 H 361.157 1.53548 0.528856 0
M  V30 3812 H 363.154 2.20425 3.53862 0
M  V30 3813 H 361.814 1.13805 3.04103 0
M  V30 3814 H 362.825 4.72104 2.12927 0
M  V30 3815 H 359.502 2.46001 3.37328 0
M  V30 3816 H 360.892 6.33728 2.23246 0
M  V30 3817 N 363.613 -0.582584 1.46437 0
M  V30 3818 C 364.861 -1.33814 1.51453 0
M  V30 3819 C 365.182 -1.94277 0.167792 0
M  V30 3820 O 364.452 -1.78566 -0.805677 0
M  V30 3821 H 363.032 -0.496838 0.557818 0
M  V30 3822 H 365.694 -0.682281 1.82568 0
M  V30 3823 H 364.79 -2.14479 2.26728 0
M  V30 3824 N 365.091 -1.34144 -0.827227 0
M  V30 3825 C 366.001 -1.27428 -1.96975 0
M  V30 3826 C 367.017 -0.182728 -1.73038 0
M  V30 3827 O 368.193 -0.408426 -1.97215 0
M  V30 3828 C 365.258 -1.02526 -3.31194 0
M  V30 3829 C 364.319 -2.20796 -3.68168 0
M  V30 3830 C 363.552 -1.97073 -4.95982 0
M  V30 3831 O 363.775 -0.926822 -5.6282 0
M  V30 3832 O 362.709 -2.83912 -5.30733 0
M  V30 3833 H 366.535 -2.23537 -2.05584 0
M  V30 3834 H 364.12 -1.14307 -0.961989 0
M  V30 3835 H 366.002 -0.904026 -4.11589 0
M  V30 3836 H 364.677 -0.0945389 -3.23562 0
M  V30 3837 H 363.584 -2.38477 -2.88235 0
M  V30 3838 H 364.917 -3.12243 -3.8048 0
M  V30 3839 N 366.569 1.04691 -1.17803 0
M  V30 3840 C 367.502 2.12068 -0.842765 0
M  V30 3841 C 368.48 1.61455 0.192608 0
M  V30 3842 O 369.664 1.88359 0.072995 0
M  V30 3843 C 366.791 3.37715 -0.258063 0
M  V30 3844 C 365.837 4.07164 -1.26962 0
M  V30 3845 S 366.67 4.55047 -2.82299 0
M  V30 3846 C 367.826 5.83935 -2.25323 0
M  V30 3847 H 368.059 2.4018 -1.75217 0
M  V30 3848 H 365.592 1.17366 -1.00323 0
M  V30 3849 H 367.55 4.10435 0.0727935 0
M  V30 3850 H 366.211 3.0773 0.629357 0
M  V30 3851 H 365.404 4.9746 -0.809263 0
M  V30 3852 H 365.006 3.40533 -1.54639 0
M  V30 3853 H 367.298 6.57552 -1.63192 0
M  V30 3854 H 368.241 6.34725 -3.13894 0
M  V30 3855 H 368.649 5.3874 -1.68582 0
M  V30 3856 N 368.047 0.979072 1.23499 0
M  V30 3857 C 369.293 0.648178 1.92163 0
M  V30 3858 C 369.626 -0.816049 1.76222 0
M  V30 3859 O 368.901 -1.58849 1.12237 0
M  V30 3860 C 369.184 1.03773 3.44824 0
M  V30 3861 C 369.037 2.55948 3.69879 0
M  V30 3862 C 370.356 0.580653 4.36253 0
M  V30 3863 H 367.475 0.236952 0.69787 0
M  V30 3864 H 370.117 1.22012 1.45647 0
M  V30 3865 H 368.267 0.551058 3.84572 0
M  V30 3866 H 369.939 3.12179 3.3962 0
M  V30 3867 H 368.182 2.98641 3.14636 0
M  V30 3868 H 368.853 2.78255 4.76737 0
M  V30 3869 H 371.329 0.998465 4.03943 0
M  V30 3870 H 370.205 0.881663 5.41773 0
M  V30 3871 H 370.466 -0.519052 4.39042 0
M  V30 3872 N 369.525 -1.3858 0.750561 0
M  V30 3873 C 370.75 -2.04997 0.314812 0
M  V30 3874 C 371.175 -1.56235 -1.04749 0
M  V30 3875 O 370.533 -0.712981 -1.66692 0
M  V30 3876 C 370.581 -3.58961 0.343415 0
M  V30 3877 O 369.685 -4.07025 -0.663628 0
M  V30 3878 H 369.026 -0.649081 0.139962 0
M  V30 3879 H 371.556 -1.77313 1.02084 0
M  V30 3880 H 371.566 -4.07542 0.193233 0
M  V30 3881 H 370.241 -3.93811 1.33738 0
M  V30 3882 H 368.818 -3.6982 -0.478307 0
M  V30 3883 N 371.003 -0.499398 -1.49478 0
M  V30 3884 C 372.251 0.0455996 -2.02049 0
M  V30 3885 C 372.572 1.37633 -1.38138 0
M  V30 3886 O 371.842 1.8842 -0.536166 0
M  V30 3887 H 370.422 0.0198416 -0.746736 0
M  V30 3888 H 373.084 -0.656274 -1.83519 0
M  V30 3889 H 372.18 0.176445 -3.11601 0
M  V30 3890 N 372.481 1.55866 -0.233164 0
M  V30 3891 C 373.728 1.98603 0.395374 0
M  V30 3892 C 374.056 1.12105 1.58942 0
M  V30 3893 O 373.311 0.168656 1.94972 0
M  V30 3894 C 373.61 3.46856 0.861724 0
M  V30 3895 C 373.276 4.50348 -0.223066 0
M  V30 3896 C 371.938 4.78371 -0.521038 0
M  V30 3897 C 374.29 5.12355 -0.956124 0
M  V30 3898 C 371.618 5.6568 -1.55638 0
M  V30 3899 C 373.97 6.00786 -1.98089 0
M  V30 3900 C 372.634 6.27148 -2.28565 0
M  V30 3901 H 371.904 0.726739 0.144677 0
M  V30 3902 H 374.551 1.88491 -0.338114 0
M  V30 3903 H 372.856 3.5423 1.67418 0
M  V30 3904 H 374.553 3.77302 1.35809 0
M  V30 3905 H 371.143 4.28596 0.0193234 0
M  V30 3906 H 375.327 4.90765 -0.739166 0
M  V30 3907 H 370.583 5.84365 -1.798 0
M  V30 3908 H 374.757 6.4788 -2.55391 0
M  V30 3909 H 372.384 6.94597 -3.08932 0
M  V30 3910 N 373.959 -0.0401083 1.57549 0
M  V30 3911 C 375.207 -0.731677 1.8839 0
M  V30 3912 C 375.528 -1.76481 0.829425 0
M  V30 3913 O 374.798 -1.95411 -0.1383 0
M  V30 3914 H 373.378 -0.273225 0.695239 0
M  V30 3915 H 376.04 -0.00867725 1.94898 0
M  V30 3916 H 375.136 -1.22816 2.86919 0
M  V30 3917 N 375.437 -1.54477 -0.31217 0
M  V30 3918 C 376.848 -1.64344 -0.885891 0
M  V30 3919 C 377.199 -0.54485 -1.88483 0
M  V30 3920 O 376.324 0.320387 -2.14015 0
M  V30 3921 C 376.919 -2.97908 -1.61357 0
M  V30 3922 C 375.478 -3.09933 -2.13585 0
M  V30 3923 C 374.625 -2.59971 -0.964897 0
M  V30 3924 H 377.576 -1.58448 -0.0894528 0
M  V30 3925 H 377.597 -2.88706 -2.47848 0
M  V30 3926 H 377.109 -3.77845 -0.886277 0
M  V30 3927 H 375.21 -2.34694 -2.89395 0
M  V30 3928 H 375.323 -4.15916 -2.37804 0
M  V30 3929 H 373.687 -2.16147 -1.34731 0
M  V30 3930 H 374.47 -3.42376 -0.251742 0
M  V30 3931 N 376.915 0.57481 -1.46744 0
M  V30 3932 C 378.164 1.32898 -1.51727 0
M  V30 3933 C 378.477 1.948 -0.176692 0
M  V30 3934 O 379.683 2.71299 -0.104385 0
M  V30 3935 C 378.139 2.40901 -2.67385 0
M  V30 3936 C 377.747 1.85266 -4.07898 0
M  V30 3937 C 379.491 3.17609 -2.81646 0
M  V30 3938 C 377.398 2.90945 -5.14883 0
M  V30 3939 H 376.328 0.499631 -0.564699 0
M  V30 3940 H 378.979 0.612536 -1.72975 0
M  V30 3941 H 377.361 3.15379 -2.39483 0
M  V30 3942 H 378.535 1.17278 -4.45626 0
M  V30 3943 H 376.85 1.21199 -3.98371 0
M  V30 3944 H 379.447 3.96493 -3.58744 0
M  V30 3945 H 379.79 3.70696 -1.89448 0
M  V30 3946 H 380.323 2.50239 -3.09233 0
M  V30 3947 H 377.062 2.42736 -6.089 0
M  V30 3948 H 376.582 3.57398 -4.81691 0
M  V30 3949 H 378.261 3.54755 -5.41071 0
M  V30 3950 N 378.394 1.34581 0.820102 0
M  V30 3951 C 379.624 1.29991 1.6058 0
M  V30 3952 C 380.032 -0.127588 1.88769 0
M  V30 3953 O 379.375 -1.08595 1.48165 0
M  V30 3954 C 379.437 2.02548 2.9701 0
M  V30 3955 C 379.101 3.51794 2.91701 0
M  V30 3956 C 380.098 4.46647 2.66087 0
M  V30 3957 C 377.783 3.94249 3.11245 0
M  V30 3958 C 379.777 5.81929 2.60071 0
M  V30 3959 C 377.464 5.2963 3.04853 0
M  V30 3960 C 378.462 6.23282 2.793 0
M  V30 3961 O 378.15 7.56181 2.72847 0
M  V30 3962 H 377.882 0.448539 0.505756 0
M  V30 3963 H 380.436 1.77811 1.02822 0
M  V30 3964 H 378.666 1.49345 3.56697 0
M  V30 3965 H 380.355 1.91211 3.58041 0
M  V30 3966 H 381.121 4.15168 2.5072 0
M  V30 3967 H 377 3.21749 3.30149 0
M  V30 3968 H 380.544 6.54999 2.40046 0
M  V30 3969 H 376.441 5.60727 3.19774 0
M  V30 3970 H 377.209 7.6595 2.88553 0
M  V30 3971 N 379.872 -1.04064 1.18357 0
M  V30 3972 C 380.82 -2.14187 0.907007 0
M  V30 3973 C 381.814 -1.68879 -0.132725 0
M  V30 3974 O 383.02 -1.79993 0.0154248 0
M  V30 3975 H 379.395 -0.699585 0.275835 0
M  V30 3976 H 381.366 -2.34711 1.84264 0
M  V30 3977 C 380.115 -3.44785 0.449254 0
M  V30 3978 H 379.438 -3.80058 1.24081 0
M  V30 3979 H 380.878 -4.22974 0.294737 0
M  V30 3980 C 379.337 -3.26391 -0.834909 0
M  V30 3981 O 379.867 -3.53973 -1.89911 0
M  V30 3982 N 378.073 -2.79726 -0.787523 0
M  V30 3983 H 377.62 -2.5748 0.0787347 0
M  V30 3984 H 377.578 -2.67798 -1.64716 0
M  V30 3985 N 381.35 -0.985608 -1.22978 0
M  V30 3986 C 382.58 -0.674603 -1.95276 0
M  V30 3987 C 382.988 0.763483 -1.73111 0
M  V30 3988 O 382.331 1.52601 -1.02268 0
M  V30 3989 C 382.393 -0.891597 -3.48268 0
M  V30 3990 C 382.057 -2.31275 -3.94158 0
M  V30 3991 C 383.054 -3.29179 -4.02415 0
M  V30 3992 C 380.739 -2.64524 -4.27004 0
M  V30 3993 C 382.733 -4.58407 -4.42879 0
M  V30 3994 C 380.42 -3.93974 -4.67149 0
M  V30 3995 C 381.418 -4.90727 -4.75053 0
M  V30 3996 O 381.106 -6.17865 -5.14294 0
M  V30 3997 H 380.838 -0.249251 -0.628371 0
M  V30 3998 H 383.392 -1.32106 -1.5728 0
M  V30 3999 H 381.622 -0.187962 -3.86243 0
M  V30 4000 H 383.311 -0.576957 -4.01779 0
M  V30 4001 H 384.077 -3.04823 -3.77237 0
M  V30 4002 H 379.956 -1.89923 -4.2006 0
M  V30 4003 H 383.5 -5.33926 -4.48964 0
M  V30 4004 H 379.397 -4.18122 -4.91777 0
M  V30 4005 H 380.165 -6.21694 -5.32389 0
M  V30 4006 N 382.828 1.3818 -0.7579 0
M  V30 4007 C 383.775 2.30416 -0.133057 0
M  V30 4008 C 384.745 1.50398 0.704957 0
M  V30 4009 O 385.93 1.79014 0.660192 0
M  V30 4010 C 383.07 3.36834 0.750813 0
M  V30 4011 C 382.183 4.31879 -0.102297 0
M  V30 4012 C 381.318 5.25368 0.784979 0
M  V30 4013 C 380.357 6.12058 -0.0715046 0
M  V30 4014 N 379.494 6.97832 0.772972 0
M  V30 4015 H 384.334 2.83274 -0.925186 0
M  V30 4016 H 381.871 1.39461 -0.467866 0
M  V30 4017 H 383.829 3.97145 1.27794 0
M  V30 4018 H 382.459 2.85374 1.50868 0
M  V30 4019 H 381.511 3.72991 -0.747095 0
M  V30 4020 H 382.823 4.92921 -0.763552 0
M  V30 4021 H 381.977 5.90818 1.37911 0
M  V30 4022 H 380.716 4.64703 1.47996 0
M  V30 4023 H 379.721 5.456 -0.678272 0
M  V30 4024 H 380.946 6.74793 -0.763606 0
M  V30 4025 H 378.892 6.3971 1.45282 0
M  V30 4026 H 378.809 7.55812 0.168709 0
M  V30 4027 H 380.077 7.67687 1.35194 0
M  V30 4028 N 384.306 0.507319 1.49211 0
M  V30 4029 C 385.583 -0.0982702 1.95353 0
M  V30 4030 C 385.963 -1.53516 1.449 0
M  V30 4031 O 385.311 -2.18594 0.66551 0
M  V30 4032 C 385.521 -0.00440283 3.49 0
M  V30 4033 C 386.869 -0.175147 4.24239 0
M  V30 4034 O 387.893 -0.0792891 3.56112 0
M  V30 4035 O 386.752 -0.37276 5.45227 0
M  V30 4036 H 383.846 -0.0918236 0.821887 0
M  V30 4037 H 386.392 0.570307 1.5983 0
M  V30 4038 H 385.164 0.997402 3.78375 0
M  V30 4039 H 384.787 -0.712845 3.91158 0
M  V30 4040 N 385.784 -1.5574 0.241426 0
M  V30 4041 C 387.012 -2.03208 -0.389134 0
M  V30 4042 C 387.427 -1.12082 -1.51931 0
M  V30 4043 O 386.784 -0.134183 -1.82006 0
M  V30 4044 C 386.835 -3.50064 -0.902087 0
M  V30 4045 O 386.556 -4.37717 0.18305 0
M  V30 4046 C 388.057 -4.13268 -1.60389 0
M  V30 4047 H 385.277 -0.664509 -0.0931053 0
M  V30 4048 H 387.821 -2.0124 0.36369 0
M  V30 4049 H 385.976 -3.52583 -1.60511 0
M  V30 4050 H 386.39 -5.24097 -0.205579 0
M  V30 4051 H 387.864 -5.17733 -1.91458 0
M  V30 4052 H 388.341 -3.59434 -2.52397 0
M  V30 4053 H 388.947 -4.14655 -0.945576 0
M  V30 4054 N 387.262 0.0317525 -1.57568 0
M  V30 4055 C 388.511 0.722131 -1.8833 0
M  V30 4056 C 388.824 1.76664 -0.839587 0
M  V30 4057 O 390.03 2.50942 -1.03635 0
M  V30 4058 C 388.486 1.33544 -3.34207 0
M  V30 4059 C 388.094 0.327415 -4.46802 0
M  V30 4060 C 389.838 2.00585 -3.7412 0
M  V30 4061 C 387.745 0.948915 -5.83738 0
M  V30 4062 H 386.675 0.273466 -0.702661 0
M  V30 4063 H 389.326 -0.0235811 -1.83485 0
M  V30 4064 H 387.708 2.13077 -3.33788 0
M  V30 4065 H 388.882 -0.441006 -4.58685 0
M  V30 4066 H 387.197 -0.240758 -4.15703 0
M  V30 4067 H 389.794 2.47932 -4.73744 0
M  V30 4068 H 390.137 2.82285 -3.05975 0
M  V30 4069 H 390.67 1.27831 -3.76702 0
M  V30 4070 H 387.409 0.171387 -6.55276 0
M  V30 4071 H 386.929 1.68724 -5.7558 0
M  V30 4072 H 388.608 1.45705 -6.3038 0
M  V30 4073 N 388.74 1.54641 0.303973 0
M  V30 4074 C 389.986 1.74038 1.04109 0
M  V30 4075 C 390.319 0.523051 1.87024 0
M  V30 4076 O 389.594 -0.479874 1.88487 0
M  V30 4077 C 389.877 3.02761 1.94955 0
M  V30 4078 C 389.73 4.34787 1.1524 0
M  V30 4079 C 391.049 3.27336 2.94175 0
M  V30 4080 H 388.168 0.63323 0.377079 0
M  V30 4081 H 390.81 1.87354 0.316001 0
M  V30 4082 H 388.96 2.9154 2.56782 0
M  V30 4083 H 390.632 4.57922 0.557236 0
M  V30 4084 H 388.875 4.31407 0.455053 0
M  V30 4085 H 389.546 5.21116 1.8205 0
M  V30 4086 H 392.022 3.38148 2.42477 0
M  V30 4087 H 390.898 4.18726 3.54908 0
M  V30 4088 H 391.159 2.45491 3.67677 0
M  V30 4089 N 390.218 -0.567019 1.47046 0
M  V30 4090 C 391.465 -1.32462 1.53167 0
M  V30 4091 C 391.793 -1.93571 0.189841 0
M  V30 4092 O 391.048 -1.77865 -0.816243 0
M  V30 4093 C 391.347 -2.4623 2.59047 0
M  V30 4094 C 391.013 -2.03014 4.02612 0
M  V30 4095 C 389.675 -1.90944 4.41694 0
M  V30 4096 C 392.027 -1.69895 4.92732 0
M  V30 4097 C 389.355 -1.44035 5.68745 0
M  V30 4098 C 391.707 -1.2446 6.20236 0
M  V30 4099 C 390.371 -1.10979 6.5821 0
M  V30 4100 H 389.641 -0.484713 0.560477 0
M  V30 4101 H 392.288 -0.636888 1.80599 0
M  V30 4102 H 390.593 -3.20517 2.25335 0
M  V30 4103 H 392.29 -3.04427 2.61008 0
M  V30 4104 H 388.88 -2.13348 3.71726 0
M  V30 4105 H 393.064 -1.78098 4.63244 0
M  V30 4106 H 388.32 -1.32254 5.96925 0
M  V30 4107 H 392.494 -0.978924 6.89485 0
M  V30 4108 H 390.121 -0.744078 7.5655 0
M  V30 4109 N 391.696 -1.35014 -0.812953 0
M  V30 4110 C 392.643 -1.27412 -1.92444 0
M  V30 4111 C 393.613 -0.14733 -1.65445 0
M  V30 4112 O 394.798 -0.329974 -1.87925 0
M  V30 4113 C 391.938 -1.04558 -3.28879 0
M  V30 4114 C 391.051 -2.26101 -3.68106 0
M  V30 4115 C 390.186 -1.96449 -4.9354 0
M  V30 4116 C 389.225 -3.14081 -5.25376 0
M  V30 4117 N 388.362 -2.84246 -6.41988 0
M  V30 4118 H 393.202 -2.22463 -1.98278 0
M  V30 4119 H 390.739 -1.10593 -0.969933 0
M  V30 4120 H 392.697 -0.893413 -4.07522 0
M  V30 4121 H 391.327 -0.131719 -3.22531 0
M  V30 4122 H 390.379 -2.52204 -2.84775 0
M  V30 4123 H 391.691 -3.13959 -3.87597 0
M  V30 4124 H 390.845 -1.78026 -5.79993 0
M  V30 4125 H 389.584 -1.05867 -4.76071 0
M  V30 4126 H 388.589 -3.33089 -4.37415 0
M  V30 4127 H 389.814 -4.05455 -5.44778 0
M  V30 4128 H 387.76 -1.96252 -6.25956 0
M  V30 4129 H 387.677 -3.65637 -6.61699 0
M  V30 4130 H 388.945 -2.6935 -7.31485 0
M  V30 4131 N 393.175 1.03435 -1.18907 0
M  V30 4132 C 394.415 1.78302 -0.999391 0
M  V30 4133 C 394.779 1.86353 0.462219 0
M  V30 4134 O 395.98 2.57489 0.771543 0
M  V30 4135 C 394.251 3.17362 -1.64365 0
M  V30 4136 S 395.81 4.08488 -1.6026 0
M  V30 4137 H 392.628 0.613861 -0.358742 0
M  V30 4138 H 395.23 1.23979 -1.51161 0
M  V30 4139 H 393.934 3.09116 -2.69955 0
M  V30 4140 H 393.465 3.76762 -1.13199 0
M  V30 4141 H 395.48 4.92274 -0.622932 0
M  V30 4142 N 394.653 0.992116 1.22453 0
M  V30 4143 C 395.585 0.500024 2.23679 0
M  V30 4144 C 396.598 -0.404463 1.57696 0
M  V30 4145 O 397.787 -0.206722 1.77299 0
M  V30 4146 C 394.887 -0.294711 3.37616 0
M  V30 4147 C 394.06 0.605723 4.33186 0
M  V30 4148 C 393.119 -0.13717 5.26021 0
M  V30 4149 O 392.145 0.477164 5.67196 0
M  V30 4150 N 393.347 -1.4197 5.62872 0
M  V30 4151 H 396.112 1.37045 2.66531 0
M  V30 4152 H 393.673 0.866741 1.36745 0
M  V30 4153 H 395.665 -0.800329 3.96707 0
M  V30 4154 H 394.235 -1.06623 2.93854 0
M  V30 4155 H 393.455 1.29202 3.72425 0
M  V30 4156 H 394.743 1.21896 4.93983 0
M  V30 4157 H 394.141 -1.94015 5.31389 0
M  V30 4158 H 392.698 -1.87052 6.24383 0
M  V30 4159 N 396.131 -1.37776 0.765217 0
M  V30 4160 C 397.078 -2.30342 0.145274 0
M  V30 4161 C 398.048 -1.5077 -0.696971 0
M  V30 4162 O 399.233 -1.79362 -0.650689 0
M  V30 4163 C 396.373 -3.37227 -0.732939 0
M  V30 4164 C 395.486 -4.31819 0.125199 0
M  V30 4165 C 394.621 -5.25777 -0.757107 0
M  V30 4166 C 393.66 -6.12012 0.103963 0
M  V30 4167 N 392.797 -6.98232 -0.735953 0
M  V30 4168 H 397.637 -2.8278 0.940195 0
M  V30 4169 H 395.174 -1.39211 0.475255 0
M  V30 4170 H 397.132 -3.97818 -1.25686 0
M  V30 4171 H 395.762 -2.86171 -1.49353 0
M  V30 4172 H 394.814 -3.7259 0.766865 0
M  V30 4173 H 396.126 -4.92509 0.789683 0
M  V30 4174 H 395.28 -5.91541 -1.34776 0
M  V30 4175 H 394.019 -4.65481 -1.45529 0
M  V30 4176 H 393.024 -5.45233 0.707197 0
M  V30 4177 H 394.249 -6.74379 0.799381 0
M  V30 4178 H 392.195 -6.40472 -1.41887 0
M  V30 4179 H 392.112 -7.55891 -0.128624 0
M  V30 4180 H 393.38 -7.68393 -1.31121 0
M  V30 4181 N 397.609 -0.515225 -1.4894 0
M  V30 4182 C 398.857 0.0241671 -2.02086 0
M  V30 4183 C 399.178 1.3616 -1.3959 0
M  V30 4184 O 398.448 1.87841 -0.556121 0
M  V30 4185 H 397.028 0.0119203 -0.746905 0
M  V30 4186 H 399.69 -0.675702 -1.82812 0
M  V30 4187 H 398.786 0.143385 -3.1177 0
M  V30 4188 N 399.087 1.5561 -0.249682 0
M  V30 4189 C 400.334 1.99011 0.374287 0
M  V30 4190 C 400.662 1.13785 1.57744 0
M  V30 4191 O 399.917 0.189326 1.94782 0
M  V30 4192 C 400.216 3.4775 0.824887 0
M  V30 4193 C 399.882 4.50086 -0.270819 0
M  V30 4194 C 398.544 4.77791 -0.571746 0
M  V30 4195 C 400.896 5.11312 -1.01041 0
M  V30 4196 C 398.224 5.63997 -1.61629 0
M  V30 4197 C 400.576 5.98651 -2.0445 0
M  V30 4198 C 399.24 6.24688 -2.35204 0
M  V30 4199 H 398.51 0.728233 0.136961 0
M  V30 4200 H 401.157 1.88122 -0.358087 0
M  V30 4201 H 399.462 3.55985 1.63651 0
M  V30 4202 H 401.159 3.78721 1.31799 0
M  V30 4203 H 397.749 4.28592 -0.026136 0
M  V30 4204 H 401.933 4.89953 -0.791177 0
M  V30 4205 H 397.189 5.82425 -1.85988 0
M  V30 4206 H 401.363 6.45135 -2.62248 0
M  V30 4207 H 398.99 6.91281 -3.16282 0
M  V30 4208 N 400.565 -0.0233959 1.57583 0
M  V30 4209 C 401.811 -0.714119 1.89811 0
M  V30 4210 C 402.144 -1.74702 0.848113 0
M  V30 4211 O 401.419 -1.94023 -0.136135 0
M  V30 4212 C 401.702 -1.37853 3.32669 0
M  V30 4213 C 401.555 -0.358764 4.48367 0
M  V30 4214 C 402.874 -2.31101 3.7454 0
M  V30 4215 H 399.993 -0.25814 0.690314 0
M  V30 4216 H 402.635 0.0230927 1.89986 0
M  V30 4217 H 400.785 -2.00689 3.3265 0
M  V30 4218 H 402.457 0.268115 4.6052 0
M  V30 4219 H 400.7 0.321387 4.32608 0
M  V30 4220 H 401.371 -0.862242 5.45224 0
M  V30 4221 H 403.847 -1.78304 3.75961 0
M  V30 4222 H 402.723 -2.74567 4.75294 0
M  V30 4223 H 402.984 -3.18018 3.0711 0
M  V30 4224 N 402.043 -1.548 -0.295768 0
M  V30 4225 C 402.973 -1.89115 -1.36959 0
M  V30 4226 C 403.954 -0.75059 -1.52644 0
M  V30 4227 O 405.139 -1.00678 -1.66065 0
M  V30 4228 C 402.269 -2.14307 -2.73295 0
M  V30 4229 C 401.223 -3.30151 -2.72368 0
M  V30 4230 C 400.549 -3.40772 -4.12042 0
M  V30 4231 C 401.849 -4.67126 -2.33646 0
M  V30 4232 H 403.543 -2.79053 -1.08488 0
M  V30 4233 H 401.089 -1.34266 -0.520443 0
M  V30 4234 H 403.042 -2.36898 -3.48507 0
M  V30 4235 H 401.766 -1.21145 -3.03301 0
M  V30 4236 H 400.425 -3.0749 -1.99613 0
M  V30 4237 H 400.073 -2.45117 -4.39234 0
M  V30 4238 H 399.773 -4.18645 -4.12322 0
M  V30 4239 H 401.297 -3.6563 -4.89027 0
M  V30 4240 H 402.711 -4.89414 -2.98575 0
M  V30 4241 H 401.108 -5.47751 -2.45129 0
M  V30 4242 H 402.178 -4.67489 -1.28772 0
M  V30 4243 N 403.521 0.559213 -1.47345 0
M  V30 4244 C 404.937 0.884943 -1.32819 0
M  V30 4245 C 405.137 1.98988 -0.317173 0
M  V30 4246 O 404.193 2.51031 0.272011 0
M  V30 4247 C 405.506 1.28007 -2.72093 0
M  V30 4248 C 407.054 1.39161 -2.80363 0
M  V30 4249 C 407.529 1.82031 -4.20272 0
M  V30 4250 N 409.02 1.89185 -4.22804 0
M  V30 4251 C 409.755 2.2368 -5.27973 0
M  V30 4252 N 409.251 2.56802 -6.43447 0
M  V30 4253 N 411.044 2.24436 -5.15349 0
M  V30 4254 H 403.195 -0.170304 -2.11716 0
M  V30 4255 H 405.458 -0.0135247 -0.947904 0
M  V30 4256 H 405.164 0.542027 -3.47498 0
M  V30 4257 H 405.038 2.23665 -3.03733 0
M  V30 4258 H 407.425 2.12048 -2.05231 0
M  V30 4259 H 407.506 0.41696 -2.52379 0
M  V30 4260 H 407.15 1.09715 -4.95908 0
M  V30 4261 H 407.08 2.80495 -4.45679 0
M  V30 4262 H 409.571 1.65982 -3.39497 0
M  V30 4263 H 409.884 2.82144 -7.19454 0
M  V30 4264 H 408.229 2.54387 -6.46771 0
M  V30 4265 H 411.42 1.97998 -4.24163 0
M  V30 4266 H 411.593 2.50989 -5.97418 0
M  V30 4267 N 404.999 1.35443 0.805782 0
M  V30 4268 C 406.247 1.28507 1.55982 0
M  V30 4269 C 406.568 -0.140046 1.94496 0
M  V30 4270 O 405.838 -1.07666 1.63661 0
M  V30 4271 H 404.418 0.472676 0.578434 0
M  V30 4272 H 407.08 1.69555 0.961098 0
M  V30 4273 H 406.176 1.90148 2.47488 0
M  V30 4274 N 406.477 -1.02803 1.19454 0
M  V30 4275 C 407.702 -1.80378 1.02364 0
M  V30 4276 C 408.127 -1.83282 -0.423007 0
M  V30 4277 O 407.485 -1.25945 -1.30413 0
M  V30 4278 C 407.533 -3.23248 1.59821 0
M  V30 4279 O 406.637 -4.04 0.828105 0
M  V30 4280 H 405.978 -0.556799 0.361761 0
M  V30 4281 H 408.508 -1.29385 1.58495 0
M  V30 4282 H 408.518 -3.73994 1.63073 0
M  V30 4283 H 407.193 -3.2045 2.65113 0
M  V30 4284 H 405.77 -3.62635 0.86891 0
M  V30 4285 N 407.956 -0.998596 -1.21925 0
M  V30 4286 C 409.181 -0.696015 -1.95372 0
M  V30 4287 C 409.606 0.733826 -1.73195 0
M  V30 4288 O 408.964 1.50242 -1.01474 0
M  V30 4289 C 409.012 -1.01466 -3.4603 0
M  V30 4290 O 408.116 -0.116415 -4.12236 0
M  V30 4291 H 407.457 -0.259938 -0.611006 0
M  V30 4292 H 409.987 -1.33711 -1.54863 0
M  V30 4293 H 409.997 -0.958855 -3.96573 0
M  V30 4294 H 408.672 -2.05653 -3.61497 0
M  V30 4295 H 407.249 -0.228193 -3.72201 0
M  V30 4296 N 409.434 1.37368 -0.772513 0
M  V30 4297 C 410.68 1.99969 -0.337681 0
M  V30 4298 C 411.013 1.61184 1.08321 0
M  V30 4299 O 410.288 0.858395 1.74533 0
M  V30 4300 C 410.571 3.56858 -0.482121 0
M  V30 4301 C 410.424 4.0555 -1.94549 0
M  V30 4302 C 411.743 4.39955 0.113143 0
M  V30 4303 H 408.862 0.726464 -0.124171 0
M  V30 4304 H 411.504 1.63034 -0.975699 0
M  V30 4305 H 409.654 3.88452 0.0610361 0
M  V30 4306 H 411.326 3.84518 -2.54841 0
M  V30 4307 H 409.569 3.57715 -2.45403 0
M  V30 4308 H 410.24 5.14587 -1.9976 0
M  V30 4309 H 412.716 4.14623 -0.35031 0
M  V30 4310 H 411.592 5.48897 -0.0180514 0
M  V30 4311 H 411.853 4.25403 1.20354 0
M  V30 4312 N 410.912 0.523116 1.48665 0
M  V30 4313 C 412.161 -0.01544 2.01694 0
M  V30 4314 C 412.474 -1.35975 1.40606 0
M  V30 4315 O 413.68 -1.98627 1.85093 0
M  V30 4316 C 412.136 -0.0779303 3.59816 0
M  V30 4317 C 411.744 1.26107 4.29885 0
M  V30 4318 C 413.488 -0.565678 4.20714 0
M  V30 4319 C 411.395 1.15954 5.79921 0
M  V30 4320 H 410.325 -0.00954163 0.75394 0
M  V30 4321 H 412.976 0.665865 1.70993 0
M  V30 4322 H 411.358 -0.824165 3.87329 0
M  V30 4323 H 412.532 2.02233 4.14051 0
M  V30 4324 H 410.847 1.68401 3.80828 0
M  V30 4325 H 413.444 -0.6595 5.30617 0
M  V30 4326 H 413.787 -1.56984 3.85567 0
M  V30 4327 H 414.32 0.12467 3.97605 0
M  V30 4328 H 411.059 2.13864 6.19631 0
M  V30 4329 H 410.579 0.439529 5.98187 0
M  V30 4330 H 412.258 0.847361 6.41427 0
M  V30 4331 N 412.39 -1.55475 0.257931 0
M  V30 4332 C 413.34 -2.18506 -0.651094 0
M  V30 4333 C 414.324 -1.14431 -1.13112 0
M  V30 4334 O 415.516 -1.40305 -1.07905 0
M  V30 4335 C 412.645 -2.89653 -1.84272 0
M  V30 4336 C 411.731 -4.00996 -1.38068 0
M  V30 4337 N 412.122 -5.01816 -0.633609 0
M  V30 4338 C 410.42 -4.13753 -1.66506 0
M  V30 4339 C 411.121 -5.80371 -0.392922 0
M  V30 4340 N 410.097 -5.3505 -0.960359 0
M  V30 4341 H 413.899 -2.93811 -0.0722883 0
M  V30 4342 H 411.413 -1.62286 0.0607256 0
M  V30 4343 H 413.41 -3.33245 -2.50506 0
M  V30 4344 H 412.07 -2.15854 -2.42564 0
M  V30 4345 H 413.081 -5.17128 -0.282626 0
M  V30 4346 H 409.758 -3.51133 -2.25858 0
M  V30 4347 H 411.148 -6.7159 0.204235 0
M  V30 4348 N 413.868 0.0150385 -1.57593 0
M  V30 4349 C 415.108 0.70768 -1.91758 0
M  V30 4350 C 415.472 1.71764 -0.857974 0
M  V30 4351 O 416.673 2.45956 -1.0844 0
M  V30 4352 C 414.944 1.34736 -3.3103 0
M  V30 4353 S 416.503 2.06721 -3.87056 0
M  V30 4354 H 413.321 0.234119 -0.671349 0
M  V30 4355 H 415.923 -0.0380373 -1.95463 0
M  V30 4356 H 414.627 0.59926 -4.06001 0
M  V30 4357 H 414.158 2.13133 -3.30663 0
M  V30 4358 H 416.173 3.34047 -3.66915 0
M  V30 4359 N 415.346 1.54954 0.287554 0
M  V30 4360 C 416.623 1.65569 1.04146 0
M  V30 4361 C 417.003 0.512672 2.0478 0
M  V30 4362 O 416.351 -0.489038 2.23205 0
M  V30 4363 C 416.561 3.04163 1.71131 0
M  V30 4364 C 417.909 3.61429 2.22832 0
M  V30 4365 O 418.933 3.06702 1.81141 0
M  V30 4366 O 417.792 4.57281 2.9926 0
M  V30 4367 H 414.886 0.671881 0.482188 0
M  V30 4368 H 417.432 1.67297 0.28457 0
M  V30 4369 H 416.204 3.78796 0.981303 0
M  V30 4370 H 415.827 3.06271 2.53543 0
M  V30 4371 N 416.824 -0.551391 1.4764 0
M  V30 4372 C 417.787 -1.64007 1.60107 0
M  V30 4373 C 418.787 -1.53601 0.47576 0
M  V30 4374 O 419.977 -1.57655 0.740988 0
M  V30 4375 C 417.109 -3.03569 1.55108 0
M  V30 4376 H 418.302 -1.543 2.57161 0
M  V30 4377 H 415.855 -0.771776 1.35917 0
M  V30 4378 H 416.59 -3.18804 0.594519 0
M  V30 4379 H 416.375 -3.12532 2.36783 0
M  V30 4380 H 417.865 -3.82762 1.66982 0
M  V30 4381 N 418.302 -1.35869 -0.798587 0
M  V30 4382 C 419.579 -1.20145 -1.54352 0
M  V30 4383 C 419.959 0.216161 -2.0999 0
M  V30 4384 O 419.307 1.22068 -1.93162 0
M  V30 4385 C 419.517 -2.27602 -2.64572 0
M  V30 4386 C 420.865 -2.63811 -3.32699 0
M  V30 4387 O 421.889 -2.26576 -2.74849 0
M  V30 4388 O 420.748 -3.27866 -4.37226 0
M  V30 4389 H 417.842 -0.467248 -0.682355 0
M  V30 4390 H 420.388 -1.47574 -0.837859 0
M  V30 4391 H 419.16 -3.2265 -2.21388 0
M  V30 4392 H 418.783 -2.01488 -3.42766 0
M  V30 4393 N 419.78 1.02168 -1.19998 0
M  V30 4394 C 421.005 1.79833 -1.03319 0
M  V30 4395 C 421.43 1.83504 0.413281 0
M  V30 4396 O 420.788 1.26635 1.29743 0
M  V30 4397 C 420.836 3.22396 -1.61533 0
M  V30 4398 O 419.94 4.03555 -0.849519 0
M  V30 4399 H 419.281 0.554872 -0.364709 0
M  V30 4400 H 421.811 1.28542 -1.59179 0
M  V30 4401 H 421.821 3.73124 -1.65054 0
M  V30 4402 H 420.496 3.19039 -2.66809 0
M  V30 4403 H 419.073 3.62169 -0.888129 0
M  V30 4404 N 421.258 1.00505 1.21394 0
M  V30 4405 C 422.205 0.565496 2.23765 0
M  V30 4406 C 423.175 -0.408466 1.60999 0
M  V30 4407 O 424.36 -0.310503 1.88257 0
M  V30 4408 C 421.5 -0.101667 3.4495 0
M  V30 4409 C 420.613 0.915479 4.22188 0
M  V30 4410 C 419.748 0.220574 5.30742 0
M  V30 4411 C 418.787 1.22527 5.99711 0
M  V30 4412 N 417.924 0.557831 6.9988 0
M  V30 4413 H 422.764 1.44314 2.60725 0
M  V30 4414 H 420.301 0.722643 1.28126 0
M  V30 4415 H 422.259 -0.505504 4.14126 0
M  V30 4416 H 420.889 -0.94303 3.08718 0
M  V30 4417 H 419.941 1.43756 3.52191 0
M  V30 4418 H 421.253 1.68005 4.69655 0
M  V30 4419 H 420.407 -0.239368 6.06228 0
M  V30 4420 H 419.146 -0.576401 4.84282 0
M  V30 4421 H 418.151 1.69571 5.22997 0
M  V30 4422 H 419.376 2.02332 6.48258 0
M  V30 4423 H 417.322 -0.219486 6.55633 0
M  V30 4424 H 417.239 1.26065 7.45415 0
M  V30 4425 H 418.507 0.121095 7.79406 0
M  V30 4426 N 422.737 -1.36956 0.779787 0
M  V30 4427 C 423.983 -2.00237 0.357324 0
M  V30 4428 C 424.338 -1.60787 -1.05666 0
M  V30 4429 O 423.631 -0.847836 -1.71821 0
M  V30 4430 C 423.825 -3.54585 0.447686 0
M  V30 4431 C 423.654 -4.09025 1.86891 0
M  V30 4432 C 422.424 -4.39612 2.49138 0
M  V30 4433 C 424.622 -4.29461 2.82963 0
M  V30 4434 N 422.604 -4.79816 3.82949 0
M  V30 4435 C 423.975 -4.72363 4.01588 0
M  V30 4436 C 426.03 -4.1161 2.80145 0
M  V30 4437 C 424.733 -4.99284 5.17791 0
M  V30 4438 C 426.759 -4.39672 3.95528 0
M  V30 4439 C 426.121 -4.82822 5.12896 0
M  V30 4440 H 422.22 -0.76148 0.177968 0
M  V30 4441 H 424.804 -1.6613 1.01533 0
M  V30 4442 H 422.975 -3.87982 -0.180184 0
M  V30 4443 H 424.707 -4.047 0.0023955 0
M  V30 4444 H 421.462 -4.28975 2.00693 0
M  V30 4445 H 421.886 -5.04216 4.51769 0
M  V30 4446 H 426.528 -3.77415 1.90572 0
M  V30 4447 H 424.246 -5.32365 6.07958 0
M  V30 4448 H 427.832 -4.27441 3.94697 0
M  V30 4449 H 426.712 -5.04118 6.00695 0
M  V30 4450 N 424.215 -0.530993 -1.48385 0
M  V30 4451 C 425.163 0.244595 -2.3131 0
M  V30 4452 C 426.157 0.93451 -1.41291 0
M  V30 4453 O 427.363 0.85878 -1.58193 0
M  V30 4454 H 423.738 0.0977472 -0.74562 0
M  V30 4455 H 425.709 -0.474369 -2.94605 0
M  V30 4456 C 424.458 1.2779 -3.23365 0
M  V30 4457 H 423.781 0.756439 -3.92579 0
M  V30 4458 H 425.221 1.79198 -3.84271 0
M  V30 4459 C 423.68 2.31205 -2.45042 0
M  V30 4460 O 424.21 3.37661 -2.17596 0
M  V30 4461 N 422.416 2.04446 -2.0652 0
M  V30 4462 H 421.963 1.17891 -2.2904 0
M  V30 4463 H 421.921 2.73861 -1.54427 0
M  V30 4464 N 425.693 1.55336 -0.266172 0
M  V30 4465 C 427.104 1.85236 0.233315 0
M  V30 4466 C 427.455 1.18816 1.56132 0
M  V30 4467 O 426.58 0.473307 2.11161 0
M  V30 4468 C 427.175 3.36059 0.430113 0
M  V30 4469 C 425.734 3.66116 0.873842 0
M  V30 4470 C 424.881 2.77274 -0.0380016 0
M  V30 4471 H 427.832 1.51004 -0.488214 0
M  V30 4472 H 427.853 3.58681 1.26998 0
M  V30 4473 H 427.365 3.84373 -0.536588 0
M  V30 4474 H 425.466 3.23295 1.85233 0
M  V30 4475 H 425.579 4.73699 0.717358 0
M  V30 4476 H 423.943 2.50198 0.476759 0
M  V30 4477 H 424.726 3.284 -1.00042 0
M  V30 4478 N 427.171 -0.0066808 1.57599 0
M  V30 4479 C 428.396 -0.707738 1.94951 0
M  V30 4480 C 428.821 -1.66882 0.867868 0
M  V30 4481 O 428.179 -1.80457 -0.17458 0
M  V30 4482 C 428.227 -1.42162 3.31394 0
M  V30 4483 O 427.331 -2.53578 3.25226 0
M  V30 4484 H 426.672 -0.188752 0.636607 0
M  V30 4485 H 429.202 0.0445193 2.04552 0
M  V30 4486 H 429.212 -1.78655 3.66806 0
M  V30 4487 H 427.887 -0.716903 4.09675 0
M  V30 4488 H 426.464 -2.19463 3.01481 0
M  V30 4489 N 428.649 -1.55105 -0.279332 0
M  V30 4490 C 430.06 -1.66186 -0.850832 0
M  V30 4491 C 430.411 -0.584707 -1.87285 0
M  V30 4492 O 429.536 0.274919 -2.14647 0
M  V30 4493 C 430.131 -3.01264 -1.55001 0
M  V30 4494 C 428.69 -3.14394 -2.06963 0
M  V30 4495 C 427.837 -2.61959 -0.909536 0
M  V30 4496 H 430.788 -1.58602 -0.0558235 0
M  V30 4497 H 430.809 -2.93899 -2.41669 0
M  V30 4498 H 430.321 -3.7964 -0.805931 0
M  V30 4499 H 428.422 -2.4078 -2.84352 0
M  V30 4500 H 428.535 -4.20867 -2.28928 0
M  V30 4501 H 426.899 -2.18957 -1.30116 0
M  V30 4502 H 427.682 -3.42833 -0.179062 0
M  V30 4503 N 430.127 0.543554 -1.4793 0
M  V30 4504 C 431.538 1.12561 -1.48953 0
M  V30 4505 C 431.889 1.94578 -0.251754 0
M  V30 4506 O 431.014 2.0665 0.642255 0
M  V30 4507 C 431.609 2.04801 -2.69892 0
M  V30 4508 C 430.168 2.58251 -2.73831 0
M  V30 4509 C 429.315 1.34918 -2.42265 0
M  V30 4510 H 432.266 0.32947 -1.55242 0
M  V30 4511 H 432.287 2.88886 -2.47639 0
M  V30 4512 H 431.799 1.4508 -3.59963 0
M  V30 4513 H 429.9 3.21732 -1.87934 0
M  V30 4514 H 430.013 2.98312 -3.74895 0
M  V30 4515 H 428.377 1.66046 -1.93134 0
M  V30 4516 H 429.16 0.769693 -3.3456 0
M  V30 4517 N 431.605 1.3629 0.791371 0
M  V30 4518 C 432.568 1.30309 1.88553 0
M  V30 4519 C 433.568 0.211204 1.59407 0
M  V30 4520 O 434.758 0.465865 1.67855 0
M  V30 4521 C 431.89 1.01956 3.25297 0
M  V30 4522 H 433.083 2.27614 1.95273 0
M  V30 4523 H 430.636 1.21035 0.988953 0
M  V30 4524 H 431.371 0.050998 3.2426 0
M  V30 4525 H 431.156 1.80968 3.4784 0
M  V30 4526 H 432.646 1.0037 4.05359 0
M  V30 4527 N 433.083 -1.0153 1.20538 0
M  V30 4528 C 434.323 -1.76689 1.02763 0
M  V30 4529 C 434.687 -1.87065 -0.432513 0
M  V30 4530 O 435.888 -2.58684 -0.730481 0
M  V30 4531 C 434.159 -3.14707 1.69393 0
M  V30 4532 S 435.718 -4.05886 1.66738 0
M  V30 4533 H 432.536 -0.608076 0.368463 0
M  V30 4534 H 435.138 -1.21558 1.53114 0
M  V30 4535 H 433.842 -3.04782 2.74838 0
M  V30 4536 H 433.373 -3.74913 1.19179 0
M  V30 4537 H 435.388 -4.91221 0.70117 0
M  V30 4538 N 434.561 -1.01147 -1.20859 0
M  V30 4539 C 435.471 -0.58686 -2.27141 0
M  V30 4540 C 436.487 0.373198 -1.69951 0
M  V30 4541 O 437.663 0.235423 -2.00019 0
M  V30 4542 C 434.728 0.0733602 -3.46622 0
M  V30 4543 C 433.789 -0.931995 -4.19061 0
M  V30 4544 C 433.022 -0.303186 -5.32838 0
M  V30 4545 O 433.245 0.898395 -5.63281 0
M  V30 4546 O 432.179 -1.01735 -5.9324 0
M  V30 4547 H 436.005 -1.47155 -2.65667 0
M  V30 4548 H 433.59 -0.780689 -1.2738 0
M  V30 4549 H 435.472 0.442333 -4.19072 0
M  V30 4550 H 434.147 0.932329 -3.09983 0
M  V30 4551 H 433.054 -1.35224 -3.48805 0
M  V30 4552 H 434.387 -1.76076 -4.59628 0
M  V30 4553 N 436.039 1.36541 -0.78704 0
M  V30 4554 C 437.45 1.81873 -0.421807 0
M  V30 4555 C 437.801 1.65487 1.05397 0
M  V30 4556 O 436.926 1.17448 1.81755 0
M  V30 4557 C 437.521 3.30192 -0.758841 0
M  V30 4558 C 436.08 3.73743 -0.446468 0
M  V30 4559 C 435.227 2.58844 -0.994728 0
M  V30 4560 H 438.178 1.24796 -0.98039 0
M  V30 4561 H 438.199 3.80468 -0.0490648 0
M  V30 4562 H 437.711 3.42087 -1.83299 0
M  V30 4563 H 435.812 3.6741 0.619739 0
M  V30 4564 H 435.925 4.69272 -0.965415 0
M  V30 4565 H 434.289 2.51245 -0.418087 0
M  V30 4566 H 435.072 2.73525 -2.07458 0
M  V30 4567 N 437.518 0.538854 1.48102 0
M  V30 4568 C 438.466 -0.232325 2.31437 0
M  V30 4569 C 439.46 -0.927004 1.41785 0
M  V30 4570 O 440.666 -0.850378 1.58646 0
M  V30 4571 H 437.041 -0.0937916 0.746128 0
M  V30 4572 H 439.012 0.489986 2.9435 0
M  V30 4573 C 437.761 -1.26074 3.24038 0
M  V30 4574 H 437.084 -0.735609 3.92974 0
M  V30 4575 H 438.524 -1.77157 3.85216 0
M  V30 4576 C 436.983 -2.29902 2.46265 0
M  V30 4577 O 437.513 -3.36502 2.19384 0
M  V30 4578 N 435.719 -2.03348 2.07601 0
M  V30 4579 H 435.266 -1.16675 2.29662 0
M  V30 4580 H 435.224 -2.73038 1.55877 0
M  V30 4581 N 438.996 -1.55193 0.274407 0
M  V30 4582 C 440.221 -2.04446 -0.348824 0
M  V30 4583 C 440.646 -1.15149 -1.48735 0
M  V30 4584 O 440.004 -0.149952 -1.80679 0
M  V30 4585 C 440.052 -3.51431 -0.808009 0
M  V30 4586 O 439.156 -3.65225 -1.91531 0
M  V30 4587 H 438.497 -0.66006 -0.0722276 0
M  V30 4588 H 441.027 -2.00481 0.408498 0
M  V30 4589 H 441.037 -3.92781 -1.10395 0
M  V30 4590 H 439.712 -4.15892 0.0249865 0
M  V30 4591 H 438.289 -3.35778 -1.62196 0
M  V30 4592 N 440.474 -0.00167713 -1.576 0
M  V30 4593 C 441.714 0.687302 -1.92498 0
M  V30 4594 C 442.078 1.70844 -0.876144 0
M  V30 4595 O 443.279 2.44792 -1.11043 0
M  V30 4596 C 441.55 1.31217 -3.32441 0
M  V30 4597 S 443.109 2.02604 -3.89226 0
M  V30 4598 H 439.927 0.226985 -0.673794 0
M  V30 4599 H 442.529 -0.0587666 -1.95412 0
M  V30 4600 H 441.233 0.556164 -4.06614 0
M  V30 4601 H 440.764 2.09613 -3.32905 0
M  V30 4602 H 442.779 3.30137 -3.70438 0
M  V30 4603 N 441.952 1.55251 0.271103 0
M  V30 4604 C 443.201 1.75151 1.00025 0
M  V30 4605 C 443.514 0.561041 1.87381 0
M  V30 4606 O 444.72 0.642506 2.63788 0
M  V30 4607 C 443.176 3.09999 1.82835 0
M  V30 4608 C 442.784 4.3662 1.00336 0
M  V30 4609 C 444.528 3.39249 2.55168 0
M  V30 4610 C 442.435 5.62506 1.82595 0
M  V30 4611 H 441.365 0.652877 0.377183 0
M  V30 4612 H 444.016 1.81708 0.255843 0
M  V30 4613 H 442.398 2.97485 2.61378 0
M  V30 4614 H 443.572 4.60055 0.261959 0
M  V30 4615 H 441.887 4.14527 0.394486 0
M  V30 4616 H 444.484 4.3051 3.1712 0
M  V30 4617 H 444.827 2.59467 3.2555 0
M  V30 4618 H 445.36 3.52869 1.83653 0
M  V30 4619 H 442.099 6.45041 1.16631 0
M  V30 4620 H 441.619 5.43211 2.54327 0
M  V30 4621 H 443.298 6.00875 2.39913 0
M  V30 4622 N 443.43 -0.535701 1.48216 0
M  V30 4623 C 444.378 -1.66179 1.62749 0
M  V30 4624 C 445.372 -1.62034 0.49409 0
M  V30 4625 O 446.578 -1.6696 0.672624 0
M  V30 4626 H 442.953 -0.550244 0.512578 0
M  V30 4627 H 444.924 -1.51063 2.57337 0
M  V30 4628 C 443.673 -3.04471 1.67907 0
M  V30 4629 H 442.996 -3.08351 2.54479 0
M  V30 4630 H 444.436 -3.82894 1.82121 0
M  V30 4631 C 442.895 -3.34314 0.416596 0
M  V30 4632 O 443.425 -3.98905 -0.473014 0
M  V30 4633 N 441.631 -2.89149 0.290038 0
M  V30 4634 H 441.178 -2.36764 1.01493 0
M  V30 4635 H 441.136 -3.09486 -0.55367 0
M  V30 4636 N 444.908 -1.36708 -0.784132 0
M  V30 4637 C 445.838 -1.34153 -1.91116 0
M  V30 4638 C 446.819 -0.212121 -1.68772 0
M  V30 4639 O 448.004 -0.410581 -1.8981 0
M  V30 4640 C 445.134 -1.13535 -3.28218 0
M  V30 4641 C 444.088 -2.23356 -3.65097 0
M  V30 4642 C 443.414 -1.87875 -5.00607 0
M  V30 4643 C 444.714 -3.65473 -3.73131 0
M  V30 4644 H 446.408 -2.28459 -1.93512 0
M  V30 4645 H 443.954 -1.09973 -0.929618 0
M  V30 4646 H 445.907 -1.10381 -4.06687 0
M  V30 4647 H 444.631 -0.156804 -3.26223 0
M  V30 4648 H 443.29 -2.25645 -2.88929 0
M  V30 4649 H 442.938 -0.885814 -4.95139 0
M  V30 4650 H 442.638 -2.61406 -5.26252 0
M  V30 4651 H 444.162 -1.86286 -5.81489 0
M  V30 4652 H 445.576 -3.65382 -4.41779 0
M  V30 4653 H 443.973 -4.37953 -4.10265 0
M  V30 4654 H 445.043 -3.99995 -2.74102 0
M  V30 4655 N 446.386 1.0089 -1.21074 0
M  V30 4656 C 447.797 1.56056 -1.02486 0
M  V30 4657 C 448.148 1.91728 0.416506 0
M  V30 4658 O 447.273 1.73066 1.29912 0
M  V30 4659 C 447.868 2.83563 -1.85411 0
M  V30 4660 C 446.427 3.3523 -1.71166 0
M  V30 4661 C 445.574 2.0846 -1.82865 0
M  V30 4662 H 448.525 0.831818 -1.35154 0
M  V30 4663 H 448.546 3.55286 -1.36205 0
M  V30 4664 H 448.058 2.57569 -2.9031 0
M  V30 4665 H 446.159 3.66167 -0.689361 0
M  V30 4666 H 446.272 4.06913 -2.52901 0
M  V30 4667 H 444.636 2.21275 -1.26132 0
M  V30 4668 H 445.419 1.84883 -2.89263 0
M  V30 4669 N 447.864 1.01787 1.20321 0
M  V30 4670 C 449.141 0.622978 1.85414 0
M  V30 4671 C 449.521 -0.898887 1.91006 0
M  V30 4672 O 448.869 -1.79112 1.41884 0
M  V30 4673 C 449.079 1.27226 3.24984 0
M  V30 4674 C 450.427 1.3885 4.01255 0
M  V30 4675 O 451.451 1.22857 3.34342 0
M  V30 4676 O 450.31 1.64705 5.2109 0
M  V30 4677 H 447.404 0.215116 0.798533 0
M  V30 4678 H 449.95 1.11533 1.27901 0
M  V30 4679 H 448.722 2.31209 3.15687 0
M  V30 4680 H 448.345 0.767069 3.90131 0
M  V30 4681 N 449.342 -1.36122 0.79427 0
M  V30 4682 C 450.591 -1.98361 0.365464 0
M  V30 4683 C 450.904 -1.6374 -1.06997 0
M  V30 4684 O 452.11 -2.19251 -1.60129 0
M  V30 4685 C 450.566 -3.54821 0.602496 0
M  V30 4686 C 450.174 -3.98362 2.04967 0
M  V30 4687 C 451.918 -4.2383 0.238437 0
M  V30 4688 C 449.825 -5.47619 2.2331 0
M  V30 4689 H 448.755 -0.742193 0.13291 0
M  V30 4690 H 451.406 -1.55354 0.976589 0
M  V30 4691 H 449.788 -3.95922 -0.078409 0
M  V30 4692 H 450.962 -3.68447 2.76737 0
M  V30 4693 H 449.277 -3.42206 2.37243 0
M  V30 4694 H 451.874 -5.33529 0.353705 0
M  V30 4695 H 452.217 -4.08264 -0.814006 0
M  V30 4696 H 452.75 -3.88108 0.872769 0
M  V30 4697 H 449.489 -5.68138 3.26955 0
M  V30 4698 H 449.009 -5.79145 1.5605 0
M  V30 4699 H 450.688 -6.13911 2.0426 0
M  V30 4700 N 450.82 -0.546701 -1.47814 0
M  V30 4701 C 452.231 -0.110564 -1.86372 0
M  V30 4702 C 452.582 1.31678 -1.45449 0
M  V30 4703 O 451.707 1.98889 -0.852758 0
M  V30 4704 C 452.302 -0.193873 -3.38245 0
M  V30 4705 C 450.861 0.187164 -3.75934 0
M  V30 4706 C 450.008 -0.546166 -2.71868 0
M  V30 4707 H 452.959 -0.757022 -1.39481 0
M  V30 4708 H 452.98 0.590218 -3.75895 0
M  V30 4709 H 452.492 -1.23282 -3.67999 0
M  V30 4710 H 450.593 1.22762 -3.51796 0
M  V30 4711 H 450.706 -0.164083 -4.78819 0
M  V30 4712 H 449.07 0.00953904 -2.54698 0
M  V30 4713 H 449.853 -1.58606 -3.04465 0
M  V30 4714 N 452.299 1.55045 -0.282633 0
M  V30 4715 C 453.249 2.19514 0.616249 0
M  V30 4716 C 454.233 1.16216 1.11277 0
M  V30 4717 O 455.425 1.42004 1.05659 0
M  V30 4718 C 452.554 2.92548 1.7964 0
M  V30 4719 C 451.64 4.03142 1.31671 0
M  V30 4720 N 452.031 5.0276 0.553695 0
M  V30 4721 C 450.329 4.1635 1.59903 0
M  V30 4722 C 451.03 5.80923 0.30054 0
M  V30 4723 N 450.006 5.3651 0.875116 0
M  V30 4724 H 453.808 2.93889 0.0255363 0
M  V30 4725 H 451.322 1.62169 -0.0865362 0
M  V30 4726 H 453.319 3.37188 2.45173 0
M  V30 4727 H 451.979 2.19685 2.39099 0
M  V30 4728 H 452.99 5.17512 0.20032 0
M  V30 4729 H 449.667 3.54682 2.20243 0
M  V30 4730 H 451.057 6.7118 -0.311053 0
M  V30 4731 N 453.777 0.010035 1.57597 0
M  V30 4732 C 454.74 -0.963029 2.07986 0
M  V30 4733 C 455.74 -1.26619 0.991173 0
M  V30 4734 O 456.93 -1.2097 1.25347 0
M  V30 4735 C 454.062 -2.2851 2.52974 0
M  V30 4736 H 455.255 -0.526971 2.95234 0
M  V30 4737 H 452.808 -0.237639 1.54483 0
M  V30 4738 H 453.543 -2.76784 1.69 0
M  V30 4739 H 453.328 -2.07824 3.32493 0
M  V30 4740 H 454.818 -2.98294 2.9225 0
M  V30 4741 N 455.255 -1.55392 -0.262866 0
M  V30 4742 C 456.48 -1.80847 -1.01533 0
M  V30 4743 C 456.905 -0.584946 -1.78774 0
M  V30 4744 O 456.263 0.465701 -1.75217 0
M  V30 4745 C 456.311 -3.03866 -1.94159 0
M  V30 4746 O 455.415 -2.79662 -3.03089 0
M  V30 4747 H 454.756 -0.597441 -0.289759 0
M  V30 4748 H 457.286 -2.02553 -0.288698 0
M  V30 4749 H 457.296 -3.32872 -2.35924 0
M  V30 4750 H 455.971 -3.92564 -1.37354 0
M  V30 4751 H 454.548 -2.61781 -2.65566 0
M  V30 4752 N 456.733 0.527833 -1.48498 0
M  V30 4753 C 457.979 1.28295 -1.57836 0
M  V30 4754 C 458.334 1.9077 -0.249943 0
M  V30 4755 O 457.627 1.76421 0.747402 0
M  V30 4756 C 457.821 2.39275 -2.65485 0
M  V30 4757 C 457.65 1.87679 -4.08664 0
M  V30 4758 C 456.42 1.70187 -4.75778 0
M  V30 4759 C 458.618 1.40409 -4.94762 0
M  V30 4760 N 456.6 1.13238 -6.03366 0
M  V30 4761 C 457.971 0.954216 -6.12613 0
M  V30 4762 C 460.026 1.28732 -4.8097 0
M  V30 4763 C 458.729 0.39915 -7.18192 0
M  V30 4764 C 460.755 0.746244 -5.86673 0
M  V30 4765 C 460.117 0.306457 -7.03733 0
M  V30 4766 H 456.216 0.460408 -0.632099 0
M  V30 4767 H 458.8 0.594913 -1.85388 0
M  V30 4768 H 456.971 3.05572 -2.3975 0
M  V30 4769 H 458.703 3.06308 -2.64495 0
M  V30 4770 H 455.458 1.93772 -4.32145 0
M  V30 4771 H 455.882 0.867687 -6.71417 0
M  V30 4772 H 460.524 1.61338 -3.90807 0
M  V30 4773 H 458.242 0.0607678 -8.08077 0
M  V30 4774 H 461.828 0.659041 -5.78055 0
M  V30 4775 H 460.708 -0.105708 -7.84129 0
M  V30 4776 N 458.211 1.37122 0.776871 0
M  V30 4777 C 459.121 1.34651 1.9211 0
M  V30 4778 C 460.137 0.246824 1.7224 0
M  V30 4779 O 461.313 0.48134 1.95563 0
M  V30 4780 C 458.378 1.14748 3.2716 0
M  V30 4781 C 457.439 2.34308 3.5972 0
M  V30 4782 C 456.672 2.15345 4.88326 0
M  V30 4783 O 456.895 1.13507 5.58992 0
M  V30 4784 O 455.829 3.03414 5.1983 0
M  V30 4785 H 459.655 2.31013 1.97146 0
M  V30 4786 H 457.24 1.17799 0.918901 0
M  V30 4787 H 459.122 1.05616 4.0795 0
M  V30 4788 H 457.797 0.214562 3.22988 0
M  V30 4789 H 456.704 2.49011 2.79185 0
M  V30 4790 H 458.037 3.26149 3.68629 0
M  V30 4791 N 459.689 -1.00246 1.21608 0
M  V30 4792 C 460.917 -1.77631 1.06089 0
M  V30 4793 C 461.332 -1.84746 -0.38916 0
M  V30 4794 O 460.689 -1.31068 -1.26994 0
M  V30 4795 C 460.74 -3.21415 1.65453 0
M  V30 4796 O 460.461 -3.14703 3.04785 0
M  V30 4797 C 461.962 -4.15289 1.55079 0
M  V30 4798 H 459.182 -0.558162 0.37242 0
M  V30 4799 H 461.726 -1.26093 1.60999 0
M  V30 4800 H 459.881 -3.70053 1.14629 0
M  V30 4801 H 460.295 -4.05056 3.33212 0
M  V30 4802 H 461.769 -5.13965 2.01355 0
M  V30 4803 H 462.246 -4.36279 0.505665 0
M  V30 4804 H 462.852 -3.72543 2.05163 0
M  V30 4805 N 461.167 -1.02423 -1.1978 0
M  V30 4806 C 462.397 -0.736387 -1.93031 0
M  V30 4807 C 462.805 0.708023 -1.75453 0
M  V30 4808 O 462.148 1.4927 -1.07071 0
M  V30 4809 C 462.21 -1.00194 -3.45255 0
M  V30 4810 C 461.874 -2.43698 -3.86601 0
M  V30 4811 C 462.871 -3.41814 -3.91738 0
M  V30 4812 C 460.556 -2.77975 -4.18372 0
M  V30 4813 C 462.55 -4.72265 -4.28071 0
M  V30 4814 C 460.237 -4.08636 -4.54378 0
M  V30 4815 C 461.235 -5.05592 -4.59201 0
M  V30 4816 O 460.923 -6.33914 -4.94376 0
M  V30 4817 H 460.655 -0.269116 -0.620123 0
M  V30 4818 H 463.209 -1.37043 -1.52998 0
M  V30 4819 H 461.439 -0.310747 -3.85449 0
M  V30 4820 H 463.128 -0.704488 -3.9974 0
M  V30 4821 H 463.894 -3.16671 -3.67348 0
M  V30 4822 H 459.773 -2.0319 -4.13805 0
M  V30 4823 H 463.317 -5.4794 -4.3175 0
M  V30 4824 H 459.214 -4.33556 -4.78226 0
M  V30 4825 H 459.982 -6.38317 -5.12341 0
M  V30 4826 N 462.645 1.35699 -0.801477 0
M  V30 4827 C 464.056 1.81415 -0.441073 0
M  V30 4828 C 464.407 1.66595 1.03636 0
M  V30 4829 O 463.532 1.19369 1.80499 0
M  V30 4830 C 464.127 3.29369 -0.793819 0
M  V30 4831 C 462.686 3.73248 -0.486083 0
M  V30 4832 C 461.833 2.57775 -1.02213 0
M  V30 4833 H 464.784 1.23749 -0.993572 0
M  V30 4834 H 464.805 3.80395 -0.0894158 0
M  V30 4835 H 464.317 3.40123 -1.86917 0
M  V30 4836 H 462.418 3.68046 0.580735 0
M  V30 4837 H 462.531 4.68222 -1.01513 0
M  V30 4838 H 460.895 2.50788 -0.444712 0
M  V30 4839 H 461.678 2.71309 -2.10348 0
M  V30 4840 N 464.123 0.554532 1.47522 0
M  V30 4841 C 465.539 0.214107 1.58157 0
M  V30 4842 C 465.739 -1.28331 1.55349 0
M  V30 4843 O 464.795 -2.06329 1.45549 0
M  V30 4844 C 466.108 0.838391 2.88776 0
M  V30 4845 C 467.656 0.809374 3.02354 0
M  V30 4846 C 468.131 1.41268 4.35669 0
M  V30 4847 N 469.622 1.37574 4.42298 0
M  V30 4848 C 470.357 1.8122 5.4401 0
M  V30 4849 N 469.853 2.3271 6.52547 0
M  V30 4850 N 471.646 1.72307 5.35039 0
M  V30 4851 H 463.797 1.52744 1.4759 0
M  V30 4852 H 466.06 0.636812 0.702264 0
M  V30 4853 H 465.766 1.89065 2.96559 0
M  V30 4854 H 465.64 0.329847 3.75755 0
M  V30 4855 H 468.027 -0.234187 2.94169 0
M  V30 4856 H 468.108 1.35565 2.16924 0
M  V30 4857 H 467.752 2.45529 4.4461 0
M  V30 4858 H 467.682 0.841871 5.19827 0
M  V30 4859 H 470.173 0.999081 3.64454 0
M  V30 4860 H 470.486 2.63944 7.26329 0
M  V30 4861 H 468.831 2.36719 6.53444 0
M  V30 4862 H 472.022 1.3186 4.49144 0
M  V30 4863 H 472.195 2.06641 6.14169 0
M  V30 4864 N 465.601 -1.54893 0.290851 0
M  V30 4865 C 467.012 -1.85584 -0.203816 0
M  V30 4866 C 467.363 -1.21285 -1.54222 0
M  V30 4867 O 466.488 -0.506841 -2.10381 0
M  V30 4868 C 467.083 -3.367 -0.376595 0
M  V30 4869 C 465.642 -3.6746 -0.815485 0
M  V30 4870 C 464.789 -2.77178 0.0821087 0
M  V30 4871 H 467.74 -1.50208 0.512175 0
M  V30 4872 H 467.761 -3.60656 -1.21275 0
M  V30 4873 H 467.273 -3.8347 0.59767 0
M  V30 4874 H 465.374 -3.26201 -1.80066 0
M  V30 4875 H 465.487 -4.7478 -0.641905 0
M  V30 4876 H 463.851 -2.50925 -0.436895 0
M  V30 4877 H 464.634 -3.26767 1.05254 0
M  V30 4878 N 467.08 -0.0183926 -1.57589 0
M  V30 4879 C 468.308 0.673046 -1.95647 0
M  V30 4880 C 468.723 1.66275 -0.894312 0
M  V30 4881 O 468.08 1.82072 0.124975 0
M  V30 4882 C 468.131 1.38884 -3.33756 0
M  V30 4883 O 467.852 0.438806 -4.35897 0
M  V30 4884 C 469.353 2.1731 -3.86383 0
M  V30 4885 H 466.573 0.186292 -0.644621 0
M  V30 4886 H 469.117 -0.0749748 -2.04363 0
M  V30 4887 H 467.272 2.08835 -3.26293 0
M  V30 4888 H 467.686 0.945869 -5.15901 0
M  V30 4889 H 469.16 2.62863 -4.85394 0
M  V30 4890 H 469.637 3.00764 -3.20059 0
M  V30 4891 H 470.243 1.52339 -3.97081 0
M  V30 4892 N 468.558 1.5553 0.254621 0
M  V30 4893 C 469.505 1.89666 1.31512 0
M  V30 4894 C 470.475 0.750057 1.482 0
M  V30 4895 O 471.66 1.00301 1.62309 0
M  V30 4896 C 468.8 2.19009 2.667 0
M  V30 4897 C 467.913 3.46435 2.58083 0
M  V30 4898 C 467.048 3.65386 3.85573 0
M  V30 4899 C 466.087 4.8644 3.71541 0
M  V30 4900 N 465.224 5.01952 4.90906 0
M  V30 4901 H 470.064 2.80109 1.017 0
M  V30 4902 H 467.601 1.38666 0.490938 0
M  V30 4903 H 469.559 2.34025 3.45381 0
M  V30 4904 H 468.189 1.31779 2.94676 0
M  V30 4905 H 467.241 3.39792 1.71013 0
M  V30 4906 H 468.553 4.35258 2.43622 0
M  V30 4907 H 467.707 3.80319 4.72697 0
M  V30 4908 H 466.446 2.74781 4.02922 0
M  V30 4909 H 465.451 4.71491 2.82801 0
M  V30 4910 H 466.676 5.78497 3.55694 0
M  V30 4911 H 464.622 4.14283 5.08631 0
M  V30 4912 H 464.539 5.84851 4.79046 0
M  V30 4913 H 465.807 5.21289 5.7955 0
M  V30 4914 N 470.036 -0.519951 1.48776 0
M  V30 4915 C 470.946 -1.65025 1.66745 0
M  V30 4916 C 471.962 -1.6508 0.549954 0
M  V30 4917 O 473.138 -1.83848 0.822295 0
M  V30 4918 C 470.203 -3.0146 1.71238 0
M  V30 4919 C 469.264 -3.12182 2.94688 0
M  V30 4920 C 468.497 -4.42109 2.98958 0
M  V30 4921 O 468.72 -5.29799 2.1135 0
M  V30 4922 O 467.654 -4.57406 3.91233 0
M  V30 4923 H 471.48 -1.52801 2.62461 0
M  V30 4924 H 469.065 -0.694157 1.32294 0
M  V30 4925 H 470.947 -3.82584 1.76657 0
M  V30 4926 H 469.622 -3.13988 0.786975 0
M  V30 4927 H 468.529 -2.30316 2.94797 0
M  V30 4928 H 469.862 -3.04574 3.86646 0
M  V30 4929 N 471.514 -1.37532 -0.769588 0
M  V30 4930 C 472.791 -1.23392 -1.51768 0
M  V30 4931 C 473.171 0.17157 -2.10402 0
M  V30 4932 O 472.519 1.17943 -1.95708 0
M  V30 4933 C 472.729 -2.33163 -2.59685 0
M  V30 4934 C 474.077 -2.70809 -3.27028 0
M  V30 4935 O 475.101 -2.32355 -2.69981 0
M  V30 4936 O 473.96 -3.37066 -4.30173 0
M  V30 4937 H 471.054 -0.481617 -0.67229 0
M  V30 4938 H 473.6 -1.49318 -0.806368 0
M  V30 4939 H 472.372 -3.27273 -2.14494 0
M  V30 4940 H 471.995 -2.08713 -3.38415 0
M  V30 4941 N 472.992 0.995999 -1.22138 0
M  V30 4942 C 474.238 1.73767 -1.04561 0
M  V30 4943 C 474.571 1.89633 0.418698 0
M  V30 4944 O 473.846 1.43723 1.3105 0
M  V30 4945 C 474.129 3.14505 -1.75382 0
M  V30 4946 C 473.982 3.06306 -3.29388 0
M  V30 4947 C 475.301 4.13615 -1.50369 0
M  V30 4948 H 472.42 0.630728 -0.38125 0
M  V30 4949 H 475.062 1.16057 -1.50435 0
M  V30 4950 H 473.212 3.63775 -1.36383 0
M  V30 4951 H 474.884 2.64681 -3.77812 0
M  V30 4952 H 473.127 2.43186 -3.59226 0
M  V30 4953 H 473.798 4.05884 -3.74116 0
M  V30 4954 H 476.274 3.73089 -1.84239 0
M  V30 4955 H 475.15 5.10212 -2.02421 0
M  V30 4956 H 475.411 4.39949 -0.435611 0
M  V30 4957 N 474.47 1.03057 1.19235 0
M  V30 4958 C 475.7 0.746613 1.92638 0
M  V30 4959 C 476.108 -0.698708 1.75826 0
M  V30 4960 O 475.451 -1.487 1.07861 0
M  V30 4961 C 475.513 1.02024 3.44719 0
M  V30 4962 C 475.177 2.45745 3.85303 0
M  V30 4963 C 476.174 3.43887 3.8992 0
M  V30 4964 C 473.859 2.8019 4.16892 0
M  V30 4965 C 475.853 4.74529 4.2556 0
M  V30 4966 C 473.54 4.1104 4.52205 0
M  V30 4967 C 474.538 5.0802 4.56513 0
M  V30 4968 O 474.226 6.36527 4.91008 0
M  V30 4969 H 473.958 0.272401 0.618687 0
M  V30 4970 H 476.512 1.37853 1.52269 0
M  V30 4971 H 474.742 0.331184 3.85279 0
M  V30 4972 H 476.431 0.725677 3.9936 0
M  V30 4973 H 477.197 3.18614 3.65664 0
M  V30 4974 H 473.076 2.05382 4.12722 0
M  V30 4975 H 476.62 5.50222 4.28838 0
M  V30 4976 H 472.517 4.36086 4.7592 0
M  V30 4977 H 473.285 6.41025 5.08949 0
M  V30 4978 N 475.948 -1.35272 0.808662 0
M  V30 4979 C 477.194 -1.99003 0.390581 0
M  V30 4980 C 477.527 -1.63999 -1.0401 0
M  V30 4981 O 476.802 -0.904368 -1.72196 0
M  V30 4982 C 477.085 -3.55454 0.576566 0
M  V30 4983 C 476.938 -4.00249 2.05233 0
M  V30 4984 C 478.257 -4.401 0.00354277 0
M  V30 4985 H 475.376 -0.722917 0.143388 0
M  V30 4986 H 478.018 -1.6039 1.01858 0
M  V30 4987 H 476.168 -3.88477 0.0419766 0
M  V30 4988 H 477.84 -3.77626 2.64946 0
M  V30 4989 H 476.083 -3.51082 2.54801 0
M  V30 4990 H 476.754 -5.0911 2.13333 0
M  V30 4991 H 479.23 -4.13548 0.460117 0
M  V30 4992 H 478.106 -5.48656 0.163575 0
M  V30 4993 H 478.367 -4.28444 -1.09032 0
M  V30 4994 N 477.426 -0.562348 -1.47226 0
M  V30 4995 C 478.672 -0.0402761 -2.0276 0
M  V30 4996 C 479.005 1.30823 -1.43523 0
M  V30 4997 O 478.28 1.85249 -0.592705 0
M  V30 4998 C 478.563 0.047311 -3.60069 0
M  V30 4999 C 478.416 -1.32865 -4.29729 0
M  V30 5000 C 479.735 0.758182 -4.3352 0
M  V30 5001 H 476.854 -0.0161105 -0.736824 0
M  V30 5002 H 479.496 -0.725628 -1.75598 0
M  V30 5003 H 477.646 0.630986 -3.83342 0
M  V30 5004 H 479.318 -1.95593 -4.17781 0
M  V30 5005 H 477.561 -1.90195 -3.89882 0
M  V30 5006 H 478.232 -1.22004 -5.38349 0
M  V30 5007 H 480.708 0.262546 -4.15271 0
M  V30 5008 H 479.584 0.78844 -5.43208 0
M  V30 5009 H 479.845 1.81537 -4.03109 0
M  V30 5010 N 478.904 1.54736 -0.299062 0
M  V30 5011 C 480.152 1.99706 0.31017 0
M  V30 5012 C 480.473 1.18896 1.54559 0
M  V30 5013 O 479.743 0.284445 1.93824 0
M  V30 5014 H 478.323 0.737686 0.117596 0
M  V30 5015 H 480.985 1.9054 -0.409943 0
M  V30 5016 H 480.081 3.06596 0.58355 0
M  V30 5017 N 480.382 0.0267497 1.57577 0
M  V30 5018 C 481.61 -0.662661 1.96001 0
M  V30 5019 C 482.025 -1.65799 0.903117 0
M  V30 5020 O 481.382 -1.82135 -0.115317 0
M  V30 5021 C 481.433 -1.37112 3.34488 0
M  V30 5022 O 481.154 -0.415683 4.36123 0
M  V30 5023 C 482.655 -2.15257 3.8753 0
M  V30 5024 H 479.875 -0.18287 0.6456 0
M  V30 5025 H 482.419 0.0858116 2.0432 0
M  V30 5026 H 480.574 -2.07101 3.27395 0
M  V30 5027 H 480.988 -0.918496 5.16395 0
M  V30 5028 H 482.462 -2.60285 4.86781 0
M  V30 5029 H 482.939 -2.99063 3.21649 0
M  V30 5030 H 483.545 -1.50231 3.97883 0
M  V30 5031 N 481.861 -1.55662 -0.24637 0
M  V30 5032 C 483.107 -1.77782 -0.975779 0
M  V30 5033 C 483.44 -0.592103 -1.84953 0
M  V30 5034 O 482.715 0.409588 -1.90138 0
M  V30 5035 C 482.998 -3.09788 -1.83584 0
M  V30 5036 C 482.851 -4.38764 -0.990241 0
M  V30 5037 C 484.17 -3.38029 -2.81823 0
M  V30 5038 H 481.289 -0.646789 -0.353317 0
M  V30 5039 H 483.931 -1.88398 -0.246248 0
M  V30 5040 H 482.081 -3.00869 -2.45784 0
M  V30 5041 H 483.753 -4.59675 -0.386897 0
M  V30 5042 H 481.996 -4.32798 -0.294626 0
M  V30 5043 H 482.667 -5.27514 -1.62584 0
M  V30 5044 H 485.143 -3.46915 -2.2976 0
M  V30 5045 H 484.019 -4.3161 -3.39122 0
M  V30 5046 H 484.28 -2.58968 -3.58313 0
M  V30 5047 N 483.339 0.512053 -1.4905 0
M  V30 5048 C 484.269 1.62365 -1.67809 0
M  V30 5049 C 485.25 1.61737 -0.526809 0
M  V30 5050 O 486.435 1.78651 -0.761404 0
M  V30 5051 C 483.565 3.00895 -1.73435 0
M  V30 5052 C 482.519 3.16387 -2.88242 0
M  V30 5053 C 481.845 4.56157 -2.78971 0
M  V30 5054 C 483.145 2.97457 -4.29321 0
M  V30 5055 H 484.839 1.46921 -2.60873 0
M  V30 5056 H 482.385 0.705379 -1.2554 0
M  V30 5057 H 484.338 3.78549 -1.85145 0
M  V30 5058 H 483.062 3.17403 -0.769619 0
M  V30 5059 H 481.721 2.41155 -2.76116 0
M  V30 5060 H 481.369 4.69525 -1.8043 0
M  V30 5061 H 481.069 4.67465 -3.5602 0
M  V30 5062 H 482.593 5.35886 -2.92675 0
M  V30 5063 H 484.007 3.64888 -4.42187 0
M  V30 5064 H 482.404 3.20245 -5.07507 0
M  V30 5065 H 483.474 1.93692 -4.44535 0
M  V30 5066 N 484.817 1.37938 0.762283 0
M  V30 5067 C 486.233 1.18945 1.06415 0
M  V30 5068 C 486.433 0.0321163 2.01474 0
M  V30 5069 O 485.489 -0.624844 2.44647 0
M  V30 5070 C 486.802 2.51218 1.65258 0
M  V30 5071 C 488.35 2.57824 1.7747 0
M  V30 5072 C 488.825 3.90251 2.39725 0
M  V30 5073 N 490.316 3.91744 2.47166 0
M  V30 5074 C 491.051 4.90966 2.96209 0
M  V30 5075 N 490.547 6.00585 3.45354 0
M  V30 5076 N 492.34 4.78363 2.9517 0
M  V30 5077 H 484.491 2.11994 0.131301 0
M  V30 5078 H 486.754 0.940262 0.120879 0
M  V30 5079 H 486.46 3.36317 1.02878 0
M  V30 5080 H 486.334 2.68989 2.64433 0
M  V30 5081 H 488.721 1.73126 2.3898 0
M  V30 5082 H 488.802 2.43928 0.770241 0
M  V30 5083 H 488.446 4.75368 1.78852 0
M  V30 5084 H 488.376 4.01454 3.40796 0
M  V30 5085 H 490.867 3.12563 2.12397 0
M  V30 5086 H 491.18 6.72236 3.81207 0
M  V30 5087 H 489.525 6.04217 3.43434 0
M  V30 5088 H 492.716 3.91841 2.56082 0
M  V30 5089 H 492.889 5.55843 3.33081 0
M  V30 5090 N 486.295 -0.989507 1.22664 0
M  V30 5091 C 487.525 -1.7624 1.0781 0
M  V30 5092 C 487.933 -1.85466 -0.374036 0
M  V30 5093 O 487.276 -1.32645 -1.27087 0
M  V30 5094 C 487.338 -3.21007 1.61849 0
M  V30 5095 C 487.002 -3.35316 3.10503 0
M  V30 5096 C 487.999 -3.22362 4.07896 0
M  V30 5097 C 485.684 -3.60258 3.50028 0
M  V30 5098 C 487.678 -3.34139 5.42798 0
M  V30 5099 C 485.365 -3.71676 4.85078 0
M  V30 5100 C 486.363 -3.58625 5.81272 0
M  V30 5101 O 486.051 -3.69655 7.1387 0
M  V30 5102 H 485.783 -0.560209 0.378341 0
M  V30 5103 H 488.337 -1.25252 1.62792 0
M  V30 5104 H 486.567 -3.73202 1.01279 0
M  V30 5105 H 488.256 -3.80024 1.42606 0
M  V30 5106 H 489.022 -3.03 3.78703 0
M  V30 5107 H 484.901 -3.69492 2.75675 0
M  V30 5108 H 488.445 -3.23869 6.17863 0
M  V30 5109 H 484.342 -3.90545 5.1395 0
M  V30 5110 H 485.11 -3.86507 7.21495 0
M  V30 5111 N 487.773 -1.03688 -1.18687 0
M  V30 5112 C 489.189 -0.755413 -1.4059 0
M  V30 5113 C 489.389 0.656659 -1.905 0
M  V30 5114 O 488.445 1.42144 -2.08689 0
M  V30 5115 C 489.758 -1.7983 -2.41001 0
M  V30 5116 C 491.306 -1.81877 -2.54735 0
M  V30 5117 C 491.781 -2.85148 -3.58406 0
M  V30 5118 N 493.272 -2.84015 -3.6591 0
M  V30 5119 C 494.007 -3.60573 -4.45841 0
M  V30 5120 N 493.503 -4.46871 -5.29413 0
M  V30 5121 N 495.296 -3.49079 -4.40568 0
M  V30 5122 H 487.447 -1.94818 -0.846148 0
M  V30 5123 H 489.71 -0.842727 -0.434184 0
M  V30 5124 H 489.416 -2.81097 -2.1137 0
M  V30 5125 H 489.29 -1.62727 -3.40294 0
M  V30 5126 H 491.677 -0.812836 -2.83685 0
M  V30 5127 H 491.758 -2.03057 -1.55568 0
M  V30 5128 H 491.402 -3.85918 -3.30197 0
M  V30 5129 H 491.332 -2.61224 -4.57241 0
M  V30 5130 H 493.823 -2.21431 -3.0623 0
M  V30 5131 H 494.136 -5.02007 -5.87545 0
M  V30 5132 H 492.481 -4.5094 -5.28846 0
M  V30 5133 H 495.672 -2.81066 -3.74325 0
M  V30 5134 H 495.845 -4.08994 -5.02621 0
M  V30 5135 N 489.251 1.34841 -0.815825 0
M  V30 5136 C 490.491 2.00321 -0.406297 0
M  V30 5137 C 490.855 1.63293 1.00992 0
M  V30 5138 O 492.056 2.21563 1.52195 0
M  V30 5139 C 490.327 3.52421 -0.594469 0
M  V30 5140 S 491.886 4.37926 -0.276735 0
M  V30 5141 H 488.704 0.694155 -0.153848 0
M  V30 5142 H 491.306 1.64263 -1.06009 0
M  V30 5143 H 490.01 3.76858 -1.625 0
M  V30 5144 H 489.541 3.9333 0.0743157 0
M  V30 5145 H 491.556 4.87743 0.912215 0
M  V30 5146 N 490.729 0.570148 1.46925 0
M  V30 5147 C 491.679 -0.190921 2.27199 0
M  V30 5148 C 492.663 -0.873457 1.35128 0
M  V30 5149 O 493.855 -0.769627 1.59392 0
M  V30 5150 C 490.984 -1.21204 3.21192 0
M  V30 5151 C 490.07 -0.532261 4.20747 0
M  V30 5152 N 490.461 0.405038 5.04176 0
M  V30 5153 C 488.759 -0.784582 4.39045 0
M  V30 5154 C 489.46 0.801149 5.76157 0
M  V30 5155 N 488.436 0.153082 5.43384 0
M  V30 5156 H 492.238 0.529535 2.8909 0
M  V30 5157 H 489.752 0.391019 1.57622 0
M  V30 5158 H 491.749 -1.77135 3.77398 0
M  V30 5159 H 490.409 -1.93345 2.6086 0
M  V30 5160 H 491.42 0.779903 5.11994 0
M  V30 5161 H 488.097 -1.49352 3.89872 0
M  V30 5162 H 489.487 1.57208 6.5325 0
M  V30 5163 N 492.207 -1.54576 0.307264 0
M  V30 5164 C 493.618 -1.8579 -0.184121 0
M  V30 5165 C 493.969 -1.22914 -1.52927 0
M  V30 5166 O 493.094 -0.529126 -2.09831 0
M  V30 5167 C 493.689 -3.37081 -0.340862 0
M  V30 5168 C 492.248 -3.68304 -0.776465 0
M  V30 5169 C 491.395 -2.77076 0.111503 0
M  V30 5170 H 494.346 -1.49656 0.528078 0
M  V30 5171 H 494.367 -3.61922 -1.17443 0
M  V30 5172 H 493.879 -3.82815 0.638309 0
M  V30 5173 H 491.98 -3.28092 -1.76596 0
M  V30 5174 H 492.093 -4.75434 -0.591512 0
M  V30 5175 H 490.457 -2.51374 -0.410256 0
M  V30 5176 H 491.24 -3.25632 1.08714 0
M  V30 5177 N 493.685 -0.035106 -1.57561 0
M  V30 5178 C 494.933 0.64096 -1.91667 0
M  V30 5179 C 495.254 1.72323 -0.912681 0
M  V30 5180 O 494.524 1.95849 0.0449089 0
M  V30 5181 H 493.104 0.239743 -0.707483 0
M  V30 5182 H 495.766 -0.084321 -1.94718 0
M  V30 5183 H 494.862 1.08987 -2.92452 0
M  V30 5184 N 495.163 1.55791 0.238111 0
M  V30 5185 C 496.393 1.81834 0.980809 0
M  V30 5186 C 496.801 0.609741 1.79106 0
M  V30 5187 O 496.144 -0.431073 1.78571 0
M  V30 5188 C 496.206 3.01363 1.96011 0
M  V30 5189 C 495.87 4.37037 1.33597 0
M  V30 5190 C 496.867 5.14692 0.734063 0
M  V30 5191 C 494.552 4.83743 1.3527 0
M  V30 5192 C 496.546 6.37206 0.157208 0
M  V30 5193 C 494.233 6.06204 0.77199 0
M  V30 5194 C 495.231 6.82775 0.175282 0
M  V30 5195 O 494.919 8.02922 -0.396432 0
M  V30 5196 H 494.651 0.6088 0.293834 0
M  V30 5197 H 497.205 2.03702 0.263552 0
M  V30 5198 H 495.435 2.75273 2.71591 0
M  V30 5199 H 497.124 3.14422 2.56697 0
M  V30 5200 H 497.89 4.79722 0.713582 0
M  V30 5201 H 493.769 4.24129 1.80653 0
M  V30 5202 H 497.313 6.96915 -0.30917 0
M  V30 5203 H 493.21 6.4065 0.789828 0
M  V30 5204 H 493.978 8.17989 -0.289145 0
M  V30 5205 N 496.642 -0.504142 1.49319 0
M  V30 5206 C 497.589 -1.60603 1.65756 0
M  V30 5207 C 498.559 -1.58425 0.499082 0
M  V30 5208 O 499.744 -1.76459 0.725728 0
M  V30 5209 C 496.884 -2.98764 1.72726 0
M  V30 5210 C 495.997 -3.10982 2.99857 0
M  V30 5211 C 495.132 -4.39857 2.97824 0
M  V30 5212 C 494.171 -4.45697 4.19548 0
M  V30 5213 N 493.308 -5.65995 4.15444 0
M  V30 5214 H 498.148 -1.45895 2.59843 0
M  V30 5215 H 495.685 -0.709891 1.28837 0
M  V30 5216 H 497.643 -3.78839 1.74747 0
M  V30 5217 H 496.273 -3.12183 0.821075 0
M  V30 5218 H 495.325 -2.23991 3.07461 0
M  V30 5219 H 496.637 -3.11157 3.89849 0
M  V30 5220 H 495.791 -5.2825 2.98391 0
M  V30 5221 H 494.53 -4.42242 2.05604 0
M  V30 5222 H 493.535 -3.55707 4.19229 0
M  V30 5223 H 494.76 -4.4503 5.12957 0
M  V30 5224 H 492.706 -5.69229 3.26059 0
M  V30 5225 H 492.623 -5.67773 4.99169 0
M  V30 5226 H 493.891 -6.56604 4.20109 0
M  V30 5227 N 498.12 -1.38341 -0.754957 0
M  V30 5228 C 499.531 -1.30803 -1.3322 0
M  V30 5229 C 499.882 0.0368 -1.96165 0
M  V30 5230 O 499.007 0.938844 -1.94974 0
M  V30 5231 C 499.602 -2.3688 -2.42225 0
M  V30 5232 C 498.161 -2.32925 -2.95674 0
M  V30 5233 C 497.308 -2.19819 -1.69042 0
M  V30 5234 H 500.259 -1.48719 -0.553937 0
M  V30 5235 H 500.28 -2.02517 -3.22129 0
M  V30 5236 H 499.792 -3.34747 -1.96383 0
M  V30 5237 H 497.893 -1.38635 -3.45848 0
M  V30 5238 H 498.006 -3.27008 -3.50146 0
M  V30 5239 H 496.37 -1.66648 -1.92615 0
M  V30 5240 H 497.153 -3.19625 -1.25279 0
M  V30 5241 N 499.598 0.982988 -1.23187 0
M  V30 5242 C 500.826 1.75921 -1.08901 0
M  V30 5243 C 501.241 1.85341 0.359719 0
M  V30 5244 O 500.598 1.33072 1.24892 0
M  V30 5245 C 500.649 3.18742 -1.70545 0
M  V30 5246 O 500.37 3.09814 -3.09753 0
M  V30 5247 C 501.871 4.1277 -1.61667 0
M  V30 5248 H 499.091 0.552166 -0.381252 0
M  V30 5249 H 501.635 1.23516 -1.62985 0
M  V30 5250 H 499.79 3.68182 -1.20501 0
M  V30 5251 H 500.204 3.99703 -3.39614 0
M  V30 5252 H 501.678 5.10697 -2.09506 0
M  V30 5253 H 502.155 4.3542 -0.575009 0
M  V30 5254 H 502.761 3.69232 -2.11064 0
M  V30 5255 N 501.076 1.04316 1.18135 0
M  V30 5256 C 502.304 0.768117 1.92113 0
M  V30 5257 C 502.719 -0.675057 1.76319 0
M  V30 5258 O 502.076 -1.46038 1.09449 0
M  V30 5259 C 502.127 1.12808 3.43448 0
M  V30 5260 O 501.848 2.5146 3.58747 0
M  V30 5261 C 503.349 0.8779 4.3452 0
M  V30 5262 H 500.569 0.279937 0.609817 0
M  V30 5263 H 503.113 1.39149 1.49859 0
M  V30 5264 H 501.268 0.549623 3.83481 0
M  V30 5265 H 501.682 2.65313 4.52448 0
M  V30 5266 H 503.156 1.17959 5.39249 0
M  V30 5267 H 503.633 -0.187239 4.38801 0
M  V30 5268 H 504.239 1.43977 4.00188 0
M  V30 5269 N 502.554 -1.34406 0.822964 0
M  V30 5270 C 503.831 -1.92733 0.333641 0
M  V30 5271 C 504.211 -1.75107 -1.17901 0
M  V30 5272 O 503.559 -1.12983 -1.98613 0
M  V30 5273 C 503.769 -3.40557 0.763023 0
M  V30 5274 C 505.117 -4.17709 0.761879 0
M  V30 5275 O 506.141 -3.49141 0.705606 0
M  V30 5276 O 505 -5.40082 0.835109 0
M  V30 5277 H 502.094 -0.821964 0.0911249 0
M  V30 5278 H 504.64 -1.4338 0.907757 0
M  V30 5279 H 503.412 -3.47187 1.8049 0
M  V30 5280 H 503.035 -3.97259 0.164605 0
M  V30 5281 N 504.032 -0.577932 -1.46621 0
M  V30 5282 C 504.942 0.160651 -2.34049 0
M  V30 5283 C 505.958 0.890911 -1.49462 0
M  V30 5284 O 507.134 0.855166 -1.82343 0
M  V30 5285 C 504.199 1.16447 -3.26559 0
M  V30 5286 C 503.26 0.4394 -4.27045 0
M  V30 5287 C 502.493 1.3954 -5.15135 0
M  V30 5288 O 502.716 2.63162 -5.06065 0
M  V30 5289 O 501.65 0.908585 -5.95003 0
M  V30 5290 H 505.476 -0.557057 -2.98547 0
M  V30 5291 H 503.061 -0.338369 -1.45518 0
M  V30 5292 H 504.943 1.7434 -3.83645 0
M  V30 5293 H 503.618 1.86373 -2.64663 0
M  V30 5294 H 502.525 -0.181247 -3.73661 0
M  V30 5295 H 503.858 -0.218799 -4.91713 0
M  V30 5296 N 505.51 1.54411 -0.315457 0
M  V30 5297 C 506.921 1.85885 0.174265 0
M  V30 5298 C 507.272 1.23723 1.52273 0
M  V30 5299 O 506.397 0.540246 2.09548 0
M  V30 5300 C 506.992 3.37257 0.322981 0
M  V30 5301 C 505.551 3.68711 0.756922 0
M  V30 5302 C 504.698 2.77013 -0.126195 0
M  V30 5303 H 507.649 1.49374 -0.536007 0
M  V30 5304 H 507.67 3.62539 1.15522 0
M  V30 5305 H 507.182 3.82471 -0.658602 0
M  V30 5306 H 505.283 3.29024 1.74854 0
M  V30 5307 H 505.396 4.75741 0.566291 0
M  V30 5308 H 503.76 2.51588 0.39692 0
M  V30 5309 H 504.543 3.25051 -1.1044 0
M  V30 5310 N 506.988 0.0434614 1.5754 0
M  V30 5311 C 508.216 -0.641835 1.96693 0
M  V30 5312 C 508.631 -1.64832 0.920652 0
M  V30 5313 O 507.988 -1.82247 -0.095993 0
M  V30 5314 C 508.039 -1.33557 3.35924 0
M  V30 5315 O 507.76 -0.369403 4.3654 0
M  V30 5316 C 509.261 -2.11135 3.89791 0
M  V30 5317 H 506.481 -0.176013 0.647503 0
M  V30 5318 H 509.025 0.107478 2.04217 0
M  V30 5319 H 507.18 -2.03617 3.29574 0
M  V30 5320 H 507.594 -0.863674 5.1734 0
M  V30 5321 H 509.068 -2.55107 4.89514 0
M  V30 5322 H 509.545 -2.95634 3.24803 0
M  V30 5323 H 510.151 -1.46002 3.99454 0
M  V30 5324 N 508.466 -1.55915 -0.229846 0
M  V30 5325 C 509.694 -1.82617 -0.972562 0
M  V30 5326 C 510.109 -0.621488 -1.78278 0
M  V30 5327 O 509.466 0.409956 -1.77836 0
M  V30 5328 C 509.517 -3.0774 -1.89679 0
M  V30 5329 O 509.238 -4.23559 -1.11934 0
M  V30 5330 C 510.739 -3.47368 -2.75409 0
M  V30 5331 H 507.959 -0.60727 -0.285419 0
M  V30 5332 H 510.503 -2.02996 -0.247579 0
M  V30 5333 H 508.658 -2.89361 -2.57583 0
M  V30 5334 H 509.072 -4.94586 -1.74599 0
M  V30 5335 H 510.546 -4.37977 -3.35977 0
M  V30 5336 H 511.023 -2.68737 -3.47386 0
M  V30 5337 H 511.629 -3.68158 -2.12931 0
M  V30 5338 N 509.944 0.496216 -1.49584 0
M  V30 5339 C 511.19 1.25189 -1.59548 0
M  V30 5340 C 511.523 1.9212 -0.283466 0
M  V30 5341 O 510.798 1.80947 0.713324 0
M  V30 5342 C 511.081 2.31516 -2.75812 0
M  V30 5343 C 510.934 1.69054 -4.16822 0
M  V30 5344 C 512.253 3.3304 -2.87702 0
M  V30 5345 H 509.372 0.45379 -0.580727 0
M  V30 5346 H 512.014 0.549327 -1.81886 0
M  V30 5347 H 510.164 2.91438 -2.56897 0
M  V30 5348 H 511.836 1.12923 -4.47265 0
M  V30 5349 H 510.079 0.994485 -4.22247 0
M  V30 5350 H 510.75 2.462 -4.94054 0
M  V30 5351 H 513.226 2.83114 -3.04936 0
M  V30 5352 H 512.102 4.04794 -3.7072 0
M  V30 5353 H 512.363 3.95655 -1.97255 0
M  V30 5354 N 511.423 1.38739 0.74761 0
M  V30 5355 C 512.672 1.3459 1.50228 0
M  V30 5356 C 512.985 -0.0595592 1.95509 0
M  V30 5357 O 514.191 -0.22361 2.70578 0
M  V30 5358 C 512.647 2.36377 2.71393 0
M  V30 5359 C 512.255 3.82573 2.33113 0
M  V30 5360 C 513.999 2.41281 3.49262 0
M  V30 5361 C 511.906 4.76032 3.50924 0
M  V30 5362 H 510.836 0.500312 0.564096 0
M  V30 5363 H 513.487 1.64324 0.8167 0
M  V30 5364 H 511.869 1.99694 3.41962 0
M  V30 5365 H 513.043 4.28227 1.70171 0
M  V30 5366 H 511.358 3.80844 1.68365 0
M  V30 5367 H 513.955 3.08301 4.36869 0
M  V30 5368 H 514.298 1.43353 3.9084 0
M  V30 5369 H 514.831 2.76793 2.85711 0
M  V30 5370 H 511.57 5.75177 3.14408 0
M  V30 5371 H 511.09 4.35066 4.12889 0
M  V30 5372 H 512.769 4.94331 4.17427 0
M  V30 5373 N 512.901 -0.976442 1.23707 0
M  V30 5374 C 514.141 -1.73331 1.08332 0
M  V30 5375 C 514.505 -1.88346 -0.372781 0
M  V30 5376 O 515.706 -2.60877 -0.647813 0
M  V30 5377 C 513.977 -3.09159 1.7932 0
M  V30 5378 S 515.536 -4.00376 1.79567 0
M  V30 5379 H 512.354 -0.596045 0.387622 0
M  V30 5380 H 514.956 -1.16625 1.56904 0
M  V30 5381 H 513.66 -2.95884 2.84395 0
M  V30 5382 H 513.191 -3.70932 1.31046 0
M  V30 5383 H 515.206 -4.88742 0.857094 0
M  V30 5384 N 514.379 -1.04941 -1.1758 0
M  V30 5385 C 515.311 -0.606174 -2.21039 0
M  V30 5386 C 516.324 0.328763 -1.59446 0
M  V30 5387 O 517.513 0.121895 -1.78083 0
M  V30 5388 C 514.613 0.133294 -3.38638 0
M  V30 5389 C 513.786 -0.811711 -4.29802 0
M  V30 5390 C 512.845 -0.113958 -5.26077 0
M  V30 5391 O 511.871 -0.747237 -5.64274 0
M  V30 5392 N 513.073 1.14953 -5.69004 0
M  V30 5393 H 515.838 -1.49606 -2.59689 0
M  V30 5394 H 513.399 -0.930997 -1.32454 0
M  V30 5395 H 515.391 0.610144 -4.00074 0
M  V30 5396 H 513.961 0.924816 -2.98607 0
M  V30 5397 H 513.181 -1.46824 -3.65837 0
M  V30 5398 H 514.469 -1.45326 -4.87604 0
M  V30 5399 H 513.867 1.68441 -5.40041 0
M  V30 5400 H 512.424 1.57049 -6.32597 0
M  V30 5401 N 515.857 1.33968 -0.830081 0
M  V30 5402 C 516.804 2.29387 -0.255008 0
M  V30 5403 C 517.774 1.53923 0.624243 0
M  V30 5404 O 518.959 1.82262 0.564372 0
M  V30 5405 C 516.099 3.4034 0.571209 0
M  V30 5406 C 515.212 4.30729 -0.331083 0
M  V30 5407 C 514.347 5.2879 0.505389 0
M  V30 5408 C 513.386 6.10819 -0.395843 0
M  V30 5409 N 512.523 7.00948 0.401979 0
M  V30 5410 H 517.363 2.77972 -1.07404 0
M  V30 5411 H 514.9 1.36785 -0.541133 0
M  V30 5412 H 516.858 4.03361 1.06562 0
M  V30 5413 H 515.488 2.9297 1.35529 0
M  V30 5414 H 514.54 3.68507 -0.943759 0
M  V30 5415 H 515.852 4.88181 -1.02377 0
M  V30 5416 H 515.006 5.97297 1.06399 0
M  V30 5417 H 513.745 4.71894 1.23155 0
M  V30 5418 H 512.75 5.41238 -0.966529 0
M  V30 5419 H 513.975 6.69797 -1.12023 0
M  V30 5420 H 511.921 6.46512 1.11168 0
M  V30 5421 H 511.838 7.55643 -0.232167 0
M  V30 5422 H 513.106 7.73774 0.943102 0
M  V30 5423 N 517.335 0.585699 1.46312 0
M  V30 5424 C 518.283 -0.158577 2.32059 0
M  V30 5425 C 519.277 -0.881427 1.44662 0
M  V30 5426 O 520.483 -0.799476 1.61271 0
M  V30 5427 H 516.858 -0.0700066 0.748734 0
M  V30 5428 H 518.829 0.583383 2.92642 0
M  V30 5429 C 517.578 -1.15701 3.27885 0
M  V30 5430 H 516.901 -0.610215 3.95116 0
M  V30 5431 H 518.341 -1.64812 3.90657 0
M  V30 5432 C 516.8 -2.21951 2.53455 0
M  V30 5433 O 517.33 -3.29352 2.29978 0
M  V30 5434 N 515.536 -1.9664 2.13965 0
M  V30 5435 H 515.083 -1.09309 2.33258 0
M  V30 5436 H 515.041 -2.6794 1.64485 0
M  V30 5437 N 518.813 -1.54241 0.323641 0
M  V30 5438 C 519.743 -2.27289 -0.534993 0
M  V30 5439 C 520.724 -1.28087 -1.11927 0
M  V30 5440 O 521.909 -1.56899 -1.14439 0
M  V30 5441 C 519.039 -3.03075 -1.69596 0
M  V30 5442 C 517.993 -4.09614 -1.24098 0
M  V30 5443 C 517.319 -4.73242 -2.4889 0
M  V30 5444 C 518.619 -5.21087 -0.355789 0
M  V30 5445 H 520.313 -2.99308 0.0743257 0
M  V30 5446 H 517.859 -1.43952 0.0371874 0
M  V30 5447 H 519.812 -3.52907 -2.30293 0
M  V30 5448 H 518.536 -2.28673 -2.33187 0
M  V30 5449 H 517.195 -3.60666 -0.656945 0
M  V30 5450 H 516.843 -3.95455 -3.10845 0
M  V30 5451 H 516.543 -5.45209 -2.19138 0
M  V30 5452 H 518.067 -5.25848 -3.10348 0
M  V30 5453 H 519.481 -5.66675 -0.869042 0
M  V30 5454 H 517.878 -5.9991 -0.151045 0
M  V30 5455 H 518.948 -4.81005 0.613339 0
M  V30 5456 N 520.291 -0.0518155 -1.57515 0
M  V30 5457 C 521.707 0.304735 -1.56664 0
M  V30 5458 C 521.907 1.71395 -1.05953 0
M  V30 5459 O 520.963 2.42123 -0.716414 0
M  V30 5460 C 522.276 0.132614 -3.00407 0
M  V30 5461 C 523.824 0.20367 -3.12337 0
M  V30 5462 C 524.299 0.0600706 -4.57961 0
M  V30 5463 N 525.79 0.116326 -4.63054 0
M  V30 5464 C 526.525 0.0293363 -5.73392 0
M  V30 5465 N 526.021 -0.110038 -6.92713 0
M  V30 5466 N 527.814 0.0849651 -5.62036 0
M  V30 5467 H 519.965 -0.973056 -1.888 0
M  V30 5468 H 522.228 -0.377781 -0.869474 0
M  V30 5469 H 521.934 -0.839019 -3.41546 0
M  V30 5470 H 521.808 0.893376 -3.66468 0
M  V30 5471 H 524.195 1.16578 -2.71097 0
M  V30 5472 H 524.276 -0.587857 -2.48954 0
M  V30 5473 H 523.92 -0.898715 -4.99886 0
M  V30 5474 H 523.85 0.87075 -5.19351 0
M  V30 5475 H 526.341 0.22327 -3.7724 0
M  V30 5476 H 526.654 -0.169104 -7.72615 0
M  V30 5477 H 524.999 -0.145132 -6.94848 0
M  V30 5478 H 528.19 0.192411 -4.67704 0
M  V30 5479 H 528.363 0.0137131 -6.47999 0
M  V30 5480 N 521.769 1.56035 0.221574 0
M  V30 5481 C 523.015 1.80221 0.942973 0
M  V30 5482 C 523.37 0.624799 1.81973 0
M  V30 5483 O 522.663 -0.381145 1.87771 0
M  V30 5484 C 522.857 3.07813 1.8162 0
M  V30 5485 C 522.686 4.37852 1.02548 0
M  V30 5486 C 521.456 5.00138 0.720418 0
M  V30 5487 C 523.654 5.12813 0.390799 0
M  V30 5488 N 521.636 6.13831 -0.0917139 0
M  V30 5489 C 523.007 6.19346 -0.284728 0
M  V30 5490 C 525.062 4.96972 0.303828 0
M  V30 5491 C 523.765 7.11758 -1.03891 0
M  V30 5492 C 525.791 5.89784 -0.436883 0
M  V30 5493 C 525.153 6.95743 -1.10095 0
M  V30 5494 H 521.252 0.711117 0.325325 0
M  V30 5495 H 523.836 1.93522 0.213854 0
M  V30 5496 H 522.007 2.95795 2.51714 0
M  V30 5497 H 523.739 3.20191 2.47508 0
M  V30 5498 H 520.494 4.62075 1.03843 0
M  V30 5499 H 520.918 6.75249 -0.486615 0
M  V30 5500 H 525.56 4.15107 0.802896 0
M  V30 5501 H 523.278 7.93105 -1.54949 0
M  V30 5502 H 526.864 5.79603 -0.505181 0
M  V30 5503 H 525.744 7.66322 -1.66495 0
M  V30 5504 N 523.247 -0.488276 1.49845 0
M  V30 5505 C 524.475 -1.26527 1.63702 0
M  V30 5506 C 524.89 -1.8618 0.313447 0
M  V30 5507 O 524.247 -1.68432 -0.702624 0
M  V30 5508 C 524.298 -2.3864 2.71538 0
M  V30 5509 O 524.019 -1.81437 3.98763 0
M  V30 5510 C 525.52 -3.29805 2.96215 0
M  V30 5511 H 522.74 -0.383295 0.55075 0
M  V30 5512 H 525.284 -0.584779 1.95961 0
M  V30 5513 H 523.439 -3.02496 2.42023 0
M  V30 5514 H 523.853 -2.55135 4.58265 0
M  V30 5515 H 525.327 -4.04722 3.75372 0
M  V30 5516 H 525.804 -3.87563 2.06619 0
M  V30 5517 H 526.41 -2.71703 3.27196 0
M  V30 5518 N 524.725 -1.39134 -0.740242 0
M  V30 5519 C 526.136 -1.32208 -1.31825 0
M  V30 5520 C 526.487 0.0159919 -1.96193 0
M  V30 5521 O 525.612 0.918111 -1.95958 0
M  V30 5522 C 526.207 -2.39436 -2.39699 0
M  V30 5523 C 524.766 -2.36048 -2.93187 0
M  V30 5524 C 523.913 -2.21599 -1.66701 0
M  V30 5525 H 526.864 -1.49298 -0.538133 0
M  V30 5526 H 526.885 -2.05922 -3.19963 0
M  V30 5527 H 526.397 -3.36811 -1.92821 0
M  V30 5528 H 524.498 -1.42295 -3.44359 0
M  V30 5529 H 524.611 -3.30704 -3.46658 0
M  V30 5530 H 522.975 -1.68681 -1.90837 0
M  V30 5531 H 523.758 -3.20936 -1.21882 0
M  V30 5532 N 526.204 0.969867 -1.24223 0
M  V30 5533 C 527.434 1.74502 -1.106 0
M  V30 5534 C 527.842 1.86038 0.344483 0
M  V30 5535 O 527.185 1.3465 1.24961 0
M  V30 5536 C 527.247 3.18391 -1.66935 0
M  V30 5537 C 526.911 3.30334 -3.15798 0
M  V30 5538 C 527.908 3.15832 -4.12973 0
M  V30 5539 C 525.593 3.54644 -3.55715 0
M  V30 5540 C 527.587 3.25461 -5.48045 0
M  V30 5541 C 525.274 3.63912 -4.90929 0
M  V30 5542 C 526.272 3.49332 -5.86904 0
M  V30 5543 O 525.96 3.58251 -7.1966 0
M  V30 5544 H 525.692 0.554119 -0.387206 0
M  V30 5545 H 528.246 1.22646 -1.64764 0
M  V30 5546 H 526.476 3.71543 -1.07203 0
M  V30 5547 H 528.165 3.77707 -1.48634 0
M  V30 5548 H 528.931 2.96937 -3.83476 0
M  V30 5549 H 524.81 3.65059 -2.81519 0
M  V30 5550 H 528.354 3.13998 -6.22937 0
M  V30 5551 H 524.251 3.82319 -5.20098 0
M  V30 5552 H 525.019 3.7498 -7.27552 0
M  V30 5553 N 527.682 1.05563 1.17022 0
M  V30 5554 C 528.614 0.617888 2.20714 0
M  V30 5555 C 529.627 -0.320303 1.59618 0
M  V30 5556 O 530.816 -0.112449 1.78145 0
M  V30 5557 C 527.916 -0.115333 3.38704 0
M  V30 5558 C 527.089 0.834493 4.29366 0
M  V30 5559 C 526.148 0.141855 5.26009 0
M  V30 5560 O 525.174 0.777151 5.6387 0
M  V30 5561 N 526.376 -1.11934 5.69606 0
M  V30 5562 H 529.141 1.50981 2.58892 0
M  V30 5563 H 526.702 0.938008 1.31958 0
M  V30 5564 H 528.694 -0.588918 4.00392 0
M  V30 5565 H 527.264 -0.908967 2.99093 0
M  V30 5566 H 526.484 1.48762 3.65053 0
M  V30 5567 H 527.772 1.4791 4.86827 0
M  V30 5568 H 527.17 -1.65574 5.40927 0
M  V30 5569 H 525.727 -1.53692 6.33421 0
M  V30 5570 N 529.16 -1.33526 0.837174 0
M  V30 5571 C 530.408 -1.97446 0.431211 0
M  V30 5572 C 530.729 -1.6665 -1.01255 0
M  V30 5573 O 529.999 -0.964559 -1.70508 0
M  V30 5574 H 528.579 -0.73043 0.156463 0
M  V30 5575 H 531.241 -1.62918 1.06976 0
M  V30 5576 H 530.337 -3.07001 0.561877 0
M  V30 5577 N 530.638 -0.59345 -1.46 0
M  V30 5578 C 531.878 -0.0859747 -2.04219 0
M  V30 5579 C 532.242 1.25432 -1.45364 0
M  V30 5580 O 533.443 1.85168 -1.9485 0
M  V30 5581 C 531.714 -0.0324314 -3.57385 0
M  V30 5582 S 533.273 0.415908 -4.36824 0
M  V30 5583 H 530.091 -0.0426872 -0.709717 0
M  V30 5584 H 532.693 -0.788369 -1.78899 0
M  V30 5585 H 531.397 -1.01166 -3.97735 0
M  V30 5586 H 530.928 0.6924 -3.87259 0
M  V30 5587 H 532.943 1.66844 -4.67309 0
M  V30 5588 N 532.116 1.54067 -0.331816 0
M  V30 5589 C 533.026 2.28322 0.539104 0
M  V30 5590 C 534.042 1.32985 1.1221 0
M  V30 5591 O 535.218 1.6601 1.1403 0
M  V30 5592 C 532.283 3.03277 1.68 0
M  V30 5593 C 531.344 4.14216 1.12798 0
M  V30 5594 C 530.577 4.85588 2.2145 0
M  V30 5595 O 530.8 4.56536 3.41952 0
M  V30 5596 O 529.734 5.72309 1.86404 0
M  V30 5597 H 533.56 3.03632 -0.0641692 0
M  V30 5598 H 531.145 1.49083 -0.0972365 0
M  V30 5599 H 533.027 3.50189 2.34405 0
M  V30 5600 H 531.702 2.30834 2.2693 0
M  V30 5601 H 530.609 3.71635 0.428782 0
M  V30 5602 H 531.942 4.88727 0.583698 0
M  V30 5603 N 533.594 0.0601682 1.57485 0
M  V30 5604 C 534.557 -0.896373 2.10945 0
M  V30 5605 C 535.557 -1.23402 1.03095 0
M  V30 5606 O 536.747 -1.16921 1.29132 0
M  V30 5607 C 533.879 -2.20346 2.60116 0
M  V30 5608 H 535.072 -0.432778 2.96761 0
M  V30 5609 H 532.625 -0.188372 1.55161 0
M  V30 5610 H 533.36 -2.71268 1.7772 0
M  V30 5611 H 533.145 -1.9714 3.38937 0
M  V30 5612 H 534.635 -2.88846 3.01592 0
M  V30 5613 N 535.072 -1.5615 -0.213296 0
M  V30 5614 C 536.002 -1.96109 -1.26742 0
M  V30 5615 C 536.983 -0.830448 -1.48451 0
M  V30 5616 O 538.168 -1.09339 -1.60495 0
M  V30 5617 C 535.298 -2.28492 -2.61551 0
M  V30 5618 C 534.252 -3.44124 -2.54485 0
M  V30 5619 C 533.578 -3.62134 -3.93399 0
M  V30 5620 C 534.878 -4.78855 -2.08556 0
M  V30 5621 H 536.572 -2.84412 -0.935434 0
M  V30 5622 H 534.118 -1.36836 -0.44854 0
M  V30 5623 H 536.071 -2.55039 -3.3546 0
M  V30 5624 H 534.795 -1.37052 -2.96453 0
M  V30 5625 H 533.454 -3.17639 -1.83033 0
M  V30 5626 H 533.102 -2.68055 -4.25623 0
M  V30 5627 H 532.802 -4.39913 -3.89551 0
M  V30 5628 H 534.326 -3.91038 -4.68958 0
M  V30 5629 H 535.74 -5.04552 -2.72213 0
M  V30 5630 H 534.137 -5.59975 -2.1575 0
M  V30 5631 H 535.207 -4.73657 -1.03811 0
M  V30 5632 N 536.55 0.480323 -1.50102 0
M  V30 5633 C 537.79 1.24301 -1.62261 0
M  V30 5634 C 538.154 1.89452 -0.311758 0
M  V30 5635 O 539.355 2.67022 -0.308696 0
M  V30 5636 C 537.626 2.26588 -2.76392 0
M  V30 5637 S 539.185 3.11919 -3.08629 0
M  V30 5638 H 536.003 0.42215 -0.57211 0
M  V30 5639 H 538.605 0.541591 -1.87848 0
M  V30 5640 H 537.309 1.7729 -3.70131 0
M  V30 5641 H 536.84 3.01371 -2.52862 0
M  V30 5642 H 538.855 4.27598 -2.51742 0
M  V30 5643 N 538.028 1.39524 0.732853 0
M  V30 5644 C 539.268 1.383 1.50508 0
M  V30 5645 C 539.632 -0.0208271 1.91989 0
M  V30 5646 O 540.833 -0.158091 2.68335 0
M  V30 5647 C 539.104 2.33007 2.71003 0
M  V30 5648 S 540.663 2.49989 3.60626 0
M  V30 5649 H 537.481 0.490417 0.514794 0
M  V30 5650 H 540.083 1.75641 0.858524 0
M  V30 5651 H 538.787 3.33862 2.38672 0
M  V30 5652 H 538.318 1.96889 3.40585 0
M  V30 5653 H 540.333 1.7394 4.64714 0
M  V30 5654 N 539.506 -0.963266 1.24736 0
M  V30 5655 C 540.917 -1.52145 1.08207 0
M  V30 5656 C 541.268 -1.93142 -0.345061 0
M  V30 5657 O 540.393 -1.77769 -1.23399 0
M  V30 5658 C 540.988 -2.76486 1.95808 0
M  V30 5659 C 539.547 -3.28646 1.8349 0
M  V30 5660 C 538.694 -2.01529 1.90476 0
M  V30 5661 H 541.645 -0.781083 1.38148 0
M  V30 5662 H 541.666 -3.49986 1.49297 0
M  V30 5663 H 541.178 -2.46617 2.99669 0
M  V30 5664 H 539.279 -3.63357 0.824787 0
M  V30 5665 H 539.392 -3.97246 2.67829 0
M  V30 5666 H 537.756 -2.16442 1.34258 0
M  V30 5667 H 538.539 -1.7402 2.95926 0
M  V30 5668 N 540.985 -1.06182 -1.16461 0
M  V30 5669 C 541.895 -0.682671 -2.24448 0
M  V30 5670 C 542.911 0.30078 -1.71381 0
M  V30 5671 O 544.087 0.150376 -2.00838 0
M  V30 5672 C 541.152 -0.0737202 -3.46622 0
M  V30 5673 C 540.213 -1.10889 -4.14731 0
M  V30 5674 C 539.446 -0.528908 -5.31073 0
M  V30 5675 O 539.669 0.65868 -5.66584 0
M  V30 5676 O 538.603 -1.26805 -5.88391 0
M  V30 5677 H 542.429 -1.58291 -2.59187 0
M  V30 5678 H 540.014 -0.834013 -1.23954 0
M  V30 5679 H 541.896 0.264192 -4.20571 0
M  V30 5680 H 540.571 0.800015 -3.13658 0
M  V30 5681 H 539.478 -1.49896 -3.42756 0
M  V30 5682 H 540.811 -1.95412 -4.51747 0
M  V30 5683 N 542.463 1.3308 -0.844243 0
M  V30 5684 C 543.874 1.7992 -0.498566 0
M  V30 5685 C 544.225 1.69808 0.982834 0
M  V30 5686 O 543.35 1.25051 1.7661 0
M  V30 5687 C 543.945 3.26677 -0.898204 0
M  V30 5688 C 542.504 3.71513 -0.604583 0
M  V30 5689 C 541.651 2.54393 -1.10362 0
M  V30 5690 H 544.602 1.20526 -1.03244 0
M  V30 5691 H 544.623 3.79918 -0.21039 0
M  V30 5692 H 544.135 3.34004 -1.97643 0
M  V30 5693 H 542.236 3.69708 0.46335 0
M  V30 5694 H 542.349 4.64755 -1.16358 0
M  V30 5695 H 540.713 2.49246 -0.524273 0
M  V30 5696 H 541.496 2.6448 -2.18873 0
M  V30 5697 N 543.941 0.601185 1.45683 0
M  V30 5698 C 544.888 -0.121396 2.30481 0
M  V30 5699 C 545.858 -0.866232 1.41724 0
M  V30 5700 O 547.043 -0.85324 1.70659 0
M  V30 5701 C 544.183 -1.11704 3.26521 0
M  V30 5702 C 543.296 -0.373741 4.3038 0
M  V30 5703 C 542.431 -1.35854 5.13534 0
M  V30 5704 C 541.47 -0.602689 6.09126 0
M  V30 5705 N 540.607 -1.53645 6.85082 0
M  V30 5706 H 545.447 0.607732 2.91737 0
M  V30 5707 H 542.984 0.311502 1.43764 0
M  V30 5708 H 544.942 -1.70735 3.80664 0
M  V30 5709 H 543.572 -1.81366 2.67032 0
M  V30 5710 H 542.624 0.331962 3.78949 0
M  V30 5711 H 543.936 0.2163 4.98331 0
M  V30 5712 H 543.09 -2.02111 5.72046 0
M  V30 5713 H 541.829 -1.98251 4.45587 0
M  V30 5714 H 540.834 0.0735482 5.49751 0
M  V30 5715 H 542.059 0.0161467 6.79098 0
M  V30 5716 H 540.005 -2.14819 6.1983 0
M  V30 5717 H 539.922 -0.999688 7.49361 0
M  V30 5718 H 541.19 -2.1888 7.48139 0
M  V30 5719 N 545.419 -1.53889 0.339982 0
M  V30 5720 C 546.349 -2.27843 -0.510856 0
M  V30 5721 C 547.33 -1.29267 -1.10563 0
M  V30 5722 O 548.515 -1.58104 -1.12768 0
M  V30 5723 C 545.645 -3.04857 -1.66372 0
M  V30 5724 C 544.599 -4.10907 -1.19746 0
M  V30 5725 C 543.925 -4.75855 -2.43857 0
M  V30 5726 C 545.225 -5.21435 -0.300501 0
M  V30 5727 H 546.919 -2.99212 0.106067 0
M  V30 5728 H 544.465 -1.43904 0.0524533 0
M  V30 5729 H 546.418 -3.5533 -2.26537 0
M  V30 5730 H 545.142 -2.31133 -2.30749 0
M  V30 5731 H 543.801 -3.61342 -0.618654 0
M  V30 5732 H 543.449 -3.9873 -3.06633 0
M  V30 5733 H 543.149 -5.47502 -2.13343 0
M  V30 5734 H 544.673 -5.2911 -3.04754 0
M  V30 5735 H 546.087 -5.67565 -0.80889 0
M  V30 5736 H 544.484 -6.00036 -0.0874076 0
M  V30 5737 H 545.554 -4.80328 0.664321 0
M  V30 5738 N 546.897 -0.0685191 -1.57451 0
M  V30 5739 C 547.845 0.917577 -2.13736 0
M  V30 5740 C 548.839 1.31049 -1.07344 0
M  V30 5741 O 550.045 1.28811 -1.25728 0
M  V30 5742 H 546.42 0.313835 -0.683382 0
M  V30 5743 H 548.391 0.417903 -2.95459 0
M  V30 5744 C 547.14 2.17686 -2.71123 0
M  V30 5745 H 546.463 1.88336 -3.52661 0
M  V30 5746 H 547.903 2.84803 -3.14107 0
M  V30 5747 C 546.362 2.9332 -1.65726 0
M  V30 5748 O 546.892 3.86901 -1.08031 0
M  V30 5749 N 545.098 2.56367 -1.36837 0
M  V30 5750 H 544.645 1.80341 -1.83943 0
M  V30 5751 H 544.603 3.07276 -0.665501 0
M  V30 5752 N 548.375 1.56261 0.205012 0
M  V30 5753 C 549.323 1.94631 1.27364 0
M  V30 5754 C 550.317 0.830434 1.47649 0
M  V30 5755 O 551.523 1.01538 1.48627 0
M  V30 5756 H 547.898 0.618755 0.427371 0
M  V30 5757 H 549.869 2.83768 0.922941 0
M  V30 5758 C 548.618 2.29358 2.61324 0
M  V30 5759 H 547.941 3.14744 2.46528 0
M  V30 5760 H 549.381 2.60076 3.34868 0
M  V30 5761 C 547.84 1.12461 3.17575 0
M  V30 5762 O 548.37 0.394407 3.99759 0
M  V30 5763 N 546.576 0.904036 2.7618 0
M  V30 5764 H 546.123 1.49956 2.09454 0
M  V30 5765 H 546.081 0.123662 3.14157 0
M  V30 5766 N 549.853 -0.472356 1.50355 0
M  V30 5767 C 551.101 -1.22211 1.60962 0
M  V30 5768 C 551.422 -1.92497 0.311439 0
M  V30 5769 O 550.692 -1.8405 -0.671002 0
M  V30 5770 H 549.272 -0.454092 0.593135 0
M  V30 5771 H 551.934 -0.544977 1.87126 0
M  V30 5772 H 551.03 -1.9707 2.42012 0
M  V30 5773 N 551.331 -1.39911 -0.725443 0
M  V30 5774 C 552.241 -1.41688 -1.8698 0
M  V30 5775 C 553.257 -0.310579 -1.71206 0
M  V30 5776 O 554.433 -0.55359 -1.93642 0
M  V30 5777 C 551.498 -1.26811 -3.22676 0
M  V30 5778 C 550.559 -2.47497 -3.50776 0
M  V30 5779 C 549.792 -2.3332 -4.79997 0
M  V30 5780 O 550.015 -1.34175 -5.54394 0
M  V30 5781 O 548.949 -3.22498 -5.08211 0
M  V30 5782 H 552.775 -2.38171 -1.88436 0
M  V30 5783 H 550.36 -1.21128 -0.874548 0
M  V30 5784 H 552.242 -1.20684 -4.03749 0
M  V30 5785 H 550.917 -0.334289 -3.21969 0
M  V30 5786 H 549.824 -2.59201 -2.69751 0
M  V30 5787 H 551.157 -3.39606 -3.5627 0
M  V30 5788 N 552.809 0.956637 -1.25245 0
M  V30 5789 C 554.058 1.69537 -1.0927 0
M  V30 5790 C 554.371 1.92136 0.366503 0
M  V30 5791 O 555.577 2.63687 0.64665 0
M  V30 5792 C 554.033 3.05211 -1.9072 0
M  V30 5793 C 553.641 2.90416 -3.41119 0
M  V30 5794 C 555.385 3.82882 -1.83308 0
M  V30 5795 C 553.292 4.21468 -4.14872 0
M  V30 5796 H 552.222 0.635804 -0.405302 0
M  V30 5797 H 554.873 1.06513 -1.49423 0
M  V30 5798 H 553.255 3.69128 -1.43389 0
M  V30 5799 H 554.429 2.35444 -3.9611 0
M  V30 5800 H 552.744 2.26203 -3.49602 0
M  V30 5801 H 555.341 4.79944 -2.35706 0
M  V30 5802 H 555.684 4.0853 -0.800572 0
M  V30 5803 H 556.217 3.25711 -2.28379 0
M  V30 5804 H 552.956 4.01009 -5.18529 0
M  V30 5805 H 552.476 4.76213 -3.64665 0
M  V30 5806 H 554.155 4.90022 -4.22478 0
M  V30 5807 N 554.287 1.06798 1.15896 0
M  V30 5808 C 555.515 0.808694 1.90441 0
M  V30 5809 C 555.93 -0.637506 1.77711 0
M  V30 5810 O 555.287 -1.43684 1.12522 0
M  V30 5811 C 555.338 1.20068 3.40978 0
M  V30 5812 O 555.059 2.59013 3.53333 0
M  V30 5813 C 556.56 0.96987 4.3256 0
M  V30 5814 H 553.78 0.292809 0.603742 0
M  V30 5815 H 556.324 1.42296 1.46874 0
M  V30 5816 H 554.479 0.630842 3.82229 0
M  V30 5817 H 554.893 2.7485 4.46719 0
M  V30 5818 H 556.367 1.29371 5.36626 0
M  V30 5819 H 556.844 -0.0941209 4.39099 0
M  V30 5820 H 557.45 1.52433 3.97044 0
M  V30 5821 N 555.766 -1.3263 0.851289 0
M  V30 5822 C 556.698 -2.27824 0.250757 0
M  V30 5823 C 557.711 -1.52285 -0.575598 0
M  V30 5824 O 558.9 -1.73946 -0.400638 0
M  V30 5825 C 556 -3.3232 -0.664571 0
M  V30 5826 C 555.173 -4.37221 0.125187 0
M  V30 5827 C 554.232 -5.21314 -0.715385 0
M  V30 5828 O 553.258 -5.69002 -0.150111 0
M  V30 5829 N 554.46 -5.43823 -2.03069 0
M  V30 5830 H 557.225 -2.79997 1.06873 0
M  V30 5831 H 554.786 -1.45455 0.710943 0
M  V30 5832 H 556.778 -3.85486 -1.23216 0
M  V30 5833 H 555.348 -2.80331 -1.38323 0
M  V30 5834 H 554.568 -3.84384 0.874199 0
M  V30 5835 H 555.856 -5.04399 0.667774 0
M  V30 5836 H 555.254 -5.06803 -2.51332 0
M  V30 5837 H 553.811 -5.99998 -2.54648 0
M  V30 5838 N 557.244 -0.608902 -1.45362 0
M  V30 5839 C 558.194 0.130616 -2.27626 0
M  V30 5840 C 559.178 0.837323 -1.37396 0
M  V30 5841 O 560.37 0.727096 -1.61376 0
M  V30 5842 C 557.499 1.12646 -3.24293 0
M  V30 5843 C 556.585 0.42052 -4.2201 0
M  V30 5844 N 556.976 -0.538569 -5.02925 0
M  V30 5845 C 555.274 0.667901 -4.40971 0
M  V30 5846 C 555.975 -0.953625 -5.7383 0
M  V30 5847 N 554.951 -0.297097 -5.42788 0
M  V30 5848 H 558.753 -0.605996 -2.87585 0
M  V30 5849 H 556.267 -0.432672 -1.5653 0
M  V30 5850 H 558.264 1.67066 -3.81961 0
M  V30 5851 H 556.924 1.86361 -2.65894 0
M  V30 5852 H 557.935 -0.915375 -5.09746 0
M  V30 5853 H 554.612 1.38963 -3.93695 0
M  V30 5854 H 556.002 -1.74473 -6.48852 0
M  V30 5855 N 558.722 1.53707 -0.348139 0
M  V30 5856 C 560.138 1.596 0.00361134 0
M  V30 5857 C 560.338 1.36394 1.4832 0
M  V30 5858 O 559.394 1.16046 2.24253 0
M  V30 5859 C 560.707 2.97512 -0.436682 0
M  V30 5860 C 562.255 3.10568 -0.389416 0
M  V30 5861 C 562.73 4.50866 -0.805249 0
M  V30 5862 N 564.221 4.56929 -0.759616 0
M  V30 5863 C 564.956 5.63643 -1.05327 0
M  V30 5864 N 564.452 6.78189 -1.41531 0
M  V30 5865 N 566.245 5.5354 -0.977207 0
M  V30 5866 H 558.396 1.67044 -1.31187 0
M  V30 5867 H 560.659 0.782559 -0.535075 0
M  V30 5868 H 560.365 3.19575 -1.46849 0
M  V30 5869 H 560.239 3.76742 0.185744 0
M  V30 5870 H 562.626 2.88226 0.633228 0
M  V30 5871 H 562.707 2.33387 -1.04711 0
M  V30 5872 H 562.351 4.73943 -1.82593 0
M  V30 5873 H 562.281 5.26452 -0.124989 0
M  V30 5874 H 564.772 3.74675 -0.49265 0
M  V30 5875 H 565.085 7.55541 -1.62411 0
M  V30 5876 H 563.43 6.79624 -1.45381 0
M  V30 5877 H 566.621 4.62932 -0.693675 0
M  V30 5878 H 566.794 6.36614 -1.2094 0
M  V30 5879 N 560.2 0.0768682 1.57412 0
M  V30 5880 C 561.147 -0.888577 2.13009 0
M  V30 5881 C 562.117 -1.29198 1.0439 0
M  V30 5882 O 563.302 -1.37694 1.3208 0
M  V30 5883 C 560.442 -2.14899 2.70023 0
M  V30 5884 C 559.555 -1.79777 3.92816 0
M  V30 5885 C 558.69 -3.00467 4.38056 0
M  V30 5886 C 557.729 -2.61385 5.53484 0
M  V30 5887 N 556.866 -3.74851 5.93659 0
M  V30 5888 H 561.706 -0.407593 2.95199 0
M  V30 5889 H 559.243 -0.189534 1.45874 0
M  V30 5890 H 561.201 -2.88688 3.0119 0
M  V30 5891 H 559.831 -2.60529 1.9059 0
M  V30 5892 H 558.883 -0.960301 3.68079 0
M  V30 5893 H 560.195 -1.47027 4.76639 0
M  V30 5894 H 559.349 -3.82529 4.7091 0
M  V30 5895 H 558.088 -3.36413 3.53097 0
M  V30 5896 H 557.093 -1.77746 5.20275 0
M  V30 5897 H 558.318 -2.26603 6.40178 0
M  V30 5898 H 556.264 -4.1055 5.11649 0
M  V30 5899 H 556.181 -3.45887 6.72234 0
M  V30 5900 H 557.449 -4.57477 6.31138 0
M  V30 5901 N 561.678 -1.56367 -0.196722 0
M  V30 5902 C 562.903 -1.84991 -0.937714 0
M  V30 5903 C 563.328 -0.660244 -1.76132 0
M  V30 5904 O 562.686 0.390967 -1.77034 0
M  V30 5905 C 562.734 -3.11828 -1.81096 0
M  V30 5906 O 561.838 -2.92266 -2.90955 0
M  V30 5907 H 561.179 -0.609193 -0.264159 0
M  V30 5908 H 563.709 -2.03595 -0.202529 0
M  V30 5909 H 563.719 -3.42579 -2.21594 0
M  V30 5910 H 562.394 -3.98037 -1.2058 0
M  V30 5911 H 560.971 -2.72809 -2.54224 0
M  V30 5912 N 563.156 0.464375 -1.50603 0
M  V30 5913 C 564.572 0.798684 -1.38178 0
M  V30 5914 C 564.772 1.96568 -0.44308 0
M  V30 5915 O 563.828 2.52252 0.111814 0
M  V30 5916 C 565.141 1.10444 -2.79683 0
M  V30 5917 C 566.689 1.2105 -2.88645 0
M  V30 5918 C 567.164 1.54934 -4.30998 0
M  V30 5919 N 568.655 1.61913 -4.3398 0
M  V30 5920 C 569.39 1.8965 -5.41129 0
M  V30 5921 N 568.886 2.15361 -6.58477 0
M  V30 5922 N 570.679 1.91207 -5.28579 0
M  V30 5923 H 562.83 -0.304603 -2.10204 0
M  V30 5924 H 565.093 -0.0737804 -0.945125 0
M  V30 5925 H 564.799 0.319934 -3.50242 0
M  V30 5926 H 564.673 2.03896 -3.17342 0
M  V30 5927 H 567.06 1.98567 -2.18301 0
M  V30 5928 H 567.141 0.255613 -2.5452 0
M  V30 5929 H 566.785 0.779549 -5.01882 0
M  V30 5930 H 566.715 2.51584 -4.62615 0
M  V30 5931 H 569.206 1.44055 -3.49366 0
M  V30 5932 H 569.519 2.35818 -7.35941 0
M  V30 5933 H 567.864 2.1274 -6.6164 0
M  V30 5934 H 571.055 1.70622 -4.35897 0
M  V30 5935 H 571.228 2.12488 -6.12171 0
M  V30 5936 N 564.634 1.40294 0.718013 0
M  V30 5937 C 566.045 1.34289 1.29705 0
M  V30 5938 C 566.396 0.0152228 1.96194 0
M  V30 5939 O 565.521 -0.88682 1.97394 0
M  V30 5940 C 566.116 2.43219 2.3586 0
M  V30 5941 C 564.675 2.40682 2.89394 0
M  V30 5942 C 563.822 2.24223 1.63154 0
M  V30 5943 H 566.773 1.50135 0.514312 0
M  V30 5944 H 566.794 2.10986 3.16647 0
M  V30 5945 H 566.306 3.39836 1.87439 0
M  V30 5946 H 564.407 1.47756 3.42051 0
M  V30 5947 H 564.52 3.36177 3.41353 0
M  V30 5948 H 562.884 1.71696 1.88129 0
M  V30 5949 H 563.667 3.22834 1.16761 0
M  V30 5950 N 566.112 -0.949982 1.2575 0
M  V30 5951 C 567.075 -2.02894 1.06615 0
M  V30 5952 C 568.075 -1.60791 0.0173905 0
M  V30 5953 O 569.265 -1.72249 0.260003 0
M  V30 5954 C 566.397 -3.35219 0.619751 0
M  V30 5955 H 567.59 -2.21302 2.02399 0
M  V30 5956 H 565.143 -1.12772 1.08223 0
M  V30 5957 H 565.878 -3.22508 -0.340486 0
M  V30 5958 H 565.663 -3.67129 1.37692 0
M  V30 5959 H 567.153 -4.14505 0.507443 0
M  V30 5960 N 567.59 -1.07411 -1.15328 0
M  V30 5961 C 568.538 -0.689316 -2.22151 0
M  V30 5962 C 569.532 0.300156 -1.6672 0
M  V30 5963 O 570.738 0.163804 -1.79253 0
M  V30 5964 H 567.113 -0.204834 -0.723566 0
M  V30 5965 H 569.084 -1.59988 -2.51886 0
M  V30 5966 C 567.833 -0.103848 -3.47545 0
M  V30 5967 H 567.156 -0.856367 -3.90521 0
M  V30 5968 H 568.596 0.127725 -4.23808 0
M  V30 5969 C 567.055 1.15563 -3.1646 0
M  V30 5970 O 567.585 2.242 -3.33312 0
M  V30 5971 N 565.791 1.06203 -2.70498 0
M  V30 5972 H 565.338 0.177933 -2.56985 0
M  V30 5973 H 565.296 1.90553 -2.50074 0
M  V30 5974 N 569.068 1.32177 -0.85831 0
M  V30 5975 C 570.018 2.26307 -0.277307 0
M  V30 5976 C 571.002 1.50123 0.578946 0
M  V30 5977 O 572.194 1.71754 0.427731 0
M  V30 5978 C 569.323 3.39181 0.530232 0
M  V30 5979 C 568.409 4.22746 -0.338613 0
M  V30 5980 N 568.8 4.85265 -1.4266 0
M  V30 5981 C 567.098 4.45813 -0.129 0
M  V30 5982 C 567.799 5.47634 -1.96142 0
M  V30 5983 N 566.775 5.28794 -1.26007 0
M  V30 5984 H 570.577 2.72173 -1.10902 0
M  V30 5985 H 568.091 1.46308 -0.704816 0
M  V30 5986 H 570.088 4.05628 0.962904 0
M  V30 5987 H 568.748 2.9486 1.35969 0
M  V30 5988 H 569.759 4.85259 -1.80953 0
M  V30 5989 H 566.436 4.12163 0.665451 0
M  V30 5990 H 567.826 6.0735 -2.8736 0
M  V30 5991 N 570.547 0.616602 1.45037 0
M  V30 5992 C 571.787 0.118453 2.04056 0
M  V30 5993 C 572.151 -1.23104 1.47341 0
M  V30 5994 O 573.352 -1.82044 1.97771 0
M  V30 5995 C 571.623 0.0892842 3.57288 0
M  V30 5996 S 573.182 -0.346361 4.37431 0
M  V30 5997 H 570 0.0539728 0.708948 0
M  V30 5998 H 572.602 0.816731 1.77623 0
M  V30 5999 H 571.306 1.07481 3.96076 0
M  V30 6000 H 570.837 -0.630703 3.88311 0
M  V30 6001 H 572.852 -1.59389 4.69904 0
M  V30 6002 N 572.025 -1.5352 0.356285 0
M  V30 6003 C 573.271 -2.01414 -0.236653 0
M  V30 6004 C 573.604 -1.24339 -1.49176 0
M  V30 6005 O 572.879 -0.334496 -1.91602 0
M  V30 6006 C 573.162 -3.56059 -0.537982 0
M  V30 6007 C 573.015 -4.43835 0.730112 0
M  V30 6008 C 574.334 -4.19127 -1.34239 0
M  V30 6009 H 571.453 -0.732135 -0.0845386 0
M  V30 6010 H 574.095 -1.83854 0.479341 0
M  V30 6011 H 572.245 -3.71153 -1.14795 0
M  V30 6012 H 573.917 -4.40555 1.36782 0
M  V30 6013 H 572.16 -4.1218 1.3524 0
M  V30 6014 H 572.831 -5.49958 0.474358 0
M  V30 6015 H 575.307 -4.07809 -0.826498 0
M  V30 6016 H 574.183 -5.27378 -1.52198 0
M  V30 6017 H 574.444 -3.74581 -2.34822 0
M  V30 6018 N 573.503 -0.0852151 -1.57369 0
M  V30 6019 C 574.733 0.588605 -1.98038 0
M  V30 6020 C 575.141 1.62869 -0.962817 0
M  V30 6021 O 574.484 1.83611 0.057134 0
M  V30 6022 C 574.546 1.30303 -3.35054 0
M  V30 6023 C 574.21 0.414855 -4.55113 0
M  V30 6024 C 575.207 -0.333011 -5.18832 0
M  V30 6025 C 572.892 0.335804 -5.01176 0
M  V30 6026 C 574.886 -1.14801 -6.26976 0
M  V30 6027 C 572.573 -0.482857 -6.09189 0
M  V30 6028 C 573.571 -1.22342 -6.71953 0
M  V30 6029 O 573.259 -2.02855 -7.77885 0
M  V30 6030 H 572.991 0.163249 -0.655992 0
M  V30 6031 H 575.545 -0.1582 -2.0479 0
M  V30 6032 H 573.775 2.0962 -3.24956 0
M  V30 6033 H 575.464 1.87041 -3.60237 0
M  V30 6034 H 576.23 -0.281611 -4.84182 0
M  V30 6035 H 572.109 0.901869 -4.52092 0
M  V30 6036 H 575.653 -1.72654 -6.75897 0
M  V30 6037 H 571.55 -0.535773 -6.43273 0
M  V30 6038 H 572.318 -1.95432 -7.94826 0
M  V30 6039 N 574.981 1.5647 0.188427 0
M  V30 6040 C 576.228 1.81013 0.907779 0
M  V30 6041 C 576.556 0.65953 1.82977 0
M  V30 6042 O 575.811 -0.354308 1.92466 0
M  V30 6043 C 576.11 3.11596 1.7505 0
M  V30 6044 C 575.776 4.40145 0.978922 0
M  V30 6045 C 574.438 4.75066 0.765912 0
M  V30 6046 C 576.79 5.19369 0.436498 0
M  V30 6047 C 574.118 5.867 -0.00089868 0
M  V30 6048 C 576.47 6.31805 -0.317136 0
M  V30 6049 C 575.134 6.65303 -0.541103 0
M  V30 6050 H 574.404 0.662373 0.33218 0
M  V30 6051 H 577.051 1.9071 0.173732 0
M  V30 6052 H 575.356 2.97165 2.55343 0
M  V30 6053 H 577.053 3.27793 2.30983 0
M  V30 6054 H 573.643 4.12745 1.15497 0
M  V30 6055 H 577.827 4.92799 0.588449 0
M  V30 6056 H 573.083 6.11122 -0.184329 0
M  V30 6057 H 577.257 6.92406 -0.744788 0
M  V30 6058 H 574.884 7.51646 -1.13718 0
M  V30 6059 N 576.459 -0.456382 1.50847 0
M  V30 6060 C 577.689 -1.22848 1.66108 0
M  V30 6061 C 578.097 -1.85936 0.349897 0
M  V30 6062 O 577.44 -1.70664 -0.679665 0
M  V30 6063 C 577.502 -2.36722 2.70561 0
M  V30 6064 C 577.166 -1.94154 4.13707 0
M  V30 6065 C 578.163 -1.4557 4.99105 0
M  V30 6066 C 575.848 -2.02426 4.59705 0
M  V30 6067 C 577.842 -1.0582 6.28555 0
M  V30 6068 C 575.529 -1.62287 5.89157 0
M  V30 6069 C 576.527 -1.14064 6.73408 0
M  V30 6070 O 576.215 -0.744873 8.00442 0
M  V30 6071 H 575.947 -0.377105 0.561042 0
M  V30 6072 H 578.501 -0.549431 1.97915 0
M  V30 6073 H 576.731 -3.07844 2.34027 0
M  V30 6074 H 578.42 -2.98646 2.74892 0
M  V30 6075 H 579.186 -1.38589 4.64777 0
M  V30 6076 H 575.065 -2.38908 3.94264 0
M  V30 6077 H 578.609 -0.6811 6.94267 0
M  V30 6078 H 574.506 -1.68932 6.23003 0
M  V30 6079 H 575.274 -0.87242 8.13837 0
M  V30 6080 N 577.937 -1.40673 -0.710563 0
M  V30 6081 C 579.185 -1.38947 -1.46759 0
M  V30 6082 C 579.506 0.00572879 -1.94999 0
M  V30 6083 O 578.776 0.961358 -1.70689 0
M  V30 6084 H 577.356 -0.5114 -0.544499 0
M  V30 6085 H 580.018 -1.75773 -0.842012 0
M  V30 6086 H 579.114 -2.06745 -2.33801 0
M  V30 6087 N 579.415 0.9433 -1.26252 0
M  V30 6088 C 580.692 1.66639 -1.02424 0
M  V30 6089 C 581.072 2.06335 0.446006 0
M  V30 6090 O 580.42 1.78551 1.42589 0
M  V30 6091 C 580.63 2.88019 -1.97094 0
M  V30 6092 C 581.978 3.59718 -2.25584 0
M  V30 6093 O 583.002 2.9812 -1.94943 0
M  V30 6094 O 581.861 4.7066 -2.77743 0
M  V30 6095 H 578.955 0.729643 -0.389294 0
M  V30 6096 H 581.501 0.995218 -1.37454 0
M  V30 6097 H 580.273 2.5556 -2.96319 0
M  V30 6098 H 579.896 3.62863 -1.62532 0
M  V30 6099 N 580.893 1.08022 1.14757 0
M  V30 6100 C 581.803 0.718292 2.23333 0
M  V30 6101 C 582.819 -0.273477 1.71837 0
M  V30 6102 O 583.995 -0.118406 2.01052 0
M  V30 6103 C 581.06 0.128855 3.4646 0
M  V30 6104 C 580.121 1.17473 4.12915 0
M  V30 6105 C 579.354 0.61333 5.30164 0
M  V30 6106 O 579.577 -0.568458 5.6756 0
M  V30 6107 O 578.511 1.3615 5.86299 0
M  V30 6108 H 582.337 1.62394 2.56636 0
M  V30 6109 H 579.922 0.853628 1.22611 0
M  V30 6110 H 581.804 -0.197249 4.20938 0
M  V30 6111 H 580.479 -0.750014 3.14891 0
M  V30 6112 H 579.386 1.5533 3.40328 0
M  V30 6113 H 580.719 2.02574 4.48581 0
M  V30 6114 N 582.371 -1.3172 0.865308 0
M  V30 6115 C 583.62 -1.96145 0.470098 0
M  V30 6116 C 583.933 -1.69182 -0.981674 0
M  V30 6117 O 585.139 -2.27431 -1.48281 0
M  V30 6118 C 583.595 -3.51129 0.789732 0
M  V30 6119 C 583.203 -3.86938 2.25795 0
M  V30 6120 C 584.947 -4.2197 0.462765 0
M  V30 6121 C 582.854 -5.35012 2.52024 0
M  V30 6122 H 581.784 -0.734105 0.172065 0
M  V30 6123 H 584.435 -1.49959 1.05757 0
M  V30 6124 H 582.817 -3.95781 0.131571 0
M  V30 6125 H 583.991 -3.5326 2.95879 0
M  V30 6126 H 582.306 -3.29149 2.55049 0
M  V30 6127 H 584.903 -5.30904 0.636019 0
M  V30 6128 H 585.246 -4.12005 -0.59645 0
M  V30 6129 H 585.779 -3.82936 1.07727 0
M  V30 6130 H 582.518 -5.50008 3.56611 0
M  V30 6131 H 582.038 -5.70058 1.8653 0
M  V30 6132 H 583.717 -6.0222 2.36515 0
M  V30 6133 N 583.85 -0.624285 -1.44708 0
M  V30 6134 C 585.075 -0.131171 -2.06985 0
M  V30 6135 C 585.5 1.18234 -1.46295 0
M  V30 6136 O 584.858 1.72375 -0.561842 0
M  V30 6137 C 584.906 -0.0226724 -3.60593 0
M  V30 6138 O 584.01 1.02314 -3.99507 0
M  V30 6139 H 583.351 -0.0816556 -0.65896 0
M  V30 6140 H 585.88 -0.859027 -1.85693 0
M  V30 6141 H 585.891 0.170138 -4.07645 0
M  V30 6142 H 584.566 -0.981685 -4.04148 0
M  V30 6143 H 583.143 0.805452 -3.64097 0
M  V30 6144 N 585.328 1.53329 -0.364422 0
M  V30 6145 C 586.575 2.01239 0.225634 0
M  V30 6146 C 586.903 1.25172 1.48869 0
M  V30 6147 O 586.158 0.333289 1.92841 0
M  V30 6148 C 586.457 3.52911 0.564661 0
M  V30 6149 C 586.123 4.46837 -0.603936 0
M  V30 6150 C 584.785 4.72234 -0.924585 0
M  V30 6151 C 587.137 5.02409 -1.38691 0
M  V30 6152 C 584.465 5.50454 -2.0302 0
M  V30 6153 C 586.817 5.81836 -2.48293 0
M  V30 6154 C 585.481 6.0552 -2.80894 0
M  V30 6155 H 584.751 0.736386 0.0825654 0
M  V30 6156 H 587.398 1.84948 -0.496645 0
M  V30 6157 H 585.703 3.67144 1.36794 0
M  V30 6158 H 587.4 3.87455 1.03344 0
M  V30 6159 H 583.99 4.27217 -0.343983 0
M  V30 6160 H 588.174 4.82735 -1.15243 0
M  V30 6161 H 583.43 5.67024 -2.28678 0
M  V30 6162 H 587.604 6.23905 -3.0938 0
M  V30 6163 H 585.231 6.65916 -3.66688 0
M  V30 6164 N 586.806 0.0935595 1.57322 0
M  V30 6165 C 588.031 -0.582324 1.99057 0
M  V30 6166 C 588.456 -1.61025 0.972242 0
M  V30 6167 O 587.814 -1.81202 -0.0594622 0
M  V30 6168 C 587.862 -1.20799 3.39765 0
M  V30 6169 O 586.966 -2.32382 3.40694 0
M  V30 6170 H 586.307 -0.147884 0.647323 0
M  V30 6171 H 588.837 0.174516 2.03854 0
M  V30 6172 H 588.847 -1.54966 3.77425 0
M  V30 6173 H 587.522 -0.454914 4.13405 0
M  V30 6174 H 586.099 -1.99845 3.14827 0
M  V30 6175 N 588.284 -1.56567 -0.180126 0
M  V30 6176 C 589.524 -1.83285 -0.904761 0
M  V30 6177 C 589.888 -0.673226 -1.7981 0
M  V30 6178 O 591.089 -0.820645 -2.55967 0
M  V30 6179 C 589.36 -3.15086 -1.68688 0
M  V30 6180 S 590.919 -3.63258 -2.46149 0
M  V30 6181 H 587.737 -0.643114 -0.303193 0
M  V30 6182 H 590.339 -1.94785 -0.167034 0
M  V30 6183 H 589.043 -3.97484 -1.02148 0
M  V30 6184 H 588.574 -3.06504 -2.46615 0
M  V30 6185 H 590.589 -3.29884 -3.70663 0
M  V30 6186 N 589.762 0.448376 -1.51087 0
M  V30 6187 C 590.712 1.54156 -1.67988 0
M  V30 6188 C 591.696 1.5178 -0.534015 0
M  V30 6189 O 592.888 1.58419 -0.789448 0
M  V30 6190 C 590.017 2.92437 -1.79822 0
M  V30 6191 C 589.103 2.99611 -3.00157 0
M  V30 6192 N 589.494 2.7655 -4.23502 0
M  V30 6193 C 587.792 3.30764 -2.99184 0
M  V30 6194 C 588.493 2.89281 -5.0467 0
M  V30 6195 N 587.469 3.20473 -4.39088 0
M  V30 6196 H 591.271 1.35061 -2.61028 0
M  V30 6197 H 588.785 0.655504 -1.48583 0
M  V30 6198 H 590.782 3.71068 -1.90037 0
M  V30 6199 H 589.442 3.1256 -0.879554 0
M  V30 6200 H 590.453 2.5169 -4.52628 0
M  V30 6201 H 587.13 3.56732 -2.16907 0
M  V30 6202 H 588.52 2.75499 -6.12821 0
M  V30 6203 N 591.24 1.41047 0.703093 0
M  V30 6204 C 592.15 1.44645 1.84703 0
M  V30 6205 C 593.166 0.337778 1.7069 0
M  V30 6206 O 594.342 0.584327 1.92737 0
M  V30 6207 C 591.407 1.31928 3.20618 0
M  V30 6208 C 590.468 2.53047 3.46794 0
M  V30 6209 C 589.701 2.40927 4.76224 0
M  V30 6210 O 589.924 1.42978 5.5219 0
M  V30 6211 O 588.858 3.30543 5.03016 0
M  V30 6212 H 592.684 2.41139 1.84624 0
M  V30 6213 H 590.269 1.22504 0.855167 0
M  V30 6214 H 592.151 1.27092 4.01778 0
M  V30 6215 H 590.826 0.385469 3.21397 0
M  V30 6216 H 589.733 2.6346 2.65593 0
M  V30 6217 H 591.066 3.45231 3.50822 0
M  V30 6218 N 592.718 -0.936591 1.26751 0
M  V30 6219 C 593.946 -1.71758 1.15355 0
M  V30 6220 C 594.361 -1.86549 -0.290683 0
M  V30 6221 O 593.718 -1.37616 -1.19868 0
M  V30 6222 C 593.769 -3.12193 1.82258 0
M  V30 6223 O 593.49 -2.98105 3.21038 0
M  V30 6224 C 594.991 -4.06485 1.76875 0
M  V30 6225 H 592.211 -0.537636 0.401483 0
M  V30 6226 H 594.755 -1.17382 1.67457 0
M  V30 6227 H 592.91 -3.63456 1.34083 0
M  V30 6228 H 593.324 -3.86824 3.54214 0
M  V30 6229 H 594.798 -5.02569 2.28316 0
M  V30 6230 H 595.275 -4.32986 0.736216 0
M  V30 6231 H 595.881 -3.61144 2.24623 0
M  V30 6232 N 594.196 -1.08629 -1.14182 0
M  V30 6233 C 595.421 -0.83902 -1.89671 0
M  V30 6234 C 595.846 0.603332 -1.78161 0
M  V30 6235 O 595.204 1.42301 -1.12339 0
M  V30 6236 C 595.252 -1.26854 -3.37551 0
M  V30 6237 O 594.356 -0.42188 -4.10236 0
M  V30 6238 H 593.697 -0.304545 -0.590041 0
M  V30 6239 H 596.227 -1.4483 -1.44518 0
M  V30 6240 H 596.237 -1.25038 -3.88368 0
M  V30 6241 H 594.912 -2.31901 -3.45246 0
M  V30 6242 H 593.489 -0.503654 -3.69483 0
M  V30 6243 N 595.674 1.31259 -0.872281 0
M  V30 6244 C 597.09 1.49283 -0.564521 0
M  V30 6245 C 597.29 1.80243 0.900807 0
M  V30 6246 O 596.346 1.88246 1.68284 0
M  V30 6247 C 597.659 2.62503 -1.46673 0
M  V30 6248 C 599.207 2.76386 -1.46901 0
M  V30 6249 C 599.682 3.92705 -2.35684 0
M  V30 6250 N 601.173 3.99995 -2.33577 0
M  V30 6251 C 601.908 4.89276 -2.98992 0
M  V30 6252 N 601.404 5.83443 -3.73585 0
M  V30 6253 N 603.197 4.82541 -2.88289 0
M  V30 6254 H 595.348 1.09432 -1.82039 0
M  V30 6255 H 597.611 0.540949 -0.77851 0
M  V30 6256 H 597.317 2.46407 -2.50951 0
M  V30 6257 H 597.191 3.58695 -1.16696 0
M  V30 6258 H 599.578 2.91894 -0.433796 0
M  V30 6259 H 599.659 1.80853 -1.80903 0
M  V30 6260 H 599.303 3.77954 -3.39283 0
M  V30 6261 H 599.233 4.87549 -1.99006 0
M  V30 6262 H 601.724 3.32624 -1.7936 0
M  V30 6263 H 602.037 6.48303 -4.20622 0
M  V30 6264 H 600.382 5.83415 -3.77694 0
M  V30 6265 H 603.573 4.07951 -2.2955 0
M  V30 6266 H 603.746 5.51916 -3.39549 0
M  V30 6267 N 597.152 0.631951 1.44375 0
M  V30 6268 C 598.399 0.136767 2.02038 0
M  V30 6269 C 598.727 -1.24168 1.49709 0
M  V30 6270 O 597.982 -1.83809 0.671763 0
M  V30 6271 C 598.281 0.0735861 3.57324 0
M  V30 6272 C 597.947 1.39092 4.28911 0
M  V30 6273 C 596.609 1.75171 4.48184 0
M  V30 6274 C 598.961 2.26042 4.69632 0
M  V30 6275 C 596.289 2.97907 5.05439 0
M  V30 6276 C 598.641 3.4805 5.28246 0
M  V30 6277 C 597.305 3.84351 5.45738 0
M  V30 6278 H 596.575 0.0500466 0.739308 0
M  V30 6279 H 599.222 0.818429 1.7313 0
M  V30 6280 H 597.527 -0.691449 3.8565 0
M  V30 6281 H 599.224 -0.326091 3.99672 0
M  V30 6282 H 595.814 1.10015 4.1424 0
M  V30 6283 H 599.998 1.99463 4.54454 0
M  V30 6284 H 595.254 3.26108 5.17169 0
M  V30 6285 H 599.428 4.15658 5.5875 0
M  V30 6286 H 597.055 4.79538 5.8987 0
M  V30 6287 N 598.631 -1.53133 0.372548 0
M  V30 6288 C 599.856 -2.0625 -0.218098 0
M  V30 6289 C 600.281 -1.24375 -1.41111 0
M  V30 6290 O 599.639 -0.264554 -1.79359 0
M  V30 6291 C 599.687 -3.55858 -0.582876 0
M  V30 6292 O 598.791 -3.76667 -1.67917 0
M  V30 6293 H 598.132 -0.663317 -0.030104 0
M  V30 6294 H 600.662 -1.97477 0.535169 0
M  V30 6295 H 600.672 -3.99007 -0.851925 0
M  V30 6296 H 599.347 -4.14892 0.289428 0
M  V30 6297 H 597.924 -3.45413 -1.40513 0
M  V30 6298 N 600.109 -0.101901 -1.5727 0
M  V30 6299 C 601.072 0.840129 -2.13247 0
M  V30 6300 C 602.072 1.20625 -1.06331 0
M  V30 6301 O 603.262 1.13456 -1.32186 0
M  V30 6302 C 600.394 2.13372 -2.65867 0
M  V30 6303 H 601.587 0.353945 -2.97804 0
M  V30 6304 H 599.14 0.147167 -1.55606 0
M  V30 6305 H 599.875 2.66461 -1.84849 0
M  V30 6306 H 599.66 1.88085 -3.44044 0
M  V30 6307 H 601.15 2.80748 -3.09145 0
M  V30 6308 N 601.587 1.56661 0.17182 0
M  V30 6309 C 602.836 1.81158 0.886831 0
M  V30 6310 C 603.149 0.679072 1.83434 0
M  V30 6311 O 604.355 0.808964 2.59168 0
M  V30 6312 C 602.811 3.20999 1.6275 0
M  V30 6313 C 602.419 4.42117 0.723652 0
M  V30 6314 C 604.163 3.5479 2.33076 0
M  V30 6315 C 602.07 5.7298 1.46452 0
M  V30 6316 H 601 0.675543 0.334899 0
M  V30 6317 H 603.651 1.82967 0.139765 0
M  V30 6318 H 602.033 3.13506 2.4193 0
M  V30 6319 H 603.207 4.60789 -0.0311485 0
M  V30 6320 H 601.522 4.16197 0.130063 0
M  V30 6321 H 604.119 4.49806 2.89099 0
M  V30 6322 H 604.462 2.79646 3.08389 0
M  V30 6323 H 604.995 3.63834 1.6084 0
M  V30 6324 H 601.734 6.51152 0.753729 0
M  V30 6325 H 601.254 5.58285 2.19266 0
M  V30 6326 H 602.933 6.14916 2.01214 0
M  V30 6327 N 603.065 -0.440357 1.51323 0
M  V30 6328 C 604.305 -1.19956 1.65499 0
M  V30 6329 C 604.669 -1.88559 0.361878 0
M  V30 6330 O 605.87 -2.66109 0.379383 0
M  V30 6331 C 604.141 -2.1918 2.82303 0
M  V30 6332 S 605.7 -3.03627 3.1679 0
M  V30 6333 H 602.518 -0.406833 0.583102 0
M  V30 6334 H 605.12 -0.491596 1.89218 0
M  V30 6335 H 603.824 -1.67414 3.74701 0
M  V30 6336 H 603.355 -2.94561 2.60763 0
M  V30 6337 H 605.37 -4.20773 2.62991 0
M  V30 6338 N 604.543 -1.41418 -0.695603 0
M  V30 6339 C 605.475 -1.39195 -1.82092 0
M  V30 6340 C 606.488 -0.294132 -1.60121 0
M  V30 6341 O 607.677 -0.555854 -1.69625 0
M  V30 6342 C 604.777 -1.14828 -3.18854 0
M  V30 6343 C 603.95 -2.36649 -3.67853 0
M  V30 6344 C 603.009 -2.08139 -4.83285 0
M  V30 6345 O 602.035 -2.81177 -4.94902 0
M  V30 6346 N 603.237 -1.07162 -5.70523 0
M  V30 6347 H 606.002 -2.36185 -1.84491 0
M  V30 6348 H 603.563 -1.3603 -0.877923 0
M  V30 6349 H 605.555 -0.937075 -3.93702 0
M  V30 6350 H 604.125 -0.264358 -3.1148 0
M  V30 6351 H 603.345 -2.73472 -2.83913 0
M  V30 6352 H 604.633 -3.17816 -3.97329 0
M  V30 6353 H 604.031 -0.467124 -5.63768 0
M  V30 6354 H 602.588 -0.920311 -6.4527 0
M  V30 6355 N 606.021 0.929856 -1.27246 0
M  V30 6356 C 607.269 1.674 -1.13233 0
M  V30 6357 C 607.59 1.92311 0.322744 0
M  V30 6358 O 606.86 1.52784 1.22612 0
M  V30 6359 H 605.44 0.620411 -0.416052 0
M  V30 6360 H 608.102 1.11663 -1.59741 0
M  V30 6361 H 607.198 2.64308 -1.65975 0
M  V30 6362 N 607.499 1.09233 1.13605 0
M  V30 6363 C 608.776 0.739633 1.81077 0
M  V30 6364 C 609.156 -0.775595 1.96336 0
M  V30 6365 O 608.504 -1.69726 1.52988 0
M  V30 6366 C 608.714 1.47636 3.16235 0
M  V30 6367 C 610.062 1.64087 3.91613 0
M  V30 6368 O 611.086 1.43871 3.25852 0
M  V30 6369 O 609.945 1.97511 5.0956 0
M  V30 6370 H 607.039 0.265464 0.783236 0
M  V30 6371 H 609.585 1.19441 1.20549 0
M  V30 6372 H 608.357 2.50818 3.00344 0
M  V30 6373 H 607.98 1.01362 3.84462 0
M  V30 6374 N 608.977 -1.30795 0.87923 0
M  V30 6375 C 610.225 -1.95974 0.493809 0
M  V30 6376 C 610.546 -1.69787 -0.959021 0
M  V30 6377 O 609.816 -1.01832 -1.67353 0
M  V30 6378 H 608.396 -0.725083 0.179622 0
M  V30 6379 H 611.058 -1.59432 1.12105 0
M  V30 6380 H 610.154 -3.05058 0.659263 0
M  V30 6381 N 610.455 -0.639598 -1.44038 0
M  V30 6382 C 611.683 -0.154811 -2.0632 0
M  V30 6383 C 612.098 1.17406 -1.47856 0
M  V30 6384 O 611.455 1.72193 -0.604638 0
M  V30 6385 C 611.506 -0.0429958 -3.61474 0
M  V30 6386 O 611.227 -1.31932 -4.17763 0
M  V30 6387 C 612.728 0.469486 -4.40807 0
M  V30 6388 H 609.948 -0.0835862 -0.665773 0
M  V30 6389 H 612.492 -0.876397 -1.84769 0
M  V30 6390 H 610.647 0.629075 -3.82258 0
M  V30 6391 H 611.061 -1.16965 -5.11292 0
M  V30 6392 H 612.535 0.496712 -5.49761 0
M  V30 6393 H 613.012 1.49819 -4.12857 0
M  V30 6394 H 613.618 -0.169624 -4.24962 0
M  V30 6395 N 611.933 1.52934 -0.380664 0
M  V30 6396 C 613.179 2.02443 0.197089 0
M  V30 6397 C 613.534 1.26249 1.45186 0
M  V30 6398 O 612.827 0.351964 1.8834 0
M  V30 6399 C 613.021 3.5349 0.527199 0
M  V30 6400 C 612.85 4.44312 -0.694027 0
M  V30 6401 C 611.62 4.90582 -1.21068 0
M  V30 6402 C 613.818 4.8995 -1.56377 0
M  V30 6403 N 611.8 5.65451 -2.39036 0
M  V30 6404 C 613.171 5.63313 -2.58995 0
M  V30 6405 C 615.226 4.72002 -1.58488 0
M  V30 6406 C 613.929 6.20635 -3.63599 0
M  V30 6407 C 615.955 5.30201 -2.61995 0
M  V30 6408 C 615.317 6.03463 -3.63335 0
M  V30 6409 H 611.416 0.781241 0.0344357 0
M  V30 6410 H 614 1.87387 -0.528609 0
M  V30 6411 H 612.171 3.68677 1.22196 0
M  V30 6412 H 613.903 3.89707 1.09135 0
M  V30 6413 H 610.658 4.67249 -0.772995 0
M  V30 6414 H 611.082 6.07541 -2.98701 0
M  V30 6415 H 615.724 4.14873 -0.814891 0
M  V30 6416 H 613.442 6.76852 -4.41472 0
M  V30 6417 H 617.028 5.182 -2.645 0
M  V30 6418 H 615.908 6.47693 -4.42113 0
M  V30 6419 N 613.412 0.11024 1.57214 0
M  V30 6420 C 614.637 -0.561179 1.99664 0
M  V30 6421 C 615.062 -1.59985 0.989266 0
M  V30 6422 O 614.42 -1.81255 -0.0402399 0
M  V30 6423 C 614.468 -1.17189 3.41027 0
M  V30 6424 O 613.572 -2.28755 3.4314 0
M  V30 6425 H 612.913 -0.14101 0.648855 0
M  V30 6426 H 615.443 0.196128 2.03658 0
M  V30 6427 H 615.453 -1.50954 3.79047 0
M  V30 6428 H 614.128 -0.411041 4.13864 0
M  V30 6429 H 612.705 -1.96495 3.16929 0
M  V30 6430 N 614.89 -1.56749 -0.16351 0
M  V30 6431 C 616.301 -1.72039 -0.725216 0
M  V30 6432 C 616.652 -0.72202 -1.82432 0
M  V30 6433 O 615.777 0.114942 -2.16095 0
M  V30 6434 C 616.372 -3.11932 -1.32227 0
M  V30 6435 C 614.931 -3.28879 -1.83072 0
M  V30 6436 C 614.078 -2.67984 -0.712716 0
M  V30 6437 H 617.029 -1.58579 0.0619772 0
M  V30 6438 H 617.05 -3.11015 -2.19202 0
M  V30 6439 H 616.562 -3.84572 -0.522103 0
M  V30 6440 H 614.663 -2.61209 -2.65708 0
M  V30 6441 H 614.776 -4.36688 -1.97079 0
M  V30 6442 H 613.14 -2.28005 -1.13515 0
M  V30 6443 H 613.923 -3.43216 0.0757361 0
M  V30 6444 N 616.368 0.432326 -1.51554 0
M  V30 6445 C 617.784 0.769195 -1.39841 0
M  V30 6446 C 617.984 1.95584 -0.484675 0
M  V30 6447 O 617.04 2.52433 0.0582829 0
M  V30 6448 C 618.353 1.04487 -2.81963 0
M  V30 6449 C 619.901 1.149 -2.91148 0
M  V30 6450 C 620.376 1.45758 -4.34187 0
M  V30 6451 N 621.867 1.52671 -4.37317 0
M  V30 6452 C 622.602 1.78129 -5.4503 0
M  V30 6453 N 622.098 2.01345 -6.62897 0
M  V30 6454 N 623.891 1.79953 -5.32516 0
M  V30 6455 H 616.042 -0.349122 -2.09511 0
M  V30 6456 H 618.305 -0.0938113 -0.943347 0
M  V30 6457 H 618.011 0.24557 -3.50842 0
M  V30 6458 H 617.885 1.97119 -3.21596 0
M  V30 6459 H 620.272 1.93891 -2.22464 0
M  V30 6460 H 620.353 0.201568 -2.55005 0
M  V30 6461 H 619.997 0.672917 -5.03423 0
M  V30 6462 H 619.927 2.41715 -4.67848 0
M  V30 6463 H 622.418 1.36612 -3.52343 0
M  V30 6464 H 622.731 2.20155 -7.40778 0
M  V30 6465 H 621.076 1.98657 -6.66003 0
M  V30 6466 H 624.267 1.61337 -4.39418 0
M  V30 6467 H 624.44 1.99455 -6.1654 0
M  V30 6468 N 617.846 1.41785 0.688094 0
M  V30 6469 C 619.074 1.44915 1.47673 0
M  V30 6470 C 619.489 0.0565786 1.88715 0
M  V30 6471 O 618.846 -0.92579 1.57275 0
M  V30 6472 C 618.897 2.36452 2.73446 0
M  V30 6473 O 618.618 3.7029 2.34131 0
M  V30 6474 C 620.119 2.48463 3.67125 0
M  V30 6475 H 617.339 0.493324 0.454832 0
M  V30 6476 H 619.883 1.86153 0.846594 0
M  V30 6477 H 618.038 1.98502 3.3268 0
M  V30 6478 H 618.452 4.19183 3.15255 0
M  V30 6479 H 619.926 3.16662 4.52138 0
M  V30 6480 H 620.403 1.51826 4.12123 0
M  V30 6481 H 621.009 2.8708 3.13792 0
M  V30 6482 N 619.324 -0.923095 1.27737 0
M  V30 6483 C 620.735 -1.48626 1.12993 0
M  V30 6484 C 621.086 -1.94142 -0.283439 0
M  V30 6485 O 620.211 -1.81605 -1.17681 0
M  V30 6486 C 620.806 -2.70117 2.04505 0
M  V30 6487 C 619.365 -3.22642 1.93853 0
M  V30 6488 C 618.512 -1.95368 1.96791 0
M  V30 6489 H 621.463 -0.736737 1.40563 0
M  V30 6490 H 621.484 -3.4506 1.60356 0
M  V30 6491 H 620.996 -2.36959 3.07363 0
M  V30 6492 H 619.097 -3.60549 0.939968 0
M  V30 6493 H 619.21 -3.88525 2.80331 0
M  V30 6494 H 617.574 -2.12061 1.41076 0
M  V30 6495 H 618.357 -1.64517 3.01312 0
M  V30 6496 N 620.802 -1.09834 -1.13024 0
M  V30 6497 C 622.027 -0.85909 -1.88771 0
M  V30 6498 C 622.452 0.584402 -1.78791 0
M  V30 6499 O 621.81 1.41101 -1.13842 0
M  V30 6500 C 621.858 -1.30427 -3.36186 0
M  V30 6501 O 620.962 -0.465368 -4.09766 0
M  V30 6502 H 620.303 -0.310786 -0.586778 0
M  V30 6503 H 622.833 -1.46355 -1.42973 0
M  V30 6504 H 622.843 -1.2915 -3.8702 0
M  V30 6505 H 621.518 -2.3555 -3.42767 0
M  V30 6506 H 620.095 -0.542814 -3.68928 0
M  V30 6507 N 622.28 1.30327 -0.886154 0
M  V30 6508 C 623.52 1.97886 -0.511912 0
M  V30 6509 C 623.884 1.68417 0.921944 0
M  V30 6510 O 625.085 2.29319 1.40237 0
M  V30 6511 C 623.356 3.48775 -0.780444 0
M  V30 6512 S 624.915 4.35844 -0.508482 0
M  V30 6513 H 621.733 0.685024 -0.190428 0
M  V30 6514 H 624.335 1.58413 -1.14567 0
M  V30 6515 H 623.039 3.67714 -1.82248 0
M  V30 6516 H 622.57 3.93171 -0.134284 0
M  V30 6517 H 624.585 4.91893 0.65239 0
M  V30 6518 N 623.758 0.647228 1.43697 0
M  V30 6519 C 625.006 0.157876 2.01482 0
M  V30 6520 C 625.327 -1.23039 1.51282 0
M  V30 6521 O 624.597 -1.82071 0.722982 0
M  V30 6522 H 623.177 0.0553745 0.744945 0
M  V30 6523 H 625.839 0.83755 1.75986 0
M  V30 6524 H 624.935 0.137895 3.11795 0
M  V30 6525 N 625.236 -1.5273 0.388769 0
M  V30 6526 C 626.513 -1.93981 -0.251133 0
M  V30 6527 C 626.893 -1.32418 -1.64404 0
M  V30 6528 O 626.241 -0.492074 -2.23139 0
M  V30 6529 C 626.451 -3.47891 -0.27802 0
M  V30 6530 C 627.799 -4.21559 -0.507229 0
M  V30 6531 O 628.823 -3.54394 -0.358252 0
M  V30 6532 O 627.682 -5.40626 -0.799094 0
M  V30 6533 H 624.776 -0.812157 -0.15598 0
M  V30 6534 H 627.322 -1.63809 0.443237 0
M  V30 6535 H 626.094 -3.8503 0.697669 0
M  V30 6536 H 625.717 -3.84364 -1.01733 0
M  V30 6537 N 626.714 -0.118576 -1.57153 0
M  V30 6538 C 627.963 0.539339 -1.94355 0
M  V30 6539 C 628.276 1.67858 -1.00415 0
M  V30 6540 O 629.482 2.39922 -1.27081 0
M  V30 6541 C 627.938 1.01082 -3.45414 0
M  V30 6542 C 627.546 -0.0999402 -4.47889 0
M  V30 6543 C 629.29 1.64013 -3.91535 0
M  V30 6544 C 627.197 0.388212 -5.90124 0
M  V30 6545 H 626.127 0.205247 -0.725527 0
M  V30 6546 H 628.778 -0.19836 -1.82425 0
M  V30 6547 H 627.16 1.80292 -3.52577 0
M  V30 6548 H 628.334 -0.876189 -4.52393 0
M  V30 6549 H 626.649 -0.635885 -4.11516 0
M  V30 6550 H 629.246 2.01649 -4.95219 0
M  V30 6551 H 629.589 2.51836 -3.31488 0
M  V30 6552 H 630.122 0.913439 -3.87171 0
M  V30 6553 H 626.861 -0.453963 -6.53926 0
M  V30 6554 H 626.381 1.13095 -5.89041 0
M  V30 6555 H 628.06 0.849574 -6.41398 0
M  V30 6556 N 628.193 1.56834 0.155195 0
M  V30 6557 C 629.433 1.84701 0.875488 0
M  V30 6558 C 629.797 0.701747 1.78716 0
M  V30 6559 O 630.998 0.861263 2.54629 0
M  V30 6560 C 629.269 3.1773 1.63654 0
M  V30 6561 S 630.828 3.67128 2.40338 0
M  V30 6562 H 627.646 0.647856 0.292923 0
M  V30 6563 H 630.248 1.95026 0.136024 0
M  V30 6564 H 628.952 3.99059 0.958117 0
M  V30 6565 H 628.483 3.10388 2.41708 0
M  V30 6566 H 630.498 3.35739 3.65368 0
M  V30 6567 N 629.671 -0.424282 1.51781 0
M  V30 6568 C 630.619 -1.53649 1.74628 0
M  V30 6569 C 631.613 -1.57923 0.612922 0
M  V30 6570 O 632.819 -1.61511 0.794618 0
M  V30 6571 H 629.194 -0.510706 0.551981 0
M  V30 6572 H 631.165 -1.31558 2.67834 0
M  V30 6573 C 629.914 -2.91177 1.9003 0
M  V30 6574 H 629.237 -2.88625 2.76651 0
M  V30 6575 H 630.677 -3.6833 2.10021 0
M  V30 6576 C 629.136 -3.30303 0.663435 0
M  V30 6577 O 629.666 -4.01315 -0.175812 0
M  V30 6578 N 627.872 -2.86201 0.503723 0
M  V30 6579 H 627.419 -2.28583 1.18776 0
M  V30 6580 H 627.377 -3.12741 -0.322575 0
M  V30 6581 N 631.149 -1.42148 -0.680565 0
M  V30 6582 C 632.396 -1.4231 -1.44063 0
M  V30 6583 C 632.724 -0.037488 -1.94464 0
M  V30 6584 O 631.979 0.953184 -1.70918 0
M  V30 6585 C 632.278 -2.38945 -2.65782 0
M  V30 6586 C 631.944 -3.85455 -2.33956 0
M  V30 6587 C 630.606 -4.25364 -2.24987 0
M  V30 6588 C 632.958 -4.77895 -2.08004 0
M  V30 6589 C 630.286 -5.55701 -1.88184 0
M  V30 6590 C 632.638 -6.08568 -1.72706 0
M  V30 6591 C 631.302 -6.47482 -1.62244 0
M  V30 6592 H 630.572 -0.520748 -0.527164 0
M  V30 6593 H 633.219 -1.7505 -0.776524 0
M  V30 6594 H 631.524 -1.99511 -3.37198 0
M  V30 6595 H 633.221 -2.36336 -3.23954 0
M  V30 6596 H 629.811 -3.53855 -2.41836 0
M  V30 6597 H 633.995 -4.47854 -2.1387 0
M  V30 6598 H 629.251 -5.84718 -1.78648 0
M  V30 6599 H 633.425 -6.79688 -1.5165 0
M  V30 6600 H 631.052 -7.48387 -1.33496 0
M  V30 6601 N 632.627 0.916307 -1.28225 0
M  V30 6602 C 634.038 1.48024 -1.13779 0
M  V30 6603 C 634.389 1.94289 0.273139 0
M  V30 6604 O 633.514 1.82226 1.16716 0
M  V30 6605 C 634.109 2.69029 -2.05935 0
M  V30 6606 C 632.668 3.2161 -1.95561 0
M  V30 6607 C 631.815 1.94321 -1.97825 0
M  V30 6608 H 634.766 0.729272 -1.40951 0
M  V30 6609 H 634.787 3.44204 -1.62184 0
M  V30 6610 H 634.299 2.35325 -3.08616 0
M  V30 6611 H 632.4 3.60045 -0.959076 0
M  V30 6612 H 632.513 3.87032 -2.82388 0
M  V30 6613 H 630.877 2.1131 -1.42198 0
M  V30 6614 H 631.66 1.62917 -3.0218 0
M  V30 6615 N 634.105 1.10431 1.1244 0
M  V30 6616 C 635.516 0.864439 1.65482 0
M  V30 6617 C 635.867 -0.60527 1.8663 0
M  V30 6618 O 634.992 -1.46492 1.59276 0
M  V30 6619 C 635.587 1.56267 3.0061 0
M  V30 6620 C 634.146 1.3695 3.50602 0
M  V30 6621 C 633.293 1.61209 2.25626 0
M  V30 6622 H 636.244 1.26203 0.962209 0
M  V30 6623 H 636.265 1.00166 3.67079 0
M  V30 6624 H 635.777 2.63231 2.85186 0
M  V30 6625 H 633.878 0.321481 3.71211 0
M  V30 6626 H 633.991 2.11143 4.30064 0
M  V30 6627 H 632.355 1.03482 2.32731 0
M  V30 6628 H 633.138 2.69425 2.12756 0
M  V30 6629 N 635.583 -1.29855 0.893053 0
M  V30 6630 C 636.53 -2.27909 0.364161 0
M  V30 6631 C 637.5 -1.56726 -0.550093 0
M  V30 6632 O 638.685 -1.84747 -0.47677 0
M  V30 6633 C 635.825 -3.42678 -0.408178 0
M  V30 6634 C 634.938 -4.28659 0.536212 0
M  V30 6635 C 634.073 -5.30599 -0.252521 0
M  V30 6636 C 633.112 -6.08234 0.686822 0
M  V30 6637 N 632.249 -7.02068 -0.0670902 0
M  V30 6638 H 637.089 -2.72531 1.20544 0
M  V30 6639 H 634.626 -1.34047 0.605779 0
M  V30 6640 H 636.584 -4.07986 -0.871962 0
M  V30 6641 H 635.214 -2.99103 -1.21397 0
M  V30 6642 H 634.266 -3.63584 1.1185 0
M  V30 6643 H 635.578 -4.8274 1.25552 0
M  V30 6644 H 634.732 -6.01694 -0.777801 0
M  V30 6645 H 633.471 -4.77233 -1.005 0
M  V30 6646 H 632.476 -5.3601 1.22366 0
M  V30 6647 H 633.701 -6.63689 1.43852 0
M  V30 6648 H 631.647 -6.5108 -0.801955 0
M  V30 6649 H 631.564 -7.53675 0.59243 0
M  V30 6650 H 632.832 -7.77392 -0.572851 0
M  V30 6651 N 637.061 -0.65484 -1.43351 0
M  V30 6652 C 638.31 -0.166215 -2.01014 0
M  V30 6653 C 638.623 1.22764 -1.52278 0
M  V30 6654 O 639.829 1.81156 -2.02224 0
M  V30 6655 C 638.285 -0.246341 -3.59056 0
M  V30 6656 C 637.893 -1.64299 -4.16785 0
M  V30 6657 C 639.637 0.184597 -4.24098 0
M  V30 6658 C 637.544 -1.67695 -5.67126 0
M  V30 6659 H 636.474 -0.0583769 -0.751737 0
M  V30 6660 H 639.125 -0.817111 -1.64303 0
M  V30 6661 H 637.507 0.472092 -3.93176 0
M  V30 6662 H 638.681 -2.3869 -3.94162 0
M  V30 6663 H 636.996 -2.02004 -3.6412 0
M  V30 6664 H 639.593 0.179088 -5.344 0
M  V30 6665 H 639.936 1.21632 -3.98135 0
M  V30 6666 H 640.469 -0.482141 -3.94867 0
M  V30 6667 H 637.208 -2.68783 -5.9786 0
M  V30 6668 H 636.728 -0.976313 -5.91801 0
M  V30 6669 H 638.407 -1.42142 -6.31193 0
M  V30 6670 N 638.539 1.52521 -0.396863 0
M  V30 6671 C 639.502 2.2527 0.422604 0
M  V30 6672 C 640.502 1.27184 0.983913 0
M  V30 6673 O 641.692 1.51222 0.864723 0
M  V30 6674 C 638.824 3.01356 1.59365 0
M  V30 6675 H 640.017 2.99133 -0.214416 0
M  V30 6676 H 637.57 1.55587 -0.149128 0
M  V30 6677 H 638.305 2.31813 2.26789 0
M  V30 6678 H 638.09 3.73357 1.19779 0
M  V30 6679 H 639.58 3.56571 2.17363 0
M  V30 6680 N 640.017 0.126909 1.57088 0
M  V30 6681 C 640.967 -0.831678 2.1229 0
M  V30 6682 C 641.951 -1.22292 1.04564 0
M  V30 6683 O 643.143 -1.19269 1.30782 0
M  V30 6684 C 640.272 -2.07866 2.73215 0
M  V30 6685 C 639.358 -1.71143 3.88035 0
M  V30 6686 N 639.749 -1.05136 4.94753 0
M  V30 6687 C 638.047 -2.00549 3.98367 0
M  V30 6688 C 638.748 -0.877257 5.75047 0
M  V30 6689 N 637.724 -1.40477 5.25135 0
M  V30 6690 H 641.526 -0.317926 2.92175 0
M  V30 6691 H 639.04 -0.0753052 1.62225 0
M  V30 6692 H 641.037 -2.77516 3.11111 0
M  V30 6693 H 639.697 -2.59778 1.94796 0
M  V30 6694 H 640.708 -0.71442 5.12949 0
M  V30 6695 H 637.385 -2.54452 3.30999 0
M  V30 6696 H 638.775 -0.358536 6.70943 0
M  V30 6697 N 641.495 -1.56914 -0.146875 0
M  V30 6698 C 642.743 -1.82994 -0.85777 0
M  V30 6699 C 643.064 -0.707814 -1.817 0
M  V30 6700 O 642.334 0.270521 -1.94023 0
M  V30 6701 H 640.914 -0.675106 -0.319751 0
M  V30 6702 H 643.576 -1.9439 -0.140849 0
M  V30 6703 H 642.672 -2.77928 -1.41994 0
M  V30 6704 N 642.974 0.416227 -1.52004 0
M  V30 6705 C 643.924 1.50558 -1.7122 0
M  V30 6706 C 644.908 1.50613 -0.56609 0
M  V30 6707 O 646.1 1.56709 -0.822874 0
M  V30 6708 C 643.229 2.88556 -1.85984 0
M  V30 6709 C 642.315 2.93177 -3.06445 0
M  V30 6710 N 642.706 2.67505 -4.29272 0
M  V30 6711 C 641.004 3.24343 -3.06133 0
M  V30 6712 C 641.705 2.78511 -5.10692 0
M  V30 6713 N 640.681 3.11087 -4.45787 0
M  V30 6714 H 644.483 1.29494 -2.63834 0
M  V30 6715 H 641.997 0.62384 -1.4994 0
M  V30 6716 H 643.994 3.66954 -1.97865 0
M  V30 6717 H 642.654 3.10624 -0.945654 0
M  V30 6718 H 643.665 2.42033 -4.57865 0
M  V30 6719 H 640.342 3.52051 -2.24425 0
M  V30 6720 H 641.732 2.62438 -6.18527 0
M  V30 6721 N 644.452 1.42507 0.673017 0
M  V30 6722 C 645.682 1.46261 1.45916 0
M  V30 6723 C 646.09 0.0729724 1.89059 0
M  V30 6724 O 645.433 -0.922987 1.58829 0
M  V30 6725 C 645.495 2.32853 2.73898 0
M  V30 6726 C 645.159 3.80699 2.52819 0
M  V30 6727 C 646.156 4.72307 2.17306 0
M  V30 6728 C 643.841 4.24983 2.67758 0
M  V30 6729 C 645.835 6.06192 1.97003 0
M  V30 6730 C 643.522 5.58927 2.4707 0
M  V30 6731 C 644.52 6.49348 2.11746 0
M  V30 6732 O 644.208 7.80817 1.91259 0
M  V30 6733 H 643.94 0.499561 0.455428 0
M  V30 6734 H 646.494 1.87697 0.834196 0
M  V30 6735 H 644.724 1.86268 3.38882 0
M  V30 6736 H 646.413 2.28041 3.35786 0
M  V30 6737 H 647.179 4.39378 2.05359 0
M  V30 6738 H 643.058 3.54893 2.94231 0
M  V30 6739 H 646.602 6.76731 1.69355 0
M  V30 6740 H 642.499 5.91429 2.58615 0
M  V30 6741 H 643.267 7.92194 2.05843 0
M  V30 6742 N 645.93 -0.909495 1.28709 0
M  V30 6743 C 646.877 -2.01245 1.13 0
M  V30 6744 C 647.847 -1.6608 0.0259684 0
M  V30 6745 O 649.032 -1.89835 0.191687 0
M  V30 6746 C 646.172 -3.35644 0.802315 0
M  V30 6747 C 645.285 -3.83653 1.98582 0
M  V30 6748 C 644.42 -5.06582 1.59837 0
M  V30 6749 C 643.459 -5.46934 2.74827 0
M  V30 6750 N 642.596 -6.61053 2.36546 0
M  V30 6751 H 647.436 -2.14013 2.0737 0
M  V30 6752 H 644.973 -1.0482 1.03205 0
M  V30 6753 H 646.931 -4.12963 0.593057 0
M  V30 6754 H 645.561 -3.22631 -0.104457 0
M  V30 6755 H 644.613 -3.02454 2.30708 0
M  V30 6756 H 645.925 -4.09515 2.84779 0
M  V30 6757 H 645.079 -5.91457 1.35143 0
M  V30 6758 H 643.818 -4.82537 0.707753 0
M  V30 6759 H 642.823 -4.60599 3.00215 0
M  V30 6760 H 644.048 -5.72965 3.64538 0
M  V30 6761 H 641.994 -6.3863 1.49959 0
M  V30 6762 H 641.911 -6.86662 3.16277 0
M  V30 6763 H 643.179 -7.49221 2.15146 0
M  V30 6764 N 647.408 -1.11026 -1.11852 0
M  V30 6765 C 648.34 -0.72249 -2.17515 0
M  V30 6766 C 649.353 0.243782 -1.60964 0
M  V30 6767 O 650.542 0.0273252 -1.78479 0
M  V30 6768 C 647.642 -0.0463979 -3.38868 0
M  V30 6769 C 646.815 -1.0384 -4.24895 0
M  V30 6770 C 645.874 -0.392659 -5.24733 0
M  V30 6771 O 644.9 -1.0453 -5.5952 0
M  V30 6772 N 646.102 0.846296 -5.74298 0
M  V30 6773 H 648.867 -1.63161 -2.51393 0
M  V30 6774 H 646.428 -0.999899 -1.27333 0
M  V30 6775 H 648.42 0.397215 -4.02746 0
M  V30 6776 H 646.99 0.765231 -3.03089 0
M  V30 6777 H 646.21 -1.6601 -3.57539 0
M  V30 6778 H 647.498 -1.70968 -4.79215 0
M  V30 6779 H 646.896 1.39578 -5.4821 0
M  V30 6780 H 645.453 1.23296 -6.40032 0
M  V30 6781 N 648.886 1.2938 -0.899927 0
M  V30 6782 C 650.111 2.00228 -0.540692 0
M  V30 6783 C 650.536 1.66909 0.867359 0
M  V30 6784 O 649.894 0.893824 1.57735 0
M  V30 6785 C 649.942 3.52921 -0.740232 0
M  V30 6786 O 649.046 4.11879 0.207154 0
M  V30 6787 H 648.387 0.629505 -0.211233 0
M  V30 6788 H 650.917 1.6487 -1.21158 0
M  V30 6789 H 650.927 4.0287 -0.644973 0
M  V30 6790 H 649.602 3.76508 -1.76677 0
M  V30 6791 H 648.179 3.72845 0.0643315 0
M  V30 6792 N 650.364 0.662433 1.43002 0
M  V30 6793 C 651.589 0.186003 2.06564 0
M  V30 6794 C 652.014 -1.14314 1.49379 0
M  V30 6795 O 651.372 -1.70824 0.607346 0
M  V30 6796 C 651.42 0.118269 3.60406 0
M  V30 6797 O 650.524 -0.916859 4.02079 0
M  V30 6798 H 649.865 0.0990981 0.656563 0
M  V30 6799 H 652.395 0.907958 1.8335 0
M  V30 6800 H 652.405 -0.0619981 4.07953 0
M  V30 6801 H 651.08 1.08849 4.01403 0
M  V30 6802 H 649.657 -0.708635 3.66105 0
M  V30 6803 N 651.842 -1.52309 0.404946 0
M  V30 6804 C 653.067 -2.06666 -0.1743 0
M  V30 6805 C 653.492 -1.27341 -1.38441 0
M  V30 6806 O 652.85 -0.302539 -1.78758 0
M  V30 6807 C 652.898 -3.57014 -0.507262 0
M  V30 6808 O 652.002 -3.80144 -1.59889 0
M  V30 6809 H 651.343 -0.663807 -0.0160273 0
M  V30 6810 H 653.873 -1.96297 0.576937 0
M  V30 6811 H 653.883 -4.00724 -0.767098 0
M  V30 6812 H 652.558 -4.14184 0.377368 0
M  V30 6813 H 651.135 -3.48316 -1.33155 0
M  V30 6814 N 653.32 -0.135238 -1.57019 0
M  V30 6815 C 654.55 0.525303 -1.9981 0
M  V30 6816 C 654.958 1.59724 -1.01415 0
M  V30 6817 O 654.301 1.837 -0.00130938 0
M  V30 6818 C 654.363 1.19578 -3.3903 0
M  V30 6819 C 654.027 0.269855 -4.56203 0
M  V30 6820 C 655.024 -0.497905 -5.1751 0
M  V30 6821 C 652.709 0.176188 -5.01991 0
M  V30 6822 C 654.703 -1.3469 -6.23007 0
M  V30 6823 C 652.39 -0.676422 -6.07345 0
M  V30 6824 C 653.388 -1.43658 -6.67721 0
M  V30 6825 O 653.076 -2.27501 -7.71037 0
M  V30 6826 H 652.808 0.142296 -0.660854 0
M  V30 6827 H 655.362 -0.223272 -2.04183 0
M  V30 6828 H 653.592 1.99176 -3.3146 0
M  V30 6829 H 655.281 1.75486 -3.66005 0
M  V30 6830 H 656.047 -0.435507 -4.83041 0
M  V30 6831 H 651.926 0.757583 -4.54733 0
M  V30 6832 H 655.47 -1.9407 -6.70062 0
M  V30 6833 H 651.367 -0.740154 -6.41243 0
M  V30 6834 H 652.135 -2.20619 -7.88206 0
M  V30 6835 N 654.798 1.5699 0.138552 0
M  V30 6836 C 656.023 1.88344 0.86841 0
M  V30 6837 C 656.448 0.725159 1.7356 0
M  V30 6838 O 655.806 -0.324992 1.78363 0
M  V30 6839 C 655.854 3.18334 1.69398 0
M  V30 6840 O 654.958 3.02863 2.79907 0
M  V30 6841 H 654.299 0.618577 0.241367 0
M  V30 6842 H 656.829 2.04207 0.126826 0
M  V30 6843 H 656.839 3.50567 2.08726 0
M  V30 6844 H 655.514 4.02238 1.05725 0
M  V30 6845 H 654.091 2.82056 2.43924 0
M  V30 6846 N 656.276 -0.40816 1.52223 0
M  V30 6847 C 657.523 -1.15502 1.66329 0
M  V30 6848 C 657.851 -1.90474 0.393701 0
M  V30 6849 O 657.106 -1.85507 -0.623356 0
M  V30 6850 C 657.405 -2.17422 2.83659 0
M  V30 6851 C 657.071 -1.5925 4.21841 0
M  V30 6852 C 655.733 -1.4311 4.59427 0
M  V30 6853 C 658.085 -1.16776 5.0795 0
M  V30 6854 C 655.413 -0.830148 5.80797 0
M  V30 6855 C 657.765 -0.580988 6.29926 0
M  V30 6856 C 656.429 -0.406729 6.6626 0
M  V30 6857 H 655.699 -0.422653 0.608642 0
M  V30 6858 H 658.346 -0.442114 1.86327 0
M  V30 6859 H 656.651 -2.94861 2.58001 0
M  V30 6860 H 658.348 -2.75084 2.9177 0
M  V30 6861 H 654.938 -1.72796 3.92224 0
M  V30 6862 H 659.122 -1.28055 4.79495 0
M  V30 6863 H 654.378 -0.68316 6.07571 0
M  V30 6864 H 658.552 -0.243488 6.95974 0
M  V30 6865 H 656.179 0.0610366 7.60175 0
M  V30 6866 N 657.755 -1.42862 -0.66545 0
M  V30 6867 C 659.002 -1.4383 -1.42546 0
M  V30 6868 C 659.33 -0.0581114 -1.94413 0
M  V30 6869 O 658.585 0.935002 -1.71919 0
M  V30 6870 C 658.884 -2.4175 -2.63233 0
M  V30 6871 C 658.55 -3.87915 -2.29854 0
M  V30 6872 C 657.212 -4.27726 -2.20463 0
M  V30 6873 C 659.564 -4.80074 -2.02924 0
M  V30 6874 C 656.892 -5.57666 -1.82279 0
M  V30 6875 C 659.244 -6.10366 -1.66242 0
M  V30 6876 C 657.908 -6.49167 -1.55367 0
M  V30 6877 H 657.178 -0.52631 -0.521612 0
M  V30 6878 H 659.825 -1.75863 -0.757914 0
M  V30 6879 H 658.13 -2.03077 -3.35063 0
M  V30 6880 H 659.827 -2.39759 -3.21429 0
M  V30 6881 H 656.417 -3.564 -2.3807 0
M  V30 6882 H 660.601 -4.50097 -2.09108 0
M  V30 6883 H 655.857 -5.8658 -1.72436 0
M  V30 6884 H 660.031 -6.81258 -1.44432 0
M  V30 6885 H 657.658 -7.49761 -1.2555 0
M  V30 6886 N 659.233 0.902656 -1.29189 0
M  V30 6887 C 660.18 2.00643 -1.14066 0
M  V30 6888 C 661.15 1.66064 -0.0347756 0
M  V30 6889 O 662.335 1.8973 -0.201752 0
M  V30 6890 C 659.475 3.35214 -0.820104 0
M  V30 6891 C 658.588 3.82594 -2.00614 0
M  V30 6892 C 657.723 5.05727 -1.62522 0
M  V30 6893 C 656.762 5.45469 -2.77724 0
M  V30 6894 N 655.899 6.59789 -2.40048 0
M  V30 6895 H 660.739 2.1291 -2.08502 0
M  V30 6896 H 658.276 1.04271 -1.03759 0
M  V30 6897 H 660.234 4.12643 -0.614949 0
M  V30 6898 H 658.864 3.22682 0.0873452 0
M  V30 6899 H 657.916 3.01226 -2.32308 0
M  V30 6900 H 659.228 4.07999 -2.86946 0
M  V30 6901 H 658.382 5.90732 -1.38277 0
M  V30 6902 H 657.121 4.82155 -0.733333 0
M  V30 6903 H 656.126 4.59 -3.02653 0
M  V30 6904 H 657.351 5.71024 -3.67572 0
M  V30 6905 H 655.297 6.37826 -1.53343 0
M  V30 6906 H 655.214 6.84975 -3.19914 0
M  V30 6907 H 656.482 7.4807 -2.19116 0
M  V30 6908 N 660.711 1.11618 1.11262 0
M  V30 6909 C 661.621 0.78898 2.20935 0
M  V30 6910 C 662.637 -0.21867 1.7262 0
M  V30 6911 O 663.813 -0.0543826 2.01327 0
M  V30 6912 C 660.878 0.239014 3.45875 0
M  V30 6913 C 659.939 1.3055 4.08968 0
M  V30 6914 C 659.172 0.781687 5.27944 0
M  V30 6915 O 659.395 -0.387605 5.69082 0
M  V30 6916 O 658.329 1.54734 5.81671 0
M  V30 6917 H 662.155 1.70477 2.51339 0
M  V30 6918 H 659.74 0.892203 1.19834 0
M  V30 6919 H 661.622 -0.0632312 4.21353 0
M  V30 6920 H 660.297 -0.649454 3.17118 0
M  V30 6921 H 659.204 1.66079 3.35214 0
M  V30 6922 H 660.537 2.16743 4.41909 0
M  V30 6923 N 662.189 -1.289 0.906776 0
M  V30 6924 C 663.099 -2.31256 0.394707 0
M  V30 6925 C 664.115 -1.66231 -0.514121 0
M  V30 6926 O 665.291 -1.97347 -0.401994 0
M  V30 6927 C 662.356 -3.44792 -0.363191 0
M  V30 6928 C 661.417 -4.25391 0.578012 0
M  V30 6929 C 660.65 -5.33506 -0.143811 0
M  V30 6930 O 660.873 -5.53786 -1.36665 0
M  V30 6931 O 659.807 -5.99673 0.5173 0
M  V30 6932 H 663.633 -2.77051 1.24405 0
M  V30 6933 H 661.218 -1.33466 0.671346 0
M  V30 6934 H 663.1 -4.139 -0.791503 0
M  V30 6935 H 661.775 -3.01093 -1.18848 0
M  V30 6936 H 660.682 -3.58899 1.05558 0
M  V30 6937 H 662.015 -4.72752 1.36992 0
M  V30 6938 N 663.667 -0.670007 -1.42649 0
M  V30 6939 C 664.916 -0.187526 -2.00826 0
M  V30 6940 C 665.229 1.21142 -1.53571 0
M  V30 6941 O 666.435 1.79001 -2.04134 0
M  V30 6942 C 664.891 -0.284409 -3.58774 0
M  V30 6943 C 664.499 -1.6871 -4.15019 0
M  V30 6944 C 666.243 0.139605 -4.2427 0
M  V30 6945 C 664.15 -1.73701 -5.65316 0
M  V30 6946 H 663.08 -0.0663468 -0.751075 0
M  V30 6947 H 665.731 -0.834492 -1.63427 0
M  V30 6948 H 664.113 0.430364 -3.93655 0
M  V30 6949 H 665.287 -2.42857 -3.91608 0
M  V30 6950 H 663.602 -2.05855 -3.61957 0
M  V30 6951 H 666.199 0.122398 -5.3456 0
M  V30 6952 H 666.542 1.17403 -3.99402 0
M  V30 6953 H 667.075 -0.523995 -3.94334 0
M  V30 6954 H 663.814 -2.75109 -5.94975 0
M  V30 6955 H 663.334 -1.03903 -5.90732 0
M  V30 6956 H 665.013 -1.48829 -6.2965 0
M  V30 6957 N 665.145 1.52092 -0.413018 0
M  V30 6958 C 666.394 2.01041 0.16287 0
M  V30 6959 C 666.707 1.30288 1.45892 0
M  V30 6960 O 667.913 1.70075 2.11629 0
M  V30 6961 C 666.369 3.58283 0.340806 0
M  V30 6962 C 665.977 4.37955 -0.943377 0
M  V30 6963 C 667.721 4.15452 0.871774 0
M  V30 6964 C 665.628 5.86847 -0.732417 0
M  V30 6965 H 664.558 0.751224 0.0646414 0
M  V30 6966 H 667.209 1.75404 -0.539059 0
M  V30 6967 H 665.591 3.80266 1.10516 0
M  V30 6968 H 666.765 4.2773 -1.71418 0
M  V30 6969 H 665.08 3.92122 -1.40105 0
M  V30 6970 H 667.677 5.24375 1.0457 0
M  V30 6971 H 668.02 3.73057 1.84755 0
M  V30 6972 H 668.553 3.97452 0.166377 0
M  V30 6973 H 665.292 6.33609 -1.67986 0
M  V30 6974 H 664.812 5.998 -0.000980058 0
M  V30 6975 H 666.491 6.45906 -0.376105 0
M  V30 6976 N 666.623 0.143563 1.56945 0
M  V30 6977 C 667.853 -0.514699 2.00086 0
M  V30 6978 C 668.261 -1.59184 1.0226 0
M  V30 6979 O 667.604 -1.83697 0.0110514 0
M  V30 6980 C 667.666 -1.17778 3.39659 0
M  V30 6981 C 667.33 -0.245657 4.56339 0
M  V30 6982 C 668.327 0.525343 5.17239 0
M  V30 6983 C 666.012 -0.149564 5.02077 0
M  V30 6984 C 668.006 1.37992 6.22284 0
M  V30 6985 C 665.693 0.708621 6.06978 0
M  V30 6986 C 666.691 1.47197 6.6695 0
M  V30 6987 O 666.379 2.31586 7.6982 0
M  V30 6988 H 666.111 -0.138789 0.661599 0
M  V30 6989 H 668.665 0.234098 2.04062 0
M  V30 6990 H 666.895 -1.97415 3.32512 0
M  V30 6991 H 668.584 -1.73542 3.6693 0
M  V30 6992 H 669.35 0.461118 4.82803 0
M  V30 6993 H 665.229 -0.733457 4.55128 0
M  V30 6994 H 668.773 1.97621 6.69023 0
M  V30 6995 H 664.67 0.77415 6.40841 0
M  V30 6996 H 665.438 2.24796 7.87025 0
M  V30 6997 N 668.101 -1.57061 -0.130224 0
M  V30 6998 C 669.011 -2.02802 -1.17934 0
M  V30 6999 C 670.027 -0.946378 -1.46013 0
M  V30 7000 O 671.203 -1.25708 -1.57351 0
M  V30 7001 C 668.268 -2.41368 -2.48882 0
M  V30 7002 C 667.329 -3.63561 -2.28301 0
M  V30 7003 C 666.562 -4.00279 -3.53005 0
M  V30 7004 O 666.785 -3.37463 -4.59864 0
M  V30 7005 O 665.719 -4.93441 -3.44673 0
M  V30 7006 H 669.545 -2.92394 -0.820958 0
M  V30 7007 H 667.13 -1.45475 -0.340197 0
M  V30 7008 H 669.012 -2.66958 -3.26054 0
M  V30 7009 H 667.687 -1.54926 -2.84217 0
M  V30 7010 H 666.594 -3.43136 -1.49025 0
M  V30 7011 H 667.927 -4.50673 -1.97875 0
M  V30 7012 N 669.579 0.400081 -1.52437 0
M  V30 7013 C 670.819 1.15526 -1.68622 0
M  V30 7014 C 671.183 1.87533 -0.411744 0
M  V30 7015 O 672.384 2.6501 -0.449804 0
M  V30 7016 C 670.655 2.11618 -2.88015 0
M  V30 7017 S 672.214 2.95121 -3.24729 0
M  V30 7018 H 669.032 0.39123 -0.593683 0
M  V30 7019 H 671.634 0.441255 -1.90455 0
M  V30 7020 H 670.338 1.5742 -3.79008 0
M  V30 7021 H 669.869 2.87544 -2.68481 0
M  V30 7022 H 671.884 4.13653 -2.74055 0
M  V30 7023 N 671.057 1.43213 0.657864 0
M  V30 7024 C 672.334 1.35063 1.41483 0
M  V30 7025 C 672.714 -0.0038314 2.111 0
M  V30 7026 O 672.062 -1.02018 2.04462 0
M  V30 7027 C 672.272 2.53061 2.40335 0
M  V30 7028 C 673.62 2.9594 3.04474 0
M  V30 7029 O 674.644 2.53074 2.50663 0
M  V30 7030 O 673.503 3.70184 4.02027 0
M  V30 7031 H 670.597 0.533517 0.631893 0
M  V30 7032 H 673.143 1.55253 0.685162 0
M  V30 7033 H 671.915 3.43283 1.87809 0
M  V30 7034 H 671.538 2.34945 3.20759 0
M  V30 7035 N 672.536 -0.895792 1.29666 0
M  V30 7036 C 673.483 -2.00035 1.15129 0
M  V30 7037 C 674.453 -1.66043 0.0435819 0
M  V30 7038 O 675.638 -1.89621 0.211811 0
M  V30 7039 C 672.778 -3.34774 0.83787 0
M  V30 7040 C 671.891 -3.81525 2.0264 0
M  V30 7041 C 671.026 -5.04858 1.65201 0
M  V30 7042 C 670.065 -5.43988 2.80612 0
M  V30 7043 N 669.202 -6.58507 2.43544 0
M  V30 7044 H 674.042 -2.11802 2.09628 0
M  V30 7045 H 671.579 -1.03719 1.04311 0
M  V30 7046 H 673.537 -4.12311 0.636824 0
M  V30 7047 H 672.167 -3.22724 -0.0702314 0
M  V30 7048 H 671.219 -2.9999 2.33903 0
M  V30 7049 H 672.531 -4.06472 2.89106 0
M  V30 7050 H 671.685 -5.8999 1.41408 0
M  V30 7051 H 670.424 -4.81759 0.758893 0
M  V30 7052 H 669.429 -4.57388 3.05083 0
M  V30 7053 H 670.654 -5.69066 3.70595 0
M  V30 7054 H 668.6 -6.37004 1.56724 0
M  V30 7055 H 668.517 -6.83269 3.23542 0
M  V30 7056 H 669.785 -7.46897 2.2308 0
M  V30 7057 N 674.014 -1.12206 -1.10668 0
M  V30 7058 C 675.262 -0.874144 -1.82217 0
M  V30 7059 C 675.583 0.601736 -1.85484 0
M  V30 7060 O 674.853 1.43725 -1.33116 0
M  V30 7061 H 673.433 -0.320404 -0.674797 0
M  V30 7062 H 676.095 -1.41606 -1.33917 0
M  V30 7063 H 675.191 -1.25349 -2.85822 0
M  V30 7064 N 675.492 1.28418 -0.913599 0
M  V30 7065 C 676.722 1.98817 -0.56172 0
M  V30 7066 C 677.13 1.68457 0.861321 0
M  V30 7067 O 676.473 0.933653 1.58204 0
M  V30 7068 C 676.535 3.52801 -0.690785 0
M  V30 7069 C 676.199 4.0675 -2.08334 0
M  V30 7070 C 677.196 4.20597 -3.05604 0
M  V30 7071 C 674.881 4.41445 -2.39648 0
M  V30 7072 C 676.875 4.68392 -4.32305 0
M  V30 7073 C 674.562 4.88934 -3.66588 0
M  V30 7074 C 675.56 5.02364 -4.6273 0
M  V30 7075 O 675.248 5.48817 -5.87414 0
M  V30 7076 H 674.98 0.641608 -0.212874 0
M  V30 7077 H 677.534 1.64584 -1.22887 0
M  V30 7078 H 675.764 3.86686 0.0334336 0
M  V30 7079 H 677.453 4.04422 -0.346031 0
M  V30 7080 H 678.219 3.94067 -2.8273 0
M  V30 7081 H 674.098 4.30242 -1.65567 0
M  V30 7082 H 677.642 4.7879 -5.07352 0
M  V30 7083 H 673.539 5.14904 -3.89287 0
M  V30 7084 H 674.307 5.67103 -5.90201 0
M  V30 7085 N 676.97 0.677563 1.42291 0
M  V30 7086 C 678.219 0.198173 2.00724 0
M  V30 7087 C 678.532 -1.20325 1.54211 0
M  V30 7088 O 679.738 -1.77916 2.05081 0
M  V30 7089 C 678.194 0.303432 3.58619 0
M  V30 7090 C 677.802 1.70909 4.14119 0
M  V30 7091 C 679.546 -0.117103 4.24338 0
M  V30 7092 C 677.453 1.76696 5.64387 0
M  V30 7093 H 676.383 0.070329 0.750713 0
M  V30 7094 H 679.034 0.843147 1.62982 0
M  V30 7095 H 677.416 -0.409482 3.93877 0
M  V30 7096 H 678.59 2.44931 3.90315 0
M  V30 7097 H 676.905 2.07771 3.6086 0
M  V30 7098 H 679.502 -0.0940471 5.34617 0
M  V30 7099 H 679.845 -1.15283 4.00019 0
M  V30 7100 H 680.378 0.5449 3.9405 0
M  V30 7101 H 677.117 2.7826 5.93508 0
M  V30 7102 H 676.637 1.07034 5.90173 0
M  V30 7103 H 678.316 1.52166 6.28852 0
M  V30 7104 N 678.448 -1.51871 0.421078 0
M  V30 7105 C 679.378 -2.30231 -0.389363 0
M  V30 7106 C 680.359 -1.34946 -1.03555 0
M  V30 7107 O 681.544 -1.63859 -1.04229 0
M  V30 7108 C 678.674 -3.13247 -1.49979 0
M  V30 7109 C 677.628 -4.16677 -0.977966 0
M  V30 7110 C 676.954 -4.88112 -2.1829 0
M  V30 7111 C 678.254 -5.22295 -0.0236775 0
M  V30 7112 H 679.948 -2.98229 0.264524 0
M  V30 7113 H 677.494 -1.43424 0.12866 0
M  V30 7114 H 679.447 -3.66838 -2.07383 0
M  V30 7115 H 678.171 -2.4304 -2.18173 0
M  V30 7116 H 676.83 -3.64114 -0.426245 0
M  V30 7117 H 676.478 -4.14423 -2.85066 0
M  V30 7118 H 676.178 -5.58041 -1.84021 0
M  V30 7119 H 677.702 -5.44521 -2.76278 0
M  V30 7120 H 679.116 -5.71055 -0.506899 0
M  V30 7121 H 677.513 -5.99656 0.230782 0
M  V30 7122 H 678.583 -4.76131 0.917999 0
M  V30 7123 N 679.926 -0.151884 -1.56866 0
M  V30 7124 C 681.172 0.498742 -1.96572 0
M  V30 7125 C 681.505 1.64194 -1.03702 0
M  V30 7126 O 680.78 1.94334 -0.0803432 0
M  V30 7127 C 681.063 1.00027 -3.45929 0
M  V30 7128 C 680.916 -0.141767 -4.49577 0
M  V30 7129 C 682.235 1.88044 -3.97904 0
M  V30 7130 H 679.354 0.17982 -0.714726 0
M  V30 7131 H 681.996 -0.234097 -1.88552 0
M  V30 7132 H 680.146 1.62476 -3.52894 0
M  V30 7133 H 681.818 -0.778269 -4.54687 0
M  V30 7134 H 680.061 -0.80019 -4.26356 0
M  V30 7135 H 680.732 0.250947 -5.51429 0
M  V30 7136 H 683.208 1.35416 -3.93449 0
M  V30 7137 H 682.084 2.20043 -5.02864 0
M  V30 7138 H 682.345 2.81916 -3.40552 0
M  V30 7139 N 681.404 1.57128 0.121893 0
M  V30 7140 C 682.652 1.84335 0.828548 0
M  V30 7141 C 682.973 0.736632 1.80551 0
M  V30 7142 O 682.243 -0.23962 1.94429 0
M  V30 7143 H 680.823 0.680108 0.30897 0
M  V30 7144 H 683.485 1.9459 0.109906 0
M  V30 7145 H 682.581 2.80152 1.37554 0
M  V30 7146 N 682.882 -0.391992 1.52647 0
M  V30 7147 C 683.814 -1.49811 1.73463 0
M  V30 7148 C 684.827 -1.50734 0.615078 0
M  V30 7149 O 686.016 -1.5469 0.890696 0
M  V30 7150 C 683.116 -2.88667 1.77552 0
M  V30 7151 C 682.289 -3.11743 3.06815 0
M  V30 7152 C 681.348 -4.30564 3.02491 0
M  V30 7153 O 680.374 -4.27014 3.76361 0
M  V30 7154 N 681.576 -5.36593 2.21468 0
M  V30 7155 H 684.341 -1.32343 2.68897 0
M  V30 7156 H 681.902 -0.581475 1.51098 0
M  V30 7157 H 683.894 -3.66251 1.7217 0
M  V30 7158 H 682.464 -2.99508 0.895181 0
M  V30 7159 H 681.684 -2.2205 3.25711 0
M  V30 7160 H 682.972 -3.24013 3.92292 0
M  V30 7161 H 682.37 -5.42332 1.60913 0
M  V30 7162 H 680.927 -6.12855 2.21928 0
M  V30 7163 N 684.36 -1.4356 -0.65026 0
M  V30 7164 C 685.323 -1.48615 -1.74489 0
M  V30 7165 C 686.323 -0.370483 -1.56474 0
M  V30 7166 O 687.513 -0.632351 -1.62317 0
M  V30 7167 C 684.645 -1.34161 -3.13391 0
M  V30 7168 H 685.838 -2.46103 -1.71387 0
M  V30 7169 H 683.391 -1.30369 -0.862186 0
M  V30 7170 H 684.126 -0.376918 -3.22102 0
M  V30 7171 H 683.911 -2.1504 -3.27872 0
M  V30 7172 H 685.401 -1.40637 -3.93206 0
M  V30 7173 N 685.838 0.888903 -1.30139 0
M  V30 7174 C 686.785 1.99422 -1.16188 0
M  V30 7175 C 687.755 1.66017 -0.0523869 0
M  V30 7176 O 688.94 1.89506 -0.221864 0
M  V30 7177 C 686.08 3.34325 -0.855612 0
M  V30 7178 C 685.193 3.80445 -2.0466 0
M  V30 7179 C 684.328 5.03975 -1.67876 0
M  V30 7180 C 683.367 5.42492 -2.83493 0
M  V30 7181 N 682.504 6.57206 -2.47032 0
M  V30 7182 H 687.344 2.10687 -2.10749 0
M  V30 7183 H 684.881 1.03165 -1.04859 0
M  V30 7184 H 686.839 4.11968 -0.658681 0
M  V30 7185 H 685.469 3.22756 0.0531155 0
M  V30 7186 H 684.521 2.98745 -2.3549 0
M  V30 7187 H 685.833 4.04933 -2.91257 0
M  V30 7188 H 684.987 5.89232 -1.44535 0
M  V30 7189 H 683.726 4.8135 -0.784431 0
M  V30 7190 H 682.731 4.55764 -3.07505 0
M  V30 7191 H 683.956 5.67093 -3.73607 0
M  V30 7192 H 681.902 6.36164 -1.601 0
M  V30 7193 H 681.819 6.81543 -3.27161 0
M  V30 7194 H 683.087 7.45704 -2.27038 0
M  V30 7195 N 687.317 1.12792 1.10072 0
M  V30 7196 C 688.247 0.821688 2.18565 0
M  V30 7197 C 689.228 -0.21612 1.68721 0
M  V30 7198 O 690.413 -0.0764932 1.94049 0
M  V30 7199 C 687.543 0.279624 3.46172 0
M  V30 7200 C 686.497 1.25092 4.09312 0
M  V30 7201 C 685.823 0.568916 5.31665 0
M  V30 7202 C 687.123 2.60699 4.52585 0
M  V30 7203 H 688.817 1.72888 2.44438 0
M  V30 7204 H 686.363 0.832702 1.17482 0
M  V30 7205 H 688.316 0.053099 4.21367 0
M  V30 7206 H 687.04 -0.662929 3.19801 0
M  V30 7207 H 685.699 1.46332 3.36129 0
M  V30 7208 H 685.347 -0.378898 5.01571 0
M  V30 7209 H 685.047 1.21687 5.74862 0
M  V30 7210 H 686.571 0.351517 6.09587 0
M  V30 7211 H 687.985 2.43465 5.19035 0
M  V30 7212 H 686.382 3.21608 5.06644 0
M  V30 7213 H 687.452 3.1886 3.65317 0
M  V30 7214 N 688.795 -1.27931 0.920396 0
M  V30 7215 C 690.02 -1.99343 0.572478 0
M  V30 7216 C 690.445 -1.68267 -0.840696 0
M  V30 7217 O 689.803 -0.918805 -1.56294 0
M  V30 7218 C 689.851 -3.51698 0.796284 0
M  V30 7219 O 688.955 -4.12157 -0.141602 0
M  V30 7220 H 688.296 -0.626065 0.221221 0
M  V30 7221 H 690.826 -1.62921 1.23765 0
M  V30 7222 H 690.836 -4.01793 0.708984 0
M  V30 7223 H 689.511 -3.73649 1.82644 0
M  V30 7224 H 688.088 -3.729 -0.005007 0
M  V30 7225 N 690.273 -0.685099 -1.4193 0
M  V30 7226 C 691.513 -0.215676 -2.03259 0
M  V30 7227 C 691.877 1.15934 -1.53047 0
M  V30 7228 O 693.078 1.72401 -2.06231 0
M  V30 7229 C 691.349 -0.259649 -3.56456 0
M  V30 7230 S 692.908 0.137262 -4.38585 0
M  V30 7231 H 689.726 -0.0877362 -0.705566 0
M  V30 7232 H 692.328 -0.900547 -1.73523 0
M  V30 7233 H 691.032 -1.26256 -3.90497 0
M  V30 7234 H 690.563 0.444716 -3.90878 0
M  V30 7235 H 692.578 1.36787 -4.76973 0
M  V30 7236 N 691.751 1.51645 -0.429126 0
M  V30 7237 C 692.976 2.06917 0.141399 0
M  V30 7238 C 693.401 1.29527 1.36398 0
M  V30 7239 O 692.759 0.33094 1.78254 0
M  V30 7240 C 692.807 3.57776 0.4504 0
M  V30 7241 O 691.911 3.82639 1.53821 0
M  V30 7242 H 691.252 0.663978 0.0054647 0
M  V30 7243 H 693.782 1.95355 -0.608093 0
M  V30 7244 H 693.792 4.01894 0.703249 0
M  V30 7245 H 692.467 4.13532 -0.443213 0
M  V30 7246 H 691.044 3.5039 1.27597 0
M  V30 7247 N 693.229 0.160201 1.56784 0
M  V30 7248 C 694.459 -0.493449 2.00621 0
M  V30 7249 C 694.867 -1.5809 1.03943 0
M  V30 7250 O 694.21 -1.83675 0.0305343 0
M  V30 7251 C 694.272 -1.14169 3.4089 0
M  V30 7252 C 693.936 -0.197243 4.56574 0
M  V30 7253 C 694.933 0.580174 5.16653 0
M  V30 7254 C 692.618 -0.0963038 5.02208 0
M  V30 7255 C 694.612 1.44584 6.20785 0
M  V30 7256 C 692.299 0.772959 6.06192 0
M  V30 7257 C 693.297 1.54263 6.65351 0
M  V30 7258 O 692.985 2.39738 7.67321 0
M  V30 7259 H 692.717 -0.131764 0.663034 0
M  V30 7260 H 695.271 0.255728 2.03802 0
M  V30 7261 H 693.501 -1.93877 3.34587 0
M  V30 7262 H 695.19 -1.69641 3.6875 0
M  V30 7263 H 695.956 0.5123 4.82287 0
M  V30 7264 H 691.835 -0.685143 4.5588 0
M  V30 7265 H 695.379 2.04706 6.66889 0
M  V30 7266 H 691.276 0.842077 6.39984 0
M  V30 7267 H 692.044 2.33131 7.84597 0
M  V30 7268 N 694.707 -1.5719 -0.113559 0
M  V30 7269 C 695.932 -1.89702 -0.838336 0
M  V30 7270 C 696.357 -0.752679 -1.72384 0
M  V30 7271 O 695.715 0.296575 -1.78858 0
M  V30 7272 C 695.763 -3.20989 -1.64312 0
M  V30 7273 O 694.867 -3.07278 -2.75053 0
M  V30 7274 H 694.208 -0.622339 -0.231496 0
M  V30 7275 H 696.738 -2.04382 -0.0943228 0
M  V30 7276 H 696.748 -3.53843 -2.03123 0
M  V30 7277 H 695.423 -4.03869 -0.993119 0
M  V30 7278 H 694 -2.85901 -2.39406 0
M  V30 7279 N 696.185 0.383891 -1.52853 0
M  V30 7280 C 697.135 1.46892 -1.74375 0
M  V30 7281 C 698.119 1.49378 -0.597909 0
M  V30 7282 O 699.311 1.54929 -0.855929 0
M  V30 7283 C 696.44 2.84547 -1.92063 0
M  V30 7284 C 695.526 2.8661 -3.12594 0
M  V30 7285 N 695.917 2.58339 -4.3485 0
M  V30 7286 C 694.215 3.17777 -3.12944 0
M  V30 7287 C 694.916 2.67616 -5.16485 0
M  V30 7288 N 693.892 3.01561 -4.52285 0
M  V30 7289 H 697.694 1.23869 -2.66522 0
M  V30 7290 H 695.208 0.591895 -1.51229 0
M  V30 7291 H 697.205 3.62674 -2.05604 0
M  V30 7292 H 695.865 3.08549 -1.01133 0
M  V30 7293 H 696.876 2.32266 -4.62896 0
M  V30 7294 H 693.553 3.47211 -2.31842 0
M  V30 7295 H 694.943 2.4926 -6.23955 0
M  V30 7296 N 697.663 1.43903 0.642637 0
M  V30 7297 C 698.909 1.47291 1.40275 0
M  V30 7298 C 699.264 0.0996024 1.92142 0
M  V30 7299 O 698.557 -0.883423 1.70018 0
M  V30 7300 C 698.751 2.45907 2.59354 0
M  V30 7301 C 698.58 3.92691 2.19143 0
M  V30 7302 C 697.35 4.6097 2.06966 0
M  V30 7303 C 699.548 4.82231 1.78768 0
M  V30 7304 N 697.53 5.9263 1.60196 0
M  V30 7305 C 698.901 6.03246 1.43159 0
M  V30 7306 C 700.956 4.69397 1.66045 0
M  V30 7307 C 699.659 7.12851 0.961014 0
M  V30 7308 C 701.685 5.79016 1.20392 0
M  V30 7309 C 701.047 6.99164 0.857271 0
M  V30 7310 H 697.146 0.594055 0.50855 0
M  V30 7311 H 699.73 1.80153 0.738434 0
M  V30 7312 H 697.901 2.15054 3.23429 0
M  V30 7313 H 699.633 2.39665 3.26102 0
M  V30 7314 H 696.388 4.15622 2.27058 0
M  V30 7315 H 696.812 6.62547 1.39143 0
M  V30 7316 H 701.454 3.76954 1.91482 0
M  V30 7317 H 699.172 8.05113 0.694148 0
M  V30 7318 H 702.758 5.71109 1.11023 0
M  V30 7319 H 701.638 7.82544 0.509408 0
M  V30 7320 N 699.141 -0.881989 1.30609 0
M  V30 7321 C 700.366 -1.67236 1.22665 0
M  V30 7322 C 700.791 -1.8696 -0.206777 0
M  V30 7323 O 700.149 -1.4027 -1.14865 0
M  V30 7324 C 700.197 -3.02446 1.96363 0
M  V30 7325 O 699.301 -3.91614 1.29276 0
M  V30 7326 H 698.642 -0.510902 0.424117 0
M  V30 7327 H 701.172 -1.10055 1.72479 0
M  V30 7328 H 701.182 -3.52468 2.055 0
M  V30 7329 H 699.857 -2.8741 3.00613 0
M  V30 7330 H 698.434 -3.50055 1.28514 0
M  V30 7331 N 700.619 -1.13374 -1.09472 0
M  V30 7332 C 701.582 -0.813639 -2.14272 0
M  V30 7333 C 702.582 0.176677 -1.59826 0
M  V30 7334 O 703.772 -0.0503441 -1.74127 0
M  V30 7335 C 700.904 -0.210897 -3.40247 0
M  V30 7336 H 702.097 -1.74229 -2.44099 0
M  V30 7337 H 699.65 -0.938304 -1.25002 0
M  V30 7338 H 700.385 0.726998 -3.16046 0
M  V30 7339 H 700.17 -0.924048 -3.81056 0
M  V30 7340 H 701.66 -0.00377603 -4.176 0
M  V30 7341 N 702.098 1.27442 -0.927168 0
M  V30 7342 C 703.509 1.76385 -0.611979 0
M  V30 7343 C 703.86 1.75715 0.872853 0
M  V30 7344 O 702.985 1.3603 1.683 0
M  V30 7345 C 703.58 3.20303 -1.10414 0
M  V30 7346 C 702.139 3.66916 -0.839628 0
M  V30 7347 C 701.286 2.46859 -1.26317 0
M  V30 7348 H 704.237 1.13716 -1.107 0
M  V30 7349 H 704.258 3.77811 -0.451578 0
M  V30 7350 H 703.77 3.20759 -2.18484 0
M  V30 7351 H 701.871 3.71906 0.227292 0
M  V30 7352 H 701.984 4.56415 -1.45679 0
M  V30 7353 H 700.348 2.45407 -0.681723 0
M  V30 7354 H 701.131 2.50025 -2.3525 0
M  V30 7355 N 703.576 0.692616 1.41565 0
M  V30 7356 C 704.539 0.0344174 2.29174 0
M  V30 7357 C 705.539 -0.710961 1.44229 0
M  V30 7358 O 706.729 -0.546293 1.65412 0
M  V30 7359 C 703.861 -0.961682 3.27054 0
M  V30 7360 H 705.054 0.805755 2.88873 0
M  V30 7361 H 702.607 0.455947 1.49502 0
M  V30 7362 H 703.342 -1.76089 2.72329 0
M  V30 7363 H 703.127 -0.430375 3.89731 0
M  V30 7364 H 704.617 -1.4201 3.92712 0
M  V30 7365 N 705.054 -1.51416 0.437162 0
M  V30 7366 C 706.465 -1.86682 -0.0260005 0
M  V30 7367 C 706.816 -1.35432 -1.4196 0
M  V30 7368 O 705.941 -0.705055 -2.04592 0
M  V30 7369 C 706.536 -3.38757 -0.0539577 0
M  V30 7370 C 705.095 -3.7356 -0.461532 0
M  V30 7371 C 704.242 -2.75134 0.345924 0
M  V30 7372 H 707.193 -1.44642 0.653013 0
M  V30 7373 H 707.214 -3.70573 -0.863478 0
M  V30 7374 H 706.726 -3.76028 0.96045 0
M  V30 7375 H 704.827 -3.41878 -1.48155 0
M  V30 7376 H 704.94 -4.78737 -0.186451 0
M  V30 7377 H 703.304 -2.53947 -0.195739 0
M  V30 7378 H 704.087 -3.15247 1.35921 0
M  V30 7379 N 706.532 -0.168513 -1.56696 0
M  V30 7380 C 707.464 0.794249 -2.14998 0
M  V30 7381 C 708.477 1.1957 -1.10485 0
M  V30 7382 O 709.666 1.13604 -1.37682 0
M  V30 7383 C 706.766 2.08018 -2.67547 0
M  V30 7384 C 705.939 1.84274 -3.96689 0
M  V30 7385 C 704.998 2.97059 -4.3433 0
M  V30 7386 O 704.024 2.67815 -5.02259 0
M  V30 7387 N 705.226 4.24775 -3.9566 0
M  V30 7388 H 707.991 0.295832 -2.98236 0
M  V30 7389 H 705.552 0.0143611 -1.61894 0
M  V30 7390 H 707.544 2.82559 -2.89729 0
M  V30 7391 H 706.114 2.49059 -1.88914 0
M  V30 7392 H 705.334 0.936528 -3.82914 0
M  V30 7393 H 706.622 1.65773 -4.81037 0
M  V30 7394 H 706.02 4.51395 -3.40968 0
M  V30 7395 H 704.577 4.96027 -4.22848 0
M  V30 7396 N 708.01 1.57248 0.105221 0
M  V30 7397 C 709.25 1.87393 0.816283 0
M  V30 7398 C 709.614 0.758249 1.76393 0
M  V30 7399 O 710.815 0.941835 2.5176 0
M  V30 7400 C 709.086 3.22775 1.53463 0
M  V30 7401 S 710.645 3.74588 2.28537 0
M  V30 7402 H 707.463 0.656847 0.272164 0
M  V30 7403 H 710.065 1.9536 0.073909 0
M  V30 7404 H 708.769 4.01905 0.830674 0
M  V30 7405 H 708.3 3.17921 2.3171 0
M  V30 7406 H 710.315 3.47193 3.54502 0
M  V30 7407 N 709.488 -0.375779 1.53054 0
M  V30 7408 C 710.435 -1.45978 1.78771 0
M  V30 7409 C 711.405 -1.53625 0.631552 0
M  V30 7410 O 712.59 -1.69674 0.872667 0
M  V30 7411 C 709.73 -2.8305 1.97425 0
M  V30 7412 C 708.843 -2.84451 3.25134 0
M  V30 7413 C 707.978 -4.13034 3.34031 0
M  V30 7414 C 707.017 -4.08536 4.55812 0
M  V30 7415 N 706.154 -5.2875 4.61918 0
M  V30 7416 H 710.994 -1.23349 2.71273 0
M  V30 7417 H 708.531 -0.598147 1.3439 0
M  V30 7418 H 710.489 -3.62666 2.06225 0
M  V30 7419 H 709.119 -3.04101 1.0827 0
M  V30 7420 H 708.171 -1.97127 3.25338 0
M  V30 7421 H 709.483 -2.76998 4.14818 0
M  V30 7422 H 708.637 -5.0106 3.42087 0
M  V30 7423 H 707.376 -4.23226 2.42345 0
M  V30 7424 H 706.381 -3.18897 4.47867 0
M  V30 7425 H 707.606 -3.99955 5.48828 0
M  V30 7426 H 705.552 -5.39547 3.73129 0
M  V30 7427 H 705.469 -5.23426 5.45492 0
M  V30 7428 H 706.737 -6.18637 4.74245 0
M  V30 7429 N 710.966 -1.44241 -0.634997 0
M  V30 7430 C 711.929 -1.50457 -1.72903 0
M  V30 7431 C 712.929 -0.387058 -1.56072 0
M  V30 7432 O 714.119 -0.649531 -1.61638 0
M  V30 7433 C 711.251 -1.37477 -3.1195 0
M  V30 7434 H 712.444 -2.47907 -1.68767 0
M  V30 7435 H 709.997 -1.31276 -0.84831 0
M  V30 7436 H 710.732 -0.41106 -3.21684 0
M  V30 7437 H 710.517 -2.18506 -3.25573 0
M  V30 7438 H 712.007 -1.44799 -3.91692 0
M  V30 7439 N 712.444 0.87505 -1.31075 0
M  V30 7440 C 713.374 1.99775 -1.20881 0
M  V30 7441 C 714.355 1.69822 -0.0971612 0
M  V30 7442 O 715.54 1.92158 -0.280895 0
M  V30 7443 C 712.67 3.35163 -0.910118 0
M  V30 7444 C 711.624 3.79406 -1.98078 0
M  V30 7445 C 710.95 5.12197 -1.53488 0
M  V30 7446 C 712.25 3.97061 -3.39323 0
M  V30 7447 H 713.944 2.08562 -2.14808 0
M  V30 7448 H 711.49 1.00207 -1.03415 0
M  V30 7449 H 713.443 4.13237 -0.825423 0
M  V30 7450 H 712.167 3.26536 0.064822 0
M  V30 7451 H 710.826 3.03568 -2.05528 0
M  V30 7452 H 710.474 5.00007 -0.547941 0
M  V30 7453 H 710.174 5.4277 -2.2511 0
M  V30 7454 H 711.698 5.92785 -1.46417 0
M  V30 7455 H 713.112 4.65545 -3.34576 0
M  V30 7456 H 711.509 4.39025 -4.09118 0
M  V30 7457 H 712.579 3.00601 -3.80483 0
M  V30 7458 N 713.922 1.13953 1.08869 0
M  V30 7459 C 715.162 0.915128 1.8277 0
M  V30 7460 C 715.526 -0.548647 1.83994 0
M  V30 7461 O 716.727 -0.890817 2.5361 0
M  V30 7462 C 714.998 1.49382 3.24684 0
M  V30 7463 S 716.557 1.4103 4.15519 0
M  V30 7464 H 713.375 0.329716 0.629927 0
M  V30 7465 H 715.977 1.45213 1.30895 0
M  V30 7466 H 714.681 2.55241 3.21372 0
M  V30 7467 H 714.212 0.955008 3.81632 0
M  V30 7468 H 716.227 0.392617 4.94644 0
M  V30 7469 N 715.4 -1.26948 0.933913 0
M  V30 7470 C 716.816 -1.46419 0.635103 0
M  V30 7471 C 717.016 -1.84336 -0.813785 0
M  V30 7472 O 716.072 -1.96061 -1.59111 0
M  V30 7473 C 717.385 -2.55206 1.5903 0
M  V30 7474 C 718.933 -2.69062 1.5992 0
M  V30 7475 C 719.408 -3.81013 2.54152 0
M  V30 7476 N 720.899 -3.88395 2.52395 0
M  V30 7477 C 721.634 -4.74454 3.21996 0
M  V30 7478 N 721.13 -5.64954 4.00997 0
M  V30 7479 N 722.923 -4.68237 3.10983 0
M  V30 7480 H 715.074 -1.00622 1.87053 0
M  V30 7481 H 717.337 -0.503189 0.803433 0
M  V30 7482 H 717.043 -2.34153 2.62422 0
M  V30 7483 H 716.917 -3.52719 1.33677 0
M  V30 7484 H 719.304 -2.89492 0.572569 0
M  V30 7485 H 719.385 -1.72016 1.89325 0
M  V30 7486 H 719.029 -3.61336 3.5693 0
M  V30 7487 H 718.959 -4.77499 2.22041 0
M  V30 7488 H 721.45 -3.23687 1.95025 0
M  V30 7489 H 721.763 -6.27496 4.51074 0
M  V30 7490 H 720.108 -5.6473 4.05099 0
M  V30 7491 H 723.299 -3.96535 2.48753 0
M  V30 7492 H 723.472 -5.35087 3.65494 0
M  V30 7493 N 716.879 -0.700114 -1.41195 0
M  V30 7494 C 717.826 -0.0376652 -2.30769 0
M  V30 7495 C 718.796 0.766544 -1.47354 0
M  V30 7496 O 719.981 0.73365 -1.76131 0
M  V30 7497 C 717.121 0.889452 -3.33441 0
M  V30 7498 C 716.234 0.076373 -4.31932 0
M  V30 7499 C 715.369 1.00155 -5.21673 0
M  V30 7500 C 714.408 0.181644 -6.1183 0
M  V30 7501 N 713.545 1.06087 -6.94039 0
M  V30 7502 H 718.385 -0.80726 -2.86858 0
M  V30 7503 H 715.922 -0.409798 -1.41277 0
M  V30 7504 H 717.88 1.44107 -3.91522 0
M  V30 7505 H 716.51 1.6254 -2.78892 0
M  V30 7506 H 715.562 -0.592223 -3.75762 0
M  V30 7507 H 716.874 -0.559076 -4.95657 0
M  V30 7508 H 716.028 1.62223 -5.8461 0
M  V30 7509 H 714.767 1.67085 -4.58186 0
M  V30 7510 H 713.772 -0.452085 -5.47938 0
M  V30 7511 H 714.997 -0.483925 -6.77374 0
M  V30 7512 H 712.943 1.7161 -6.33156 0
M  V30 7513 H 712.86 0.481094 -7.54468 0
M  V30 7514 H 714.128 1.66822 -7.6144 0
M  V30 7515 N 718.357 1.51182 -0.445186 0
M  V30 7516 C 719.768 1.86693 0.0160999 0
M  V30 7517 C 720.119 1.36183 1.4124 0
M  V30 7518 O 719.244 0.715895 2.04215 0
M  V30 7519 C 719.839 3.38781 0.0359918 0
M  V30 7520 C 718.398 3.73799 0.441715 0
M  V30 7521 C 717.545 2.74947 -0.360511 0
M  V30 7522 H 720.496 1.44294 -0.660674 0
M  V30 7523 H 720.517 3.71026 0.843813 0
M  V30 7524 H 720.029 3.75513 -0.980378 0
M  V30 7525 H 718.13 3.42659 1.4634 0
M  V30 7526 H 718.243 4.78829 0.16106 0
M  V30 7527 H 716.607 2.54047 0.182269 0
M  V30 7528 H 717.39 3.14521 -1.3759 0
M  V30 7529 N 719.835 0.176821 1.56605 0
M  V30 7530 C 720.745 -0.763682 2.21822 0
M  V30 7531 C 721.761 -1.24889 1.21156 0
M  V30 7532 O 722.937 -1.29987 1.53836 0
M  V30 7533 C 720.002 -1.97352 2.8505 0
M  V30 7534 C 719.063 -1.53466 4.00932 0
M  V30 7535 C 718.296 -2.68682 4.61135 0
M  V30 7536 O 718.519 -3.85694 4.20234 0
M  V30 7537 O 717.453 -2.42442 5.50913 0
M  V30 7538 H 721.279 -0.238363 3.02763 0
M  V30 7539 H 718.864 -0.0516331 1.49311 0
M  V30 7540 H 720.746 -2.68096 3.25119 0
M  V30 7541 H 719.421 -2.48779 2.07101 0
M  V30 7542 H 718.328 -0.796551 3.65521 0
M  V30 7543 H 719.661 -1.06724 4.8049 0
M  V30 7544 N 721.313 -1.57302 -0.09688 0
M  V30 7545 C 722.243 -2.0497 -1.11846 0
M  V30 7546 C 723.224 -0.938278 -1.41882 0
M  V30 7547 O 724.409 -1.20943 -1.51942 0
M  V30 7548 C 721.539 -2.47264 -2.43881 0
M  V30 7549 C 720.493 -3.62053 -2.28257 0
M  V30 7550 C 719.819 -3.90318 -3.65453 0
M  V30 7551 C 721.119 -4.93005 -1.72461 0
M  V30 7552 H 722.813 -2.90567 -0.721888 0
M  V30 7553 H 720.359 -1.39786 -0.345803 0
M  V30 7554 H 722.312 -2.7922 -3.15617 0
M  V30 7555 H 721.036 -1.58664 -2.8547 0
M  V30 7556 H 719.695 -3.30341 -1.58967 0
M  V30 7557 H 719.343 -2.98889 -4.04567 0
M  V30 7558 H 719.043 -4.67597 -3.55846 0
M  V30 7559 H 720.567 -4.24747 -4.3866 0
M  V30 7560 H 721.981 -5.23354 -2.34036 0
M  V30 7561 H 720.378 -5.74436 -1.73618 0
M  V30 7562 H 721.448 -4.80053 -0.683898 0
M  V30 7563 N 722.791 0.367657 -1.53252 0
M  V30 7564 C 724.037 1.11216 -1.69584 0
M  V30 7565 C 724.37 1.89026 -0.445269 0
M  V30 7566 O 723.645 1.86342 0.557404 0
M  V30 7567 C 723.928 2.07308 -2.94441 0
M  V30 7568 C 723.781 1.3312 -4.2965 0
M  V30 7569 C 725.1 3.07459 -3.14892 0
M  V30 7570 H 722.219 0.40294 -0.617096 0
M  V30 7571 H 724.861 0.393201 -1.85887 0
M  V30 7572 H 723.011 2.68617 -2.80673 0
M  V30 7573 H 724.683 0.746111 -4.55226 0
M  V30 7574 H 722.926 0.633051 -4.29156 0
M  V30 7575 H 723.597 2.03443 -5.13142 0
M  V30 7576 H 726.073 2.56252 -3.27832 0
M  V30 7577 H 724.949 3.71919 -4.03693 0
M  V30 7578 H 725.21 3.77514 -2.30077 0
M  V30 7579 N 724.269 1.44576 0.627338 0
M  V30 7580 C 725.217 1.52039 1.76031 0
M  V30 7581 C 726.211 0.391796 1.64807 0
M  V30 7582 O 727.417 0.5669 1.7084 0
M  V30 7583 H 723.792 0.477165 0.581221 0
M  V30 7584 H 725.763 2.47387 1.6686 0
M  V30 7585 C 724.512 1.48539 3.14375 0
M  V30 7586 H 723.835 2.34699 3.23661 0
M  V30 7587 H 725.275 1.57821 3.93534 0
M  V30 7588 C 723.734 0.20672 3.36265 0
M  V30 7589 O 724.264 -0.72154 3.95167 0
M  V30 7590 N 722.47 0.108654 2.90397 0
M  V30 7591 H 722.017 0.864884 2.42647 0
M  V30 7592 H 721.975 -0.746121 3.05418 0
M  V30 7593 N 725.747 -0.868086 1.31537 0
M  V30 7594 C 726.995 -1.61807 1.21091 0
M  V30 7595 C 727.316 -1.93631 -0.230623 0
M  V30 7596 O 726.586 -1.5846 -1.15183 0
M  V30 7597 H 725.166 -0.599854 0.445178 0
M  V30 7598 H 727.828 -1.03915 1.64887 0
M  V30 7599 H 726.924 -2.56088 1.78396 0
M  V30 7600 N 727.225 -1.14528 -1.08264 0
M  V30 7601 C 728.641 -0.885976 -1.3275 0
M  V30 7602 C 728.841 0.472096 -1.95892 0
M  V30 7603 O 727.897 1.21606 -2.21288 0
M  V30 7604 C 729.21 -2.01982 -2.22764 0
M  V30 7605 C 730.758 -2.05329 -2.36239 0
M  V30 7606 C 731.233 -3.1801 -3.29596 0
M  V30 7607 N 732.724 -3.17598 -3.37173 0
M  V30 7608 C 733.459 -4.01426 -4.09444 0
M  V30 7609 N 732.955 -4.95297 -4.8441 0
M  V30 7610 N 734.748 -3.89482 -4.0529 0
M  V30 7611 H 726.899 -2.01996 -0.656607 0
M  V30 7612 H 729.162 -0.880274 -0.351884 0
M  V30 7613 H 728.868 -2.99964 -1.83615 0
M  V30 7614 H 728.742 -1.94421 -3.23234 0
M  V30 7615 H 731.129 -1.07953 -2.74646 0
M  V30 7616 H 731.21 -2.1696 -1.35506 0
M  V30 7617 H 730.854 -4.15633 -2.9191 0
M  V30 7618 H 730.784 -3.03616 -4.30261 0
M  V30 7619 H 733.275 -2.4961 -2.83731 0
M  V30 7620 H 733.588 -5.55723 -5.37021 0
M  V30 7621 H 731.933 -4.99293 -4.83457 0
M  V30 7622 H 735.124 -3.15465 -3.45832 0
M  V30 7623 H 735.297 -4.55039 -4.6135 0
M  V30 7624 N 728.703 1.26451 -0.940633 0
M  V30 7625 C 729.633 2.28773 -0.467479 0
M  V30 7626 C 730.614 1.63218 0.478955 0
M  V30 7627 O 731.799 1.90427 0.380929 0
M  V30 7628 C 728.929 3.46259 0.268656 0
M  V30 7629 C 727.883 4.23898 -0.591171 0
M  V30 7630 C 727.209 5.33993 0.274891 0
M  V30 7631 C 728.509 4.87974 -1.86223 0
M  V30 7632 H 730.203 2.68601 -1.32265 0
M  V30 7633 H 727.749 1.29123 -0.637436 0
M  V30 7634 H 729.702 4.16951 0.610696 0
M  V30 7635 H 728.426 3.05383 1.15796 0
M  V30 7636 H 727.085 3.54969 -0.916098 0
M  V30 7637 H 726.733 4.89358 1.16353 0
M  V30 7638 H 726.433 5.86849 -0.297006 0
M  V30 7639 H 727.957 6.07523 0.612213 0
M  V30 7640 H 729.371 5.50883 -1.58747 0
M  V30 7641 H 727.768 5.50945 -2.37866 0
M  V30 7642 H 728.838 4.10945 -2.57394 0
M  V30 7643 N 730.181 0.707592 1.40822 0
M  V30 7644 C 731.406 0.251626 2.05868 0
M  V30 7645 C 731.831 -1.09503 1.5294 0
M  V30 7646 O 731.189 -1.68806 0.661385 0
M  V30 7647 C 731.237 0.23287 3.59847 0
M  V30 7648 O 730.341 -0.788477 4.04792 0
M  V30 7649 H 729.682 0.119936 0.653078 0
M  V30 7650 H 732.212 0.96583 1.80369 0
M  V30 7651 H 732.222 0.0678204 4.07944 0
M  V30 7652 H 730.897 1.21565 3.97737 0
M  V30 7653 H 729.474 -0.591802 3.68174 0
M  V30 7654 N 731.66 -1.50943 0.453197 0
M  V30 7655 C 732.906 -2.02512 -0.108082 0
M  V30 7656 C 733.239 -1.33574 -1.40967 0
M  V30 7657 O 732.514 -0.455671 -1.89087 0
M  V30 7658 C 732.797 -3.58759 -0.310453 0
M  V30 7659 C 732.65 -4.38293 1.0109 0
M  V30 7660 C 733.969 -4.26816 -1.07313 0
M  V30 7661 H 731.088 -0.73603 -0.0378064 0
M  V30 7662 H 733.73 -1.80433 0.595295 0
M  V30 7663 H 731.88 -3.77702 -0.909582 0
M  V30 7664 H 733.552 -4.30964 1.64523 0
M  V30 7665 H 731.795 -4.02745 1.61179 0
M  V30 7666 H 732.466 -5.45828 0.82315 0
M  V30 7667 H 734.942 -4.1224 -0.565473 0
M  V30 7668 H 733.818 -5.35989 -1.1835 0
M  V30 7669 H 734.079 -3.88757 -2.10525 0
M  V30 7670 N 733.138 -0.185124 -1.56509 0
M  V30 7671 C 734.415 0.503348 -1.89013 0
M  V30 7672 C 734.795 1.80349 -1.09715 0
M  V30 7673 O 734.143 2.27665 -0.195203 0
M  V30 7674 C 734.353 0.731839 -3.41241 0
M  V30 7675 C 735.701 1.05568 -4.11267 0
M  V30 7676 O 736.725 0.819906 -3.46635 0
M  V30 7677 O 735.584 1.50116 -5.25478 0
M  V30 7678 H 732.678 0.261139 -0.784688 0
M  V30 7679 H 735.224 -0.224592 -1.68207 0
M  V30 7680 H 733.996 -0.18672 -3.90854 0
M  V30 7681 H 733.619 1.5126 -3.67704 0
M  V30 7682 N 734.616 1.57351 0.0885366 0
M  V30 7683 C 735.563 2.02523 1.10693 0
M  V30 7684 C 736.533 0.902736 1.39427 0
M  V30 7685 O 737.718 1.16921 1.50779 0
M  V30 7686 C 734.858 2.46013 2.42016 0
M  V30 7687 C 733.971 3.7181 2.19957 0
M  V30 7688 C 733.106 4.04152 3.44724 0
M  V30 7689 C 732.145 5.2304 3.17956 0
M  V30 7690 N 731.282 5.51102 4.35007 0
M  V30 7691 H 736.122 2.89302 0.714742 0
M  V30 7692 H 733.659 1.43084 0.341378 0
M  V30 7693 H 735.617 2.69274 3.18665 0
M  V30 7694 H 734.247 1.62235 2.79069 0
M  V30 7695 H 733.299 3.55987 1.34079 0
M  V30 7696 H 734.611 4.58604 1.96173 0
M  V30 7697 H 733.765 4.28225 4.29777 0
M  V30 7698 H 732.504 3.15893 3.71568 0
M  V30 7699 H 731.509 4.98781 2.31296 0
M  V30 7700 H 732.734 6.12902 2.92451 0
M  V30 7701 H 730.68 4.65802 4.61914 0
M  V30 7702 H 730.597 6.3228 4.14437 0
M  V30 7703 H 731.865 5.79714 5.21106 0
M  V30 7704 N 736.094 -0.359525 1.53444 0
M  V30 7705 C 737.371 -1.11756 1.6053 0
M  V30 7706 C 737.751 -2.06949 0.416587 0
M  V30 7707 O 737.099 -2.20681 -0.592628 0
M  V30 7708 C 737.309 -1.85133 2.95849 0
M  V30 7709 C 738.657 -2.3945 3.50641 0
M  V30 7710 O 739.681 -1.95251 2.97918 0
M  V30 7711 O 738.54 -3.20266 4.42823 0
M  V30 7712 H 735.634 -0.513005 0.648656 0
M  V30 7713 H 738.18 -0.362301 1.65787 0
M  V30 7714 H 736.952 -1.15694 3.73806 0
M  V30 7715 H 736.575 -2.67554 2.9411 0
M  V30 7716 N 737.572 -1.44907 -0.619662 0
M  V30 7717 C 738.504 -1.48652 -1.74457 0
M  V30 7718 C 739.517 -0.378596 -1.58337 0
M  V30 7719 O 740.706 -0.644987 -1.6644 0
M  V30 7720 C 737.806 -1.31568 -3.12319 0
M  V30 7721 C 736.979 -2.55816 -3.54792 0
M  V30 7722 C 736.038 -2.33465 -4.71573 0
M  V30 7723 O 735.064 -3.07015 -4.79302 0
M  V30 7724 N 736.266 -1.37254 -5.6404 0
M  V30 7725 H 739.031 -2.45632 -1.71712 0
M  V30 7726 H 736.592 -1.40492 -0.804582 0
M  V30 7727 H 738.584 -1.14445 -3.88181 0
M  V30 7728 H 737.154 -0.429095 -3.09641 0
M  V30 7729 H 736.374 -2.88137 -2.69018 0
M  V30 7730 H 737.662 -3.38431 -3.79924 0
M  V30 7731 H 737.06 -0.765309 -5.60499 0
M  V30 7732 H 735.617 -1.26106 -6.39485 0
M  V30 7733 N 739.05 0.861098 -1.31996 0
M  V30 7734 C 740.28 1.64501 -1.24992 0
M  V30 7735 C 740.688 1.88288 0.185576 0
M  V30 7736 O 740.031 1.44756 1.131 0
M  V30 7737 C 740.093 3.03098 -1.93319 0
M  V30 7738 C 739.757 3.02381 -3.42658 0
M  V30 7739 C 740.754 2.79696 -4.38254 0
M  V30 7740 C 738.439 3.23221 -3.84491 0
M  V30 7741 C 740.433 2.77843 -5.73657 0
M  V30 7742 C 738.12 3.20996 -5.20005 0
M  V30 7743 C 739.118 2.98335 -6.14398 0
M  V30 7744 O 738.806 2.95971 -7.47433 0
M  V30 7745 H 738.538 0.519309 -0.432775 0
M  V30 7746 H 741.092 1.08241 -1.74565 0
M  V30 7747 H 739.322 3.61121 -1.38306 0
M  V30 7748 H 741.011 3.63751 -1.8011 0
M  V30 7749 H 741.777 2.63368 -4.07262 0
M  V30 7750 H 737.656 3.39887 -3.11445 0
M  V30 7751 H 741.2 2.60074 -6.47308 0
M  V30 7752 H 737.097 3.36865 -5.50629 0
M  V30 7753 H 737.865 3.1197 -7.56714 0
M  V30 7754 N 740.528 1.15101 1.07655 0
M  V30 7755 C 741.774 0.925343 1.80458 0
M  V30 7756 C 742.107 -0.546354 1.86356 0
M  V30 7757 O 741.382 -1.40496 1.34503 0
M  V30 7758 C 741.665 1.53646 3.25676 0
M  V30 7759 C 741.518 3.07854 3.27942 0
M  V30 7760 C 742.837 1.21968 4.22861 0
M  V30 7761 H 739.956 0.337592 0.655134 0
M  V30 7762 H 742.598 1.42217 1.25993 0
M  V30 7763 H 740.748 1.11395 3.72187 0
M  V30 7764 H 742.42 3.58989 2.89697 0
M  V30 7765 H 740.663 3.41904 2.66991 0
M  V30 7766 H 741.334 3.45725 4.30324 0
M  V30 7767 H 743.81 1.5851 3.84726 0
M  V30 7768 H 742.686 1.67349 5.22767 0
M  V30 7769 H 742.947 0.136207 4.4189 0
M  V30 7770 N 742.006 -1.2595 0.947325 0
M  V30 7771 C 742.916 -2.29883 0.468079 0
M  V30 7772 C 743.932 -1.67783 -0.460975 0
M  V30 7773 O 745.108 -1.98526 -0.339006 0
M  V30 7774 C 742.173 -3.45773 -0.253315 0
M  V30 7775 C 741.234 -4.23337 0.713054 0
M  V30 7776 C 740.467 -5.33694 0.025993 0
M  V30 7777 O 740.69 -5.57853 -1.18978 0
M  V30 7778 O 739.624 -5.97724 0.70782 0
M  V30 7779 H 743.45 -2.72952 1.33156 0
M  V30 7780 H 741.035 -1.31263 0.713468 0
M  V30 7781 H 742.917 -4.16209 -0.659423 0
M  V30 7782 H 741.592 -3.04721 -1.09209 0
M  V30 7783 H 740.499 -3.55359 1.16923 0
M  V30 7784 H 741.832 -4.68154 1.51963 0
M  V30 7785 N 743.484 -0.715051 -1.40445 0
M  V30 7786 C 744.895 -0.326763 -1.83818 0
M  V30 7787 C 745.246 1.13851 -1.59789 0
M  V30 7788 O 744.371 1.87611 -1.07848 0
M  V30 7789 C 744.966 -0.586297 -3.33688 0
M  V30 7790 C 743.525 -0.251724 -3.75557 0
M  V30 7791 C 742.672 -0.858928 -2.63662 0
M  V30 7792 H 745.623 -0.914241 -1.2972 0
M  V30 7793 H 745.644 0.148636 -3.8021 0
M  V30 7794 H 745.156 -1.65281 -3.51146 0
M  V30 7795 H 743.257 0.809754 -3.63695 0
M  V30 7796 H 743.37 -0.720348 -4.73654 0
M  V30 7797 H 741.734 -0.287013 -2.53078 0
M  V30 7798 H 742.517 -1.9297 -2.83932 0
M  V30 7799 N 744.962 1.50701 -0.461195 0
M  V30 7800 C 745.872 2.32069 0.343661 0
M  V30 7801 C 746.888 1.42016 1.00535 0
M  V30 7802 O 748.064 1.75077 0.995498 0
M  V30 7803 C 745.129 3.16424 1.41692 0
M  V30 7804 C 744.19 4.22286 0.772869 0
M  V30 7805 C 743.423 5.02609 1.79499 0
M  V30 7806 O 743.646 4.83874 3.0203 0
M  V30 7807 O 742.58 5.86047 1.3723 0
M  V30 7808 H 746.406 3.01996 -0.321268 0
M  V30 7809 H 743.991 1.47723 -0.223235 0
M  V30 7810 H 745.873 3.68795 2.03883 0
M  V30 7811 H 744.548 2.49236 2.0655 0
M  V30 7812 H 743.455 3.73931 0.112277 0
M  V30 7813 H 744.788 4.91915 0.167399 0
M  V30 7814 N 746.441 0.193421 1.56409 0
M  V30 7815 C 747.389 -0.744829 2.20352 0
M  V30 7816 C 748.383 -1.22104 1.17418 0
M  V30 7817 O 749.589 -1.18413 1.35567 0
M  V30 7818 H 745.964 -0.258538 0.70616 0
M  V30 7819 H 747.935 -0.181794 2.97846 0
M  V30 7820 C 746.684 -1.95453 2.87565 0
M  V30 7821 H 746.007 -1.59716 3.66512 0
M  V30 7822 H 747.447 -2.58942 3.35745 0
M  V30 7823 C 745.906 -2.79223 1.8851 0
M  V30 7824 O 746.436 -3.77093 1.38434 0
M  V30 7825 N 744.642 -2.44682 1.56777 0
M  V30 7826 H 744.189 -1.65153 1.97692 0
M  V30 7827 H 744.147 -3.01016 0.907573 0
M  V30 7828 N 747.919 -1.57396 -0.0801906 0
M  V30 7829 C 749.165 -1.87113 -0.782083 0
M  V30 7830 C 749.498 -0.78458 -1.77646 0
M  V30 7831 O 748.773 0.205993 -1.93406 0
M  V30 7832 C 749.056 -3.27483 -1.49756 0
M  V30 7833 C 748.909 -4.46782 -0.520171 0
M  V30 7834 C 750.228 -3.65965 -2.44454 0
M  V30 7835 H 747.347 -0.680559 -0.282858 0
M  V30 7836 H 749.989 -1.89946 -0.0454139 0
M  V30 7837 H 748.139 -3.25199 -2.12551 0
M  V30 7838 H 749.811 -4.61187 0.101919 0
M  V30 7839 H 748.054 -4.33485 0.165219 0
M  V30 7840 H 748.725 -5.41761 -1.05824 0
M  V30 7841 H 751.201 -3.69289 -1.91742 0
M  V30 7842 H 750.077 -4.65086 -2.91524 0
M  V30 7843 H 750.338 -2.95446 -3.28883 0
M  V30 7844 N 749.397 0.351382 -1.53633 0
M  V30 7845 C 750.625 1.11275 -1.74429 0
M  V30 7846 C 751.04 1.82602 -0.479798 0
M  V30 7847 O 750.397 1.74074 0.548125 0
M  V30 7848 C 750.448 2.13223 -2.91921 0
M  V30 7849 O 750.169 1.44798 -4.13479 0
M  V30 7850 C 751.67 3.01797 -3.24706 0
M  V30 7851 H 748.89 0.332153 -0.583023 0
M  V30 7852 H 751.434 0.405974 -2.0043 0
M  V30 7853 H 749.589 2.79477 -2.68274 0
M  V30 7854 H 750.003 2.12839 -4.79374 0
M  V30 7855 H 751.477 3.69282 -4.10286 0
M  V30 7856 H 751.954 3.67387 -2.40673 0
M  V30 7857 H 752.56 2.41141 -3.5033 0
M  V30 7858 N 750.875 1.45233 0.611969 0
M  V30 7859 C 752.124 1.48296 1.36716 0
M  V30 7860 C 752.437 0.12706 1.95187 0
M  V30 7861 O 753.643 0.0353066 2.71477 0
M  V30 7862 C 752.099 2.61168 2.47627 0
M  V30 7863 C 751.707 4.03051 1.95587 0
M  V30 7864 C 753.451 2.73472 3.24674 0
M  V30 7865 C 751.358 5.07312 3.03954 0
M  V30 7866 H 750.288 0.5518 0.513841 0
M  V30 7867 H 752.939 1.7136 0.656359 0
M  V30 7868 H 751.321 2.31379 3.21372 0
M  V30 7869 H 752.495 4.42497 1.2858 0
M  V30 7870 H 750.81 3.95158 1.31298 0
M  V30 7871 H 753.407 3.48537 4.05494 0
M  V30 7872 H 753.75 1.79953 3.75397 0
M  V30 7873 H 754.283 3.02765 2.58028 0
M  V30 7874 H 751.022 6.02525 2.58154 0
M  V30 7875 H 750.542 4.7244 3.69541 0
M  V30 7876 H 752.221 5.31867 3.6841 0
M  V30 7877 N 752.353 -0.854086 1.3245 0
M  V30 7878 C 753.285 -1.96932 1.17262 0
M  V30 7879 C 754.298 -1.62445 0.107469 0
M  V30 7880 O 755.487 -1.74904 0.356481 0
M  V30 7881 C 752.587 -3.29971 0.772817 0
M  V30 7882 C 751.76 -3.92695 1.92638 0
M  V30 7883 C 750.819 -5.04068 1.51003 0
M  V30 7884 O 749.845 -5.24032 2.22213 0
M  V30 7885 N 751.047 -5.79076 0.406371 0
M  V30 7886 H 753.812 -2.10503 2.13327 0
M  V30 7887 H 751.373 -1.02897 1.24995 0
M  V30 7888 H 753.365 -4.01883 0.476684 0
M  V30 7889 H 751.935 -3.1245 -0.0967 0
M  V30 7890 H 751.155 -3.13563 2.38897 0
M  V30 7891 H 752.443 -4.31337 2.69863 0
M  V30 7892 H 751.841 -5.65393 -0.186302 0
M  V30 7893 H 750.398 -6.51579 0.169846 0
M  V30 7894 N 753.831 -1.1567 -1.07043 0
M  V30 7895 C 755.071 -0.944089 -1.81291 0
M  V30 7896 C 755.435 0.519305 -1.84844 0
M  V30 7897 O 756.636 0.850357 -2.54995 0
M  V30 7898 C 754.907 -1.54528 -3.22267 0
M  V30 7899 S 756.466 -1.47623 -4.13223 0
M  V30 7900 H 753.284 -0.339696 -0.624602 0
M  V30 7901 H 755.886 -1.47277 -1.28568 0
M  V30 7902 H 754.59 -2.60321 -3.17271 0
M  V30 7903 H 754.121 -1.0156 -3.80065 0
M  V30 7904 H 756.136 -0.471261 -4.93957 0
M  V30 7905 N 755.309 1.25446 -0.953992 0
M  V30 7906 C 756.586 1.884 -0.525823 0
M  V30 7907 C 756.966 1.86079 0.996891 0
M  V30 7908 O 756.314 1.32389 1.8624 0
M  V30 7909 C 756.524 3.31154 -1.10172 0
M  V30 7910 C 757.872 4.07926 -1.17819 0
M  V30 7911 O 758.896 3.40273 -1.05323 0
M  V30 7912 O 757.755 5.28942 -1.37415 0
M  V30 7913 H 754.849 0.808629 -0.173345 0
M  V30 7914 H 757.395 1.33522 -1.04738 0
M  V30 7915 H 756.167 3.27271 -2.14499 0
M  V30 7916 H 755.79 3.93588 -0.56338 0
M  V30 7917 N 756.787 0.722489 1.40064 0
M  V30 7918 C 758.012 0.273446 2.05589 0
M  V30 7919 C 758.437 -1.07875 1.54093 0
M  V30 7920 O 757.795 -1.68095 0.679252 0
M  V30 7921 C 757.843 0.271023 3.5958 0
M  V30 7922 O 756.947 -0.745499 4.05606 0
M  V30 7923 H 756.288 0.126856 0.65177 0
M  V30 7924 H 758.818 0.984906 1.79334 0
M  V30 7925 H 758.828 0.111084 4.07849 0
M  V30 7926 H 757.503 1.25776 3.96425 0
M  V30 7927 H 756.08 -0.552719 3.68781 0
M  V30 7928 N 758.265 -1.50454 0.469181 0
M  V30 7929 C 759.513 -2.01916 -0.0862982 0
M  V30 7930 C 759.834 -1.35337 -1.40388 0
M  V30 7931 O 759.104 -0.498096 -1.89462 0
M  V30 7932 H 757.684 -0.746185 -0.0348825 0
M  V30 7933 H 760.346 -1.84804 0.619167 0
M  V30 7934 H 759.442 -3.11182 -0.239189 0
M  V30 7935 N 759.743 -0.201713 -1.56304 0
M  V30 7936 C 760.973 0.440084 -2.01858 0
M  V30 7937 C 761.381 1.55279 -1.08098 0
M  V30 7938 O 760.724 1.83529 -0.0792216 0
M  V30 7939 C 760.786 1.05091 -3.43797 0
M  V30 7940 C 760.45 0.0761208 -4.56937 0
M  V30 7941 C 761.447 -0.716951 -5.14933 0
M  V30 7942 C 759.132 -0.0368815 -5.02286 0
M  V30 7943 C 761.126 -1.60993 -6.16733 0
M  V30 7944 C 758.813 -0.933409 -6.03929 0
M  V30 7945 C 759.811 -1.71849 -6.61027 0
M  V30 7946 O 759.499 -2.59998 -7.60695 0
M  V30 7947 H 759.231 0.114139 -0.666294 0
M  V30 7948 H 761.785 -0.309672 -2.03052 0
M  V30 7949 H 760.015 1.84938 -3.3961 0
M  V30 7950 H 761.704 1.59804 -3.73118 0
M  V30 7951 H 762.47 -0.63999 -4.80759 0
M  V30 7952 H 758.349 0.564034 -4.57537 0
M  V30 7953 H 761.893 -2.22315 -6.61227 0
M  V30 7954 H 757.79 -1.01146 -6.37526 0
M  V30 7955 H 758.558 -2.53851 -7.7814 0
M  V30 7956 N 761.222 1.57436 0.0718424 0
M  V30 7957 C 762.47 1.86878 0.769484 0
M  V30 7958 C 762.791 0.7937 1.78116 0
M  V30 7959 O 762.061 -0.177642 1.95093 0
M  V30 7960 H 760.641 0.689593 0.287177 0
M  V30 7961 H 763.303 1.94841 0.0479427 0
M  V30 7962 H 762.399 2.84387 1.28572 0
M  V30 7963 N 762.7 -0.34323 1.53817 0
M  V30 7964 C 763.946 -1.08504 1.71332 0
M  V30 7965 C 764.279 -1.88294 0.475285 0
M  V30 7966 O 763.554 -1.87205 -0.527688 0
M  V30 7967 C 763.837 -2.02597 2.97702 0
M  V30 7968 C 763.69 -1.26268 4.31713 0
M  V30 7969 C 765.009 -3.0241 3.19744 0
M  V30 7970 H 762.128 -0.393072 0.623429 0
M  V30 7971 H 764.77 -0.363579 1.86489 0
M  V30 7972 H 762.92 -2.64118 2.8491 0
M  V30 7973 H 764.592 -0.673594 4.56356 0
M  V30 7974 H 762.835 -0.564696 4.30109 0
M  V30 7975 H 763.506 -1.95253 5.16314 0
M  V30 7976 H 765.982 -2.51004 3.31868 0
M  V30 7977 H 764.858 -3.65449 4.09558 0
M  V30 7978 H 765.119 -3.73806 2.36054 0
M  V30 7979 N 764.178 -1.45556 -0.604258 0
M  V30 7980 C 765.424 -1.49968 -1.36519 0
M  V30 7981 C 765.757 -0.142236 -1.93678 0
M  V30 7982 O 765.032 0.843717 -1.75247 0
M  V30 7983 C 765.315 -2.58146 -2.51063 0
M  V30 7984 C 765.168 -4.03346 -1.99078 0
M  V30 7985 C 766.487 -2.62581 -3.53184 0
M  V30 7986 H 763.606 -0.545993 -0.495036 0
M  V30 7987 H 766.248 -1.77382 -0.680845 0
M  V30 7988 H 764.398 -2.34901 -3.09441 0
M  V30 7989 H 766.07 -4.37811 -1.45323 0
M  V30 7990 H 764.313 -4.13845 -1.30055 0
M  V30 7991 H 764.984 -4.74731 -2.81664 0
M  V30 7992 H 767.46 -2.83419 -3.04652 0
M  V30 7993 H 766.336 -3.40131 -4.30816 0
M  V30 7994 H 766.597 -1.67798 -4.09019 0
M  V30 7995 N 765.656 0.84705 -1.32902 0
M  V30 7996 C 766.904 1.5986 -1.2365 0
M  V30 7997 C 767.225 1.93974 0.199789 0
M  V30 7998 O 766.495 1.60273 1.12648 0
M  V30 7999 H 765.075 0.592696 -0.454665 0
M  V30 8000 H 767.737 1.01278 -1.66519 0
M  V30 8001 H 766.833 2.53218 -1.82448 0
M  V30 8002 N 767.134 1.16236 1.06428 0
M  V30 8003 C 768.545 0.950942 1.60667 0
M  V30 8004 C 768.896 -0.505491 1.89576 0
M  V30 8005 O 768.021 -1.37843 1.66818 0
M  V30 8006 C 768.616 1.71982 2.91904 0
M  V30 8007 C 767.175 1.55342 3.4285 0
M  V30 8008 C 766.322 1.72942 2.16763 0
M  V30 8009 H 769.273 1.31126 0.893959 0
M  V30 8010 H 769.294 1.19483 3.61253 0
M  V30 8011 H 768.806 2.77978 2.70831 0
M  V30 8012 H 766.907 0.5178 3.68985 0
M  V30 8013 H 767.02 2.33643 4.18267 0
M  V30 8014 H 765.384 1.15673 2.26918 0
M  V30 8015 H 766.167 2.80324 1.98175 0
M  V30 8016 N 768.612 -1.24939 0.960631 0
M  V30 8017 C 769.544 -2.24879 0.442937 0
M  V30 8018 C 770.557 -1.56615 -0.444464 0
M  V30 8019 O 771.746 -1.76715 -0.251776 0
M  V30 8020 C 768.846 -3.36757 -0.380537 0
M  V30 8021 C 768.019 -4.34587 0.495283 0
M  V30 8022 C 767.078 -5.25502 -0.270995 0
M  V30 8023 O 766.104 -5.68227 0.332661 0
M  V30 8024 N 767.306 -5.59077 -1.56249 0
M  V30 8025 H 770.071 -2.69932 1.30218 0
M  V30 8026 H 767.632 -1.38907 0.83166 0
M  V30 8027 H 769.624 -3.94542 -0.90103 0
M  V30 8028 H 768.194 -2.91045 -1.14067 0
M  V30 8029 H 767.414 -3.75593 1.19682 0
M  V30 8030 H 768.702 -4.96925 1.09285 0
M  V30 8031 H 768.1 -5.2628 -2.07476 0
M  V30 8032 H 766.657 -6.19421 -2.02882 0
M  V30 8033 N 770.09 -0.729906 -1.39679 0
M  V30 8034 C 771.315 -0.284345 -2.05442 0
M  V30 8035 C 771.74 1.07056 -1.54663 0
M  V30 8036 O 771.098 1.67732 -0.688157 0
M  V30 8037 C 771.146 -0.290089 -3.59431 0
M  V30 8038 O 770.25 0.723978 -4.05995 0
M  V30 8039 H 769.591 -0.130311 -0.651088 0
M  V30 8040 H 772.121 -0.994403 -1.78809 0
M  V30 8041 H 772.131 -0.132712 -4.07784 0
M  V30 8042 H 770.806 -1.27877 -3.95753 0
M  V30 8043 H 769.383 0.533154 -3.69069 0
M  V30 8044 N 771.568 1.50203 -0.477153 0
M  V30 8045 C 772.817 2.01551 0.0774548 0
M  V30 8046 C 773.13 1.36359 1.40234 0
M  V30 8047 O 774.336 1.78898 2.04225 0
M  V30 8048 C 772.792 3.59406 0.188539 0
M  V30 8049 C 772.4 4.3356 -1.12828 0
M  V30 8050 C 774.144 4.18776 0.694782 0
M  V30 8051 C 772.051 5.83213 -0.98066 0
M  V30 8052 H 770.981 0.75329 0.0327212 0
M  V30 8053 H 773.632 1.72959 -0.612969 0
M  V30 8054 H 772.014 3.84611 0.942881 0
M  V30 8055 H 773.188 4.20074 -1.89405 0
M  V30 8056 H 771.503 3.85827 -1.5661 0
M  V30 8057 H 774.1 5.28338 0.822356 0
M  V30 8058 H 774.443 3.80557 1.68766 0
M  V30 8059 H 774.976 3.978 -0.00234519 0
M  V30 8060 H 771.715 6.25914 -1.94709 0
M  V30 8061 H 771.235 5.99256 -0.255375 0
M  V30 8062 H 772.914 6.4373 -0.649717 0
M  V30 8063 N 773.046 0.209999 1.56195 0
M  V30 8064 C 774.274 -0.429996 2.02382 0
M  V30 8065 C 774.689 -1.54159 1.08998 0
M  V30 8066 O 774.046 -1.82239 0.0974856 0
M  V30 8067 C 774.097 -0.972433 3.48175 0
M  V30 8068 O 773.818 0.0948231 4.37997 0
M  V30 8069 C 775.319 -1.68683 4.09952 0
M  V30 8070 H 772.539 -0.106475 0.662498 0
M  V30 8071 H 775.083 0.323072 2.01932 0
M  V30 8072 H 773.238 -1.67582 3.49278 0
M  V30 8073 H 773.652 -0.31113 5.23576 0
M  V30 8074 H 775.126 -2.01851 5.13771 0
M  V30 8075 H 775.603 -2.59587 3.54276 0
M  V30 8076 H 776.209 -1.02893 4.12666 0
M  V30 8077 N 774.524 -1.57472 -0.0634922 0
M  V30 8078 C 775.764 -1.89491 -0.766312 0
M  V30 8079 C 776.128 -0.80475 -1.74321 0
M  V30 8080 O 777.329 -1.00825 -2.49174 0
M  V30 8081 C 775.6 -3.26731 -1.44851 0
M  V30 8082 S 777.159 -3.80516 -2.18525 0
M  V30 8083 H 773.977 -0.663832 -0.254653 0
M  V30 8084 H 776.579 -1.95488 -0.0220867 0
M  V30 8085 H 775.283 -4.03967 -0.723824 0
M  V30 8086 H 774.814 -3.23953 -2.232 0
M  V30 8087 H 776.829 -3.5647 -3.45172 0
M  V30 8088 N 776.003 0.335068 -1.53997 0
M  V30 8089 C 777.228 1.09859 -1.75914 0
M  V30 8090 C 777.653 1.81308 -0.500915 0
M  V30 8091 O 777.011 1.72854 0.54693 0
M  V30 8092 C 777.059 2.08122 -2.94478 0
M  V30 8093 O 776.163 3.15805 -2.65219 0
M  V30 8094 H 775.504 0.317313 -0.583274 0
M  V30 8095 H 778.034 0.382872 -2.00986 0
M  V30 8096 H 778.044 2.51195 -3.21504 0
M  V30 8097 H 776.719 1.55517 -3.8573 0
M  V30 8098 H 775.296 2.77489 -2.49107 0
M  V30 8099 N 777.481 1.45874 0.596531 0
M  V30 8100 C 778.729 1.5017 1.35253 0
M  V30 8101 C 779.05 0.149246 1.94428 0
M  V30 8102 O 778.32 -0.82268 1.77789 0
M  V30 8103 H 776.9 0.553052 0.502138 0
M  V30 8104 H 779.562 1.81908 0.699671 0
M  V30 8105 H 778.658 2.24671 2.16632 0
M  V30 8106 N 778.959 -0.83999 1.33349 0
M  V30 8107 C 779.907 -1.97113 1.23488 0
M  V30 8108 C 780.901 -1.68849 0.136503 0
M  V30 8109 O 782.107 -1.77476 0.300389 0
M  V30 8110 H 778.482 -0.647049 0.383185 0
M  V30 8111 H 780.453 -2.02554 2.19122 0
M  V30 8112 C 779.202 -3.33314 0.989815 0
M  V30 8113 H 778.525 -3.556 1.82726 0
M  V30 8114 H 779.965 -4.12963 0.961123 0
M  V30 8115 C 778.424 -3.35496 -0.307272 0
M  V30 8116 O 778.954 -3.79589 -1.31434 0
M  V30 8117 N 777.16 -2.88669 -0.334414 0
M  V30 8118 H 776.707 -2.5298 0.485659 0
M  V30 8119 H 776.665 -2.90512 -1.20209 0
M  V30 8120 N 780.437 -1.16799 -1.0581 0
M  V30 8121 C 781.853 -0.913935 -1.30841 0
M  V30 8122 C 782.053 0.430439 -1.96849 0
M  V30 8123 O 781.109 1.16885 -2.23817 0
M  V30 8124 C 782.422 -2.06662 -2.18429 0
M  V30 8125 C 783.97 -2.10294 -2.31831 0
M  V30 8126 C 784.445 -3.2493 -3.22776 0
M  V30 8127 N 785.936 -3.24678 -3.30361 0
M  V30 8128 C 786.671 -4.10021 -4.00837 0
M  V30 8129 N 786.167 -5.05461 -4.73795 0
M  V30 8130 N 787.96 -3.97991 -3.96937 0
M  V30 8131 H 780.111 -2.03343 -0.613613 0
M  V30 8132 H 782.374 -0.88754 -0.333133 0
M  V30 8133 H 782.08 -3.03791 -1.77211 0
M  V30 8134 H 781.954 -2.01233 -3.19038 0
M  V30 8135 H 784.341 -1.13754 -2.72294 0
M  V30 8136 H 784.422 -2.19786 -1.30873 0
M  V30 8137 H 784.066 -4.21731 -2.83028 0
M  V30 8138 H 783.996 -3.12674 -4.23725 0
M  V30 8139 H 786.487 -2.55573 -2.78372 0
M  V30 8140 H 786.8 -5.66989 -5.25113 0
M  V30 8141 H 785.145 -5.09436 -4.72758 0
M  V30 8142 H 788.336 -3.2273 -3.39062 0
M  V30 8143 H 788.509 -4.64722 -4.51594 0
M  V30 8144 N 781.915 1.24427 -0.967243 0
M  V30 8145 C 783.143 1.96541 -0.646477 0
M  V30 8146 C 783.558 1.71753 0.783996 0
M  V30 8147 O 782.915 1.00102 1.52597 0
M  V30 8148 C 782.966 3.4983 -0.911098 0
M  V30 8149 O 782.687 3.7377 -2.28534 0
M  V30 8150 C 784.188 4.3916 -0.604458 0
M  V30 8151 H 781.408 0.626129 -0.241255 0
M  V30 8152 H 783.952 1.58268 -1.29505 0
M  V30 8153 H 782.107 3.86168 -0.308741 0
M  V30 8154 H 782.521 4.68154 -2.365 0
M  V30 8155 H 783.995 5.4557 -0.840069 0
M  V30 8156 H 784.472 4.36771 0.461273 0
M  V30 8157 H 785.078 4.08409 -1.1867 0
M  V30 8158 N 783.393 0.737304 1.3929 0
M  V30 8159 C 784.639 0.295581 2.01241 0
M  V30 8160 C 784.994 -1.10561 1.57461 0
M  V30 8161 O 784.287 -1.74346 0.7946 0
M  V30 8162 C 784.481 0.338438 3.55794 0
M  V30 8163 C 784.31 1.74225 4.14579 0
M  V30 8164 C 783.08 2.35502 4.47065 0
M  V30 8165 C 785.278 2.69623 4.37959 0
M  V30 8166 N 783.26 3.68014 4.91365 0
M  V30 8167 C 784.631 3.86873 4.84489 0
M  V30 8168 C 786.686 2.67355 4.2003 0
M  V30 8169 C 785.389 5.02193 5.14971 0
M  V30 8170 C 787.415 3.8182 4.51627 0
M  V30 8171 C 786.777 4.97806 4.98366 0
M  V30 8172 H 782.876 0.154468 0.766592 0
M  V30 8173 H 785.46 0.963768 1.69173 0
M  V30 8174 H 783.631 -0.299406 3.87244 0
M  V30 8175 H 785.363 -0.122053 4.04516 0
M  V30 8176 H 782.118 1.87406 4.34943 0
M  V30 8177 H 782.542 4.36051 5.17869 0
M  V30 8178 H 787.184 1.78876 3.83097 0
M  V30 8179 H 784.902 5.913 5.50809 0
M  V30 8180 H 788.488 3.81366 4.39376 0
M  V30 8181 H 787.368 5.84909 5.22351 0
M  V30 8182 N 784.871 -1.49948 0.485112 0
M  V30 8183 C 786.101 -2.06506 -0.0621921 0
M  V30 8184 C 786.509 -1.34756 -1.32806 0
M  V30 8185 O 785.852 -0.41466 -1.78959 0
M  V30 8186 C 785.914 -3.57243 -0.402182 0
M  V30 8187 C 785.578 -4.50574 0.763671 0
M  V30 8188 C 786.575 -4.93032 1.6497 0
M  V30 8189 C 784.26 -4.9308 0.957973 0
M  V30 8190 C 786.254 -5.76718 2.71432 0
M  V30 8191 C 783.941 -5.76546 2.0258 0
M  V30 8192 C 784.939 -6.18267 2.90232 0
M  V30 8193 O 784.627 -7.00066 3.95174 0
M  V30 8194 H 784.359 -0.675925 0.0100672 0
M  V30 8195 H 786.913 -1.93922 0.677023 0
M  V30 8196 H 785.143 -3.6778 -1.19478 0
M  V30 8197 H 786.832 -3.96107 -0.886219 0
M  V30 8198 H 787.598 -4.60851 1.51134 0
M  V30 8199 H 783.477 -4.60117 0.285144 0
M  V30 8200 H 787.021 -6.09203 3.39878 0
M  V30 8201 H 782.918 -6.0814 2.16417 0
M  V30 8202 H 783.686 -7.18343 3.92333 0
M  V30 8203 N 786.349 -0.21828 -1.56081 0
M  V30 8204 C 787.76 0.290166 -1.84431 0
M  V30 8205 C 788.111 1.59712 -1.13958 0
M  V30 8206 O 787.236 2.12516 -0.40815 0
M  V30 8207 C 787.831 0.53325 -3.34577 0
M  V30 8208 C 786.39 0.986011 -3.63256 0
M  V30 8209 C 785.537 0.0472798 -2.7726 0
M  V30 8210 H 788.488 -0.441548 -1.52434 0
M  V30 8211 H 788.509 1.37967 -3.54606 0
M  V30 8212 H 788.021 -0.418137 -3.85841 0
M  V30 8213 H 786.122 1.95087 -3.17446 0
M  V30 8214 H 786.235 0.862684 -4.71269 0
M  V30 8215 H 784.599 0.553471 -2.48614 0
M  V30 8216 H 785.382 -0.898966 -3.31321 0
M  V30 8217 N 787.827 1.57504 0.0551401 0
M  V30 8218 C 788.737 2.08198 1.08124 0
M  V30 8219 C 789.753 1.01496 1.41331 0
M  V30 8220 O 790.929 1.33073 1.51174 0
M  V30 8221 C 787.994 2.52968 2.37083 0
M  V30 8222 C 787.055 3.7404 2.10696 0
M  V30 8223 C 786.288 4.16665 3.33505 0
M  V30 8224 O 786.511 3.59019 4.4324 0
M  V30 8225 O 785.445 5.09324 3.20737 0
M  V30 8226 H 789.271 2.95977 0.680518 0
M  V30 8227 H 786.856 1.46933 0.270401 0
M  V30 8228 H 788.738 2.82211 3.12946 0
M  V30 8229 H 787.413 1.6831 2.76502 0
M  V30 8230 H 786.32 3.49855 1.32484 0
M  V30 8231 H 787.653 4.59601 1.76148 0
M  V30 8232 N 789.305 -0.326896 1.54172 0
M  V30 8233 C 790.551 -1.06681 1.72473 0
M  V30 8234 C 790.884 -1.87779 0.49523 0
M  V30 8235 O 790.159 -1.87754 -0.507803 0
M  V30 8236 C 790.442 -1.99429 2.99834 0
M  V30 8237 C 790.295 -1.21682 4.33028 0
M  V30 8238 C 791.614 -2.99002 3.22933 0
M  V30 8239 H 788.733 -0.386438 0.627563 0
M  V30 8240 H 791.375 -0.343779 1.86864 0
M  V30 8241 H 789.525 -2.61081 2.87696 0
M  V30 8242 H 791.197 -0.625153 4.57044 0
M  V30 8243 H 789.44 -0.519045 4.30684 0
M  V30 8244 H 790.111 -1.89766 5.18356 0
M  V30 8245 H 792.587 -2.4747 3.34511 0
M  V30 8246 H 791.463 -3.61085 4.13412 0
M  V30 8247 H 791.724 -3.71281 2.40006 0
M  V30 8248 N 790.784 -1.46188 -0.588786 0
M  V30 8249 C 792.195 -1.45421 -1.17088 0
M  V30 8250 C 792.546 -0.191801 -1.9526 0
M  V30 8251 O 791.671 0.705497 -2.04577 0
M  V30 8252 C 792.266 -2.63467 -2.13004 0
M  V30 8253 C 790.825 -2.6576 -2.6655 0
M  V30 8254 C 789.972 -2.38002 -1.42304 0
M  V30 8255 H 792.923 -1.54156 -0.377052 0
M  V30 8256 H 792.944 -2.38638 -2.96365 0
M  V30 8257 H 792.456 -3.55331 -1.56081 0
M  V30 8258 H 790.557 -1.77952 -3.27359 0
M  V30 8259 H 790.67 -3.65545 -3.09699 0
M  V30 8260 H 789.034 -1.87936 -1.71907 0
M  V30 8261 H 789.817 -3.32035 -0.872209 0
M  V30 8262 N 792.262 0.832906 -1.33792 0
M  V30 8263 C 793.209 1.94314 -1.24541 0
M  V30 8264 C 794.179 1.65646 -0.122753 0
M  V30 8265 O 795.364 1.88394 -0.30204 0
M  V30 8266 C 792.504 3.30395 -0.996641 0
M  V30 8267 C 791.617 3.71422 -2.20612 0
M  V30 8268 C 790.752 4.96401 -1.89101 0
M  V30 8269 C 789.791 5.2998 -3.06247 0
M  V30 8270 N 788.928 6.46137 -2.74685 0
M  V30 8271 H 793.768 2.01559 -2.19495 0
M  V30 8272 H 791.305 0.986243 -1.09141 0
M  V30 8273 H 793.263 4.08803 -0.832817 0
M  V30 8274 H 791.893 3.22691 -0.0838242 0
M  V30 8275 H 790.945 2.88488 -2.47949 0
M  V30 8276 H 792.257 3.92215 -3.0817 0
M  V30 8277 H 791.411 5.82572 -1.69396 0
M  V30 8278 H 790.15 4.7759 -0.987882 0
M  V30 8279 H 789.155 4.42312 -3.26559 0
M  V30 8280 H 790.38 5.50737 -3.97323 0
M  V30 8281 H 788.326 6.28801 -1.86938 0
M  V30 8282 H 788.243 6.67054 -3.55774 0
M  V30 8283 H 789.511 7.35403 -2.58461 0
M  V30 8284 N 793.74 1.17359 1.05189 0
M  V30 8285 C 794.98 0.972812 1.79766 0
M  V30 8286 C 795.344 -0.489832 1.85647 0
M  V30 8287 O 796.545 -0.809682 2.56315 0
M  V30 8288 C 794.816 1.59636 3.19767 0
M  V30 8289 S 796.375 1.54178 4.10822 0
M  V30 8290 H 793.193 0.34959 0.619119 0
M  V30 8291 H 795.795 1.49304 1.26209 0
M  V30 8292 H 794.499 2.65336 3.13089 0
M  V30 8293 H 794.03 1.07594 3.78401 0
M  V30 8294 H 796.045 0.549785 4.93145 0
M  V30 8295 N 795.218 -1.23913 0.973828 0
M  V30 8296 C 796.128 -2.28838 0.516735 0
M  V30 8297 C 797.144 -1.68723 -0.425282 0
M  V30 8298 O 798.32 -1.99201 -0.296819 0
M  V30 8299 C 795.385 -3.46233 -0.179914 0
M  V30 8300 C 794.446 -4.21729 0.80269 0
M  V30 8301 C 793.679 -5.33518 0.139191 0
M  V30 8302 O 793.902 -5.60252 -1.07118 0
M  V30 8303 O 792.836 -5.96088 0.834447 0
M  V30 8304 H 796.662 -2.70067 1.38916 0
M  V30 8305 H 794.247 -1.2972 0.74115 0
M  V30 8306 H 796.129 -4.17514 -0.570991 0
M  V30 8307 H 794.804 -3.06969 -1.02721 0
M  V30 8308 H 793.711 -3.52799 1.24434 0
M  V30 8309 H 795.044 -4.64825 1.61859 0
M  V30 8310 N 796.696 -0.74468 -1.38897 0
M  V30 8311 C 797.942 -0.306249 -2.01081 0
M  V30 8312 C 798.297 1.09724 -1.58046 0
M  V30 8313 O 797.59 1.73923 -0.803834 0
M  V30 8314 C 797.784 -0.357302 -3.55609 0
M  V30 8315 C 797.613 -1.76421 -4.13649 0
M  V30 8316 C 796.383 -2.3787 -4.4581 0
M  V30 8317 C 798.581 -2.71942 -4.36523 0
M  V30 8318 N 796.563 -3.70614 -4.89406 0
M  V30 8319 C 797.934 -3.89437 -4.8243 0
M  V30 8320 C 799.989 -2.69579 -4.18607 0
M  V30 8321 C 798.692 -5.04917 -5.123 0
M  V30 8322 C 800.718 -3.8421 -4.49596 0
M  V30 8323 C 800.08 -5.00442 -4.95719 0
M  V30 8324 H 796.179 -0.158531 -0.765762 0
M  V30 8325 H 798.763 -0.972726 -1.6866 0
M  V30 8326 H 796.934 0.278865 -3.87398 0
M  V30 8327 H 798.666 0.100599 -4.04575 0
M  V30 8328 H 795.421 -1.8971 -4.33943 0
M  V30 8329 H 795.845 -4.38791 -5.1555 0
M  V30 8330 H 800.487 -1.80905 -3.82143 0
M  V30 8331 H 798.205 -5.94213 -5.47665 0
M  V30 8332 H 801.791 -3.83691 -4.37347 0
M  V30 8333 H 800.671 -5.87671 -5.19242 0
M  V30 8334 N 798.174 1.49689 -0.493057 0
M  V30 8335 C 799.084 2.32746 0.294358 0
M  V30 8336 C 800.1 1.44117 0.975003 0
M  V30 8337 O 801.276 1.77149 0.958138 0
M  V30 8338 C 798.341 3.19358 1.34949 0
M  V30 8339 C 797.402 4.2383 0.683122 0
M  V30 8340 C 796.635 5.06303 1.68798 0
M  V30 8341 O 796.858 4.90172 2.91698 0
M  V30 8342 O 795.792 5.88826 1.24768 0
M  V30 8343 H 799.618 3.01247 -0.385254 0
M  V30 8344 H 797.203 1.47216 -0.254519 0
M  V30 8345 H 799.085 3.73037 1.96014 0
M  V30 8346 H 797.76 2.53561 2.01217 0
M  V30 8347 H 796.667 3.74086 0.0329351 0
M  V30 8348 H 798 4.9216 0.0630192 0
M  V30 8349 N 799.652 0.226554 1.55963 0
M  V30 8350 C 800.88 -0.408507 2.02827 0
M  V30 8351 C 801.295 -1.52994 1.10627 0
M  V30 8352 O 800.652 -1.82126 0.116809 0
M  V30 8353 C 800.703 -0.93545 3.49187 0
M  V30 8354 O 800.424 0.141273 4.37872 0
M  V30 8355 C 801.925 -1.64325 4.11719 0
M  V30 8356 H 799.145 -0.099442 0.66359 0
M  V30 8357 H 801.689 0.344471 2.01578 0
M  V30 8358 H 799.844 -1.63868 3.51036 0
M  V30 8359 H 800.258 -0.25558 5.23877 0
M  V30 8360 H 801.732 -1.9639 5.15883 0
M  V30 8361 H 802.209 -2.55815 3.57009 0
M  V30 8362 H 802.815 -0.9851 4.13734 0
M  V30 8363 N 801.13 -1.57531 -0.0467866 0
M  V30 8364 C 802.541 -1.76945 -0.595603 0
M  V30 8365 C 802.892 -0.855354 -1.76573 0
M  V30 8366 O 802.017 -0.045668 -2.16352 0
M  V30 8367 C 802.612 -3.20881 -1.08725 0
M  V30 8368 C 801.171 -3.41553 -1.58172 0
M  V30 8369 C 800.318 -2.72533 -0.511968 0
M  V30 8370 H 803.269 -1.57682 0.179436 0
M  V30 8371 H 803.29 -3.26419 -1.95528 0
M  V30 8372 H 802.802 -3.87385 -0.235398 0
M  V30 8373 H 800.903 -2.80199 -2.456 0
M  V30 8374 H 801.016 -4.50104 -1.64143 0
M  V30 8375 H 799.38 -2.35797 -0.962899 0
M  V30 8376 H 800.163 -3.41709 0.330117 0
M  V30 8377 N 802.608 0.318715 -1.54344 0
M  V30 8378 C 803.518 1.41535 -1.87097 0
M  V30 8379 C 804.534 1.56361 -0.763353 0
M  V30 8380 O 805.71 1.71365 -1.05811 0
M  V30 8381 C 802.775 2.76178 -2.09587 0
M  V30 8382 C 801.836 2.70486 -3.3337 0
M  V30 8383 C 801.069 3.98708 -3.54778 0
M  V30 8384 O 801.292 4.9721 -2.79532 0
M  V30 8385 O 800.226 4.01674 -4.48266 0
M  V30 8386 H 804.052 1.16764 -2.80357 0
M  V30 8387 H 801.637 0.51318 -1.4031 0
M  V30 8388 H 803.519 3.55873 -2.25682 0
M  V30 8389 H 802.194 3.00829 -1.19514 0
M  V30 8390 H 801.101 1.89325 -3.22656 0
M  V30 8391 H 802.434 2.50789 -4.23516 0
M  V30 8392 N 804.086 1.46499 0.581025 0
M  V30 8393 C 805.334 1.51596 1.33653 0
M  V30 8394 C 805.655 0.169859 1.94259 0
M  V30 8395 O 804.925 -0.803776 1.78651 0
M  V30 8396 H 803.505 0.558346 0.496244 0
M  V30 8397 H 806.167 1.8264 0.680338 0
M  V30 8398 H 805.263 2.26956 2.14237 0
M  V30 8399 N 805.565 -0.825799 1.34232 0
M  V30 8400 C 806.805 -1.59541 1.27773 0
M  V30 8401 C 807.169 -1.91405 -0.150998 0
M  V30 8402 O 808.37 -2.66644 -0.339728 0
M  V30 8403 C 806.641 -2.86183 2.14089 0
M  V30 8404 S 808.2 -3.76751 2.24953 0
M  V30 8405 H 805.018 -0.546871 0.454371 0
M  V30 8406 H 807.62 -0.975677 1.69413 0
M  V30 8407 H 806.324 -2.60767 3.16905 0
M  V30 8408 H 805.855 -3.53155 1.73335 0
M  V30 8409 H 807.87 -4.75442 1.4202 0
M  V30 8410 N 807.043 -1.17915 -1.04565 0
M  V30 8411 C 807.953 -0.916449 -2.15959 0
M  V30 8412 C 808.969 0.117655 -1.73602 0
M  V30 8413 O 810.145 -0.063089 -2.01301 0
M  V30 8414 C 807.21 -0.440262 -3.43893 0
M  V30 8415 C 806.271 -1.54172 -4.00661 0
M  V30 8416 C 805.504 -1.08816 -5.22489 0
M  V30 8417 O 805.727 0.0551547 -5.70373 0
M  V30 8418 O 804.661 -1.88383 -5.7166 0
M  V30 8419 H 808.487 -1.8484 -2.40972 0
M  V30 8420 H 806.072 -0.960552 -1.14428 0
M  V30 8421 H 807.954 -0.182537 -4.21004 0
M  V30 8422 H 806.629 0.46346 -3.20365 0
M  V30 8423 H 805.536 -1.85341 -3.24961 0
M  V30 8424 H 806.869 -2.42139 -4.2852 0
M  V30 8425 N 808.521 1.23394 -0.980386 0
M  V30 8426 C 809.453 2.24146 -0.478657 0
M  V30 8427 C 810.466 1.57303 0.419492 0
M  V30 8428 O 811.655 1.77094 0.223631 0
M  V30 8429 C 808.755 3.3732 0.326913 0
M  V30 8430 C 807.928 4.33744 -0.56436 0
M  V30 8431 C 806.987 5.25866 0.187358 0
M  V30 8432 O 806.013 5.67626 -0.423019 0
M  V30 8433 N 807.215 5.61492 1.47335 0
M  V30 8434 H 809.98 2.67826 -1.34496 0
M  V30 8435 H 807.541 1.37566 -0.853653 0
M  V30 8436 H 809.533 3.95926 0.838148 0
M  V30 8437 H 808.103 2.92823 1.09422 0
M  V30 8438 H 807.323 3.73641 -1.25642 0
M  V30 8439 H 808.611 4.95123 -1.17177 0
M  V30 8440 H 808.009 5.29514 1.99077 0
M  V30 8441 H 806.566 6.2257 1.93002 0
M  V30 8442 N 809.999 0.752036 1.385 0
M  V30 8443 C 811.245 0.307958 2.00448 0
M  V30 8444 C 811.578 -1.10702 1.59558 0
M  V30 8445 O 810.853 -1.75788 0.832391 0
M  V30 8446 C 811.136 0.429092 3.57534 0
M  V30 8447 C 810.989 1.88507 4.08393 0
M  V30 8448 C 812.308 -0.178442 4.39738 0
M  V30 8449 H 809.427 0.113373 0.728228 0
M  V30 8450 H 812.069 0.951389 1.64465 0
M  V30 8451 H 810.219 -0.118695 3.88319 0
M  V30 8452 H 811.891 2.49104 3.88259 0
M  V30 8453 H 810.134 2.40066 3.61318 0
M  V30 8454 H 810.805 1.92099 5.17496 0
M  V30 8455 H 813.281 0.28872 4.15097 0
M  V30 8456 H 812.157 -0.0634349 5.48863 0
M  V30 8457 H 812.418 -1.26655 4.23569 0
M  V30 8458 N 811.477 -1.49425 0.500989 0
M  V30 8459 C 812.407 -2.31971 -0.266775 0
M  V30 8460 C 813.388 -1.40245 -0.962563 0
M  V30 8461 O 814.573 -1.69154 -0.953968 0
M  V30 8462 C 811.703 -3.20757 -1.33163 0
M  V30 8463 C 810.657 -4.21275 -0.75572 0
M  V30 8464 C 809.983 -4.98997 -1.92109 0
M  V30 8465 C 811.283 -5.21686 0.253213 0
M  V30 8466 H 812.977 -2.96408 0.422237 0
M  V30 8467 H 810.523 -1.4254 0.204505 0
M  V30 8468 H 812.476 -3.77315 -1.87646 0
M  V30 8469 H 811.2 -2.54263 -2.04983 0
M  V30 8470 H 809.859 -3.65861 -0.232637 0
M  V30 8471 H 809.507 -4.28951 -2.62698 0
M  V30 8472 H 809.207 -5.67011 -1.54182 0
M  V30 8473 H 810.731 -5.584 -2.47026 0
M  V30 8474 H 812.145 -5.72939 -0.203483 0
M  V30 8475 H 810.542 -5.9759 0.548322 0
M  V30 8476 H 811.612 -4.70596 1.16909 0
M  V30 8477 N 812.955 -0.234822 -1.55841 0
M  V30 8478 C 814.183 0.397745 -2.03041 0
M  V30 8479 C 814.598 1.52405 -1.11437 0
M  V30 8480 O 813.955 1.82061 -0.126466 0
M  V30 8481 C 814.006 0.916919 -3.49678 0
M  V30 8482 O 813.727 -0.164493 -4.37791 0
M  V30 8483 C 815.228 1.62139 -4.12584 0
M  V30 8484 H 812.448 0.0959214 -0.664108 0
M  V30 8485 H 814.992 -0.355156 -2.01392 0
M  V30 8486 H 813.147 1.62004 -3.519 0
M  V30 8487 H 813.561 0.227794 -5.24005 0
M  V30 8488 H 815.035 1.93651 -5.16917 0
M  V30 8489 H 815.512 2.53918 -3.58361 0
M  V30 8490 H 816.118 0.963145 -4.14251 0
M  V30 8491 N 814.433 1.57553 0.0384317 0
M  V30 8492 C 815.681 1.88468 0.729672 0
M  V30 8493 C 816.002 0.831302 1.76393 0
M  V30 8494 O 815.272 -0.13622 1.95426 0
M  V30 8495 H 813.852 0.695529 0.272485 0
M  V30 8496 H 816.514 1.94899 0.0066032 0
M  V30 8497 H 815.61 2.8705 1.22511 0
M  V30 8498 N 815.911 -0.310526 1.54511 0
M  V30 8499 C 816.858 -1.38264 1.84802 0
M  V30 8500 C 817.828 -1.50808 0.696141 0
M  V30 8501 O 819.013 -1.6582 0.943846 0
M  V30 8502 C 816.153 -2.74422 2.09252 0
M  V30 8503 C 815.266 -2.70405 3.36906 0
M  V30 8504 C 814.401 -3.98495 3.51248 0
M  V30 8505 C 813.44 -3.88836 4.72729 0
M  V30 8506 N 812.577 -5.08683 4.83928 0
M  V30 8507 H 817.417 -1.11732 2.76261 0
M  V30 8508 H 814.954 -0.540609 1.36806 0
M  V30 8509 H 816.912 -3.53593 2.21422 0
M  V30 8510 H 815.542 -2.99235 1.2107 0
M  V30 8511 H 814.594 -1.83151 3.33406 0
M  V30 8512 H 815.906 -2.59155 4.26193 0
M  V30 8513 H 815.06 -4.861 3.63031 0
M  V30 8514 H 813.799 -4.12567 2.60077 0
M  V30 8515 H 812.804 -2.99615 4.60989 0
M  V30 8516 H 814.029 -3.76318 5.65298 0
M  V30 8517 H 811.975 -5.23236 3.95677 0
M  V30 8518 H 811.892 -4.99819 5.67201 0
M  V30 8519 H 813.16 -5.97966 5.00057 0
M  V30 8520 N 817.389 -1.46805 -0.573248 0
M  V30 8521 C 818.805 -1.31969 -0.897577 0
M  V30 8522 C 819.005 -0.298171 -1.99282 0
M  V30 8523 O 818.061 0.295953 -2.5076 0
M  V30 8524 C 819.374 -2.70859 -1.30598 0
M  V30 8525 C 820.922 -2.79022 -1.4183 0
M  V30 8526 C 821.397 -4.18516 -1.86033 0
M  V30 8527 N 822.888 -4.2098 -1.9321 0
M  V30 8528 C 823.623 -5.25814 -2.28707 0
M  V30 8529 N 823.119 -6.40968 -2.6293 0
M  V30 8530 N 824.912 -5.13184 -2.29343 0
M  V30 8531 H 817.063 -2.11869 0.150094 0
M  V30 8532 H 819.326 -0.947989 0.00447895 0
M  V30 8533 H 819.032 -3.46965 -0.575161 0
M  V30 8534 H 818.906 -3.01585 -2.26554 0
M  V30 8535 H 821.293 -2.03198 -2.13996 0
M  V30 8536 H 821.374 -2.51969 -0.441024 0
M  V30 8537 H 821.018 -4.94839 -1.14442 0
M  V30 8538 H 820.948 -4.42982 -2.84735 0
M  V30 8539 H 823.439 -3.37898 -1.69214 0
M  V30 8540 H 823.752 -7.16729 -2.88996 0
M  V30 8541 H 822.097 -6.44314 -2.60547 0
M  V30 8542 H 825.288 -4.22255 -2.02036 0
M  V30 8543 H 825.461 -5.94996 -2.56679 0
M  V30 8544 N 818.867 0.818669 -1.34668 0
M  V30 8545 C 819.797 1.94468 -1.29245 0
M  V30 8546 C 820.778 1.69257 -0.169101 0
M  V30 8547 O 821.963 1.90794 -0.362143 0
M  V30 8548 C 819.093 3.31001 -1.05145 0
M  V30 8549 C 818.047 3.70663 -2.13992 0
M  V30 8550 C 817.373 5.05226 -1.75074 0
M  V30 8551 C 818.673 3.82312 -3.55858 0
M  V30 8552 H 820.367 1.99263 -2.2346 0
M  V30 8553 H 817.913 0.957304 -1.07572 0
M  V30 8554 H 819.866 4.09364 -0.999949 0
M  V30 8555 H 818.59 3.26517 -0.0737312 0
M  V30 8556 H 817.249 2.94578 -2.18219 0
M  V30 8557 H 816.897 4.97233 -0.759518 0
M  V30 8558 H 816.597 5.32734 -2.47928 0
M  V30 8559 H 818.121 5.86042 -1.71427 0
M  V30 8560 H 819.535 4.50935 -3.5402 0
M  V30 8561 H 817.932 4.21278 -4.2737 0
M  V30 8562 H 819.002 2.84193 -3.9289 0
M  V30 8563 N 820.346 1.18468 1.03938 0
M  V30 8564 C 821.279 0.856251 2.11527 0
M  V30 8565 C 822.257 -0.182323 1.61575 0
M  V30 8566 O 823.441 -0.061 1.88401 0
M  V30 8567 C 820.568 0.279562 3.37544 0
M  V30 8568 C 819.614 1.29552 4.06348 0
M  V30 8569 S 820.447 2.85191 4.5324 0
M  V30 8570 C 821.603 2.29037 5.82489 0
M  V30 8571 H 821.836 1.76742 2.39059 0
M  V30 8572 H 819.369 1.01068 1.16725 0
M  V30 8573 H 821.327 -0.0466579 4.10473 0
M  V30 8574 H 819.988 -0.60975 3.08125 0
M  V30 8575 H 819.181 0.840922 4.96935 0
M  V30 8576 H 818.783 1.56804 3.39541 0
M  V30 8577 H 821.075 1.67376 6.565 0
M  V30 8578 H 822.018 3.17929 6.32714 0
M  V30 8579 H 822.426 1.72009 5.37655 0
M  V30 8580 N 821.824 -1.22873 0.986916 0
M  V30 8581 C 822.756 -2.23889 0.490537 0
M  V30 8582 C 823.769 -1.57523 -0.411144 0
M  V30 8583 O 824.958 -1.7721 -0.214236 0
M  V30 8584 C 822.058 -3.37488 -0.30902 0
M  V30 8585 C 821.231 -4.33438 0.587354 0
M  V30 8586 C 820.29 -5.25958 -0.159467 0
M  V30 8587 O 819.316 -5.67394 0.453115 0
M  V30 8588 N 820.518 -5.62265 -1.44355 0
M  V30 8589 H 823.283 -2.67109 1.35914 0
M  V30 8590 H 820.844 -1.37111 0.860937 0
M  V30 8591 H 822.836 -3.96365 -0.817139 0
M  V30 8592 H 821.406 -2.934 -1.07868 0
M  V30 8593 H 820.626 -3.72969 1.27622 0
M  V30 8594 H 821.914 -4.94495 1.19801 0
M  V30 8595 H 821.312 -5.30562 -1.96266 0
M  V30 8596 H 819.869 -6.23585 -1.89698 0
M  V30 8597 N 823.302 -0.75937 -1.38099 0
M  V30 8598 C 824.542 -0.323116 -2.0183 0
M  V30 8599 C 824.906 1.07658 -1.58977 0
M  V30 8600 O 826.107 1.61227 -2.1508 0
M  V30 8601 C 824.378 -0.448234 -3.54578 0
M  V30 8602 S 825.937 -0.0954152 -4.38696 0
M  V30 8603 H 822.755 -0.125013 -0.699923 0
M  V30 8604 H 825.357 -0.991262 -1.68506 0
M  V30 8605 H 824.061 -1.46778 -3.83255 0
M  V30 8606 H 823.592 0.236895 -3.92686 0
M  V30 8607 H 825.607 1.11312 -4.83554 0
M  V30 8608 N 824.78 1.49157 -0.508906 0
M  V30 8609 C 825.71 2.32109 0.254469 0
M  V30 8610 C 826.691 1.40754 0.955111 0
M  V30 8611 O 827.876 1.69658 0.944983 0
M  V30 8612 C 825.006 3.21458 1.3146 0
M  V30 8613 C 823.96 4.2167 0.733368 0
M  V30 8614 C 823.286 5.00009 1.8946 0
M  V30 8615 C 824.586 5.21544 -0.280875 0
M  V30 8616 H 826.28 2.9618 -0.43795 0
M  V30 8617 H 823.826 1.4243 -0.212062 0
M  V30 8618 H 825.779 3.78305 1.85643 0
M  V30 8619 H 824.503 2.55346 2.03632 0
M  V30 8620 H 823.162 3.65979 0.213231 0
M  V30 8621 H 822.81 4.30338 2.60419 0
M  V30 8622 H 822.51 5.67821 1.51173 0
M  V30 8623 H 824.034 5.59702 2.44061 0
M  V30 8624 H 825.448 5.73039 0.173095 0
M  V30 8625 H 823.845 5.97291 -0.580006 0
M  V30 8626 H 824.915 4.69969 -1.19404 0
M  V30 8627 N 826.258 0.243083 1.55714 0
M  V30 8628 C 827.669 -0.260788 1.8487 0
M  V30 8629 C 828.02 -1.57879 1.16485 0
M  V30 8630 O 827.145 -2.1184 0.441908 0
M  V30 8631 C 827.74 -0.479954 3.35383 0
M  V30 8632 C 826.299 -0.928096 3.64778 0
M  V30 8633 C 825.446 -0.00316416 2.773 0
M  V30 8634 H 828.397 0.465743 1.51712 0
M  V30 8635 H 828.418 -1.32308 3.56756 0
M  V30 8636 H 827.93 0.479468 3.85127 0
M  V30 8637 H 826.031 -1.90012 3.20509 0
M  V30 8638 H 826.144 -0.7876 4.72582 0
M  V30 8639 H 824.508 -0.513849 2.49463 0
M  V30 8640 H 825.291 0.951562 3.29849 0
M  V30 8641 N 827.736 -1.57571 -0.0300757 0
M  V30 8642 C 828.684 -2.0758 -1.04944 0
M  V30 8643 C 829.678 -0.989384 -1.37505 0
M  V30 8644 O 830.884 -1.17427 -1.36422 0
M  V30 8645 H 827.259 -0.662419 -0.355956 0
M  V30 8646 H 829.23 -2.92268 -0.601848 0
M  V30 8647 C 827.979 -2.5698 -2.34215 0
M  V30 8648 H 827.302 -3.40193 -2.10021 0
M  V30 8649 H 828.742 -2.95682 -3.03888 0
M  V30 8650 C 827.201 -1.47059 -3.03109 0
M  V30 8651 O 827.731 -0.83625 -3.92899 0
M  V30 8652 N 825.937 -1.20538 -2.64422 0
M  V30 8653 H 825.484 -1.72305 -1.9149 0
M  V30 8654 H 825.442 -0.472045 -3.10836 0
M  V30 8655 N 829.214 0.302327 -1.54673 0
M  V30 8656 C 830.625 0.875409 -1.64904 0
M  V30 8657 C 830.976 1.88132 -0.55684 0
M  V30 8658 O 830.101 2.14215 0.306754 0
M  V30 8659 C 830.696 1.59457 -2.9893 0
M  V30 8660 C 829.255 2.11607 -3.11287 0
M  V30 8661 C 828.402 0.948324 -2.6058 0
M  V30 8662 H 831.353 0.079362 -1.58501 0
M  V30 8663 H 831.374 2.46005 -2.90279 0
M  V30 8664 H 830.886 0.8622 -3.78402 0
M  V30 8665 H 828.987 2.87895 -2.36532 0
M  V30 8666 H 829.1 2.35151 -4.17422 0
M  V30 8667 H 827.464 1.33352 -2.17001 0
M  V30 8668 H 828.247 0.229936 -3.42529 0
M  V30 8669 N 830.692 1.47107 0.565454 0
M  V30 8670 C 831.602 1.61591 1.70075 0
M  V30 8671 C 832.618 0.498931 1.66693 0
M  V30 8672 O 833.794 0.765372 1.8629 0
M  V30 8673 C 830.859 1.61887 3.06583 0
M  V30 8674 C 829.92 2.84949 3.21096 0
M  V30 8675 C 829.153 2.85221 4.51093 0
M  V30 8676 O 829.376 1.94959 5.36048 0
M  V30 8677 O 828.31 3.76982 4.69221 0
M  V30 8678 H 832.136 2.57638 1.60799 0
M  V30 8679 H 829.721 1.30097 0.73451 0
M  V30 8680 H 831.603 1.64809 3.87835 0
M  V30 8681 H 830.278 0.69005 3.16259 0
M  V30 8682 H 829.185 2.87575 2.39273 0
M  V30 8683 H 830.518 3.77098 3.1632 0
M  V30 8684 N 832.17 -0.811516 1.35101 0
M  V30 8685 C 833.447 -1.55491 1.18667 0
M  V30 8686 C 833.827 -2.09775 -0.236189 0
M  V30 8687 O 833.175 -1.91989 -1.23905 0
M  V30 8688 C 833.385 -2.66732 2.25067 0
M  V30 8689 C 834.733 -3.35201 2.60625 0
M  V30 8690 O 835.757 -2.76998 2.23943 0
M  V30 8691 O 834.616 -4.40334 3.23679 0
M  V30 8692 H 831.71 -0.686783 0.460716 0
M  V30 8693 H 834.256 -0.851903 1.46768 0
M  V30 8694 H 833.028 -2.24457 3.20523 0
M  V30 8695 H 832.651 -3.44673 1.98208 0
M  V30 8696 N 833.648 -1.19017 -1.03309 0
M  V30 8697 C 834.894 -0.991681 -1.769 0
M  V30 8698 C 835.227 0.476813 -1.88255 0
M  V30 8699 O 834.502 1.35407 -1.39625 0
M  V30 8700 C 834.785 -1.65627 -3.19749 0
M  V30 8701 C 834.638 -3.19813 -3.1629 0
M  V30 8702 C 835.957 -1.37579 -4.18043 0
M  V30 8703 H 833.076 -0.361674 -0.642153 0
M  V30 8704 H 835.718 -1.46795 -1.20628 0
M  V30 8705 H 833.868 -1.25132 -3.67796 0
M  V30 8706 H 835.54 -3.69494 -2.76174 0
M  V30 8707 H 833.783 -3.51578 -2.54117 0
M  V30 8708 H 834.454 -3.61457 -4.17196 0
M  V30 8709 H 836.93 -1.72679 -3.78578 0
M  V30 8710 H 835.806 -1.86636 -5.16196 0
M  V30 8711 H 836.067 -0.300118 -4.4108 0
M  V30 8712 N 835.127 1.22348 -0.993418 0
M  V30 8713 C 836.074 2.24294 -0.544118 0
M  V30 8714 C 837.044 1.60602 0.42381 0
M  V30 8715 O 838.229 1.87952 0.328453 0
M  V30 8716 C 835.369 3.44837 0.134578 0
M  V30 8717 C 834.482 4.23043 -0.875151 0
M  V30 8718 C 833.617 5.30928 -0.169919 0
M  V30 8719 C 832.656 6.00853 -1.16798 0
M  V30 8720 N 831.793 7.00381 -0.491021 0
M  V30 8721 H 836.633 2.6209 -1.4182 0
M  V30 8722 H 834.17 1.2881 -0.710384 0
M  V30 8723 H 836.128 4.13625 0.544998 0
M  V30 8724 H 834.758 3.07804 0.972446 0
M  V30 8725 H 833.81 3.53546 -1.40389 0
M  V30 8726 H 835.122 4.71237 -1.63516 0
M  V30 8727 H 834.276 6.05972 0.297205 0
M  V30 8728 H 833.015 4.8371 0.622586 0
M  V30 8729 H 832.02 5.24591 -1.64573 0
M  V30 8730 H 833.245 6.50159 -1.96137 0
M  V30 8731 H 831.191 6.55393 0.282037 0
M  V30 8732 H 831.108 7.46584 -1.18947 0
M  V30 8733 H 832.376 7.79486 -0.0467169 0
M  V30 8734 N 836.605 0.766683 1.37694 0
M  V30 8735 C 837.538 0.0959288 2.27998 0
M  V30 8736 C 838.516 -0.714493 1.46061 0
M  V30 8737 O 839.7 -0.690337 1.75404 0
M  V30 8738 C 836.827 -0.87057 3.27321 0
M  V30 8739 C 835.873 -0.144771 4.26254 0
M  V30 8740 S 836.706 1.16365 5.22704 0
M  V30 8741 C 837.862 0.200564 6.25579 0
M  V30 8742 H 838.095 0.861666 2.84539 0
M  V30 8743 H 835.628 0.559845 1.43893 0
M  V30 8744 H 837.586 -1.42282 3.85053 0
M  V30 8745 H 836.247 -1.60938 2.69737 0
M  V30 8746 H 835.44 -0.877259 4.96307 0
M  V30 8747 H 835.042 0.33633 3.72485 0
M  V30 8748 H 837.334 -0.628833 6.74575 0
M  V30 8749 H 838.277 0.869117 7.02746 0
M  V30 8750 H 838.685 -0.185972 5.64194 0
M  V30 8751 N 838.083 -1.48885 0.516809 0
M  V30 8752 C 839.046 -2.27916 -0.242256 0
M  V30 8753 C 840.046 -1.34601 -0.879735 0
M  V30 8754 O 841.236 -1.57616 -0.74182 0
M  V30 8755 C 838.368 -3.13067 -1.34914 0
M  V30 8756 H 839.561 -2.96483 0.451444 0
M  V30 8757 H 837.114 -1.5391 0.272294 0
M  V30 8758 H 837.849 -2.49102 -2.07651 0
M  V30 8759 H 837.634 -3.81695 -0.897313 0
M  V30 8760 H 839.124 -3.72716 -1.88341 0
M  V30 8761 N 839.561 -0.251338 -1.55583 0
M  V30 8762 C 840.491 0.640437 -2.24545 0
M  V30 8763 C 841.472 1.17781 -1.22726 0
M  V30 8764 O 842.657 1.21633 -1.5139 0
M  V30 8765 C 839.787 1.8355 -2.94834 0
M  V30 8766 C 838.741 1.4307 -4.03379 0
M  V30 8767 C 838.067 2.70695 -4.61116 0
M  V30 8768 C 839.367 0.59848 -5.1886 0
M  V30 8769 H 841.061 0.0653772 -2.99329 0
M  V30 8770 H 838.607 0.0300042 -1.43969 0
M  V30 8771 H 840.56 2.46505 -3.4178 0
M  V30 8772 H 839.284 2.43601 -2.17546 0
M  V30 8773 H 837.943 0.824474 -3.57209 0
M  V30 8774 H 837.591 3.28954 -3.80524 0
M  V30 8775 H 837.291 2.44332 -5.34393 0
M  V30 8776 H 838.815 3.34541 -5.10798 0
M  V30 8777 H 840.229 1.13244 -5.62004 0
M  V30 8778 H 838.626 0.430728 -5.98552 0
M  V30 8779 H 839.696 -0.38829 -4.83343 0
M  V30 8780 N 841.039 1.57585 0.0217189 0
M  V30 8781 C 841.949 2.10444 1.03684 0
M  V30 8782 C 842.965 1.04472 1.39146 0
M  V30 8783 O 844.141 1.36249 1.48317 0
M  V30 8784 C 841.206 2.5794 2.31664 0
M  V30 8785 C 840.267 3.78425 2.02714 0
M  V30 8786 C 839.5 4.23646 3.24592 0
M  V30 8787 O 839.723 3.6834 4.35525 0
M  V30 8788 O 838.657 5.16013 3.09862 0
M  V30 8789 H 842.483 2.97354 0.617584 0
M  V30 8790 H 840.068 1.47473 0.239174 0
M  V30 8791 H 841.95 2.88785 3.06889 0
M  V30 8792 H 840.625 1.74138 2.7287 0
M  V30 8793 H 839.532 3.52587 1.25033 0
M  V30 8794 H 840.865 4.63234 1.66359 0
M  V30 8795 N 842.517 -0.29412 1.54831 0
M  V30 8796 C 843.763 -1.02999 1.74697 0
M  V30 8797 C 844.096 -1.86687 0.534949 0
M  V30 8798 O 843.371 -1.88789 -0.467863 0
M  V30 8799 C 843.654 -1.93024 3.03996 0
M  V30 8800 C 843.507 -1.1247 4.35512 0
M  V30 8801 C 844.826 -2.92085 3.29203 0
M  V30 8802 H 841.945 -0.373039 0.635618 0
M  V30 8803 H 844.587 -0.304065 1.87551 0
M  V30 8804 H 842.737 -2.5492 2.93169 0
M  V30 8805 H 844.409 -0.528067 4.58268 0
M  V30 8806 H 842.652 -0.427574 4.31688 0
M  V30 8807 H 843.323 -1.78728 5.22265 0
M  V30 8808 H 845.799 -2.40319 3.39685 0
M  V30 8809 H 844.675 -3.52234 4.20978 0
M  V30 8810 H 844.936 -3.66107 2.47827 0
M  V30 8811 N 843.995 -1.47404 -0.557645 0
M  V30 8812 C 845.225 -1.57393 -1.33832 0
M  V30 8813 C 845.633 -0.222978 -1.87881 0
M  V30 8814 O 844.976 0.793854 -1.65661 0
M  V30 8815 C 845.038 -2.53882 -2.54528 0
M  V30 8816 C 844.702 -3.99585 -2.21767 0
M  V30 8817 C 845.699 -4.88082 -1.79087 0
M  V30 8818 C 843.384 -4.44917 -2.3314 0
M  V30 8819 C 845.378 -6.1993 -1.48209 0
M  V30 8820 C 843.065 -5.76793 -2.01874 0
M  V30 8821 C 844.063 -6.64121 -1.59476 0
M  V30 8822 O 843.751 -7.93546 -1.28607 0
M  V30 8823 H 843.483 -0.534172 -0.41429 0
M  V30 8824 H 846.037 -1.93733 -0.682404 0
M  V30 8825 H 844.267 -2.12609 -3.23009 0
M  V30 8826 H 845.956 -2.54003 -3.16603 0
M  V30 8827 H 846.722 -4.54307 -1.69794 0
M  V30 8828 H 842.601 -3.77152 -2.65099 0
M  V30 8829 H 846.145 -6.88049 -1.15043 0
M  V30 8830 H 842.042 -6.1011 -2.10799 0
M  V30 8831 H 842.81 -8.06046 -1.42241 0
M  V30 8832 N 845.473 0.80434 -1.35529 0
M  V30 8833 C 846.42 1.91629 -1.28635 0
M  V30 8834 C 847.39 1.65348 -0.157862 0
M  V30 8835 O 848.575 1.87711 -0.341934 0
M  V30 8836 C 845.715 3.28207 -1.0665 0
M  V30 8837 C 844.828 3.66659 -2.28441 0
M  V30 8838 C 843.963 4.92279 -1.99588 0
M  V30 8839 C 843.002 5.23365 -3.1742 0
M  V30 8840 N 842.139 6.40165 -2.88328 0
M  V30 8841 H 846.979 1.96858 -2.23721 0
M  V30 8842 H 844.516 0.962871 -1.11208 0
M  V30 8843 H 846.474 4.06945 -0.919343 0
M  V30 8844 H 845.104 3.22441 -0.152253 0
M  V30 8845 H 844.156 2.83164 -2.54013 0
M  V30 8846 H 845.468 3.8559 -3.1642 0
M  V30 8847 H 844.622 5.78847 -1.81715 0
M  V30 8848 H 843.361 4.75387 -1.08896 0
M  V30 8849 H 842.366 4.35285 -3.35867 0
M  V30 8850 H 843.591 5.42185 -4.08916 0
M  V30 8851 H 841.537 6.24694 -2.00233 0
M  V30 8852 H 841.454 6.59357 -3.69843 0
M  V30 8853 H 842.722 7.29755 -2.74002 0
M  V30 8854 N 846.951 1.19563 1.02676 0
M  V30 8855 C 847.881 0.959024 2.12897 0
M  V30 8856 C 848.862 -0.108382 1.69754 0
M  V30 8857 O 850.047 0.0470698 1.94143 0
M  V30 8858 C 847.177 0.499211 3.43693 0
M  V30 8859 C 846.131 1.5087 4.00528 0
M  V30 8860 C 845.457 0.905884 5.2697 0
M  V30 8861 C 846.757 2.88954 4.3509 0
M  V30 8862 H 848.451 1.88084 2.32948 0
M  V30 8863 H 845.997 0.905731 1.11949 0
M  V30 8864 H 847.95 0.320965 4.20176 0
M  V30 8865 H 846.674 -0.458205 3.2337 0
M  V30 8866 H 845.333 1.67413 3.26142 0
M  V30 8867 H 844.981 -0.0591506 5.02965 0
M  V30 8868 H 844.681 1.58 5.65959 0
M  V30 8869 H 846.205 0.73848 6.06118 0
M  V30 8870 H 847.619 2.75981 5.02501 0
M  V30 8871 H 846.016 3.53177 4.85166 0
M  V30 8872 H 847.086 3.41447 3.44299 0
M  V30 8873 N 848.429 -1.21819 0.999893 0
M  V30 8874 C 849.654 -1.95298 0.698094 0
M  V30 8875 C 850.079 -1.73273 -0.731982 0
M  V30 8876 O 849.437 -1.01634 -1.50134 0
M  V30 8877 C 849.485 -3.45922 1.01834 0
M  V30 8878 O 848.589 -4.12223 0.120801 0
M  V30 8879 H 847.93 -0.610729 0.260588 0
M  V30 8880 H 850.46 -1.5472 1.33876 0
M  V30 8881 H 850.47 -3.96471 0.963074 0
M  V30 8882 H 849.145 -3.61278 2.06037 0
M  V30 8883 H 847.722 -3.72177 0.232153 0
M  V30 8884 N 849.908 -0.773975 -1.37286 0
M  V30 8885 C 850.838 -0.175782 -2.32837 0
M  V30 8886 C 851.819 0.680603 -1.5589 0
M  V30 8887 O 853.004 0.617607 -1.84117 0
M  V30 8888 C 850.134 0.702388 -3.40123 0
M  V30 8889 C 849.088 -0.0528687 -4.27967 0
M  V30 8890 C 848.414 0.944891 -5.26285 0
M  V30 8891 C 849.714 -1.23316 -5.07534 0
M  V30 8892 H 851.408 -0.974016 -2.83114 0
M  V30 8893 H 848.954 -0.469826 -1.3612 0
M  V30 8894 H 850.907 1.13069 -4.05947 0
M  V30 8895 H 849.631 1.53316 -2.88378 0
M  V30 8896 H 848.29 -0.461978 -3.63678 0
M  V30 8897 H 847.938 1.77028 -4.70819 0
M  V30 8898 H 847.638 0.444079 -5.8592 0
M  V30 8899 H 849.162 1.37209 -5.94984 0
M  V30 8900 H 850.576 -0.881395 -5.66484 0
M  V30 8901 H 848.973 -1.66621 -5.76504 0
M  V30 8902 H 850.043 -2.03617 -4.40077 0
M  V30 8903 N 851.386 1.48609 -0.524698 0
M  V30 8904 C 852.296 2.33318 0.244923 0
M  V30 8905 C 853.312 1.46153 0.944214 0
M  V30 8906 O 854.488 1.79141 0.920347 0
M  V30 8907 C 851.553 3.22149 1.28144 0
M  V30 8908 C 850.614 4.25184 0.593068 0
M  V30 8909 C 849.847 5.0977 1.5802 0
M  V30 8910 O 850.07 4.96249 2.81235 0
M  V30 8911 O 849.004 5.9134 1.1225 0
M  V30 8912 H 852.83 3.00362 -0.449066 0
M  V30 8913 H 850.415 1.46643 -0.285689 0
M  V30 8914 H 852.297 3.77111 1.88057 0
M  V30 8915 H 850.972 2.57772 1.95793 0
M  V30 8916 H 849.879 3.74071 -0.0464214 0
M  V30 8917 H 851.212 4.92183 -0.0413893 0
M  V30 8918 N 852.864 0.259585 1.55447 0
M  V30 8919 C 854.113 -0.362163 1.98422 0
M  V30 8920 C 854.426 -1.58135 1.1512 0
M  V30 8921 O 855.632 -2.27506 1.48166 0
M  V30 8922 C 854.088 -0.695722 3.53111 0
M  V30 8923 C 853.696 0.502784 4.4517 0
M  V30 8924 C 855.44 -1.28096 4.04712 0
M  V30 8925 C 853.347 0.144674 5.91223 0
M  V30 8926 H 852.277 -0.139092 0.74106 0
M  V30 8927 H 854.928 0.361798 1.79898 0
M  V30 8928 H 853.31 -1.47816 3.67378 0
M  V30 8929 H 854.484 1.27994 4.42667 0
M  V30 8930 H 852.799 1.0038 4.0412 0
M  V30 8931 H 855.396 -1.56243 5.11363 0
M  V30 8932 H 855.739 -2.20969 3.52815 0
M  V30 8933 H 856.272 -0.561146 3.93822 0
M  V30 8934 H 853.011 1.04087 6.47183 0
M  V30 8935 H 852.531 -0.596023 5.96831 0
M  V30 8936 H 854.21 -0.268651 6.46442 0
M  V30 8937 N 854.342 -1.57594 -0.0133615 0
M  V30 8938 C 855.252 -2.10991 -1.02566 0
M  V30 8939 C 856.268 -1.05208 -1.3859 0
M  V30 8940 O 857.444 -1.37034 -1.47593 0
M  V30 8941 C 854.509 -2.59165 -2.30292 0
M  V30 8942 C 853.57 -3.79495 -2.00704 0
M  V30 8943 C 852.803 -4.25361 -3.22341 0
M  V30 8944 O 853.026 -3.70645 -4.33565 0
M  V30 8945 O 851.96 -5.17649 -3.07121 0
M  V30 8946 H 855.786 -2.97678 -0.601806 0
M  V30 8947 H 853.371 -1.47598 -0.23135 0
M  V30 8948 H 855.253 -2.90409 -3.05354 0
M  V30 8949 H 853.928 -1.75582 -2.71942 0
M  V30 8950 H 852.835 -3.53245 -1.23161 0
M  V30 8951 H 854.168 -4.64109 -1.639 0
M  V30 8952 N 855.82 0.285905 -1.54985 0
M  V30 8953 C 856.752 1.37505 -1.83371 0
M  V30 8954 C 857.765 1.46138 -0.717454 0
M  V30 8955 O 858.954 1.48186 -0.995142 0
M  V30 8956 C 856.054 2.7575 -1.97016 0
M  V30 8957 C 855.227 2.89866 -3.27561 0
M  V30 8958 C 854.286 4.08704 -3.31433 0
M  V30 8959 O 853.312 4.00073 -4.04883 0
M  V30 8960 N 854.514 5.20062 -2.57907 0
M  V30 8961 H 857.279 1.13505 -2.77375 0
M  V30 8962 H 854.84 0.476006 -1.54744 0
M  V30 8963 H 856.832 3.5352 -1.96991 0
M  V30 8964 H 855.402 2.9263 -1.09938 0
M  V30 8965 H 854.622 1.99085 -3.40234 0
M  V30 8966 H 855.91 2.96219 -4.13681 0
M  V30 8967 H 855.308 5.29958 -1.97891 0
M  V30 8968 H 853.865 5.96111 -2.63619 0
M  V30 8969 N 857.298 1.47698 0.54982 0
M  V30 8970 C 858.228 1.63622 1.66583 0
M  V30 8971 C 859.209 0.485477 1.63025 0
M  V30 8972 O 860.394 0.715692 1.80531 0
M  V30 8973 C 857.524 1.65721 3.05211 0
M  V30 8974 C 856.478 2.80097 3.2362 0
M  V30 8975 C 855.804 2.67272 4.63109 0
M  V30 8976 C 857.104 4.21612 3.08286 0
M  V30 8977 H 858.798 2.57049 1.53512 0
M  V30 8978 H 856.344 1.23705 0.737099 0
M  V30 8979 H 858.297 1.75451 3.83138 0
M  V30 8980 H 857.021 0.688593 3.19258 0
M  V30 8981 H 855.68 2.69889 2.48104 0
M  V30 8982 H 855.328 1.68422 4.73965 0
M  V30 8983 H 855.028 3.44008 4.76374 0
M  V30 8984 H 856.552 2.78942 5.43161 0
M  V30 8985 H 857.966 4.32758 3.76024 0
M  V30 8986 H 856.363 4.99193 3.33057 0
M  V30 8987 H 857.433 4.39462 2.04942 0
M  V30 8988 N 858.776 -0.797141 1.35954 0
M  V30 8989 C 859.686 -1.94088 1.31784 0
M  V30 8990 C 860.702 -1.72588 0.221227 0
M  V30 8991 O 861.878 -1.96256 0.452255 0
M  V30 8992 C 858.943 -3.28828 1.09878 0
M  V30 8993 C 858.004 -3.63158 2.28942 0
M  V30 8994 C 857.237 -4.91469 2.08072 0
M  V30 8995 O 857.46 -5.60616 1.05196 0
M  V30 8996 O 856.394 -5.24277 2.95664 0
M  V30 8997 H 860.22 -2.00554 2.28061 0
M  V30 8998 H 857.805 -0.936288 1.16422 0
M  V30 8999 H 859.687 -4.09473 0.995485 0
M  V30 9000 H 858.362 -3.23271 0.16659 0
M  V30 9001 H 857.269 -2.82851 2.44839 0
M  V30 9002 H 858.602 -3.7343 3.20641 0
M  V30 9003 N 860.254 -1.20106 -1.0204 0
M  V30 9004 C 861.184 -0.970301 -2.12385 0
M  V30 9005 C 862.165 0.099378 -1.69809 0
M  V30 9006 O 863.35 -0.057365 -1.94115 0
M  V30 9007 C 860.48 -0.517431 -3.43424 0
M  V30 9008 C 859.434 -1.52992 -3.99722 0
M  V30 9009 C 858.76 -0.933817 -5.26483 0
M  V30 9010 C 860.06 -2.91257 -4.33551 0
M  V30 9011 H 861.754 -1.89316 -2.31948 0
M  V30 9012 H 859.3 -0.911655 -1.11467 0
M  V30 9013 H 861.253 -0.343243 -4.2 0
M  V30 9014 H 859.977 0.441049 -3.23608 0
M  V30 9015 H 858.636 -1.6914 -3.2525 0
M  V30 9016 H 858.284 0.0324763 -5.0299 0
M  V30 9017 H 857.984 -1.60999 -5.65113 0
M  V30 9018 H 859.508 -0.770614 -6.05718 0
M  V30 9019 H 860.922 -2.78642 -5.0103 0
M  V30 9020 H 859.319 -3.55745 -4.83286 0
M  V30 9021 H 860.389 -3.43269 -3.42483 0
M  V30 9022 N 861.732 1.21287 -1.00634 0
M  V30 9023 C 862.664 2.2308 -0.526094 0
M  V30 9024 C 863.677 1.58157 0.386031 0
M  V30 9025 O 864.866 1.77528 0.186016 0
M  V30 9026 C 861.966 3.37937 0.255289 0
M  V30 9027 C 861.139 4.32449 -0.656236 0
M  V30 9028 C 860.198 5.26145 0.0757714 0
M  V30 9029 O 859.224 5.66601 -0.543325 0
M  V30 9030 N 860.426 5.6449 1.35391 0
M  V30 9031 H 863.191 2.64913 -1.40147 0
M  V30 9032 H 860.752 1.35724 -0.882641 0
M  V30 9033 H 862.744 3.97614 0.753977 0
M  V30 9034 H 861.314 2.95078 1.03187 0
M  V30 9035 H 860.534 3.70892 -1.3354 0
M  V30 9036 H 861.822 4.92526 -1.27653 0
M  V30 9037 H 861.22 5.33617 1.878 0
M  V30 9038 H 859.777 6.26524 1.79753 0
M  V30 9039 N 863.21 0.781244 1.36873 0
M  V30 9040 C 864.626 0.461968 1.52768 0
M  V30 9041 C 864.826 -1.02099 1.73719 0
M  V30 9042 O 863.882 -1.80665 1.76399 0
M  V30 9043 C 865.195 1.2853 2.71846 0
M  V30 9044 C 866.743 1.27817 2.85713 0
M  V30 9045 C 867.218 2.08506 4.07786 0
M  V30 9046 N 868.709 2.05909 4.14917 0
M  V30 9047 C 869.444 2.65118 5.08429 0
M  V30 9048 N 868.94 3.33152 6.07438 0
M  V30 9049 N 870.733 2.54896 5.00983 0
M  V30 9050 H 862.884 1.74198 1.21527 0
M  V30 9051 H 865.147 0.740027 0.592506 0
M  V30 9052 H 864.853 2.3366 2.62861 0
M  V30 9053 H 864.727 0.920981 3.65784 0
M  V30 9054 H 867.114 0.234817 2.94164 0
M  V30 9055 H 867.195 1.68219 1.92707 0
M  V30 9056 H 866.839 3.12867 4.00096 0
M  V30 9057 H 866.769 1.65479 4.99924 0
M  V30 9058 H 869.26 1.56386 3.44023 0
M  V30 9059 H 869.573 3.75681 6.75339 0
M  V30 9060 H 867.918 3.37253 6.07689 0
M  V30 9061 H 871.109 2.01352 4.22581 0
M  V30 9062 H 871.282 3.01332 5.73675 0
M  V30 9063 N 864.689 -1.48329 0.532571 0
M  V30 9064 C 865.966 -1.95492 -0.0650985 0
M  V30 9065 C 866.346 -1.47485 -1.51034 0
M  V30 9066 O 865.694 -0.702516 -2.17433 0
M  V30 9067 C 865.904 -3.48957 0.0548341 0
M  V30 9068 C 867.252 -4.24475 -0.103115 0
M  V30 9069 O 868.276 -3.56195 -0.0188343 0
M  V30 9070 O 867.135 -5.45781 -0.280164 0
M  V30 9071 H 864.229 -0.823327 -0.0778603 0
M  V30 9072 H 866.775 -1.58839 0.597353 0
M  V30 9073 H 865.547 -3.76628 1.06148 0
M  V30 9074 H 865.17 -3.92311 -0.64635 0
M  V30 9075 N 866.167 -0.267825 -1.55308 0
M  V30 9076 C 867.392 0.357487 -2.04296 0
M  V30 9077 C 867.817 1.49222 -1.14518 0
M  V30 9078 O 867.175 1.80741 -0.142292 0
M  V30 9079 C 867.223 0.822899 -3.51085 0
M  V30 9080 O 866.327 1.93078 -3.6441 0
M  V30 9081 H 865.668 0.075025 -0.659748 0
M  V30 9082 H 868.198 -0.399996 -2.00652 0
M  V30 9083 H 868.208 1.12059 -3.92309 0
M  V30 9084 H 866.883 -0.0073562 -4.15899 0
M  V30 9085 H 865.46 1.63618 -3.35087 0
M  V30 9086 N 867.645 1.57599 0.00500368 0
M  V30 9087 C 868.608 2.07058 0.982832 0
M  V30 9088 C 869.608 0.979045 1.27559 0
M  V30 9089 O 870.798 1.24187 1.22161 0
M  V30 9090 C 867.93 2.50782 2.30914 0
M  V30 9091 H 869.123 2.94718 0.555119 0
M  V30 9092 H 866.676 1.54249 0.25237 0
M  V30 9093 H 867.411 1.66351 2.78385 0
M  V30 9094 H 867.196 3.30495 2.10987 0
M  V30 9095 H 868.686 2.89391 3.0107 0
M  V30 9096 N 869.123 -0.277682 1.55134 0
M  V30 9097 C 870.539 -0.624625 1.46869 0
M  V30 9098 C 870.739 -1.89717 0.678958 0
M  V30 9099 O 869.795 -2.51739 0.195939 0
M  V30 9100 C 871.108 -0.755937 2.91043 0
M  V30 9101 C 872.656 -0.850299 3.01229 0
M  V30 9102 C 873.131 -1.01343 4.46647 0
M  V30 9103 N 874.622 -1.07906 4.50456 0
M  V30 9104 C 875.357 -1.224 5.60184 0
M  V30 9105 N 874.853 -1.33642 6.79788 0
M  V30 9106 N 876.646 -1.25473 5.47917 0
M  V30 9107 H 868.797 0.558102 2.04937 0
M  V30 9108 H 871.06 0.188228 0.929125 0
M  V30 9109 H 870.766 0.108593 3.51532 0
M  V30 9110 H 870.64 -1.6377 3.39793 0
M  V30 9111 H 873.027 -1.7053 2.40839 0
M  V30 9112 H 873.108 0.0559681 2.55739 0
M  V30 9113 H 872.752 -0.163102 5.07638 0
M  V30 9114 H 872.682 -1.93427 4.89789 0
M  V30 9115 H 875.173 -1.00477 3.64298 0
M  V30 9116 H 875.486 -1.44522 7.59166 0
M  V30 9117 H 873.831 -1.30655 6.82608 0
M  V30 9118 H 877.022 -1.16317 4.53418 0
M  V30 9119 H 877.195 -1.36424 6.33476 0
M  V30 9120 N 870.601 -1.47988 -0.541979 0
M  V30 9121 C 871.533 -1.5769 -1.66332 0
M  V30 9122 C 872.546 -0.461994 -1.56107 0
M  V30 9123 O 873.735 -0.732306 -1.62787 0
M  V30 9124 C 870.835 -1.47939 -3.04905 0
M  V30 9125 C 870.008 -2.74263 -3.40733 0
M  V30 9126 C 869.067 -2.58133 -4.58534 0
M  V30 9127 O 868.093 -3.31991 -4.62354 0
M  V30 9128 N 869.295 -1.6696 -5.55972 0
M  V30 9129 H 872.06 -2.54389 -1.5845 0
M  V30 9130 H 869.621 -1.4456 -0.728979 0
M  V30 9131 H 871.613 -1.34861 -3.81569 0
M  V30 9132 H 870.183 -0.592626 -3.06931 0
M  V30 9133 H 869.403 -3.01992 -2.53366 0
M  V30 9134 H 870.691 -3.58094 -3.6145 0
M  V30 9135 H 870.089 -1.06134 -5.55655 0
M  V30 9136 H 868.646 -1.59826 -6.31901 0
M  V30 9137 N 872.079 0.78992 -1.36375 0
M  V30 9138 C 873.304 1.58389 -1.33895 0
M  V30 9139 C 873.729 1.8794 0.0774934 0
M  V30 9140 O 873.087 1.4785 1.0493 0
M  V30 9141 C 873.135 2.88201 -2.16732 0
M  V30 9142 O 872.239 3.81778 -1.55946 0
M  V30 9143 H 871.58 0.480471 -0.458305 0
M  V30 9144 H 874.11 0.979119 -1.79651 0
M  V30 9145 H 874.12 3.37475 -2.29292 0
M  V30 9146 H 872.795 2.66019 -3.19698 0
M  V30 9147 H 871.372 3.40371 -1.52323 0
M  V30 9148 N 873.557 1.20646 1.01402 0
M  V30 9149 C 874.785 1.04389 1.78635 0
M  V30 9150 C 875.2 -0.406771 1.84366 0
M  V30 9151 O 874.557 -1.28239 1.2985 0
M  V30 9152 C 874.608 1.62378 3.22979 0
M  V30 9153 O 874.329 3.01768 3.17597 0
M  V30 9154 C 875.83 1.5111 4.1675 0
M  V30 9155 H 873.05 0.367077 0.56169 0
M  V30 9156 H 875.594 1.59789 1.27624 0
M  V30 9157 H 873.749 1.11092 3.7113 0
M  V30 9158 H 874.163 3.29331 4.08217 0
M  V30 9159 H 875.637 1.96441 5.15863 0
M  V30 9160 H 876.114 0.464011 4.36742 0
M  V30 9161 H 876.72 2.01599 3.74483 0
M  V30 9162 N 875.035 -1.20752 1.01276 0
M  V30 9163 C 875.965 -2.25658 0.600064 0
M  V30 9164 C 876.946 -1.65733 -0.38298 0
M  V30 9165 O 878.131 -1.92324 -0.269256 0
M  V30 9166 C 875.261 -3.47237 -0.0663197 0
M  V30 9167 C 874.215 -4.1973 0.83731 0
M  V30 9168 C 873.541 -5.34687 0.0369102 0
M  V30 9169 C 874.841 -4.76286 2.14357 0
M  V30 9170 H 876.535 -2.60432 1.477 0
M  V30 9171 H 874.081 -1.25187 0.711634 0
M  V30 9172 H 876.034 -4.19803 -0.366563 0
M  V30 9173 H 874.758 -3.11615 -0.977944 0
M  V30 9174 H 873.417 -3.49024 1.1215 0
M  V30 9175 H 873.065 -4.95309 -0.876244 0
M  V30 9176 H 872.765 -5.84119 0.63865 0
M  V30 9177 H 874.289 -6.10059 -0.256968 0
M  V30 9178 H 875.703 -5.40691 1.90595 0
M  V30 9179 H 874.1 -5.36139 2.69583 0
M  V30 9180 H 875.17 -3.9524 2.80916 0
M  V30 9181 N 876.513 -0.788492 -1.36457 0
M  V30 9182 C 877.79 -0.284484 -1.9352 0
M  V30 9183 C 878.17 1.2232 -1.7205 0
M  V30 9184 O 877.518 2.01424 -1.07892 0
M  V30 9185 C 877.728 -0.676106 -3.42388 0
M  V30 9186 C 879.076 -0.655327 -4.19512 0
M  V30 9187 O 880.1 -0.616523 -3.50824 0
M  V30 9188 O 878.959 -0.697391 -5.42032 0
M  V30 9189 H 876.053 -0.0701769 -0.824017 0
M  V30 9190 H 878.599 -0.870974 -1.45644 0
M  V30 9191 H 877.371 -1.71596 -3.51668 0
M  V30 9192 H 876.994 -0.0634517 -3.97549 0
M  V30 9193 N 877.991 1.48044 -0.54043 0
M  V30 9194 C 878.938 2.29781 0.216597 0
M  V30 9195 C 879.908 1.38021 0.924094 0
M  V30 9196 O 881.093 1.66985 0.923078 0
M  V30 9197 C 878.233 3.21623 1.2511 0
M  V30 9198 C 877.346 4.28467 0.551384 0
M  V30 9199 C 876.481 5.07477 1.56972 0
M  V30 9200 C 875.52 6.06113 0.854048 0
M  V30 9201 N 874.657 6.78143 1.81842 0
M  V30 9202 H 879.497 2.94001 -0.486578 0
M  V30 9203 H 877.034 1.44929 -0.251789 0
M  V30 9204 H 878.992 3.73279 1.8633 0
M  V30 9205 H 877.622 2.59305 1.92252 0
M  V30 9206 H 876.674 3.79997 -0.174982 0
M  V30 9207 H 877.986 4.98799 -0.0100542 0
M  V30 9208 H 877.14 5.63199 2.25592 0
M  V30 9209 H 875.879 4.37008 2.16507 0
M  V30 9210 H 874.884 5.49585 0.153838 0
M  V30 9211 H 876.109 6.78584 0.264675 0
M  V30 9212 H 874.055 6.10417 2.40265 0
M  V30 9213 H 873.972 7.44587 1.3087 0
M  V30 9214 H 875.24 7.38448 2.49628 0
M  V30 9215 N 879.47 0.276058 1.55163 0
M  V30 9216 C 880.38 -0.621066 2.2623 0
M  V30 9217 C 881.396 -1.16931 1.28853 0
M  V30 9218 O 882.572 -1.1994 1.61791 0
M  V30 9219 C 879.637 -1.78824 2.97023 0
M  V30 9220 C 878.698 -1.27657 4.09881 0
M  V30 9221 C 877.931 -2.38812 4.77289 0
M  V30 9222 O 878.154 -3.58188 4.43912 0
M  V30 9223 O 877.088 -2.06915 5.65217 0
M  V30 9224 H 880.914 -0.0453346 3.03666 0
M  V30 9225 H 878.499 0.0434275 1.49337 0
M  V30 9226 H 880.381 -2.46877 3.41511 0
M  V30 9227 H 879.056 -2.35104 2.22503 0
M  V30 9228 H 877.963 -0.56248 3.69847 0
M  V30 9229 H 879.296 -0.759509 4.86305 0
M  V30 9230 N 880.948 -1.576 0.00335426 0
M  V30 9231 C 881.878 -2.11668 -0.985839 0
M  V30 9232 C 882.859 -1.02661 -1.35627 0
M  V30 9233 O 884.044 -1.30361 -1.43943 0
M  V30 9234 C 881.174 -2.62273 -2.27662 0
M  V30 9235 C 880.128 -3.75837 -2.0477 0
M  V30 9236 C 879.454 -4.12769 -3.39891 0
M  V30 9237 C 880.754 -5.02975 -1.40759 0
M  V30 9238 H 882.448 -2.9457 -0.535637 0
M  V30 9239 H 879.994 -1.41702 -0.256204 0
M  V30 9240 H 881.947 -2.98727 -2.97221 0
M  V30 9241 H 880.671 -1.76498 -2.74802 0
M  V30 9242 H 879.33 -3.39782 -1.37636 0
M  V30 9243 H 878.978 -3.24013 -3.8474 0
M  V30 9244 H 878.678 -4.89281 -3.25389 0
M  V30 9245 H 880.202 -4.51784 -4.1076 0
M  V30 9246 H 881.616 -5.37179 -2.00279 0
M  V30 9247 H 880.013 -5.84315 -1.36734 0
M  V30 9248 H 881.083 -4.83431 -0.377218 0
M  V30 9249 O 882.465 0.13884 -1.60902 0
M  V30 9250 H 883.156 0.77224 -1.7764 0
M  V30 END ATOM
M  V30 BEGIN BOND
M  V30 END BOND
M  V30 END CTAB
M  END
$$$$
