drugbank_target|P04079 GMP synthase [glutamine-hydrolyzing] (DB04272)
 OpenBabel12092120223D

  0  0  0     0  0            999 V3000
M  V30 BEGIN CTAB
M  V30 COUNTS 8225 8315 0 0 0
M  V30 BEGIN ATOM
M  V30 1 H -0.908 1.98254 -0.117106 0
M  V30 2 N 0 1.576 0 0
M  V30 3 C 0.933 2.03868 1.02534 0
M  V30 4 C 1.911 0.928543 1.3348 0
M  V30 5 O 3.095 1.19667 1.45644 0
M  V30 6 C 0.222 2.43627 2.35294 0
M  V30 7 C -0.732 3.65373 2.2001 0
M  V30 8 S 0.101 5.13292 1.52614 0
M  V30 9 C 1.257 5.56322 2.86805 0
M  V30 10 H 1.49 2.90518 0.631377 0
M  V30 11 H -0.977 1.52953 0.210867 0
M  V30 12 H 0.981 2.67203 3.11629 0
M  V30 13 H -0.358 1.57376 2.7183 0
M  V30 14 H -1.165 3.90944 3.18086 0
M  V30 15 H -1.563 3.418 1.51819 0
M  V30 16 H 0.729 5.58782 3.83104 0
M  V30 17 H 1.672 6.56266 2.65933 0
M  V30 18 H 2.08 4.83886 2.90714 0
M  V30 19 N 1.4781 -0.272755 1.55222 0
M  V30 20 C 2.7061 -1.02255 1.79865 0
M  V30 21 C 3.1211 -1.79924 0.572088 0
M  V30 22 O 2.4781 -1.76638 -0.458842 0
M  V30 23 C 2.5291 -1.98094 3.02392 0
M  V30 24 O 2.2501 -1.23572 4.20311 0
M  V30 25 C 3.7511 -2.84884 3.39641 0
M  V30 26 H 0.9711 -0.302057 0.599168 0
M  V30 27 H 3.5151 -0.303465 2.02236 0
M  V30 28 H 1.6701 -2.65465 2.82147 0
M  V30 29 H 2.0841 -1.88172 4.89583 0
M  V30 30 H 3.5581 -3.47927 4.28545 0
M  V30 31 H 4.0351 -3.54665 2.59055 0
M  V30 32 H 4.6411 -2.23003 3.62146 0
M  V30 33 N 2.9562 -1.48159 -0.537278 0
M  V30 34 C 3.8662 -1.64807 -1.6696 0
M  V30 35 C 4.8822 -0.530651 -1.65711 0
M  V30 36 O 6.0582 -0.800784 -1.84796 0
M  V30 37 C 3.1232 -1.67708 -3.03438 0
M  V30 38 C 2.1842 -2.91025 -3.156 0
M  V30 39 C 1.4172 -2.93778 -4.45567 0
M  V30 40 O 1.6402 -2.05153 -5.3223 0
M  V30 41 O 0.5742 -3.85868 -4.61941 0
M  V30 42 H 4.4002 -2.6066 -1.55853 0
M  V30 43 H 1.9852 -1.31475 -0.709549 0
M  V30 44 H 3.8672 -1.7218 -3.84619 0
M  V30 45 H 2.5422 -0.750278 -3.14885 0
M  V30 46 H 1.4492 -2.92089 -2.33741 0
M  V30 47 H 2.7822 -3.83065 -3.09066 0
M  V30 48 N 4.4343 0.785586 -1.36625 0
M  V30 49 C 5.3823 1.91978 -1.31329 0
M  V30 50 C 6.3763 1.68162 -0.204416 0
M  V30 51 O 7.5823 1.76122 -0.371645 0
M  V30 52 H 3.9573 0.631087 -0.408942 0
M  V30 53 H 5.9283 1.93562 -2.27104 0
M  V30 54 C 4.6773 3.29055 -1.12329 0
M  V30 55 H 4.0003 3.4795 -1.96903 0
M  V30 56 H 5.4403 4.08756 -1.12671 0
M  V30 57 C 3.8993 3.36461 0.171861 0
M  V30 58 O 4.4293 3.84576 1.16035 0
M  V30 59 N 2.6353 2.89782 0.217846 0
M  V30 60 H 2.1823 2.50819 -0.587183 0
M  V30 61 H 2.1403 2.95119 1.08408 0
M  V30 62 N 5.9124 1.20967 1.01018 0
M  V30 63 C 7.1614 1.01796 1.74128 0
M  V30 64 C 7.4744 -0.449691 1.90361 0
M  V30 65 O 8.6804 -0.76068 2.60626 0
M  V30 66 C 7.1364 1.7727 3.13215 0
M  V30 67 C 6.7444 3.28171 3.04972 0
M  V30 68 C 8.4884 1.66489 3.90489 0
M  V30 69 C 6.3954 3.96156 4.39107 0
M  V30 70 H 5.3254 0.377276 0.652824 0
M  V30 71 H 7.9764 1.44651 1.12909 0
M  V30 72 H 6.3584 1.27205 3.75013 0
M  V30 73 H 7.5324 3.85499 2.52443 0
M  V30 74 H 5.8474 3.39437 2.41188 0
M  V30 75 H 8.4444 2.14617 4.89738 0
M  V30 76 H 8.7874 0.6222 4.11624 0
M  V30 77 H 9.3204 2.14003 3.35332 0
M  V30 78 H 6.0594 5.00604 4.23174 0
M  V30 79 H 5.5794 3.43617 4.91617 0
M  V30 80 H 7.2584 4.00774 5.07926 0
M  V30 81 N 7.3905 -1.2043 1.01659 0
M  V30 82 C 8.3405 -2.21076 0.557623 0
M  V30 83 C 9.3245 -1.56176 -0.387029 0
M  V30 84 O 10.5165 -1.7575 -0.209996 0
M  V30 85 C 7.6455 -3.43146 -0.102707 0
M  V30 86 C 6.7315 -4.15213 0.863652 0
M  V30 87 N 7.1225 -4.63662 2.02117 0
M  V30 88 C 5.4205 -4.40716 0.684472 0
M  V30 89 C 6.1215 -5.18868 2.62966 0
M  V30 90 N 5.0975 -5.0893 1.91027 0
M  V30 91 H 8.8995 -2.56201 1.44008 0
M  V30 92 H 6.4135 -1.36366 0.881931 0
M  V30 93 H 8.4105 -4.14475 -0.449054 0
M  V30 94 H 7.0705 -3.09526 -0.981003 0
M  V30 95 H 8.0815 -4.58877 2.40109 0
M  V30 96 H 4.7585 -4.17245 -0.14577 0
M  V30 97 H 6.1485 -5.6673 3.60924 0
M  V30 98 N 8.8686 -0.792821 -1.36206 0
M  V30 99 C 9.8156 -0.191653 -2.30003 0
M  V30 100 C 10.7856 0.666453 -1.52143 0
M  V30 101 O 11.9706 0.61442 -1.80636 0
M  V30 102 C 9.1106 0.664848 -3.38635 0
M  V30 103 C 8.2236 -0.212175 -4.31479 0
M  V30 104 C 7.3586 0.651022 -5.27196 0
M  V30 105 C 6.3976 -0.227247 -6.11678 0
M  V30 106 N 5.5346 0.595127 -6.99573 0
M  V30 107 H 10.3746 -0.996978 -2.80828 0
M  V30 108 H 7.9116 -0.503206 -1.38225 0
M  V30 109 H 9.8696 1.17645 -4.00269 0
M  V30 110 H 8.4996 1.43557 -2.89122 0
M  V30 111 H 7.5516 -0.841777 -3.70969 0
M  V30 112 H 8.8636 -0.888751 -4.90818 0
M  V30 113 H 8.0176 1.2283 -5.94136 0
M  V30 114 H 6.7566 1.36121 -4.68319 0
M  V30 115 H 5.7616 -0.816904 -5.43697 0
M  V30 116 H 6.9866 -0.93509 -6.72631 0
M  V30 117 H 4.9326 1.28955 -6.432 0
M  V30 118 H 4.8496 -0.0236952 -7.55996 0
M  V30 119 H 6.1176 1.15613 -7.70879 0
M  V30 120 N 10.3467 1.47872 -0.545128 0
M  V30 121 C 11.2967 2.26842 0.229456 0
M  V30 122 C 12.2807 1.33626 0.896267 0
M  V30 123 O 13.4727 1.58063 0.79657 0
M  V30 124 C 10.6017 3.19089 1.26638 0
M  V30 125 C 9.6877 4.19783 0.603598 0
M  V30 126 N 10.0787 5.0479 -0.319405 0
M  V30 127 C 8.3767 4.3765 0.858989 0
M  V30 128 C 9.0777 5.77433 -0.703241 0
M  V30 129 N 8.0537 5.43566 -0.0608309 0
M  V30 130 H 11.8557 2.89947 -0.480391 0
M  V30 131 H 9.3697 1.58263 -0.364209 0
M  V30 132 H 11.3667 3.74337 1.83515 0
M  V30 133 H 10.0267 2.5754 1.97745 0
M  V30 134 H 11.0377 5.13244 -0.692889 0
M  V30 135 H 7.7147 3.87281 1.55948 0
M  V30 136 H 9.1047 6.55824 -1.46098 0
M  V30 137 N 11.8248 0.280983 1.55075 0
M  V30 138 C 13.2408 -0.0729964 1.59433 0
M  V30 139 C 13.4408 -1.5411 1.29817 0
M  V30 140 O 12.4968 -2.29086 1.06187 0
M  V30 141 C 13.8098 0.306921 2.9913 0
M  V30 142 C 15.3578 0.254023 3.11968 0
M  V30 143 C 15.8328 0.608467 4.5394 0
M  V30 144 N 17.3238 0.560241 4.59799 0
M  V30 145 C 18.0588 0.80722 5.6769 0
M  V30 146 N 17.5548 1.11912 6.83701 0
M  V30 147 N 19.3478 0.735623 5.57266 0
M  V30 148 H 11.4988 1.238 1.7259 0
M  V30 149 H 13.7618 0.500547 0.805082 0
M  V30 150 H 13.4678 1.32816 3.25657 0
M  V30 151 H 13.3418 -0.349363 3.75579 0
M  V30 152 H 15.7288 -0.75794 2.852 0
M  V30 153 H 15.8098 0.944649 2.37718 0
M  V30 154 H 15.4538 1.61814 4.81434 0
M  V30 155 H 15.3838 -0.104013 5.26497 0
M  V30 156 H 17.8748 0.329288 3.76463 0
M  V30 157 H 18.1878 1.29409 7.61888 0
M  V30 158 H 16.5328 1.15695 6.85303 0
M  V30 159 H 19.7238 0.491752 4.6551 0
M  V30 160 H 19.8968 0.931482 6.4127 0
M  V30 161 N 13.3029 -1.57598 0.00835791 0
M  V30 162 C 14.5519 -1.90107 -0.673968 0
M  V30 163 C 14.8649 -0.884275 -1.7447 0
M  V30 164 O 16.0709 -1.09987 -2.48224 0
M  V30 165 C 14.5269 -3.37497 -1.24995 0
M  V30 166 C 14.1349 -4.47491 -0.2136 0
M  V30 167 C 15.8789 -3.79104 -1.90999 0
M  V30 168 C 13.7859 -5.85963 -0.80005 0
M  V30 169 H 12.7159 -0.709393 -0.255495 0
M  V30 170 H 15.3669 -1.83365 0.0702693 0
M  V30 171 H 13.7489 -3.39102 -2.04513 0
M  V30 172 H 14.9229 -4.57414 0.557596 0
M  V30 173 H 13.2379 -4.14956 0.346474 0
M  V30 174 H 15.8349 -4.79901 -2.35795 0
M  V30 175 H 16.1779 -3.1306 -2.74407 0
M  V30 176 H 16.7109 -3.79833 -1.18203 0
M  V30 177 H 13.4499 -6.555 -0.00456708 0
M  V30 178 H 12.9699 -5.79687 -1.54021 0
M  V30 179 H 14.6489 -6.33884 -1.29615 0
M  V30 180 N 14.781 0.264519 -1.55364 0
M  V30 181 C 15.711 1.33121 -1.91836 0
M  V30 182 C 16.692 1.51101 -0.781192 0
M  V30 183 O 17.877 1.64003 -1.04003 0
M  V30 184 C 15.007 2.68921 -2.19769 0
M  V30 185 C 13.961 2.65661 -3.35571 0
M  V30 186 C 13.287 4.05093 -3.49004 0
M  V30 187 C 14.587 2.24187 -4.71739 0
M  V30 188 H 16.281 1.02844 -2.81182 0
M  V30 189 H 13.827 0.493286 -1.35287 0
M  V30 190 H 15.78 3.43663 -2.43872 0
M  V30 191 H 14.504 3.00799 -1.27231 0
M  V30 192 H 13.163 1.93377 -3.1145 0
M  V30 193 H 12.811 4.34206 -2.53917 0
M  V30 194 H 12.511 4.03804 -4.26868 0
M  V30 195 H 14.035 4.81561 -3.75408 0
M  V30 196 H 15.449 2.88654 -4.9533 0
M  V30 197 H 13.846 2.34044 -5.52579 0
M  V30 198 H 14.916 1.19327 -4.69988 0
M  V30 199 N 16.2591 1.48442 0.529413 0
M  V30 200 C 17.5081 1.55742 1.28169 0
M  V30 201 C 17.8211 0.236511 1.94165 0
M  V30 202 O 19.0271 0.187761 2.7085 0
M  V30 203 C 17.4831 2.74667 2.32564 0
M  V30 204 C 17.0911 4.13402 1.72636 0
M  V30 205 C 18.8351 2.9128 3.08798 0
M  V30 206 C 16.7421 5.23587 2.74975 0
M  V30 207 H 15.6721 0.579796 0.48203 0
M  V30 208 H 18.3231 1.74776 0.559056 0
M  V30 209 H 16.7051 2.49067 3.07866 0
M  V30 210 H 17.8791 4.49022 1.03519 0
M  V30 211 H 16.1941 4.0191 1.08892 0
M  V30 212 H 18.7911 3.70767 3.85274 0
M  V30 213 H 19.1341 2.00757 3.64695 0
M  V30 214 H 19.6671 3.16782 2.40611 0
M  V30 215 H 16.4061 6.16076 2.23897 0
M  V30 216 H 15.9261 4.92454 3.42417 0
M  V30 217 H 17.6051 5.51724 3.37949 0
M  V30 218 N 17.7372 -0.778329 1.37039 0
M  V30 219 C 18.6672 -1.90546 1.34962 0
M  V30 220 C 19.6482 -1.68681 0.219274 0
M  V30 221 O 20.8332 -1.89634 0.418624 0
M  V30 222 C 17.9632 -3.27734 1.14925 0
M  V30 223 C 16.9172 -3.64147 2.24902 0
M  V30 224 C 16.2432 -4.99806 1.89996 0
M  V30 225 C 17.5432 -3.71579 3.67051 0
M  V30 226 H 19.2372 -1.92541 2.29277 0
M  V30 227 H 16.7832 -0.924948 1.10366 0
M  V30 228 H 18.7362 -4.06215 1.12104 0
M  V30 229 H 17.4602 -3.26154 0.170631 0
M  V30 230 H 16.1192 -2.8797 2.26868 0
M  V30 231 H 15.7672 -4.94759 0.906796 0
M  V30 232 H 15.4672 -5.25139 2.63634 0
M  V30 233 H 16.9912 -5.80694 1.88749 0
M  V30 234 H 18.4052 -4.40227 3.67251 0
M  V30 235 H 16.8022 -4.08405 4.39688 0
M  V30 236 H 17.8722 -2.72404 4.01154 0
M  V30 237 N 19.2153 -1.21501 -1.00376 0
M  V30 238 C 20.4923 -0.941745 -1.71437 0
M  V30 239 C 20.8723 0.546114 -2.03914 0
M  V30 240 O 20.2203 1.51128 -1.71384 0
M  V30 241 C 20.4303 -1.82812 -2.97289 0
M  V30 242 C 21.7783 -2.07771 -3.70292 0
M  V30 243 O 22.8023 -1.80171 -3.07273 0
M  V30 244 O 21.6613 -2.54456 -4.83647 0
M  V30 245 H 18.7553 -0.353243 -0.747762 0
M  V30 246 H 21.3013 -1.32436 -1.06108 0
M  V30 247 H 20.0733 -2.83501 -2.69709 0
M  V30 248 H 19.6963 -1.4464 -3.70358 0
M  V30 249 N 20.6934 1.19889 -1.02296 0
M  V30 250 C 21.9404 1.8942 -0.715972 0
M  V30 251 C 22.2684 1.79251 0.754944 0
M  V30 252 O 21.5234 1.17526 1.56481 0
M  V30 253 C 21.8224 3.39883 -1.10518 0
M  V30 254 C 21.4884 3.70254 -2.57337 0
M  V30 255 C 20.1504 3.78254 -2.97452 0
M  V30 256 C 22.5024 3.84052 -3.52354 0
M  V30 257 C 19.8304 3.97514 -4.31509 0
M  V30 258 C 22.1824 4.04824 -4.86108 0
M  V30 259 C 20.8464 4.11054 -5.25919 0
M  V30 260 H 20.1164 0.693138 -0.261993 0
M  V30 261 H 22.7634 1.42012 -1.28472 0
M  V30 262 H 21.0684 3.8915 -0.454953 0
M  V30 263 H 22.7654 3.9199 -0.845261 0
M  V30 264 H 19.3554 3.64632 -2.25258 0
M  V30 265 H 23.5394 3.77221 -3.22518 0
M  V30 266 H 18.7954 4.00574 -4.61898 0
M  V30 267 H 22.9694 4.14442 -5.59653 0
M  V30 268 H 20.5964 4.2573 -6.29808 0
M  V30 269 N 22.1715 0.800033 1.35784 0
M  V30 270 C 23.4195 0.376597 1.9856 0
M  V30 271 C 23.7405 -1.05812 1.63795 0
M  V30 272 O 23.0105 -1.73103 0.917171 0
M  V30 273 H 21.5905 0.136261 0.734467 0
M  V30 274 H 24.2525 1.02442 1.65806 0
M  V30 275 H 23.3485 0.477002 3.08433 0
M  V30 276 N 23.6496 -1.47581 0.552962 0
M  V30 277 C 24.8746 -2.07378 0.0300593 0
M  V30 278 C 25.2996 -1.40355 -1.25229 0
M  V30 279 O 24.6576 -0.477099 -1.7491 0
M  V30 280 C 24.7056 -3.60274 -0.153231 0
M  V30 281 O 23.8096 -3.94041 -1.21678 0
M  V30 282 H 23.1506 -0.662158 0.0494182 0
M  V30 283 H 25.6806 -1.89662 0.767434 0
M  V30 284 H 25.6906 -4.0633 -0.368761 0
M  V30 285 H 24.3656 -4.08455 0.783397 0
M  V30 286 H 22.9426 -3.59735 -0.982079 0
M  V30 287 N 25.1277 -0.289203 -1.54924 0
M  V30 288 C 26.0597 0.625583 -2.20497 0
M  V30 289 C 27.0727 1.10667 -1.19402 0
M  V30 290 O 28.2617 1.02615 -1.46056 0
M  V30 291 C 25.3617 1.86702 -2.82835 0
M  V30 292 C 24.5347 1.5304 -4.09753 0
M  V30 293 C 23.5937 2.62576 -4.56005 0
M  V30 294 O 22.6197 2.28167 -5.21468 0
M  V30 295 N 23.8217 3.92901 -4.27328 0
M  V30 296 H 26.5867 0.0642801 -2.99631 0
M  V30 297 H 24.1477 -0.110896 -1.6152 0
M  V30 298 H 26.1397 2.59304 -3.10715 0
M  V30 299 H 24.7097 2.33702 -2.07611 0
M  V30 300 H 23.9297 0.637564 -3.8901 0
M  V30 301 H 25.2177 1.28072 -4.92418 0
M  V30 302 H 24.6157 4.23671 -3.74859 0
M  V30 303 H 23.1727 4.61837 -4.59946 0
M  V30 304 N 26.6058 1.57591 -0.0167156 0
M  V30 305 C 27.8358 1.95292 0.674149 0
M  V30 306 C 28.2438 0.891097 1.66901 0
M  V30 307 O 27.5868 -0.136908 1.83189 0
M  V30 308 C 27.6488 3.29072 1.44747 0
M  V30 309 C 27.3128 4.52879 0.612331 0
M  V30 310 C 28.3098 5.1979 -0.107126 0
M  V30 311 C 25.9948 4.99242 0.553381 0
M  V30 312 C 27.9888 6.31375 -0.874339 0
M  V30 313 C 25.6758 6.10713 -0.217546 0
M  V30 314 C 26.6738 6.76637 -0.930123 0
M  V30 315 O 26.3618 7.85969 -1.68844 0
M  V30 316 H 26.0938 0.648275 0.191615 0
M  V30 317 H 28.6478 2.05284 -0.0690148 0
M  V30 318 H 26.8778 3.15535 2.2355 0
M  V30 319 H 28.5668 3.51764 2.02526 0
M  V30 320 H 29.3328 4.84948 -0.0708392 0
M  V30 321 H 25.2118 4.47744 1.09757 0
M  V30 322 H 28.7558 6.82764 -1.43106 0
M  V30 323 H 24.6528 6.44994 -0.255593 0
M  V30 324 H 25.4208 8.02571 -1.6069 0
M  V30 325 N 28.0839 -0.256276 1.55502 0
M  V30 326 C 29.3119 -1.00342 1.8094 0
M  V30 327 C 29.7269 -1.79307 0.59114 0
M  V30 328 O 29.0839 -1.77114 -0.440081 0
M  V30 329 C 29.1349 -1.94875 3.04476 0
M  V30 330 O 28.8559 -1.19107 4.21598 0
M  V30 331 C 30.3569 -2.81266 3.42644 0
M  V30 332 H 27.5769 -0.295685 0.602338 0
M  V30 333 H 30.1209 -0.281998 2.02546 0
M  V30 334 H 28.2759 -2.62457 2.84947 0
M  V30 335 H 28.6899 -1.82969 4.91551 0
M  V30 336 H 30.1639 -3.43362 4.32211 0
M  V30 337 H 30.6409 -3.51897 2.62802 0
M  V30 338 H 31.2469 -2.1915 3.64491 0
M  V30 339 N 29.562 -1.4872 -0.521534 0
M  V30 340 C 30.494 -1.59968 -1.64143 0
M  V30 341 C 31.507 -0.483463 -1.55456 0
M  V30 342 O 32.696 -0.75467 -1.61762 0
M  V30 343 C 29.796 -1.52127 -3.02838 0
M  V30 344 C 28.969 -2.78932 -3.36921 0
M  V30 345 C 28.028 -2.64428 -4.54933 0
M  V30 346 O 27.054 -3.38331 -4.57735 0
M  V30 347 N 28.256 -1.74606 -5.53618 0
M  V30 348 H 31.021 -2.56548 -1.54929 0
M  V30 349 H 28.582 -1.45551 -0.708988 0
M  V30 350 H 30.574 -1.40106 -3.79674 0
M  V30 351 H 29.144 -0.634868 -3.06085 0
M  V30 352 H 28.364 -3.05455 -2.4918 0
M  V30 353 H 29.652 -3.63041 -3.56481 0
M  V30 354 H 29.05 -1.13782 -5.54139 0
M  V30 355 H 27.607 -1.6852 -6.29638 0
M  V30 356 N 31.0401 0.771051 -1.3745 0
M  V30 357 C 31.9701 1.89827 -1.3597 0
M  V30 358 C 32.9511 1.68562 -0.228216 0
M  V30 359 O 34.1361 1.8941 -0.428675 0
M  V30 360 C 31.2661 3.2712 -1.16662 0
M  V30 361 C 30.2201 3.6295 -2.2683 0
M  V30 362 C 29.5461 4.98791 -1.92644 0
M  V30 363 C 30.8461 3.69627 -3.69017 0
M  V30 364 H 32.5401 1.91323 -2.30295 0
M  V30 365 H 30.0861 0.919082 -1.10855 0
M  V30 366 H 32.0391 4.05615 -1.14256 0
M  V30 367 H 30.7631 3.26059 -0.187926 0
M  V30 368 H 29.4221 2.86763 -2.28392 0
M  V30 369 H 29.0701 4.94271 -0.933021 0
M  V30 370 H 28.7701 5.23733 -2.66416 0
M  V30 371 H 30.2941 5.79685 -1.91826 0
M  V30 372 H 31.7081 4.38273 -3.69581 0
M  V30 373 H 30.1051 4.06067 -4.41848 0
M  V30 374 H 31.1751 2.70273 -4.02592 0
M  V30 375 N 32.5182 1.22032 0.997298 0
M  V30 376 C 33.7642 1.04376 1.73878 0
M  V30 377 C 34.0972 -0.420716 1.89588 0
M  V30 378 O 33.3722 -1.31202 1.43583 0
M  V30 379 C 33.6552 1.75047 3.14691 0
M  V30 380 C 33.5082 3.29062 3.06656 0
M  V30 381 C 34.8272 1.49928 4.13775 0
M  V30 382 H 31.9462 0.380578 0.631133 0
M  V30 383 H 34.5882 1.50312 1.16217 0
M  V30 384 H 32.7382 1.35996 3.63919 0
M  V30 385 H 34.4102 3.7753 2.65083 0
M  V30 386 H 32.6532 3.58967 2.43568 0
M  V30 387 H 33.3242 3.73683 4.06282 0
M  V30 388 H 35.8002 1.83842 3.73285 0
M  V30 389 H 34.6762 2.01878 5.10428 0
M  V30 390 H 34.9372 0.430929 4.39995 0
M  V30 391 N 33.9963 -1.19345 1.0293 0
M  V30 392 C 34.9593 -2.20793 0.615069 0
M  V30 393 C 35.9593 -1.57553 -0.321533 0
M  V30 394 O 37.1493 -1.73862 -0.108483 0
M  V30 395 C 34.2813 -3.40754 -0.0999222 0
M  V30 396 H 35.4743 -2.58955 1.51269 0
M  V30 397 H 33.0273 -1.3303 0.820534 0
M  V30 398 H 33.7623 -3.0811 -1.01187 0
M  V30 399 H 33.5473 -3.87889 0.57309 0
M  V30 400 H 35.0373 -4.15898 -0.376645 0
M  V30 401 N 35.4744 -0.807222 -1.35358 0
M  V30 402 C 36.8904 -0.491038 -1.51858 0
M  V30 403 C 37.0904 0.987648 -1.75635 0
M  V30 404 O 36.1464 1.77265 -1.79815 0
M  V30 405 C 37.4594 -1.33695 -2.69344 0
M  V30 406 C 39.0074 -1.33246 -2.83222 0
M  V30 407 C 39.4824 -2.1625 -4.03733 0
M  V30 408 N 40.9734 -2.1379 -4.10911 0
M  V30 409 C 41.7084 -2.74772 -5.03277 0
M  V30 410 N 41.2044 -3.44684 -6.0097 0
M  V30 411 N 42.9974 -2.6441 -4.96028 0
M  V30 412 H 35.1484 -1.76485 -1.18181 0
M  V30 413 H 37.4114 -0.751199 -0.578276 0
M  V30 414 H 37.1174 -2.38634 -2.58354 0
M  V30 415 H 36.9914 -0.990618 -3.6396 0
M  V30 416 H 39.3784 -0.290911 -2.93663 0
M  V30 417 H 39.4594 -1.71866 -1.89461 0
M  V30 418 H 39.1034 -3.20445 -3.94052 0
M  V30 419 H 39.0334 -1.74989 -4.96675 0
M  V30 420 H 41.5244 -1.62923 -3.40976 0
M  V30 421 H 41.8374 -3.88501 -6.68047 0
M  V30 422 H 40.1824 -3.48788 -6.01142 0
M  V30 423 H 43.3734 -2.0938 -4.18662 0
M  V30 424 H 43.5464 -3.12225 -5.6782 0
M  V30 425 N 36.9525 1.47285 -0.560781 0
M  V30 426 C 38.3685 1.58065 -0.22081 0
M  V30 427 C 38.5685 1.55892 1.27671 0
M  V30 428 O 37.6245 1.46422 2.0571 0
M  V30 429 C 38.9375 2.88418 -0.850625 0
M  V30 430 C 40.4855 3.02009 -0.822184 0
M  V30 431 C 40.9605 4.35066 -1.43113 0
M  V30 432 N 42.4515 4.41711 -1.39448 0
M  V30 433 C 43.1865 5.43237 -1.83525 0
M  V30 434 N 42.6825 6.51555 -2.35474 0
M  V30 435 N 44.4755 5.34304 -1.74574 0
M  V30 436 H 36.6265 1.46941 -1.53369 0
M  V30 437 H 38.8895 0.699558 -0.639783 0
M  V30 438 H 38.5955 2.95755 -1.9032 0
M  V30 439 H 38.4695 3.75612 -0.345773 0
M  V30 440 H 40.8565 2.94266 0.221714 0
M  V30 441 H 40.9375 2.16347 -1.36483 0
M  V30 442 H 40.5815 4.43565 -2.47412 0
M  V30 443 H 40.5115 5.19465 -0.863899 0
M  V30 444 H 43.0025 3.64027 -1.01452 0
M  V30 445 H 43.3155 7.25203 -2.67021 0
M  V30 446 H 41.6605 6.52435 -2.39487 0
M  V30 447 H 44.8515 4.48581 -1.33763 0
M  V30 448 H 45.0245 6.13288 -2.09242 0
M  V30 449 N 38.4306 0.297415 1.54768 0
M  V30 450 C 39.6766 -0.313376 2.00364 0
M  V30 451 C 40.0096 -1.53815 1.18553 0
M  V30 452 O 39.2846 -1.92739 0.261103 0
M  V30 453 C 39.5676 -0.673525 3.53745 0
M  V30 454 C 39.4206 0.560133 4.46299 0
M  V30 455 C 40.7396 -1.50143 4.13697 0
M  V30 456 H 37.8586 -0.112428 0.728374 0
M  V30 457 H 40.5006 0.4088 1.8555 0
M  V30 458 H 38.6506 -1.28881 3.665 0
M  V30 459 H 40.3226 1.19863 4.45455 0
M  V30 460 H 38.5656 1.19405 4.17043 0
M  V30 461 H 39.2366 0.26405 5.51368 0
M  V30 462 H 41.7126 -0.981588 4.04356 0
M  V30 463 H 40.5886 -1.72221 5.21182 0
M  V30 464 H 40.8496 -2.48952 3.65343 0
M  V30 465 N 39.9087 -1.5758 0.0250728 0
M  V30 466 C 41.3247 -1.56124 -0.331282 0
M  V30 467 C 41.5247 -1.03029 -1.73169 0
M  V30 468 O 40.5807 -0.675215 -2.43305 0
M  V30 469 C 41.8937 -3.00139 -0.183584 0
M  V30 470 C 43.4417 -3.11946 -0.256654 0
M  V30 471 C 43.9167 -4.57793 -0.137792 0
M  V30 472 N 45.4077 -4.6279 -0.194904 0
M  V30 473 C 46.1427 -5.7326 -0.126655 0
M  V30 474 N 45.6387 -6.928 -0.00755288 0
M  V30 475 N 47.4317 -5.61811 -0.180348 0
M  V30 476 H 39.5827 -1.90424 0.94087 0
M  V30 477 H 41.8457 -0.875761 0.362968 0
M  V30 478 H 41.5517 -3.4292 0.780927 0
M  V30 479 H 41.4257 -3.64899 -0.955448 0
M  V30 480 H 43.8127 -2.69079 -1.21162 0
M  V30 481 H 43.8937 -2.49915 0.545517 0
M  V30 482 H 43.5377 -5.01339 0.813739 0
M  V30 483 H 43.4677 -5.17798 -0.958775 0
M  V30 484 H 45.9587 -3.76807 -0.287267 0
M  V30 485 H 46.2717 -7.72791 0.0379428 0
M  V30 486 H 44.6167 -6.94995 0.0271731 0
M  V30 487 H 47.8077 -4.6731 -0.271767 0
M  V30 488 H 47.9807 -6.47882 -0.123697 0
M  V30 489 N 41.3868 0.248026 -1.55636 0
M  V30 490 C 42.2968 1.32859 -1.93354 0
M  V30 491 C 43.3128 1.52719 -0.833838 0
M  V30 492 O 44.4888 1.66363 -1.13513 0
M  V30 493 C 41.5538 2.66337 -2.21958 0
M  V30 494 C 40.6148 2.55008 -3.45354 0
M  V30 495 C 39.8478 3.82121 -3.72584 0
M  V30 496 O 40.0708 4.83951 -3.01907 0
M  V30 497 O 39.0048 3.80822 -4.6611 0
M  V30 498 H 42.8308 1.03862 -2.85388 0
M  V30 499 H 40.4158 0.448686 -1.42503 0
M  V30 500 H 42.2978 3.45216 -2.4167 0
M  V30 501 H 40.9728 2.95068 -1.33103 0
M  V30 502 H 39.8798 1.7442 -3.30951 0
M  V30 503 H 41.2128 2.31222 -4.34508 0
M  V30 504 N 42.8649 1.48995 0.513639 0
M  V30 505 C 43.7949 1.67636 1.62544 0
M  V30 506 C 44.7759 0.525087 1.61793 0
M  V30 507 O 45.9609 0.759502 1.78732 0
M  V30 508 C 43.0909 1.73114 3.01079 0
M  V30 509 C 42.0449 2.87905 3.16693 0
M  V30 510 C 41.3709 2.78486 4.56453 0
M  V30 511 C 42.6709 4.29005 2.97913 0
M  V30 512 H 44.3649 2.60716 1.47198 0
M  V30 513 H 41.9109 1.25465 0.706714 0
M  V30 514 H 43.8639 1.84742 3.78746 0
M  V30 515 H 42.5879 0.766241 3.17484 0
M  V30 516 H 41.2469 2.75859 2.41448 0
M  V30 517 H 40.8949 1.7993 4.69717 0
M  V30 518 H 40.5949 3.55523 4.67843 0
M  V30 519 H 42.1189 2.92104 5.36197 0
M  V30 520 H 43.5329 4.41798 3.65359 0
M  V30 521 H 41.9299 5.07166 3.20785 0
M  V30 522 H 42.9999 4.44329 1.94165 0
M  V30 523 N 44.343 -0.763751 1.37857 0
M  V30 524 C 45.591 -1.51957 1.33243 0
M  V30 525 C 45.912 -1.94835 -0.0801709 0
M  V30 526 O 45.182 -1.66894 -1.02582 0
M  V30 527 H 43.762 -0.563626 0.49024 0
M  V30 528 H 46.424 -0.908504 1.7243 0
M  V30 529 H 45.52 -2.41523 1.97669 0
M  V30 530 N 45.8211 -1.22559 -0.990812 0
M  V30 531 C 47.0671 -1.05297 -1.73322 0
M  V30 532 C 47.4001 0.410655 -1.89808 0
M  V30 533 O 46.6751 1.30439 -1.44277 0
M  V30 534 C 46.9581 -1.76713 -3.13759 0
M  V30 535 C 46.8111 -3.30684 -3.04907 0
M  V30 536 C 48.1301 -1.52121 -4.12974 0
M  V30 537 H 45.2491 -0.38392 -0.629106 0
M  V30 538 H 47.8911 -1.50926 -1.15418 0
M  V30 539 H 46.0411 -1.37924 -3.63193 0
M  V30 540 H 47.7131 -3.7893 -2.63077 0
M  V30 541 H 45.9561 -3.60253 -2.41661 0
M  V30 542 H 46.6271 -3.75833 -4.04294 0
M  V30 543 H 49.1031 -1.85819 -3.72304 0
M  V30 544 H 47.9791 -2.04582 -5.0935 0
M  V30 545 H 48.2401 -0.454257 -4.3976 0
M  V30 546 N 47.2992 1.18797 -1.03562 0
M  V30 547 C 48.5292 1.92319 -0.754773 0
M  V30 548 C 48.9372 1.7612 0.691248 0
M  V30 549 O 48.2802 1.08491 1.48241 0
M  V30 550 C 48.3422 3.44284 -1.03484 0
M  V30 551 C 48.0062 3.84258 -2.47376 0
M  V30 552 C 49.0032 3.88459 -3.45537 0
M  V30 553 C 46.6882 4.15701 -2.81954 0
M  V30 554 C 48.6822 4.23545 -4.76328 0
M  V30 555 C 46.3692 4.50458 -4.12954 0
M  V30 556 C 47.3672 4.54356 -5.09951 0
M  V30 557 O 47.0552 4.88305 -6.38603 0
M  V30 558 H 46.7872 0.617527 -0.275021 0
M  V30 559 H 49.3412 1.51683 -1.38497 0
M  V30 560 H 47.5712 3.85135 -0.347513 0
M  V30 561 H 49.2602 3.99049 -0.7426 0
M  V30 562 H 50.0262 3.6431 -3.20162 0
M  V30 563 H 45.9052 4.11847 -2.0713 0
M  V30 564 H 49.4492 4.26502 -5.52035 0
M  V30 565 H 45.3462 4.74067 -4.38099 0
M  V30 566 H 46.1142 5.06227 -6.43177 0
M  V30 567 N 48.7773 0.814389 1.34928 0
M  V30 568 C 50.0173 0.404165 2.00364 0
M  V30 569 C 50.3813 -1.01166 1.63185 0
M  V30 570 O 51.5823 -1.52431 2.21401 0
M  V30 571 C 49.8533 0.590718 3.52484 0
M  V30 572 S 51.4123 0.272075 4.37956 0
M  V30 573 H 48.2303 0.15311 0.694319 0
M  V30 574 H 50.8323 1.05834 1.64376 0
M  V30 575 H 49.5363 1.62099 3.77031 0
M  V30 576 H 49.0673 -0.0785013 3.93322 0
M  V30 577 H 51.0823 -0.917405 4.87645 0
M  V30 578 N 50.2554 -1.46986 0.568584 0
M  V30 579 C 51.1654 -2.33942 -0.17555 0
M  V30 580 C 52.1814 -1.48891 -0.90041 0
M  V30 581 O 53.3574 -1.81794 -0.86676 0
M  V30 582 C 50.4224 -3.25811 -1.18524 0
M  V30 583 C 49.4834 -4.26757 -0.466582 0
M  V30 584 C 48.7164 -5.14236 -1.42817 0
M  V30 585 O 48.9394 -5.04379 -2.66379 0
M  V30 586 O 47.8734 -5.94412 -0.946453 0
M  V30 587 H 51.6994 -2.98896 0.538036 0
M  V30 588 H 49.2844 -1.4573 0.329097 0
M  V30 589 H 51.1664 -3.82527 -1.76779 0
M  V30 590 H 49.8414 -2.63471 -1.88055 0
M  V30 591 H 48.7484 -3.73769 0.157451 0
M  V30 592 H 50.0814 -4.91843 0.187485 0
M  V30 593 N 51.7335 -0.305618 -1.54608 0
M  V30 594 C 52.6635 0.561482 -2.26649 0
M  V30 595 C 53.6445 1.13415 -1.26772 0
M  V30 596 O 54.8295 1.16262 -1.55553 0
M  V30 597 C 51.9595 1.73122 -3.01075 0
M  V30 598 C 50.9135 1.2887 -4.08138 0
M  V30 599 C 50.2395 2.54396 -4.70305 0
M  V30 600 C 51.5395 0.416578 -5.20636 0
M  V30 601 H 53.2335 -0.0393902 -2.99374 0
M  V30 602 H 50.7795 -0.020385 -1.43986 0
M  V30 603 H 52.7325 2.34396 -3.50195 0
M  V30 604 H 51.4565 2.3584 -2.25936 0
M  V30 605 H 50.1155 0.698991 -3.59875 0
M  V30 606 H 49.7635 3.15439 -3.918 0
M  V30 607 H 49.4635 2.25486 -5.42614 0
M  V30 608 H 50.9875 3.16464 -5.2219 0
M  V30 609 H 52.4015 0.935116 -5.65622 0
M  V30 610 H 50.7985 0.221046 -5.99693 0
M  V30 611 H 51.8685 -0.557162 -4.81688 0
M  V30 612 N 53.2116 1.57565 -0.0334293 0
M  V30 613 C 54.4576 1.93088 0.639417 0
M  V30 614 C 54.8126 0.910589 1.69488 0
M  V30 615 O 54.1056 -0.0727725 1.91462 0
M  V30 616 C 54.2996 3.33112 1.29504 0
M  V30 617 C 54.1286 4.48667 0.304604 0
M  V30 618 C 52.8986 5.05207 -0.0970777 0
M  V30 619 C 55.0966 5.1239 -0.442845 0
M  V30 620 N 53.0786 6.04286 -1.08223 0
M  V30 621 C 54.4496 6.06609 -1.28161 0
M  V30 622 C 56.5046 4.95352 -0.50308 0
M  V30 623 C 55.2076 6.85622 -2.17519 0
M  V30 624 C 57.2336 5.74978 -1.38401 0
M  V30 625 C 56.5956 6.68816 -2.21054 0
M  V30 626 H 52.6946 0.754335 0.206161 0
M  V30 627 H 55.2786 1.94435 -0.101613 0
M  V30 628 H 53.4496 3.32576 2.00618 0
M  V30 629 H 55.1816 3.55972 1.92525 0
M  V30 630 H 51.9366 4.72782 0.278255 0
M  V30 631 H 52.3606 6.58516 -1.57117 0
M  V30 632 H 57.0026 4.22625 0.121694 0
M  V30 633 H 54.7206 7.57652 -2.81049 0
M  V30 634 H 58.3066 5.63826 -1.43496 0
M  V30 635 H 57.1866 7.29355 -2.88116 0
M  V30 636 N 54.6897 -0.239769 1.55765 0
M  V30 637 C 55.6527 -1.28038 1.90103 0
M  V30 638 C 56.6527 -1.40723 0.778055 0
M  V30 639 O 57.8427 -1.39301 1.04599 0
M  V30 640 C 54.9747 -2.65702 2.13577 0
M  V30 641 H 56.1677 -0.988048 2.83157 0
M  V30 642 H 53.7207 -0.479382 1.48767 0
M  V30 643 H 54.4557 -3.00063 1.23015 0
M  V30 644 H 54.2407 -2.57875 2.95369 0
M  V30 645 H 55.7307 -3.40828 2.41301 0
M  V30 646 N 56.1678 -1.49265 -0.50573 0
M  V30 647 C 57.4138 -1.59723 -1.25937 0
M  V30 648 C 57.7688 -0.278236 -1.90378 0
M  V30 649 O 57.0618 0.72113 -1.77511 0
M  V30 650 C 57.2558 -2.69008 -2.35308 0
M  V30 651 C 57.0848 -4.11405 -1.81592 0
M  V30 652 C 55.8548 -4.78252 -1.63105 0
M  V30 653 C 58.0528 -4.96792 -1.33048 0
M  V30 654 N 56.0348 -6.0498 -1.04269 0
M  V30 655 C 57.4058 -6.13962 -0.863168 0
M  V30 656 C 59.4608 -4.82828 -1.21577 0
M  V30 657 C 58.1638 -7.18705 -0.292489 0
M  V30 658 C 60.1898 -5.87716 -0.65907 0
M  V30 659 C 59.5518 -7.0411 -0.201954 0
M  V30 660 H 55.6508 -0.638864 -0.450973 0
M  V30 661 H 58.2348 -1.86251 -0.567326 0
M  V30 662 H 56.4058 -2.4426 -3.01979 0
M  V30 663 H 58.1378 -2.69013 -3.02348 0
M  V30 664 H 54.8928 -4.34974 -1.87336 0
M  V30 665 H 55.3168 -6.72631 -0.767919 0
M  V30 666 H 59.9588 -3.93159 -1.55518 0
M  V30 667 H 57.6768 -8.08078 0.0591987 0
M  V30 668 H 61.2628 -5.7897 -0.573156 0
M  V30 669 H 60.1428 -7.83885 0.222101 0
M  V30 670 N 57.6459 0.756429 -1.3826 0
M  V30 671 C 58.9229 1.50584 -1.24835 0
M  V30 672 C 59.3029 2.10556 0.151485 0
M  V30 673 O 58.6509 1.96825 1.1607 0
M  V30 674 C 58.8609 2.57448 -2.3563 0
M  V30 675 C 60.2089 3.24429 -2.73917 0
M  V30 676 O 61.2329 2.67751 -2.34921 0
M  V30 677 O 60.0919 4.26937 -3.41156 0
M  V30 678 H 57.1859 0.667664 -0.48801 0
M  V30 679 H 59.7319 0.792083 -1.5008 0
M  V30 680 H 58.5039 2.11362 -3.29305 0
M  V30 681 H 58.1269 3.36408 -2.11933 0
M  V30 682 N 59.124 1.23083 0.984299 0
M  V30 683 C 60.37 1.06214 1.72761 0
M  V30 684 C 60.703 -0.400584 1.90024 0
M  V30 685 O 59.978 -1.29672 1.44967 0
M  V30 686 C 60.261 1.78375 3.12817 0
M  V30 687 C 60.114 3.32296 3.03149 0
M  V30 688 C 61.433 1.54309 4.12161 0
M  V30 689 H 58.552 0.387251 0.627061 0
M  V30 690 H 61.194 1.51536 1.14616 0
M  V30 691 H 59.344 1.39848 3.62457 0
M  V30 692 H 61.016 3.8032 2.61064 0
M  V30 693 H 59.259 3.6153 2.39747 0
M  V30 694 H 59.93 3.77972 4.02295 0
M  V30 695 H 62.406 1.87791 3.71314 0
M  V30 696 H 61.282 2.07281 5.08258 0
M  V30 697 H 61.543 0.477572 4.39513 0
M  V30 698 N 60.6021 -1.18246 1.0419 0
M  V30 699 C 61.8301 -1.92195 0.766072 0
M  V30 700 C 62.2451 -1.76247 -0.676933 0
M  V30 701 O 61.6021 -1.09293 -1.46155 0
M  V30 702 C 61.6531 -3.43568 1.12442 0
M  V30 703 O 61.3741 -3.59015 2.51078 0
M  V30 704 C 62.8751 -4.34613 0.873275 0
M  V30 705 H 60.0951 -0.610114 0.279288 0
M  V30 706 H 62.6391 -1.50007 1.38989 0
M  V30 707 H 60.7941 -3.8354 0.545542 0
M  V30 708 H 61.2081 -4.5273 2.64831 0
M  V30 709 H 62.6821 -5.39374 1.17385 0
M  V30 710 H 63.1591 -4.38781 -0.191909 0
M  V30 711 H 63.7651 -4.00341 1.43551 0
M  V30 712 N 62.0802 -0.821533 -1.34494 0
M  V30 713 C 62.9902 -0.244355 -2.33324 0
M  V30 714 C 64.0062 0.620527 -1.62559 0
M  V30 715 O 65.1822 0.528754 -1.94335 0
M  V30 716 C 62.2472 0.585368 -3.41723 0
M  V30 717 C 61.3082 -0.301752 -4.28238 0
M  V30 718 C 60.5412 0.488466 -5.3146 0
M  V30 719 O 60.7642 1.72186 -5.4379 0
M  V30 720 O 59.6982 -0.12848 -6.01763 0
M  V30 721 H 63.5242 -1.06231 -2.84515 0
M  V30 722 H 61.1092 -0.583645 -1.37528 0
M  V30 723 H 62.9912 1.05747 -4.07916 0
M  V30 724 H 61.6662 1.38068 -2.92778 0
M  V30 725 H 60.5732 -0.821315 -3.64973 0
M  V30 726 H 61.9062 -1.06138 -4.8062 0
M  V30 727 N 63.5583 1.46682 -0.576371 0
M  V30 728 C 64.5213 2.28707 0.150239 0
M  V30 729 C 65.5213 1.38035 0.824794 0
M  V30 730 O 66.7113 1.60476 0.677719 0
M  V30 731 C 63.8433 3.18248 1.22192 0
M  V30 732 H 65.0363 2.94423 -0.570521 0
M  V30 733 H 62.5893 1.52688 -0.334078 0
M  V30 734 H 63.3243 2.57265 1.97447 0
M  V30 735 H 63.1093 3.85 0.742812 0
M  V30 736 H 64.5993 3.80001 1.73172 0
M  V30 737 N 65.0364 0.313813 1.54444 0
M  V30 738 C 65.9684 -0.590425 2.21465 0
M  V30 739 C 66.9814 -1.08753 1.21147 0
M  V30 740 O 68.1704 -1.00278 1.4767 0
M  V30 741 C 65.2704 -1.82179 2.85769 0
M  V30 742 C 64.4434 -1.46502 4.12136 0
M  V30 743 C 63.5024 -2.55288 4.60124 0
M  V30 744 O 62.5284 -2.19842 5.25032 0
M  V30 745 N 63.7304 -3.86053 4.33525 0
M  V30 746 H 66.4954 -0.0166033 2.99695 0
M  V30 747 H 64.0564 0.136578 1.61323 0
M  V30 748 H 66.0484 -2.54328 3.14801 0
M  V30 749 H 64.6184 -2.30369 2.11303 0
M  V30 750 H 63.8384 -0.575595 3.89975 0
M  V30 751 H 65.1264 -1.20221 4.94393 0
M  V30 752 H 64.5244 -4.17654 3.81552 0
M  V30 753 H 63.0814 -4.54461 4.67235 0
M  V30 754 N 66.5145 -1.57545 0.0417849 0
M  V30 755 C 67.7635 -1.91494 -0.633492 0
M  V30 756 C 68.0765 -0.921084 -1.72556 0
M  V30 757 O 69.2825 -1.15228 -2.45835 0
M  V30 758 C 67.7385 -3.40072 -1.17808 0
M  V30 759 C 67.3465 -4.47843 -0.118633 0
M  V30 760 C 69.0905 -3.8307 -1.82915 0
M  V30 761 C 66.9975 -5.87529 -0.675578 0
M  V30 762 H 65.9275 -0.714653 -0.24039 0
M  V30 763 H 68.5785 -1.83175 0.109148 0
M  V30 764 H 66.9605 -3.43364 -1.97274 0
M  V30 765 H 68.1345 -4.56128 0.654494 0
M  V30 766 H 66.4495 -4.14128 0.434414 0
M  V30 767 H 69.0465 -4.84794 -2.25563 0
M  V30 768 H 69.3895 -3.1881 -2.67705 0
M  V30 769 H 69.9225 -3.82255 -1.10119 0
M  V30 770 H 66.6615 -6.55362 0.134475 0
M  V30 771 H 66.1815 -5.82824 -1.4169 0
M  V30 772 H 67.8605 -6.36491 -1.1614 0
M  V30 773 N 67.9926 0.231505 -1.5589 0
M  V30 774 C 69.4086 0.580748 -1.48659 0
M  V30 775 C 69.6086 1.87617 -0.73498 0
M  V30 776 O 68.6646 2.51046 -0.270586 0
M  V30 777 C 69.9776 0.669202 -2.93159 0
M  V30 778 C 71.5256 0.760499 -3.03621 0
M  V30 779 C 72.0006 0.880383 -4.49459 0
M  V30 780 N 73.4916 0.944861 -4.53461 0
M  V30 781 C 74.2266 1.05716 -5.63571 0
M  V30 782 N 73.7226 1.13403 -6.83456 0
M  V30 783 N 75.5156 1.09152 -5.514 0
M  V30 784 H 67.6666 -0.618695 -2.03189 0
M  V30 785 H 69.9296 -0.215728 -0.923128 0
M  V30 786 H 69.6356 -0.212904 -3.51055 0
M  V30 787 H 69.5096 1.5361 -3.44505 0
M  V30 788 H 71.8966 1.63305 -2.45796 0
M  V30 789 H 71.9776 -0.131864 -2.5546 0
M  V30 790 H 71.6216 0.0123284 -5.07899 0
M  V30 791 H 71.5516 1.78802 -4.95316 0
M  V30 792 H 74.0426 0.896176 -3.6712 0
M  V30 793 H 74.3556 1.21921 -7.63122 0
M  V30 794 H 72.7006 1.10333 -6.86186 0
M  V30 795 H 75.8916 1.02805 -4.56671 0
M  V30 796 H 76.0646 1.17558 -6.37247 0
M  V30 797 N 69.4707 1.49531 0.497807 0
M  V30 798 C 70.7477 1.49682 1.25915 0
M  V30 799 C 71.1277 0.226339 2.09883 0
M  V30 800 O 70.4757 -0.791189 2.14365 0
M  V30 801 C 70.6857 2.77755 2.11313 0
M  V30 802 C 72.0337 3.27371 2.70395 0
M  V30 803 O 73.0577 2.78894 2.21578 0
M  V30 804 O 71.9167 4.11808 3.59272 0
M  V30 805 H 69.0107 0.599228 0.56996 0
M  V30 806 H 71.5567 1.61798 0.511816 0
M  V30 807 H 70.3287 3.61713 1.49264 0
M  V30 808 H 69.9517 2.68515 2.93233 0
M  V30 809 N 70.9488 -0.749086 1.3866 0
M  V30 810 C 72.1958 -1.50833 1.35114 0
M  V30 811 C 72.5238 -1.94415 -0.0574049 0
M  V30 812 O 71.7788 -1.66065 -1.03541 0
M  V30 813 C 72.0778 -2.7712 2.25697 0
M  V30 814 C 71.7438 -2.52477 3.73585 0
M  V30 815 C 70.4058 -2.45466 4.13884 0
M  V30 816 C 72.7578 -2.31066 4.67181 0
M  V30 817 C 70.0858 -2.15064 5.45861 0
M  V30 818 C 72.4378 -2.02183 5.9942 0
M  V30 819 C 71.1018 -1.93631 6.38798 0
M  V30 820 H 70.3718 -0.551936 0.494416 0
M  V30 821 H 73.0188 -0.860979 1.71054 0
M  V30 822 H 71.3238 -3.46528 1.82827 0
M  V30 823 H 73.0208 -3.35096 2.20254 0
M  V30 824 H 69.6108 -2.58807 3.41638 0
M  V30 825 H 73.7948 -2.35459 4.3689 0
M  V30 826 H 69.0508 -2.06954 5.75308 0
M  V30 827 H 73.2248 -1.8462 6.71482 0
M  V30 828 H 70.8518 -1.69839 7.40985 0
M  V30 829 N 72.4269 -1.23603 -0.977757 0
M  V30 830 C 73.3749 -1.01704 -2.09187 0
M  V30 831 C 74.3689 0.0448214 -1.69341 0
M  V30 832 O 75.5749 -0.108902 -1.7967 0
M  V30 833 H 71.9499 -0.311803 -0.684312 0
M  V30 834 H 73.9209 -1.96207 -2.24823 0
M  V30 835 C 72.6699 -0.627746 -3.41986 0
M  V30 836 H 71.9929 -1.43656 -3.73099 0
M  V30 837 H 73.4329 -0.514053 -4.20872 0
M  V30 838 C 71.8919 0.664238 -3.30287 0
M  V30 839 O 72.4219 1.71268 -3.6336 0
M  V30 840 N 70.6279 0.641156 -2.83439 0
M  V30 841 H 70.1749 -0.212376 -2.56723 0
M  V30 842 H 70.1329 1.50583 -2.75993 0
M  V30 843 N 73.905 1.17692 -1.04816 0
M  V30 844 C 75.316 1.69501 -0.782698 0
M  V30 845 C 75.667 1.83456 0.695577 0
M  V30 846 O 74.792 1.51942 1.54086 0
M  V30 847 C 75.387 3.07874 -1.41419 0
M  V30 848 C 73.946 3.56864 -1.19686 0
M  V30 849 C 73.093 2.3322 -1.50012 0
M  V30 850 H 76.044 1.02262 -1.2136 0
M  V30 851 H 76.065 3.71528 -0.821428 0
M  V30 852 H 75.577 2.97685 -2.49009 0
M  V30 853 H 73.678 3.72337 -0.140043 0
M  V30 854 H 73.791 4.39851 -1.89916 0
M  V30 855 H 72.155 2.37501 -0.920071 0
M  V30 856 H 72.938 2.25644 -2.58727 0
M  V30 857 N 75.3831 0.828654 1.34056 0
M  V30 858 C 76.6081 0.431637 2.02859 0
M  V30 859 C 77.0331 -0.956339 1.61975 0
M  V30 860 O 76.3911 -1.62338 0.807228 0
M  V30 861 C 76.4391 0.548323 3.56407 0
M  V30 862 O 75.5431 -0.429556 4.10157 0
M  V30 863 H 74.8841 0.176886 0.640006 0
M  V30 864 H 77.4141 1.12066 1.71179 0
M  V30 865 H 77.4241 0.426196 4.05768 0
M  V30 866 H 76.0991 1.5606 3.8551 0
M  V30 867 H 74.6761 -0.265836 3.71951 0
M  V30 868 N 76.8612 -1.46375 0.584142 0
M  V30 869 C 78.1092 -2.01978 0.0701287 0
M  V30 870 C 78.4302 -1.4579 -1.295 0
M  V30 871 O 77.7002 -0.64314 -1.85042 0
M  V30 872 H 76.2802 -0.746648 0.0229345 0
M  V30 873 H 78.9422 -1.79461 0.760245 0
M  V30 874 H 78.0382 -3.121 0.0022064 0
M  V30 875 N 78.3393 -0.321999 -1.54275 0
M  V30 876 C 79.5883 0.281931 -1.9972 0
M  V30 877 C 79.9013 1.53369 -1.21397 0
M  V30 878 O 81.1073 2.21352 -1.57211 0
M  V30 879 C 79.5633 0.5529 -3.55628 0
M  V30 880 C 79.1713 -0.681721 -4.42783 0
M  V30 881 C 80.9153 1.11687 -4.09544 0
M  V30 882 C 78.8223 -0.382742 -5.9016 0
M  V30 883 H 77.7523 0.109124 -0.746062 0
M  V30 884 H 80.4033 -0.43398 -1.78294 0
M  V30 885 H 78.7853 1.32896 -3.73035 0
M  V30 886 H 79.9593 -1.45723 -4.37151 0
M  V30 887 H 78.2743 -1.1658 -3.99748 0
M  V30 888 H 80.8713 1.35515 -5.17242 0
M  V30 889 H 81.2143 2.06575 -3.61431 0
M  V30 890 H 81.7473 0.402032 -3.95763 0
M  V30 891 H 78.4863 -1.30076 -6.42464 0
M  V30 892 H 78.0063 0.355094 -5.98748 0
M  V30 893 H 79.6853 0.00800157 -6.47 0
M  V30 894 N 79.8174 1.5752 -0.0501392 0
M  V30 895 C 81.0664 1.91827 0.623328 0
M  V30 896 C 81.3794 0.930222 1.72065 0
M  V30 897 O 82.5854 1.1653 2.4522 0
M  V30 898 C 81.0414 3.40692 1.16003 0
M  V30 899 C 80.6494 4.479 0.0948811 0
M  V30 900 C 82.3934 3.84034 1.80881 0
M  V30 901 C 80.3004 5.87879 0.644411 0
M  V30 902 H 79.2304 0.715918 0.236596 0
M  V30 903 H 81.8814 1.83115 -0.118861 0
M  V30 904 H 80.2634 3.44405 1.9545 0
M  V30 905 H 81.4374 4.55775 -0.678675 0
M  V30 906 H 79.7524 4.13892 -0.45637 0
M  V30 907 H 82.3494 4.85984 2.22988 0
M  V30 908 H 82.6924 3.20225 2.6601 0
M  V30 909 H 83.2254 3.82833 1.0809 0
M  V30 910 H 79.9644 6.55282 -0.169229 0
M  V30 911 H 79.4844 5.83567 1.38598 0
M  V30 912 H 81.1634 6.37098 1.12763 0
M  V30 913 N 81.2955 -0.223234 1.56011 0
M  V30 914 C 82.2255 -1.27988 1.95298 0
M  V30 915 C 83.2065 -1.48976 0.820979 0
M  V30 916 O 84.3915 -1.61188 1.08315 0
M  V30 917 C 81.5215 -2.63 2.26822 0
M  V30 918 C 80.4755 -2.56671 3.42497 0
M  V30 919 C 79.8015 -3.95697 3.59622 0
M  V30 920 C 81.1015 -2.11601 4.77517 0
M  V30 921 H 82.7955 -0.953525 2.8381 0
M  V30 922 H 80.3415 -0.457244 1.36548 0
M  V30 923 H 82.2945 -3.37077 2.52898 0
M  V30 924 H 81.0185 -2.9732 1.35161 0
M  V30 925 H 79.6775 -1.85051 3.16467 0
M  V30 926 H 79.3255 -4.27322 2.6534 0
M  V30 927 H 79.0255 -3.92345 4.37424 0
M  V30 928 H 80.5495 -4.71438 3.88044 0
M  V30 929 H 81.9635 -2.7542 5.02809 0
M  V30 930 H 80.3605 -2.19311 5.5859 0
M  V30 931 H 81.4305 -1.06824 4.72987 0
M  V30 932 N 82.7736 -1.49793 -0.48987 0
M  V30 933 C 83.9986 -1.63836 -1.27172 0
M  V30 934 C 84.4236 -0.31402 -1.8546 0
M  V30 935 O 83.7816 0.719803 -1.66399 0
M  V30 936 C 83.8296 -2.71797 -2.36978 0
M  V30 937 O 82.9336 -2.31744 -3.41128 0
M  V30 938 H 82.2746 -0.547997 -0.37496 0
M  V30 939 H 84.8046 -1.96053 -0.585191 0
M  V30 940 H 84.8146 -2.94305 -2.82575 0
M  V30 941 H 83.4896 -3.67923 -1.93921 0
M  V30 942 H 82.0666 -2.1961 -3.01373 0
M  V30 943 N 84.2517 0.741722 -1.39055 0
M  V30 944 C 85.4997 1.49818 -1.35643 0
M  V30 945 C 85.8207 1.94938 0.0491642 0
M  V30 946 O 85.0907 1.68505 0.999141 0
M  V30 947 H 83.6707 0.555755 -0.499144 0
M  V30 948 H 86.3327 0.880957 -1.73854 0
M  V30 949 H 85.4287 2.38348 -2.01486 0
M  V30 950 N 85.7298 1.2412 0.971189 0
M  V30 951 C 86.9778 1.07668 1.71032 0
M  V30 952 C 87.2988 -0.385797 1.91146 0
M  V30 953 O 86.5688 -1.27569 1.4867 0
M  V30 954 H 85.1488 0.395429 0.633755 0
M  V30 955 H 87.8108 1.55984 1.16855 0
M  V30 956 H 86.9068 1.57195 2.69622 0
M  V30 957 N 87.2079 -1.17134 1.05439 0
M  V30 958 C 88.6189 -1.69084 0.791676 0
M  V30 959 C 88.9699 -1.83822 -0.685839 0
M  V30 960 O 88.0949 -1.52757 -1.53278 0
M  V30 961 C 88.6899 -3.07119 1.4305 0
M  V30 962 C 87.2489 -3.56225 1.21577 0
M  V30 963 C 86.3959 -2.32421 1.51247 0
M  V30 964 H 89.3469 -1.01617 1.219 0
M  V30 965 H 89.3679 -3.71087 0.84112 0
M  V30 966 H 88.8799 -2.9636 2.50584 0
M  V30 967 H 86.9809 -3.72257 0.159787 0
M  V30 968 H 87.0939 -4.38837 1.92246 0
M  V30 969 H 85.4579 -2.3701 0.932653 0
M  V30 970 H 86.2409 -2.24268 2.5992 0
M  V30 971 N 88.686 -0.835752 -1.33615 0
M  V30 972 C 89.596 -0.269088 -2.33052 0
M  V30 973 C 90.612 0.603251 -1.63208 0
M  V30 974 O 91.788 0.508112 -1.94885 0
M  V30 975 C 88.853 0.549091 -3.42324 0
M  V30 976 C 87.914 -0.347156 -4.27894 0
M  V30 977 C 87.147 0.43207 -5.31948 0
M  V30 978 O 87.37 1.66409 -5.45586 0
M  V30 979 O 86.304 -0.192298 -6.01593 0
M  V30 980 H 90.13 -1.09243 -2.83372 0
M  V30 981 H 87.715 -0.598198 -1.36901 0
M  V30 982 H 89.597 1.01414 -4.09015 0
M  V30 983 H 88.272 1.34955 -2.94226 0
M  V30 984 H 87.179 -0.859979 -3.64081 0
M  V30 985 H 88.512 -1.1123 -4.79467 0
M  V30 986 N 90.1641 1.46063 -0.591896 0
M  V30 987 C 91.3891 2.07226 -0.0850314 0
M  V30 988 C 91.8141 1.43625 1.21463 0
M  V30 989 O 91.1721 0.523305 1.73583 0
M  V30 990 C 91.2201 3.60554 0.0576567 0
M  V30 991 O 90.3241 3.97128 1.11188 0
M  V30 992 H 89.6651 0.660615 -0.0669568 0
M  V30 993 H 92.1951 1.8756 -0.81745 0
M  V30 994 H 92.2051 4.07165 0.2609 0
M  V30 995 H 90.8801 4.06235 -0.891416 0
M  V30 996 H 89.4571 3.62213 0.886356 0
M  V30 997 N 91.6422 0.330177 1.54103 0
M  V30 998 C 92.8702 -0.272179 2.05102 0
M  V30 999 C 93.2852 -1.45267 1.20595 0
M  V30 1000 O 92.6422 -1.8094 0.238144 0
M  V30 1001 C 92.6932 -0.70023 3.54653 0
M  V30 1002 O 92.4142 0.433301 4.35952 0
M  V30 1003 C 93.9152 -1.3647 4.21771 0
M  V30 1004 H 91.1352 -0.0549159 0.668749 0
M  V30 1005 H 93.6792 0.478285 1.98828 0
M  V30 1006 H 91.8342 -1.40066 3.61193 0
M  V30 1007 H 92.2482 0.0947539 5.24414 0
M  V30 1008 H 93.7222 -1.61509 5.27843 0
M  V30 1009 H 94.1992 -2.31409 3.73292 0
M  V30 1010 H 94.8052 -0.706675 4.19388 0
M  V30 1011 N 93.1203 -1.57491 0.0584922 0
M  V30 1012 C 94.3483 -1.97296 -0.623037 0
M  V30 1013 C 94.7633 -0.936338 -1.63946 0
M  V30 1014 O 94.1203 0.0785981 -1.82331 0
M  V30 1015 C 94.1713 -3.37183 -1.30345 0
M  V30 1016 O 93.8923 -4.36872 -0.32773 0
M  V30 1017 C 95.3933 -3.91788 -2.07406 0
M  V30 1018 H 92.6133 -0.649153 -0.169826 0
M  V30 1019 H 95.1573 -2.04106 0.12696 0
M  V30 1020 H 93.3123 -3.31502 -2.00463 0
M  V30 1021 H 93.7263 -5.18141 -0.814269 0
M  V30 1022 H 95.2003 -4.91926 -2.50425 0
M  V30 1023 H 95.6773 -3.27609 -2.92521 0
M  V30 1024 H 96.2833 -4.00829 -1.42184 0
M  V30 1025 N 94.5984 0.214957 -1.56127 0
M  V30 1026 C 95.5084 1.28727 -1.96129 0
M  V30 1027 C 96.5244 1.50916 -0.866044 0
M  V30 1028 O 97.7004 1.63918 -1.17016 0
M  V30 1029 C 94.7654 2.61569 -2.27558 0
M  V30 1030 C 93.8264 2.47625 -3.50685 0
M  V30 1031 C 93.0594 3.74132 -3.80606 0
M  V30 1032 O 93.2824 4.77438 -3.12104 0
M  V30 1033 O 92.2164 3.70849 -4.74083 0
M  V30 1034 H 96.0424 0.977855 -2.87527 0
M  V30 1035 H 93.6274 0.418358 -1.43423 0
M  V30 1036 H 95.5094 3.40012 -2.48938 0
M  V30 1037 H 94.1844 2.92178 -1.39332 0
M  V30 1038 H 93.0914 1.67361 -3.34576 0
M  V30 1039 H 94.4244 2.21954 -4.39315 0
M  V30 1040 N 96.0765 1.50051 0.48192 0
M  V30 1041 C 96.9865 1.7089 1.60728 0
M  V30 1042 C 98.0025 0.591788 1.63627 0
M  V30 1043 O 99.1785 0.868817 1.81696 0
M  V30 1044 C 96.2435 1.78855 2.97005 0
M  V30 1045 C 95.3045 3.02537 3.04581 0
M  V30 1046 C 94.5375 3.10112 4.34357 0
M  V30 1047 O 94.7605 2.24765 5.24249 0
M  V30 1048 O 93.6945 4.02747 4.47301 0
M  V30 1049 H 97.5205 2.66264 1.46072 0
M  V30 1050 H 95.1055 1.34018 0.660264 0
M  V30 1051 H 96.9875 1.86336 3.77964 0
M  V30 1052 H 95.6625 0.866628 3.11883 0
M  V30 1053 H 94.5695 3.00563 2.22739 0
M  V30 1054 H 95.9025 3.94272 2.94636 0
M  V30 1055 N 97.5546 -0.734337 1.39446 0
M  V30 1056 C 98.5026 -1.86971 1.38364 0
M  V30 1057 C 99.4966 -1.67288 0.266687 0
M  V30 1058 O 100.703 -1.74621 0.436755 0
M  V30 1059 H 97.0776 -0.615474 0.432082 0
M  V30 1060 H 99.0486 -1.85 2.34132 0
M  V30 1061 C 97.7976 -3.2466 1.24465 0
M  V30 1062 H 97.1206 -3.40402 2.09682 0
M  V30 1063 H 98.5606 -4.04292 1.27764 0
M  V30 1064 C 97.0196 -3.36867 -0.0468674 0
M  V30 1065 O 97.5496 -3.88618 -1.01681 0
M  V30 1066 N 95.7556 -2.90391 -0.110145 0
M  V30 1067 H 95.3026 -2.48466 0.679868 0
M  V30 1068 H 95.2606 -2.98939 -0.973799 0
M  V30 1069 N 99.0327 -1.24633 -0.964593 0
M  V30 1070 C 100.258 -1.11596 -1.74818 0
M  V30 1071 C 100.683 0.32723 -1.85232 0
M  V30 1072 O 100.041 1.23695 -1.32549 0
M  V30 1073 C 100.089 -1.76397 -3.1451 0
M  V30 1074 O 99.1927 -1.03685 -3.99153 0
M  V30 1075 H 98.5337 -0.390196 -0.537255 0
M  V30 1076 H 101.064 -1.65002 -1.20977 0
M  V30 1077 H 101.074 -1.8228 -3.65018 0
M  V30 1078 H 99.7487 -2.81401 -3.06246 0
M  V30 1079 H 98.3257 -1.05611 -3.57632 0
M  V30 1080 N 100.511 1.16574 -1.06058 0
M  V30 1081 C 101.922 1.68662 -0.800632 0
M  V30 1082 C 102.273 1.84184 0.67608 0
M  V30 1083 O 101.398 1.53568 1.52466 0
M  V30 1084 C 101.993 3.06356 -1.44676 0
M  V30 1085 C 100.552 3.55575 -1.23465 0
M  V30 1086 C 99.6988 2.31616 -1.52477 0
M  V30 1087 H 102.65 1.00969 -1.22438 0
M  V30 1088 H 102.671 3.70636 -0.860788 0
M  V30 1089 H 102.183 2.95027 -2.52152 0
M  V30 1090 H 100.284 3.72167 -0.179527 0
M  V30 1091 H 100.397 4.37812 -1.94571 0
M  V30 1092 H 98.7608 2.36512 -0.945209 0
M  V30 1093 H 99.5438 2.22887 -2.61106 0
M  V30 1094 N 101.989 0.842826 1.3317 0
M  V30 1095 C 103.405 0.531128 1.50503 0
M  V30 1096 C 103.605 -0.940734 1.78192 0
M  V30 1097 O 102.661 -1.72436 1.84451 0
M  V30 1098 C 103.974 1.40789 2.65705 0
M  V30 1099 C 105.522 1.40708 2.79589 0
M  V30 1100 C 105.997 2.26878 3.97857 0
M  V30 1101 N 107.488 2.24609 4.05099 0
M  V30 1102 C 108.223 2.88019 4.95815 0
M  V30 1103 N 107.719 3.60496 5.9162 0
M  V30 1104 N 109.512 2.77469 4.88843 0
M  V30 1105 H 101.663 1.79557 1.1346 0
M  V30 1106 H 103.926 0.766267 0.558156 0
M  V30 1107 H 103.632 2.454 2.51936 0
M  V30 1108 H 103.506 1.08677 3.61205 0
M  V30 1109 H 105.893 0.368668 2.92788 0
M  V30 1110 H 105.974 1.76829 1.84838 0
M  V30 1111 H 105.618 3.3078 3.85418 0
M  V30 1112 H 105.548 1.88096 4.91861 0
M  V30 1113 H 108.039 1.71906 3.36536 0
M  V30 1114 H 108.352 4.06076 6.57512 0
M  V30 1115 H 106.697 3.64604 5.91683 0
M  V30 1116 H 109.888 2.20406 4.12963 0
M  V30 1117 H 110.061 3.2717 5.59342 0
M  V30 1118 N 103.467 -1.45747 0.599634 0
M  V30 1119 C 104.43 -2.28917 -0.113835 0
M  V30 1120 C 105.43 -1.3933 -0.802729 0
M  V30 1121 O 106.62 -1.61534 -0.652103 0
M  V30 1122 C 103.752 -3.20152 -1.17114 0
M  V30 1123 H 104.945 -2.93478 0.617289 0
M  V30 1124 H 102.498 -1.52137 0.358327 0
M  V30 1125 H 103.233 -2.60374 -1.93329 0
M  V30 1126 H 103.018 -3.86133 -0.681468 0
M  V30 1127 H 104.508 -3.82708 -1.67105 0
M  V30 1128 N 104.945 -0.338344 -1.53925 0
M  V30 1129 C 106.356 0.146651 -1.86123 0
M  V30 1130 C 106.707 1.5042 -1.2597 0
M  V30 1131 O 105.832 2.08723 -0.571294 0
M  V30 1132 C 106.427 0.272879 -3.37699 0
M  V30 1133 C 104.986 0.702103 -3.69794 0
M  V30 1134 C 104.133 -0.167304 -2.76795 0
M  V30 1135 H 107.084 -0.558123 -1.48562 0
M  V30 1136 H 107.105 1.10128 -3.64214 0
M  V30 1137 H 106.617 -0.715307 -3.81451 0
M  V30 1138 H 104.718 1.6995 -3.31584 0
M  V30 1139 H 104.831 0.495604 -4.7653 0
M  V30 1140 H 103.195 0.359527 -2.5215 0
M  V30 1141 H 103.978 -1.15253 -3.23375 0
M  V30 1142 N 106.423 1.57458 -0.0668435 0
M  V30 1143 C 107.355 2.09413 0.931601 0
M  V30 1144 C 108.368 1.02522 1.26464 0
M  V30 1145 O 109.557 1.30049 1.22269 0
M  V30 1146 C 106.657 2.53537 2.24882 0
M  V30 1147 C 105.83 3.83944 2.09537 0
M  V30 1148 C 104.889 4.14214 3.2452 0
M  V30 1149 O 103.915 4.83891 2.9973 0
M  V30 1150 N 105.117 3.67367 4.49469 0
M  V30 1151 H 107.882 2.95699 0.488048 0
M  V30 1152 H 105.443 1.61462 0.119009 0
M  V30 1153 H 107.435 2.70853 3.00701 0
M  V30 1154 H 106.005 1.72415 2.60753 0
M  V30 1155 H 105.225 3.76057 1.18215 0
M  V30 1156 H 106.513 4.69312 1.96529 0
M  V30 1157 H 105.911 3.11068 4.72497 0
M  V30 1158 H 104.468 3.89891 5.2233 0
M  V30 1159 N 107.901 -0.206675 1.56239 0
M  V30 1160 C 109.131 -0.943975 1.83773 0
M  V30 1161 C 109.539 -1.77841 0.645703 0
M  V30 1162 O 108.882 -1.79403 -0.395008 0
M  V30 1163 C 108.944 -1.899 3.05251 0
M  V30 1164 C 108.608 -1.24764 4.39639 0
M  V30 1165 C 109.605 -0.630216 5.16066 0
M  V30 1166 C 107.29 -1.25496 4.8637 0
M  V30 1167 C 109.284 -0.0287946 6.37393 0
M  V30 1168 C 106.971 -0.649698 6.07637 0
M  V30 1169 C 107.969 -0.0376845 6.8299 0
M  V30 1170 O 107.657 0.55812 8.0196 0
M  V30 1171 H 107.389 -0.281508 0.614597 0
M  V30 1172 H 109.943 -0.222458 2.04192 0
M  V30 1173 H 108.173 -2.6599 2.80689 0
M  V30 1174 H 109.862 -2.5031 3.1953 0
M  V30 1175 H 110.628 -0.616785 4.81062 0
M  V30 1176 H 106.507 -1.72072 4.27683 0
M  V30 1177 H 110.051 0.449518 6.9615 0
M  V30 1178 H 105.948 -0.660592 6.42111 0
M  V30 1179 H 106.716 0.453891 8.17241 0
M  V30 1180 N 109.379 -1.50304 -0.473955 0
M  V30 1181 C 110.625 -1.61389 -1.22806 0
M  V30 1182 C 110.958 -0.311955 -1.91678 0
M  V30 1183 O 110.233 0.686384 -1.81986 0
M  V30 1184 C 110.516 -2.79219 -2.27396 0
M  V30 1185 C 110.369 -4.19286 -1.62848 0
M  V30 1186 C 111.688 -2.92614 -3.28732 0
M  V30 1187 H 108.807 -0.587399 -0.445119 0
M  V30 1188 H 111.449 -1.82681 -0.522265 0
M  V30 1189 H 109.599 -2.61195 -2.87592 0
M  V30 1190 H 111.271 -4.48892 -1.06271 0
M  V30 1191 H 109.514 -4.23677 -0.931693 0
M  V30 1192 H 110.185 -4.97655 -2.38838 0
M  V30 1193 H 112.661 -3.09105 -2.78556 0
M  V30 1194 H 111.537 -3.76688 -3.99246 0
M  V30 1195 H 111.798 -2.03107 -3.92683 0
M  V30 1196 N 110.857 0.726932 -1.39834 0
M  V30 1197 C 112.104 1.48664 -1.37496 0
M  V30 1198 C 112.432 1.94482 0.0264678 0
M  V30 1199 O 111.687 1.67692 1.00886 0
M  V30 1200 C 111.986 2.73495 -2.30077 0
M  V30 1201 C 111.652 2.46502 -3.77555 0
M  V30 1202 C 110.314 2.3885 -4.17737 0
M  V30 1203 C 112.666 2.23604 -4.70798 0
M  V30 1204 C 109.994 2.06352 -5.49214 0
M  V30 1205 C 112.346 1.92622 -6.02561 0
M  V30 1206 C 111.01 1.83444 -6.41798 0
M  V30 1207 H 110.28 0.544001 -0.503135 0
M  V30 1208 H 112.927 0.833657 -1.72402 0
M  V30 1209 H 111.232 3.43575 -1.88317 0
M  V30 1210 H 112.929 3.31549 -2.25558 0
M  V30 1211 H 109.519 2.5334 -3.45712 0
M  V30 1212 H 113.703 2.28479 -4.40581 0
M  V30 1213 H 108.959 1.97776 -5.78528 0
M  V30 1214 H 113.133 1.73914 -6.74334 0
M  V30 1215 H 110.76 1.58029 -7.43593 0
M  V30 1216 N 112.336 1.25143 0.95797 0
M  V30 1217 C 113.246 1.06968 2.08794 0
M  V30 1218 C 114.262 0.00773911 1.73998 0
M  V30 1219 O 115.438 0.207972 2.00323 0
M  V30 1220 C 112.503 0.68691 3.39827 0
M  V30 1221 C 111.564 1.82641 3.88511 0
M  V30 1222 C 110.797 1.46181 5.1329 0
M  V30 1223 O 111.02 0.355971 5.69288 0
M  V30 1224 O 109.954 2.29085 5.566 0
M  V30 1225 H 113.78 2.01723 2.27027 0
M  V30 1226 H 111.365 1.04051 1.07209 0
M  V30 1227 H 113.247 0.485417 4.18595 0
M  V30 1228 H 111.922 -0.231417 3.22872 0
M  V30 1229 H 110.829 2.08274 3.10762 0
M  V30 1230 H 112.162 2.72386 4.09959 0
M  V30 1231 N 113.814 -1.1601 1.06675 0
M  V30 1232 C 114.777 -2.18724 0.685001 0
M  V30 1233 C 115.777 -1.58496 -0.271246 0
M  V30 1234 O 116.967 -1.74119 -0.0531156 0
M  V30 1235 C 114.099 -3.40899 0.00853648 0
M  V30 1236 H 115.292 -2.54011 1.59431 0
M  V30 1237 H 112.845 -1.30352 0.862441 0
M  V30 1238 H 113.58 -3.11173 -0.913337 0
M  V30 1239 H 113.365 -3.8587 0.696204 0
M  V30 1240 H 114.855 -4.16886 -0.24414 0
M  V30 1241 N 115.292 -0.849877 -1.32721 0
M  V30 1242 C 116.54 -0.450032 -1.97026 0
M  V30 1243 C 116.861 0.996604 -1.67609 0
M  V30 1244 O 116.131 1.6958 -0.980786 0
M  V30 1245 H 114.711 -0.163426 -0.728904 0
M  V30 1246 H 117.373 -1.08526 -1.6189 0
M  V30 1247 H 116.469 -0.591146 -3.0645 0
M  V30 1248 N 116.77 1.45427 -0.607355 0
M  V30 1249 C 118.016 2.0254 -0.102607 0
M  V30 1250 C 118.349 1.47478 1.26348 0
M  V30 1251 O 117.624 0.64939 1.83339 0
M  V30 1252 C 117.907 3.60044 -0.0634347 0
M  V30 1253 C 117.76 4.2544 -1.46017 0
M  V30 1254 C 119.079 4.35646 0.624514 0
M  V30 1255 H 116.198 0.73598 -0.0387607 0
M  V30 1256 H 118.84 1.73284 -0.779282 0
M  V30 1257 H 116.99 3.85101 0.512808 0
M  V30 1258 H 118.662 4.11569 -2.08347 0
M  V30 1259 H 116.905 3.83849 -2.02094 0
M  V30 1260 H 117.576 5.34342 -1.385 0
M  V30 1261 H 120.052 4.15882 0.134723 0
M  V30 1262 H 118.928 5.45376 0.621028 0
M  V30 1263 H 119.189 4.08501 1.69055 0
M  V30 1264 N 118.248 0.346503 1.53744 0
M  V30 1265 C 119.659 -0.136779 1.86198 0
M  V30 1266 C 120.01 -1.49749 1.26766 0
M  V30 1267 O 119.135 -2.08417 0.582355 0
M  V30 1268 C 119.73 -0.254966 3.37839 0
M  V30 1269 C 118.289 -0.682482 3.70161 0
M  V30 1270 C 117.436 0.181981 2.76702 0
M  V30 1271 H 120.387 0.565994 1.48264 0
M  V30 1272 H 120.408 -1.08195 3.64793 0
M  V30 1273 H 119.92 0.735526 3.81066 0
M  V30 1274 H 118.021 -1.68189 3.3248 0
M  V30 1275 H 118.134 -0.470326 4.76786 0
M  V30 1276 H 116.498 -0.34615 2.52337 0
M  V30 1277 H 117.281 1.16966 3.2276 0
M  V30 1278 N 119.726 -1.57421 0.075193 0
M  V30 1279 C 120.972 -1.93905 -0.594025 0
M  V30 1280 C 121.305 -0.955701 -1.69056 0
M  V30 1281 O 120.58 0.0145373 -1.94495 0
M  V30 1282 C 120.863 -3.40638 -1.1678 0
M  V30 1283 C 120.716 -4.49733 -0.0776792 0
M  V30 1284 C 122.035 -3.88259 -2.07228 0
M  V30 1285 H 119.154 -0.705105 -0.214466 0
M  V30 1286 H 121.796 -1.8947 0.141854 0
M  V30 1287 H 119.946 -3.44549 -1.79494 0
M  V30 1288 H 121.618 -4.57942 0.555573 0
M  V30 1289 H 119.861 -4.29751 0.591286 0
M  V30 1290 H 120.532 -5.49549 -0.519603 0
M  V30 1291 H 123.008 -3.86376 -1.54445 0
M  V30 1292 H 121.884 -4.91533 -2.44308 0
M  V30 1293 H 122.145 -3.26396 -2.98191 0
M  V30 1294 N 121.204 0.198386 -1.56346 0
M  V30 1295 C 122.451 0.919286 -1.80431 0
M  V30 1296 C 122.779 1.83393 -0.647866 0
M  V30 1297 O 122.034 1.92236 0.366556 0
M  V30 1298 C 122.333 1.77031 -3.10475 0
M  V30 1299 C 121.999 1.00693 -4.39513 0
M  V30 1300 C 120.661 0.796145 -4.74568 0
M  V30 1301 C 123.013 0.469559 -5.19081 0
M  V30 1302 C 120.341 0.0364588 -5.86689 0
M  V30 1303 C 122.693 -0.2769 -6.31994 0
M  V30 1304 C 121.357 -0.49873 -6.65634 0
M  V30 1305 H 120.627 0.336391 -0.660244 0
M  V30 1306 H 123.274 0.185872 -1.90596 0
M  V30 1307 H 121.579 2.5723 -2.95533 0
M  V30 1308 H 123.276 2.33065 -3.26315 0
M  V30 1309 H 119.866 1.18122 -4.12001 0
M  V30 1310 H 124.05 0.619816 -4.92414 0
M  V30 1311 H 119.306 -0.145412 -6.11227 0
M  V30 1312 H 123.48 -0.700684 -6.92866 0
M  V30 1313 H 121.107 -1.0893 -7.52355 0
M  V30 1314 N 122.682 1.50554 0.465978 0
M  V30 1315 C 123.93 1.61479 1.21528 0
M  V30 1316 C 124.251 0.319596 1.92363 0
M  V30 1317 O 123.521 -0.663194 1.84333 0
M  V30 1318 H 122.101 0.595055 0.451573 0
M  V30 1319 H 124.763 1.87355 0.53704 0
M  V30 1320 H 123.859 2.42846 1.96042 0
M  V30 1321 N 124.16 -0.719506 1.40217 0
M  V30 1322 C 125.406 -1.48152 1.38488 0
M  V30 1323 C 125.739 -1.94195 -0.0141867 0
M  V30 1324 O 125.014 -1.67884 -0.982096 0
M  V30 1325 C 125.297 -2.71035 2.37091 0
M  V30 1326 C 125.15 -2.30912 3.86005 0
M  V30 1327 C 126.469 -3.73182 2.33288 0
M  V30 1328 H 123.588 -0.537395 0.504357 0
M  V30 1329 H 126.23 -0.821472 1.71324 0
M  V30 1330 H 124.38 -3.27352 2.0922 0
M  V30 1331 H 126.052 -1.80107 4.24687 0
M  V30 1332 H 124.295 -1.62958 4.02029 0
M  V30 1333 H 124.966 -3.18978 4.50508 0
M  V30 1334 H 127.442 -3.26485 2.57966 0
M  V30 1335 H 126.318 -4.56806 3.04334 0
M  V30 1336 H 126.579 -4.21202 1.34317 0
M  V30 1337 N 125.638 -1.25649 -0.95132 0
M  V30 1338 C 126.878 -1.11802 -1.71113 0
M  V30 1339 C 127.242 0.334758 -1.89059 0
M  V30 1340 O 128.443 0.595121 -2.62129 0
M  V30 1341 C 126.714 -1.85512 -3.05483 0
M  V30 1342 S 128.273 -1.87597 -3.96677 0
M  V30 1343 H 125.091 -0.399552 -0.588115 0
M  V30 1344 H 127.693 -1.59222 -1.1344 0
M  V30 1345 H 126.397 -2.90299 -2.90094 0
M  V30 1346 H 125.928 -1.38493 -3.68216 0
M  V30 1347 H 127.943 -0.955389 -4.86916 0
M  V30 1348 N 127.117 1.15442 -1.07289 0
M  V30 1349 C 128.347 1.89821 -0.815576 0
M  V30 1350 C 128.755 1.7823 0.634867 0
M  V30 1351 O 128.098 1.13152 1.44715 0
M  V30 1352 C 128.16 3.40817 -1.14385 0
M  V30 1353 C 127.824 3.76193 -2.59476 0
M  V30 1354 C 128.821 3.77269 -3.57721 0
M  V30 1355 C 126.506 4.0652 -2.95037 0
M  V30 1356 C 128.5 4.08176 -4.89562 0
M  V30 1357 C 126.187 4.37092 -4.27076 0
M  V30 1358 C 127.185 4.37902 -5.24148 0
M  V30 1359 O 126.873 4.67741 -6.53815 0
M  V30 1360 H 126.605 0.608465 -0.294528 0
M  V30 1361 H 129.159 1.472 -1.43252 0
M  V30 1362 H 127.389 3.83835 -0.469865 0
M  V30 1363 H 129.078 3.96485 -0.869179 0
M  V30 1364 H 129.844 3.5394 -3.3159 0
M  V30 1365 H 125.723 4.05049 -2.20128 0
M  V30 1366 H 129.267 4.08723 -5.65324 0
M  V30 1367 H 125.164 4.59889 -4.5296 0
M  V30 1368 H 125.932 4.85509 -6.58957 0
M  V30 1369 N 128.595 0.856903 1.32268 0
M  V30 1370 C 129.843 0.460474 1.96784 0
M  V30 1371 C 130.164 -0.987701 1.68135 0
M  V30 1372 O 129.434 -1.69058 0.989765 0
M  V30 1373 H 128.014 0.167289 0.728027 0
M  V30 1374 H 130.676 1.09383 1.61312 0
M  V30 1375 H 129.772 0.60739 3.06133 0
M  V30 1376 N 130.073 -1.45103 0.615059 0
M  V30 1377 C 131.006 -2.27717 -0.148408 0
M  V30 1378 C 131.984 -1.37584 -0.866572 0
M  V30 1379 O 133.168 -1.67017 -0.87393 0
M  V30 1380 C 130.295 -3.16136 -1.21557 0
M  V30 1381 C 129.341 -4.22263 -0.599712 0
M  V30 1382 S 130.174 -5.3215 0.598081 0
M  V30 1383 C 131.33 -6.24137 -0.469484 0
M  V30 1384 H 131.563 -2.92121 0.552483 0
M  V30 1385 H 129.096 -1.49054 0.402778 0
M  V30 1386 H 131.054 -3.67633 -1.82638 0
M  V30 1387 H 129.715 -2.50982 -1.88857 0
M  V30 1388 H 128.908 -4.84081 -1.4029 0
M  V30 1389 H 128.51 -3.73945 -0.063876 0
M  V30 1390 H 130.802 -6.63984 -1.34652 0
M  V30 1391 H 131.745 -7.0801 0.112725 0
M  V30 1392 H 132.153 -5.58971 -0.788168 0
M  V30 1393 N 131.551 -0.354651 -1.53558 0
M  V30 1394 C 132.483 0.5315 -2.22952 0
M  V30 1395 C 133.496 1.05503 -1.23988 0
M  V30 1396 O 134.685 0.963279 -1.50277 0
M  V30 1397 C 131.785 1.74538 -2.90499 0
M  V30 1398 C 130.958 1.35524 -4.15875 0
M  V30 1399 C 130.017 2.42999 -4.66731 0
M  V30 1400 O 129.043 2.05844 -5.30676 0
M  V30 1401 N 130.245 3.74423 -4.43608 0
M  V30 1402 H 133.01 -0.0628615 -2.99634 0
M  V30 1403 H 130.571 -0.179302 -1.60904 0
M  V30 1404 H 132.563 2.45892 -3.21433 0
M  V30 1405 H 131.133 2.24686 -2.17336 0
M  V30 1406 H 130.353 0.471998 -3.91364 0
M  V30 1407 H 131.641 1.07071 -4.97406 0
M  V30 1408 H 131.039 4.07391 -3.92491 0
M  V30 1409 H 129.596 4.41913 -4.7912 0
M  V30 1410 N 133.029 1.57378 -0.0835403 0
M  V30 1411 C 134.257 1.98263 0.59157 0
M  V30 1412 C 134.672 0.962302 1.62435 0
M  V30 1413 O 134.029 -0.049581 1.82433 0
M  V30 1414 C 134.08 3.39214 1.24965 0
M  V30 1415 O 133.801 4.37339 0.258186 0
M  V30 1416 C 135.302 3.95038 2.01147 0
M  V30 1417 H 132.522 0.651773 0.159477 0
M  V30 1418 H 135.066 2.03878 -0.159415 0
M  V30 1419 H 133.221 3.34649 1.95164 0
M  V30 1420 H 133.635 5.19371 0.731734 0
M  V30 1421 H 135.109 4.95848 2.42567 0
M  V30 1422 H 135.586 3.32222 2.87272 0
M  V30 1423 H 136.192 4.0304 1.35789 0
M  V30 1424 N 134.507 -0.190092 1.56449 0
M  V30 1425 C 135.44 -1.26375 1.90012 0
M  V30 1426 C 136.418 -1.43705 0.760765 0
M  V30 1427 O 137.602 -1.59014 1.01226 0
M  V30 1428 C 134.729 -2.62962 2.13468 0
M  V30 1429 C 133.775 -2.62474 3.36169 0
M  V30 1430 S 134.608 -2.13412 4.91137 0
M  V30 1431 C 135.764 -3.51812 5.17667 0
M  V30 1432 H 135.997 -0.977181 2.80782 0
M  V30 1433 H 133.53 -0.393814 1.49293 0
M  V30 1434 H 135.488 -3.41583 2.27664 0
M  V30 1435 H 134.149 -2.88828 1.23439 0
M  V30 1436 H 133.342 -3.62918 3.49723 0
M  V30 1437 H 132.944 -1.91937 3.20992 0
M  V30 1438 H 135.236 -4.47706 5.08494 0
M  V30 1439 H 136.179 -3.43148 6.19399 0
M  V30 1440 H 136.587 -3.46956 4.45288 0
M  V30 1441 N 135.985 -1.50799 -0.457987 0
M  V30 1442 C 136.948 -1.7005 -1.53674 0
M  V30 1443 C 137.948 -0.570881 -1.50325 0
M  V30 1444 O 139.138 -0.838126 -1.52712 0
M  V30 1445 C 136.27 -1.73788 -2.93276 0
M  V30 1446 H 137.463 -2.66306 -1.37917 0
M  V30 1447 H 135.016 -1.40477 -0.685271 0
M  V30 1448 H 135.751 -0.792717 -3.14462 0
M  V30 1449 H 135.536 -2.55864 -2.97113 0
M  V30 1450 H 137.026 -1.90591 -3.71571 0
M  V30 1451 N 137.463 0.71206 -1.40597 0
M  V30 1452 C 138.396 1.83582 -1.35546 0
M  V30 1453 C 139.374 1.61032 -0.225284 0
M  V30 1454 O 140.558 1.83998 -0.409519 0
M  V30 1455 C 137.685 3.19983 -1.11034 0
M  V30 1456 C 136.731 3.61355 -2.2655 0
M  V30 1457 S 137.564 3.68062 -3.88961 0
M  V30 1458 C 138.72 5.07216 -3.66719 0
M  V30 1459 H 138.953 1.87586 -2.30648 0
M  V30 1460 H 136.486 0.879182 -1.26924 0
M  V30 1461 H 138.444 3.98734 -0.975761 0
M  V30 1462 H 137.105 3.13608 -0.175798 0
M  V30 1463 H 136.298 4.60403 -2.0505 0
M  V30 1464 H 135.9 2.8987 -2.36329 0
M  V30 1465 H 138.192 5.94238 -3.25404 0
M  V30 1466 H 139.135 5.33753 -4.6531 0
M  V30 1467 H 139.543 4.77976 -3.00332 0
M  V30 1468 N 138.941 1.26152 0.944643 0
M  V30 1469 C 139.873 1.03199 2.04652 0
M  V30 1470 C 140.886 -0.00642356 1.62799 0
M  V30 1471 O 142.075 0.233263 1.76969 0
M  V30 1472 C 139.175 0.540111 3.34568 0
M  V30 1473 C 138.348 1.64697 4.05208 0
M  V30 1474 C 137.407 1.15374 5.13396 0
M  V30 1475 O 136.433 1.85013 5.38293 0
M  V30 1476 N 137.635 0.00031529 5.805 0
M  V30 1477 H 140.4 1.9808 2.2491 0
M  V30 1478 H 137.961 1.17491 1.11389 0
M  V30 1479 H 139.953 0.194401 4.04233 0
M  V30 1480 H 138.523 -0.315021 3.11009 0
M  V30 1481 H 137.743 2.16379 3.29506 0
M  V30 1482 H 139.031 2.3903 4.49157 0
M  V30 1483 H 138.429 -0.581336 5.62705 0
M  V30 1484 H 136.986 -0.286346 6.51171 0
M  V30 1485 N 140.419 -1.14872 1.07899 0
M  V30 1486 C 141.349 -2.2193 0.725887 0
M  V30 1487 C 142.33 -1.67622 -0.28927 0
M  V30 1488 O 143.515 -1.93533 -0.160787 0
M  V30 1489 C 140.645 -3.47061 0.128856 0
M  V30 1490 C 139.599 -4.14363 1.07178 0
M  V30 1491 C 138.925 -5.33636 0.337229 0
M  V30 1492 C 140.225 -4.63492 2.40775 0
M  V30 1493 H 141.919 -2.51724 1.62097 0
M  V30 1494 H 139.465 -1.20991 0.780838 0
M  V30 1495 H 141.418 -4.21199 -0.130147 0
M  V30 1496 H 140.142 -3.16617 -0.80134 0
M  V30 1497 H 138.801 -3.42173 1.3158 0
M  V30 1498 H 138.449 -4.99449 -0.596606 0
M  V30 1499 H 138.149 -5.79609 0.965788 0
M  V30 1500 H 139.673 -6.10539 0.0861567 0
M  V30 1501 H 141.087 -5.2913 2.20669 0
M  V30 1502 H 139.484 -5.20148 2.99276 0
M  V30 1503 H 140.554 -3.78834 3.02676 0
M  V30 1504 N 141.898 -0.863906 -1.31812 0
M  V30 1505 C 143.146 -0.470904 -1.96537 0
M  V30 1506 C 143.467 0.978771 -1.68657 0
M  V30 1507 O 142.737 1.6853 -0.998717 0
M  V30 1508 H 141.317 -0.171148 -0.72713 0
M  V30 1509 H 143.979 -1.10236 -1.60729 0
M  V30 1510 H 143.075 -0.623616 -3.05806 0
M  V30 1511 N 143.376 1.44774 -0.622745 0
M  V30 1512 C 144.624 2.01721 -0.123655 0
M  V30 1513 C 144.945 1.49172 1.25589 0
M  V30 1514 O 144.215 0.691974 1.83272 0
M  V30 1515 H 142.795 0.745777 -0.0427225 0
M  V30 1516 H 145.457 1.77382 -0.807559 0
M  V30 1517 H 144.553 3.11984 -0.0849534 0
M  V30 1518 N 144.854 0.36279 1.53368 0
M  V30 1519 C 145.804 -0.501391 2.22419 0
M  V30 1520 C 146.788 -1.0509 1.2184 0
M  V30 1521 O 147.98 -0.981404 1.47301 0
M  V30 1522 C 145.109 -1.64201 3.01484 0
M  V30 1523 C 144.195 -1.10552 4.09438 0
M  V30 1524 N 144.586 -0.291788 5.04958 0
M  V30 1525 C 142.884 -1.3806 4.24094 0
M  V30 1526 C 143.585 0.00162655 5.817 0
M  V30 1527 N 142.561 -0.595244 5.40331 0
M  V30 1528 H 146.363 0.127159 2.93625 0
M  V30 1529 H 143.877 0.170658 1.61501 0
M  V30 1530 H 145.874 -2.27326 3.49469 0
M  V30 1531 H 144.534 -2.27365 2.31809 0
M  V30 1532 H 145.545 0.0687731 5.17854 0
M  V30 1533 H 142.222 -2.01522 3.65644 0
M  V30 1534 H 143.612 0.659278 6.68658 0
M  V30 1535 N 146.332 -1.57332 0.0918853 0
M  V30 1536 C 147.578 -1.94524 -0.573425 0
M  V30 1537 C 147.911 -0.973578 -1.68033 0
M  V30 1538 O 147.186 -0.00609226 -1.94499 0
M  V30 1539 C 147.469 -3.41858 -1.13161 0
M  V30 1540 C 147.322 -4.4979 -0.0299747 0
M  V30 1541 C 148.641 -3.90435 -2.03098 0
M  V30 1542 H 145.76 -0.70734 -0.206975 0
M  V30 1543 H 148.402 -1.89309 0.161942 0
M  V30 1544 H 146.552 -3.46433 -1.7583 0
M  V30 1545 H 148.224 -4.57327 0.604112 0
M  V30 1546 H 146.467 -4.291 0.636833 0
M  V30 1547 H 147.138 -5.50069 -0.461287 0
M  V30 1548 H 149.614 -3.87992 -1.50338 0
M  V30 1549 H 148.49 -4.94097 -2.39081 0
M  V30 1550 H 148.751 -3.29541 -2.94712 0
M  V30 1551 N 147.81 0.181792 -1.56548 0
M  V30 1552 C 148.72 1.24538 -1.98815 0
M  V30 1553 C 149.736 1.49045 -0.897861 0
M  V30 1554 O 150.912 1.61399 -1.20467 0
M  V30 1555 C 147.977 2.56683 -2.33055 0
M  V30 1556 C 147.038 2.40131 -3.55859 0
M  V30 1557 C 146.271 3.65975 -3.88456 0
M  V30 1558 O 146.494 4.70711 -3.22161 0
M  V30 1559 O 145.428 3.6071 -4.81842 0
M  V30 1560 H 149.254 0.916647 -2.89536 0
M  V30 1561 H 146.839 0.387842 -1.44278 0
M  V30 1562 H 148.721 3.34655 -2.56094 0
M  V30 1563 H 147.396 2.89157 -1.45498 0
M  V30 1564 H 146.303 1.60226 -3.38051 0
M  V30 1565 H 147.636 2.12585 -4.43924 0
M  V30 1566 N 149.288 1.51039 0.449983 0
M  V30 1567 C 150.251 1.70863 1.5277 0
M  V30 1568 C 151.251 0.578846 1.5002 0
M  V30 1569 O 152.441 0.846213 1.52266 0
M  V30 1570 C 149.573 1.75341 2.9235 0
M  V30 1571 H 150.766 2.67034 1.36502 0
M  V30 1572 H 148.319 1.40838 0.677812 0
M  V30 1573 H 149.054 0.809383 3.14037 0
M  V30 1574 H 148.839 2.57436 2.95752 0
M  V30 1575 H 150.329 1.92559 3.70555 0
M  V30 1576 N 150.766 -0.704594 1.40972 0
M  V30 1577 C 151.991 -1.49858 1.43378 0
M  V30 1578 C 152.416 -1.88061 0.038184 0
M  V30 1579 O 151.774 -1.5402 -0.956425 0
M  V30 1580 C 151.822 -2.74333 2.34038 0
M  V30 1581 O 150.926 -3.7147 1.7912 0
M  V30 1582 H 150.267 -0.45139 0.486974 0
M  V30 1583 H 152.797 -0.866832 1.8533 0
M  V30 1584 H 152.807 -3.22741 2.49604 0
M  V30 1585 H 151.482 -2.45863 3.35446 0
M  V30 1586 H 150.059 -3.30363 1.72958 0
M  V30 1587 N 152.244 -1.26651 -0.937939 0
M  V30 1588 C 153.192 -1.08308 -2.05845 0
M  V30 1589 C 154.186 -0.0090757 -1.69398 0
M  V30 1590 O 155.392 -0.166007 -1.79233 0
M  V30 1591 H 151.767 -0.333416 -0.674046 0
M  V30 1592 H 153.738 -2.03261 -2.18467 0
M  V30 1593 C 152.487 -0.736229 -3.39816 0
M  V30 1594 H 151.81 -1.55453 -3.6834 0
M  V30 1595 H 153.25 -0.64769 -4.19024 0
M  V30 1596 C 151.709 0.558824 -3.32233 0
M  V30 1597 O 152.239 1.59621 -3.68624 0
M  V30 1598 N 150.445 0.550657 -2.85335 0
M  V30 1599 H 149.992 -0.293943 -2.55917 0
M  V30 1600 H 149.95 1.41726 -2.80644 0
M  V30 1601 N 153.722 1.14298 -1.08507 0
M  V30 1602 C 154.632 2.23027 -0.727753 0
M  V30 1603 C 155.648 1.71952 0.26619 0
M  V30 1604 O 156.824 2.011 0.109882 0
M  V30 1605 C 153.889 3.46403 -0.143541 0
M  V30 1606 C 152.95 4.12413 -1.19223 0
M  V30 1607 C 152.183 5.29899 -0.635798 0
M  V30 1608 O 152.406 5.67796 0.544393 0
M  V30 1609 O 151.34 5.85717 -1.38634 0
M  V30 1610 H 155.166 2.55945 -1.63481 0
M  V30 1611 H 152.751 1.22248 -0.858817 0
M  V30 1612 H 154.633 4.21018 0.179404 0
M  V30 1613 H 153.308 3.15206 0.736659 0
M  V30 1614 H 152.215 3.39667 -1.56772 0
M  V30 1615 H 153.548 4.47718 -2.04474 0
M  V30 1616 N 155.201 0.870884 1.31352 0
M  V30 1617 C 156.617 0.562932 1.49343 0
M  V30 1618 C 156.817 -0.902725 1.80148 0
M  V30 1619 O 155.873 -1.68484 1.88067 0
M  V30 1620 C 157.186 1.46393 2.62659 0
M  V30 1621 C 158.734 1.46607 2.76542 0
M  V30 1622 C 159.209 2.35266 3.92955 0
M  V30 1623 N 160.7 2.33151 4.00243 0
M  V30 1624 C 161.435 2.98471 4.89594 0
M  V30 1625 N 160.931 3.72964 5.8384 0
M  V30 1626 N 162.724 2.87775 4.82848 0
M  V30 1627 H 154.875 1.81923 1.09626 0
M  V30 1628 H 157.138 0.777934 0.541777 0
M  V30 1629 H 156.844 2.50689 2.46674 0
M  V30 1630 H 156.718 1.16314 3.58819 0
M  V30 1631 H 159.105 0.43069 2.9194 0
M  V30 1632 H 159.186 1.8071 1.81046 0
M  V30 1633 H 158.83 3.38881 3.78315 0
M  V30 1634 H 158.76 1.98487 4.87761 0
M  V30 1635 H 161.251 1.79006 3.32814 0
M  V30 1636 H 161.564 4.19932 6.4875 0
M  V30 1637 H 159.909 3.77073 5.83816 0
M  V30 1638 H 163.1 2.29116 4.08195 0
M  V30 1639 H 163.273 3.38961 5.52277 0
M  V30 1640 N 156.679 -1.44442 0.630414 0
M  V30 1641 C 157.589 -2.34476 -0.0761693 0
M  V30 1642 C 158.605 -1.52576 -0.836449 0
M  V30 1643 O 159.781 -1.85307 -0.788874 0
M  V30 1644 C 156.846 -3.30545 -1.04599 0
M  V30 1645 C 155.907 -4.28352 -0.28516 0
M  V30 1646 C 155.14 -5.19831 -1.20878 0
M  V30 1647 O 155.363 -5.15223 -2.44747 0
M  V30 1648 O 154.297 -5.97892 -0.693491 0
M  V30 1649 H 158.123 -2.96345 0.664324 0
M  V30 1650 H 155.708 -1.44203 0.39061 0
M  V30 1651 H 157.59 -3.89681 -1.60396 0
M  V30 1652 H 156.265 -2.7121 -1.76711 0
M  V30 1653 H 155.172 -3.72764 0.315837 0
M  V30 1654 H 156.505 -4.90605 0.395924 0
M  V30 1655 N 158.157 -0.370918 -1.53173 0
M  V30 1656 C 159.404 0.217102 -2.01333 0
M  V30 1657 C 159.732 1.48338 -1.25802 0
M  V30 1658 O 158.987 1.92698 -0.34146 0
M  V30 1659 C 159.286 0.549696 -3.53147 0
M  V30 1660 C 158.952 -0.622872 -4.46577 0
M  V30 1661 C 157.614 -0.944595 -4.71838 0
M  V30 1662 C 159.966 -1.40819 -5.01816 0
M  V30 1663 C 157.294 -2.05351 -5.49589 0
M  V30 1664 C 159.646 -2.50757 -5.80778 0
M  V30 1665 C 158.31 -2.83458 -6.04324 0
M  V30 1666 H 157.58 0.0794431 -0.736729 0
M  V30 1667 H 160.227 -0.504481 -1.84736 0
M  V30 1668 H 158.532 1.35237 -3.6772 0
M  V30 1669 H 160.229 1.017 -3.87889 0
M  V30 1670 H 156.819 -0.36209 -4.27068 0
M  V30 1671 H 161.003 -1.17289 -4.82242 0
M  V30 1672 H 156.259 -2.3108 -5.6605 0
M  V30 1673 H 160.433 -3.12022 -6.22588 0
M  V30 1674 H 158.06 -3.69508 -6.64355 0
M  V30 1675 N 159.635 1.57281 -0.100228 0
M  V30 1676 C 160.883 1.94153 0.561157 0
M  V30 1677 C 161.204 0.983157 1.68401 0
M  V30 1678 O 160.474 0.0361132 1.95867 0
M  V30 1679 H 159.054 0.716791 0.210283 0
M  V30 1680 H 161.716 1.94202 -0.164765 0
M  V30 1681 H 160.812 2.96709 0.968008 0
M  V30 1682 N 161.113 -0.173488 1.56642 0
M  V30 1683 C 162.343 -0.904781 1.85734 0
M  V30 1684 C 162.751 -1.76431 0.68328 0
M  V30 1685 O 162.094 -1.802 -0.356865 0
M  V30 1686 C 162.156 -1.83382 3.09211 0
M  V30 1687 C 161.82 -1.15411 4.42187 0
M  V30 1688 C 162.817 -0.520609 5.17287 0
M  V30 1689 C 160.502 -1.15151 4.88923 0
M  V30 1690 C 162.496 0.106412 6.37311 0
M  V30 1691 C 160.183 -0.520664 6.08878 0
M  V30 1692 C 161.181 0.107196 6.82916 0
M  V30 1693 O 160.869 0.728102 8.00596 0
M  V30 1694 H 160.601 -0.268408 0.62043 0
M  V30 1695 H 163.155 -0.179096 2.04618 0
M  V30 1696 H 161.385 -2.59976 2.86268 0
M  V30 1697 H 163.074 -2.43476 3.24768 0
M  V30 1698 H 163.84 -0.514606 4.82262 0
M  V30 1699 H 159.719 -1.62961 4.31236 0
M  V30 1700 H 163.263 0.597081 6.9504 0
M  V30 1701 H 159.16 -0.524242 6.43368 0
M  V30 1702 H 159.928 0.627138 8.16094 0
M  V30 1703 N 162.591 -1.51276 -0.441967 0
M  V30 1704 C 163.554 -1.7167 -1.51862 0
M  V30 1705 C 164.554 -0.586793 -1.49711 0
M  V30 1706 O 165.744 -0.854276 -1.51815 0
M  V30 1707 C 162.876 -1.76889 -2.91416 0
M  V30 1708 H 164.069 -2.67754 -1.35084 0
M  V30 1709 H 161.622 -1.41196 -0.670333 0
M  V30 1710 H 162.357 -0.826026 -3.13604 0
M  V30 1711 H 162.142 -2.59001 -2.94382 0
M  V30 1712 H 163.632 -1.94522 -3.69528 0
M  V30 1713 N 164.069 0.697108 -1.41344 0
M  V30 1714 C 165.001 1.8224 -1.39001 0
M  V30 1715 C 166.014 1.60152 -0.292428 0
M  V30 1716 O 167.203 1.69684 -0.554048 0
M  V30 1717 C 164.303 3.18976 -1.14489 0
M  V30 1718 C 163.476 3.68105 -2.36258 0
M  V30 1719 C 162.535 4.83506 -2.07625 0
M  V30 1720 O 161.561 4.95201 -2.8065 0
M  V30 1721 N 162.763 5.70637 -1.06555 0
M  V30 1722 H 165.528 1.84742 -2.35988 0
M  V30 1723 H 163.089 0.87937 -1.35936 0
M  V30 1724 H 165.081 3.93801 -0.932885 0
M  V30 1725 H 163.651 3.11508 -0.261043 0
M  V30 1726 H 162.871 2.84204 -2.7317 0
M  V30 1727 H 164.159 3.97667 -3.17393 0
M  V30 1728 H 163.557 5.63817 -0.461125 0
M  V30 1729 H 162.114 6.45368 -0.913444 0
M  V30 1730 N 165.547 1.27147 0.931209 0
M  V30 1731 C 166.793 1.13446 1.68101 0
M  V30 1732 C 167.126 -0.319628 1.91552 0
M  V30 1733 O 166.401 -1.23407 1.50336 0
M  V30 1734 C 166.684 1.91482 3.0497 0
M  V30 1735 C 166.537 3.44855 2.88782 0
M  V30 1736 C 167.856 1.71651 4.05246 0
M  V30 1737 H 164.975 0.413498 0.610072 0
M  V30 1738 H 167.617 1.56261 1.08086 0
M  V30 1739 H 165.767 1.55095 3.56199 0
M  V30 1740 H 167.439 3.9105 2.44698 0
M  V30 1741 H 165.682 3.71373 2.24198 0
M  V30 1742 H 166.353 3.94694 3.85902 0
M  V30 1743 H 168.829 2.0337 3.63015 0
M  V30 1744 H 167.705 2.28651 4.99009 0
M  V30 1745 H 167.966 0.663555 4.37092 0
M  V30 1746 N 167.025 -1.13721 1.09112 0
M  V30 1747 C 167.935 -2.22638 0.73957 0
M  V30 1748 C 168.951 -1.72091 -0.257068 0
M  V30 1749 O 170.127 -2.01155 -0.0992154 0
M  V30 1750 C 167.192 -3.46322 0.16191 0
M  V30 1751 C 166.253 -4.11775 1.21408 0
M  V30 1752 C 165.486 -5.29555 0.663891 0
M  V30 1753 O 165.709 -5.68077 -0.514274 0
M  V30 1754 O 164.643 -5.84973 1.41738 0
M  V30 1755 H 168.469 -2.55074 1.64836 0
M  V30 1756 H 166.054 -1.21791 0.865289 0
M  V30 1757 H 167.936 -4.21107 -0.157073 0
M  V30 1758 H 166.611 -3.15593 -0.719932 0
M  V30 1759 H 165.518 -3.3883 1.58571 0
M  V30 1760 H 166.851 -4.46627 2.06845 0
M  V30 1761 N 168.503 -0.877838 -1.30888 0
M  V30 1762 C 169.749 -0.493426 -1.96706 0
M  V30 1763 C 170.082 0.953504 -1.6918 0
M  V30 1764 O 169.357 1.67266 -0.992594 0
M  V30 1765 C 169.64 -0.760429 -3.51979 0
M  V30 1766 C 169.493 -2.25747 -3.89048 0
M  V30 1767 C 170.812 -0.232148 -4.39487 0
M  V30 1768 H 167.931 -0.180746 -0.714493 0
M  V30 1769 H 170.573 -1.10052 -1.54882 0
M  V30 1770 H 168.723 -0.243715 -3.87735 0
M  V30 1771 H 170.395 -2.84204 -3.63354 0
M  V30 1772 H 168.638 -2.72694 -3.37373 0
M  V30 1773 H 169.309 -2.39491 -4.97341 0
M  V30 1774 H 171.785 -0.674314 -4.106 0
M  V30 1775 H 170.661 -0.448355 -5.47066 0
M  V30 1776 H 170.922 0.866297 -4.33529 0
M  V30 1777 N 169.982 1.44106 -0.638065 0
M  V30 1778 C 171.228 2.02277 -0.145546 0
M  V30 1779 C 171.561 1.50125 1.23191 0
M  V30 1780 O 170.836 0.688133 1.8192 0
M  V30 1781 C 171.119 3.59829 -0.139791 0
M  V30 1782 C 170.972 4.22247 -1.55008 0
M  V30 1783 C 172.291 4.36873 0.531966 0
M  V30 1784 H 169.41 0.734992 -0.0543632 0
M  V30 1785 H 172.052 1.71592 -0.815863 0
M  V30 1786 H 170.202 3.86102 0.431007 0
M  V30 1787 H 171.874 4.07057 -2.1703 0
M  V30 1788 H 170.117 3.79476 -2.10191 0
M  V30 1789 H 170.788 5.31284 -1.49804 0
M  V30 1790 H 173.264 4.16074 0.0464781 0
M  V30 1791 H 172.14 5.4657 0.505206 0
M  V30 1792 H 172.401 4.11995 1.60352 0
M  V30 1793 N 171.46 0.379036 1.52974 0
M  V30 1794 C 172.408 -0.476033 2.27677 0
M  V30 1795 C 173.402 -1.0719 1.31174 0
M  V30 1796 O 174.608 -1.01355 1.48752 0
M  V30 1797 H 170.983 -0.172255 0.732006 0
M  V30 1798 H 172.954 0.175615 2.97883 0
M  V30 1799 C 171.703 -1.5967 3.0887 0
M  V30 1800 H 171.026 -1.1475 3.82978 0
M  V30 1801 H 172.466 -2.16943 3.64296 0
M  V30 1802 C 170.925 -2.54682 2.20542 0
M  V30 1803 O 171.455 -3.57836 1.82527 0
M  V30 1804 N 169.661 -2.24183 1.84907 0
M  V30 1805 H 169.208 -1.40333 2.1602 0
M  V30 1806 H 169.166 -2.88006 1.26096 0
M  V30 1807 N 172.938 -1.57226 0.108567 0
M  V30 1808 C 174.215 -1.86333 -0.594939 0
M  V30 1809 C 174.595 -1.00788 -1.85486 0
M  V30 1810 O 173.943 -0.0839293 -2.28346 0
M  V30 1811 C 174.153 -3.37265 -0.897405 0
M  V30 1812 C 175.501 -4.05629 -1.25501 0
M  V30 1813 O 176.525 -3.42224 -0.987998 0
M  V30 1814 O 175.384 -5.17531 -1.75567 0
M  V30 1815 H 172.478 -0.771018 -0.2991 0
M  V30 1816 H 175.024 -1.69102 0.142283 0
M  V30 1817 H 173.796 -3.913 -0.00413806 0
M  V30 1818 H 173.419 -3.59889 -1.69014 0
M  V30 1819 N 174.416 0.165178 -1.56732 0
M  V30 1820 C 175.641 0.900253 -1.86843 0
M  V30 1821 C 176.066 1.74766 -0.695596 0
M  V30 1822 O 175.424 1.77786 0.35522 0
M  V30 1823 C 175.472 1.74777 -3.15413 0
M  V30 1824 O 174.576 2.85007 -2.98068 0
M  V30 1825 H 173.917 0.251832 -0.614391 0
M  V30 1826 H 176.447 0.161468 -2.03962 0
M  V30 1827 H 176.457 2.14646 -3.46974 0
M  V30 1828 H 175.132 1.12537 -4.00385 0
M  V30 1829 H 173.709 2.48676 -2.77875 0
M  V30 1830 N 175.894 1.51508 0.433938 0
M  V30 1831 C 176.857 1.72473 1.50949 0
M  V30 1832 C 177.857 0.594725 1.49398 0
M  V30 1833 O 179.047 0.862315 1.5136 0
M  V30 1834 C 176.179 1.78431 2.90474 0
M  V30 1835 H 177.372 2.68467 1.33662 0
M  V30 1836 H 174.925 1.41549 0.662836 0
M  V30 1837 H 175.66 0.842645 3.13161 0
M  V30 1838 H 175.445 2.60558 2.93005 0
M  V30 1839 H 176.935 1.96479 3.68491 0
M  V30 1840 N 177.372 -0.689602 1.41712 0
M  V30 1841 C 178.302 -1.81577 1.46806 0
M  V30 1842 C 179.283 -1.66945 0.326105 0
M  V30 1843 O 180.468 -1.86588 0.538377 0
M  V30 1844 C 177.598 -3.19762 1.35535 0
M  V30 1845 C 176.552 -3.49107 2.47605 0
M  V30 1846 C 175.878 -4.86711 2.21397 0
M  V30 1847 C 177.178 -3.47483 3.89939 0
M  V30 1848 H 178.872 -1.7757 2.41058 0
M  V30 1849 H 176.418 -0.852887 1.16025 0
M  V30 1850 H 178.371 -3.98263 1.3771 0
M  V30 1851 H 177.095 -3.24409 0.377708 0
M  V30 1852 H 175.754 -2.72959 2.44722 0
M  V30 1853 H 175.402 -4.8799 1.21961 0
M  V30 1854 H 175.102 -5.0731 2.96497 0
M  V30 1855 H 176.626 -5.67515 2.25297 0
M  V30 1856 H 178.04 -4.1598 3.94505 0
M  V30 1857 H 176.437 -3.79615 4.64771 0
M  V30 1858 H 177.507 -2.46341 4.17665 0
M  V30 1859 N 178.85 -1.27639 -0.924453 0
M  V30 1860 C 180.096 -1.14336 -1.67497 0
M  V30 1861 C 180.429 0.309465 -1.91718 0
M  V30 1862 O 179.704 1.22608 -1.50989 0
M  V30 1863 C 179.987 -1.93096 -3.0395 0
M  V30 1864 C 179.84 -3.46381 -2.8695 0
M  V30 1865 C 181.159 -1.73798 -4.0433 0
M  V30 1866 H 178.278 -0.416728 -0.607871 0
M  V30 1867 H 180.92 -1.56832 -1.07256 0
M  V30 1868 H 179.07 -1.56982 -3.55372 0
M  V30 1869 H 180.742 -3.92343 -2.42621 0
M  V30 1870 H 178.985 -3.72557 -2.22225 0
M  V30 1871 H 179.656 -3.96735 -3.83804 0
M  V30 1872 H 182.132 -2.05293 -3.61931 0
M  V30 1873 H 181.008 -2.31294 -4.97789 0
M  V30 1874 H 181.269 -0.686725 -4.36734 0
M  V30 1875 N 180.328 1.1314 -1.09713 0
M  V30 1876 C 181.744 1.36477 -0.827423 0
M  V30 1877 C 181.944 1.93654 0.556817 0
M  V30 1878 O 181 2.15791 1.31112 0
M  V30 1879 C 182.313 2.31334 -1.92106 0
M  V30 1880 C 183.861 2.44943 -1.94864 0
M  V30 1881 C 184.336 3.4311 -3.0338 0
M  V30 1882 N 185.827 3.50662 -3.02639 0
M  V30 1883 C 186.562 4.2651 -3.83246 0
M  V30 1884 N 186.058 5.05485 -4.73768 0
M  V30 1885 N 187.851 4.2184 -3.71493 0
M  V30 1886 H 180.002 0.743807 -1.9895 0
M  V30 1887 H 182.265 0.389823 -0.864143 0
M  V30 1888 H 181.971 1.96483 -2.91698 0
M  V30 1889 H 181.845 3.31381 -1.80184 0
M  V30 1890 H 184.232 2.79079 -0.959099 0
M  V30 1891 H 184.313 1.4481 -2.10864 0
M  V30 1892 H 183.957 3.09704 -4.02549 0
M  V30 1893 H 183.887 4.43055 -2.84622 0
M  V30 1894 H 186.378 2.94315 -2.37039 0
M  V30 1895 H 186.691 5.60675 -5.3185 0
M  V30 1896 H 185.036 5.04708 -4.77802 0
M  V30 1897 H 188.227 3.5922 -3.00131 0
M  V30 1898 H 188.4 4.80697 -4.3455 0
M  V30 1899 N 181.806 0.884767 1.30421 0
M  V30 1900 C 183.054 0.502112 1.95763 0
M  V30 1901 C 183.375 -0.951815 1.70192 0
M  V30 1902 O 182.645 -1.6692 1.0254 0
M  V30 1903 H 181.225 0.182694 0.724315 0
M  V30 1904 H 183.887 1.1278 1.58955 0
M  V30 1905 H 182.983 0.672188 3.04775 0
M  V30 1906 N 183.284 -1.43765 0.645699 0
M  V30 1907 C 184.533 -2.01116 0.153412 0
M  V30 1908 C 184.846 -1.51493 -1.23731 0
M  V30 1909 O 186.052 -2.01067 -1.8244 0
M  V30 1910 C 184.508 -3.59206 0.223473 0
M  V30 1911 C 184.116 -4.17823 1.61642 0
M  V30 1912 C 185.86 -4.23972 -0.211597 0
M  V30 1913 C 183.767 -5.68183 1.64081 0
M  V30 1914 H 182.697 -0.752093 0.0535891 0
M  V30 1915 H 185.348 -1.6482 0.806633 0
M  V30 1916 H 183.73 -3.92867 -0.497118 0
M  V30 1917 H 184.904 -3.95674 2.36176 0
M  V30 1918 H 183.219 -3.65399 1.99681 0
M  V30 1919 H 185.816 -5.34275 -0.213112 0
M  V30 1920 H 186.159 -3.97352 -1.24165 0
M  V30 1921 H 186.692 -3.95166 0.456988 0
M  V30 1922 H 183.431 -5.99559 2.64971 0
M  V30 1923 H 182.951 -5.9241 0.938611 0
M  V30 1924 H 184.63 -6.32085 1.3812 0
M  V30 1925 N 184.763 -0.387143 -1.52771 0
M  V30 1926 C 185.673 0.456442 -2.30117 0
M  V30 1927 C 186.689 1.07342 -1.36944 0
M  V30 1928 O 187.865 1.07971 -1.70013 0
M  V30 1929 C 184.93 1.56957 -3.09136 0
M  V30 1930 C 183.991 0.977916 -4.18014 0
M  V30 1931 C 183.224 2.038 -4.93256 0
M  V30 1932 O 183.447 3.25271 -4.68567 0
M  V30 1933 O 182.381 1.6565 -5.78657 0
M  V30 1934 H 186.207 -0.17359 -3.03203 0
M  V30 1935 H 183.792 -0.150919 -1.48636 0
M  V30 1936 H 185.674 2.21628 -3.58412 0
M  V30 1937 H 184.349 2.18461 -2.38865 0
M  V30 1938 H 183.256 0.294525 -3.72939 0
M  V30 1939 H 184.589 0.407128 -4.90513 0
M  V30 1940 N 186.241 1.57166 -0.116904 0
M  V30 1941 C 187.518 1.86645 0.585049 0
M  V30 1942 C 187.898 1.0177 1.84949 0
M  V30 1943 O 187.246 0.0960379 2.28298 0
M  V30 1944 C 187.456 3.37736 0.879507 0
M  V30 1945 C 188.804 4.06289 1.23348 0
M  V30 1946 O 189.828 3.42743 0.969836 0
M  V30 1947 O 188.687 5.18455 1.7282 0
M  V30 1948 H 185.781 0.772593 0.295007 0
M  V30 1949 H 188.327 1.69025 -0.151249 0
M  V30 1950 H 187.099 3.91296 -0.0166136 0
M  V30 1951 H 186.722 3.6078 1.67103 0
M  V30 1952 N 187.719 -0.156864 1.56817 0
M  V30 1953 C 188.682 -1.17781 1.96622 0
M  V30 1954 C 189.682 -1.36401 0.851555 0
M  V30 1955 O 190.872 -1.33561 1.11836 0
M  V30 1956 C 188.004 -2.54008 2.27361 0
M  V30 1957 H 189.197 -0.836564 2.87996 0
M  V30 1958 H 186.75 -0.39985 1.51099 0
M  V30 1959 H 187.485 -2.9312 1.38748 0
M  V30 1960 H 187.27 -2.41856 3.08623 0
M  V30 1961 H 188.76 -3.27558 2.59029 0
M  V30 1962 N 189.197 -1.51736 -0.425897 0
M  V30 1963 C 190.127 -1.76827 -1.52494 0
M  V30 1964 C 191.108 -0.618524 -1.58456 0
M  V30 1965 O 192.293 -0.862416 -1.74 0
M  V30 1966 C 189.423 -1.90374 -2.90474 0
M  V30 1967 C 188.377 -3.0588 -2.99369 0
M  V30 1968 C 187.703 -3.04625 -4.3944 0
M  V30 1969 C 189.003 -4.45644 -2.72394 0
M  V30 1970 H 190.697 -2.68855 -1.31748 0
M  V30 1971 H 188.243 -1.29372 -0.632362 0
M  V30 1972 H 190.196 -2.0651 -3.6733 0
M  V30 1973 H 188.92 -0.95004 -3.12477 0
M  V30 1974 H 187.579 -2.89467 -2.24954 0
M  V30 1975 H 187.227 -2.0701 -4.58428 0
M  V30 1976 H 186.927 -3.82195 -4.46319 0
M  V30 1977 H 188.451 -3.22869 -5.18255 0
M  V30 1978 H 189.865 -4.62348 -3.38979 0
M  V30 1979 H 188.262 -5.25006 -2.9067 0
M  V30 1980 H 189.332 -4.54893 -1.67929 0
M  V30 1981 N 190.675 0.682077 -1.42076 0
M  V30 1982 C 191.903 1.47057 -1.4554 0
M  V30 1983 C 192.318 1.8869 -0.0645779 0
M  V30 1984 O 191.675 1.57666 0.919115 0
M  V30 1985 C 191.726 2.72442 -2.37609 0
M  V30 1986 O 191.447 2.32559 -3.71279 0
M  V30 1987 C 192.948 3.66069 -2.50017 0
M  V30 1988 H 190.168 0.452737 -0.495248 0
M  V30 1989 H 192.712 0.838695 -1.8651 0
M  V30 1990 H 190.867 3.31835 -1.9991 0
M  V30 1991 H 191.281 3.13475 -4.20516 0
M  V30 1992 H 192.755 4.50792 -3.18576 0
M  V30 1993 H 193.232 4.11476 -1.53572 0
M  V30 1994 H 193.838 3.12572 -2.88407 0
M  V30 1995 N 192.153 1.28127 0.917671 0
M  V30 1996 C 193.116 1.11744 2.00115 0
M  V30 1997 C 194.116 0.0583052 1.60694 0
M  V30 1998 O 195.306 0.303755 1.71531 0
M  V30 1999 C 192.438 0.704862 3.33533 0
M  V30 2000 H 193.631 2.07966 2.16079 0
M  V30 2001 H 191.184 1.11058 1.09981 0
M  V30 2002 H 191.919 -0.258299 3.2327 0
M  V30 2003 H 191.704 1.4699 3.63505 0
M  V30 2004 H 193.194 0.612768 4.1308 0
M  V30 2005 N 193.631 -1.12557 1.10312 0
M  V30 2006 C 194.908 -1.80363 0.756878 0
M  V30 2007 C 195.288 -1.97067 -0.756824 0
M  V30 2008 O 194.636 -1.54601 -1.68259 0
M  V30 2009 C 194.846 -3.14812 1.50647 0
M  V30 2010 C 196.194 -3.90029 1.67817 0
M  V30 2011 O 197.218 -3.24464 1.46974 0
M  V30 2012 O 196.077 -5.07652 2.02365 0
M  V30 2013 H 193.171 -0.780667 0.272926 0
M  V30 2014 H 195.717 -1.19404 1.20586 0
M  V30 2015 H 194.489 -2.97936 2.53672 0
M  V30 2016 H 194.112 -3.83478 1.05026 0
M  V30 2017 N 195.109 -0.891671 -1.2995 0
M  V30 2018 C 196.357 -0.512486 -1.95494 0
M  V30 2019 C 196.678 0.942776 -1.70695 0
M  V30 2020 O 195.948 1.66374 -1.03424 0
M  V30 2021 H 194.528 -0.186533 -0.723336 0
M  V30 2022 H 197.19 -1.13621 -1.58355 0
M  V30 2023 H 196.286 -0.688342 -3.04415 0
M  V30 2024 N 196.587 1.43421 -0.653314 0
M  V30 2025 C 197.534 2.30768 0.0382271 0
M  V30 2026 C 198.504 1.44755 0.814576 0
M  V30 2027 O 199.689 1.73624 0.791162 0
M  V30 2028 C 196.829 3.30336 0.998599 0
M  V30 2029 C 195.942 4.31448 0.218342 0
M  V30 2030 C 195.077 5.18098 1.17252 0
M  V30 2031 C 194.116 6.10902 0.382702 0
M  V30 2032 N 193.253 6.90176 1.28848 0
M  V30 2033 H 198.093 2.89357 -0.712511 0
M  V30 2034 H 195.63 1.42548 -0.363128 0
M  V30 2035 H 197.588 3.86572 1.56901 0
M  V30 2036 H 196.218 2.73397 1.71621 0
M  V30 2037 H 195.27 3.77506 -0.46836 0
M  V30 2038 H 196.582 4.97227 -0.395812 0
M  V30 2039 H 195.736 5.7896 1.81356 0
M  V30 2040 H 194.475 4.52444 1.82058 0
M  V30 2041 H 193.48 5.49128 -0.27169 0
M  V30 2042 H 194.705 6.78598 -0.260957 0
M  V30 2043 H 192.651 6.27171 1.92334 0
M  V30 2044 H 192.568 7.52478 0.728887 0
M  V30 2045 H 193.836 7.55543 1.91766 0
M  V30 2046 N 198.065 0.39524 1.52563 0
M  V30 2047 C 199.476 -0.0774719 1.86539 0
M  V30 2048 C 199.827 -1.45641 1.31466 0
M  V30 2049 O 198.952 -2.06459 0.648367 0
M  V30 2050 C 199.547 -0.147356 3.38479 0
M  V30 2051 C 198.106 -0.564373 3.72145 0
M  V30 2052 C 197.253 0.269919 2.75983 0
M  V30 2053 H 200.204 0.612876 1.46388 0
M  V30 2054 H 200.225 -0.965343 3.68051 0
M  V30 2055 H 199.737 0.856387 3.78534 0
M  V30 2056 H 197.838 -1.57527 3.37663 0
M  V30 2057 H 197.951 -0.318402 4.78041 0
M  V30 2058 H 196.315 -0.265696 2.5331 0
M  V30 2059 H 197.098 1.27175 3.18875 0
M  V30 2060 N 199.544 -1.57102 0.125237 0
M  V30 2061 C 200.474 -2.18659 -0.819174 0
M  V30 2062 C 201.455 -1.12843 -1.27281 0
M  V30 2063 O 202.64 -1.41104 -1.33429 0
M  V30 2064 C 199.77 -2.79096 -2.06695 0
M  V30 2065 C 198.724 -3.90548 -1.75088 0
M  V30 2066 C 198.05 -4.37821 -3.06948 0
M  V30 2067 C 199.35 -5.12356 -1.01435 0
M  V30 2068 H 201.044 -2.9783 -0.306202 0
M  V30 2069 H 198.59 -1.4326 -0.145839 0
M  V30 2070 H 200.543 -3.2082 -2.73226 0
M  V30 2071 H 199.267 -1.97223 -2.60328 0
M  V30 2072 H 197.926 -3.49409 -1.10944 0
M  V30 2073 H 197.574 -3.52799 -3.58527 0
M  V30 2074 H 197.274 -5.12982 -2.86571 0
M  V30 2075 H 198.798 -4.822 -3.74587 0
M  V30 2076 H 200.212 -5.5106 -1.58132 0
M  V30 2077 H 198.609 -5.9314 -0.911319 0
M  V30 2078 H 199.679 -4.849 -0.00218681 0
M  V30 2079 N 201.022 0.148545 -1.56898 0
M  V30 2080 C 201.952 1.18524 -2.01182 0
M  V30 2081 C 202.933 1.4489 -0.891123 0
M  V30 2082 O 204.118 1.55836 -1.15882 0
M  V30 2083 C 201.248 2.51879 -2.39112 0
M  V30 2084 C 200.202 2.40038 -3.54353 0
M  V30 2085 C 199.528 3.78089 -3.78091 0
M  V30 2086 C 200.828 1.88577 -4.87069 0
M  V30 2087 H 202.522 0.817029 -2.88036 0
M  V30 2088 H 200.068 0.391575 -1.38574 0
M  V30 2089 H 202.021 3.24627 -2.68692 0
M  V30 2090 H 200.745 2.90532 -1.49193 0
M  V30 2091 H 199.404 1.69742 -3.24936 0
M  V30 2092 H 199.052 4.14175 -2.85426 0
M  V30 2093 H 198.752 3.71028 -4.55645 0
M  V30 2094 H 200.276 4.52387 -4.10095 0
M  V30 2095 H 201.69 2.51117 -5.15377 0
M  V30 2096 H 200.087 1.9241 -5.68417 0
M  V30 2097 H 201.157 0.84136 -4.77545 0
M  V30 2098 N 202.5 1.5196 0.417844 0
M  V30 2099 C 203.777 1.56146 1.17803 0
M  V30 2100 C 204.157 0.337275 2.08388 0
M  V30 2101 O 203.505 -0.676447 2.18258 0
M  V30 2102 C 203.715 2.88566 1.96293 0
M  V30 2103 C 205.063 3.41244 2.52662 0
M  V30 2104 O 206.087 2.90247 2.06483 0
M  V30 2105 O 204.946 4.30273 3.36938 0
M  V30 2106 H 202.04 0.628598 0.537395 0
M  V30 2107 H 204.586 1.64283 0.425331 0
M  V30 2108 H 203.358 3.69116 1.2988 0
M  V30 2109 H 202.981 2.83681 2.78587 0
M  V30 2110 N 203.978 -0.674533 1.42435 0
M  V30 2111 C 205.224 -1.43671 1.43131 0
M  V30 2112 C 205.557 -1.94142 0.0476021 0
M  V30 2113 O 204.832 -1.70924 -0.928188 0
M  V30 2114 C 205.115 -2.63355 2.45594 0
M  V30 2115 C 204.968 -2.18514 3.93156 0
M  V30 2116 C 206.287 -3.65571 2.45043 0
M  V30 2117 H 203.406 -0.521077 0.521198 0
M  V30 2118 H 206.048 -0.766551 1.7385 0
M  V30 2119 H 204.198 -3.2053 2.19528 0
M  V30 2120 H 205.87 -1.66504 4.30202 0
M  V30 2121 H 204.113 -1.50086 4.07009 0
M  V30 2122 H 204.784 -3.04484 4.60428 0
M  V30 2123 H 207.26 -3.18113 2.68223 0
M  V30 2124 H 206.136 -4.46893 3.18713 0
M  V30 2125 H 206.397 -4.16716 1.47649 0
M  V30 2126 N 205.456 -1.28612 -0.910864 0
M  V30 2127 C 206.702 -1.17116 -1.66299 0
M  V30 2128 C 207.057 0.276917 -1.90397 0
M  V30 2129 O 206.35 1.19795 -1.49532 0
M  V30 2130 C 206.544 -1.90624 -3.0232 0
M  V30 2131 C 206.373 -3.42431 -2.91498 0
M  V30 2132 C 205.143 -4.11773 -2.92867 0
M  V30 2133 C 207.341 -4.38124 -2.69355 0
M  V30 2134 N 205.323 -5.50025 -2.72664 0
M  V30 2135 C 206.694 -5.63759 -2.58023 0
M  V30 2136 C 208.749 -4.28016 -2.54375 0
M  V30 2137 C 207.452 -6.80436 -2.33238 0
M  V30 2138 C 209.478 -5.44433 -2.30969 0
M  V30 2139 C 208.84 -6.69034 -2.20394 0
M  V30 2140 H 204.939 -0.483506 -0.61461 0
M  V30 2141 H 207.523 -1.62299 -1.0755 0
M  V30 2142 H 205.694 -1.4787 -3.5915 0
M  V30 2143 H 207.426 -1.71488 -3.66571 0
M  V30 2144 H 204.181 -3.63378 -3.03732 0
M  V30 2145 H 204.605 -6.22705 -2.65646 0
M  V30 2146 H 209.247 -3.32388 -2.613 0
M  V30 2147 H 206.965 -7.7613 -2.25051 0
M  V30 2148 H 210.551 -5.38504 -2.20238 0
M  V30 2149 H 209.431 -7.57595 -2.02531 0
M  V30 2150 N 206.934 1.1197 -1.10907 0
M  V30 2151 C 207.867 2.16998 -0.706192 0
M  V30 2152 C 208.845 1.59903 0.294897 0
M  V30 2153 O 210.029 1.87513 0.192636 0
M  V30 2154 C 207.156 3.38673 -0.0427664 0
M  V30 2155 C 206.202 4.14414 -1.00811 0
M  V30 2156 S 207.035 4.72079 -2.52789 0
M  V30 2157 C 208.191 5.97083 -1.87731 0
M  V30 2158 H 208.424 2.50837 -1.59587 0
M  V30 2159 H 205.957 1.23508 -0.926555 0
M  V30 2160 H 207.915 4.09142 0.333668 0
M  V30 2161 H 206.576 3.03105 0.823788 0
M  V30 2162 H 205.769 5.016 -0.491259 0
M  V30 2163 H 205.371 3.49678 -1.3267 0
M  V30 2164 H 207.663 6.66599 -1.21044 0
M  V30 2165 H 208.606 6.53403 -2.72892 0
M  V30 2166 H 209.014 5.4837 -1.33979 0
M  V30 2167 N 208.412 0.89855 1.29475 0
M  V30 2168 C 209.637 0.538561 2.00285 0
M  V30 2169 C 210.062 -0.869135 1.66816 0
M  V30 2170 O 209.42 -1.57831 0.892145 0
M  V30 2171 C 209.468 0.736475 3.52999 0
M  V30 2172 O 208.572 -0.211537 4.11857 0
M  V30 2173 H 207.913 0.210563 0.62973 0
M  V30 2174 H 210.443 1.20982 1.64998 0
M  V30 2175 H 210.453 0.640685 4.02938 0
M  V30 2176 H 209.128 1.76276 3.76696 0
M  V30 2177 H 207.705 -0.0682991 3.72837 0
M  V30 2178 N 209.89 -1.43072 0.660911 0
M  V30 2179 C 210.84 -2.27948 -0.04847 0
M  V30 2180 C 211.824 -1.40325 -0.787246 0
M  V30 2181 O 213.016 -1.63893 -0.668446 0
M  V30 2182 C 210.145 -3.28143 -1.00881 0
M  V30 2183 C 209.231 -4.23252 -0.268108 0
M  V30 2184 N 209.622 -5.00656 0.719528 0
M  V30 2185 C 207.92 -4.43092 -0.508493 0
M  V30 2186 C 208.621 -5.70019 1.15988 0
M  V30 2187 N 207.597 -5.41364 0.492584 0
M  V30 2188 H 211.399 -2.85213 0.709279 0
M  V30 2189 H 208.913 -1.54869 0.488822 0
M  V30 2190 H 210.91 -3.87736 -1.53188 0
M  V30 2191 H 209.57 -2.7244 -1.76654 0
M  V30 2192 H 210.581 -5.06115 1.09855 0
M  V30 2193 H 207.258 -3.98449 -1.24679 0
M  V30 2194 H 208.648 -6.4214 1.97751 0
M  V30 2195 N 211.368 -0.403325 -1.52352 0
M  V30 2196 C 212.616 0.174003 -2.0135 0
M  V30 2197 C 212.937 1.46139 -1.29106 0
M  V30 2198 O 212.207 1.91448 -0.415253 0
M  V30 2199 H 210.787 0.0672911 -0.743963 0
M  V30 2200 H 213.449 -0.538235 -1.87321 0
M  V30 2201 H 212.545 0.374254 -3.09848 0
M  V30 2202 N 212.846 1.57033 -0.133567 0
M  V30 2203 C 214.123 1.87256 0.56522 0
M  V30 2204 C 214.503 1.03726 1.83859 0
M  V30 2205 O 213.851 0.120247 2.28183 0
M  V30 2206 C 214.061 3.3865 0.843636 0
M  V30 2207 C 215.409 4.07574 1.19032 0
M  V30 2208 O 216.433 3.43752 0.933429 0
M  V30 2209 O 215.292 5.20259 1.67312 0
M  V30 2210 H 212.386 0.775678 0.286796 0
M  V30 2211 H 214.932 1.68855 -0.169168 0
M  V30 2212 H 213.704 3.91257 -0.0581149 0
M  V30 2213 H 213.327 3.62532 1.63268 0
M  V30 2214 N 214.325 -0.140222 1.56975 0
M  V30 2215 C 215.272 -1.17292 1.98774 0
M  V30 2216 C 216.242 -1.4232 0.856408 0
M  V30 2217 O 217.427 -1.54541 1.119 0
M  V30 2218 C 214.567 -2.49973 2.37923 0
M  V30 2219 C 213.68 -2.32062 3.64378 0
M  V30 2220 C 212.815 -3.57825 3.926 0
M  V30 2221 C 211.854 -3.3498 5.12303 0
M  V30 2222 N 210.991 -4.52891 5.36502 0
M  V30 2223 H 215.831 -0.809472 2.86795 0
M  V30 2224 H 213.368 -0.388237 1.41884 0
M  V30 2225 H 215.326 -3.27346 2.58652 0
M  V30 2226 H 213.956 -2.84252 1.52972 0
M  V30 2227 H 213.008 -1.45711 3.51387 0
M  V30 2228 H 214.32 -2.11145 4.51906 0
M  V30 2229 H 213.474 -4.43624 4.13863 0
M  V30 2230 H 212.213 -3.81753 3.03506 0
M  V30 2231 H 211.218 -2.4757 4.90906 0
M  V30 2232 H 212.443 -3.12444 6.02956 0
M  V30 2233 H 210.389 -4.76979 4.50363 0
M  V30 2234 H 210.306 -4.35001 6.18312 0
M  V30 2235 H 211.574 -5.39884 5.62268 0
M  V30 2236 N 215.803 -1.52179 -0.40978 0
M  V30 2237 C 217.049 -1.66453 -1.15851 0
M  V30 2238 C 217.382 -0.392972 -1.90182 0
M  V30 2239 O 216.657 0.608579 -1.84734 0
M  V30 2240 C 216.94 -2.88612 -2.15349 0
M  V30 2241 C 216.793 -4.25815 -1.44918 0
M  V30 2242 C 218.112 -3.06294 -3.16026 0
M  V30 2243 H 215.231 -0.60575 -0.419805 0
M  V30 2244 H 217.873 -1.84732 -0.444314 0
M  V30 2245 H 216.023 -2.73158 -2.76255 0
M  V30 2246 H 217.695 -4.52995 -0.871365 0
M  V30 2247 H 215.938 -4.27247 -0.751159 0
M  V30 2248 H 216.609 -5.07337 -2.17516 0
M  V30 2249 H 219.085 -3.20641 -2.65195 0
M  V30 2250 H 217.961 -3.93283 -3.8291 0
M  V30 2251 H 218.222 -2.19579 -3.83715 0
M  V30 2252 N 217.281 0.66697 -1.42791 0
M  V30 2253 C 218.509 1.45505 -1.47091 0
M  V30 2254 C 218.924 1.8861 -0.0845873 0
M  V30 2255 O 218.281 1.58632 0.90234 0
M  V30 2256 C 218.332 2.69906 -2.40485 0
M  V30 2257 O 218.053 2.28608 -3.73725 0
M  V30 2258 C 219.554 3.63396 -2.53886 0
M  V30 2259 H 216.774 0.447459 -0.500022 0
M  V30 2260 H 219.318 0.818866 -1.8739 0
M  V30 2261 H 217.473 3.29696 -2.03419 0
M  V30 2262 H 217.887 3.08997 -4.23817 0
M  V30 2263 H 219.361 4.47387 -3.2334 0
M  V30 2264 H 219.838 4.09824 -1.57927 0
M  V30 2265 H 220.444 3.09495 -2.91706 0
M  V30 2266 N 218.759 1.29093 0.90403 0
M  V30 2267 C 219.722 1.1386 1.98919 0
M  V30 2268 C 220.722 0.0753457 1.60623 0
M  V30 2269 O 221.912 0.321931 1.71199 0
M  V30 2270 C 219.044 0.740198 3.32767 0
M  V30 2271 H 220.237 2.10246 2.13861 0
M  V30 2272 H 217.79 1.12218 1.08797 0
M  V30 2273 H 218.525 -0.223997 3.23525 0
M  V30 2274 H 218.31 1.50838 3.61926 0
M  V30 2275 H 219.8 0.656546 4.12407 0
M  V30 2276 N 220.237 -1.11381 1.11499 0
M  V30 2277 C 221.486 -1.82494 0.858993 0
M  V30 2278 C 221.799 -1.85605 -0.617278 0
M  V30 2279 O 223.005 -2.52824 -0.989552 0
M  V30 2280 C 221.461 -3.27745 1.48699 0
M  V30 2281 C 221.069 -3.32961 2.99735 0
M  V30 2282 C 222.813 -4.03754 1.31085 0
M  V30 2283 C 220.72 -4.72612 3.55516 0
M  V30 2284 H 219.65 -0.683802 0.317696 0
M  V30 2285 H 222.301 -1.25331 1.34031 0
M  V30 2286 H 220.683 -3.84844 0.933339 0
M  V30 2287 H 221.857 -2.85741 3.61509 0
M  V30 2288 H 220.172 -2.70433 3.16631 0
M  V30 2289 H 222.769 -5.06891 1.70192 0
M  V30 2290 H 223.112 -4.15527 0.253496 0
M  V30 2291 H 223.645 -3.53043 1.83318 0
M  V30 2292 H 220.384 -4.66036 4.60967 0
M  V30 2293 H 219.904 -5.2024 2.98513 0
M  V30 2294 H 221.583 -5.4157 3.53992 0
M  V30 2295 N 221.715 -0.905404 -1.28997 0
M  V30 2296 C 223.126 -0.581953 -1.77398 0
M  V30 2297 C 223.477 0.902552 -1.74208 0
M  V30 2298 O 222.602 1.70584 -1.33154 0
M  V30 2299 C 223.197 -1.04961 -3.22131 0
M  V30 2300 C 221.756 -0.777229 -3.68288 0
M  V30 2301 C 220.903 -1.22109 -2.48967 0
M  V30 2302 H 223.854 -1.08754 -1.15578 0
M  V30 2303 H 223.875 -0.387387 -3.78523 0
M  V30 2304 H 223.387 -2.13008 -3.24421 0
M  V30 2305 H 221.488 0.290383 -3.71467 0
M  V30 2306 H 221.601 -1.37911 -4.58822 0
M  V30 2307 H 219.965 -0.639971 -2.46529 0
M  V30 2308 H 220.748 -2.30972 -2.53982 0
M  V30 2309 N 223.193 1.4272 -0.668489 0
M  V30 2310 C 224.418 2.06484 -0.194758 0
M  V30 2311 C 224.843 1.49862 1.13679 0
M  V30 2312 O 224.201 0.614582 1.70565 0
M  V30 2313 C 224.249 3.60353 -0.133546 0
M  V30 2314 O 223.353 4.02464 0.899806 0
M  V30 2315 H 222.694 0.656137 -0.10188 0
M  V30 2316 H 225.224 1.82964 -0.915722 0
M  V30 2317 H 225.234 4.07976 0.0447041 0
M  V30 2318 H 223.909 4.00938 -1.1055 0
M  V30 2319 H 222.486 3.66402 0.693109 0
M  V30 2320 N 224.671 0.411399 1.52136 0
M  V30 2321 C 225.948 -0.222308 1.94333 0
M  V30 2322 C 226.328 -1.6242 1.34844 0
M  V30 2323 O 225.676 -2.22384 0.525145 0
M  V30 2324 C 225.886 -0.226345 3.48265 0
M  V30 2325 C 227.234 -0.444592 4.22266 0
M  V30 2326 O 228.258 -0.305602 3.54887 0
M  V30 2327 O 227.117 -0.718749 5.41753 0
M  V30 2328 H 224.211 -0.143907 0.814383 0
M  V30 2329 H 226.757 0.467506 1.63133 0
M  V30 2330 H 225.529 0.75475 3.83952 0
M  V30 2331 H 225.152 -0.960163 3.85832 0
M  V30 2332 N 226.149 -1.5696 0.141893 0
M  V30 2333 C 227.396 -1.9596 -0.510492 0
M  V30 2334 C 227.724 -1.02648 -1.65208 0
M  V30 2335 O 226.979 -0.0546947 -1.95624 0
M  V30 2336 C 227.278 -3.41242 -1.06249 0
M  V30 2337 C 226.944 -4.50882 -0.0398791 0
M  V30 2338 C 225.606 -4.80595 0.241247 0
M  V30 2339 C 227.958 -5.17058 0.65578 0
M  V30 2340 C 225.286 -5.73792 1.22393 0
M  V30 2341 C 227.638 -6.11313 1.62724 0
M  V30 2342 C 226.302 -6.39407 1.91612 0
M  V30 2343 H 225.572 -0.717068 -0.186802 0
M  V30 2344 H 228.219 -1.90142 0.227643 0
M  V30 2345 H 226.524 -3.43866 -1.87785 0
M  V30 2346 H 228.221 -3.68742 -1.57576 0
M  V30 2347 H 224.811 -4.27754 -0.269174 0
M  V30 2348 H 228.995 -4.94239 0.451779 0
M  V30 2349 H 224.251 -5.93853 1.45424 0
M  V30 2350 H 228.425 -6.61668 2.17183 0
M  V30 2351 H 226.052 -7.11427 2.6791 0
M  V30 2352 N 227.627 0.131896 -1.57047 0
M  V30 2353 C 228.876 0.84044 -1.83356 0
M  V30 2354 C 229.189 1.81646 -0.725535 0
M  V30 2355 O 230.395 2.57025 -0.874659 0
M  V30 2356 C 228.851 1.54528 -3.25037 0
M  V30 2357 C 228.459 0.610902 -4.43815 0
M  V30 2358 C 230.203 2.23972 -3.60606 0
M  V30 2359 C 228.11 1.31823 -5.76521 0
M  V30 2360 H 227.04 0.317599 -0.683847 0
M  V30 2361 H 229.691 0.0931561 -1.83263 0
M  V30 2362 H 228.073 2.33873 -3.19561 0
M  V30 2363 H 229.247 -0.148407 -4.60561 0
M  V30 2364 H 227.562 0.0241016 -4.16393 0
M  V30 2365 H 230.159 2.77558 -4.57018 0
M  V30 2366 H 230.502 3.01173 -2.87403 0
M  V30 2367 H 231.035 1.51529 -3.6781 0
M  V30 2368 H 227.774 0.587771 -6.52859 0
M  V30 2369 H 227.294 2.04987 -5.63685 0
M  V30 2370 H 228.973 1.855 -6.19838 0
M  V30 2371 N 229.106 1.52395 0.401703 0
M  V30 2372 C 230.334 1.70676 1.16949 0
M  V30 2373 C 230.749 0.419503 1.8408 0
M  V30 2374 O 230.106 -0.605061 1.72178 0
M  V30 2375 C 230.157 2.84753 2.22706 0
M  V30 2376 O 229.878 4.08495 1.58314 0
M  V30 2377 C 231.379 3.14608 3.12309 0
M  V30 2378 H 228.599 0.571787 0.351142 0
M  V30 2379 H 231.143 1.98987 0.471652 0
M  V30 2380 H 229.298 2.58941 2.88147 0
M  V30 2381 H 229.712 4.72117 2.28485 0
M  V30 2382 H 231.186 3.97923 3.82572 0
M  V30 2383 H 231.663 2.28464 3.75101 0
M  V30 2384 H 232.269 3.42212 2.52529 0
M  V30 2385 N 230.584 -0.659388 1.43143 0
M  V30 2386 C 231.83 -1.42145 1.44647 0
M  V30 2387 C 232.163 -1.9408 0.0681907 0
M  V30 2388 O 231.438 -1.71899 -0.910007 0
M  V30 2389 C 231.721 -2.60735 2.48373 0
M  V30 2390 C 231.574 -2.14332 3.95451 0
M  V30 2391 C 232.893 -3.62951 2.48906 0
M  V30 2392 H 230.012 -0.51552 0.526696 0
M  V30 2393 H 232.654 -0.748069 1.74654 0
M  V30 2394 H 230.804 -3.18184 2.22916 0
M  V30 2395 H 232.476 -1.61932 4.31944 0
M  V30 2396 H 230.719 -1.4576 4.08578 0
M  V30 2397 H 231.39 -2.99583 4.63631 0
M  V30 2398 H 233.866 -3.1525 2.71582 0
M  V30 2399 H 232.742 -4.43487 3.23435 0
M  V30 2400 H 233.003 -4.15126 1.52061 0
M  V30 2401 N 232.062 -1.29571 -0.897171 0
M  V30 2402 C 233.025 -1.14913 -1.98312 0
M  V30 2403 C 234.025 -0.0838629 -1.60581 0
M  V30 2404 O 235.215 -0.331006 -1.71026 0
M  V30 2405 C 232.347 -0.757835 -3.3237 0
M  V30 2406 H 233.54 -2.11377 -2.12743 0
M  V30 2407 H 231.093 -1.12793 -1.08201 0
M  V30 2408 H 231.828 0.206837 -3.2364 0
M  V30 2409 H 231.613 -1.52755 -3.61121 0
M  V30 2410 H 233.103 -0.678408 -4.12053 0
M  V30 2411 N 233.54 1.10788 -1.12088 0
M  V30 2412 C 234.765 1.87002 -0.896949 0
M  V30 2413 C 235.19 1.79933 0.548261 0
M  V30 2414 O 234.548 1.16662 1.38779 0
M  V30 2415 C 234.596 3.3349 -1.37174 0
M  V30 2416 O 233.7 4.08745 -0.547831 0
M  V30 2417 H 233.041 0.580397 -0.322545 0
M  V30 2418 H 235.571 1.39996 -1.49206 0
M  V30 2419 H 235.581 3.84339 -1.36922 0
M  V30 2420 H 234.256 3.37951 -2.42408 0
M  V30 2421 H 232.833 3.6776 -0.617034 0
M  V30 2422 N 235.018 0.912232 1.28515 0
M  V30 2423 C 236.246 0.560416 1.99166 0
M  V30 2424 C 236.661 -0.857927 1.68182 0
M  V30 2425 O 236.018 -1.56805 0.933733 0
M  V30 2426 C 236.069 0.758142 3.53461 0
M  V30 2427 O 235.79 2.12067 3.83352 0
M  V30 2428 C 237.291 0.412954 4.41372 0
M  V30 2429 H 234.511 0.213805 0.636026 0
M  V30 2430 H 237.055 1.22502 1.63749 0
M  V30 2431 H 235.21 0.140556 3.87145 0
M  V30 2432 H 235.624 2.15923 4.77993 0
M  V30 2433 H 237.098 0.60208 5.48707 0
M  V30 2434 H 237.575 -0.65073 4.34353 0
M  V30 2435 H 238.181 1.00802 4.13182 0
M  V30 2436 N 236.496 -1.42363 0.676048 0
M  V30 2437 C 237.406 -2.346 -0.00153389 0
M  V30 2438 C 238.422 -1.5516 -0.787485 0
M  V30 2439 O 239.598 -1.87723 -0.729521 0
M  V30 2440 C 236.663 -3.33705 -0.940298 0
M  V30 2441 C 235.724 -4.29042 -0.148739 0
M  V30 2442 C 234.957 -5.23413 -1.04279 0
M  V30 2443 O 235.18 -5.22749 -2.28232 0
M  V30 2444 O 234.114 -5.99795 -0.502925 0
M  V30 2445 H 237.94 -2.94082 0.758268 0
M  V30 2446 H 235.525 -1.42888 0.436289 0
M  V30 2447 H 237.407 -3.94586 -1.47917 0
M  V30 2448 H 236.082 -2.76695 -1.67993 0
M  V30 2449 H 234.989 -3.71571 0.43427 0
M  V30 2450 H 236.322 -4.89097 0.551805 0
M  V30 2451 N 237.974 -0.419461 -1.51915 0
M  V30 2452 C 239.199 0.154572 -2.06823 0
M  V30 2453 C 239.624 1.3722 -1.28656 0
M  V30 2454 O 238.982 1.78461 -0.319583 0
M  V30 2455 C 239.03 0.473172 -3.57482 0
M  V30 2456 O 238.134 1.56255 -3.81652 0
M  V30 2457 H 237.475 0.0096924 -0.663929 0
M  V30 2458 H 240.005 -0.595642 -1.95738 0
M  V30 2459 H 240.015 0.728825 -4.01438 0
M  V30 2460 H 238.69 -0.416873 -4.13805 0
M  V30 2461 H 237.267 1.29825 -3.49571 0
M  V30 2462 N 239.452 1.56882 -0.150215 0
M  V30 2463 C 240.692 1.98119 0.502804 0
M  V30 2464 C 241.056 1.03327 1.61826 0
M  V30 2465 O 242.257 1.33621 2.33236 0
M  V30 2466 C 240.528 3.43329 0.992988 0
M  V30 2467 S 242.087 4.0659 1.65015 0
M  V30 2468 H 238.905 0.692189 0.162467 0
M  V30 2469 H 241.507 1.93988 -0.242689 0
M  V30 2470 H 240.211 4.10046 0.170436 0
M  V30 2471 H 239.742 3.5118 1.77303 0
M  V30 2472 H 241.757 3.99906 2.93752 0
M  V30 2473 N 240.93 -0.123565 1.57115 0
M  V30 2474 C 242.341 -0.681198 1.73829 0
M  V30 2475 C 242.692 -1.80535 0.768214 0
M  V30 2476 O 241.817 -2.16317 -0.0599103 0
M  V30 2477 C 242.412 -1.24246 3.15196 0
M  V30 2478 C 240.971 -1.74643 3.33432 0
M  V30 2479 C 240.118 -0.644284 2.69711 0
M  V30 2480 H 243.069 0.102315 1.5837 0
M  V30 2481 H 243.09 -2.11216 3.16493 0
M  V30 2482 H 242.602 -0.424062 3.85776 0
M  V30 2483 H 240.703 -2.58974 2.67886 0
M  V30 2484 H 240.816 -1.85902 4.41562 0
M  V30 2485 H 239.18 -1.07676 2.3082 0
M  V30 2486 H 239.963 0.163058 3.42913 0
M  V30 2487 N 242.408 -1.52605 -0.393616 0
M  V30 2488 C 243.655 -1.67424 -1.1391 0
M  V30 2489 C 243.983 -0.411859 -1.90089 0
M  V30 2490 O 243.238 0.605626 -1.86093 0
M  V30 2491 C 243.537 -2.85721 -2.14705 0
M  V30 2492 C 243.203 -4.23342 -1.55218 0
M  V30 2493 C 241.865 -4.60771 -1.3872 0
M  V30 2494 C 244.217 -5.09041 -1.11924 0
M  V30 2495 C 241.545 -5.81563 -0.774689 0
M  V30 2496 C 243.897 -6.30452 -0.520853 0
M  V30 2497 C 242.561 -6.66617 -0.343134 0
M  V30 2498 H 241.831 -0.612648 -0.416826 0
M  V30 2499 H 244.478 -1.8674 -0.424315 0
M  V30 2500 H 242.783 -2.60803 -2.92385 0
M  V30 2501 H 244.48 -2.94382 -2.72288 0
M  V30 2502 H 241.07 -3.93855 -1.69045 0
M  V30 2503 H 245.254 -4.80695 -1.23473 0
M  V30 2504 H 240.51 -6.08196 -0.625154 0
M  V30 2505 H 244.684 -6.96175 -0.177065 0
M  V30 2506 H 242.311 -7.60083 0.133571 0
M  V30 2507 N 243.887 0.651787 -1.4349 0
M  V30 2508 C 244.85 1.74647 -1.48429 0
M  V30 2509 C 245.85 1.56513 -0.368817 0
M  V30 2510 O 247.04 1.62385 -0.630623 0
M  V30 2511 C 244.172 3.13533 -1.33827 0
M  V30 2512 H 245.365 1.71649 -2.4592 0
M  V30 2513 H 242.918 0.863573 -1.30277 0
M  V30 2514 H 243.653 3.22142 -0.37349 0
M  V30 2515 H 243.438 3.28101 -2.14691 0
M  V30 2516 H 244.928 3.93356 -1.40218 0
M  V30 2517 N 245.365 1.30045 0.890287 0
M  V30 2518 C 246.614 1.17929 1.63633 0
M  V30 2519 C 246.927 -0.266204 1.9378 0
M  V30 2520 O 248.133 -0.508804 2.6669 0
M  V30 2521 C 246.589 2.06317 2.94892 0
M  V30 2522 C 246.197 3.55745 2.72305 0
M  V30 2523 C 247.941 2.0295 3.72843 0
M  V30 2524 C 245.848 4.36205 3.99348 0
M  V30 2525 H 244.778 0.437782 0.613892 0
M  V30 2526 H 247.429 1.54754 0.986075 0
M  V30 2527 H 245.811 1.6237 3.61182 0
M  V30 2528 H 246.985 4.07805 2.1455 0
M  V30 2529 H 245.3 3.6088 2.07737 0
M  V30 2530 H 247.897 2.60319 4.67053 0
M  V30 2531 H 248.24 1.0117 4.0382 0
M  V30 2532 H 248.773 2.4499 3.13408 0
M  V30 2533 H 245.512 5.38659 3.73533 0
M  V30 2534 H 245.032 3.8891 4.56628 0
M  V30 2535 H 246.711 4.47362 4.67415 0
M  V30 2536 N 246.843 -1.10192 1.12674 0
M  V30 2537 C 247.776 -2.15847 0.740625 0
M  V30 2538 C 248.754 -1.60352 -0.269421 0
M  V30 2539 O 249.938 -1.87796 -0.16278 0
M  V30 2540 C 247.065 -3.38562 0.096641 0
M  V30 2541 C 246.111 -4.12758 1.07391 0
M  V30 2542 S 246.944 -4.67997 2.60267 0
M  V30 2543 C 248.1 -5.94021 1.97206 0
M  V30 2544 H 248.333 -2.48266 1.63558 0
M  V30 2545 H 245.866 -1.22019 0.946087 0
M  V30 2546 H 247.824 -4.09621 -0.268535 0
M  V30 2547 H 246.485 -3.04377 -0.775462 0
M  V30 2548 H 245.678 -5.00755 0.570997 0
M  V30 2549 H 245.28 -3.47523 1.38216 0
M  V30 2550 H 247.572 -6.64589 1.31634 0
M  V30 2551 H 248.515 -6.48979 2.83253 0
M  V30 2552 H 248.923 -5.46169 1.42686 0
M  V30 2553 N 248.321 -0.919034 -1.28029 0
M  V30 2554 C 249.284 -0.416182 -2.2539 0
M  V30 2555 C 250.284 0.460438 -1.54067 0
M  V30 2556 O 251.474 0.262744 -1.72207 0
M  V30 2557 C 248.606 0.402707 -3.38513 0
M  V30 2558 H 249.799 -1.27629 -2.71387 0
M  V30 2559 H 247.352 -0.698919 -1.39803 0
M  V30 2560 H 248.087 1.282 -2.97885 0
M  V30 2561 H 247.872 -0.225698 -3.9145 0
M  V30 2562 H 249.362 0.745191 -4.10897 0
M  V30 2563 N 249.799 1.42003 -0.683588 0
M  V30 2564 C 250.747 2.326 0.000815408 0
M  V30 2565 C 251.741 1.50308 0.781278 0
M  V30 2566 O 252.947 1.66322 0.688251 0
M  V30 2567 H 249.322 0.751758 0.0190616 0
M  V30 2568 H 251.293 2.88011 -0.780528 0
M  V30 2569 C 250.042 3.34978 0.93195 0
M  V30 2570 H 249.365 3.98345 0.340817 0
M  V30 2571 H 250.805 4.00936 1.37936 0
M  V30 2572 C 249.264 2.67925 2.04249 0
M  V30 2573 O 249.794 2.51788 3.12995 0
M  V30 2574 N 248 2.2681 1.81675 0
M  V30 2575 H 247.547 2.40135 0.932363 0
M  V30 2576 H 247.505 1.8228 2.56167 0
M  V30 2577 N 251.277 0.427512 1.51691 0
M  V30 2578 C 252.187 -0.39527 2.31246 0
M  V30 2579 C 253.203 -1.03674 1.39742 0
M  V30 2580 O 254.379 -1.03425 1.72816 0
M  V30 2581 C 251.444 -1.48706 3.13189 0
M  V30 2582 C 250.505 -0.866743 4.20459 0
M  V30 2583 C 249.738 -1.90651 4.98486 0
M  V30 2584 O 249.961 -3.12733 4.77026 0
M  V30 2585 O 248.895 -1.5025 5.82845 0
M  V30 2586 H 252.721 0.253918 3.02637 0
M  V30 2587 H 250.306 0.190274 1.48183 0
M  V30 2588 H 252.188 -2.12047 3.64162 0
M  V30 2589 H 250.863 -2.12051 2.44573 0
M  V30 2590 H 249.77 -0.195544 3.73589 0
M  V30 2591 H 251.103 -0.276934 4.9142 0
M  V30 2592 N 252.755 -1.56801 0.158532 0
M  V30 2593 C 253.665 -2.20916 -0.789518 0
M  V30 2594 C 254.681 -1.1969 -1.26294 0
M  V30 2595 O 255.857 -1.52308 -1.31773 0
M  V30 2596 C 252.922 -2.82727 -2.00665 0
M  V30 2597 C 251.983 -3.99114 -1.58134 0
M  V30 2598 C 251.216 -4.57968 -2.74045 0
M  V30 2599 O 251.439 -4.15704 -3.90572 0
M  V30 2600 O 250.373 -5.48047 -2.48855 0
M  V30 2601 H 254.199 -3.02464 -0.273681 0
M  V30 2602 H 251.784 -1.4924 -0.0690548 0
M  V30 2603 H 253.666 -3.21968 -2.71872 0
M  V30 2604 H 252.341 -2.04184 -2.51179 0
M  V30 2605 H 251.248 -3.64567 -0.839155 0
M  V30 2606 H 252.581 -4.79212 -1.12325 0
M  V30 2607 N 254.233 0.115231 -1.57178 0
M  V30 2608 C 255.18 1.14115 -2.00615 0
M  V30 2609 C 256.15 1.40939 -0.878941 0
M  V30 2610 O 257.335 1.52741 -1.14345 0
M  V30 2611 C 254.475 2.46156 -2.4187 0
M  V30 2612 C 253.588 2.26236 -3.68024 0
M  V30 2613 C 252.723 3.51534 -3.98243 0
M  V30 2614 C 251.762 3.26787 -5.17568 0
M  V30 2615 N 250.899 4.44298 -5.43639 0
M  V30 2616 H 255.739 0.763743 -2.88047 0
M  V30 2617 H 253.276 0.365615 -1.42484 0
M  V30 2618 H 255.234 3.23189 -2.63827 0
M  V30 2619 H 253.864 2.81783 -1.57475 0
M  V30 2620 H 252.916 1.40102 -3.5366 0
M  V30 2621 H 254.228 2.03929 -4.55208 0
M  V30 2622 H 253.382 4.36984 -4.20868 0
M  V30 2623 H 252.121 3.76876 -3.09541 0
M  V30 2624 H 251.126 2.39729 -4.94783 0
M  V30 2625 H 252.351 3.02812 -6.0785 0
M  V30 2626 H 250.297 4.69754 -4.57895 0
M  V30 2627 H 250.214 4.25109 -6.25154 0
M  V30 2628 H 251.482 5.3087 -5.70786 0
M  V30 2629 N 255.711 1.52812 0.385517 0
M  V30 2630 C 257.127 1.4214 0.725829 0
M  V30 2631 C 257.327 0.544589 1.94001 0
M  V30 2632 O 256.383 0.0193693 2.52493 0
M  V30 2633 C 257.696 2.85042 0.957668 0
M  V30 2634 C 259.244 2.94543 1.05892 0
M  V30 2635 C 259.719 4.38464 1.32337 0
M  V30 2636 N 261.21 4.41804 1.39151 0
M  V30 2637 C 261.945 5.5025 1.61285 0
M  V30 2638 N 261.441 6.68775 1.80866 0
M  V30 2639 N 263.234 5.37798 1.63492 0
M  V30 2640 H 255.385 2.08338 -0.413383 0
M  V30 2641 H 257.648 0.940016 -0.122775 0
M  V30 2642 H 257.354 3.51431 0.137568 0
M  V30 2643 H 257.228 3.27505 1.87137 0
M  V30 2644 H 259.615 2.28321 1.86959 0
M  V30 2645 H 259.696 2.55504 0.123057 0
M  V30 2646 H 259.34 5.05254 0.517793 0
M  V30 2647 H 259.27 4.75059 2.27214 0
M  V30 2648 H 261.761 3.56377 1.25713 0
M  V30 2649 H 262.074 7.47197 1.97271 0
M  V30 2650 H 260.419 6.71797 1.78083 0
M  V30 2651 H 263.61 4.44171 1.47749 0
M  V30 2652 H 263.783 6.22382 1.80402 0
M  V30 2653 N 257.189 -0.644168 1.43834 0
M  V30 2654 C 258.436 -1.40395 1.4593 0
M  V30 2655 C 258.764 -1.94305 0.0869658 0
M  V30 2656 O 258.019 -1.73288 -0.909378 0
M  V30 2657 C 258.318 -2.59615 2.45631 0
M  V30 2658 C 257.984 -2.2407 3.91284 0
M  V30 2659 C 256.646 -2.14089 4.30952 0
M  V30 2660 C 258.998 -1.95775 4.83034 0
M  V30 2661 C 256.326 -1.73981 5.6031 0
M  V30 2662 C 258.678 -1.57163 6.12766 0
M  V30 2663 C 257.342 -1.45713 6.51402 0
M  V30 2664 H 256.612 -0.513741 0.533995 0
M  V30 2665 H 259.259 -0.731724 1.76969 0
M  V30 2666 H 257.564 -3.32011 2.08028 0
M  V30 2667 H 259.261 -3.17834 2.44504 0
M  V30 2668 H 255.851 -2.32753 3.59895 0
M  V30 2669 H 260.035 -2.02403 4.53152 0
M  V30 2670 H 255.291 -1.63709 5.89075 0
M  V30 2671 H 259.465 -1.34303 6.83327 0
M  V30 2672 H 257.092 -1.14406 7.51542 0
M  V30 2673 N 258.668 -1.30515 -0.883378 0
M  V30 2674 C 259.898 -1.22182 -1.66599 0
M  V30 2675 C 260.306 0.217507 -1.87946 0
M  V30 2676 O 259.649 1.1554 -1.42815 0
M  V30 2677 C 259.711 -1.88146 -3.06335 0
M  V30 2678 C 259.375 -3.37476 -3.08154 0
M  V30 2679 C 260.372 -4.33443 -2.87094 0
M  V30 2680 C 258.057 -3.7895 -3.29701 0
M  V30 2681 C 260.051 -5.68858 -2.8754 0
M  V30 2682 C 257.738 -5.14482 -3.29776 0
M  V30 2683 C 258.736 -6.09246 -3.0872 0
M  V30 2684 O 258.424 -7.42302 -3.08615 0
M  V30 2685 H 258.156 -0.423898 -0.52658 0
M  V30 2686 H 260.71 -1.72703 -1.11188 0
M  V30 2687 H 258.94 -1.32157 -3.63416 0
M  V30 2688 H 260.629 -1.7391 -3.66756 0
M  V30 2689 H 261.395 -4.02733 -2.70243 0
M  V30 2690 H 257.274 -3.05631 -3.45124 0
M  V30 2691 H 260.818 -6.428 -2.71024 0
M  V30 2692 H 256.715 -5.44832 -3.46163 0
M  V30 2693 H 257.483 -7.5131 -3.24769 0
M  V30 2694 N 260.146 1.09593 -1.13257 0
M  V30 2695 C 261.394 1.81375 -0.891492 0
M  V30 2696 C 261.715 1.86049 0.584009 0
M  V30 2697 O 260.985 1.34481 1.42449 0
M  V30 2698 H 259.565 0.671708 -0.326828 0
M  V30 2699 H 262.227 1.3256 -1.42877 0
M  V30 2700 H 261.323 2.84612 -1.28071 0
M  V30 2701 N 261.624 0.925811 1.2754 0
M  V30 2702 C 262.87 0.566092 1.94739 0
M  V30 2703 C 263.203 -0.890057 1.72603 0
M  V30 2704 O 262.478 -1.63467 1.05399 0
M  V30 2705 C 262.761 0.89054 3.48915 0
M  V30 2706 C 262.614 2.4003 3.80402 0
M  V30 2707 C 263.933 0.395101 4.38323 0
M  V30 2708 H 261.052 0.20714 0.707292 0
M  V30 2709 H 263.694 1.15725 1.50691 0
M  V30 2710 H 261.844 0.387452 3.86563 0
M  V30 2711 H 263.516 2.97494 3.52555 0
M  V30 2712 H 261.759 2.85028 3.2702 0
M  V30 2713 H 262.43 2.57785 4.8811 0
M  V30 2714 H 264.906 0.826241 4.07814 0
M  V30 2715 H 263.782 0.651086 5.45025 0
M  V30 2716 H 264.043 -0.704798 4.36446 0
M  V30 2717 N 263.102 -1.41638 0.69111 0
M  V30 2718 C 264.034 -2.29194 -0.0161523 0
M  V30 2719 C 265.047 -1.44549 -0.748955 0
M  V30 2720 O 266.236 -1.681 -0.6004 0
M  V30 2721 C 263.336 -3.22325 -1.0469 0
M  V30 2722 C 262.509 -4.35706 -0.384621 0
M  V30 2723 C 261.568 -5.09443 -1.31737 0
M  V30 2724 O 260.594 -5.63386 -0.811451 0
M  V30 2725 N 261.796 -5.16487 -2.64993 0
M  V30 2726 H 264.561 -2.90534 0.735523 0
M  V30 2727 H 262.122 -1.52742 0.53679 0
M  V30 2728 H 264.114 -3.68522 -1.67252 0
M  V30 2729 H 262.684 -2.62323 -1.70015 0
M  V30 2730 H 261.904 -3.91948 0.420804 0
M  V30 2731 H 263.192 -5.08743 0.0760765 0
M  V30 2732 H 262.59 -4.741 -3.08619 0
M  V30 2733 H 261.147 -5.66276 -3.22761 0
M  V30 2734 N 264.58 -0.43555 -1.51462 0
M  V30 2735 C 265.827 0.131514 -2.02072 0
M  V30 2736 C 266.155 1.42868 -1.31981 0
M  V30 2737 O 265.41 1.91076 -0.422883 0
M  V30 2738 C 265.709 0.39942 -3.55161 0
M  V30 2739 C 265.375 -0.81172 -4.43533 0
M  V30 2740 C 264.037 -1.14387 -4.67407 0
M  V30 2741 C 266.389 -1.61976 -4.95392 0
M  V30 2742 C 263.717 -2.28477 -5.40384 0
M  V30 2743 C 266.069 -2.75164 -5.6962 0
M  V30 2744 C 264.733 -3.08835 -5.91758 0
M  V30 2745 H 264.003 0.0481244 -0.739436 0
M  V30 2746 H 266.65 -0.58238 -1.8243 0
M  V30 2747 H 264.955 1.19519 -3.73125 0
M  V30 2748 H 266.652 0.85157 -3.91854 0
M  V30 2749 H 263.242 -0.542898 -4.25148 0
M  V30 2750 H 267.426 -1.37637 -4.76833 0
M  V30 2751 H 262.682 -2.5488 -5.55739 0
M  V30 2752 H 266.856 -3.38147 -6.08793 0
M  V30 2753 H 264.483 -3.97353 -6.48086 0
M  V30 2754 N 266.058 1.56714 -0.166846 0
M  V30 2755 C 267.008 2.14338 0.777382 0
M  V30 2756 C 267.992 1.07642 1.19591 0
M  V30 2757 O 269.184 1.33775 1.15902 0
M  V30 2758 C 266.313 2.78417 2.00846 0
M  V30 2759 C 265.399 3.92264 1.61212 0
M  V30 2760 N 265.79 4.97268 0.925104 0
M  V30 2761 C 264.088 4.03342 1.90346 0
M  V30 2762 C 264.789 5.77093 0.730627 0
M  V30 2763 N 263.765 5.2854 1.27067 0
M  V30 2764 H 267.567 2.9289 0.243466 0
M  V30 2765 H 265.081 1.62364 0.0339954 0
M  V30 2766 H 267.078 3.18073 2.69509 0
M  V30 2767 H 265.738 2.01344 2.54736 0
M  V30 2768 H 266.749 5.14601 0.583646 0
M  V30 2769 H 263.426 3.37368 2.45946 0
M  V30 2770 H 264.816 6.71638 0.187668 0
M  V30 2771 N 267.536 -0.106894 1.57237 0
M  V30 2772 C 268.947 -0.662723 1.74542 0
M  V30 2773 C 269.298 -1.7971 0.787319 0
M  V30 2774 O 268.423 -2.16368 -0.0369636 0
M  V30 2775 C 269.018 -1.20896 3.16496 0
M  V30 2776 C 267.577 -1.71096 3.35266 0
M  V30 2777 C 266.724 -0.615642 2.7038 0
M  V30 2778 H 269.675 0.119106 1.58252 0
M  V30 2779 H 269.696 -2.07847 3.18716 0
M  V30 2780 H 269.208 -0.383122 3.86204 0
M  V30 2781 H 267.309 -2.56119 2.70618 0
M  V30 2782 H 267.422 -1.81208 4.43509 0
M  V30 2783 H 265.786 -1.05222 2.31949 0
M  V30 2784 H 266.569 0.199419 3.4272 0
M  V30 2785 N 269.014 -1.53014 -0.377408 0
M  V30 2786 C 269.924 -1.81557 -1.48574 0
M  V30 2787 C 270.94 -0.703102 -1.59162 0
M  V30 2788 O 272.116 -0.99192 -1.75279 0
M  V30 2789 C 269.181 -1.9889 -2.83978 0
M  V30 2790 C 268.242 -3.22801 -2.83016 0
M  V30 2791 C 267.475 -3.39298 -4.11962 0
M  V30 2792 O 267.698 -2.60345 -5.0752 0
M  V30 2793 O 266.632 -4.32604 -4.18494 0
M  V30 2794 H 270.458 -2.75695 -1.27382 0
M  V30 2795 H 268.043 -1.38248 -0.566373 0
M  V30 2796 H 269.925 -2.11931 -3.6423 0
M  V30 2797 H 268.6 -1.07942 -3.05172 0
M  V30 2798 H 267.507 -3.15193 -2.01505 0
M  V30 2799 H 268.84 -4.13632 -2.66775 0
M  V30 2800 N 270.492 0.636531 -1.44174 0
M  V30 2801 C 271.738 1.39826 -1.4689 0
M  V30 2802 C 272.071 1.93947 -0.0990585 0
M  V30 2803 O 271.346 1.73325 0.882544 0
M  V30 2804 C 271.629 2.56751 -2.5249 0
M  V30 2805 C 271.482 2.08014 -3.98811 0
M  V30 2806 C 272.801 3.58946 -2.54649 0
M  V30 2807 H 269.92 0.507075 -0.53483 0
M  V30 2808 H 272.562 0.720188 -1.75822 0
M  V30 2809 H 270.712 3.14597 -2.2795 0
M  V30 2810 H 272.384 1.5504 -4.34466 0
M  V30 2811 H 270.627 1.39242 -4.10846 0
M  V30 2812 H 271.298 2.92169 -4.68339 0
M  V30 2813 H 273.774 3.1089 -2.76563 0
M  V30 2814 H 272.65 4.38286 -3.3045 0
M  V30 2815 H 272.911 4.12655 -1.58646 0
M  V30 2816 N 271.97 1.30982 0.876444 0
M  V30 2817 C 273.198 1.23242 1.6619 0
M  V30 2818 C 273.613 -0.203345 1.87702 0
M  V30 2819 O 272.97 -1.13317 1.43057 0
M  V30 2820 C 273.021 1.96623 3.03351 0
M  V30 2821 O 272.742 3.34594 2.82804 0
M  V30 2822 C 274.243 1.95644 3.97792 0
M  V30 2823 H 271.463 0.426126 0.518322 0
M  V30 2824 H 274.007 1.7275 1.09442 0
M  V30 2825 H 272.162 1.50892 3.56806 0
M  V30 2826 H 272.576 3.71873 3.69879 0
M  V30 2827 H 274.05 2.51511 4.91372 0
M  V30 2828 H 274.527 0.937395 4.2908 0
M  V30 2829 H 275.133 2.41225 3.50272 0
M  V30 2830 N 273.449 -1.08991 1.13837 0
M  V30 2831 C 274.399 -2.1393 0.788535 0
M  V30 2832 C 275.383 -1.59396 -0.219516 0
M  V30 2833 O 276.575 -1.76985 -0.0227557 0
M  V30 2834 C 273.704 -3.42305 0.261147 0
M  V30 2835 C 272.79 -4.03736 1.29837 0
M  V30 2836 N 273.181 -4.39659 2.50067 0
M  V30 2837 C 271.479 -4.30993 1.1472 0
M  V30 2838 C 272.18 -4.88113 3.16419 0
M  V30 2839 N 271.156 -4.85846 2.43832 0
M  V30 2840 H 274.958 -2.39516 1.70322 0
M  V30 2841 H 272.472 -1.26263 1.02134 0
M  V30 2842 H 274.469 -4.16899 -0.0077405 0
M  V30 2843 H 273.129 -3.18172 -0.647805 0
M  V30 2844 H 274.14 -4.30878 2.8734 0
M  V30 2845 H 270.817 -4.16444 0.296773 0
M  V30 2846 H 272.207 -5.25336 4.18894 0
M  V30 2847 N 274.927 -0.932562 -1.27047 0
M  V30 2848 C 276.155 -0.592031 -1.98249 0
M  V30 2849 C 276.57 0.831062 -1.69525 0
M  V30 2850 O 275.927 1.55299 -0.958561 0
M  V30 2851 C 275.978 -0.814279 -3.5221 0
M  V30 2852 O 275.699 -2.18139 -3.7993 0
M  V30 2853 C 277.2 -0.483121 -4.4066 0
M  V30 2854 H 274.42 -0.223896 -0.632544 0
M  V30 2855 H 276.964 -1.25091 -1.61779 0
M  V30 2856 H 275.119 -0.20213 -3.86872 0
M  V30 2857 H 275.533 -2.235 -4.74498 0
M  V30 2858 H 277.007 -0.689298 -5.47679 0
M  V30 2859 H 277.484 0.581546 -4.35333 0
M  V30 2860 H 278.09 -1.07362 -4.11526 0
M  V30 2861 N 276.405 1.4127 -0.698611 0
M  V30 2862 C 277.821 1.55241 -0.370462 0
M  V30 2863 C 278.021 1.67351 1.12231 0
M  V30 2864 O 277.077 1.65363 1.90818 0
M  V30 2865 C 278.39 2.78997 -1.12165 0
M  V30 2866 C 279.938 2.92797 -1.1063 0
M  V30 2867 C 280.413 4.19445 -1.8393 0
M  V30 2868 N 281.904 4.26409 -1.80914 0
M  V30 2869 C 282.639 5.23271 -2.34467 0
M  V30 2870 N 282.135 6.26145 -2.96504 0
M  V30 2871 N 283.928 5.15232 -2.24706 0
M  V30 2872 H 276.079 1.31654 -1.66676 0
M  V30 2873 H 278.342 0.635393 -0.703548 0
M  V30 2874 H 278.048 2.76268 -2.17644 0
M  V30 2875 H 277.922 3.70606 -0.702209 0
M  V30 2876 H 280.309 2.95039 -0.0597713 0
M  V30 2877 H 280.39 2.02353 -1.56483 0
M  V30 2878 H 280.034 4.17964 -2.88563 0
M  V30 2879 H 279.964 5.08866 -1.35509 0
M  V30 2880 H 282.455 3.527 -1.35687 0
M  V30 2881 H 282.768 6.96451 -3.34927 0
M  V30 2882 H 281.113 6.26638 -3.00583 0
M  V30 2883 H 284.304 4.33789 -1.7591 0
M  V30 2884 H 284.477 5.90552 -2.66745 0
M  V30 2885 N 277.883 0.443576 1.51229 0
M  V30 2886 C 278.815 -0.400608 2.25672 0
M  V30 2887 C 279.828 -0.980945 1.29928 0
M  V30 2888 O 281.017 -0.874024 1.55638 0
M  V30 2889 C 278.117 -1.57304 3.00181 0
M  V30 2890 C 277.29 -1.11046 4.23069 0
M  V30 2891 C 276.349 -2.15374 4.80105 0
M  V30 2892 O 275.375 -1.74554 5.41774 0
M  V30 2893 N 276.577 -3.47922 4.64683 0
M  V30 2894 H 279.342 0.23745 2.98758 0
M  V30 2895 H 276.903 0.272809 1.59585 0
M  V30 2896 H 278.895 -2.26733 3.35223 0
M  V30 2897 H 277.465 -2.11632 2.30066 0
M  V30 2898 H 276.685 -0.243019 3.9345 0
M  V30 2899 H 277.973 -0.778888 5.02803 0
M  V30 2900 H 277.371 -3.83815 4.15575 0
M  V30 2901 H 275.928 -4.13228 5.0407 0
M  V30 2902 N 279.361 -1.56624 0.175154 0
M  V30 2903 C 280.609 -1.96609 -0.467885 0
M  V30 2904 C 280.93 -1.06238 -1.63519 0
M  V30 2905 O 280.2 -0.129523 -1.95471 0
M  V30 2906 H 278.78 -0.726008 -0.175845 0
M  V30 2907 H 281.442 -1.93195 0.257234 0
M  V30 2908 H 280.538 -3.00989 -0.825342 0
M  V30 2909 N 280.839 0.0985539 -1.57292 0
M  V30 2910 C 281.772 1.15082 -1.97057 0
M  V30 2911 C 282.75 1.39025 -0.843255 0
M  V30 2912 O 283.934 1.52842 -1.10325 0
M  V30 2913 C 281.061 2.50069 -2.28437 0
M  V30 2914 C 280.107 2.42428 -3.509 0
M  V30 2915 S 280.94 1.84414 -5.02744 0
M  V30 2916 C 282.096 3.21032 -5.37298 0
M  V30 2917 H 282.329 0.811815 -2.86002 0
M  V30 2918 H 279.862 0.306102 -1.51335 0
M  V30 2919 H 281.82 3.27729 -2.47192 0
M  V30 2920 H 280.481 2.8114 -1.40069 0
M  V30 2921 H 279.674 3.41911 -3.70288 0
M  V30 2922 H 279.276 1.72896 -3.31637 0
M  V30 2923 H 281.568 4.17297 -5.33731 0
M  V30 2924 H 282.511 3.06452 -6.38352 0
M  V30 2925 H 282.919 3.20404 -4.64759 0
M  V30 2926 N 282.317 1.53212 0.369288 0
M  V30 2927 C 283.733 1.42902 0.710712 0
M  V30 2928 C 283.933 0.565135 1.93413 0
M  V30 2929 O 282.989 0.0461484 2.52458 0
M  V30 2930 C 284.302 2.86042 0.927382 0
M  V30 2931 C 285.85 2.9565 1.02762 0
M  V30 2932 C 286.325 4.39843 1.27679 0
M  V30 2933 N 287.816 4.43256 1.34457 0
M  V30 2934 C 288.551 5.51929 1.55439 0
M  V30 2935 N 288.047 6.70655 1.73762 0
M  V30 2936 N 289.84 5.39502 1.57779 0
M  V30 2937 H 281.991 2.07888 -0.435457 0
M  V30 2938 H 284.254 0.938661 -0.132739 0
M  V30 2939 H 283.96 3.51557 0.100287 0
M  V30 2940 H 283.834 3.29472 1.83653 0
M  V30 2941 H 286.221 2.30291 1.84527 0
M  V30 2942 H 286.302 2.5562 0.0959504 0
M  V30 2943 H 285.946 5.05774 0.464175 0
M  V30 2944 H 285.876 4.77443 2.22162 0
M  V30 2945 H 288.367 3.5769 1.21926 0
M  V30 2946 H 288.68 7.49248 1.89335 0
M  V30 2947 H 287.025 6.73648 1.70948 0
M  V30 2948 H 290.216 4.45713 1.43029 0
M  V30 2949 H 290.389 6.2426 1.7379 0
M  V30 2950 N 283.795 -0.628877 1.44509 0
M  V30 2951 C 284.728 -1.75367 1.46019 0
M  V30 2952 C 285.706 -1.59444 0.318787 0
M  V30 2953 O 286.89 -1.81297 0.516099 0
M  V30 2954 C 284.017 -3.12965 1.29501 0
M  V30 2955 C 283.063 -3.47532 2.47233 0
M  V30 2956 S 283.896 -3.44758 4.09758 0
M  V30 2957 C 285.052 -4.84973 3.95667 0
M  V30 2958 H 285.285 -1.7382 2.41193 0
M  V30 2959 H 282.818 -0.803686 1.31834 0
M  V30 2960 H 284.776 -3.92367 1.20658 0
M  V30 2961 H 283.437 -3.12049 0.358341 0
M  V30 2962 H 282.63 -4.47664 2.31544 0
M  V30 2963 H 282.232 -2.75598 2.52828 0
M  V30 2964 H 284.524 -5.74255 3.59496 0
M  V30 2965 H 285.467 -5.05716 4.95638 0
M  V30 2966 H 285.875 -4.59653 3.27688 0
M  V30 2967 N 285.273 -1.31445 -0.869486 0
M  V30 2968 C 286.203 -1.21727 -1.99261 0
M  V30 2969 C 287.184 -0.104359 -1.6978 0
M  V30 2970 O 288.369 -0.289038 -1.92037 0
M  V30 2971 C 285.499 -0.924317 -3.34774 0
M  V30 2972 C 284.453 -1.99685 -3.78563 0
M  V30 2973 C 283.779 -1.55658 -5.11541 0
M  V30 2974 C 285.079 -3.41003 -3.95619 0
M  V30 2975 H 286.773 -2.1569 -2.07649 0
M  V30 2976 H 284.319 -1.03839 -0.997675 0
M  V30 2977 H 286.272 -0.842934 -4.12883 0
M  V30 2978 H 284.996 0.0509793 -3.2656 0
M  V30 2979 H 283.655 -2.06813 -3.02694 0
M  V30 2980 H 283.303 -0.569132 -4.9977 0
M  V30 2981 H 283.003 -2.27409 -5.41811 0
M  V30 2982 H 284.527 -1.48928 -5.92159 0
M  V30 2983 H 285.941 -3.36547 -4.64122 0
M  V30 2984 H 284.338 -4.10975 -4.37286 0
M  V30 2985 H 285.408 -3.81754 -2.98985 0
M  V30 2986 N 286.751 1.08385 -1.14413 0
M  V30 2987 C 287.661 2.18856 -0.844951 0
M  V30 2988 C 288.677 1.73121 0.174668 0
M  V30 2989 O 289.853 2.014 0.00312857 0
M  V30 2990 C 286.918 3.45155 -0.32696 0
M  V30 2991 C 285.979 4.05513 -1.40916 0
M  V30 2992 C 285.212 5.25784 -0.915793 0
M  V30 2993 O 285.435 5.69884 0.242651 0
M  V30 2994 O 284.369 5.77545 -1.69487 0
M  V30 2995 H 288.195 2.46919 -1.76818 0
M  V30 2996 H 285.78 1.17524 -0.922411 0
M  V30 2997 H 287.662 4.21377 -0.0440211 0
M  V30 2998 H 286.337 3.18668 0.568539 0
M  V30 2999 H 285.244 3.30879 -1.74556 0
M  V30 3000 H 286.577 4.3625 -2.27919 0
M  V30 3001 N 288.23 0.939286 1.26551 0
M  V30 3002 C 289.646 0.641304 1.46149 0
M  V30 3003 C 289.846 -0.805964 1.84679 0
M  V30 3004 O 288.902 -1.58278 1.96734 0
M  V30 3005 C 290.215 1.6011 2.54529 0
M  V30 3006 C 291.763 1.6106 2.68382 0
M  V30 3007 C 292.238 2.55765 3.79932 0
M  V30 3008 N 293.729 2.5404 3.87322 0
M  V30 3009 C 294.464 3.24004 4.73085 0
M  V30 3010 N 293.96 4.03388 5.63249 0
M  V30 3011 N 295.753 3.12965 4.66914 0
M  V30 3012 H 287.904 1.87478 0.998285 0
M  V30 3013 H 290.167 0.805559 0.499779 0
M  V30 3014 H 289.873 2.63412 2.33039 0
M  V30 3015 H 289.747 1.35171 3.52149 0
M  V30 3016 H 292.134 0.584835 2.89247 0
M  V30 3017 H 292.215 1.90053 1.71212 0
M  V30 3018 H 291.859 3.58458 3.5982 0
M  V30 3019 H 291.789 2.24063 4.76554 0
M  V30 3020 H 294.28 1.96396 3.22858 0
M  V30 3021 H 294.593 4.5373 6.25579 0
M  V30 3022 H 292.938 4.07489 5.63008 0
M  V30 3023 H 296.129 2.50432 3.95476 0
M  V30 3024 H 296.302 3.67759 5.33533 0
M  V30 3025 N 289.708 -1.40897 0.706093 0
M  V30 3026 C 290.955 -2.01054 0.241531 0
M  V30 3027 C 291.283 -1.55956 -1.16223 0
M  V30 3028 O 290.538 -0.766336 -1.80072 0
M  V30 3029 C 290.837 -3.5646 0.259099 0
M  V30 3030 C 290.503 -4.21106 1.61184 0
M  V30 3031 C 289.165 -4.38479 1.98216 0
M  V30 3032 C 291.517 -4.57256 2.50132 0
M  V30 3033 C 288.845 -4.89282 3.2376 0
M  V30 3034 C 291.197 -5.09454 3.7502 0
M  V30 3035 C 289.861 -5.25037 4.12181 0
M  V30 3036 H 289.131 -0.73571 0.0883825 0
M  V30 3037 H 291.778 -1.68645 0.907257 0
M  V30 3038 H 290.083 -3.88721 -0.490189 0
M  V30 3039 H 291.78 -4.00826 -0.11804 0
M  V30 3040 H 288.37 -4.07966 1.31384 0
M  V30 3041 H 292.554 -4.43479 2.228 0
M  V30 3042 H 287.81 -4.99531 3.52532 0
M  V30 3043 H 291.984 -5.36404 4.44121 0
M  V30 3044 H 289.611 -5.64164 5.09532 0
M  V30 3045 N 291.186 -0.45159 -1.50991 0
M  V30 3046 C 292.432 0.110237 -2.025 0
M  V30 3047 C 292.765 1.41109 -1.33424 0
M  V30 3048 O 292.04 1.89135 -0.453659 0
M  V30 3049 C 292.323 0.314271 -3.58726 0
M  V30 3050 C 292.176 -1.00623 -4.38401 0
M  V30 3051 C 293.495 1.07767 -4.26702 0
M  V30 3052 H 290.614 0.0385897 -0.735989 0
M  V30 3053 H 293.256 -0.593374 -1.80497 0
M  V30 3054 H 291.406 0.913601 -3.77605 0
M  V30 3055 H 293.078 -1.64064 -4.31139 0
M  V30 3056 H 291.321 -1.6075 -4.02917 0
M  V30 3057 H 291.992 -0.817341 -5.45915 0
M  V30 3058 H 294.468 0.56986 -4.12179 0
M  V30 3059 H 293.344 1.18921 -5.35863 0
M  V30 3060 H 293.605 2.10939 -3.88532 0
M  V30 3061 N 292.664 1.56529 -0.183458 0
M  V30 3062 C 294.08 1.58664 0.172554 0
M  V30 3063 C 294.28 1.19925 1.61926 0
M  V30 3064 O 293.336 0.916534 2.35278 0
M  V30 3065 C 294.649 3.00463 -0.119262 0
M  V30 3066 C 296.197 3.12945 -0.0584396 0
M  V30 3067 C 296.672 4.56857 -0.323408 0
M  V30 3068 N 298.163 4.62403 -0.271612 0
M  V30 3069 C 298.898 5.71626 -0.450639 0
M  V30 3070 N 298.394 6.89362 -0.689384 0
M  V30 3071 N 300.187 5.60775 -0.385701 0
M  V30 3072 H 292.338 1.79994 -1.12765 0
M  V30 3073 H 294.601 0.834808 -0.449222 0
M  V30 3074 H 294.307 3.33326 -1.12192 0
M  V30 3075 H 294.181 3.72659 0.583544 0
M  V30 3076 H 296.568 2.79902 0.934805 0
M  V30 3077 H 296.649 2.4316 -0.794144 0
M  V30 3078 H 296.293 4.9061 -1.31392 0
M  V30 3079 H 296.223 5.24816 0.43305 0
M  V30 3080 H 298.714 3.77785 -0.0932256 0
M  V30 3081 H 299.027 7.68489 -0.815113 0
M  V30 3082 H 297.372 6.91196 -0.726142 0
M  V30 3083 H 300.563 4.67674 -0.199687 0
M  V30 3084 H 300.736 6.4584 -0.528646 0
M  V30 3085 N 294.142 -0.090211 1.57342 0
M  V30 3086 C 295.419 -0.824761 1.77361 0
M  V30 3087 C 295.799 -1.96698 0.76637 0
M  V30 3088 O 295.147 -2.27586 -0.204179 0
M  V30 3089 C 295.357 -1.31481 3.23286 0
M  V30 3090 C 296.705 -1.75563 3.86604 0
M  V30 3091 O 297.729 -1.41093 3.27065 0
M  V30 3092 O 296.588 -2.39317 4.91314 0
M  V30 3093 H 293.682 -0.393776 0.727234 0
M  V30 3094 H 296.228 -0.0717138 1.69548 0
M  V30 3095 H 295 -0.496671 3.88135 0
M  V30 3096 H 294.623 -2.12973 3.35751 0
M  V30 3097 N 295.62 -1.53406 -0.361157 0
M  V30 3098 C 296.869 -1.69022 -1.10066 0
M  V30 3099 C 297.182 -0.450838 -1.90333 0
M  V30 3100 O 298.388 -0.487617 -2.67085 0
M  V30 3101 C 296.844 -2.98812 -2.00598 0
M  V30 3102 C 296.452 -4.30027 -1.25621 0
M  V30 3103 C 298.196 -3.23795 -2.74513 0
M  V30 3104 C 296.103 -5.50903 -2.1508 0
M  V30 3105 H 295.033 -0.629776 -0.414606 0
M  V30 3106 H 297.684 -1.79907 -0.361348 0
M  V30 3107 H 296.066 -2.8174 -2.78278 0
M  V30 3108 H 297.24 -4.57745 -0.529739 0
M  V30 3109 H 295.555 -4.11522 -0.635496 0
M  V30 3110 H 298.152 -4.11289 -3.41681 0
M  V30 3111 H 298.495 -2.40045 -3.40123 0
M  V30 3112 H 299.028 -3.41561 -2.03914 0
M  V30 3113 H 295.767 -6.37143 -1.54041 0
M  V30 3114 H 295.287 -5.27459 -2.85565 0
M  V30 3115 H 296.966 -5.85865 -2.74538 0
M  V30 3116 N 297.098 0.621204 -1.44841 0
M  V30 3117 C 298.338 1.39201 -1.49674 0
M  V30 3118 C 298.702 1.91561 -0.129764 0
M  V30 3119 O 299.903 2.68748 -0.0527814 0
M  V30 3120 C 298.174 2.519 -2.53537 0
M  V30 3121 S 299.733 3.39916 -2.77494 0
M  V30 3122 H 296.551 0.474758 -0.529269 0
M  V30 3123 H 299.153 0.718171 -1.81831 0
M  V30 3124 H 297.857 2.11761 -3.51547 0
M  V30 3125 H 297.388 3.241 -2.22986 0
M  V30 3126 H 299.403 4.49646 -2.0984 0
M  V30 3127 N 298.576 1.31904 0.862503 0
M  V30 3128 C 299.508 1.16005 1.97675 0
M  V30 3129 C 300.521 0.0971234 1.6251 0
M  V30 3130 O 301.71 0.345337 1.75128 0
M  V30 3131 C 298.81 0.751791 3.30456 0
M  V30 3132 C 297.983 1.90133 3.93914 0
M  V30 3133 C 297.042 1.4779 5.05019 0
M  V30 3134 O 296.068 2.18872 5.25437 0
M  V30 3135 N 297.27 0.369491 5.79323 0
M  V30 3136 H 300.035 2.11982 2.11857 0
M  V30 3137 H 297.596 1.24337 1.03691 0
M  V30 3138 H 299.588 0.451084 4.02178 0
M  V30 3139 H 298.158 -0.116593 3.12382 0
M  V30 3140 H 297.378 2.36896 3.15078 0
M  V30 3141 H 298.666 2.67111 4.33047 0
M  V30 3142 H 298.064 -0.222299 5.65263 0
M  V30 3143 H 296.621 0.128354 6.51674 0
M  V30 3144 N 300.054 -1.07777 1.14986 0
M  V30 3145 C 301.294 -1.81888 0.932527 0
M  V30 3146 C 301.658 -1.84509 -0.531064 0
M  V30 3147 O 302.859 -2.54448 -0.866577 0
M  V30 3148 C 301.13 -3.23244 1.52473 0
M  V30 3149 S 302.689 -4.14154 1.44989 0
M  V30 3150 H 299.507 -0.626752 0.335712 0
M  V30 3151 H 302.109 -1.29503 1.46455 0
M  V30 3152 H 300.813 -3.18922 2.58296 0
M  V30 3153 H 300.344 -3.80704 0.991381 0
M  V30 3154 H 302.359 -4.94247 0.439799 0
M  V30 3155 N 301.532 -0.945985 -1.26051 0
M  V30 3156 C 302.442 -0.465633 -2.29933 0
M  V30 3157 C 303.458 0.462761 -1.67733 0
M  V30 3158 O 304.634 0.341118 -1.9849 0
M  V30 3159 C 301.699 0.256994 -3.45746 0
M  V30 3160 C 300.76 -0.708549 -4.23412 0
M  V30 3161 C 299.993 -0.0203135 -5.33696 0
M  V30 3162 O 300.216 1.19571 -5.57726 0
M  V30 3163 O 299.15 -0.701459 -5.97799 0
M  V30 3164 H 302.976 -1.32866 -2.73094 0
M  V30 3165 H 300.561 -0.712071 -1.31339 0
M  V30 3166 H 302.443 0.663852 -4.16138 0
M  V30 3167 H 301.118 1.09533 -3.04605 0
M  V30 3168 H 300.025 -1.16545 -3.55483 0
M  V30 3169 H 301.358 -1.51465 -4.68315 0
M  V30 3170 N 303.011 1.40521 -0.713556 0
M  V30 3171 C 303.974 2.29098 -0.0684347 0
M  V30 3172 C 304.974 1.45268 0.689472 0
M  V30 3173 O 306.164 1.66205 0.521677 0
M  V30 3174 C 303.296 3.28446 0.913024 0
M  V30 3175 H 304.489 2.87645 -0.84855 0
M  V30 3176 H 302.042 1.48809 -0.47809 0
M  V30 3177 H 302.777 2.74913 1.72027 0
M  V30 3178 H 302.562 3.90327 0.372472 0
M  V30 3179 H 304.052 3.94777 1.36165 0
M  V30 3180 N 304.489 0.459591 1.5075 0
M  V30 3181 C 305.419 -0.330644 2.31147 0
M  V30 3182 C 306.4 -1.00087 1.37538 0
M  V30 3183 O 307.585 -1.00025 1.66459 0
M  V30 3184 C 304.715 -1.41958 3.16962 0
M  V30 3185 C 303.669 -0.871608 4.19031 0
M  V30 3186 C 302.995 -2.05797 4.9351 0
M  V30 3187 C 304.295 0.109251 5.22186 0
M  V30 3188 H 305.989 0.340336 2.97459 0
M  V30 3189 H 303.535 0.165119 1.4305 0
M  V30 3190 H 305.488 -1.9798 3.71997 0
M  V30 3191 H 304.212 -2.11917 2.48513 0
M  V30 3192 H 302.871 -0.333442 3.6508 0
M  V30 3193 H 302.519 -2.74427 4.21544 0
M  V30 3194 H 302.219 -1.6976 5.62544 0
M  V30 3195 H 303.743 -2.62331 5.51375 0
M  V30 3196 H 305.157 -0.361405 5.7216 0
M  V30 3197 H 303.554 0.383316 5.98875 0
M  V30 3198 H 304.624 1.03887 4.73641 0
M  V30 3199 N 305.967 -1.56429 0.191757 0
M  V30 3200 C 307.213 -1.98541 -0.441943 0
M  V30 3201 C 307.568 -1.07646 -1.59468 0
M  V30 3202 O 306.861 -0.120191 -1.91223 0
M  V30 3203 C 307.055 -3.44449 -0.953384 0
M  V30 3204 C 306.884 -4.49456 0.148262 0
M  V30 3205 C 305.654 -5.01668 0.604781 0
M  V30 3206 C 307.852 -5.05336 0.95602 0
M  V30 3207 N 305.834 -5.90334 1.6846 0
M  V30 3208 C 307.205 -5.9064 1.88531 0
M  V30 3209 C 309.26 -4.87779 0.998811 0
M  V30 3210 C 307.963 -6.60264 2.85383 0
M  V30 3211 C 309.989 -5.58139 1.95537 0
M  V30 3212 C 309.351 -6.43187 2.8721 0
M  V30 3213 H 305.45 -0.771247 -0.129236 0
M  V30 3214 H 308.034 -1.92426 0.296682 0
M  V30 3215 H 306.205 -3.5107 -1.66146 0
M  V30 3216 H 307.937 -3.73533 -1.55741 0
M  V30 3217 H 304.692 -4.73183 0.198736 0
M  V30 3218 H 305.116 -6.39371 2.22561 0
M  V30 3219 H 309.758 -4.21705 0.304048 0
M  V30 3220 H 307.476 -7.25538 3.55837 0
M  V30 3221 H 311.062 -5.46532 1.99484 0
M  V30 3222 H 309.942 -6.96674 3.60022 0
M  V30 3223 N 307.445 0.0818655 -1.57387 0
M  V30 3224 C 308.673 0.796108 -1.9097 0
M  V30 3225 C 309.088 1.71626 -0.786757 0
M  V30 3226 O 308.445 1.80908 0.240513 0
M  V30 3227 C 308.496 1.59829 -3.24248 0
M  V30 3228 O 308.217 0.715131 -4.32224 0
M  V30 3229 C 309.718 2.41442 -3.7178 0
M  V30 3230 H 306.938 0.22691 -0.631469 0
M  V30 3231 H 309.482 0.0551439 -2.04426 0
M  V30 3232 H 307.637 2.29163 -3.12351 0
M  V30 3233 H 308.051 1.27205 -5.08841 0
M  V30 3234 H 309.525 2.932 -4.67694 0
M  V30 3235 H 310.002 3.2051 -3.00283 0
M  V30 3236 H 310.608 1.77283 -3.86589 0
M  V30 3237 N 308.923 1.53595 0.353017 0
M  V30 3238 C 310.334 1.61937 0.929153 0
M  V30 3239 C 310.685 0.494686 1.89861 0
M  V30 3240 O 309.81 -0.377017 2.1309 0
M  V30 3241 C 310.405 2.93526 1.69199 0
M  V30 3242 C 308.964 3.04161 2.21727 0
M  V30 3243 C 308.111 2.57322 1.03348 0
M  V30 3244 H 311.062 1.58155 0.131431 0
M  V30 3245 H 311.083 2.82034 2.55416 0
M  V30 3246 H 310.595 3.75362 0.986144 0
M  V30 3247 H 308.696 2.26938 2.95516 0
M  V30 3248 H 308.809 4.09465 2.48748 0
M  V30 3249 H 307.173 2.12499 1.40414 0
M  V30 3250 H 307.956 3.41588 0.342428 0
M  V30 3251 N 310.401 -0.613514 1.45168 0
M  V30 3252 C 311.364 -1.7065 1.53007 0
M  V30 3253 C 312.364 -1.5548 0.410184 0
M  V30 3254 O 313.554 -1.60656 0.673455 0
M  V30 3255 C 310.686 -3.09875 1.42093 0
M  V30 3256 H 311.879 -1.65068 2.50385 0
M  V30 3257 H 309.432 -0.828728 1.32521 0
M  V30 3258 H 310.167 -3.21039 0.458769 0
M  V30 3259 H 309.952 -3.22293 2.23315 0
M  V30 3260 H 311.442 -3.895 1.50598 0
M  V30 3261 N 311.879 -1.3236 -0.855495 0
M  V30 3262 C 312.826 -1.21225 -1.964 0
M  V30 3263 C 313.796 -0.0946204 -1.6583 0
M  V30 3264 O 314.981 -0.27002 -1.8888 0
M  V30 3265 C 312.121 -0.940419 -3.32039 0
M  V30 3266 C 311.234 -2.14276 -3.75113 0
M  V30 3267 C 310.369 -1.80648 -4.9954 0
M  V30 3268 C 309.408 -2.97208 -5.35102 0
M  V30 3269 N 308.545 -2.63678 -6.50706 0
M  V30 3270 H 313.385 -2.16042 -2.05255 0
M  V30 3271 H 310.922 -1.07451 -1.00463 0
M  V30 3272 H 312.88 -0.763311 -4.10158 0
M  V30 3273 H 311.51 -0.0290413 -3.22787 0
M  V30 3274 H 310.562 -2.43017 -2.92655 0
M  V30 3275 H 311.874 -3.01468 -3.97389 0
M  V30 3276 H 311.028 -1.59484 -5.85363 0
M  V30 3277 H 309.767 -0.906678 -4.79198 0
M  V30 3278 H 308.772 -3.19004 -4.47791 0
M  V30 3279 H 309.997 -3.87918 -5.57401 0
M  V30 3280 H 307.943 -1.76238 -6.31883 0
M  V30 3281 H 307.86 -3.444 -6.72997 0
M  V30 3282 H 309.128 -2.45942 -7.39684 0
M  V30 3283 N 313.357 1.07166 -1.15556 0
M  V30 3284 C 314.606 1.79181 -0.926132 0
M  V30 3285 C 314.919 1.87768 0.547967 0
M  V30 3286 O 316.125 2.56323 0.895036 0
M  V30 3287 C 314.581 3.22 -1.60761 0
M  V30 3288 C 314.189 3.21607 -3.11886 0
M  V30 3289 C 315.933 3.9861 -1.4598 0
M  V30 3290 C 313.84 4.59092 -3.72812 0
M  V30 3291 H 312.77 0.67154 -0.342856 0
M  V30 3292 H 315.421 1.2027 -1.3859 0
M  V30 3293 H 313.803 3.81115 -1.07553 0
M  V30 3294 H 314.977 2.72127 -3.71865 0
M  V30 3295 H 313.292 2.58495 -3.2645 0
M  V30 3296 H 315.889 5.00225 -1.88888 0
M  V30 3297 H 316.232 4.143 -0.407541 0
M  V30 3298 H 316.765 3.45996 -1.96295 0
M  V30 3299 H 313.504 4.48606 -4.77946 0
M  V30 3300 H 313.024 5.08803 -3.17616 0
M  V30 3301 H 314.703 5.28059 -3.73848 0
M  V30 3302 N 314.835 0.952656 1.25548 0
M  V30 3303 C 316.084 0.602053 1.92505 0
M  V30 3304 C 316.397 -0.864663 1.75451 0
M  V30 3305 O 317.603 -1.32514 2.36965 0
M  V30 3306 C 316.059 1.02607 3.44963 0
M  V30 3307 C 315.667 2.51519 3.70732 0
M  V30 3308 C 317.411 0.747905 4.1786 0
M  V30 3309 C 315.318 2.87732 5.16686 0
M  V30 3310 H 314.248 0.22146 0.720744 0
M  V30 3311 H 316.899 1.15684 1.42441 0
M  V30 3312 H 315.281 0.399712 3.93978 0
M  V30 3313 H 316.455 3.19157 3.32378 0
M  V30 3314 H 314.77 2.76786 3.11092 0
M  V30 3315 H 317.367 0.994647 5.25367 0
M  V30 3316 H 317.71 -0.315629 4.15102 0
M  V30 3317 H 318.243 1.33452 3.74747 0
M  V30 3318 H 314.982 3.93095 5.24554 0
M  V30 3319 H 314.502 2.24765 5.56094 0
M  V30 3320 H 316.181 2.76817 5.84792 0
M  V30 3321 N 316.313 -1.40141 0.720998 0
M  V30 3322 C 317.59 -1.94677 0.189757 0
M  V30 3323 C 317.97 -1.65879 -1.30566 0
M  V30 3324 O 317.318 -0.979391 -2.06447 0
M  V30 3325 C 317.528 -3.45279 0.508304 0
M  V30 3326 C 318.876 -4.22209 0.449934 0
M  V30 3327 O 319.9 -3.53413 0.444677 0
M  V30 3328 O 318.759 -5.44788 0.432189 0
M  V30 3329 H 315.853 -0.826459 0.0299026 0
M  V30 3330 H 318.399 -1.49719 0.7989 0
M  V30 3331 H 317.171 -3.59619 1.54239 0
M  V30 3332 H 316.794 -3.97386 -0.130525 0
M  V30 3333 N 317.792 -0.46758 -1.50504 0
M  V30 3334 C 319.069 0.15003 -1.95024 0
M  V30 3335 C 319.449 1.57304 -1.40779 0
M  V30 3336 O 318.797 2.20281 -0.607319 0
M  V30 3337 C 319.007 0.0969324 -3.48865 0
M  V30 3338 C 320.355 0.287565 -4.23625 0
M  V30 3339 O 321.379 0.173678 -3.55776 0
M  V30 3340 O 320.238 0.517186 -5.44047 0
M  V30 3341 H 317.332 0.113582 -0.819163 0
M  V30 3342 H 319.878 -0.52773 -1.61286 0
M  V30 3343 H 318.65 -0.896732 -3.80886 0
M  V30 3344 H 318.273 0.816303 -3.8913 0
M  V30 3345 N 319.27 1.56325 -0.20005 0
M  V30 3346 C 320.233 2.18084 0.705132 0
M  V30 3347 C 321.233 1.13666 1.1374 0
M  V30 3348 O 322.423 1.39023 1.04968 0
M  V30 3349 C 319.555 2.78689 1.96329 0
M  V30 3350 H 320.748 2.99435 0.167023 0
M  V30 3351 H 318.301 1.56221 0.0495725 0
M  V30 3352 H 319.036 2.0115 2.5438 0
M  V30 3353 H 318.821 3.55133 1.66202 0
M  V30 3354 H 320.311 3.26096 2.60866 0
M  V30 3355 N 320.748 -0.0735177 1.57428 0
M  V30 3356 C 321.994 -0.774145 1.87443 0
M  V30 3357 C 322.327 -1.77311 0.792103 0
M  V30 3358 O 321.602 -1.93492 -0.197793 0
M  V30 3359 C 321.885 -1.48367 3.28115 0
M  V30 3360 C 321.738 -0.501227 4.46999 0
M  V30 3361 C 323.057 -2.429 3.66998 0
M  V30 3362 H 320.176 -0.279971 0.681752 0
M  V30 3363 H 322.818 -0.0373616 1.89963 0
M  V30 3364 H 320.968 -2.11171 3.26097 0
M  V30 3365 H 322.64 0.121468 4.6114 0
M  V30 3366 H 320.883 0.183593 4.33411 0
M  V30 3367 H 321.554 -1.03526 5.42205 0
M  V30 3368 H 324.03 -1.90175 3.70098 0
M  V30 3369 H 322.906 -2.89549 4.66318 0
M  V30 3370 H 323.167 -3.27628 2.96837 0
M  V30 3371 N 322.226 -1.5378 -0.344866 0
M  V30 3372 C 323.189 -1.80981 -1.40637 0
M  V30 3373 C 324.189 -0.680816 -1.45676 0
M  V30 3374 O 325.379 -0.949095 -1.46075 0
M  V30 3375 C 322.511 -1.95063 -2.79577 0
M  V30 3376 H 323.704 -2.75803 -1.17783 0
M  V30 3377 H 321.257 -1.45173 -0.579181 0
M  V30 3378 H 321.992 -1.02379 -3.07716 0
M  V30 3379 H 321.777 -2.77198 -2.77315 0
M  V30 3380 H 323.267 -2.17629 -3.56409 0
M  V30 3381 N 323.704 0.605807 -1.45491 0
M  V30 3382 C 325.12 0.926751 -1.29936 0
M  V30 3383 C 325.32 1.99896 -0.253706 0
M  V30 3384 O 324.376 2.50038 0.351737 0
M  V30 3385 C 325.689 1.36599 -2.67883 0
M  V30 3386 C 327.237 1.4801 -2.75793 0
M  V30 3387 C 327.712 1.95309 -4.14268 0
M  V30 3388 N 329.203 2.0254 -4.16571 0
M  V30 3389 C 329.938 2.40363 -5.20589 0
M  V30 3390 N 329.434 2.77143 -6.34952 0
M  V30 3391 N 331.227 2.40718 -5.07948 0
M  V30 3392 H 323.378 -0.102862 -2.12151 0
M  V30 3393 H 325.641 0.016639 -0.947854 0
M  V30 3394 H 325.347 0.652306 -3.45598 0
M  V30 3395 H 325.221 2.33215 -2.96463 0
M  V30 3396 H 327.608 2.1847 -1.98381 0
M  V30 3397 H 327.689 0.497041 -2.50925 0
M  V30 3398 H 327.333 1.25436 -4.92167 0
M  V30 3399 H 327.263 2.94532 -4.3653 0
M  V30 3400 H 329.754 1.76699 -3.34045 0
M  V30 3401 H 330.067 3.0489 -7.10114 0
M  V30 3402 H 328.412 2.74834 -6.3835 0
M  V30 3403 H 331.603 2.11392 -4.1765 0
M  V30 3404 H 331.776 2.69869 -5.89131 0
M  V30 3405 N 325.182 1.32811 0.848464 0
M  V30 3406 C 326.431 1.23075 1.59798 0
M  V30 3407 C 326.744 -0.204419 1.94529 0
M  V30 3408 O 327.95 -0.423701 2.68173 0
M  V30 3409 C 326.406 2.15594 2.88179 0
M  V30 3410 C 326.014 3.64228 2.60849 0
M  V30 3411 C 327.758 2.14709 3.66197 0
M  V30 3412 C 325.665 4.48689 3.85269 0
M  V30 3413 H 324.595 0.457091 0.599653 0
M  V30 3414 H 327.246 1.57813 0.936342 0
M  V30 3415 H 325.628 1.73778 3.55833 0
M  V30 3416 H 326.802 4.14424 2.01467 0
M  V30 3417 H 325.117 3.67306 1.96151 0
M  V30 3418 H 327.714 2.75046 4.58534 0
M  V30 3419 H 328.057 1.13966 4.00397 0
M  V30 3420 H 328.59 2.54837 3.05455 0
M  V30 3421 H 325.329 5.5027 3.56207 0
M  V30 3422 H 324.849 4.03241 4.44024 0
M  V30 3423 H 326.528 4.62006 4.52946 0
M  V30 3424 N 326.66 -1.06551 1.16123 0
M  V30 3425 C 328.076 -1.3142 0.905585 0
M  V30 3426 C 328.276 -1.96571 -0.442964 0
M  V30 3427 O 327.332 -2.23068 -1.18308 0
M  V30 3428 C 328.645 -2.19741 2.05267 0
M  V30 3429 C 330.193 -2.33165 2.08813 0
M  V30 3430 C 330.668 -3.24838 3.22868 0
M  V30 3431 N 332.159 -3.32421 3.22568 0
M  V30 3432 C 332.894 -4.0344 4.0746 0
M  V30 3433 N 332.39 -4.77003 5.02434 0
M  V30 3434 N 334.183 -3.99464 3.95456 0
M  V30 3435 H 326.334 -0.626548 2.02949 0
M  V30 3436 H 328.597 -0.338777 0.8854 0
M  V30 3437 H 328.303 -1.79142 3.02657 0
M  V30 3438 H 328.177 -3.20313 1.99198 0
M  V30 3439 H 330.564 -2.73013 1.12018 0
M  V30 3440 H 330.645 -1.3227 2.18948 0
M  V30 3441 H 330.289 -2.85708 4.19921 0
M  V30 3442 H 330.219 -4.25707 3.0997 0
M  V30 3443 H 332.71 -2.79994 2.53795 0
M  V30 3444 H 333.023 -5.28712 5.63634 0
M  V30 3445 H 331.368 -4.75992 5.06415 0
M  V30 3446 H 334.559 -3.4111 3.20564 0
M  V30 3447 H 334.732 -4.54544 4.61837 0
M  V30 3448 N 328.138 -0.959301 -1.25041 0
M  V30 3449 C 329.048 -0.489994 -2.29426 0
M  V30 3450 C 330.064 0.444944 -1.68215 0
M  V30 3451 O 331.24 0.320046 -1.98841 0
M  V30 3452 C 328.305 0.220309 -3.45999 0
M  V30 3453 C 327.366 -0.753418 -4.22637 0
M  V30 3454 C 326.599 -0.076918 -5.33645 0
M  V30 3455 O 326.822 1.13649 -5.58963 0
M  V30 3456 O 325.756 -0.764824 -5.97021 0
M  V30 3457 H 329.582 -1.35755 -2.71669 0
M  V30 3458 H 327.167 -0.725961 -1.30576 0
M  V30 3459 H 329.049 0.619677 -4.16819 0
M  V30 3460 H 327.724 1.06296 -3.0575 0
M  V30 3461 H 326.631 -1.20308 -3.54227 0
M  V30 3462 H 327.964 -1.56423 -4.66683 0
M  V30 3463 N 329.616 1.39756 -0.72842 0
M  V30 3464 C 330.548 2.29157 -0.0446202 0
M  V30 3465 C 331.561 1.46484 0.710367 0
M  V30 3466 O 332.75 1.69632 0.55562 0
M  V30 3467 C 329.85 3.24987 0.961071 0
M  V30 3468 C 329.023 4.36572 0.268967 0
M  V30 3469 C 328.082 5.12756 1.18184 0
M  V30 3470 O 327.108 5.6534 0.661794 0
M  V30 3471 N 328.31 5.23331 2.51206 0
M  V30 3472 H 331.075 2.88482 -0.812295 0
M  V30 3473 H 328.636 1.51265 -0.577098 0
M  V30 3474 H 330.628 3.72827 1.57423 0
M  V30 3475 H 329.198 2.66739 1.63 0
M  V30 3476 H 328.418 3.90694 -0.524574 0
M  V30 3477 H 329.706 5.08363 -0.210934 0
M  V30 3478 H 329.104 4.82116 2.9594 0
M  V30 3479 H 327.661 5.74634 3.07634 0
M  V30 3480 N 331.094 0.475555 1.50254 0
M  V30 3481 C 332.34 -0.0780073 2.0265 0
M  V30 3482 C 332.673 -1.38968 1.35652 0
M  V30 3483 O 331.948 -1.8839 0.483691 0
M  V30 3484 C 332.231 -0.257161 3.59181 0
M  V30 3485 C 332.084 1.07585 4.36744 0
M  V30 3486 C 333.403 -1.00965 4.28362 0
M  V30 3487 H 330.522 -0.0268758 0.73651 0
M  V30 3488 H 333.164 0.622015 1.7953 0
M  V30 3489 H 331.314 -0.853412 3.79011 0
M  V30 3490 H 332.986 1.70902 4.28474 0
M  V30 3491 H 331.229 1.6714 4.00308 0
M  V30 3492 H 331.9 0.904088 5.44546 0
M  V30 3493 H 334.376 -0.504214 4.13034 0
M  V30 3494 H 333.252 -1.10381 5.37687 0
M  V30 3495 H 333.513 -2.04731 3.91839 0
M  V30 3496 N 332.573 -1.56217 0.208337 0
M  V30 3497 C 333.821 -1.97558 -0.426076 0
M  V30 3498 C 334.142 -1.09683 -1.61229 0
M  V30 3499 O 333.412 -0.170956 -1.95153 0
M  V30 3500 H 331.992 -0.729575 -0.160405 0
M  V30 3501 H 334.654 -1.92606 0.298155 0
M  V30 3502 H 333.75 -3.02672 -0.761312 0
M  V30 3503 N 334.051 0.0651679 -1.57465 0
M  V30 3504 C 335.328 0.79644 -1.78651 0
M  V30 3505 C 335.708 1.95454 -0.797566 0
M  V30 3506 O 335.056 2.27882 0.167946 0
M  V30 3507 C 335.266 1.26322 -3.25337 0
M  V30 3508 C 336.614 1.6939 -3.89348 0
M  V30 3509 O 337.638 1.35872 -3.29268 0
M  V30 3510 O 336.497 2.31471 -4.95059 0
M  V30 3511 H 333.591 0.382157 -0.733407 0
M  V30 3512 H 336.137 0.0447311 -1.69641 0
M  V30 3513 H 334.909 0.434859 -3.88876 0
M  V30 3514 H 334.532 2.07604 -3.39096 0
M  V30 3515 N 335.529 1.53961 0.336706 0
M  V30 3516 C 336.806 1.62171 1.09361 0
M  V30 3517 C 337.186 0.447263 2.06307 0
M  V30 3518 O 336.534 -0.559802 2.21537 0
M  V30 3519 C 336.744 2.98565 1.80721 0
M  V30 3520 C 338.092 3.54157 2.34218 0
M  V30 3521 O 339.116 3.00784 1.90807 0
M  V30 3522 O 337.975 4.47528 3.13657 0
M  V30 3523 H 335.069 0.6562 0.503319 0
M  V30 3524 H 337.615 1.66307 0.33765 0
M  V30 3525 H 336.387 3.75482 1.10132 0
M  V30 3526 H 336.01 2.9805 2.63158 0
M  V30 3527 N 337.007 -0.598083 1.45811 0
M  V30 3528 C 337.954 -1.7082 1.55207 0
M  V30 3529 C 338.924 -1.61278 0.39732 0
M  V30 3530 O 340.109 -1.80717 0.612038 0
M  V30 3531 C 337.249 -3.09144 1.53376 0
M  V30 3532 C 336.362 -3.29423 2.79472 0
M  V30 3533 C 335.497 -4.57907 2.69248 0
M  V30 3534 C 334.536 -4.71476 3.90354 0
M  V30 3535 N 333.673 -5.9127 3.78608 0
M  V30 3536 H 338.513 -1.62125 2.50039 0
M  V30 3537 H 336.05 -0.790389 1.24062 0
M  V30 3538 H 338.008 -3.89186 1.50301 0
M  V30 3539 H 336.638 -3.16773 0.620876 0
M  V30 3540 H 335.69 -2.43091 2.92594 0
M  V30 3541 H 337.002 -3.3532 3.69272 0
M  V30 3542 H 336.156 -5.46157 2.64192 0
M  V30 3543 H 334.895 -4.54423 1.77063 0
M  V30 3544 H 333.9 -3.81648 3.95759 0
M  V30 3545 H 335.125 -4.76751 4.83617 0
M  V30 3546 H 333.071 -5.88813 2.89199 0
M  V30 3547 H 332.988 -5.98369 4.6205 0
M  V30 3548 H 334.256 -6.81992 3.77501 0
M  V30 3549 N 338.485 -1.33259 -0.841409 0
M  V30 3550 C 339.731 -1.24757 -1.59886 0
M  V30 3551 C 340.064 0.186913 -1.93298 0
M  V30 3552 O 339.339 1.12757 -1.5848 0
M  V30 3553 C 339.622 -2.12036 -2.91055 0
M  V30 3554 C 339.475 -3.63929 -2.6434 0
M  V30 3555 C 340.794 -1.9916 -3.92458 0
M  V30 3556 H 337.913 -0.454542 -0.580138 0
M  V30 3557 H 340.555 -1.63335 -0.970647 0
M  V30 3558 H 338.705 -1.79265 -3.44669 0
M  V30 3559 H 340.377 -4.06978 -2.17178 0
M  V30 3560 H 338.62 -3.85935 -1.98082 0
M  V30 3561 H 339.291 -4.20341 -3.57796 0
M  V30 3562 H 341.767 -2.27895 -3.48143 0
M  V30 3563 H 340.643 -2.62484 -4.82072 0
M  V30 3564 H 340.904 -0.963082 -4.31482 0
M  V30 3565 N 339.963 1.05934 -1.16686 0
M  V30 3566 C 341.212 1.78188 -0.945085 0
M  V30 3567 C 341.525 1.88338 0.528021 0
M  V30 3568 O 342.731 2.57258 0.867799 0
M  V30 3569 C 341.187 3.20277 -1.64167 0
M  V30 3570 C 340.795 3.18281 -3.15279 0
M  V30 3571 C 342.539 3.97039 -1.502 0
M  V30 3572 C 340.446 4.55112 -3.7766 0
M  V30 3573 H 339.376 0.667866 -0.349959 0
M  V30 3574 H 342.027 1.18794 -1.39858 0
M  V30 3575 H 340.409 3.79952 -1.11589 0
M  V30 3576 H 341.583 2.68167 -3.74731 0
M  V30 3577 H 339.898 2.55018 -3.29173 0
M  V30 3578 H 342.495 4.98194 -1.94183 0
M  V30 3579 H 342.838 4.13845 -0.451461 0
M  V30 3580 H 343.371 3.43894 -1.99954 0
M  V30 3581 H 340.11 4.43512 -4.82677 0
M  V30 3582 H 339.63 5.05406 -3.22994 0
M  V30 3583 H 341.309 5.24064 -3.79428 0
M  V30 3584 N 341.441 0.965919 1.2453 0
M  V30 3585 C 342.371 0.513476 2.27784 0
M  V30 3586 C 343.352 -0.445974 1.6415 0
M  V30 3587 O 344.537 -0.342485 1.91156 0
M  V30 3588 C 341.667 -0.198839 3.4673 0
M  V30 3589 C 340.621 0.676456 4.2262 0
M  V30 3590 C 339.947 -0.167248 5.34438 0
M  V30 3591 C 341.247 1.96017 4.84123 0
M  V30 3592 H 342.941 1.3765 2.65881 0
M  V30 3593 H 340.487 0.663321 1.27813 0
M  V30 3594 H 342.44 -0.526567 4.18097 0
M  V30 3595 H 341.164 -1.0962 3.07654 0
M  V30 3596 H 339.823 0.98743 3.53052 0
M  V30 3597 H 339.471 -1.0647 4.91603 0
M  V30 3598 H 339.171 0.415181 5.86131 0
M  V30 3599 H 340.695 -0.489688 6.08633 0
M  V30 3600 H 342.109 1.69814 5.47573 0
M  V30 3601 H 340.506 2.48918 5.4604 0
M  V30 3602 H 341.576 2.65622 4.05676 0
M  V30 3603 N 342.919 -1.39368 0.735821 0
M  V30 3604 C 344.167 -2.00101 0.283562 0
M  V30 3605 C 344.488 -1.5868 -1.13338 0
M  V30 3606 O 343.758 -0.835423 -1.77193 0
M  V30 3607 H 342.338 -0.740024 0.101851 0
M  V30 3608 H 345 -1.70404 0.945962 0
M  V30 3609 H 344.096 -3.10323 0.332604 0
M  V30 3610 N 344.397 -0.483516 -1.5 0
M  V30 3611 C 345.327 0.293829 -2.31644 0
M  V30 3612 C 346.308 0.978864 -1.39112 0
M  V30 3613 O 347.493 0.973644 -1.68029 0
M  V30 3614 C 344.623 1.36897 -3.19181 0
M  V30 3615 C 343.577 0.804833 -4.20365 0
M  V30 3616 C 342.903 1.9792 -4.96721 0
M  V30 3617 C 344.203 -0.192313 -5.21946 0
M  V30 3618 H 345.897 -0.387616 -2.9688 0
M  V30 3619 H 343.443 -0.187856 -1.42769 0
M  V30 3620 H 345.396 1.92037 -3.751 0
M  V30 3621 H 344.12 2.07936 -2.51853 0
M  V30 3622 H 342.779 0.275319 -3.65565 0
M  V30 3623 H 342.427 2.67686 -4.25856 0
M  V30 3624 H 342.127 1.60789 -5.65173 0
M  V30 3625 H 343.651 2.53526 -5.55479 0
M  V30 3626 H 345.065 0.270333 -5.72662 0
M  V30 3627 H 343.462 -0.478543 -5.98189 0
M  V30 3628 H 344.532 -1.11409 -4.71928 0
M  V30 3629 N 345.875 1.56104 -0.216619 0
M  V30 3630 C 347.1 2.0301 0.424462 0
M  V30 3631 C 347.525 1.0955 1.52907 0
M  V30 3632 O 346.883 0.0827914 1.81111 0
M  V30 3633 C 346.931 3.4819 0.937883 0
M  V30 3634 O 346.035 3.57865 2.04955 0
M  V30 3635 H 345.376 0.656925 0.0966755 0
M  V30 3636 H 347.906 2.01859 -0.33381 0
M  V30 3637 H 347.916 3.88413 1.24897 0
M  V30 3638 H 346.591 4.15699 0.129387 0
M  V30 3639 H 345.168 3.29527 1.74546 0
M  V30 3640 N 347.353 -0.0568162 1.57498 0
M  V30 3641 C 348.601 -0.751617 1.87604 0
M  V30 3642 C 348.922 -1.77351 0.81066 0
M  V30 3643 O 348.192 -1.95254 -0.159018 0
M  V30 3644 H 346.772 -0.280583 0.692302 0
M  V30 3645 H 349.434 -0.0293483 1.94878 0
M  V30 3646 H 348.53 -1.25852 2.856 0
M  V30 3647 N 348.832 -1.54138 -0.328536 0
M  V30 3648 C 350.08 -1.71765 -1.06496 0
M  V30 3649 C 350.401 -0.49149 -1.88704 0
M  V30 3650 O 349.671 0.494539 -1.89555 0
M  V30 3651 H 348.251 -0.633295 -0.396164 0
M  V30 3652 H 350.913 -1.91429 -0.366176 0
M  V30 3653 H 350.009 -2.5951 -1.73381 0
M  V30 3654 N 350.31 0.590341 -1.46126 0
M  V30 3655 C 351.556 1.35082 -1.51264 0
M  V30 3656 C 351.889 1.93534 -0.160711 0
M  V30 3657 O 351.164 1.76045 0.826956 0
M  V30 3658 C 351.447 2.48588 -2.6053 0
M  V30 3659 C 351.3 1.95221 -4.05227 0
M  V30 3660 C 352.619 3.50662 -2.6594 0
M  V30 3661 H 349.738 0.489803 -0.550692 0
M  V30 3662 H 352.38 0.663887 -1.78024 0
M  V30 3663 H 350.53 3.07186 -2.37843 0
M  V30 3664 H 352.202 1.41139 -4.39178 0
M  V30 3665 H 350.445 1.26101 -4.15068 0
M  V30 3666 H 351.116 2.77121 -4.77397 0
M  V30 3667 H 353.592 3.01934 -2.86313 0
M  V30 3668 H 352.468 4.27551 -3.44226 0
M  V30 3669 H 352.729 4.07399 -1.71694 0
M  V30 3670 N 351.788 1.33704 0.83433 0
M  V30 3671 C 353.065 1.16011 1.57483 0
M  V30 3672 C 353.445 -0.27176 2.09343 0
M  V30 3673 O 352.793 -1.27146 1.89858 0
M  V30 3674 C 353.003 2.20507 2.70514 0
M  V30 3675 C 354.351 2.54898 3.39577 0
M  V30 3676 O 355.375 2.19209 2.80759 0
M  V30 3677 O 354.234 3.16158 4.45765 0
M  V30 3678 H 351.328 0.448992 0.694503 0
M  V30 3679 H 353.874 1.453 0.876691 0
M  V30 3680 H 352.646 3.16667 2.29865 0
M  V30 3681 H 352.269 1.92329 3.47987 0
M  V30 3682 N 353.266 -1.05314 1.17247 0
M  V30 3683 C 354.491 -1.82509 0.985148 0
M  V30 3684 C 354.916 -1.82343 -0.461788 0
M  V30 3685 O 354.274 -1.23151 -1.33055 0
M  V30 3686 C 354.322 -3.26566 1.52929 0
M  V30 3687 O 353.426 -4.05666 0.742225 0
M  V30 3688 H 352.767 -0.564347 0.349869 0
M  V30 3689 H 355.297 -1.32718 1.55715 0
M  V30 3690 H 355.307 -3.77369 1.55103 0
M  V30 3691 H 353.982 -3.26001 2.58256 0
M  V30 3692 H 352.559 -3.64397 0.791794 0
M  V30 3693 N 354.744 -0.972509 -1.24016 0
M  V30 3694 C 355.969 -0.654417 -1.96805 0
M  V30 3695 C 356.394 0.770398 -1.716 0
M  V30 3696 O 355.752 1.52361 -0.982647 0
M  V30 3697 C 355.8 -0.941031 -3.48105 0
M  V30 3698 O 354.904 -0.0289472 -4.1239 0
M  V30 3699 H 354.245 -0.24692 -0.616382 0
M  V30 3700 H 356.775 -1.30396 -1.57664 0
M  V30 3701 H 356.785 -0.87452 -3.98517 0
M  V30 3702 H 355.46 -1.97939 -3.65777 0
M  V30 3703 H 354.037 -0.149192 -3.72601 0
M  V30 3704 N 356.222 1.38976 -0.743202 0
M  V30 3705 C 357.468 2.0064 -0.295189 0
M  V30 3706 C 357.801 1.5885 1.11716 0
M  V30 3707 O 357.076 0.821181 1.76315 0
M  V30 3708 C 357.359 3.578 -0.406318 0
M  V30 3709 C 357.212 4.09586 -1.85903 0
M  V30 3710 C 358.531 4.39616 0.206439 0
M  V30 3711 H 355.65 0.728935 -0.108733 0
M  V30 3712 H 358.292 1.65067 -0.940897 0
M  V30 3713 H 356.442 3.88235 0.143419 0
M  V30 3714 H 358.114 3.89837 -2.46627 0
M  V30 3715 H 356.357 3.6284 -2.3776 0
M  V30 3716 H 357.028 5.18708 -1.888 0
M  V30 3717 H 359.504 4.15273 -0.262283 0
M  V30 3718 H 358.38 5.48812 0.0983819 0
M  V30 3719 H 358.641 4.22754 1.2935 0
M  V30 3720 N 357.7 0.491464 1.49741 0
M  V30 3721 C 358.928 -0.0535151 2.06831 0
M  V30 3722 C 359.343 -1.31683 1.35296 0
M  V30 3723 O 358.7 -1.77402 0.42836 0
M  V30 3724 C 358.751 -0.320835 3.60073 0
M  V30 3725 O 358.472 0.892394 4.28915 0
M  V30 3726 C 359.973 -0.910519 4.33848 0
M  V30 3727 H 357.193 0.0161909 0.670805 0
M  V30 3728 H 359.737 0.68609 1.92647 0
M  V30 3729 H 357.892 -1.0104 3.73991 0
M  V30 3730 H 358.306 0.649401 5.20464 0
M  V30 3731 H 359.78 -1.04721 5.41976 0
M  V30 3732 H 360.257 -1.90589 3.95692 0
M  V30 3733 H 360.863 -0.258712 4.24512 0
M  V30 3734 N 359.178 -1.55987 0.224894 0
M  V30 3735 C 360.141 -2.19178 -0.670348 0
M  V30 3736 C 361.141 -1.15461 -1.11917 0
M  V30 3737 O 362.331 -1.40675 -1.02743 0
M  V30 3738 C 359.463 -2.81777 -1.9187 0
M  V30 3739 H 360.656 -2.99662 -0.119364 0
M  V30 3740 H 358.209 -1.5628 -0.0247128 0
M  V30 3741 H 358.944 -2.05172 -2.51147 0
M  V30 3742 H 358.729 -3.57732 -1.60531 0
M  V30 3743 H 360.219 -3.30205 -2.55645 0
M  V30 3744 N 360.656 0.0484629 -1.57525 0
M  V30 3745 C 361.589 1.08755 -2.00618 0
M  V30 3746 C 362.567 1.36272 -0.887058 0
M  V30 3747 O 363.751 1.49255 -1.15131 0
M  V30 3748 C 360.878 2.42675 -2.36277 0
M  V30 3749 C 359.924 2.31142 -3.58435 0
M  V30 3750 S 360.757 1.68326 -5.08357 0
M  V30 3751 C 361.913 3.03776 -5.47239 0
M  V30 3752 H 362.146 0.720415 -2.88439 0
M  V30 3753 H 359.679 0.257801 -1.52233 0
M  V30 3754 H 361.637 3.19699 -2.57494 0
M  V30 3755 H 360.298 2.76541 -1.48942 0
M  V30 3756 H 359.491 3.29957 -3.80978 0
M  V30 3757 H 359.093 1.62258 -3.36969 0
M  V30 3758 H 361.385 4.00106 -5.46737 0
M  V30 3759 H 362.328 2.85988 -6.47778 0
M  V30 3760 H 362.736 3.05456 -4.74718 0
M  V30 3761 N 362.134 1.5431 0.320358 0
M  V30 3762 C 363.064 1.86912 1.3995 0
M  V30 3763 C 364.045 0.726211 1.53819 0
M  V30 3764 O 365.23 0.980233 1.67646 0
M  V30 3765 C 362.36 2.09932 2.7667 0
M  V30 3766 C 361.314 3.25776 2.77586 0
M  V30 3767 C 360.64 3.34173 4.17412 0
M  V30 3768 C 361.94 4.6335 2.41048 0
M  V30 3769 H 363.634 2.77292 1.12914 0
M  V30 3770 H 361.18 1.33421 0.541738 0
M  V30 3771 H 363.133 2.31324 3.52232 0
M  V30 3772 H 361.857 1.16304 3.0519 0
M  V30 3773 H 360.516 3.04276 2.04479 0
M  V30 3774 H 360.164 2.38098 4.43078 0
M  V30 3775 H 359.864 4.12033 4.18931 0
M  V30 3776 H 361.388 3.57803 4.94782 0
M  V30 3777 H 362.802 4.84602 3.06324 0
M  V30 3778 H 361.199 5.43782 2.53813 0
M  V30 3779 H 362.269 4.65381 1.36193 0
M  V30 3780 N 363.613 -0.582584 1.46437 0
M  V30 3781 C 364.543 -1.70187 1.59871 0
M  V30 3782 C 365.524 -1.64066 0.449042 0
M  V30 3783 O 366.709 -1.82081 0.6753 0
M  V30 3784 C 363.839 -3.08827 1.58881 0
M  V30 3785 C 362.793 -3.29779 2.72819 0
M  V30 3786 C 362.119 -4.68947 2.5689 0
M  V30 3787 C 363.419 -3.17601 4.1464 0
M  V30 3788 H 365.113 -1.592 2.53566 0
M  V30 3789 H 362.659 -0.764472 1.22032 0
M  V30 3790 H 364.612 -3.86951 1.66873 0
M  V30 3791 H 363.336 -3.20713 0.617306 0
M  V30 3792 H 361.995 -2.54054 2.64296 0
M  V30 3793 H 361.643 -4.77599 1.57823 0
M  V30 3794 H 361.343 -4.83919 3.33312 0
M  V30 3795 H 362.867 -5.4924 2.66773 0
M  V30 3796 H 364.281 -3.8557 4.24274 0
M  V30 3797 H 362.678 -3.44094 4.9165 0
M  V30 3798 H 363.748 -2.14681 4.34788 0
M  V30 3799 N 365.091 -1.34144 -0.827227 0
M  V30 3800 C 366.041 -1.21923 -1.92663 0
M  V30 3801 C 367.025 -0.119294 -1.60457 0
M  V30 3802 O 368.217 -0.348539 -1.73534 0
M  V30 3803 C 365.346 -0.972492 -3.29238 0
M  V30 3804 C 364.432 -2.1154 -3.67576 0
M  V30 3805 N 364.823 -3.36627 -3.77512 0
M  V30 3806 C 363.121 -2.02468 -3.97395 0
M  V30 3807 C 363.822 -4.11658 -4.1099 0
M  V30 3808 N 362.798 -3.40207 -4.23981 0
M  V30 3809 H 366.6 -2.16721 -1.98517 0
M  V30 3810 H 364.114 -1.2632 -1.02064 0
M  V30 3811 H 366.111 -0.865847 -4.0781 0
M  V30 3812 H 364.771 -0.0331509 -3.24683 0
M  V30 3813 H 365.782 -3.71234 -3.61118 0
M  V30 3814 H 362.459 -1.16265 -4.00985 0
M  V30 3815 H 363.849 -5.19657 -4.25918 0
M  V30 3816 N 366.569 1.04691 -1.17803 0
M  V30 3817 C 367.985 1.29963 -0.926379 0
M  V30 3818 C 368.185 1.97251 0.411635 0
M  V30 3819 O 367.241 2.24922 1.14744 0
M  V30 3820 C 368.554 2.16447 -2.08737 0
M  V30 3821 C 370.102 2.29814 -2.12496 0
M  V30 3822 C 370.577 3.19661 -3.27995 0
M  V30 3823 N 372.068 3.27247 -3.27816 0
M  V30 3824 C 372.803 3.96906 -4.13827 0
M  V30 3825 N 372.299 4.6895 -5.09959 0
M  V30 3826 N 374.092 3.93122 -4.01761 0
M  V30 3827 H 366.243 0.594182 -2.0392 0
M  V30 3828 H 368.506 0.324649 -0.890678 0
M  V30 3829 H 368.212 1.74304 -3.05469 0
M  V30 3830 H 368.086 3.17103 -2.04268 0
M  V30 3831 H 370.473 2.71196 -1.16347 0
M  V30 3832 H 370.554 1.2877 -2.21025 0
M  V30 3833 H 370.198 2.78991 -4.24413 0
M  V30 3834 H 370.128 4.20722 -3.16703 0
M  V30 3835 H 372.619 2.75921 -2.58217 0
M  V30 3836 H 372.932 5.19679 -5.71974 0
M  V30 3837 H 371.277 4.67875 -5.13924 0
M  V30 3838 H 374.468 3.35967 -3.2595 0
M  V30 3839 H 374.641 4.47139 -4.6901 0
M  V30 3840 N 368.047 0.979072 1.23499 0
M  V30 3841 C 369.01 0.523244 2.23147 0
M  V30 3842 C 370.01 -0.386406 1.56088 0
M  V30 3843 O 371.2 -0.180283 1.73265 0
M  V30 3844 C 368.332 -0.240739 3.40049 0
M  V30 3845 H 369.525 1.40432 2.64989 0
M  V30 3846 H 367.078 0.764824 1.36309 0
M  V30 3847 H 367.813 -1.13841 3.03662 0
M  V30 3848 H 367.598 0.412207 3.89927 0
M  V30 3849 H 369.088 -0.548297 4.13985 0
M  V30 3850 N 369.525 -1.3858 0.750561 0
M  V30 3851 C 370.774 -1.99424 0.302172 0
M  V30 3852 C 371.087 -1.60254 -1.12152 0
M  V30 3853 O 372.293 -2.14046 -1.67023 0
M  V30 3854 C 370.749 -3.56558 0.489307 0
M  V30 3855 C 370.357 -4.04682 1.92189 0
M  V30 3856 C 372.101 -4.24374 0.103478 0
M  V30 3857 C 370.008 -5.54446 2.05775 0
M  V30 3858 H 368.938 -0.746046 0.10923 0
M  V30 3859 H 371.589 -1.58383 0.92667 0
M  V30 3860 H 369.971 -3.95472 -0.204329 0
M  V30 3861 H 371.145 -3.77065 2.64875 0
M  V30 3862 H 369.46 -3.4958 2.26236 0
M  V30 3863 H 372.057 -5.34384 0.183787 0
M  V30 3864 H 372.4 -4.05468 -0.943481 0
M  V30 3865 H 372.933 -3.90688 0.748854 0
M  V30 3866 H 369.672 -5.78252 3.08714 0
M  V30 3867 H 369.192 -5.83816 1.37546 0
M  V30 3868 H 370.871 -6.20099 1.84626 0
M  V30 3869 N 371.003 -0.499398 -1.49478 0
M  V30 3870 C 372.251 0.0455996 -2.02049 0
M  V30 3871 C 372.572 1.37633 -1.38138 0
M  V30 3872 O 371.842 1.8842 -0.536166 0
M  V30 3873 H 370.422 0.0198416 -0.746736 0
M  V30 3874 H 373.084 -0.656274 -1.83519 0
M  V30 3875 H 372.18 0.176445 -3.11601 0
M  V30 3876 N 372.481 1.55866 -0.233164 0
M  V30 3877 C 373.428 2.20796 0.67215 0
M  V30 3878 C 374.398 1.16731 1.18166 0
M  V30 3879 O 375.583 1.45129 1.23864 0
M  V30 3880 C 372.723 2.90072 1.86955 0
M  V30 3881 C 371.836 4.08759 1.39786 0
M  V30 3882 C 370.971 4.65787 2.55374 0
M  V30 3883 C 370.01 5.76752 2.04998 0
M  V30 3884 N 369.147 6.28021 3.13901 0
M  V30 3885 H 373.987 2.9779 0.111749 0
M  V30 3886 H 371.524 1.47036 0.0434007 0
M  V30 3887 H 373.482 3.28428 2.57276 0
M  V30 3888 H 372.112 2.15575 2.40265 0
M  V30 3889 H 371.164 3.7581 0.589173 0
M  V30 3890 H 372.476 4.88906 0.98856 0
M  V30 3891 H 371.63 5.06646 3.33758 0
M  V30 3892 H 370.369 3.84828 2.99598 0
M  V30 3893 H 369.374 5.35383 1.25079 0
M  V30 3894 H 370.599 6.59553 1.61759 0
M  V30 3895 H 368.545 5.49971 3.57586 0
M  V30 3896 H 368.462 7.03323 2.7726 0
M  V30 3897 H 369.73 6.73538 3.92386 0
M  V30 3898 N 373.959 -0.0401083 1.57549 0
M  V30 3899 C 374.907 -1.06264 2.06908 0
M  V30 3900 C 375.901 -1.38132 0.980608 0
M  V30 3901 O 377.107 -1.37167 1.16556 0
M  V30 3902 H 373.482 -0.360166 0.660139 0
M  V30 3903 H 375.453 -0.620445 2.91878 0
M  V30 3904 C 374.202 -2.35846 2.55483 0
M  V30 3905 H 373.525 -2.12183 3.38849 0
M  V30 3906 H 374.965 -3.05765 2.93741 0
M  V30 3907 C 373.424 -3.0404 1.45126 0
M  V30 3908 O 373.954 -3.93424 0.811216 0
M  V30 3909 N 372.16 -2.65184 1.18852 0
M  V30 3910 H 371.707 -1.92584 1.71083 0
M  V30 3911 H 371.665 -3.1113 0.452244 0
M  V30 3912 N 375.437 -1.54477 -0.31217 0
M  V30 3913 C 376.367 -1.87652 -1.38957 0
M  V30 3914 C 377.348 -0.734358 -1.53431 0
M  V30 3915 O 378.533 -0.98911 -1.67123 0
M  V30 3916 C 375.663 -2.11396 -2.75552 0
M  V30 3917 C 374.617 -3.27243 -2.75855 0
M  V30 3918 C 373.943 -3.36382 -4.15633 0
M  V30 3919 C 375.243 -4.64622 -2.38587 0
M  V30 3920 H 376.937 -2.77887 -1.11442 0
M  V30 3921 H 374.483 -1.33707 -0.534655 0
M  V30 3922 H 376.436 -2.33189 -3.51 0
M  V30 3923 H 375.16 -1.17921 -3.04569 0
M  V30 3924 H 373.819 -3.05356 -2.02863 0
M  V30 3925 H 373.467 -2.40445 -4.41809 0
M  V30 3926 H 373.167 -4.14249 -4.1674 0
M  V30 3927 H 374.691 -3.60422 -4.92877 0
M  V30 3928 H 376.105 -4.86219 -3.03749 0
M  V30 3929 H 374.502 -5.45121 -2.50925 0
M  V30 3930 H 375.572 -4.66097 -1.33723 0
M  V30 3931 N 376.915 0.57481 -1.46744 0
M  V30 3932 C 378.143 1.35856 -1.56047 0
M  V30 3933 C 378.558 1.87691 -0.204365 0
M  V30 3934 O 377.915 1.64049 0.79963 0
M  V30 3935 C 377.966 2.54066 -2.57163 0
M  V30 3936 O 377.687 2.04377 -3.87507 0
M  V30 3937 C 379.188 3.46514 -2.76483 0
M  V30 3938 H 376.408 0.414754 -0.527466 0
M  V30 3939 H 378.952 0.698035 -1.92218 0
M  V30 3940 H 377.107 3.16092 -2.23974 0
M  V30 3941 H 377.521 2.81419 -4.4261 0
M  V30 3942 H 378.995 4.25919 -3.51137 0
M  V30 3943 H 379.472 3.98951 -1.83671 0
M  V30 3944 H 380.078 2.90318 -3.10799 0
M  V30 3945 N 378.394 1.34581 0.820102 0
M  V30 3946 C 379.634 1.28448 1.58998 0
M  V30 3947 C 379.998 -0.142883 1.91468 0
M  V30 3948 O 381.199 -0.328422 2.66786 0
M  V30 3949 C 379.47 2.153 2.85273 0
M  V30 3950 S 381.029 2.26548 3.75794 0
M  V30 3951 H 377.847 0.456685 0.54494 0
M  V30 3952 H 380.449 1.69825 0.968487 0
M  V30 3953 H 379.153 3.18008 2.59421 0
M  V30 3954 H 378.684 1.7483 3.52417 0
M  V30 3955 H 380.699 1.44034 4.74835 0
M  V30 3956 N 379.872 -1.04064 1.18357 0
M  V30 3957 C 381.118 -1.77528 0.980397 0
M  V30 3958 C 381.451 -1.87948 -0.48879 0
M  V30 3959 O 380.726 -1.3876 -1.36293 0
M  V30 3960 C 381.009 -3.20797 1.63588 0
M  V30 3961 C 380.862 -3.1832 3.17793 0
M  V30 3962 C 382.181 -4.18911 1.34914 0
M  V30 3963 H 379.3 -0.644443 0.357578 0
M  V30 3964 H 381.942 -1.2156 1.46024 0
M  V30 3965 H 380.092 -3.68586 1.22788 0
M  V30 3966 H 381.764 -2.78521 3.67728 0
M  V30 3967 H 380.007 -2.56351 3.49952 0
M  V30 3968 H 380.678 -4.19489 3.58794 0
M  V30 3969 H 383.154 -3.7967 1.70265 0
M  V30 3970 H 382.03 -5.17374 1.83346 0
M  V30 3971 H 382.291 -4.41262 0.272027 0
M  V30 3972 N 381.35 -0.985608 -1.22978 0
M  V30 3973 C 382.597 -0.657386 -1.91532 0
M  V30 3974 C 382.925 0.809707 -1.76845 0
M  V30 3975 O 382.18 1.60021 -1.12658 0
M  V30 3976 C 382.479 -1.00014 -3.43121 0
M  V30 3977 C 382.145 -2.4583 -3.77993 0
M  V30 3978 C 380.807 -2.85679 -3.87222 0
M  V30 3979 C 383.159 -3.40378 -3.94705 0
M  V30 3980 C 380.487 -4.19081 -4.10595 0
M  V30 3981 C 382.839 -4.73429 -4.1958 0
M  V30 3982 C 381.503 -5.1303 -4.27032 0
M  V30 3983 H 380.773 -0.240555 -0.700867 0
M  V30 3984 H 383.42 -1.24044 -1.45895 0
M  V30 3985 H 381.725 -0.335072 -3.90365 0
M  V30 3986 H 383.422 -0.724322 -3.94404 0
M  V30 3987 H 380.012 -2.13939 -3.71387 0
M  V30 3988 H 384.196 -3.10766 -3.8696 0
M  V30 3989 H 379.452 -4.49362 -4.14589 0
M  V30 3990 H 383.626 -5.46644 -4.31455 0
M  V30 3991 H 381.253 -6.16418 -4.44896 0
M  V30 3992 N 382.828 1.3818 -0.7579 0
M  V30 3993 C 384.074 2.00316 -0.316453 0
M  V30 3994 C 384.407 1.60026 1.10025 0
M  V30 3995 O 383.682 0.839835 1.75434 0
M  V30 3996 C 383.965 3.57349 -0.444245 0
M  V30 3997 C 383.818 4.07591 -1.90236 0
M  V30 3998 C 385.137 4.3981 0.1598 0
M  V30 3999 H 382.256 0.727741 -0.116459 0
M  V30 4000 H 384.898 1.6406 -0.958352 0
M  V30 4001 H 383.048 3.88365 0.102233 0
M  V30 4002 H 384.72 3.87199 -2.50748 0
M  V30 4003 H 382.963 3.60297 -2.41595 0
M  V30 4004 H 383.634 5.16677 -1.94291 0
M  V30 4005 H 386.11 4.14971 -0.306314 0
M  V30 4006 H 384.986 5.48885 0.0401675 0
M  V30 4007 H 385.247 4.24102 1.24859 0
M  V30 4008 N 384.306 0.507319 1.49211 0
M  V30 4009 C 385.583 -0.0982702 1.95353 0
M  V30 4010 C 385.963 -1.53516 1.449 0
M  V30 4011 O 385.311 -2.18594 0.66551 0
M  V30 4012 C 385.521 -0.00440283 3.49 0
M  V30 4013 C 386.869 -0.175147 4.24239 0
M  V30 4014 O 387.893 -0.0792891 3.56112 0
M  V30 4015 O 386.752 -0.37276 5.45227 0
M  V30 4016 H 383.846 -0.0918236 0.821887 0
M  V30 4017 H 386.392 0.570307 1.5983 0
M  V30 4018 H 385.164 0.997402 3.78375 0
M  V30 4019 H 384.787 -0.712845 3.91158 0
M  V30 4020 N 385.784 -1.5574 0.241426 0
M  V30 4021 C 386.732 -2.22538 -0.676718 0
M  V30 4022 C 387.726 -1.21117 -1.18436 0
M  V30 4023 O 388.932 -1.39144 -1.14188 0
M  V30 4024 H 385.307 -0.713776 -0.236701 0
M  V30 4025 H 387.278 -2.98264 -0.0901187 0
M  V30 4026 C 386.027 -2.93439 -1.86518 0
M  V30 4027 H 385.35 -3.7125 -1.4837 0
M  V30 4028 H 386.79 -3.43549 -2.48495 0
M  V30 4029 C 385.249 -1.97008 -2.73294 0
M  V30 4030 O 385.779 -1.49965 -3.72657 0
M  V30 4031 N 383.985 -1.64227 -2.39745 0
M  V30 4032 H 383.532 -2.02677 -1.58996 0
M  V30 4033 H 383.49 -0.999708 -2.98083 0
M  V30 4034 N 387.262 0.0317525 -1.57568 0
M  V30 4035 C 388.51 0.721676 -1.88776 0
M  V30 4036 C 388.831 1.76039 -0.838772 0
M  V30 4037 O 388.101 1.95482 0.127935 0
M  V30 4038 H 386.681 0.269534 -0.696678 0
M  V30 4039 H 389.343 -0.00165879 -1.949 0
M  V30 4040 H 388.439 1.21293 -2.87566 0
M  V30 4041 N 388.74 1.54641 0.303973 0
M  V30 4042 C 389.67 1.88386 1.3796 0
M  V30 4043 C 390.651 0.742485 1.5304 0
M  V30 4044 O 391.836 0.997959 1.66597 0
M  V30 4045 C 388.966 2.12854 2.74427 0
M  V30 4046 C 387.92 3.28702 2.74115 0
M  V30 4047 C 387.246 3.38582 4.13844 0
M  V30 4048 C 388.546 4.65881 2.3612 0
M  V30 4049 H 390.24 2.78474 1.09966 0
M  V30 4050 H 387.786 1.33988 0.527556 0
M  V30 4051 H 389.739 2.35047 3.49758 0
M  V30 4052 H 388.463 1.19535 3.03939 0
M  V30 4053 H 387.122 3.06428 2.0124 0
M  V30 4054 H 386.77 2.42784 4.40528 0
M  V30 4055 H 386.47 4.16453 4.14537 0
M  V30 4056 H 387.994 3.63031 4.90959 0
M  V30 4057 H 389.408 4.87823 3.01167 0
M  V30 4058 H 387.805 5.46444 2.48031 0
M  V30 4059 H 388.875 4.66799 1.3125 0
M  V30 4060 N 390.218 -0.567019 1.47046 0
M  V30 4061 C 391.148 -1.68482 1.61667 0
M  V30 4062 C 392.129 -1.6358 0.466418 0
M  V30 4063 O 393.314 -1.81354 0.694574 0
M  V30 4064 C 390.444 -3.07124 1.62148 0
M  V30 4065 C 389.398 -3.26867 2.76301 0
M  V30 4066 C 388.724 -4.66196 2.61849 0
M  V30 4067 C 390.024 -3.13186 4.17986 0
M  V30 4068 H 391.718 -1.56502 2.5524 0
M  V30 4069 H 389.264 -0.751486 1.22836 0
M  V30 4070 H 391.217 -3.8516 1.70968 0
M  V30 4071 H 389.941 -3.2004 0.651287 0
M  V30 4072 H 388.6 -2.51237 2.66975 0
M  V30 4073 H 388.248 -4.75898 1.62879 0
M  V30 4074 H 387.948 -4.80356 3.38425 0
M  V30 4075 H 389.472 -5.46379 2.72584 0
M  V30 4076 H 390.886 -3.81049 4.2834 0
M  V30 4077 H 389.283 -3.3886 4.95272 0
M  V30 4078 H 390.353 -2.10057 4.3704 0
M  V30 4079 N 391.696 -1.35014 -0.812953 0
M  V30 4080 C 393.112 -1.14914 -1.10757 0
M  V30 4081 C 393.312 0.0426818 -2.01455 0
M  V30 4082 O 392.368 0.715212 -2.42159 0
M  V30 4083 C 393.681 -2.44911 -1.74468 0
M  V30 4084 C 395.229 -2.5106 -1.86917 0
M  V30 4085 C 395.704 -3.81085 -2.54044 0
M  V30 4086 N 397.195 -3.82301 -2.61535 0
M  V30 4087 C 397.93 -4.79634 -3.14227 0
M  V30 4088 N 397.426 -5.87353 -3.67407 0
M  V30 4089 N 399.219 -4.67078 -3.12721 0
M  V30 4090 H 391.37 -2.1136 -0.20989 0
M  V30 4091 H 393.633 -0.935128 -0.155692 0
M  V30 4092 H 393.339 -3.32267 -1.15289 0
M  V30 4093 H 393.213 -2.58989 -2.74234 0
M  V30 4094 H 395.6 -1.64137 -2.45241 0
M  V30 4095 H 395.681 -2.40901 -0.860242 0
M  V30 4096 H 395.325 -4.68402 -1.96372 0
M  V30 4097 H 395.255 -3.88529 -3.55461 0
M  V30 4098 H 397.746 -3.04465 -2.23851 0
M  V30 4099 H 398.059 -6.57624 -4.05894 0
M  V30 4100 H 396.404 -5.91054 -3.65623 0
M  V30 4101 H 399.595 -3.82067 -2.70449 0
M  V30 4102 H 399.768 -5.43098 -3.53481 0
M  V30 4103 N 393.175 1.03435 -1.18907 0
M  V30 4104 C 394.105 2.13503 -0.945448 0
M  V30 4105 C 395.086 1.69682 0.119189 0
M  V30 4106 O 396.271 1.94169 -0.034707 0
M  V30 4107 C 393.401 3.44004 -0.477316 0
M  V30 4108 C 392.355 4.0148 -1.48316 0
M  V30 4109 C 391.681 5.27537 -0.872311 0
M  V30 4110 C 392.981 4.36921 -2.86177 0
M  V30 4111 H 394.675 2.34141 -1.86597 0
M  V30 4112 H 392.221 1.12523 -0.898584 0
M  V30 4113 H 394.174 4.20372 -0.294204 0
M  V30 4114 H 392.898 3.23072 0.478786 0
M  V30 4115 H 391.557 3.27201 -1.65332 0
M  V30 4116 H 391.205 5.02917 0.0911752 0
M  V30 4117 H 390.905 5.66954 -1.54393 0
M  V30 4118 H 392.429 6.06576 -0.699871 0
M  V30 4119 H 393.843 5.04248 -2.72776 0
M  V30 4120 H 392.24 4.87405 -3.50081 0
M  V30 4121 H 393.31 3.46466 -3.39248 0
M  V30 4122 N 394.653 0.992116 1.22453 0
M  V30 4123 C 395.601 0.534644 2.26372 0
M  V30 4124 C 396.595 -0.414293 1.64256 0
M  V30 4125 O 397.801 -0.286899 1.77699 0
M  V30 4126 H 394.176 0.154502 0.735957 0
M  V30 4127 H 396.147 1.42256 2.62309 0
M  V30 4128 C 394.896 -0.135815 3.47435 0
M  V30 4129 H 394.219 0.585311 3.95492 0
M  V30 4130 H 395.659 -0.419374 4.21921 0
M  V30 4131 C 394.118 -1.37089 3.07747 0
M  V30 4132 O 394.648 -2.46629 3.17076 0
M  V30 4133 N 392.854 -1.24585 2.62539 0
M  V30 4134 H 392.401 -0.354542 2.55149 0
M  V30 4135 H 392.359 -2.07327 2.36353 0
M  V30 4136 N 396.131 -1.37776 0.765217 0
M  V30 4137 C 397.041 -2.34135 0.147666 0
M  V30 4138 C 398.057 -1.59854 -0.687215 0
M  V30 4139 O 399.233 -1.91983 -0.608659 0
M  V30 4140 C 396.298 -3.3901 -0.72617 0
M  V30 4141 C 395.359 -4.2912 0.124417 0
M  V30 4142 C 394.592 -5.28986 -0.707807 0
M  V30 4143 O 394.815 -5.36205 -1.94525 0
M  V30 4144 O 393.749 -6.01779 -0.12046 0
M  V30 4145 H 397.575 -2.88664 0.943758 0
M  V30 4146 H 395.16 -1.39824 0.526277 0
M  V30 4147 H 397.042 -4.03195 -1.22524 0
M  V30 4148 H 395.717 -2.86819 -1.50056 0
M  V30 4149 H 394.624 -3.68057 0.669696 0
M  V30 4150 H 395.957 -4.84598 0.861736 0
M  V30 4151 N 397.609 -0.515225 -1.4894 0
M  V30 4152 C 398.572 0.244681 -2.2789 0
M  V30 4153 C 399.572 0.881166 -1.34507 0
M  V30 4154 O 400.762 0.743497 -1.57537 0
M  V30 4155 C 397.894 1.35247 -3.12923 0
M  V30 4156 H 399.087 -0.448289 -2.96531 0
M  V30 4157 H 396.64 -0.270656 -1.53939 0
M  V30 4158 H 397.375 2.07916 -2.48881 0
M  V30 4159 H 397.16 0.901374 -3.81599 0
M  V30 4160 H 398.65 1.88737 -3.72516 0
M  V30 4161 N 399.087 1.5561 -0.249682 0
M  V30 4162 C 399.997 2.25143 0.659375 0
M  V30 4163 C 401.013 1.2685 1.19101 0
M  V30 4164 O 402.189 1.59732 1.22669 0
M  V30 4165 C 399.254 2.93945 1.8384 0
M  V30 4166 C 398.315 4.07655 1.34596 0
M  V30 4167 C 397.548 4.73167 2.46878 0
M  V30 4168 O 397.771 4.37768 3.65671 0
M  V30 4169 O 396.705 5.61623 2.16478 0
M  V30 4170 H 400.531 3.03545 0.0968698 0
M  V30 4171 H 398.116 1.49389 -0.018074 0
M  V30 4172 H 399.998 3.37271 2.52638 0
M  V30 4173 H 398.673 2.18481 2.38847 0
M  V30 4174 H 397.58 3.68839 0.625174 0
M  V30 4175 H 398.913 4.84946 0.841941 0
M  V30 4176 N 400.565 -0.0233959 1.57583 0
M  V30 4177 C 401.497 -1.04994 2.03737 0
M  V30 4178 C 402.51 -1.32125 0.951152 0
M  V30 4179 O 403.699 -1.29512 1.22837 0
M  V30 4180 C 400.799 -2.39026 2.40249 0
M  V30 4181 C 399.972 -2.31171 3.7132 0
M  V30 4182 C 399.031 -3.47698 3.94959 0
M  V30 4183 O 398.057 -3.26937 4.65941 0
M  V30 4184 N 399.259 -4.6976 3.41037 0
M  V30 4185 H 402.024 -0.656507 2.92421 0
M  V30 4186 H 399.585 -0.211235 1.60516 0
M  V30 4187 H 401.577 -3.15712 2.53196 0
M  V30 4188 H 400.147 -2.70194 1.57207 0
M  V30 4189 H 399.367 -1.39547 3.68674 0
M  V30 4190 H 400.655 -2.23071 4.57293 0
M  V30 4191 H 400.053 -4.89528 2.83512 0
M  V30 4192 H 398.61 -5.43791 3.59353 0
M  V30 4193 N 402.043 -1.548 -0.295768 0
M  V30 4194 C 403.289 -1.74588 -1.03184 0
M  V30 4195 C 403.622 -0.532962 -1.86744 0
M  V30 4196 O 402.897 0.469872 -1.88739 0
M  V30 4197 C 403.18 -3.03791 -1.93347 0
M  V30 4198 C 403.033 -4.35392 -1.12933 0
M  V30 4199 C 404.352 -3.28892 -2.92435 0
M  V30 4200 H 401.471 -0.635221 -0.373715 0
M  V30 4201 H 404.113 -1.87519 -0.30606 0
M  V30 4202 H 402.263 -2.92898 -2.55232 0
M  V30 4203 H 403.935 -4.58211 -0.532943 0
M  V30 4204 H 402.178 -4.31642 -0.432168 0
M  V30 4205 H 402.849 -5.22074 -1.79284 0
M  V30 4206 H 405.325 -3.39429 -2.4068 0
M  V30 4207 H 404.201 -4.20603 -3.52682 0
M  V30 4208 H 404.462 -2.47437 -3.6637 0
M  V30 4209 N 403.521 0.559213 -1.47345 0
M  V30 4210 C 404.451 1.67622 -1.62558 0
M  V30 4211 C 405.432 1.63331 -0.475087 0
M  V30 4212 O 406.617 1.80983 -0.704182 0
M  V30 4213 C 403.747 3.0626 -1.63774 0
M  V30 4214 C 402.701 3.25397 -2.7803 0
M  V30 4215 C 402.027 4.64801 -2.64318 0
M  V30 4216 C 403.327 3.10965 -4.19641 0
M  V30 4217 H 405.021 1.55146 -2.56067 0
M  V30 4218 H 402.567 0.744961 -1.23233 0
M  V30 4219 H 404.52 3.84247 -1.73008 0
M  V30 4220 H 403.244 3.1969 -0.66825 0
M  V30 4221 H 401.903 2.49817 -2.68304 0
M  V30 4222 H 401.551 4.75028 -1.65401 0
M  V30 4223 H 401.251 4.78555 -3.40968 0
M  V30 4224 H 402.775 5.44926 -2.75478 0
M  V30 4225 H 404.189 3.78772 -4.30354 0
M  V30 4226 H 402.586 3.36229 -4.97062 0
M  V30 4227 H 403.656 2.07736 -4.38148 0
M  V30 4228 N 404.999 1.35443 0.805782 0
M  V30 4229 C 406.276 1.19325 1.54987 0
M  V30 4230 C 406.656 -0.227294 2.09873 0
M  V30 4231 O 406.004 -1.2309 1.92512 0
M  V30 4232 C 406.214 2.26196 2.65775 0
M  V30 4233 C 407.562 2.62043 3.34094 0
M  V30 4234 O 408.586 2.25115 2.76046 0
M  V30 4235 O 407.445 3.25542 4.38958 0
M  V30 4236 H 404.539 0.463623 0.684823 0
M  V30 4237 H 407.085 1.47127 0.845674 0
M  V30 4238 H 405.857 3.21471 2.23096 0
M  V30 4239 H 405.48 1.99667 3.43829 0
M  V30 4240 N 406.477 -1.02803 1.19454 0
M  V30 4241 C 407.41 -2.107 0.876396 0
M  V30 4242 C 408.388 -1.61741 -0.166897 0
M  V30 4243 O 409.572 -1.88451 -0.0430195 0
M  V30 4244 C 406.699 -3.37262 0.311758 0
M  V30 4245 C 405.745 -4.05093 1.33424 0
M  V30 4246 S 406.578 -4.50498 2.89503 0
M  V30 4247 C 407.734 -5.80277 2.34584 0
M  V30 4248 H 407.967 -2.37362 1.79016 0
M  V30 4249 H 405.5 -1.15755 1.02177 0
M  V30 4250 H 407.458 -4.10499 -0.00748752 0
M  V30 4251 H 406.119 -3.08693 -0.58032 0
M  V30 4252 H 405.312 -4.9611 0.888302 0
M  V30 4253 H 404.914 -3.3803 1.60037 0
M  V30 4254 H 407.206 -6.54873 1.73633 0
M  V30 4255 H 408.149 -6.29651 3.23952 0
M  V30 4256 H 408.557 -5.3599 1.77131 0
M  V30 4257 N 407.956 -0.998596 -1.21925 0
M  V30 4258 C 409.203 -0.677663 -1.90824 0
M  V30 4259 C 409.531 0.790905 -1.77693 0
M  V30 4260 O 408.786 1.58817 -1.14349 0
M  V30 4261 C 409.085 -1.03648 -3.42041 0
M  V30 4262 C 408.751 -2.49825 -3.75364 0
M  V30 4263 C 407.413 -2.8977 -3.8417 0
M  V30 4264 C 409.765 -3.44545 -3.91073 0
M  V30 4265 C 407.093 -4.23412 -4.06127 0
M  V30 4266 C 409.445 -4.77853 -4.14535 0
M  V30 4267 C 408.109 -5.17531 -4.21566 0
M  V30 4268 H 407.379 -0.247975 -0.698276 0
M  V30 4269 H 410.026 -1.25584 -1.44571 0
M  V30 4270 H 408.331 -0.376457 -3.89987 0
M  V30 4271 H 410.028 -0.766113 -3.93614 0
M  V30 4272 H 406.618 -2.17866 -3.69097 0
M  V30 4273 H 410.802 -3.14853 -3.83642 0
M  V30 4274 H 406.058 -4.53734 -4.09799 0
M  V30 4275 H 410.232 -5.51189 -4.25633 0
M  V30 4276 H 407.859 -6.21102 -4.38333 0
M  V30 4277 N 409.434 1.37368 -0.772513 0
M  V30 4278 C 410.682 1.99279 -0.336516 0
M  V30 4279 C 411.003 1.6163 1.09091 0
M  V30 4280 O 410.273 0.882109 1.74916 0
M  V30 4281 H 408.853 0.737063 -0.121435 0
M  V30 4282 H 411.515 1.67836 -0.990809 0
M  V30 4283 H 410.611 3.09332 -0.414763 0
M  V30 4284 N 410.912 0.523116 1.48665 0
M  V30 4285 C 412.189 -0.0775449 1.95446 0
M  V30 4286 C 412.569 -1.5197 1.4652 0
M  V30 4287 O 411.917 -2.17876 0.688657 0
M  V30 4288 C 412.127 0.0326135 3.48985 0
M  V30 4289 C 413.475 -0.130141 4.24401 0
M  V30 4290 O 414.499 -0.0415142 3.56176 0
M  V30 4291 O 413.358 -0.31491 5.45592 0
M  V30 4292 H 410.452 -0.0831012 0.822814 0
M  V30 4293 H 412.998 0.587227 1.59216 0
M  V30 4294 H 411.77 1.03748 3.77296 0
M  V30 4295 H 411.393 -0.671317 3.91892 0
M  V30 4296 N 412.39 -1.55475 0.257931 0
M  V30 4297 C 413.34 -2.18506 -0.651094 0
M  V30 4298 C 414.324 -1.14431 -1.13112 0
M  V30 4299 O 415.516 -1.40305 -1.07905 0
M  V30 4300 C 412.645 -2.89653 -1.84272 0
M  V30 4301 C 411.731 -4.00996 -1.38068 0
M  V30 4302 N 412.122 -5.01816 -0.633609 0
M  V30 4303 C 410.42 -4.13753 -1.66506 0
M  V30 4304 C 411.121 -5.80371 -0.392922 0
M  V30 4305 N 410.097 -5.3505 -0.960359 0
M  V30 4306 H 413.899 -2.93811 -0.0722883 0
M  V30 4307 H 411.413 -1.62286 0.0607256 0
M  V30 4308 H 413.41 -3.33245 -2.50506 0
M  V30 4309 H 412.07 -2.15854 -2.42564 0
M  V30 4310 H 413.081 -5.17128 -0.282626 0
M  V30 4311 H 409.758 -3.51133 -2.25858 0
M  V30 4312 H 411.148 -6.7159 0.204235 0
M  V30 4313 N 413.868 0.0150385 -1.57593 0
M  V30 4314 C 415.115 0.703001 -1.89906 0
M  V30 4315 C 415.443 1.74604 -0.856944 0
M  V30 4316 O 414.698 1.95197 0.140287 0
M  V30 4317 C 414.997 1.39686 -3.28972 0
M  V30 4318 C 414.663 0.488457 -4.48246 0
M  V30 4319 C 413.325 0.2383 -4.8061 0
M  V30 4320 C 415.677 -0.137881 -5.21018 0
M  V30 4321 C 413.005 -0.646738 -5.83125 0
M  V30 4322 C 415.357 -1.0107 -6.24474 0
M  V30 4323 C 414.021 -1.27019 -6.55303 0
M  V30 4324 H 413.291 0.257246 -0.694914 0
M  V30 4325 H 415.938 -0.037259 -1.91464 0
M  V30 4326 H 414.243 2.21079 -3.23468 0
M  V30 4327 H 415.94 1.93495 -3.51227 0
M  V30 4328 H 412.53 0.693593 -4.22951 0
M  V30 4329 H 416.714 0.0423953 -4.96282 0
M  V30 4330 H 411.97 -0.855937 -6.05379 0
M  V30 4331 H 416.144 -1.50247 -6.79999 0
M  V30 4332 H 413.771 -1.95769 -7.3456 0
M  V30 4333 N 415.346 1.54954 0.287554 0
M  V30 4334 C 416.594 1.74528 1.01904 0
M  V30 4335 C 416.915 0.541349 1.87335 0
M  V30 4336 O 416.185 -0.444108 1.908 0
M  V30 4337 H 414.765 0.643576 0.379235 0
M  V30 4338 H 417.427 1.92333 0.315294 0
M  V30 4339 H 416.523 2.64015 1.6644 0
M  V30 4340 N 416.824 -0.551391 1.4764 0
M  V30 4341 C 417.754 -1.66757 1.63445 0
M  V30 4342 C 418.735 -1.63077 0.483742 0
M  V30 4343 O 419.92 -1.80607 0.71377 0
M  V30 4344 C 417.05 -3.05387 1.65396 0
M  V30 4345 C 416.004 -3.23918 2.79752 0
M  V30 4346 C 415.33 -4.63393 2.66779 0
M  V30 4347 C 416.63 -3.08735 4.21284 0
M  V30 4348 H 418.324 -1.53786 2.56886 0
M  V30 4349 H 415.87 -0.738415 1.23626 0
M  V30 4350 H 417.823 -3.83325 1.75043 0
M  V30 4351 H 416.547 -3.19332 0.685195 0
M  V30 4352 H 415.206 -2.48391 2.69625 0
M  V30 4353 H 414.854 -4.74144 1.67918 0
M  V30 4354 H 414.554 -4.7674 3.43501 0
M  V30 4355 H 416.078 -5.43458 2.78364 0
M  V30 4356 H 417.492 -3.76484 4.32357 0
M  V30 4357 H 415.889 -3.33588 4.98838 0
M  V30 4358 H 416.959 -2.0541 4.39243 0
M  V30 4359 N 418.302 -1.35869 -0.798587 0
M  V30 4360 C 419.25 -1.29491 -1.93222 0
M  V30 4361 C 420.244 -0.18836 -1.6835 0
M  V30 4362 O 421.45 -0.354822 -1.76468 0
M  V30 4363 H 417.825 -0.402901 -0.63496 0
M  V30 4364 H 419.796 -2.25247 -1.9572 0
M  V30 4365 C 418.545 -1.09184 -3.30112 0
M  V30 4366 H 417.868 -1.93574 -3.49813 0
M  V30 4367 H 419.308 -1.08766 -4.09812 0
M  V30 4368 C 417.767 0.203959 -3.36282 0
M  V30 4369 O 418.297 1.19699 -3.83451 0
M  V30 4370 N 416.503 0.245488 -2.89561 0
M  V30 4371 H 416.05 -0.563223 -2.51367 0
M  V30 4372 H 416.008 1.11219 -2.94071 0
M  V30 4373 N 419.78 1.02168 -1.19998 0
M  V30 4374 C 421.029 1.75091 -1.0013 0
M  V30 4375 C 421.342 1.89923 0.467835 0
M  V30 4376 O 422.548 2.59888 0.785515 0
M  V30 4377 C 421.004 3.14892 -1.74273 0
M  V30 4378 C 420.612 3.0809 -3.25245 0
M  V30 4379 C 422.356 3.9206 -1.62755 0
M  V30 4380 C 420.263 4.42867 -3.91948 0
M  V30 4381 H 419.193 0.656394 -0.37103 0
M  V30 4382 H 421.844 1.14284 -1.43567 0
M  V30 4383 H 420.226 3.7621 -1.2362 0
M  V30 4384 H 421.4 2.5611 -3.83072 0
M  V30 4385 H 419.715 2.44416 -3.3712 0
M  V30 4386 H 422.312 4.91764 -2.09934 0
M  V30 4387 H 422.655 4.12199 -0.582894 0
M  V30 4388 H 423.188 3.37359 -2.10793 0
M  V30 4389 H 419.927 4.27931 -4.96543 0
M  V30 4390 H 419.447 4.94874 -3.3891 0
M  V30 4391 H 421.126 5.11728 -3.95909 0
M  V30 4392 N 421.258 1.00505 1.21394 0
M  V30 4393 C 422.504 0.688793 1.90745 0
M  V30 4394 C 422.837 -0.778486 1.77914 0
M  V30 4395 O 422.112 -1.56433 1.15581 0
M  V30 4396 C 422.395 1.11063 3.42545 0
M  V30 4397 C 422.248 2.63737 3.64367 0
M  V30 4398 C 423.567 0.673059 4.34923 0
M  V30 4399 H 420.686 0.251702 0.692687 0
M  V30 4400 H 423.328 1.25074 1.43026 0
M  V30 4401 H 421.478 0.632508 3.83317 0
M  V30 4402 H 423.15 3.19313 3.32922 0
M  V30 4403 H 421.393 3.05248 3.08231 0
M  V30 4404 H 422.064 2.88305 4.70727 0
M  V30 4405 H 424.54 1.08392 4.01734 0
M  V30 4406 H 423.416 0.996383 5.39781 0
M  V30 4407 H 423.677 -0.425808 4.40045 0
M  V30 4408 N 422.737 -1.36956 0.779787 0
M  V30 4409 C 423.687 -2.27539 0.144892 0
M  V30 4410 C 424.671 -1.46493 -0.665488 0
M  V30 4411 O 425.863 -1.68968 -0.527141 0
M  V30 4412 C 422.992 -3.35512 -0.727082 0
M  V30 4413 C 422.078 -4.24001 0.0915642 0
M  V30 4414 N 422.469 -4.92757 1.14125 0
M  V30 4415 C 420.767 -4.45807 -0.131141 0
M  V30 4416 C 421.468 -5.58138 1.6388 0
M  V30 4417 N 420.444 -5.35241 0.94962 0
M  V30 4418 H 424.246 -2.78176 0.948446 0
M  V30 4419 H 421.76 -1.50169 0.618315 0
M  V30 4420 H 423.757 -3.99324 -1.19776 0
M  V30 4421 H 422.417 -2.86431 -1.52929 0
M  V30 4422 H 423.428 -4.94984 1.52353 0
M  V30 4423 H 420.105 -4.07582 -0.904621 0
M  V30 4424 H 421.495 -6.23071 2.51461 0
M  V30 4425 N 424.215 -0.530993 -1.48385 0
M  V30 4426 C 425.461 0.00274135 -2.028 0
M  V30 4427 C 425.794 1.33838 -1.40716 0
M  V30 4428 O 425.069 1.86465 -0.553277 0
M  V30 4429 C 425.352 0.123676 -3.59888 0
M  V30 4430 C 425.205 -1.2372 -4.3245 0
M  V30 4431 C 426.524 0.849967 -4.31814 0
M  V30 4432 H 423.643 -0.000477758 -0.737 0
M  V30 4433 H 426.285 -0.688217 -1.77098 0
M  V30 4434 H 424.435 0.712157 -3.81917 0
M  V30 4435 H 426.107 -1.86687 -4.21836 0
M  V30 4436 H 424.35 -1.81882 -3.93829 0
M  V30 4437 H 425.021 -1.10557 -5.40815 0
M  V30 4438 H 427.497 0.350572 -4.14621 0
M  V30 4439 H 426.373 0.903486 -5.41413 0
M  V30 4440 H 426.634 1.90047 -3.99167 0
M  V30 4441 N 425.693 1.55336 -0.266172 0
M  V30 4442 C 427.104 1.85236 0.233315 0
M  V30 4443 C 427.455 1.18816 1.56132 0
M  V30 4444 O 426.58 0.473307 2.11161 0
M  V30 4445 C 427.175 3.36059 0.430113 0
M  V30 4446 C 425.734 3.66116 0.873842 0
M  V30 4447 C 424.881 2.77274 -0.0380016 0
M  V30 4448 H 427.832 1.51004 -0.488214 0
M  V30 4449 H 427.853 3.58681 1.26998 0
M  V30 4450 H 427.365 3.84373 -0.536588 0
M  V30 4451 H 425.466 3.23295 1.85233 0
M  V30 4452 H 425.579 4.73699 0.717358 0
M  V30 4453 H 423.943 2.50198 0.476759 0
M  V30 4454 H 424.726 3.284 -1.00042 0
M  V30 4455 N 427.171 -0.0066808 1.57599 0
M  V30 4456 C 428.134 -0.985035 2.06953 0
M  V30 4457 C 429.134 -1.27663 0.977687 0
M  V30 4458 O 430.324 -1.22293 1.24057 0
M  V30 4459 C 427.456 -2.3118 2.50536 0
M  V30 4460 H 428.649 -0.558255 2.94658 0
M  V30 4461 H 426.202 -0.254011 1.54222 0
M  V30 4462 H 426.937 -2.78561 1.66054 0
M  V30 4463 H 426.722 -2.11338 3.3027 0
M  V30 4464 H 428.212 -3.01377 2.8907 0
M  V30 4465 N 428.649 -1.55105 -0.279332 0
M  V30 4466 C 429.559 -1.90638 -1.36727 0
M  V30 4467 C 430.575 -0.802899 -1.54368 0
M  V30 4468 O 431.751 -1.10138 -1.68616 0
M  V30 4469 C 428.816 -2.16547 -2.70755 0
M  V30 4470 C 427.877 -3.40146 -2.61915 0
M  V30 4471 C 427.11 -3.6481 -3.8955 0
M  V30 4472 O 427.333 -2.92095 -4.89935 0
M  V30 4473 O 426.267 -4.58343 -3.90135 0
M  V30 4474 H 430.093 -2.83237 -1.09591 0
M  V30 4475 H 427.678 -1.4157 -0.477306 0
M  V30 4476 H 429.56 -2.34665 -3.50014 0
M  V30 4477 H 428.235 -1.27131 -2.9769 0
M  V30 4478 H 427.142 -3.2737 -1.81052 0
M  V30 4479 H 428.475 -4.29761 -2.3993 0
M  V30 4480 N 430.127 0.543554 -1.4793 0
M  V30 4481 C 431.404 1.30458 -1.4574 0
M  V30 4482 C 431.784 2.1048 -0.161692 0
M  V30 4483 O 431.132 2.11831 0.856734 0
M  V30 4484 C 431.342 2.19754 -2.71126 0
M  V30 4485 C 432.69 2.80334 -3.18901 0
M  V30 4486 O 433.714 2.30049 -2.71948 0
M  V30 4487 O 432.573 3.71766 -4.00565 0
M  V30 4488 H 429.667 0.588117 -0.581418 0
M  V30 4489 H 432.213 0.561328 -1.60147 0
M  V30 4490 H 430.985 1.60316 -3.56952 0
M  V30 4491 H 430.608 3.01351 -2.59371 0
M  V30 4492 N 431.605 1.3629 0.791371 0
M  V30 4493 C 433.021 1.16661 1.08914 0
M  V30 4494 C 433.221 -0.0106266 2.01497 0
M  V30 4495 O 432.277 -0.676596 2.43266 0
M  V30 4496 C 433.59 2.47656 1.70549 0
M  V30 4497 C 435.138 2.54002 1.82899 0
M  V30 4498 C 435.613 3.85078 2.47949 0
M  V30 4499 N 437.104 3.86413 2.5542 0
M  V30 4500 C 437.839 4.84572 3.06557 0
M  V30 4501 N 437.335 5.93124 3.58016 0
M  V30 4502 N 439.128 4.71994 3.05251 0
M  V30 4503 H 431.279 2.11668 0.176238 0
M  V30 4504 H 433.542 0.937486 0.140796 0
M  V30 4505 H 433.248 3.34059 1.09989 0
M  V30 4506 H 433.122 2.63319 2.70079 0
M  V30 4507 H 435.509 1.68018 2.42598 0
M  V30 4508 H 435.59 2.42239 0.821808 0
M  V30 4509 H 435.234 4.71467 1.88895 0
M  V30 4510 H 435.164 3.94135 3.49235 0
M  V30 4511 H 437.655 3.07988 2.18979 0
M  V30 4512 H 437.968 6.63999 3.95381 0
M  V30 4513 H 436.313 5.96796 3.56173 0
M  V30 4514 H 439.504 3.86321 2.64336 0
M  V30 4515 H 439.677 5.48653 3.44796 0
M  V30 4516 N 433.083 -1.0153 1.20538 0
M  V30 4517 C 434.33 -1.75149 1.01633 0
M  V30 4518 C 434.658 -1.89189 -0.451399 0
M  V30 4519 O 433.913 -1.41551 -1.35136 0
M  V30 4520 C 434.212 -3.17213 1.64654 0
M  V30 4521 C 433.878 -3.23146 3.14464 0
M  V30 4522 C 432.54 -3.24472 3.55347 0
M  V30 4523 C 434.892 -3.21207 4.10458 0
M  V30 4524 C 432.22 -3.21532 4.90748 0
M  V30 4525 C 434.572 -3.19808 5.45807 0
M  V30 4526 C 433.236 -3.19439 5.86102 0
M  V30 4527 H 432.506 -0.640914 0.3719 0
M  V30 4528 H 435.153 -1.19071 1.49981 0
M  V30 4529 H 433.458 -3.76457 1.08571 0
M  V30 4530 H 435.155 -3.72871 1.4754 0
M  V30 4531 H 431.745 -3.2285 2.81897 0
M  V30 4532 H 435.929 -3.19351 3.79906 0
M  V30 4533 H 431.185 -3.19578 5.21229 0
M  V30 4534 H 435.359 -3.1726 6.19935 0
M  V30 4535 H 432.986 -3.16915 6.90991 0
M  V30 4536 N 434.561 -1.01147 -1.20859 0
M  V30 4537 C 435.491 -0.597663 -2.25722 0
M  V30 4538 C 436.472 0.384744 -1.65692 0
M  V30 4539 O 437.657 0.271303 -1.92296 0
M  V30 4540 C 434.787 0.0700149 -3.47229 0
M  V30 4541 C 433.741 -0.832843 -4.19819 0
M  V30 4542 C 433.067 -0.0312202 -5.34691 0
M  V30 4543 C 434.367 -2.1385 -4.76514 0
M  V30 4544 H 436.061 -1.47423 -2.60589 0
M  V30 4545 H 433.607 -0.710301 -1.25263 0
M  V30 4546 H 435.56 0.37103 -4.19763 0
M  V30 4547 H 434.284 0.981259 -3.11511 0
M  V30 4548 H 432.943 -1.11778 -3.49144 0
M  V30 4549 H 432.591 0.881515 -4.95215 0
M  V30 4550 H 432.291 -0.632434 -5.84187 0
M  V30 4551 H 433.815 0.26346 -6.10031 0
M  V30 4552 H 435.229 -1.9002 -5.40893 0
M  V30 4553 H 433.626 -2.69012 -5.36426 0
M  V30 4554 H 434.696 -2.80495 -3.95538 0
M  V30 4555 N 436.039 1.36541 -0.78704 0
M  V30 4556 C 437.264 2.0409 -0.369053 0
M  V30 4557 C 437.689 1.58957 1.00569 0
M  V30 4558 O 437.047 0.756926 1.64743 0
M  V30 4559 C 437.095 3.57924 -0.438466 0
M  V30 4560 O 436.199 4.08642 0.555479 0
M  V30 4561 H 435.54 0.645142 -0.157122 0
M  V30 4562 H 438.07 1.74545 -1.06749 0
M  V30 4563 H 438.08 4.06887 -0.301218 0
M  V30 4564 H 436.755 3.90127 -1.44132 0
M  V30 4565 H 435.332 3.70958 0.380088 0
M  V30 4566 N 437.518 0.538854 1.48102 0
M  V30 4567 C 438.481 -0.208395 2.28251 0
M  V30 4568 C 439.481 -0.859656 1.35892 0
M  V30 4569 O 440.671 -0.71834 1.58699 0
M  V30 4570 C 437.803 -1.30252 3.15035 0
M  V30 4571 H 438.996 0.495407 2.9578 0
M  V30 4572 H 436.549 0.295112 1.53489 0
M  V30 4573 H 437.284 -2.0393 2.52157 0
M  V30 4574 H 437.069 -0.840551 3.82985 0
M  V30 4575 H 438.559 -1.82787 3.75471 0
M  V30 4576 N 438.996 -1.55193 0.274407 0
M  V30 4577 C 439.926 -2.25471 -0.607032 0
M  V30 4578 C 440.907 -1.24461 -1.15946 0
M  V30 4579 O 442.092 -1.53179 -1.19373 0
M  V30 4580 C 439.222 -2.97526 -1.79153 0
M  V30 4581 C 438.176 -4.05459 -1.37067 0
M  V30 4582 C 437.502 -4.65084 -2.6382 0
M  V30 4583 C 438.802 -5.19691 -0.521389 0
M  V30 4584 H 440.496 -2.99393 -0.0209343 0
M  V30 4585 H 438.042 -1.43997 -0.00862866 0
M  V30 4586 H 439.995 -3.45402 -2.41404 0
M  V30 4587 H 438.719 -2.21138 -2.40344 0
M  V30 4588 H 437.378 -3.58393 -0.771355 0
M  V30 4589 H 437.026 -3.85365 -3.23268 0
M  V30 4590 H 436.726 -5.37961 -2.36372 0
M  V30 4591 H 438.25 -5.15708 -3.26921 0
M  V30 4592 H 439.664 -5.63623 -1.04889 0
M  V30 4593 H 438.061 -5.99126 -0.341825 0
M  V30 4594 H 439.131 -4.82713 0.46 0
M  V30 4595 N 440.474 -0.00167713 -1.576 0
M  V30 4596 C 441.437 0.974046 -2.07473 0
M  V30 4597 C 442.437 1.27143 -0.984444 0
M  V30 4598 O 443.627 1.21633 -1.24703 0
M  V30 4599 C 440.759 2.29849 -2.51759 0
M  V30 4600 H 441.952 0.54262 -2.9495 0
M  V30 4601 H 439.505 0.245829 -1.54355 0
M  V30 4602 H 440.24 2.77677 -1.67529 0
M  V30 4603 H 440.025 2.09584 -3.31386 0
M  V30 4604 H 441.515 2.9984 -2.90664 0
M  V30 4605 N 441.952 1.55251 0.271103 0
M  V30 4606 C 443.2 1.75599 1.00047 0
M  V30 4607 C 443.521 0.561188 1.8675 0
M  V30 4608 O 442.791 -0.423846 1.9126 0
M  V30 4609 H 441.371 0.647562 0.372387 0
M  V30 4610 H 444.033 1.92656 0.294876 0
M  V30 4611 H 443.129 2.65766 1.6363 0
M  V30 4612 N 443.43 -0.535701 1.48216 0
M  V30 4613 C 444.34 -1.66785 1.64985 0
M  V30 4614 C 445.356 -1.65654 0.532414 0
M  V30 4615 O 446.532 -1.8471 0.80275 0
M  V30 4616 C 443.597 -3.0326 1.68031 0
M  V30 4617 C 442.658 -3.1529 2.9136 0
M  V30 4618 C 441.891 -4.45255 2.94252 0
M  V30 4619 O 442.114 -5.32011 2.05719 0
M  V30 4620 O 441.048 -4.6153 3.86359 0
M  V30 4621 H 444.874 -1.55576 2.60825 0
M  V30 4622 H 442.459 -0.70815 1.31551 0
M  V30 4623 H 444.341 -3.84436 1.72589 0
M  V30 4624 H 443.016 -3.14805 0.753628 0
M  V30 4625 H 441.923 -2.3343 2.92337 0
M  V30 4626 H 443.256 -3.08658 3.83394 0
M  V30 4627 N 444.908 -1.36708 -0.784132 0
M  V30 4628 C 445.856 -1.31533 -1.91838 0
M  V30 4629 C 446.85 -0.206205 -1.6814 0
M  V30 4630 O 448.056 -0.373519 -1.76082 0
M  V30 4631 H 444.431 -0.409613 -0.630651 0
M  V30 4632 H 446.402 -2.2731 -1.9332 0
M  V30 4633 C 445.151 -1.12679 -3.28936 0
M  V30 4634 H 444.474 -1.97274 -3.4774 0
M  V30 4635 H 445.914 -1.13106 -4.08636 0
M  V30 4636 C 444.373 0.168281 -3.36479 0
M  V30 4637 O 444.903 1.15625 -3.84699 0
M  V30 4638 N 443.109 0.214762 -2.89805 0
M  V30 4639 H 442.656 -0.589852 -2.50756 0
M  V30 4640 H 442.614 1.08094 -2.95234 0
M  V30 4641 N 446.386 1.0089 -1.21074 0
M  V30 4642 C 447.663 1.71834 -0.934469 0
M  V30 4643 C 448.043 2.0368 0.554753 0
M  V30 4644 O 447.391 1.70742 1.51854 0
M  V30 4645 C 447.601 2.98061 -1.8155 0
M  V30 4646 C 448.949 3.7117 -2.06199 0
M  V30 4647 O 449.973 3.08034 -1.78867 0
M  V30 4648 O 448.832 4.84721 -2.52404 0
M  V30 4649 H 445.926 0.749253 -0.35007 0
M  V30 4650 H 448.472 1.06668 -1.31985 0
M  V30 4651 H 447.244 2.70908 -2.82355 0
M  V30 4652 H 446.867 3.70968 -1.43068 0
M  V30 4653 N 447.864 1.01787 1.20321 0
M  V30 4654 C 449.275 0.739307 1.71438 0
M  V30 4655 C 449.626 -0.742041 1.81627 0
M  V30 4656 O 448.751 -1.57903 1.47971 0
M  V30 4657 C 449.346 1.33538 3.11373 0
M  V30 4658 C 447.905 1.10566 3.59795 0
M  V30 4659 C 447.052 1.44028 2.36962 0
M  V30 4660 H 450.003 1.18718 1.05317 0
M  V30 4661 H 450.024 0.726611 3.73498 0
M  V30 4662 H 449.536 2.41352 3.03926 0
M  V30 4663 H 447.637 0.0452405 3.72573 0
M  V30 4664 H 447.75 1.78661 4.44542 0
M  V30 4665 H 446.114 0.85933 2.39766 0
M  V30 4666 H 446.897 2.52901 2.32155 0
M  V30 4667 N 449.342 -1.36122 0.79427 0
M  V30 4668 C 450.252 -2.33769 0.197296 0
M  V30 4669 C 451.268 -1.61276 -0.653153 0
M  V30 4670 O 452.444 -1.9323 -0.5678 0
M  V30 4671 C 449.509 -3.40474 -0.654098 0
M  V30 4672 C 448.57 -4.28759 0.215411 0
M  V30 4673 C 447.803 -5.30368 -0.595443 0
M  V30 4674 O 448.026 -5.40211 -1.83107 0
M  V30 4675 O 446.96 -6.019 0.00721351 0
M  V30 4676 H 450.786 -2.86597 1.00478 0
M  V30 4677 H 448.371 -1.38676 0.555818 0
M  V30 4678 H 450.253 -4.05703 -1.13944 0
M  V30 4679 H 448.928 -2.89937 -1.43938 0
M  V30 4680 H 447.835 -3.66554 0.747615 0
M  V30 4681 H 449.168 -4.82661 0.964332 0
M  V30 4682 N 450.82 -0.546701 -1.47814 0
M  V30 4683 C 451.783 0.196287 -2.28358 0
M  V30 4684 C 452.783 0.852437 -1.36346 0
M  V30 4685 O 453.973 0.709913 -1.59078 0
M  V30 4686 C 451.105 1.28579 -3.15722 0
M  V30 4687 H 452.298 -0.511086 -2.95513 0
M  V30 4688 H 449.851 -0.303248 -1.5333 0
M  V30 4689 H 450.586 2.0259 -2.53235 0
M  V30 4690 H 450.371 0.820229 -3.83425 0
M  V30 4691 H 451.861 1.80793 -3.76435 0
M  V30 4692 N 452.299 1.55045 -0.282633 0
M  V30 4693 C 453.246 2.22822 0.601566 0
M  V30 4694 C 454.216 1.20431 1.14392 0
M  V30 4695 O 455.401 1.48996 1.19184 0
M  V30 4696 C 452.541 2.95873 1.77632 0
M  V30 4697 C 451.654 4.12999 1.26711 0
M  V30 4698 C 450.789 4.73676 2.40426 0
M  V30 4699 C 449.828 5.82981 1.86545 0
M  V30 4700 N 448.965 6.3769 2.93762 0
M  V30 4701 H 453.805 2.97995 0.0169528 0
M  V30 4702 H 451.342 1.471 -0.00339964 0
M  V30 4703 H 453.3 3.36447 2.46697 0
M  V30 4704 H 451.93 2.2311 2.33285 0
M  V30 4705 H 450.982 3.77494 0.469314 0
M  V30 4706 H 452.294 4.91803 0.832518 0
M  V30 4707 H 451.448 5.17008 3.17471 0
M  V30 4708 H 450.187 3.94164 2.87203 0
M  V30 4709 H 449.192 5.39092 1.07983 0
M  V30 4710 H 450.417 6.64366 1.40694 0
M  V30 4711 H 448.363 5.61069 3.39908 0
M  V30 4712 H 448.28 7.11788 2.54744 0
M  V30 4713 H 449.548 6.8568 3.7076 0
M  V30 4714 N 453.777 0.010035 1.57597 0
M  V30 4715 C 455.193 -0.346164 1.55801 0
M  V30 4716 C 455.393 -1.74144 1.01371 0
M  V30 4717 O 454.449 -2.43938 0.651968 0
M  V30 4718 C 455.762 -0.212216 2.9995 0
M  V30 4719 C 457.31 -0.286409 3.11687 0
M  V30 4720 C 457.785 -0.18147 4.5764 0
M  V30 4721 N 459.276 -0.239056 4.62583 0
M  V30 4722 C 460.011 -0.181351 5.73113 0
M  V30 4723 N 459.507 -0.073661 6.92761 0
M  V30 4724 N 461.3 -0.233949 5.61613 0
M  V30 4725 H 453.451 0.922657 1.91313 0
M  V30 4726 H 455.714 0.354595 0.879185 0
M  V30 4727 H 455.42 0.748169 3.4365 0
M  V30 4728 H 455.294 -0.990224 3.6397 0
M  V30 4729 H 457.681 -1.23724 2.67911 0
M  V30 4730 H 457.762 0.521645 2.50425 0
M  V30 4731 H 457.406 0.765863 5.02093 0
M  V30 4732 H 457.336 -1.00814 5.1686 0
M  V30 4733 H 459.827 -0.32321 3.76515 0
M  V30 4734 H 460.14 -0.0358003 7.72792 0
M  V30 4735 H 458.485 -0.0391461 6.94989 0
M  V30 4736 H 461.676 -0.316347 4.6703 0
M  V30 4737 H 461.849 -0.185514 6.47734 0
M  V30 4738 N 455.255 -1.55392 -0.262866 0
M  V30 4739 C 456.202 -1.88966 -1.32516 0
M  V30 4740 C 457.172 -0.742187 -1.48596 0
M  V30 4741 O 458.357 -0.99439 -1.62839 0
M  V30 4742 C 455.497 -2.17592 -2.67858 0
M  V30 4743 C 454.61 -3.45061 -2.59917 0
M  V30 4744 C 453.745 -3.63336 -3.87505 0
M  V30 4745 C 452.784 -4.84462 -3.74116 0
M  V30 4746 N 451.921 -4.99342 -4.93561 0
M  V30 4747 H 456.761 -2.79566 -1.03184 0
M  V30 4748 H 454.298 -1.38404 -0.498285 0
M  V30 4749 H 456.256 -2.3219 -3.46617 0
M  V30 4750 H 454.886 -1.30215 -2.95371 0
M  V30 4751 H 453.938 -3.38881 -1.72812 0
M  V30 4752 H 455.25 -4.3396 -2.45926 0
M  V30 4753 H 454.404 -3.77807 -4.74707 0
M  V30 4754 H 453.143 -2.72641 -4.04374 0
M  V30 4755 H 452.148 -4.69985 -2.85297 0
M  V30 4756 H 453.373 -5.76603 -3.58757 0
M  V30 4757 H 451.319 -4.1158 -5.10821 0
M  V30 4758 H 451.236 -5.82303 -4.82141 0
M  V30 4759 H 452.504 -5.18208 -5.82306 0
M  V30 4760 N 456.733 0.527833 -1.48498 0
M  V30 4761 C 457.982 1.28003 -1.55878 0
M  V30 4762 C 458.295 1.9414 -0.238577 0
M  V30 4763 O 459.501 2.7083 -0.190643 0
M  V30 4764 C 457.957 2.32272 -2.74914 0
M  V30 4765 C 457.565 1.72196 -4.13585 0
M  V30 4766 C 459.309 3.08488 -2.91608 0
M  V30 4767 C 457.216 2.74417 -5.23879 0
M  V30 4768 H 456.146 0.481413 -0.580308 0
M  V30 4769 H 458.797 0.557195 -1.74836 0
M  V30 4770 H 457.179 3.07601 -2.49395 0
M  V30 4771 H 458.353 1.03041 -4.49132 0
M  V30 4772 H 456.668 1.08464 -4.02025 0
M  V30 4773 H 459.265 3.84879 -3.71177 0
M  V30 4774 H 459.608 3.64481 -2.01145 0
M  V30 4775 H 460.141 2.40274 -3.17038 0
M  V30 4776 H 456.88 2.23242 -6.16314 0
M  V30 4777 H 456.4 3.41893 -4.92818 0
M  V30 4778 H 458.079 3.37362 -5.52083 0
M  V30 4779 N 458.211 1.37122 0.776871 0
M  V30 4780 C 459.46 1.31373 1.53049 0
M  V30 4781 C 459.773 -0.101016 1.95339 0
M  V30 4782 O 460.979 -0.280953 2.70042 0
M  V30 4783 C 459.435 2.30567 2.76346 0
M  V30 4784 C 459.043 3.77543 2.41175 0
M  V30 4785 C 460.787 2.33818 3.54301 0
M  V30 4786 C 458.694 4.68481 3.60943 0
M  V30 4787 H 457.624 0.488234 0.574581 0
M  V30 4788 H 460.275 1.62554 0.851372 0
M  V30 4789 H 458.657 1.92396 3.46121 0
M  V30 4790 H 459.831 4.24521 1.79216 0
M  V30 4791 H 458.146 3.77187 1.76405 0
M  V30 4792 H 460.743 2.98965 4.4331 0
M  V30 4793 H 461.086 1.3503 3.93793 0
M  V30 4794 H 461.619 2.7067 2.91518 0
M  V30 4795 H 458.358 5.68378 3.26537 0
M  V30 4796 H 457.878 4.2621 4.22025 0
M  V30 4797 H 459.557 4.85366 4.27819 0
M  V30 4798 N 459.689 -1.00246 1.21608 0
M  V30 4799 C 460.937 -1.73717 1.0328 0
M  V30 4800 C 461.258 -1.90102 -0.434318 0
M  V30 4801 O 460.528 -1.45376 -1.31311 0
M  V30 4802 H 459.108 -0.643613 0.379172 0
M  V30 4803 H 461.77 -1.20787 1.52959 0
M  V30 4804 H 460.866 -2.73535 1.50283 0
M  V30 4805 N 461.167 -1.02423 -1.1978 0
M  V30 4806 C 462.583 -0.740459 -1.41384 0
M  V30 4807 C 462.783 0.676827 -1.89793 0
M  V30 4808 O 461.839 1.4435 -2.0717 0
M  V30 4809 C 463.152 -1.77264 -2.42895 0
M  V30 4810 C 464.7 -1.79165 -2.56649 0
M  V30 4811 C 465.175 -2.8133 -3.6141 0
M  V30 4812 N 466.666 -2.80118 -3.68901 0
M  V30 4813 C 467.401 -3.55824 -4.49641 0
M  V30 4814 N 466.897 -4.41231 -5.34123 0
M  V30 4815 N 468.69 -3.44387 -4.44246 0
M  V30 4816 H 460.841 -1.9391 -0.866764 0
M  V30 4817 H 463.104 -0.838074 -0.443098 0
M  V30 4818 H 462.81 -2.7884 -2.14339 0
M  V30 4819 H 462.684 -1.59108 -3.42001 0
M  V30 4820 H 465.071 -0.782702 -2.84531 0
M  V30 4821 H 465.152 -2.01396 -1.57713 0
M  V30 4822 H 464.796 -3.82394 -3.34271 0
M  V30 4823 H 464.726 -2.56359 -4.59986 0
M  V30 4824 H 467.217 -2.1817 -3.08562 0
M  V30 4825 H 467.53 -4.95747 -5.92836 0
M  V30 4826 H 465.875 -4.45306 -5.33599 0
M  V30 4827 H 469.066 -2.7708 -3.77285 0
M  V30 4828 H 469.239 -4.0364 -5.06931 0
M  V30 4829 N 462.645 1.35699 -0.801477 0
M  V30 4830 C 463.891 1.99208 -0.380022 0
M  V30 4831 C 464.224 1.63445 1.04878 0
M  V30 4832 O 463.499 0.895223 1.72673 0
M  V30 4833 C 463.782 3.55755 -0.557708 0
M  V30 4834 C 463.635 4.01332 -2.03107 0
M  V30 4835 C 464.954 4.40096 0.0197968 0
M  V30 4836 H 462.073 0.723667 -0.139552 0
M  V30 4837 H 464.715 1.60928 -1.01006 0
M  V30 4838 H 462.865 3.88494 -0.0213741 0
M  V30 4839 H 464.537 3.79026 -2.62939 0
M  V30 4840 H 462.78 3.52429 -2.52936 0
M  V30 4841 H 463.451 5.10234 -2.1063 0
M  V30 4842 H 465.927 4.13786 -0.438179 0
M  V30 4843 H 464.803 5.48735 -0.134477 0
M  V30 4844 H 465.064 4.2786 1.11303 0
M  V30 4845 N 464.123 0.554532 1.47522 0
M  V30 4846 C 465.37 0.029479 2.02479 0
M  V30 4847 C 465.698 -1.31929 1.42916 0
M  V30 4848 O 464.953 -1.87112 0.573385 0
M  V30 4849 C 465.252 -0.115927 3.57212 0
M  V30 4850 C 464.918 1.16161 4.3568 0
M  V30 4851 C 463.58 1.51168 4.56839 0
M  V30 4852 C 465.932 2.0083 4.80954 0
M  V30 4853 C 463.26 2.70696 5.2052 0
M  V30 4854 C 465.612 3.19559 5.45953 0
M  V30 4855 C 464.276 3.54882 5.65345 0
M  V30 4856 H 463.546 0.0107871 0.740921 0
M  V30 4857 H 466.193 0.725506 1.77225 0
M  V30 4858 H 464.498 -0.894902 3.81443 0
M  V30 4859 H 466.195 -0.53749 3.97381 0
M  V30 4860 H 462.785 0.879026 4.19489 0
M  V30 4861 H 466.969 1.75093 4.64388 0
M  V30 4862 H 462.225 2.98236 5.33728 0
M  V30 4863 H 466.399 3.85456 5.79997 0
M  V30 4864 H 464.026 4.47596 6.1446 0
M  V30 4865 N 465.601 -1.54893 0.290851 0
M  V30 4866 C 466.847 -2.0023 -0.321867 0
M  V30 4867 C 467.18 -1.179 -1.54316 0
M  V30 4868 O 466.455 -0.25293 -1.92848 0
M  V30 4869 C 466.738 -3.53456 -0.688515 0
M  V30 4870 C 466.591 -4.46532 0.541209 0
M  V30 4871 C 467.91 -4.13057 -1.51895 0
M  V30 4872 H 465.029 -0.727891 -0.115515 0
M  V30 4873 H 467.671 -1.85722 0.400931 0
M  V30 4874 H 465.821 -3.6595 -1.30433 0
M  V30 4875 H 467.493 -4.4596 1.17973 0
M  V30 4876 H 465.736 -4.17545 1.17636 0
M  V30 4877 H 466.407 -5.51475 0.240675 0
M  V30 4878 H 468.883 -4.03937 -0.99872 0
M  V30 4879 H 467.759 -5.20448 -1.74429 0
M  V30 4880 H 468.02 -3.64284 -2.50498 0
M  V30 4881 N 467.08 -0.0183926 -1.57589 0
M  V30 4882 C 467.99 0.982943 -2.13015 0
M  V30 4883 C 469.006 1.36443 -1.07979 0
M  V30 4884 O 470.182 1.44802 -1.3998 0
M  V30 4885 C 467.247 2.25024 -2.63752 0
M  V30 4886 C 466.308 1.93018 -3.83461 0
M  V30 4887 C 465.541 3.13706 -4.31769 0
M  V30 4888 O 465.764 4.2601 -3.79305 0
M  V30 4889 O 464.698 2.96629 -5.23732 0
M  V30 4890 H 468.524 0.541709 -2.9883 0
M  V30 4891 H 466.109 0.201565 -1.48034 0
M  V30 4892 H 467.991 2.99441 -2.96502 0
M  V30 4893 H 466.666 2.68349 -1.81026 0
M  V30 4894 H 465.573 1.16019 -3.55655 0
M  V30 4895 H 466.906 1.54516 -4.67317 0
M  V30 4896 N 468.558 1.5553 0.254621 0
M  V30 4897 C 469.804 1.77262 0.985193 0
M  V30 4898 C 470.137 0.582286 1.85265 0
M  V30 4899 O 469.412 -0.419666 1.89919 0
M  V30 4900 C 469.695 3.0881 1.85225 0
M  V30 4901 C 469.548 4.38233 1.0135 0
M  V30 4902 C 470.867 3.3653 2.83612 0
M  V30 4903 H 467.986 0.644906 0.356742 0
M  V30 4904 H 470.628 1.88264 0.256236 0
M  V30 4905 H 468.778 2.99562 2.47376 0
M  V30 4906 H 470.45 4.59463 0.411269 0
M  V30 4907 H 468.693 4.32636 0.317574 0
M  V30 4908 H 469.364 5.26644 1.65379 0
M  V30 4909 H 471.84 3.45691 2.31596 0
M  V30 4910 H 470.716 4.29805 3.41407 0
M  V30 4911 H 470.977 2.57064 3.59681 0
M  V30 4912 N 470.036 -0.519951 1.48776 0
M  V30 4913 C 471.283 -1.27522 1.57303 0
M  V30 4914 C 471.611 -1.92869 0.251328 0
M  V30 4915 O 470.866 -1.80372 -0.759243 0
M  V30 4916 C 471.165 -2.37864 2.6675 0
M  V30 4917 C 470.831 -1.90103 4.08867 0
M  V30 4918 C 469.493 -1.76795 4.47546 0
M  V30 4919 C 471.845 -1.54133 4.97888 0
M  V30 4920 C 469.173 -1.25868 5.73039 0
M  V30 4921 C 471.525 -1.04665 6.23881 0
M  V30 4922 C 470.189 -0.899823 6.61407 0
M  V30 4923 H 469.459 -0.466636 0.575614 0
M  V30 4924 H 472.106 -0.579109 1.82534 0
M  V30 4925 H 470.411 -3.13186 2.35418 0
M  V30 4926 H 472.108 -2.95969 2.70561 0
M  V30 4927 H 468.698 -2.01414 3.78326 0
M  V30 4928 H 472.882 -1.6327 4.68675 0
M  V30 4929 H 468.138 -1.13196 6.0083 0
M  V30 4930 H 472.312 -0.759074 6.92251 0
M  V30 4931 H 469.939 -0.503011 7.58534 0
M  V30 4932 N 471.514 -1.37532 -0.769588 0
M  V30 4933 C 472.791 -1.23392 -1.51768 0
M  V30 4934 C 473.171 0.17157 -2.10402 0
M  V30 4935 O 472.519 1.17943 -1.95708 0
M  V30 4936 C 472.729 -2.33163 -2.59685 0
M  V30 4937 C 474.077 -2.70809 -3.27028 0
M  V30 4938 O 475.101 -2.32355 -2.69981 0
M  V30 4939 O 473.96 -3.37066 -4.30173 0
M  V30 4940 H 471.054 -0.481617 -0.67229 0
M  V30 4941 H 473.6 -1.49318 -0.806368 0
M  V30 4942 H 472.372 -3.27273 -2.14494 0
M  V30 4943 H 471.995 -2.08713 -3.38415 0
M  V30 4944 N 472.992 0.995999 -1.22138 0
M  V30 4945 C 473.902 2.11985 -1.00496 0
M  V30 4946 C 474.918 1.7394 0.0457701 0
M  V30 4947 O 476.094 2.00868 -0.146273 0
M  V30 4948 C 473.159 3.41779 -0.582086 0
M  V30 4949 C 472.22 3.93943 -1.70608 0
M  V30 4950 C 471.453 5.17542 -1.30328 0
M  V30 4951 O 471.676 5.70114 -0.180743 0
M  V30 4952 O 470.61 5.63382 -2.11861 0
M  V30 4953 H 474.436 2.33123 -1.94647 0
M  V30 4954 H 472.021 1.10358 -1.00705 0
M  V30 4955 H 473.903 4.1989 -0.356467 0
M  V30 4956 H 472.578 3.22007 0.330592 0
M  V30 4957 H 471.485 3.17019 -1.98619 0
M  V30 4958 H 472.818 4.18141 -2.59651 0
M  V30 4959 N 474.47 1.03057 1.19235 0
M  V30 4960 C 475.38 0.622922 2.26179 0
M  V30 4961 C 476.396 -0.346113 1.70523 0
M  V30 4962 O 477.572 -0.203572 2.00369 0
M  V30 4963 C 474.637 -0.0182063 3.46695 0
M  V30 4964 C 473.698 0.998546 4.17526 0
M  V30 4965 C 472.931 0.387917 5.32288 0
M  V30 4966 O 473.154 -0.808668 5.64639 0
M  V30 4967 O 472.088 1.1116 5.91546 0
M  V30 4968 H 475.914 1.51363 2.63292 0
M  V30 4969 H 473.499 0.800856 1.26122 0
M  V30 4970 H 475.381 -0.375606 4.19723 0
M  V30 4971 H 474.056 -0.882895 3.11427 0
M  V30 4972 H 472.963 1.40756 3.4661 0
M  V30 4973 H 474.296 1.83366 4.56769 0
M  V30 4974 N 475.948 -1.35272 0.808662 0
M  V30 4975 C 476.911 -2.28082 0.226093 0
M  V30 4976 C 477.911 -1.49673 -0.587762 0
M  V30 4977 O 479.101 -1.69404 -0.405943 0
M  V30 4978 C 476.233 -3.33955 -0.684596 0
M  V30 4979 H 477.426 -2.81116 1.04469 0
M  V30 4980 H 474.979 -1.45162 0.579466 0
M  V30 4981 H 475.714 -2.86111 -1.5268 0
M  V30 4982 H 475.499 -3.91965 -0.102699 0
M  V30 4983 H 476.989 -4.03219 -1.08646 0
M  V30 4984 N 477.426 -0.562348 -1.47226 0
M  V30 4985 C 478.356 0.170627 -2.32876 0
M  V30 4986 C 479.337 0.903748 -1.44106 0
M  V30 4987 O 480.522 0.883206 -1.72954 0
M  V30 4988 C 477.652 1.19786 -3.25989 0
M  V30 4989 C 476.606 0.580875 -4.2404 0
M  V30 4990 C 475.932 1.71311 -5.06514 0
M  V30 4991 C 477.232 -0.468714 -5.20193 0
M  V30 4992 H 478.926 -0.544441 -2.94408 0
M  V30 4993 H 476.472 -0.263271 -1.41573 0
M  V30 4994 H 478.425 1.71884 -3.84752 0
M  V30 4995 H 477.149 1.94294 -2.62521 0
M  V30 4996 H 475.808 0.0811538 -3.6651 0
M  V30 4997 H 475.456 2.44736 -4.39447 0
M  V30 4998 H 475.156 1.30604 -5.72902 0
M  V30 4999 H 476.68 2.23725 -5.68137 0
M  V30 5000 H 478.094 -0.0336028 -5.7329 0
M  V30 5001 H 476.491 -0.794957 -5.94811 0
M  V30 5002 H 477.561 -1.36269 -4.65359 0
M  V30 5003 N 478.904 1.54736 -0.299062 0
M  V30 5004 C 479.851 2.23448 0.577899 0
M  V30 5005 C 480.821 1.21637 1.13109 0
M  V30 5006 O 482.006 1.50252 1.17597 0
M  V30 5007 C 479.146 2.9774 1.74484 0
M  V30 5008 C 478.259 4.1432 1.22323 0
M  V30 5009 C 477.394 4.76199 2.35388 0
M  V30 5010 C 476.433 5.84927 1.80351 0
M  V30 5011 N 475.57 6.4077 2.86982 0
M  V30 5012 H 480.41 2.97996 -0.0146545 0
M  V30 5013 H 477.947 1.47088 -0.0190013 0
M  V30 5014 H 479.905 3.39045 2.43114 0
M  V30 5015 H 478.535 2.25572 2.30905 0
M  V30 5016 H 477.587 3.7797 0.429249 0
M  V30 5017 H 478.899 4.92659 0.780309 0
M  V30 5018 H 478.053 5.20346 3.11969 0
M  V30 5019 H 476.792 3.97188 2.83006 0
M  V30 5020 H 475.797 5.40207 1.02259 0
M  V30 5021 H 477.022 6.65821 1.3364 0
M  V30 5022 H 474.968 5.64643 3.33938 0
M  V30 5023 H 474.885 7.1445 2.4718 0
M  V30 5024 H 476.153 6.89574 3.63466 0
M  V30 5025 N 480.382 0.0267497 1.57577 0
M  V30 5026 C 481.312 -0.954308 2.13108 0
M  V30 5027 C 482.293 -1.34088 1.04663 0
M  V30 5028 O 483.478 -1.41992 1.32484 0
M  V30 5029 C 480.608 -2.23744 2.65624 0
M  V30 5030 C 479.562 -1.99168 3.78835 0
M  V30 5031 C 478.888 -3.33726 4.17769 0
M  V30 5032 C 480.188 -1.33277 5.0501 0
M  V30 5033 H 481.882 -0.491848 2.95332 0
M  V30 5034 H 479.428 -0.23514 1.42067 0
M  V30 5035 H 481.381 -2.92754 3.03106 0
M  V30 5036 H 480.105 -2.72151 1.80558 0
M  V30 5037 H 478.764 -1.32577 3.41788 0
M  V30 5038 H 478.412 -3.79888 3.29688 0
M  V30 5039 H 478.112 -3.18089 4.94058 0
M  V30 5040 H 479.636 -4.04008 4.57832 0
M  V30 5041 H 481.05 -1.92283 5.40093 0
M  V30 5042 H 479.447 -1.28045 5.8628 0
M  V30 5043 H 480.517 -0.305411 4.83937 0
M  V30 5044 N 481.861 -1.55662 -0.24637 0
M  V30 5045 C 482.771 -1.93495 -1.32653 0
M  V30 5046 C 483.787 -0.835462 -1.5263 0
M  V30 5047 O 484.963 -1.1369 -1.66242 0
M  V30 5048 C 482.028 -2.22242 -2.66101 0
M  V30 5049 C 481.089 -3.45625 -2.54641 0
M  V30 5050 C 480.322 -3.72991 -3.81724 0
M  V30 5051 O 480.545 -3.02421 -4.8363 0
M  V30 5052 O 479.479 -4.66515 -3.80325 0
M  V30 5053 H 483.305 -2.85498 -1.03559 0
M  V30 5054 H 480.89 -1.42551 -0.44717 0
M  V30 5055 H 482.772 -2.42037 -3.44958 0
M  V30 5056 H 481.447 -1.33417 -2.94926 0
M  V30 5057 H 480.354 -3.31136 -1.74067 0
M  V30 5058 H 481.687 -4.34754 -2.3076 0
M  V30 5059 N 483.339 0.512053 -1.4905 0
M  V30 5060 C 484.616 1.27337 -1.48474 0
M  V30 5061 C 484.996 2.1009 -0.206301 0
M  V30 5062 O 484.344 2.136 0.811609 0
M  V30 5063 C 484.554 2.13954 -2.75726 0
M  V30 5064 C 485.902 2.73507 -3.24776 0
M  V30 5065 O 486.926 2.24229 -2.76767 0
M  V30 5066 O 485.785 3.63186 -4.08361 0
M  V30 5067 H 482.879 0.575652 -0.593762 0
M  V30 5068 H 485.425 0.527232 -1.61302 0
M  V30 5069 H 484.197 1.52709 -3.60272 0
M  V30 5070 H 483.82 2.95782 -2.65705 0
M  V30 5071 N 484.817 1.37938 0.762283 0
M  V30 5072 C 486.063 1.33866 1.52341 0
M  V30 5073 C 486.396 -0.0738961 1.94059 0
M  V30 5074 O 485.671 -1.03326 1.64785 0
M  V30 5075 C 485.954 2.28644 2.78197 0
M  V30 5076 C 485.807 3.78722 2.42672 0
M  V30 5077 C 487.126 2.21702 3.80179 0
M  V30 5078 H 484.245 0.487593 0.55265 0
M  V30 5079 H 486.887 1.68717 0.873767 0
M  V30 5080 H 485.037 1.99055 3.33631 0
M  V30 5081 H 486.709 4.18948 1.93081 0
M  V30 5082 H 484.952 3.96827 1.75244 0
M  V30 5083 H 485.623 4.40486 3.3268 0
M  V30 5084 H 488.099 2.47805 3.34263 0
M  V30 5085 H 486.975 2.90143 4.65949 0
M  V30 5086 H 487.236 1.21301 4.25133 0
M  V30 5087 N 486.295 -0.989507 1.22664 0
M  V30 5088 C 487.242 -2.08024 0.999733 0
M  V30 5089 C 488.212 -1.65909 -0.0797047 0
M  V30 5090 O 489.397 -1.90669 0.0705715 0
M  V30 5091 C 486.537 -3.40067 0.587234 0
M  V30 5092 C 485.65 -3.95505 1.73781 0
M  V30 5093 C 484.785 -5.15722 1.27297 0
M  V30 5094 C 483.824 -5.63305 2.39488 0
M  V30 5095 N 482.961 -6.74758 1.94026 0
M  V30 5096 H 487.801 -2.26768 1.9334 0
M  V30 5097 H 485.338 -1.11171 0.963297 0
M  V30 5098 H 487.296 -4.15899 0.329227 0
M  V30 5099 H 485.926 -3.21314 -0.309426 0
M  V30 5100 H 484.978 -3.16513 2.11006 0
M  V30 5101 H 486.29 -4.26797 2.58158 0
M  V30 5102 H 485.444 -5.98854 0.972546 0
M  V30 5103 H 484.183 -4.86061 0.399445 0
M  V30 5104 H 483.188 -4.78759 2.70315 0
M  V30 5105 H 484.413 -5.94988 3.27362 0
M  V30 5106 H 482.359 -6.46874 1.09041 0
M  V30 5107 H 482.276 -7.05386 2.71968 0
M  V30 5108 H 483.544 -7.61387 1.67062 0
M  V30 5109 N 487.773 -1.03688 -1.18687 0
M  V30 5110 C 489.019 -0.74888 -1.89112 0
M  V30 5111 C 489.374 0.715345 -1.78607 0
M  V30 5112 O 488.667 1.51498 -1.17299 0
M  V30 5113 C 488.861 -1.14477 -3.3857 0
M  V30 5114 C 488.69 -2.64594 -3.63621 0
M  V30 5115 C 487.46 -3.31685 -3.812 0
M  V30 5116 C 489.658 -3.62811 -3.64517 0
M  V30 5117 N 487.64 -4.70822 -3.93955 0
M  V30 5118 C 489.011 -4.87603 -3.8294 0
M  V30 5119 C 491.066 -3.56495 -3.47585 0
M  V30 5120 C 489.769 -6.0684 -3.86184 0
M  V30 5121 C 491.795 -4.75155 -3.52111 0
M  V30 5122 C 491.157 -5.98765 -3.71026 0
M  V30 5123 H 487.256 -0.32603 -0.710794 0
M  V30 5124 H 489.84 -1.3258 -1.42586 0
M  V30 5125 H 488.011 -0.595974 -3.838 0
M  V30 5126 H 489.743 -0.808187 -3.96548 0
M  V30 5127 H 486.498 -2.82091 -3.80423 0
M  V30 5128 H 486.922 -5.43122 -4.04163 0
M  V30 5129 H 491.564 -2.61907 -3.31911 0
M  V30 5130 H 489.282 -7.01788 -4.00648 0
M  V30 5131 H 492.868 -4.71905 -3.40289 0
M  V30 5132 H 491.748 -6.89047 -3.74412 0
M  V30 5133 N 489.251 1.34841 -0.815825 0
M  V30 5134 C 490.181 2.32187 -0.247298 0
M  V30 5135 C 491.162 1.5791 0.632344 0
M  V30 5136 O 492.347 1.8593 0.560698 0
M  V30 5137 C 489.477 3.42122 0.597466 0
M  V30 5138 C 488.431 4.27602 -0.184446 0
M  V30 5139 C 487.757 5.28942 0.782609 0
M  V30 5140 C 489.057 5.03502 -1.38865 0
M  V30 5141 H 490.751 2.79985 -1.06061 0
M  V30 5142 H 488.297 1.34611 -0.511461 0
M  V30 5143 H 490.25 4.09232 1.00533 0
M  V30 5144 H 488.974 2.92956 1.44376 0
M  V30 5145 H 487.633 3.62085 -0.573592 0
M  V30 5146 H 487.281 4.7604 1.62466 0
M  V30 5147 H 486.981 5.87008 0.263695 0
M  V30 5148 H 488.505 5.98922 1.18848 0
M  V30 5149 H 489.919 5.63506 -1.05518 0
M  V30 5150 H 488.316 5.71108 -1.8427 0
M  V30 5151 H 489.386 4.33608 -2.17054 0
M  V30 5152 N 490.729 0.570148 1.46925 0
M  V30 5153 C 491.692 -0.159933 2.28641 0
M  V30 5154 C 492.692 -0.830638 1.37685 0
M  V30 5155 O 493.882 -0.684516 1.60187 0
M  V30 5156 C 491.014 -1.2354 3.17727 0
M  V30 5157 H 492.207 0.558035 2.94662 0
M  V30 5158 H 489.76 0.327603 1.52828 0
M  V30 5159 H 490.495 -1.98535 2.56426 0
M  V30 5160 H 490.28 -0.759125 3.84681 0
M  V30 5161 H 491.77 -1.74782 3.79264 0
M  V30 5162 N 492.207 -1.54576 0.307264 0
M  V30 5163 C 493.139 -2.21212 -0.599807 0
M  V30 5164 C 494.152 -1.20685 -1.09266 0
M  V30 5165 O 495.341 -1.47244 -1.00903 0
M  V30 5166 C 492.441 -2.84994 -1.83389 0
M  V30 5167 C 491.614 -4.11511 -1.48248 0
M  V30 5168 C 490.673 -4.59038 -2.57237 0
M  V30 5169 O 489.699 -5.24095 -2.22065 0
M  V30 5170 N 490.901 -4.31884 -3.87887 0
M  V30 5171 H 493.666 -2.99686 -0.0293075 0
M  V30 5172 H 491.227 -1.61379 0.129738 0
M  V30 5173 H 493.219 -3.1372 -2.5566 0
M  V30 5174 H 491.789 -2.10324 -2.31263 0
M  V30 5175 H 491.009 -3.89728 -0.592122 0
M  V30 5176 H 492.297 -4.93879 -1.22316 0
M  V30 5177 H 491.695 -3.79778 -4.19268 0
M  V30 5178 H 490.252 -4.65304 -4.56438 0
M  V30 5179 N 493.685 -0.035106 -1.57561 0
M  V30 5180 C 494.933 0.64096 -1.91667 0
M  V30 5181 C 495.254 1.72323 -0.912681 0
M  V30 5182 O 494.524 1.95849 0.0449089 0
M  V30 5183 H 493.104 0.239743 -0.707483 0
M  V30 5184 H 495.766 -0.084321 -1.94718 0
M  V30 5185 H 494.862 1.08987 -2.92452 0
M  V30 5186 N 495.163 1.55791 0.238111 0
M  V30 5187 C 496.391 1.82098 0.982233 0
M  V30 5188 C 496.806 0.612025 1.78605 0
M  V30 5189 O 496.163 -0.419381 1.77616 0
M  V30 5190 C 496.214 3.0673 1.91309 0
M  V30 5191 O 495.935 4.2296 1.14179 0
M  V30 5192 C 497.436 3.45903 2.77248 0
M  V30 5193 H 494.656 0.605748 0.288635 0
M  V30 5194 H 497.2 2.02862 0.258341 0
M  V30 5195 H 495.355 2.87991 2.59114 0
M  V30 5196 H 495.769 4.93653 1.7722 0
M  V30 5197 H 497.243 4.36189 3.38295 0
M  V30 5198 H 497.72 2.66891 3.48806 0
M  V30 5199 H 498.326 3.67024 2.14881 0
M  V30 5200 N 496.642 -0.504142 1.49319 0
M  V30 5201 C 497.891 -1.25507 1.57895 0
M  V30 5202 C 498.204 -1.93735 0.269433 0
M  V30 5203 O 499.41 -2.70492 0.233706 0
M  V30 5204 C 497.866 -2.27869 2.78574 0
M  V30 5205 C 497.474 -1.65594 4.16272 0
M  V30 5206 C 499.218 -3.0381 2.96479 0
M  V30 5207 C 497.125 -2.66048 5.28178 0
M  V30 5208 H 496.055 -0.47212 0.587894 0
M  V30 5209 H 498.706 -0.52931 1.757 0
M  V30 5210 H 497.088 -3.03594 2.54257 0
M  V30 5211 H 498.262 -0.958826 4.50714 0
M  V30 5212 H 496.577 -1.02055 4.037 0
M  V30 5213 H 499.174 -3.78925 3.77253 0
M  V30 5214 H 499.517 -3.61235 2.06918 0
M  V30 5215 H 500.05 -2.352 3.20821 0
M  V30 5216 H 496.789 -2.13408 6.19788 0
M  V30 5217 H 496.309 -3.34009 4.98195 0
M  V30 5218 H 497.988 -3.28536 5.57381 0
M  V30 5219 N 498.12 -1.38341 -0.754957 0
M  V30 5220 C 499.35 -1.37504 -1.54195 0
M  V30 5221 C 499.758 0.0373787 -1.89163 0
M  V30 5222 O 499.101 1.01402 -1.53178 0
M  V30 5223 C 499.163 -2.16488 -2.87008 0
M  V30 5224 C 498.827 -3.65311 -2.74585 0
M  V30 5225 C 499.824 -4.58834 -2.44474 0
M  V30 5226 C 497.509 -4.08649 -2.9208 0
M  V30 5227 C 499.503 -5.93675 -2.32011 0
M  V30 5228 C 497.19 -5.43571 -2.79237 0
M  V30 5229 C 498.188 -6.35898 -2.49245 0
M  V30 5230 O 497.876 -7.68338 -2.36458 0
M  V30 5231 H 497.608 -0.472159 -0.483779 0
M  V30 5232 H 500.162 -1.82515 -0.94221 0
M  V30 5233 H 498.392 -1.66194 -3.49166 0
M  V30 5234 H 500.081 -2.08076 -3.4851 0
M  V30 5235 H 500.847 -4.26657 -2.30627 0
M  V30 5236 H 496.726 -3.37134 -3.14422 0
M  V30 5237 H 500.27 -6.65706 -2.08522 0
M  V30 5238 H 496.167 -5.75345 -2.92657 0
M  V30 5239 H 496.935 -7.78845 -2.5168 0
M  V30 5240 N 499.598 0.982988 -1.23187 0
M  V30 5241 C 501.009 1.53847 -1.05773 0
M  V30 5242 C 501.36 1.92568 0.375744 0
M  V30 5243 O 500.485 1.75783 1.26211 0
M  V30 5244 C 501.08 2.79567 -1.91384 0
M  V30 5245 C 499.639 3.31524 -1.78238 0
M  V30 5246 C 498.786 2.04534 -1.87246 0
M  V30 5247 H 501.737 0.802962 -1.36888 0
M  V30 5248 H 501.758 3.52317 -1.43711 0
M  V30 5249 H 501.27 2.51353 -2.95708 0
M  V30 5250 H 499.371 3.64623 -0.766875 0
M  V30 5251 H 499.484 4.01457 -2.61475 0
M  V30 5252 H 497.848 2.1855 -1.30797 0
M  V30 5253 H 498.631 1.78706 -2.9312 0
M  V30 5254 N 501.076 1.04316 1.18135 0
M  V30 5255 C 502.353 0.662166 1.84051 0
M  V30 5256 C 502.733 -0.858169 1.9287 0
M  V30 5257 O 502.081 -1.76062 1.45652 0
M  V30 5258 C 502.291 1.3409 3.22212 0
M  V30 5259 C 503.639 1.4733 3.9822 0
M  V30 5260 O 504.663 1.29921 3.31661 0
M  V30 5261 O 503.522 1.75722 5.17479 0
M  V30 5262 H 500.616 0.232005 0.79379 0
M  V30 5263 H 503.162 1.1422 1.25506 0
M  V30 5264 H 501.934 2.37853 3.10711 0
M  V30 5265 H 501.557 0.849649 3.88416 0
M  V30 5266 N 502.554 -1.34406 0.822964 0
M  V30 5267 C 503.8 -1.98578 0.411666 0
M  V30 5268 C 504.133 -1.65093 -1.02264 0
M  V30 5269 O 503.408 -0.92258 -1.71227 0
M  V30 5270 C 503.691 -3.54823 0.614235 0
M  V30 5271 C 503.544 -3.9805 2.09466 0
M  V30 5272 C 504.863 -4.40071 0.050221 0
M  V30 5273 H 501.982 -0.721355 0.151047 0
M  V30 5274 H 504.624 -1.59301 1.03554 0
M  V30 5275 H 502.774 -3.88411 0.0831774 0
M  V30 5276 H 504.446 -3.74795 2.68936 0
M  V30 5277 H 502.689 -3.4836 2.5851 0
M  V30 5278 H 503.36 -5.06819 2.18721 0
M  V30 5279 H 505.836 -4.13037 0.503953 0
M  V30 5280 H 504.712 -5.48452 0.221759 0
M  V30 5281 H 504.973 -4.29576 -1.04482 0
M  V30 5282 N 504.032 -0.577932 -1.46621 0
M  V30 5283 C 505.281 -0.0594281 -2.01612 0
M  V30 5284 C 505.594 1.30663 -1.45556 0
M  V30 5285 O 506.8 1.91621 -1.92337 0
M  V30 5286 C 505.256 -0.0556666 -3.59857 0
M  V30 5287 C 504.864 -1.41975 -4.24908 0
M  V30 5288 C 506.608 0.409143 -4.22524 0
M  V30 5289 C 504.515 -1.37397 -5.75218 0
M  V30 5290 H 503.445 -0.0184469 -0.753774 0
M  V30 5291 H 506.096 -0.728869 -1.68404 0
M  V30 5292 H 504.478 0.679843 -3.90121 0
M  V30 5293 H 505.652 -2.17461 -4.0626 0
M  V30 5294 H 503.967 -1.82419 -3.74316 0
M  V30 5295 H 506.564 0.46211 -5.32699 0
M  V30 5296 H 506.907 1.42565 -3.91128 0
M  V30 5297 H 507.44 -0.272152 -3.96868 0
M  V30 5298 H 504.179 -2.36714 -6.11267 0
M  V30 5299 H 503.699 -0.661239 -5.96144 0
M  V30 5300 H 505.378 -1.08484 -6.3784 0
M  V30 5301 N 505.51 1.54411 -0.315457 0
M  V30 5302 C 506.42 2.27737 0.56329 0
M  V30 5303 C 507.436 1.31787 1.13614 0
M  V30 5304 O 508.612 1.64791 1.15784 0
M  V30 5305 C 505.677 3.01478 1.71207 0
M  V30 5306 C 504.738 4.12997 1.17185 0
M  V30 5307 C 503.971 4.83212 2.26588 0
M  V30 5308 O 504.194 4.52884 3.46775 0
M  V30 5309 O 503.128 5.70299 1.92463 0
M  V30 5310 H 506.954 3.03683 -0.0319614 0
M  V30 5311 H 504.539 1.49178 -0.0814188 0
M  V30 5312 H 506.421 3.47683 2.38106 0
M  V30 5313 H 505.096 2.28414 2.29366 0
M  V30 5314 H 504.003 3.71159 0.468174 0
M  V30 5315 H 505.336 4.8808 0.635501 0
M  V30 5316 N 506.988 0.0434614 1.5754 0
M  V30 5317 C 508.213 -0.645358 1.97104 0
M  V30 5318 C 508.638 -1.64037 0.920521 0
M  V30 5319 O 507.996 -1.80922 -0.11708 0
M  V30 5320 C 508.044 -1.31547 3.35749 0
M  V30 5321 O 507.148 -2.43103 3.33129 0
M  V30 5322 H 506.489 -0.168403 0.64229 0
M  V30 5323 H 509.019 0.109573 2.04306 0
M  V30 5324 H 509.029 -1.66895 3.72304 0
M  V30 5325 H 507.704 -0.586205 4.11748 0
M  V30 5326 H 506.281 -2.0976 3.0831 0
M  V30 5327 N 508.466 -1.55915 -0.229846 0
M  V30 5328 C 509.429 -1.90914 -1.26824 0
M  V30 5329 C 510.429 -0.786999 -1.40225 0
M  V30 5330 O 511.619 -1.05484 -1.38632 0
M  V30 5331 C 508.751 -2.15264 -2.64337 0
M  V30 5332 H 509.944 -2.8378 -0.969998 0
M  V30 5333 H 507.497 -1.49069 -0.4699 0
M  V30 5334 H 508.232 -1.24923 -2.99274 0
M  V30 5335 H 508.017 -2.97005 -2.55989 0
M  V30 5336 H 509.507 -2.43467 -3.39284 0
M  V30 5337 N 509.944 0.496216 -1.49584 0
M  V30 5338 C 510.907 1.57952 -1.66084 0
M  V30 5339 C 511.907 1.51729 -0.53244 0
M  V30 5340 O 513.097 1.54796 -0.79899 0
M  V30 5341 C 510.229 2.97604 -1.66268 0
M  V30 5342 H 511.422 1.44649 -2.6271 0
M  V30 5343 H 508.975 0.7208 -1.38687 0
M  V30 5344 H 509.71 3.16378 -0.712432 0
M  V30 5345 H 509.495 3.03528 -2.4822 0
M  V30 5346 H 510.985 3.76301 -1.81073 0
M  V30 5347 N 511.423 1.38739 0.74761 0
M  V30 5348 C 512.648 1.38702 1.54197 0
M  V30 5349 C 513.073 -0.019664 1.8809 0
M  V30 5350 O 512.431 -1.00333 1.51006 0
M  V30 5351 C 512.479 2.25492 2.814 0
M  V30 5352 O 511.583 1.67613 3.76802 0
M  V30 5353 H 510.924 0.472863 0.466151 0
M  V30 5354 H 513.454 1.82577 0.923413 0
M  V30 5355 H 513.464 2.39561 3.30264 0
M  V30 5356 H 512.139 3.27727 2.56062 0
M  V30 5357 H 510.716 1.62718 3.35526 0
M  V30 5358 N 512.901 -0.976442 1.23707 0
M  V30 5359 C 513.864 -2.0511 1.02287 0
M  V30 5360 C 514.864 -1.60791 -0.0167195 0
M  V30 5361 O 516.054 -1.72761 0.223408 0
M  V30 5362 C 513.186 -3.36458 0.548507 0
M  V30 5363 H 514.379 -2.25545 1.9766 0
M  V30 5364 H 511.932 -1.15042 1.05806 0
M  V30 5365 H 512.667 -3.21713 -0.408818 0
M  V30 5366 H 512.452 -3.69967 1.29874 0
M  V30 5367 H 513.942 -4.15489 0.419406 0
M  V30 5368 N 514.379 -1.04941 -1.1758 0
M  V30 5369 C 515.607 -0.778294 -1.91703 0
M  V30 5370 C 516.022 0.665697 -1.76675 0
M  V30 5371 O 515.379 1.45456 -1.10222 0
M  V30 5372 C 515.43 -1.14628 -3.42845 0
M  V30 5373 O 515.151 -2.53359 -3.57409 0
M  V30 5374 C 516.652 -0.900931 -4.34049 0
M  V30 5375 H 513.872 -0.283167 -0.608323 0
M  V30 5376 H 516.416 -1.39942 -1.49119 0
M  V30 5377 H 514.571 -0.569953 -3.83184 0
M  V30 5378 H 514.985 -2.67709 -4.51035 0
M  V30 5379 H 516.459 -1.20817 -5.38616 0
M  V30 5380 H 516.936 0.163966 -4.38894 0
M  V30 5381 H 517.542 -1.46097 -3.99419 0
M  V30 5382 N 515.857 1.33968 -0.830081 0
M  V30 5383 C 517.105 1.97672 -0.420734 0
M  V30 5384 C 517.426 1.66111 1.02138 0
M  V30 5385 O 516.696 0.955503 1.71017 0
M  V30 5386 H 515.276 0.73125 -0.152587 0
M  V30 5387 H 517.938 1.63483 -1.0611 0
M  V30 5388 H 517.034 3.07294 -0.545588 0
M  V30 5389 N 517.335 0.585699 1.46312 0
M  V30 5390 C 518.282 -0.145835 2.30339 0
M  V30 5391 C 519.252 -0.881215 1.40797 0
M  V30 5392 O 520.437 -0.871293 1.69744 0
M  V30 5393 C 517.577 -1.15161 3.25318 0
M  V30 5394 C 516.69 -0.419367 4.2996 0
M  V30 5395 C 515.825 -1.41293 5.12064 0
M  V30 5396 C 514.864 -0.667261 6.08452 0
M  V30 5397 N 514.001 -1.60903 6.83414 0
M  V30 5398 H 518.841 0.576755 2.92365 0
M  V30 5399 H 516.378 0.296237 1.44086 0
M  V30 5400 H 518.336 -1.74763 3.78832 0
M  V30 5401 H 516.966 -1.84188 2.65094 0
M  V30 5402 H 516.018 0.291751 3.7928 0
M  V30 5403 H 517.33 0.163433 4.98532 0
M  V30 5404 H 516.484 -2.08167 5.6987 0
M  V30 5405 H 515.223 -2.02966 4.43459 0
M  V30 5406 H 514.228 0.0152356 5.49798 0
M  V30 5407 H 515.453 -0.0558817 6.79077 0
M  V30 5408 H 513.399 -2.21381 6.17516 0
M  V30 5409 H 513.316 -1.07911 7.48259 0
M  V30 5410 H 514.584 -2.26802 7.45775 0
M  V30 5411 N 518.813 -1.54241 0.323641 0
M  V30 5412 C 519.776 -2.22997 -0.529602 0
M  V30 5413 C 520.776 -1.22345 -1.04347 0
M  V30 5414 O 521.966 -1.46924 -0.935889 0
M  V30 5415 C 519.098 -2.93409 -1.73562 0
M  V30 5416 H 520.291 -2.99815 0.0714518 0
M  V30 5417 H 517.844 -1.56121 0.0747258 0
M  V30 5418 H 518.579 -2.20729 -2.37591 0
M  V30 5419 H 518.364 -3.67217 -1.37456 0
M  V30 5420 H 519.854 -3.45794 -2.34128 0
M  V30 5421 N 520.291 -0.0518155 -1.57515 0
M  V30 5422 C 521.241 0.932017 -2.0808 0
M  V30 5423 C 522.225 1.27141 -0.986098 0
M  V30 5424 O 523.417 1.25373 -1.24943 0
M  V30 5425 C 520.546 2.20665 -2.62986 0
M  V30 5426 C 519.632 1.89462 -3.79427 0
M  V30 5427 N 520.023 1.28621 -4.89173 0
M  V30 5428 C 518.321 2.19327 -3.88345 0
M  V30 5429 C 519.022 1.15062 -5.70207 0
M  V30 5430 N 517.998 1.65372 -5.17835 0
M  V30 5431 H 521.8 0.456964 -2.90326 0
M  V30 5432 H 519.314 0.152619 -1.61681 0
M  V30 5433 H 521.311 2.92044 -2.97516 0
M  V30 5434 H 519.971 2.68776 -1.8218 0
M  V30 5435 H 520.982 0.958341 -5.08956 0
M  V30 5436 H 517.659 2.69955 -3.18482 0
M  V30 5437 H 519.049 0.678243 -6.68468 0
M  V30 5438 N 521.769 1.56035 0.221574 0
M  V30 5439 C 523.015 1.79312 0.947372 0
M  V30 5440 C 523.348 0.621453 1.83988 0
M  V30 5441 O 522.623 -0.379287 1.90766 0
M  V30 5442 C 522.906 3.1267 1.78633 0
M  V30 5443 C 522.759 4.40284 0.920312 0
M  V30 5444 C 524.078 3.4247 2.7641 0
M  V30 5445 H 521.197 0.652328 0.342982 0
M  V30 5446 H 523.839 1.88765 0.216244 0
M  V30 5447 H 521.989 3.04741 2.40967 0
M  V30 5448 H 523.661 4.60232 0.313718 0
M  V30 5449 H 521.904 4.33212 0.225734 0
M  V30 5450 H 522.575 5.30033 1.54171 0
M  V30 5451 H 525.051 3.50526 2.24211 0
M  V30 5452 H 523.927 4.3695 3.32213 0
M  V30 5453 H 524.188 2.64635 3.54148 0
M  V30 5454 N 523.247 -0.488276 1.49845 0
M  V30 5455 C 524.496 -1.23826 1.59217 0
M  V30 5456 C 524.809 -1.93439 0.289966 0
M  V30 5457 O 526.015 -2.70229 0.262382 0
M  V30 5458 C 524.471 -2.24902 2.80976 0
M  V30 5459 C 524.079 -1.6117 4.18005 0
M  V30 5460 C 525.823 -3.00648 2.99685 0
M  V30 5461 C 523.73 -2.60431 5.3097 0
M  V30 5462 H 522.66 -0.465858 0.592868 0
M  V30 5463 H 525.311 -0.510645 1.76252 0
M  V30 5464 H 523.693 -3.0088 2.57463 0
M  V30 5465 H 524.867 -0.910968 4.51706 0
M  V30 5466 H 523.182 -0.97767 4.0476 0
M  V30 5467 H 525.779 -3.74903 3.81251 0
M  V30 5468 H 526.122 -3.5902 2.10738 0
M  V30 5469 H 526.655 -2.31784 3.23297 0
M  V30 5470 H 523.394 -2.06823 6.22017 0
M  V30 5471 H 522.914 -3.28707 5.01709 0
M  V30 5472 H 524.593 -3.22606 5.60834 0
M  V30 5473 N 524.725 -1.39134 -0.740242 0
M  V30 5474 C 525.672 -1.37434 -1.8542 0
M  V30 5475 C 526.642 -0.234822 -1.64432 0
M  V30 5476 O 527.827 -0.429125 -1.85912 0
M  V30 5477 C 524.967 -1.21844 -3.22875 0
M  V30 5478 C 524.08 -2.45296 -3.55603 0
M  V30 5479 C 523.215 -2.22334 -4.82432 0
M  V30 5480 C 522.254 -3.41488 -5.07988 0
M  V30 5481 N 521.391 -3.17877 -6.26018 0
M  V30 5482 H 526.231 -2.3266 -1.86207 0
M  V30 5483 H 523.768 -1.15578 -0.909946 0
M  V30 5484 H 525.726 -1.10818 -4.02213 0
M  V30 5485 H 524.356 -0.3025 -3.21379 0
M  V30 5486 H 523.408 -2.66945 -2.71006 0
M  V30 5487 H 524.72 -3.34063 -3.7041 0
M  V30 5488 H 523.874 -2.0852 -5.69741 0
M  V30 5489 H 522.613 -1.30954 -4.6979 0
M  V30 5490 H 521.618 -3.55807 -4.19144 0
M  V30 5491 H 522.843 -4.33763 -5.22519 0
M  V30 5492 H 520.789 -2.29156 -6.14673 0
M  V30 5493 H 520.706 -4.00198 -6.41387 0
M  V30 5494 H 521.974 -3.07746 -7.16179 0
M  V30 5495 N 526.204 0.969867 -1.24223 0
M  V30 5496 C 527.429 1.75289 -1.10853 0
M  V30 5497 C 527.854 1.85091 0.335079 0
M  V30 5498 O 527.212 1.32024 1.24255 0
M  V30 5499 C 527.26 3.15255 -1.75062 0
M  V30 5500 O 526.364 3.99589 -1.01992 0
M  V30 5501 H 525.705 0.538904 -0.387915 0
M  V30 5502 H 528.235 1.21675 -1.64488 0
M  V30 5503 H 528.245 3.65787 -1.80731 0
M  V30 5504 H 526.92 3.07436 -2.801 0
M  V30 5505 H 525.497 3.58077 -1.04094 0
M  V30 5506 N 527.682 1.05563 1.17022 0
M  V30 5507 C 528.632 0.630007 2.19123 0
M  V30 5508 C 529.616 -0.335472 1.57364 0
M  V30 5509 O 530.808 -0.1521 1.76345 0
M  V30 5510 C 527.937 0.0101676 3.43298 0
M  V30 5511 C 527.023 0.999698 4.12149 0
M  V30 5512 N 527.414 2.17251 4.56766 0
M  V30 5513 C 525.712 0.829 4.38228 0
M  V30 5514 C 526.413 2.79883 5.09942 0
M  V30 5515 N 525.389 2.07656 5.02374 0
M  V30 5516 H 529.191 1.52353 2.51328 0
M  V30 5517 H 526.705 0.926288 1.33393 0
M  V30 5518 H 528.702 -0.312541 4.15727 0
M  V30 5519 H 527.362 -0.878707 3.12584 0
M  V30 5520 H 528.373 2.55067 4.50734 0
M  V30 5521 H 525.05 -0.00850974 4.17499 0
M  V30 5522 H 526.44 3.79362 5.54558 0
M  V30 5523 N 529.16 -1.33526 0.837174 0
M  V30 5524 C 530.11 -2.2672 0.241269 0
M  V30 5525 C 531.094 -1.49183 -0.602756 0
M  V30 5526 O 532.286 -1.71052 -0.455002 0
M  V30 5527 C 529.415 -3.38294 -0.584125 0
M  V30 5528 C 528.501 -4.23231 0.271315 0
M  V30 5529 N 528.892 -4.87473 1.34922 0
M  V30 5530 C 527.19 -4.45962 0.0580589 0
M  V30 5531 C 527.891 -5.50685 1.87405 0
M  V30 5532 N 526.867 -5.30732 1.17578 0
M  V30 5533 H 530.669 -2.73903 1.06558 0
M  V30 5534 H 528.183 -1.47411 0.68145 0
M  V30 5535 H 530.18 -4.04044 -1.02731 0
M  V30 5536 H 528.84 -2.9266 -1.40643 0
M  V30 5537 H 529.851 -4.88077 1.7321 0
M  V30 5538 H 526.528 -4.11052 -0.730938 0
M  V30 5539 H 527.918 -6.11845 2.77661 0
M  V30 5540 N 530.638 -0.59345 -1.46 0
M  V30 5541 C 531.586 0.146268 -2.3214 0
M  V30 5542 C 532.58 0.873743 -1.45128 0
M  V30 5543 O 533.786 0.790912 -1.61693 0
M  V30 5544 H 530.161 0.0660349 -0.749095 0
M  V30 5545 H 532.132 -0.598895 -2.92328 0
M  V30 5546 C 530.881 1.1396 -3.28494 0
M  V30 5547 H 530.204 0.589252 -3.95434 0
M  V30 5548 H 531.644 1.62738 -3.91526 0
M  V30 5549 C 530.103 2.20604 -2.54628 0
M  V30 5550 O 530.633 3.28128 -2.31722 0
M  V30 5551 N 528.839 1.95502 -2.15005 0
M  V30 5552 H 528.386 1.0807 -2.33834 0
M  V30 5553 H 528.344 2.67064 -1.65904 0
M  V30 5554 N 532.116 1.54067 -0.331816 0
M  V30 5555 C 533.362 2.01012 0.268667 0
M  V30 5556 C 533.695 1.2195 1.51136 0
M  V30 5557 O 532.97 0.303972 1.9211 0
M  V30 5558 C 533.253 3.55158 0.59456 0
M  V30 5559 C 533.106 4.4494 -0.659409 0
M  V30 5560 C 534.425 4.16939 1.4089 0
M  V30 5561 H 531.544 0.730698 0.0961756 0
M  V30 5562 H 534.186 1.84593 -0.450031 0
M  V30 5563 H 532.336 3.6928 1.20685 0
M  V30 5564 H 534.008 4.42675 -1.29756 0
M  V30 5565 H 532.251 4.1428 -1.28665 0
M  V30 5566 H 532.922 5.50643 -0.386804 0
M  V30 5567 H 535.398 4.06443 0.891272 0
M  V30 5568 H 534.274 5.24889 1.60569 0
M  V30 5569 H 534.535 3.70798 2.40752 0
M  V30 5570 N 533.594 0.0601682 1.57485 0
M  V30 5571 C 534.842 -0.610386 1.92662 0
M  V30 5572 C 535.163 -1.70849 0.939981 0
M  V30 5573 O 534.433 -1.95895 -0.0137455 0
M  V30 5574 H 533.013 -0.228457 0.711208 0
M  V30 5575 H 535.675 0.115288 1.94559 0
M  V30 5576 H 534.771 -1.0432 2.94149 0
M  V30 5577 N 535.072 -1.5615 -0.213296 0
M  V30 5578 C 536.32 -1.79191 -0.934612 0
M  V30 5579 C 536.641 -0.630112 -1.84539 0
M  V30 5580 O 535.911 0.35257 -1.92701 0
M  V30 5581 H 534.491 -0.660937 -0.348097 0
M  V30 5582 H 537.153 -1.93618 -0.22317 0
M  V30 5583 H 536.249 -2.71656 -1.53654 0
M  V30 5584 N 536.55 0.480323 -1.50102 0
M  V30 5585 C 537.48 1.58769 -1.71215 0
M  V30 5586 C 538.461 1.60583 -0.560997 0
M  V30 5587 O 539.646 1.76996 -0.799127 0
M  V30 5588 C 536.776 2.97148 -1.79778 0
M  V30 5589 C 535.73 3.10201 -2.94888 0
M  V30 5590 C 535.056 4.50137 -2.88584 0
M  V30 5591 C 536.356 2.88283 -4.35534 0
M  V30 5592 H 538.05 1.41354 -2.6393 0
M  V30 5593 H 535.596 0.678591 -1.27008 0
M  V30 5594 H 537.549 3.74536 -1.93133 0
M  V30 5595 H 536.273 3.15699 -0.836772 0
M  V30 5596 H 534.932 2.35244 -2.81169 0
M  V30 5597 H 534.58 4.65593 -1.90349 0
M  V30 5598 H 534.28 4.59808 -3.65856 0
M  V30 5599 H 535.804 5.29558 -3.03976 0
M  V30 5600 H 537.218 3.55427 -4.49827 0
M  V30 5601 H 535.615 3.09408 -5.14186 0
M  V30 5602 H 536.685 1.84219 -4.48544 0
M  V30 5603 N 538.028 1.39524 0.732853 0
M  V30 5604 C 539.439 1.32905 1.31122 0
M  V30 5605 C 539.79 -0.00558708 1.96199 0
M  V30 5606 O 538.915 -0.907706 1.96443 0
M  V30 5607 C 539.51 2.40704 2.38426 0
M  V30 5608 C 538.069 2.37599 2.91931 0
M  V30 5609 C 537.216 2.2248 1.65523 0
M  V30 5610 H 540.167 1.49581 0.530207 0
M  V30 5611 H 540.188 2.07616 3.18867 0
M  V30 5612 H 539.7 3.37829 1.91033 0
M  V30 5613 H 537.801 1.44119 3.43599 0
M  V30 5614 H 537.914 3.32538 3.44899 0
M  V30 5615 H 536.278 1.69691 1.8994 0
M  V30 5616 H 537.061 3.21577 1.20178 0
M  V30 5617 N 539.506 -0.963266 1.24736 0
M  V30 5618 C 540.453 -2.05857 1.04363 0
M  V30 5619 C 541.423 -1.6604 -0.0444951 0
M  V30 5620 O 542.608 -1.90477 0.110999 0
M  V30 5621 C 539.748 -3.38745 0.659235 0
M  V30 5622 C 538.861 -3.9173 1.82131 0
M  V30 5623 C 537.996 -5.12906 1.38208 0
M  V30 5624 C 537.035 -5.58098 2.51382 0
M  V30 5625 N 536.172 -6.7049 2.08295 0
M  V30 5626 H 541.012 -2.22616 1.98107 0
M  V30 5627 H 538.549 -1.09103 0.986661 0
M  V30 5628 H 540.507 -4.15107 0.417371 0
M  V30 5629 H 539.137 -3.21898 -0.241201 0
M  V30 5630 H 538.189 -3.11966 2.17672 0
M  V30 5631 H 539.501 -4.21225 2.67153 0
M  V30 5632 H 538.655 -5.96657 1.09935 0
M  V30 5633 H 537.394 -4.85105 0.502456 0
M  V30 5634 H 536.399 -4.72917 2.80409 0
M  V30 5635 H 537.624 -5.87911 3.39909 0
M  V30 5636 H 535.57 -6.44416 1.22737 0
M  V30 5637 H 535.487 -6.99458 2.86869 0
M  V30 5638 H 536.755 -7.57672 1.83175 0
M  V30 5639 N 540.985 -1.06182 -1.16461 0
M  V30 5640 C 541.895 -0.682671 -2.24448 0
M  V30 5641 C 542.911 0.30078 -1.71381 0
M  V30 5642 O 544.087 0.150376 -2.00838 0
M  V30 5643 C 541.152 -0.0737202 -3.46622 0
M  V30 5644 C 540.213 -1.10889 -4.14731 0
M  V30 5645 C 539.446 -0.528908 -5.31073 0
M  V30 5646 O 539.669 0.65868 -5.66584 0
M  V30 5647 O 538.603 -1.26805 -5.88391 0
M  V30 5648 H 542.429 -1.58291 -2.59187 0
M  V30 5649 H 540.014 -0.834013 -1.23954 0
M  V30 5650 H 541.896 0.264192 -4.20571 0
M  V30 5651 H 540.571 0.800015 -3.13658 0
M  V30 5652 H 539.478 -1.49896 -3.42756 0
M  V30 5653 H 540.811 -1.95412 -4.51747 0
M  V30 5654 N 542.463 1.3308 -0.844243 0
M  V30 5655 C 543.396 2.27075 -0.226279 0
M  V30 5656 C 544.374 1.49911 0.629716 0
M  V30 5657 O 545.558 1.79068 0.588803 0
M  V30 5658 C 542.685 3.31767 0.681782 0
M  V30 5659 C 541.731 4.26384 -0.0994565 0
M  V30 5660 S 542.564 5.15186 -1.46094 0
M  V30 5661 C 543.72 6.23405 -0.558319 0
M  V30 5662 H 543.953 2.79141 -1.02312 0
M  V30 5663 H 541.486 1.40452 -0.641292 0
M  V30 5664 H 543.444 3.92566 1.20008 0
M  V30 5665 H 542.105 2.78507 1.45234 0
M  V30 5666 H 541.298 5.00514 0.591733 0
M  V30 5667 H 540.9 3.69949 -0.548991 0
M  V30 5668 H 543.192 6.77069 0.241672 0
M  V30 5669 H 544.135 6.96619 -1.26995 0
M  V30 5670 H 544.543 5.64333 -0.13728 0
M  V30 5671 N 543.941 0.601185 1.45683 0
M  V30 5672 C 544.888 -0.121396 2.30481 0
M  V30 5673 C 545.858 -0.866232 1.41724 0
M  V30 5674 O 547.043 -0.85324 1.70659 0
M  V30 5675 C 544.183 -1.11704 3.26521 0
M  V30 5676 C 543.296 -0.373741 4.3038 0
M  V30 5677 C 542.431 -1.35854 5.13534 0
M  V30 5678 C 541.47 -0.602689 6.09126 0
M  V30 5679 N 540.607 -1.53645 6.85082 0
M  V30 5680 H 545.447 0.607732 2.91737 0
M  V30 5681 H 542.984 0.311502 1.43764 0
M  V30 5682 H 544.942 -1.70735 3.80664 0
M  V30 5683 H 543.572 -1.81366 2.67032 0
M  V30 5684 H 542.624 0.331962 3.78949 0
M  V30 5685 H 543.936 0.2163 4.98331 0
M  V30 5686 H 543.09 -2.02111 5.72046 0
M  V30 5687 H 541.829 -1.98251 4.45587 0
M  V30 5688 H 540.834 0.0735482 5.49751 0
M  V30 5689 H 542.059 0.0161467 6.79098 0
M  V30 5690 H 540.005 -2.14819 6.1983 0
M  V30 5691 H 539.922 -0.999688 7.49361 0
M  V30 5692 H 541.19 -2.1888 7.48139 0
M  V30 5693 N 545.419 -1.53889 0.339982 0
M  V30 5694 C 546.352 -2.21187 -0.561405 0
M  V30 5695 C 547.33 -1.19463 -1.10306 0
M  V30 5696 O 548.514 -1.48268 -1.164 0
M  V30 5697 C 545.641 -2.8865 -1.77198 0
M  V30 5698 C 544.687 -4.04232 -1.3601 0
M  V30 5699 S 545.52 -5.34129 -0.382909 0
M  V30 5700 C 546.676 -6.05094 -1.60039 0
M  V30 5701 H 546.909 -2.97298 0.0102092 0
M  V30 5702 H 544.442 -1.53901 0.124056 0
M  V30 5703 H 546.4 -3.28138 -2.4665 0
M  V30 5704 H 545.061 -2.12311 -2.3148 0
M  V30 5705 H 544.254 -4.50358 -2.2626 0
M  V30 5706 H 543.856 -3.66503 -0.745098 0
M  V30 5707 H 546.148 -6.2827 -2.53541 0
M  V30 5708 H 547.091 -6.98182 -1.18099 0
M  V30 5709 H 547.499 -5.35207 -1.79483 0
M  V30 5710 N 546.897 -0.0685191 -1.57451 0
M  V30 5711 C 548.145 0.60016 -1.92983 0
M  V30 5712 C 548.466 1.70348 -0.949028 0
M  V30 5713 O 547.736 1.959 0.00335647 0
M  V30 5714 H 546.316 0.224682 -0.712409 0
M  V30 5715 H 548.978 -0.125605 -1.94495 0
M  V30 5716 H 548.074 1.02759 -2.94698 0
M  V30 5717 N 548.375 1.56261 0.205012 0
M  V30 5718 C 549.305 1.96779 1.257 0
M  V30 5719 C 550.286 0.838309 1.48008 0
M  V30 5720 O 551.471 1.10189 1.59913 0
M  V30 5721 C 548.601 2.29876 2.60335 0
M  V30 5722 C 547.555 3.45469 2.52656 0
M  V30 5723 C 546.881 3.64215 3.91473 0
M  V30 5724 C 548.181 4.79954 2.06014 0
M  V30 5725 H 549.875 2.84904 0.920338 0
M  V30 5726 H 547.421 1.37072 0.441277 0
M  V30 5727 H 549.374 2.56814 3.34102 0
M  V30 5728 H 548.098 1.38622 2.95722 0
M  V30 5729 H 546.757 3.18605 1.81345 0
M  V30 5730 H 546.405 2.70309 4.24196 0
M  V30 5731 H 546.105 4.41973 3.87213 0
M  V30 5732 H 547.629 3.93519 4.66878 0
M  V30 5733 H 549.043 5.05989 2.69533 0
M  V30 5734 H 547.44 5.61111 2.12777 0
M  V30 5735 H 548.51 4.74201 1.01297 0
M  V30 5736 N 549.853 -0.472356 1.50355 0
M  V30 5737 C 551.099 -1.22634 1.6152 0
M  V30 5738 C 551.432 -1.91645 0.313995 0
M  V30 5739 O 550.707 -1.82059 -0.684446 0
M  V30 5740 C 550.99 -2.27099 2.7946 0
M  V30 5741 C 550.843 -1.62402 4.19459 0
M  V30 5742 C 552.162 -3.28421 2.92964 0
M  V30 5743 H 549.281 -0.444494 0.587873 0
M  V30 5744 H 551.923 -0.520321 1.82737 0
M  V30 5745 H 550.073 -2.87314 2.61501 0
M  V30 5746 H 551.745 -1.05793 4.49005 0
M  V30 5747 H 549.988 -0.927184 4.23776 0
M  V30 5748 H 550.659 -2.38309 4.97909 0
M  V30 5749 H 553.135 -2.78227 3.09401 0
M  V30 5750 H 552.011 -3.98845 3.77113 0
M  V30 5751 H 552.272 -3.92467 2.03525 0
M  V30 5752 N 551.331 -1.39911 -0.725443 0
M  V30 5753 C 552.241 -1.41688 -1.8698 0
M  V30 5754 C 553.257 -0.310579 -1.71206 0
M  V30 5755 O 554.433 -0.55359 -1.93642 0
M  V30 5756 C 551.498 -1.26811 -3.22676 0
M  V30 5757 C 550.559 -2.47497 -3.50776 0
M  V30 5758 C 549.792 -2.3332 -4.79997 0
M  V30 5759 O 550.015 -1.34175 -5.54394 0
M  V30 5760 O 548.949 -3.22498 -5.08211 0
M  V30 5761 H 552.775 -2.38171 -1.88436 0
M  V30 5762 H 550.36 -1.21128 -0.874548 0
M  V30 5763 H 552.242 -1.20684 -4.03749 0
M  V30 5764 H 550.917 -0.334289 -3.21969 0
M  V30 5765 H 549.824 -2.59201 -2.69751 0
M  V30 5766 H 551.157 -3.39606 -3.5627 0
M  V30 5767 N 552.809 0.956637 -1.25245 0
M  V30 5768 C 554.22 1.51569 -1.09012 0
M  V30 5769 C 554.571 1.93322 0.334813 0
M  V30 5770 O 553.696 1.78421 1.22454 0
M  V30 5771 C 554.291 2.75444 -1.97271 0
M  V30 5772 C 552.85 3.27669 -1.8523 0
M  V30 5773 C 551.997 2.00517 -1.91542 0
M  V30 5774 H 554.948 0.773746 -1.3856 0
M  V30 5775 H 554.969 3.4919 -1.51151 0
M  V30 5776 H 554.481 2.45024 -3.00973 0
M  V30 5777 H 552.582 3.62914 -0.844045 0
M  V30 5778 H 552.695 3.9582 -2.69932 0
M  V30 5779 H 551.059 2.15727 -1.35404 0
M  V30 5780 H 551.842 1.72448 -2.96844 0
M  V30 5781 N 554.287 1.06798 1.15896 0
M  V30 5782 C 555.217 0.704677 2.22613 0
M  V30 5783 C 556.198 -0.305252 1.67339 0
M  V30 5784 O 557.383 -0.179247 1.93371 0
M  V30 5785 C 554.513 0.0957325 3.47168 0
M  V30 5786 C 553.467 1.0322 4.15367 0
M  V30 5787 C 552.793 0.286293 5.33933 0
M  V30 5788 C 554.093 2.36341 4.65768 0
M  V30 5789 H 555.787 1.59688 2.53259 0
M  V30 5790 H 553.333 0.769257 1.21731 0
M  V30 5791 H 555.286 -0.170333 4.21056 0
M  V30 5792 H 554.01 -0.831516 3.15838 0
M  V30 5793 H 552.669 1.28309 3.43413 0
M  V30 5794 H 552.317 -0.644237 4.98857 0
M  V30 5795 H 552.017 0.910436 5.80504 0
M  V30 5796 H 553.541 0.0278938 6.10594 0
M  V30 5797 H 554.955 2.1561 5.31211 0
M  V30 5798 H 553.352 2.94299 5.2298 0
M  V30 5799 H 554.422 2.99047 3.81705 0
M  V30 5800 N 555.766 -1.3263 0.851289 0
M  V30 5801 C 556.713 -2.28952 0.291469 0
M  V30 5802 C 557.683 -1.54897 -0.599676 0
M  V30 5803 O 558.868 -1.83137 -0.535305 0
M  V30 5804 C 556.008 -3.41206 -0.516992 0
M  V30 5805 C 555.121 -4.30148 0.399566 0
M  V30 5806 C 554.256 -5.29527 -0.4212 0
M  V30 5807 C 553.295 -6.10112 0.492969 0
M  V30 5808 N 552.432 -7.01499 -0.290414 0
M  V30 5809 H 557.272 -2.76228 1.11813 0
M  V30 5810 H 554.809 -1.35907 0.562826 0
M  V30 5811 H 556.767 -4.05005 -1.00132 0
M  V30 5812 H 555.397 -2.9509 -1.30851 0
M  V30 5813 H 554.449 -3.66959 1.00227 0
M  V30 5814 H 555.761 -4.8649 1.1013 0
M  V30 5815 H 554.915 -5.98914 -0.968832 0
M  V30 5816 H 553.654 -4.73794 -1.15632 0
M  V30 5817 H 552.659 -5.39632 1.05251 0
M  V30 5818 H 553.884 -6.6793 1.22664 0
M  V30 5819 H 551.83 -6.48199 -1.00868 0
M  V30 5820 H 551.747 -7.55178 0.352354 0
M  V30 5821 H 553.015 -7.75176 -0.819882 0
M  V30 5822 N 557.244 -0.608902 -1.45362 0
M  V30 5823 C 558.154 0.110969 -2.34337 0
M  V30 5824 C 559.17 0.859007 -1.51318 0
M  V30 5825 O 560.346 0.816296 -1.84116 0
M  V30 5826 C 557.411 1.09494 -3.28956 0
M  V30 5827 C 556.472 0.348718 -4.27881 0
M  V30 5828 C 555.705 1.28582 -5.17979 0
M  V30 5829 O 555.928 2.52369 -5.11533 0
M  V30 5830 O 554.862 0.782172 -5.96796 0
M  V30 5831 H 558.688 -0.620258 -2.97299 0
M  V30 5832 H 556.273 -0.36916 -1.44767 0
M  V30 5833 H 558.155 1.66163 -3.87257 0
M  V30 5834 H 556.83 1.80717 -2.68557 0
M  V30 5835 H 555.737 -0.260465 -3.73192 0
M  V30 5836 H 557.07 -0.323049 -4.91139 0
M  V30 5837 N 558.722 1.53707 -0.348139 0
M  V30 5838 C 559.652 2.28111 0.498766 0
M  V30 5839 C 560.633 1.29851 1.09876 0
M  V30 5840 O 561.818 1.587 1.11928 0
M  V30 5841 C 558.948 3.05735 1.64753 0
M  V30 5842 C 557.902 4.11537 1.17565 0
M  V30 5843 C 557.228 4.77142 2.4133 0
M  V30 5844 C 558.528 5.21587 0.272844 0
M  V30 5845 H 560.222 2.99152 -0.121934 0
M  V30 5846 H 557.768 1.43875 -0.0600842 0
M  V30 5847 H 559.721 3.56526 2.24649 0
M  V30 5848 H 558.445 2.32354 2.2952 0
M  V30 5849 H 557.104 3.61665 0.599483 0
M  V30 5850 H 556.752 4.0035 3.04514 0
M  V30 5851 H 556.452 5.48626 2.10436 0
M  V30 5852 H 557.976 5.30719 3.01943 0
M  V30 5853 H 559.39 5.67986 0.778779 0
M  V30 5854 H 557.787 6.00074 0.0555849 0
M  V30 5855 H 558.857 4.79969 -0.689785 0
M  V30 5856 N 560.2 0.0768682 1.57412 0
M  V30 5857 C 561.447 -0.591085 1.93681 0
M  V30 5858 C 561.775 -1.69311 0.957286 0
M  V30 5859 O 561.03 -1.95682 -0.0262428 0
M  V30 5860 C 561.329 -1.20268 3.36557 0
M  V30 5861 C 560.995 -0.226286 4.50332 0
M  V30 5862 C 559.657 0.0423142 4.81181 0
M  V30 5863 C 562.009 0.441415 5.19327 0
M  V30 5864 C 559.337 0.985616 5.78362 0
M  V30 5865 C 561.689 1.37307 6.17519 0
M  V30 5866 C 560.353 1.65009 6.46783 0
M  V30 5867 H 559.623 -0.216293 0.70873 0
M  V30 5868 H 562.27 0.148824 1.90921 0
M  V30 5869 H 560.575 -2.01844 3.35807 0
M  V30 5870 H 562.272 -1.72688 3.61911 0
M  V30 5871 H 558.862 -0.445821 4.26275 0
M  V30 5872 H 563.046 0.247023 4.95685 0
M  V30 5873 H 558.302 1.20743 5.99359 0
M  V30 5874 H 562.476 1.89637 6.70083 0
M  V30 5875 H 560.103 2.38263 7.21897 0
M  V30 5876 N 561.678 -1.56367 -0.196722 0
M  V30 5877 C 562.625 -1.94417 -1.24382 0
M  V30 5878 C 563.595 -0.804543 -1.45315 0
M  V30 5879 O 564.78 -1.06256 -1.58475 0
M  V30 5880 C 561.92 -2.28757 -2.58388 0
M  V30 5881 C 561.033 -3.55775 -2.45047 0
M  V30 5882 C 560.168 -3.79445 -3.71746 0
M  V30 5883 C 559.207 -4.99894 -3.53231 0
M  V30 5884 N 558.344 -5.19826 -4.71938 0
M  V30 5885 H 563.184 -2.83691 -0.912338 0
M  V30 5886 H 560.721 -1.40392 -0.439135 0
M  V30 5887 H 562.679 -2.46682 -3.36457 0
M  V30 5888 H 561.309 -1.42625 -2.89582 0
M  V30 5889 H 560.361 -3.45905 -1.58284 0
M  V30 5890 H 561.673 -4.44 -2.27299 0
M  V30 5891 H 560.827 -3.97601 -4.58256 0
M  V30 5892 H 559.566 -2.89546 -3.92446 0
M  V30 5893 H 558.571 -4.81662 -2.65107 0
M  V30 5894 H 559.796 -5.913 -3.33978 0
M  V30 5895 H 557.742 -4.32875 -4.92905 0
M  V30 5896 H 557.659 -6.02228 -4.57009 0
M  V30 5897 H 558.927 -5.42439 -5.59803 0
M  V30 5898 N 563.156 0.464375 -1.50603 0
M  V30 5899 C 564.433 1.22549 -1.5245 0
M  V30 5900 C 564.813 2.09327 -0.273035 0
M  V30 5901 O 564.161 2.16074 0.743242 0
M  V30 5902 C 564.371 2.05074 -2.82393 0
M  V30 5903 C 565.719 2.63036 -3.33313 0
M  V30 5904 O 566.743 2.1531 -2.8376 0
M  V30 5905 O 565.602 3.5001 -4.19709 0
M  V30 5906 H 562.696 0.556471 -0.611775 0
M  V30 5907 H 565.242 0.475648 -1.62898 0
M  V30 5908 H 564.014 1.41169 -3.64948 0
M  V30 5909 H 563.637 2.87179 -2.7498 0
M  V30 5910 N 564.634 1.40294 0.718013 0
M  V30 5911 C 565.544 1.42678 1.86226 0
M  V30 5912 C 566.56 0.319655 1.71039 0
M  V30 5913 O 567.736 0.563852 1.93346 0
M  V30 5914 C 564.801 1.2852 3.21999 0
M  V30 5915 C 563.862 2.49354 3.49458 0
M  V30 5916 C 563.095 2.35863 4.78753 0
M  V30 5917 O 563.318 1.37114 5.53675 0
M  V30 5918 O 562.252 3.25189 5.06494 0
M  V30 5919 H 566.078 2.39167 1.87171 0
M  V30 5920 H 563.663 1.2159 0.868112 0
M  V30 5921 H 565.545 1.22824 4.03103 0
M  V30 5922 H 564.22 0.351359 3.21787 0
M  V30 5923 H 563.127 2.60628 2.68373 0
M  V30 5924 H 564.46 3.41491 3.54464 0
M  V30 5925 N 566.112 -0.949982 1.2575 0
M  V30 5926 C 567.358 -1.69766 1.10938 0
M  V30 5927 C 567.691 -1.91056 -0.348028 0
M  V30 5928 O 566.966 -1.48488 -1.25625 0
M  V30 5929 C 567.249 -3.07779 1.86933 0
M  V30 5930 C 567.102 -2.9387 3.4053 0
M  V30 5931 C 568.421 -4.07749 1.65616 0
M  V30 5932 H 565.54 -0.616144 0.404396 0
M  V30 5933 H 568.182 -1.10394 1.54639 0
M  V30 5934 H 566.332 -3.58462 1.4979 0
M  V30 5935 H 568.004 -2.50476 3.87375 0
M  V30 5936 H 566.247 -2.29686 3.68004 0
M  V30 5937 H 566.918 -3.91719 3.88922 0
M  V30 5938 H 569.394 -3.65994 1.97959 0
M  V30 5939 H 568.27 -5.02348 2.21218 0
M  V30 5940 H 568.531 -4.38029 0.598595 0
M  V30 5941 N 567.59 -1.07411 -1.15328 0
M  V30 5942 C 569.006 -0.799759 -1.38116 0
M  V30 5943 C 569.206 0.59572 -1.92493 0
M  V30 5944 O 568.262 1.35433 -2.13106 0
M  V30 5945 C 569.575 -1.87407 -2.35158 0
M  V30 5946 C 571.123 -1.89889 -2.48819 0
M  V30 5947 C 571.598 -2.96406 -3.49153 0
M  V30 5948 N 573.089 -2.95512 -3.56689 0
M  V30 5949 C 573.824 -3.74575 -4.34144 0
M  V30 5950 N 573.32 -4.63488 -5.14928 0
M  V30 5951 N 575.113 -3.62919 -4.29239 0
M  V30 5952 H 567.264 -1.97411 -0.78374 0
M  V30 5953 H 569.527 -0.856113 -0.407154 0
M  V30 5954 H 569.233 -2.8768 -2.0232 0
M  V30 5955 H 569.107 -1.73471 -3.34944 0
M  V30 5956 H 571.494 -0.902677 -2.80955 0
M  V30 5957 H 571.575 -2.07904 -1.49029 0
M  V30 5958 H 571.219 -3.96227 -3.17752 0
M  V30 5959 H 571.149 -2.75638 -4.48699 0
M  V30 5960 H 573.64 -2.31061 -2.99031 0
M  V30 5961 H 573.953 -5.20445 -5.71276 0
M  V30 5962 H 572.298 -4.67537 -5.14232 0
M  V30 5963 H 575.489 -2.92833 -3.65194 0
M  V30 5964 H 575.662 -4.24777 -4.89355 0
M  V30 5965 N 569.068 1.32177 -0.85831 0
M  V30 5966 C 570.015 2.28794 -0.303607 0
M  V30 5967 C 570.985 1.55213 0.591453 0
M  V30 5968 O 572.17 1.83418 0.525585 0
M  V30 5969 C 569.31 3.41475 0.49889 0
M  V30 5970 C 568.423 4.2993 -0.422373 0
M  V30 5971 C 567.558 5.29743 0.393111 0
M  V30 5972 C 566.597 6.09842 -0.525317 0
M  V30 5973 N 565.734 7.01643 0.253208 0
M  V30 5974 H 570.574 2.75631 -1.13276 0
M  V30 5975 H 568.111 1.35606 -0.570026 0
M  V30 5976 H 570.069 4.05531 0.979826 0
M  V30 5977 H 568.699 2.95779 1.29284 0
M  V30 5978 H 567.751 3.66422 -1.02171 0
M  V30 5979 H 569.063 4.85899 -1.12709 0
M  V30 5980 H 568.217 5.9942 0.937056 0
M  V30 5981 H 566.956 4.744 1.13117 0
M  V30 5982 H 565.961 5.39066 -1.08112 0
M  V30 5983 H 567.186 6.6727 -1.26205 0
M  V30 5984 H 565.132 6.48725 0.974295 0
M  V30 5985 H 565.049 7.54981 -0.392398 0
M  V30 5986 H 566.317 7.756 0.778761 0
M  V30 5987 N 570.547 0.616602 1.45037 0
M  V30 5988 C 571.796 0.112861 2.01384 0
M  V30 5989 C 572.109 -1.26758 1.48969 0
M  V30 5990 O 573.315 -1.86454 1.9735 0
M  V30 5991 C 571.771 0.151057 3.59583 0
M  V30 5992 C 571.379 1.53191 4.20995 0
M  V30 5993 C 573.123 -0.296974 4.2346 0
M  V30 5994 C 571.03 1.526 5.71373 0
M  V30 5995 H 569.96 0.0384254 0.75302 0
M  V30 5996 H 572.611 0.773262 1.66412 0
M  V30 5997 H 570.993 -0.57617 3.91786 0
M  V30 5998 H 572.167 2.28156 4.00352 0
M  V30 5999 H 570.482 1.92279 3.69348 0
M  V30 6000 H 573.079 -0.320712 5.33737 0
M  V30 6001 H 573.422 -1.32145 3.9477 0
M  V30 6002 H 573.955 0.377279 3.96007 0
M  V30 6003 H 570.694 2.52837 6.04776 0
M  V30 6004 H 570.214 0.819064 5.94181 0
M  V30 6005 H 571.893 1.25357 6.3474 0
M  V30 6006 N 572.025 -1.5352 0.356285 0
M  V30 6007 C 573.273 -2.00719 -0.235837 0
M  V30 6008 C 573.594 -1.24551 -1.5004 0
M  V30 6009 O 572.864 -0.356185 -1.92635 0
M  V30 6010 H 571.444 -0.741542 -0.0901366 0
M  V30 6011 H 574.106 -1.88887 0.480378 0
M  V30 6012 H 573.202 -3.08551 -0.469357 0
M  V30 6013 N 573.503 -0.0852151 -1.57369 0
M  V30 6014 C 574.433 0.874556 -2.16503 0
M  V30 6015 C 575.414 1.30111 -1.09568 0
M  V30 6016 O 576.599 1.36977 -1.37662 0
M  V30 6017 C 573.729 2.13731 -2.73745 0
M  V30 6018 C 572.683 1.84971 -3.85966 0
M  V30 6019 C 572.009 3.17991 -4.29867 0
M  V30 6020 C 573.309 1.14442 -5.09608 0
M  V30 6021 H 575.003 0.381899 -2.96954 0
M  V30 6022 H 572.549 0.18225 -1.42842 0
M  V30 6023 H 574.502 2.81302 -3.13763 0
M  V30 6024 H 573.226 2.65263 -1.90534 0
M  V30 6025 H 571.885 1.19801 -3.46473 0
M  V30 6026 H 571.533 3.6739 -3.4356 0
M  V30 6027 H 571.233 2.99534 -5.05523 0
M  V30 6028 H 572.757 3.86737 -4.72511 0
M  V30 6029 H 574.171 1.72105 -5.46857 0
M  V30 6030 H 572.568 1.06197 -5.90629 0
M  V30 6031 H 573.638 0.12559 -4.84737 0
M  V30 6032 N 574.981 1.5647 0.188427 0
M  V30 6033 C 575.891 1.98285 1.2538 0
M  V30 6034 C 576.907 0.891535 1.49424 0
M  V30 6035 O 578.083 1.19782 1.61908 0
M  V30 6036 C 575.148 2.31965 2.57669 0
M  V30 6037 C 574.209 3.54838 2.41638 0
M  V30 6038 C 573.442 3.86901 3.67618 0
M  V30 6039 O 573.665 3.20163 4.72072 0
M  V30 6040 O 572.599 4.80309 3.62749 0
M  V30 6041 H 576.425 2.89145 0.928912 0
M  V30 6042 H 574.01 1.44112 0.393955 0
M  V30 6043 H 575.892 2.54673 3.35737 0
M  V30 6044 H 574.567 1.44271 2.89771 0
M  V30 6045 H 573.474 3.37369 1.61658 0
M  V30 6046 H 574.807 4.43019 2.14465 0
M  V30 6047 N 576.459 -0.456382 1.50847 0
M  V30 6048 C 577.389 -1.56025 1.73719 0
M  V30 6049 C 578.37 -1.5967 0.586473 0
M  V30 6050 O 579.555 -1.75702 0.827185 0
M  V30 6051 C 576.685 -2.94251 1.84483 0
M  V30 6052 C 575.639 -3.05471 2.99786 0
M  V30 6053 C 574.965 -4.45489 2.95709 0
M  V30 6054 C 576.265 -2.81318 4.40065 0
M  V30 6055 H 577.959 -1.37138 2.66146 0
M  V30 6056 H 575.505 -0.658299 1.28072 0
M  V30 6057 H 577.458 -3.71417 1.99067 0
M  V30 6058 H 576.182 -3.14328 0.886891 0
M  V30 6059 H 574.841 -2.30741 2.84876 0
M  V30 6060 H 574.489 -4.62505 1.97732 0
M  V30 6061 H 574.189 -4.53929 3.73125 0
M  V30 6062 H 575.713 -5.24655 3.12362 0
M  V30 6063 H 577.127 -3.48226 4.55425 0
M  V30 6064 H 575.524 -3.01188 5.19043 0
M  V30 6065 H 576.594 -1.7706 4.51418 0
M  V30 6066 N 577.937 -1.40673 -0.710563 0
M  V30 6067 C 579.185 -1.38947 -1.46759 0
M  V30 6068 C 579.506 0.00572879 -1.94999 0
M  V30 6069 O 578.776 0.961358 -1.70689 0
M  V30 6070 H 577.356 -0.5114 -0.544499 0
M  V30 6071 H 580.018 -1.75773 -0.842012 0
M  V30 6072 H 579.114 -2.06745 -2.33801 0
M  V30 6073 N 579.415 0.9433 -1.26252 0
M  V30 6074 C 580.345 2.05902 -1.10122 0
M  V30 6075 C 581.326 1.70099 -0.00700552 0
M  V30 6076 O 582.511 1.93377 -0.178641 0
M  V30 6077 C 579.641 3.39516 -0.731175 0
M  V30 6078 C 578.595 3.89372 -1.77688 0
M  V30 6079 C 577.921 5.19613 -1.26122 0
M  V30 6080 C 579.221 4.14489 -3.17799 0
M  V30 6081 H 580.915 2.19655 -2.03451 0
M  V30 6082 H 578.461 1.05548 -0.979576 0
M  V30 6083 H 580.414 4.17031 -0.605215 0
M  V30 6084 H 579.138 3.25733 0.23782 0
M  V30 6085 H 577.797 3.14036 -1.89148 0
M  V30 6086 H 577.445 5.02208 -0.282128 0
M  V30 6087 H 577.145 5.53939 -1.96023 0
M  V30 6088 H 578.669 5.99713 -1.14789 0
M  V30 6089 H 580.083 4.82625 -3.09428 0
M  V30 6090 H 578.48 4.60094 -3.85271 0
M  V30 6091 H 579.55 3.20347 -3.64014 0
M  V30 6092 N 580.893 1.08022 1.14757 0
M  V30 6093 C 582.304 0.829144 1.67279 0
M  V30 6094 C 582.655 -0.644721 1.85305 0
M  V30 6095 O 581.78 -1.49838 1.56133 0
M  V30 6096 C 582.375 1.49855 3.03857 0
M  V30 6097 C 580.934 1.29482 3.53428 0
M  V30 6098 C 580.081 1.56386 2.28995 0
M  V30 6099 H 583.032 1.24134 0.988762 0
M  V30 6100 H 583.053 0.923572 3.69121 0
M  V30 6101 H 582.565 2.57123 2.90705 0
M  V30 6102 H 580.666 0.242669 3.71809 0
M  V30 6103 H 580.779 2.01974 4.34446 0
M  V30 6104 H 579.143 0.985217 2.34874 0
M  V30 6105 H 579.926 2.64851 2.18423 0
M  V30 6106 N 582.371 -1.3172 0.865308 0
M  V30 6107 C 583.601 -2.00765 0.487543 0
M  V30 6108 C 584.009 -1.65145 -0.92325 0
M  V30 6109 O 583.352 -0.874294 -1.61561 0
M  V30 6110 C 583.414 -3.55122 0.559369 0
M  V30 6111 C 583.078 -4.14202 1.93095 0
M  V30 6112 C 584.075 -4.3165 2.89784 0
M  V30 6113 C 581.76 -4.50036 2.23099 0
M  V30 6114 C 583.754 -4.84114 4.14623 0
M  V30 6115 C 581.441 -5.02203 3.48189 0
M  V30 6116 C 582.439 -5.19192 4.43767 0
M  V30 6117 O 582.127 -5.70241 5.6664 0
M  V30 6118 H 581.859 -0.649066 0.188915 0
M  V30 6119 H 584.413 -1.69032 1.16694 0
M  V30 6120 H 582.643 -3.86295 -0.176926 0
M  V30 6121 H 584.332 -4.05428 0.195694 0
M  V30 6122 H 585.098 -4.04288 2.6791 0
M  V30 6123 H 580.977 -4.36091 1.49485 0
M  V30 6124 H 584.521 -4.9729 4.89233 0
M  V30 6125 H 580.418 -5.28997 3.69908 0
M  V30 6126 H 581.186 -5.88617 5.68746 0
M  V30 6127 N 583.85 -0.624285 -1.44708 0
M  V30 6128 C 585.127 -0.0572781 -1.95516 0
M  V30 6129 C 585.507 1.41516 -1.56641 0
M  V30 6130 O 584.855 2.12614 -0.837111 0
M  V30 6131 C 585.065 -0.272944 -3.47931 0
M  V30 6132 C 586.413 -0.162529 -4.24289 0
M  V30 6133 O 587.437 -0.203946 -3.55616 0
M  V30 6134 O 586.296 -0.0616847 -5.46465 0
M  V30 6135 H 583.389 0.0262219 -0.826584 0
M  V30 6136 H 585.936 -0.695512 -1.54793 0
M  V30 6137 H 584.707 -1.29492 -3.69253 0
M  V30 6138 H 584.331 0.399756 -3.95585 0
M  V30 6139 N 585.328 1.53329 -0.364422 0
M  V30 6140 C 586.261 2.22052 0.526145 0
M  V30 6141 C 587.239 1.21203 1.08391 0
M  V30 6142 O 588.423 1.50101 1.14026 0
M  V30 6143 C 585.55 2.91432 1.72583 0
M  V30 6144 C 584.596 4.06345 1.29562 0
M  V30 6145 S 585.429 5.34671 0.297885 0
M  V30 6146 C 586.585 6.07563 1.50392 0
M  V30 6147 H 586.818 2.97244 -0.0575055 0
M  V30 6148 H 584.351 1.53684 -0.148525 0
M  V30 6149 H 586.309 3.3202 2.41398 0
M  V30 6150 H 584.97 2.15966 2.28073 0
M  V30 6151 H 584.163 4.53901 2.19067 0
M  V30 6152 H 583.765 3.67642 0.686696 0
M  V30 6153 H 586.057 6.32224 2.43513 0
M  V30 6154 H 587 6.99973 1.06977 0
M  V30 6155 H 587.408 5.37994 1.70945 0
M  V30 6156 N 586.806 0.0935595 1.57322 0
M  V30 6157 C 587.736 -0.863062 2.16964 0
M  V30 6158 C 588.717 -1.29528 1.10256 0
M  V30 6159 O 589.902 -1.36245 1.38387 0
M  V30 6160 C 587.032 -2.12276 2.74875 0
M  V30 6161 C 585.986 -1.82921 3.86942 0
M  V30 6162 C 585.312 -3.15707 4.31548 0
M  V30 6163 C 586.612 -1.11737 5.10208 0
M  V30 6164 H 588.306 -0.366145 2.97153 0
M  V30 6165 H 585.852 -0.174673 1.42937 0
M  V30 6166 H 587.805 -2.79634 3.1525 0
M  V30 6167 H 586.529 -2.64248 1.91938 0
M  V30 6168 H 585.188 -1.17961 3.47103 0
M  V30 6169 H 584.836 -3.65563 3.45504 0
M  V30 6170 H 584.536 -2.96849 5.07104 0
M  V30 6171 H 586.06 -3.84226 4.74555 0
M  V30 6172 H 587.474 -1.69203 5.47762 0
M  V30 6173 H 585.871 -1.03064 5.91183 0
M  V30 6174 H 586.941 -0.0998818 4.84797 0
M  V30 6175 N 588.284 -1.56567 -0.180126 0
M  V30 6176 C 589.514 -1.85349 -0.912647 0
M  V30 6177 C 589.922 -0.675795 -1.76719 0
M  V30 6178 O 589.265 0.3645 -1.80047 0
M  V30 6179 C 589.327 -3.08431 -1.84691 0
M  V30 6180 C 588.991 -4.41694 -1.17284 0
M  V30 6181 C 589.988 -5.17062 -0.542532 0
M  V30 6182 C 587.673 -4.8843 -1.17223 0
M  V30 6183 C 589.667 -6.37351 0.0793953 0
M  V30 6184 C 587.354 -6.08652 -0.54647 0
M  V30 6185 C 588.352 -6.82955 0.0782458 0
M  V30 6186 O 588.04 -8.00897 0.694158 0
M  V30 6187 H 587.772 -0.619286 -0.271036 0
M  V30 6188 H 590.326 -2.0454 -0.187768 0
M  V30 6189 H 588.556 -2.85163 -2.61188 0
M  V30 6190 H 590.245 -3.23733 -2.44851 0
M  V30 6191 H 591.011 -4.8204 -0.535045 0
M  V30 6192 H 586.89 -4.30542 -1.64788 0
M  V30 6193 H 590.434 -6.95287 0.567612 0
M  V30 6194 H 586.331 -6.4314 -0.55151 0
M  V30 6195 H 587.099 -8.16352 0.592537 0
M  V30 6196 N 589.762 0.448376 -1.51087 0
M  V30 6197 C 591.178 0.783984 -1.39017 0
M  V30 6198 C 591.378 1.96087 -0.463904 0
M  V30 6199 O 590.434 2.52357 0.0850534 0
M  V30 6200 C 591.747 1.07471 -2.80839 0
M  V30 6201 C 593.295 1.17981 -2.89913 0
M  V30 6202 C 593.77 1.50354 -4.32617 0
M  V30 6203 N 595.261 1.57301 -4.35673 0
M  V30 6204 C 595.996 1.839 -5.4311 0
M  V30 6205 N 595.492 2.08365 -6.60724 0
M  V30 6206 N 597.285 1.8559 -5.30578 0
M  V30 6207 H 589.436 -0.326881 -2.0987 0
M  V30 6208 H 591.699 -0.0838006 -0.944289 0
M  V30 6209 H 591.405 0.282768 -3.50561 0
M  V30 6210 H 591.279 2.00519 -3.19487 0
M  V30 6211 H 593.666 1.9624 -2.20395 0
M  V30 6212 H 593.747 0.228603 -2.54776 0
M  V30 6213 H 593.391 0.726273 -5.0268 0
M  V30 6214 H 593.321 2.46663 -4.65258 0
M  V30 6215 H 595.812 1.40342 -3.50874 0
M  V30 6216 H 596.125 2.27999 -7.38401 0
M  V30 6217 H 594.47 2.0571 -6.63859 0
M  V30 6218 H 597.661 1.65989 -4.37682 0
M  V30 6219 H 597.834 2.05983 -6.1439 0
M  V30 6220 N 591.24 1.41047 0.703093 0
M  V30 6221 C 592.19 1.38774 1.80903 0
M  V30 6222 C 593.174 0.263275 1.58731 0
M  V30 6223 O 594.366 0.503362 1.69692 0
M  V30 6224 C 591.495 1.26497 3.19145 0
M  V30 6225 C 590.581 2.43775 3.47037 0
M  V30 6226 N 590.972 3.69249 3.45672 0
M  V30 6227 C 589.27 2.37425 3.77552 0
M  V30 6228 C 589.971 4.46989 3.72258 0
M  V30 6229 N 588.947 3.76998 3.91629 0
M  V30 6230 H 592.749 2.33714 1.78199 0
M  V30 6231 H 590.263 1.34996 0.902762 0
M  V30 6232 H 592.26 1.2295 3.98358 0
M  V30 6233 H 590.92 0.32534 3.23066 0
M  V30 6234 H 591.931 4.02239 3.26228 0
M  V30 6235 H 588.608 1.51895 3.88888 0
M  V30 6236 H 589.998 5.55894 3.77402 0
M  V30 6237 N 592.718 -0.936591 1.26751 0
M  V30 6238 C 594.129 -1.49816 1.1141 0
M  V30 6239 C 594.48 -1.9383 -0.304015 0
M  V30 6240 O 593.605 -1.80346 -1.196 0
M  V30 6241 C 594.2 -2.72271 2.01629 0
M  V30 6242 C 592.759 -3.2468 1.9042 0
M  V30 6243 C 591.906 -1.97444 1.94708 0
M  V30 6244 H 594.857 -0.751604 1.39773 0
M  V30 6245 H 594.878 -3.46741 1.56688 0
M  V30 6246 H 594.39 -2.40205 3.04833 0
M  V30 6247 H 592.491 -3.61525 0.901674 0
M  V30 6248 H 592.604 -3.91476 2.76195 0
M  V30 6249 H 590.968 -2.13545 1.38818 0
M  V30 6250 H 591.751 -1.67703 2.9955 0
M  V30 6251 N 594.196 -1.08629 -1.14182 0
M  V30 6252 C 595.443 -0.817345 -1.85272 0
M  V30 6253 C 595.771 0.656917 -1.83071 0
M  V30 6254 O 595.026 1.49897 -1.25815 0
M  V30 6255 C 595.325 -1.28734 -3.3341 0
M  V30 6256 C 594.991 -2.76981 -3.55798 0
M  V30 6257 C 593.653 -3.17469 -3.61617 0
M  V30 6258 C 596.005 -3.72605 -3.64438 0
M  V30 6259 C 593.333 -4.52371 -3.736 0
M  V30 6260 C 595.685 -5.07286 -3.77947 0
M  V30 6261 C 594.349 -5.47376 -3.82016 0
M  V30 6262 H 593.619 -0.299088 -0.677958 0
M  V30 6263 H 596.266 -1.35962 -1.34857 0
M  V30 6264 H 594.571 -0.664702 -3.8612 0
M  V30 6265 H 596.268 -1.05598 -3.86846 0
M  V30 6266 H 592.858 -2.44644 -3.51919 0
M  V30 6267 H 597.042 -3.42443 -3.5923 0
M  V30 6268 H 592.298 -4.82882 -3.75013 0
M  V30 6269 H 596.472 -5.81243 -3.83575 0
M  V30 6270 H 594.099 -6.51906 -3.91054 0
M  V30 6271 N 595.674 1.31259 -0.872281 0
M  V30 6272 C 597.085 1.78822 -0.536617 0
M  V30 6273 C 597.436 1.71855 0.946594 0
M  V30 6274 O 596.561 1.28769 1.73918 0
M  V30 6275 C 597.156 3.24698 -0.967294 0
M  V30 6276 C 595.715 3.70147 -0.683251 0
M  V30 6277 C 594.862 2.51994 -1.15733 0
M  V30 6278 H 597.813 1.18308 -1.05777 0
M  V30 6279 H 597.834 3.79386 -0.290929 0
M  V30 6280 H 597.346 3.29737 -2.04683 0
M  V30 6281 H 595.447 3.70607 0.384825 0
M  V30 6282 H 595.56 4.62183 -1.2619 0
M  V30 6283 H 593.924 2.48078 -0.577024 0
M  V30 6284 H 594.707 2.59778 -2.24434 0
M  V30 6285 N 597.152 0.631951 1.44375 0
M  V30 6286 C 598.4 0.136497 2.01639 0
M  V30 6287 C 598.721 -1.24637 1.49969 0
M  V30 6288 O 597.991 -1.82827 0.70363 0
M  V30 6289 H 596.571 0.0474703 0.74549 0
M  V30 6290 H 599.233 0.818837 1.76865 0
M  V30 6291 H 598.329 0.104817 3.11924 0
M  V30 6292 N 598.631 -1.53133 0.372548 0
M  V30 6293 C 600.042 -1.86404 -0.105155 0
M  V30 6294 C 600.393 -1.29289 -1.47576 0
M  V30 6295 O 599.518 -0.617646 -2.07398 0
M  V30 6296 C 600.113 -3.38223 -0.197588 0
M  V30 6297 C 598.672 -3.71266 -0.619556 0
M  V30 6298 C 597.819 -2.76353 0.228919 0
M  V30 6299 H 600.77 -1.47282 0.591077 0
M  V30 6300 H 600.791 -3.66577 -1.01987 0
M  V30 6301 H 600.303 -3.79763 0.800099 0
M  V30 6302 H 598.404 -3.35287 -1.62522 0
M  V30 6303 H 598.517 -4.77515 -0.389332 0
M  V30 6304 H 596.881 -2.52888 -0.303271 0
M  V30 6305 H 597.664 -3.20728 1.22428 0
M  V30 6306 N 600.109 -0.101901 -1.5727 0
M  V30 6307 C 601.357 0.559091 -1.94213 0
M  V30 6308 C 601.678 1.68297 -0.984948 0
M  V30 6309 O 600.948 1.95863 -0.0381975 0
M  V30 6310 H 599.528 0.20952 -0.717015 0
M  V30 6311 H 602.19 -0.166831 -1.94185 0
M  V30 6312 H 601.286 0.96485 -2.96811 0
M  V30 6313 N 601.587 1.56661 0.17182 0
M  V30 6314 C 602.517 1.99401 1.21498 0
M  V30 6315 C 603.498 0.869516 1.46197 0
M  V30 6316 O 604.683 1.13556 1.57539 0
M  V30 6317 C 601.813 2.35346 2.55401 0
M  V30 6318 C 600.767 3.5075 2.45272 0
M  V30 6319 C 600.093 3.72437 3.8366 0
M  V30 6320 C 601.393 4.84216 1.95787 0
M  V30 6321 H 603.087 2.86792 0.859699 0
M  V30 6322 H 600.633 1.37977 0.412103 0
M  V30 6323 H 602.586 2.63843 3.2858 0
M  V30 6324 H 601.31 1.44864 2.92715 0
M  V30 6325 H 599.969 3.2238 1.74547 0
M  V30 6326 H 599.617 2.79246 4.18367 0
M  V30 6327 H 599.317 4.50087 3.77751 0
M  V30 6328 H 600.841 4.03334 4.58426 0
M  V30 6329 H 602.255 5.11592 2.5874 0
M  V30 6330 H 600.652 5.65498 2.00827 0
M  V30 6331 H 601.722 4.76243 0.912159 0
M  V30 6332 N 603.065 -0.440357 1.51323 0
M  V30 6333 C 604.313 -1.18769 1.63518 0
M  V30 6334 C 604.634 -1.91793 0.352201 0
M  V30 6335 O 603.904 -1.85432 -0.631811 0
M  V30 6336 H 602.484 -0.441408 0.602634 0
M  V30 6337 H 605.146 -0.505162 1.8824 0
M  V30 6338 H 604.242 -1.91892 2.46138 0
M  V30 6339 N 604.543 -1.41418 -0.695603 0
M  V30 6340 C 605.789 -1.40982 -1.4578 0
M  V30 6341 C 606.122 -0.0187763 -1.94191 0
M  V30 6342 O 605.397 0.95346 -1.69527 0
M  V30 6343 C 605.68 -2.41657 -2.66972 0
M  V30 6344 C 605.533 -3.89869 -2.24327 0
M  V30 6345 C 606.852 -2.39589 -3.69168 0
M  V30 6346 H 603.971 -0.513405 -0.528757 0
M  V30 6347 H 606.613 -1.72693 -0.792275 0
M  V30 6348 H 604.763 -2.14746 -3.23754 0
M  V30 6349 H 606.435 -4.27683 -1.72872 0
M  V30 6350 H 604.678 -4.04737 -1.56111 0
M  V30 6351 H 605.349 -4.55857 -3.11285 0
M  V30 6352 H 607.825 -2.63471 -3.2206 0
M  V30 6353 H 606.701 -3.12044 -4.51575 0
M  V30 6354 H 606.962 -1.41447 -4.18862 0
M  V30 6355 N 606.021 0.929856 -1.27246 0
M  V30 6356 C 607.437 1.20542 -1.04603 0
M  V30 6357 C 607.637 2.00276 0.221754 0
M  V30 6358 O 606.693 2.34835 0.927833 0
M  V30 6359 C 608.006 1.95566 -2.28417 0
M  V30 6360 C 609.554 2.08513 -2.33433 0
M  V30 6361 C 610.029 2.86943 -3.5697 0
M  V30 6362 N 611.52 2.94512 -3.57515 0
M  V30 6363 C 612.255 3.55656 -4.49774 0
M  V30 6364 N 611.751 4.18209 -5.52334 0
M  V30 6365 N 613.544 3.53038 -4.37402 0
M  V30 6366 H 605.695 0.397113 -2.08655 0
M  V30 6367 H 607.958 0.238277 -0.917566 0
M  V30 6368 H 607.664 1.44395 -3.20691 0
M  V30 6369 H 607.538 2.9619 -2.33563 0
M  V30 6370 H 609.925 2.58872 -1.41666 0
M  V30 6371 H 610.006 1.07117 -2.32292 0
M  V30 6372 H 609.65 2.37268 -4.49072 0
M  V30 6373 H 609.58 3.8862 -3.55362 0
M  V30 6374 H 612.071 2.50053 -2.83341 0
M  V30 6375 H 612.384 4.62796 -6.18902 0
M  V30 6376 H 610.729 4.16761 -5.56179 0
M  V30 6377 H 613.92 3.0337 -3.56489 0
M  V30 6378 H 614.093 4.004 -5.09493 0
M  V30 6379 N 607.499 1.09233 1.13605 0
M  V30 6380 C 608.745 0.828385 1.8511 0
M  V30 6381 C 609.078 -0.64437 1.83198 0
M  V30 6382 O 608.353 -1.47428 1.26867 0
M  V30 6383 C 608.636 1.36167 3.33363 0
M  V30 6384 C 608.489 2.90038 3.438 0
M  V30 6385 C 609.808 0.993819 4.28732 0
M  V30 6386 H 606.927 0.30239 0.672108 0
M  V30 6387 H 609.569 1.35339 1.33355 0
M  V30 6388 H 607.719 0.9151 3.77569 0
M  V30 6389 H 609.391 3.43128 3.08319 0
M  V30 6390 H 607.634 3.27271 2.84739 0
M  V30 6391 H 608.305 3.22428 4.48045 0
M  V30 6392 H 610.781 1.37893 3.92587 0
M  V30 6393 H 609.657 1.39403 5.30903 0
M  V30 6394 H 609.918 -0.0982206 4.41991 0
M  V30 6395 N 608.977 -1.30795 0.87923 0
M  V30 6396 C 609.907 -2.30742 0.357796 0
M  V30 6397 C 610.888 -1.60747 -0.556283 0
M  V30 6398 O 612.073 -1.88393 -0.47135 0
M  V30 6399 C 609.203 -3.44583 -0.433555 0
M  V30 6400 C 608.157 -4.26235 0.388251 0
M  V30 6401 C 607.483 -5.32073 -0.529352 0
M  V30 6402 C 608.783 -4.96303 1.62729 0
M  V30 6403 H 610.477 -2.74605 1.19299 0
M  V30 6404 H 608.023 -1.32017 0.575104 0
M  V30 6405 H 609.976 -4.13563 -0.808934 0
M  V30 6406 H 608.7 -2.99511 -1.30234 0
M  V30 6407 H 607.359 -3.58936 0.745695 0
M  V30 6408 H 607.007 -4.83249 -1.39569 0
M  V30 6409 H 606.707 -5.87598 0.0166741 0
M  V30 6410 H 608.231 -6.0391 -0.901373 0
M  V30 6411 H 609.645 -5.5783 1.32283 0
M  V30 6412 H 608.042 -5.61666 2.11309 0
M  V30 6413 H 609.112 -4.22758 2.37494 0
M  V30 6414 N 610.455 -0.639598 -1.44038 0
M  V30 6415 C 611.703 -0.147188 -2.01563 0
M  V30 6416 C 612.024 1.2384 -1.50628 0
M  V30 6417 O 611.294 1.82452 -0.713316 0
M  V30 6418 H 609.874 -0.0514231 -0.745228 0
M  V30 6419 H 612.536 -0.828205 -1.76428 0
M  V30 6420 H 611.632 -0.121358 -3.11864 0
M  V30 6421 N 611.933 1.52934 -0.380664 0
M  V30 6422 C 612.843 2.29921 0.466192 0
M  V30 6423 C 613.859 1.36488 1.07922 0
M  V30 6424 O 615.035 1.69553 1.0869 0
M  V30 6425 C 612.1 3.08468 1.58266 0
M  V30 6426 C 611.161 4.17595 0.995627 0
M  V30 6427 C 610.394 4.92387 2.05889 0
M  V30 6428 O 610.617 4.67184 3.27254 0
M  V30 6429 O 609.551 5.77949 1.68102 0
M  V30 6430 H 613.377 3.03274 -0.160735 0
M  V30 6431 H 610.962 1.48698 -0.144617 0
M  V30 6432 H 612.844 3.57469 2.23145 0
M  V30 6433 H 611.519 2.37937 2.19471 0
M  V30 6434 H 610.426 3.72811 0.310332 0
M  V30 6435 H 611.759 4.90336 0.427918 0
M  V30 6436 N 613.412 0.11024 1.57214 0
M  V30 6437 C 614.658 -0.550684 1.9518 0
M  V30 6438 C 614.991 -1.66885 0.993122 0
M  V30 6439 O 614.266 -1.94479 0.0287907 0
M  V30 6440 C 614.549 -1.09163 3.43155 0
M  V30 6441 C 614.402 0.0225198 4.49794 0
M  V30 6442 C 615.721 -1.98527 3.92778 0
M  V30 6443 H 612.84 -0.198706 0.709708 0
M  V30 6444 H 615.482 0.184024 1.89107 0
M  V30 6445 H 613.632 -1.71775 3.48462 0
M  V30 6446 H 615.304 0.657443 4.56591 0
M  V30 6447 H 613.547 0.686868 4.28328 0
M  V30 6448 H 614.218 -0.39706 5.5057 0
M  V30 6449 H 616.694 -1.458 3.8972 0
M  V30 6450 H 615.57 -2.33298 4.96853 0
M  V30 6451 H 615.831 -2.90846 3.32958 0
M  V30 6452 N 614.89 -1.56749 -0.16351 0
M  V30 6453 C 615.837 -1.97011 -1.2023 0
M  V30 6454 C 616.807 -0.835186 -1.43575 0
M  V30 6455 O 617.992 -1.09594 -1.56185 0
M  V30 6456 C 615.132 -2.34186 -2.53478 0
M  V30 6457 C 614.245 -3.60893 -2.37446 0
M  V30 6458 C 613.38 -3.87245 -3.63614 0
M  V30 6459 C 612.419 -5.07274 -3.42548 0
M  V30 6460 N 611.556 -5.29719 -4.60806 0
M  V30 6461 H 616.396 -2.85562 -0.851958 0
M  V30 6462 H 613.933 -1.41292 -0.409257 0
M  V30 6463 H 615.891 -2.53764 -3.31149 0
M  V30 6464 H 614.521 -1.48736 -2.86492 0
M  V30 6465 H 613.573 -3.49185 -1.50911 0
M  V30 6466 H 614.885 -4.48722 -2.1783 0
M  V30 6467 H 614.039 -4.07232 -4.49719 0
M  V30 6468 H 612.778 -2.97806 -3.86216 0
M  V30 6469 H 611.783 -4.87177 -2.5483 0
M  V30 6470 H 613.008 -5.98251 -3.2136 0
M  V30 6471 H 610.954 -4.43233 -4.83612 0
M  V30 6472 H 610.871 -6.11786 -4.44132 0
M  V30 6473 H 612.139 -5.54192 -5.48171 0
M  V30 6474 N 616.368 0.432326 -1.51554 0
M  V30 6475 C 617.315 1.52512 -1.7323 0
M  V30 6476 C 618.285 1.55863 -0.5741 0
M  V30 6477 O 619.47 1.72796 -0.809093 0
M  V30 6478 C 616.61 2.90183 -1.86783 0
M  V30 6479 C 615.723 2.96322 -3.14352 0
M  V30 6480 C 614.858 4.25147 -3.18471 0
M  V30 6481 C 613.897 4.25172 -4.40335 0
M  V30 6482 N 613.034 5.45529 -4.41975 0
M  V30 6483 H 617.874 1.33332 -2.66508 0
M  V30 6484 H 615.411 0.647613 -1.32077 0
M  V30 6485 H 617.369 3.70071 -1.92623 0
M  V30 6486 H 615.999 3.0791 -0.969087 0
M  V30 6487 H 615.051 2.09066 -3.17798 0
M  V30 6488 H 616.363 2.92203 -4.04251 0
M  V30 6489 H 615.517 5.13411 -3.23255 0
M  V30 6490 H 614.256 4.31929 -2.2647 0
M  V30 6491 H 613.261 3.353 -4.35723 0
M  V30 6492 H 614.486 4.20049 -5.33606 0
M  V30 6493 H 612.432 5.53024 -3.52847 0
M  V30 6494 H 612.349 5.43311 -5.25689 0
M  V30 6495 H 613.617 6.35812 -4.50958 0
M  V30 6496 N 617.846 1.41785 0.688094 0
M  V30 6497 C 618.756 1.46596 1.83158 0
M  V30 6498 C 619.772 0.355862 1.70322 0
M  V30 6499 O 620.948 0.604737 1.92106 0
M  V30 6500 C 618.013 1.35322 3.192 0
M  V30 6501 C 617.074 2.56711 3.4409 0
M  V30 6502 C 616.307 2.45965 4.73642 0
M  V30 6503 O 616.53 1.48827 5.50642 0
M  V30 6504 O 615.464 3.35859 4.99482 0
M  V30 6505 H 619.29 2.43083 1.82056 0
M  V30 6506 H 616.875 1.23404 0.842126 0
M  V30 6507 H 618.757 1.31347 4.00407 0
M  V30 6508 H 617.432 0.419536 3.2097 0
M  V30 6509 H 616.339 2.66262 2.62784 0
M  V30 6510 H 617.672 3.48933 3.47141 0
M  V30 6511 N 619.324 -0.923095 1.27737 0
M  V30 6512 C 620.554 -1.70277 1.17001 0
M  V30 6513 C 620.962 -1.87188 -0.275199 0
M  V30 6514 O 620.305 -1.39195 -1.19877 0
M  V30 6515 C 620.367 -3.11976 1.78637 0
M  V30 6516 C 620.031 -3.18386 3.27841 0
M  V30 6517 C 621.028 -3.00287 4.2441 0
M  V30 6518 C 618.713 -3.41198 3.68632 0
M  V30 6519 C 620.707 -3.04896 5.59747 0
M  V30 6520 C 618.394 -3.4544 5.04097 0
M  V30 6521 C 619.392 -3.27309 5.99465 0
M  V30 6522 O 619.08 -3.31295 7.32461 0
M  V30 6523 H 618.812 -0.539366 0.407505 0
M  V30 6524 H 621.366 -1.16446 1.69202 0
M  V30 6525 H 619.596 -3.67308 1.20919 0
M  V30 6526 H 621.285 -3.7193 1.6255 0
M  V30 6527 H 622.051 -2.825 3.94232 0
M  V30 6528 H 617.93 -3.54359 2.94873 0
M  V30 6529 H 621.474 -2.90662 6.34162 0
M  V30 6530 H 617.371 -3.62753 5.33929 0
M  V30 6531 H 618.139 -3.47719 7.40968 0
M  V30 6532 N 620.802 -1.09834 -1.13024 0
M  V30 6533 C 622.042 -0.846664 -1.8604 0
M  V30 6534 C 622.406 0.616557 -1.81831 0
M  V30 6535 O 623.607 0.984329 -2.50129 0
M  V30 6536 C 621.878 -1.37228 -3.30005 0
M  V30 6537 S 623.437 -1.25511 -4.20467 0
M  V30 6538 H 620.255 -0.30611 -0.64173 0
M  V30 6539 H 622.857 -1.40255 -1.36194 0
M  V30 6540 H 621.561 -2.43138 -3.30624 0
M  V30 6541 H 621.092 -0.81271 -3.84914 0
M  V30 6542 H 623.107 -0.208762 -4.95761 0
M  V30 6543 N 622.28 1.30327 -0.886154 0
M  V30 6544 C 623.557 1.90922 -0.425217 0
M  V30 6545 C 623.937 1.80533 1.09413 0
M  V30 6546 O 623.285 1.2233 1.92996 0
M  V30 6547 C 623.495 3.36529 -0.924638 0
M  V30 6548 C 624.843 4.13598 -0.960305 0
M  V30 6549 O 625.867 3.45377 -0.871382 0
M  V30 6550 O 624.726 5.35482 -1.09184 0
M  V30 6551 H 621.82 0.81668 -0.130238 0
M  V30 6552 H 624.366 1.38886 -0.975132 0
M  V30 6553 H 623.138 3.38181 -1.96849 0
M  V30 6554 H 622.761 3.96021 -0.353955 0
M  V30 6555 N 623.758 0.647228 1.43697 0
M  V30 6556 C 624.688 -0.0345631 2.33474 0
M  V30 6557 C 625.669 -0.818193 1.4913 0
M  V30 6558 O 626.854 -0.780867 1.77809 0
M  V30 6559 C 623.984 -1.00576 3.32418 0
M  V30 6560 C 622.938 -0.33266 4.26705 0
M  V30 6561 C 622.264 -1.41489 5.1564 0
M  V30 6562 C 623.564 0.771204 5.16575 0
M  V30 6563 H 625.258 0.715163 2.90733 0
M  V30 6564 H 622.804 0.345364 1.39797 0
M  V30 6565 H 624.757 -1.49159 3.94119 0
M  V30 6566 H 623.481 -1.78657 2.73403 0
M  V30 6567 H 622.14 0.13267 3.6636 0
M  V30 6568 H 621.788 -2.18698 4.52968 0
M  V30 6569 H 621.488 -0.969799 5.79542 0
M  V30 6570 H 623.012 -1.9022 5.80214 0
M  V30 6571 H 624.426 0.36779 5.72119 0
M  V30 6572 H 622.823 1.1404 5.89165 0
M  V30 6573 H 623.893 1.63169 4.56622 0
M  V30 6574 N 625.236 -1.5273 0.388769 0
M  V30 6575 C 626.166 -2.29353 -0.438111 0
M  V30 6576 C 627.147 -1.32719 -1.06394 0
M  V30 6577 O 628.332 -1.61612 -1.07681 0
M  V30 6578 C 625.462 -3.09995 -1.56589 0
M  V30 6579 C 624.416 -4.14509 -1.06613 0
M  V30 6580 C 623.742 -4.83372 -2.28594 0
M  V30 6581 C 625.042 -5.22127 -0.134459 0
M  V30 6582 H 626.736 -2.98723 0.201206 0
M  V30 6583 H 624.282 -1.43665 0.0982089 0
M  V30 6584 H 626.235 -3.62357 -2.15118 0
M  V30 6585 H 624.959 -2.38357 -2.23279 0
M  V30 6586 H 623.618 -3.63128 -0.503383 0
M  V30 6587 H 623.266 -4.08283 -2.93792 0
M  V30 6588 H 622.966 -5.54012 -1.95817 0
M  V30 6589 H 624.49 -5.38538 -2.87766 0
M  V30 6590 H 625.904 -5.69851 -0.627914 0
M  V30 6591 H 624.301 -6.00011 0.103534 0
M  V30 6592 H 625.371 -4.77971 0.816798 0
M  V30 6593 N 626.714 -0.118576 -1.57153 0
M  V30 6594 C 628.13 0.238014 -1.57815 0
M  V30 6595 C 628.33 1.66747 -1.13127 0
M  V30 6596 O 627.386 2.38867 -0.818462 0
M  V30 6597 C 628.699 0.00508207 -3.007 0
M  V30 6598 C 630.247 0.0710139 -3.12919 0
M  V30 6599 C 630.722 -0.13422 -4.57803 0
M  V30 6600 N 632.213 -0.0801755 -4.63131 0
M  V30 6601 C 632.948 -0.213885 -5.73001 0
M  V30 6602 N 632.444 -0.403742 -6.91623 0
M  V30 6603 N 634.237 -0.15349 -5.6189 0
M  V30 6604 H 626.388 -1.05226 -1.84503 0
M  V30 6605 H 628.651 -0.414318 -0.852669 0
M  V30 6606 H 628.357 -0.983125 -3.3768 0
M  V30 6607 H 628.231 0.73714 -3.69927 0
M  V30 6608 H 630.618 1.04975 -2.75798 0
M  V30 6609 H 630.699 -0.692918 -2.46236 0
M  V30 6610 H 630.343 -1.10992 -4.95624 0
M  V30 6611 H 630.273 0.649692 -5.22577 0
M  V30 6612 H 632.764 0.0630689 -3.77847 0
M  V30 6613 H 633.077 -0.496645 -7.71202 0
M  V30 6614 H 631.422 -0.43971 -6.93608 0
M  V30 6615 H 634.613 -0.00613174 -4.681 0
M  V30 6616 H 634.786 -0.261138 -6.47474 0
M  V30 6617 N 628.193 1.56834 0.155195 0
M  V30 6618 C 629.609 1.51315 0.50755 0
M  V30 6619 C 629.809 0.825614 1.83809 0
M  V30 6620 O 628.865 0.39271 2.49427 0
M  V30 6621 C 630.178 2.96074 0.52542 0
M  V30 6622 C 631.726 3.06968 0.611505 0
M  V30 6623 C 632.201 4.53218 0.660115 0
M  V30 6624 N 633.692 4.5753 0.722564 0
M  V30 6625 C 634.427 5.68056 0.781023 0
M  V30 6626 N 633.923 6.88173 0.799327 0
M  V30 6627 N 635.716 5.56068 0.821278 0
M  V30 6628 H 627.867 1.9993 -0.717063 0
M  V30 6629 H 630.13 0.911507 -0.260496 0
M  V30 6630 H 629.836 3.49599 -0.383875 0
M  V30 6631 H 629.71 3.51587 1.36624 0
M  V30 6632 H 632.097 2.53468 1.51122 0
M  V30 6633 H 632.178 2.54513 -0.256306 0
M  V30 6634 H 631.822 5.07354 -0.23541 0
M  V30 6635 H 631.752 5.03447 1.5443 0
M  V30 6636 H 634.243 3.71054 0.716049 0
M  V30 6637 H 634.556 7.6816 0.845553 0
M  V30 6638 H 632.901 6.90751 0.767337 0
M  V30 6639 H 636.092 4.61142 0.804091 0
M  V30 6640 H 636.265 6.42223 0.863372 0
M  V30 6641 N 629.671 -0.424282 1.51781 0
M  V30 6642 C 630.634 -1.49848 1.73431 0
M  V30 6643 C 631.634 -1.49016 0.604225 0
M  V30 6644 O 632.824 -1.50808 0.871935 0
M  V30 6645 C 629.956 -2.89332 1.80277 0
M  V30 6646 H 631.149 -1.3195 2.69312 0
M  V30 6647 H 628.702 -0.653809 1.41968 0
M  V30 6648 H 629.437 -3.12618 0.862568 0
M  V30 6649 H 629.222 -2.9134 2.62419 0
M  V30 6650 H 630.712 -3.67233 1.98821 0
M  V30 6651 N 631.149 -1.42148 -0.680565 0
M  V30 6652 C 632.426 -1.32795 -1.43614 0
M  V30 6653 C 632.806 0.037415 -2.11067 0
M  V30 6654 O 632.154 1.05258 -2.02813 0
M  V30 6655 C 632.364 -2.49206 -2.44331 0
M  V30 6656 C 633.712 -2.91059 -3.09144 0
M  V30 6657 O 634.736 -2.49054 -2.54657 0
M  V30 6658 O 633.595 -3.63741 -4.07866 0
M  V30 6659 H 630.689 -0.523397 -0.640301 0
M  V30 6660 H 633.235 -1.54144 -0.709775 0
M  V30 6661 H 632.007 -3.40252 -1.93247 0
M  V30 6662 H 631.63 -2.29813 -3.24456 0
M  V30 6663 N 632.627 0.916307 -1.28225 0
M  V30 6664 C 633.59 1.99996 -1.11957 0
M  V30 6665 C 634.59 1.60688 -0.0600152 0
M  V30 6666 O 635.78 1.71499 -0.30558 0
M  V30 6667 C 632.912 3.33458 -0.708411 0
M  V30 6668 H 634.105 2.15858 -2.08196 0
M  V30 6669 H 631.658 1.09863 -1.11175 0
M  V30 6670 H 632.393 3.23297 0.254859 0
M  V30 6671 H 632.178 3.63349 -1.47377 0
M  V30 6672 H 633.668 4.13014 -0.617164 0
M  V30 6673 N 634.105 1.10431 1.1244 0
M  V30 6674 C 635.354 0.841539 1.83306 0
M  V30 6675 C 635.667 -0.634961 1.85007 0
M  V30 6676 O 636.873 -1.01363 2.51869 0
M  V30 6677 C 635.329 1.45565 3.29149 0
M  V30 6678 C 634.937 2.96544 3.35806 0
M  V30 6679 C 636.681 1.27227 4.04986 0
M  V30 6680 C 634.588 3.5099 4.75983 0
M  V30 6681 H 633.518 0.311156 0.686803 0
M  V30 6682 H 636.169 1.32829 1.26604 0
M  V30 6683 H 634.551 0.896574 3.85717 0
M  V30 6684 H 635.725 3.58766 2.89177 0
M  V30 6685 H 634.04 3.14036 2.73442 0
M  V30 6686 H 636.637 1.65348 5.08492 0
M  V30 6687 H 636.98 0.213834 4.1575 0
M  V30 6688 H 637.513 1.79941 3.54776 0
M  V30 6689 H 634.252 4.56499 4.70413 0
M  V30 6690 H 633.772 2.93535 5.23065 0
M  V30 6691 H 635.451 3.48808 5.44924 0
M  V30 6692 N 635.583 -1.29855 0.893053 0
M  V30 6693 C 636.83 -1.95826 0.515585 0
M  V30 6694 C 637.158 -1.70451 -0.936842 0
M  V30 6695 O 636.413 -1.00657 -1.67829 0
M  V30 6696 C 636.712 -3.49515 0.746588 0
M  V30 6697 C 636.378 -3.94955 2.17535 0
M  V30 6698 C 635.04 -4.07073 2.56603 0
M  V30 6699 C 637.392 -4.18536 3.10607 0
M  V30 6700 C 634.72 -4.40138 3.87938 0
M  V30 6701 C 637.072 -4.53073 4.41484 0
M  V30 6702 C 635.736 -4.634 4.80434 0
M  V30 6703 H 635.006 -0.71658 0.188666 0
M  V30 6704 H 637.653 -1.54574 1.13045 0
M  V30 6705 H 635.958 -3.9177 0.0487551 0
M  V30 6706 H 637.655 -3.98644 0.434009 0
M  V30 6707 H 634.245 -3.86035 1.86212 0
M  V30 6708 H 638.429 -4.08646 2.81641 0
M  V30 6709 H 633.685 -4.46335 4.17846 0
M  V30 6710 H 637.859 -4.70269 5.13634 0
M  V30 6711 H 635.486 -4.88775 5.82239 0
M  V30 6712 N 637.061 -0.65484 -1.43351 0
M  V30 6713 C 638.31 -0.166215 -2.01014 0
M  V30 6714 C 638.623 1.22764 -1.52278 0
M  V30 6715 O 639.829 1.81156 -2.02224 0
M  V30 6716 C 638.285 -0.246341 -3.59056 0
M  V30 6717 C 637.893 -1.64299 -4.16785 0
M  V30 6718 C 639.637 0.184597 -4.24098 0
M  V30 6719 C 637.544 -1.67695 -5.67126 0
M  V30 6720 H 636.474 -0.0583769 -0.751737 0
M  V30 6721 H 639.125 -0.817111 -1.64303 0
M  V30 6722 H 637.507 0.472092 -3.93176 0
M  V30 6723 H 638.681 -2.3869 -3.94162 0
M  V30 6724 H 636.996 -2.02004 -3.6412 0
M  V30 6725 H 639.593 0.179088 -5.344 0
M  V30 6726 H 639.936 1.21632 -3.98135 0
M  V30 6727 H 640.469 -0.482141 -3.94867 0
M  V30 6728 H 637.208 -2.68783 -5.9786 0
M  V30 6729 H 636.728 -0.976313 -5.91801 0
M  V30 6730 H 638.407 -1.42142 -6.31193 0
M  V30 6731 N 638.539 1.52521 -0.396863 0
M  V30 6732 C 639.449 2.30403 0.44178 0
M  V30 6733 C 640.465 1.37625 1.06468 0
M  V30 6734 O 641.641 1.70697 1.06886 0
M  V30 6735 C 638.706 3.1013 1.54986 0
M  V30 6736 C 637.767 4.18628 0.951279 0
M  V30 6737 C 637 4.94543 2.00655 0
M  V30 6738 O 637.223 4.70629 3.22281 0
M  V30 6739 O 636.157 5.797 1.61962 0
M  V30 6740 H 639.983 3.03087 -0.192892 0
M  V30 6741 H 637.568 1.48537 -0.16038 0
M  V30 6742 H 639.45 3.59816 2.19341 0
M  V30 6743 H 638.125 2.40251 2.16935 0
M  V30 6744 H 637.032 3.73119 0.270773 0
M  V30 6745 H 638.365 4.90763 0.375887 0
M  V30 6746 N 640.017 0.126909 1.57088 0
M  V30 6747 C 640.927 -0.833867 2.1928 0
M  V30 6748 C 641.943 -1.2868 1.17122 0
M  V30 6749 O 643.119 -1.34815 1.49622 0
M  V30 6750 C 640.184 -2.0632 2.78627 0
M  V30 6751 C 639.245 -1.66143 3.95847 0
M  V30 6752 C 638.478 -2.83217 4.52354 0
M  V30 6753 O 638.701 -3.98868 4.0775 0
M  V30 6754 O 637.635 -2.59846 5.42922 0
M  V30 6755 H 641.461 -0.334564 3.01852 0
M  V30 6756 H 639.046 -0.0991091 1.49071 0
M  V30 6757 H 640.928 -2.78304 3.16425 0
M  V30 6758 H 639.603 -2.55242 1.99082 0
M  V30 6759 H 638.51 -0.912435 3.62802 0
M  V30 6760 H 639.843 -1.21957 4.76852 0
M  V30 6761 N 641.495 -1.56914 -0.146875 0
M  V30 6762 C 642.425 -2.01308 -1.1831 0
M  V30 6763 C 643.406 -0.892664 -1.44795 0
M  V30 6764 O 644.591 -1.16048 -1.55713 0
M  V30 6765 C 641.721 -2.3938 -2.51624 0
M  V30 6766 C 640.675 -3.54608 -2.3966 0
M  V30 6767 C 640.001 -3.78493 -3.77686 0
M  V30 6768 C 641.301 -4.87269 -1.88058 0
M  V30 6769 H 642.995 -2.88123 -0.813964 0
M  V30 6770 H 640.541 -1.38615 -0.3901 0
M  V30 6771 H 642.494 -2.69037 -3.24341 0
M  V30 6772 H 641.218 -1.49502 -2.90373 0
M  V30 6773 H 639.877 -3.25116 -1.69396 0
M  V30 6774 H 639.525 -2.85866 -4.13871 0
M  V30 6775 H 639.225 -4.56039 -3.70543 0
M  V30 6776 H 640.749 -4.10576 -4.51951 0
M  V30 6777 H 642.163 -5.15644 -2.50568 0
M  V30 6778 H 640.56 -5.68622 -1.91805 0
M  V30 6779 H 641.63 -4.77634 -0.836277 0
M  V30 6780 N 642.974 0.416227 -1.52004 0
M  V30 6781 C 644.39 0.754319 -1.40649 0
M  V30 6782 C 644.59 1.95059 -0.505392 0
M  V30 6783 O 643.646 2.5248 0.0315057 0
M  V30 6784 C 644.959 1.0149 -2.83055 0
M  V30 6785 C 646.507 1.11805 -2.9235 0
M  V30 6786 C 646.982 1.41144 -4.35709 0
M  V30 6787 N 648.473 1.48024 -4.38911 0
M  V30 6788 C 649.208 1.72338 -5.46889 0
M  V30 6789 N 648.704 1.94303 -6.64995 0
M  V30 6790 N 650.497 1.74294 -5.34395 0
M  V30 6791 H 642.648 -0.371324 -2.09129 0
M  V30 6792 H 644.911 -0.103811 -0.942299 0
M  V30 6793 H 644.617 0.208345 -3.51082 0
M  V30 6794 H 644.491 1.93697 -3.23668 0
M  V30 6795 H 646.878 1.91521 -2.24508 0
M  V30 6796 H 646.959 0.17451 -2.55204 0
M  V30 6797 H 646.603 0.619484 -5.04108 0
M  V30 6798 H 646.533 2.36739 -4.70385 0
M  V30 6799 H 649.024 1.32868 -3.53772 0
M  V30 6800 H 649.337 2.12286 -7.43071 0
M  V30 6801 H 647.682 1.91582 -6.68073 0
M  V30 6802 H 650.873 1.56667 -4.41104 0
M  V30 6803 H 651.046 1.92904 -6.18621 0
M  V30 6804 N 644.452 1.42507 0.673017 0
M  V30 6805 C 645.399 1.46124 1.78651 0
M  V30 6806 C 646.369 0.313007 1.63124 0
M  V30 6807 O 647.554 0.517337 1.83653 0
M  V30 6808 C 644.694 1.3711 3.16694 0
M  V30 6809 C 643.807 2.61983 3.43495 0
M  V30 6810 C 642.942 2.45098 4.71275 0
M  V30 6811 C 641.981 3.65336 4.91117 0
M  V30 6812 N 641.118 3.47383 6.10139 0
M  V30 6813 H 645.958 2.4128 1.74895 0
M  V30 6814 H 643.495 1.19788 0.853766 0
M  V30 6815 H 645.453 1.29881 3.96468 0
M  V30 6816 H 644.083 0.45549 3.1957 0
M  V30 6817 H 643.135 2.79571 2.57961 0
M  V30 6818 H 644.447 3.51355 3.5405 0
M  V30 6819 H 643.601 2.35466 5.59143 0
M  V30 6820 H 642.34 1.53219 4.63007 0
M  V30 6821 H 641.345 3.754 4.0169 0
M  V30 6822 H 642.57 4.58199 5.01229 0
M  V30 6823 H 640.516 2.58222 6.0304 0
M  V30 6824 H 640.433 4.30344 6.21563 0
M  V30 6825 H 641.701 3.41565 7.00681 0
M  V30 6826 N 645.93 -0.909495 1.28709 0
M  V30 6827 C 646.893 -1.99399 1.13016 0
M  V30 6828 C 647.893 -1.60654 0.068536 0
M  V30 6829 O 649.083 -1.71334 0.314671 0
M  V30 6830 C 646.215 -3.33078 0.726085 0
M  V30 6831 H 647.408 -2.14751 2.09338 0
M  V30 6832 H 644.961 -1.09272 1.11756 0
M  V30 6833 H 645.696 -3.23428 -0.23771 0
M  V30 6834 H 645.481 -3.62562 1.49302 0
M  V30 6835 H 646.971 -4.12681 0.639058 0
M  V30 6836 N 647.408 -1.11026 -1.11852 0
M  V30 6837 C 648.685 -0.768347 -1.79877 0
M  V30 6838 C 649.065 0.744261 -1.97545 0
M  V30 6839 O 648.413 1.67271 -1.55669 0
M  V30 6840 C 648.623 -1.52648 -3.13846 0
M  V30 6841 C 649.971 -1.70297 -3.88953 0
M  V30 6842 O 650.995 -1.49037 -3.23522 0
M  V30 6843 O 649.854 -2.05593 -5.06353 0
M  V30 6844 H 646.948 -0.277891 -0.778913 0
M  V30 6845 H 649.494 -1.21343 -1.18633 0
M  V30 6846 H 648.266 -2.55564 -2.96315 0
M  V30 6847 H 647.889 -1.07466 -3.82801 0
M  V30 6848 N 648.886 1.2938 -0.899927 0
M  V30 6849 C 649.816 2.30144 -0.39446 0
M  V30 6850 C 650.797 1.61611 0.530639 0
M  V30 6851 O 651.982 1.89119 0.441319 0
M  V30 6852 C 649.112 3.45229 0.37868 0
M  V30 6853 C 648.066 4.25564 -0.456012 0
M  V30 6854 C 647.392 5.32848 0.444637 0
M  V30 6855 C 648.692 4.93651 -1.70605 0
M  V30 6856 H 650.386 2.72673 -1.23653 0
M  V30 6857 H 647.932 1.31086 -0.596034 0
M  V30 6858 H 649.885 4.14797 0.743037 0
M  V30 6859 H 648.609 3.01545 1.25453 0
M  V30 6860 H 647.268 3.57704 -0.802704 0
M  V30 6861 H 646.916 4.85408 1.31863 0
M  V30 6862 H 646.616 5.87497 -0.110154 0
M  V30 6863 H 648.14 6.05268 0.805182 0
M  V30 6864 H 649.554 5.55655 -1.41141 0
M  V30 6865 H 647.951 5.58233 -2.20217 0
M  V30 6866 H 649.021 4.18926 -2.4419 0
M  V30 6867 N 650.364 0.662433 1.43002 0
M  V30 6868 C 651.594 0.187343 2.05749 0
M  V30 6869 C 652.002 -1.15582 1.49791 0
M  V30 6870 O 651.345 -1.72651 0.627487 0
M  V30 6871 C 651.407 0.0316493 3.59486 0
M  V30 6872 C 651.071 1.30156 4.38073 0
M  V30 6873 C 652.068 2.23234 4.69535 0
M  V30 6874 C 649.753 1.54572 4.77926 0
M  V30 6875 C 651.747 3.39012 5.39768 0
M  V30 6876 C 649.434 2.70641 5.47902 0
M  V30 6877 C 650.432 3.62687 5.78746 0
M  V30 6878 O 650.12 4.76728 6.47291 0
M  V30 6879 H 649.852 0.0915214 0.669776 0
M  V30 6880 H 652.406 0.905982 1.8434 0
M  V30 6881 H 650.636 -0.742451 3.79506 0
M  V30 6882 H 652.325 -0.401977 4.03905 0
M  V30 6883 H 653.091 2.05616 4.39257 0
M  V30 6884 H 648.97 0.83804 4.53319 0
M  V30 6885 H 652.514 4.10877 5.63761 0
M  V30 6886 H 648.411 2.88189 5.77596 0
M  V30 6887 H 649.179 4.76113 6.65777 0
M  V30 6888 N 651.842 -1.52309 0.404946 0
M  V30 6889 C 653.119 -1.94237 -0.230544 0
M  V30 6890 C 653.499 -1.34154 -1.6299 0
M  V30 6891 O 652.847 -0.515713 -2.22604 0
M  V30 6892 C 653.057 -3.48166 -0.241106 0
M  V30 6893 C 654.405 -4.22074 -0.462488 0
M  V30 6894 O 655.429 -3.54754 -0.320644 0
M  V30 6895 O 654.288 -5.41443 -0.741708 0
M  V30 6896 H 651.382 -0.813766 -0.147358 0
M  V30 6897 H 653.928 -1.6333 0.460587 0
M  V30 6898 H 652.7 -3.84269 0.738467 0
M  V30 6899 H 652.323 -3.85422 -0.97651 0
M  V30 6900 N 653.32 -0.135238 -1.57019 0
M  V30 6901 C 654.267 0.808908 -2.1616 0
M  V30 6902 C 655.237 1.25234 -1.09113 0
M  V30 6903 O 656.422 1.32697 -1.37099 0
M  V30 6904 C 653.562 2.04729 -2.77813 0
M  V30 6905 C 652.675 1.65074 -3.99218 0
M  V30 6906 C 651.81 2.84002 -4.48906 0
M  V30 6907 C 650.849 2.40663 -5.62803 0
M  V30 6908 N 649.986 3.5256 -6.07162 0
M  V30 6909 H 654.826 0.297751 -2.96509 0
M  V30 6910 H 652.363 0.135264 -1.46477 0
M  V30 6911 H 654.321 2.7731 -3.11697 0
M  V30 6912 H 652.951 2.53275 -2.00128 0
M  V30 6913 H 652.003 0.823029 -3.7139 0
M  V30 6914 H 653.315 1.29236 -4.81767 0
M  V30 6915 H 652.469 3.64788 -4.84783 0
M  V30 6916 H 651.208 3.23076 -3.65339 0
M  V30 6917 H 650.213 1.58314 -5.26514 0
M  V30 6918 H 651.438 2.02687 -6.48147 0
M  V30 6919 H 649.384 3.91278 -5.26534 0
M  V30 6920 H 649.301 3.20699 -6.84608 0
M  V30 6921 H 650.569 4.33738 -6.47682 0
M  V30 6922 N 654.798 1.5699 0.138552 0
M  V30 6923 C 656.044 1.84081 0.85099 0
M  V30 6924 C 656.377 0.718107 1.80435 0
M  V30 6925 O 655.652 -0.277633 1.92508 0
M  V30 6926 C 655.935 3.21699 1.61808 0
M  V30 6927 C 655.788 4.44544 0.685633 0
M  V30 6928 C 657.107 3.5664 2.57868 0
M  V30 6929 H 654.226 0.669592 0.307922 0
M  V30 6930 H 656.868 1.89646 0.11588 0
M  V30 6931 H 655.018 3.17086 2.24474 0
M  V30 6932 H 656.69 4.61248 0.0693179 0
M  V30 6933 H 654.933 4.338 -0.00421993 0
M  V30 6934 H 655.604 5.3746 1.25858 0
M  V30 6935 H 658.08 3.61918 2.05316 0
M  V30 6936 H 656.956 4.53946 3.08584 0
M  V30 6937 H 657.217 2.83036 3.39622 0
M  V30 6938 N 656.276 -0.40816 1.52223 0
M  V30 6939 C 657.501 -1.18127 1.70472 0
M  V30 6940 C 657.926 -1.83491 0.41384 0
M  V30 6941 O 657.284 -1.70047 -0.628778 0
M  V30 6942 C 657.332 -2.21935 2.84213 0
M  V30 6943 O 656.436 -3.28099 2.4985 0
M  V30 6944 H 655.777 -0.344781 0.56747 0
M  V30 6945 H 658.307 -0.478328 1.9893 0
M  V30 6946 H 658.317 -2.66248 3.09153 0
M  V30 6947 H 656.992 -1.73744 3.7787 0
M  V30 6948 H 655.569 -2.89058 2.35584 0
M  V30 6949 N 657.755 -1.42862 -0.66545 0
M  V30 6950 C 658.687 -1.43026 -1.79098 0
M  V30 6951 C 659.7 -0.32803 -1.59461 0
M  V30 6952 O 660.889 -0.591709 -1.68407 0
M  V30 6953 C 657.989 -1.21566 -3.16346 0
M  V30 6954 C 657.162 -2.44399 -3.62751 0
M  V30 6955 C 656.221 -2.18344 -4.78761 0
M  V30 6956 O 655.247 -2.91611 -4.88827 0
M  V30 6957 N 656.449 -1.1924 -5.68122 0
M  V30 6958 H 659.214 -2.40045 -1.79439 0
M  V30 6959 H 656.775 -1.37861 -0.848872 0
M  V30 6960 H 658.767 -1.02037 -3.91625 0
M  V30 6961 H 657.337 -0.330368 -3.10849 0
M  V30 6962 H 656.557 -2.79433 -2.78048 0
M  V30 6963 H 657.845 -3.26173 -3.90498 0
M  V30 6964 H 657.243 -0.586603 -5.6265 0
M  V30 6965 H 655.8 -1.05698 -6.43173 0
M  V30 6966 N 659.233 0.902656 -1.29189 0
M  V30 6967 C 660.196 1.98797 -1.14071 0
M  V30 6968 C 661.196 1.60615 -0.0770549 0
M  V30 6969 O 662.386 1.71165 -0.323753 0
M  V30 6970 C 659.518 3.32688 -0.743739 0
M  V30 6971 H 660.711 2.13637 -2.10473 0
M  V30 6972 H 658.264 1.08678 -1.12334 0
M  V30 6973 H 658.999 3.23549 0.220554 0
M  V30 6974 H 658.784 3.61765 -1.51223 0
M  V30 6975 H 660.274 4.12337 -0.660935 0
M  V30 6976 N 660.711 1.11618 1.11262 0
M  V30 6977 C 661.958 0.86618 1.8304 0
M  V30 6978 C 662.286 -0.608149 1.84748 0
M  V30 6979 O 661.541 -1.46508 1.29745 0
M  V30 6980 C 661.84 1.37529 3.2988 0
M  V30 6981 C 661.506 2.86317 3.4833 0
M  V30 6982 C 660.168 3.26945 3.53073 0
M  V30 6983 C 662.52 3.82136 3.54431 0
M  V30 6984 C 659.848 4.62117 3.61475 0
M  V30 6985 C 662.2 5.17128 3.64365 0
M  V30 6986 C 660.864 5.57312 3.67369 0
M  V30 6987 H 660.134 0.316958 0.66979 0
M  V30 6988 H 662.781 1.3949 1.31205 0
M  V30 6989 H 661.086 0.766842 3.84222 0
M  V30 6990 H 662.783 1.15817 3.83911 0
M  V30 6991 H 659.373 2.53889 3.45309 0
M  V30 6992 H 663.557 3.51847 3.50025 0
M  V30 6993 H 658.813 4.92655 3.62079 0
M  V30 6994 H 662.987 5.91208 3.68029 0
M  V30 6995 H 660.614 6.62045 3.73632 0
M  V30 6996 N 662.189 -1.289 0.906776 0
M  V30 6997 C 663.417 -1.99401 0.551969 0
M  V30 6998 C 663.832 -1.67816 -0.865048 0
M  V30 6999 O 663.189 -0.927078 -1.57199 0
M  V30 7000 C 663.24 -3.53779 0.743152 0
M  V30 7001 O 662.961 -3.84248 2.1044 0
M  V30 7002 C 664.462 -4.41543 0.39424 0
M  V30 7003 H 661.682 -0.636926 0.211106 0
M  V30 7004 H 664.226 -1.64266 1.21807 0
M  V30 7005 H 662.381 -3.87201 0.124143 0
M  V30 7006 H 662.795 -4.78904 2.13895 0
M  V30 7007 H 664.269 -5.48957 0.578814 0
M  V30 7008 H 664.746 -4.34073 -0.669137 0
M  V30 7009 H 665.352 -4.13605 0.990491 0
M  V30 7010 N 663.667 -0.670007 -1.42649 0
M  V30 7011 C 664.913 -0.190568 -2.01903 0
M  V30 7012 C 665.246 1.19817 -1.52832 0
M  V30 7013 O 664.521 1.80342 -0.728485 0
M  V30 7014 C 664.804 -0.21991 -3.59428 0
M  V30 7015 C 664.657 -1.64376 -4.18689 0
M  V30 7016 C 665.976 0.434519 -4.3795 0
M  V30 7017 H 663.095 -0.0707219 -0.733599 0
M  V30 7018 H 665.737 -0.853883 -1.69732 0
M  V30 7019 H 663.887 0.344894 -3.86966 0
M  V30 7020 H 665.559 -2.26044 -4.02122 0
M  V30 7021 H 663.802 -2.18591 -3.747 0
M  V30 7022 H 664.473 -1.61601 -5.27815 0
M  V30 7023 H 666.949 -0.0462156 -4.16074 0
M  V30 7024 H 665.825 0.38333 -5.4756 0
M  V30 7025 H 666.086 1.51135 -4.15464 0
M  V30 7026 N 665.145 1.52092 -0.413018 0
M  V30 7027 C 666.392 2.01855 0.161497 0
M  V30 7028 C 666.72 1.29845 1.44812 0
M  V30 7029 O 665.975 0.394471 1.91683 0
M  V30 7030 C 666.274 3.54529 0.4521 0
M  V30 7031 C 665.94 4.4469 -0.745788 0
M  V30 7032 C 664.602 4.69053 -1.07435 0
M  V30 7033 C 666.954 4.97742 -1.54604 0
M  V30 7034 C 664.282 5.43717 -2.20429 0
M  V30 7035 C 666.634 5.73642 -2.66678 0
M  V30 7036 C 665.298 5.96277 -3.00016 0
M  V30 7037 H 664.568 0.73864 0.0590961 0
M  V30 7038 H 667.215 1.83274 -0.555234 0
M  V30 7039 H 665.52 3.7131 1.25045 0
M  V30 7040 H 667.217 3.90546 0.909647 0
M  V30 7041 H 663.807 4.25907 -0.479725 0
M  V30 7042 H 667.991 4.78824 -1.30543 0
M  V30 7043 H 663.247 5.59462 -2.46602 0
M  V30 7044 H 667.421 6.13746 -3.29072 0
M  V30 7045 H 665.048 6.53913 -3.87688 0
M  V30 7046 N 666.623 0.143563 1.56945 0
M  V30 7047 C 667.553 -0.7936 2.196 0
M  V30 7048 C 668.534 -1.25955 1.14321 0
M  V30 7049 O 669.719 -1.31773 1.42651 0
M  V30 7050 C 666.849 -2.03424 2.81489 0
M  V30 7051 C 665.803 -1.70519 3.92565 0
M  V30 7052 C 665.129 -3.01817 4.41373 0
M  V30 7053 C 666.429 -0.95449 5.13504 0
M  V30 7054 H 668.123 -0.271423 2.98167 0
M  V30 7055 H 665.669 -0.12911 1.4342 0
M  V30 7056 H 667.622 -2.69463 3.23987 0
M  V30 7057 H 666.346 -2.58008 2.00248 0
M  V30 7058 H 665.005 -1.06859 3.5068 0
M  V30 7059 H 664.653 -3.54386 3.56959 0
M  V30 7060 H 664.353 -2.80565 5.16292 0
M  V30 7061 H 665.877 -3.68934 4.86539 0
M  V30 7062 H 667.291 -1.5169 5.52868 0
M  V30 7063 H 665.688 -0.842035 5.94163 0
M  V30 7064 H 666.758 0.0544033 4.84869 0
M  V30 7065 N 668.101 -1.57061 -0.130224 0
M  V30 7066 C 669.512 -1.73539 -0.68856 0
M  V30 7067 C 669.863 -0.760554 -1.80859 0
M  V30 7068 O 668.988 0.0690796 -2.1629 0
M  V30 7069 C 669.583 -3.14666 -1.25581 0
M  V30 7070 C 668.142 -3.32689 -1.76055 0
M  V30 7071 C 667.289 -2.69436 -0.655712 0
M  V30 7072 H 670.24 -1.58412 0.0956002 0
M  V30 7073 H 670.261 -3.15595 -2.12556 0
M  V30 7074 H 669.773 -3.85593 -0.440412 0
M  V30 7075 H 667.874 -2.66786 -2.60108 0
M  V30 7076 H 667.987 -4.4077 -1.87772 0
M  V30 7077 H 666.351 -2.30362 -1.08654 0
M  V30 7078 H 667.134 -3.42979 0.14852 0
M  V30 7079 N 669.579 0.400081 -1.52437 0
M  V30 7080 C 670.825 1.14788 -1.67187 0
M  V30 7081 C 671.158 1.89928 -0.405074 0
M  V30 7082 O 670.433 1.85118 0.596804 0
M  V30 7083 C 670.716 2.13507 -2.89977 0
M  V30 7084 C 670.569 1.42204 -4.2673 0
M  V30 7085 C 671.888 3.14069 -3.083 0
M  V30 7086 H 669.007 0.415939 -0.608411 0
M  V30 7087 H 671.649 0.432542 -1.85011 0
M  V30 7088 H 669.799 2.7451 -2.74912 0
M  V30 7089 H 671.471 0.842503 -4.53541 0
M  V30 7090 H 669.714 0.723939 -4.27717 0
M  V30 7091 H 670.385 2.14281 -5.08712 0
M  V30 7092 H 672.861 2.63148 -3.22323 0
M  V30 7093 H 671.737 3.80398 -3.95713 0
M  V30 7094 H 671.998 3.82309 -2.22018 0
M  V30 7095 N 671.057 1.43213 0.657864 0
M  V30 7096 C 672.473 1.26511 0.972992 0
M  V30 7097 C 672.673 0.181477 2.00681 0
M  V30 7098 O 671.729 -0.441649 2.48608 0
M  V30 7099 C 673.042 2.62784 1.46168 0
M  V30 7100 C 674.59 2.70278 1.57857 0
M  V30 7101 C 675.065 4.06958 2.10117 0
M  V30 7102 N 676.556 4.08999 2.17426 0
M  V30 7103 C 677.291 5.11585 2.58975 0
M  V30 7104 N 676.787 6.24548 2.99853 0
M  V30 7105 N 678.58 4.9894 2.58873 0
M  V30 7106 H 670.731 2.12384 -0.0263129 0
M  V30 7107 H 672.994 0.946638 0.0507992 0
M  V30 7108 H 672.7 3.43022 0.776474 0
M  V30 7109 H 672.574 2.87863 2.43751 0
M  V30 7110 H 674.961 1.90376 2.25479 0
M  V30 7111 H 675.042 2.4897 0.587179 0
M  V30 7112 H 674.686 4.87325 1.43098 0
M  V30 7113 H 674.616 4.25628 3.10078 0
M  V30 7114 H 677.107 3.27457 1.88627 0
M  V30 7115 H 677.42 6.98661 3.30292 0
M  V30 7116 H 675.765 6.28027 2.97669 0
M  V30 7117 H 678.956 4.09757 2.26311 0
M  V30 7118 H 679.129 5.79019 2.90932 0
M  V30 7119 N 672.536 -0.895792 1.29666 0
M  V30 7120 C 673.761 -1.68528 1.20885 0
M  V30 7121 C 674.186 -1.8673 -0.226595 0
M  V30 7122 O 673.544 -1.39044 -1.16347 0
M  V30 7123 C 673.592 -3.04512 1.93144 0
M  V30 7124 O 672.696 -3.92963 1.25115 0
M  V30 7125 H 672.037 -0.515371 0.418675 0
M  V30 7126 H 674.567 -1.11878 1.71302 0
M  V30 7127 H 674.577 -3.54628 2.0175 0
M  V30 7128 H 673.252 -2.90582 2.97548 0
M  V30 7129 H 671.829 -3.51399 1.24794 0
M  V30 7130 N 674.014 -1.12206 -1.10668 0
M  V30 7131 C 675.26 -0.877172 -1.82848 0
M  V30 7132 C 675.593 0.595571 -1.84842 0
M  V30 7133 O 674.868 1.44013 -1.30731 0
M  V30 7134 C 675.151 -1.44957 -3.29635 0
M  V30 7135 C 675.004 -2.99051 -3.35989 0
M  V30 7136 C 676.323 -1.10714 -4.25946 0
M  V30 7137 H 673.442 -0.320103 -0.663854 0
M  V30 7138 H 676.084 -1.38827 -1.2972 0
M  V30 7139 H 674.234 -1.01488 -3.7501 0
M  V30 7140 H 675.906 -3.51182 -2.99113 0
M  V30 7141 H 674.149 -3.34705 -2.75962 0
M  V30 7142 H 674.82 -3.34194 -4.39339 0
M  V30 7143 H 677.296 -1.48254 -3.88793 0
M  V30 7144 H 676.172 -1.5343 -5.2702 0
M  V30 7145 H 676.433 -0.019 -4.42096 0
M  V30 7146 N 675.492 1.28418 -0.913599 0
M  V30 7147 C 676.74 1.94596 -0.545594 0
M  V30 7148 C 677.061 1.7227 0.913668 0
M  V30 7149 O 676.331 1.06233 1.64595 0
M  V30 7150 H 674.911 0.720065 -0.198783 0
M  V30 7151 H 677.573 1.56404 -1.16292 0
M  V30 7152 H 676.669 3.03202 -0.739911 0
M  V30 7153 N 676.97 0.677563 1.42291 0
M  V30 7154 C 678.216 0.201272 2.01799 0
M  V30 7155 C 678.549 -1.19004 1.53465 0
M  V30 7156 O 677.824 -1.79953 0.738039 0
M  V30 7157 C 678.107 0.238968 3.59306 0
M  V30 7158 C 677.96 1.66594 4.17812 0
M  V30 7159 C 679.279 -0.411287 4.38174 0
M  V30 7160 H 676.398 0.0746114 0.733214 0
M  V30 7161 H 679.04 0.862872 1.69276 0
M  V30 7162 H 677.19 -0.324368 3.87144 0
M  V30 7163 H 678.862 2.28173 4.00917 0
M  V30 7164 H 677.105 2.20576 3.73536 0
M  V30 7165 H 677.776 1.64398 5.26951 0
M  V30 7166 H 680.252 0.0682804 4.16044 0
M  V30 7167 H 679.128 -0.354286 5.47755 0
M  V30 7168 H 679.389 -1.4893 4.1626 0
M  V30 7169 N 678.448 -1.51871 0.421078 0
M  V30 7170 C 679.381 -2.23851 -0.443369 0
M  V30 7171 C 680.359 -1.25142 -1.03818 0
M  V30 7172 O 681.543 -1.5423 -1.08377 0
M  V30 7173 C 678.67 -2.97637 -1.61648 0
M  V30 7174 C 677.716 -4.10873 -1.14391 0
M  V30 7175 S 678.549 -5.35408 -0.0992403 0
M  V30 7176 C 679.705 -6.12726 -1.27739 0
M  V30 7177 H 679.938 -2.96826 0.167786 0
M  V30 7178 H 677.471 -1.53027 0.205461 0
M  V30 7179 H 679.429 -3.40751 -2.28909 0
M  V30 7180 H 678.09 -2.24282 -2.199 0
M  V30 7181 H 677.283 -4.61718 -2.02069 0
M  V30 7182 H 676.885 -3.69937 -0.549775 0
M  V30 7183 H 679.177 -6.40827 -2.19881 0
M  V30 7184 H 680.12 -7.03461 -0.809239 0
M  V30 7185 H 680.528 -5.43968 -1.5086 0
M  V30 7186 N 679.926 -0.151884 -1.56866 0
M  V30 7187 C 681.174 0.497021 -1.95893 0
M  V30 7188 C 681.495 1.65078 -1.03799 0
M  V30 7189 O 680.765 1.95642 -0.10049 0
M  V30 7190 H 679.345 0.186603 -0.723318 0
M  V30 7191 H 682.007 -0.228525 -1.93556 0
M  V30 7192 H 681.103 0.869933 -2.99731 0
M  V30 7193 N 681.404 1.57128 0.121893 0
M  V30 7194 C 682.681 1.75664 0.860327 0
M  V30 7195 C 683.061 0.726585 1.98202 0
M  V30 7196 O 682.409 -0.24999 2.27128 0
M  V30 7197 C 682.619 3.20571 1.37968 0
M  V30 7198 C 683.967 3.82988 1.83317 0
M  V30 7199 O 684.991 3.24156 1.47654 0
M  V30 7200 O 683.85 4.86393 2.49168 0
M  V30 7201 H 680.944 0.719153 0.408348 0
M  V30 7202 H 683.49 1.6937 0.105859 0
M  V30 7203 H 682.262 3.87056 0.57477 0
M  V30 7204 H 681.885 3.31392 2.19694 0
M  V30 7205 N 682.882 -0.391992 1.52647 0
M  V30 7206 C 684.13 -1.13507 1.67214 0
M  V30 7207 C 684.451 -1.90575 0.41304 0
M  V30 7208 O 683.721 -1.87348 -0.572498 0
M  V30 7209 H 682.301 -0.422013 0.616372 0
M  V30 7210 H 684.963 -0.44502 1.89751 0
M  V30 7211 H 684.059 -1.83964 2.52118 0
M  V30 7212 N 684.36 -1.4356 -0.65026 0
M  V30 7213 C 685.776 -1.27025 -0.966269 0
M  V30 7214 C 685.976 -0.192117 -2.00582 0
M  V30 7215 O 685.032 0.428459 -2.48838 0
M  V30 7216 C 686.345 -2.63556 -1.44772 0
M  V30 7217 C 687.893 -2.71111 -1.56421 0
M  V30 7218 C 688.368 -4.08067 -2.07956 0
M  V30 7219 N 689.859 -4.10146 -2.15254 0
M  V30 7220 C 690.594 -5.12952 -2.56258 0
M  V30 7221 N 690.09 -6.26129 -2.96537 0
M  V30 7222 N 691.883 -5.00306 -2.56224 0
M  V30 7223 H 684.034 -2.12367 0.0375758 0
M  V30 7224 H 686.297 -0.946894 -0.0457782 0
M  V30 7225 H 686.003 -3.43429 -0.758271 0
M  V30 7226 H 685.877 -2.89152 -2.42221 0
M  V30 7227 H 688.264 -1.91569 -2.24467 0
M  V30 7228 H 688.345 -2.49277 -0.573967 0
M  V30 7229 H 687.989 -4.88077 -1.40511 0
M  V30 7230 H 687.919 -4.27266 -3.07817 0
M  V30 7231 H 690.41 -3.28453 -1.86887 0
M  V30 7232 H 690.723 -7.00403 -3.26582 0
M  V30 7233 H 689.068 -6.29597 -2.94334 0
M  V30 7234 H 692.259 -4.10952 -2.24135 0
M  V30 7235 H 692.432 -5.80553 -2.87857 0
M  V30 7236 N 685.838 0.888903 -1.30139 0
M  V30 7237 C 686.785 1.99422 -1.16188 0
M  V30 7238 C 687.755 1.66017 -0.0523869 0
M  V30 7239 O 688.94 1.89506 -0.221864 0
M  V30 7240 C 686.08 3.34325 -0.855612 0
M  V30 7241 C 685.193 3.80445 -2.0466 0
M  V30 7242 C 684.328 5.03975 -1.67876 0
M  V30 7243 C 683.367 5.42492 -2.83493 0
M  V30 7244 N 682.504 6.57206 -2.47032 0
M  V30 7245 H 687.344 2.10687 -2.10749 0
M  V30 7246 H 684.881 1.03165 -1.04859 0
M  V30 7247 H 686.839 4.11968 -0.658681 0
M  V30 7248 H 685.469 3.22756 0.0531155 0
M  V30 7249 H 684.521 2.98745 -2.3549 0
M  V30 7250 H 685.833 4.04933 -2.91257 0
M  V30 7251 H 684.987 5.89232 -1.44535 0
M  V30 7252 H 683.726 4.8135 -0.784431 0
M  V30 7253 H 682.731 4.55764 -3.07505 0
M  V30 7254 H 683.956 5.67093 -3.73607 0
M  V30 7255 H 681.902 6.36164 -1.601 0
M  V30 7256 H 681.819 6.81543 -3.27161 0
M  V30 7257 H 683.087 7.45704 -2.27038 0
M  V30 7258 N 687.317 1.12792 1.10072 0
M  V30 7259 C 688.547 0.907189 1.85617 0
M  V30 7260 C 688.955 -0.547181 1.81115 0
M  V30 7261 O 688.298 -1.39024 1.20075 0
M  V30 7262 C 688.36 1.30872 3.34832 0
M  V30 7263 C 688.024 2.77516 3.6309 0
M  V30 7264 C 689.021 3.75696 3.59373 0
M  V30 7265 C 686.706 3.14513 3.91646 0
M  V30 7266 C 688.7 5.08888 3.83812 0
M  V30 7267 C 686.387 4.47886 4.15742 0
M  V30 7268 C 687.385 5.44882 4.11816 0
M  V30 7269 O 687.073 6.7585 4.35295 0
M  V30 7270 H 686.805 0.323855 0.593375 0
M  V30 7271 H 689.359 1.50262 1.40038 0
M  V30 7272 H 687.589 0.656518 3.81086 0
M  V30 7273 H 689.278 1.06153 3.91773 0
M  V30 7274 H 690.044 3.48458 3.37345 0
M  V30 7275 H 685.923 2.39622 3.93831 0
M  V30 7276 H 689.467 5.84586 3.80663 0
M  V30 7277 H 685.364 4.74851 4.37249 0
M  V30 7278 H 686.132 6.81853 4.52791 0
M  V30 7279 N 688.795 -1.27931 0.920396 0
M  V30 7280 C 690.072 -1.89728 0.475687 0
M  V30 7281 C 690.452 -1.8337 -1.04588 0
M  V30 7282 O 689.8 -1.27404 -1.89685 0
M  V30 7283 C 690.01 -3.33959 1.01354 0
M  V30 7284 C 691.358 -4.10907 1.06963 0
M  V30 7285 O 692.382 -3.42945 0.962646 0
M  V30 7286 O 691.241 -5.32399 1.23343 0
M  V30 7287 H 688.335 -0.81294 0.151845 0
M  V30 7288 H 690.881 -1.36252 1.01161 0
M  V30 7289 H 689.653 -3.32843 2.05746 0
M  V30 7290 H 689.276 -3.94944 0.458829 0
M  V30 7291 N 690.273 -0.685099 -1.4193 0
M  V30 7292 C 691.519 -0.220688 -2.02199 0
M  V30 7293 C 691.874 1.16329 -1.5325 0
M  V30 7294 O 691.167 1.77175 -0.729345 0
M  V30 7295 C 691.361 -0.206154 -3.56805 0
M  V30 7296 C 691.19 -1.58718 -4.2076 0
M  V30 7297 C 689.96 -2.18747 -4.55497 0
M  V30 7298 C 692.158 -2.53182 -4.47664 0
M  V30 7299 N 690.14 -3.49523 -5.04685 0
M  V30 7300 C 691.511 -3.68625 -4.98514 0
M  V30 7301 C 693.566 -2.51582 -4.29664 0
M  V30 7302 C 692.269 -4.82734 -5.33255 0
M  V30 7303 C 694.295 -3.64795 -4.65487 0
M  V30 7304 C 693.657 -4.78967 -5.16498 0
M  V30 7305 H 689.756 -0.12591 -0.771797 0
M  V30 7306 H 692.34 -0.900316 -1.72634 0
M  V30 7307 H 690.511 0.442923 -3.85866 0
M  V30 7308 H 692.243 0.272103 -4.03784 0
M  V30 7309 H 688.998 -1.71135 -4.41599 0
M  V30 7310 H 689.422 -4.1653 -5.33696 0
M  V30 7311 H 694.064 -1.64535 -3.89472 0
M  V30 7312 H 691.782 -5.7045 -5.72375 0
M  V30 7313 H 695.368 -3.64796 -4.53227 0
M  V30 7314 H 694.248 -5.6512 -5.437 0
M  V30 7315 N 691.751 1.51645 -0.429126 0
M  V30 7316 C 692.997 2.02314 0.140286 0
M  V30 7317 C 693.33 1.31314 1.43074 0
M  V30 7318 O 692.605 0.425531 1.89788 0
M  V30 7319 C 692.888 3.5822 0.36749 0
M  V30 7320 C 692.741 4.39846 -0.941039 0
M  V30 7321 C 694.06 4.25055 1.14089 0
M  V30 7322 H 691.179 0.735335 0.0495112 0
M  V30 7323 H 693.821 1.81358 -0.566514 0
M  V30 7324 H 691.971 3.76207 0.969556 0
M  V30 7325 H 693.643 4.33527 -1.57646 0
M  V30 7326 H 691.886 4.05259 -1.54751 0
M  V30 7327 H 692.557 5.47069 -0.73621 0
M  V30 7328 H 695.033 4.11288 0.630986 0
M  V30 7329 H 693.909 5.34038 1.26863 0
M  V30 7330 H 694.17 3.85358 2.16683 0
M  V30 7331 N 693.229 0.160201 1.56784 0
M  V30 7332 C 694.475 -0.48831 1.96833 0
M  V30 7333 C 694.808 -1.63641 1.04571 0
M  V30 7334 O 694.083 -1.94289 0.0906481 0
M  V30 7335 C 694.366 -0.981908 3.46454 0
M  V30 7336 C 694.219 0.165607 4.49495 0
M  V30 7337 C 695.538 -1.85931 3.98896 0
M  V30 7338 H 692.657 -0.176027 0.71567 0
M  V30 7339 H 695.299 0.244093 1.88426 0
M  V30 7340 H 693.449 -1.60602 3.5375 0
M  V30 7341 H 695.121 0.802372 4.54268 0
M  V30 7342 H 693.364 0.822789 4.25926 0
M  V30 7343 H 694.035 -0.221699 5.51555 0
M  V30 7344 H 696.511 -1.33327 3.94161 0
M  V30 7345 H 695.387 -2.17373 5.04024 0
M  V30 7346 H 695.648 -2.80106 3.42042 0
M  V30 7347 N 694.707 -1.5719 -0.113559 0
M  V30 7348 C 695.932 -1.89702 -0.838336 0
M  V30 7349 C 696.357 -0.752679 -1.72384 0
M  V30 7350 O 695.715 0.296575 -1.78858 0
M  V30 7351 C 695.763 -3.20989 -1.64312 0
M  V30 7352 O 694.867 -3.07278 -2.75053 0
M  V30 7353 H 694.208 -0.622339 -0.231496 0
M  V30 7354 H 696.738 -2.04382 -0.0943228 0
M  V30 7355 H 696.748 -3.53843 -2.03123 0
M  V30 7356 H 695.423 -4.03869 -0.993119 0
M  V30 7357 H 694 -2.85901 -2.39406 0
M  V30 7358 N 696.185 0.383891 -1.52853 0
M  V30 7359 C 697.115 1.47559 -1.80965 0
M  V30 7360 C 698.096 1.5669 -0.661986 0
M  V30 7361 O 699.281 1.71556 -0.910072 0
M  V30 7362 C 696.411 2.85114 -1.98312 0
M  V30 7363 C 695.365 2.9082 -3.14019 0
M  V30 7364 C 694.691 4.30873 -3.16627 0
M  V30 7365 C 695.991 2.60001 -4.52986 0
M  V30 7366 H 697.685 1.24283 -2.72386 0
M  V30 7367 H 695.231 0.596445 -1.31067 0
M  V30 7368 H 697.184 3.61496 -2.16561 0
M  V30 7369 H 695.908 3.09738 -1.03585 0
M  V30 7370 H 694.567 2.16886 -2.9556 0
M  V30 7371 H 694.215 4.52545 -2.19573 0
M  V30 7372 H 693.915 4.3561 -3.94357 0
M  V30 7373 H 695.439 5.09154 -3.37038 0
M  V30 7374 H 696.853 3.261 -4.71521 0
M  V30 7375 H 695.25 2.76081 -5.32822 0
M  V30 7376 H 696.32 1.5532 -4.59351 0
M  V30 7377 N 697.663 1.43903 0.642637 0
M  V30 7378 C 699.079 1.27536 0.959519 0
M  V30 7379 C 699.279 0.202751 2.00477 0
M  V30 7380 O 698.335 -0.415256 2.49062 0
M  V30 7381 C 699.648 2.6432 1.43372 0
M  V30 7382 C 701.196 2.71937 1.54981 0
M  V30 7383 C 701.671 4.09164 2.05789 0
M  V30 7384 N 703.162 4.11282 2.13076 0
M  V30 7385 C 703.897 5.14303 2.53534 0
M  V30 7386 N 703.393 6.27693 2.93212 0
M  V30 7387 N 705.186 5.01657 2.53567 0
M  V30 7388 H 697.337 2.12344 -0.0488376 0
M  V30 7389 H 699.6 0.947124 0.0407559 0
M  V30 7390 H 699.306 3.43826 0.740048 0
M  V30 7391 H 699.18 2.90432 2.40685 0
M  V30 7392 H 701.567 1.92757 2.23448 0
M  V30 7393 H 701.648 2.49578 0.560739 0
M  V30 7394 H 701.292 4.88815 1.37921 0
M  V30 7395 H 701.222 4.28893 3.05546 0
M  V30 7396 H 703.713 3.2944 1.85143 0
M  V30 7397 H 704.026 7.02125 3.22863 0
M  V30 7398 H 702.371 6.31149 2.90991 0
M  V30 7399 H 705.562 4.12134 2.21952 0
M  V30 7400 H 705.735 5.82072 2.84774 0
M  V30 7401 N 699.141 -0.881989 1.30609 0
M  V30 7402 C 700.104 -1.96957 1.1722 0
M  V30 7403 C 701.104 -1.60472 0.102598 0
M  V30 7404 O 702.294 -1.70628 0.350943 0
M  V30 7405 C 699.426 -3.31463 0.796572 0
M  V30 7406 H 700.619 -2.10262 2.13846 0
M  V30 7407 H 698.172 -1.06877 1.14048 0
M  V30 7408 H 698.907 -3.23859 -0.169053 0
M  V30 7409 H 698.692 -3.59314 1.56959 0
M  V30 7410 H 700.182 -4.11233 0.72645 0
M  V30 7411 N 700.619 -1.13374 -1.09472 0
M  V30 7412 C 701.865 -0.896516 -1.81908 0
M  V30 7413 C 702.198 0.575933 -1.85463 0
M  V30 7414 O 701.473 1.42618 -1.32251 0
M  V30 7415 C 701.756 -1.48445 -3.28079 0
M  V30 7416 C 701.609 -3.02598 -3.32798 0
M  V30 7417 C 702.928 -1.15226 -4.24748 0
M  V30 7418 H 700.047 -0.327127 -0.660422 0
M  V30 7419 H 702.689 -1.40195 -1.2824 0
M  V30 7420 H 700.839 -1.0546 -3.73912 0
M  V30 7421 H 702.511 -3.54335 -2.95372 0
M  V30 7422 H 700.754 -3.37613 -2.72397 0
M  V30 7423 H 701.425 -3.38835 -4.3577 0
M  V30 7424 H 703.901 -1.52369 -3.87199 0
M  V30 7425 H 702.777 -1.59012 -5.25363 0
M  V30 7426 H 703.038 -0.0658891 -4.42051 0
M  V30 7427 N 702.098 1.27442 -0.927168 0
M  V30 7428 C 703.008 2.30599 -0.431448 0
M  V30 7429 C 704.024 1.67028 0.48761 0
M  V30 7430 O 705.2 1.97962 0.370546 0
M  V30 7431 C 702.265 3.45327 0.308292 0
M  V30 7432 C 701.326 4.24418 -0.645615 0
M  V30 7433 C 700.559 5.33667 0.0589164 0
M  V30 7434 O 700.782 5.5589 1.27838 0
M  V30 7435 O 699.716 5.98774 -0.612638 0
M  V30 7436 H 703.542 2.75036 -1.28797 0
M  V30 7437 H 701.127 1.32382 -0.692495 0
M  V30 7438 H 703.009 4.15107 0.725555 0
M  V30 7439 H 701.684 3.02945 1.14043 0
M  V30 7440 H 700.591 3.57174 -1.11255 0
M  V30 7441 H 701.924 4.70512 -1.44496 0
M  V30 7442 N 703.576 0.692616 1.41565 0
M  V30 7443 C 704.804 0.231279 2.05603 0
M  V30 7444 C 705.219 -1.11837 1.52111 0
M  V30 7445 O 704.576 -1.6983 0.66813 0
M  V30 7446 C 704.627 0.177125 3.61066 0
M  V30 7447 O 704.348 1.47346 4.12578 0
M  V30 7448 C 705.849 -0.30556 4.42246 0
M  V30 7449 H 703.069 0.108238 0.662213 0
M  V30 7450 H 705.613 0.944369 1.81389 0
M  V30 7451 H 703.768 -0.486769 3.8433 0
M  V30 7452 H 704.182 1.35861 5.06599 0
M  V30 7453 H 705.656 -0.29233 5.51225 0
M  V30 7454 H 706.133 -1.34393 4.18133 0
M  V30 7455 H 706.739 0.327229 4.24039 0
M  V30 7456 N 705.054 -1.51416 0.437162 0
M  V30 7457 C 706.303 -2.01275 -0.130865 0
M  V30 7458 C 706.616 -1.32593 -1.438 0
M  V30 7459 O 707.822 -1.7342 -2.08897 0
M  V30 7460 C 706.278 -3.5878 -0.283763 0
M  V30 7461 C 705.886 -4.36399 1.01293 0
M  V30 7462 C 707.63 -4.16786 -0.805569 0
M  V30 7463 C 705.537 -5.85608 0.825687 0
M  V30 7464 H 704.467 -0.752157 -0.0526818 0
M  V30 7465 H 707.118 -1.74524 0.566896 0
M  V30 7466 H 705.5 -3.81976 -1.04452 0
M  V30 7467 H 706.674 -4.24948 1.78201 0
M  V30 7468 H 704.989 -3.89843 1.46326 0
M  V30 7469 H 707.586 -5.25972 -0.962146 0
M  V30 7470 H 707.929 -3.75949 -1.78796 0
M  V30 7471 H 708.462 -3.97666 -0.103125 0
M  V30 7472 H 705.201 -6.30857 1.78045 0
M  V30 7473 H 704.721 -5.99723 0.0964029 0
M  V30 7474 H 706.4 -6.45226 0.478815 0
M  V30 7475 N 706.532 -0.168513 -1.56696 0
M  V30 7476 C 707.809 0.523367 -1.88468 0
M  V30 7477 C 708.189 1.81503 -1.07796 0
M  V30 7478 O 707.537 2.27859 -0.171045 0
M  V30 7479 C 707.747 0.767991 -3.40445 0
M  V30 7480 C 709.095 1.09924 -4.10124 0
M  V30 7481 O 710.119 0.856625 -3.45746 0
M  V30 7482 O 708.978 1.55681 -5.23856 0
M  V30 7483 H 706.072 0.269447 -0.781874 0
M  V30 7484 H 708.618 -0.206739 -1.68436 0
M  V30 7485 H 707.39 -0.145254 -3.9103 0
M  V30 7486 H 707.013 1.55151 -3.66079 0
M  V30 7487 N 708.01 1.57248 0.105221 0
M  V30 7488 C 709.257 1.8557 0.810552 0
M  V30 7489 C 709.585 0.755595 1.79223 0
M  V30 7490 O 708.84 -0.251788 1.94073 0
M  V30 7491 C 709.139 3.20437 1.58287 0
M  V30 7492 C 708.805 4.44716 0.744235 0
M  V30 7493 C 707.467 4.78458 0.513013 0
M  V30 7494 C 709.819 5.20953 0.160578 0
M  V30 7495 C 707.147 5.8587 -0.311894 0
M  V30 7496 C 709.499 6.29235 -0.651596 0
M  V30 7497 C 708.163 6.615 -0.893005 0
M  V30 7498 H 707.433 0.67905 0.296602 0
M  V30 7499 H 710.08 1.91363 0.0723968 0
M  V30 7500 H 708.385 3.10283 2.39232 0
M  V30 7501 H 710.082 3.39576 2.13282 0
M  V30 7502 H 706.672 4.18287 0.934555 0
M  V30 7503 H 710.856 4.95226 0.3264 0
M  V30 7504 H 706.112 6.09286 -0.508012 0
M  V30 7505 H 710.286 6.87484 -1.11077 0
M  V30 7506 H 707.913 7.44562 -1.53401 0
M  V30 7507 N 709.488 -0.375779 1.53054 0
M  V30 7508 C 710.421 -1.48187 1.7354 0
M  V30 7509 C 711.399 -1.5177 0.583495 0
M  V30 7510 O 712.583 -1.69976 0.81488 0
M  V30 7511 C 709.71 -2.86598 1.80497 0
M  V30 7512 C 708.756 -3.00784 3.02376 0
M  V30 7513 S 709.589 -2.70601 4.62099 0
M  V30 7514 C 710.745 -4.11181 4.71891 0
M  V30 7515 H 710.978 -1.30587 2.67085 0
M  V30 7516 H 708.511 -0.569485 1.43514 0
M  V30 7517 H 710.469 -3.66353 1.85192 0
M  V30 7518 H 709.13 -3.01514 0.880217 0
M  V30 7519 H 708.323 -4.02128 3.03824 0
M  V30 7520 H 707.925 -2.28939 2.95742 0
M  V30 7521 H 710.217 -5.0529 4.51319 0
M  V30 7522 H 711.16 -4.14742 5.73929 0
M  V30 7523 H 711.568 -3.97706 4.00612 0
M  V30 7524 N 710.966 -1.44241 -0.634997 0
M  V30 7525 C 712.194 -1.50296 -1.42193 0
M  V30 7526 C 712.609 -0.12658 -1.88375 0
M  V30 7527 O 711.966 0.86678 -1.60603 0
M  V30 7528 C 712.017 -2.46437 -2.64482 0
M  V30 7529 O 711.738 -3.78724 -2.20226 0
M  V30 7530 C 713.239 -2.61918 -3.57651 0
M  V30 7531 H 710.459 -0.509865 -0.43621 0
M  V30 7532 H 713.003 -1.89167 -0.776921 0
M  V30 7533 H 711.158 -2.10712 -3.25083 0
M  V30 7534 H 711.572 -4.30595 -2.9948 0
M  V30 7535 H 713.046 -3.33225 -4.40074 0
M  V30 7536 H 713.523 -1.67017 -4.06204 0
M  V30 7537 H 714.129 -2.98528 -3.02921 0
M  V30 7538 N 712.444 0.87505 -1.31075 0
M  V30 7539 C 713.407 1.96333 -1.18263 0
M  V30 7540 C 714.407 1.60416 -0.111106 0
M  V30 7541 O 715.597 1.7044 -0.359987 0
M  V30 7542 C 712.729 3.31036 -0.81414 0
M  V30 7543 H 713.922 2.09125 -2.14958 0
M  V30 7544 H 711.475 1.06271 -1.14614 0
M  V30 7545 H 712.21 3.23944 0.151875 0
M  V30 7546 H 711.995 3.58476 -1.58862 0
M  V30 7547 H 713.485 4.10842 -0.748249 0
M  V30 7548 N 713.922 1.13953 1.08869 0
M  V30 7549 C 714.872 0.790812 2.13846 0
M  V30 7550 C 715.856 -0.217819 1.59419 0
M  V30 7551 O 717.048 -0.0208723 1.76988 0
M  V30 7552 C 714.177 0.26479 3.42277 0
M  V30 7553 C 713.263 1.30267 4.03598 0
M  V30 7554 N 713.654 2.50535 4.39393 0
M  V30 7555 C 711.952 1.15178 4.30871 0
M  V30 7556 C 712.653 3.16938 4.87776 0
M  V30 7557 N 711.629 2.44349 4.85587 0
M  V30 7558 H 715.431 1.70577 2.39334 0
M  V30 7559 H 712.945 1.02268 1.26154 0
M  V30 7560 H 714.942 -0.00330398 4.169 0
M  V30 7561 H 713.602 -0.644419 3.18241 0
M  V30 7562 H 714.613 2.87798 4.30572 0
M  V30 7563 H 711.29 0.301204 4.16412 0
M  V30 7564 H 712.68 4.19453 5.2489 0
M  V30 7565 N 715.4 -1.26948 0.933913 0
M  V30 7566 C 716.646 -1.94716 0.587985 0
M  V30 7567 C 717.001 -1.71994 -0.862312 0
M  V30 7568 O 716.294 -1.04208 -1.60783 0
M  V30 7569 C 716.488 -3.46963 0.857406 0
M  V30 7570 C 716.317 -3.84489 2.33234 0
M  V30 7571 C 715.087 -4.07621 2.98618 0
M  V30 7572 C 717.285 -3.93602 3.31031 0
M  V30 7573 N 715.267 -4.31976 4.362 0
M  V30 7574 C 716.638 -4.22404 4.53845 0
M  V30 7575 C 718.693 -3.76201 3.26155 0
M  V30 7576 C 717.396 -4.35615 5.72391 0
M  V30 7577 C 719.422 -3.90641 4.4402 0
M  V30 7578 C 718.784 -4.19835 5.65613 0
M  V30 7579 H 714.883 -0.735586 0.2654 0
M  V30 7580 H 717.467 -1.53181 1.20182 0
M  V30 7581 H 715.638 -3.87442 0.27268 0
M  V30 7582 H 717.37 -4.01921 0.47348 0
M  V30 7583 H 714.125 -4.02696 2.49264 0
M  V30 7584 H 714.549 -4.48199 5.07392 0
M  V30 7585 H 719.191 -3.52665 2.3321 0
M  V30 7586 H 716.909 -4.57975 6.65796 0
M  V30 7587 H 720.495 -3.78589 4.41771 0
M  V30 7588 H 719.375 -4.30765 6.55295 0
M  V30 7589 N 716.879 -0.700114 -1.41195 0
M  V30 7590 C 717.842 -0.0465706 -2.29153 0
M  V30 7591 C 718.842 0.703302 -1.44604 0
M  V30 7592 O 720.032 0.537513 -1.657 0
M  V30 7593 C 717.164 0.944324 -3.2756 0
M  V30 7594 H 718.357 -0.821064 -2.88442 0
M  V30 7595 H 715.91 -0.463869 -1.49258 0
M  V30 7596 H 716.645 1.74642 -2.73259 0
M  V30 7597 H 716.43 0.409701 -3.89954 0
M  V30 7598 H 717.92 1.39925 -3.9346 0
M  V30 7599 N 718.357 1.51182 -0.445186 0
M  V30 7600 C 719.307 2.24804 0.380394 0
M  V30 7601 C 720.291 1.27344 0.983482 0
M  V30 7602 O 721.483 1.52392 0.900322 0
M  V30 7603 C 718.612 3.09922 1.4766 0
M  V30 7604 C 717.698 4.14816 0.882517 0
M  V30 7605 N 718.089 5.05797 0.0183278 0
M  V30 7606 C 716.387 4.30938 1.14927 0
M  V30 7607 C 717.088 5.8084 -0.316152 0
M  V30 7608 N 716.064 5.42759 0.302214 0
M  V30 7609 H 719.866 2.92508 -0.285737 0
M  V30 7610 H 717.38 1.60342 -0.257733 0
M  V30 7611 H 719.377 3.61249 2.08098 0
M  V30 7612 H 718.037 2.43763 2.14498 0
M  V30 7613 H 719.048 5.16725 -0.348679 0
M  V30 7614 H 715.725 3.76005 1.81457 0
M  V30 7615 H 717.115 6.64115 -1.01986 0
M  V30 7616 N 719.835 0.176821 1.56605 0
M  V30 7617 C 720.765 -0.746841 2.21234 0
M  V30 7618 C 721.746 -1.23502 1.16967 0
M  V30 7619 O 722.931 -1.28718 1.45414 0
M  V30 7620 C 720.061 -1.97407 2.8574 0
M  V30 7621 C 719.015 -1.62153 3.96094 0
M  V30 7622 C 718.341 -2.92387 4.47676 0
M  V30 7623 C 719.641 -0.845353 5.15413 0
M  V30 7624 H 721.335 -0.208116 2.98676 0
M  V30 7625 H 718.881 -0.0986594 1.43662 0
M  V30 7626 H 720.834 -2.62531 3.2963 0
M  V30 7627 H 719.558 -2.53703 2.05676 0
M  V30 7628 H 718.217 -0.993964 3.52868 0
M  V30 7629 H 717.865 -3.46734 3.64396 0
M  V30 7630 H 717.565 -2.69551 5.22127 0
M  V30 7631 H 719.089 -3.5853 4.94255 0
M  V30 7632 H 720.503 -1.39929 5.55961 0
M  V30 7633 H 718.9 -0.715814 5.95815 0
M  V30 7634 H 719.97 0.157239 4.84645 0
M  V30 7635 N 721.313 -1.57302 -0.09688 0
M  V30 7636 C 722.724 -1.7496 -0.651595 0
M  V30 7637 C 723.075 -0.798746 -1.79205 0
M  V30 7638 O 722.2 0.0231858 -2.16388 0
M  V30 7639 C 722.795 -3.17259 -1.18878 0
M  V30 7640 C 721.354 -3.36348 -1.68958 0
M  V30 7641 C 720.501 -2.70766 -0.598413 0
M  V30 7642 H 723.452 -1.58173 0.12918 0
M  V30 7643 H 723.473 -3.20033 -2.05814 0
M  V30 7644 H 722.985 -3.8644 -0.358523 0
M  V30 7645 H 721.086 -2.72243 -2.5439 0
M  V30 7646 H 721.199 -4.44654 -1.7838 0
M  V30 7647 H 719.563 -2.32615 -1.03743 0
M  V30 7648 H 720.346 -3.42586 0.221238 0
M  V30 7649 N 722.791 0.367657 -1.53252 0
M  V30 7650 C 724.021 1.12955 -1.72988 0
M  V30 7651 C 724.429 1.8358 -0.457708 0
M  V30 7652 O 723.772 1.74336 0.579006 0
M  V30 7653 C 723.834 2.20545 -2.83902 0
M  V30 7654 C 723.498 1.69704 -4.24323 0
M  V30 7655 C 724.495 1.16223 -5.06743 0
M  V30 7656 C 722.18 1.7528 -4.70725 0
M  V30 7657 C 724.174 0.689935 -6.33655 0
M  V30 7658 C 721.861 1.27662 -5.97617 0
M  V30 7659 C 722.859 0.746083 -6.78913 0
M  V30 7660 O 722.547 0.276925 -8.03423 0
M  V30 7661 H 722.279 0.343753 -0.582074 0
M  V30 7662 H 724.833 0.433106 -2.00782 0
M  V30 7663 H 723.063 2.93676 -2.51577 0
M  V30 7664 H 724.752 2.82111 -2.91836 0
M  V30 7665 H 725.518 1.11256 -4.72067 0
M  V30 7666 H 721.397 2.15515 -4.07522 0
M  V30 7667 H 724.941 0.275164 -6.97057 0
M  V30 7668 H 720.838 1.32322 -6.31792 0
M  V30 7669 H 721.606 0.396445 -8.17539 0
M  V30 7670 N 724.269 1.44576 0.627338 0
M  V30 7671 C 725.546 1.38033 1.38586 0
M  V30 7672 C 725.926 0.0409468 2.1106 0
M  V30 7673 O 725.274 -0.976582 2.0658 0
M  V30 7674 C 725.484 2.58102 2.34913 0
M  V30 7675 C 726.832 3.02332 2.98129 0
M  V30 7676 O 727.856 2.58334 2.45238 0
M  V30 7677 O 726.715 3.78628 3.94085 0
M  V30 7678 H 723.809 0.546801 0.620434 0
M  V30 7679 H 726.355 1.56672 0.652077 0
M  V30 7680 H 725.127 3.4719 1.80485 0
M  V30 7681 H 724.75 2.41696 3.15703 0
M  V30 7682 N 725.747 -0.868086 1.31537 0
M  V30 7683 C 726.994 -1.62127 1.2133 0
M  V30 7684 C 727.322 -1.93158 -0.2281 0
M  V30 7685 O 726.577 -1.5632 -1.1774 0
M  V30 7686 C 726.876 -2.95889 2.0046 0
M  V30 7687 C 726.542 -2.84343 3.49943 0
M  V30 7688 C 725.204 -2.80901 3.90702 0
M  V30 7689 C 727.556 -2.71243 4.45058 0
M  V30 7690 C 724.884 -2.6222 5.24841 0
M  V30 7691 C 727.236 -2.54098 5.79325 0
M  V30 7692 C 725.9 -2.4904 6.19302 0
M  V30 7693 H 725.17 -0.593265 0.443979 0
M  V30 7694 H 727.817 -1.00803 1.62822 0
M  V30 7695 H 726.122 -3.61259 1.51655 0
M  V30 7696 H 727.819 -3.53161 1.89942 0
M  V30 7697 H 724.409 -2.8784 3.17563 0
M  V30 7698 H 728.593 -2.72956 4.14498 0
M  V30 7699 H 723.849 -2.56731 5.54887 0
M  V30 7700 H 728.023 -2.42938 6.52652 0
M  V30 7701 H 725.65 -2.34324 7.23185 0
M  V30 7702 N 727.225 -1.14528 -1.08264 0
M  V30 7703 C 728.155 -0.856356 -2.1723 0
M  V30 7704 C 729.136 0.189251 -1.69044 0
M  V30 7705 O 730.321 0.0456119 -1.94146 0
M  V30 7706 C 727.451 -0.334662 -3.45684 0
M  V30 7707 C 726.405 -1.31588 -4.0727 0
M  V30 7708 C 725.731 -0.653428 -5.30692 0
M  V30 7709 C 727.031 -2.67866 -4.48381 0
M  V30 7710 H 728.725 -1.76755 -2.41657 0
M  V30 7711 H 726.271 -0.851287 -1.16143 0
M  V30 7712 H 728.224 -0.120128 -4.21229 0
M  V30 7713 H 726.948 0.611967 -3.20815 0
M  V30 7714 H 725.607 -1.51661 -3.33758 0
M  V30 7715 H 725.255 0.299054 -5.0211 0
M  V30 7716 H 724.955 -1.30817 -5.72853 0
M  V30 7717 H 726.479 -0.448453 -6.08951 0
M  V30 7718 H 727.893 -2.51692 -5.15096 0
M  V30 7719 H 726.29 -3.29627 -5.01464 0
M  V30 7720 H 727.36 -3.24632 -3.60198 0
M  V30 7721 N 728.703 1.26451 -0.940633 0
M  V30 7722 C 729.951 1.93395 -0.586748 0
M  V30 7723 C 730.272 1.7417 0.876921 0
M  V30 7724 O 729.542 1.097 1.62304 0
M  V30 7725 H 728.122 0.715687 -0.214012 0
M  V30 7726 H 730.784 1.53902 -1.19584 0
M  V30 7727 H 729.88 3.01565 -0.804059 0
M  V30 7728 N 730.181 0.707592 1.40822 0
M  V30 7729 C 731.597 0.38034 1.55002 0
M  V30 7730 C 731.797 -1.11163 1.68062 0
M  V30 7731 O 730.853 -1.89761 1.66574 0
M  V30 7732 C 732.166 1.1394 2.78277 0
M  V30 7733 C 733.714 1.12492 2.92087 0
M  V30 7734 C 734.189 1.86597 4.18265 0
M  V30 7735 N 735.68 1.83626 4.25248 0
M  V30 7736 C 736.415 2.37794 5.21768 0
M  V30 7737 N 735.911 3.00485 6.24244 0
M  V30 7738 N 737.704 2.27982 5.13791 0
M  V30 7739 H 729.855 1.67511 1.3059 0
M  V30 7740 H 732.118 0.707579 0.630901 0
M  V30 7741 H 731.824 2.19398 2.74877 0
M  V30 7742 H 731.698 0.725793 3.70151 0
M  V30 7743 H 734.085 0.0785564 2.94995 0
M  V30 7744 H 734.166 1.57768 2.01353 0
M  V30 7745 H 733.81 2.91219 4.16118 0
M  V30 7746 H 733.74 1.38746 5.07993 0
M  V30 7747 H 736.231 1.3793 3.51829 0
M  V30 7748 H 736.544 3.39355 6.94304 0
M  V30 7749 H 734.889 3.04567 6.24711 0
M  V30 7750 H 738.08 1.78669 4.3266 0
M  V30 7751 H 738.253 2.70499 5.88841 0
M  V30 7752 N 731.66 -1.50943 0.453197 0
M  V30 7753 C 732.906 -2.02512 -0.108082 0
M  V30 7754 C 733.239 -1.33574 -1.40967 0
M  V30 7755 O 732.514 -0.455671 -1.89087 0
M  V30 7756 C 732.797 -3.58759 -0.310453 0
M  V30 7757 C 732.65 -4.38293 1.0109 0
M  V30 7758 C 733.969 -4.26816 -1.07313 0
M  V30 7759 H 731.088 -0.73603 -0.0378064 0
M  V30 7760 H 733.73 -1.80433 0.595295 0
M  V30 7761 H 731.88 -3.77702 -0.909582 0
M  V30 7762 H 733.552 -4.30964 1.64523 0
M  V30 7763 H 731.795 -4.02745 1.61179 0
M  V30 7764 H 732.466 -5.45828 0.82315 0
M  V30 7765 H 734.942 -4.1224 -0.565473 0
M  V30 7766 H 733.818 -5.35989 -1.1835 0
M  V30 7767 H 734.079 -3.88757 -2.10525 0
M  V30 7768 N 733.138 -0.185124 -1.56509 0
M  V30 7769 C 734.363 0.465278 -2.02114 0
M  V30 7770 C 734.788 1.55083 -1.06447 0
M  V30 7771 O 734.146 1.81241 -0.0462852 0
M  V30 7772 C 734.194 1.00784 -3.46229 0
M  V30 7773 O 733.298 2.12123 -3.53663 0
M  V30 7774 H 732.639 0.109891 -0.654843 0
M  V30 7775 H 735.169 -0.293072 -2.0249 0
M  V30 7776 H 735.179 1.32697 -3.85818 0
M  V30 7777 H 733.854 0.213113 -4.15354 0
M  V30 7778 H 732.431 1.8115 -3.25943 0
M  V30 7779 N 734.616 1.57351 0.0885366 0
M  V30 7780 C 735.564 2.03542 1.12576 0
M  V30 7781 C 736.558 0.937668 1.41082 0
M  V30 7782 O 737.764 1.12283 1.40686 0
M  V30 7783 H 734.139 0.648752 0.380296 0
M  V30 7784 H 736.11 2.89833 0.709906 0
M  V30 7785 C 734.859 2.4811 2.43591 0
M  V30 7786 H 734.182 3.32164 2.22502 0
M  V30 7787 H 735.622 2.842 3.14653 0
M  V30 7788 C 734.081 1.35708 3.08359 0
M  V30 7789 O 734.611 0.689852 3.95732 0
M  V30 7790 N 732.817 1.10641 2.68713 0
M  V30 7791 H 732.364 1.6508 1.97753 0
M  V30 7792 H 732.322 0.356355 3.12374 0
M  V30 7793 N 736.094 -0.359525 1.53444 0
M  V30 7794 C 737.51 -0.701599 1.43352 0
M  V30 7795 C 737.71 -1.93049 0.577439 0
M  V30 7796 O 736.766 -2.52423 0.0622224 0
M  V30 7797 C 738.079 -0.90915 2.86627 0
M  V30 7798 C 739.627 -1.00878 2.96298 0
M  V30 7799 C 740.102 -1.24876 4.40647 0
M  V30 7800 N 741.593 -1.31632 4.44103 0
M  V30 7801 C 742.328 -1.51922 5.52908 0
M  V30 7802 N 741.824 -1.69489 6.71748 0
M  V30 7803 N 743.617 -1.54341 5.40496 0
M  V30 7804 H 735.768 0.448685 2.07607 0
M  V30 7805 H 738.031 0.138713 0.937797 0
M  V30 7806 H 737.737 -0.0778997 3.51614 0
M  V30 7807 H 737.611 -1.81551 3.30634 0
M  V30 7808 H 739.998 -1.83057 2.31461 0
M  V30 7809 H 740.079 -0.0796721 2.55676 0
M  V30 7810 H 739.723 -0.431961 5.0606 0
M  V30 7811 H 739.653 -2.19118 4.78848 0
M  V30 7812 H 742.144 -1.19646 3.5846 0
M  V30 7813 H 742.457 -1.84561 7.50438 0
M  V30 7814 H 740.802 -1.66655 6.74723 0
M  V30 7815 H 743.993 -1.40188 4.46615 0
M  V30 7816 H 744.166 -1.69812 6.25354 0
M  V30 7817 N 737.572 -1.44907 -0.619662 0
M  V30 7818 C 738.821 -1.47569 -1.37501 0
M  V30 7819 C 739.134 -0.116707 -1.95252 0
M  V30 7820 O 740.34 -0.020909 -2.71492 0
M  V30 7821 C 738.796 -2.59851 -2.49009 0
M  V30 7822 C 738.404 -4.02008 -1.97722 0
M  V30 7823 C 740.148 -2.71746 -3.2612 0
M  V30 7824 C 738.055 -5.05693 -3.0664 0
M  V30 7825 H 736.985 -0.549068 -0.51676 0
M  V30 7826 H 739.636 -1.71009 -0.665437 0
M  V30 7827 H 738.018 -2.29671 -3.22594 0
M  V30 7828 H 739.192 -4.41809 -1.30925 0
M  V30 7829 H 737.507 -3.94456 -1.33392 0
M  V30 7830 H 740.104 -3.46382 -4.07337 0
M  V30 7831 H 740.447 -1.77959 -3.76346 0
M  V30 7832 H 740.98 -3.01392 -2.5963 0
M  V30 7833 H 737.719 -6.01148 -2.61345 0
M  V30 7834 H 737.239 -4.70473 -3.72042 0
M  V30 7835 H 738.918 -5.29906 -3.71226 0
M  V30 7836 N 739.05 0.861098 -1.31996 0
M  V30 7837 C 740.299 1.60965 -1.21545 0
M  V30 7838 C 740.612 1.94325 0.222972 0
M  V30 7839 O 741.818 2.67757 0.449272 0
M  V30 7840 C 740.274 2.90223 -2.12834 0
M  V30 7841 C 739.882 2.64313 -3.61722 0
M  V30 7842 C 741.626 3.68229 -2.11205 0
M  V30 7843 C 739.533 3.89532 -4.44993 0
M  V30 7844 H 738.463 0.603988 -0.451348 0
M  V30 7845 H 741.114 0.951358 -1.56912 0
M  V30 7846 H 739.496 3.57475 -1.70375 0
M  V30 7847 H 740.67 2.05413 -4.12483 0
M  V30 7848 H 738.985 1.99647 -3.65418 0
M  V30 7849 H 741.582 4.61138 -2.70658 0
M  V30 7850 H 741.925 4.01466 -1.1014 0
M  V30 7851 H 742.458 3.07873 -2.51911 0
M  V30 7852 H 739.197 3.61441 -5.46846 0
M  V30 7853 H 738.717 4.47851 -3.98985 0
M  V30 7854 H 740.396 4.57334 -4.57663 0
M  V30 7855 N 740.528 1.15101 1.07655 0
M  V30 7856 C 741.476 0.840714 2.16875 0
M  V30 7857 C 742.47 -0.184594 1.68391 0
M  V30 7858 O 743.676 -0.0399315 1.79956 0
M  V30 7859 H 740.051 0.254192 0.707736 0
M  V30 7860 H 742.022 1.76959 2.40266 0
M  V30 7861 C 740.771 0.343018 3.46004 0
M  V30 7862 H 740.094 1.12335 3.83694 0
M  V30 7863 H 741.534 0.16453 4.23681 0
M  V30 7864 C 739.993 -0.934881 3.23669 0
M  V30 7865 O 740.523 -2.00706 3.47965 0
M  V30 7866 N 738.729 -0.873167 2.77172 0
M  V30 7867 H 738.276 -0.000479072 2.576 0
M  V30 7868 H 738.234 -1.72873 2.62607 0
M  V30 7869 N 742.006 -1.2595 0.947325 0
M  V30 7870 C 742.916 -2.29883 0.468079 0
M  V30 7871 C 743.932 -1.67783 -0.460975 0
M  V30 7872 O 745.108 -1.98526 -0.339006 0
M  V30 7873 C 742.173 -3.45773 -0.253315 0
M  V30 7874 C 741.234 -4.23337 0.713054 0
M  V30 7875 C 740.467 -5.33694 0.025993 0
M  V30 7876 O 740.69 -5.57853 -1.18978 0
M  V30 7877 O 739.624 -5.97724 0.70782 0
M  V30 7878 H 743.45 -2.72952 1.33156 0
M  V30 7879 H 741.035 -1.31263 0.713468 0
M  V30 7880 H 742.917 -4.16209 -0.659423 0
M  V30 7881 H 741.592 -3.04721 -1.09209 0
M  V30 7882 H 740.499 -3.55359 1.16923 0
M  V30 7883 H 741.832 -4.68154 1.51963 0
M  V30 7884 N 743.484 -0.715051 -1.40445 0
M  V30 7885 C 744.73 -0.254705 -2.01194 0
M  V30 7886 C 745.063 1.14894 -1.56567 0
M  V30 7887 O 744.338 1.77933 -0.785491 0
M  V30 7888 C 744.621 -0.334148 -3.58546 0
M  V30 7889 C 744.474 -1.77613 -4.13248 0
M  V30 7890 C 745.793 0.294968 -4.3911 0
M  V30 7891 H 742.912 -0.094025 -0.730978 0
M  V30 7892 H 745.554 -0.907449 -1.66929 0
M  V30 7893 H 743.704 0.221609 -3.87867 0
M  V30 7894 H 745.376 -2.38723 -3.94727 0
M  V30 7895 H 743.619 -2.30402 -3.67556 0
M  V30 7896 H 744.29 -1.78311 -5.22407 0
M  V30 7897 H 746.766 -0.178563 -4.15717 0
M  V30 7898 H 745.642 0.208934 -5.48502 0
M  V30 7899 H 745.903 1.37841 -4.20062 0
M  V30 7900 N 744.962 1.50701 -0.461195 0
M  V30 7901 C 745.91 2.29918 0.352231 0
M  V30 7902 C 746.904 1.36778 0.999403 0
M  V30 7903 O 748.11 1.54015 0.931639 0
M  V30 7904 H 744.485 0.740249 0.132423 0
M  V30 7905 H 746.456 2.96497 -0.336424 0
M  V30 7906 C 745.205 3.17052 1.42736 0
M  V30 7907 H 744.528 3.88623 0.938747 0
M  V30 7908 H 745.968 3.75493 1.96928 0
M  V30 7909 C 744.427 2.3399 2.42384 0
M  V30 7910 O 744.957 2.01608 3.47444 0
M  V30 7911 N 743.163 1.96758 2.13857 0
M  V30 7912 H 742.71 2.23292 1.28447 0
M  V30 7913 H 742.668 1.41484 2.80766 0
M  V30 7914 N 746.441 0.193421 1.56409 0
M  V30 7915 C 747.689 -0.444908 1.97142 0
M  V30 7916 C 748.01 -1.62268 1.08139 0
M  V30 7917 O 747.28 -1.95307 0.152326 0
M  V30 7918 H 745.86 -0.16736 0.728011 0
M  V30 7919 H 748.522 0.279763 1.92882 0
M  V30 7920 H 747.618 -0.790159 3.01932 0
M  V30 7921 N 747.919 -1.57396 -0.0801906 0
M  V30 7922 C 749.168 -1.8602 -0.779702 0
M  V30 7923 C 749.481 -0.784864 -1.79163 0
M  V30 7924 O 750.687 -0.958691 -2.54011 0
M  V30 7925 C 749.143 -3.29942 -1.43758 0
M  V30 7926 C 748.751 -4.45584 -0.464654 0
M  V30 7927 C 750.495 -3.67775 -2.11995 0
M  V30 7928 C 748.402 -5.80544 -1.12797 0
M  V30 7929 H 747.332 -0.69392 -0.294943 0
M  V30 7930 H 749.983 -1.83471 -0.0328527 0
M  V30 7931 H 748.365 -3.27078 -2.2324 0
M  V30 7932 H 749.539 -4.59824 0.299749 0
M  V30 7933 H 747.854 -4.16247 0.112813 0
M  V30 7934 H 750.451 -4.65896 -2.62383 0
M  V30 7935 H 750.794 -2.9715 -2.91561 0
M  V30 7936 H 751.327 -3.72593 -1.39354 0
M  V30 7937 H 748.066 -6.54439 -0.372807 0
M  V30 7938 H 747.586 -5.70119 -1.86344 0
M  V30 7939 H 749.265 -6.25602 -1.6502 0
M  V30 7940 N 749.397 0.351382 -1.53633 0
M  V30 7941 C 750.622 1.11718 -1.74739 0
M  V30 7942 C 751.047 1.81829 -0.481657 0
M  V30 7943 O 750.405 1.72264 0.565233 0
M  V30 7944 C 750.453 2.11234 -2.92254 0
M  V30 7945 O 749.557 3.186 -2.61855 0
M  V30 7946 H 748.898 0.323482 -0.579875 0
M  V30 7947 H 751.428 0.404167 -2.00568 0
M  V30 7948 H 751.438 2.54591 -3.18822 0
M  V30 7949 H 750.113 1.59599 -3.84058 0
M  V30 7950 H 748.69 2.80115 -2.4615 0
M  V30 7951 N 750.875 1.45233 0.611969 0
M  V30 7952 C 752.291 1.29542 0.932251 0
M  V30 7953 C 752.491 0.24523 2.00002 0
M  V30 7954 O 751.547 -0.362333 2.49887 0
M  V30 7955 C 752.86 2.67301 1.37733 0
M  V30 7956 C 754.408 2.75163 1.49178 0
M  V30 7957 C 754.883 4.13437 1.97064 0
M  V30 7958 N 756.374 4.15709 2.04304 0
M  V30 7959 C 757.109 5.19566 2.42568 0
M  V30 7960 N 756.605 6.33771 2.79832 0
M  V30 7961 N 758.398 5.06923 2.42869 0
M  V30 7962 H 750.549 2.12192 -0.0938679 0
M  V30 7963 H 752.812 0.947775 0.0206569 0
M  V30 7964 H 752.518 3.45318 0.666951 0
M  V30 7965 H 752.392 2.95472 2.3447 0
M  V30 7966 H 754.779 1.97453 2.19309 0
M  V30 7967 H 754.86 2.50712 0.507674 0
M  V30 7968 H 754.504 4.91631 1.27521 0
M  V30 7969 H 754.434 4.35277 2.9638 0
M  V30 7970 H 756.925 3.33293 1.78113 0
M  V30 7971 H 757.238 7.08815 3.07898 0
M  V30 7972 H 755.583 6.37179 2.77538 0
M  V30 7973 H 758.774 4.1675 2.1316 0
M  V30 7974 H 758.947 5.87981 2.72364 0
M  V30 7975 N 752.353 -0.854086 1.3245 0
M  V30 7976 C 753.599 -1.61069 1.23225 0
M  V30 7977 C 753.932 -1.93111 -0.205349 0
M  V30 7978 O 753.207 -1.57397 -1.14265 0
M  V30 7979 C 753.49 -2.93065 2.09249 0
M  V30 7980 C 753.343 -2.67801 3.6139 0
M  V30 7981 C 754.662 -3.94341 1.95406 0
M  V30 7982 H 751.781 -0.584449 0.448986 0
M  V30 7983 H 754.423 -0.986189 1.62402 0
M  V30 7984 H 752.573 -3.46364 1.75967 0
M  V30 7985 H 754.245 -2.21052 4.04887 0
M  V30 7986 H 752.488 -2.01756 3.84027 0
M  V30 7987 H 753.159 -3.6179 4.16907 0
M  V30 7988 H 755.635 -3.50301 2.24562 0
M  V30 7989 H 754.511 -4.84555 2.57872 0
M  V30 7990 H 754.772 -4.32382 0.921865 0
M  V30 7991 N 753.831 -1.1567 -1.07043 0
M  V30 7992 C 755.077 -0.9349 -1.79965 0
M  V30 7993 C 755.41 0.536464 -1.86643 0
M  V30 7994 O 754.685 1.39781 -1.35247 0
M  V30 7995 C 754.968 -1.55371 -3.24857 0
M  V30 7996 C 754.821 -3.09589 -3.26305 0
M  V30 7997 C 756.14 -1.24209 -4.22209 0
M  V30 7998 H 753.259 -0.341061 -0.653335 0
M  V30 7999 H 755.901 -1.42883 -1.25237 0
M  V30 8000 H 754.051 -1.13368 -3.71591 0
M  V30 8001 H 755.723 -3.60521 -2.87789 0
M  V30 8002 H 753.966 -3.43315 -2.65174 0
M  V30 8003 H 754.637 -3.48002 -4.28484 0
M  V30 8004 H 757.113 -1.60548 -3.8388 0
M  V30 8005 H 755.989 -1.70119 -5.21872 0
M  V30 8006 H 756.25 -0.15964 -4.41812 0
M  V30 8007 N 755.309 1.25446 -0.953992 0
M  V30 8008 C 756.539 1.96929 -0.624688 0
M  V30 8009 C 756.947 1.71112 0.807292 0
M  V30 8010 O 756.29 0.983512 1.55154 0
M  V30 8011 C 756.352 3.50425 -0.802676 0
M  V30 8012 C 756.016 3.99916 -2.21169 0
M  V30 8013 C 757.013 4.10662 -3.18831 0
M  V30 8014 C 754.698 4.33598 -2.53571 0
M  V30 8015 C 756.692 4.54401 -4.46988 0
M  V30 8016 C 754.379 4.77024 -3.81958 0
M  V30 8017 C 755.377 4.87388 -4.78478 0
M  V30 8018 O 755.065 5.29851 -6.04577 0
M  V30 8019 H 754.797 0.634511 -0.233179 0
M  V30 8020 H 757.351 1.60591 -1.28061 0
M  V30 8021 H 755.581 3.86596 -0.0896044 0
M  V30 8022 H 757.27 4.03117 -0.47452 0
M  V30 8023 H 758.036 3.84872 -2.95124 0
M  V30 8024 H 753.915 4.24757 -1.79171 0
M  V30 8025 H 757.459 4.62406 -5.22328 0
M  V30 8026 H 753.356 5.02258 -4.05471 0
M  V30 8027 H 754.124 5.48039 -6.07944 0
M  V30 8028 N 756.787 0.722489 1.40064 0
M  V30 8029 C 758.064 0.191829 1.94657 0
M  V30 8030 C 758.444 -1.30389 1.66018 0
M  V30 8031 O 757.792 -2.06342 0.981588 0
M  V30 8032 C 758.002 0.511978 3.45224 0
M  V30 8033 C 759.35 0.454426 4.22161 0
M  V30 8034 O 760.374 0.448438 3.53366 0
M  V30 8035 O 759.233 0.437986 5.44742 0
M  V30 8036 H 756.327 0.0307821 0.826427 0
M  V30 8037 H 758.873 0.800493 1.49634 0
M  V30 8038 H 757.645 1.54622 3.59455 0
M  V30 8039 H 757.268 -0.126296 3.97399 0
M  V30 8040 N 758.265 -1.50454 0.469181 0
M  V30 8041 C 759.514 -2.01507 -0.0881425 0
M  V30 8042 C 759.827 -1.35613 -1.40956 0
M  V30 8043 O 761.033 -1.77812 -2.05171 0
M  V30 8044 C 759.489 -3.59301 -0.207596 0
M  V30 8045 C 759.097 -4.34152 1.10527 0
M  V30 8046 C 760.841 -4.18401 -0.716981 0
M  V30 8047 C 758.748 -5.83725 0.949717 0
M  V30 8048 H 757.678 -0.753106 -0.0367156 0
M  V30 8049 H 760.329 -1.73282 0.603788 0
M  V30 8050 H 758.711 -3.84106 -0.963265 0
M  V30 8051 H 759.885 -4.21073 1.87175 0
M  V30 8052 H 758.2 -3.86652 1.54562 0
M  V30 8053 H 760.797 -5.27895 -0.850363 0
M  V30 8054 H 761.14 -3.79657 -1.70782 0
M  V30 8055 H 761.673 -3.97796 -0.0187511 0
M  V30 8056 H 758.412 -6.26938 1.91387 0
M  V30 8057 H 757.932 -5.99383 0.223591 0
M  V30 8058 H 759.611 -6.44065 0.61557 0
M  V30 8059 N 759.743 -0.201713 -1.56304 0
M  V30 8060 C 760.968 0.443815 -2.02596 0
M  V30 8061 C 761.393 1.53945 -1.08086 0
M  V30 8062 O 760.751 1.81182 -0.0655056 0
M  V30 8063 C 760.799 0.971066 -3.47279 0
M  V30 8064 O 759.903 2.0836 -3.55893 0
M  V30 8065 H 759.244 0.10294 -0.655972 0
M  V30 8066 H 761.774 -0.314533 -2.02168 0
M  V30 8067 H 761.784 1.28598 -3.87204 0
M  V30 8068 H 760.459 0.169048 -4.15556 0
M  V30 8069 H 759.036 1.77683 -3.27846 0
M  V30 8070 N 761.222 1.57436 0.0718424 0
M  V30 8071 C 762.47 1.86878 0.769484 0
M  V30 8072 C 762.791 0.7937 1.78116 0
M  V30 8073 O 762.061 -0.177642 1.95093 0
M  V30 8074 H 760.641 0.689593 0.287177 0
M  V30 8075 H 763.303 1.94841 0.0479427 0
M  V30 8076 H 762.399 2.84387 1.28572 0
M  V30 8077 N 762.7 -0.34323 1.53817 0
M  V30 8078 C 763.647 -1.42153 1.81827 0
M  V30 8079 C 764.617 -1.52251 0.663996 0
M  V30 8080 O 765.802 -1.67784 0.908461 0
M  V30 8081 C 762.942 -2.78799 2.03384 0
M  V30 8082 C 762.055 -2.7749 3.31094 0
M  V30 8083 C 761.19 -4.05856 3.42717 0
M  V30 8084 C 760.229 -3.98776 4.64375 0
M  V30 8085 N 759.366 -5.18833 4.73029 0
M  V30 8086 H 764.206 -1.17567 2.73829 0
M  V30 8087 H 761.743 -0.569506 1.35628 0
M  V30 8088 H 763.701 -3.58211 2.13872 0
M  V30 8089 H 762.331 -3.01736 1.14696 0
M  V30 8090 H 761.383 -1.90182 3.29446 0
M  V30 8091 H 762.695 -2.68137 4.206 0
M  V30 8092 H 761.849 -4.93691 3.52638 0
M  V30 8093 H 760.588 -4.1799 2.51267 0
M  V30 8094 H 759.593 -3.09325 4.5453 0
M  V30 8095 H 760.818 -3.88224 5.57189 0
M  V30 8096 H 758.764 -5.31511 3.84489 0
M  V30 8097 H 758.681 -5.11737 5.56472 0
M  V30 8098 H 759.949 -6.08439 4.87261 0
M  V30 8099 N 764.178 -1.45556 -0.604258 0
M  V30 8100 C 765.589 -1.44171 -1.18624 0
M  V30 8101 C 765.94 -0.171081 -1.95453 0
M  V30 8102 O 765.065 0.727156 -2.03817 0
M  V30 8103 C 765.66 -2.61193 -2.15786 0
M  V30 8104 C 764.219 -2.62918 -2.69353 0
M  V30 8105 C 763.366 -2.36479 -1.4482 0
M  V30 8106 H 766.317 -1.53747 -0.393381 0
M  V30 8107 H 766.338 -2.35481 -2.98879 0
M  V30 8108 H 765.85 -3.53656 -1.59841 0
M  V30 8109 H 763.951 -1.7447 -3.29228 0
M  V30 8110 H 764.064 -3.6224 -3.13559 0
M  V30 8111 H 762.428 -1.86103 -1.73891 0
M  V30 8112 H 763.211 -3.31091 -0.907376 0
M  V30 8113 N 765.656 0.84705 -1.32902 0
M  V30 8114 C 767.067 1.41785 -1.21466 0
M  V30 8115 C 767.418 1.95464 0.169767 0
M  V30 8116 O 766.543 1.88157 1.06892 0
M  V30 8117 C 767.138 2.57734 -2.19906 0
M  V30 8118 C 765.697 3.10791 -2.12334 0
M  V30 8119 C 764.844 1.83562 -2.07847 0
M  V30 8120 H 767.795 0.653532 -1.44619 0
M  V30 8121 H 767.816 3.35123 -1.80202 0
M  V30 8122 H 767.328 2.18635 -3.20656 0
M  V30 8123 H 765.429 3.54455 -1.14858 0
M  V30 8124 H 765.542 3.71519 -3.02506 0
M  V30 8125 H 763.906 2.03475 -1.53199 0
M  V30 8126 H 764.689 1.4667 -3.10392 0
M  V30 8127 N 767.134 1.16236 1.06428 0
M  V30 8128 C 768.097 0.870163 2.1204 0
M  V30 8129 C 769.097 -0.134239 1.60239 0
M  V30 8130 O 770.287 0.0964932 1.73933 0
M  V30 8131 C 767.419 0.301033 3.39568 0
M  V30 8132 H 768.612 1.8064 2.39394 0
M  V30 8133 H 766.165 0.971116 1.2247 0
M  V30 8134 H 766.9 -0.642948 3.17863 0
M  V30 8135 H 766.685 1.02475 3.78472 0
M  V30 8136 H 768.175 0.114494 4.17443 0
M  V30 8137 N 768.612 -1.24939 0.960631 0
M  V30 8138 C 769.84 -1.96881 0.636045 0
M  V30 8139 C 770.255 -1.71334 -0.793093 0
M  V30 8140 O 769.612 -0.992917 -1.53125 0
M  V30 8141 C 769.663 -3.50309 0.892533 0
M  V30 8142 O 769.384 -3.74977 2.26548 0
M  V30 8143 C 770.885 -4.39474 0.581159 0
M  V30 8144 H 768.105 -0.627399 0.237931 0
M  V30 8145 H 770.649 -1.58952 1.28664 0
M  V30 8146 H 768.804 -3.86326 0.288257 0
M  V30 8147 H 769.218 -4.69401 2.34014 0
M  V30 8148 H 770.692 -5.46008 0.811125 0
M  V30 8149 H 771.169 -4.3652 -0.48443 0
M  V30 8150 H 771.775 -4.09032 1.16502 0
M  V30 8151 N 770.09 -0.729906 -1.39679 0
M  V30 8152 C 771.339 -0.272534 -1.9985 0
M  V30 8153 C 771.652 1.14519 -1.58571 0
M  V30 8154 O 772.858 1.70182 -2.11543 0
M  V30 8155 C 771.314 -0.436322 -3.57245 0
M  V30 8156 C 770.922 -1.86161 -4.0749 0
M  V30 8157 C 772.666 -0.0404679 -4.24481 0
M  V30 8158 C 770.573 -1.97522 -5.5744 0
M  V30 8159 H 769.503 -0.0981428 -0.747585 0
M  V30 8160 H 772.154 -0.903056 -1.59741 0
M  V30 8161 H 770.536 0.263015 -3.95126 0
M  V30 8162 H 771.71 -2.59248 -3.80955 0
M  V30 8163 H 770.025 -2.21021 -3.529 0
M  V30 8164 H 772.622 -0.104437 -5.34598 0
M  V30 8165 H 772.965 1.00357 -4.04023 0
M  V30 8166 H 773.498 -0.690774 -3.91757 0
M  V30 8167 H 770.237 -3.00096 -5.82771 0
M  V30 8168 H 769.757 -1.28864 -5.85794 0
M  V30 8169 H 771.436 -1.754 -6.22771 0
M  V30 8170 N 771.568 1.50203 -0.477153 0
M  V30 8171 C 772.478 2.32421 0.319027 0
M  V30 8172 C 773.494 1.43075 0.990233 0
M  V30 8173 O 774.67 1.76123 0.976873 0
M  V30 8174 C 771.735 3.17909 1.38328 0
M  V30 8175 C 770.796 4.23082 0.728036 0
M  V30 8176 C 770.029 5.04484 1.74158 0
M  V30 8177 O 770.252 4.8705 2.96881 0
M  V30 8178 O 769.186 5.8747 1.31006 0
M  V30 8179 H 773.012 3.01638 -0.353281 0
M  V30 8180 H 770.597 1.47478 -0.238891 0
M  V30 8181 H 772.479 3.70937 1.9996 0
M  V30 8182 H 771.154 2.51413 2.03895 0
M  V30 8183 H 770.061 3.7403 0.07261 0
M  V30 8184 H 771.394 4.92065 0.115216 0
M  V30 8185 N 773.046 0.209999 1.56195 0
M  V30 8186 C 774.292 -0.418742 1.99043 0
M  V30 8187 C 774.647 -1.58201 1.095 0
M  V30 8188 O 773.94 -1.91069 0.1425 0
M  V30 8189 C 774.134 -0.91312 3.45539 0
M  V30 8190 C 773.963 0.200706 4.49252 0
M  V30 8191 C 772.733 0.663287 5.00928 0
M  V30 8192 C 774.931 1.01493 5.04186 0
M  V30 8193 N 772.913 1.75338 5.88328 0
M  V30 8194 C 774.284 1.95411 5.884 0
M  V30 8195 C 776.339 1.05567 4.8658 0
M  V30 8196 C 775.042 2.93069 6.56889 0
M  V30 8197 C 777.068 2.02037 5.55819 0
M  V30 8198 C 776.43 2.94697 6.39791 0
M  V30 8199 H 772.529 -0.120226 0.772703 0
M  V30 8200 H 775.113 0.319119 1.92067 0
M  V30 8201 H 773.284 -1.62038 3.52985 0
M  V30 8202 H 775.016 -1.51371 3.75325 0
M  V30 8203 H 771.771 0.253945 4.72919 0
M  V30 8204 H 772.195 2.30007 6.3673 0
M  V30 8205 H 776.837 0.353242 4.21322 0
M  V30 8206 H 774.555 3.6428 7.21336 0
M  V30 8207 H 778.141 2.05849 5.44167 0
M  V30 8208 H 777.021 3.68128 6.92425 0
M  V30 8209 N 774.524 -1.57472 -0.0634922 0
M  V30 8210 C 775.434 -2.07621 -1.09227 0
M  V30 8211 C 776.45 -1.00746 -1.41867 0
M  V30 8212 O 777.626 -1.32269 -1.51878 0
M  V30 8213 C 774.691 -2.51707 -2.38421 0
M  V30 8214 C 773.752 -3.72917 -2.12676 0
M  V30 8215 C 772.985 -4.14891 -3.3571 0
M  V30 8216 O 773.208 -3.56663 -4.45137 0
M  V30 8217 O 772.142 -5.07616 -3.23434 0
M  V30 8218 H 775.968 -2.95612 -0.696205 0
M  V30 8219 H 773.553 -1.46787 -0.27819 0
M  V30 8220 H 775.435 -2.80547 -3.14438 0
M  V30 8221 H 774.11 -1.66842 -2.77391 0
M  V30 8222 H 773.017 -3.49148 -1.34337 0
M  V30 8223 H 774.35 -4.5866 -1.78583 0
M  V30 8224 O 776.041 0.206959 -1.60168 0
M  V30 8225 H 776.732 0.846889 -1.74205 0
M  V30 END ATOM
M  V30 BEGIN BOND
M  V30 END BOND
M  V30 END CTAB
M  END
$$$$
