drugbank_target|P04114 Apolipoprotein B-100 (DB14533; DB14548)
 OpenBabel12092121223D

  0  0  0     0  0            999 V3000
M  V30 BEGIN CTAB
M  V30 COUNTS 72930 73665 0 0 0
M  V30 BEGIN ATOM
M  V30 1 H -0.908 1.98254 -0.117106 0
M  V30 2 N 0 1.576 0 0
M  V30 3 C 0.933 2.03868 1.02534 0
M  V30 4 C 1.911 0.928543 1.3348 0
M  V30 5 O 3.095 1.19667 1.45644 0
M  V30 6 C 0.222 2.43627 2.35294 0
M  V30 7 C -0.732 3.65373 2.2001 0
M  V30 8 S 0.101 5.13292 1.52614 0
M  V30 9 C 1.257 5.56322 2.86805 0
M  V30 10 H 1.49 2.90518 0.631377 0
M  V30 11 H -0.977 1.52953 0.210867 0
M  V30 12 H 0.981 2.67203 3.11629 0
M  V30 13 H -0.358 1.57376 2.7183 0
M  V30 14 H -1.165 3.90944 3.18086 0
M  V30 15 H -1.563 3.418 1.51819 0
M  V30 16 H 0.729 5.58782 3.83104 0
M  V30 17 H 1.672 6.56266 2.65933 0
M  V30 18 H 2.08 4.83886 2.90714 0
M  V30 19 N 1.4781 -0.272755 1.55222 0
M  V30 20 C 2.7551 -1.02562 1.66555 0
M  V30 21 C 3.1351 -2.04282 0.532189 0
M  V30 22 O 2.4831 -2.23662 -0.467717 0
M  V30 23 C 2.6931 -1.6822 3.05782 0
M  V30 24 C 4.0411 -2.19373 3.63539 0
M  V30 25 O 5.0651 -1.78206 3.08417 0
M  V30 26 O 3.9241 -2.94883 4.60115 0
M  V30 27 H 1.0181 -0.475755 0.676451 0
M  V30 28 H 3.5641 -0.268593 1.67561 0
M  V30 29 H 2.3361 -0.945112 3.79715 0
M  V30 30 H 1.9591 -2.50609 3.08676 0
M  V30 31 N 2.9562 -1.48159 -0.537278 0
M  V30 32 C 4.3672 -1.49429 -1.11928 0
M  V30 33 C 4.7182 -0.26 -1.9447 0
M  V30 34 O 3.8432 0.633489 -2.0692 0
M  V30 35 C 4.4382 -2.70758 -2.03656 0
M  V30 36 C 2.9972 -2.74923 -2.57088 0
M  V30 37 C 2.1442 -2.42835 -1.3389 0
M  V30 38 H 5.0952 -1.55381 -0.322886 0
M  V30 39 H 5.1162 -2.48861 -2.87834 0
M  V30 40 H 4.6282 -3.60575 -1.43553 0
M  V30 41 H 2.7292 -1.89296 -3.20933 0
M  V30 42 H 2.8422 -3.76157 -2.9672 0
M  V30 43 H 1.2062 -1.93836 -1.65226 0
M  V30 44 H 1.9892 -3.34884 -0.755504 0
M  V30 45 N 4.4343 0.785586 -1.36625 0
M  V30 46 C 5.8453 1.36101 -1.27803 0
M  V30 47 C 6.1963 1.96035 0.0804875 0
M  V30 48 O 5.3213 1.92834 0.982042 0
M  V30 49 C 5.9163 2.47442 -2.31426 0
M  V30 50 C 4.4753 3.00789 -2.26281 0
M  V30 51 C 3.6223 1.73896 -2.15999 0
M  V30 52 H 6.5733 0.586928 -1.47448 0
M  V30 53 H 6.5943 3.2656 -1.95291 0
M  V30 54 H 6.1063 2.03791 -3.30289 0
M  V30 55 H 4.2073 3.48851 -1.30896 0
M  V30 56 H 4.3203 3.57343 -3.19128 0
M  V30 57 H 2.6843 1.9628 -1.62316 0
M  V30 58 H 3.4673 1.32368 -3.16755 0
M  V30 59 N 5.9124 1.20967 1.01018 0
M  V30 60 C 7.3284 0.965905 1.27053 0
M  V30 61 C 7.5284 -0.350785 1.98423 0
M  V30 62 O 6.5844 -1.07773 2.28344 0
M  V30 63 C 7.8974 2.15294 2.09926 0
M  V30 64 C 9.4454 2.19463 2.23171 0
M  V30 65 C 9.9204 3.3767 3.09424 0
M  V30 66 N 11.4114 3.37724 3.17012 0
M  V30 67 C 12.1464 4.25837 3.83993 0
M  V30 68 N 11.6424 5.24138 4.53047 0
M  V30 69 N 13.4354 4.1366 3.80581 0
M  V30 70 H 5.5864 2.0565 0.531194 0
M  V30 71 H 7.8494 0.90024 0.297106 0
M  V30 72 H 7.5554 3.10684 1.64828 0
M  V30 73 H 7.4294 2.13923 3.10672 0
M  V30 74 H 9.8164 1.24632 2.6749 0
M  V30 75 H 9.8974 2.2488 1.21912 0
M  V30 76 H 9.5414 4.32791 2.65808 0
M  V30 77 H 9.4714 3.29491 4.10784 0
M  V30 78 H 11.9624 2.6658 2.6785 0
M  V30 79 H 12.2754 5.87684 5.01844 0
M  V30 80 H 10.6204 5.28068 4.5185 0
M  V30 81 H 13.8114 3.36127 3.25785 0
M  V30 82 H 13.9844 4.82538 4.32505 0
M  V30 83 N 7.3905 -1.2043 1.01659 0
M  V30 84 C 8.8015 -1.71517 0.737482 0
M  V30 85 C 9.1525 -1.81547 -0.743973 0
M  V30 86 O 8.2775 -1.47803 -1.58061 0
M  V30 87 C 8.8725 -3.11515 1.33206 0
M  V30 88 C 7.4315 -3.59912 1.10183 0
M  V30 89 C 6.5785 -2.37116 1.43776 0
M  V30 90 H 9.5295 -1.05444 1.18606 0
M  V30 91 H 9.5505 -3.73575 0.722636 0
M  V30 92 H 9.0625 -3.04182 2.41028 0
M  V30 93 H 7.1635 -3.72577 0.0412756 0
M  V30 94 H 7.2765 -4.44731 1.78188 0
M  V30 95 H 5.6405 -2.39857 0.856778 0
M  V30 96 H 6.4235 -2.32424 2.52654 0
M  V30 97 N 8.8686 -0.792821 -1.36206 0
M  V30 98 C 9.8316 -0.199459 -2.2833 0
M  V30 99 C 10.8316 0.605189 -1.48977 0
M  V30 100 O 12.0216 0.425685 -1.68919 0
M  V30 101 C 9.1536 0.723523 -3.33134 0
M  V30 102 H 10.3466 -1.01181 -2.82316 0
M  V30 103 H 7.8996 -0.562485 -1.45828 0
M  V30 104 H 8.6346 1.56008 -2.84309 0
M  V30 105 H 8.4196 0.148436 -3.91819 0
M  V30 106 H 9.9096 1.13344 -4.01924 0
M  V30 107 N 10.3467 1.47872 -0.545128 0
M  V30 108 C 11.2767 2.32661 0.197793 0
M  V30 109 C 12.2577 1.43041 0.920504 0
M  V30 110 O 13.4427 1.71912 0.90333 0
M  V30 111 C 10.5727 3.24569 1.23582 0
M  V30 112 C 9.5267 4.23333 0.630323 0
M  V30 113 C 8.8527 5.0448 1.77211 0
M  V30 114 C 10.1527 5.20704 -0.407974 0
M  V30 115 H 11.8467 2.95024 -0.510045 0
M  V30 116 H 9.3927 1.4187 -0.246731 0
M  V30 117 H 11.3457 3.8272 1.76362 0
M  V30 118 H 10.0697 2.60236 1.97344 0
M  V30 119 H 8.7287 3.6639 0.123922 0
M  V30 120 H 8.3767 4.36561 2.49847 0
M  V30 121 H 8.0767 5.71339 1.37281 0
M  V30 122 H 9.6007 5.65487 2.3034 0
M  V30 123 H 11.0147 5.7329 0.033305 0
M  V30 124 H 9.4117 5.95699 -0.725486 0
M  V30 125 H 10.4817 4.66917 -1.30828 0
M  V30 126 N 11.8248 0.280983 1.55075 0
M  V30 127 C 12.7548 -0.597469 2.25727 0
M  V30 128 C 13.7358 -1.15417 1.24952 0
M  V30 129 O 14.9208 -1.18722 1.53684 0
M  V30 130 C 12.0508 -1.7789 2.98283 0
M  V30 131 C 11.0048 -1.35347 4.06036 0
M  V30 132 C 10.3308 -2.61846 4.66198 0
M  V30 133 C 11.6308 -0.499354 5.19907 0
M  V30 134 H 13.3248 -0.00824265 2.99399 0
M  V30 135 H 10.8708 -0.0025244 1.44 0
M  V30 136 H 12.8238 -2.39937 3.46422 0
M  V30 137 H 11.5478 -2.39405 2.22155 0
M  V30 138 H 10.2068 -0.756156 3.58717 0
M  V30 139 H 9.8548 -3.21632 3.86732 0
M  V30 140 H 9.5548 -2.3409 5.38958 0
M  V30 141 H 11.0788 -3.24732 5.1709 0
M  V30 142 H 12.4928 -1.02498 5.64063 0
M  V30 143 H 10.8898 -0.316424 5.99265 0
M  V30 144 H 11.9598 0.480459 4.82514 0
M  V30 145 N 13.3029 -1.57598 0.00835791 0
M  V30 146 C 14.2659 -2.07884 -0.965242 0
M  V30 147 C 15.2659 -0.989825 -1.26725 0
M  V30 148 O 16.4559 -1.25218 -1.21104 0
M  V30 149 C 13.5879 -2.52731 -2.28779 0
M  V30 150 H 14.7809 -2.95178 -0.530112 0
M  V30 151 H 12.3339 -1.54458 -0.239283 0
M  V30 152 H 13.0689 -1.68705 -2.76964 0
M  V30 153 H 12.8539 -3.32272 -2.08177 0
M  V30 154 H 14.3439 -2.91933 -2.98605 0
M  V30 155 N 14.781 0.264519 -1.55364 0
M  V30 156 C 15.711 1.33121 -1.91836 0
M  V30 157 C 16.692 1.51101 -0.781192 0
M  V30 158 O 17.877 1.64003 -1.04003 0
M  V30 159 C 15.007 2.68921 -2.19769 0
M  V30 160 C 13.961 2.65661 -3.35571 0
M  V30 161 C 13.287 4.05093 -3.49004 0
M  V30 162 C 14.587 2.24187 -4.71739 0
M  V30 163 H 16.281 1.02844 -2.81182 0
M  V30 164 H 13.827 0.493286 -1.35287 0
M  V30 165 H 15.78 3.43663 -2.43872 0
M  V30 166 H 14.504 3.00799 -1.27231 0
M  V30 167 H 13.163 1.93377 -3.1145 0
M  V30 168 H 12.811 4.34206 -2.53917 0
M  V30 169 H 12.511 4.03804 -4.26868 0
M  V30 170 H 14.035 4.81561 -3.75408 0
M  V30 171 H 15.449 2.88654 -4.9533 0
M  V30 172 H 13.846 2.34044 -5.52579 0
M  V30 173 H 14.916 1.19327 -4.69988 0
M  V30 174 N 16.2591 1.48442 0.529413 0
M  V30 175 C 17.1891 1.65902 1.64313 0
M  V30 176 C 18.1701 0.507897 1.6234 0
M  V30 177 O 19.3551 0.740503 1.79528 0
M  V30 178 C 16.4851 1.69911 3.02898 0
M  V30 179 C 15.4391 2.8453 3.19729 0
M  V30 180 C 14.7651 2.73629 4.59381 0
M  V30 181 C 16.0651 4.25821 3.02447 0
M  V30 182 H 17.7591 2.5914 1.49955 0
M  V30 183 H 15.3051 1.24709 0.719982 0
M  V30 184 H 17.2581 1.80715 3.80684 0
M  V30 185 H 15.9821 0.732524 3.18279 0
M  V30 186 H 14.6411 2.73283 2.44361 0
M  V30 187 H 14.2891 1.74938 4.71599 0
M  V30 188 H 13.9891 3.50541 4.71588 0
M  V30 189 H 15.5131 2.86401 5.39265 0
M  V30 190 H 16.9271 4.37898 3.70024 0
M  V30 191 H 15.3241 5.03735 3.26146 0
M  V30 192 H 16.3941 4.42244 1.98867 0
M  V30 193 N 17.7372 -0.778329 1.37039 0
M  V30 194 C 18.7002 -1.87301 1.32102 0
M  V30 195 C 19.7002 -1.59198 0.226405 0
M  V30 196 O 20.8902 -1.67403 0.481861 0
M  V30 197 C 18.0222 -3.24309 1.05055 0
M  V30 198 H 19.2152 -1.93093 2.29467 0
M  V30 199 H 16.7682 -0.977358 1.21973 0
M  V30 200 H 17.5032 -3.24196 0.0819373 0
M  V30 201 H 17.2882 -3.46098 1.84279 0
M  V30 202 H 18.7782 -4.04382 1.04234 0
M  V30 203 N 19.2153 -1.21501 -1.00376 0
M  V30 204 C 20.1453 -0.999478 -2.11028 0
M  V30 205 C 21.1263 0.0759671 -1.6993 0
M  V30 206 O 22.3113 -0.0841106 -1.94018 0
M  V30 207 C 19.4413 -0.564709 -3.42678 0
M  V30 208 C 18.3953 -1.58486 -3.97576 0
M  V30 209 C 17.7213 -1.00628 -5.25146 0
M  V30 210 C 19.0213 -2.97204 -4.29496 0
M  V30 211 H 20.7153 -1.92495 -2.29317 0
M  V30 212 H 18.2613 -0.92693 -1.102 0
M  V30 213 H 20.2143 -0.401091 -4.19487 0
M  V30 214 H 18.9383 0.396411 -3.24185 0
M  V30 215 H 17.5973 -1.73606 -3.22888 0
M  V30 216 H 17.2453 -0.0368439 -5.02987 0
M  V30 217 H 16.9453 -1.68771 -5.62841 0
M  V30 218 H 18.4693 -0.854015 -6.04598 0
M  V30 219 H 19.8833 -2.8552 -4.97143 0
M  V30 220 H 18.2803 -3.62372 -4.78338 0
M  V30 221 H 19.3503 -3.47956 -3.3772 0
M  V30 222 N 20.6934 1.19889 -1.02296 0
M  V30 223 C 22.1044 1.71124 -0.746568 0
M  V30 224 C 22.4554 1.81939 0.734335 0
M  V30 225 O 21.5804 1.48639 1.57275 0
M  V30 226 C 22.1754 3.10804 -1.34857 0
M  V30 227 C 20.7344 3.59323 -1.1209 0
M  V30 228 C 19.8814 2.3635 -1.45031 0
M  V30 229 H 22.8324 1.04813 -1.19163 0
M  V30 230 H 22.8534 3.73186 -0.742437 0
M  V30 231 H 22.3654 3.029 -2.42638 0
M  V30 232 H 20.4664 3.7255 -0.0610337 0
M  V30 233 H 20.5794 4.4378 -1.80544 0
M  V30 234 H 18.9434 2.39399 -0.869487 0
M  V30 235 H 19.7264 2.31081 -2.53883 0
M  V30 236 N 22.1715 0.800033 1.35784 0
M  V30 237 C 23.1345 0.211565 2.28221 0
M  V30 238 C 24.1345 -0.59728 1.49296 0
M  V30 239 O 25.3245 -0.416721 1.69142 0
M  V30 240 C 22.4565 -0.705846 3.33513 0
M  V30 241 H 23.6495 1.02677 2.81776 0
M  V30 242 H 21.2025 0.570211 1.45528 0
M  V30 243 H 21.9375 -1.54498 2.85133 0
M  V30 244 H 21.7225 -0.127655 3.91892 0
M  V30 245 H 23.2125 -1.11211 4.02519 0
M  V30 246 N 23.6496 -1.47581 0.552962 0
M  V30 247 C 24.5796 -2.32762 -0.185451 0
M  V30 248 C 25.5606 -1.43527 -0.912905 0
M  V30 249 O 26.7456 -1.72388 -0.894201 0
M  V30 250 C 23.8756 -3.25219 -1.21859 0
M  V30 251 C 22.8296 -4.23661 -0.607864 0
M  V30 252 C 22.1556 -5.05413 -1.74533 0
M  V30 253 C 23.4556 -5.20481 0.435582 0
M  V30 254 H 25.1496 -2.94749 0.525684 0
M  V30 255 H 22.6956 -1.41738 0.254251 0
M  V30 256 H 24.6486 -3.8365 -1.7433 0
M  V30 257 H 23.3726 -2.61279 -1.95961 0
M  V30 258 H 22.0316 -3.66451 -0.104489 0
M  V30 259 H 21.6796 -4.3788 -2.47529 0
M  V30 260 H 21.3796 -5.72059 -1.34249 0
M  V30 261 H 22.9036 -5.66701 -2.27338 0
M  V30 262 H 24.3176 -5.733 -0.00290157 0
M  V30 263 H 22.7146 -5.95305 0.757067 0
M  V30 264 H 23.7846 -4.66217 1.33303 0
M  V30 265 N 25.1277 -0.289203 -1.54924 0
M  V30 266 C 26.0577 0.58549 -2.2604 0
M  V30 267 C 27.0387 1.14753 -1.25562 0
M  V30 268 O 28.2237 1.17906 -1.54311 0
M  V30 269 C 25.3537 1.76305 -2.99222 0
M  V30 270 C 24.3077 1.33191 -4.06748 0
M  V30 271 C 23.6337 2.5937 -4.6758 0
M  V30 272 C 24.9337 0.471775 -5.20165 0
M  V30 273 H 26.6277 -0.00763532 -2.99399 0
M  V30 274 H 24.1737 -0.00511229 -1.43999 0
M  V30 275 H 26.1267 2.38097 -3.47689 0
M  V30 276 H 24.8507 2.38223 -2.23422 0
M  V30 277 H 23.5097 0.737121 -3.59113 0
M  V30 278 H 23.1577 3.19576 -3.88433 0
M  V30 279 H 22.8577 2.31228 -5.40192 0
M  V30 280 H 24.3817 3.21985 -5.18804 0
M  V30 281 H 25.7957 0.995056 -5.64599 0
M  V30 282 H 24.1927 0.284639 -5.99425 0
M  V30 283 H 25.2627 -0.506041 -4.82252 0
M  V30 284 N 26.6058 1.57591 -0.0167156 0
M  V30 285 C 27.5358 2.12496 0.967858 0
M  V30 286 C 28.5168 1.03807 1.34752 0
M  V30 287 O 29.7018 1.31577 1.42833 0
M  V30 288 C 26.8318 2.64194 2.25431 0
M  V30 289 C 25.7858 3.77559 2.01576 0
M  V30 290 C 25.1118 4.15636 3.36379 0
M  V30 291 C 26.4118 5.04151 1.36489 0
M  V30 292 H 28.1058 2.95013 0.510643 0
M  V30 293 H 25.6518 1.41915 0.244181 0
M  V30 294 H 27.6048 3.01236 2.94678 0
M  V30 295 H 26.3288 1.78821 2.73296 0
M  V30 296 H 24.9878 3.40937 1.34751 0
M  V30 297 H 24.6358 3.27263 3.81979 0
M  V30 298 H 24.3358 4.92022 3.21229 0
M  V30 299 H 25.8598 4.5525 4.06915 0
M  V30 300 H 27.2738 5.38857 1.95718 0
M  V30 301 H 25.6708 5.85453 1.31776 0
M  V30 302 H 26.7408 4.83733 0.336219 0
M  V30 303 N 28.0839 -0.256276 1.55502 0
M  V30 304 C 29.0139 -1.32102 1.92539 0
M  V30 305 C 29.9949 -1.50684 0.789194 0
M  V30 306 O 31.1799 -1.63449 1.04872 0
M  V30 307 C 28.3099 -2.67752 2.21192 0
M  V30 308 C 27.2639 -2.63878 3.36975 0
M  V30 309 C 26.5899 -4.03236 3.51147 0
M  V30 310 C 27.8899 -2.21682 4.72921 0
M  V30 311 H 29.5839 -1.01351 2.81724 0
M  V30 312 H 27.1299 -0.486105 1.35547 0
M  V30 313 H 29.0829 -3.42365 2.45691 0
M  V30 314 H 27.8069 -3.0012 1.28824 0
M  V30 315 H 26.4659 -1.91722 3.12471 0
M  V30 316 H 26.1139 -4.32854 2.56216 0
M  V30 317 H 25.8139 -4.01535 4.29003 0
M  V30 318 H 27.3379 -4.79563 3.77957 0
M  V30 319 H 28.7519 -2.86023 4.96854 0
M  V30 320 H 27.1489 -2.3111 5.53812 0
M  V30 321 H 28.2189 -1.16833 4.70615 0
M  V30 322 N 29.562 -1.4872 -0.521534 0
M  V30 323 C 30.492 -1.66771 -1.63431 0
M  V30 324 C 31.473 -0.516499 -1.62069 0
M  V30 325 O 32.658 -0.750013 -1.79132 0
M  V30 326 C 29.788 -1.71515 -3.01993 0
M  V30 327 C 28.742 -2.86222 -3.18216 0
M  V30 328 C 28.068 -2.76061 -4.57924 0
M  V30 329 C 29.368 -4.27419 -3.00184 0
M  V30 330 H 31.062 -2.59932 -1.48579 0
M  V30 331 H 28.608 -1.25089 -0.713358 0
M  V30 332 H 30.561 -1.82731 -3.7972 0
M  V30 333 H 29.285 -0.749393 -3.17886 0
M  V30 334 H 27.944 -2.74575 -2.42908 0
M  V30 335 H 27.592 -1.77437 -4.70665 0
M  V30 336 H 27.292 -3.53037 -4.69722 0
M  V30 337 H 28.816 -2.89256 -5.37739 0
M  V30 338 H 30.23 -4.39855 -3.67697 0
M  V30 339 H 28.627 -5.05458 -3.2347 0
M  V30 340 H 29.697 -4.43293 -1.96518 0
M  V30 341 N 31.0401 0.771051 -1.3745 0
M  V30 342 C 31.9701 1.89827 -1.3597 0
M  V30 343 C 32.9511 1.68562 -0.228216 0
M  V30 344 O 34.1361 1.8941 -0.428675 0
M  V30 345 C 31.2661 3.2712 -1.16662 0
M  V30 346 C 30.2201 3.6295 -2.2683 0
M  V30 347 C 29.5461 4.98791 -1.92644 0
M  V30 348 C 30.8461 3.69627 -3.69017 0
M  V30 349 H 32.5401 1.91323 -2.30295 0
M  V30 350 H 30.0861 0.919082 -1.10855 0
M  V30 351 H 32.0391 4.05615 -1.14256 0
M  V30 352 H 30.7631 3.26059 -0.187926 0
M  V30 353 H 29.4221 2.86763 -2.28392 0
M  V30 354 H 29.0701 4.94271 -0.933021 0
M  V30 355 H 28.7701 5.23733 -2.66416 0
M  V30 356 H 30.2941 5.79685 -1.91826 0
M  V30 357 H 31.7081 4.38273 -3.69581 0
M  V30 358 H 30.1051 4.06067 -4.41848 0
M  V30 359 H 31.1751 2.70273 -4.02592 0
M  V30 360 N 32.5182 1.22032 0.997298 0
M  V30 361 C 33.4812 0.987909 2.06816 0
M  V30 362 C 34.4812 -0.0440084 1.6074 0
M  V30 363 O 35.6712 0.194053 1.73116 0
M  V30 364 C 32.8032 0.49132 3.37341 0
M  V30 365 H 33.9962 1.93803 2.28868 0
M  V30 366 H 31.5492 1.03838 1.16822 0
M  V30 367 H 32.2842 -0.463364 3.20973 0
M  V30 368 H 32.0692 1.23575 3.72118 0
M  V30 369 H 33.5592 0.348824 4.16141 0
M  V30 370 N 33.9963 -1.19345 1.0293 0
M  V30 371 C 35.2443 -1.88665 0.724574 0
M  V30 372 C 35.5653 -1.80036 -0.749144 0
M  V30 373 O 34.8353 -1.2111 -1.53978 0
M  V30 374 H 33.4153 -0.698406 0.265025 0
M  V30 375 H 36.0773 -1.44885 1.30362 0
M  V30 376 H 35.1733 -2.94987 1.01926 0
M  V30 377 N 35.4744 -0.807222 -1.35358 0
M  V30 378 C 36.4374 -0.223665 -2.28106 0
M  V30 379 C 37.4374 0.589354 -1.4961 0
M  V30 380 O 38.6274 0.407745 -1.69361 0
M  V30 381 C 35.7594 0.688149 -3.33882 0
M  V30 382 H 36.9524 -1.04169 -2.81227 0
M  V30 383 H 34.5054 -0.577921 -1.45223 0
M  V30 384 H 35.2404 1.52984 -2.85948 0
M  V30 385 H 35.0254 0.10687 -3.91954 0
M  V30 386 H 36.5154 1.09075 -4.03104 0
M  V30 387 N 36.9525 1.47285 -0.560781 0
M  V30 388 C 38.3685 1.58065 -0.22081 0
M  V30 389 C 38.5685 1.55892 1.27671 0
M  V30 390 O 37.6245 1.46422 2.0571 0
M  V30 391 C 38.9375 2.88418 -0.850625 0
M  V30 392 C 40.4855 3.02009 -0.822184 0
M  V30 393 C 40.9605 4.35066 -1.43113 0
M  V30 394 N 42.4515 4.41711 -1.39448 0
M  V30 395 C 43.1865 5.43237 -1.83525 0
M  V30 396 N 42.6825 6.51555 -2.35474 0
M  V30 397 N 44.4755 5.34304 -1.74574 0
M  V30 398 H 36.6265 1.46941 -1.53369 0
M  V30 399 H 38.8895 0.699558 -0.639783 0
M  V30 400 H 38.5955 2.95755 -1.9032 0
M  V30 401 H 38.4695 3.75612 -0.345773 0
M  V30 402 H 40.8565 2.94266 0.221714 0
M  V30 403 H 40.9375 2.16347 -1.36483 0
M  V30 404 H 40.5815 4.43565 -2.47412 0
M  V30 405 H 40.5115 5.19465 -0.863899 0
M  V30 406 H 43.0025 3.64027 -1.01452 0
M  V30 407 H 43.3155 7.25203 -2.67021 0
M  V30 408 H 41.6605 6.52435 -2.39487 0
M  V30 409 H 44.8515 4.48581 -1.33763 0
M  V30 410 H 45.0245 6.13288 -2.09242 0
M  V30 411 N 38.4306 0.297415 1.54768 0
M  V30 412 C 39.3936 -0.567375 2.22066 0
M  V30 413 C 40.3936 -1.06409 1.20556 0
M  V30 414 O 41.5836 -0.960691 1.45315 0
M  V30 415 C 38.7156 -1.78517 2.90421 0
M  V30 416 H 39.9086 0.0205534 2.99893 0
M  V30 417 H 37.4616 0.0482163 1.56226 0
M  V30 418 H 38.1966 -2.41303 2.16664 0
M  V30 419 H 37.9816 -1.43669 3.64831 0
M  V30 420 H 39.4716 -2.39964 3.41771 0
M  V30 421 N 39.9087 -1.5758 0.0250728 0
M  V30 422 C 40.8187 -2.1343 -0.973905 0
M  V30 423 C 41.8347 -1.08556 -1.35984 0
M  V30 424 O 43.0107 -1.40592 -1.44207 0
M  V30 425 C 40.0757 -2.64703 -2.23904 0
M  V30 426 C 39.1367 -3.84276 -1.91391 0
M  V30 427 C 38.3697 -4.33095 -3.11873 0
M  V30 428 O 38.5927 -3.81107 -4.24398 0
M  V30 429 O 37.5267 -5.24984 -2.94406 0
M  V30 430 H 41.3527 -2.99057 -0.529036 0
M  V30 431 H 38.9377 -1.48118 -0.195288 0
M  V30 432 H 40.8197 -2.97769 -2.98181 0
M  V30 433 H 39.4947 -1.82161 -2.6758 0
M  V30 434 H 38.4017 -3.56143 -1.14511 0
M  V30 435 H 39.7347 -4.67968 -1.52534 0
M  V30 436 N 41.3868 0.248026 -1.55636 0
M  V30 437 C 42.2968 1.32859 -1.93354 0
M  V30 438 C 43.3128 1.52719 -0.833838 0
M  V30 439 O 44.4888 1.66363 -1.13513 0
M  V30 440 C 41.5538 2.66337 -2.21958 0
M  V30 441 C 40.6148 2.55008 -3.45354 0
M  V30 442 C 39.8478 3.82121 -3.72584 0
M  V30 443 O 40.0708 4.83951 -3.01907 0
M  V30 444 O 39.0048 3.80822 -4.6611 0
M  V30 445 H 42.8308 1.03862 -2.85388 0
M  V30 446 H 40.4158 0.448686 -1.42503 0
M  V30 447 H 42.2978 3.45216 -2.4167 0
M  V30 448 H 40.9728 2.95068 -1.33103 0
M  V30 449 H 39.8798 1.7442 -3.30951 0
M  V30 450 H 41.2128 2.31222 -4.34508 0
M  V30 451 N 42.8649 1.48995 0.513639 0
M  V30 452 C 43.7749 1.67443 1.64317 0
M  V30 453 C 44.7909 0.556947 1.64846 0
M  V30 454 O 45.9669 0.830082 1.83498 0
M  V30 455 C 43.0319 1.72515 3.00732 0
M  V30 456 C 42.0929 2.96009 3.1093 0
M  V30 457 C 41.3259 3.00829 4.40837 0
M  V30 458 O 41.5489 2.13594 5.28898 0
M  V30 459 O 40.4829 3.93168 4.55744 0
M  V30 460 H 44.3089 2.63106 1.51687 0
M  V30 461 H 41.8939 1.32588 0.688543 0
M  V30 462 H 43.7759 1.78277 3.81831 0
M  V30 463 H 42.4509 0.800278 3.13651 0
M  V30 464 H 41.3579 2.9577 2.29065 0
M  V30 465 H 42.6909 3.87934 3.02933 0
M  V30 466 N 44.343 -0.763751 1.37857 0
M  V30 467 C 45.276 -1.88486 1.28639 0
M  V30 468 C 46.254 -1.61757 0.165363 0
M  V30 469 O 47.438 -1.85391 0.340948 0
M  V30 470 C 44.565 -3.23884 0.990811 0
M  V30 471 C 43.611 -3.69514 2.12983 0
M  V30 472 S 44.444 -3.82244 3.75033 0
M  V30 473 C 45.6 -5.20477 3.47641 0
M  V30 474 H 45.833 -1.96017 2.23527 0
M  V30 475 H 43.366 -0.925684 1.23574 0
M  V30 476 H 45.324 -4.02081 0.827101 0
M  V30 477 H 43.985 -3.14044 0.0592832 0
M  V30 478 H 43.178 -4.67696 1.87821 0
M  V30 479 H 42.78 -2.98441 2.25408 0
M  V30 480 H 45.072 -6.05905 3.03125 0
M  V30 481 H 46.015 -5.50655 4.4518 0
M  V30 482 H 46.423 -4.88793 2.82385 0
M  V30 483 N 45.8211 -1.22559 -0.990812 0
M  V30 484 C 46.7511 -1.0218 -2.09956 0
M  V30 485 C 47.7321 0.0579394 -1.70001 0
M  V30 486 O 48.9171 -0.104684 -1.93918 0
M  V30 487 C 46.0471 -0.601023 -3.4206 0
M  V30 488 C 45.0011 -1.62694 -3.95872 0
M  V30 489 C 44.3271 -1.06193 -5.24049 0
M  V30 490 C 45.6271 -3.01743 -4.2632 0
M  V30 491 H 47.3211 -1.94916 -2.27262 0
M  V30 492 H 44.8671 -0.938566 -1.09211 0
M  V30 493 H 46.8201 -0.445561 -4.19038 0
M  V30 494 H 45.5441 0.362005 -3.24588 0
M  V30 495 H 44.2031 -1.77021 -3.21028 0
M  V30 496 H 43.8511 -0.0901903 -5.02919 0
M  V30 497 H 43.5511 -1.74732 -5.61019 0
M  V30 498 H 45.0751 -0.918092 -6.03658 0
M  V30 499 H 46.4891 -2.90777 -4.94087 0
M  V30 500 H 44.8861 -3.67425 -4.74467 0
M  V30 501 H 45.9561 -3.51518 -3.34011 0
M  V30 502 N 47.2992 1.18797 -1.03562 0
M  V30 503 C 48.2092 2.25913 -0.632505 0
M  V30 504 C 49.2252 1.70668 0.338882 0
M  V30 505 O 50.4012 2.00453 0.195076 0
M  V30 506 C 47.4662 3.467 0.00350942 0
M  V30 507 C 46.5272 4.17098 -1.01624 0
M  V30 508 C 45.7602 5.32119 -0.410478 0
M  V30 509 O 45.9832 5.64976 0.784725 0
M  V30 510 O 44.9172 5.9107 -1.13667 0
M  V30 511 H 48.7432 2.62648 -1.52478 0
M  V30 512 H 46.3282 1.25781 -0.806195 0
M  V30 513 H 48.2102 4.19878 0.35781 0
M  V30 514 H 46.8852 3.11798 0.869686 0
M  V30 515 H 45.7922 3.4601 -1.42224 0
M  V30 516 H 47.1252 4.55987 -1.85301 0
M  V30 517 N 48.7773 0.814389 1.34928 0
M  V30 518 C 49.7253 0.218424 2.31572 0
M  V30 519 C 50.7193 -0.636128 1.57002 0
M  V30 520 O 51.9253 -0.52842 1.72069 0
M  V30 521 H 48.3003 0.0518799 0.750208 0
M  V30 522 H 50.2713 1.04852 2.79372 0
M  V30 523 C 49.0203 -0.61207 3.4227 0
M  V30 524 H 48.3433 0.0361578 3.99784 0
M  V30 525 H 49.7833 -0.995317 4.12152 0
M  V30 526 C 48.2423 -1.78087 2.85984 0
M  V30 527 O 48.7723 -2.8787 2.80168 0
M  V30 528 N 46.9783 -1.59488 2.42924 0
M  V30 529 H 46.5253 -0.701874 2.47854 0
M  V30 530 H 46.4833 -2.37846 2.05613 0
M  V30 531 N 50.2554 -1.46986 0.568584 0
M  V30 532 C 51.5014 -2.02741 0.0488709 0
M  V30 533 C 51.8344 -1.44077 -1.30214 0
M  V30 534 O 51.1094 -0.600552 -1.84996 0
M  V30 535 C 51.3924 -3.60086 -0.032047 0
M  V30 536 C 51.2454 -4.29162 1.34686 0
M  V30 537 C 52.5644 -4.33838 -0.739798 0
M  V30 538 H 49.6834 -0.736749 0.0192338 0
M  V30 539 H 52.3254 -1.75289 0.733065 0
M  V30 540 H 50.4754 -3.83606 -0.61473 0
M  V30 541 H 52.1474 -4.16948 1.97362 0
M  V30 542 H 50.3904 -3.89073 1.91846 0
M  V30 543 H 51.0614 -5.37826 1.24285 0
M  V30 544 H 53.5374 -4.15378 -0.244939 0
M  V30 545 H 52.4134 -5.43537 -0.765406 0
M  V30 546 H 52.6744 -4.03875 -1.79827 0
M  V30 547 N 51.7335 -0.305618 -1.54608 0
M  V30 548 C 52.9585 0.307562 -2.05107 0
M  V30 549 C 53.3835 1.46385 -1.18123 0
M  V30 550 O 52.7415 1.8034 -0.186324 0
M  V30 551 C 52.7895 0.73704 -3.52987 0
M  V30 552 O 51.8935 1.84134 -3.6901 0
M  V30 553 H 51.2345 0.0589143 -0.661381 0
M  V30 554 H 53.7645 -0.448807 -1.99617 0
M  V30 555 H 53.7745 1.02459 -3.94925 0
M  V30 556 H 52.4495 -0.108773 -4.15758 0
M  V30 557 H 51.0265 1.55398 -3.38978 0
M  V30 558 N 53.2116 1.57565 -0.0334293 0
M  V30 559 C 54.1416 2.13511 0.945265 0
M  V30 560 C 55.1226 1.05231 1.33643 0
M  V30 561 O 56.3076 1.33084 1.41429 0
M  V30 562 C 53.4376 2.6657 2.22616 0
M  V30 563 C 52.3916 3.79676 1.97561 0
M  V30 564 C 51.7176 4.1918 3.31952 0
M  V30 565 C 53.0176 5.0557 1.31135 0
M  V30 566 H 54.7116 2.95538 0.479325 0
M  V30 567 H 52.2576 1.42166 0.229115 0
M  V30 568 H 54.2106 3.04344 2.91466 0
M  V30 569 H 52.9346 1.8171 2.71384 0
M  V30 570 H 51.5936 3.42347 1.31127 0
M  V30 571 H 51.2416 3.31296 3.78487 0
M  V30 572 H 50.9416 4.95402 3.15992 0
M  V30 573 H 52.4656 4.59541 4.02063 0
M  V30 574 H 53.8796 5.40903 1.89992 0
M  V30 575 H 52.2766 5.86818 1.25559 0
M  V30 576 H 53.3466 4.84062 0.284894 0
M  V30 577 N 54.6897 -0.239769 1.55765 0
M  V30 578 C 55.9357 -0.968234 1.78194 0
M  V30 579 C 56.2687 -1.84701 0.599938 0
M  V30 580 O 55.5437 -1.9031 -0.401524 0
M  V30 581 C 55.8267 -1.8227 3.10564 0
M  V30 582 C 55.6797 -0.971633 4.3918 0
M  V30 583 C 56.9987 -2.80388 3.39221 0
M  V30 584 H 54.1177 -0.350572 0.648281 0
M  V30 585 H 56.7597 -0.238259 1.885 0
M  V30 586 H 54.9097 -2.44507 3.01908 0
M  V30 587 H 56.5817 -0.367408 4.59835 0
M  V30 588 H 54.8247 -0.276276 4.32919 0
M  V30 589 H 55.4957 -1.60346 5.28198 0
M  V30 590 H 57.9717 -2.28287 3.47885 0
M  V30 591 H 56.8477 -3.3729 4.33044 0
M  V30 592 H 57.1087 -3.57212 2.60484 0
M  V30 593 N 56.1678 -1.49265 -0.50573 0
M  V30 594 C 57.4078 -1.60128 -1.27038 0
M  V30 595 C 57.7718 -0.279557 -1.89954 0
M  V30 596 O 58.9728 -0.263329 -2.67507 0
M  V30 597 C 57.2438 -2.72507 -2.31246 0
M  V30 598 S 58.8028 -3.0329 -3.17113 0
M  V30 599 H 55.6208 -0.564863 -0.4318 0
M  V30 600 H 58.2228 -1.86902 -0.573397 0
M  V30 601 H 56.9268 -3.67068 -1.83546 0
M  V30 602 H 56.4578 -2.4771 -3.05619 0
M  V30 603 H 58.4728 -2.44448 -4.31809 0
M  V30 604 N 57.6459 0.756429 -1.3826 0
M  V30 605 C 59.0569 1.33359 -1.30661 0
M  V30 606 C 59.4079 1.96161 0.0388875 0
M  V30 607 O 58.5329 1.94874 0.940918 0
M  V30 608 C 59.1279 2.42477 -2.36622 0
M  V30 609 C 57.6869 2.95922 -2.3261 0
M  V30 610 C 56.8339 1.69275 -2.19639 0
M  V30 611 H 59.7849 0.55552 -1.4866 0
M  V30 612 H 59.8059 3.22345 -2.02174 0
M  V30 613 H 59.3179 1.96739 -3.34538 0
M  V30 614 H 57.4189 3.45996 -1.38267 0
M  V30 615 H 57.5319 3.50494 -3.26636 0
M  V30 616 H 55.8959 1.92793 -1.66442 0
M  V30 617 H 56.6789 1.25619 -3.19491 0
M  V30 618 N 59.124 1.23083 0.984299 0
M  V30 619 C 60.071 1.00854 2.07598 0
M  V30 620 C 61.041 -0.0726709 1.65941 0
M  V30 621 O 62.226 0.0786535 1.90638 0
M  V30 622 C 59.366 0.601645 3.39815 0
M  V30 623 C 58.479 1.75456 3.94765 0
M  V30 624 C 57.614 1.29482 5.15177 0
M  V30 625 C 56.653 2.41873 5.62284 0
M  V30 626 N 55.79 1.96885 6.73929 0
M  V30 627 H 60.63 1.943 2.25946 0
M  V30 628 H 58.167 0.968001 1.10762 0
M  V30 629 H 60.125 0.346854 4.15756 0
M  V30 630 H 58.755 -0.295803 3.21442 0
M  V30 631 H 57.807 2.12346 3.15616 0
M  V30 632 H 59.119 2.59965 4.25699 0
M  V30 633 H 58.273 0.997923 5.98437 0
M  V30 634 H 57.012 0.420046 4.85888 0
M  V30 635 H 56.017 2.72342 4.77608 0
M  V30 636 H 57.242 3.29881 5.93595 0
M  V30 637 H 55.188 1.11782 6.46406 0
M  V30 638 H 55.105 2.74956 7.04227 0
M  V30 639 H 56.373 1.70289 7.60672 0
M  V30 640 N 60.6021 -1.18246 1.0419 0
M  V30 641 C 61.8791 -1.84121 0.660208 0
M  V30 642 C 62.2591 -1.92778 -0.860221 0
M  V30 643 O 61.6071 -1.45464 -1.76217 0
M  V30 644 C 61.8171 -3.22355 1.33747 0
M  V30 645 C 63.1651 -3.98376 1.46906 0
M  V30 646 O 64.1891 -3.31799 1.29568 0
M  V30 647 O 63.0481 -5.17665 1.75171 0
M  V30 648 H 60.1421 -0.794036 0.231161 0
M  V30 649 H 62.6881 -1.25628 1.14087 0
M  V30 650 H 61.4601 -3.10964 2.37522 0
M  V30 651 H 61.0831 -3.88506 0.845515 0
M  V30 652 N 62.0802 -0.821533 -1.34494 0
M  V30 653 C 63.0432 -0.247847 -2.27856 0
M  V30 654 C 64.0432 0.573453 -1.50227 0
M  V30 655 O 65.2332 0.389759 -1.69784 0
M  V30 656 C 62.3652 0.652698 -3.34593 0
M  V30 657 H 63.5582 -1.07146 -2.80107 0
M  V30 658 H 61.1112 -0.593291 -1.44602 0
M  V30 659 H 61.8462 1.49943 -2.87555 0
M  V30 660 H 61.6312 0.065292 -3.92046 0
M  V30 661 H 63.1212 1.04793 -4.04238 0
M  V30 662 N 63.5583 1.46682 -0.576371 0
M  V30 663 C 64.7863 2.06798 -0.0649635 0
M  V30 664 C 65.2013 1.42612 1.23723 0
M  V30 665 O 64.5583 0.529203 1.74659 0
M  V30 666 C 64.6093 3.6132 0.114202 0
M  V30 667 O 64.3303 4.23104 -1.13644 0
M  V30 668 C 65.8313 4.38349 0.66069 0
M  V30 669 H 63.0513 0.668778 -0.0545616 0
M  V30 670 H 65.5953 1.88404 -0.795237 0
M  V30 671 H 63.7503 3.79162 0.794673 0
M  V30 672 H 64.1643 5.15894 -0.946253 0
M  V30 673 H 65.6383 5.47081 0.73526 0
M  V30 674 H 66.1153 4.05953 1.67627 0
M  V30 675 H 66.7213 4.25297 0.0152951 0
M  V30 676 N 65.0364 0.313813 1.54444 0
M  V30 677 C 66.4524 -0.0391619 1.59552 0
M  V30 678 C 66.6524 -1.51322 1.33056 0
M  V30 679 O 65.7084 -2.26782 1.11022 0
M  V30 680 C 67.0214 0.370302 2.98411 0
M  V30 681 C 68.5694 0.320139 3.11358 0
M  V30 682 C 69.0444 0.704617 4.52547 0
M  V30 683 N 70.5354 0.657645 4.58508 0
M  V30 684 C 71.2704 0.927453 5.6585 0
M  V30 685 N 70.7664 1.26389 6.81174 0
M  V30 686 N 72.5594 0.853662 5.5558 0
M  V30 687 H 64.7104 1.27433 1.69925 0
M  V30 688 H 66.9734 0.517511 0.794284 0
M  V30 689 H 66.6794 1.39694 3.22767 0
M  V30 690 H 66.5534 -0.269619 3.76235 0
M  V30 691 H 68.9404 -0.697275 2.86744 0
M  V30 692 H 69.0214 0.99486 2.35661 0
M  V30 693 H 68.6654 1.7199 4.77893 0
M  V30 694 H 68.5954 0.00768843 5.26599 0
M  V30 695 H 71.0864 0.409067 3.75679 0
M  V30 696 H 71.3994 1.4554 7.58972 0
M  V30 697 H 69.7444 1.30206 6.82694 0
M  V30 698 H 72.9354 0.590383 4.64362 0
M  V30 699 H 73.1084 1.0673 6.3915 0
M  V30 700 N 66.5145 -1.57545 0.0417849 0
M  V30 701 C 67.7615 -1.92317 -0.634082 0
M  V30 702 C 68.0895 -0.919334 -1.71402 0
M  V30 703 O 67.3445 0.0698253 -1.95575 0
M  V30 704 C 67.6435 -3.33794 -1.27735 0
M  V30 705 C 67.3095 -4.49716 -0.326543 0
M  V30 706 C 65.9715 -4.81156 -0.0648814 0
M  V30 707 C 68.3235 -5.20182 0.325623 0
M  V30 708 C 65.6515 -5.80414 0.856539 0
M  V30 709 C 68.0035 -6.20424 1.23518 0
M  V30 710 C 66.6675 -6.50298 1.5056 0
M  V30 711 H 65.9375 -0.703736 -0.232027 0
M  V30 712 H 68.5845 -1.91205 0.106259 0
M  V30 713 H 66.8895 -3.31228 -2.09274 0
M  V30 714 H 68.5865 -3.57975 -1.80707 0
M  V30 715 H 65.1765 -4.25176 -0.540665 0
M  V30 716 H 69.3605 -4.96112 0.136546 0
M  V30 717 H 64.6165 -6.019 1.07363 0
M  V30 718 H 68.7905 -6.74141 1.74664 0
M  V30 719 H 66.4175 -7.27025 2.22123 0
M  V30 720 N 67.9926 0.231505 -1.5589 0
M  V30 721 C 68.9396 1.28682 -1.91598 0
M  V30 722 C 69.9096 1.47071 -0.771974 0
M  V30 723 O 71.0946 1.60802 -1.027 0
M  V30 724 C 68.2346 2.6342 -2.22944 0
M  V30 725 C 67.3476 2.52912 -3.50228 0
M  V30 726 C 66.4826 3.80106 -3.7107 0
M  V30 727 C 65.5216 3.64279 -4.91902 0
M  V30 728 N 64.6586 4.834 -5.09184 0
M  V30 729 H 69.4986 0.975305 -2.81588 0
M  V30 730 H 67.0356 0.470299 -1.39379 0
M  V30 731 H 68.9936 3.41869 -2.39126 0
M  V30 732 H 67.6236 2.92687 -1.36139 0
M  V30 733 H 66.6756 1.6595 -3.42294 0
M  V30 734 H 67.9876 2.37133 -4.38827 0
M  V30 735 H 67.1416 4.66999 -3.87295 0
M  V30 736 H 65.8806 3.98799 -2.80733 0
M  V30 737 H 64.8856 2.7577 -4.75637 0
M  V30 738 H 66.1106 3.47067 -5.83714 0
M  V30 739 H 64.0566 5.02425 -4.21788 0
M  V30 740 H 63.9736 4.70311 -5.91898 0
M  V30 741 H 65.2416 5.71747 -5.29835 0
M  V30 742 N 69.4707 1.49531 0.497807 0
M  V30 743 C 70.4207 1.62829 1.59596 0
M  V30 744 C 71.4047 0.483824 1.53453 0
M  V30 745 O 72.5967 0.736937 1.60929 0
M  V30 746 C 69.7257 1.7011 2.98191 0
M  V30 747 C 68.8117 2.90144 3.09317 0
M  V30 748 N 69.2027 4.1418 2.90324 0
M  V30 749 C 67.5007 2.88148 3.40422 0
M  V30 750 C 68.2017 4.94886 3.05717 0
M  V30 751 N 67.1777 4.28314 3.34736 0
M  V30 752 H 70.9797 2.56446 1.4357 0
M  V30 753 H 68.4937 1.46347 0.704001 0
M  V30 754 H 70.4907 1.77735 3.77115 0
M  V30 755 H 69.1507 0.776315 3.15283 0
M  V30 756 H 70.1617 4.44109 2.66436 0
M  V30 757 H 66.8387 2.05061 3.63671 0
M  V30 758 H 68.2287 6.03432 2.95499 0
M  V30 759 N 70.9488 -0.749086 1.3866 0
M  V30 760 C 71.8788 -1.8764 1.38973 0
M  V30 761 C 72.8598 -1.68178 0.255004 0
M  V30 762 O 74.0448 -1.88704 0.458754 0
M  V30 763 C 71.1748 -3.25222 1.21851 0
M  V30 764 C 70.1288 -3.59295 2.32575 0
M  V30 765 C 69.4548 -4.95663 2.00555 0
M  V30 766 C 70.7548 -3.63709 3.7485 0
M  V30 767 H 72.4488 -1.87635 2.3331 0
M  V30 768 H 69.9948 -0.901329 1.12303 0
M  V30 769 H 71.9478 -4.03746 1.20695 0
M  V30 770 H 70.6718 -3.25719 0.239775 0
M  V30 771 H 69.3308 -2.83093 2.32925 0
M  V30 772 H 68.9788 -4.92724 1.01154 0
M  V30 773 H 68.6788 -5.19429 2.74714 0
M  V30 774 H 70.2028 -5.7656 2.01024 0
M  V30 775 H 71.6168 -4.32338 3.76506 0
M  V30 776 H 70.0138 -3.98986 4.48252 0
M  V30 777 H 71.0838 -2.63834 4.06841 0
M  V30 778 N 72.4269 -1.23603 -0.977757 0
M  V30 779 C 73.8429 -0.999251 -1.24447 0
M  V30 780 C 74.0429 0.298053 -1.99283 0
M  V30 781 O 73.0989 1.01681 -2.31122 0
M  V30 782 C 74.4119 -2.20784 -2.04144 0
M  V30 783 C 75.9599 -2.25303 -2.17273 0
M  V30 784 C 76.4349 -3.45755 -3.00362 0
M  V30 785 N 77.9259 -3.4601 -3.07947 0
M  V30 786 C 78.6609 -4.35868 -3.72568 0
M  V30 787 N 78.1569 -5.35966 -4.38991 0
M  V30 788 N 79.9499 -4.23605 -3.6948 0
M  V30 789 H 72.1009 -2.06986 -0.476483 0
M  V30 790 H 74.3639 -0.907801 -0.273134 0
M  V30 791 H 74.0699 -3.14945 -1.56533 0
M  V30 792 H 73.9439 -2.22085 -3.04891 0
M  V30 793 H 76.3309 -1.3168 -2.64092 0
M  V30 794 H 76.4119 -2.28033 -1.15907 0
M  V30 795 H 76.0559 -4.39687 -2.5424 0
M  V30 796 H 75.9859 -3.40266 -4.01904 0
M  V30 797 H 78.4769 -2.73588 -2.60688 0
M  V30 798 H 78.7899 -6.00783 -4.86086 0
M  V30 799 H 77.1349 -5.39863 -4.37691 0
M  V30 800 H 80.3259 -3.44647 -3.16759 0
M  V30 801 H 80.4989 -4.93836 -4.1956 0
M  V30 802 N 73.905 1.17692 -1.04816 0
M  V30 803 C 74.852 2.21581 -0.645797 0
M  V30 804 C 75.822 1.62367 0.350159 0
M  V30 805 O 77.007 1.89254 0.242433 0
M  V30 806 C 74.147 3.45092 -0.0227568 0
M  V30 807 C 73.26 4.18613 -1.06709 0
M  V30 808 C 72.395 5.29602 -0.411767 0
M  V30 809 C 71.434 5.94904 -1.44067 0
M  V30 810 N 70.571 6.97414 -0.809781 0
M  V30 811 H 75.411 2.55353 -1.5362 0
M  V30 812 H 72.948 1.25438 -0.768364 0
M  V30 813 H 74.906 4.15679 0.35588 0
M  V30 814 H 73.536 3.11917 0.831122 0
M  V30 815 H 72.588 3.46779 -1.5636 0
M  V30 816 H 73.9 4.63293 -1.84827 0
M  V30 817 H 73.054 6.06696 0.0206623 0
M  V30 818 H 71.793 4.86045 0.401438 0
M  V30 819 H 70.798 5.16544 -1.88316 0
M  V30 820 H 72.023 6.40542 -2.25571 0
M  V30 821 H 69.969 6.55998 -0.0170186 0
M  V30 822 H 69.886 7.40386 -1.52856 0
M  V30 823 H 71.154 7.78463 -0.401999 0
M  V30 824 N 75.3831 0.828654 1.34056 0
M  V30 825 C 76.6131 0.431993 2.02033 0
M  V30 826 C 77.0211 -0.96844 1.62536 0
M  V30 827 O 76.3641 -1.6391 0.829408 0
M  V30 828 C 76.4261 0.461224 3.56529 0
M  V30 829 C 76.0901 1.81599 4.1937 0
M  V30 830 C 77.0871 2.7777 4.39477 0
M  V30 831 C 74.7721 2.10604 4.56017 0
M  V30 832 C 76.7661 4.01115 4.95364 0
M  V30 833 C 74.4531 3.34207 5.11614 0
M  V30 834 C 75.4511 4.2928 5.31232 0
M  V30 835 O 75.1391 5.50699 5.8565 0
M  V30 836 H 74.8711 0.170943 0.654029 0
M  V30 837 H 77.4251 1.11988 1.72185 0
M  V30 838 H 75.6551 -0.283388 3.8566 0
M  V30 839 H 77.3441 0.0838149 4.05813 0
M  V30 840 H 78.1101 2.56659 4.11523 0
M  V30 841 H 73.9891 1.37402 4.40047 0
M  V30 842 H 77.5331 4.75333 5.10592 0
M  V30 843 H 73.4301 3.55179 5.38997 0
M  V30 844 H 74.1981 5.52298 6.04077 0
M  V30 845 N 76.8612 -1.46375 0.584142 0
M  V30 846 C 78.0892 -2.06761 0.0759296 0
M  V30 847 C 78.5042 -1.43266 -1.22965 0
M  V30 848 O 77.8612 -0.538458 -1.74376 0
M  V30 849 C 77.9122 -3.61375 -0.0950384 0
M  V30 850 O 77.6332 -4.22495 1.15887 0
M  V30 851 C 79.1342 -4.38693 -0.637434 0
M  V30 852 H 76.3542 -0.668479 0.0581075 0
M  V30 853 H 78.8982 -1.8798 0.805218 0
M  V30 854 H 77.0532 -3.79578 -0.774554 0
M  V30 855 H 77.4672 -5.15385 0.973598 0
M  V30 856 H 78.9412 -5.47464 -0.706237 0
M  V30 857 H 79.4182 -4.06836 -1.65472 0
M  V30 858 H 80.0242 -4.25299 0.00725967 0
M  V30 859 N 78.3393 -0.321999 -1.54275 0
M  V30 860 C 79.5693 0.282642 -2.04658 0
M  V30 861 C 79.9773 1.46453 -1.19784 0
M  V30 862 O 79.3203 1.82367 -0.220932 0
M  V30 863 C 79.3823 0.781857 -3.50895 0
M  V30 864 C 79.0463 -0.277517 -4.56157 0
M  V30 865 C 80.0433 -1.11307 -5.07845 0
M  V30 866 C 77.7283 -0.425256 -5.00497 0
M  V30 867 C 79.7223 -2.08211 -6.02434 0
M  V30 868 C 77.4093 -1.39771 -5.94901 0
M  V30 869 C 78.4073 -2.2246 -6.45756 0
M  V30 870 O 78.0953 -3.18054 -7.38307 0
M  V30 871 H 77.8273 0.0622636 -0.673126 0
M  V30 872 H 80.3813 -0.465792 -2.00049 0
M  V30 873 H 78.6113 1.58118 -3.52896 0
M  V30 874 H 80.3003 1.30467 -3.84361 0
M  V30 875 H 81.0663 -1.00991 -4.74369 0
M  V30 876 H 76.9453 0.20847 -4.60528 0
M  V30 877 H 80.4893 -2.72791 -6.42052 0
M  V30 878 H 76.3863 -1.50152 -6.27794 0
M  V30 879 H 77.1543 -3.13275 -7.56175 0
M  V30 880 N 79.8174 1.5752 -0.0501392 0
M  V30 881 C 80.7654 2.12651 0.942459 0
M  V30 882 C 81.7594 1.05807 1.32292 0
M  V30 883 O 82.9654 1.24217 1.3027 0
M  V30 884 H 79.3404 0.679673 0.321789 0
M  V30 885 H 81.3114 2.94951 0.452356 0
M  V30 886 C 80.0604 2.68565 2.20836 0
M  V30 887 H 79.3834 3.50439 1.92439 0
M  V30 888 H 80.8234 3.10761 2.8845 0
M  V30 889 C 79.2824 1.62291 2.95234 0
M  V30 890 O 79.8124 1.03508 3.88135 0
M  V30 891 N 78.0184 1.33836 2.57946 0
M  V30 892 H 77.5654 1.81826 1.82475 0
M  V30 893 H 77.5234 0.629595 3.08032 0
M  V30 894 N 81.2955 -0.223234 1.56011 0
M  V30 895 C 82.5255 -0.963413 1.82762 0
M  V30 896 C 82.9335 -1.78516 0.626804 0
M  V30 897 O 82.2765 -1.78974 -0.414014 0
M  V30 898 C 82.3385 -1.93126 3.0322 0
M  V30 899 C 82.0025 -1.2942 4.38291 0
M  V30 900 C 82.9995 -0.684916 5.15369 0
M  V30 901 C 80.6845 -1.30647 4.85012 0
M  V30 902 C 82.6785 -0.0963971 6.37327 0
M  V30 903 C 80.3655 -0.71411 6.06913 0
M  V30 904 C 81.3635 -0.110123 6.82911 0
M  V30 905 O 81.0515 0.47303 8.02507 0
M  V30 906 H 80.7835 -0.288011 0.611576 0
M  V30 907 H 83.3375 -0.244103 2.03944 0
M  V30 908 H 81.5675 -2.68952 2.77852 0
M  V30 909 H 83.2565 -2.53685 3.16857 0
M  V30 910 H 84.0225 -0.667774 4.80381 0
M  V30 911 H 79.9015 -1.76598 4.25833 0
M  V30 912 H 83.4455 0.375657 6.96588 0
M  V30 913 H 79.3425 -0.728659 6.41374 0
M  V30 914 H 80.1105 0.367186 8.17676 0
M  V30 915 N 82.7736 -1.49793 -0.48987 0
M  V30 916 C 83.6836 -1.70036 -1.61632 0
M  V30 917 C 84.6996 -0.583102 -1.63939 0
M  V30 918 O 85.8756 -0.859169 -1.82154 0
M  V30 919 C 82.9406 -1.77277 -2.97949 0
M  V30 920 C 82.0016 -3.00918 -3.06181 0
M  V30 921 C 81.2346 -3.07804 -4.35996 0
M  V30 922 O 81.4576 -2.21982 -5.25433 0
M  V30 923 O 80.3916 -4.00369 -4.49431 0
M  V30 924 H 84.2176 -2.65486 -1.47482 0
M  V30 925 H 81.8026 -1.33666 -0.667362 0
M  V30 926 H 83.6846 -1.84329 -3.78947 0
M  V30 927 H 82.3596 -0.850076 -3.12339 0
M  V30 928 H 81.2666 -2.99377 -2.2433 0
M  V30 929 H 82.5996 -3.92704 -2.96723 0
M  V30 930 N 84.2517 0.741722 -1.39055 0
M  V30 931 C 85.2147 1.83733 -1.37021 0
M  V30 932 C 86.2147 1.58542 -0.268534 0
M  V30 933 O 87.4047 1.66067 -0.526076 0
M  V30 934 C 84.5367 3.2141 -1.13617 0
M  V30 935 H 85.7297 1.86941 -2.34506 0
M  V30 936 H 83.2827 0.944676 -1.24521 0
M  V30 937 H 84.0177 3.23865 -0.167863 0
M  V30 938 H 83.8027 3.4109 -1.93391 0
M  V30 939 H 85.2927 4.01477 -1.14918 0
M  V30 940 N 85.7298 1.2412 0.971189 0
M  V30 941 C 86.6398 1.04747 2.09917 0
M  V30 942 C 87.6558 -0.0107162 1.73997 0
M  V30 943 O 88.8318 0.186714 2.00533 0
M  V30 944 C 85.8968 0.650828 3.40537 0
M  V30 945 C 84.9578 1.7851 3.90426 0
M  V30 946 C 84.1908 1.40729 5.14812 0
M  V30 947 O 84.4138 0.29557 5.69634 0
M  V30 948 O 83.3478 2.23168 5.58999 0
M  V30 949 H 87.1738 1.99304 2.29154 0
M  V30 950 H 84.7588 1.02908 1.08307 0
M  V30 951 H 86.6408 0.440992 4.19086 0
M  V30 952 H 85.3158 -0.265649 3.22608 0
M  V30 953 H 84.2228 2.04966 3.12953 0
M  V30 954 H 85.5558 2.68023 4.12825 0
M  V30 955 N 87.2079 -1.17134 1.05439 0
M  V30 956 C 88.4329 -1.91913 0.786396 0
M  V30 957 C 88.8579 -1.7643 -0.652234 0
M  V30 958 O 88.2159 -1.08372 -1.45345 0
M  V30 959 C 88.2639 -3.40921 1.17497 0
M  V30 960 O 87.3679 -4.11244 0.308589 0
M  V30 961 H 86.7089 -0.598215 0.288158 0
M  V30 962 H 89.2389 -1.48457 1.4079 0
M  V30 963 H 89.2489 -3.91668 1.14281 0
M  V30 964 H 87.9239 -3.5151 2.22292 0
M  V30 965 H 86.5009 -3.70731 0.40157 0
M  V30 966 N 88.686 -0.835752 -1.33615 0
M  V30 967 C 89.911 -0.442389 -2.02627 0
M  V30 968 C 90.336 0.947735 -1.62479 0
M  V30 969 O 89.694 1.61907 -0.815826 0
M  V30 970 C 89.742 -0.567216 -3.56111 0
M  V30 971 O 88.846 0.407799 -4.10379 0
M  V30 972 H 88.187 -0.180278 -0.639059 0
M  V30 973 H 90.717 -1.12972 -1.70583 0
M  V30 974 H 90.727 -0.447708 -4.05536 0
M  V30 975 H 89.402 -1.58103 -3.84677 0
M  V30 976 H 87.979 0.246107 -3.72087 0
M  V30 977 N 90.1641 1.46063 -0.591896 0
M  V30 978 C 91.3891 2.07226 -0.0850314 0
M  V30 979 C 91.8141 1.43625 1.21463 0
M  V30 980 O 91.1721 0.523305 1.73583 0
M  V30 981 C 91.2201 3.60554 0.0576567 0
M  V30 982 O 90.3241 3.97128 1.11188 0
M  V30 983 H 89.6651 0.660615 -0.0669568 0
M  V30 984 H 92.1951 1.8756 -0.81745 0
M  V30 985 H 92.2051 4.07165 0.2609 0
M  V30 986 H 90.8801 4.06235 -0.891416 0
M  V30 987 H 89.4571 3.62213 0.886356 0
M  V30 988 N 91.6422 0.330177 1.54103 0
M  V30 989 C 92.8902 -0.269871 2.0029 0
M  V30 990 C 93.2112 -1.52133 1.21986 0
M  V30 991 O 92.4812 -1.93212 0.323438 0
M  V30 992 H 91.0612 -0.10271 0.739905 0
M  V30 993 H 93.7232 0.448249 1.89675 0
M  V30 994 H 92.8192 -0.52166 3.07709 0
M  V30 995 N 93.1203 -1.57491 0.0584922 0
M  V30 996 C 94.3663 -1.93264 -0.614558 0
M  V30 997 C 94.6993 -0.937717 -1.7006 0
M  V30 998 O 93.9743 0.0351652 -1.94468 0
M  V30 999 C 94.2573 -3.3938 -1.20386 0
M  V30 1000 C 94.1103 -4.49625 -0.125375 0
M  V30 1001 C 95.4293 -3.86039 -2.11334 0
M  V30 1002 H 92.5483 -0.702791 -0.221933 0
M  V30 1003 H 95.1903 -1.8961 0.12175 0
M  V30 1004 H 93.3403 -3.42626 -1.83139 0
M  V30 1005 H 95.0123 -4.58506 0.506971 0
M  V30 1006 H 93.2553 -4.30354 0.545672 0
M  V30 1007 H 93.9263 -5.48967 -0.577861 0
M  V30 1008 H 96.4023 -3.84716 -1.58534 0
M  V30 1009 H 95.2783 -4.88914 -2.49507 0
M  V30 1010 H 95.5393 -3.23215 -3.01636 0
M  V30 1011 N 94.5984 0.214957 -1.56127 0
M  V30 1012 C 96.0094 0.781386 -1.69562 0
M  V30 1013 C 96.3604 1.84707 -0.66165 0
M  V30 1014 O 95.4854 2.156 0.185927 0
M  V30 1015 C 96.0804 1.42411 -3.07416 0
M  V30 1016 C 94.6394 1.93786 -3.22683 0
M  V30 1017 C 93.7864 0.800438 -2.65496 0
M  V30 1018 H 96.7374 -0.00980633 -1.58697 0
M  V30 1019 H 96.7584 2.29309 -3.0364 0
M  V30 1020 H 96.2704 0.64826 -3.82648 0
M  V30 1021 H 94.3714 2.74152 -2.52332 0
M  V30 1022 H 94.4844 2.1133 -4.29973 0
M  V30 1023 H 92.8484 1.2095 -2.2415 0
M  V30 1024 H 93.6314 0.0371471 -3.4328 0
M  V30 1025 N 96.0765 1.50051 0.48192 0
M  V30 1026 C 97.3245 1.60181 1.23234 0
M  V30 1027 C 97.6455 0.299176 1.92691 0
M  V30 1028 O 96.9155 -0.682708 1.83619 0
M  V30 1029 H 95.4955 0.590232 0.457859 0
M  V30 1030 H 98.1575 1.86775 0.556881 0
M  V30 1031 H 97.2535 2.40753 1.98607 0
M  V30 1032 N 97.5546 -0.734337 1.39446 0
M  V30 1033 C 98.7826 -1.52358 1.39981 0
M  V30 1034 C 99.1976 -1.88799 -0.0054975 0
M  V30 1035 O 98.5546 -1.54146 -0.976998 0
M  V30 1036 C 98.6056 -2.81072 2.27333 0
M  V30 1037 O 98.3266 -2.46178 3.62392 0
M  V30 1038 C 99.8276 -3.75096 2.36259 0
M  V30 1039 H 97.0476 -0.470806 0.478103 0
M  V30 1040 H 99.5916 -0.907339 1.83269 0
M  V30 1041 H 97.7466 -3.39026 1.87457 0
M  V30 1042 H 98.1606 -3.28866 4.08592 0
M  V30 1043 H 99.6346 -4.62305 3.01626 0
M  V30 1044 H 100.112 -4.16892 1.38194 0
M  V30 1045 H 100.718 -3.23061 2.76608 0
M  V30 1046 N 99.0327 -1.24633 -0.964593 0
M  V30 1047 C 99.9957 -1.0424 -2.04124 0
M  V30 1048 C 100.996 0.00137563 -1.608 0
M  V30 1049 O 102.186 -0.239883 -1.7254 0
M  V30 1050 C 99.3177 -0.580588 -3.3592 0
M  V30 1051 H 100.511 -1.99803 -2.23649 0
M  V30 1052 H 98.0637 -1.06899 -1.14027 0
M  V30 1053 H 98.7987 0.3781 -3.22088 0
M  V30 1054 H 98.5837 -1.33398 -3.6871 0
M  V30 1055 H 100.074 -0.459034 -4.15069 0
M  V30 1056 N 100.511 1.16574 -1.06058 0
M  V30 1057 C 101.788 1.83048 -0.689416 0
M  V30 1058 C 102.168 1.94122 0.829443 0
M  V30 1059 O 101.516 1.48249 1.7388 0
M  V30 1060 C 101.726 3.20186 -1.38859 0
M  V30 1061 C 103.074 3.95989 -1.53226 0
M  V30 1062 O 104.098 3.29696 -1.3483 0
M  V30 1063 O 102.957 5.14813 -1.83384 0
M  V30 1064 H 100.051 0.790258 -0.243764 0
M  V30 1065 H 102.597 1.23797 -1.16071 0
M  V30 1066 H 101.369 3.07146 -2.4244 0
M  V30 1067 H 100.992 3.87112 -0.907216 0
M  V30 1068 N 101.989 0.842826 1.3317 0
M  V30 1069 C 103.214 0.453129 2.02389 0
M  V30 1070 C 103.639 -0.939105 1.6298 0
M  V30 1071 O 102.997 -1.61472 0.8244 0
M  V30 1072 C 103.045 0.586094 3.55805 0
M  V30 1073 O 102.149 -0.386029 4.10589 0
M  V30 1074 H 101.49 0.183664 0.638094 0
M  V30 1075 H 104.02 1.13875 1.69981 0
M  V30 1076 H 104.03 0.469209 4.05293 0
M  V30 1077 H 102.705 1.6014 3.83833 0
M  V30 1078 H 101.282 -0.226371 3.72212 0
M  V30 1079 N 103.467 -1.45747 0.599634 0
M  V30 1080 C 104.883 -1.57424 0.26264 0
M  V30 1081 C 105.083 -1.59222 -1.23493 0
M  V30 1082 O 104.139 -1.51825 -2.01756 0
M  V30 1083 C 105.452 -2.86061 0.926795 0
M  V30 1084 C 107 -2.99722 0.901967 0
M  V30 1085 C 107.475 -4.31119 1.54598 0
M  V30 1086 N 108.966 -4.37858 1.5111 0
M  V30 1087 C 109.701 -5.3818 1.97863 0
M  V30 1088 N 109.197 -6.45083 2.52666 0
M  V30 1089 N 110.99 -5.29487 1.88679 0
M  V30 1090 H 103.141 -1.42823 1.57211 0
M  V30 1091 H 105.404 -0.68235 0.658105 0
M  V30 1092 H 105.11 -2.90605 1.98095 0
M  V30 1093 H 104.984 -3.74563 0.445238 0
M  V30 1094 H 107.371 -2.9475 -0.143617 0
M  V30 1095 H 107.452 -2.12652 1.42171 0
M  V30 1096 H 107.096 -4.36849 2.59085 0
M  V30 1097 H 107.026 -5.16992 1.00132 0
M  V30 1098 H 109.517 -3.61209 1.11068 0
M  V30 1099 H 109.83 -7.17869 2.86155 0
M  V30 1100 H 108.175 -6.45856 2.56701 0
M  V30 1101 H 111.366 -4.44877 1.4561 0
M  V30 1102 H 111.539 -6.07524 2.25429 0
M  V30 1103 N 104.945 -0.338344 -1.53925 0
M  V30 1104 C 106.17 0.263987 -2.05713 0
M  V30 1105 C 106.595 1.43847 -1.21201 0
M  V30 1106 O 105.953 1.79904 -0.224535 0
M  V30 1107 C 106.001 0.662 -3.54471 0
M  V30 1108 O 105.105 1.76265 -3.72833 0
M  V30 1109 H 104.446 0.0448722 -0.662482 0
M  V30 1110 H 106.976 -0.491048 -1.9862 0
M  V30 1111 H 106.986 0.940594 -3.9701 0
M  V30 1112 H 105.661 -0.196937 -4.15433 0
M  V30 1113 H 104.238 1.48173 -3.42198 0
M  V30 1114 N 106.423 1.57458 -0.0668435 0
M  V30 1115 C 107.386 2.11323 0.887422 0
M  V30 1116 C 108.386 1.03618 1.22964 0
M  V30 1117 O 109.576 1.29626 1.16373 0
M  V30 1118 C 106.708 2.61048 2.19242 0
M  V30 1119 H 107.901 2.96942 0.420194 0
M  V30 1120 H 105.454 1.55239 0.181793 0
M  V30 1121 H 106.189 1.78868 2.70512 0
M  V30 1122 H 105.974 3.39769 1.95702 0
M  V30 1123 H 107.464 3.02814 2.87565 0
M  V30 1124 N 107.901 -0.206675 1.56239 0
M  V30 1125 C 109.129 -0.945345 1.8404 0
M  V30 1126 C 109.544 -1.77336 0.647885 0
M  V30 1127 O 108.901 -1.78425 -0.383511 0
M  V30 1128 C 108.952 -1.8509 3.10522 0
M  V30 1129 O 108.673 -1.05634 4.25174 0
M  V30 1130 C 110.174 -2.70222 3.51418 0
M  V30 1131 H 107.394 -0.276372 0.61144 0
M  V30 1132 H 109.938 -0.217417 2.03341 0
M  V30 1133 H 108.093 -2.53259 2.93153 0
M  V30 1134 H 108.507 -1.67238 4.97124 0
M  V30 1135 H 109.981 -3.29438 4.42916 0
M  V30 1136 H 110.458 -3.43358 2.73864 0
M  V30 1137 H 111.064 -2.07443 3.71278 0
M  V30 1138 N 109.379 -1.50304 -0.473955 0
M  V30 1139 C 110.795 -1.37667 -0.807466 0
M  V30 1140 C 110.995 -0.430555 -1.96846 0
M  V30 1141 O 110.051 0.127874 -2.52176 0
M  V30 1142 C 111.364 -2.78974 -1.12223 0
M  V30 1143 C 112.912 -2.87868 -1.22885 0
M  V30 1144 C 113.387 -4.30003 -1.57676 0
M  V30 1145 N 114.878 -4.3294 -1.64673 0
M  V30 1146 C 115.613 -5.3991 -1.93091 0
M  V30 1147 N 115.109 -6.57092 -2.1955 0
M  V30 1148 N 116.902 -5.27351 -1.94569 0
M  V30 1149 H 109.053 -2.10394 0.291212 0
M  V30 1150 H 111.316 -0.945575 0.0677609 0
M  V30 1151 H 111.022 -3.50031 -0.342229 0
M  V30 1152 H 110.896 -3.16038 -2.05913 0
M  V30 1153 H 113.283 -2.17032 -1.99953 0
M  V30 1154 H 113.364 -2.54352 -0.271814 0
M  V30 1155 H 113.008 -5.01375 -0.81149 0
M  V30 1156 H 112.938 -4.61004 -2.54525 0
M  V30 1157 H 115.429 -3.48441 -1.46277 0
M  V30 1158 H 115.742 -7.34425 -2.405 0
M  V30 1159 H 114.087 -6.60272 -2.16948 0
M  V30 1160 H 117.278 -4.34801 -1.73394 0
M  V30 1161 H 117.451 -6.10805 -2.16381 0
M  V30 1162 N 110.857 0.726932 -1.39834 0
M  V30 1163 C 112.106 1.48214 -1.36805 0
M  V30 1164 C 112.419 1.95576 0.0305291 0
M  V30 1165 O 113.625 2.7088 0.183417 0
M  V30 1166 C 112.081 2.67854 -2.40379 0
M  V30 1167 C 111.689 2.27408 -3.85992 0
M  V30 1168 C 113.433 3.45641 -2.46439 0
M  V30 1169 C 111.34 3.43819 -4.81189 0
M  V30 1170 H 110.27 0.556606 -0.508631 0
M  V30 1171 H 112.921 0.792216 -1.65518 0
M  V30 1172 H 111.303 3.3896 -2.04749 0
M  V30 1173 H 112.477 1.63795 -4.30706 0
M  V30 1174 H 110.792 1.62692 -3.83302 0
M  V30 1175 H 113.389 4.32244 -3.14753 0
M  V30 1176 H 113.732 3.88669 -1.49139 0
M  V30 1177 H 114.265 2.8157 -2.81004 0
M  V30 1178 H 111.004 3.05834 -5.79781 0
M  V30 1179 H 110.524 4.06385 -4.41148 0
M  V30 1180 H 112.203 4.10043 -5.00474 0
M  V30 1181 N 112.336 1.25143 0.95797 0
M  V30 1182 C 113.284 1.05019 2.07542 0
M  V30 1183 C 114.278 -0.0178751 1.69391 0
M  V30 1184 O 115.484 0.137472 1.79474 0
M  V30 1185 H 111.859 0.32265 0.679265 0
M  V30 1186 H 113.83 1.99759 2.21673 0
M  V30 1187 C 112.579 0.682074 3.40944 0
M  V30 1188 H 111.902 1.49573 3.70767 0
M  V30 1189 H 113.342 0.580945 4.20001 0
M  V30 1190 C 111.801 -0.611608 3.31302 0
M  V30 1191 O 112.331 -1.65465 3.66038 0
M  V30 1192 N 110.537 -0.595982 2.84423 0
M  V30 1193 H 110.084 0.253192 2.56353 0
M  V30 1194 H 110.042 -1.46173 2.78354 0
M  V30 1195 N 113.814 -1.1601 1.06675 0
M  V30 1196 C 115.054 -1.88304 0.795037 0
M  V30 1197 C 115.418 -1.80062 -0.666466 0
M  V30 1198 O 116.619 -2.47319 -1.05293 0
M  V30 1199 C 114.89 -3.33664 1.28076 0
M  V30 1200 S 116.449 -4.23768 1.13868 0
M  V30 1201 H 113.267 -0.649928 0.288296 0
M  V30 1202 H 115.869 -1.4001 1.36445 0
M  V30 1203 H 114.573 -3.37203 2.33927 0
M  V30 1204 H 114.104 -3.87009 0.706253 0
M  V30 1205 H 116.119 -4.96148 0.0719668 0
M  V30 1206 N 115.292 -0.849877 -1.32721 0
M  V30 1207 C 116.239 -0.289033 -2.28983 0
M  V30 1208 C 117.209 0.601324 -1.54833 0
M  V30 1209 O 118.394 0.537253 -1.8308 0
M  V30 1210 C 115.534 0.520623 -3.4115 0
M  V30 1211 C 114.647 -0.394989 -4.3019 0
M  V30 1212 C 113.782 0.426834 -5.29482 0
M  V30 1213 C 112.821 -0.486476 -6.10164 0
M  V30 1214 N 111.958 0.297879 -7.01468 0
M  V30 1215 H 116.798 -1.11519 -2.76347 0
M  V30 1216 H 114.335 -0.56138 -1.35967 0
M  V30 1217 H 116.293 1.00563 -4.04899 0
M  V30 1218 H 114.923 1.31165 -2.9495 0
M  V30 1219 H 113.975 -0.99836 -3.67065 0
M  V30 1220 H 115.287 -1.09612 -4.86607 0
M  V30 1221 H 114.441 0.975205 -5.98811 0
M  V30 1222 H 113.18 1.16136 -4.73671 0
M  V30 1223 H 112.185 -1.04677 -5.39743 0
M  V30 1224 H 113.41 -1.21953 -6.6806 0
M  V30 1225 H 111.356 1.01558 -6.48091 0
M  V30 1226 H 111.273 -0.344318 -7.55216 0
M  V30 1227 H 112.541 0.828131 -7.75089 0
M  V30 1228 N 116.77 1.45427 -0.607355 0
M  V30 1229 C 118.016 2.0254 -0.102607 0
M  V30 1230 C 118.349 1.47478 1.26348 0
M  V30 1231 O 117.624 0.64939 1.83339 0
M  V30 1232 C 117.907 3.60044 -0.0634347 0
M  V30 1233 C 117.76 4.2544 -1.46017 0
M  V30 1234 C 119.079 4.35646 0.624514 0
M  V30 1235 H 116.198 0.73598 -0.0387607 0
M  V30 1236 H 118.84 1.73284 -0.779282 0
M  V30 1237 H 116.99 3.85101 0.512808 0
M  V30 1238 H 118.662 4.11569 -2.08347 0
M  V30 1239 H 116.905 3.83849 -2.02094 0
M  V30 1240 H 117.576 5.34342 -1.385 0
M  V30 1241 H 120.052 4.15882 0.134723 0
M  V30 1242 H 118.928 5.45376 0.621028 0
M  V30 1243 H 119.189 4.08501 1.69055 0
M  V30 1244 N 118.248 0.346503 1.53744 0
M  V30 1245 C 119.158 -0.517293 2.28826 0
M  V30 1246 C 120.174 -1.10935 1.3405 0
M  V30 1247 O 121.35 -1.1244 1.6709 0
M  V30 1248 C 118.415 -1.65098 3.04866 0
M  V30 1249 C 117.476 -1.0884 4.15274 0
M  V30 1250 C 116.709 -2.16806 4.87679 0
M  V30 1251 O 116.932 -3.3758 4.59778 0
M  V30 1252 O 115.866 -1.80934 5.74061 0
M  V30 1253 H 119.692 0.0931396 3.03557 0
M  V30 1254 H 117.277 0.111458 1.48984 0
M  V30 1255 H 119.159 -2.31053 3.5241 0
M  V30 1256 H 117.834 -2.24717 2.32989 0
M  V30 1257 H 116.741 -0.3933 3.72027 0
M  V30 1258 H 118.074 -0.537036 4.89261 0
M  V30 1259 N 119.726 -1.57421 0.075193 0
M  V30 1260 C 120.656 -2.15942 -0.888324 0
M  V30 1261 C 121.637 -1.08737 -1.30806 0
M  V30 1262 O 122.822 -1.36787 -1.37851 0
M  V30 1263 C 119.952 -2.72379 -2.1547 0
M  V30 1264 C 118.906 -3.8478 -1.87425 0
M  V30 1265 C 118.232 -4.27834 -3.20721 0
M  V30 1266 C 119.532 -5.08869 -1.17684 0
M  V30 1267 H 121.226 -2.96705 -0.400799 0
M  V30 1268 H 118.772 -1.42723 -0.191342 0
M  V30 1269 H 120.725 -3.11965 -2.83295 0
M  V30 1270 H 119.449 -1.88841 -2.6647 0
M  V30 1271 H 118.108 -3.45703 -1.22004 0
M  V30 1272 H 117.756 -3.41214 -3.6957 0
M  V30 1273 H 117.456 -5.03605 -3.02746 0
M  V30 1274 H 118.98 -4.70039 -3.89738 0
M  V30 1275 H 120.394 -5.4575 -1.75584 0
M  V30 1276 H 118.791 -5.8994 -1.09956 0
M  V30 1277 H 119.861 -4.84648 -0.156453 0
M  V30 1278 N 121.204 0.198386 -1.56346 0
M  V30 1279 C 122.114 1.2664 -1.97483 0
M  V30 1280 C 123.13 1.49989 -0.882002 0
M  V30 1281 O 124.306 1.62668 -1.18748 0
M  V30 1282 C 121.371 2.59141 -2.30319 0
M  V30 1283 C 120.432 2.43892 -3.53292 0
M  V30 1284 C 119.665 3.70074 -3.84553 0
M  V30 1285 O 119.888 4.74101 -3.1715 0
M  V30 1286 O 118.822 3.658 -4.7799 0
M  V30 1287 H 122.648 0.947304 -2.88548 0
M  V30 1288 H 120.233 0.403123 -1.43859 0
M  V30 1289 H 122.115 3.37352 -2.5253 0
M  V30 1290 H 120.79 2.90684 -1.42423 0
M  V30 1291 H 119.697 1.63803 -3.36332 0
M  V30 1292 H 121.03 2.17282 -4.41644 0
M  V30 1293 N 122.682 1.50554 0.465978 0
M  V30 1294 C 123.928 1.62038 1.21949 0
M  V30 1295 C 124.261 0.322116 1.9151 0
M  V30 1296 O 123.536 -0.676723 1.82348 0
M  V30 1297 C 123.819 2.80421 2.25912 0
M  V30 1298 C 123.672 4.20144 1.60622 0
M  V30 1299 C 124.991 2.94354 3.27176 0
M  V30 1300 H 122.11 0.589752 0.441998 0
M  V30 1301 H 124.752 1.82956 0.51257 0
M  V30 1302 H 122.902 2.62717 2.86203 0
M  V30 1303 H 124.574 4.49449 1.03889 0
M  V30 1304 H 122.817 4.24165 0.909211 0
M  V30 1305 H 123.488 4.98914 2.36196 0
M  V30 1306 H 125.964 3.10578 2.76913 0
M  V30 1307 H 124.84 3.788 3.97242 0
M  V30 1308 H 125.101 2.05186 3.916 0
M  V30 1309 N 124.16 -0.719506 1.40217 0
M  V30 1310 C 125.571 -1.29848 1.34151 0
M  V30 1311 C 125.922 -1.96196 0.0131349 0
M  V30 1312 O 125.047 -1.973 -0.88892 0
M  V30 1313 C 125.642 -2.36118 2.42968 0
M  V30 1314 C 124.201 -2.8965 2.40374 0
M  V30 1315 C 123.348 -1.63393 2.24049 0
M  V30 1316 H 126.299 -0.51591 1.5008 0
M  V30 1317 H 126.32 -3.16871 2.10649 0
M  V30 1318 H 125.832 -1.878 3.39636 0
M  V30 1319 H 123.933 -3.42208 1.47392 0
M  V30 1320 H 124.046 -3.4171 3.35814 0
M  V30 1321 H 122.41 -1.88312 1.71495 0
M  V30 1322 H 123.193 -1.17104 3.2271 0
M  V30 1323 N 125.638 -1.25649 -0.95132 0
M  V30 1324 C 126.57 -1.02112 -2.05197 0
M  V30 1325 C 127.583 0.0150571 -1.62793 0
M  V30 1326 O 128.772 -0.223874 -1.77091 0
M  V30 1327 C 125.872 -0.522361 -3.3485 0
M  V30 1328 C 125.045 -1.62546 -4.06076 0
M  V30 1329 C 124.104 -1.12649 -5.14001 0
M  V30 1330 O 123.13 -1.82156 -5.39266 0
M  V30 1331 N 124.332 0.03047 -5.80492 0
M  V30 1332 H 127.097 -1.96885 -2.25957 0
M  V30 1333 H 124.658 -1.16899 -1.1201 0
M  V30 1334 H 126.65 -0.172961 -4.0433 0
M  V30 1335 H 125.22 0.33151 -3.10837 0
M  V30 1336 H 124.44 -2.14628 -3.30649 0
M  V30 1337 H 125.728 -2.36644 -4.50419 0
M  V30 1338 H 125.126 0.611169 -5.62389 0
M  V30 1339 H 123.683 0.320875 -6.5101 0
M  V30 1340 N 127.117 1.15442 -1.07289 0
M  V30 1341 C 128.047 2.22312 -0.714107 0
M  V30 1342 C 129.028 1.67467 0.298155 0
M  V30 1343 O 130.213 1.93445 0.171048 0
M  V30 1344 C 127.343 3.47124 -0.110448 0
M  V30 1345 C 126.297 4.14926 -1.04979 0
M  V30 1346 C 125.623 5.33807 -0.308924 0
M  V30 1347 C 126.923 4.64762 -2.38314 0
M  V30 1348 H 128.617 2.5258 -1.6076 0
M  V30 1349 H 126.163 1.21404 -0.77441 0
M  V30 1350 H 128.116 4.21124 0.152482 0
M  V30 1351 H 126.84 3.16187 0.81812 0
M  V30 1352 H 125.499 3.42866 -1.29764 0
M  V30 1353 H 125.147 4.99126 0.623084 0
M  V30 1354 H 124.847 5.80113 -0.935036 0
M  V30 1355 H 126.371 6.10576 -0.0537771 0
M  V30 1356 H 127.785 5.30292 -2.1786 0
M  V30 1357 H 126.182 5.21728 -2.96514 0
M  V30 1358 H 127.252 3.80434 -3.00663 0
M  V30 1359 N 128.595 0.856903 1.32268 0
M  V30 1360 C 129.835 0.467705 1.98977 0
M  V30 1361 C 130.199 -0.959231 1.66321 0
M  V30 1362 O 131.4 -1.4531 2.26138 0
M  V30 1363 C 129.671 0.70256 3.50427 0
M  V30 1364 S 131.23 0.411269 4.36868 0
M  V30 1365 H 128.048 0.175121 0.689096 0
M  V30 1366 H 130.65 1.1101 1.60925 0
M  V30 1367 H 129.354 1.74012 3.71683 0
M  V30 1368 H 128.885 0.0466707 3.93372 0
M  V30 1369 H 130.9 -0.761799 4.90317 0
M  V30 1370 N 130.073 -1.45103 0.615059 0
M  V30 1371 C 131.298 -2.07064 0.117988 0
M  V30 1372 C 131.723 -1.4554 -1.19163 0
M  V30 1373 O 131.081 -0.550855 -1.72729 0
M  V30 1374 C 131.129 -3.606 -0.000288387 0
M  V30 1375 O 130.233 -3.98847 -1.04856 0
M  V30 1376 H 129.574 -0.659467 0.0774581 0
M  V30 1377 H 132.104 -1.86236 0.847186 0
M  V30 1378 H 132.114 -4.07529 -0.196091 0
M  V30 1379 H 130.789 -4.04765 0.955932 0
M  V30 1380 H 129.366 -3.63577 -0.828619 0
M  V30 1381 N 131.551 -0.354651 -1.53558 0
M  V30 1382 C 132.798 0.238443 -2.01091 0
M  V30 1383 C 133.126 1.49663 -1.24222 0
M  V30 1384 O 132.381 1.93049 -0.321003 0
M  V30 1385 C 132.68 0.587121 -3.52545 0
M  V30 1386 C 132.346 -0.575472 -4.47213 0
M  V30 1387 C 131.008 -0.894497 -4.72813 0
M  V30 1388 C 133.36 -1.35489 -5.03281 0
M  V30 1389 C 130.688 -1.99511 -5.51736 0
M  V30 1390 C 133.04 -2.44583 -5.83405 0
M  V30 1391 C 131.704 -2.77033 -6.07296 0
M  V30 1392 H 130.974 0.0872526 -0.735845 0
M  V30 1393 H 133.621 -0.484859 -1.8526 0
M  V30 1394 H 131.926 1.39129 -3.66265 0
M  V30 1395 H 133.623 1.05809 -3.86789 0
M  V30 1396 H 130.213 -0.316774 -4.27428 0
M  V30 1397 H 134.397 -1.12167 -4.83459 0
M  V30 1398 H 129.653 -2.25063 -5.68469 0
M  V30 1399 H 133.827 -3.05401 -6.25862 0
M  V30 1400 H 131.454 -3.6244 -6.68237 0
M  V30 1401 N 133.029 1.57378 -0.0835403 0
M  V30 1402 C 134.278 1.93106 0.582498 0
M  V30 1403 C 134.591 0.96651 1.70053 0
M  V30 1404 O 135.797 1.21705 2.42693 0
M  V30 1405 C 134.253 3.43076 1.08751 0
M  V30 1406 C 133.861 4.48 -0.000146404 0
M  V30 1407 C 135.605 3.87785 1.72694 0
M  V30 1408 C 133.512 5.89113 0.519568 0
M  V30 1409 H 132.442 0.720775 0.221358 0
M  V30 1410 H 135.093 1.82821 -0.157675 0
M  V30 1411 H 133.475 3.48474 1.88101 0
M  V30 1412 H 134.649 4.54233 -0.775199 0
M  V30 1413 H 132.964 4.1283 -0.54406 0
M  V30 1414 H 135.561 4.90604 2.1263 0
M  V30 1415 H 135.904 3.25796 2.59158 0
M  V30 1416 H 136.437 3.8504 0.999457 0
M  V30 1417 H 133.176 6.54775 -0.308186 0
M  V30 1418 H 132.696 5.86376 1.26188 0
M  V30 1419 H 134.375 6.39346 0.992237 0
M  V30 1420 N 134.507 -0.190092 1.56449 0
M  V30 1421 C 135.437 -1.23816 1.97969 0
M  V30 1422 C 136.418 -1.47201 0.852395 0
M  V30 1423 O 137.603 -1.58854 1.1171 0
M  V30 1424 C 134.733 -2.5813 2.3235 0
M  V30 1425 C 133.687 -2.49348 3.47864 0
M  V30 1426 C 133.013 -3.8798 3.67934 0
M  V30 1427 C 134.313 -2.01424 4.81898 0
M  V30 1428 H 136.007 -0.89311 2.85769 0
M  V30 1429 H 133.553 -0.428177 1.37487 0
M  V30 1430 H 135.506 -3.31637 2.59991 0
M  V30 1431 H 134.23 -2.94386 1.41438 0
M  V30 1432 H 132.889 -1.78297 3.20321 0
M  V30 1433 H 132.537 -4.21597 2.74344 0
M  V30 1434 H 132.237 -3.82978 4.45648 0
M  V30 1435 H 133.761 -4.63101 3.97957 0
M  V30 1436 H 135.175 -2.64693 5.08538 0
M  V30 1437 H 133.572 -2.07413 5.63116 0
M  V30 1438 H 134.642 -0.967677 4.75146 0
M  V30 1439 N 135.985 -1.50799 -0.457987 0
M  V30 1440 C 136.932 -1.70617 -1.5543 0
M  V30 1441 C 137.902 -0.547562 -1.56815 0
M  V30 1442 O 139.087 -0.779647 -1.74144 0
M  V30 1443 C 136.227 -1.81831 -2.93311 0
M  V30 1444 C 135.34 -3.09278 -3.01615 0
M  V30 1445 C 134.475 -3.11209 -4.30491 0
M  V30 1446 C 133.514 -4.33055 -4.32585 0
M  V30 1447 N 132.651 -4.32652 -5.52952 0
M  V30 1448 H 137.491 -2.64207 -1.37836 0
M  V30 1449 H 135.028 -1.30959 -0.669937 0
M  V30 1450 H 136.986 -1.86314 -3.73287 0
M  V30 1451 H 135.616 -0.916685 -3.0951 0
M  V30 1452 H 134.668 -3.14203 -2.1443 0
M  V30 1453 H 135.98 -3.99233 -2.99022 0
M  V30 1454 H 135.134 -3.14494 -5.18824 0
M  V30 1455 H 133.873 -2.19106 -4.35711 0
M  V30 1456 H 132.878 -4.29969 -3.42647 0
M  V30 1457 H 134.103 -5.264 -4.29046 0
M  V30 1458 H 132.049 -3.43409 -5.58933 0
M  V30 1459 H 131.966 -5.16392 -5.52155 0
M  V30 1460 H 133.234 -4.40101 -6.43375 0
M  V30 1461 N 137.463 0.71206 -1.40597 0
M  V30 1462 C 138.691 1.50111 -1.42388 0
M  V30 1463 C 139.106 1.88784 -0.0245395 0
M  V30 1464 O 138.463 1.55681 0.952351 0
M  V30 1465 C 138.514 2.7742 -2.31776 0
M  V30 1466 O 138.235 2.40382 -3.66262 0
M  V30 1467 C 139.736 3.7129 -2.42196 0
M  V30 1468 H 136.956 0.46314 -0.485533 0
M  V30 1469 H 139.5 0.878068 -1.8469 0
M  V30 1470 H 137.655 3.36001 -1.92827 0
M  V30 1471 H 138.069 3.22324 -4.13772 0
M  V30 1472 H 139.543 4.57448 -3.08943 0
M  V30 1473 H 140.02 4.14641 -1.44809 0
M  V30 1474 H 140.626 3.18619 -2.81712 0
M  V30 1475 N 138.941 1.26152 0.944643 0
M  V30 1476 C 140.166 1.14363 1.7302 0
M  V30 1477 C 140.591 -0.29772 1.85729 0
M  V30 1478 O 139.949 -1.2157 1.34501 0
M  V30 1479 C 139.997 1.81378 3.11664 0
M  V30 1480 O 139.101 1.10022 3.97453 0
M  V30 1481 H 138.442 0.398694 0.53098 0
M  V30 1482 H 140.972 1.66906 1.18337 0
M  V30 1483 H 140.982 1.88064 3.62072 0
M  V30 1484 H 139.657 2.86237 3.0173 0
M  V30 1485 H 138.234 1.11287 3.55907 0
M  V30 1486 N 140.419 -1.14872 1.07899 0
M  V30 1487 C 141.351 -2.19425 0.662231 0
M  V30 1488 C 142.364 -1.60231 -0.288079 0
M  V30 1489 O 143.553 -1.78336 -0.076534 0
M  V30 1490 C 140.653 -3.38867 -0.0470695 0
M  V30 1491 C 139.826 -4.27597 0.920831 0
M  V30 1492 C 138.885 -5.25616 0.247805 0
M  V30 1493 O 137.911 -5.62189 0.890599 0
M  V30 1494 N 139.113 -5.71746 -1.00435 0
M  V30 1495 H 141.878 -2.55797 1.56166 0
M  V30 1496 H 139.439 -1.30042 0.964404 0
M  V30 1497 H 141.431 -4.01497 -0.50813 0
M  V30 1498 H 140.001 -3.00864 -0.848523 0
M  V30 1499 H 139.221 -3.61982 1.56087 0
M  V30 1500 H 140.509 -4.83748 1.57688 0
M  V30 1501 H 139.907 -5.44153 -1.54642 0
M  V30 1502 H 138.464 -6.36389 -1.40899 0
M  V30 1503 N 141.898 -0.863906 -1.31812 0
M  V30 1504 C 143.138 -0.47825 -1.98726 0
M  V30 1505 C 143.502 0.950397 -1.66828 0
M  V30 1506 O 144.703 1.44109 -2.26905 0
M  V30 1507 C 142.974 -0.721134 -3.50049 0
M  V30 1508 S 144.533 -0.434432 -4.36644 0
M  V30 1509 H 141.351 -0.178773 -0.688158 0
M  V30 1510 H 143.953 -1.11862 -1.60334 0
M  V30 1511 H 142.657 -1.75981 -3.70755 0
M  V30 1512 H 142.188 -0.0675315 -3.93342 0
M  V30 1513 H 144.203 0.735786 -4.90714 0
M  V30 1514 N 143.376 1.44774 -0.622745 0
M  V30 1515 C 144.604 2.06487 -0.130722 0
M  V30 1516 C 145.019 1.46476 1.19123 0
M  V30 1517 O 144.376 0.584502 1.72887 0
M  V30 1518 C 144.427 3.615 -0.000807207 0
M  V30 1519 O 144.148 4.19274 -1.27048 0
M  V30 1520 C 145.649 4.40229 0.520898 0
M  V30 1521 H 142.869 0.666704 -0.0758106 0
M  V30 1522 H 145.413 1.85779 -0.854774 0
M  V30 1523 H 143.568 3.81498 0.673643 0
M  V30 1524 H 143.982 5.12622 -1.1099 0
M  V30 1525 H 145.456 5.49144 0.560838 0
M  V30 1526 H 145.933 4.1108 1.54627 0
M  V30 1527 H 146.539 4.25131 -0.120018 0
M  V30 1528 N 144.854 0.36279 1.53368 0
M  V30 1529 C 145.784 -0.476976 2.28576 0
M  V30 1530 C 146.765 -1.08631 1.30894 0
M  V30 1531 O 147.95 -1.10409 1.59761 0
M  V30 1532 C 145.08 -1.61828 3.07293 0
M  V30 1533 C 144.034 -1.13633 4.1264 0
M  V30 1534 C 143.36 -2.36766 4.79423 0
M  V30 1535 C 144.66 -0.223061 5.21823 0
M  V30 1536 H 146.354 0.150474 2.99022 0
M  V30 1537 H 143.9 0.0738103 1.43811 0
M  V30 1538 H 145.853 -2.21237 3.58653 0
M  V30 1539 H 144.577 -2.27292 2.34533 0
M  V30 1540 H 143.236 -0.564945 3.62221 0
M  V30 1541 H 142.884 -3.0068 4.03238 0
M  V30 1542 H 142.584 -2.05192 5.50609 0
M  V30 1543 H 144.108 -2.96865 5.33576 0
M  V30 1544 H 145.522 -0.724545 5.68703 0
M  V30 1545 H 143.919 0.001678 6.001 0
M  V30 1546 H 144.989 0.735553 4.79289 0
M  V30 1547 N 146.332 -1.57332 0.0918853 0
M  V30 1548 C 147.279 -2.13847 -0.868211 0
M  V30 1549 C 148.249 -1.05618 -1.28196 0
M  V30 1550 O 149.434 -1.33387 -1.36427 0
M  V30 1551 C 146.574 -2.72062 -2.12312 0
M  V30 1552 C 145.687 -3.94514 -1.7602 0
M  V30 1553 C 144.822 -4.40903 -2.96273 0
M  V30 1554 C 143.861 -5.55953 -2.56092 0
M  V30 1555 N 142.998 -5.97209 -3.69169 0
M  V30 1556 H 147.838 -2.95575 -0.379406 0
M  V30 1557 H 145.375 -1.46048 -0.175606 0
M  V30 1558 H 147.333 -3.03931 -2.858 0
M  V30 1559 H 145.963 -1.93068 -2.58698 0
M  V30 1560 H 145.015 -3.68979 -0.925135 0
M  V30 1561 H 146.327 -4.7802 -1.42472 0
M  V30 1562 H 145.481 -4.74539 -3.78018 0
M  V30 1563 H 144.22 -3.56291 -3.33029 0
M  V30 1564 H 143.225 -5.21948 -1.72773 0
M  V30 1565 H 144.45 -6.42311 -2.20484 0
M  V30 1566 H 142.396 -5.15543 -4.05649 0
M  V30 1567 H 142.313 -6.75504 -3.39456 0
M  V30 1568 H 143.581 -6.35475 -4.51434 0
M  V30 1569 N 147.81 0.181792 -1.56548 0
M  V30 1570 C 148.72 1.24538 -1.98815 0
M  V30 1571 C 149.736 1.49045 -0.897861 0
M  V30 1572 O 150.912 1.61399 -1.20467 0
M  V30 1573 C 147.977 2.56683 -2.33055 0
M  V30 1574 C 147.038 2.40131 -3.55859 0
M  V30 1575 C 146.271 3.65975 -3.88456 0
M  V30 1576 O 146.494 4.70711 -3.22161 0
M  V30 1577 O 145.428 3.6071 -4.81842 0
M  V30 1578 H 149.254 0.916647 -2.89536 0
M  V30 1579 H 146.839 0.387842 -1.44278 0
M  V30 1580 H 148.721 3.34655 -2.56094 0
M  V30 1581 H 147.396 2.89157 -1.45498 0
M  V30 1582 H 146.303 1.60226 -3.38051 0
M  V30 1583 H 147.636 2.12585 -4.43924 0
M  V30 1584 N 149.288 1.51039 0.449983 0
M  V30 1585 C 150.534 1.63322 1.20223 0
M  V30 1586 C 150.867 0.34241 1.91158 0
M  V30 1587 O 150.142 -0.657344 1.83055 0
M  V30 1588 C 150.425 2.82801 2.22925 0
M  V30 1589 C 150.278 4.21823 1.56157 0
M  V30 1590 C 151.597 2.97807 3.24035 0
M  V30 1591 H 148.716 0.594407 0.435718 0
M  V30 1592 H 151.358 1.83489 0.493136 0
M  V30 1593 H 149.508 2.65738 2.834 0
M  V30 1594 H 151.18 4.50526 0.991162 0
M  V30 1595 H 149.423 4.25105 0.864172 0
M  V30 1596 H 150.094 5.01391 2.30891 0
M  V30 1597 H 152.57 3.13497 2.73603 0
M  V30 1598 H 151.446 3.82992 3.93202 0
M  V30 1599 H 151.707 2.09328 3.89402 0
M  V30 1600 N 150.766 -0.704594 1.40972 0
M  V30 1601 C 151.996 -1.49138 1.42974 0
M  V30 1602 C 152.404 -1.89175 0.0308406 0
M  V30 1603 O 151.747 -1.56734 -0.958138 0
M  V30 1604 C 151.809 -2.79016 2.26694 0
M  V30 1605 C 151.473 -2.61236 3.74973 0
M  V30 1606 C 152.47 -2.27773 4.67349 0
M  V30 1607 C 150.155 -2.77158 4.18914 0
M  V30 1608 C 152.149 -2.10457 6.01653 0
M  V30 1609 C 149.836 -2.59459 5.53285 0
M  V30 1610 C 150.834 -2.26158 6.4447 0
M  V30 1611 O 150.522 -2.08605 7.76363 0
M  V30 1612 H 150.254 -0.466443 0.489292 0
M  V30 1613 H 152.808 -0.8758 1.85793 0
M  V30 1614 H 151.038 -3.42947 1.78673 0
M  V30 1615 H 152.727 -3.40782 2.20504 0
M  V30 1616 H 153.493 -2.15095 4.34694 0
M  V30 1617 H 149.372 -3.02064 3.48251 0
M  V30 1618 H 152.916 -1.84387 6.72791 0
M  V30 1619 H 148.813 -2.71725 5.85522 0
M  V30 1620 H 149.581 -2.23439 7.87412 0
M  V30 1621 N 152.244 -1.26651 -0.937939 0
M  V30 1622 C 153.492 -1.12165 -1.68118 0
M  V30 1623 C 153.813 0.334983 -1.92101 0
M  V30 1624 O 153.083 1.23583 -1.52 0
M  V30 1625 H 151.663 -0.412093 -0.623048 0
M  V30 1626 H 154.325 -1.59027 -1.12678 0
M  V30 1627 H 153.421 -1.64289 -2.6536 0
M  V30 1628 N 153.722 1.14298 -1.08507 0
M  V30 1629 C 154.969 1.85359 -0.815373 0
M  V30 1630 C 155.297 1.83001 0.658865 0
M  V30 1631 O 154.552 1.25655 1.50031 0
M  V30 1632 C 154.851 3.33547 -1.28379 0
M  V30 1633 C 154.517 3.56093 -2.76602 0
M  V30 1634 C 153.179 3.61955 -3.17084 0
M  V30 1635 C 155.531 3.64834 -3.72217 0
M  V30 1636 C 152.859 3.74082 -4.51973 0
M  V30 1637 C 155.211 3.78487 -5.06883 0
M  V30 1638 C 153.875 3.82598 -5.46969 0
M  V30 1639 H 153.145 0.678276 -0.298366 0
M  V30 1640 H 155.792 1.35002 -1.35819 0
M  V30 1641 H 154.097 3.86191 -0.660593 0
M  V30 1642 H 155.794 3.86959 -1.05186 0
M  V30 1643 H 152.384 3.52179 -2.4427 0
M  V30 1644 H 156.568 3.59595 -3.42061 0
M  V30 1645 H 151.824 3.75527 -4.82483 0
M  V30 1646 H 155.998 3.84193 -5.80834 0
M  V30 1647 H 153.625 3.91747 -6.51489 0
M  V30 1648 N 155.201 0.870884 1.31352 0
M  V30 1649 C 156.149 0.316445 2.30437 0
M  V30 1650 C 157.143 -0.568965 1.59559 0
M  V30 1651 O 158.349 -0.454964 1.74155 0
M  V30 1652 H 154.724 0.0836521 0.747333 0
M  V30 1653 H 156.695 1.16606 2.74673 0
M  V30 1654 C 155.444 -0.46635 3.44558 0
M  V30 1655 H 154.767 0.205687 3.99271 0
M  V30 1656 H 156.207 -0.819614 4.16003 0
M  V30 1657 C 154.666 -1.65797 2.9328 0
M  V30 1658 O 155.196 -2.75728 2.92125 0
M  V30 1659 N 153.402 -1.49041 2.4947 0
M  V30 1660 H 152.949 -0.59612 2.50608 0
M  V30 1661 H 152.907 -2.28911 2.15516 0
M  V30 1662 N 156.679 -1.44442 0.630414 0
M  V30 1663 C 158.09 -1.85434 0.217063 0
M  V30 1664 C 158.441 -1.52748 -1.23136 0
M  V30 1665 O 157.566 -0.965205 -1.93682 0
M  V30 1666 C 158.161 -3.36581 0.387168 0
M  V30 1667 C 156.72 -3.76389 0.0283297 0
M  V30 1668 C 155.867 -2.68296 0.700889 0
M  V30 1669 H 158.818 -1.34919 0.83562 0
M  V30 1670 H 158.839 -3.78657 -0.374086 0
M  V30 1671 H 158.351 -3.60339 1.44144 0
M  V30 1672 H 156.452 -3.58246 -1.02423 0
M  V30 1673 H 156.565 -4.77095 0.437892 0
M  V30 1674 H 154.929 -2.54335 0.136267 0
M  V30 1675 H 155.712 -2.94887 1.75774 0
M  V30 1676 N 158.157 -0.370918 -1.53173 0
M  V30 1677 C 159.067 0.480823 -2.2962 0
M  V30 1678 C 160.083 1.08789 -1.35798 0
M  V30 1679 O 161.259 1.09768 -1.68858 0
M  V30 1680 C 158.324 1.60227 -3.07454 0
M  V30 1681 C 157.385 1.0222 -4.16953 0
M  V30 1682 C 156.618 2.0902 -4.91066 0
M  V30 1683 O 156.841 3.30222 -4.65091 0
M  V30 1684 O 155.775 1.71778 -5.76867 0
M  V30 1685 H 159.601 -0.141421 -3.03371 0
M  V30 1686 H 157.186 -0.135146 -1.48787 0
M  V30 1687 H 159.068 2.25417 -3.56041 0
M  V30 1688 H 157.743 2.20982 -2.36535 0
M  V30 1689 H 156.65 0.334064 -3.72605 0
M  V30 1690 H 157.983 0.459131 -4.90054 0
M  V30 1691 N 159.635 1.57281 -0.100228 0
M  V30 1692 C 160.883 1.94153 0.561157 0
M  V30 1693 C 161.204 0.983157 1.68401 0
M  V30 1694 O 160.474 0.0361132 1.95867 0
M  V30 1695 H 159.054 0.716791 0.210283 0
M  V30 1696 H 161.716 1.94202 -0.164765 0
M  V30 1697 H 160.812 2.96709 0.968008 0
M  V30 1698 N 161.113 -0.173488 1.56642 0
M  V30 1699 C 162.06 -1.21482 1.96242 0
M  V30 1700 C 163.03 -1.44104 0.826027 0
M  V30 1701 O 164.215 -1.5688 1.08597 0
M  V30 1702 C 161.355 -2.54964 2.32567 0
M  V30 1703 C 160.468 -2.39739 3.59373 0
M  V30 1704 C 159.603 -3.66072 3.84921 0
M  V30 1705 C 158.642 -3.45771 5.05083 0
M  V30 1706 N 157.779 -4.64169 5.26775 0
M  V30 1707 H 162.619 -0.870123 2.85014 0
M  V30 1708 H 160.156 -0.418245 1.41029 0
M  V30 1709 H 162.114 -3.32758 2.5165 0
M  V30 1710 H 160.744 -2.87433 1.46908 0
M  V30 1711 H 159.796 -1.53131 3.48217 0
M  V30 1712 H 161.108 -2.20683 4.47326 0
M  V30 1713 H 160.262 -4.52303 4.0436 0
M  V30 1714 H 159.001 -3.88105 2.9534 0
M  V30 1715 H 158.006 -2.57927 4.85545 0
M  V30 1716 H 159.231 -3.25163 5.96193 0
M  V30 1717 H 157.177 -4.86425 4.40144 0
M  V30 1718 H 157.094 -4.48019 6.08946 0
M  V30 1719 H 158.362 -5.51689 5.5069 0
M  V30 1720 N 162.591 -1.51276 -0.441967 0
M  V30 1721 C 163.554 -1.7167 -1.51862 0
M  V30 1722 C 164.554 -0.586793 -1.49711 0
M  V30 1723 O 165.744 -0.854276 -1.51815 0
M  V30 1724 C 162.876 -1.76889 -2.91416 0
M  V30 1725 H 164.069 -2.67754 -1.35084 0
M  V30 1726 H 161.622 -1.41196 -0.670333 0
M  V30 1727 H 162.357 -0.826026 -3.13604 0
M  V30 1728 H 162.142 -2.59001 -2.94382 0
M  V30 1729 H 163.632 -1.94522 -3.69528 0
M  V30 1730 N 164.069 0.697108 -1.41344 0
M  V30 1731 C 164.999 1.82353 -1.45841 0
M  V30 1732 C 165.98 1.67115 -0.317247 0
M  V30 1733 O 167.165 1.86871 -0.528474 0
M  V30 1734 C 164.295 3.20476 -1.33838 0
M  V30 1735 C 163.249 3.50415 -2.4575 0
M  V30 1736 C 162.575 4.87878 -2.18813 0
M  V30 1737 C 163.875 3.49546 -3.88091 0
M  V30 1738 H 165.569 1.78846 -2.40113 0
M  V30 1739 H 163.115 0.859028 -1.15571 0
M  V30 1740 H 165.068 3.98988 -1.35596 0
M  V30 1741 H 163.792 3.24604 -0.360498 0
M  V30 1742 H 162.451 2.74253 -2.43271 0
M  V30 1743 H 162.099 4.8863 -1.19371 0
M  V30 1744 H 161.799 5.08875 -2.93803 0
M  V30 1745 H 163.323 5.68702 -2.22284 0
M  V30 1746 H 164.737 4.18066 -3.92293 0
M  V30 1747 H 163.134 3.82075 -4.62751 0
M  V30 1748 H 164.204 2.48552 -4.16353 0
M  V30 1749 N 165.547 1.27147 0.931209 0
M  V30 1750 C 166.477 1.12081 2.04842 0
M  V30 1751 C 167.458 0.0232364 1.70084 0
M  V30 1752 O 168.643 0.197085 1.93197 0
M  V30 1753 C 165.773 0.76354 3.38803 0
M  V30 1754 C 164.727 1.81396 3.87659 0
M  V30 1755 C 164.053 1.31075 5.18385 0
M  V30 1756 C 165.353 3.21739 4.11438 0
M  V30 1757 H 167.047 2.05537 2.17703 0
M  V30 1758 H 164.593 0.989603 1.04608 0
M  V30 1759 H 166.546 0.644982 4.16435 0
M  V30 1760 H 165.27 -0.206727 3.25945 0
M  V30 1761 H 163.929 1.92136 3.12217 0
M  V30 1762 H 163.577 0.330037 5.01916 0
M  V30 1763 H 163.277 2.013 5.52044 0
M  V30 1764 H 164.801 1.20506 5.98591 0
M  V30 1765 H 166.215 3.14019 4.79651 0
M  V30 1766 H 164.612 3.89644 4.56397 0
M  V30 1767 H 165.682 3.67054 3.16859 0
M  V30 1768 N 167.025 -1.13721 1.09112 0
M  V30 1769 C 167.972 -2.19031 0.727591 0
M  V30 1770 C 168.942 -1.63555 -0.289656 0
M  V30 1771 O 170.127 -1.90023 -0.172026 0
M  V30 1772 C 167.267 -3.4477 0.15082 0
M  V30 1773 C 166.38 -4.14365 1.22172 0
M  V30 1774 C 165.515 -5.27709 0.608042 0
M  V30 1775 C 164.554 -5.89147 1.66047 0
M  V30 1776 N 163.691 -6.93929 1.06806 0
M  V30 1777 H 168.531 -2.49475 1.62991 0
M  V30 1778 H 166.068 -1.22499 0.81439 0
M  V30 1779 H 168.026 -4.16714 -0.201358 0
M  V30 1780 H 166.656 -3.14787 -0.714783 0
M  V30 1781 H 165.708 -3.40737 1.69122 0
M  V30 1782 H 167.02 -4.56114 2.01895 0
M  V30 1783 H 166.174 -6.06355 0.204523 0
M  V30 1784 H 164.913 -4.872 -0.220769 0
M  V30 1785 H 163.918 -5.09198 2.07357 0
M  V30 1786 H 165.143 -6.31729 2.49189 0
M  V30 1787 H 163.089 -6.55483 0.260476 0
M  V30 1788 H 163.006 -7.34202 1.8023 0
M  V30 1789 H 164.274 -7.76434 0.690644 0
M  V30 1790 N 168.503 -0.877838 -1.30888 0
M  V30 1791 C 169.45 -0.337538 -2.28318 0
M  V30 1792 C 170.42 0.568346 -1.56074 0
M  V30 1793 O 171.605 0.498298 -1.84178 0
M  V30 1794 C 168.745 0.448142 -3.42178 0
M  V30 1795 C 167.858 -0.48615 -4.29256 0
M  V30 1796 C 166.993 0.314427 -5.30269 0
M  V30 1797 C 166.032 -0.615791 -6.08995 0
M  V30 1798 N 165.169 0.14902 -7.01942 0
M  V30 1799 H 170.009 -1.17356 -2.73919 0
M  V30 1800 H 167.546 -0.590094 -1.34745 0
M  V30 1801 H 169.504 0.919517 -4.06941 0
M  V30 1802 H 168.134 1.24879 -2.97666 0
M  V30 1803 H 167.186 -1.076 -3.64865 0
M  V30 1804 H 168.498 -1.19909 -4.84173 0
M  V30 1805 H 167.652 0.847969 -6.00745 0
M  V30 1806 H 166.391 1.06062 -4.76027 0
M  V30 1807 H 165.396 -1.16102 -5.37401 0
M  V30 1808 H 166.621 -1.36097 -6.65323 0
M  V30 1809 H 164.567 0.877884 -6.50099 0
M  V30 1810 H 164.484 -0.504433 -7.54315 0
M  V30 1811 H 165.752 0.663537 -7.76671 0
M  V30 1812 N 169.982 1.44106 -0.638065 0
M  V30 1813 C 171.21 2.06336 -0.152615 0
M  V30 1814 C 171.625 1.47731 1.17563 0
M  V30 1815 O 170.982 0.602806 1.72257 0
M  V30 1816 C 171.033 3.61479 -0.0391491 0
M  V30 1817 O 170.754 4.17903 -1.31487 0
M  V30 1818 C 172.255 4.40757 0.474176 0
M  V30 1819 H 169.475 0.665862 -0.0828776 0
M  V30 1820 H 172.019 1.84862 -0.87443 0
M  V30 1821 H 170.174 3.82191 0.633142 0
M  V30 1822 H 170.588 5.11416 -1.16421 0
M  V30 1823 H 172.062 5.49707 0.502562 0
M  V30 1824 H 172.539 4.12697 1.50258 0
M  V30 1825 H 173.145 4.24979 -0.165102 0
M  V30 1826 N 171.46 0.379036 1.52974 0
M  V30 1827 C 172.407 -0.461048 2.26148 0
M  V30 1828 C 173.377 -1.06637 1.27349 0
M  V30 1829 O 174.562 -1.09633 1.56157 0
M  V30 1830 C 171.702 -1.58782 3.06402 0
M  V30 1831 C 170.815 -1.00636 4.20115 0
M  V30 1832 C 169.95 -2.10334 4.87784 0
M  V30 1833 C 168.989 -1.49724 5.93506 0
M  V30 1834 N 168.126 -2.5331 6.54812 0
M  V30 1835 H 172.966 0.169429 2.97518 0
M  V30 1836 H 170.503 0.0953806 1.4679 0
M  V30 1837 H 172.461 -2.25174 3.51215 0
M  V30 1838 H 171.091 -2.18876 2.37261 0
M  V30 1839 H 170.143 -0.232332 3.7969 0
M  V30 1840 H 171.455 -0.523343 4.96047 0
M  V30 1841 H 170.609 -2.84519 5.35849 0
M  V30 1842 H 169.348 -2.61992 4.11353 0
M  V30 1843 H 168.353 -0.740598 5.44789 0
M  V30 1844 H 169.578 -0.988732 6.71864 0
M  V30 1845 H 167.524 -3.04156 5.81227 0
M  V30 1846 H 167.441 -2.09734 7.26325 0
M  V30 1847 H 168.709 -3.27155 7.07524 0
M  V30 1848 N 172.938 -1.57226 0.108567 0
M  V30 1849 C 173.886 -2.16002 -0.862885 0
M  V30 1850 C 174.88 -1.10644 -1.28274 0
M  V30 1851 O 176.086 -1.28966 -1.2557 0
M  V30 1852 H 172.461 -0.691148 -0.296342 0
M  V30 1853 H 174.432 -2.96427 -0.342575 0
M  V30 1854 C 173.181 -2.76576 -2.10716 0
M  V30 1855 H 172.504 -3.5734 -1.793 0
M  V30 1856 H 173.944 -3.21253 -2.76717 0
M  V30 1857 C 172.403 -1.73137 -2.89007 0
M  V30 1858 O 172.933 -1.17842 -3.84026 0
M  V30 1859 N 171.139 -1.43317 -2.52801 0
M  V30 1860 H 170.686 -1.88473 -1.75601 0
M  V30 1861 H 170.644 -0.743485 -3.05483 0
M  V30 1862 N 174.416 0.165178 -1.56732 0
M  V30 1863 C 175.641 0.900253 -1.86843 0
M  V30 1864 C 176.066 1.74766 -0.695596 0
M  V30 1865 O 175.424 1.77786 0.35522 0
M  V30 1866 C 175.472 1.74777 -3.15413 0
M  V30 1867 O 174.576 2.85007 -2.98068 0
M  V30 1868 H 173.917 0.251832 -0.614391 0
M  V30 1869 H 176.447 0.161468 -2.03962 0
M  V30 1870 H 176.457 2.14646 -3.46974 0
M  V30 1871 H 175.132 1.12537 -4.00385 0
M  V30 1872 H 173.709 2.48676 -2.77875 0
M  V30 1873 N 175.894 1.51508 0.433938 0
M  V30 1874 C 176.804 1.75917 1.5521 0
M  V30 1875 C 177.82 0.643545 1.61662 0
M  V30 1876 O 178.996 0.926183 1.7884 0
M  V30 1877 C 176.061 1.88213 2.91164 0
M  V30 1878 C 175.122 3.12074 2.94802 0
M  V30 1879 C 174.355 3.23774 4.24271 0
M  V30 1880 O 174.578 2.4133 5.16833 0
M  V30 1881 O 173.512 4.16774 4.34262 0
M  V30 1882 H 177.338 2.70777 1.37527 0
M  V30 1883 H 174.923 1.36051 0.617293 0
M  V30 1884 H 176.805 1.98267 3.71845 0
M  V30 1885 H 175.48 0.965413 3.08968 0
M  V30 1886 H 174.387 3.07497 2.13065 0
M  V30 1887 H 175.72 4.03446 2.81943 0
M  V30 1888 N 177.372 -0.689602 1.41712 0
M  V30 1889 C 178.282 -1.83314 1.46401 0
M  V30 1890 C 179.298 -1.7036 0.35405 0
M  V30 1891 O 180.474 -1.92171 0.602692 0
M  V30 1892 C 177.539 -3.19344 1.34982 0
M  V30 1893 C 176.6 -3.44363 2.56344 0
M  V30 1894 C 175.833 -4.73904 2.45461 0
M  V30 1895 O 176.056 -5.508 1.48241 0
M  V30 1896 O 174.99 -4.99839 3.35328 0
M  V30 1897 H 178.816 -1.82314 2.42889 0
M  V30 1898 H 176.401 -0.843438 1.23315 0
M  V30 1899 H 178.283 -4.00547 1.3092 0
M  V30 1900 H 176.958 -3.21014 0.41612 0
M  V30 1901 H 175.865 -2.63067 2.65982 0
M  V30 1902 H 177.198 -3.47512 3.48563 0
M  V30 1903 N 178.85 -1.27639 -0.924453 0
M  V30 1904 C 180.097 -1.14167 -1.67249 0
M  V30 1905 C 180.425 0.311863 -1.91984 0
M  V30 1906 O 179.68 1.24425 -1.51053 0
M  V30 1907 C 179.979 -1.87407 -3.04325 0
M  V30 1908 C 179.645 -3.37249 -2.99289 0
M  V30 1909 C 178.307 -3.7812 -2.97622 0
M  V30 1910 C 180.659 -4.32845 -2.90336 0
M  V30 1911 C 177.987 -5.12944 -2.8479 0
M  V30 1912 C 180.339 -5.6773 -2.79045 0
M  V30 1913 C 179.003 -6.07889 -2.7573 0
M  V30 1914 H 178.273 -0.417766 -0.612007 0
M  V30 1915 H 180.92 -1.58286 -1.07786 0
M  V30 1916 H 179.225 -1.35805 -3.67511 0
M  V30 1917 H 180.922 -1.74408 -3.61086 0
M  V30 1918 H 177.512 -3.04748 -3.01374 0
M  V30 1919 H 181.696 -4.02239 -2.90719 0
M  V30 1920 H 176.952 -5.432 -2.80612 0
M  V30 1921 H 181.126 -6.41472 -2.71083 0
M  V30 1922 H 178.753 -7.12314 -2.65544 0
M  V30 1923 N 180.328 1.1314 -1.09713 0
M  V30 1924 C 181.291 2.16831 -0.742751 0
M  V30 1925 C 182.291 1.59159 0.229129 0
M  V30 1926 O 183.481 1.74199 0.00693237 0
M  V30 1927 C 180.613 3.40756 -0.0989168 0
M  V30 1928 H 181.806 2.49695 -1.66109 0
M  V30 1929 H 179.359 1.2802 -0.896699 0
M  V30 1930 H 180.094 3.13485 0.830514 0
M  V30 1931 H 179.879 3.83888 -0.798265 0
M  V30 1932 H 181.369 4.17386 0.133524 0
M  V30 1933 N 181.806 0.884767 1.30421 0
M  V30 1934 C 182.769 0.356277 2.26414 0
M  V30 1935 C 183.769 -0.501124 1.52792 0
M  V30 1936 O 184.959 -0.30831 1.7145 0
M  V30 1937 C 182.091 -0.492316 3.37326 0
M  V30 1938 H 183.284 1.20389 2.74675 0
M  V30 1939 H 180.837 0.661607 1.41607 0
M  V30 1940 H 181.572 -1.36052 2.94381 0
M  V30 1941 H 181.357 0.121832 3.91911 0
M  V30 1942 H 182.847 -0.853871 4.08777 0
M  V30 1943 N 183.284 -1.43765 0.645699 0
M  V30 1944 C 184.247 -2.29163 -0.0409488 0
M  V30 1945 C 185.247 -1.41813 -0.757996 0
M  V30 1946 O 186.437 -1.63527 -0.600382 0
M  V30 1947 C 183.569 -3.23716 -1.06869 0
M  V30 1948 H 184.762 -2.91366 0.710345 0
M  V30 1949 H 182.315 -1.5092 0.406547 0
M  V30 1950 H 183.05 -2.66393 -1.84947 0
M  V30 1951 H 182.835 -3.88105 -0.558277 0
M  V30 1952 H 184.325 -3.87831 -1.54845 0
M  V30 1953 N 184.763 -0.387143 -1.52771 0
M  V30 1954 C 185.696 0.493123 -2.22808 0
M  V30 1955 C 186.674 1.0658 -1.22798 0
M  V30 1956 O 187.858 1.11785 -1.51777 0
M  V30 1957 C 184.985 1.68238 -2.93962 0
M  V30 1958 C 184.031 1.23515 -4.08223 0
M  V30 1959 S 184.864 0.21848 -5.35054 0
M  V30 1960 C 186.02 1.41357 -6.09729 0
M  V30 1961 H 186.253 -0.101625 -2.97126 0
M  V30 1962 H 183.786 -0.171323 -1.53447 0
M  V30 1963 H 185.744 2.36443 -3.35567 0
M  V30 1964 H 184.405 2.24842 -2.19328 0
M  V30 1965 H 183.598 2.12304 -4.57103 0
M  V30 1966 H 183.2 0.632044 -3.68621 0
M  V30 1967 H 185.492 2.34101 -6.3577 0
M  V30 1968 H 186.435 0.965736 -7.01484 0
M  V30 1969 H 186.843 1.6294 -5.40473 0
M  V30 1970 N 186.241 1.57166 -0.116904 0
M  V30 1971 C 187.466 1.999 0.55271 0
M  V30 1972 C 187.891 0.996039 1.59564 0
M  V30 1973 O 187.249 -0.032556 1.81271 0
M  V30 1974 C 187.297 3.4152 1.15742 0
M  V30 1975 O 186.401 3.44106 2.27299 0
M  V30 1976 H 185.742 0.649447 0.138258 0
M  V30 1977 H 188.272 2.03573 -0.204759 0
M  V30 1978 H 188.282 3.79684 1.49346 0
M  V30 1979 H 186.957 4.14034 0.393493 0
M  V30 1980 H 185.534 3.17759 1.9515 0
M  V30 1981 N 187.719 -0.156864 1.56817 0
M  V30 1982 C 189.135 -0.50916 1.5126 0
M  V30 1983 C 189.335 -1.83897 0.823658 0
M  V30 1984 O 188.391 -2.49469 0.390055 0
M  V30 1985 C 189.704 -0.52857 2.96018 0
M  V30 1986 C 191.252 -0.614771 3.06903 0
M  V30 1987 C 191.727 -0.664938 4.53147 0
M  V30 1988 N 193.218 -0.727433 4.57452 0
M  V30 1989 C 193.953 -0.787067 5.67973 0
M  V30 1990 N 193.449 -0.806649 6.88088 0
M  V30 1991 N 195.242 -0.827195 5.5598 0
M  V30 1992 H 187.393 0.714935 2.00006 0
M  V30 1993 H 189.656 0.259526 0.911784 0
M  V30 1994 H 189.362 0.380154 3.49639 0
M  V30 1995 H 189.236 -1.36998 3.51442 0
M  V30 1996 H 191.623 -1.51392 2.53307 0
M  V30 1997 H 191.704 0.253597 2.5454 0
M  V30 1998 H 191.348 0.230011 5.07379 0
M  V30 1999 H 191.278 -1.54966 5.03282 0
M  V30 2000 H 193.769 -0.719998 3.70978 0
M  V30 2001 H 194.082 -0.853727 7.6807 0
M  V30 2002 H 192.427 -0.774687 6.90669 0
M  V30 2003 H 195.618 -0.808998 4.61056 0
M  V30 2004 H 195.791 -0.870206 6.4213 0
M  V30 2005 N 189.197 -1.51736 -0.425897 0
M  V30 2006 C 190.427 -1.68549 -1.19476 0
M  V30 2007 C 190.835 -0.387288 -1.85194 0
M  V30 2008 O 190.178 0.645142 -1.71999 0
M  V30 2009 C 190.24 -2.75275 -2.31223 0
M  V30 2010 C 189.904 -4.17534 -1.8578 0
M  V30 2011 C 190.901 -5.01936 -1.35485 0
M  V30 2012 C 188.586 -4.6369 -1.93123 0
M  V30 2013 C 190.58 -6.30559 -0.931347 0
M  V30 2014 C 188.267 -5.92307 -1.50384 0
M  V30 2015 C 189.265 -6.75569 -1.00473 0
M  V30 2016 O 188.953 -8.0178 -0.583452 0
M  V30 2017 H 188.685 -0.568525 -0.365725 0
M  V30 2018 H 191.239 -1.98982 -0.509444 0
M  V30 2019 H 189.469 -2.40182 -3.03067 0
M  V30 2020 H 191.158 -2.80853 -2.93047 0
M  V30 2021 H 191.924 -4.67475 -1.29197 0
M  V30 2022 H 187.803 -3.98997 -2.30916 0
M  V30 2023 H 191.347 -6.95498 -0.541084 0
M  V30 2024 H 187.244 -6.2628 -1.56346 0
M  V30 2025 H 188.012 -8.1543 -0.708275 0
M  V30 2026 N 190.675 0.682077 -1.42076 0
M  V30 2027 C 191.585 1.82535 -1.47371 0
M  V30 2028 C 192.601 1.7017 -0.363079 0
M  V30 2029 O 193.777 1.91848 -0.612875 0
M  V30 2030 C 190.842 3.18624 -1.36674 0
M  V30 2031 C 189.903 3.42999 -2.58167 0
M  V30 2032 C 189.136 4.72595 -2.4797 0
M  V30 2033 O 189.359 5.50006 -1.5116 0
M  V30 2034 O 188.293 4.98054 -3.37974 0
M  V30 2035 H 192.119 1.81023 -2.43853 0
M  V30 2036 H 189.704 0.836887 -1.2376 0
M  V30 2037 H 191.586 3.99847 -1.33043 0
M  V30 2038 H 190.261 3.20789 -0.433138 0
M  V30 2039 H 189.168 2.61653 -2.67373 0
M  V30 2040 H 190.501 3.45659 -3.50401 0
M  V30 2041 N 192.153 1.28127 0.917671 0
M  V30 2042 C 193.083 1.14248 2.03641 0
M  V30 2043 C 194.064 0.0412748 1.7005 0
M  V30 2044 O 195.249 0.217566 1.92977 0
M  V30 2045 C 192.379 0.799431 3.37974 0
M  V30 2046 C 191.333 1.85497 3.85713 0
M  V30 2047 C 190.659 1.36565 5.16966 0
M  V30 2048 C 191.959 3.26085 4.08002 0
M  V30 2049 H 193.653 2.07835 2.15511 0
M  V30 2050 H 191.199 1.00064 1.03553 0
M  V30 2051 H 193.152 0.689114 4.15727 0
M  V30 2052 H 191.876 -0.172145 3.26146 0
M  V30 2053 H 190.535 1.95437 3.10161 0
M  V30 2054 H 190.183 0.383253 5.01538 0
M  V30 2055 H 189.883 2.07143 5.49878 0
M  V30 2056 H 191.407 1.26848 5.97279 0
M  V30 2057 H 192.821 3.19089 4.76293 0
M  V30 2058 H 191.218 3.94462 4.52238 0
M  V30 2059 H 192.288 3.70394 3.12948 0
M  V30 2060 N 193.631 -1.12557 1.10312 0
M  V30 2061 C 194.578 -2.18247 0.750781 0
M  V30 2062 C 195.548 -1.63853 -0.272293 0
M  V30 2063 O 196.733 -1.90195 -0.151862 0
M  V30 2064 C 193.873 -3.44591 0.187379 0
M  V30 2065 C 192.986 -4.13046 1.2656 0
M  V30 2066 C 192.121 -5.27034 0.663978 0
M  V30 2067 C 191.16 -5.87353 1.72287 0
M  V30 2068 N 190.297 -6.92757 1.1416 0
M  V30 2069 H 195.137 -2.47732 1.65628 0
M  V30 2070 H 192.674 -1.21629 0.827337 0
M  V30 2071 H 194.632 -4.16904 -0.157148 0
M  V30 2072 H 193.262 -3.15527 -0.681355 0
M  V30 2073 H 192.314 -3.38924 1.72727 0
M  V30 2074 H 193.626 -4.53947 2.06721 0
M  V30 2075 H 192.78 -6.06104 0.268824 0
M  V30 2076 H 191.519 -4.87407 -0.169082 0
M  V30 2077 H 190.524 -5.06971 2.12746 0
M  V30 2078 H 191.749 -6.29051 2.55875 0
M  V30 2079 H 189.695 -6.5517 0.329984 0
M  V30 2080 H 189.612 -7.3225 1.88007 0
M  V30 2081 H 190.88 -7.75658 0.772956 0
M  V30 2082 N 195.109 -0.891671 -1.2995 0
M  V30 2083 C 196.039 -0.379797 -2.30391 0
M  V30 2084 C 197.02 0.540919 -1.6127 0
M  V30 2085 O 198.205 0.453352 -1.88834 0
M  V30 2086 C 195.335 0.400654 -3.44981 0
M  V30 2087 C 194.289 -0.428905 -4.25846 0
M  V30 2088 C 193.615 0.478557 -5.32554 0
M  V30 2089 C 194.915 -1.67458 -4.94727 0
M  V30 2090 H 196.609 -1.21914 -2.73454 0
M  V30 2091 H 194.155 -0.587675 -1.31462 0
M  V30 2092 H 196.108 0.769434 -4.14316 0
M  V30 2093 H 194.832 1.27371 -3.0074 0
M  V30 2094 H 193.491 -0.779911 -3.58208 0
M  V30 2095 H 193.139 1.34951 -4.84559 0
M  V30 2096 H 192.839 -0.0727433 -5.87555 0
M  V30 2097 H 194.363 0.843705 -6.04743 0
M  V30 2098 H 195.777 -1.376 -5.56542 0
M  V30 2099 H 194.174 -2.16659 -5.59624 0
M  V30 2100 H 195.244 -2.41518 -4.20473 0
M  V30 2101 N 196.587 1.43421 -0.653314 0
M  V30 2102 C 197.55 2.29182 0.0287951 0
M  V30 2103 C 198.55 1.42213 0.750465 0
M  V30 2104 O 199.74 1.63843 0.591701 0
M  V30 2105 C 196.872 3.24278 1.05151 0
M  V30 2106 H 198.065 2.90985 -0.725786 0
M  V30 2107 H 195.618 1.50702 -0.414545 0
M  V30 2108 H 196.353 2.6737 1.83532 0
M  V30 2109 H 196.138 3.88396 0.537687 0
M  V30 2110 H 197.628 3.88647 1.52786 0
M  V30 2111 N 198.065 0.39524 1.52563 0
M  V30 2112 C 199.314 -0.186321 2.00838 0
M  V30 2113 C 199.627 -1.47402 1.28577 0
M  V30 2114 O 200.833 -2.13599 1.67593 0
M  V30 2115 C 199.289 -0.382595 3.57861 0
M  V30 2116 C 198.897 0.892202 4.39026 0
M  V30 2117 C 200.641 -0.9202 4.14406 0
M  V30 2118 C 198.548 0.66388 5.87662 0
M  V30 2119 H 197.478 -0.0734041 0.750418 0
M  V30 2120 H 200.129 0.518552 1.76021 0
M  V30 2121 H 198.511 -1.14946 3.7895 0
M  V30 2122 H 199.685 1.66414 4.29701 0
M  V30 2123 H 198 1.35519 3.9373 0
M  V30 2124 H 200.597 -1.10683 5.23119 0
M  V30 2125 H 200.94 -1.89096 3.70875 0
M  V30 2126 H 201.473 -0.212751 3.97231 0
M  V30 2127 H 198.212 1.6058 6.35527 0
M  V30 2128 H 197.732 -0.0690193 5.9976 0
M  V30 2129 H 199.411 0.300699 6.46301 0
M  V30 2130 N 199.544 -1.57102 0.125237 0
M  V30 2131 C 200.955 -1.82384 -0.399142 0
M  V30 2132 C 201.306 -1.04276 -1.66195 0
M  V30 2133 O 200.431 -0.281269 -2.14564 0
M  V30 2134 C 201.026 -3.30821 -0.730932 0
M  V30 2135 C 199.585 -3.56762 -1.19992 0
M  V30 2136 C 198.732 -2.7649 -0.211792 0
M  V30 2137 H 201.683 -1.54786 0.350277 0
M  V30 2138 H 201.704 -3.4579 -1.58775 0
M  V30 2139 H 201.216 -3.87643 0.188345 0
M  V30 2140 H 199.317 -3.05305 -2.13588 0
M  V30 2141 H 199.43 -4.65317 -1.14093 0
M  V30 2142 H 197.794 -2.4489 -0.700085 0
M  V30 2143 H 198.577 -3.36073 0.700691 0
M  V30 2144 N 201.022 0.148545 -1.56898 0
M  V30 2145 C 201.932 1.20293 -2.01412 0
M  V30 2146 C 202.948 1.47107 -0.929273 0
M  V30 2147 O 204.124 1.58807 -1.23863 0
M  V30 2148 C 201.189 2.51682 -2.38447 0
M  V30 2149 C 200.25 2.32529 -3.60872 0
M  V30 2150 C 199.483 3.57653 -3.96132 0
M  V30 2151 O 199.706 4.63771 -3.32073 0
M  V30 2152 O 198.64 3.50408 -4.89385 0
M  V30 2153 H 202.466 0.855025 -2.91416 0
M  V30 2154 H 200.051 0.357151 -1.45068 0
M  V30 2155 H 201.933 3.29147 -2.63135 0
M  V30 2156 H 200.608 2.86006 -1.51599 0
M  V30 2157 H 199.515 1.53019 -3.41373 0
M  V30 2158 H 200.848 2.03121 -4.48333 0
M  V30 2159 N 202.5 1.5196 0.417844 0
M  V30 2160 C 203.748 1.65263 1.16329 0
M  V30 2161 C 204.069 0.380634 1.91249 0
M  V30 2162 O 203.339 -0.604214 1.86349 0
M  V30 2163 H 201.919 0.60912 0.432414 0
M  V30 2164 H 204.581 1.88969 0.477162 0
M  V30 2165 H 203.677 2.4896 1.88217 0
M  V30 2166 N 203.978 -0.674533 1.42435 0
M  V30 2167 C 204.925 -1.78807 1.45934 0
M  V30 2168 C 205.895 -1.63157 0.311271 0
M  V30 2169 O 207.08 -1.83707 0.515383 0
M  V30 2170 C 204.22 -3.16839 1.36773 0
M  V30 2171 C 203.333 -3.43774 2.61617 0
M  V30 2172 C 202.468 -4.71536 2.44597 0
M  V30 2173 C 201.507 -4.91505 3.64814 0
M  V30 2174 N 200.644 -6.10508 3.46734 0
M  V30 2175 H 205.484 -1.75151 2.41093 0
M  V30 2176 H 203.021 -0.85504 1.19697 0
M  V30 2177 H 204.979 -3.96606 1.29459 0
M  V30 2178 H 203.609 -3.19619 0.452089 0
M  V30 2179 H 202.661 -2.58259 2.79297 0
M  V30 2180 H 203.973 -3.54423 3.50978 0
M  V30 2181 H 203.127 -5.59393 2.3487 0
M  V30 2182 H 201.866 -4.6317 1.52726 0
M  V30 2183 H 200.871 -4.0209 3.74972 0
M  V30 2184 H 202.096 -5.01716 4.57665 0
M  V30 2185 H 200.042 -6.03315 2.5758 0
M  V30 2186 H 199.959 -6.2202 4.29682 0
M  V30 2187 H 201.227 -7.01044 3.40819 0
M  V30 2188 N 205.456 -1.28612 -0.910864 0
M  V30 2189 C 206.388 -1.08589 -2.01844 0
M  V30 2190 C 207.401 -0.0367419 -1.62759 0
M  V30 2191 O 208.59 -0.280101 -1.76289 0
M  V30 2192 C 205.69 -0.628626 -3.33019 0
M  V30 2193 C 204.863 -1.75382 -4.00699 0
M  V30 2194 C 203.922 -1.28945 -5.10156 0
M  V30 2195 O 202.948 -1.9922 -5.33198 0
M  V30 2196 N 204.15 -0.154224 -5.80295 0
M  V30 2197 H 206.915 -2.03973 -2.19579 0
M  V30 2198 H 204.476 -1.20403 -1.08234 0
M  V30 2199 H 206.468 -0.301508 -4.03575 0
M  V30 2200 H 205.038 0.232451 -3.11735 0
M  V30 2201 H 204.258 -2.25039 -3.23653 0
M  V30 2202 H 205.546 -2.50854 -4.42662 0
M  V30 2203 H 204.944 0.43194 -5.64049 0
M  V30 2204 H 203.501 0.113599 -6.51701 0
M  V30 2205 N 206.934 1.1197 -1.10907 0
M  V30 2206 C 208.18 1.8386 -0.855773 0
M  V30 2207 C 208.513 1.84134 0.617103 0
M  V30 2208 O 207.788 1.29041 1.45529 0
M  V30 2209 C 208.071 3.31305 -1.411 0
M  V30 2210 C 207.924 3.39456 -2.9511 0
M  V30 2211 C 209.243 4.2721 -1.05736 0
M  V30 2212 H 206.362 0.667545 -0.312334 0
M  V30 2213 H 209.004 1.31331 -1.37303 0
M  V30 2214 H 207.154 3.76169 -0.97105 0
M  V30 2215 H 208.826 3.03191 -3.47668 0
M  V30 2216 H 207.069 2.79849 -3.31462 0
M  V30 2217 H 207.74 4.43209 -3.29044 0
M  V30 2218 H 210.216 3.90497 -1.43706 0
M  V30 2219 H 209.092 5.28775 -1.47269 0
M  V30 2220 H 209.353 4.42088 0.0325958 0
M  V30 2221 N 208.412 0.89855 1.29475 0
M  V30 2222 C 209.659 0.523882 1.95606 0
M  V30 2223 C 209.987 -0.929608 1.70847 0
M  V30 2224 O 209.242 -1.67401 1.01367 0
M  V30 2225 C 209.541 0.761398 3.49195 0
M  V30 2226 C 209.207 2.19207 3.94029 0
M  V30 2227 C 207.869 2.58326 4.05982 0
M  V30 2228 C 210.221 3.12379 4.17216 0
M  V30 2229 C 207.549 3.898 4.38489 0
M  V30 2230 C 209.901 4.43401 4.51197 0
M  V30 2231 C 208.565 4.82394 4.61359 0
M  V30 2232 H 207.835 0.191702 0.715773 0
M  V30 2233 H 210.482 1.13699 1.54094 0
M  V30 2234 H 208.787 0.0653622 3.91745 0
M  V30 2235 H 210.484 0.450904 3.98457 0
M  V30 2236 H 207.074 1.87846 3.85242 0
M  V30 2237 H 211.258 2.83371 4.07449 0
M  V30 2238 H 206.514 4.19734 4.44559 0
M  V30 2239 H 210.688 5.15623 4.68087 0
M  V30 2240 H 208.315 5.84306 4.86303 0
M  V30 2241 N 209.89 -1.43072 0.660911 0
M  V30 2242 C 210.82 -2.33497 -0.0122829 0
M  V30 2243 C 211.801 -1.49903 -0.803925 0
M  V30 2244 O 212.986 -1.78546 -0.763864 0
M  V30 2245 C 210.116 -3.33363 -0.973994 0
M  V30 2246 C 209.07 -4.27003 -0.291928 0
M  V30 2247 C 208.396 -5.16967 -1.36562 0
M  V30 2248 C 209.696 -5.15816 0.820462 0
M  V30 2249 H 211.39 -2.90038 0.742873 0
M  V30 2250 H 208.936 -1.39461 0.358688 0
M  V30 2251 H 210.889 -3.95524 -1.45392 0
M  V30 2252 H 209.613 -2.75095 -1.7604 0
M  V30 2253 H 208.272 -3.66217 0.167623 0
M  V30 2254 H 207.92 -4.55034 -2.14366 0
M  V30 2255 H 207.62 -5.80441 -0.914454 0
M  V30 2256 H 209.144 -5.82003 -1.84675 0
M  V30 2257 H 210.558 -5.71742 0.422366 0
M  V30 2258 H 208.955 -5.8805 1.19656 0
M  V30 2259 H 210.025 -4.55045 1.67518 0
M  V30 2260 N 211.368 -0.403325 -1.52352 0
M  V30 2261 C 212.598 0.17376 -2.05868 0
M  V30 2262 C 213.006 1.39898 -1.27378 0
M  V30 2263 O 212.349 1.80939 -0.31729 0
M  V30 2264 C 212.411 0.594756 -3.54546 0
M  V30 2265 C 212.075 -0.518926 -4.54044 0
M  V30 2266 C 213.072 -1.3807 -5.01231 0
M  V30 2267 C 210.757 -0.689961 -4.97539 0
M  V30 2268 C 212.751 -2.39852 -5.90551 0
M  V30 2269 C 210.438 -1.71109 -5.86656 0
M  V30 2270 C 211.436 -2.56378 -6.33056 0
M  V30 2271 O 211.124 -3.56743 -7.20409 0
M  V30 2272 H 210.856 0.0264951 -0.675481 0
M  V30 2273 H 213.41 -0.571179 -1.97299 0
M  V30 2274 H 211.64 1.39189 -3.60782 0
M  V30 2275 H 213.329 1.0991 -3.90736 0
M  V30 2276 H 214.095 -1.25994 -4.68349 0
M  V30 2277 H 209.974 -0.035939 -4.60986 0
M  V30 2278 H 213.518 -3.06441 -6.26689 0
M  V30 2279 H 209.415 -1.83218 -6.18952 0
M  V30 2280 H 210.183 -3.52918 -7.38506 0
M  V30 2281 N 212.846 1.57033 -0.133567 0
M  V30 2282 C 214.257 1.82593 0.389464 0
M  V30 2283 C 214.608 1.05156 1.6564 0
M  V30 2284 O 213.733 0.292644 2.14412 0
M  V30 2285 C 214.328 3.31204 0.713377 0
M  V30 2286 C 212.887 3.57393 1.18098 0
M  V30 2287 C 212.034 2.76598 0.197126 0
M  V30 2288 H 214.985 1.54598 -0.358481 0
M  V30 2289 H 215.006 3.46627 1.56939 0
M  V30 2290 H 214.518 3.87537 -0.2089 0
M  V30 2291 H 212.619 3.06433 2.11966 0
M  V30 2292 H 212.732 4.65915 1.11624 0
M  V30 2293 H 211.096 2.45257 0.687088 0
M  V30 2294 H 211.879 3.35697 -0.718504 0
M  V30 2295 N 214.325 -0.140222 1.56975 0
M  V30 2296 C 215.235 -1.19223 2.02047 0
M  V30 2297 C 216.251 -1.46612 0.937062 0
M  V30 2298 O 217.427 -1.58148 1.24704 0
M  V30 2299 C 214.492 -2.50414 2.39778 0
M  V30 2300 C 213.553 -2.30612 3.621 0
M  V30 2301 C 212.786 -3.55547 3.98023 0
M  V30 2302 O 213.009 -4.62004 3.34528 0
M  V30 2303 O 211.943 -3.47808 4.91237 0
M  V30 2304 H 215.769 -0.839559 2.91865 0
M  V30 2305 H 213.354 -0.349453 1.45256 0
M  V30 2306 H 215.236 -3.27747 2.64877 0
M  V30 2307 H 213.911 -2.85198 1.53114 0
M  V30 2308 H 212.818 -1.51207 3.4218 0
M  V30 2309 H 214.151 -2.00741 4.49404 0
M  V30 2310 N 215.803 -1.52179 -0.40978 0
M  V30 2311 C 216.75 -1.75475 -1.49924 0
M  V30 2312 C 217.72 -0.597175 -1.54994 0
M  V30 2313 O 218.905 -0.834655 -1.71575 0
M  V30 2314 C 216.045 -1.9107 -2.87378 0
M  V30 2315 C 215.158 -3.18717 -2.91622 0
M  V30 2316 C 214.293 -3.24747 -4.20372 0
M  V30 2317 C 213.332 -4.46598 -4.18588 0
M  V30 2318 N 212.469 -4.50025 -5.38908 0
M  V30 2319 H 217.309 -2.68458 -1.29361 0
M  V30 2320 H 214.846 -1.33024 -0.627934 0
M  V30 2321 H 216.804 -1.98096 -3.6717 0
M  V30 2322 H 215.434 -1.01469 -3.06437 0
M  V30 2323 H 214.486 -3.20866 -2.04326 0
M  V30 2324 H 215.798 -4.08544 -2.86169 0
M  V30 2325 H 214.952 -3.30841 -5.08556 0
M  V30 2326 H 213.691 -2.32857 -4.28519 0
M  V30 2327 H 212.696 -4.40652 -3.28794 0
M  V30 2328 H 213.921 -5.39783 -4.12081 0
M  V30 2329 H 211.867 -3.61017 -5.47725 0
M  V30 2330 H 211.784 -5.33697 -5.35447 0
M  V30 2331 H 213.052 -4.60347 -6.29048 0
M  V30 2332 N 217.281 0.66697 -1.42791 0
M  V30 2333 C 218.558 1.4234 -1.34159 0
M  V30 2334 C 218.938 2.11093 0.0172729 0
M  V30 2335 O 218.286 2.03808 1.03318 0
M  V30 2336 C 218.496 2.41942 -2.51526 0
M  V30 2337 C 219.844 3.06353 -2.93995 0
M  V30 2338 O 220.868 2.52269 -2.51473 0
M  V30 2339 O 219.727 4.04376 -3.67617 0
M  V30 2340 H 216.821 0.635277 -0.529483 0
M  V30 2341 H 219.367 0.695034 -1.54814 0
M  V30 2342 H 218.139 1.89991 -3.42081 0
M  V30 2343 H 217.762 3.22249 -2.32898 0
M  V30 2344 N 218.759 1.29093 0.90403 0
M  V30 2345 C 219.669 1.15727 2.0407 0
M  V30 2346 C 220.685 0.0815308 1.73809 0
M  V30 2347 O 221.861 0.292749 1.99261 0
M  V30 2348 C 218.926 0.830424 3.36608 0
M  V30 2349 C 217.987 1.98955 3.80415 0
M  V30 2350 C 217.22 1.6782 5.06628 0
M  V30 2351 O 217.443 0.597105 5.67266 0
M  V30 2352 O 216.377 2.52486 5.46383 0
M  V30 2353 H 220.203 2.11171 2.18267 0
M  V30 2354 H 217.788 1.08504 1.027 0
M  V30 2355 H 219.67 0.662521 4.16159 0
M  V30 2356 H 218.345 -0.0942678 3.23563 0
M  V30 2357 H 217.252 2.21267 3.01648 0
M  V30 2358 H 218.585 2.89529 3.98037 0
M  V30 2359 N 220.237 -1.11381 1.11499 0
M  V30 2360 C 221.648 -1.6465 0.880191 0
M  V30 2361 C 221.999 -1.87199 -0.587434 0
M  V30 2362 O 221.124 -1.60667 -1.44966 0
M  V30 2363 C 221.719 -2.99105 1.59128 0
M  V30 2364 C 220.278 -3.49279 1.40289 0
M  V30 2365 C 219.425 -2.24077 1.63354 0
M  V30 2366 H 222.376 -0.950123 1.27116 0
M  V30 2367 H 222.397 -3.66107 1.03664 0
M  V30 2368 H 221.909 -2.82661 2.65941 0
M  V30 2369 H 220.01 -3.70887 0.356888 0
M  V30 2370 H 220.123 -4.2803 2.15238 0
M  V30 2371 H 218.487 -2.31733 1.05698 0
M  V30 2372 H 219.27 -2.10175 2.71443 0
M  V30 2373 N 221.715 -0.905404 -1.28997 0
M  V30 2374 C 222.943 -0.549846 -1.9946 0
M  V30 2375 C 223.358 0.866834 -1.67724 0
M  V30 2376 O 222.715 1.57298 -0.925404 0
M  V30 2377 C 222.766 -0.739387 -3.53858 0
M  V30 2378 O 222.487 -2.10031 -3.84472 0
M  V30 2379 C 223.988 -0.389541 -4.41585 0
M  V30 2380 H 221.208 -0.210429 -0.637151 0
M  V30 2381 H 223.752 -1.21632 -1.64396 0
M  V30 2382 H 221.907 -0.120023 -3.87214 0
M  V30 2383 H 222.321 -2.13385 -4.79132 0
M  V30 2384 H 223.795 -0.572972 -5.49018 0
M  V30 2385 H 224.272 0.673756 -4.34001 0
M  V30 2386 H 224.878 -0.986089 -4.1371 0
M  V30 2387 N 223.193 1.4272 -0.668489 0
M  V30 2388 C 224.423 2.05668 -0.196063 0
M  V30 2389 C 224.831 1.5028 1.14946 0
M  V30 2390 O 224.174 0.6348 1.72383 0
M  V30 2391 C 224.236 3.59469 -0.0468879 0
M  V30 2392 C 223.9 4.37518 -1.32012 0
M  V30 2393 C 224.897 4.68584 -2.25222 0
M  V30 2394 C 222.582 4.77266 -1.56596 0
M  V30 2395 C 224.576 5.38326 -3.41297 0
M  V30 2396 C 222.263 5.4675 -2.72962 0
M  V30 2397 C 223.261 5.77204 -3.65137 0
M  V30 2398 O 222.949 6.45264 -4.79468 0
M  V30 2399 H 222.681 0.669382 -0.0943599 0
M  V30 2400 H 225.235 1.83954 -0.913788 0
M  V30 2401 H 223.465 3.79817 0.726357 0
M  V30 2402 H 225.154 4.04071 0.384852 0
M  V30 2403 H 225.92 4.38382 -2.07477 0
M  V30 2404 H 221.799 4.52959 -0.857249 0
M  V30 2405 H 225.343 5.62014 -4.13263 0
M  V30 2406 H 221.24 5.76369 -2.90635 0
M  V30 2407 H 222.008 6.63753 -4.78931 0
M  V30 2408 N 224.671 0.411399 1.52136 0
M  V30 2409 C 225.92 -0.165009 2.01024 0
M  V30 2410 C 226.233 -1.4603 1.30133 0
M  V30 2411 O 227.439 -2.1181 1.69849 0
M  V30 2412 C 225.895 -0.344618 3.58246 0
M  V30 2413 C 225.503 0.938716 4.38055 0
M  V30 2414 C 227.247 -0.876195 4.15359 0
M  V30 2415 C 225.154 0.726172 5.86925 0
M  V30 2416 H 224.084 -0.0654407 0.751155 0
M  V30 2417 H 226.735 0.537192 1.75461 0
M  V30 2418 H 225.117 -1.10921 3.80148 0
M  V30 2419 H 226.291 1.70963 4.27912 0
M  V30 2420 H 224.606 1.39688 3.92271 0
M  V30 2421 H 227.203 -1.05128 5.24263 0
M  V30 2422 H 227.546 -1.85152 3.7286 0
M  V30 2423 H 228.079 -0.170607 3.97434 0
M  V30 2424 H 224.818 1.67312 6.33788 0
M  V30 2425 H 224.338 -0.00540283 5.998 0
M  V30 2426 H 226.017 0.369231 6.45946 0
M  V30 2427 N 226.149 -1.5696 0.141893 0
M  V30 2428 C 227.079 -2.19516 -0.795936 0
M  V30 2429 C 228.06 -1.14187 -1.26077 0
M  V30 2430 O 229.245 -1.42511 -1.31925 0
M  V30 2431 C 226.375 -2.81272 -2.03723 0
M  V30 2432 C 225.329 -3.92384 -1.70936 0
M  V30 2433 C 224.655 -4.41052 -3.02287 0
M  V30 2434 C 225.955 -5.13403 -0.959954 0
M  V30 2435 H 227.649 -2.98138 -0.274596 0
M  V30 2436 H 225.195 -1.43406 -0.130636 0
M  V30 2437 H 227.148 -3.237 -2.69808 0
M  V30 2438 H 225.872 -1.99973 -2.58221 0
M  V30 2439 H 224.531 -3.50566 -1.07232 0
M  V30 2440 H 224.179 -3.56582 -3.54765 0
M  V30 2441 H 223.879 -5.15993 -2.81114 0
M  V30 2442 H 225.403 -4.86146 -3.69451 0
M  V30 2443 H 226.817 -5.52706 -1.52279 0
M  V30 2444 H 225.214 -5.94073 -0.848357 0
M  V30 2445 H 226.284 -4.84875 0.0492434 0
M  V30 2446 N 227.627 0.131896 -1.57047 0
M  V30 2447 C 228.575 1.18146 -2.0036 0
M  V30 2448 C 229.569 1.43614 -0.898406 0
M  V30 2449 O 230.775 1.43729 -1.08361 0
M  V30 2450 H 227.15 0.398042 -0.638018 0
M  V30 2451 H 229.121 0.789564 -2.87765 0
M  V30 2452 C 227.87 2.50341 -2.41298 0
M  V30 2453 H 227.193 2.31578 -3.25902 0
M  V30 2454 H 228.633 3.22371 -2.75414 0
M  V30 2455 C 227.092 3.11984 -1.27153 0
M  V30 2456 O 227.622 3.97484 -0.580459 0
M  V30 2457 N 225.828 2.71662 -1.03189 0
M  V30 2458 H 225.375 2.02231 -1.59564 0
M  V30 2459 H 225.333 3.13238 -0.270077 0
M  V30 2460 N 229.106 1.52395 0.401703 0
M  V30 2461 C 230.355 1.66044 1.14509 0
M  V30 2462 C 230.668 0.400216 1.91462 0
M  V30 2463 O 231.874 0.416632 2.68284 0
M  V30 2464 C 230.33 2.93388 2.0845 0
M  V30 2465 C 229.938 4.26545 1.36978 0
M  V30 2466 C 231.682 3.16402 2.83001 0
M  V30 2467 C 229.589 5.45007 2.29611 0
M  V30 2468 H 228.519 0.618562 0.431158 0
M  V30 2469 H 231.17 1.78886 0.40892 0
M  V30 2470 H 229.552 2.74263 2.8565 0
M  V30 2471 H 230.726 4.56179 0.650916 0
M  V30 2472 H 229.041 4.09692 0.74438 0
M  V30 2473 H 231.638 4.02085 3.52465 0
M  V30 2474 H 231.981 2.30943 3.46368 0
M  V30 2475 H 232.514 3.36034 2.12898 0
M  V30 2476 H 229.253 6.32835 1.70879 0
M  V30 2477 H 228.773 5.19702 2.9945 0
M  V30 2478 H 230.452 5.7838 2.89974 0
M  V30 2479 N 230.584 -0.659388 1.43143 0
M  V30 2480 C 231.531 -1.77249 1.47822 0
M  V30 2481 C 232.501 -1.62818 0.328558 0
M  V30 2482 O 233.686 -1.83151 0.534838 0
M  V30 2483 C 230.826 -3.15371 1.40126 0
M  V30 2484 C 229.939 -3.4098 2.65249 0
M  V30 2485 C 229.074 -4.68915 2.49584 0
M  V30 2486 C 228.113 -4.87608 3.70006 0
M  V30 2487 N 227.25 -6.06796 3.53189 0
M  V30 2488 H 232.09 -1.72584 2.42938 0
M  V30 2489 H 229.627 -0.842297 1.20598 0
M  V30 2490 H 231.585 -3.9521 1.33659 0
M  V30 2491 H 230.215 -3.19121 0.485964 0
M  V30 2492 H 229.267 -2.55282 2.8202 0
M  V30 2493 H 230.579 -3.50681 3.54717 0
M  V30 2494 H 229.733 -5.56871 2.4079 0
M  V30 2495 H 228.472 -4.61524 1.5763 0
M  V30 2496 H 227.477 -3.9809 3.79215 0
M  V30 2497 H 228.702 -4.96834 4.62961 0
M  V30 2498 H 226.648 -6.00549 2.63965 0
M  V30 2499 H 226.565 -6.17428 4.36255 0
M  V30 2500 H 227.833 -6.9739 3.48236 0
M  V30 2501 N 232.062 -1.29571 -0.897171 0
M  V30 2502 C 233.478 -1.07637 -1.17841 0
M  V30 2503 C 233.678 0.170713 -2.00776 0
M  V30 2504 O 232.734 0.867768 -2.3712 0
M  V30 2505 C 234.047 -2.3332 -1.8969 0
M  V30 2506 C 235.595 -2.38664 -2.02505 0
M  V30 2507 C 236.07 -3.64157 -2.77765 0
M  V30 2508 N 237.561 -3.64894 -2.85318 0
M  V30 2509 C 238.296 -4.58679 -3.44094 0
M  V30 2510 N 237.792 -5.62799 -4.04017 0
M  V30 2511 N 239.585 -4.46245 -3.41793 0
M  V30 2512 H 231.736 -2.09598 -0.343883 0
M  V30 2513 H 233.999 -0.923333 -0.214848 0
M  V30 2514 H 233.705 -3.24262 -1.36187 0
M  V30 2515 H 233.579 -2.41025 -2.9015 0
M  V30 2516 H 235.966 -1.48208 -2.55183 0
M  V30 2517 H 236.047 -2.34943 -1.01171 0
M  V30 2518 H 235.691 -4.54965 -2.25763 0
M  V30 2519 H 235.621 -3.65137 -3.7945 0
M  V30 2520 H 238.112 -2.89613 -2.42761 0
M  V30 2521 H 238.425 -6.3048 -4.46895 0
M  V30 2522 H 236.77 -5.66605 -4.02472 0
M  V30 2523 H 239.961 -3.64094 -2.94199 0
M  V30 2524 H 240.134 -5.19518 -3.87304 0
M  V30 2525 N 233.54 1.10788 -1.12088 0
M  V30 2526 C 234.788 1.8231 -0.872205 0
M  V30 2527 C 235.109 1.85419 0.603709 0
M  V30 2528 O 234.379 1.32963 1.43867 0
M  V30 2529 H 232.959 0.675137 -0.319686 0
M  V30 2530 H 235.621 1.34068 -1.41463 0
M  V30 2531 H 234.717 2.85955 -1.25045 0
M  V30 2532 N 235.018 0.912232 1.28515 0
M  V30 2533 C 236.267 0.540504 1.94323 0
M  V30 2534 C 236.58 -0.920044 1.72611 0
M  V30 2535 O 237.786 -1.39986 2.32629 0
M  V30 2536 C 236.242 0.915803 3.48053 0
M  V30 2537 C 235.85 2.39598 3.78546 0
M  V30 2538 C 237.594 0.614588 4.20027 0
M  V30 2539 C 235.501 2.71148 5.25578 0
M  V30 2540 H 234.431 0.198418 0.727424 0
M  V30 2541 H 237.082 1.11094 1.46049 0
M  V30 2542 H 235.464 0.274168 3.9505 0
M  V30 2543 H 236.638 3.08422 3.42364 0
M  V30 2544 H 234.953 2.66749 3.1974 0
M  V30 2545 H 237.55 0.827002 5.28266 0
M  V30 2546 H 237.893 -0.447531 4.13887 0
M  V30 2547 H 238.426 1.21462 3.78803 0
M  V30 2548 H 235.165 3.76207 5.36794 0
M  V30 2549 H 234.685 2.0696 5.62963 0
M  V30 2550 H 236.364 2.58072 5.93302 0
M  V30 2551 N 236.496 -1.42363 0.676048 0
M  V30 2552 C 237.745 -2.00745 0.196037 0
M  V30 2553 C 238.058 -1.54083 -1.20489 0
M  V30 2554 O 239.264 -2.04891 -1.78134 0
M  V30 2555 C 237.72 -3.58651 0.299616 0
M  V30 2556 C 237.328 -4.143 1.70468 0
M  V30 2557 C 239.072 -4.24326 -0.121619 0
M  V30 2558 C 236.979 -5.64574 1.76096 0
M  V30 2559 H 235.909 -0.750787 0.0695301 0
M  V30 2560 H 238.56 -1.63072 0.841412 0
M  V30 2561 H 236.942 -3.93833 -0.413673 0
M  V30 2562 H 238.116 -3.90575 2.44515 0
M  V30 2563 H 236.431 -3.61081 2.07387 0
M  V30 2564 H 239.028 -5.34607 -0.0997362 0
M  V30 2565 H 239.371 -3.99897 -1.15708 0
M  V30 2566 H 239.904 -3.94108 0.540706 0
M  V30 2567 H 236.643 -5.93804 2.77628 0
M  V30 2568 H 236.163 -5.90286 1.06406 0
M  V30 2569 H 237.842 -6.29013 1.51496 0
M  V30 2570 N 237.974 -0.419461 -1.51915 0
M  V30 2571 C 239.199 0.154572 -2.06823 0
M  V30 2572 C 239.624 1.3722 -1.28656 0
M  V30 2573 O 238.982 1.78461 -0.319583 0
M  V30 2574 C 239.03 0.473172 -3.57482 0
M  V30 2575 O 238.134 1.56255 -3.81652 0
M  V30 2576 H 237.475 0.0096924 -0.663929 0
M  V30 2577 H 240.005 -0.595642 -1.95738 0
M  V30 2578 H 240.015 0.728825 -4.01438 0
M  V30 2579 H 238.69 -0.416873 -4.13805 0
M  V30 2580 H 237.267 1.29825 -3.49571 0
M  V30 2581 N 239.452 1.56882 -0.150215 0
M  V30 2582 C 240.415 2.1573 0.774157 0
M  V30 2583 C 241.415 1.0999 1.17298 0
M  V30 2584 O 242.605 1.35613 1.09338 0
M  V30 2585 C 239.737 2.72302 2.05096 0
M  V30 2586 H 240.93 2.98752 0.262201 0
M  V30 2587 H 238.483 1.55985 0.099248 0
M  V30 2588 H 239.218 1.92956 2.6065 0
M  V30 2589 H 239.003 3.49665 1.77416 0
M  V30 2590 H 240.493 3.17632 2.71109 0
M  V30 2591 N 240.93 -0.123565 1.57115 0
M  V30 2592 C 241.86 -1.15309 2.03042 0
M  V30 2593 C 242.841 -1.43454 0.914061 0
M  V30 2594 O 244.026 -1.53973 1.18347 0
M  V30 2595 C 241.156 -2.48043 2.43089 0
M  V30 2596 C 240.11 -2.3437 3.58127 0
M  V30 2597 C 239.436 -3.72026 3.84059 0
M  V30 2598 C 240.736 -1.80804 4.90007 0
M  V30 2599 H 242.43 -0.771102 2.893 0
M  V30 2600 H 239.976 -0.369479 1.39179 0
M  V30 2601 H 241.929 -3.20311 2.73823 0
M  V30 2602 H 240.653 -2.88122 1.53796 0
M  V30 2603 H 239.312 -1.64551 3.27595 0
M  V30 2604 H 238.96 -4.09582 2.91979 0
M  V30 2605 H 238.66 -3.63732 4.6149 0
M  V30 2606 H 240.184 -4.45806 4.1724 0
M  V30 2607 H 241.598 -2.42886 5.19307 0
M  V30 2608 H 239.995 -1.83343 5.71407 0
M  V30 2609 H 241.065 -0.76528 4.78823 0
M  V30 2610 N 242.408 -1.52605 -0.393616 0
M  V30 2611 C 243.338 -1.80022 -1.48709 0
M  V30 2612 C 244.319 -0.651995 -1.57108 0
M  V30 2613 O 245.504 -0.89913 -1.72132 0
M  V30 2614 C 242.634 -1.96492 -2.86371 0
M  V30 2615 C 241.588 -3.12161 -2.92813 0
M  V30 2616 C 240.914 -3.13877 -4.3288 0
M  V30 2617 C 242.214 -4.51322 -2.6288 0
M  V30 2618 H 243.908 -2.71589 -1.26015 0
M  V30 2619 H 241.454 -1.30684 -0.604778 0
M  V30 2620 H 243.407 -2.14255 -3.62867 0
M  V30 2621 H 242.131 -1.01611 -3.10391 0
M  V30 2622 H 240.79 -2.94173 -2.18764 0
M  V30 2623 H 240.438 -2.16687 -4.53933 0
M  V30 2624 H 240.138 -3.91576 -4.38112 0
M  V30 2625 H 241.662 -3.33789 -5.1129 0
M  V30 2626 H 243.076 -4.69435 -3.29096 0
M  V30 2627 H 241.473 -5.31053 -2.79468 0
M  V30 2628 H 242.543 -4.58353 -1.58242 0
M  V30 2629 N 243.887 0.651787 -1.4349 0
M  V30 2630 C 245.133 1.41376 -1.45398 0
M  V30 2631 C 245.466 1.94041 -0.0784823 0
M  V30 2632 O 244.741 1.72379 0.900878 0
M  V30 2633 C 245.024 2.59414 -2.49752 0
M  V30 2634 C 244.877 2.12232 -3.96582 0
M  V30 2635 C 246.196 3.61626 -2.50827 0
M  V30 2636 H 243.315 0.512719 -0.529422 0
M  V30 2637 H 245.957 0.738796 -1.75048 0
M  V30 2638 H 244.107 3.16997 -2.246 0
M  V30 2639 H 245.779 1.59639 -4.32797 0
M  V30 2640 H 244.022 1.43592 -4.09346 0
M  V30 2641 H 244.693 2.9712 -4.65214 0
M  V30 2642 H 247.169 3.13805 -2.7325 0
M  V30 2643 H 246.045 4.41766 -3.25783 0
M  V30 2644 H 246.306 4.14314 -1.5426 0
M  V30 2645 N 245.365 1.30045 0.890287 0
M  V30 2646 C 246.776 1.16738 1.45702 0
M  V30 2647 C 247.127 -0.233939 1.948 0
M  V30 2648 O 246.252 -1.13021 1.84541 0
M  V30 2649 C 246.847 2.11313 2.64825 0
M  V30 2650 C 245.406 2.02001 3.17604 0
M  V30 2651 C 244.553 2.01699 1.90296 0
M  V30 2652 H 247.504 1.42392 0.700726 0
M  V30 2653 H 247.525 1.69086 3.40867 0
M  V30 2654 H 247.037 3.13294 2.2906 0
M  V30 2655 H 245.138 1.03142 3.5804 0
M  V30 2656 H 245.251 2.90128 3.81264 0
M  V30 2657 H 243.615 1.46427 2.08402 0
M  V30 2658 H 244.398 3.05402 1.56795 0
M  V30 2659 N 246.843 -1.10192 1.12674 0
M  V30 2660 C 248.254 -1.63707 0.897604 0
M  V30 2661 C 248.605 -1.87812 -0.567546 0
M  V30 2662 O 247.73 -1.62196 -1.43253 0
M  V30 2663 C 248.325 -2.974 1.62292 0
M  V30 2664 C 246.884 -3.47772 1.43986 0
M  V30 2665 C 246.031 -2.22332 1.65722 0
M  V30 2666 H 248.982 -0.936587 1.28116 0
M  V30 2667 H 249.003 -3.64986 1.07541 0
M  V30 2668 H 248.515 -2.79824 2.68924 0
M  V30 2669 H 246.616 -3.70487 0.396206 0
M  V30 2670 H 246.729 -4.25723 2.19765 0
M  V30 2671 H 245.093 -2.30599 1.08149 0
M  V30 2672 H 245.876 -2.07285 2.73657 0
M  V30 2673 N 248.321 -0.919034 -1.28029 0
M  V30 2674 C 249.231 -0.416756 -2.30869 0
M  V30 2675 C 250.247 0.498235 -1.66714 0
M  V30 2676 O 251.423 0.383144 -1.97722 0
M  V30 2677 C 248.488 0.330274 -3.45123 0
M  V30 2678 C 247.549 -0.618578 -4.2482 0
M  V30 2679 C 246.782 0.0928959 -5.33619 0
M  V30 2680 O 247.005 1.31375 -5.55065 0
M  V30 2681 O 245.939 -0.574499 -5.99152 0
M  V30 2682 H 249.765 -1.27043 -2.75851 0
M  V30 2683 H 247.35 -0.684052 -1.3282 0
M  V30 2684 H 249.232 0.751972 -4.14636 0
M  V30 2685 H 247.907 1.1597 -3.02213 0
M  V30 2686 H 246.814 -1.08978 -3.57875 0
M  V30 2687 H 248.147 -1.41497 -4.71423 0
M  V30 2688 N 249.799 1.42003 -0.683588 0
M  V30 2689 C 251.027 2.05746 -0.218182 0
M  V30 2690 C 251.442 1.51396 1.12804 0
M  V30 2691 O 250.799 0.657303 1.70252 0
M  V30 2692 C 250.85 3.61171 -0.154131 0
M  V30 2693 O 250.571 4.13508 -1.44716 0
M  V30 2694 C 252.072 4.42042 0.333713 0
M  V30 2695 H 249.292 0.662888 -0.10402 0
M  V30 2696 H 251.836 1.81987 -0.9328 0
M  V30 2697 H 249.991 3.84012 0.511231 0
M  V30 2698 H 250.405 5.07453 -1.32632 0
M  V30 2699 H 251.879 5.51028 0.327423 0
M  V30 2700 H 252.356 4.17269 1.37053 0
M  V30 2701 H 252.962 4.24239 -0.300222 0
M  V30 2702 N 251.277 0.427512 1.51691 0
M  V30 2703 C 252.187 -0.39527 2.31246 0
M  V30 2704 C 253.203 -1.03674 1.39742 0
M  V30 2705 O 254.379 -1.03425 1.72816 0
M  V30 2706 C 251.444 -1.48706 3.13189 0
M  V30 2707 C 250.505 -0.866743 4.20459 0
M  V30 2708 C 249.738 -1.90651 4.98486 0
M  V30 2709 O 249.961 -3.12733 4.77026 0
M  V30 2710 O 248.895 -1.5025 5.82845 0
M  V30 2711 H 252.721 0.253918 3.02637 0
M  V30 2712 H 250.306 0.190274 1.48183 0
M  V30 2713 H 252.188 -2.12047 3.64162 0
M  V30 2714 H 250.863 -2.12051 2.44573 0
M  V30 2715 H 249.77 -0.195544 3.73589 0
M  V30 2716 H 251.103 -0.276934 4.9142 0
M  V30 2717 N 252.755 -1.56801 0.158532 0
M  V30 2718 C 253.665 -2.20916 -0.789518 0
M  V30 2719 C 254.681 -1.1969 -1.26294 0
M  V30 2720 O 255.857 -1.52308 -1.31773 0
M  V30 2721 C 252.922 -2.82727 -2.00665 0
M  V30 2722 C 251.983 -3.99114 -1.58134 0
M  V30 2723 C 251.216 -4.57968 -2.74045 0
M  V30 2724 O 251.439 -4.15704 -3.90572 0
M  V30 2725 O 250.373 -5.48047 -2.48855 0
M  V30 2726 H 254.199 -3.02464 -0.273681 0
M  V30 2727 H 251.784 -1.4924 -0.0690548 0
M  V30 2728 H 253.666 -3.21968 -2.71872 0
M  V30 2729 H 252.341 -2.04184 -2.51179 0
M  V30 2730 H 251.248 -3.64567 -0.839155 0
M  V30 2731 H 252.581 -4.79212 -1.12325 0
M  V30 2732 N 254.233 0.115231 -1.57178 0
M  V30 2733 C 255.196 1.12526 -1.99676 0
M  V30 2734 C 256.196 1.34095 -0.88742 0
M  V30 2735 O 257.386 1.30548 -1.15337 0
M  V30 2736 C 254.518 2.4789 -2.34015 0
M  V30 2737 H 255.711 0.759912 -2.90113 0
M  V30 2738 H 253.264 0.359648 -1.52106 0
M  V30 2739 H 253.999 2.89339 -1.4647 0
M  V30 2740 H 253.784 2.33588 -3.14927 0
M  V30 2741 H 255.274 3.20575 -2.67622 0
M  V30 2742 N 255.711 1.52812 0.385517 0
M  V30 2743 C 256.658 1.77838 1.47113 0
M  V30 2744 C 257.628 0.621757 1.54024 0
M  V30 2745 O 258.813 0.861846 1.70226 0
M  V30 2746 C 255.953 1.95618 2.84302 0
M  V30 2747 C 255.066 3.23316 2.86515 0
M  V30 2748 C 254.201 3.31394 4.15152 0
M  V30 2749 C 253.24 4.53201 4.1143 0
M  V30 2750 N 252.377 4.58542 5.3168 0
M  V30 2751 H 257.217 2.70482 1.25073 0
M  V30 2752 H 254.754 1.34006 0.606692 0
M  V30 2753 H 256.712 2.03912 3.63972 0
M  V30 2754 H 255.342 1.06331 3.04784 0
M  V30 2755 H 254.394 3.24076 1.99195 0
M  V30 2756 H 255.706 4.13045 2.79634 0
M  V30 2757 H 254.86 3.3889 5.03228 0
M  V30 2758 H 253.599 2.39645 4.24761 0
M  V30 2759 H 252.604 4.45827 3.21742 0
M  V30 2760 H 253.829 5.46271 4.03442 0
M  V30 2761 H 251.775 3.69686 5.41912 0
M  V30 2762 H 251.692 5.42148 5.26889 0
M  V30 2763 H 252.96 4.70296 6.21644 0
M  V30 2764 N 257.189 -0.644168 1.43834 0
M  V30 2765 C 258.121 -1.76955 1.45669 0
M  V30 2766 C 259.134 -1.58956 0.351666 0
M  V30 2767 O 260.323 -1.6751 0.616644 0
M  V30 2768 C 257.423 -3.14507 1.26248 0
M  V30 2769 C 256.596 -3.59083 2.49757 0
M  V30 2770 C 255.655 -4.75467 2.25427 0
M  V30 2771 O 254.681 -4.84444 2.98836 0
M  V30 2772 N 255.883 -5.66289 1.27661 0
M  V30 2773 H 258.648 -1.75856 2.42682 0
M  V30 2774 H 256.209 -0.828312 1.39106 0
M  V30 2775 H 258.201 -3.90067 1.0784 0
M  V30 2776 H 256.771 -3.10325 0.376478 0
M  V30 2777 H 255.991 -2.7387 2.8353 0
M  V30 2778 H 257.279 -3.85613 3.31934 0
M  V30 2779 H 256.677 -5.61718 0.670064 0
M  V30 2780 H 255.234 -6.41533 1.15234 0
M  V30 2781 N 258.668 -1.30515 -0.883378 0
M  V30 2782 C 259.914 -1.19607 -1.63774 0
M  V30 2783 C 260.247 0.248314 -1.92606 0
M  V30 2784 O 259.522 1.17742 -1.54813 0
M  V30 2785 C 259.805 -2.02669 -2.97653 0
M  V30 2786 C 259.658 -3.55335 -2.75784 0
M  V30 2787 C 260.977 -1.86573 -3.98596 0
M  V30 2788 H 258.096 -0.435856 -0.594305 0
M  V30 2789 H 260.738 -1.60165 -1.02212 0
M  V30 2790 H 258.888 -1.68208 -3.50197 0
M  V30 2791 H 260.56 -3.99863 -2.30016 0
M  V30 2792 H 258.803 -3.79438 -2.1026 0
M  V30 2793 H 259.474 -4.08745 -3.70988 0
M  V30 2794 H 261.95 -2.16703 -3.55217 0
M  V30 2795 H 260.826 -2.47014 -4.90179 0
M  V30 2796 H 261.087 -0.825321 -4.34328 0
M  V30 2797 N 260.146 1.09593 -1.13257 0
M  V30 2798 C 261.076 2.18214 -0.830946 0
M  V30 2799 C 262.057 1.68812 0.208966 0
M  V30 2800 O 263.242 1.9408 0.0682666 0
M  V30 2801 C 260.372 3.46051 -0.294296 0
M  V30 2802 C 259.326 4.08778 -1.26826 0
M  V30 2803 C 258.652 5.31419 -0.591449 0
M  V30 2804 C 259.952 4.51476 -2.62615 0
M  V30 2805 H 261.646 2.43703 -1.73923 0
M  V30 2806 H 259.192 1.17128 -0.837675 0
M  V30 2807 H 261.145 4.2134 -0.0709606 0
M  V30 2808 H 259.869 3.20079 0.649366 0
M  V30 2809 H 258.528 3.35505 -1.47756 0
M  V30 2810 H 258.176 5.01727 0.357633 0
M  V30 2811 H 257.876 5.74341 -1.24123 0
M  V30 2812 H 259.4 6.09433 -0.377355 0
M  V30 2813 H 260.814 5.17999 -2.45663 0
M  V30 2814 H 259.211 5.05277 -3.23752 0
M  V30 2815 H 260.281 3.63962 -3.20406 0
M  V30 2816 N 261.624 0.925811 1.2754 0
M  V30 2817 C 262.871 0.565255 1.94451 0
M  V30 2818 C 263.199 -0.89316 1.7278 0
M  V30 2819 O 262.454 -1.65213 1.04895 0
M  V30 2820 C 262.753 0.835296 3.47502 0
M  V30 2821 C 262.419 2.27515 3.89291 0
M  V30 2822 C 261.081 2.66879 4.00411 0
M  V30 2823 C 263.433 3.21158 4.10496 0
M  V30 2824 C 260.761 3.99014 4.30122 0
M  V30 2825 C 263.113 4.52871 4.4169 0
M  V30 2826 C 261.777 4.92072 4.51023 0
M  V30 2827 H 261.047 0.206841 0.711546 0
M  V30 2828 H 263.694 1.16942 1.51647 0
M  V30 2829 H 261.999 0.148442 3.91519 0
M  V30 2830 H 263.696 0.535322 3.97411 0
M  V30 2831 H 260.286 1.95976 3.81171 0
M  V30 2832 H 264.47 2.9195 4.01346 0
M  V30 2833 H 259.726 4.2907 4.35556 0
M  V30 2834 H 263.9 5.25436 4.57045 0
M  V30 2835 H 261.527 5.9449 4.738 0
M  V30 2836 N 263.102 -1.41638 0.69111 0
M  V30 2837 C 264.032 -2.3347 0.037248 0
M  V30 2838 C 265.013 -1.51575 -0.771947 0
M  V30 2839 O 266.198 -1.80126 -0.72582 0
M  V30 2840 C 263.328 -3.35354 -0.903064 0
M  V30 2841 C 262.282 -4.27526 -0.201288 0
M  V30 2842 C 261.608 -5.19747 -1.25565 0
M  V30 2843 C 262.908 -5.13959 0.929689 0
M  V30 2844 H 264.602 -2.88397 0.804227 0
M  V30 2845 H 262.148 -1.38669 0.388189 0
M  V30 2846 H 264.101 -3.98519 -1.36969 0
M  V30 2847 H 262.825 -2.78767 -1.70166 0
M  V30 2848 H 261.484 -3.65779 0.245265 0
M  V30 2849 H 261.132 -4.59479 -2.04666 0
M  V30 2850 H 260.832 -5.8225 -0.791128 0
M  V30 2851 H 262.356 -5.85789 -1.72288 0
M  V30 2852 H 263.77 -5.70718 0.543546 0
M  V30 2853 H 262.167 -5.85379 1.32103 0
M  V30 2854 H 263.237 -4.51389 1.77133 0
M  V30 2855 N 264.58 -0.43555 -1.51462 0
M  V30 2856 C 265.857 0.191364 -1.94662 0
M  V30 2857 C 266.237 1.60254 -1.37411 0
M  V30 2858 O 265.585 2.2152 -0.560458 0
M  V30 2859 C 265.795 0.17091 -3.48581 0
M  V30 2860 C 267.143 0.377357 -4.2292 0
M  V30 2861 O 268.167 0.249104 -3.55328 0
M  V30 2862 O 267.026 0.63247 -5.42828 0
M  V30 2863 H 264.12 0.130932 -0.816569 0
M  V30 2864 H 266.666 -0.4934 -1.62369 0
M  V30 2865 H 265.438 -0.815738 -3.82703 0
M  V30 2866 H 265.061 0.898659 -3.87311 0
M  V30 2867 N 266.058 1.56714 -0.166846 0
M  V30 2868 C 267.286 2.0112 0.485644 0
M  V30 2869 C 267.701 1.04705 1.57106 0
M  V30 2870 O 267.058 0.0471923 1.82439 0
M  V30 2871 C 267.109 3.45361 1.06808 0
M  V30 2872 O 266.83 4.38092 0.0259995 0
M  V30 2873 C 268.331 4.05145 1.79924 0
M  V30 2874 H 265.551 0.65931 0.124704 0
M  V30 2875 H 268.095 2.02746 -0.267262 0
M  V30 2876 H 266.25 3.44524 1.7715 0
M  V30 2877 H 266.664 5.22519 0.455398 0
M  V30 2878 H 268.138 5.08009 2.15942 0
M  V30 2879 H 268.615 3.46982 2.69258 0
M  V30 2880 H 269.221 4.09672 1.14234 0
M  V30 2881 N 267.536 -0.106894 1.57237 0
M  V30 2882 C 268.782 -0.81373 1.85759 0
M  V30 2883 C 269.115 -1.78952 0.754315 0
M  V30 2884 O 268.39 -1.93029 -0.23879 0
M  V30 2885 C 268.673 -1.55293 3.24894 0
M  V30 2886 C 268.526 -0.595929 4.45835 0
M  V30 2887 C 269.845 -2.5063 3.61763 0
M  V30 2888 H 266.964 -0.294369 0.67566 0
M  V30 2889 H 269.606 -0.0776472 1.89841 0
M  V30 2890 H 267.756 -2.1804 3.21544 0
M  V30 2891 H 269.428 0.0236262 4.61294 0
M  V30 2892 H 267.671 0.0916191 4.33703 0
M  V30 2893 H 268.342 -1.15004 5.39887 0
M  V30 2894 H 270.818 -1.97982 3.65981 0
M  V30 2895 H 269.694 -2.99376 4.60071 0
M  V30 2896 H 269.955 -3.3385 2.89821 0
M  V30 2897 N 269.014 -1.53014 -0.377408 0
M  V30 2898 C 270.244 -1.72265 -1.14054 0
M  V30 2899 C 270.652 -0.44601 -1.83868 0
M  V30 2900 O 269.995 0.590095 -1.73964 0
M  V30 2901 C 270.057 -2.82492 -2.22348 0
M  V30 2902 C 269.721 -4.23233 -1.72402 0
M  V30 2903 C 270.718 -5.05992 -1.19448 0
M  V30 2904 C 268.403 -4.696 -1.78273 0
M  V30 2905 C 270.397 -6.33203 -0.730268 0
M  V30 2906 C 268.084 -5.96792 -1.31464 0
M  V30 2907 C 269.082 -6.78424 -0.789297 0
M  V30 2908 O 268.77 -8.0323 -0.328077 0
M  V30 2909 H 268.502 -0.579873 -0.347453 0
M  V30 2910 H 271.056 -2.00502 -0.445882 0
M  V30 2911 H 269.286 -2.49702 -2.95272 0
M  V30 2912 H 270.975 -2.90034 -2.83963 0
M  V30 2913 H 271.741 -4.71349 -1.14259 0
M  V30 2914 H 267.62 -4.06142 -2.18106 0
M  V30 2915 H 271.164 -6.96868 -0.319542 0
M  V30 2916 H 267.061 -6.30937 -1.36342 0
M  V30 2917 H 267.829 -8.1727 -0.448493 0
M  V30 2918 N 270.492 0.636531 -1.44174 0
M  V30 2919 C 271.74 1.39343 -1.46383 0
M  V30 2920 C 272.061 1.94766 -0.0955715 0
M  V30 2921 O 271.331 1.75452 0.871395 0
M  V30 2922 H 269.911 0.517199 -0.538994 0
M  V30 2923 H 272.573 0.74957 -1.7991 0
M  V30 2924 H 271.669 2.22746 -2.18611 0
M  V30 2925 N 271.97 1.30982 0.876444 0
M  V30 2926 C 272.918 1.18006 2.00443 0
M  V30 2927 C 273.912 0.0898871 1.69161 0
M  V30 2928 O 275.118 0.251333 1.78237 0
M  V30 2929 H 271.493 0.365196 0.65737 0
M  V30 2930 H 273.464 2.13453 2.0852 0
M  V30 2931 C 272.213 0.897521 3.35916 0
M  V30 2932 H 271.536 1.7285 3.60504 0
M  V30 2933 H 272.976 0.846874 4.15456 0
M  V30 2934 C 271.435 -0.399674 3.34521 0
M  V30 2935 O 271.965 -1.41852 3.7582 0
M  V30 2936 N 270.171 -0.413893 2.87637 0
M  V30 2937 H 269.718 0.41571 2.54224 0
M  V30 2938 H 269.676 -1.28175 2.87086 0
M  V30 2939 N 273.449 -1.08991 1.13837 0
M  V30 2940 C 274.689 -1.82867 0.913183 0
M  V30 2941 C 275.053 -1.83936 -0.550604 0
M  V30 2942 O 276.254 -2.53515 -0.893515 0
M  V30 2943 C 274.525 -3.24843 1.49036 0
M  V30 2944 S 276.084 -4.15669 1.40588 0
M  V30 2945 H 272.902 -0.630278 0.329046 0
M  V30 2946 H 275.504 -1.31049 1.45073 0
M  V30 2947 H 274.208 -3.21644 2.54899 0
M  V30 2948 H 273.739 -3.81734 0.950947 0
M  V30 2949 H 275.754 -4.94686 0.387353 0
M  V30 2950 N 274.927 -0.932562 -1.27047 0
M  V30 2951 C 276.152 -0.591474 -1.98787 0
M  V30 2952 C 276.577 0.824601 -1.69062 0
M  V30 2953 O 275.935 1.5541 -0.933677 0
M  V30 2954 C 275.983 -0.829808 -3.50922 0
M  V30 2955 O 275.087 0.102266 -4.12273 0
M  V30 2956 H 274.428 -0.227185 -0.623926 0
M  V30 2957 H 276.958 -1.25314 -1.61733 0
M  V30 2958 H 276.968 -0.747292 -4.01098 0
M  V30 2959 H 275.643 -1.86201 -3.7189 0
M  V30 2960 H 274.22 -0.0305761 -3.72887 0
M  V30 2961 N 276.405 1.4127 -0.698611 0
M  V30 2962 C 277.633 2.05503 -0.239992 0
M  V30 2963 C 278.048 1.52584 1.11191 0
M  V30 2964 O 277.405 0.675323 1.69545 0
M  V30 2965 C 277.456 3.60987 -0.192429 0
M  V30 2966 O 277.177 4.1195 -1.49094 0
M  V30 2967 C 278.678 4.42371 0.28681 0
M  V30 2968 H 275.898 0.661748 -0.111045 0
M  V30 2969 H 278.442 1.80987 -0.95205 0
M  V30 2970 H 276.597 3.84533 0.470472 0
M  V30 2971 H 277.011 5.06018 -1.38007 0
M  V30 2972 H 278.485 5.51344 0.26896 0
M  V30 2973 H 278.962 4.18699 1.32619 0
M  V30 2974 H 279.568 4.23897 -0.345201 0
M  V30 2975 N 277.883 0.443576 1.51229 0
M  V30 2976 C 278.833 -0.382787 2.24764 0
M  V30 2977 C 279.817 -0.984836 1.27239 0
M  V30 2978 O 281.009 -0.901943 1.52296 0
M  V30 2979 C 278.138 -1.47989 3.09765 0
M  V30 2980 C 277.224 -0.886931 4.14722 0
M  V30 2981 N 277.615 -0.0237103 5.05794 0
M  V30 2982 C 275.913 -1.15385 4.30816 0
M  V30 2983 C 276.614 0.309971 5.80874 0
M  V30 2984 N 275.59 -0.307989 5.42727 0
M  V30 2985 H 279.392 0.282624 2.92538 0
M  V30 2986 H 276.906 0.256027 1.60369 0
M  V30 2987 H 278.903 -2.08482 3.61027 0
M  V30 2988 H 277.563 -2.14758 2.43535 0
M  V30 2989 H 278.574 0.34318 5.16762 0
M  V30 2990 H 275.251 -1.81857 3.75812 0
M  V30 2991 H 276.641 1.01279 6.64223 0
M  V30 2992 N 279.361 -1.56624 0.175154 0
M  V30 2993 C 280.608 -1.96999 -0.468811 0
M  V30 2994 C 280.936 -1.06129 -1.62994 0
M  V30 2995 O 280.191 -0.0961771 -1.95464 0
M  V30 2996 C 280.49 -3.43419 -0.989864 0
M  V30 2997 C 280.156 -4.50866 0.0557687 0
M  V30 2998 C 278.818 -4.79975 0.343134 0
M  V30 2999 C 281.17 -5.15551 0.765308 0
M  V30 3000 C 278.498 -5.71066 1.34536 0
M  V30 3001 C 280.85 -6.07724 1.75654 0
M  V30 3002 C 279.514 -6.35199 2.05132 0
M  V30 3003 H 278.784 -0.720869 -0.17155 0
M  V30 3004 H 281.431 -1.89616 0.267924 0
M  V30 3005 H 279.736 -3.47772 -1.80449 0
M  V30 3006 H 281.433 -3.72002 -1.49719 0
M  V30 3007 H 278.023 -4.28229 -0.178381 0
M  V30 3008 H 282.207 -4.9317 0.556513 0
M  V30 3009 H 277.463 -5.90635 1.57988 0
M  V30 3010 H 281.637 -6.56912 2.31169 0
M  V30 3011 H 279.264 -7.05584 2.8294 0
M  V30 3012 N 280.839 0.0985539 -1.57292 0
M  V30 3013 C 282.067 0.816318 -1.90115 0
M  V30 3014 C 282.482 1.72451 -0.768509 0
M  V30 3015 O 281.839 1.80643 0.259687 0
M  V30 3016 C 281.89 1.63259 -3.22535 0
M  V30 3017 O 281.611 0.760934 -4.31441 0
M  V30 3018 C 283.112 2.45372 -3.69199 0
M  V30 3019 H 280.332 0.233595 -0.629027 0
M  V30 3020 H 282.876 0.0768229 -2.04356 0
M  V30 3021 H 281.031 2.32463 -3.09903 0
M  V30 3022 H 281.445 1.32595 -5.07463 0
M  V30 3023 H 282.919 2.98144 -4.64558 0
M  V30 3024 H 283.396 3.23677 -2.96867 0
M  V30 3025 H 284.002 1.81373 -3.84687 0
M  V30 3026 N 282.317 1.53212 0.369288 0
M  V30 3027 C 283.563 1.69466 1.11397 0
M  V30 3028 C 283.896 0.443257 1.89074 0
M  V30 3029 O 283.171 -0.559386 1.86282 0
M  V30 3030 C 283.454 2.9422 2.07621 0
M  V30 3031 C 283.307 4.29508 1.33577 0
M  V30 3032 C 284.626 3.14565 3.07794 0
M  V30 3033 H 281.745 0.616667 0.403597 0
M  V30 3034 H 284.387 1.85845 0.395179 0
M  V30 3035 H 282.537 2.80387 2.68916 0
M  V30 3036 H 284.209 4.55147 0.750955 0
M  V30 3037 H 282.452 4.29088 0.637618 0
M  V30 3038 H 283.123 5.12926 2.03989 0
M  V30 3039 H 285.599 3.2756 2.56601 0
M  V30 3040 H 284.475 4.03297 3.72348 0
M  V30 3041 H 284.736 2.29675 3.77759 0
M  V30 3042 N 283.795 -0.628877 1.44509 0
M  V30 3043 C 284.742 -1.74074 1.51549 0
M  V30 3044 C 285.712 -1.62084 0.363021 0
M  V30 3045 O 286.897 -1.81975 0.573567 0
M  V30 3046 C 284.037 -3.12328 1.46784 0
M  V30 3047 C 283.15 -3.35277 2.72422 0
M  V30 3048 C 282.285 -4.63515 2.59475 0
M  V30 3049 C 281.324 -4.7965 3.80266 0
M  V30 3050 N 280.461 -5.99168 3.65981 0
M  V30 3051 H 285.301 -1.67392 2.46544 0
M  V30 3052 H 282.838 -0.816527 1.22357 0
M  V30 3053 H 284.796 -3.92286 1.42012 0
M  V30 3054 H 283.426 -3.18018 0.553544 0
M  V30 3055 H 282.478 -2.49242 2.87372 0
M  V30 3056 H 283.79 -3.43078 3.62076 0
M  V30 3057 H 282.944 -5.51638 2.52548 0
M  V30 3058 H 281.683 -4.58076 1.67384 0
M  V30 3059 H 280.688 -3.89957 3.87574 0
M  V30 3060 H 281.913 -4.86902 4.73395 0
M  V30 3061 H 279.859 -5.94814 2.76644 0
M  V30 3062 H 279.776 -6.08035 4.49254 0
M  V30 3063 H 281.044 -6.89846 3.6295 0
M  V30 3064 N 285.273 -1.31445 -0.869486 0
M  V30 3065 C 286.501 -1.24122 -1.65534 0
M  V30 3066 C 286.916 0.193387 -1.87807 0
M  V30 3067 O 286.273 1.12557 -1.43656 0
M  V30 3068 C 286.324 -1.98229 -3.02304 0
M  V30 3069 O 286.045 -3.3609 -2.81026 0
M  V30 3070 C 287.546 -1.97751 -3.96749 0
M  V30 3071 H 284.766 -0.428868 -0.516055 0
M  V30 3072 H 287.31 -1.73328 -1.08525 0
M  V30 3073 H 285.465 -1.52782 -3.56001 0
M  V30 3074 H 285.879 -3.7383 -3.67902 0
M  V30 3075 H 287.353 -2.54114 -4.90031 0
M  V30 3076 H 287.83 -0.960137 -4.28577 0
M  V30 3077 H 288.436 -2.43079 -3.48988 0
M  V30 3078 N 286.751 1.08385 -1.14413 0
M  V30 3079 C 288.167 1.32844 -0.884563 0
M  V30 3080 C 288.367 1.95841 0.474181 0
M  V30 3081 O 287.423 2.21158 1.21842 0
M  V30 3082 C 288.736 2.22978 -2.01745 0
M  V30 3083 C 290.284 2.36458 -2.05077 0
M  V30 3084 C 290.759 3.29934 -3.1766 0
M  V30 3085 N 292.25 3.37511 -3.17239 0
M  V30 3086 C 292.985 4.09871 -4.0099 0
M  V30 3087 N 292.481 4.84936 -4.94781 0
M  V30 3088 N 294.274 4.05704 -3.89051 0
M  V30 3089 H 286.425 0.658756 -2.01926 0
M  V30 3090 H 288.688 0.352821 -0.879899 0
M  V30 3091 H 288.394 1.83934 -2.99769 0
M  V30 3092 H 288.268 3.23441 -1.94077 0
M  V30 3093 H 290.655 2.7476 -1.0766 0
M  V30 3094 H 290.736 1.35736 -2.16816 0
M  V30 3095 H 290.38 2.92352 -4.15322 0
M  V30 3096 H 290.31 4.30584 -3.03158 0
M  V30 3097 H 292.801 2.83996 -2.49308 0
M  V30 3098 H 293.114 5.37612 -5.55151 0
M  V30 3099 H 291.459 4.83988 -4.98779 0
M  V30 3100 H 294.65 3.46167 -3.15097 0
M  V30 3101 H 294.823 4.61834 -4.54547 0
M  V30 3102 N 288.23 0.939286 1.26551 0
M  V30 3103 C 289.177 0.446088 2.26448 0
M  V30 3104 C 290.147 -0.493234 1.58608 0
M  V30 3105 O 291.332 -0.409857 1.86346 0
M  V30 3106 C 288.472 -0.284375 3.43926 0
M  V30 3107 C 287.585 0.690399 4.26448 0
M  V30 3108 C 286.72 -0.0610712 5.31165 0
M  V30 3109 C 285.759 0.905649 6.05363 0
M  V30 3110 N 284.896 0.186055 7.01853 0
M  V30 3111 H 289.736 1.30291 2.68008 0
M  V30 3112 H 287.273 0.65371 1.31776 0
M  V30 3113 H 289.231 -0.724313 4.10864 0
M  V30 3114 H 287.861 -1.10535 3.03285 0
M  V30 3115 H 286.913 1.24885 3.59316 0
M  V30 3116 H 288.225 1.42873 4.779 0
M  V30 3117 H 287.379 -0.56038 6.04106 0
M  V30 3118 H 286.118 -0.832297 4.80546 0
M  V30 3119 H 285.123 1.4161 5.3125 0
M  V30 3120 H 286.348 1.67685 6.58072 0
M  V30 3121 H 284.294 -0.566714 6.53548 0
M  V30 3122 H 284.211 0.863752 7.51049 0
M  V30 3123 H 285.479 -0.292221 7.78952 0
M  V30 3124 N 289.708 -1.40897 0.706093 0
M  V30 3125 C 290.956 -2.00657 0.241054 0
M  V30 3126 C 291.277 -1.56241 -1.16678 0
M  V30 3127 O 290.547 -0.79765 -1.78926 0
M  V30 3128 H 289.127 -0.742018 0.0861308 0
M  V30 3129 H 291.789 -1.72372 0.909604 0
M  V30 3130 H 290.885 -3.10958 0.266705 0
M  V30 3131 N 291.186 -0.45159 -1.50991 0
M  V30 3132 C 292.134 0.366864 -2.29689 0
M  V30 3133 C 293.128 1.00809 -1.36139 0
M  V30 3134 O 294.334 0.941427 -1.53418 0
M  V30 3135 H 290.709 0.137133 -0.739391 0
M  V30 3136 H 292.68 -0.317538 -2.96706 0
M  V30 3137 C 291.429 1.44751 -3.16137 0
M  V30 3138 H 290.752 0.963473 -3.88017 0
M  V30 3139 H 292.192 1.99315 -3.74232 0
M  V30 3140 C 290.651 2.43869 -2.32442 0
M  V30 3141 O 291.181 3.4872 -1.99392 0
M  V30 3142 N 289.387 2.15105 -1.95392 0
M  V30 3143 H 288.934 1.29866 -2.22469 0
M  V30 3144 H 288.892 2.81661 -1.39693 0
M  V30 3145 N 292.664 1.56529 -0.183458 0
M  V30 3146 C 293.91 1.97537 0.459036 0
M  V30 3147 C 294.243 1.06989 1.62071 0
M  V30 3148 O 293.518 0.11948 1.94133 0
M  V30 3149 C 293.801 3.47874 0.930368 0
M  V30 3150 C 293.654 4.492 -0.232317 0
M  V30 3151 C 294.973 4.01612 1.79989 0
M  V30 3152 H 292.092 0.718204 0.165383 0
M  V30 3153 H 294.734 1.88042 -0.272038 0
M  V30 3154 H 292.884 3.56095 1.55333 0
M  V30 3155 H 294.556 4.53027 -0.86972 0
M  V30 3156 H 292.799 4.24657 -0.885928 0
M  V30 3157 H 293.47 5.51823 0.139796 0
M  V30 3158 H 295.946 3.96097 1.27461 0
M  V30 3159 H 294.822 5.07195 2.09867 0
M  V30 3160 H 295.083 3.46163 2.74998 0
M  V30 3161 N 294.142 -0.090211 1.57342 0
M  V30 3162 C 295.105 -1.09335 2.01441 0
M  V30 3163 C 296.105 -1.32666 0.908641 0
M  V30 3164 O 297.295 -1.28697 1.174 0
M  V30 3165 C 294.427 -2.44136 2.3793 0
M  V30 3166 H 295.62 -0.713662 2.91285 0
M  V30 3167 H 293.173 -0.335404 1.52659 0
M  V30 3168 H 293.908 -2.86972 1.51055 0
M  V30 3169 H 293.693 -2.28548 3.18603 0
M  V30 3170 H 295.183 -3.16277 2.72688 0
M  V30 3171 N 295.62 -1.53406 -0.361157 0
M  V30 3172 C 296.848 -1.73717 -1.12383 0
M  V30 3173 C 297.263 -0.468161 -1.82904 0
M  V30 3174 O 296.62 0.559198 -1.73722 0
M  V30 3175 C 296.671 -2.90558 -2.15078 0
M  V30 3176 O 296.392 -4.12549 -1.47428 0
M  V30 3177 C 297.893 -3.22777 -3.03858 0
M  V30 3178 H 295.113 -0.580896 -0.335858 0
M  V30 3179 H 297.657 -2.00167 -0.418728 0
M  V30 3180 H 295.812 -2.66489 -2.8118 0
M  V30 3181 H 296.226 -4.78009 -2.15887 0
M  V30 3182 H 297.7 -4.07927 -3.71887 0
M  V30 3183 H 298.177 -2.38329 -3.68912 0
M  V30 3184 H 298.783 -3.48787 -2.43367 0
M  V30 3185 N 297.098 0.621204 -1.44841 0
M  V30 3186 C 298.008 1.7612 -1.5498 0
M  V30 3187 C 299.024 1.68477 -0.434927 0
M  V30 3188 O 300.2 1.89076 -0.693693 0
M  V30 3189 C 297.265 3.1254 -1.50065 0
M  V30 3190 C 296.326 3.31741 -2.72482 0
M  V30 3191 C 295.559 4.61653 -2.67792 0
M  V30 3192 O 295.782 5.431 -1.74352 0
M  V30 3193 O 294.716 4.83271 -3.58794 0
M  V30 3194 H 298.542 1.70518 -2.51311 0
M  V30 3195 H 296.127 0.783643 -1.27198 0
M  V30 3196 H 298.009 3.93844 -1.49882 0
M  V30 3197 H 296.684 3.18663 -0.568806 0
M  V30 3198 H 295.591 2.50077 -2.7823 0
M  V30 3199 H 296.924 3.30486 -3.64746 0
M  V30 3200 N 298.576 1.31904 0.862503 0
M  V30 3201 C 299.825 1.21373 1.61094 0
M  V30 3202 C 300.138 -0.22504 1.94301 0
M  V30 3203 O 301.344 -0.452121 2.67709 0
M  V30 3204 C 299.8 2.12525 2.9045 0
M  V30 3205 C 299.408 3.61441 2.64697 0
M  V30 3206 C 301.152 2.10813 3.68454 0
M  V30 3207 C 299.059 4.44578 3.90006 0
M  V30 3208 H 297.989 0.450705 0.604468 0
M  V30 3209 H 300.64 1.56811 0.953027 0
M  V30 3210 H 299.022 1.69994 3.57656 0
M  V30 3211 H 300.196 4.12264 2.05851 0
M  V30 3212 H 298.511 3.65205 2.00036 0
M  V30 3213 H 301.108 2.70167 4.61426 0
M  V30 3214 H 301.451 1.09713 4.01583 0
M  V30 3215 H 301.984 2.51583 3.08141 0
M  V30 3216 H 298.723 5.46461 3.62023 0
M  V30 3217 H 298.243 3.98508 4.48276 0
M  V30 3218 H 299.922 4.57176 4.5782 0
M  V30 3219 N 300.054 -1.07777 1.14986 0
M  V30 3220 C 301.279 -1.84558 0.946213 0
M  V30 3221 C 301.704 -1.81323 -0.500362 0
M  V30 3222 O 301.062 -1.20301 -1.35637 0
M  V30 3223 C 301.11 -3.29736 1.45968 0
M  V30 3224 O 300.214 -4.07149 0.65601 0
M  V30 3225 H 299.555 -0.571641 0.33782 0
M  V30 3226 H 302.085 -1.35991 1.52865 0
M  V30 3227 H 302.095 -3.80574 1.47063 0
M  V30 3228 H 300.77 -3.31406 2.51283 0
M  V30 3229 H 299.347 -3.65994 0.714322 0
M  V30 3230 N 301.532 -0.945985 -1.26051 0
M  V30 3231 C 302.76 -0.613025 -1.9761 0
M  V30 3232 C 303.175 0.813035 -1.70397 0
M  V30 3233 O 302.532 1.54274 -0.974979 0
M  V30 3234 C 302.583 -0.85159 -3.51326 0
M  V30 3235 O 302.304 -2.22157 -3.77595 0
M  V30 3236 C 303.805 -0.529831 -4.40122 0
M  V30 3237 H 301.025 -0.230593 -0.630133 0
M  V30 3238 H 303.569 -1.268 -1.60443 0
M  V30 3239 H 301.724 -0.243151 -3.86636 0
M  V30 3240 H 302.138 -2.2852 -4.721 0
M  V30 3241 H 303.612 -0.747348 -5.46917 0
M  V30 3242 H 304.089 0.535341 -4.35925 0
M  V30 3243 H 304.695 -1.11721 -4.10364 0
M  V30 3244 N 303.011 1.40521 -0.713556 0
M  V30 3245 C 303.921 2.34522 -0.0606667 0
M  V30 3246 C 304.937 1.57193 0.74607 0
M  V30 3247 O 306.113 1.89591 0.679493 0
M  V30 3248 C 303.178 3.36081 0.851491 0
M  V30 3249 C 302.239 4.29286 0.0349339 0
M  V30 3250 C 301.472 5.25994 0.903649 0
M  V30 3251 O 301.695 5.28616 2.14292 0
M  V30 3252 O 300.629 6.00918 0.343723 0
M  V30 3253 H 304.455 2.91968 -0.835972 0
M  V30 3254 H 302.04 1.41681 -0.47402 0
M  V30 3255 H 303.922 3.98369 1.37404 0
M  V30 3256 H 302.597 2.81052 1.60598 0
M  V30 3257 H 301.504 3.70289 -0.532633 0
M  V30 3258 H 302.837 4.87462 -0.681287 0
M  V30 3259 N 304.489 0.459591 1.5075 0
M  V30 3260 C 305.905 0.113092 1.59199 0
M  V30 3261 C 306.105 -1.37951 1.46874 0
M  V30 3262 O 305.161 -2.15168 1.32132 0
M  V30 3263 C 306.474 0.653043 2.93523 0
M  V30 3264 C 308.022 0.615449 3.0689 0
M  V30 3265 C 308.497 1.13275 4.43771 0
M  V30 3266 N 309.988 1.09167 4.50152 0
M  V30 3267 C 310.723 1.46256 5.54434 0
M  V30 3268 N 310.219 1.90739 6.66026 0
M  V30 3269 N 312.012 1.37932 5.44914 0
M  V30 3270 H 304.163 1.43049 1.57005 0
M  V30 3271 H 306.426 0.590861 0.741341 0
M  V30 3272 H 306.132 1.69822 3.07983 0
M  V30 3273 H 306.006 0.0902132 3.77092 0
M  V30 3274 H 308.393 -0.420793 2.92084 0
M  V30 3275 H 308.474 1.21495 2.25106 0
M  V30 3276 H 308.118 2.16757 4.59324 0
M  V30 3277 H 308.048 0.509576 5.24129 0
M  V30 3278 H 310.539 0.76528 3.7007 0
M  V30 3279 H 310.852 2.17218 7.41644 0
M  V30 3280 H 309.197 1.94683 6.67176 0
M  V30 3281 H 312.388 1.0303 4.56621 0
M  V30 3282 H 312.561 1.67164 6.26067 0
M  V30 3283 N 305.967 -1.56429 0.191757 0
M  V30 3284 C 307.244 -1.89224 -0.495332 0
M  V30 3285 C 307.624 -1.10478 -1.79883 0
M  V30 3286 O 306.972 -0.204852 -2.2758 0
M  V30 3287 C 307.182 -3.41548 -0.717367 0
M  V30 3288 C 308.53 -4.11711 -1.03823 0
M  V30 3289 O 309.554 -3.4698 -0.805204 0
M  V30 3290 O 308.413 -5.2611 -1.47887 0
M  V30 3291 H 305.507 -0.785788 -0.25781 0
M  V30 3292 H 308.053 -1.68111 0.231721 0
M  V30 3293 H 306.825 -3.90772 0.203287 0
M  V30 3294 H 306.448 -3.68342 -1.497 0
M  V30 3295 N 307.445 0.0818655 -1.57387 0
M  V30 3296 C 308.375 1.09885 -2.06028 0
M  V30 3297 C 309.356 1.4098 -0.951774 0
M  V30 3298 O 310.541 1.50781 -1.22387 0
M  V30 3299 C 307.671 2.4151 -2.4958 0
M  V30 3300 C 306.625 2.24792 -3.64215 0
M  V30 3301 C 305.951 3.61712 -3.93787 0
M  V30 3302 C 307.251 1.67749 -4.94629 0
M  V30 3303 H 308.945 0.694128 -2.91243 0
M  V30 3304 H 306.491 0.332448 -1.4011 0
M  V30 3305 H 308.444 3.12939 -2.82219 0
M  V30 3306 H 307.168 2.83943 -1.61381 0
M  V30 3307 H 305.827 1.55807 -3.31843 0
M  V30 3308 H 305.475 4.01697 -3.02735 0
M  V30 3309 H 305.175 3.51368 -4.70971 0
M  V30 3310 H 306.699 4.34587 -4.28913 0
M  V30 3311 H 308.113 2.29032 -5.25564 0
M  V30 3312 H 306.51 1.68128 -5.76067 0
M  V30 3313 H 307.58 0.638059 -4.80684 0
M  V30 3314 N 308.923 1.53595 0.353017 0
M  V30 3315 C 310.171 1.70049 1.09215 0
M  V30 3316 C 310.492 0.461406 1.89463 0
M  V30 3317 O 309.762 -0.524633 1.88744 0
M  V30 3318 H 308.342 0.626912 0.40619 0
M  V30 3319 H 311.004 1.90822 0.396585 0
M  V30 3320 H 310.1 2.56718 1.77488 0
M  V30 3321 N 310.401 -0.613514 1.45168 0
M  V30 3322 C 311.333 -1.73825 1.4939 0
M  V30 3323 C 312.346 -1.58175 0.385304 0
M  V30 3324 O 313.535 -1.66165 0.652036 0
M  V30 3325 C 310.635 -3.11758 1.32891 0
M  V30 3326 C 309.808 -3.53704 2.57317 0
M  V30 3327 C 308.867 -4.70579 2.35462 0
M  V30 3328 O 307.893 -4.77996 3.09044 0
M  V30 3329 N 309.095 -5.63454 1.39644 0
M  V30 3330 H 311.86 -1.70669 2.46358 0
M  V30 3331 H 309.421 -0.79862 1.40832 0
M  V30 3332 H 311.413 -3.87692 1.1609 0
M  V30 3333 H 309.983 -3.09456 0.442218 0
M  V30 3334 H 309.203 -2.67794 2.89275 0
M  V30 3335 H 310.491 -3.78486 3.40038 0
M  V30 3336 H 309.889 -5.6017 0.789062 0
M  V30 3337 H 308.446 -6.38944 1.28816 0
M  V30 3338 N 311.879 -1.3236 -0.855495 0
M  V30 3339 C 313.119 -1.24187 -1.62348 0
M  V30 3340 C 313.483 0.193597 -1.91021 0
M  V30 3341 O 314.684 0.39904 -2.65822 0
M  V30 3342 C 312.955 -2.07661 -2.90881 0
M  V30 3343 S 314.514 -2.16505 -3.81669 0
M  V30 3344 H 311.332 -0.442076 -0.556857 0
M  V30 3345 H 313.934 -1.67198 -1.01317 0
M  V30 3346 H 312.638 -3.11018 -2.67761 0
M  V30 3347 H 312.169 -1.65425 -3.56929 0
M  V30 3348 H 314.184 -1.31394 -4.78487 0
M  V30 3349 N 313.357 1.07166 -1.15556 0
M  V30 3350 C 314.634 1.76546 -0.842069 0
M  V30 3351 C 315.014 2.00453 0.661939 0
M  V30 3352 O 314.362 1.62452 1.60691 0
M  V30 3353 C 314.572 3.07266 -1.65495 0
M  V30 3354 C 315.92 3.81578 -1.86234 0
M  V30 3355 O 316.944 3.17083 -1.62287 0
M  V30 3356 O 315.803 4.97419 -2.26355 0
M  V30 3357 H 312.897 0.766756 -0.309862 0
M  V30 3358 H 315.443 1.13514 -1.26145 0
M  V30 3359 H 314.215 2.85494 -2.67598 0
M  V30 3360 H 313.838 3.7803 -1.23203 0
M  V30 3361 N 314.835 0.952656 1.25548 0
M  V30 3362 C 316.251 0.656769 1.4546 0
M  V30 3363 C 316.451 -0.78633 1.85524 0
M  V30 3364 O 315.507 -1.56183 1.98402 0
M  V30 3365 C 316.82 1.62801 2.52817 0
M  V30 3366 C 318.368 1.63897 2.66659 0
M  V30 3367 C 318.843 2.5978 3.77198 0
M  V30 3368 N 320.334 2.58133 3.84606 0
M  V30 3369 C 321.069 3.29003 4.69621 0
M  V30 3370 N 320.565 4.09339 5.58939 0
M  V30 3371 N 322.358 3.179 4.63569 0
M  V30 3372 H 314.509 1.88526 0.978344 0
M  V30 3373 H 316.772 0.810815 0.491206 0
M  V30 3374 H 316.478 2.65869 2.30232 0
M  V30 3375 H 316.352 1.38898 3.50695 0
M  V30 3376 H 318.739 0.615481 2.8861 0
M  V30 3377 H 318.82 1.91858 1.69187 0
M  V30 3378 H 318.464 3.62254 3.55997 0
M  V30 3379 H 318.394 2.29105 4.7415 0
M  V30 3380 H 320.885 1.99809 3.20757 0
M  V30 3381 H 321.198 4.6034 6.20731 0
M  V30 3382 H 319.543 4.13438 5.58654 0
M  V30 3383 H 322.734 2.54612 3.92798 0
M  V30 3384 H 322.907 3.73398 5.29602 0
M  V30 3385 N 316.313 -1.40141 0.720998 0
M  V30 3386 C 317.56 -2.00787 0.262842 0
M  V30 3387 C 317.888 -1.5718 -1.14563 0
M  V30 3388 O 317.143 -0.785391 -1.79249 0
M  V30 3389 C 317.442 -3.56165 0.296892 0
M  V30 3390 C 317.108 -4.19373 1.65641 0
M  V30 3391 C 315.77 -4.36352 2.02855 0
M  V30 3392 C 318.122 -4.54578 2.54968 0
M  V30 3393 C 315.45 -4.8582 3.28931 0
M  V30 3394 C 317.802 -5.05447 3.80402 0
M  V30 3395 C 316.466 -5.20635 4.17726 0
M  V30 3396 H 315.736 -0.734731 0.0961807 0
M  V30 3397 H 318.383 -1.67673 0.925093 0
M  V30 3398 H 316.688 -3.8922 -0.448932 0
M  V30 3399 H 318.385 -4.00929 -0.0755208 0
M  V30 3400 H 314.975 -4.06549 1.35704 0
M  V30 3401 H 319.159 -4.41091 2.27491 0
M  V30 3402 H 314.415 -4.95764 3.57811 0
M  V30 3403 H 318.589 -5.31663 4.49786 0
M  V30 3404 H 316.216 -5.58728 5.15487 0
M  V30 3405 N 317.792 -0.46758 -1.50504 0
M  V30 3406 C 318.739 0.328413 -2.28452 0
M  V30 3407 C 319.709 0.990313 -1.33349 0
M  V30 3408 O 320.894 1.00343 -1.62284 0
M  V30 3409 C 318.034 1.40648 -3.15138 0
M  V30 3410 C 317.147 0.759709 -4.25267 0
M  V30 3411 C 316.282 1.81537 -4.99217 0
M  V30 3412 C 315.321 1.14866 -6.01226 0
M  V30 3413 N 314.458 2.14702 -6.68467 0
M  V30 3414 H 319.298 -0.342603 -2.96024 0
M  V30 3415 H 316.835 -0.180801 -1.45985 0
M  V30 3416 H 318.793 2.04315 -3.63746 0
M  V30 3417 H 317.423 2.04671 -2.49619 0
M  V30 3418 H 316.475 0.0105671 -3.80399 0
M  V30 3419 H 317.787 0.233243 -4.98254 0
M  V30 3420 H 316.941 2.52793 -5.51526 0
M  V30 3421 H 315.68 2.37564 -4.25928 0
M  V30 3422 H 314.685 0.42171 -5.4818 0
M  V30 3423 H 315.91 0.595334 -6.76485 0
M  V30 3424 H 313.856 2.69752 -5.97972 0
M  V30 3425 H 313.773 1.6703 -7.37317 0
M  V30 3426 H 315.041 2.85348 -7.25394 0
M  V30 3427 N 319.27 1.56325 -0.20005 0
M  V30 3428 C 320.681 1.8408 0.31167 0
M  V30 3429 C 321.032 1.12087 1.61031 0
M  V30 3430 O 320.157 0.38332 2.12978 0
M  V30 3431 C 320.752 3.33932 0.57226 0
M  V30 3432 C 319.311 3.6208 1.02834 0
M  V30 3433 C 318.458 2.77186 0.079634 0
M  V30 3434 H 321.409 1.52939 -0.423729 0
M  V30 3435 H 321.43 3.52971 1.42096 0
M  V30 3436 H 320.942 3.86303 -0.37308 0
M  V30 3437 H 319.043 3.15147 1.98778 0
M  V30 3438 H 319.156 4.7023 0.917624 0
M  V30 3439 H 317.52 2.47951 0.582448 0
M  V30 3440 H 318.303 3.32347 -0.860238 0
M  V30 3441 N 320.748 -0.0735177 1.57428 0
M  V30 3442 C 321.997 -0.771809 1.86349 0
M  V30 3443 C 322.31 -1.78828 0.792452 0
M  V30 3444 O 323.516 -2.53602 0.96945 0
M  V30 3445 C 321.972 -1.42358 3.30548 0
M  V30 3446 C 321.58 -0.445761 4.45777 0
M  V30 3447 C 323.324 -2.10434 3.6867 0
M  V30 3448 C 321.231 -1.10335 5.81016 0
M  V30 3449 H 320.161 -0.291999 0.695164 0
M  V30 3450 H 322.812 -0.0250749 1.83483 0
M  V30 3451 H 321.194 -2.21852 3.28021 0
M  V30 3452 H 322.368 0.319239 4.59693 0
M  V30 3453 H 320.683 0.130457 4.16196 0
M  V30 3454 H 323.28 -2.60405 4.67004 0
M  V30 3455 H 323.623 -2.90298 2.98383 0
M  V30 3456 H 324.156 -1.37773 3.7318 0
M  V30 3457 H 320.895 -0.345061 6.54591 0
M  V30 3458 H 320.415 -1.83925 5.70904 0
M  V30 3459 H 322.094 -1.62367 6.26295 0
M  V30 3460 N 322.226 -1.5378 -0.344866 0
M  V30 3461 C 323.642 -1.44015 -0.687888 0
M  V30 3462 C 323.842 -0.595834 -1.92489 0
M  V30 3463 O 322.898 -0.0863064 -2.52352 0
M  V30 3464 C 324.211 -2.87481 -0.881758 0
M  V30 3465 C 325.759 -2.97247 -0.980459 0
M  V30 3466 C 326.234 -4.41819 -1.20665 0
M  V30 3467 N 327.725 -4.45339 -1.27389 0
M  V30 3468 C 328.46 -5.54333 -1.46639 0
M  V30 3469 N 327.956 -6.73335 -1.63071 0
M  V30 3470 N 329.749 -5.41944 -1.49176 0
M  V30 3471 H 321.9 -2.07169 0.468475 0
M  V30 3472 H 324.163 -0.93643 0.147655 0
M  V30 3473 H 323.869 -3.51672 -0.0443444 0
M  V30 3474 H 323.743 -3.32352 -1.78388 0
M  V30 3475 H 326.13 -2.33197 -1.8084 0
M  V30 3476 H 326.211 -2.5574 -0.0552713 0
M  V30 3477 H 325.855 -5.06449 -0.383652 0
M  V30 3478 H 325.785 -4.80917 -2.14539 0
M  V30 3479 H 328.276 -3.59585 -1.1622 0
M  V30 3480 H 328.589 -7.52165 -1.77391 0
M  V30 3481 H 326.934 -6.76282 -1.60209 0
M  V30 3482 H 330.125 -4.47932 -1.3592 0
M  V30 3483 H 330.298 -6.26946 -1.63837 0
M  V30 3484 N 323.704 0.605807 -1.45491 0
M  V30 3485 C 324.932 1.39136 -1.5313 0
M  V30 3486 C 325.347 1.88082 -0.164507 0
M  V30 3487 O 324.704 1.62316 0.834247 0
M  V30 3488 C 324.755 2.59463 -2.51716 0
M  V30 3489 O 324.476 2.12551 -3.83084 0
M  V30 3490 C 325.977 3.52301 -2.6907 0
M  V30 3491 H 323.197 0.425849 -0.51855 0
M  V30 3492 H 325.741 0.73865 -1.90694 0
M  V30 3493 H 323.896 3.20772 -2.17219 0
M  V30 3494 H 324.31 2.90744 -4.36541 0
M  V30 3495 H 325.784 4.33271 -3.42024 0
M  V30 3496 H 326.261 4.02757 -1.75167 0
M  V30 3497 H 326.867 2.96845 -3.04571 0
M  V30 3498 N 325.182 1.32811 0.848464 0
M  V30 3499 C 326.43 1.23479 1.59991 0
M  V30 3500 C 326.751 -0.201853 1.93952 0
M  V30 3501 O 326.021 -1.12818 1.60153 0
M  V30 3502 H 324.601 0.454034 0.593179 0
M  V30 3503 H 327.263 1.66412 1.01455 0
M  V30 3504 H 326.359 1.82178 2.53412 0
M  V30 3505 N 326.66 -1.06551 1.16123 0
M  V30 3506 C 327.909 -1.78687 0.935622 0
M  V30 3507 C 328.222 -1.88056 -0.538001 0
M  V30 3508 O 329.428 -2.56794 -0.88143 0
M  V30 3509 C 327.884 -3.21143 1.62466 0
M  V30 3510 C 327.492 -3.19949 3.13587 0
M  V30 3511 C 329.236 -3.9783 1.48092 0
M  V30 3512 C 327.143 -4.57108 3.75241 0
M  V30 3513 H 326.073 -0.669712 0.346412 0
M  V30 3514 H 328.724 -1.19534 1.39226 0
M  V30 3515 H 327.106 -3.80539 1.09572 0
M  V30 3516 H 328.28 -2.70151 3.73303 0
M  V30 3517 H 326.595 -2.5676 3.27816 0
M  V30 3518 H 329.192 -4.99217 1.91538 0
M  V30 3519 H 329.535 -4.14078 0.429507 0
M  V30 3520 H 330.068 -3.4495 1.98127 0
M  V30 3521 H 326.807 -4.46065 4.80319 0
M  V30 3522 H 326.327 -5.07111 3.20309 0
M  V30 3523 H 328.006 -5.26069 3.76644 0
M  V30 3524 N 328.138 -0.959301 -1.25041 0
M  V30 3525 C 329.363 -0.633507 -1.97488 0
M  V30 3526 C 329.788 0.788555 -1.70773 0
M  V30 3527 O 329.146 1.53394 -0.966431 0
M  V30 3528 C 329.194 -0.904057 -3.49083 0
M  V30 3529 O 328.298 0.0147939 -4.12397 0
M  V30 3530 H 327.639 -0.240368 -0.618966 0
M  V30 3531 H 330.169 -1.28717 -1.59038 0
M  V30 3532 H 330.179 -0.832203 -3.99423 0
M  V30 3533 H 328.854 -1.94048 -3.67856 0
M  V30 3534 H 327.431 -0.109664 -3.72739 0
M  V30 3535 N 329.616 1.39756 -0.72842 0
M  V30 3536 C 331.027 1.83498 -0.344289 0
M  V30 3537 C 331.378 1.60868 1.12321 0
M  V30 3538 O 330.503 1.09634 1.86573 0
M  V30 3539 C 331.098 3.33114 -0.618112 0
M  V30 3540 C 329.657 3.753 -0.287549 0
M  V30 3541 C 328.804 2.62831 -0.884048 0
M  V30 3542 H 331.755 1.28842 -0.926578 0
M  V30 3543 H 331.776 3.80334 0.112349 0
M  V30 3544 H 331.288 3.49553 -1.68625 0
M  V30 3545 H 329.389 3.64451 0.775012 0
M  V30 3546 H 329.502 4.72945 -0.765512 0
M  V30 3547 H 327.866 2.52792 -0.311149 0
M  V30 3548 H 328.649 2.82078 -1.95671 0
M  V30 3549 N 331.094 0.475555 1.50254 0
M  V30 3550 C 332.024 -0.30611 2.31485 0
M  V30 3551 C 333.005 -0.986228 1.38591 0
M  V30 3552 O 334.19 -0.982541 1.67511 0
M  V30 3553 C 331.32 -1.38588 3.1845 0
M  V30 3554 C 330.274 -0.827115 4.19932 0
M  V30 3555 C 329.6 -2.00551 4.95665 0
M  V30 3556 C 330.9 0.16463 5.2204 0
M  V30 3557 H 332.594 0.371866 2.97082 0
M  V30 3558 H 330.14 0.180282 1.42867 0
M  V30 3559 H 332.093 -1.94023 3.74076 0
M  V30 3560 H 330.817 -2.09269 2.50747 0
M  V30 3561 H 329.476 -0.294702 3.65414 0
M  V30 3562 H 329.124 -2.6994 4.2443 0
M  V30 3563 H 328.824 -1.63784 5.64313 0
M  V30 3564 H 330.348 -2.56468 5.54127 0
M  V30 3565 H 331.762 -0.300699 5.72511 0
M  V30 3566 H 330.159 0.446813 5.98434 0
M  V30 3567 H 331.229 1.08905 4.72512 0
M  V30 3568 N 332.573 -1.56217 0.208337 0
M  V30 3569 C 333.536 -2.18455 -0.693557 0
M  V30 3570 C 334.536 -1.14268 -1.13135 0
M  V30 3571 O 335.726 -1.39577 -1.0423 0
M  V30 3572 C 332.858 -2.79727 -1.94848 0
M  V30 3573 H 334.051 -2.99519 -0.15114 0
M  V30 3574 H 331.604 -1.56245 -0.041287 0
M  V30 3575 H 332.339 -2.02497 -2.53309 0
M  V30 3576 H 332.124 -3.56009 -1.64316 0
M  V30 3577 H 333.614 -3.27475 -2.59133 0
M  V30 3578 N 334.051 0.0651679 -1.57465 0
M  V30 3579 C 334.981 1.07693 -2.07182 0
M  V30 3580 C 335.962 1.39962 -0.966673 0
M  V30 3581 O 337.147 1.49475 -1.2398 0
M  V30 3582 C 334.277 2.3885 -2.52127 0
M  V30 3583 C 333.231 2.20917 -3.66579 0
M  V30 3584 C 332.557 3.57515 -3.97601 0
M  V30 3585 C 333.857 1.62493 -4.9638 0
M  V30 3586 H 335.551 0.663199 -2.91962 0
M  V30 3587 H 333.097 0.317569 -1.40455 0
M  V30 3588 H 335.05 3.09928 -2.85522 0
M  V30 3589 H 333.774 2.82215 -1.64384 0
M  V30 3590 H 332.433 1.52279 -3.33477 0
M  V30 3591 H 332.081 3.98463 -3.06979 0
M  V30 3592 H 331.781 3.46353 -4.74672 0
M  V30 3593 H 333.305 4.30013 -4.33499 0
M  V30 3594 H 334.719 2.23445 -5.27963 0
M  V30 3595 H 333.116 1.62009 -5.77818 0
M  V30 3596 H 334.186 0.587041 -4.81333 0
M  V30 3597 N 335.529 1.53961 0.336706 0
M  V30 3598 C 336.778 1.70751 1.07363 0
M  V30 3599 C 337.091 0.481061 1.89592 0
M  V30 3600 O 338.297 0.530046 2.66276 0
M  V30 3601 C 336.753 3.01965 1.95818 0
M  V30 3602 C 336.361 4.31971 1.18764 0
M  V30 3603 C 338.105 3.28121 2.69327 0
M  V30 3604 C 336.012 5.54255 2.06289 0
M  V30 3605 H 334.942 0.636292 0.404535 0
M  V30 3606 H 337.593 1.80459 0.332681 0
M  V30 3607 H 335.975 2.86132 2.7376 0
M  V30 3608 H 337.149 4.5853 0.456849 0
M  V30 3609 H 335.464 4.12481 0.569946 0
M  V30 3610 H 338.061 4.16673 3.35094 0
M  V30 3611 H 338.404 2.45426 3.36261 0
M  V30 3612 H 338.937 3.44762 1.98454 0
M  V30 3613 H 335.676 6.39513 1.43885 0
M  V30 3614 H 335.196 5.31935 2.77138 0
M  V30 3615 H 336.875 5.90159 2.65182 0
M  V30 3616 N 337.007 -0.598083 1.45811 0
M  V30 3617 C 337.954 -1.7082 1.55207 0
M  V30 3618 C 338.924 -1.61278 0.39732 0
M  V30 3619 O 340.109 -1.80717 0.612038 0
M  V30 3620 C 337.249 -3.09144 1.53376 0
M  V30 3621 C 336.362 -3.29423 2.79472 0
M  V30 3622 C 335.497 -4.57907 2.69248 0
M  V30 3623 C 334.536 -4.71476 3.90354 0
M  V30 3624 N 333.673 -5.9127 3.78608 0
M  V30 3625 H 338.513 -1.62125 2.50039 0
M  V30 3626 H 336.05 -0.790389 1.24062 0
M  V30 3627 H 338.008 -3.89186 1.50301 0
M  V30 3628 H 336.638 -3.16773 0.620876 0
M  V30 3629 H 335.69 -2.43091 2.92594 0
M  V30 3630 H 337.002 -3.3532 3.69272 0
M  V30 3631 H 336.156 -5.46157 2.64192 0
M  V30 3632 H 334.895 -4.54423 1.77063 0
M  V30 3633 H 333.9 -3.81648 3.95759 0
M  V30 3634 H 335.125 -4.76751 4.83617 0
M  V30 3635 H 333.071 -5.88813 2.89199 0
M  V30 3636 H 332.988 -5.98369 4.6205 0
M  V30 3637 H 334.256 -6.81992 3.77501 0
M  V30 3638 N 338.485 -1.33259 -0.841409 0
M  V30 3639 C 339.733 -1.24326 -1.59334 0
M  V30 3640 C 340.054 0.191564 -1.94057 0
M  V30 3641 O 339.324 1.11967 -1.60749 0
M  V30 3642 H 337.904 -0.457174 -0.590763 0
M  V30 3643 H 340.566 -1.66947 -1.00571 0
M  V30 3644 H 339.662 -1.8352 -2.52442 0
M  V30 3645 N 339.963 1.05934 -1.16686 0
M  V30 3646 C 340.896 2.1295 -0.820225 0
M  V30 3647 C 341.874 1.61242 0.209722 0
M  V30 3648 O 343.058 1.88271 0.0929688 0
M  V30 3649 C 340.185 3.3797 -0.22223 0
M  V30 3650 C 339.231 4.08488 -1.22637 0
M  V30 3651 S 340.064 4.58015 -2.77457 0
M  V30 3652 C 341.22 5.86292 -2.19117 0
M  V30 3653 H 341.453 2.42025 -1.72659 0
M  V30 3654 H 338.986 1.18423 -0.990722 0
M  V30 3655 H 340.944 4.10335 0.116322 0
M  V30 3656 H 339.605 3.07045 0.66196 0
M  V30 3657 H 338.798 4.98291 -0.756455 0
M  V30 3658 H 338.4 3.42154 -1.51019 0
M  V30 3659 H 340.692 6.59246 -1.56209 0
M  V30 3660 H 341.635 6.38019 -3.07144 0
M  V30 3661 H 342.043 5.40497 -1.62858 0
M  V30 3662 N 341.441 0.965919 1.2453 0
M  V30 3663 C 342.669 0.644385 1.96609 0
M  V30 3664 C 343.084 -0.785823 1.71669 0
M  V30 3665 O 342.441 -1.52703 0.999399 0
M  V30 3666 C 342.492 0.907375 3.49927 0
M  V30 3667 O 342.213 2.28136 3.74013 0
M  V30 3668 C 343.714 0.599784 4.39224 0
M  V30 3669 H 340.934 0.240588 0.626385 0
M  V30 3670 H 343.478 1.29337 1.58405 0
M  V30 3671 H 341.633 0.304631 3.862 0
M  V30 3672 H 342.047 2.36002 4.68405 0
M  V30 3673 H 343.521 0.834263 5.45659 0
M  V30 3674 H 343.998 -0.465921 4.36722 0
M  V30 3675 H 344.604 1.18235 4.08535 0
M  V30 3676 N 342.919 -1.39368 0.735821 0
M  V30 3677 C 344.335 -1.54204 0.411492 0
M  V30 3678 C 344.535 -1.70268 -1.07755 0
M  V30 3679 O 343.591 -1.70364 -1.86366 0
M  V30 3680 C 344.904 -2.75925 1.19523 0
M  V30 3681 C 346.452 -2.89761 1.18354 0
M  V30 3682 C 346.927 -4.14421 1.94986 0
M  V30 3683 N 348.418 -4.21462 1.92156 0
M  V30 3684 C 349.153 -5.16871 2.48258 0
M  V30 3685 N 348.649 -6.18063 3.13001 0
M  V30 3686 N 350.442 -5.09093 2.38287 0
M  V30 3687 H 342.593 -1.27189 1.70108 0
M  V30 3688 H 344.856 -0.616517 0.720147 0
M  V30 3689 H 344.562 -2.70401 2.24892 0
M  V30 3690 H 344.436 -3.68614 0.800222 0
M  V30 3691 H 346.823 -2.94777 0.137975 0
M  V30 3692 H 346.904 -1.98133 1.61793 0
M  V30 3693 H 346.548 -4.10166 2.99543 0
M  V30 3694 H 346.478 -5.05095 1.48953 0
M  V30 3695 H 348.969 -3.48979 1.44991 0
M  V30 3696 H 349.282 -6.87326 3.53275 0
M  V30 3697 H 347.627 -6.18448 3.17091 0
M  V30 3698 H 350.818 -4.28973 1.8735 0
M  V30 3699 H 350.991 -5.83272 2.82308 0
M  V30 3700 N 344.397 -0.483516 -1.5 0
M  V30 3701 C 345.808 -0.0314176 -1.86674 0
M  V30 3702 C 346.159 1.37728 -1.39733 0
M  V30 3703 O 345.284 2.02327 -0.767635 0
M  V30 3704 C 345.879 -0.0502376 -3.38763 0
M  V30 3705 C 344.438 0.346442 -3.74802 0
M  V30 3706 C 343.585 -0.430366 -2.7394 0
M  V30 3707 H 346.536 -0.697182 -1.42566 0
M  V30 3708 H 346.557 0.749116 -3.73053 0
M  V30 3709 H 346.069 -1.07563 -3.72897 0
M  V30 3710 H 344.17 1.37572 -3.46273 0
M  V30 3711 H 344.283 0.0391486 -4.79084 0
M  V30 3712 H 342.647 0.117557 -2.54429 0
M  V30 3713 H 343.43 -1.4555 -3.10918 0
M  V30 3714 N 345.875 1.56104 -0.216619 0
M  V30 3715 C 346.805 2.23063 0.690296 0
M  V30 3716 C 347.786 1.20072 1.20485 0
M  V30 3717 O 348.971 1.48643 1.24976 0
M  V30 3718 C 346.101 2.90672 1.90072 0
M  V30 3719 C 345.055 4.00092 1.5202 0
M  V30 3720 C 344.381 4.54972 2.80899 0
M  V30 3721 C 345.681 5.17398 0.71391 0
M  V30 3722 H 347.375 2.99109 0.132038 0
M  V30 3723 H 344.921 1.43866 0.0620664 0
M  V30 3724 H 346.874 3.36204 2.54057 0
M  V30 3725 H 345.598 2.12066 2.48386 0
M  V30 3726 H 344.257 3.55283 0.903839 0
M  V30 3727 H 343.905 3.73102 3.37348 0
M  V30 3728 H 343.605 5.28817 2.56176 0
M  V30 3729 H 345.129 5.0322 3.45836 0
M  V30 3730 H 346.543 5.59342 1.25735 0
M  V30 3731 H 344.94 5.97444 0.563951 0
M  V30 3732 H 346.01 4.84088 -0.280527 0
M  V30 3733 N 347.353 -0.0568162 1.57498 0
M  V30 3734 C 348.578 -0.769402 1.92601 0
M  V30 3735 C 349.003 -1.69559 0.814336 0
M  V30 3736 O 348.361 -1.79811 -0.231903 0
M  V30 3737 C 348.409 -1.52634 3.26704 0
M  V30 3738 O 347.513 -2.63797 3.16994 0
M  V30 3739 H 346.854 -0.208909 0.63028 0
M  V30 3740 H 349.384 -0.0205798 2.0459 0
M  V30 3741 H 349.394 -1.90234 3.60936 0
M  V30 3742 H 348.069 -0.846875 4.07186 0
M  V30 3743 H 346.646 -2.28943 2.94346 0
M  V30 3744 N 348.832 -1.54138 -0.328536 0
M  V30 3745 C 350.06 -1.76062 -1.08673 0
M  V30 3746 C 350.475 -0.506852 -1.81869 0
M  V30 3747 O 349.832 0.522223 -1.74869 0
M  V30 3748 C 349.883 -2.95054 -2.08866 0
M  V30 3749 O 349.604 -4.15583 -1.38644 0
M  V30 3750 C 351.105 -3.2915 -2.96943 0
M  V30 3751 H 348.325 -0.587889 -0.323461 0
M  V30 3752 H 350.869 -2.0101 -0.376175 0
M  V30 3753 H 349.024 -2.72394 -2.75464 0
M  V30 3754 H 349.438 -4.82481 -2.05699 0
M  V30 3755 H 350.912 -4.15723 -3.63151 0
M  V30 3756 H 351.389 -2.461 -3.63774 0
M  V30 3757 H 351.995 -3.53871 -2.35914 0
M  V30 3758 N 350.31 0.590341 -1.46126 0
M  V30 3759 C 351.24 1.71032 -1.58966 0
M  V30 3760 C 352.221 1.64302 -0.440335 0
M  V30 3761 O 353.406 1.82436 -0.665634 0
M  V30 3762 C 350.536 3.09665 -1.57241 0
M  V30 3763 C 349.49 3.31221 -2.71066 0
M  V30 3764 C 348.816 4.70303 -2.54399 0
M  V30 3765 C 350.116 3.19796 -4.1295 0
M  V30 3766 H 351.81 1.60543 -2.52718 0
M  V30 3767 H 349.356 0.770933 -1.21625 0
M  V30 3768 H 351.309 3.87831 -1.64819 0
M  V30 3769 H 350.033 3.21036 -0.600289 0
M  V30 3770 H 348.692 2.55452 -2.62944 0
M  V30 3771 H 348.34 4.78429 -1.55288 0
M  V30 3772 H 348.04 4.85679 -3.30741 0
M  V30 3773 H 349.564 5.50647 -2.63857 0
M  V30 3774 H 350.978 3.87815 -4.22223 0
M  V30 3775 H 349.375 3.46696 -4.89818 0
M  V30 3776 H 350.445 2.16983 -4.33643 0
M  V30 3777 N 351.788 1.33704 0.83433 0
M  V30 3778 C 353.037 1.24763 1.58484 0
M  V30 3779 C 353.35 -0.183775 1.94735 0
M  V30 3780 O 354.556 -0.395234 2.68608 0
M  V30 3781 C 353.012 2.18638 2.85876 0
M  V30 3782 C 352.62 3.66974 2.56971 0
M  V30 3783 C 354.364 2.18581 3.63899 0
M  V30 3784 C 352.271 4.5275 3.80488 0
M  V30 3785 H 351.201 0.463425 0.594772 0
M  V30 3786 H 353.852 1.58797 0.919551 0
M  V30 3787 H 352.234 1.77542 3.5397 0
M  V30 3788 H 353.408 4.16538 1.9706 0
M  V30 3789 H 351.723 3.69366 1.92244 0
M  V30 3790 H 354.32 2.79894 4.55591 0
M  V30 3791 H 354.663 1.18207 3.99165 0
M  V30 3792 H 355.196 2.58062 3.02735 0
M  V30 3793 H 351.935 5.54017 3.5035 0
M  V30 3794 H 351.455 4.07927 4.39722 0
M  V30 3795 H 353.134 4.66784 4.4802 0
M  V30 3796 N 353.266 -1.05314 1.17247 0
M  V30 3797 C 354.491 -1.82509 0.985148 0
M  V30 3798 C 354.916 -1.82343 -0.461788 0
M  V30 3799 O 354.274 -1.23151 -1.33055 0
M  V30 3800 C 354.322 -3.26566 1.52929 0
M  V30 3801 O 353.426 -4.05666 0.742225 0
M  V30 3802 H 352.767 -0.564347 0.349869 0
M  V30 3803 H 355.297 -1.32718 1.55715 0
M  V30 3804 H 355.307 -3.77369 1.55103 0
M  V30 3805 H 353.982 -3.26001 2.58256 0
M  V30 3806 H 352.559 -3.64397 0.791794 0
M  V30 3807 N 354.744 -0.972509 -1.24016 0
M  V30 3808 C 355.969 -0.654417 -1.96805 0
M  V30 3809 C 356.394 0.770398 -1.716 0
M  V30 3810 O 355.752 1.52361 -0.982647 0
M  V30 3811 C 355.8 -0.941031 -3.48105 0
M  V30 3812 O 354.904 -0.0289472 -4.1239 0
M  V30 3813 H 354.245 -0.24692 -0.616382 0
M  V30 3814 H 356.775 -1.30396 -1.57664 0
M  V30 3815 H 356.785 -0.87452 -3.98517 0
M  V30 3816 H 355.46 -1.97939 -3.65777 0
M  V30 3817 H 354.037 -0.149192 -3.72601 0
M  V30 3818 N 356.222 1.38976 -0.743202 0
M  V30 3819 C 357.447 2.05161 -0.303936 0
M  V30 3820 C 357.872 1.55677 1.05576 0
M  V30 3821 O 357.23 0.704131 1.67068 0
M  V30 3822 C 357.278 3.59138 -0.324373 0
M  V30 3823 O 356.382 4.06668 0.685204 0
M  V30 3824 H 355.723 0.649815 -0.136518 0
M  V30 3825 H 358.253 1.77852 -1.01142 0
M  V30 3826 H 358.263 4.07639 -0.171618 0
M  V30 3827 H 356.938 3.94515 -1.31647 0
M  V30 3828 H 355.515 3.69561 0.497913 0
M  V30 3829 N 357.7 0.491464 1.49741 0
M  V30 3830 C 358.632 -0.328609 2.26832 0
M  V30 3831 C 359.645 -0.939113 1.32983 0
M  V30 3832 O 360.834 -0.824067 1.58339 0
M  V30 3833 C 357.934 -1.47675 3.05033 0
M  V30 3834 C 357.107 -0.975305 4.26388 0
M  V30 3835 C 356.166 -1.99991 4.86714 0
M  V30 3836 O 355.192 -1.57229 5.47054 0
M  V30 3837 N 356.394 -3.32962 4.75517 0
M  V30 3838 H 359.159 0.332377 2.97851 0
M  V30 3839 H 356.72 0.323441 1.58636 0
M  V30 3840 H 358.712 -2.15954 3.42266 0
M  V30 3841 H 357.282 -2.04206 2.36683 0
M  V30 3842 H 356.502 -0.117723 3.94024 0
M  V30 3843 H 357.79 -0.618531 5.05026 0
M  V30 3844 H 357.188 -3.70399 4.27576 0
M  V30 3845 H 355.745 -3.96982 5.16961 0
M  V30 3846 N 359.178 -1.55987 0.224894 0
M  V30 3847 C 360.403 -2.03232 -0.41369 0
M  V30 3848 C 360.828 -1.10359 -1.52323 0
M  V30 3849 O 360.186 -0.092395 -1.81064 0
M  V30 3850 C 360.234 -3.48682 -0.919405 0
M  V30 3851 O 359.338 -3.58947 -2.03054 0
M  V30 3852 H 358.679 -0.657428 -0.0931903 0
M  V30 3853 H 361.209 -2.01679 0.34451 0
M  V30 3854 H 361.219 -3.8907 -1.22835 0
M  V30 3855 H 359.894 -4.15761 -0.107339 0
M  V30 3856 H 358.471 -3.30448 -1.72796 0
M  V30 3857 N 360.656 0.0484629 -1.57525 0
M  V30 3858 C 361.896 0.748196 -1.90214 0
M  V30 3859 C 362.26 1.73545 -0.821347 0
M  V30 3860 O 363.461 2.48201 -1.03198 0
M  V30 3861 C 361.732 1.41727 -3.28098 0
M  V30 3862 S 363.291 2.14884 -3.82584 0
M  V30 3863 H 360.109 0.248307 -0.666232 0
M  V30 3864 H 362.711 0.00343188 -1.955 0
M  V30 3865 H 361.415 0.685244 -4.04639 0
M  V30 3866 H 360.946 2.20099 -3.26068 0
M  V30 3867 H 362.961 3.41755 -3.59747 0
M  V30 3868 N 362.134 1.5431 0.320358 0
M  V30 3869 C 363.066 1.80262 1.41556 0
M  V30 3870 C 364.079 0.684723 1.477 0
M  V30 3871 O 365.268 0.961886 1.50366 0
M  V30 3872 C 362.368 1.90825 2.8007 0
M  V30 3873 C 361.541 3.21023 2.97091 0
M  V30 3874 C 360.6 3.22247 4.15985 0
M  V30 3875 O 359.626 3.95871 4.08992 0
M  V30 3876 N 360.828 2.46258 5.25678 0
M  V30 3877 H 363.593 2.74778 1.19655 0
M  V30 3878 H 361.154 1.53646 0.510358 0
M  V30 3879 H 363.146 1.89067 3.57821 0
M  V30 3880 H 361.716 1.03392 2.95006 0
M  V30 3881 H 360.936 3.35715 2.06614 0
M  V30 3882 H 362.224 4.0698 3.05361 0
M  V30 3883 H 361.622 1.86037 5.34235 0
M  V30 3884 H 360.179 2.50275 6.01835 0
M  V30 3885 N 363.613 -0.582584 1.46437 0
M  V30 3886 C 364.843 -1.36484 1.55099 0
M  V30 3887 C 365.251 -1.88233 0.191056 0
M  V30 3888 O 364.594 -1.6429 -0.821858 0
M  V30 3889 C 364.656 -2.588 2.49525 0
M  V30 3890 C 364.32 -2.28517 3.95764 0
M  V30 3891 C 365.317 -1.87346 4.84972 0
M  V30 3892 C 363.002 -2.40658 4.40896 0
M  V30 3893 C 364.996 -1.5871 6.17325 0
M  V30 3894 C 362.683 -2.11635 5.73284 0
M  V30 3895 C 363.681 -1.70725 6.61318 0
M  V30 3896 O 363.369 -1.42057 7.91249 0
M  V30 3897 H 363.101 -0.423297 0.527063 0
M  V30 3898 H 365.655 -0.715188 1.92547 0
M  V30 3899 H 363.885 -3.26571 2.07095 0
M  V30 3900 H 365.574 -3.20868 2.48593 0
M  V30 3901 H 366.34 -1.77481 4.5136 0
M  V30 3902 H 362.219 -2.71463 3.72598 0
M  V30 3903 H 365.763 -1.26704 6.85997 0
M  V30 3904 H 361.66 -2.21124 6.06444 0
M  V30 3905 H 362.428 -1.55901 8.03515 0
M  V30 3906 N 365.091 -1.34144 -0.827227 0
M  V30 3907 C 366.319 -1.29325 -1.61501 0
M  V30 3908 C 366.734 0.13354 -1.88327 0
M  V30 3909 O 366.091 1.0793 -1.47164 0
M  V30 3910 C 366.142 -2.07746 -2.95844 0
M  V30 3911 O 365.863 -3.4486 -2.70191 0
M  V30 3912 C 367.364 -2.10273 -3.90256 0
M  V30 3913 H 364.584 -0.445069 -0.50215 0
M  V30 3914 H 367.128 -1.76693 -1.02955 0
M  V30 3915 H 365.283 -1.6403 -3.5096 0
M  V30 3916 H 365.697 -3.85345 -3.55822 0
M  V30 3917 H 367.171 -2.69575 -4.81698 0
M  V30 3918 H 367.648 -1.096 -4.25305 0
M  V30 3919 H 368.254 -2.54059 -3.41078 0
M  V30 3920 N 366.569 1.04691 -1.17803 0
M  V30 3921 C 367.499 2.14494 -0.92275 0
M  V30 3922 C 368.48 1.69546 0.137179 0
M  V30 3923 O 369.665 1.94195 -0.0141108 0
M  V30 3924 C 366.795 3.44491 -0.440803 0
M  V30 3925 C 365.749 4.03031 -1.4405 0
M  V30 3926 C 365.075 5.28432 -0.81631 0
M  V30 3927 C 366.375 4.39932 -2.81527 0
M  V30 3928 H 368.069 2.36107 -1.84103 0
M  V30 3929 H 365.615 1.1347 -0.886599 0
M  V30 3930 H 367.568 4.2066 -0.249602 0
M  V30 3931 H 366.292 3.22546 0.513025 0
M  V30 3932 H 364.951 3.28937 -1.61853 0
M  V30 3933 H 364.599 5.02792 0.144511 0
M  V30 3934 H 364.299 5.68559 -1.48371 0
M  V30 3935 H 365.823 6.07284 -0.635496 0
M  V30 3936 H 367.237 5.07113 -2.67412 0
M  V30 3937 H 365.634 4.9109 -3.44892 0
M  V30 3938 H 366.704 3.50045 -3.35554 0
M  V30 3939 N 368.047 0.979072 1.23499 0
M  V30 3940 C 369.324 0.563674 1.87302 0
M  V30 3941 C 369.704 -0.959199 1.88049 0
M  V30 3942 O 369.052 -1.83535 1.36114 0
M  V30 3943 C 369.262 1.16822 3.28867 0
M  V30 3944 C 370.61 1.26014 4.0547 0
M  V30 3945 O 371.634 1.12158 3.38082 0
M  V30 3946 O 370.493 1.48044 5.26066 0
M  V30 3947 H 367.587 0.189602 0.804972 0
M  V30 3948 H 370.133 1.07407 1.31384 0
M  V30 3949 H 368.905 2.21049 3.22883 0
M  V30 3950 H 368.528 0.642564 3.92373 0
M  V30 3951 N 369.525 -1.3858 0.750561 0
M  V30 3952 C 370.488 -2.28836 0.129152 0
M  V30 3953 C 371.488 -1.47045 -0.650714 0
M  V30 3954 O 372.678 -1.6753 -0.477428 0
M  V30 3955 C 369.81 -3.30751 -0.825622 0
M  V30 3956 H 371.003 -2.85294 0.924516 0
M  V30 3957 H 368.556 -1.47489 0.517376 0
M  V30 3958 H 369.291 -2.79378 -1.64677 0
M  V30 3959 H 369.076 -3.91177 -0.268852 0
M  V30 3960 H 370.566 -3.98249 -1.2565 0
M  V30 3961 N 371.003 -0.499398 -1.49478 0
M  V30 3962 C 371.95 0.279881 -2.29097 0
M  V30 3963 C 372.92 0.961805 -1.3542 0
M  V30 3964 O 374.105 0.968777 -1.64376 0
M  V30 3965 C 371.245 1.33932 -3.18051 0
M  V30 3966 C 370.358 0.669333 -4.26783 0
M  V30 3967 C 369.493 1.70907 -5.02955 0
M  V30 3968 C 368.532 1.02087 -6.03527 0
M  V30 3969 N 367.669 2.00474 -6.7287 0
M  V30 3970 H 372.509 -0.405317 -2.95231 0
M  V30 3971 H 370.046 -0.211726 -1.45568 0
M  V30 3972 H 372.004 1.96553 -3.67998 0
M  V30 3973 H 370.634 1.9933 -2.53904 0
M  V30 3974 H 369.686 -0.0701234 -3.80335 0
M  V30 3975 H 370.998 0.127503 -4.98637 0
M  V30 3976 H 370.152 2.41037 -5.56764 0
M  V30 3977 H 368.891 2.28476 -4.30871 0
M  V30 3978 H 367.896 0.305338 -5.48951 0
M  V30 3979 H 369.121 0.451708 -6.77596 0
M  V30 3980 H 367.067 2.57007 -6.03559 0
M  V30 3981 H 366.984 1.51353 -7.40694 0
M  V30 3982 H 368.252 2.69897 -7.31284 0
M  V30 3983 N 372.481 1.55866 -0.233164 0
M  V30 3984 C 373.897 1.59133 0.121988 0
M  V30 3985 C 374.097 1.25016 1.58029 0
M  V30 3986 O 373.153 0.990922 2.32243 0
M  V30 3987 C 374.466 2.99932 -0.214792 0
M  V30 3988 C 376.014 3.12601 -0.157971 0
M  V30 3989 C 376.489 4.55597 -0.46859 0
M  V30 3990 N 377.98 4.61305 -0.418585 0
M  V30 3991 C 378.715 5.69903 -0.63227 0
M  V30 3992 N 378.211 6.86819 -0.90835 0
M  V30 3993 N 380.004 5.59264 -0.563913 0
M  V30 3994 H 372.155 1.76315 -1.18434 0
M  V30 3995 H 374.418 0.820093 -0.475553 0
M  V30 3996 H 374.124 3.29588 -1.22739 0
M  V30 3997 H 373.998 3.74327 0.464691 0
M  V30 3998 H 376.385 2.82735 0.845283 0
M  V30 3999 H 376.466 2.40511 -0.871102 0
M  V30 4000 H 376.11 4.86182 -1.46934 0
M  V30 4001 H 376.04 5.25928 0.265865 0
M  V30 4002 H 378.531 3.77297 -0.213368 0
M  V30 4003 H 378.844 7.65507 -1.05919 0
M  V30 4004 H 377.189 6.88536 -0.945673 0
M  V30 4005 H 380.38 4.66802 -0.348372 0
M  V30 4006 H 380.553 6.43831 -0.733847 0
M  V30 4007 N 373.959 -0.0401083 1.57549 0
M  V30 4008 C 374.906 -1.04413 2.05831 0
M  V30 4009 C 375.876 -1.36585 0.945184 0
M  V30 4010 O 377.061 -1.47112 1.21502 0
M  V30 4011 C 374.201 -2.34336 2.53339 0
M  V30 4012 C 373.314 -2.08419 3.78398 0
M  V30 4013 C 372.449 -3.32133 4.14561 0
M  V30 4014 C 371.488 -3.01721 5.3257 0
M  V30 4015 N 370.625 -4.17855 5.64218 0
M  V30 4016 H 375.465 -0.625442 2.91363 0
M  V30 4017 H 373.002 -0.297218 1.44066 0
M  V30 4018 H 374.96 -3.10234 2.78946 0
M  V30 4019 H 373.59 -2.73948 1.7074 0
M  V30 4020 H 372.642 -1.23069 3.59942 0
M  V30 4021 H 373.954 -1.81978 4.64419 0
M  V30 4022 H 373.108 -4.16406 4.41238 0
M  V30 4023 H 371.847 -3.61678 3.2717 0
M  V30 4024 H 370.852 -2.15849 5.05657 0
M  V30 4025 H 372.077 -2.73466 6.21605 0
M  V30 4026 H 370.023 -4.47372 4.79786 0
M  V30 4027 H 369.94 -3.94798 6.44725 0
M  V30 4028 H 371.208 -5.03033 5.95465 0
M  V30 4029 N 375.437 -1.54477 -0.31217 0
M  V30 4030 C 376.387 -1.81037 -1.38598 0
M  V30 4031 C 377.371 -0.666941 -1.46426 0
M  V30 4032 O 378.563 -0.927269 -1.50767 0
M  V30 4033 C 375.692 -2.05127 -2.75277 0
M  V30 4034 C 374.778 -3.25624 -2.71716 0
M  V30 4035 N 375.169 -4.46428 -2.37773 0
M  V30 4036 C 373.467 -3.27427 -3.02833 0
M  V30 4037 C 374.168 -5.28406 -2.43232 0
M  V30 4038 N 373.144 -4.6586 -2.80135 0
M  V30 4039 H 376.946 -2.7201 -1.11301 0
M  V30 4040 H 374.46 -1.53826 -0.520705 0
M  V30 4041 H 376.457 -2.22299 -3.52688 0
M  V30 4042 H 375.117 -1.15416 -3.03495 0
M  V30 4043 H 376.128 -4.73227 -2.1042 0
M  V30 4044 H 372.805 -2.47786 -3.36018 0
M  V30 4045 H 374.195 -6.34903 -2.19882 0
M  V30 4046 N 376.915 0.57481 -1.46744 0
M  V30 4047 C 378.161 1.3347 -1.52688 0
M  V30 4048 C 378.494 1.93353 -0.181229 0
M  V30 4049 O 377.769 1.76912 0.808237 0
M  V30 4050 C 378.052 2.45811 -2.63152 0
M  V30 4051 C 377.905 1.90912 -4.07275 0
M  V30 4052 C 379.224 3.47822 -2.69644 0
M  V30 4053 H 376.343 0.483935 -0.555856 0
M  V30 4054 H 378.985 0.644968 -1.78718 0
M  V30 4055 H 377.135 3.04646 -2.41088 0
M  V30 4056 H 378.807 1.36473 -4.4065 0
M  V30 4057 H 377.05 1.21691 -4.16382 0
M  V30 4058 H 377.721 2.72042 -4.80309 0
M  V30 4059 H 380.197 2.9888 -2.895 0
M  V30 4060 H 379.073 4.23876 -3.48742 0
M  V30 4061 H 379.334 4.05555 -1.76005 0
M  V30 4062 N 378.394 1.34581 0.820102 0
M  V30 4063 C 379.357 1.2628 1.91275 0
M  V30 4064 C 380.357 0.177344 1.59819 0
M  V30 4065 O 381.547 0.430156 1.68806 0
M  V30 4066 C 378.679 0.950327 3.27386 0
M  V30 4067 H 379.872 2.23421 2.00057 0
M  V30 4068 H 377.425 1.1891 1.0144 0
M  V30 4069 H 378.16 -0.0177938 3.24295 0
M  V30 4070 H 377.945 1.73549 3.51601 0
M  V30 4071 H 379.435 0.917492 4.07396 0
M  V30 4072 N 379.872 -1.04064 1.18357 0
M  V30 4073 C 380.782 -2.15569 0.925596 0
M  V30 4074 C 381.798 -1.7365 -0.110295 0
M  V30 4075 O 382.974 -2.01273 0.0716218 0
M  V30 4076 C 380.039 -3.43704 0.454836 0
M  V30 4077 C 379.1 -4.00004 1.55869 0
M  V30 4078 C 378.333 -5.22023 1.1103 0
M  V30 4079 O 378.556 -5.70392 -0.0309756 0
M  V30 4080 O 377.49 -5.70856 1.90805 0
M  V30 4081 H 381.316 -2.40187 1.8586 0
M  V30 4082 H 378.901 -1.1402 0.965394 0
M  V30 4083 H 380.783 -4.20923 0.200382 0
M  V30 4084 H 379.458 -3.20559 -0.449876 0
M  V30 4085 H 378.365 -3.24172 1.86716 0
M  V30 4086 H 379.698 -4.2749 2.43953 0
M  V30 4087 N 381.35 -0.985608 -1.22978 0
M  V30 4088 C 382.313 -0.535071 -2.22867 0
M  V30 4089 C 383.313 0.378123 -1.56291 0
M  V30 4090 O 384.503 0.171092 -1.73358 0
M  V30 4091 C 381.635 0.222702 -3.40172 0
M  V30 4092 H 382.828 -1.41835 -2.6424 0
M  V30 4093 H 380.381 -0.772042 -1.35901 0
M  V30 4094 H 381.116 1.12229 -3.04262 0
M  V30 4095 H 380.901 -0.43288 -3.89703 0
M  V30 4096 H 382.391 0.526335 -4.1427 0
M  V30 4097 N 382.828 1.3818 -0.7579 0
M  V30 4098 C 384.077 1.99261 -0.312744 0
M  V30 4099 C 384.39 1.60846 1.11301 0
M  V30 4100 O 385.596 2.14929 1.65885 0
M  V30 4101 C 384.052 3.56294 -0.50821 0
M  V30 4102 C 383.66 4.03657 -1.94333 0
M  V30 4103 C 385.404 4.24313 -0.125982 0
M  V30 4104 C 383.311 5.53347 -2.08712 0
M  V30 4105 H 382.241 0.745456 -0.113185 0
M  V30 4106 H 384.892 1.57889 -0.935056 0
M  V30 4107 H 383.274 3.95575 0.183353 0
M  V30 4108 H 384.448 3.75655 -2.66871 0
M  V30 4109 H 382.763 3.48376 -2.28086 0
M  V30 4110 H 385.36 5.34279 -0.212125 0
M  V30 4111 H 385.703 4.05962 0.921964 0
M  V30 4112 H 386.236 3.90285 -0.769563 0
M  V30 4113 H 382.975 5.76607 -3.11777 0
M  V30 4114 H 382.495 5.83078 -1.4064 0
M  V30 4115 H 384.174 6.19111 -1.87912 0
M  V30 4116 N 384.306 0.507319 1.49211 0
M  V30 4117 C 385.546 -0.0332372 2.04373 0
M  V30 4118 C 385.91 -1.33694 1.37804 0
M  V30 4119 O 387.111 -1.96213 1.83722 0
M  V30 4120 C 385.382 -0.17599 3.56966 0
M  V30 4121 S 386.941 -0.669882 4.33657 0
M  V30 4122 H 383.759 0.00123603 0.710999 0
M  V30 4123 H 386.361 0.682725 1.83191 0
M  V30 4124 H 385.065 0.778053 4.02957 0
M  V30 4125 H 384.596 -0.917005 3.82563 0
M  V30 4126 H 386.611 -1.93806 4.56786 0
M  V30 4127 N 385.784 -1.5574 0.241426 0
M  V30 4128 C 386.731 -2.21149 -0.660432 0
M  V30 4129 C 387.701 -1.17356 -1.17545 0
M  V30 4130 O 388.886 -1.45784 -1.23093 0
M  V30 4131 C 386.026 -2.91059 -1.85414 0
M  V30 4132 C 385.139 -4.09495 -1.37616 0
M  V30 4133 C 384.274 -4.67135 -2.529 0
M  V30 4134 C 383.313 -5.77831 -2.01936 0
M  V30 4135 N 382.45 -6.29677 -3.10566 0
M  V30 4136 H 387.29 -2.97845 -0.095955 0
M  V30 4137 H 384.827 -1.47057 -0.0356024 0
M  V30 4138 H 386.785 -3.29788 -2.5553 0
M  V30 4139 H 385.415 -2.16846 -2.39118 0
M  V30 4140 H 384.467 -3.76117 -0.569235 0
M  V30 4141 H 385.779 -4.89423 -0.962618 0
M  V30 4142 H 384.933 -5.08409 -3.31067 0
M  V30 4143 H 383.672 -3.86411 -2.97553 0
M  V30 4144 H 382.677 -5.36039 -1.22238 0
M  V30 4145 H 383.902 -6.60402 -1.58259 0
M  V30 4146 H 381.848 -5.5186 -3.54664 0
M  V30 4147 H 381.765 -7.04783 -2.73526 0
M  V30 4148 H 383.033 -6.75609 -3.88809 0
M  V30 4149 N 387.262 0.0317525 -1.57568 0
M  V30 4150 C 388.172 1.05021 -2.0978 0
M  V30 4151 C 389.188 1.39809 -1.03583 0
M  V30 4152 O 390.364 1.49182 -1.35302 0
M  V30 4153 C 387.429 2.33301 -2.56459 0
M  V30 4154 C 386.49 2.0512 -3.77127 0
M  V30 4155 C 385.723 3.27283 -4.2157 0
M  V30 4156 O 385.946 4.37861 -3.65559 0
M  V30 4157 O 384.88 3.13141 -5.14029 0
M  V30 4158 H 388.706 0.636505 -2.96955 0
M  V30 4159 H 386.291 0.248559 -1.47318 0
M  V30 4160 H 388.173 3.08722 -2.86825 0
M  V30 4161 H 386.848 2.73973 -1.72397 0
M  V30 4162 H 385.755 1.27276 -3.51784 0
M  V30 4163 H 387.088 1.69305 -4.62165 0
M  V30 4164 N 388.74 1.54641 0.303973 0
M  V30 4165 C 389.672 1.81754 1.39636 0
M  V30 4166 C 390.685 0.70035 1.46966 0
M  V30 4167 O 391.874 0.97778 1.49338 0
M  V30 4168 C 388.974 1.93785 2.7803 0
M  V30 4169 C 388.147 3.24156 2.93669 0
M  V30 4170 C 387.206 3.26641 4.12544 0
M  V30 4171 O 386.232 4.00187 4.04771 0
M  V30 4172 N 387.434 2.5182 5.23036 0
M  V30 4173 H 390.199 2.76031 1.16734 0
M  V30 4174 H 387.76 1.54178 0.494033 0
M  V30 4175 H 389.752 1.92852 3.55795 0
M  V30 4176 H 388.322 1.06515 2.93893 0
M  V30 4177 H 387.542 3.37887 2.03042 0
M  V30 4178 H 388.83 4.10195 3.01027 0
M  V30 4179 H 388.228 1.91692 5.32232 0
M  V30 4180 H 386.785 2.56644 5.99147 0
M  V30 4181 N 390.218 -0.567019 1.47046 0
M  V30 4182 C 391.168 -1.67018 1.55207 0
M  V30 4183 C 392.152 -1.55543 0.411714 0
M  V30 4184 O 393.344 -1.64192 0.661064 0
M  V30 4185 C 390.473 -3.05801 1.56014 0
M  V30 4186 C 389.559 -3.22515 2.75399 0
M  V30 4187 N 389.95 -3.09329 4.00186 0
M  V30 4188 C 388.248 -3.53493 2.71954 0
M  V30 4189 C 388.949 -3.2847 4.80086 0
M  V30 4190 N 387.925 -3.54352 4.12233 0
M  V30 4191 H 391.727 -1.55377 2.4947 0
M  V30 4192 H 389.241 -0.771503 1.42904 0
M  V30 4193 H 391.238 -3.84996 1.59949 0
M  V30 4194 H 389.898 -3.18561 0.628396 0
M  V30 4195 H 390.909 -2.86863 4.31196 0
M  V30 4196 H 387.586 -3.7284 1.87873 0
M  V30 4197 H 388.976 -3.23326 5.88991 0
M  V30 4198 N 391.696 -1.35014 -0.812953 0
M  V30 4199 C 392.626 -1.30069 -1.93919 0
M  V30 4200 C 393.607 -0.176275 -1.69184 0
M  V30 4201 O 394.792 -0.370227 -1.90638 0
M  V30 4202 C 391.922 -1.06547 -3.30552 0
M  V30 4203 C 390.876 -2.15561 -3.69753 0
M  V30 4204 C 390.202 -1.77214 -5.04479 0
M  V30 4205 C 391.502 -3.57476 -3.808 0
M  V30 4206 H 393.196 -2.24303 -1.98314 0
M  V30 4207 H 390.742 -1.07977 -0.952736 0
M  V30 4208 H 392.695 -1.01729 -4.08937 0
M  V30 4209 H 391.419 -0.0875719 -3.26483 0
M  V30 4210 H 390.078 -2.19466 -2.9365 0
M  V30 4211 H 389.726 -0.780589 -4.96906 0
M  V30 4212 H 389.426 -2.50184 -5.31678 0
M  V30 4213 H 390.95 -1.7391 -5.8531 0
M  V30 4214 H 392.364 -3.55929 -4.4943 0
M  V30 4215 H 390.761 -4.29152 -4.19462 0
M  V30 4216 H 391.831 -3.94091 -2.82525 0
M  V30 4217 N 393.175 1.03435 -1.18907 0
M  V30 4218 C 394.422 1.76743 -0.988334 0
M  V30 4219 C 394.75 1.88447 0.481441 0
M  V30 4220 O 394.005 1.39383 1.37371 0
M  V30 4221 C 394.304 3.19792 -1.59586 0
M  V30 4222 C 393.97 3.28108 -3.09283 0
M  V30 4223 C 392.632 3.30084 -3.5014 0
M  V30 4224 C 394.984 3.27696 -4.05296 0
M  V30 4225 C 392.312 3.29299 -4.85571 0
M  V30 4226 C 394.664 3.28451 -5.4065 0
M  V30 4227 C 393.328 3.28723 -5.80946 0
M  V30 4228 H 392.598 0.64675 -0.361657 0
M  V30 4229 H 395.245 1.21442 -1.48068 0
M  V30 4230 H 393.55 3.78136 -1.02568 0
M  V30 4231 H 395.247 3.75171 -1.41589 0
M  V30 4232 H 391.837 3.27294 -2.76725 0
M  V30 4233 H 396.021 3.25354 -3.74778 0
M  V30 4234 H 391.277 3.2783 -5.16079 0
M  V30 4235 H 395.451 3.27082 -6.14809 0
M  V30 4236 H 393.078 3.27868 -6.85862 0
M  V30 4237 N 394.653 0.992116 1.22453 0
M  V30 4238 C 395.583 0.561677 2.26644 0
M  V30 4239 C 396.564 -0.411055 1.65059 0
M  V30 4240 O 397.749 -0.301861 1.9184 0
M  V30 4241 C 394.879 -0.125247 3.47074 0
M  V30 4242 C 393.833 0.765948 4.21091 0
M  V30 4243 C 393.159 -0.0538484 5.34673 0
M  V30 4244 C 394.459 2.06242 4.79856 0
M  V30 4245 H 396.153 1.43259 2.62902 0
M  V30 4246 H 393.699 0.690283 1.26377 0
M  V30 4247 H 395.652 -0.437764 4.1912 0
M  V30 4248 H 394.376 -1.03069 3.0991 0
M  V30 4249 H 393.035 1.0621 3.50878 0
M  V30 4250 H 392.683 -0.960188 4.9375 0
M  V30 4251 H 392.383 0.539415 5.85119 0
M  V30 4252 H 393.907 -0.360477 6.09535 0
M  V30 4253 H 395.321 1.8139 5.43848 0
M  V30 4254 H 393.718 2.60444 5.40638 0
M  V30 4255 H 394.788 2.74167 3.99951 0
M  V30 4256 N 396.131 -1.37776 0.765217 0
M  V30 4257 C 397.542 -1.82521 0.392819 0
M  V30 4258 C 397.893 -1.63789 -1.08017 0
M  V30 4259 O 397.018 -1.14542 -1.83601 0
M  V30 4260 C 397.613 -3.31358 0.706214 0
M  V30 4261 C 396.172 -3.74406 0.386952 0
M  V30 4262 C 395.319 -2.60394 0.953422 0
M  V30 4263 H 398.27 -1.2634 0.960412 0
M  V30 4264 H 398.291 -3.80498 -0.0114706 0
M  V30 4265 H 397.803 -3.44959 1.77833 0
M  V30 4266 H 395.904 -3.66377 -0.678112 0
M  V30 4267 H 396.017 -4.70749 0.890636 0
M  V30 4268 H 394.381 -2.51878 0.378064 0
M  V30 4269 H 395.164 -2.76791 2.03081 0
M  V30 4270 N 397.609 -0.515225 -1.4894 0
M  V30 4271 C 398.856 0.024215 -2.02486 0
M  V30 4272 C 399.184 1.35671 -1.39368 0
M  V30 4273 O 398.439 1.88566 -0.523574 0
M  V30 4274 C 398.738 0.210595 -3.56779 0
M  V30 4275 C 398.404 -1.04569 -4.38607 0
M  V30 4276 C 397.066 -1.39002 -4.60686 0
M  V30 4277 C 399.418 -1.88008 -4.86109 0
M  V30 4278 C 396.746 -2.568 -5.27514 0
M  V30 4279 C 399.098 -3.04972 -5.54234 0
M  V30 4280 C 397.762 -3.39768 -5.74555 0
M  V30 4281 H 397.032 0.00886088 -0.740947 0
M  V30 4282 H 399.679 -0.678263 -1.79086 0
M  V30 4283 H 397.984 0.99572 -3.78936 0
M  V30 4284 H 399.681 0.642659 -3.95817 0
M  V30 4285 H 396.271 -0.767497 -4.21672 0
M  V30 4286 H 400.455 -1.62719 -4.68867 0
M  V30 4287 H 395.711 -2.8398 -5.41447 0
M  V30 4288 H 399.885 -3.69943 -5.90013 0
M  V30 4289 H 397.512 -4.31148 -6.26112 0
M  V30 4290 N 399.087 1.5561 -0.249682 0
M  V30 4291 C 400.312 2.03865 0.381305 0
M  V30 4292 C 400.737 1.12769 1.50548 0
M  V30 4293 O 400.095 0.121189 1.80895 0
M  V30 4294 C 400.143 3.50101 0.863816 0
M  V30 4295 O 399.247 3.62132 1.97318 0
M  V30 4296 H 398.588 0.658827 0.0827194 0
M  V30 4297 H 401.118 2.01105 -0.376552 0
M  V30 4298 H 401.128 3.90975 1.1663 0
M  V30 4299 H 399.803 4.1588 0.0411816 0
M  V30 4300 H 398.38 3.33155 1.67517 0
M  V30 4301 N 400.565 -0.0233959 1.57583 0
M  V30 4302 C 401.795 -0.723631 1.93513 0
M  V30 4303 C 402.203 -1.69115 0.848333 0
M  V30 4304 O 401.546 -1.82781 -0.183484 0
M  V30 4305 C 401.608 -1.53075 3.25282 0
M  V30 4306 C 401.272 -0.727388 4.51174 0
M  V30 4307 C 402.269 -0.0251924 5.19894 0
M  V30 4308 C 399.954 -0.680256 4.97672 0
M  V30 4309 C 401.948 0.713374 6.33395 0
M  V30 4310 C 399.635 0.0620523 6.11068 0
M  V30 4311 C 400.633 0.757622 6.78785 0
M  V30 4312 O 400.321 1.48787 7.90011 0
M  V30 4313 H 400.053 -0.208051 0.643188 0
M  V30 4314 H 402.607 0.0167489 2.05393 0
M  V30 4315 H 400.837 -2.31508 3.09744 0
M  V30 4316 H 402.526 -2.11413 3.46496 0
M  V30 4317 H 403.292 -0.0526003 4.84971 0
M  V30 4318 H 399.171 -1.21116 4.44805 0
M  V30 4319 H 402.715 1.25683 6.86185 0
M  V30 4320 H 398.612 0.0913634 6.45435 0
M  V30 4321 H 399.38 1.40213 8.06401 0
M  V30 4322 N 402.043 -1.548 -0.295768 0
M  V30 4323 C 402.99 -1.86113 -1.36494 0
M  V30 4324 C 403.96 -0.7105 -1.50137 0
M  V30 4325 O 405.145 -0.959626 -1.64912 0
M  V30 4326 C 402.285 -2.11861 -2.72413 0
M  V30 4327 C 401.398 -3.39471 -2.67177 0
M  V30 4328 C 400.533 -3.55035 -3.95125 0
M  V30 4329 C 399.572 -4.76418 -3.84308 0
M  V30 4330 N 398.709 -4.8876 -5.04042 0
M  V30 4331 H 403.549 -2.77314 -1.09091 0
M  V30 4332 H 401.086 -1.37315 -0.52753 0
M  V30 4333 H 403.044 -2.24786 -3.51464 0
M  V30 4334 H 401.674 -1.2392 -2.98066 0
M  V30 4335 H 400.726 -3.35139 -1.79962 0
M  V30 4336 H 402.038 -4.28646 -2.55076 0
M  V30 4337 H 401.192 -3.67653 -4.82614 0
M  V30 4338 H 399.931 -2.64002 -4.10066 0
M  V30 4339 H 398.936 -4.63827 -2.95202 0
M  V30 4340 H 400.161 -5.68863 -3.70906 0
M  V30 4341 H 398.107 -4.00652 -5.19436 0
M  V30 4342 H 398.024 -5.71945 -4.94384 0
M  V30 4343 H 399.292 -5.0574 -5.93167 0
M  V30 4344 N 403.521 0.559213 -1.47345 0
M  V30 4345 C 404.469 1.68747 -1.60085 0
M  V30 4346 C 405.463 1.628 -0.46825 0
M  V30 4347 O 406.669 1.68009 -0.645977 0
M  V30 4348 H 403.044 0.558329 -0.503759 0
M  V30 4349 H 405.015 1.55138 -2.54902 0
M  V30 4350 C 403.764 3.07103 -1.63042 0
M  V30 4351 H 403.087 3.12361 -2.49541 0
M  V30 4352 H 404.527 3.85743 -1.76006 0
M  V30 4353 C 402.986 3.34935 -0.363357 0
M  V30 4354 O 403.516 3.98102 0.536416 0
M  V30 4355 N 401.722 2.89574 -0.244 0
M  V30 4356 H 401.269 2.38348 -0.977133 0
M  V30 4357 H 401.227 3.08566 0.602836 0
M  V30 4358 N 404.999 1.35443 0.805782 0
M  V30 4359 C 405.946 1.28431 1.91766 0
M  V30 4360 C 406.916 0.156102 1.65365 0
M  V30 4361 O 408.101 0.339936 1.87747 0
M  V30 4362 C 405.241 1.06301 3.2832 0
M  V30 4363 C 404.354 2.2805 3.66902 0
M  V30 4364 C 403.489 1.99064 4.92491 0
M  V30 4365 C 402.528 3.16863 5.23703 0
M  V30 4366 N 401.665 2.87647 6.40471 0
M  V30 4367 H 406.505 2.23511 1.97096 0
M  V30 4368 H 404.042 1.11105 0.964054 0
M  V30 4369 H 406 0.915012 4.07042 0
M  V30 4370 H 404.63 0.148822 3.22457 0
M  V30 4371 H 403.682 2.53711 2.83434 0
M  V30 4372 H 404.994 3.1601 3.85927 0
M  V30 4373 H 404.148 1.81099 5.7904 0
M  V30 4374 H 402.887 1.0839 4.75503 0
M  V30 4375 H 401.892 3.35404 4.35642 0
M  V30 4376 H 403.117 4.08339 5.4262 0
M  V30 4377 H 401.063 1.99568 6.24907 0
M  V30 4378 H 400.98 3.69141 6.59751 0
M  V30 4379 H 402.248 2.73226 7.30047 0
M  V30 4380 N 406.477 -1.02803 1.19454 0
M  V30 4381 C 407.707 -1.79581 1.02149 0
M  V30 4382 C 408.115 -1.84182 -0.432851 0
M  V30 4383 O 407.458 -1.28534 -1.31243 0
M  V30 4384 C 407.52 -3.25993 1.51554 0
M  V30 4385 C 407.184 -3.45025 2.99678 0
M  V30 4386 C 408.181 -3.35175 3.97434 0
M  V30 4387 C 405.866 -3.71212 3.38389 0
M  V30 4388 C 407.86 -3.51238 5.31893 0
M  V30 4389 C 405.547 -3.8692 4.73008 0
M  V30 4390 C 406.545 -3.76936 5.69569 0
M  V30 4391 O 406.233 -3.92179 7.01748 0
M  V30 4392 H 405.965 -0.571962 0.360327 0
M  V30 4393 H 408.519 -1.30367 1.58725 0
M  V30 4394 H 406.749 -3.76235 0.893543 0
M  V30 4395 H 408.438 -3.84368 1.30444 0
M  V30 4396 H 409.204 -3.14895 3.68872 0
M  V30 4397 H 405.083 -3.78075 2.6378 0
M  V30 4398 H 408.627 -3.43362 6.07247 0
M  V30 4399 H 404.524 -4.06699 5.01265 0
M  V30 4400 H 405.292 -4.09265 7.08833 0
M  V30 4401 N 407.956 -0.998596 -1.21925 0
M  V30 4402 C 409.204 -0.676325 -1.90448 0
M  V30 4403 C 409.525 0.794719 -1.78071 0
M  V30 4404 O 408.795 1.5701 -1.17152 0
M  V30 4405 H 407.375 -0.247165 -0.704925 0
M  V30 4406 H 410.037 -1.26633 -1.48156 0
M  V30 4407 H 409.133 -0.943858 -2.97486 0
M  V30 4408 N 409.434 1.37368 -0.772513 0
M  V30 4409 C 410.367 2.27956 -0.105593 0
M  V30 4410 C 411.345 1.46362 0.708295 0
M  V30 4411 O 412.529 1.75695 0.682895 0
M  V30 4412 C 409.656 3.27687 0.856686 0
M  V30 4413 C 408.702 4.26312 0.1267 0
M  V30 4414 S 409.535 5.22206 -1.1858 0
M  V30 4415 C 410.691 6.25488 -0.227081 0
M  V30 4416 H 410.924 2.84171 -0.87372 0
M  V30 4417 H 408.457 1.43654 -0.565939 0
M  V30 4418 H 410.415 3.85653 1.40648 0
M  V30 4419 H 409.076 2.70417 1.59793 0
M  V30 4420 H 408.269 4.96674 0.856212 0
M  V30 4421 H 407.871 3.72339 -0.352117 0
M  V30 4422 H 410.163 6.74836 0.600231 0
M  V30 4423 H 411.106 7.02371 -0.898899 0
M  V30 4424 H 411.514 5.64267 0.162053 0
M  V30 4425 N 410.912 0.523116 1.48665 0
M  V30 4426 C 412.158 -0.0134963 2.02796 0
M  V30 4427 C 412.491 -1.34582 1.40004 0
M  V30 4428 O 411.766 -1.86756 0.543381 0
M  V30 4429 C 412.049 -0.14276 3.59817 0
M  V30 4430 C 411.902 1.21425 4.331 0
M  V30 4431 C 413.221 -0.872856 4.31357 0
M  V30 4432 H 410.34 -0.00343074 0.736992 0
M  V30 4433 H 412.982 0.678816 1.7746 0
M  V30 4434 H 411.132 -0.732401 3.81534 0
M  V30 4435 H 412.804 1.84447 4.2282 0
M  V30 4436 H 411.047 1.79791 3.94788 0
M  V30 4437 H 411.718 1.07687 5.41394 0
M  V30 4438 H 414.194 -0.372555 4.14429 0
M  V30 4439 H 413.07 -0.932185 5.40927 0
M  V30 4440 H 413.331 -1.92161 3.98154 0
M  V30 4441 N 412.39 -1.55475 0.257931 0
M  V30 4442 C 413.353 -2.20551 -0.623706 0
M  V30 4443 C 414.353 -1.17809 -1.09443 0
M  V30 4444 O 415.543 -1.42823 -0.997362 0
M  V30 4445 C 412.675 -2.85784 -1.8585 0
M  V30 4446 H 413.868 -2.99848 -0.0557743 0
M  V30 4447 H 411.421 -1.56298 0.0084422 0
M  V30 4448 H 412.156 -2.10453 -2.46739 0
M  V30 4449 H 411.941 -3.61057 -1.52907 0
M  V30 4450 H 413.431 -3.35553 -2.48584 0
M  V30 4451 N 413.868 0.0150385 -1.57593 0
M  V30 4452 C 414.8 1.03912 -2.04291 0
M  V30 4453 C 415.813 1.31618 -0.958146 0
M  V30 4454 O 417.002 1.28859 -1.23522 0
M  V30 4455 C 414.102 2.37749 -2.41514 0
M  V30 4456 C 413.275 2.29198 -3.72541 0
M  V30 4457 C 412.334 3.45598 -3.96797 0
M  V30 4458 O 411.36 3.24461 -4.67668 0
M  V30 4459 N 412.562 4.67945 -3.43523 0
M  V30 4460 H 415.327 0.64099 -2.92765 0
M  V30 4461 H 412.888 0.20272 -1.60626 0
M  V30 4462 H 414.88 3.14364 -2.54867 0
M  V30 4463 H 413.45 2.69357 -1.58637 0
M  V30 4464 H 412.67 1.3759 -3.69408 0
M  V30 4465 H 413.958 2.20642 -4.5847 0
M  V30 4466 H 413.356 4.88017 -2.86104 0
M  V30 4467 H 411.913 5.41878 -3.62232 0
M  V30 4468 N 415.346 1.54954 0.287554 0
M  V30 4469 C 416.592 1.75132 1.02257 0
M  V30 4470 C 416.925 0.542858 1.86458 0
M  V30 4471 O 416.2 -0.459856 1.88986 0
M  V30 4472 C 416.483 3.04812 1.91733 0
M  V30 4473 C 416.336 4.35985 1.10622 0
M  V30 4474 C 417.655 3.30438 2.90687 0
M  V30 4475 H 414.774 0.637194 0.370341 0
M  V30 4476 H 417.416 1.87678 0.296111 0
M  V30 4477 H 415.566 2.94247 2.53675 0
M  V30 4478 H 417.238 4.58487 0.508636 0
M  V30 4479 H 415.481 4.31865 0.409271 0
M  V30 4480 H 416.152 5.23017 1.76513 0
M  V30 4481 H 418.628 3.40701 2.38877 0
M  V30 4482 H 417.504 4.22467 3.50447 0
M  V30 4483 H 417.765 2.49377 3.65053 0
M  V30 4484 N 416.824 -0.551391 1.4764 0
M  V30 4485 C 418.052 -1.33357 1.58189 0
M  V30 4486 C 418.467 -1.87342 0.234199 0
M  V30 4487 O 417.824 -1.65301 -0.77343 0
M  V30 4488 C 417.875 -2.49942 2.61173 0
M  V30 4489 O 417.596 -1.98187 3.90709 0
M  V30 4490 C 419.097 -3.42072 2.8196 0
M  V30 4491 H 416.317 -0.40631 0.533998 0
M  V30 4492 H 418.861 -0.667367 1.93304 0
M  V30 4493 H 417.016 -3.12489 2.28975 0
M  V30 4494 H 417.43 -2.74342 4.47031 0
M  V30 4495 H 418.904 -4.20278 3.57869 0
M  V30 4496 H 419.381 -3.95978 1.89995 0
M  V30 4497 H 419.987 -2.85336 3.15378 0
M  V30 4498 N 418.302 -1.35869 -0.798587 0
M  V30 4499 C 419.234 -1.25305 -1.91915 0
M  V30 4500 C 420.247 -0.174548 -1.61862 0
M  V30 4501 O 421.436 -0.428499 -1.73281 0
M  V30 4502 C 418.536 -0.9086 -3.26493 0
M  V30 4503 C 417.709 -2.08711 -3.84394 0
M  V30 4504 C 416.768 -1.71717 -4.97393 0
M  V30 4505 O 415.794 -2.43692 -5.14396 0
M  V30 4506 N 416.996 -0.645473 -5.769 0
M  V30 4507 H 419.761 -2.21849 -2.01502 0
M  V30 4508 H 417.322 -1.29143 -0.976408 0
M  V30 4509 H 419.314 -0.642455 -3.99568 0
M  V30 4510 H 417.884 -0.0325815 -3.12583 0
M  V30 4511 H 417.104 -2.51659 -3.03416 0
M  V30 4512 H 418.392 -2.87468 -4.19809 0
M  V30 4513 H 417.79 -0.047648 -5.6568 0
M  V30 4514 H 416.347 -0.43913 -6.50319 0
M  V30 4515 N 419.78 1.02168 -1.19998 0
M  V30 4516 C 421.008 1.79296 -1.03249 0
M  V30 4517 C 421.423 1.84103 0.418502 0
M  V30 4518 O 420.78 1.29031 1.29063 0
M  V30 4519 C 420.831 3.24007 -1.60319 0
M  V30 4520 O 420.552 3.19512 -2.99739 0
M  V30 4521 C 422.053 4.17704 -1.48453 0
M  V30 4522 H 419.273 0.564016 -0.363493 0
M  V30 4523 H 421.817 1.28639 -1.58973 0
M  V30 4524 H 419.972 3.7183 -1.08727 0
M  V30 4525 H 420.386 4.10306 -3.26725 0
M  V30 4526 H 421.86 5.17104 -1.93153 0
M  V30 4527 H 422.337 4.37029 -0.436193 0
M  V30 4528 H 422.943 3.7576 -1.99211 0
M  V30 4529 N 421.258 1.00505 1.21394 0
M  V30 4530 C 422.188 0.585684 2.26035 0
M  V30 4531 C 423.169 -0.393525 1.65485 0
M  V30 4532 O 424.354 -0.281497 1.92149 0
M  V30 4533 C 421.484 -0.0884283 3.47187 0
M  V30 4534 C 420.438 0.810567 4.20254 0
M  V30 4535 C 419.764 0.00286382 5.347 0
M  V30 4536 C 421.064 2.1132 4.77641 0
M  V30 4537 H 422.758 1.46039 2.61368 0
M  V30 4538 H 420.304 0.703648 1.25638 0
M  V30 4539 H 422.257 -0.393286 4.19561 0
M  V30 4540 H 420.981 -0.997766 3.10986 0
M  V30 4541 H 419.64 1.09925 3.49731 0
M  V30 4542 H 419.288 -0.907765 4.94741 0
M  V30 4543 H 418.988 0.601444 5.84514 0
M  V30 4544 H 420.512 -0.295808 6.09883 0
M  V30 4545 H 421.926 1.87148 5.41893 0
M  V30 4546 H 420.323 2.66164 5.37845 0
M  V30 4547 H 421.393 2.78393 3.9702 0
M  V30 4548 N 422.737 -1.36956 0.779787 0
M  V30 4549 C 423.684 -2.30175 0.169697 0
M  V30 4550 C 424.654 -1.51501 -0.68094 0
M  V30 4551 O 425.839 -1.80042 -0.631629 0
M  V30 4552 C 422.979 -3.37985 -0.697131 0
M  V30 4553 C 422.092 -4.31661 0.170992 0
M  V30 4554 C 421.227 -5.2655 -0.701298 0
M  V30 4555 C 420.266 -6.11867 0.168869 0
M  V30 4556 N 419.403 -6.98973 -0.661855 0
M  V30 4557 H 424.243 -2.81767 0.970135 0
M  V30 4558 H 421.78 -1.38699 0.489994 0
M  V30 4559 H 423.738 -3.99128 -1.2146 0
M  V30 4560 H 422.368 -2.87739 -1.46309 0
M  V30 4561 H 421.42 -3.71756 0.80634 0
M  V30 4562 H 422.732 -4.91644 0.841875 0
M  V30 4563 H 421.886 -5.92937 -1.28494 0
M  V30 4564 H 420.625 -4.66998 -1.40584 0
M  V30 4565 H 419.63 -5.44452 0.764986 0
M  V30 4566 H 420.855 -6.73493 0.870863 0
M  V30 4567 H 418.801 -6.41941 -1.35086 0
M  V30 4568 H 418.718 -7.55984 -0.0484447 0
M  V30 4569 H 419.986 -7.6974 -1.22963 0
M  V30 4570 N 424.215 -0.530993 -1.48385 0
M  V30 4571 C 425.145 0.219985 -2.32461 0
M  V30 4572 C 426.126 0.934111 -1.42156 0
M  V30 4573 O 427.311 0.919694 -1.71042 0
M  V30 4574 C 424.441 1.26674 -3.23375 0
M  V30 4575 C 423.395 0.67069 -4.22712 0
M  V30 4576 C 422.721 1.82017 -5.02766 0
M  V30 4577 C 424.021 -0.358268 -5.2107 0
M  V30 4578 H 425.715 -0.48187 -2.95497 0
M  V30 4579 H 423.261 -0.233182 -1.42099 0
M  V30 4580 H 425.214 1.80006 -3.81019 0
M  V30 4581 H 423.938 1.99818 -2.58341 0
M  V30 4582 H 422.597 0.158878 -3.66256 0
M  V30 4583 H 422.245 2.54002 -4.34157 0
M  V30 4584 H 421.945 1.42727 -5.70003 0
M  V30 4585 H 423.469 2.35725 -5.63264 0
M  V30 4586 H 424.883 0.0880081 -5.73232 0
M  V30 4587 H 423.28 -0.66861 -5.96364 0
M  V30 4588 H 424.35 -1.26367 -4.68145 0
M  V30 4589 N 425.693 1.55336 -0.266172 0
M  V30 4590 C 426.603 2.2583 0.635458 0
M  V30 4591 C 427.619 1.28106 1.17749 0
M  V30 4592 O 428.795 1.61024 1.20968 0
M  V30 4593 C 425.86 2.95879 1.80712 0
M  V30 4594 C 424.921 4.09059 1.30265 0
M  V30 4595 C 424.154 4.75759 2.41846 0
M  V30 4596 O 424.377 4.41622 3.61007 0
M  V30 4597 O 423.311 5.63888 2.1051 0
M  V30 4598 H 427.137 3.03631 0.0646693 0
M  V30 4599 H 424.722 1.49361 -0.0339177 0
M  V30 4600 H 426.604 3.39932 2.49047 0
M  V30 4601 H 425.279 2.21002 2.36516 0
M  V30 4602 H 424.186 3.69482 0.586019 0
M  V30 4603 H 425.519 4.85811 0.790458 0
M  V30 4604 N 427.171 -0.0066808 1.57599 0
M  V30 4605 C 428.448 -0.729586 1.81484 0
M  V30 4606 C 428.828 -1.92359 0.869558 0
M  V30 4607 O 428.176 -2.28348 -0.0832533 0
M  V30 4608 C 428.386 -1.1416 3.29801 0
M  V30 4609 C 429.734 -1.54823 3.95367 0
M  V30 4610 O 430.758 -1.23558 3.34084 0
M  V30 4611 O 429.617 -2.12937 5.03309 0
M  V30 4612 H 426.711 -0.354674 0.747085 0
M  V30 4613 H 429.257 0.0182609 1.6969 0
M  V30 4614 H 428.029 -0.290231 3.90222 0
M  V30 4615 H 427.652 -1.94876 3.46568 0
M  V30 4616 N 428.649 -1.55105 -0.279332 0
M  V30 4617 C 429.877 -1.7943 -1.03017 0
M  V30 4618 C 430.292 -0.564456 -1.80165 0
M  V30 4619 O 429.649 0.466326 -1.76442 0
M  V30 4620 C 429.7 -3.0155 -1.99374 0
M  V30 4621 O 429.421 -4.19784 -1.25352 0
M  V30 4622 C 430.922 -3.3843 -2.86321 0
M  V30 4623 H 428.142 -0.597882 -0.304594 0
M  V30 4624 H 430.686 -2.02105 -0.312035 0
M  V30 4625 H 428.841 -2.81019 -2.66659 0
M  V30 4626 H 429.255 -4.88781 -1.90246 0
M  V30 4627 H 430.729 -4.27066 -3.49741 0
M  V30 4628 H 431.206 -2.57549 -3.5576 0
M  V30 4629 H 431.812 -3.61197 -2.24536 0
M  V30 4630 N 430.127 0.543554 -1.4793 0
M  V30 4631 C 431.538 1.12561 -1.48953 0
M  V30 4632 C 431.889 1.94578 -0.251754 0
M  V30 4633 O 431.014 2.0665 0.642255 0
M  V30 4634 C 431.609 2.04801 -2.69892 0
M  V30 4635 C 430.168 2.58251 -2.73831 0
M  V30 4636 C 429.315 1.34918 -2.42265 0
M  V30 4637 H 432.266 0.32947 -1.55242 0
M  V30 4638 H 432.287 2.88886 -2.47639 0
M  V30 4639 H 431.799 1.4508 -3.59963 0
M  V30 4640 H 429.9 3.21732 -1.87934 0
M  V30 4641 H 430.013 2.98312 -3.74895 0
M  V30 4642 H 428.377 1.66046 -1.93134 0
M  V30 4643 H 429.16 0.769693 -3.3456 0
M  V30 4644 N 431.605 1.3629 0.791371 0
M  V30 4645 C 432.552 1.30458 1.90393 0
M  V30 4646 C 433.522 0.173632 1.6519 0
M  V30 4647 O 434.707 0.35983 1.87376 0
M  V30 4648 C 431.847 1.09777 3.27174 0
M  V30 4649 C 430.96 2.31929 3.64462 0
M  V30 4650 C 430.095 2.04276 4.90352 0
M  V30 4651 C 429.134 3.224 5.20312 0
M  V30 4652 N 428.271 2.94424 6.37385 0
M  V30 4653 H 433.111 2.25589 1.94714 0
M  V30 4654 H 430.648 1.12122 0.952216 0
M  V30 4655 H 432.606 0.958133 4.06049 0
M  V30 4656 H 431.236 0.183014 3.22281 0
M  V30 4657 H 430.288 2.56703 2.80727 0
M  V30 4658 H 431.6 3.20085 3.82553 0
M  V30 4659 H 430.754 1.87231 5.77087 0
M  V30 4660 H 429.493 1.13428 4.74326 0
M  V30 4661 H 428.498 3.40005 4.32061 0
M  V30 4662 H 429.723 4.14071 5.38258 0
M  V30 4663 H 427.669 2.06185 6.22755 0
M  V30 4664 H 427.586 3.76118 6.55798 0
M  V30 4665 H 428.854 2.80953 7.27108 0
M  V30 4666 N 433.083 -1.0153 1.20538 0
M  V30 4667 C 434.332 -1.74558 1.01057 0
M  V30 4668 C 434.645 -1.90168 -0.457756 0
M  V30 4669 O 435.851 -2.60301 -0.771722 0
M  V30 4670 C 434.307 -3.13963 1.75941 0
M  V30 4671 C 433.915 -3.06361 3.26875 0
M  V30 4672 C 435.659 -3.91191 1.64832 0
M  V30 4673 C 433.566 -4.40782 3.94291 0
M  V30 4674 H 432.496 -0.654417 0.374505 0
M  V30 4675 H 435.147 -1.13521 1.44171 0
M  V30 4676 H 433.529 -3.75549 1.25614 0
M  V30 4677 H 434.703 -2.54074 3.84425 0
M  V30 4678 H 433.018 -2.42625 3.38411 0
M  V30 4679 H 435.615 -4.90644 2.12539 0
M  V30 4680 H 435.958 -4.11884 0.604745 0
M  V30 4681 H 436.491 -3.36236 2.12579 0
M  V30 4682 H 433.23 -4.25292 4.98805 0
M  V30 4683 H 432.75 -4.9307 3.41529 0
M  V30 4684 H 434.429 -5.09621 3.98617 0
M  V30 4685 N 434.561 -1.01147 -1.20859 0
M  V30 4686 C 435.509 -0.57059 -2.25493 0
M  V30 4687 C 436.503 0.388109 -1.64894 0
M  V30 4688 O 437.709 0.258592 -1.78133 0
M  V30 4689 H 434.084 -0.166191 -0.733406 0
M  V30 4690 H 436.055 -1.46411 -2.60012 0
M  V30 4691 C 434.804 0.0805241 -3.47607 0
M  V30 4692 H 434.127 -0.648156 -3.94511 0
M  V30 4693 H 435.567 0.352197 -4.22535 0
M  V30 4694 C 434.026 1.32175 -3.09889 0
M  V30 4695 O 434.556 2.41553 -3.20959 0
M  V30 4696 N 432.762 1.20392 -2.64488 0
M  V30 4697 H 432.309 0.313905 -2.5568 0
M  V30 4698 H 432.267 2.03541 -2.39621 0
M  V30 4699 N 436.039 1.36541 -0.78704 0
M  V30 4700 C 437.264 2.0409 -0.369053 0
M  V30 4701 C 437.689 1.58957 1.00569 0
M  V30 4702 O 437.047 0.756926 1.64743 0
M  V30 4703 C 437.095 3.57924 -0.438466 0
M  V30 4704 O 436.199 4.08642 0.555479 0
M  V30 4705 H 435.54 0.645142 -0.157122 0
M  V30 4706 H 438.07 1.74545 -1.06749 0
M  V30 4707 H 438.08 4.06887 -0.301218 0
M  V30 4708 H 436.755 3.90127 -1.44132 0
M  V30 4709 H 435.332 3.70958 0.380088 0
M  V30 4710 N 437.518 0.538854 1.48102 0
M  V30 4711 C 438.934 0.19732 1.58376 0
M  V30 4712 C 439.134 -1.29971 1.5398 0
M  V30 4713 O 438.19 -2.07861 1.43352 0
M  V30 4714 C 439.503 0.807716 2.89649 0
M  V30 4715 C 441.051 0.77726 3.03196 0
M  V30 4716 C 441.526 1.36639 4.37143 0
M  V30 4717 N 443.017 1.32875 4.43732 0
M  V30 4718 C 443.752 1.7544 5.45901 0
M  V30 4719 N 443.248 2.25776 6.54979 0
M  V30 4720 N 445.041 1.66623 5.36836 0
M  V30 4721 H 437.192 1.5117 1.49202 0
M  V30 4722 H 439.455 0.629327 0.708979 0
M  V30 4723 H 439.161 1.85909 2.98548 0
M  V30 4724 H 439.035 0.289975 3.76084 0
M  V30 4725 H 441.422 -0.265374 2.93904 0
M  V30 4726 H 441.503 1.33256 2.18349 0
M  V30 4727 H 441.147 2.408 4.47189 0
M  V30 4728 H 441.077 0.786689 5.20691 0
M  V30 4729 H 443.568 0.96037 3.65493 0
M  V30 4730 H 443.881 2.56226 7.29087 0
M  V30 4731 H 442.226 2.29775 6.55918 0
M  V30 4732 H 445.417 1.27089 4.50517 0
M  V30 4733 H 445.59 2.00115 6.16326 0
M  V30 4734 N 438.996 -1.55193 0.274407 0
M  V30 4735 C 440.243 -1.99581 -0.342579 0
M  V30 4736 C 440.571 -1.1628 -1.55914 0
M  V30 4737 O 439.826 -0.22029 -1.94456 0
M  V30 4738 C 440.125 -3.49019 -0.769458 0
M  V30 4739 C 439.791 -4.49598 0.342389 0
M  V30 4740 C 438.453 -4.76821 0.647686 0
M  V30 4741 C 440.805 -5.0964 1.09163 0
M  V30 4742 C 438.133 -5.61354 1.70581 0
M  V30 4743 C 440.485 -5.95323 2.13948 0
M  V30 4744 C 439.149 -6.20867 2.45113 0
M  V30 4745 H 438.419 -0.730319 -0.125358 0
M  V30 4746 H 441.066 -1.87529 0.387971 0
M  V30 4747 H 439.371 -3.58544 -1.57967 0
M  V30 4748 H 441.068 -3.8077 -1.25757 0
M  V30 4749 H 437.658 -4.28496 0.094318 0
M  V30 4750 H 441.842 -4.88632 0.869024 0
M  V30 4751 H 437.098 -5.79392 1.9523 0
M  V30 4752 H 441.272 -6.40881 2.72478 0
M  V30 4753 H 438.899 -6.86162 3.27239 0
M  V30 4754 N 440.474 -0.00167713 -1.576 0
M  V30 4755 C 441.721 0.68282 -1.90641 0
M  V30 4756 C 442.049 1.73686 -0.875415 0
M  V30 4757 O 441.304 1.95334 0.119575 0
M  V30 4758 C 441.603 1.36189 -3.30435 0
M  V30 4759 C 441.269 0.440887 -4.48739 0
M  V30 4760 C 439.931 0.187312 -4.80835 0
M  V30 4761 C 442.283 -0.193134 -5.20842 0
M  V30 4762 C 439.611 -0.70855 -5.82406 0
M  V30 4763 C 441.963 -1.07688 -6.23367 0
M  V30 4764 C 440.627 -1.33962 -6.53919 0
M  V30 4765 H 439.897 0.249862 -0.697603 0
M  V30 4766 H 442.544 -0.0575642 -1.91413 0
M  V30 4767 H 440.849 2.17636 -3.25794 0
M  V30 4768 H 442.546 1.89759 -3.5326 0
M  V30 4769 H 439.136 0.648694 -4.23663 0
M  V30 4770 H 443.32 -0.0102445 -4.96299 0
M  V30 4771 H 438.576 -0.920097 -6.04437 0
M  V30 4772 H 442.75 -1.57451 -6.78367 0
M  V30 4773 H 440.377 -2.03549 -7.32442 0
M  V30 4774 N 441.952 1.55251 0.271103 0
M  V30 4775 C 443.2 1.75599 1.00047 0
M  V30 4776 C 443.521 0.561188 1.8675 0
M  V30 4777 O 442.791 -0.423846 1.9126 0
M  V30 4778 H 441.371 0.647562 0.372387 0
M  V30 4779 H 444.033 1.92656 0.294876 0
M  V30 4780 H 443.129 2.65766 1.6363 0
M  V30 4781 N 443.43 -0.535701 1.48216 0
M  V30 4782 C 444.34 -1.66785 1.64985 0
M  V30 4783 C 445.356 -1.65654 0.532414 0
M  V30 4784 O 446.532 -1.8471 0.80275 0
M  V30 4785 C 443.597 -3.0326 1.68031 0
M  V30 4786 C 442.658 -3.1529 2.9136 0
M  V30 4787 C 441.891 -4.45255 2.94252 0
M  V30 4788 O 442.114 -5.32011 2.05719 0
M  V30 4789 O 441.048 -4.6153 3.86359 0
M  V30 4790 H 444.874 -1.55576 2.60825 0
M  V30 4791 H 442.459 -0.70815 1.31551 0
M  V30 4792 H 444.341 -3.84436 1.72589 0
M  V30 4793 H 443.016 -3.14805 0.753628 0
M  V30 4794 H 441.923 -2.3343 2.92337 0
M  V30 4795 H 443.256 -3.08658 3.83394 0
M  V30 4796 N 444.908 -1.36708 -0.784132 0
M  V30 4797 C 446.156 -1.30972 -1.53918 0
M  V30 4798 C 446.477 0.109086 -1.94695 0
M  V30 4799 O 445.747 1.05048 -1.65353 0
M  V30 4800 H 444.327 -0.481819 -0.570841 0
M  V30 4801 H 446.989 -1.71063 -0.934002 0
M  V30 4802 H 446.085 -1.94061 -2.44431 0
M  V30 4803 N 446.386 1.0089 -1.21074 0
M  V30 4804 C 447.614 1.78191 -1.05145 0
M  V30 4805 C 448.029 1.84537 0.398952 0
M  V30 4806 O 447.386 1.30393 1.27687 0
M  V30 4807 C 447.437 3.22288 -1.63746 0
M  V30 4808 O 447.158 3.16315 -3.03111 0
M  V30 4809 C 448.659 4.16106 -1.52875 0
M  V30 4810 H 445.879 0.560129 -0.369454 0
M  V30 4811 H 448.423 1.26945 -1.60328 0
M  V30 4812 H 446.578 3.70655 -1.12664 0
M  V30 4813 H 446.992 4.06817 -3.31059 0
M  V30 4814 H 448.466 5.15026 -1.98626 0
M  V30 4815 H 448.943 4.36541 -0.482521 0
M  V30 4816 H 449.549 3.73625 -2.03185 0
M  V30 4817 N 447.864 1.01787 1.20321 0
M  V30 4818 C 448.811 0.589197 2.23153 0
M  V30 4819 C 449.781 -0.391367 1.61423 0
M  V30 4820 O 450.966 -0.290518 1.88575 0
M  V30 4821 C 448.106 -0.0650747 3.45039 0
M  V30 4822 C 447.219 0.960207 4.21194 0
M  V30 4823 C 446.354 0.276854 5.30478 0
M  V30 4824 C 445.393 1.2888 5.98378 0
M  V30 4825 N 444.53 0.632031 6.99249 0
M  V30 4826 H 449.37 1.47071 2.59179 0
M  V30 4827 H 446.907 0.736192 1.27352 0
M  V30 4828 H 448.865 -0.461552 4.14639 0
M  V30 4829 H 447.495 -0.910233 3.09701 0
M  V30 4830 H 446.547 1.47484 3.50646 0
M  V30 4831 H 447.859 1.72977 4.67847 0
M  V30 4832 H 447.013 -0.175056 6.06447 0
M  V30 4833 H 445.752 -0.525004 4.84866 0
M  V30 4834 H 444.757 1.75109 5.21169 0
M  V30 4835 H 445.982 2.09196 6.46076 0
M  V30 4836 H 443.928 -0.149935 6.55829 0
M  V30 4837 H 443.845 1.33964 7.44036 0
M  V30 4838 H 445.113 0.203755 7.79234 0
M  V30 4839 N 449.342 -1.36122 0.79427 0
M  V30 4840 C 450.289 -2.29982 0.194101 0
M  V30 4841 C 451.259 -1.52214 -0.664833 0
M  V30 4842 O 452.444 -1.80702 -0.612498 0
M  V30 4843 C 449.584 -3.38706 -0.661244 0
M  V30 4844 C 448.697 -4.31456 0.216766 0
M  V30 4845 C 447.832 -5.27265 -0.645411 0
M  V30 4846 C 446.871 -6.11653 0.233756 0
M  V30 4847 N 446.008 -6.99636 -0.587682 0
M  V30 4848 H 450.848 -2.80722 0.999965 0
M  V30 4849 H 448.385 -1.38172 0.504677 0
M  V30 4850 H 450.343 -4.00394 -1.17219 0
M  V30 4851 H 448.973 -2.89274 -1.43249 0
M  V30 4852 H 448.025 -3.7088 0.845724 0
M  V30 4853 H 449.337 -4.90724 0.893973 0
M  V30 4854 H 448.491 -5.94266 -1.22198 0
M  V30 4855 H 447.23 -4.68463 -1.35623 0
M  V30 4856 H 446.235 -5.4361 0.82269 0
M  V30 4857 H 447.46 -6.72531 0.942247 0
M  V30 4858 H 445.406 -6.43337 -1.2827 0
M  V30 4859 H 445.323 -7.55993 0.0317402 0
M  V30 4860 H 446.591 -7.71001 -1.14792 0
M  V30 4861 N 450.82 -0.546701 -1.47814 0
M  V30 4862 C 451.753 0.254472 -2.26777 0
M  V30 4863 C 452.731 0.929809 -1.33392 0
M  V30 4864 O 453.915 0.950889 -1.62759 0
M  V30 4865 C 451.042 1.36171 -3.10121 0
M  V30 4866 C 450.088 0.796038 -4.19005 0
M  V30 4867 S 450.921 -0.349191 -5.3436 0
M  V30 4868 C 452.077 0.760122 -6.21267 0
M  V30 4869 H 452.31 -0.415612 -2.94381 0
M  V30 4870 H 449.843 -0.332809 -1.5077 0
M  V30 4871 H 451.801 1.99588 -3.58713 0
M  V30 4872 H 450.462 2.00359 -2.41899 0
M  V30 4873 H 449.655 1.62719 -4.7701 0
M  V30 4874 H 449.257 0.238246 -3.7324 0
M  V30 4875 H 451.549 1.65479 -6.5698 0
M  V30 4876 H 452.492 0.217673 -7.07765 0
M  V30 4877 H 452.9 1.04806 -5.54685 0
M  V30 4878 N 452.299 1.55045 -0.282633 0
M  V30 4879 C 453.547 1.99365 0.331334 0
M  V30 4880 C 453.868 1.1725 1.55812 0
M  V30 4881 O 453.138 0.263871 1.94115 0
M  V30 4882 H 451.718 0.736397 0.125414 0
M  V30 4883 H 454.38 1.90964 -0.389711 0
M  V30 4884 H 453.476 3.0596 0.616036 0
M  V30 4885 N 453.777 0.010035 1.57597 0
M  V30 4886 C 454.707 -0.976857 2.12084 0
M  V30 4887 C 455.688 -1.35191 1.03235 0
M  V30 4888 O 456.873 -1.43389 1.3097 0
M  V30 4889 C 454.003 -2.26548 2.63236 0
M  V30 4890 C 452.957 -2.03175 3.76701 0
M  V30 4891 C 452.283 -3.38138 4.14206 0
M  V30 4892 C 453.583 -1.38625 5.03568 0
M  V30 4893 H 455.277 -0.523145 2.94794 0
M  V30 4894 H 452.823 -0.250195 1.4181 0
M  V30 4895 H 454.776 -2.95952 2.99984 0
M  V30 4896 H 453.5 -2.74051 1.77661 0
M  V30 4897 H 452.159 -1.36195 3.40362 0
M  V30 4898 H 451.807 -3.83363 3.25641 0
M  V30 4899 H 451.507 -3.23312 4.90656 0
M  V30 4900 H 453.031 -4.08841 4.53521 0
M  V30 4901 H 454.445 -1.98 5.38023 0
M  V30 4902 H 452.842 -1.34256 5.84889 0
M  V30 4903 H 453.912 -0.356722 4.83586 0
M  V30 4904 N 455.255 -1.55392 -0.262866 0
M  V30 4905 C 456.218 -1.88181 -1.30846 0
M  V30 4906 C 457.218 -0.757079 -1.41862 0
M  V30 4907 O 458.408 -1.02519 -1.40838 0
M  V30 4908 C 455.54 -2.09609 -2.68844 0
M  V30 4909 H 456.733 -2.81659 -1.02997 0
M  V30 4910 H 454.286 -1.48039 -0.501414 0
M  V30 4911 H 455.021 -1.18547 -3.01856 0
M  V30 4912 H 454.806 -2.91508 -2.62231 0
M  V30 4913 H 456.296 -2.36215 -3.44372 0
M  V30 4914 N 456.733 0.527833 -1.48498 0
M  V30 4915 C 457.98 1.28354 -1.56625 0
M  V30 4916 C 458.308 1.93 -0.241096 0
M  V30 4917 O 457.563 1.79967 0.768798 0
M  V30 4918 C 457.862 2.39275 -2.65485 0
M  V30 4919 C 457.528 1.92268 -4.07853 0
M  V30 4920 C 456.19 1.79166 -4.46602 0
M  V30 4921 C 458.542 1.56771 -4.97064 0
M  V30 4922 C 455.87 1.28905 -5.72364 0
M  V30 4923 C 458.222 1.07972 -6.23318 0
M  V30 4924 C 456.886 0.934887 -6.60921 0
M  V30 4925 H 456.156 0.469682 -0.573131 0
M  V30 4926 H 458.803 0.588781 -1.82224 0
M  V30 4927 H 457.108 3.1443 -2.33754 0
M  V30 4928 H 458.805 2.974 -2.68988 0
M  V30 4929 H 455.395 2.03417 -3.77252 0
M  V30 4930 H 459.579 1.65753 -4.67803 0
M  V30 4931 H 454.835 1.16381 -6.00221 0
M  V30 4932 H 459.009 0.795775 -6.91838 0
M  V30 4933 H 456.636 0.543231 -7.58257 0
M  V30 4934 N 458.211 1.37122 0.776871 0
M  V30 4935 C 459.121 1.34651 1.9211 0
M  V30 4936 C 460.137 0.246824 1.7224 0
M  V30 4937 O 461.313 0.48134 1.95563 0
M  V30 4938 C 458.378 1.14748 3.2716 0
M  V30 4939 C 457.439 2.34308 3.5972 0
M  V30 4940 C 456.672 2.15345 4.88326 0
M  V30 4941 O 456.895 1.13507 5.58992 0
M  V30 4942 O 455.829 3.03414 5.1983 0
M  V30 4943 H 459.655 2.31013 1.97146 0
M  V30 4944 H 457.24 1.17799 0.918901 0
M  V30 4945 H 459.122 1.05616 4.0795 0
M  V30 4946 H 457.797 0.214562 3.22988 0
M  V30 4947 H 456.704 2.49011 2.79185 0
M  V30 4948 H 458.037 3.26149 3.68629 0
M  V30 4949 N 459.689 -1.00246 1.21608 0
M  V30 4950 C 460.914 -1.78167 1.06167 0
M  V30 4951 C 461.339 -1.84138 -0.384035 0
M  V30 4952 O 460.697 -1.28683 -1.27712 0
M  V30 4953 C 460.745 -3.19786 1.66642 0
M  V30 4954 O 459.849 -4.02153 0.913613 0
M  V30 4955 H 459.19 -0.549 0.37349 0
M  V30 4956 H 461.72 -1.25994 1.61204 0
M  V30 4957 H 461.73 -3.70451 1.70969 0
M  V30 4958 H 460.405 -3.14754 2.7185 0
M  V30 4959 H 458.982 -3.60711 0.945635 0
M  V30 4960 N 461.167 -1.02423 -1.1978 0
M  V30 4961 C 462.395 -0.737456 -1.93311 0
M  V30 4962 C 462.81 0.703023 -1.75223 0
M  V30 4963 O 462.167 1.47761 -1.07112 0
M  V30 4964 C 462.218 -1.0733 -3.45199 0
M  V30 4965 O 461.939 -2.4572 -3.62702 0
M  V30 4966 C 463.44 -0.80866 -4.35862 0
M  V30 4967 H 460.66 -0.2702 -0.614193 0
M  V30 4968 H 463.204 -1.36747 -1.52054 0
M  V30 4969 H 461.359 -0.488545 -3.84307 0
M  V30 4970 H 461.773 -2.58081 -4.56612 0
M  V30 4971 H 463.247 -1.09365 -5.41057 0
M  V30 4972 H 463.724 0.257025 -4.38447 0
M  V30 4973 H 464.33 -1.37592 -4.02428 0
M  V30 4974 N 462.645 1.35699 -0.801477 0
M  V30 4975 C 463.592 2.29876 -0.206294 0
M  V30 4976 C 464.562 1.52565 0.656752 0
M  V30 4977 O 465.747 1.81024 0.602906 0
M  V30 4978 C 462.887 3.39052 0.643272 0
M  V30 4979 C 462 4.31335 -0.239644 0
M  V30 4980 C 461.135 5.27599 0.61744 0
M  V30 4981 C 460.174 6.11521 -0.26619 0
M  V30 4982 N 459.311 6.99938 0.550571 0
M  V30 4983 H 464.151 2.80187 -1.01484 0
M  V30 4984 H 461.688 1.37902 -0.511997 0
M  V30 4985 H 463.646 4.0101 1.15094 0
M  V30 4986 H 462.276 2.9003 1.41713 0
M  V30 4987 H 461.328 3.70426 -0.865381 0
M  V30 4988 H 462.64 4.90243 -0.919985 0
M  V30 4989 H 461.794 5.94906 1.19045 0
M  V30 4990 H 460.533 4.69176 1.33137 0
M  V30 4991 H 459.538 5.43166 -0.851507 0
M  V30 4992 H 460.763 6.72022 -0.9779 0
M  V30 4993 H 458.709 6.44008 1.24856 0
M  V30 4994 H 458.626 7.55966 -0.071832 0
M  V30 4995 H 459.894 7.71599 1.10702 0
M  V30 4996 N 464.123 0.554532 1.47522 0
M  V30 4997 C 465.348 0.0322661 2.07375 0
M  V30 4998 C 465.773 -1.25079 1.40488 0
M  V30 4999 O 465.131 -1.74859 0.47896 0
M  V30 5000 C 465.179 -0.149397 3.6029 0
M  V30 5001 O 464.283 -1.21259 3.9417 0
M  V30 5002 H 463.624 0.0501228 0.662106 0
M  V30 5003 H 466.154 0.769452 1.8958 0
M  V30 5004 H 466.164 -0.364437 4.06369 0
M  V30 5005 H 464.839 0.787743 4.08372 0
M  V30 5006 H 463.416 -0.97825 3.5984 0
M  V30 5007 N 465.601 -1.54893 0.290851 0
M  V30 5008 C 466.829 -2.04343 -0.324288 0
M  V30 5009 C 467.244 -1.16859 -1.48289 0
M  V30 5010 O 466.601 -0.192018 -1.81487 0
M  V30 5011 C 466.652 -3.52756 -0.79026 0
M  V30 5012 O 466.373 -4.36913 0.322213 0
M  V30 5013 C 467.874 -4.18161 -1.4716 0
M  V30 5014 H 465.094 -0.667135 -0.0719173 0
M  V30 5015 H 467.638 -1.99981 0.427529 0
M  V30 5016 H 465.793 -3.57511 -1.49213 0
M  V30 5017 H 466.207 -5.24486 -0.0387372 0
M  V30 5018 H 467.681 -5.23562 -1.7489 0
M  V30 5019 H 468.158 -3.67282 -2.40834 0
M  V30 5020 H 468.764 -4.17454 -0.813178 0
M  V30 5021 N 467.08 -0.0183926 -1.57589 0
M  V30 5022 C 468.305 0.676634 -1.96052 0
M  V30 5023 C 468.73 1.6548 -0.894307 0
M  V30 5024 O 468.088 1.80712 0.145849 0
M  V30 5025 C 468.136 1.36872 -3.33614 0
M  V30 5026 O 467.24 2.48372 -3.29219 0
M  V30 5027 H 466.581 0.1786 -0.63953 0
M  V30 5028 H 469.111 -0.077056 -2.04455 0
M  V30 5029 H 469.121 1.72797 -3.69601 0
M  V30 5030 H 467.796 0.651636 -4.10763 0
M  V30 5031 H 466.373 2.14639 -3.04934 0
M  V30 5032 N 468.558 1.5553 0.254621 0
M  V30 5033 C 469.969 1.67518 0.824286 0
M  V30 5034 C 470.32 0.614429 1.86331 0
M  V30 5035 O 469.445 -0.240736 2.15057 0
M  V30 5036 C 470.04 3.03692 1.50189 0
M  V30 5037 C 468.599 3.17646 2.01935 0
M  V30 5038 C 467.746 2.63373 0.867746 0
M  V30 5039 H 470.697 1.58671 0.0305843 0
M  V30 5040 H 470.718 2.97706 2.36962 0
M  V30 5041 H 470.23 3.80874 0.745431 0
M  V30 5042 H 468.331 2.45273 2.80485 0
M  V30 5043 H 468.444 4.24455 2.22204 0
M  V30 5044 H 466.808 2.20999 1.26616 0
M  V30 5045 H 467.591 3.43074 0.124498 0
M  V30 5046 N 470.036 -0.519951 1.48776 0
M  V30 5047 C 471.447 -1.10177 1.50725 0
M  V30 5048 C 471.798 -1.94153 0.282678 0
M  V30 5049 O 470.923 -2.07645 -0.609298 0
M  V30 5050 C 471.518 -2.00482 2.73116 0
M  V30 5051 C 470.077 -2.53862 2.77905 0
M  V30 5052 C 469.224 -1.31047 2.44381 0
M  V30 5053 H 472.175 -0.30473 1.55747 0
M  V30 5054 H 472.196 -2.8491 2.52203 0
M  V30 5055 H 471.708 -1.39335 3.62225 0
M  V30 5056 H 469.809 -3.18702 1.93029 0
M  V30 5057 H 469.922 -2.9231 3.79594 0
M  V30 5058 H 468.286 -1.62953 1.95751 0
M  V30 5059 H 469.069 -0.71637 3.35743 0
M  V30 5060 N 471.514 -1.37532 -0.769588 0
M  V30 5061 C 472.461 -1.3347 -1.88293 0
M  V30 5062 C 473.431 -0.199891 -1.64893 0
M  V30 5063 O 474.616 -0.389594 -1.8678 0
M  V30 5064 C 471.756 -1.14968 -3.25387 0
M  V30 5065 C 470.869 -2.37698 -3.60727 0
M  V30 5066 C 470.004 -2.12051 -4.8704 0
M  V30 5067 C 469.043 -3.30636 -5.15117 0
M  V30 5068 N 468.18 -3.04527 -6.3262 0
M  V30 5069 H 473.02 -2.28658 -1.911 0
M  V30 5070 H 470.557 -1.13622 -0.934257 0
M  V30 5071 H 472.515 -1.02261 -4.04473 0
M  V30 5072 H 471.145 -0.234263 -3.21949 0
M  V30 5073 H 470.197 -2.61137 -2.76608 0
M  V30 5074 H 471.509 -3.26131 -3.77413 0
M  V30 5075 H 470.663 -1.96388 -5.74035 0
M  V30 5076 H 469.402 -1.20959 -4.72462 0
M  V30 5077 H 468.407 -3.46836 -4.26597 0
M  V30 5078 H 469.632 -4.22582 -5.31603 0
M  V30 5079 H 467.578 -2.16067 -6.19396 0
M  V30 5080 H 467.495 -3.86503 -6.49732 0
M  V30 5081 H 468.763 -2.92485 -7.22546 0
M  V30 5082 N 472.992 0.995999 -1.22138 0
M  V30 5083 C 473.924 2.08745 -0.946485 0
M  V30 5084 C 474.937 1.62633 0.0737356 0
M  V30 5085 O 476.126 1.77782 -0.159886 0
M  V30 5086 C 473.226 3.36516 -0.401305 0
M  V30 5087 C 472.399 4.11672 -1.47801 0
M  V30 5088 C 471.458 5.17728 -0.940461 0
M  V30 5089 O 470.484 5.45482 -1.62596 0
M  V30 5090 N 471.686 5.80005 0.239723 0
M  V30 5091 H 474.451 2.32908 -1.88611 0
M  V30 5092 H 472.012 1.16152 -1.12785 0
M  V30 5093 H 474.004 4.04691 -0.0270837 0
M  V30 5094 H 472.574 3.0944 0.443354 0
M  V30 5095 H 471.794 3.38171 -2.02568 0
M  V30 5096 H 473.082 4.58657 -2.20253 0
M  V30 5097 H 472.48 5.5982 0.813518 0
M  V30 5098 H 471.037 6.4943 0.555361 0
M  V30 5099 N 474.47 1.03057 1.19235 0
M  V30 5100 C 475.433 0.617418 2.20727 0
M  V30 5101 C 476.433 -0.319856 1.57587 0
M  V30 5102 O 477.623 -0.106633 1.73873 0
M  V30 5103 C 474.755 -0.096296 3.40764 0
M  V30 5104 H 475.948 1.51544 2.58794 0
M  V30 5105 H 473.501 0.821949 1.32942 0
M  V30 5106 H 474.236 -1.00859 3.08217 0
M  V30 5107 H 474.021 0.577217 3.87828 0
M  V30 5108 H 475.511 -0.372219 4.15938 0
M  V30 5109 N 475.948 -1.35272 0.808662 0
M  V30 5110 C 476.858 -2.33546 0.222079 0
M  V30 5111 C 477.874 -1.6196 -0.636011 0
M  V30 5112 O 479.05 -1.93822 -0.547274 0
M  V30 5113 C 476.115 -3.41148 -0.61795 0
M  V30 5114 C 475.176 -4.28507 0.260875 0
M  V30 5115 C 474.409 -5.3097 -0.539156 0
M  V30 5116 O 474.632 -5.42123 -1.77367 0
M  V30 5117 O 473.566 -6.01858 0.0710526 0
M  V30 5118 H 477.392 -2.85515 1.03512 0
M  V30 5119 H 474.977 -1.38079 0.570495 0
M  V30 5120 H 476.859 -4.06889 -1.09634 0
M  V30 5121 H 475.534 -2.91447 -1.40855 0
M  V30 5122 H 474.441 -3.6574 0.786451 0
M  V30 5123 H 475.774 -4.81611 1.01547 0
M  V30 5124 N 477.426 -0.562348 -1.47226 0
M  V30 5125 C 478.389 0.172056 -2.28553 0
M  V30 5126 C 479.389 0.837928 -1.37242 0
M  V30 5127 O 480.579 0.693001 -1.59822 0
M  V30 5128 C 477.711 1.25223 -3.17068 0
M  V30 5129 H 478.904 -0.542401 -2.94954 0
M  V30 5130 H 476.457 -0.319493 -1.53 0
M  V30 5131 H 477.192 1.99892 -2.55369 0
M  V30 5132 H 476.977 0.779515 -3.84273 0
M  V30 5133 H 478.467 1.76791 -3.78332 0
M  V30 5134 N 478.904 1.54736 -0.299062 0
M  V30 5135 C 480.15 2.00397 0.311244 0
M  V30 5136 C 480.483 1.18716 1.53688 0
M  V30 5137 O 479.758 0.263154 1.92712 0
M  V30 5138 C 480.041 3.53817 0.669761 0
M  V30 5139 C 479.894 4.46239 -0.564882 0
M  V30 5140 C 481.213 4.13856 1.49702 0
M  V30 5141 H 478.332 0.728493 0.111653 0
M  V30 5142 H 480.974 1.85506 -0.410774 0
M  V30 5143 H 479.124 3.66637 1.28491 0
M  V30 5144 H 480.796 4.45328 -1.20337 0
M  V30 5145 H 479.039 4.16916 -1.19849 0
M  V30 5146 H 479.71 5.5134 -0.269918 0
M  V30 5147 H 482.186 4.04461 0.977284 0
M  V30 5148 H 481.062 5.21365 1.71666 0
M  V30 5149 H 481.323 3.65608 2.48563 0
M  V30 5150 N 480.382 0.0267497 1.57577 0
M  V30 5151 C 481.312 -0.954308 2.13108 0
M  V30 5152 C 482.293 -1.34088 1.04663 0
M  V30 5153 O 483.478 -1.41992 1.32484 0
M  V30 5154 C 480.608 -2.23744 2.65624 0
M  V30 5155 C 479.562 -1.99168 3.78835 0
M  V30 5156 C 478.888 -3.33726 4.17769 0
M  V30 5157 C 480.188 -1.33277 5.0501 0
M  V30 5158 H 481.882 -0.491848 2.95332 0
M  V30 5159 H 479.428 -0.23514 1.42067 0
M  V30 5160 H 481.381 -2.92754 3.03106 0
M  V30 5161 H 480.105 -2.72151 1.80558 0
M  V30 5162 H 478.764 -1.32577 3.41788 0
M  V30 5163 H 478.412 -3.79888 3.29688 0
M  V30 5164 H 478.112 -3.18089 4.94058 0
M  V30 5165 H 479.636 -4.04008 4.57832 0
M  V30 5166 H 481.05 -1.92283 5.40093 0
M  V30 5167 H 479.447 -1.28045 5.8628 0
M  V30 5168 H 480.517 -0.305411 4.83937 0
M  V30 5169 N 481.861 -1.55662 -0.24637 0
M  V30 5170 C 482.808 -1.90361 -1.30504 0
M  V30 5171 C 483.778 -0.757905 -1.47801 0
M  V30 5172 O 484.963 -1.01161 -1.61775 0
M  V30 5173 C 482.103 -2.2042 -2.65535 0
M  V30 5174 C 481.216 -3.47799 -2.56242 0
M  V30 5175 C 480.351 -3.67426 -3.8363 0
M  V30 5176 C 479.39 -4.88403 -3.68956 0
M  V30 5177 N 478.527 -5.04548 -4.88237 0
M  V30 5178 H 483.367 -2.80645 -1.00213 0
M  V30 5179 H 480.904 -1.38924 -0.483577 0
M  V30 5180 H 482.862 -2.35853 -3.44135 0
M  V30 5181 H 481.492 -1.3334 -2.93973 0
M  V30 5182 H 480.544 -3.40694 -1.69208 0
M  V30 5183 H 481.856 -4.36544 -2.4131 0
M  V30 5184 H 481.01 -3.82821 -4.70673 0
M  V30 5185 H 479.749 -2.76914 -4.01459 0
M  V30 5186 H 478.754 -4.72984 -2.80296 0
M  V30 5187 H 479.979 -5.80375 -3.52621 0
M  V30 5188 H 477.925 -4.16974 -5.06427 0
M  V30 5189 H 477.842 -5.87384 -4.75937 0
M  V30 5190 H 479.11 -5.24355 -5.76777 0
M  V30 5191 N 483.339 0.512053 -1.4905 0
M  V30 5192 C 484.567 1.29116 -1.61669 0
M  V30 5193 C 484.982 1.86655 -0.283787 0
M  V30 5194 O 484.339 1.67293 0.729331 0
M  V30 5195 C 484.39 2.4293 -2.67707 0
M  V30 5196 O 484.111 1.87758 -3.95826 0
M  V30 5197 C 485.612 3.34476 -2.90931 0
M  V30 5198 H 482.832 0.392009 -0.544583 0
M  V30 5199 H 485.376 0.615881 -1.95006 0
M  V30 5200 H 483.531 3.06308 -2.37179 0
M  V30 5201 H 483.945 2.62393 -4.54148 0
M  V30 5202 H 485.419 4.10642 -3.68886 0
M  V30 5203 H 485.896 3.90801 -2.00427 0
M  V30 5204 H 486.502 2.76874 -3.22832 0
M  V30 5205 N 484.817 1.37938 0.762283 0
M  V30 5206 C 485.747 1.37176 1.88958 0
M  V30 5207 C 486.728 0.238945 1.68413 0
M  V30 5208 O 487.913 0.440726 1.89133 0
M  V30 5209 C 485.043 1.18742 3.2637 0
M  V30 5210 C 483.997 2.29136 3.61498 0
M  V30 5211 C 483.323 1.95816 4.97554 0
M  V30 5212 C 484.623 3.71363 3.6727 0
M  V30 5213 H 486.317 2.31509 1.89853 0
M  V30 5214 H 483.863 1.11438 0.912005 0
M  V30 5215 H 485.816 1.16837 4.04879 0
M  V30 5216 H 484.54 0.208683 3.25933 0
M  V30 5217 H 483.199 2.30213 2.85303 0
M  V30 5218 H 482.847 0.964475 4.93667 0
M  V30 5219 H 482.547 2.69745 5.22026 0
M  V30 5220 H 484.071 1.95513 5.78452 0
M  V30 5221 H 485.485 3.72364 4.35911 0
M  V30 5222 H 483.882 4.44425 4.03245 0
M  V30 5223 H 484.952 4.04305 2.67704 0
M  V30 5224 N 486.295 -0.989507 1.22664 0
M  V30 5225 C 487.227 -2.0824 0.957542 0
M  V30 5226 C 488.24 -1.6267 -0.0651098 0
M  V30 5227 O 489.429 -1.77695 0.169312 0
M  V30 5228 C 486.529 -3.36298 0.419145 0
M  V30 5229 C 485.702 -4.10882 1.49982 0
M  V30 5230 C 484.761 -5.17221 0.967904 0
M  V30 5231 O 483.787 -5.44613 1.65487 0
M  V30 5232 N 484.989 -5.80124 -0.20896 0
M  V30 5233 H 487.754 -2.31904 1.89843 0
M  V30 5234 H 485.315 -1.15552 1.13399 0
M  V30 5235 H 487.307 -4.04671 0.0485451 0
M  V30 5236 H 485.877 -3.09671 -0.426937 0
M  V30 5237 H 485.097 -3.37092 2.04359 0
M  V30 5238 H 486.385 -4.57482 2.22682 0
M  V30 5239 H 485.783 -5.60244 -0.783818 0
M  V30 5240 H 484.34 -6.49715 -0.520913 0
M  V30 5241 N 487.773 -1.03688 -1.18687 0
M  V30 5242 C 488.683 -0.634908 -2.25845 0
M  V30 5243 C 489.699 0.337065 -1.70704 0
M  V30 5244 O 490.875 0.192943 -2.00474 0
M  V30 5245 C 487.94 -0.000180054 -3.467 0
M  V30 5246 C 487.001 -1.02067 -4.1699 0
M  V30 5247 C 486.234 -0.41614 -5.32075 0
M  V30 5248 O 486.457 0.778712 -5.65059 0
M  V30 5249 O 485.391 -1.14296 -5.90948 0
M  V30 5250 H 489.217 -1.52757 -2.62486 0
M  V30 5251 H 486.802 -0.807533 -1.25695 0
M  V30 5252 H 488.684 0.353342 -4.19916 0
M  V30 5253 H 487.359 0.866367 -3.11891 0
M  V30 5254 H 486.266 -1.42592 -3.45859 0
M  V30 5255 H 487.599 -1.85786 -4.5579 0
M  V30 5256 N 489.251 1.34841 -0.815825 0
M  V30 5257 C 490.181 2.32187 -0.247298 0
M  V30 5258 C 491.162 1.5791 0.632344 0
M  V30 5259 O 492.347 1.8593 0.560698 0
M  V30 5260 C 489.477 3.42122 0.597466 0
M  V30 5261 C 488.431 4.27602 -0.184446 0
M  V30 5262 C 487.757 5.28942 0.782609 0
M  V30 5263 C 489.057 5.03502 -1.38865 0
M  V30 5264 H 490.751 2.79985 -1.06061 0
M  V30 5265 H 488.297 1.34611 -0.511461 0
M  V30 5266 H 490.25 4.09232 1.00533 0
M  V30 5267 H 488.974 2.92956 1.44376 0
M  V30 5268 H 487.633 3.62085 -0.573592 0
M  V30 5269 H 487.281 4.7604 1.62466 0
M  V30 5270 H 486.981 5.87008 0.263695 0
M  V30 5271 H 488.505 5.98922 1.18848 0
M  V30 5272 H 489.919 5.63506 -1.05518 0
M  V30 5273 H 488.316 5.71108 -1.8427 0
M  V30 5274 H 489.386 4.33608 -2.17054 0
M  V30 5275 N 490.729 0.570148 1.46925 0
M  V30 5276 C 491.676 -0.170257 2.30171 0
M  V30 5277 C 492.646 -0.896099 1.39855 0
M  V30 5278 O 493.831 -0.889248 1.68811 0
M  V30 5279 C 490.971 -1.18605 3.24079 0
M  V30 5280 C 490.084 -0.464947 4.29491 0
M  V30 5281 C 489.219 -1.46716 5.10537 0
M  V30 5282 C 488.258 -0.731758 6.0771 0
M  V30 5283 N 487.395 -1.68142 6.81669 0
M  V30 5284 H 492.235 0.545713 2.92961 0
M  V30 5285 H 489.772 0.280938 1.44392 0
M  V30 5286 H 491.73 -1.78771 3.76957 0
M  V30 5287 H 490.36 -1.86989 2.63125 0
M  V30 5288 H 489.412 0.251506 3.79568 0
M  V30 5289 H 490.724 0.110548 4.98677 0
M  V30 5290 H 489.878 -2.14199 5.6763 0
M  V30 5291 H 488.617 -2.07658 4.41282 0
M  V30 5292 H 487.622 -0.0430787 5.49783 0
M  V30 5293 H 488.847 -0.127904 6.7898 0
M  V30 5294 H 486.793 -2.27918 6.15134 0
M  V30 5295 H 486.71 -1.15841 7.47072 0
M  V30 5296 H 487.978 -2.347 7.43328 0
M  V30 5297 N 492.207 -1.54576 0.307264 0
M  V30 5298 C 493.154 -2.23751 -0.56604 0
M  V30 5299 C 494.124 -1.22235 -1.12462 0
M  V30 5300 O 495.309 -1.50873 -1.16799 0
M  V30 5301 C 492.449 -2.98661 -1.72903 0
M  V30 5302 C 491.562 -4.14963 -1.20124 0
M  V30 5303 C 490.697 -4.77441 -2.3286 0
M  V30 5304 C 489.736 -5.85875 -1.77247 0
M  V30 5305 N 488.873 -6.42282 -2.8358 0
M  V30 5306 H 493.713 -2.97984 0.0304578 0
M  V30 5307 H 491.25 -1.47076 0.0268015 0
M  V30 5308 H 493.208 -3.40329 -2.41313 0
M  V30 5309 H 491.838 -2.26793 -2.29706 0
M  V30 5310 H 490.89 -3.78193 -0.409198 0
M  V30 5311 H 492.202 -4.93066 -0.754171 0
M  V30 5312 H 491.356 -5.21993 -3.09205 0
M  V30 5313 H 490.095 -3.98684 -2.80896 0
M  V30 5314 H 489.1 -5.40741 -0.993926 0
M  V30 5315 H 490.325 -6.6652 -1.30107 0
M  V30 5316 H 488.271 -5.66406 -3.30939 0
M  V30 5317 H 488.188 -7.1575 -2.43388 0
M  V30 5318 H 489.456 -6.91492 -3.59804 0
M  V30 5319 N 493.685 -0.035106 -1.57561 0
M  V30 5320 C 494.615 0.942993 -2.13612 0
M  V30 5321 C 495.596 1.33531 -1.05373 0
M  V30 5322 O 496.781 1.41287 -1.33235 0
M  V30 5323 C 493.911 2.22332 -2.66807 0
M  V30 5324 C 492.865 1.97156 -3.79886 0
M  V30 5325 C 492.191 3.31506 -4.19533 0
M  V30 5326 C 493.491 1.30596 -5.05709 0
M  V30 5327 H 495.185 0.476179 -2.95589 0
M  V30 5328 H 492.731 0.227602 -1.4219 0
M  V30 5329 H 494.684 2.91142 -3.04654 0
M  V30 5330 H 493.408 2.7119 -1.81999 0
M  V30 5331 H 492.067 1.30763 -3.42486 0
M  V30 5332 H 491.715 3.78134 -3.31698 0
M  V30 5333 H 491.415 3.15465 -4.95738 0
M  V30 5334 H 492.939 4.01574 -4.59968 0
M  V30 5335 H 494.353 1.89416 -5.41105 0
M  V30 5336 H 492.75 1.24934 -5.86951 0
M  V30 5337 H 493.82 0.279742 -4.84092 0
M  V30 5338 N 495.163 1.55791 0.238111 0
M  V30 5339 C 496.391 1.82098 0.982233 0
M  V30 5340 C 496.806 0.612025 1.78605 0
M  V30 5341 O 496.163 -0.419381 1.77616 0
M  V30 5342 C 496.214 3.0673 1.91309 0
M  V30 5343 O 495.935 4.2296 1.14179 0
M  V30 5344 C 497.436 3.45903 2.77248 0
M  V30 5345 H 494.656 0.605748 0.288635 0
M  V30 5346 H 497.2 2.02862 0.258341 0
M  V30 5347 H 495.355 2.87991 2.59114 0
M  V30 5348 H 495.769 4.93653 1.7722 0
M  V30 5349 H 497.243 4.36189 3.38295 0
M  V30 5350 H 497.72 2.66891 3.48806 0
M  V30 5351 H 498.326 3.67024 2.14881 0
M  V30 5352 N 496.642 -0.504142 1.49319 0
M  V30 5353 C 497.891 -1.25507 1.57895 0
M  V30 5354 C 498.204 -1.93735 0.269433 0
M  V30 5355 O 499.41 -2.70492 0.233706 0
M  V30 5356 C 497.866 -2.27869 2.78574 0
M  V30 5357 C 497.474 -1.65594 4.16272 0
M  V30 5358 C 499.218 -3.0381 2.96479 0
M  V30 5359 C 497.125 -2.66048 5.28178 0
M  V30 5360 H 496.055 -0.47212 0.587894 0
M  V30 5361 H 498.706 -0.52931 1.757 0
M  V30 5362 H 497.088 -3.03594 2.54257 0
M  V30 5363 H 498.262 -0.958826 4.50714 0
M  V30 5364 H 496.577 -1.02055 4.037 0
M  V30 5365 H 499.174 -3.78925 3.77253 0
M  V30 5366 H 499.517 -3.61235 2.06918 0
M  V30 5367 H 500.05 -2.352 3.20821 0
M  V30 5368 H 496.789 -2.13408 6.19788 0
M  V30 5369 H 496.309 -3.34009 4.98195 0
M  V30 5370 H 497.988 -3.28536 5.57381 0
M  V30 5371 N 498.12 -1.38341 -0.754957 0
M  V30 5372 C 499.345 -1.37882 -1.5493 0
M  V30 5373 C 499.77 0.0296385 -1.88077 0
M  V30 5374 O 499.128 1.01133 -1.50472 0
M  V30 5375 C 499.176 -2.23996 -2.82592 0
M  V30 5376 O 498.28 -1.65612 -3.77686 0
M  V30 5377 H 497.621 -0.470384 -0.468652 0
M  V30 5378 H 500.151 -1.82084 -0.933082 0
M  V30 5379 H 500.161 -2.37806 -3.3153 0
M  V30 5380 H 498.836 -3.26365 -2.57796 0
M  V30 5381 H 497.413 -1.60936 -3.36384 0
M  V30 5382 N 499.598 0.982988 -1.23187 0
M  V30 5383 C 500.508 2.10907 -1.02739 0
M  V30 5384 C 501.524 1.73979 0.0273188 0
M  V30 5385 O 502.7 2.00702 -0.16757 0
M  V30 5386 C 499.765 3.41142 -0.618304 0
M  V30 5387 C 498.826 3.92112 -1.74777 0
M  V30 5388 C 498.059 5.16131 -1.3581 0
M  V30 5389 O 498.282 5.6989 -0.241201 0
M  V30 5390 O 497.216 5.61103 -2.17824 0
M  V30 5391 H 501.042 2.31046 -1.97108 0
M  V30 5392 H 498.627 1.09284 -1.01869 0
M  V30 5393 H 500.509 4.19488 -0.400982 0
M  V30 5394 H 499.184 3.2234 0.296421 0
M  V30 5395 H 498.091 3.14895 -2.0197 0
M  V30 5396 H 499.424 4.15364 -2.64071 0
M  V30 5397 N 501.076 1.04316 1.18135 0
M  V30 5398 C 502.008 0.594444 2.21357 0
M  V30 5399 C 503.021 -0.337215 1.59269 0
M  V30 5400 O 504.21 -0.131337 1.78016 0
M  V30 5401 C 501.31 -0.151251 3.38562 0
M  V30 5402 C 500.483 0.788907 4.30227 0
M  V30 5403 C 499.542 0.0860572 5.2613 0
M  V30 5404 O 498.568 0.717302 5.64662 0
M  V30 5405 N 499.77 -1.17969 5.68387 0
M  V30 5406 H 502.535 1.48227 2.60478 0
M  V30 5407 H 500.096 0.92396 1.32946 0
M  V30 5408 H 502.088 -0.631352 3.99745 0
M  V30 5409 H 500.658 -0.940639 2.98112 0
M  V30 5410 H 499.878 1.44882 3.6661 0
M  V30 5411 H 501.166 1.42738 4.88368 0
M  V30 5412 H 500.564 -1.71302 5.3914 0
M  V30 5413 H 499.121 -1.60402 6.31755 0
M  V30 5414 N 502.554 -1.34406 0.822964 0
M  V30 5415 C 503.502 -2.31428 0.233165 0
M  V30 5416 C 504.496 -1.57404 -0.626118 0
M  V30 5417 O 505.702 -1.72402 -0.517453 0
M  V30 5418 H 502.077 -0.749863 0.0566557 0
M  V30 5419 H 504.048 -2.78699 1.06628 0
M  V30 5420 C 502.797 -3.42653 -0.590264 0
M  V30 5421 H 502.12 -3.99753 0.0616129 0
M  V30 5422 H 503.56 -4.12778 -0.969054 0
M  V30 5423 C 502.019 -2.87112 -1.76262 0
M  V30 5424 O 502.549 -2.81995 -2.8608 0
M  V30 5425 N 500.755 -2.43934 -1.57938 0
M  V30 5426 H 500.302 -2.48296 -0.686078 0
M  V30 5427 H 500.26 -2.07123 -2.36532 0
M  V30 5428 N 504.032 -0.577932 -1.46621 0
M  V30 5429 C 505.281 -0.0594281 -2.01612 0
M  V30 5430 C 505.594 1.30663 -1.45556 0
M  V30 5431 O 506.8 1.91621 -1.92337 0
M  V30 5432 C 505.256 -0.0556666 -3.59857 0
M  V30 5433 C 504.864 -1.41975 -4.24908 0
M  V30 5434 C 506.608 0.409143 -4.22524 0
M  V30 5435 C 504.515 -1.37397 -5.75218 0
M  V30 5436 H 503.445 -0.0184469 -0.753774 0
M  V30 5437 H 506.096 -0.728869 -1.68404 0
M  V30 5438 H 504.478 0.679843 -3.90121 0
M  V30 5439 H 505.652 -2.17461 -4.0626 0
M  V30 5440 H 503.967 -1.82419 -3.74316 0
M  V30 5441 H 506.564 0.46211 -5.32699 0
M  V30 5442 H 506.907 1.42565 -3.91128 0
M  V30 5443 H 507.44 -0.272152 -3.96868 0
M  V30 5444 H 504.179 -2.36714 -6.11267 0
M  V30 5445 H 503.699 -0.661239 -5.96144 0
M  V30 5446 H 505.378 -1.08484 -6.3784 0
M  V30 5447 N 505.51 1.54411 -0.315457 0
M  V30 5448 C 506.442 2.21527 0.588067 0
M  V30 5449 C 507.455 1.21263 1.08624 0
M  V30 5450 O 508.644 1.47777 1.00121 0
M  V30 5451 C 505.744 2.85963 1.81875 0
M  V30 5452 C 504.917 4.12291 1.46063 0
M  V30 5453 C 503.976 4.60396 2.54799 0
M  V30 5454 O 503.002 5.25265 2.19283 0
M  V30 5455 N 504.204 4.33935 3.85591 0
M  V30 5456 H 506.969 2.99697 0.013414 0
M  V30 5457 H 504.53 1.61308 -0.138295 0
M  V30 5458 H 506.522 3.15071 2.53993 0
M  V30 5459 H 505.092 2.11548 2.30144 0
M  V30 5460 H 504.312 3.90036 0.571445 0
M  V30 5461 H 505.6 4.9452 1.19695 0
M  V30 5462 H 504.998 3.81996 4.17248 0
M  V30 5463 H 503.555 4.67718 4.53964 0
M  V30 5464 N 506.988 0.0434614 1.5754 0
M  V30 5465 C 508.404 -0.313039 1.565 0
M  V30 5466 C 508.604 -1.71954 1.05043 0
M  V30 5467 O 507.66 -2.425 0.703564 0
M  V30 5468 C 508.973 -0.148544 3.00333 0
M  V30 5469 C 510.521 -0.220231 3.12224 0
M  V30 5470 C 510.996 -0.0843565 4.57922 0
M  V30 5471 N 512.487 -0.140881 4.62986 0
M  V30 5472 C 513.222 -0.0597443 5.73369 0
M  V30 5473 N 512.718 0.0733004 6.92761 0
M  V30 5474 N 514.511 -0.11477 5.61983 0
M  V30 5475 H 506.662 0.96303 1.89313 0
M  V30 5476 H 508.925 0.373164 0.871466 0
M  V30 5477 H 508.631 0.820894 3.41986 0
M  V30 5478 H 508.505 -0.912798 3.65989 0
M  V30 5479 H 510.892 -1.18014 2.70475 0
M  V30 5480 H 510.973 0.574646 2.49262 0
M  V30 5481 H 510.617 0.872192 5.00355 0
M  V30 5482 H 510.547 -0.898281 5.18882 0
M  V30 5483 H 513.038 -0.243273 3.77116 0
M  V30 5484 H 513.351 0.128128 7.72694 0
M  V30 5485 H 511.696 0.10828 6.94916 0
M  V30 5486 H 514.887 -0.217212 4.67596 0
M  V30 5487 H 515.06 -0.0480779 6.47982 0
M  V30 5488 N 508.466 -1.55915 -0.229846 0
M  V30 5489 C 509.429 -1.90914 -1.26824 0
M  V30 5490 C 510.429 -0.786999 -1.40225 0
M  V30 5491 O 511.619 -1.05484 -1.38632 0
M  V30 5492 C 508.751 -2.15264 -2.64337 0
M  V30 5493 H 509.944 -2.8378 -0.969998 0
M  V30 5494 H 507.497 -1.49069 -0.4699 0
M  V30 5495 H 508.232 -1.24923 -2.99274 0
M  V30 5496 H 508.017 -2.97005 -2.55989 0
M  V30 5497 H 509.507 -2.43467 -3.39284 0
M  V30 5498 N 509.944 0.496216 -1.49584 0
M  V30 5499 C 510.892 1.61805 -1.67098 0
M  V30 5500 C 511.886 1.60667 -0.536877 0
M  V30 5501 O 513.092 1.65118 -0.716654 0
M  V30 5502 H 509.467 0.53646 -0.526986 0
M  V30 5503 H 511.438 1.44187 -2.61252 0
M  V30 5504 C 510.187 2.99912 -1.75921 0
M  V30 5505 H 509.51 3.01496 -2.62565 0
M  V30 5506 H 510.95 3.77931 -1.92209 0
M  V30 5507 C 509.409 3.33092 -0.505088 0
M  V30 5508 O 509.939 4.00019 0.367085 0
M  V30 5509 N 508.145 2.88278 -0.366599 0
M  V30 5510 H 507.692 2.33989 -1.07735 0
M  V30 5511 H 507.65 3.10846 0.47142 0
M  V30 5512 N 511.423 1.38739 0.74761 0
M  V30 5513 C 512.353 1.39173 1.87492 0
M  V30 5514 C 513.334 0.256794 1.6815 0
M  V30 5515 O 514.519 0.460762 1.88655 0
M  V30 5516 C 511.649 1.22197 3.25093 0
M  V30 5517 C 510.603 2.32957 3.59047 0
M  V30 5518 C 509.929 2.01082 4.95449 0
M  V30 5519 C 511.229 3.75237 3.6331 0
M  V30 5520 H 512.923 2.3351 1.87386 0
M  V30 5521 H 510.469 1.12399 0.900134 0
M  V30 5522 H 512.422 1.21124 4.03617 0
M  V30 5523 H 511.146 0.243241 3.25693 0
M  V30 5524 H 509.805 2.33226 2.82845 0
M  V30 5525 H 509.453 1.01678 4.92616 0
M  V30 5526 H 509.153 2.75267 5.19136 0
M  V30 5527 H 510.677 2.01638 5.76346 0
M  V30 5528 H 512.091 3.76966 4.31937 0
M  V30 5529 H 510.488 4.48677 3.98509 0
M  V30 5530 H 511.558 4.07122 2.634 0
M  V30 5531 N 512.901 -0.976442 1.23707 0
M  V30 5532 C 514.148 -1.71827 1.07153 0
M  V30 5533 C 514.476 -1.9053 -0.390982 0
M  V30 5534 O 513.731 -1.45779 -1.30564 0
M  V30 5535 C 514.03 -3.11814 1.74662 0
M  V30 5536 C 513.696 -3.12978 3.24585 0
M  V30 5537 C 512.358 -3.13003 3.6549 0
M  V30 5538 C 514.71 -3.07986 4.20469 0
M  V30 5539 C 512.038 -3.05757 5.00729 0
M  V30 5540 C 514.39 -3.02282 5.55705 0
M  V30 5541 C 513.054 -3.00631 5.95968 0
M  V30 5542 H 512.324 -0.628758 0.392102 0
M  V30 5543 H 514.971 -1.14239 1.53693 0
M  V30 5544 H 513.276 -3.72812 1.20492 0
M  V30 5545 H 514.973 -3.67989 1.59328 0
M  V30 5546 H 511.563 -3.13718 2.92026 0
M  V30 5547 H 515.747 -3.07103 3.89874 0
M  V30 5548 H 511.003 -3.02834 5.31132 0
M  V30 5549 H 515.177 -2.97376 6.29714 0
M  V30 5550 H 512.804 -2.94771 7.00724 0
M  V30 5551 N 514.379 -1.04941 -1.1758 0
M  V30 5552 C 515.327 -0.64204 -2.23563 0
M  V30 5553 C 516.321 0.335453 -1.66045 0
M  V30 5554 O 517.527 0.20179 -1.78865 0
M  V30 5555 H 513.902 -0.18944 -0.727748 0
M  V30 5556 H 515.873 -1.54609 -2.55223 0
M  V30 5557 C 514.622 -0.0301051 -3.47687 0
M  V30 5558 H 513.945 -0.773339 -3.92249 0
M  V30 5559 H 515.385 0.217592 -4.23441 0
M  V30 5560 C 513.844 1.2225 -3.13937 0
M  V30 5561 O 514.374 2.3122 -3.28482 0
M  V30 5562 N 512.58 1.11917 -2.68185 0
M  V30 5563 H 512.127 0.232403 -2.5655 0
M  V30 5564 H 512.085 1.95814 -2.45976 0
M  V30 5565 N 515.857 1.33968 -0.830081 0
M  V30 5566 C 516.804 2.29387 -0.255008 0
M  V30 5567 C 517.774 1.53923 0.624243 0
M  V30 5568 O 518.959 1.82262 0.564372 0
M  V30 5569 C 516.099 3.4034 0.571209 0
M  V30 5570 C 515.212 4.30729 -0.331083 0
M  V30 5571 C 514.347 5.2879 0.505389 0
M  V30 5572 C 513.386 6.10819 -0.395843 0
M  V30 5573 N 512.523 7.00948 0.401979 0
M  V30 5574 H 517.363 2.77972 -1.07404 0
M  V30 5575 H 514.9 1.36785 -0.541133 0
M  V30 5576 H 516.858 4.03361 1.06562 0
M  V30 5577 H 515.488 2.9297 1.35529 0
M  V30 5578 H 514.54 3.68507 -0.943759 0
M  V30 5579 H 515.852 4.88181 -1.02377 0
M  V30 5580 H 515.006 5.97297 1.06399 0
M  V30 5581 H 513.745 4.71894 1.23155 0
M  V30 5582 H 512.75 5.41238 -0.966529 0
M  V30 5583 H 513.975 6.69797 -1.12023 0
M  V30 5584 H 511.921 6.46512 1.11168 0
M  V30 5585 H 511.838 7.55643 -0.232167 0
M  V30 5586 H 513.106 7.73774 0.943102 0
M  V30 5587 N 517.335 0.585699 1.46312 0
M  V30 5588 C 518.265 -0.133556 2.33118 0
M  V30 5589 C 519.246 -0.880707 1.45525 0
M  V30 5590 O 520.431 -0.855579 1.74337 0
M  V30 5591 C 517.561 -1.14585 3.27853 0
M  V30 5592 C 516.515 -0.513341 4.2491 0
M  V30 5593 C 515.841 -1.63231 5.09175 0
M  V30 5594 C 517.141 0.551413 5.19381 0
M  V30 5595 H 518.835 0.59121 2.93505 0
M  V30 5596 H 516.381 0.285761 1.41136 0
M  V30 5597 H 518.334 -1.65741 3.87438 0
M  V30 5598 H 517.058 -1.90093 2.65579 0
M  V30 5599 H 515.717 -0.0228349 3.66593 0
M  V30 5600 H 515.365 -2.37713 4.43285 0
M  V30 5601 H 515.065 -1.21473 5.74907 0
M  V30 5602 H 516.589 -2.14658 5.71624 0
M  V30 5603 H 518.003 0.124804 5.73164 0
M  V30 5604 H 516.4 0.889486 5.93471 0
M  V30 5605 H 517.47 1.43655 4.63132 0
M  V30 5606 N 518.813 -1.54241 0.323641 0
M  V30 5607 C 520.059 -2.00867 -0.279323 0
M  V30 5608 C 520.392 -1.21146 -1.5178 0
M  V30 5609 O 519.667 -0.29378 -1.92269 0
M  V30 5610 C 519.95 -3.54837 -0.613387 0
M  V30 5611 C 519.803 -4.45284 0.635803 0
M  V30 5612 C 521.122 -4.16186 -1.43099 0
M  V30 5613 H 518.241 -0.730177 -0.100049 0
M  V30 5614 H 520.883 -1.84829 0.440235 0
M  V30 5615 H 519.033 -3.68634 -1.22641 0
M  V30 5616 H 520.705 -4.43357 1.27406 0
M  V30 5617 H 518.948 -4.14956 1.26466 0
M  V30 5618 H 519.619 -5.5084 0.357597 0
M  V30 5619 H 522.095 -4.05964 -0.912814 0
M  V30 5620 H 520.971 -5.24031 -1.6335 0
M  V30 5621 H 521.232 -3.69516 -2.42715 0
M  V30 5622 N 520.291 -0.0518155 -1.57515 0
M  V30 5623 C 521.519 0.631395 -1.9703 0
M  V30 5624 C 521.934 1.64341 -0.92938 0
M  V30 5625 O 521.291 1.82296 0.0863266 0
M  V30 5626 C 521.342 1.31774 -3.36627 0
M  V30 5627 O 521.063 0.346247 -4.3673 0
M  V30 5628 C 522.564 2.09065 -3.90905 0
M  V30 5629 H 519.784 0.172576 -0.648428 0
M  V30 5630 H 522.328 -0.118306 -2.04158 0
M  V30 5631 H 520.483 2.01867 -3.30649 0
M  V30 5632 H 520.897 0.836226 -5.17791 0
M  V30 5633 H 522.371 2.52508 -4.9086 0
M  V30 5634 H 522.848 2.93908 -3.26366 0
M  V30 5635 H 523.454 1.43882 -4.00223 0
M  V30 5636 N 521.769 1.56035 0.221574 0
M  V30 5637 C 522.679 1.95581 1.29558 0
M  V30 5638 C 523.695 0.859639 1.51282 0
M  V30 5639 O 524.871 1.16321 1.64413 0
M  V30 5640 C 521.936 2.26447 2.62531 0
M  V30 5641 C 520.997 3.49632 2.4911 0
M  V30 5642 C 520.23 3.79017 3.75742 0
M  V30 5643 O 520.453 3.10077 4.78757 0
M  V30 5644 O 519.387 4.72507 3.72855 0
M  V30 5645 H 523.213 2.8711 0.990035 0
M  V30 5646 H 520.798 1.43244 0.424434 0
M  V30 5647 H 522.68 2.47494 3.41064 0
M  V30 5648 H 521.355 1.38092 2.92766 0
M  V30 5649 H 520.262 3.33864 1.68777 0
M  V30 5650 H 521.595 4.3837 2.23814 0
M  V30 5651 N 523.247 -0.488276 1.49845 0
M  V30 5652 C 524.177 -1.59675 1.70371 0
M  V30 5653 C 525.158 -1.60878 0.552473 0
M  V30 5654 O 526.343 -1.77417 0.78973 0
M  V30 5655 C 523.473 -2.98098 1.782 0
M  V30 5656 C 522.427 -3.11761 2.93239 0
M  V30 5657 C 521.753 -4.51661 2.86193 0
M  V30 5658 C 523.053 -2.90589 4.33999 0
M  V30 5659 H 524.747 -1.42752 2.63177 0
M  V30 5660 H 522.293 -0.685317 1.26647 0
M  V30 5661 H 524.246 -3.75555 1.91144 0
M  V30 5662 H 522.97 -3.16138 0.820018 0
M  V30 5663 H 521.629 -2.36732 2.79917 0
M  V30 5664 H 521.277 -4.66595 1.87877 0
M  V30 5665 H 520.977 -4.61742 3.63412 0
M  V30 5666 H 522.501 -5.31162 3.01163 0
M  V30 5667 H 523.915 -3.57807 4.47936 0
M  V30 5668 H 522.312 -3.1213 5.12538 0
M  V30 5669 H 523.382 -1.86595 4.4756 0
M  V30 5670 N 524.725 -1.39134 -0.740242 0
M  V30 5671 C 526.141 -1.20623 -1.0451 0
M  V30 5672 C 526.341 -0.0641651 -2.01398 0
M  V30 5673 O 525.397 0.585843 -2.4561 0
M  V30 5674 C 526.71 -2.53815 -1.6124 0
M  V30 5675 C 528.258 -2.60615 -1.73346 0
M  V30 5676 C 528.733 -3.94015 -2.33486 0
M  V30 5677 N 530.224 -3.95627 -2.40902 0
M  V30 5678 C 530.959 -4.95616 -2.88361 0
M  V30 5679 N 530.455 -6.06003 -3.35756 0
M  V30 5680 N 532.248 -4.82998 -2.87523 0
M  V30 5681 H 524.399 -2.12176 -0.0975576 0
M  V30 5682 H 526.662 -0.942066 -0.105904 0
M  V30 5683 H 526.368 -3.37911 -0.975144 0
M  V30 5684 H 526.242 -2.73162 -2.6012 0
M  V30 5685 H 528.629 -1.76906 -2.36195 0
M  V30 5686 H 528.71 -2.45123 -0.731336 0
M  V30 5687 H 528.354 -4.78153 -1.71267 0
M  V30 5688 H 528.284 -4.06825 -3.34366 0
M  V30 5689 H 530.775 -3.15903 -2.07398 0
M  V30 5690 H 531.088 -6.78215 -3.70464 0
M  V30 5691 H 529.433 -6.09604 -3.33778 0
M  V30 5692 H 532.624 -3.95866 -2.49816 0
M  V30 5693 H 532.797 -5.61072 -3.24196 0
M  V30 5694 N 526.204 0.969867 -1.24223 0
M  V30 5695 C 527.452 1.70918 -1.0785 0
M  V30 5696 C 527.773 1.91186 0.383763 0
M  V30 5697 O 527.043 1.48806 1.27411 0
M  V30 5698 H 525.623 0.633334 -0.396103 0
M  V30 5699 H 528.285 1.16689 -1.56108 0
M  V30 5700 H 527.381 2.69455 -1.57482 0
M  V30 5701 N 527.682 1.05563 1.17022 0
M  V30 5702 C 528.612 0.681026 2.23348 0
M  V30 5703 C 529.593 -0.322983 1.67005 0
M  V30 5704 O 530.778 -0.199746 1.9317 0
M  V30 5705 C 527.908 0.0589053 3.4725 0
M  V30 5706 C 526.862 0.988082 4.16438 0
M  V30 5707 C 526.188 0.229646 5.34207 0
M  V30 5708 C 527.488 2.31388 4.68249 0
M  V30 5709 H 529.182 1.56993 2.54938 0
M  V30 5710 H 526.728 0.756302 1.2254 0
M  V30 5711 H 528.681 -0.214982 4.20851 0
M  V30 5712 H 527.405 -0.864968 3.14938 0
M  V30 5713 H 526.064 1.24659 3.44754 0
M  V30 5714 H 525.712 -0.697111 4.98146 0
M  V30 5715 H 525.412 0.848815 5.81437 0
M  V30 5716 H 526.936 -0.0368694 6.10589 0
M  V30 5717 H 528.35 2.09964 5.33468 0
M  V30 5718 H 526.747 2.88736 5.26072 0
M  V30 5719 H 527.817 2.94982 3.84855 0
M  V30 5720 N 529.16 -1.33526 0.837174 0
M  V30 5721 C 530.385 -2.0258 0.444545 0
M  V30 5722 C 530.81 -1.6258 -0.946006 0
M  V30 5723 O 530.168 -0.817548 -1.6182 0
M  V30 5724 C 530.216 -3.5605 0.571006 0
M  V30 5725 O 529.32 -4.10422 -0.403431 0
M  V30 5726 H 528.661 -0.638866 0.180958 0
M  V30 5727 H 531.191 -1.70462 1.13154 0
M  V30 5728 H 531.201 -4.05488 0.452024 0
M  V30 5729 H 529.876 -3.84509 1.58512 0
M  V30 5730 H 528.453 -3.72113 -0.242147 0
M  V30 5731 N 530.638 -0.59345 -1.46 0
M  V30 5732 C 531.915 -0.0157933 -1.95594 0
M  V30 5733 C 532.295 1.44807 -1.53604 0
M  V30 5734 O 531.643 2.14342 -0.791824 0
M  V30 5735 C 531.853 -0.199081 -3.48432 0
M  V30 5736 C 533.201 -0.0724943 -4.24538 0
M  V30 5737 O 534.225 -0.128469 -3.55968 0
M  V30 5738 O 533.084 0.0542426 -5.46473 0
M  V30 5739 H 530.178 0.043749 -0.825842 0
M  V30 5740 H 532.724 -0.662522 -1.56233 0
M  V30 5741 H 531.496 -1.21631 -3.71916 0
M  V30 5742 H 531.119 0.483576 -3.94648 0
M  V30 5743 N 532.116 1.54067 -0.331816 0
M  V30 5744 C 533.026 2.28322 0.539104 0
M  V30 5745 C 534.042 1.32985 1.1221 0
M  V30 5746 O 535.218 1.6601 1.1403 0
M  V30 5747 C 532.283 3.03277 1.68 0
M  V30 5748 C 531.344 4.14216 1.12798 0
M  V30 5749 C 530.577 4.85588 2.2145 0
M  V30 5750 O 530.8 4.56536 3.41952 0
M  V30 5751 O 529.734 5.72309 1.86404 0
M  V30 5752 H 533.56 3.03632 -0.0641692 0
M  V30 5753 H 531.145 1.49083 -0.0972365 0
M  V30 5754 H 533.027 3.50189 2.34405 0
M  V30 5755 H 531.702 2.30834 2.2693 0
M  V30 5756 H 530.609 3.71635 0.428782 0
M  V30 5757 H 531.942 4.88727 0.583698 0
M  V30 5758 N 533.594 0.0601682 1.57485 0
M  V30 5759 C 534.557 -0.896373 2.10945 0
M  V30 5760 C 535.557 -1.23402 1.03095 0
M  V30 5761 O 536.747 -1.16921 1.29132 0
M  V30 5762 C 533.879 -2.20346 2.60116 0
M  V30 5763 H 535.072 -0.432778 2.96761 0
M  V30 5764 H 532.625 -0.188372 1.55161 0
M  V30 5765 H 533.36 -2.71268 1.7772 0
M  V30 5766 H 533.145 -1.9714 3.38937 0
M  V30 5767 H 534.635 -2.88846 3.01592 0
M  V30 5768 N 535.072 -1.5615 -0.213296 0
M  V30 5769 C 536.318 -1.79812 -0.937849 0
M  V30 5770 C 536.651 -0.631201 -1.83656 0
M  V30 5771 O 535.926 0.369165 -1.90964 0
M  V30 5772 C 536.209 -3.13613 -1.76972 0
M  V30 5773 C 536.062 -4.40766 -0.89695 0
M  V30 5774 C 537.381 -3.43931 -2.7459 0
M  V30 5775 H 534.5 -0.654138 -0.339518 0
M  V30 5776 H 537.142 -1.88877 -0.20623 0
M  V30 5777 H 535.292 -3.06015 -2.39347 0
M  V30 5778 H 536.964 -4.60392 -0.289306 0
M  V30 5779 H 535.207 -4.33326 -0.202756 0
M  V30 5780 H 535.878 -5.30843 -1.51358 0
M  V30 5781 H 538.354 -3.5171 -2.22349 0
M  V30 5782 H 537.23 -4.38706 -3.29891 0
M  V30 5783 H 537.491 -2.6651 -3.52739 0
M  V30 5784 N 536.55 0.480323 -1.50102 0
M  V30 5785 C 537.778 1.25657 -1.64371 0
M  V30 5786 C 538.193 1.86011 -0.323316 0
M  V30 5787 O 537.55 1.68803 0.693682 0
M  V30 5788 C 537.601 2.37197 -2.728 0
M  V30 5789 O 537.322 1.7932 -3.9972 0
M  V30 5790 C 538.823 3.2823 -2.9796 0
M  V30 5791 H 536.043 0.380369 -0.552775 0
M  V30 5792 H 538.587 0.574379 -1.96268 0
M  V30 5793 H 536.742 3.01208 -2.43623 0
M  V30 5794 H 537.156 2.52701 -4.59611 0
M  V30 5795 H 538.63 4.02725 -3.77513 0
M  V30 5796 H 539.107 3.86462 -2.08671 0
M  V30 5797 H 539.713 2.69964 -3.28633 0
M  V30 5798 N 538.028 1.39524 0.732853 0
M  V30 5799 C 539.253 1.40329 1.52717 0
M  V30 5800 C 539.678 0.000286574 1.881 0
M  V30 5801 O 539.036 -0.987262 1.52062 0
M  V30 5802 C 539.084 2.28464 2.78992 0
M  V30 5803 O 538.188 1.716 3.75003 0
M  V30 5804 H 537.529 0.47778 0.461109 0
M  V30 5805 H 540.059 1.83546 0.903996 0
M  V30 5806 H 540.069 2.43051 3.27705 0
M  V30 5807 H 538.744 3.30425 2.52572 0
M  V30 5808 H 537.321 1.66267 3.33781 0
M  V30 5809 N 539.506 -0.963266 1.24736 0
M  V30 5810 C 540.436 -2.07628 1.06832 0
M  V30 5811 C 541.417 -1.70088 -0.0200566 0
M  V30 5812 O 542.602 -1.93636 0.147854 0
M  V30 5813 C 539.732 -3.40636 0.677069 0
M  V30 5814 C 538.686 -3.9215 1.71471 0
M  V30 5815 C 538.012 -5.21553 1.1784 0
M  V30 5816 C 539.312 -4.19493 3.11164 0
M  V30 5817 H 541.006 -2.22864 1.9993 0
M  V30 5818 H 538.552 -1.07093 0.96266 0
M  V30 5819 H 540.505 -4.17941 0.538792 0
M  V30 5820 H 539.229 -3.25313 -0.289612 0
M  V30 5821 H 537.888 -3.17005 1.84128 0
M  V30 5822 H 537.536 -5.02593 0.202195 0
M  V30 5823 H 537.236 -5.56988 1.87185 0
M  V30 5824 H 538.76 -6.01463 1.05233 0
M  V30 5825 H 540.174 -4.87487 3.01711 0
M  V30 5826 H 538.571 -4.66165 3.77902 0
M  V30 5827 H 539.641 -3.26097 3.58871 0
M  V30 5828 N 540.985 -1.06182 -1.16461 0
M  V30 5829 C 541.915 -0.692861 -2.22984 0
M  V30 5830 C 542.896 0.314122 -1.67174 0
M  V30 5831 O 544.081 0.189499 -1.93273 0
M  V30 5832 C 541.211 -0.07732 -3.47214 0
M  V30 5833 C 540.165 -1.01015 -4.15909 0
M  V30 5834 C 539.491 -0.257973 -5.34077 0
M  V30 5835 C 540.791 -2.33868 -4.67015 0
M  V30 5836 H 542.485 -1.58343 -2.54102 0
M  V30 5837 H 540.031 -0.76279 -1.22137 0
M  V30 5838 H 541.984 0.19266 -4.20959 0
M  V30 5839 H 540.708 0.848254 -3.15392 0
M  V30 5840 H 539.367 -1.26486 -3.44088 0
M  V30 5841 H 539.015 0.670684 -4.98509 0
M  V30 5842 H 538.715 -0.879638 -5.80979 0
M  V30 5843 H 540.239 0.00448788 -6.106 0
M  V30 5844 H 541.653 -2.1279 -5.32347 0
M  V30 5845 H 540.05 -2.91522 -5.24533 0
M  V30 5846 H 541.12 -2.97019 -3.83286 0
M  V30 5847 N 542.463 1.3308 -0.844243 0
M  V30 5848 C 543.874 1.7992 -0.498566 0
M  V30 5849 C 544.225 1.69808 0.982834 0
M  V30 5850 O 543.35 1.25051 1.7661 0
M  V30 5851 C 543.945 3.26677 -0.898204 0
M  V30 5852 C 542.504 3.71513 -0.604583 0
M  V30 5853 C 541.651 2.54393 -1.10362 0
M  V30 5854 H 544.602 1.20526 -1.03244 0
M  V30 5855 H 544.623 3.79918 -0.21039 0
M  V30 5856 H 544.135 3.34004 -1.97643 0
M  V30 5857 H 542.236 3.69708 0.46335 0
M  V30 5858 H 542.349 4.64755 -1.16358 0
M  V30 5859 H 540.713 2.49246 -0.524273 0
M  V30 5860 H 541.496 2.6448 -2.18873 0
M  V30 5861 N 543.941 0.601185 1.45683 0
M  V30 5862 C 544.873 -0.159446 2.28645 0
M  V30 5863 C 545.886 -0.837882 1.39583 0
M  V30 5864 O 547.075 -0.704344 1.64016 0
M  V30 5865 C 544.175 -1.24641 3.15147 0
M  V30 5866 C 543.348 -0.656334 4.32448 0
M  V30 5867 C 542.407 -1.63337 5.00208 0
M  V30 5868 O 541.433 -1.16217 5.57209 0
M  V30 5869 N 542.635 -2.96773 4.98905 0
M  V30 5870 H 545.4 0.5524 2.94565 0
M  V30 5871 H 542.961 0.440223 1.558 0
M  V30 5872 H 544.953 -1.8997 3.57342 0
M  V30 5873 H 543.523 -1.86087 2.51178 0
M  V30 5874 H 542.743 0.174879 3.93812 0
M  V30 5875 H 544.031 -0.242211 5.08223 0
M  V30 5876 H 543.429 -3.37662 4.53873 0
M  V30 5877 H 541.986 -3.57541 5.44984 0
M  V30 5878 N 545.419 -1.53889 0.339982 0
M  V30 5879 C 546.349 -2.27843 -0.510856 0
M  V30 5880 C 547.33 -1.29267 -1.10563 0
M  V30 5881 O 548.515 -1.58104 -1.12768 0
M  V30 5882 C 545.645 -3.04857 -1.66372 0
M  V30 5883 C 544.599 -4.10907 -1.19746 0
M  V30 5884 C 543.925 -4.75855 -2.43857 0
M  V30 5885 C 545.225 -5.21435 -0.300501 0
M  V30 5886 H 546.919 -2.99212 0.106067 0
M  V30 5887 H 544.465 -1.43904 0.0524533 0
M  V30 5888 H 546.418 -3.5533 -2.26537 0
M  V30 5889 H 545.142 -2.31133 -2.30749 0
M  V30 5890 H 543.801 -3.61342 -0.618654 0
M  V30 5891 H 543.449 -3.9873 -3.06633 0
M  V30 5892 H 543.149 -5.47502 -2.13343 0
M  V30 5893 H 544.673 -5.2911 -3.04754 0
M  V30 5894 H 546.087 -5.67565 -0.80889 0
M  V30 5895 H 544.484 -6.00036 -0.0874076 0
M  V30 5896 H 545.554 -4.80328 0.664321 0
M  V30 5897 N 546.897 -0.0685191 -1.57451 0
M  V30 5898 C 548.146 0.600898 -1.92541 0
M  V30 5899 C 548.459 1.70967 -0.950239 0
M  V30 5900 O 549.665 2.43844 -1.19384 0
M  V30 5901 C 548.121 1.12019 -3.42023 0
M  V30 5902 C 547.729 0.0426028 -4.4798 0
M  V30 5903 C 549.473 1.76386 -3.86119 0
M  V30 5904 C 547.38 0.575759 -5.88591 0
M  V30 5905 H 546.31 0.228225 -0.71863 0
M  V30 5906 H 548.961 -0.140223 -1.82963 0
M  V30 5907 H 547.343 1.91418 -3.46663 0
M  V30 5908 H 548.517 -0.73182 -4.54952 0
M  V30 5909 H 546.832 -0.504642 -4.13331 0
M  V30 5910 H 549.429 2.17302 -4.88553 0
M  V30 5911 H 549.772 2.62255 -3.23308 0
M  V30 5912 H 550.305 1.03615 -3.84069 0
M  V30 5913 H 547.044 -0.245691 -6.55039 0
M  V30 5914 H 546.564 1.31778 -5.85145 0
M  V30 5915 H 548.243 1.0532 -6.3837 0
M  V30 5916 N 548.375 1.56261 0.205012 0
M  V30 5917 C 549.285 1.96944 1.27476 0
M  V30 5918 C 550.301 0.875636 1.50362 0
M  V30 5919 O 551.477 1.18058 1.6317 0
M  V30 5920 C 548.542 2.29219 2.60115 0
M  V30 5921 C 547.603 3.52255 2.45387 0
M  V30 5922 C 546.836 3.8298 3.71701 0
M  V30 5923 O 547.059 3.15138 4.75441 0
M  V30 5924 O 545.993 4.76435 3.67823 0
M  V30 5925 H 549.819 2.88144 0.959527 0
M  V30 5926 H 547.404 1.43686 0.409217 0
M  V30 5927 H 549.286 2.51098 3.3842 0
M  V30 5928 H 547.961 1.4119 2.91285 0
M  V30 5929 H 546.868 3.35635 1.65227 0
M  V30 5930 H 548.201 4.40719 2.19152 0
M  V30 5931 N 549.853 -0.472356 1.50355 0
M  V30 5932 C 551.099 -1.22634 1.6152 0
M  V30 5933 C 551.432 -1.91645 0.313995 0
M  V30 5934 O 550.707 -1.82059 -0.684446 0
M  V30 5935 C 550.99 -2.27099 2.7946 0
M  V30 5936 C 550.843 -1.62402 4.19459 0
M  V30 5937 C 552.162 -3.28421 2.92964 0
M  V30 5938 H 549.281 -0.444494 0.587873 0
M  V30 5939 H 551.923 -0.520321 1.82737 0
M  V30 5940 H 550.073 -2.87314 2.61501 0
M  V30 5941 H 551.745 -1.05793 4.49005 0
M  V30 5942 H 549.988 -0.927184 4.23776 0
M  V30 5943 H 550.659 -2.38309 4.97909 0
M  V30 5944 H 553.135 -2.78227 3.09401 0
M  V30 5945 H 552.011 -3.98845 3.77113 0
M  V30 5946 H 552.272 -3.92467 2.03525 0
M  V30 5947 N 551.331 -1.39911 -0.725443 0
M  V30 5948 C 552.556 -1.41137 -1.5197 0
M  V30 5949 C 552.981 -0.010262 -1.88097 0
M  V30 5950 O 552.339 0.979184 -1.52583 0
M  V30 5951 C 552.387 -2.2994 -2.77777 0
M  V30 5952 O 551.491 -1.73586 -3.74088 0
M  V30 5953 H 550.832 -0.480219 -0.458569 0
M  V30 5954 H 553.362 -1.84023 -0.894249 0
M  V30 5955 H 553.372 -2.44785 -3.26411 0
M  V30 5956 H 552.047 -3.31759 -2.50816 0
M  V30 5957 H 550.624 -1.68035 -3.32894 0
M  V30 5958 N 552.809 0.956637 -1.25245 0
M  V30 5959 C 554.034 1.74104 -1.12706 0
M  V30 5960 C 554.459 1.85436 0.315429 0
M  V30 5961 O 553.817 1.33334 1.22848 0
M  V30 5962 C 553.865 3.1338 -1.78396 0
M  V30 5963 O 552.969 3.98485 -1.06224 0
M  V30 5964 H 552.31 0.53476 -0.393609 0
M  V30 5965 H 554.84 1.19924 -1.65769 0
M  V30 5966 H 554.85 3.6385 -1.846 0
M  V30 5967 H 553.525 3.04448 -2.83345 0
M  V30 5968 H 552.102 3.56952 -1.07886 0
M  V30 5969 N 554.287 1.06798 1.15896 0
M  V30 5970 C 555.698 0.811355 1.68149 0
M  V30 5971 C 556.049 -0.664339 1.8461 0
M  V30 5972 O 555.174 -1.51485 1.54535 0
M  V30 5973 C 555.769 1.46624 3.05429 0
M  V30 5974 C 554.328 1.25726 3.54781 0
M  V30 5975 C 553.475 1.53949 2.3064 0
M  V30 5976 H 556.426 1.23078 1.00187 0
M  V30 5977 H 556.447 0.88437 3.7008 0
M  V30 5978 H 555.959 2.54025 2.93416 0
M  V30 5979 H 554.06 0.20322 3.72045 0
M  V30 5980 H 554.173 1.97354 4.36564 0
M  V30 5981 H 552.537 0.96025 2.35905 0
M  V30 5982 H 553.32 2.6252 2.2122 0
M  V30 5983 N 555.766 -1.3263 0.851289 0
M  V30 5984 C 557.015 -1.96633 0.449267 0
M  V30 5985 C 557.328 -1.68131 -0.999562 0
M  V30 5986 O 558.534 -2.25845 -1.50685 0
M  V30 5987 C 556.99 -3.51946 0.752446 0
M  V30 5988 C 556.598 -3.89311 2.21678 0
M  V30 5989 C 558.342 -4.22437 0.417983 0
M  V30 5990 C 556.249 -5.37655 2.46336 0
M  V30 5991 H 555.179 -0.735888 0.164269 0
M  V30 5992 H 557.83 -1.51073 1.0416 0
M  V30 5993 H 556.212 -3.95899 0.0895858 0
M  V30 5994 H 557.386 -3.56378 2.92115 0
M  V30 5995 H 555.701 -3.31836 2.51543 0
M  V30 5996 H 558.298 -5.31549 0.579674 0
M  V30 5997 H 558.641 -4.11349 -0.640115 0
M  V30 5998 H 559.174 -3.84057 1.03659 0
M  V30 5999 H 555.913 -5.5376 3.50757 0
M  V30 6000 H 555.433 -5.72005 1.80473 0
M  V30 6001 H 557.112 -6.04695 2.30115 0
M  V30 6002 N 557.244 -0.608902 -1.45362 0
M  V30 6003 C 558.472 -0.111013 -2.06602 0
M  V30 6004 C 558.887 1.20516 -1.45332 0
M  V30 6005 O 558.244 1.73437 -0.567978 0
M  V30 6006 C 558.295 0.033688 -3.61484 0
M  V30 6007 O 558.016 -1.23041 -4.20467 0
M  V30 6008 C 559.517 0.562882 -4.39712 0
M  V30 6009 H 556.737 -0.0694453 -0.667397 0
M  V30 6010 H 559.281 -0.837008 -1.86586 0
M  V30 6011 H 557.436 0.710016 -3.80838 0
M  V30 6012 H 557.85 -1.06094 -5.13658 0
M  V30 6013 H 559.324 0.613213 -5.48583 0
M  V30 6014 H 559.801 1.58543 -4.09586 0
M  V30 6015 H 560.407 -0.0794454 -4.25226 0
M  V30 6016 N 558.722 1.53707 -0.348139 0
M  V30 6017 C 559.652 2.28111 0.498766 0
M  V30 6018 C 560.633 1.29851 1.09876 0
M  V30 6019 O 561.818 1.587 1.11928 0
M  V30 6020 C 558.948 3.05735 1.64753 0
M  V30 6021 C 557.902 4.11537 1.17565 0
M  V30 6022 C 557.228 4.77142 2.4133 0
M  V30 6023 C 558.528 5.21587 0.272844 0
M  V30 6024 H 560.222 2.99152 -0.121934 0
M  V30 6025 H 557.768 1.43875 -0.0600842 0
M  V30 6026 H 559.721 3.56526 2.24649 0
M  V30 6027 H 558.445 2.32354 2.2952 0
M  V30 6028 H 557.104 3.61665 0.599483 0
M  V30 6029 H 556.752 4.0035 3.04514 0
M  V30 6030 H 556.452 5.48626 2.10436 0
M  V30 6031 H 557.976 5.30719 3.01943 0
M  V30 6032 H 559.39 5.67986 0.778779 0
M  V30 6033 H 557.787 6.00074 0.0555849 0
M  V30 6034 H 558.857 4.79969 -0.689785 0
M  V30 6035 N 560.2 0.0768682 1.57412 0
M  V30 6036 C 561.132 -0.918248 2.10002 0
M  V30 6037 C 562.145 -1.25808 1.03325 0
M  V30 6038 O 563.334 -1.21438 1.30824 0
M  V30 6039 C 560.434 -2.23263 2.54964 0
M  V30 6040 C 559.607 -2.07088 3.8527 0
M  V30 6041 C 558.666 -3.21876 4.16272 0
M  V30 6042 O 557.692 -2.96643 4.8579 0
M  V30 6043 N 558.894 -4.4712 3.70221 0
M  V30 6044 H 561.659 -0.469209 2.96004 0
M  V30 6045 H 559.22 -0.108725 1.61535 0
M  V30 6046 H 561.212 -2.9897 2.72762 0
M  V30 6047 H 559.782 -2.59649 1.74072 0
M  V30 6048 H 559.002 -1.15818 3.76802 0
M  V30 6049 H 560.29 -1.93537 4.70554 0
M  V30 6050 H 559.688 -4.70506 3.1407 0
M  V30 6051 H 558.245 -5.19837 3.93209 0
M  V30 6052 N 561.678 -1.56367 -0.196722 0
M  V30 6053 C 562.641 -1.93561 -1.22746 0
M  V30 6054 C 563.641 -0.816566 -1.38524 0
M  V30 6055 O 564.831 -1.084 -1.36363 0
M  V30 6056 C 561.963 -2.20823 -2.59712 0
M  V30 6057 H 563.156 -2.85774 -0.909586 0
M  V30 6058 H 560.709 -1.50032 -0.438174 0
M  V30 6059 H 561.444 -1.31243 -2.96557 0
M  V30 6060 H 561.229 -3.02368 -2.49632 0
M  V30 6061 H 562.719 -2.50608 -3.34044 0
M  V30 6062 N 563.156 0.464375 -1.50603 0
M  V30 6063 C 564.086 1.56944 -1.72889 0
M  V30 6064 C 565.067 1.59979 -0.577997 0
M  V30 6065 O 566.252 1.76138 -0.817855 0
M  V30 6066 C 563.382 2.95225 -1.8292 0
M  V30 6067 C 562.336 3.07056 -2.98162 0
M  V30 6068 C 561.662 4.47051 -2.93343 0
M  V30 6069 C 562.962 2.83648 -4.38567 0
M  V30 6070 H 564.656 1.38547 -2.65415 0
M  V30 6071 H 562.202 0.665082 -1.27721 0
M  V30 6072 H 564.155 3.72467 -1.97095 0
M  V30 6073 H 562.879 3.14793 -0.870209 0
M  V30 6074 H 561.538 2.32248 -2.83648 0
M  V30 6075 H 561.186 4.63547 -1.95276 0
M  V30 6076 H 560.886 4.55902 -3.70712 0
M  V30 6077 H 562.41 5.26304 -3.09575 0
M  V30 6078 H 563.824 3.50636 -4.53572 0
M  V30 6079 H 562.221 3.03937 -5.17438 0
M  V30 6080 H 563.291 1.79451 -4.50472 0
M  V30 6081 N 564.634 1.40294 0.718013 0
M  V30 6082 C 565.88 1.38645 1.48005 0
M  V30 6083 C 566.213 -0.0121202 1.94196 0
M  V30 6084 O 565.488 -0.980309 1.67989 0
M  V30 6085 C 565.771 2.37379 2.70782 0
M  V30 6086 C 565.624 3.8625 2.30501 0
M  V30 6087 C 566.943 2.33685 3.72933 0
M  V30 6088 H 564.062 0.504928 0.536858 0
M  V30 6089 H 566.704 1.71411 0.819649 0
M  V30 6090 H 564.854 2.09568 3.27129 0
M  V30 6091 H 566.526 4.24879 1.79655 0
M  V30 6092 H 564.769 4.02202 1.6253 0
M  V30 6093 H 565.44 4.50847 3.18498 0
M  V30 6094 H 567.916 2.58314 3.2621 0
M  V30 6095 H 566.792 3.0482 4.56482 0
M  V30 6096 H 567.053 1.34765 4.21059 0
M  V30 6097 N 566.112 -0.949982 1.2575 0
M  V30 6098 C 567.044 -2.05088 1.02331 0
M  V30 6099 C 568.057 -1.62795 -0.0133247 0
M  V30 6100 O 569.246 -1.77067 0.225759 0
M  V30 6101 C 566.346 -3.34794 0.525924 0
M  V30 6102 C 565.519 -4.05903 1.62978 0
M  V30 6103 C 564.578 -5.1388 1.13196 0
M  V30 6104 O 563.604 -5.39072 1.82729 0
M  V30 6105 N 564.806 -5.80495 -0.0242926 0
M  V30 6106 H 567.571 -2.25747 1.97125 0
M  V30 6107 H 565.132 -1.11886 1.17018 0
M  V30 6108 H 567.124 -4.04312 0.177263 0
M  V30 6109 H 565.694 -3.10872 -0.328202 0
M  V30 6110 H 564.914 -3.3042 2.1498 0
M  V30 6111 H 566.202 -4.50166 2.37124 0
M  V30 6112 H 565.6 -5.62454 -0.605184 0
M  V30 6113 H 564.157 -6.51043 -0.313947 0
M  V30 6114 N 567.59 -1.07411 -1.15328 0
M  V30 6115 C 568.83 -0.807011 -1.87794 0
M  V30 6116 C 569.194 0.654987 -1.80482 0
M  V30 6117 O 570.395 1.03716 -2.47985 0
M  V30 6118 C 568.666 -1.30198 -3.32841 0
M  V30 6119 S 570.225 -1.16564 -4.23034 0
M  V30 6120 H 567.043 -0.292429 -0.648079 0
M  V30 6121 H 569.645 -1.37334 -1.39139 0
M  V30 6122 H 568.349 -2.3607 -3.35707 0
M  V30 6123 H 567.88 -0.730881 -3.86551 0
M  V30 6124 H 569.895 -0.103557 -4.96092 0
M  V30 6125 N 569.068 1.32177 -0.85831 0
M  V30 6126 C 570.316 1.96735 -0.462568 0
M  V30 6127 C 570.637 1.6824 0.985911 0
M  V30 6128 O 569.907 0.991564 1.68952 0
M  V30 6129 H 568.487 0.727849 -0.168064 0
M  V30 6130 H 571.149 1.61195 -1.09554 0
M  V30 6131 H 570.245 3.06068 -0.610647 0
M  V30 6132 N 570.547 0.616602 1.45037 0
M  V30 6133 C 571.479 -0.135186 2.28801 0
M  V30 6134 C 572.492 -0.82303 1.40464 0
M  V30 6135 O 573.681 -0.686909 1.64754 0
M  V30 6136 C 570.781 -1.21292 3.16451 0
M  V30 6137 C 569.954 -0.61043 4.3312 0
M  V30 6138 C 569.013 -1.58022 5.01912 0
M  V30 6139 O 568.039 -1.10301 5.58411 0
M  V30 6140 N 569.241 -2.91464 5.02025 0
M  V30 6141 H 572.006 0.583612 2.93963 0
M  V30 6142 H 569.567 0.456723 1.55324 0
M  V30 6143 H 571.559 -1.86169 3.59337 0
M  V30 6144 H 570.129 -1.83412 2.53138 0
M  V30 6145 H 569.349 0.216638 3.93604 0
M  V30 6146 H 570.637 -0.188293 5.08451 0
M  V30 6147 H 570.035 -3.32829 4.57429 0
M  V30 6148 H 568.592 -3.51741 5.48745 0
M  V30 6149 N 572.025 -1.5352 0.356285 0
M  V30 6150 C 573.436 -1.86282 -0.12492 0
M  V30 6151 C 573.787 -1.27717 -1.48939 0
M  V30 6152 O 572.912 -0.595614 -2.08042 0
M  V30 6153 C 573.507 -3.37995 -0.23345 0
M  V30 6154 C 572.066 -3.70588 -0.658899 0
M  V30 6155 C 571.213 -2.76581 0.199596 0
M  V30 6156 H 574.164 -1.47901 0.575423 0
M  V30 6157 H 574.185 -3.65475 -1.0587 0
M  V30 6158 H 573.697 -3.8059 0.759776 0
M  V30 6159 H 571.798 -3.33544 -1.66069 0
M  V30 6160 H 571.911 -4.77076 -0.439957 0
M  V30 6161 H 570.275 -2.52552 -0.330076 0
M  V30 6162 H 571.058 -3.22008 1.19019 0
M  V30 6163 N 573.503 -0.0852151 -1.57369 0
M  V30 6164 C 574.435 0.907099 -2.10486 0
M  V30 6165 C 575.448 1.25259 -1.03991 0
M  V30 6166 O 576.637 1.20743 -1.31467 0
M  V30 6167 C 573.737 2.21908 -2.56145 0
M  V30 6168 C 572.91 2.05042 -3.86363 0
M  V30 6169 C 571.969 3.19664 -4.17973 0
M  V30 6170 O 570.995 2.94062 -4.87356 0
M  V30 6171 N 572.197 4.45151 -3.72587 0
M  V30 6172 H 574.962 0.453505 -2.96249 0
M  V30 6173 H 572.523 0.100157 -1.6159 0
M  V30 6174 H 574.515 2.97519 -2.74343 0
M  V30 6175 H 573.085 2.58723 -1.75446 0
M  V30 6176 H 572.305 1.13819 -3.77411 0
M  V30 6177 H 573.593 1.91039 -4.71574 0
M  V30 6178 H 572.991 4.68834 -3.16561 0
M  V30 6179 H 571.548 5.17744 -3.9596 0
M  V30 6180 N 574.981 1.5647 0.188427 0
M  V30 6181 C 576.221 1.82803 0.914469 0
M  V30 6182 C 576.585 0.663681 1.80165 0
M  V30 6183 O 577.786 0.807059 2.56398 0
M  V30 6184 C 576.057 3.14187 1.70357 0
M  V30 6185 S 577.616 3.61947 2.48072 0
M  V30 6186 H 574.434 0.641497 0.306599 0
M  V30 6187 H 577.036 1.94694 0.177361 0
M  V30 6188 H 575.74 3.96937 1.04255 0
M  V30 6189 H 575.271 3.05192 2.48237 0
M  V30 6190 H 577.286 3.27913 3.72407 0
M  V30 6191 N 576.459 -0.456382 1.50847 0
M  V30 6192 C 577.684 -1.2349 1.66628 0
M  V30 6193 C 578.109 -1.84715 0.355254 0
M  V30 6194 O 577.467 -1.67961 -0.682559 0
M  V30 6195 C 577.515 -2.30865 2.77009 0
M  V30 6196 O 576.619 -3.35882 2.39285 0
M  V30 6197 H 575.96 -0.36266 0.556214 0
M  V30 6198 H 578.49 -0.541374 1.97308 0
M  V30 6199 H 578.5 -2.75949 3.00526 0
M  V30 6200 H 577.175 -1.85677 3.72152 0
M  V30 6201 H 575.752 -2.96406 2.26269 0
M  V30 6202 N 577.937 -1.40673 -0.710563 0
M  V30 6203 C 579.165 -1.42547 -1.4996 0
M  V30 6204 C 579.58 -0.0265485 -1.88781 0
M  V30 6205 O 578.937 0.950694 -1.55782 0
M  V30 6206 C 578.988 -2.32071 -2.77173 0
M  V30 6207 O 578.709 -3.66518 -2.39992 0
M  V30 6208 C 580.21 -2.42591 -3.71032 0
M  V30 6209 H 577.43 -0.486025 -0.462623 0
M  V30 6210 H 579.974 -1.84783 -0.876102 0
M  V30 6211 H 578.129 -1.93184 -3.35795 0
M  V30 6212 H 578.543 -4.14115 -3.21884 0
M  V30 6213 H 580.017 -3.09429 -4.57119 0
M  V30 6214 H 580.494 -1.4525 -4.14486 0
M  V30 6215 H 581.1 -2.82051 -3.18319 0
M  V30 6216 N 579.415 0.9433 -1.26252 0
M  V30 6217 C 580.365 2.02746 -1.04297 0
M  V30 6218 C 581.349 1.60882 0.0239435 0
M  V30 6219 O 582.541 1.75947 -0.192757 0
M  V30 6220 C 579.67 3.36585 -0.6757 0
M  V30 6221 C 578.756 3.84939 -1.77996 0
M  V30 6222 N 579.147 4.05966 -3.01704 0
M  V30 6223 C 577.445 4.13833 -1.66308 0
M  V30 6224 C 578.146 4.45987 -3.73458 0
M  V30 6225 N 577.122 4.52569 -3.01135 0
M  V30 6226 H 580.924 2.17012 -1.98199 0
M  V30 6227 H 578.438 1.12898 -1.16738 0
M  V30 6228 H 580.435 4.13896 -0.499571 0
M  V30 6229 H 579.095 3.2369 0.255863 0
M  V30 6230 H 580.106 3.92716 -3.37631 0
M  V30 6231 H 576.783 4.09739 -0.801267 0
M  V30 6232 H 578.173 4.70465 -4.79701 0
M  V30 6233 N 580.893 1.08022 1.14757 0
M  V30 6234 C 582.142 0.802468 1.8505 0
M  V30 6235 C 582.455 -0.674061 1.83619 0
M  V30 6236 O 583.661 -1.06683 2.49662 0
M  V30 6237 C 582.117 1.38551 3.32162 0
M  V30 6238 C 581.725 2.89354 3.42021 0
M  V30 6239 C 583.469 1.18608 4.07594 0
M  V30 6240 C 581.376 3.40815 4.83321 0
M  V30 6241 H 580.306 0.296518 0.693248 0
M  V30 6242 H 582.957 1.30114 1.29393 0
M  V30 6243 H 581.339 0.814556 3.87532 0
M  V30 6244 H 582.513 3.52552 2.96722 0
M  V30 6245 H 580.828 3.08165 2.80041 0
M  V30 6246 H 583.425 1.54525 5.11885 0
M  V30 6247 H 583.768 0.125599 4.1611 0
M  V30 6248 H 584.301 1.72375 3.58513 0
M  V30 6249 H 581.04 4.46418 4.79991 0
M  V30 6250 H 580.56 2.82374 5.29174 0
M  V30 6251 H 582.239 3.37171 5.522 0
M  V30 6252 N 582.371 -1.3172 0.865308 0
M  V30 6253 C 583.301 -2.31109 0.333302 0
M  V30 6254 C 584.282 -1.60148 -0.573301 0
M  V30 6255 O 585.467 -1.87882 -0.491305 0
M  V30 6256 C 582.597 -3.44104 -0.470078 0
M  V30 6257 C 581.551 -4.26623 0.343021 0
M  V30 6258 C 580.877 -5.31482 -0.585756 0
M  V30 6259 C 582.177 -4.98001 1.57456 0
M  V30 6260 H 583.871 -2.75855 1.1638 0
M  V30 6261 H 581.417 -1.3262 0.561069 0
M  V30 6262 H 583.37 -4.12682 -0.852752 0
M  V30 6263 H 582.094 -2.98112 -1.33404 0
M  V30 6264 H 580.753 -3.59707 0.707583 0
M  V30 6265 H 580.401 -4.81741 -1.44686 0
M  V30 6266 H 580.101 -5.87582 -0.0456494 0
M  V30 6267 H 581.625 -6.0292 -0.965375 0
M  V30 6268 H 583.039 -5.59201 1.26359 0
M  V30 6269 H 581.436 -5.63876 2.05339 0
M  V30 6270 H 582.506 -4.25253 2.32997 0
M  V30 6271 N 583.85 -0.624285 -1.44708 0
M  V30 6272 C 584.782 0.12305 -2.28869 0
M  V30 6273 C 585.795 0.81557 -1.40898 0
M  V30 6274 O 586.984 0.678162 -1.65116 0
M  V30 6275 C 584.084 1.19612 -3.1709 0
M  V30 6276 C 583.257 0.587452 -4.33437 0
M  V30 6277 C 582.316 1.55358 -5.02743 0
M  V30 6278 O 581.341 1.07338 -5.58988 0
M  V30 6279 N 582.543 2.88798 -5.03563 0
M  V30 6280 H 585.308 -0.599193 -2.93649 0
M  V30 6281 H 582.87 -0.464954 -1.5508 0
M  V30 6282 H 584.861 1.84261 -3.60319 0
M  V30 6283 H 583.432 1.82067 -2.54107 0
M  V30 6284 H 582.652 -0.237509 -3.93484 0
M  V30 6285 H 583.94 0.161326 -5.08544 0
M  V30 6286 H 583.338 3.30399 -4.59188 0
M  V30 6287 H 581.894 3.48826 -5.50603 0
M  V30 6288 N 585.328 1.53329 -0.364422 0
M  V30 6289 C 586.574 2.02222 0.21855 0
M  V30 6290 C 586.929 1.24702 1.46517 0
M  V30 6291 O 586.222 0.331969 1.88702 0
M  V30 6292 C 586.416 3.52911 0.564661 0
M  V30 6293 C 586.245 4.45023 -0.646862 0
M  V30 6294 C 585.015 4.91838 -1.15858 0
M  V30 6295 C 587.213 4.91581 -1.51172 0
M  V30 6296 N 585.195 5.67955 -2.33025 0
M  V30 6297 C 586.566 5.66028 -2.53006 0
M  V30 6298 C 588.621 4.73656 -1.53473 0
M  V30 6299 C 587.324 6.24457 -3.56996 0
M  V30 6300 C 589.35 5.3295 -2.56356 0
M  V30 6301 C 588.712 6.07282 -3.56914 0
M  V30 6302 H 584.811 0.780832 0.0427199 0
M  V30 6303 H 587.395 1.87937 -0.508704 0
M  V30 6304 H 585.566 3.6736 1.26099 0
M  V30 6305 H 587.298 3.88528 1.13262 0
M  V30 6306 H 584.053 4.68043 -0.723393 0
M  V30 6307 H 584.477 6.10675 -2.92241 0
M  V30 6308 H 589.119 4.15714 -0.770842 0
M  V30 6309 H 586.837 6.81496 -4.34268 0
M  V30 6310 H 590.423 5.20976 -2.58989 0
M  V30 6311 H 589.303 6.52345 -4.35218 0
M  V30 6312 N 586.806 0.0935595 1.57322 0
M  V30 6313 C 587.736 -0.863062 2.16964 0
M  V30 6314 C 588.717 -1.29528 1.10256 0
M  V30 6315 O 589.902 -1.36245 1.38387 0
M  V30 6316 C 587.032 -2.12276 2.74875 0
M  V30 6317 C 585.986 -1.82921 3.86942 0
M  V30 6318 C 585.312 -3.15707 4.31548 0
M  V30 6319 C 586.612 -1.11737 5.10208 0
M  V30 6320 H 588.306 -0.366145 2.97153 0
M  V30 6321 H 585.852 -0.174673 1.42937 0
M  V30 6322 H 587.805 -2.79634 3.1525 0
M  V30 6323 H 586.529 -2.64248 1.91938 0
M  V30 6324 H 585.188 -1.17961 3.47103 0
M  V30 6325 H 584.836 -3.65563 3.45504 0
M  V30 6326 H 584.536 -2.96849 5.07104 0
M  V30 6327 H 586.06 -3.84226 4.74555 0
M  V30 6328 H 587.474 -1.69203 5.47762 0
M  V30 6329 H 585.871 -1.03064 5.91183 0
M  V30 6330 H 586.941 -0.0998818 4.84797 0
M  V30 6331 N 588.284 -1.56567 -0.180126 0
M  V30 6332 C 589.231 -1.95725 -1.22313 0
M  V30 6333 C 590.201 -0.819911 -1.44453 0
M  V30 6334 O 591.386 -1.07931 -1.57339 0
M  V30 6335 C 588.526 -2.31484 -2.55947 0
M  V30 6336 C 587.639 -3.58354 -2.4126 0
M  V30 6337 C 586.774 -3.83366 -3.67701 0
M  V30 6338 C 585.813 -5.03612 -3.47909 0
M  V30 6339 N 584.95 -5.24802 -4.66398 0
M  V30 6340 H 589.79 -2.84642 -0.882198 0
M  V30 6341 H 587.327 -1.4085 -0.42422 0
M  V30 6342 H 589.285 -2.50237 -3.33822 0
M  V30 6343 H 587.915 -1.45689 -2.88053 0
M  V30 6344 H 586.967 -3.47565 -1.54606 0
M  V30 6345 H 588.279 -4.46386 -2.22577 0
M  V30 6346 H 587.433 -4.02439 -4.54013 0
M  V30 6347 H 586.172 -2.93692 -3.89353 0
M  V30 6348 H 585.177 -4.84447 -2.59983 0
M  V30 6349 H 586.402 -5.94809 -3.27688 0
M  V30 6350 H 584.348 -4.38079 -4.88286 0
M  V30 6351 H 584.265 -6.07041 -4.50596 0
M  V30 6352 H 585.533 -5.48346 -5.54019 0
M  V30 6353 N 589.762 0.448376 -1.51087 0
M  V30 6354 C 591.178 0.783984 -1.39017 0
M  V30 6355 C 591.378 1.96087 -0.463904 0
M  V30 6356 O 590.434 2.52357 0.0850534 0
M  V30 6357 C 591.747 1.07471 -2.80839 0
M  V30 6358 C 593.295 1.17981 -2.89913 0
M  V30 6359 C 593.77 1.50354 -4.32617 0
M  V30 6360 N 595.261 1.57301 -4.35673 0
M  V30 6361 C 595.996 1.839 -5.4311 0
M  V30 6362 N 595.492 2.08365 -6.60724 0
M  V30 6363 N 597.285 1.8559 -5.30578 0
M  V30 6364 H 589.436 -0.326881 -2.0987 0
M  V30 6365 H 591.699 -0.0838006 -0.944289 0
M  V30 6366 H 591.405 0.282768 -3.50561 0
M  V30 6367 H 591.279 2.00519 -3.19487 0
M  V30 6368 H 593.666 1.9624 -2.20395 0
M  V30 6369 H 593.747 0.228603 -2.54776 0
M  V30 6370 H 593.391 0.726273 -5.0268 0
M  V30 6371 H 593.321 2.46663 -4.65258 0
M  V30 6372 H 595.812 1.40342 -3.50874 0
M  V30 6373 H 596.125 2.27999 -7.38401 0
M  V30 6374 H 594.47 2.0571 -6.63859 0
M  V30 6375 H 597.661 1.65989 -4.37682 0
M  V30 6376 H 597.834 2.05983 -6.1439 0
M  V30 6377 N 591.24 1.41047 0.703093 0
M  V30 6378 C 592.486 1.40207 1.46526 0
M  V30 6379 C 592.819 0.00847763 1.94198 0
M  V30 6380 O 592.094 -0.962437 1.69019 0
M  V30 6381 C 592.377 2.40238 2.6825 0
M  V30 6382 C 592.23 3.88674 2.26391 0
M  V30 6383 C 593.549 2.37627 3.70434 0
M  V30 6384 H 590.668 0.510594 0.531472 0
M  V30 6385 H 593.31 1.72271 0.801422 0
M  V30 6386 H 591.46 2.13026 3.24888 0
M  V30 6387 H 593.132 4.2676 1.75138 0
M  V30 6388 H 591.375 4.03903 1.58255 0
M  V30 6389 H 592.046 4.542 3.13698 0
M  V30 6390 H 594.522 2.61759 3.23452 0
M  V30 6391 H 593.398 3.09645 4.53223 0
M  V30 6392 H 593.659 1.39223 4.19606 0
M  V30 6393 N 592.718 -0.936591 1.26751 0
M  V30 6394 C 593.668 -2.0219 1.05371 0
M  V30 6395 C 594.652 -1.60893 -0.0154112 0
M  V30 6396 O 595.844 -1.75843 0.202085 0
M  V30 6397 C 592.973 -3.36222 0.693541 0
M  V30 6398 C 592.059 -3.8399 1.80035 0
M  V30 6399 N 592.45 -4.0436 3.03852 0
M  V30 6400 C 590.748 -4.12945 1.685 0
M  V30 6401 C 591.449 -4.44 3.75818 0
M  V30 6402 N 590.425 -4.50966 3.03531 0
M  V30 6403 H 594.227 -2.15958 1.99347 0
M  V30 6404 H 591.741 -1.12277 1.17335 0
M  V30 6405 H 593.738 -4.13625 0.521513 0
M  V30 6406 H 592.398 -3.23821 -0.238693 0
M  V30 6407 H 593.409 -3.9092 3.39709 0
M  V30 6408 H 590.086 -4.09308 0.822986 0
M  V30 6409 H 591.476 -4.67914 4.82189 0
M  V30 6410 N 594.196 -1.08629 -1.14182 0
M  V30 6411 C 595.159 -0.722027 -2.1753 0
M  V30 6412 C 596.159 0.244305 -1.58933 0
M  V30 6413 O 597.349 0.0235545 -1.74184 0
M  V30 6414 C 594.481 -0.0663966 -3.40835 0
M  V30 6415 H 595.674 -1.63719 -2.51269 0
M  V30 6416 H 593.227 -0.884442 -1.28869 0
M  V30 6417 H 593.962 0.860389 -3.12678 0
M  V30 6418 H 593.747 -0.761598 -3.84632 0
M  V30 6419 H 595.237 0.173346 -4.1724 0
M  V30 6420 N 595.674 1.31259 -0.872281 0
M  V30 6421 C 596.622 2.30404 -0.318897 0
M  V30 6422 C 597.616 1.5962 0.567267 0
M  V30 6423 O 598.822 1.74204 0.453111 0
M  V30 6424 H 595.197 0.747243 -0.0844474 0
M  V30 6425 H 597.168 2.74549 -1.16899 0
M  V30 6426 C 595.917 3.44608 0.462683 0
M  V30 6427 H 595.24 3.99248 -0.209936 0
M  V30 6428 H 596.68 4.1609 0.815187 0
M  V30 6429 C 595.139 2.93456 1.65485 0
M  V30 6430 O 595.669 2.92418 2.75417 0
M  V30 6431 N 593.875 2.49628 1.48776 0
M  V30 6432 H 593.422 2.50671 0.593452 0
M  V30 6433 H 593.38 2.15759 2.28682 0
M  V30 6434 N 597.152 0.631951 1.44375 0
M  V30 6435 C 598.563 0.219036 1.85411 0
M  V30 6436 C 598.914 -1.22974 1.52879 0
M  V30 6437 O 598.039 -1.93579 0.967266 0
M  V30 6438 C 598.634 0.39075 3.36539 0
M  V30 6439 C 597.193 0.0323351 3.76386 0
M  V30 6440 C 596.34 0.703744 2.68221 0
M  V30 6441 H 599.291 0.837056 1.3483 0
M  V30 6442 H 599.312 -0.370056 3.78696 0
M  V30 6443 H 598.824 1.44527 3.60185 0
M  V30 6444 H 596.925 -1.02042 3.58355 0
M  V30 6445 H 597.038 0.442969 4.77048 0
M  V30 6446 H 595.402 0.138974 2.54321 0
M  V30 6447 H 596.185 1.76088 2.947 0
M  V30 6448 N 598.631 -1.53133 0.372548 0
M  V30 6449 C 599.561 -2.28876 -0.462412 0
M  V30 6450 C 600.542 -1.31583 -1.07796 0
M  V30 6451 O 601.727 -1.60461 -1.09389 0
M  V30 6452 C 598.857 -3.08317 -1.59868 0
M  V30 6453 C 597.811 -4.13355 -1.11003 0
M  V30 6454 C 597.137 -4.8092 -2.33708 0
M  V30 6455 C 598.437 -5.21955 -0.18983 0
M  V30 6456 H 600.131 -2.9892 0.169511 0
M  V30 6457 H 597.677 -1.43761 0.0829658 0
M  V30 6458 H 599.63 -3.60055 -2.18949 0
M  V30 6459 H 598.354 -2.35976 -2.25794 0
M  V30 6460 H 597.013 -3.62573 -0.541869 0
M  V30 6461 H 596.661 -4.05144 -2.98106 0
M  V30 6462 H 596.361 -5.51904 -2.01682 0
M  V30 6463 H 597.885 -5.35455 -2.93462 0
M  V30 6464 H 599.299 -5.69153 -0.688319 0
M  V30 6465 H 597.696 -6.00087 0.0398887 0
M  V30 6466 H 598.766 -4.78811 0.766057 0
M  V30 6467 N 600.109 -0.101901 -1.5727 0
M  V30 6468 C 601.039 0.851544 -2.17419 0
M  V30 6469 C 602.02 1.28942 -1.10941 0
M  V30 6470 O 603.205 1.35509 -1.39107 0
M  V30 6471 C 600.335 2.10816 -2.75996 0
M  V30 6472 C 599.289 1.80867 -3.87906 0
M  V30 6473 C 598.615 3.13413 -4.33216 0
M  V30 6474 C 599.915 1.0903 -5.10793 0
M  V30 6475 H 601.609 0.350381 -2.97343 0
M  V30 6476 H 599.155 0.16709 -1.43027 0
M  V30 6477 H 601.108 2.77959 -3.16729 0
M  V30 6478 H 599.832 2.63227 -1.93337 0
M  V30 6479 H 598.491 1.16119 -3.47724 0
M  V30 6480 H 598.139 3.63725 -3.47438 0
M  V30 6481 H 597.839 2.94155 -5.08671 0
M  V30 6482 H 599.363 3.81704 -4.76586 0
M  V30 6483 H 600.777 1.66295 -5.48652 0
M  V30 6484 H 599.174 0.99927 -5.91722 0
M  V30 6485 H 600.244 0.0741704 -4.84843 0
M  V30 6486 N 601.587 1.56661 0.17182 0
M  V30 6487 C 602.836 1.81158 0.886831 0
M  V30 6488 C 603.149 0.679072 1.83434 0
M  V30 6489 O 604.355 0.808964 2.59168 0
M  V30 6490 C 602.811 3.20999 1.6275 0
M  V30 6491 C 602.419 4.42117 0.723652 0
M  V30 6492 C 604.163 3.5479 2.33076 0
M  V30 6493 C 602.07 5.7298 1.46452 0
M  V30 6494 H 601 0.675543 0.334899 0
M  V30 6495 H 603.651 1.82967 0.139765 0
M  V30 6496 H 602.033 3.13506 2.4193 0
M  V30 6497 H 603.207 4.60789 -0.0311485 0
M  V30 6498 H 601.522 4.16197 0.130063 0
M  V30 6499 H 604.119 4.49806 2.89099 0
M  V30 6500 H 604.462 2.79646 3.08389 0
M  V30 6501 H 604.995 3.63834 1.6084 0
M  V30 6502 H 601.734 6.51152 0.753729 0
M  V30 6503 H 601.254 5.58285 2.19266 0
M  V30 6504 H 602.933 6.14916 2.01214 0
M  V30 6505 N 603.065 -0.440357 1.51323 0
M  V30 6506 C 604.342 -1.20109 1.5438 0
M  V30 6507 C 604.722 -2.08866 0.306303 0
M  V30 6508 O 604.07 -2.1723 -0.708773 0
M  V30 6509 C 604.28 -2.00555 2.8562 0
M  V30 6510 C 605.628 -2.577 3.37455 0
M  V30 6511 O 606.652 -2.10769 2.8715 0
M  V30 6512 O 605.511 -3.43289 4.25224 0
M  V30 6513 H 602.605 -0.546668 0.620551 0
M  V30 6514 H 605.151 -0.449672 1.63634 0
M  V30 6515 H 603.923 -1.35346 3.67147 0
M  V30 6516 H 603.546 -2.82768 2.79514 0
M  V30 6517 N 604.543 -1.41418 -0.695603 0
M  V30 6518 C 605.789 -1.40982 -1.4578 0
M  V30 6519 C 606.122 -0.0187763 -1.94191 0
M  V30 6520 O 605.397 0.95346 -1.69527 0
M  V30 6521 C 605.68 -2.41657 -2.66972 0
M  V30 6522 C 605.533 -3.89869 -2.24327 0
M  V30 6523 C 606.852 -2.39589 -3.69168 0
M  V30 6524 H 603.971 -0.513405 -0.528757 0
M  V30 6525 H 606.613 -1.72693 -0.792275 0
M  V30 6526 H 604.763 -2.14746 -3.23754 0
M  V30 6527 H 606.435 -4.27683 -1.72872 0
M  V30 6528 H 604.678 -4.04737 -1.56111 0
M  V30 6529 H 605.349 -4.55857 -3.11285 0
M  V30 6530 H 607.825 -2.63471 -3.2206 0
M  V30 6531 H 606.701 -3.12044 -4.51575 0
M  V30 6532 H 606.962 -1.41447 -4.18862 0
M  V30 6533 N 606.021 0.929856 -1.27246 0
M  V30 6534 C 607.267 1.6798 -1.13625 0
M  V30 6535 C 607.6 1.91586 0.317589 0
M  V30 6536 O 606.875 1.50467 1.23247 0
M  V30 6537 C 607.158 3.04766 -1.91806 0
M  V30 6538 C 607.011 2.88415 -3.45162 0
M  V30 6539 C 608.33 4.05063 -1.72082 0
M  V30 6540 H 605.449 0.609632 -0.414147 0
M  V30 6541 H 608.091 1.0792 -1.56376 0
M  V30 6542 H 606.241 3.56034 -1.55474 0
M  V30 6543 H 607.913 2.44282 -3.91311 0
M  V30 6544 H 606.156 2.23802 -3.71611 0
M  V30 6545 H 606.827 3.85482 -3.95105 0
M  V30 6546 H 609.303 3.62798 -2.03757 0
M  V30 6547 H 608.179 4.98765 -2.29182 0
M  V30 6548 H 608.44 4.37021 -0.668206 0
M  V30 6549 N 607.499 1.09233 1.13605 0
M  V30 6550 C 608.727 0.848908 1.88683 0
M  V30 6551 C 609.142 -0.599667 1.79024 0
M  V30 6552 O 608.499 -1.41265 1.15544 0
M  V30 6553 C 608.55 1.27273 3.38355 0
M  V30 6554 O 608.271 2.66449 3.47759 0
M  V30 6555 C 609.772 1.0614 4.30406 0
M  V30 6556 H 606.992 0.305549 0.597395 0
M  V30 6557 H 609.536 1.4538 1.43823 0
M  V30 6558 H 607.691 0.711776 3.80805 0
M  V30 6559 H 608.105 2.84264 4.40788 0
M  V30 6560 H 609.579 1.40725 5.33761 0
M  V30 6561 H 610.056 -0.000960332 4.392 0
M  V30 6562 H 610.662 1.60821 3.93722 0
M  V30 6563 N 608.977 -1.30795 0.87923 0
M  V30 6564 C 610.207 -2.00237 0.50881 0
M  V30 6565 C 610.615 -1.66115 -0.905682 0
M  V30 6566 O 609.958 -0.89138 -1.60624 0
M  V30 6567 C 610.02 -3.54508 0.597003 0
M  V30 6568 C 609.684 -4.12131 1.97477 0
M  V30 6569 C 610.681 -4.28552 2.94346 0
M  V30 6570 C 608.366 -4.47644 2.2786 0
M  V30 6571 C 610.36 -4.79689 4.19735 0
M  V30 6572 C 608.047 -4.98481 3.53496 0
M  V30 6573 C 609.045 -5.14456 4.49248 0
M  V30 6574 O 608.733 -5.64199 5.72656 0
M  V30 6575 H 608.465 -0.647026 0.195788 0
M  V30 6576 H 611.019 -1.67785 1.1848 0
M  V30 6577 H 609.249 -3.86461 -0.135945 0
M  V30 6578 H 610.938 -4.05198 0.238684 0
M  V30 6579 H 611.704 -4.01424 2.72183 0
M  V30 6580 H 607.583 -4.34481 1.54102 0
M  V30 6581 H 611.127 -4.92073 4.9448 0
M  V30 6582 H 607.024 -5.25044 3.75498 0
M  V30 6583 H 607.792 -5.82551 5.74957 0
M  V30 6584 N 610.455 -0.639598 -1.44038 0
M  V30 6585 C 611.385 0.0469443 -2.33453 0
M  V30 6586 C 612.366 0.82609 -1.48694 0
M  V30 6587 O 613.551 0.790285 -1.77393 0
M  V30 6588 C 610.681 1.02338 -3.3188 0
M  V30 6589 C 609.635 0.355284 -4.26523 0
M  V30 6590 C 608.961 1.44221 -5.14883 0
M  V30 6591 C 610.261 -0.743798 -5.16977 0
M  V30 6592 H 611.955 -0.699735 -2.91108 0
M  V30 6593 H 609.501 -0.337946 -1.39978 0
M  V30 6594 H 611.454 1.51247 -3.93322 0
M  V30 6595 H 610.178 1.80105 -2.72451 0
M  V30 6596 H 608.837 -0.113239 -3.66425 0
M  V30 6597 H 608.485 2.21097 -4.51802 0
M  V30 6598 H 608.185 1.00052 -5.79019 0
M  V30 6599 H 609.709 1.93295 -5.79197 0
M  V30 6600 H 611.123 -0.337444 -5.72306 0
M  V30 6601 H 609.52 -1.10914 -5.89761 0
M  V30 6602 H 610.59 -1.60745 -4.57481 0
M  V30 6603 N 611.933 1.52934 -0.380664 0
M  V30 6604 C 613.179 2.01765 0.20458 0
M  V30 6605 C 613.512 1.26696 1.47179 0
M  V30 6606 O 612.787 0.364936 1.91046 0
M  V30 6607 C 613.07 3.56869 0.481269 0
M  V30 6608 C 612.923 4.42617 -0.800629 0
M  V30 6609 C 614.242 4.2121 1.27554 0
M  V30 6610 H 611.361 0.733388 0.0728803 0
M  V30 6611 H 614.003 1.83068 -0.50853 0
M  V30 6612 H 612.153 3.72932 1.08875 0
M  V30 6613 H 613.825 4.38323 -1.43773 0
M  V30 6614 H 612.068 4.09977 -1.4178 0
M  V30 6615 H 612.739 5.49134 -0.561791 0
M  V30 6616 H 615.215 4.09072 0.761514 0
M  V30 6617 H 614.091 5.29732 1.43788 0
M  V30 6618 H 614.352 3.78269 2.28833 0
M  V30 6619 N 613.412 0.11024 1.57214 0
M  V30 6620 C 614.375 -0.828808 2.1369 0
M  V30 6621 C 615.375 -1.20059 1.06969 0
M  V30 6622 O 616.565 -1.12754 1.32786 0
M  V30 6623 C 613.697 -2.11959 2.66994 0
M  V30 6624 H 614.89 -0.338146 2.97988 0
M  V30 6625 H 612.443 -0.138913 1.55681 0
M  V30 6626 H 613.178 -2.65476 1.8626 0
M  V30 6627 H 612.963 -1.86258 3.45037 0
M  V30 6628 H 614.453 -2.79105 3.10629 0
M  V30 6629 N 614.89 -1.56749 -0.16351 0
M  V30 6630 C 615.82 -2.00042 -1.20438 0
M  V30 6631 C 616.801 -0.877256 -1.45733 0
M  V30 6632 O 617.986 -1.1439 -1.56935 0
M  V30 6633 C 615.116 -2.36697 -2.54149 0
M  V30 6634 C 614.07 -3.52046 -2.43408 0
M  V30 6635 C 613.396 -3.74466 -3.81679 0
M  V30 6636 C 614.696 -4.85247 -1.93216 0
M  V30 6637 H 616.39 -2.87244 -0.844477 0
M  V30 6638 H 613.936 -1.38194 -0.40478 0
M  V30 6639 H 615.889 -2.65582 -3.27176 0
M  V30 6640 H 614.613 -1.46414 -2.91943 0
M  V30 6641 H 613.272 -3.23301 -1.72834 0
M  V30 6642 H 612.92 -2.81461 -4.1688 0
M  V30 6643 H 612.62 -4.52084 -3.75359 0
M  V30 6644 H 614.144 -4.0576 -4.5628 0
M  V30 6645 H 615.558 -5.12957 -2.56023 0
M  V30 6646 H 613.955 -5.66556 -1.97825 0
M  V30 6647 H 615.025 -4.7672 -0.88689 0
M  V30 6648 N 616.368 0.432326 -1.51554 0
M  V30 6649 C 617.617 1.17831 -1.63703 0
M  V30 6650 C 617.93 1.92229 -0.36156 0
M  V30 6651 O 619.136 2.69069 -0.362495 0
M  V30 6652 C 617.592 2.14318 -2.89129 0
M  V30 6653 C 617.2 1.45544 -4.23699 0
M  V30 6654 C 618.944 2.89319 -3.10636 0
M  V30 6655 C 616.851 2.40545 -5.4027 0
M  V30 6656 H 615.781 0.443533 -0.60975 0
M  V30 6657 H 618.432 0.444878 -1.78026 0
M  V30 6658 H 616.814 2.91117 -2.68452 0
M  V30 6659 H 617.988 0.742693 -4.54775 0
M  V30 6660 H 616.303 0.826772 -4.0811 0
M  V30 6661 H 618.9 3.60495 -3.94902 0
M  V30 6662 H 619.243 3.50951 -2.23918 0
M  V30 6663 H 619.776 2.19625 -3.31677 0
M  V30 6664 H 616.515 1.83594 -6.29264 0
M  V30 6665 H 616.035 3.09859 -5.13563 0
M  V30 6666 H 617.714 3.01569 -5.72421 0
M  V30 6667 N 617.846 1.41785 0.688094 0
M  V30 6668 C 619.257 1.3701 1.26828 0
M  V30 6669 C 619.608 0.056835 1.96118 0
M  V30 6670 O 618.733 -0.84475 1.99231 0
M  V30 6671 C 619.328 2.48168 2.30648 0
M  V30 6672 C 617.887 2.46766 2.84224 0
M  V30 6673 C 617.034 2.27633 1.58361 0
M  V30 6674 H 619.985 1.51192 0.482351 0
M  V30 6675 H 620.006 2.17655 3.121 0
M  V30 6676 H 619.518 3.43735 1.80188 0
M  V30 6677 H 617.619 1.54978 3.3884 0
M  V30 6678 H 617.732 3.43342 3.34145 0
M  V30 6679 H 616.096 1.75648 1.84445 0
M  V30 6680 H 616.879 3.25238 1.09887 0
M  V30 6681 N 619.324 -0.923095 1.27737 0
M  V30 6682 C 620.234 -2.05765 1.12685 0
M  V30 6683 C 621.25 -1.73911 0.0557197 0
M  V30 6684 O 622.426 -1.99674 0.263137 0
M  V30 6685 C 619.491 -3.37804 0.780363 0
M  V30 6686 C 618.552 -3.83326 1.93286 0
M  V30 6687 C 617.785 -5.09064 1.60281 0
M  V30 6688 O 618.008 -5.6809 0.512828 0
M  V30 6689 O 616.942 -5.50071 2.44347 0
M  V30 6690 H 620.768 -2.21378 2.07907 0
M  V30 6691 H 618.353 -1.04299 1.06968 0
M  V30 6692 H 620.235 -4.17097 0.600668 0
M  V30 6693 H 618.91 -3.23387 -0.142291 0
M  V30 6694 H 617.817 -3.049 2.16764 0
M  V30 6695 H 619.15 -4.02292 2.83588 0
M  V30 6696 N 620.802 -1.09834 -1.13024 0
M  V30 6697 C 622.213 -0.855651 -1.65938 0
M  V30 6698 C 622.564 0.615159 -1.86307 0
M  V30 6699 O 621.689 1.47335 -1.58497 0
M  V30 6700 C 622.284 -1.5467 -3.01434 0
M  V30 6701 C 620.843 -1.35088 -3.51323 0
M  V30 6702 C 619.99 -1.6001 -2.26478 0
M  V30 6703 H 622.941 -1.25691 -0.968889 0
M  V30 6704 H 622.962 -0.982179 -3.67605 0
M  V30 6705 H 622.474 -2.61715 -2.86578 0
M  V30 6706 H 620.575 -0.30179 -3.71376 0
M  V30 6707 H 620.688 -2.0886 -4.31178 0
M  V30 6708 H 619.052 -1.02246 -2.33276 0
M  V30 6709 H 619.835 -2.68293 -2.14182 0
M  V30 6710 N 622.28 1.30327 -0.886154 0
M  V30 6711 C 623.505 2.0079 -0.519425 0
M  V30 6712 C 623.93 1.65979 0.885013 0
M  V30 6713 O 623.288 0.877043 1.58675 0
M  V30 6714 C 623.336 3.53686 -0.702758 0
M  V30 6715 O 622.44 4.11637 0.250828 0
M  V30 6716 H 621.781 0.63171 -0.204544 0
M  V30 6717 H 624.311 1.66145 -1.19402 0
M  V30 6718 H 624.321 4.03531 -0.602207 0
M  V30 6719 H 622.996 3.78361 -1.72673 0
M  V30 6720 H 621.573 3.72755 0.103873 0
M  V30 6721 N 623.758 0.647228 1.43697 0
M  V30 6722 C 624.721 -0.0385101 2.29168 0
M  V30 6723 C 625.721 -0.756487 1.41894 0
M  V30 6724 O 626.911 -0.598641 1.63591 0
M  V30 6725 C 624.043 -1.06524 3.23829 0
M  V30 6726 H 625.236 0.713445 2.9129 0
M  V30 6727 H 622.789 0.408153 1.50877 0
M  V30 6728 H 623.524 -1.84664 2.66589 0
M  V30 6729 H 623.309 -0.554147 3.88164 0
M  V30 6730 H 624.799 -1.54432 3.87996 0
M  V30 6731 N 625.236 -1.5273 0.388769 0
M  V30 6732 C 626.168 -2.24081 -0.481704 0
M  V30 6733 C 627.181 -1.26307 -1.02715 0
M  V30 6734 O 628.37 -1.52386 -0.929565 0
M  V30 6735 C 625.47 -2.94315 -1.68024 0
M  V30 6736 C 624.643 -4.18791 -1.26226 0
M  V30 6737 C 623.702 -4.72028 -2.32542 0
M  V30 6738 O 622.728 -5.35129 -1.93972 0
M  V30 6739 N 623.93 -4.51838 -3.64448 0
M  V30 6740 H 626.695 -2.9942 0.129591 0
M  V30 6741 H 624.256 -1.60465 0.2151 0
M  V30 6742 H 626.248 -3.26831 -2.38671 0
M  V30 6743 H 624.818 -2.22287 -2.19789 0
M  V30 6744 H 624.038 -3.92318 -0.384703 0
M  V30 6745 H 625.326 -4.99668 -0.959647 0
M  V30 6746 H 624.724 -4.01468 -3.98547 0
M  V30 6747 H 623.281 -4.88845 -4.31131 0
M  V30 6748 N 626.714 -0.118576 -1.57153 0
M  V30 6749 C 627.646 0.862247 -2.12363 0
M  V30 6750 C 628.659 1.23025 -1.06625 0
M  V30 6751 O 629.848 1.17927 -1.33998 0
M  V30 6752 C 626.948 2.16425 -2.60794 0
M  V30 6753 C 626.121 1.96801 -3.90626 0
M  V30 6754 C 625.18 3.10726 -4.2466 0
M  V30 6755 O 624.206 2.83659 -4.93484 0
M  V30 6756 N 625.408 4.37147 -3.81946 0
M  V30 6757 H 628.173 0.390564 -2.97144 0
M  V30 6758 H 625.734 0.0658591 -1.61766 0
M  V30 6759 H 627.726 2.91633 -2.80593 0
M  V30 6760 H 626.296 2.54943 -1.80895 0
M  V30 6761 H 625.516 1.05787 -3.7974 0
M  V30 6762 H 626.804 1.80993 -4.7552 0
M  V30 6763 H 626.202 4.62014 -3.26435 0
M  V30 6764 H 624.759 5.09229 -4.06853 0
M  V30 6765 N 628.193 1.56834 0.155195 0
M  V30 6766 C 629.123 2.00678 1.19376 0
M  V30 6767 C 630.104 0.884973 1.45266 0
M  V30 6768 O 631.289 1.1522 1.56326 0
M  V30 6769 C 628.419 2.38042 2.5289 0
M  V30 6770 C 627.373 3.53332 2.41538 0
M  V30 6771 C 626.699 3.76485 3.79688 0
M  V30 6772 C 627.999 4.86265 1.9064 0
M  V30 6773 H 629.693 2.87688 0.829232 0
M  V30 6774 H 627.239 1.38407 0.397445 0
M  V30 6775 H 629.192 2.67314 3.25763 0
M  V30 6776 H 627.916 1.4796 2.91162 0
M  V30 6777 H 626.575 3.24213 1.71117 0
M  V30 6778 H 626.223 2.83667 4.15382 0
M  V30 6779 H 625.923 4.54068 3.72956 0
M  V30 6780 H 627.447 4.08174 4.54122 0
M  V30 6781 H 628.861 5.14308 2.53299 0
M  V30 6782 H 627.258 5.67597 1.94818 0
M  V30 6783 H 628.328 4.77184 0.861596 0
M  V30 6784 N 629.671 -0.424282 1.51781 0
M  V30 6785 C 631.087 -0.761768 1.40247 0
M  V30 6786 C 631.287 -1.95324 0.495041 0
M  V30 6787 O 630.343 -2.5246 -0.0448949 0
M  V30 6788 C 631.656 -1.0299 2.82513 0
M  V30 6789 C 633.204 -1.13354 2.91753 0
M  V30 6790 C 633.679 -1.43453 4.34954 0
M  V30 6791 N 635.17 -1.5035 4.3812 0
M  V30 6792 C 635.905 -1.75236 5.45967 0
M  V30 6793 N 635.401 -1.97827 6.63955 0
M  V30 6794 N 637.194 -1.77126 5.33463 0
M  V30 6795 H 629.345 0.360228 2.09323 0
M  V30 6796 H 631.608 0.0988128 0.942836 0
M  V30 6797 H 631.314 -0.226961 3.50967 0
M  V30 6798 H 631.188 -1.95411 3.22637 0
M  V30 6799 H 633.575 -1.92709 2.23489 0
M  V30 6800 H 633.656 -0.188041 2.55108 0
M  V30 6801 H 633.3 -0.646209 5.03772 0
M  V30 6802 H 633.23 -2.3923 4.69123 0
M  V30 6803 H 635.721 -1.34742 3.53062 0
M  V30 6804 H 636.034 -2.16223 7.41935 0
M  V30 6805 H 634.379 -1.95123 6.67047 0
M  V30 6806 H 637.57 -1.59005 4.40267 0
M  V30 6807 H 637.743 -1.96182 6.17589 0
M  V30 6808 N 631.149 -1.42148 -0.680565 0
M  V30 6809 C 632.059 -1.47565 -1.82378 0
M  V30 6810 C 633.075 -0.36489 -1.70131 0
M  V30 6811 O 634.251 -0.614916 -1.91783 0
M  V30 6812 C 631.316 -1.37013 -3.18478 0
M  V30 6813 C 630.377 -2.58532 -3.42724 0
M  V30 6814 C 629.61 -2.48473 -4.72331 0
M  V30 6815 O 629.833 -1.51745 -5.49845 0
M  V30 6816 O 628.767 -3.38503 -4.97694 0
M  V30 6817 H 632.593 -2.44045 -1.80764 0
M  V30 6818 H 630.178 -1.23849 -0.835569 0
M  V30 6819 H 632.06 -1.33468 -3.99705 0
M  V30 6820 H 630.735 -0.436552 -3.20743 0
M  V30 6821 H 629.642 -2.67652 -2.61368 0
M  V30 6822 H 630.975 -3.50769 -3.45286 0
M  V30 6823 N 632.627 0.916307 -1.28225 0
M  V30 6824 C 633.876 1.65975 -1.14608 0
M  V30 6825 C 634.189 1.93204 0.305191 0
M  V30 6826 O 635.395 2.65611 0.562432 0
M  V30 6827 C 633.851 2.98989 -2.00333 0
M  V30 6828 C 633.459 2.79417 -3.50186 0
M  V30 6829 C 635.203 3.76856 -1.95397 0
M  V30 6830 C 633.11 4.08056 -4.28071 0
M  V30 6831 H 632.04 0.622587 -0.425324 0
M  V30 6832 H 634.691 1.01705 -1.52736 0
M  V30 6833 H 633.073 3.6438 -1.5506 0
M  V30 6834 H 634.247 2.22723 -4.034 0
M  V30 6835 H 632.562 2.14966 -3.56621 0
M  V30 6836 H 635.159 4.72203 -2.50856 0
M  V30 6837 H 635.502 4.05776 -0.930137 0
M  V30 6838 H 636.035 3.1828 -2.38626 0
M  V30 6839 H 632.774 3.8431 -5.31024 0
M  V30 6840 H 632.294 4.64371 -3.79631 0
M  V30 6841 H 633.973 4.76333 -4.37854 0
M  V30 6842 N 634.105 1.10431 1.1244 0
M  V30 6843 C 635.352 0.846717 1.83948 0
M  V30 6844 C 635.68 -0.627709 1.84093 0
M  V30 6845 O 634.935 -1.47876 1.28184 0
M  V30 6846 C 635.234 1.34022 3.3132 0
M  V30 6847 C 634.9 2.82606 3.51347 0
M  V30 6848 C 633.562 3.23182 3.56521 0
M  V30 6849 C 635.914 3.78356 3.58464 0
M  V30 6850 C 633.242 4.58258 3.66356 0
M  V30 6851 C 635.594 5.13234 3.69829 0
M  V30 6852 C 634.258 5.53384 3.73259 0
M  V30 6853 H 633.528 0.309836 0.673114 0
M  V30 6854 H 636.175 1.38091 1.32677 0
M  V30 6855 H 634.48 0.726047 3.85014 0
M  V30 6856 H 636.177 1.11739 3.85118 0
M  V30 6857 H 632.767 2.50212 3.47983 0
M  V30 6858 H 636.951 3.48115 3.53737 0
M  V30 6859 H 632.207 4.88787 3.67284 0
M  V30 6860 H 636.381 5.87272 3.74279 0
M  V30 6861 H 634.008 6.58045 3.80633 0
M  V30 6862 N 635.583 -1.29855 0.893053 0
M  V30 6863 C 636.531 -2.29867 0.355512 0
M  V30 6864 C 637.525 -1.60502 -0.541801 0
M  V30 6865 O 638.731 -1.74902 -0.425339 0
M  V30 6866 H 635.106 -0.745805 0.0963247 0
M  V30 6867 H 637.077 -2.72655 1.21252 0
M  V30 6868 C 635.826 -3.453 -0.407801 0
M  V30 6869 H 635.149 -3.98864 0.273426 0
M  V30 6870 H 636.589 -4.17334 -0.748887 0
M  V30 6871 C 635.048 -2.96051 -1.60795 0
M  V30 6872 O 635.578 -2.96763 -2.7073 0
M  V30 6873 N 633.784 -2.51963 -1.44786 0
M  V30 6874 H 633.331 -2.51583 -0.553498 0
M  V30 6875 H 633.289 -2.1937 -2.2522 0
M  V30 6876 N 637.061 -0.65484 -1.43351 0
M  V30 6877 C 637.994 0.0855537 -2.2804 0
M  V30 6878 C 638.972 0.828301 -1.39921 0
M  V30 6879 O 640.156 0.827539 -1.69364 0
M  V30 6880 C 637.283 1.12792 -3.19368 0
M  V30 6881 C 636.329 0.483037 -4.23756 0
M  V30 6882 S 637.162 -0.744605 -5.30298 0
M  V30 6883 C 638.318 0.297187 -6.25194 0
M  V30 6884 H 638.551 -0.632831 -2.90487 0
M  V30 6885 H 636.084 -0.44373 -1.47886 0
M  V30 6886 H 638.042 1.7243 -3.72529 0
M  V30 6887 H 636.703 1.81863 -2.56095 0
M  V30 6888 H 635.896 1.26888 -4.87766 0
M  V30 6889 H 635.498 -0.0392713 -3.73979 0
M  V30 6890 H 637.79 1.1629 -6.67445 0
M  V30 6891 H 638.733 -0.30793 -7.0743 0
M  V30 6892 H 639.141 0.633721 -5.60932 0
M  V30 6893 N 638.539 1.52521 -0.396863 0
M  V30 6894 C 639.502 2.2527 0.422604 0
M  V30 6895 C 640.502 1.27184 0.983913 0
M  V30 6896 O 641.692 1.51222 0.864723 0
M  V30 6897 C 638.824 3.01356 1.59365 0
M  V30 6898 H 640.017 2.99133 -0.214416 0
M  V30 6899 H 637.57 1.55587 -0.149128 0
M  V30 6900 H 638.305 2.31813 2.26789 0
M  V30 6901 H 638.09 3.73357 1.19779 0
M  V30 6902 H 639.58 3.56571 2.17363 0
M  V30 6903 N 640.017 0.126909 1.57088 0
M  V30 6904 C 641.433 -0.229641 1.57939 0
M  V30 6905 C 641.633 -1.66145 1.1401 0
M  V30 6906 O 640.689 -2.3843 0.831119 0
M  V30 6907 C 642.002 0.0108648 3.00698 0
M  V30 6908 C 643.55 -0.054418 3.12953 0
M  V30 6909 C 644.025 0.158497 4.57726 0
M  V30 6910 N 645.516 0.104735 4.63082 0
M  V30 6911 C 646.251 0.24427 5.72879 0
M  V30 6912 N 645.747 0.440415 6.91399 0
M  V30 6913 N 647.54 0.183286 5.61801 0
M  V30 6914 H 639.691 1.06203 1.83942 0
M  V30 6915 H 641.954 0.418834 0.85046 0
M  V30 6916 H 641.66 1.00102 3.37154 0
M  V30 6917 H 641.534 -0.717512 3.70313 0
M  V30 6918 H 643.921 -1.0351 2.7635 0
M  V30 6919 H 644.002 0.705967 2.45865 0
M  V30 6920 H 643.646 1.13619 4.95028 0
M  V30 6921 H 643.576 -0.62197 5.22914 0
M  V30 6922 H 646.067 -0.0430298 3.77876 0
M  V30 6923 H 646.38 0.537536 7.70928 0
M  V30 6924 H 644.725 0.476488 6.93365 0
M  V30 6925 H 647.916 0.0309561 4.6809 0
M  V30 6926 H 648.089 0.295471 6.47326 0
M  V30 6927 N 641.495 -1.56914 -0.146875 0
M  V30 6928 C 642.772 -1.74273 -0.888165 0
M  V30 6929 C 643.152 -0.69496 -1.99333 0
M  V30 6930 O 642.5 0.286093 -2.26702 0
M  V30 6931 C 642.71 -3.18336 -1.43051 0
M  V30 6932 C 644.058 -3.80024 -1.89387 0
M  V30 6933 O 645.082 -3.21765 -1.52792 0
M  V30 6934 O 643.941 -4.82367 -2.56874 0
M  V30 6935 H 641.035 -0.712565 -0.419738 0
M  V30 6936 H 643.581 -1.6918 -0.132791 0
M  V30 6937 H 642.353 -3.86092 -0.636274 0
M  V30 6938 H 641.976 -3.27854 -2.24938 0
M  V30 6939 N 642.974 0.416227 -1.52004 0
M  V30 6940 C 643.906 1.52552 -1.71058 0
M  V30 6941 C 644.919 1.51693 -0.59102 0
M  V30 6942 O 646.108 1.56087 -0.865973 0
M  V30 6943 C 643.208 2.91455 -1.72937 0
M  V30 6944 C 642.381 3.16584 -3.01816 0
M  V30 6945 C 641.44 4.35322 -2.95603 0
M  V30 6946 O 640.466 4.32947 -3.6952 0
M  V30 6947 N 641.668 5.40049 -2.12903 0
M  V30 6948 H 644.433 1.36604 -2.66757 0
M  V30 6949 H 641.994 0.60544 -1.50153 0
M  V30 6950 H 643.986 3.68944 -1.66321 0
M  V30 6951 H 642.556 3.00895 -0.847418 0
M  V30 6952 H 641.776 2.27203 -3.22137 0
M  V30 6953 H 643.064 3.30213 -3.87088 0
M  V30 6954 H 642.462 5.44823 -1.52265 0
M  V30 6955 H 641.019 6.16308 -2.1215 0
M  V30 6956 N 644.452 1.42507 0.673017 0
M  V30 6957 C 645.868 1.25472 0.986355 0
M  V30 6958 C 646.068 0.160181 2.00862 0
M  V30 6959 O 645.124 -0.467993 2.48125 0
M  V30 6960 C 646.437 2.61219 1.48947 0
M  V30 6961 C 647.985 2.68589 1.60715 0
M  V30 6962 C 648.46 4.04707 2.14422 0
M  V30 6963 N 649.951 4.0667 2.21752 0
M  V30 6964 C 650.686 5.0881 2.64386 0
M  V30 6965 N 650.182 6.21332 3.0646 0
M  V30 6966 N 651.975 4.96166 2.64151 0
M  V30 6967 H 644.126 2.124 -0.00378532 0
M  V30 6968 H 646.389 0.946046 0.0608367 0
M  V30 6969 H 646.095 3.42179 0.812812 0
M  V30 6970 H 645.969 2.85261 2.46791 0
M  V30 6971 H 648.356 1.87974 2.27486 0
M  V30 6972 H 648.437 2.48333 0.613552 0
M  V30 6973 H 648.081 4.8578 1.48258 0
M  V30 6974 H 648.011 4.22315 3.14575 0
M  V30 6975 H 650.502 3.25438 1.92089 0
M  V30 6976 H 650.815 6.95118 3.37684 0
M  V30 6977 H 649.16 6.24835 3.04313 0
M  V30 6978 H 652.351 4.07334 2.30644 0
M  V30 6979 H 652.524 5.759 2.97057 0
M  V30 6980 N 645.93 -0.909495 1.28709 0
M  V30 6981 C 647.155 -1.69801 1.1909 0
M  V30 6982 C 647.58 -1.86479 -0.246388 0
M  V30 6983 O 646.938 -1.37802 -1.17815 0
M  V30 6984 C 646.986 -3.06543 1.89904 0
M  V30 6985 O 646.09 -3.94268 1.2094 0
M  V30 6986 H 645.431 -0.519783 0.413185 0
M  V30 6987 H 647.961 -1.13689 1.70106 0
M  V30 6988 H 647.971 -3.56748 1.97977 0
M  V30 6989 H 646.646 -2.93722 2.94449 0
M  V30 6990 H 645.223 -3.52702 1.2106 0
M  V30 6991 N 647.408 -1.11026 -1.11852 0
M  V30 6992 C 648.824 -0.843294 -1.35502 0
M  V30 6993 C 649.024 0.534179 -1.9429 0
M  V30 6994 O 648.08 1.28585 -2.17307 0
M  V30 6995 C 649.393 -1.94793 -2.29077 0
M  V30 6996 C 650.941 -1.97709 -2.42652 0
M  V30 6997 C 651.416 -3.07364 -3.39546 0
M  V30 6998 N 652.907 -3.0671 -3.47107 0
M  V30 6999 C 653.642 -3.88197 -4.22008 0
M  V30 7000 N 653.138 -4.79635 -4.99922 0
M  V30 7001 N 654.931 -3.76391 -4.17476 0
M  V30 7002 H 647.082 -1.99805 -0.720538 0
M  V30 7003 H 649.345 -0.868633 -0.379711 0
M  V30 7004 H 649.051 -2.93971 -1.93065 0
M  V30 7005 H 648.925 -1.84039 -3.29256 0
M  V30 7006 H 651.312 -0.991604 -2.77941 0
M  V30 7007 H 651.393 -2.1254 -1.4234 0
M  V30 7008 H 651.037 -4.06136 -3.04985 0
M  V30 7009 H 650.967 -2.89774 -4.39703 0
M  V30 7010 H 653.458 -2.40457 -2.91528 0
M  V30 7011 H 653.771 -5.38357 -5.54429 0
M  V30 7012 H 652.116 -4.8366 -4.99097 0
M  V30 7013 H 655.307 -3.04303 -3.55693 0
M  V30 7014 H 655.48 -4.40131 -4.75593 0
M  V30 7015 N 648.886 1.2938 -0.899927 0
M  V30 7016 C 649.849 2.25983 -0.382677 0
M  V30 7017 C 650.849 1.53366 0.483259 0
M  V30 7018 O 652.039 1.71798 0.28828 0
M  V30 7019 C 649.171 3.37878 0.452915 0
M  V30 7020 H 650.364 2.73252 -1.23586 0
M  V30 7021 H 647.917 1.40825 -0.678088 0
M  V30 7022 H 648.652 2.95949 1.32608 0
M  V30 7023 H 648.437 3.91742 -0.167562 0
M  V30 7024 H 649.927 4.09746 0.806107 0
M  V30 7025 N 650.364 0.662433 1.43002 0
M  V30 7026 C 651.592 0.187615 2.06048 0
M  V30 7027 C 652.007 -1.15039 1.49705 0
M  V30 7028 O 651.364 -1.71209 0.631956 0
M  V30 7029 C 651.415 0.100498 3.6136 0
M  V30 7030 O 651.136 1.38562 4.15611 0
M  V30 7031 C 652.637 -0.399298 4.41498 0
M  V30 7032 H 649.857 0.0941675 0.664359 0
M  V30 7033 H 652.401 0.905681 1.83351 0
M  V30 7034 H 650.556 -0.568181 3.83211 0
M  V30 7035 H 650.97 1.25084 5.09366 0
M  V30 7036 H 652.444 -0.409187 5.50481 0
M  V30 7037 H 652.921 -1.43232 4.15188 0
M  V30 7038 H 653.527 0.23721 4.24638 0
M  V30 7039 N 651.842 -1.52309 0.404946 0
M  V30 7040 C 652.772 -2.29805 -0.41376 0
M  V30 7041 C 653.753 -1.3384 -1.0498 0
M  V30 7042 O 654.938 -1.62745 -1.05961 0
M  V30 7043 C 652.068 -3.11639 -1.53292 0
M  V30 7044 C 651.022 -4.15616 -1.02211 0
M  V30 7045 C 650.348 -4.8577 -2.23455 0
M  V30 7046 C 651.648 -5.2224 -0.0790725 0
M  V30 7047 H 653.342 -2.98493 0.232878 0
M  V30 7048 H 650.888 -1.43552 0.113441 0
M  V30 7049 H 652.841 -3.64618 -2.11262 0
M  V30 7050 H 651.565 -2.40712 -2.20738 0
M  V30 7051 H 650.224 -3.63641 -0.46484 0
M  V30 7052 H 649.872 -4.11376 -2.89445 0
M  V30 7053 H 649.572 -5.56058 -1.89929 0
M  V30 7054 H 651.096 -5.4156 -2.82038 0
M  V30 7055 H 652.51 -5.70485 -0.567438 0
M  V30 7056 H 650.907 -5.99867 0.167167 0
M  V30 7057 H 651.977 -4.77078 0.867447 0
M  V30 7058 N 653.32 -0.135238 -1.57019 0
M  V30 7059 C 654.55 0.525303 -1.9981 0
M  V30 7060 C 654.958 1.59724 -1.01415 0
M  V30 7061 O 654.301 1.837 -0.00130938 0
M  V30 7062 C 654.363 1.19578 -3.3903 0
M  V30 7063 C 654.027 0.269855 -4.56203 0
M  V30 7064 C 655.024 -0.497905 -5.1751 0
M  V30 7065 C 652.709 0.176188 -5.01991 0
M  V30 7066 C 654.703 -1.3469 -6.23007 0
M  V30 7067 C 652.39 -0.676422 -6.07345 0
M  V30 7068 C 653.388 -1.43658 -6.67721 0
M  V30 7069 O 653.076 -2.27501 -7.71037 0
M  V30 7070 H 652.808 0.142296 -0.660854 0
M  V30 7071 H 655.362 -0.223272 -2.04183 0
M  V30 7072 H 653.592 1.99176 -3.3146 0
M  V30 7073 H 655.281 1.75486 -3.66005 0
M  V30 7074 H 656.047 -0.435507 -4.83041 0
M  V30 7075 H 651.926 0.757583 -4.54733 0
M  V30 7076 H 655.47 -1.9407 -6.70062 0
M  V30 7077 H 651.367 -0.740154 -6.41243 0
M  V30 7078 H 652.135 -2.20619 -7.88206 0
M  V30 7079 N 654.798 1.5699 0.138552 0
M  V30 7080 C 655.761 1.97984 1.15478 0
M  V30 7081 C 656.761 0.867416 1.35398 0
M  V30 7082 O 657.951 1.13387 1.32246 0
M  V30 7083 C 655.083 2.3031 2.51337 0
M  V30 7084 H 656.276 2.88953 0.802896 0
M  V30 7085 H 653.829 1.51555 0.382189 0
M  V30 7086 H 654.564 1.42159 2.91481 0
M  V30 7087 H 654.349 3.11425 2.38237 0
M  V30 7088 H 655.839 2.62834 3.24512 0
M  V30 7089 N 656.276 -0.40816 1.52223 0
M  V30 7090 C 657.206 -1.5042 1.78595 0
M  V30 7091 C 658.187 -1.57723 0.636974 0
M  V30 7092 O 659.372 -1.72982 0.882664 0
M  V30 7093 C 656.502 -2.88232 1.93751 0
M  V30 7094 C 655.456 -2.95779 3.09352 0
M  V30 7095 C 654.782 -4.35855 3.09732 0
M  V30 7096 C 656.082 -2.67175 4.48793 0
M  V30 7097 H 657.776 -1.28601 2.70374 0
M  V30 7098 H 655.322 -0.617221 1.30101 0
M  V30 7099 H 657.275 -3.64895 2.10783 0
M  V30 7100 H 655.999 -3.11347 0.986443 0
M  V30 7101 H 654.658 -2.21561 2.92072 0
M  V30 7102 H 654.306 -4.55981 2.12346 0
M  V30 7103 H 654.006 -4.41829 3.87377 0
M  V30 7104 H 655.53 -5.14451 3.28895 0
M  V30 7105 H 656.944 -3.3356 4.66273 0
M  V30 7106 H 655.341 -2.84523 5.28362 0
M  V30 7107 H 656.411 -1.62609 4.56822 0
M  V30 7108 N 657.755 -1.42862 -0.66545 0
M  V30 7109 C 658.98 -1.47456 -1.45848 0
M  V30 7110 C 659.405 -0.0900312 -1.87884 0
M  V30 7111 O 658.763 0.913587 -1.56599 0
M  V30 7112 C 658.811 -2.41514 -2.67774 0
M  V30 7113 O 657.915 -1.89296 -3.66389 0
M  V30 7114 H 657.256 -0.499236 -0.437789 0
M  V30 7115 H 659.786 -1.8765 -0.815394 0
M  V30 7116 H 659.796 -2.58409 -3.15735 0
M  V30 7117 H 658.471 -3.42099 -2.36519 0
M  V30 7118 H 657.048 -1.82003 -3.25468 0
M  V30 7119 N 659.233 0.902656 -1.29189 0
M  V30 7120 C 660.183 1.99326 -1.10695 0
M  V30 7121 C 661.167 1.60877 -0.0272521 0
M  V30 7122 O 662.359 1.75245 -0.248635 0
M  V30 7123 C 659.488 3.34265 -0.78244 0
M  V30 7124 C 658.574 3.79081 -1.90153 0
M  V30 7125 N 658.965 3.96162 -3.14466 0
M  V30 7126 C 657.263 4.08333 -1.79389 0
M  V30 7127 C 657.964 4.3388 -3.87458 0
M  V30 7128 N 656.94 4.42759 -3.15381 0
M  V30 7129 H 660.742 2.10597 -2.05003 0
M  V30 7130 H 658.256 1.09127 -1.20271 0
M  V30 7131 H 660.253 4.12097 -0.630996 0
M  V30 7132 H 658.913 3.2434 0.152754 0
M  V30 7133 H 659.924 3.81775 -3.49954 0
M  V30 7134 H 656.601 4.06982 -0.931217 0
M  V30 7135 H 657.991 4.54965 -4.94425 0
M  V30 7136 N 660.711 1.11618 1.11262 0
M  V30 7137 C 661.674 0.779447 2.15539 0
M  V30 7138 C 662.674 -0.202081 1.59525 0
M  V30 7139 O 663.864 0.0226356 1.74185 0
M  V30 7140 C 660.996 0.15674 3.40539 0
M  V30 7141 H 662.189 1.70324 2.4684 0
M  V30 7142 H 659.742 0.918298 1.26479 0
M  V30 7143 H 660.477 -0.777186 3.1485 0
M  V30 7144 H 660.262 0.863308 3.82478 0
M  V30 7145 H 661.752 -0.062661 4.17553 0
M  V30 7146 N 662.189 -1.289 0.906776 0
M  V30 7147 C 663.435 -1.95558 0.53712 0
M  V30 7148 C 663.768 -1.71262 -0.915582 0
M  V30 7149 O 663.043 -1.02961 -1.65013 0
M  V30 7150 C 663.326 -3.50198 0.838645 0
M  V30 7151 C 663.179 -3.83923 2.34357 0
M  V30 7152 C 664.498 -4.38861 0.329988 0
M  V30 7153 H 661.617 -0.710289 0.196617 0
M  V30 7154 H 664.259 -1.52392 1.13475 0
M  V30 7155 H 662.409 -3.87096 0.330024 0
M  V30 7156 H 664.081 -3.56933 2.92227 0
M  V30 7157 H 662.324 -3.31215 2.80141 0
M  V30 7158 H 662.995 -4.91883 2.5051 0
M  V30 7159 H 665.471 -4.08996 0.765609 0
M  V30 7160 H 664.347 -5.45931 0.570105 0
M  V30 7161 H 664.608 -4.35352 -0.769511 0
M  V30 7162 N 663.667 -0.670007 -1.42649 0
M  V30 7163 C 664.615 0.0230106 -2.32589 0
M  V30 7164 C 665.609 0.795585 -1.49555 0
M  V30 7165 O 666.815 0.70409 -1.65658 0
M  V30 7166 H 663.19 0.0262342 -0.751542 0
M  V30 7167 H 665.161 -0.753009 -2.88743 0
M  V30 7168 C 663.91 0.963872 -3.34073 0
M  V30 7169 H 663.233 0.378813 -3.98001 0
M  V30 7170 H 664.673 1.41755 -3.99602 0
M  V30 7171 C 663.132 2.06797 -2.65964 0
M  V30 7172 O 663.662 3.15383 -2.48789 0
M  V30 7173 N 661.868 1.83831 -2.25066 0
M  V30 7174 H 661.415 0.955235 -2.39234 0
M  V30 7175 H 661.373 2.57895 -1.79827 0
M  V30 7176 N 665.145 1.52092 -0.413018 0
M  V30 7177 C 666.093 2.28681 0.425199 0
M  V30 7178 C 667.087 1.3353 1.04241 0
M  V30 7179 O 668.293 1.50973 0.980166 0
M  V30 7180 H 664.668 0.735661 0.155906 0
M  V30 7181 H 666.639 2.97418 -0.241926 0
M  V30 7182 C 665.388 3.1235 1.5275 0
M  V30 7183 H 664.711 3.85439 1.06191 0
M  V30 7184 H 666.151 3.69038 2.08774 0
M  V30 7185 C 664.61 2.26161 2.49706 0
M  V30 7186 O 665.14 1.90452 3.53682 0
M  V30 7187 N 663.346 1.89854 2.20008 0
M  V30 7188 H 662.893 2.19092 1.35486 0
M  V30 7189 H 662.851 1.3248 2.85125 0
M  V30 7190 N 666.623 0.143563 1.56945 0
M  V30 7191 C 667.853 -0.514699 2.00086 0
M  V30 7192 C 668.261 -1.59184 1.0226 0
M  V30 7193 O 667.604 -1.83697 0.0110514 0
M  V30 7194 C 667.666 -1.17778 3.39659 0
M  V30 7195 C 667.33 -0.245657 4.56339 0
M  V30 7196 C 668.327 0.525343 5.17239 0
M  V30 7197 C 666.012 -0.149564 5.02077 0
M  V30 7198 C 668.006 1.37992 6.22284 0
M  V30 7199 C 665.693 0.708621 6.06978 0
M  V30 7200 C 666.691 1.47197 6.6695 0
M  V30 7201 O 666.379 2.31586 7.6982 0
M  V30 7202 H 666.111 -0.138789 0.661599 0
M  V30 7203 H 668.665 0.234098 2.04062 0
M  V30 7204 H 666.895 -1.97415 3.32512 0
M  V30 7205 H 668.584 -1.73542 3.6693 0
M  V30 7206 H 669.35 0.461118 4.82803 0
M  V30 7207 H 665.229 -0.733457 4.55128 0
M  V30 7208 H 668.773 1.97621 6.69023 0
M  V30 7209 H 664.67 0.77415 6.40841 0
M  V30 7210 H 665.438 2.24796 7.87025 0
M  V30 7211 N 668.101 -1.57061 -0.130224 0
M  V30 7212 C 669.051 -1.95941 -1.16582 0
M  V30 7213 C 670.035 -0.832858 -1.37667 0
M  V30 7214 O 671.227 -1.09647 -1.38948 0
M  V30 7215 C 668.356 -2.35777 -2.49528 0
M  V30 7216 C 667.442 -3.5504 -2.31964 0
M  V30 7217 N 667.833 -4.71071 -1.84189 0
M  V30 7218 C 666.131 -3.60453 -2.62659 0
M  V30 7219 C 666.832 -5.53128 -1.80068 0
M  V30 7220 N 665.808 -4.95303 -2.24001 0
M  V30 7221 H 669.61 -2.83117 -0.788806 0
M  V30 7222 H 667.124 -1.58842 -0.3381 0
M  V30 7223 H 669.121 -2.61843 -3.24413 0
M  V30 7224 H 667.781 -1.49961 -2.87996 0
M  V30 7225 H 668.792 -4.94504 -1.53903 0
M  V30 7226 H 665.469 -2.85217 -3.0489 0
M  V30 7227 H 666.859 -6.56182 -1.4448 0
M  V30 7228 N 669.579 0.400081 -1.52437 0
M  V30 7229 C 670.526 1.48803 -1.76426 0
M  V30 7230 C 671.496 1.5461 -0.607032 0
M  V30 7231 O 672.681 1.71041 -0.845563 0
M  V30 7232 C 669.821 2.86156 -1.92896 0
M  V30 7233 C 668.934 2.89587 -3.20567 0
M  V30 7234 C 668.069 4.18296 -3.27417 0
M  V30 7235 C 667.108 4.15736 -4.49255 0
M  V30 7236 N 666.245 5.36032 -4.53447 0
M  V30 7237 H 671.085 1.27649 -2.69276 0
M  V30 7238 H 668.622 0.619451 -1.33421 0
M  V30 7239 H 670.58 3.65901 -2.00429 0
M  V30 7240 H 669.21 3.05785 -1.03418 0
M  V30 7241 H 668.262 2.02278 -3.22161 0
M  V30 7242 H 669.574 2.83562 -4.10358 0
M  V30 7243 H 668.728 5.06439 -3.34072 0
M  V30 7244 H 667.467 4.27028 -2.35581 0
M  V30 7245 H 666.472 3.25982 -4.42737 0
M  V30 7246 H 667.697 4.08636 -5.42396 0
M  V30 7247 H 665.643 5.45415 -3.64498 0
M  V30 7248 H 665.56 5.32038 -5.37096 0
M  V30 7249 H 666.828 6.26104 -4.64343 0
M  V30 7250 N 671.057 1.43213 0.657864 0
M  V30 7251 C 672.285 1.48015 1.44566 0
M  V30 7252 C 672.7 0.0965951 1.88553 0
M  V30 7253 O 672.057 -0.892221 1.59203 0
M  V30 7254 C 672.108 2.42199 2.68369 0
M  V30 7255 O 671.829 3.75173 2.26223 0
M  V30 7256 C 673.33 2.56195 3.61772 0
M  V30 7257 H 670.55 0.502861 0.444266 0
M  V30 7258 H 673.094 1.87907 0.806917 0
M  V30 7259 H 671.249 2.05514 3.28394 0
M  V30 7260 H 671.663 4.25776 3.06293 0
M  V30 7261 H 673.137 3.26182 4.4532 0
M  V30 7262 H 673.614 1.60534 4.0881 0
M  V30 7263 H 674.22 2.93671 3.07632 0
M  V30 7264 N 672.536 -0.895792 1.29666 0
M  V30 7265 C 673.484 -2.02173 1.15017 0
M  V30 7266 C 674.478 -1.69276 0.0647651 0
M  V30 7267 O 675.684 -1.7859 0.224846 0
M  V30 7268 H 672.059 -0.662719 0.355397 0
M  V30 7269 H 674.03 -2.11666 2.10334 0
M  V30 7270 C 672.779 -3.37212 0.847555 0
M  V30 7271 H 672.102 -3.6303 1.67479 0
M  V30 7272 H 673.542 -4.16668 0.785106 0
M  V30 7273 C 672.001 -3.33891 -0.44929 0
M  V30 7274 O 672.531 -3.73673 -1.47415 0
M  V30 7275 N 670.737 -2.86991 -0.456547 0
M  V30 7276 H 670.284 -2.54813 0.377925 0
M  V30 7277 H 670.242 -2.85152 -1.32423 0
M  V30 7278 N 674.014 -1.12206 -1.10668 0
M  V30 7279 C 675.425 -0.890657 -1.64086 0
M  V30 7280 C 675.776 0.575502 -1.8757 0
M  V30 7281 O 674.901 1.4394 -1.61587 0
M  V30 7282 C 675.496 -1.61029 -2.98085 0
M  V30 7283 C 674.055 -1.4251 -3.48379 0
M  V30 7284 C 673.202 -1.64778 -2.23033 0
M  V30 7285 H 676.153 -1.27718 -0.94201 0
M  V30 7286 H 676.174 -1.05993 -3.65439 0
M  V30 7287 H 675.686 -2.67735 -2.80962 0
M  V30 7288 H 673.787 -0.380497 -3.70652 0
M  V30 7289 H 673.9 -2.17959 -4.26651 0
M  V30 7290 H 672.264 -1.07171 -2.31055 0
M  V30 7291 H 673.047 -2.72776 -2.08443 0
M  V30 7292 N 675.492 1.28418 -0.913599 0
M  V30 7293 C 676.72 1.99106 -0.562536 0
M  V30 7294 C 677.135 1.68273 0.856137 0
M  V30 7295 O 676.492 0.935401 1.56705 0
M  V30 7296 C 676.543 3.5338 -0.761903 0
M  V30 7297 O 676.264 3.83127 -2.12475 0
M  V30 7298 C 677.765 4.41328 -0.417651 0
M  V30 7299 H 674.985 0.635798 -0.214481 0
M  V30 7300 H 677.529 1.63618 -1.22676 0
M  V30 7301 H 675.684 3.8713 -0.144676 0
M  V30 7302 H 676.098 4.77763 -2.16431 0
M  V30 7303 H 677.572 5.48642 -0.607919 0
M  V30 7304 H 678.049 4.34422 0.646108 0
M  V30 7305 H 678.655 4.13074 -1.01241 0
M  V30 7306 N 676.97 0.677563 1.42291 0
M  V30 7307 C 678.218 0.200578 2.01102 0
M  V30 7308 C 678.539 -1.19803 1.53858 0
M  V30 7309 O 677.809 -1.80496 0.761439 0
M  V30 7310 H 676.389 0.0711634 0.743603 0
M  V30 7311 H 679.051 0.874691 1.7417 0
M  V30 7312 H 678.147 0.204 3.11433 0
M  V30 7313 N 678.448 -1.51871 0.421078 0
M  V30 7314 C 679.676 -2.06356 -0.14994 0
M  V30 7315 C 680.091 -1.29006 -1.37851 0
M  V30 7316 O 679.448 -0.345139 -1.79207 0
M  V30 7317 C 679.499 -3.58185 -0.488454 0
M  V30 7318 O 679.22 -4.32611 0.691341 0
M  V30 7319 C 680.721 -4.29129 -1.11191 0
M  V30 7320 H 677.941 -0.67083 -0.0151186 0
M  V30 7321 H 680.485 -1.95638 0.595476 0
M  V30 7322 H 678.64 -3.68871 -1.18376 0
M  V30 7323 H 679.054 -5.22927 0.405906 0
M  V30 7324 H 680.528 -5.36501 -1.29889 0
M  V30 7325 H 681.005 -3.86371 -2.0884 0
M  V30 7326 H 681.611 -4.22843 -0.456458 0
M  V30 7327 N 679.926 -0.151884 -1.56866 0
M  V30 7328 C 680.858 0.817008 -2.14144 0
M  V30 7329 C 681.871 1.20735 -1.0921 0
M  V30 7330 O 683.06 1.15058 -1.36469 0
M  V30 7331 C 680.16 2.10844 -2.65326 0
M  V30 7332 C 679.333 1.88471 -3.94712 0
M  V30 7333 C 678.392 3.01649 -4.31155 0
M  V30 7334 O 677.418 2.73127 -4.9939 0
M  V30 7335 N 678.62 4.28947 -3.91132 0
M  V30 7336 H 681.385 0.327448 -2.97906 0
M  V30 7337 H 678.946 0.0315313 -1.61869 0
M  V30 7338 H 680.938 2.85616 -2.86715 0
M  V30 7339 H 679.508 2.51049 -1.86262 0
M  V30 7340 H 678.728 0.977088 -3.81899 0
M  V30 7341 H 680.016 1.70866 -4.79252 0
M  V30 7342 H 679.414 4.54986 -3.36161 0
M  V30 7343 H 677.971 5.00484 -4.17563 0
M  V30 7344 N 681.404 1.57128 0.121893 0
M  V30 7345 C 682.314 2.03425 1.16857 0
M  V30 7346 C 683.33 0.954108 1.45509 0
M  V30 7347 O 684.506 1.26541 1.56682 0
M  V30 7348 C 681.571 2.42685 2.47599 0
M  V30 7349 C 680.632 3.64767 2.2637 0
M  V30 7350 C 679.865 4.02145 3.50878 0
M  V30 7351 O 680.088 3.39897 4.58068 0
M  V30 7352 O 679.022 4.95262 3.42051 0
M  V30 7353 H 682.848 2.92825 0.80544 0
M  V30 7354 H 680.433 1.45654 0.332477 0
M  V30 7355 H 682.315 2.68684 3.24634 0
M  V30 7356 H 680.99 1.56432 2.83392 0
M  V30 7357 H 679.897 3.43922 1.47203 0
M  V30 7358 H 681.23 4.51716 1.95482 0
M  V30 7359 N 682.882 -0.391992 1.52647 0
M  V30 7360 C 683.812 -1.48517 1.8018 0
M  V30 7361 C 684.793 -1.57039 0.653667 0
M  V30 7362 O 685.978 -1.72036 0.900962 0
M  V30 7363 C 683.108 -2.86161 1.96797 0
M  V30 7364 C 682.062 -2.92481 3.12472 0
M  V30 7365 C 681.388 -4.32546 3.14338 0
M  V30 7366 C 682.688 -2.624 4.51601 0
M  V30 7367 H 684.382 -1.25726 2.71723 0
M  V30 7368 H 681.928 -0.603387 1.30749 0
M  V30 7369 H 683.881 -3.62639 2.14641 0
M  V30 7370 H 682.605 -3.10283 1.01941 0
M  V30 7371 H 681.264 -2.18451 2.94406 0
M  V30 7372 H 680.912 -4.53703 2.1717 0
M  V30 7373 H 680.612 -4.37695 3.92042 0
M  V30 7374 H 682.136 -5.10934 3.34333 0
M  V30 7375 H 683.55 -3.28596 4.69785 0
M  V30 7376 H 681.947 -2.78903 5.3135 0
M  V30 7377 H 683.017 -1.57754 4.58521 0
M  V30 7378 N 684.36 -1.4356 -0.65026 0
M  V30 7379 C 685.29 -1.51758 -1.77459 0
M  V30 7380 C 686.271 -0.372019 -1.65982 0
M  V30 7381 O 687.456 -0.589627 -1.85033 0
M  V30 7382 C 684.586 -1.44302 -3.15902 0
M  V30 7383 C 683.54 -2.57138 -3.42146 0
M  V30 7384 C 682.866 -2.34735 -4.8042 0
M  V30 7385 C 684.166 -3.99373 -3.36598 0
M  V30 7386 H 685.86 -2.45863 -1.70855 0
M  V30 7387 H 683.406 -1.18333 -0.820566 0
M  V30 7388 H 685.359 -1.48641 -3.94314 0
M  V30 7389 H 684.083 -0.467026 -3.23244 0
M  V30 7390 H 682.742 -2.52157 -2.66106 0
M  V30 7391 H 682.39 -1.35372 -4.84441 0
M  V30 7392 H 682.09 -3.10375 -4.9894 0
M  V30 7393 H 683.614 -2.40862 -5.61086 0
M  V30 7394 H 685.028 -4.05826 -4.04942 0
M  V30 7395 H 683.425 -4.75063 -3.66654 0
M  V30 7396 H 684.495 -4.243 -2.34729 0
M  V30 7397 N 685.838 0.888903 -1.30139 0
M  V30 7398 C 687.115 1.62145 -1.094 0
M  V30 7399 C 687.495 2.08041 0.358091 0
M  V30 7400 O 686.843 1.84438 1.34888 0
M  V30 7401 C 687.053 2.794 -2.09133 0
M  V30 7402 C 688.401 3.49826 -2.40638 0
M  V30 7403 O 689.425 2.89583 -2.07412 0
M  V30 7404 O 688.284 4.58457 -2.97455 0
M  V30 7405 H 685.378 0.712475 -0.41989 0
M  V30 7406 H 687.924 0.936023 -1.41551 0
M  V30 7407 H 686.696 2.42762 -3.06891 0
M  V30 7408 H 686.319 3.55643 -1.77776 0
M  V30 7409 N 687.317 1.12792 1.10072 0
M  V30 7410 C 688.566 0.880232 1.81479 0
M  V30 7411 C 688.879 -0.595575 1.86312 0
M  V30 7412 O 690.085 -0.959979 2.53962 0
M  V30 7413 C 688.541 1.52514 3.25987 0
M  V30 7414 C 688.149 3.036 3.29441 0
M  V30 7415 C 689.893 1.35788 4.02196 0
M  V30 7416 C 687.8 3.61007 4.68431 0
M  V30 7417 H 686.73 0.325654 0.680048 0
M  V30 7418 H 689.381 1.35485 1.23758 0
M  V30 7419 H 687.763 0.978188 3.83728 0
M  V30 7420 H 688.937 3.64819 2.81502 0
M  V30 7421 H 687.252 3.19765 2.66719 0
M  V30 7422 H 689.849 1.76096 5.0487 0
M  V30 7423 H 690.192 0.301972 4.15203 0
M  V30 7424 H 690.725 1.87426 3.50879 0
M  V30 7425 H 687.464 4.66375 4.60625 0
M  V30 7426 H 686.984 3.04564 5.16721 0
M  V30 7427 H 688.663 3.60289 5.37402 0
M  V30 7428 N 688.795 -1.27931 0.920396 0
M  V30 7429 C 689.758 -2.25345 0.41858 0
M  V30 7430 C 690.758 -1.54116 -0.458798 0
M  V30 7431 O 691.948 -1.72235 -0.260912 0
M  V30 7432 C 689.08 -3.38556 -0.399104 0
M  V30 7433 H 690.273 -2.71251 1.27918 0
M  V30 7434 H 687.826 -1.39728 0.700406 0
M  V30 7435 H 688.561 -2.98021 -1.27882 0
M  V30 7436 H 688.346 -3.91426 0.229863 0
M  V30 7437 H 689.836 -4.10976 -0.740817 0
M  V30 7438 N 690.273 -0.685099 -1.4193 0
M  V30 7439 C 691.221 -0.00165985 -2.326 0
M  V30 7440 C 692.215 0.779678 -1.50391 0
M  V30 7441 O 693.421 0.68648 -1.66395 0
M  V30 7442 H 689.796 0.0182616 -0.751778 0
M  V30 7443 H 691.767 -0.783592 -2.87928 0
M  V30 7444 C 690.516 0.928385 -3.35077 0
M  V30 7445 H 689.839 0.336578 -3.98381 0
M  V30 7446 H 691.279 1.37509 -4.01083 0
M  V30 7447 C 689.738 2.03964 -2.68142 0
M  V30 7448 O 690.268 3.12727 -2.5212 0
M  V30 7449 N 688.474 1.81433 -2.27003 0
M  V30 7450 H 688.021 0.929807 -2.40234 0
M  V30 7451 H 687.979 2.55973 -1.82552 0
M  V30 7452 N 691.751 1.51645 -0.429126 0
M  V30 7453 C 692.981 2.06133 0.138793 0
M  V30 7454 C 693.389 1.29735 1.37716 0
M  V30 7455 O 692.732 0.347955 1.80375 0
M  V30 7456 C 692.794 3.55504 0.534493 0
M  V30 7457 C 692.458 4.53098 -0.595917 0
M  V30 7458 C 693.455 4.98815 -1.46558 0
M  V30 7459 C 691.14 4.96296 -0.774309 0
M  V30 7460 C 693.134 5.86394 -2.4984 0
M  V30 7461 C 690.821 5.83667 -1.81042 0
M  V30 7462 C 691.819 6.28613 -2.67086 0
M  V30 7463 O 691.507 7.14251 -3.68919 0
M  V30 7464 H 691.239 0.675833 0.0150263 0
M  V30 7465 H 693.793 1.96301 -0.604584 0
M  V30 7466 H 692.023 3.63092 1.33045 0
M  V30 7467 H 693.712 3.92545 1.03262 0
M  V30 7468 H 694.478 4.66143 -1.33925 0
M  V30 7469 H 690.357 4.60859 -0.114178 0
M  V30 7470 H 693.901 6.21398 -3.17034 0
M  V30 7471 H 689.798 6.15753 -1.93698 0
M  V30 7472 H 690.566 7.3241 -3.65402 0
M  V30 7473 N 693.229 0.160201 1.56784 0
M  V30 7474 C 694.159 -0.770264 2.2043 0
M  V30 7475 C 695.14 -1.24736 1.15651 0
M  V30 7476 O 696.325 -1.30253 1.44041 0
M  V30 7477 C 693.455 -2.00427 2.83631 0
M  V30 7478 C 692.409 -1.66345 3.94352 0
M  V30 7479 C 691.735 -2.97119 4.4455 0
M  V30 7480 C 693.035 -0.899972 5.14488 0
M  V30 7481 H 694.729 -0.239783 2.98438 0
M  V30 7482 H 692.275 -0.113891 1.43549 0
M  V30 7483 H 694.228 -2.66012 3.26827 0
M  V30 7484 H 692.952 -2.5587 2.02973 0
M  V30 7485 H 691.611 -1.03133 3.51794 0
M  V30 7486 H 691.259 -3.5058 3.60698 0
M  V30 7487 H 690.959 -2.75073 5.19238 0
M  V30 7488 H 692.483 -3.63753 4.90425 0
M  V30 7489 H 693.897 -1.45818 5.54446 0
M  V30 7490 H 692.294 -0.778968 5.95023 0
M  V30 7491 H 693.364 0.105827 4.84785 0
M  V30 7492 N 694.707 -1.5719 -0.113559 0
M  V30 7493 C 695.64 -1.9595 -1.16957 0
M  V30 7494 C 696.618 -0.829951 -1.39823 0
M  V30 7495 O 697.802 -1.08861 -1.53888 0
M  V30 7496 C 694.929 -2.2604 -2.52237 0
M  V30 7497 C 693.975 -3.48571 -2.45765 0
M  V30 7498 S 694.808 -5.00962 -1.89203 0
M  V30 7499 C 695.964 -5.3421 -3.26145 0
M  V30 7500 H 696.197 -2.85214 -0.839069 0
M  V30 7501 H 693.73 -1.51036 -0.320529 0
M  V30 7502 H 695.688 -2.44054 -3.30073 0
M  V30 7503 H 694.349 -1.3738 -2.82463 0
M  V30 7504 H 693.542 -3.67008 -3.45429 0
M  V30 7505 H 693.144 -3.29972 -1.76053 0
M  V30 7506 H 695.436 -5.29725 -4.22371 0
M  V30 7507 H 696.379 -6.35398 -3.12529 0
M  V30 7508 H 696.787 -4.61681 -3.24825 0
M  V30 7509 N 696.185 0.383891 -1.52853 0
M  V30 7510 C 697.095 1.49343 -1.80925 0
M  V30 7511 C 698.111 1.59458 -0.696348 0
M  V30 7512 O 699.287 1.75698 -0.984481 0
M  V30 7513 C 696.352 2.84819 -1.97684 0
M  V30 7514 C 695.413 2.84382 -3.21598 0
M  V30 7515 C 694.646 4.13397 -3.37548 0
M  V30 7516 O 694.869 5.08619 -2.58192 0
M  V30 7517 O 693.803 4.20325 -4.30826 0
M  V30 7518 H 697.629 1.2855 -2.75152 0
M  V30 7519 H 695.214 0.572229 -1.38007 0
M  V30 7520 H 697.096 3.65125 -2.10385 0
M  V30 7521 H 695.771 3.05627 -1.06647 0
M  V30 7522 H 694.678 2.0284 -3.14336 0
M  V30 7523 H 696.011 2.68526 -4.12498 0
M  V30 7524 N 697.663 1.43903 0.642637 0
M  V30 7525 C 698.595 1.45857 1.768 0
M  V30 7526 C 699.608 0.353358 1.58919 0
M  V30 7527 O 700.797 0.618426 1.67445 0
M  V30 7528 C 697.897 1.26583 3.14372 0
M  V30 7529 C 697.07 2.50139 3.58817 0
M  V30 7530 C 696.129 2.25933 4.75227 0
M  V30 7531 O 695.155 2.99351 4.84125 0
M  V30 7532 N 696.357 1.28263 5.66153 0
M  V30 7533 H 699.122 2.42869 1.75598 0
M  V30 7534 H 696.683 1.39194 0.826832 0
M  V30 7535 H 698.675 1.08255 3.89953 0
M  V30 7536 H 697.245 0.37978 3.10284 0
M  V30 7537 H 696.465 2.83821 2.73568 0
M  V30 7538 H 697.753 3.32344 3.8526 0
M  V30 7539 H 697.151 0.676041 5.61646 0
M  V30 7540 H 695.708 1.15916 6.4141 0
M  V30 7541 N 699.141 -0.881989 1.30609 0
M  V30 7542 C 700.39 -1.62878 1.18969 0
M  V30 7543 C 700.703 -1.93946 -0.253859 0
M  V30 7544 O 701.909 -2.67008 -0.491813 0
M  V30 7545 C 700.365 -2.93573 2.0819 0
M  V30 7546 C 699.973 -2.70034 3.57471 0
M  V30 7547 C 701.717 -3.71543 2.0532 0
M  V30 7548 C 699.624 -3.96563 4.38739 0
M  V30 7549 H 698.554 -0.611092 0.441682 0
M  V30 7550 H 701.205 -0.976201 1.55379 0
M  V30 7551 H 699.587 -3.6014 1.64666 0
M  V30 7552 H 700.761 -2.11949 4.09163 0
M  V30 7553 H 699.076 -2.05435 3.62195 0
M  V30 7554 H 701.673 -4.65386 2.63288 0
M  V30 7555 H 702.016 -4.03167 1.03739 0
M  V30 7556 H 702.549 -3.11842 2.46981 0
M  V30 7557 H 699.288 -3.70095 5.41027 0
M  V30 7558 H 698.808 -4.54142 3.9181 0
M  V30 7559 H 700.487 -4.64557 4.50329 0
M  V30 7560 N 700.619 -1.13374 -1.09472 0
M  V30 7561 C 701.551 -0.768466 -2.15933 0
M  V30 7562 C 702.564 0.209585 -1.61445 0
M  V30 7563 O 703.753 -0.010539 -1.78497 0
M  V30 7564 C 700.853 -0.118266 -3.38694 0
M  V30 7565 C 700.026 -1.12829 -4.22597 0
M  V30 7566 C 699.085 -0.503875 -5.23782 0
M  V30 7567 O 698.111 -1.16374 -5.57177 0
M  V30 7568 N 699.313 0.724288 -5.75964 0
M  V30 7569 H 702.078 -1.68457 -2.47876 0
M  V30 7570 H 699.639 -1.02668 -1.25183 0
M  V30 7571 H 701.631 0.311698 -4.03498 0
M  V30 7572 H 700.201 0.700769 -3.04644 0
M  V30 7573 H 699.421 -1.73556 -3.53938 0
M  V30 7574 H 700.709 -1.81095 -4.75481 0
M  V30 7575 H 700.107 1.27918 -5.51048 0
M  V30 7576 H 698.664 1.09692 -6.42504 0
M  V30 7577 N 702.098 1.27442 -0.927168 0
M  V30 7578 C 703.375 1.89473 -0.485742 0
M  V30 7579 C 703.755 1.83922 1.03614 0
M  V30 7580 O 703.103 1.28409 1.89007 0
M  V30 7581 C 703.313 3.33417 -1.03123 0
M  V30 7582 C 704.661 4.10333 -1.0914 0
M  V30 7583 O 705.685 3.4243 -0.98082 0
M  V30 7584 O 704.544 5.31737 -1.26165 0
M  V30 7585 H 701.638 0.812124 -0.156154 0
M  V30 7586 H 704.184 1.35713 -1.01882 0
M  V30 7587 H 702.956 3.31747 -2.07508 0
M  V30 7588 H 702.579 3.94695 -0.479767 0
M  V30 7589 N 703.576 0.692616 1.41565 0
M  V30 7590 C 704.853 0.150496 1.9502 0
M  V30 7591 C 705.233 -1.33881 1.63215 0
M  V30 7592 O 704.581 -2.08378 0.937598 0
M  V30 7593 C 704.791 0.438636 3.46233 0
M  V30 7594 C 706.139 0.364777 4.2303 0
M  V30 7595 O 707.163 0.373383 3.54238 0
M  V30 7596 O 706.022 0.32234 5.45549 0
M  V30 7597 H 703.116 0.0132454 0.826894 0
M  V30 7598 H 705.662 0.768574 1.51298 0
M  V30 7599 H 704.434 1.46962 3.62654 0
M  V30 7600 H 704.057 -0.210562 3.97042 0
M  V30 7601 N 705.054 -1.51416 0.437162 0
M  V30 7602 C 706.294 -2.03995 -0.128538 0
M  V30 7603 C 706.658 -1.31417 -1.39977 0
M  V30 7604 O 707.859 -1.74369 -2.0457 0
M  V30 7605 C 706.13 -3.55757 -0.342317 0
M  V30 7606 S 707.689 -4.3006 -0.871446 0
M  V30 7607 H 704.507 -0.710283 -0.0319322 0
M  V30 7608 H 707.109 -1.86177 0.596526 0
M  V30 7609 H 705.813 -4.06148 0.589233 0
M  V30 7610 H 705.344 -3.77869 -1.09447 0
M  V30 7611 H 707.359 -4.47248 -2.14903 0
M  V30 7612 N 706.532 -0.168513 -1.56696 0
M  V30 7613 C 707.76 0.483503 -2.01171 0
M  V30 7614 C 708.175 1.56994 -1.04872 0
M  V30 7615 O 707.532 1.82434 -0.0491337 0
M  V30 7616 C 707.583 1.0644 -3.45475 0
M  V30 7617 O 707.304 0.0213375 -4.38095 0
M  V30 7618 C 708.805 1.79493 -4.05336 0
M  V30 7619 H 706.025 0.124002 -0.659443 0
M  V30 7620 H 708.569 -0.269419 -2.02717 0
M  V30 7621 H 706.724 1.76784 -3.44712 0
M  V30 7622 H 707.138 0.449837 -5.22567 0
M  V30 7623 H 708.612 2.15401 -5.08238 0
M  V30 7624 H 709.089 2.68889 -3.47269 0
M  V30 7625 H 709.695 1.13798 -4.09793 0
M  V30 7626 N 708.01 1.57248 0.105221 0
M  V30 7627 C 709.258 1.85204 0.808951 0
M  V30 7628 C 709.579 0.75574 1.7976 0
M  V30 7629 O 708.849 -0.218984 1.94672 0
M  V30 7630 H 707.429 0.683346 0.301739 0
M  V30 7631 H 710.091 1.94695 0.0892605 0
M  V30 7632 H 709.187 2.81595 1.34575 0
M  V30 7633 N 709.488 -0.375779 1.53054 0
M  V30 7634 C 710.765 -1.13453 1.59336 0
M  V30 7635 C 711.145 -2.07379 0.394614 0
M  V30 7636 O 710.493 -2.2004 -0.616 0
M  V30 7637 C 710.703 -1.8826 2.93869 0
M  V30 7638 C 712.051 -2.43155 3.48081 0
M  V30 7639 O 713.075 -1.984 2.95831 0
M  V30 7640 O 711.934 -3.24944 4.39401 0
M  V30 7641 H 709.028 -0.519856 0.643179 0
M  V30 7642 H 711.574 -0.379865 1.65394 0
M  V30 7643 H 710.346 -1.19652 3.72558 0
M  V30 7644 H 709.969 -2.70658 2.91256 0
M  V30 7645 N 710.966 -1.44241 -0.634997 0
M  V30 7646 C 711.876 -1.53293 -1.77591 0
M  V30 7647 C 712.892 -0.418831 -1.68884 0
M  V30 7648 O 714.068 -0.675619 -1.8973 0
M  V30 7649 C 711.133 -1.47075 -3.13958 0
M  V30 7650 C 710.194 -2.69304 -3.34326 0
M  V30 7651 C 709.427 -2.63374 -4.64187 0
M  V30 7652 O 709.65 -1.69161 -5.44739 0
M  V30 7653 O 708.584 -3.54166 -4.86673 0
M  V30 7654 H 712.41 -2.49673 -1.72908 0
M  V30 7655 H 709.995 -1.26445 -0.795745 0
M  V30 7656 H 711.877 -1.46117 -3.95257 0
M  V30 7657 H 710.552 -0.538373 -3.19192 0
M  V30 7658 H 709.459 -2.75831 -2.52721 0
M  V30 7659 H 710.792 -3.61576 -3.33951 0
M  V30 7660 N 712.444 0.87505 -1.31075 0
M  V30 7661 C 713.721 1.60976 -1.11113 0
M  V30 7662 C 714.101 2.08409 0.336006 0
M  V30 7663 O 713.449 1.85858 1.32924 0
M  V30 7664 C 713.659 2.77166 -2.12085 0
M  V30 7665 C 715.007 3.47254 -2.44335 0
M  V30 7666 O 716.031 2.87367 -2.10472 0
M  V30 7667 O 714.89 4.55276 -3.02301 0
M  V30 7668 H 711.984 0.707982 -0.427424 0
M  V30 7669 H 714.53 0.920957 -1.42536 0
M  V30 7670 H 713.302 2.39494 -3.09449 0
M  V30 7671 H 712.925 3.53737 -1.81538 0
M  V30 7672 N 713.922 1.13953 1.08869 0
M  V30 7673 C 715.152 0.926825 1.84644 0
M  V30 7674 C 715.56 -0.527941 1.81685 0
M  V30 7675 O 714.903 -1.37742 1.21543 0
M  V30 7676 C 714.965 1.34416 3.33426 0
M  V30 7677 C 714.629 2.81351 3.60126 0
M  V30 7678 C 715.626 3.79486 3.55368 0
M  V30 7679 C 713.311 3.1865 3.88288 0
M  V30 7680 C 715.305 5.1293 3.78393 0
M  V30 7681 C 712.992 4.5227 4.10968 0
M  V30 7682 C 713.99 5.4922 4.06013 0
M  V30 7683 O 713.678 6.80429 4.28102 0
M  V30 7684 H 713.41 0.33013 0.589907 0
M  V30 7685 H 715.964 1.51738 1.38436 0
M  V30 7686 H 714.194 0.696901 3.80368 0
M  V30 7687 H 715.883 1.10302 3.90626 0
M  V30 7688 H 716.649 3.52017 3.3363 0
M  V30 7689 H 712.528 2.43785 3.91267 0
M  V30 7690 H 716.072 5.88591 3.74442 0
M  V30 7691 H 711.969 4.79462 4.32188 0
M  V30 7692 H 712.737 6.86617 4.45533 0
M  V30 7693 N 715.4 -1.26948 0.933913 0
M  V30 7694 C 716.628 -1.98186 0.59414 0
M  V30 7695 C 717.043 -1.69614 -0.829257 0
M  V30 7696 O 716.4 -0.960213 -1.55197 0
M  V30 7697 C 716.451 -3.52123 0.818026 0
M  V30 7698 O 716.172 -3.79698 2.18543 0
M  V30 7699 C 717.673 -4.40608 0.48781 0
M  V30 7700 H 714.893 -0.632305 0.224569 0
M  V30 7701 H 717.437 -1.61646 1.25263 0
M  V30 7702 H 715.592 -3.86851 0.206246 0
M  V30 7703 H 716.006 -4.7426 2.24005 0
M  V30 7704 H 717.48 -5.47606 0.695126 0
M  V30 7705 H 717.957 -4.35394 -0.576913 0
M  V30 7706 H 718.563 -4.11411 1.078 0
M  V30 7707 N 716.879 -0.700114 -1.41195 0
M  V30 7708 C 718.109 -0.241828 -2.0518 0
M  V30 7709 C 718.517 1.1157 -1.52803 0
M  V30 7710 O 717.86 1.70926 -0.673042 0
M  V30 7711 C 717.922 -0.12695 -3.59276 0
M  V30 7712 C 717.586 -1.41725 -4.34469 0
M  V30 7713 C 718.583 -2.35604 -4.63451 0
M  V30 7714 C 716.268 -1.67189 -4.73659 0
M  V30 7715 C 718.262 -3.53204 -5.3059 0
M  V30 7716 C 715.949 -2.85073 -5.40534 0
M  V30 7717 C 716.947 -3.77904 -5.68927 0
M  V30 7718 O 716.635 -4.93723 -6.34424 0
M  V30 7719 H 716.367 -0.109247 -0.667114 0
M  V30 7720 H 718.921 -0.954538 -1.81873 0
M  V30 7721 H 717.151 0.641571 -3.81341 0
M  V30 7722 H 718.84 0.294748 -4.04828 0
M  V30 7723 H 719.606 -2.1719 -4.33651 0
M  V30 7724 H 715.485 -0.957935 -4.50937 0
M  V30 7725 H 719.029 -4.25679 -5.52669 0
M  V30 7726 H 714.926 -3.03402 -5.69752 0
M  V30 7727 H 715.694 -4.93597 -6.5292 0
M  V30 7728 N 718.357 1.51182 -0.445186 0
M  V30 7729 C 719.287 2.30821 0.352686 0
M  V30 7730 C 720.268 1.36576 1.01395 0
M  V30 7731 O 721.453 1.65497 1.01609 0
M  V30 7732 C 718.583 3.15593 1.44976 0
M  V30 7733 C 717.537 4.1818 0.911553 0
M  V30 7734 C 716.863 4.91523 2.10497 0
M  V30 7735 C 718.163 5.22266 -0.059418 0
M  V30 7736 H 719.857 2.97771 -0.311936 0
M  V30 7737 H 717.403 1.43201 -0.151461 0
M  V30 7738 H 719.356 3.70091 2.01521 0
M  V30 7739 H 718.08 2.4648 2.14278 0
M  V30 7740 H 716.739 3.64746 0.368264 0
M  V30 7741 H 716.387 4.18906 2.78437 0
M  V30 7742 H 716.087 5.60898 1.7512 0
M  V30 7743 H 717.611 5.48847 2.6758 0
M  V30 7744 H 719.025 5.71789 0.415985 0
M  V30 7745 H 717.422 5.99213 -0.326152 0
M  V30 7746 H 718.492 4.7461 -0.993631 0
M  V30 7747 N 719.835 0.176821 1.56605 0
M  V30 7748 C 721.084 -0.466833 1.96223 0
M  V30 7749 C 721.397 -1.64015 1.06576 0
M  V30 7750 O 722.603 -2.3504 1.35898 0
M  V30 7751 C 721.059 -0.881921 3.48927 0
M  V30 7752 C 720.667 0.266102 4.47209 0
M  V30 7753 C 722.411 -1.49368 3.97353 0
M  V30 7754 C 720.318 -0.168923 5.91159 0
M  V30 7755 H 719.248 -0.178178 0.732645 0
M  V30 7756 H 721.899 0.265929 1.81563 0
M  V30 7757 H 720.281 -1.67082 3.59026 0
M  V30 7758 H 721.455 1.04349 4.4883 0
M  V30 7759 H 719.77 0.788178 4.08872 0
M  V30 7760 H 722.367 -1.8313 5.02362 0
M  V30 7761 H 722.71 -2.3936 3.40606 0
M  V30 7762 H 723.243 -0.769114 3.90294 0
M  V30 7763 H 719.982 0.696351 6.51791 0
M  V30 7764 H 719.502 -0.911552 5.92833 0
M  V30 7765 H 721.181 -0.610938 6.44109 0
M  V30 7766 N 721.313 -1.57302 -0.09688 0
M  V30 7767 C 722.243 -2.0497 -1.11846 0
M  V30 7768 C 723.224 -0.938278 -1.41882 0
M  V30 7769 O 724.409 -1.20943 -1.51942 0
M  V30 7770 C 721.539 -2.47264 -2.43881 0
M  V30 7771 C 720.493 -3.62053 -2.28257 0
M  V30 7772 C 719.819 -3.90318 -3.65453 0
M  V30 7773 C 721.119 -4.93005 -1.72461 0
M  V30 7774 H 722.813 -2.90567 -0.721888 0
M  V30 7775 H 720.359 -1.39786 -0.345803 0
M  V30 7776 H 722.312 -2.7922 -3.15617 0
M  V30 7777 H 721.036 -1.58664 -2.8547 0
M  V30 7778 H 719.695 -3.30341 -1.58967 0
M  V30 7779 H 719.343 -2.98889 -4.04567 0
M  V30 7780 H 719.043 -4.67597 -3.55846 0
M  V30 7781 H 720.567 -4.24747 -4.3866 0
M  V30 7782 H 721.981 -5.23354 -2.34036 0
M  V30 7783 H 720.378 -5.74436 -1.73618 0
M  V30 7784 H 721.448 -4.80053 -0.683898 0
M  V30 7785 N 722.791 0.367657 -1.53252 0
M  V30 7786 C 724.207 0.709191 -1.42978 0
M  V30 7787 C 724.407 1.93352 -0.567193 0
M  V30 7788 O 723.463 2.52453 -0.0488349 0
M  V30 7789 C 724.776 0.924338 -2.86141 0
M  V30 7790 C 726.324 1.02448 -2.95759 0
M  V30 7791 C 726.799 1.27211 -4.39979 0
M  V30 7792 N 728.29 1.33986 -4.43398 0
M  V30 7793 C 729.025 1.54852 -5.52095 0
M  V30 7794 N 728.521 1.73049 -6.7084 0
M  V30 7795 N 730.314 1.57205 -5.39669 0
M  V30 7796 H 722.465 -0.437669 -2.07842 0
M  V30 7797 H 724.728 -0.133737 -0.938519 0
M  V30 7798 H 724.434 0.0965455 -3.51567 0
M  V30 7799 H 724.308 1.83302 -3.29667 0
M  V30 7800 H 726.695 1.84282 -2.30487 0
M  V30 7801 H 726.776 0.0932301 -2.5563 0
M  V30 7802 H 726.42 0.458792 -5.05824 0
M  V30 7803 H 726.35 2.21654 -4.77679 0
M  V30 7804 H 728.841 1.21545 -3.5782 0
M  V30 7805 H 729.154 1.88538 -7.49449 0
M  V30 7806 H 727.499 1.70231 -6.7383 0
M  V30 7807 H 730.69 1.42555 -4.45865 0
M  V30 7808 H 730.863 1.73126 -6.24445 0
M  V30 7809 N 724.269 1.44576 0.627338 0
M  V30 7810 C 725.515 1.47777 1.38888 0
M  V30 7811 C 725.848 0.111406 1.9388 0
M  V30 7812 O 725.123 -0.87149 1.73883 0
M  V30 7813 C 725.406 2.54119 2.55138 0
M  V30 7814 C 725.259 4.00128 2.0547 0
M  V30 7815 C 726.578 2.56929 3.57317 0
M  V30 7816 H 723.697 0.538048 0.50366 0
M  V30 7817 H 726.339 1.76277 0.708978 0
M  V30 7818 H 724.489 2.29948 3.13139 0
M  V30 7819 H 726.161 4.35444 1.5227 0
M  V30 7820 H 724.404 4.11724 1.36623 0
M  V30 7821 H 725.075 4.7019 2.89181 0
M  V30 7822 H 727.551 2.78536 3.09122 0
M  V30 7823 H 726.427 3.33234 4.36173 0
M  V30 7824 H 726.688 1.6127 4.11636 0
M  V30 7825 N 725.747 -0.868086 1.31537 0
M  V30 7826 C 726.996 -1.61607 1.20689 0
M  V30 7827 C 727.309 -1.94204 -0.233275 0
M  V30 7828 O 728.515 -2.67515 -0.463465 0
M  V30 7829 C 726.971 -2.91348 2.11292 0
M  V30 7830 C 726.579 -2.66227 3.60315 0
M  V30 7831 C 728.323 -3.69344 2.09249 0
M  V30 7832 C 726.23 -3.91887 4.42921 0
M  V30 7833 H 725.16 -0.606373 0.448138 0
M  V30 7834 H 727.811 -0.959666 1.56405 0
M  V30 7835 H 726.193 -3.58374 1.68477 0
M  V30 7836 H 727.367 -2.07597 4.11388 0
M  V30 7837 H 725.682 -2.01582 3.64354 0
M  V30 7838 H 728.279 -4.62567 2.68209 0
M  V30 7839 H 728.622 -4.02044 1.0801 0
M  V30 7840 H 729.155 -3.09205 2.50274 0
M  V30 7841 H 725.894 -3.64336 5.44922 0
M  V30 7842 H 725.414 -4.49961 3.96605 0
M  V30 7843 H 727.093 -4.59754 4.55231 0
M  V30 7844 N 727.225 -1.14528 -1.08264 0
M  V30 7845 C 728.473 -0.912599 -1.80322 0
M  V30 7846 C 728.794 0.562256 -1.86718 0
M  V30 7847 O 728.064 1.40869 -1.36135 0
M  V30 7848 H 726.644 -0.334645 -0.667849 0
M  V30 7849 H 729.306 -1.44415 -1.30883 0
M  V30 7850 H 728.402 -1.31384 -2.83098 0
M  V30 7851 N 728.703 1.26451 -0.940633 0
M  V30 7852 C 729.651 2.28389 -0.440581 0
M  V30 7853 C 730.645 1.62402 0.481859 0
M  V30 7854 O 731.851 1.76361 0.360132 0
M  V30 7855 H 728.226 0.741716 -0.123938 0
M  V30 7856 H 730.197 2.67967 -1.31288 0
M  V30 7857 C 728.946 3.46576 0.279364 0
M  V30 7858 H 728.269 3.97574 -0.421274 0
M  V30 7859 H 729.709 4.19826 0.59348 0
M  V30 7860 C 728.168 3.01815 1.49697 0
M  V30 7861 O 728.698 3.06607 2.59529 0
M  V30 7862 N 726.904 2.57163 1.35334 0
M  V30 7863 H 726.451 2.53464 0.459743 0
M  V30 7864 H 726.409 2.27578 2.16923 0
M  V30 7865 N 730.181 0.707592 1.40822 0
M  V30 7866 C 731.114 -0.000859377 2.282 0
M  V30 7867 C 732.092 -0.7758 1.42899 0
M  V30 7868 O 733.276 -0.76411 1.72318 0
M  V30 7869 C 730.403 -1.00861 3.23334 0
M  V30 7870 C 729.449 -0.32543 4.25257 0
M  V30 7871 S 730.282 0.940908 5.27169 0
M  V30 7872 C 731.438 -0.0649459 6.25866 0
M  V30 7873 H 731.671 0.740207 2.87938 0
M  V30 7874 H 729.204 0.498311 1.46138 0
M  V30 7875 H 731.162 -1.58485 3.78672 0
M  V30 7876 H 729.823 -1.72233 2.62668 0
M  V30 7877 H 729.016 -1.08697 4.92139 0
M  V30 7878 H 728.618 0.178044 3.73576 0
M  V30 7879 H 730.91 -0.914377 6.71301 0
M  V30 7880 H 731.853 0.570276 7.058 0
M  V30 7881 H 732.261 -0.425098 5.62897 0
M  V30 7882 N 731.66 -1.50943 0.453197 0
M  V30 7883 C 732.908 -2.01813 -0.107709 0
M  V30 7884 C 733.229 -1.33841 -1.41816 0
M  V30 7885 O 732.499 -0.477973 -1.8998 0
M  V30 7886 H 731.079 -0.745773 -0.0427948 0
M  V30 7887 H 733.741 -1.8545 0.599531 0
M  V30 7888 H 732.837 -3.10911 -0.27218 0
M  V30 7889 N 733.138 -0.185124 -1.56509 0
M  V30 7890 C 734.07 0.771401 -2.15829 0
M  V30 7891 C 735.083 1.18392 -1.11747 0
M  V30 7892 O 736.272 1.12137 -1.38879 0
M  V30 7893 C 733.372 2.05169 -2.69739 0
M  V30 7894 C 732.545 1.80056 -3.98621 0
M  V30 7895 C 731.604 2.92435 -4.37456 0
M  V30 7896 O 730.63 2.62473 -5.05071 0
M  V30 7897 N 731.832 4.20554 -4.00143 0
M  V30 7898 H 734.597 0.264184 -2.98533 0
M  V30 7899 H 732.158 -0.00281069 -1.619 0
M  V30 7900 H 734.15 2.7947 -2.92709 0
M  V30 7901 H 732.72 2.47041 -1.91545 0
M  V30 7902 H 731.94 0.895862 -3.83885 0
M  V30 7903 H 733.228 1.60662 -4.82768 0
M  V30 7904 H 732.626 4.47753 -3.45736 0
M  V30 7905 H 731.183 4.91514 -4.28085 0
M  V30 7906 N 734.616 1.57351 0.0885366 0
M  V30 7907 C 735.844 1.90631 0.804196 0
M  V30 7908 C 736.259 0.779474 1.71958 0
M  V30 7909 O 735.616 -0.248179 1.80805 0
M  V30 7910 C 735.667 3.23568 1.61202 0
M  V30 7911 O 735.388 4.31917 0.733447 0
M  V30 7912 C 736.889 3.70753 2.43016 0
M  V30 7913 H 734.109 0.630501 0.229585 0
M  V30 7914 H 736.653 2.044 0.0638092 0
M  V30 7915 H 734.808 3.11377 2.30485 0
M  V30 7916 H 735.222 5.08297 1.29361 0
M  V30 7917 H 736.696 4.66447 2.9518 0
M  V30 7918 H 737.173 2.98922 3.2178 0
M  V30 7919 H 737.779 3.85834 1.7892 0
M  V30 7920 N 736.094 -0.359525 1.53444 0
M  V30 7921 C 737.027 -1.46338 1.75101 0
M  V30 7922 C 738.005 -1.51142 0.599559 0
M  V30 7923 O 739.189 -1.69102 0.832862 0
M  V30 7924 C 736.316 -2.84667 1.83527 0
M  V30 7925 C 735.362 -2.9756 3.05549 0
M  V30 7926 S 736.195 -2.65685 4.64943 0
M  V30 7927 C 737.351 -4.06153 4.76225 0
M  V30 7928 H 737.584 -1.27747 2.68455 0
M  V30 7929 H 735.117 -0.554231 1.4411 0
M  V30 7930 H 737.075 -3.64368 1.89067 0
M  V30 7931 H 735.736 -3.00564 0.912147 0
M  V30 7932 H 734.929 -3.98883 3.08072 0
M  V30 7933 H 734.531 -2.25789 2.98153 0
M  V30 7934 H 736.823 -5.00475 4.56652 0
M  V30 7935 H 737.766 -4.08632 5.78295 0
M  V30 7936 H 738.174 -3.93435 4.04808 0
M  V30 7937 N 737.572 -1.44907 -0.619662 0
M  V30 7938 C 738.482 -1.55168 -1.75955 0
M  V30 7939 C 739.498 -0.43672 -1.6843 0
M  V30 7940 O 740.674 -0.695704 -1.89002 0
M  V30 7941 C 737.739 -1.50397 -3.12381 0
M  V30 7942 C 736.8 -2.72835 -3.31451 0
M  V30 7943 C 736.033 -2.68283 -4.61368 0
M  V30 7944 O 736.256 -1.74929 -5.42914 0
M  V30 7945 O 735.19 -3.59308 -4.82889 0
M  V30 7946 H 739.016 -2.51493 -1.7025 0
M  V30 7947 H 736.601 -1.27282 -0.782289 0
M  V30 7948 H 738.483 -1.50301 -3.93685 0
M  V30 7949 H 737.158 -0.572197 -3.18603 0
M  V30 7950 H 736.065 -2.78496 -2.49781 0
M  V30 7951 H 737.398 -3.65098 -3.30098 0
M  V30 7952 N 739.05 0.861098 -1.31996 0
M  V30 7953 C 739.982 1.97551 -1.16216 0
M  V30 7954 C 740.995 1.625 -0.0988527 0
M  V30 7955 O 742.184 1.75091 -0.3472 0
M  V30 7956 C 739.284 3.30376 -0.755307 0
M  V30 7957 C 738.457 3.93711 -1.90552 0
M  V30 7958 C 737.516 5.04862 -1.48328 0
M  V30 7959 O 736.542 5.25204 -2.19431 0
M  V30 7960 N 737.744 5.79283 -0.375656 0
M  V30 7961 H 740.509 2.11632 -2.12208 0
M  V30 7962 H 738.07 1.03559 -1.24448 0
M  V30 7963 H 740.062 4.0213 -0.455364 0
M  V30 7964 H 738.632 3.12395 0.113269 0
M  V30 7965 H 737.852 3.14825 -2.37231 0
M  V30 7966 H 739.14 4.32762 -2.67571 0
M  V30 7967 H 738.538 5.65286 0.216284 0
M  V30 7968 H 737.095 6.5166 -0.135289 0
M  V30 7969 N 740.528 1.15101 1.07655 0
M  V30 7970 C 741.458 0.867864 2.16773 0
M  V30 7971 C 742.439 -0.180283 1.69142 0
M  V30 7972 O 743.624 -0.0353152 1.94168 0
M  V30 7973 C 740.754 0.35299 3.45501 0
M  V30 7974 C 739.708 1.33746 4.06566 0
M  V30 7975 C 739.034 0.681562 5.30338 0
M  V30 7976 C 740.334 2.7024 4.46954 0
M  V30 7977 H 742.028 1.78034 2.40716 0
M  V30 7978 H 739.574 0.857435 1.15689 0
M  V30 7979 H 741.527 0.142465 4.21159 0
M  V30 7980 H 740.251 -0.594945 3.21135 0
M  V30 7981 H 738.91 1.53429 3.32949 0
M  V30 7982 H 738.558 -0.272422 5.02262 0
M  V30 7983 H 738.258 1.33853 5.72151 0
M  V30 7984 H 739.782 0.48074 6.08705 0
M  V30 7985 H 741.196 2.5442 5.13754 0
M  V30 7986 H 739.593 3.32282 4.99709 0
M  V30 7987 H 740.663 3.26537 3.58471 0
M  V30 7988 N 742.006 -1.2595 0.947325 0
M  V30 7989 C 743.234 -1.97544 0.615127 0
M  V30 7990 C 743.649 -1.70484 -0.811221 0
M  V30 7991 O 743.006 -0.97662 -1.5417 0
M  V30 7992 C 743.057 -3.51236 0.855328 0
M  V30 7993 O 742.778 -3.77359 2.22558 0
M  V30 7994 C 744.279 -4.40066 0.534515 0
M  V30 7995 H 741.499 -0.629888 0.231263 0
M  V30 7996 H 744.043 -1.60308 1.26971 0
M  V30 7997 H 742.198 -3.8661 0.247266 0
M  V30 7998 H 742.612 -4.71857 2.29022 0
M  V30 7999 H 744.086 -5.46838 0.753168 0
M  V30 8000 H 744.563 -4.35982 -0.530701 0
M  V30 8001 H 745.169 -4.10245 1.12158 0
M  V30 8002 N 743.484 -0.715051 -1.40445 0
M  V30 8003 C 744.895 -0.326763 -1.83818 0
M  V30 8004 C 745.246 1.13851 -1.59789 0
M  V30 8005 O 744.371 1.87611 -1.07848 0
M  V30 8006 C 744.966 -0.586297 -3.33688 0
M  V30 8007 C 743.525 -0.251724 -3.75557 0
M  V30 8008 C 742.672 -0.858928 -2.63662 0
M  V30 8009 H 745.623 -0.914241 -1.2972 0
M  V30 8010 H 745.644 0.148636 -3.8021 0
M  V30 8011 H 745.156 -1.65281 -3.51146 0
M  V30 8012 H 743.257 0.809754 -3.63695 0
M  V30 8013 H 743.37 -0.720348 -4.73654 0
M  V30 8014 H 741.734 -0.287013 -2.53078 0
M  V30 8015 H 742.517 -1.9297 -2.83932 0
M  V30 8016 N 744.962 1.50701 -0.461195 0
M  V30 8017 C 745.872 2.32069 0.343661 0
M  V30 8018 C 746.888 1.42016 1.00535 0
M  V30 8019 O 748.064 1.75077 0.995498 0
M  V30 8020 C 745.129 3.16424 1.41692 0
M  V30 8021 C 744.19 4.22286 0.772869 0
M  V30 8022 C 743.423 5.02609 1.79499 0
M  V30 8023 O 743.646 4.83874 3.0203 0
M  V30 8024 O 742.58 5.86047 1.3723 0
M  V30 8025 H 746.406 3.01996 -0.321268 0
M  V30 8026 H 743.991 1.47723 -0.223235 0
M  V30 8027 H 745.873 3.68795 2.03883 0
M  V30 8028 H 744.548 2.49236 2.0655 0
M  V30 8029 H 743.455 3.73931 0.112277 0
M  V30 8030 H 744.788 4.91915 0.167399 0
M  V30 8031 N 746.441 0.193421 1.56409 0
M  V30 8032 C 747.371 -0.723334 2.22014 0
M  V30 8033 C 748.352 -1.22254 1.1827 0
M  V30 8034 O 749.537 -1.27168 1.46771 0
M  V30 8035 C 746.667 -1.94366 2.87818 0
M  V30 8036 C 745.621 -1.57943 3.97791 0
M  V30 8037 C 744.947 -2.87623 4.50752 0
M  V30 8038 C 746.247 -0.790639 5.16281 0
M  V30 8039 H 747.941 -0.176426 2.9888 0
M  V30 8040 H 745.487 -0.0834166 1.43758 0
M  V30 8041 H 747.44 -2.5902 3.32396 0
M  V30 8042 H 746.164 -2.51507 2.08355 0
M  V30 8043 H 744.823 -0.956482 3.53903 0
M  V30 8044 H 744.471 -3.4285 3.68053 0
M  V30 8045 H 744.171 -2.63998 5.24956 0
M  V30 8046 H 745.695 -3.53268 4.9803 0
M  V30 8047 H 747.109 -1.34024 5.57414 0
M  V30 8048 H 745.506 -0.65258 5.96541 0
M  V30 8049 H 746.576 0.208633 4.84451 0
M  V30 8050 N 747.919 -1.57396 -0.0801906 0
M  V30 8051 C 748.866 -2.03107 -1.09618 0
M  V30 8052 C 749.836 -0.910118 -1.38946 0
M  V30 8053 O 751.021 -1.17719 -1.50156 0
M  V30 8054 C 748.161 -2.47293 -2.40708 0
M  V30 8055 C 747.274 -3.72972 -2.17982 0
M  V30 8056 C 746.409 -4.05975 -3.42576 0
M  V30 8057 C 745.448 -5.24719 -3.15177 0
M  V30 8058 N 744.585 -5.53401 -4.32078 0
M  V30 8059 H 749.425 -2.89677 -0.69939 0
M  V30 8060 H 746.962 -1.43263 -0.333785 0
M  V30 8061 H 748.92 -2.7096 -3.17232 0
M  V30 8062 H 747.55 -1.63713 -2.78205 0
M  V30 8063 H 746.602 -3.56693 -1.32189 0
M  V30 8064 H 747.914 -4.59638 -1.93738 0
M  V30 8065 H 747.068 -4.30498 -4.275 0
M  V30 8066 H 745.807 -3.17859 -3.69887 0
M  V30 8067 H 744.812 -5 -2.28648 0
M  V30 8068 H 746.037 -6.14445 -2.89197 0
M  V30 8069 H 743.983 -4.68245 -4.59437 0
M  V30 8070 H 743.9 -6.34469 -4.11078 0
M  V30 8071 H 745.168 -5.8247 -5.18024 0
M  V30 8072 N 749.397 0.351382 -1.53633 0
M  V30 8073 C 750.622 1.11718 -1.74739 0
M  V30 8074 C 751.047 1.81829 -0.481657 0
M  V30 8075 O 750.405 1.72264 0.565233 0
M  V30 8076 C 750.453 2.11234 -2.92254 0
M  V30 8077 O 749.557 3.186 -2.61855 0
M  V30 8078 H 748.898 0.323482 -0.579875 0
M  V30 8079 H 751.428 0.404167 -2.00568 0
M  V30 8080 H 751.438 2.54591 -3.18822 0
M  V30 8081 H 750.113 1.59599 -3.84058 0
M  V30 8082 H 748.69 2.80115 -2.4615 0
M  V30 8083 N 750.875 1.45233 0.611969 0
M  V30 8084 C 752.1 1.52767 1.40274 0
M  V30 8085 C 752.525 0.159701 1.87421 0
M  V30 8086 O 751.883 -0.854837 1.59882 0
M  V30 8087 C 751.931 2.51286 2.58626 0
M  V30 8088 O 751.035 2.02764 3.59111 0
M  V30 8089 H 750.376 0.515141 0.418958 0
M  V30 8090 H 752.906 1.90547 0.745188 0
M  V30 8091 H 752.916 2.69949 3.05927 0
M  V30 8092 H 751.591 3.50641 2.23659 0
M  V30 8093 H 750.168 1.93957 3.18489 0
M  V30 8094 N 752.353 -0.854086 1.3245 0
M  V30 8095 C 753.602 -1.60318 1.22397 0
M  V30 8096 C 753.915 -1.9444 -0.212664 0
M  V30 8097 O 755.121 -2.67991 -0.435066 0
M  V30 8098 C 753.577 -2.8909 2.1437 0
M  V30 8099 C 753.185 -2.62391 3.63119 0
M  V30 8100 C 754.929 -3.67104 2.13155 0
M  V30 8101 C 752.836 -3.87167 4.47052 0
M  V30 8102 H 751.766 -0.601586 0.454544 0
M  V30 8103 H 754.417 -0.943023 1.57415 0
M  V30 8104 H 752.799 -3.56567 1.72268 0
M  V30 8105 H 753.973 -2.03222 4.13567 0
M  V30 8106 H 752.288 -1.97706 3.66471 0
M  V30 8107 H 754.885 -4.59696 2.731 0
M  V30 8108 H 755.228 -4.00876 1.12268 0
M  V30 8109 H 755.761 -3.06533 2.5354 0
M  V30 8110 H 752.5 -3.58536 5.48755 0
M  V30 8111 H 752.02 -4.45729 4.01355 0
M  V30 8112 H 753.699 -4.549 4.60081 0
M  V30 8113 N 753.831 -1.1567 -1.07043 0
M  V30 8114 C 754.761 -0.879348 -2.16309 0
M  V30 8115 C 755.742 0.171311 -1.69235 0
M  V30 8116 O 756.927 0.0250175 -1.94184 0
M  V30 8117 C 754.057 -0.371307 -3.45309 0
M  V30 8118 C 753.011 -1.359 -4.05851 0
M  V30 8119 C 752.337 -0.709678 -5.29969 0
M  V30 8120 C 753.637 -2.72606 -4.45514 0
M  V30 8121 H 755.331 -1.79308 -2.39768 0
M  V30 8122 H 752.877 -0.863558 -1.15233 0
M  V30 8123 H 754.83 -0.164798 -4.21078 0
M  V30 8124 H 753.554 0.577906 -3.21446 0
M  V30 8125 H 752.213 -1.55193 -3.32131 0
M  V30 8126 H 751.861 0.245782 -5.02399 0
M  V30 8127 H 751.561 -1.36886 -5.71433 0
M  V30 8128 H 753.085 -0.513015 -6.08441 0
M  V30 8129 H 754.499 -2.57141 -5.12398 0
M  V30 8130 H 752.896 -3.34927 -4.97939 0
M  V30 8131 H 753.966 -3.28434 -3.56734 0
M  V30 8132 N 755.309 1.25446 -0.953992 0
M  V30 8133 C 756.256 2.25912 -0.472485 0
M  V30 8134 C 757.226 1.59173 0.47469 0
M  V30 8135 O 758.411 1.86812 0.388082 0
M  V30 8136 C 755.551 3.44235 0.244218 0
M  V30 8137 C 754.664 4.25613 -0.740121 0
M  V30 8138 C 753.799 5.312 -0.000922267 0
M  V30 8139 C 752.838 6.04265 -0.976236 0
M  V30 8140 N 751.975 7.01589 -0.267952 0
M  V30 8141 H 756.815 2.66469 -1.3341 0
M  V30 8142 H 754.352 1.31005 -0.669045 0
M  V30 8143 H 756.31 4.11682 0.676314 0
M  V30 8144 H 754.94 3.04554 1.06988 0
M  V30 8145 H 753.992 3.57834 -1.2907 0
M  V30 8146 H 755.304 4.762 -1.48441 0
M  V30 8147 H 754.458 6.04719 0.48984 0
M  V30 8148 H 753.197 4.81484 0.776159 0
M  V30 8149 H 752.202 5.29561 -1.478 0
M  V30 8150 H 753.427 6.5607 -1.75354 0
M  V30 8151 H 751.373 6.54164 0.490403 0
M  V30 8152 H 751.29 7.4999 -0.951344 0
M  V30 8153 H 752.558 7.7924 0.201294 0
M  V30 8154 N 756.787 0.722489 1.40064 0
M  V30 8155 C 758.027 0.269491 2.02616 0
M  V30 8156 C 758.391 -1.11835 1.56067 0
M  V30 8157 O 759.592 -1.66873 2.1073 0
M  V30 8158 C 757.863 0.354066 3.55642 0
M  V30 8159 S 759.422 -0.0209309 4.38795 0
M  V30 8160 H 756.24 0.106412 0.702992 0
M  V30 8161 H 758.842 0.946237 1.71075 0
M  V30 8162 H 757.546 1.36565 3.87012 0
M  V30 8163 H 757.077 -0.340925 3.9192 0
M  V30 8164 H 759.092 -1.24093 4.80432 0
M  V30 8165 N 758.265 -1.50454 0.469181 0
M  V30 8166 C 759.511 -2.02615 -0.0865971 0
M  V30 8167 C 759.844 -1.35062 -1.39542 0
M  V30 8168 O 759.119 -0.475701 -1.88593 0
M  V30 8169 C 759.402 -3.59068 -0.272385 0
M  V30 8170 C 759.255 -4.37196 1.05733 0
M  V30 8171 C 760.574 -4.2793 -1.0278 0
M  V30 8172 H 757.693 -0.736389 -0.0299977 0
M  V30 8173 H 760.335 -1.79792 0.614399 0
M  V30 8174 H 758.485 -3.78646 -0.869471 0
M  V30 8175 H 760.157 -4.29195 1.69084 0
M  V30 8176 H 758.4 -4.01013 1.65442 0
M  V30 8177 H 759.071 -5.44924 0.880997 0
M  V30 8178 H 761.547 -4.12816 -0.521718 0
M  V30 8179 H 760.423 -5.37214 -1.12659 0
M  V30 8180 H 760.684 -3.90968 -2.0639 0
M  V30 8181 N 759.743 -0.201713 -1.56304 0
M  V30 8182 C 760.675 0.748466 -2.16635 0
M  V30 8183 C 761.688 1.172 -1.12996 0
M  V30 8184 O 762.877 1.10658 -1.40061 0
M  V30 8185 C 759.977 2.02296 -2.719 0
M  V30 8186 C 759.15 1.75818 -4.00508 0
M  V30 8187 C 758.209 2.87779 -4.40533 0
M  V30 8188 O 757.235 2.57101 -5.07826 0
M  V30 8189 N 758.437 4.16287 -4.04581 0
M  V30 8190 H 761.202 0.232505 -2.98797 0
M  V30 8191 H 758.763 -0.0199822 -1.61888 0
M  V30 8192 H 760.755 2.7635 -2.95657 0
M  V30 8193 H 759.325 2.44996 -1.94154 0
M  V30 8194 H 758.545 0.855095 -3.84814 0
M  V30 8195 H 759.833 1.55532 -4.84445 0
M  V30 8196 H 759.231 4.44061 -3.50466 0
M  V30 8197 H 757.788 4.86946 -4.33274 0
M  V30 8198 N 761.222 1.57436 0.0718424 0
M  V30 8199 C 762.447 1.91858 0.787745 0
M  V30 8200 C 762.872 0.798119 1.70328 0
M  V30 8201 O 762.23 -0.24905 1.79581 0
M  V30 8202 C 762.278 3.25232 1.55744 0
M  V30 8203 O 761.382 3.14462 2.6681 0
M  V30 8204 H 760.723 0.628258 0.214914 0
M  V30 8205 H 763.253 2.04561 0.0401012 0
M  V30 8206 H 763.263 3.59105 1.9367 0
M  V30 8207 H 761.938 4.0636 0.885691 0
M  V30 8208 H 760.515 2.92148 2.31741 0
M  V30 8209 N 762.7 -0.34323 1.53817 0
M  V30 8210 C 763.928 -1.10348 1.75017 0
M  V30 8211 C 764.343 -1.82345 0.489475 0
M  V30 8212 O 763.7 -1.74362 -0.538886 0
M  V30 8213 C 763.751 -2.11672 2.93048 0
M  V30 8214 O 763.472 -1.42603 4.14241 0
M  V30 8215 C 764.973 -3.0007 3.26301 0
M  V30 8216 H 762.193 -0.329056 0.584776 0
M  V30 8217 H 764.737 -0.395339 2.00642 0
M  V30 8218 H 762.892 -2.78051 2.69753 0
M  V30 8219 H 763.306 -2.10294 4.80496 0
M  V30 8220 H 764.78 -3.67101 4.12239 0
M  V30 8221 H 765.257 -3.66105 2.42618 0
M  V30 8222 H 765.863 -2.3928 3.51604 0
M  V30 8223 N 764.178 -1.45556 -0.604258 0
M  V30 8224 C 765.125 -1.54482 -1.71476 0
M  V30 8225 C 766.095 -0.390479 -1.61445 0
M  V30 8226 O 767.28 -0.604371 -1.80975 0
M  V30 8227 C 764.42 -1.52064 -3.09791 0
M  V30 8228 C 763.533 -2.78073 -3.30604 0
M  V30 8229 C 762.668 -2.67304 -4.59044 0
M  V30 8230 C 761.707 -3.88352 -4.73127 0
M  V30 8231 N 760.844 -3.76098 -5.9287 0
M  V30 8232 H 765.684 -2.49349 -1.63184 0
M  V30 8233 H 763.221 -1.23725 -0.795641 0
M  V30 8234 H 765.179 -1.48649 -3.89819 0
M  V30 8235 H 763.809 -0.607442 -3.17033 0
M  V30 8236 H 762.861 -2.91561 -2.44329 0
M  V30 8237 H 764.173 -3.67847 -3.36883 0
M  V30 8238 H 763.327 -2.61875 -5.47272 0
M  V30 8239 H 762.066 -1.75135 -4.55169 0
M  V30 8240 H 761.071 -3.94137 -3.83322 0
M  V30 8241 H 762.296 -4.81591 -4.78797 0
M  V30 8242 H 760.242 -2.867 -5.90033 0
M  V30 8243 H 760.159 -4.59509 -6.00323 0
M  V30 8244 H 761.427 -3.74607 -6.83586 0
M  V30 8245 N 765.656 0.84705 -1.32902 0
M  V30 8246 C 767.067 1.41785 -1.21466 0
M  V30 8247 C 767.418 1.95464 0.169767 0
M  V30 8248 O 766.543 1.88157 1.06892 0
M  V30 8249 C 767.138 2.57734 -2.19906 0
M  V30 8250 C 765.697 3.10791 -2.12334 0
M  V30 8251 C 764.844 1.83562 -2.07847 0
M  V30 8252 H 767.795 0.653532 -1.44619 0
M  V30 8253 H 767.816 3.35123 -1.80202 0
M  V30 8254 H 767.328 2.18635 -3.20656 0
M  V30 8255 H 765.429 3.54455 -1.14858 0
M  V30 8256 H 765.542 3.71519 -3.02506 0
M  V30 8257 H 763.906 2.03475 -1.53199 0
M  V30 8258 H 764.689 1.4667 -3.10392 0
M  V30 8259 N 767.134 1.16236 1.06428 0
M  V30 8260 C 768.359 0.967688 1.83441 0
M  V30 8261 C 768.784 -0.479167 1.81894 0
M  V30 8262 O 768.142 -1.34224 1.21875 0
M  V30 8263 C 768.19 1.49806 3.2801 0
M  V30 8264 O 767.294 0.703481 4.06356 0
M  V30 8265 H 766.635 0.344468 0.56766 0
M  V30 8266 H 769.165 1.54442 1.34197 0
M  V30 8267 H 769.175 1.51495 3.78831 0
M  V30 8268 H 767.85 2.55133 3.2845 0
M  V30 8269 H 766.427 0.756986 3.65136 0
M  V30 8270 N 768.612 -1.24939 0.960631 0
M  V30 8271 C 769.542 -2.28 0.503815 0
M  V30 8272 C 770.523 -1.63959 -0.452928 0
M  V30 8273 O 771.708 -1.91009 -0.350585 0
M  V30 8274 C 768.838 -3.46643 -0.213535 0
M  V30 8275 C 767.792 -4.22903 0.658535 0
M  V30 8276 C 767.118 -5.34363 -0.189902 0
M  V30 8277 C 768.418 -4.84949 1.93963 0
M  V30 8278 H 770.112 -2.66462 1.36521 0
M  V30 8279 H 767.658 -1.28093 0.657897 0
M  V30 8280 H 769.611 -4.1787 -0.544286 0
M  V30 8281 H 768.335 -3.07187 -1.10923 0
M  V30 8282 H 766.994 -3.53467 0.972455 0
M  V30 8283 H 766.642 -4.91147 -1.08553 0
M  V30 8284 H 766.342 -5.86302 0.390331 0
M  V30 8285 H 767.866 -6.0842 -0.515484 0
M  V30 8286 H 769.28 -5.48288 1.67491 0
M  V30 8287 H 767.677 -5.47091 2.46601 0
M  V30 8288 H 768.747 -4.06799 2.639 0
M  V30 8289 N 770.09 -0.729906 -1.39679 0
M  V30 8290 C 771.023 -0.0354454 -2.28172 0
M  V30 8291 C 772.001 0.752968 -1.44115 0
M  V30 8292 O 773.185 0.736599 -1.73512 0
M  V30 8293 C 770.312 0.957047 -3.24897 0
M  V30 8294 C 769.358 0.257734 -4.25721 0
M  V30 8295 S 770.191 -1.02466 -5.25605 0
M  V30 8296 C 771.347 -0.0346322 -6.2589 0
M  V30 8297 H 771.58 -0.785922 -2.86724 0
M  V30 8298 H 769.113 -0.521497 -1.45326 0
M  V30 8299 H 771.071 1.52441 -3.81146 0
M  V30 8300 H 769.732 1.68033 -2.65375 0
M  V30 8301 H 768.925 1.00854 -4.93806 0
M  V30 8302 H 768.527 -0.237454 -3.73245 0
M  V30 8303 H 770.819 0.807464 -6.72671 0
M  V30 8304 H 771.762 -0.682491 -7.04803 0
M  V30 8305 H 772.17 0.335492 -5.63502 0
M  V30 8306 N 771.568 1.50203 -0.477153 0
M  V30 8307 C 772.817 2.01551 0.0774548 0
M  V30 8308 C 773.13 1.36359 1.40234 0
M  V30 8309 O 774.336 1.78898 2.04225 0
M  V30 8310 C 772.792 3.59406 0.188539 0
M  V30 8311 C 772.4 4.3356 -1.12828 0
M  V30 8312 C 774.144 4.18776 0.694782 0
M  V30 8313 C 772.051 5.83213 -0.98066 0
M  V30 8314 H 770.981 0.75329 0.0327212 0
M  V30 8315 H 773.632 1.72959 -0.612969 0
M  V30 8316 H 772.014 3.84611 0.942881 0
M  V30 8317 H 773.188 4.20074 -1.89405 0
M  V30 8318 H 771.503 3.85827 -1.5661 0
M  V30 8319 H 774.1 5.28338 0.822356 0
M  V30 8320 H 774.443 3.80557 1.68766 0
M  V30 8321 H 774.976 3.978 -0.00234519 0
M  V30 8322 H 771.715 6.25914 -1.94709 0
M  V30 8323 H 771.235 5.99256 -0.255375 0
M  V30 8324 H 772.914 6.4373 -0.649717 0
M  V30 8325 N 773.046 0.209999 1.56195 0
M  V30 8326 C 773.978 -0.736967 2.17029 0
M  V30 8327 C 774.991 -1.16599 1.13616 0
M  V30 8328 O 776.18 -1.09914 1.40646 0
M  V30 8329 C 773.28 -2.00852 2.72969 0
M  V30 8330 C 772.453 -1.73691 4.01435 0
M  V30 8331 C 771.512 -2.85439 4.42053 0
M  V30 8332 O 770.538 -2.54405 5.09183 0
M  V30 8333 N 771.74 -4.14135 4.06783 0
M  V30 8334 H 774.505 -0.216656 2.98916 0
M  V30 8335 H 772.066 0.0285672 1.61875 0
M  V30 8336 H 774.058 -2.74778 2.97118 0
M  V30 8337 H 772.628 -2.43963 1.95451 0
M  V30 8338 H 771.848 -0.834676 3.85262 0
M  V30 8339 H 773.136 -1.52961 4.85263 0
M  V30 8340 H 772.534 -4.42196 3.52816 0
M  V30 8341 H 771.091 -4.84642 4.35851 0
M  V30 8342 N 774.524 -1.57472 -0.0634922 0
M  V30 8343 C 775.471 -2.04258 -1.07457 0
M  V30 8344 C 776.441 -0.924804 -1.37973 0
M  V30 8345 O 777.626 -1.19305 -1.48899 0
M  V30 8346 C 774.766 -2.49832 -2.38071 0
M  V30 8347 C 773.879 -3.75263 -2.14014 0
M  V30 8348 C 773.014 -4.09585 -3.38251 0
M  V30 8349 C 772.053 -5.28032 -3.09594 0
M  V30 8350 N 771.19 -5.57953 -4.26185 0
M  V30 8351 H 776.03 -2.90402 -0.668626 0
M  V30 8352 H 773.567 -1.43609 -0.318572 0
M  V30 8353 H 775.525 -2.7431 -3.14341 0
M  V30 8354 H 774.155 -1.66654 -2.76453 0
M  V30 8355 H 773.207 -3.58075 -1.28399 0
M  V30 8356 H 774.519 -4.61667 -1.88852 0
M  V30 8357 H 773.673 -4.35008 -4.2291 0
M  V30 8358 H 772.412 -3.21765 -3.66495 0
M  V30 8359 H 771.417 -5.02397 -2.23332 0
M  V30 8360 H 772.642 -6.17477 -2.82663 0
M  V30 8361 H 770.588 -4.73092 -4.54445 0
M  V30 8362 H 770.505 -6.38793 -4.04326 0
M  V30 8363 H 771.773 -5.87931 -5.11817 0
M  V30 8364 N 776.003 0.335068 -1.53997 0
M  V30 8365 C 776.966 1.39481 -1.81872 0
M  V30 8366 C 777.966 1.4524 -0.690078 0
M  V30 8367 O 779.156 1.45467 -0.958377 0
M  V30 8368 C 776.288 2.78329 -1.9684 0
M  V30 8369 H 777.481 1.16024 -2.76547 0
M  V30 8370 H 775.034 0.569926 -1.45539 0
M  V30 8371 H 775.769 3.07058 -1.04337 0
M  V30 8372 H 775.554 2.75544 -2.78958 0
M  V30 8373 H 777.044 3.55016 -2.19894 0
M  V30 8374 N 777.481 1.45874 0.596531 0
M  V30 8375 C 778.444 1.54988 1.68853 0
M  V30 8376 C 779.444 0.428302 1.54991 0
M  V30 8377 O 780.634 0.692158 1.59859 0
M  V30 8378 C 777.766 1.457 3.08195 0
M  V30 8379 H 778.959 2.52294 1.62135 0
M  V30 8380 H 776.512 1.33479 0.813206 0
M  V30 8381 H 777.247 0.496204 3.20481 0
M  V30 8382 H 777.032 2.27061 3.19665 0
M  V30 8383 H 778.522 1.55133 3.87716 0
M  V30 8384 N 778.959 -0.83999 1.33349 0
M  V30 8385 C 780.208 -1.59011 1.2409 0
M  V30 8386 C 780.521 -1.94655 -0.192029 0
M  V30 8387 O 781.727 -2.68438 -0.406617 0
M  V30 8388 C 780.183 -2.86801 2.17425 0
M  V30 8389 C 779.791 -2.58525 3.65881 0
M  V30 8390 C 781.535 -3.64823 2.17036 0
M  V30 8391 C 779.442 -3.82404 4.51133 0
M  V30 8392 H 778.372 -0.596731 0.460899 0
M  V30 8393 H 781.023 -0.926274 1.58406 0
M  V30 8394 H 779.405 -3.54719 1.7604 0
M  V30 8395 H 780.579 -1.98824 4.15699 0
M  V30 8396 H 778.894 -1.93808 3.68548 0
M  V30 8397 H 781.491 -4.56774 2.7796 0
M  V30 8398 H 781.834 -3.99663 1.16513 0
M  V30 8399 H 782.367 -3.03826 2.56777 0
M  V30 8400 H 779.106 -3.52696 5.52527 0
M  V30 8401 H 778.626 -4.41447 4.0606 0
M  V30 8402 H 780.305 -4.49995 4.6488 0
M  V30 8403 N 780.437 -1.16799 -1.0581 0
M  V30 8404 C 781.369 -0.836774 -2.13379 0
M  V30 8405 C 782.382 0.158116 -1.6203 0
M  V30 8406 O 783.571 -0.0673211 -1.78373 0
M  V30 8407 C 780.671 -0.225959 -3.38146 0
M  V30 8408 C 779.844 -1.26217 -4.18794 0
M  V30 8409 C 778.903 -0.670257 -5.21914 0
M  V30 8410 O 777.929 -1.34042 -5.53192 0
M  V30 8411 N 779.131 0.540683 -5.77977 0
M  V30 8412 H 781.896 -1.76257 -2.42391 0
M  V30 8413 H 779.457 -1.06599 -1.21853 0
M  V30 8414 H 781.449 0.18317 -4.04285 0
M  V30 8415 H 780.019 0.603494 -3.06719 0
M  V30 8416 H 779.239 -1.84729 -3.48237 0
M  V30 8417 H 780.527 -1.9613 -4.69479 0
M  V30 8418 H 779.925 1.10322 -5.54838 0
M  V30 8419 H 778.482 0.891958 -6.45668 0
M  V30 8420 N 781.915 1.24427 -0.967243 0
M  V30 8421 C 782.878 2.23637 -0.501927 0
M  V30 8422 C 783.878 1.55712 0.401283 0
M  V30 8423 O 785.068 1.73085 0.196808 0
M  V30 8424 C 782.2 3.39804 0.273176 0
M  V30 8425 H 783.393 2.66317 -1.37897 0
M  V30 8426 H 780.946 1.37033 -0.751783 0
M  V30 8427 H 781.681 3.02562 1.16733 0
M  V30 8428 H 781.466 3.90303 -0.37498 0
M  V30 8429 H 782.956 4.13443 0.587776 0
M  V30 8430 N 783.393 0.737304 1.3929 0
M  V30 8431 C 784.323 0.113988 2.33222 0
M  V30 8432 C 785.304 -0.721695 1.54031 0
M  V30 8433 O 786.489 -0.666206 1.82415 0
M  V30 8434 C 783.619 -0.792319 3.38141 0
M  V30 8435 C 782.573 -0.0606178 4.27957 0
M  V30 8436 C 781.899 -1.08409 5.23595 0
M  V30 8437 C 783.199 1.09817 5.10625 0
M  V30 8438 H 784.893 0.898611 2.85596 0
M  V30 8439 H 782.439 0.433571 1.37318 0
M  V30 8440 H 784.392 -1.23793 4.02807 0
M  V30 8441 H 783.116 -1.60908 2.84211 0
M  V30 8442 H 781.775 0.365393 3.64775 0
M  V30 8443 H 781.423 -1.89449 4.6596 0
M  V30 8444 H 781.123 -0.599269 5.84536 0
M  V30 8445 H 782.647 -1.52936 5.91137 0
M  V30 8446 H 784.061 0.730892 5.68622 0
M  V30 8447 H 782.458 1.51278 5.80719 0
M  V30 8448 H 783.528 1.91878 4.45321 0
M  V30 8449 N 784.871 -1.49948 0.485112 0
M  V30 8450 C 786.287 -1.58984 0.140096 0
M  V30 8451 C 786.487 -1.49194 -1.35438 0
M  V30 8452 O 785.543 -1.35765 -2.12894 0
M  V30 8453 C 786.856 -2.92372 0.702769 0
M  V30 8454 C 788.404 -3.05801 0.66745 0
M  V30 8455 C 788.879 -4.41785 1.20791 0
M  V30 8456 N 790.37 -4.48234 1.16792 0
M  V30 8457 C 791.105 -5.51871 1.55646 0
M  V30 8458 N 790.601 -6.62692 2.02016 0
M  V30 8459 N 792.394 -5.42494 1.47161 0
M  V30 8460 H 784.545 -1.54555 1.45693 0
M  V30 8461 H 786.808 -0.731206 0.603359 0
M  V30 8462 H 786.514 -3.05056 1.75025 0
M  V30 8463 H 786.388 -3.76885 0.154205 0
M  V30 8464 H 788.775 -2.92757 -0.371157 0
M  V30 8465 H 788.856 -2.23011 1.25298 0
M  V30 8466 H 788.5 -4.55579 2.24522 0
M  V30 8467 H 788.43 -5.23188 0.598464 0
M  V30 8468 H 790.921 -3.68718 0.827982 0
M  V30 8469 H 791.234 -7.3785 2.29775 0
M  V30 8470 H 789.579 -6.63775 2.05979 0
M  V30 8471 H 792.77 -4.54806 1.10765 0
M  V30 8472 H 792.943 -6.2314 1.77766 0
M  V30 8473 N 786.349 -0.21828 -1.56081 0
M  V30 8474 C 787.296 0.693189 -2.20144 0
M  V30 8475 C 788.266 1.19274 -1.15598 0
M  V30 8476 O 789.451 1.25243 -1.4394 0
M  V30 8477 C 786.591 1.89715 -2.88275 0
M  V30 8478 C 785.704 1.4368 -4.07407 0
M  V30 8479 C 784.839 2.59807 -4.63329 0
M  V30 8480 C 783.878 2.10492 -5.74769 0
M  V30 8481 N 783.015 3.1988 -6.24997 0
M  V30 8482 H 787.855 0.14016 -2.9767 0
M  V30 8483 H 785.392 0.0574292 -1.46988 0
M  V30 8484 H 787.35 2.60398 -3.25958 0
M  V30 8485 H 785.98 2.42311 -2.13273 0
M  V30 8486 H 785.032 0.625007 -3.7523 0
M  V30 8487 H 786.344 1.03517 -4.8794 0
M  V30 8488 H 785.498 3.38577 -5.03438 0
M  V30 8489 H 784.237 3.03256 -3.81951 0
M  V30 8490 H 783.242 1.30182 -5.34165 0
M  V30 8491 H 784.467 1.68045 -6.5798 0
M  V30 8492 H 782.413 3.62817 -5.46534 0
M  V30 8493 H 782.33 2.83958 -7.00645 0
M  V30 8494 H 783.598 3.98796 -6.69763 0
M  V30 8495 N 787.827 1.57504 0.0551401 0
M  V30 8496 C 788.76 2.00155 1.09604 0
M  V30 8497 C 789.738 0.881274 1.36647 0
M  V30 8498 O 790.922 1.14498 1.49742 0
M  V30 8499 C 788.049 2.35246 2.43674 0
M  V30 8500 C 787.095 3.57452 2.32659 0
M  V30 8501 S 787.928 5.07639 1.7048 0
M  V30 8502 C 789.084 5.45947 3.06093 0
M  V30 8503 H 789.317 2.88131 0.732635 0
M  V30 8504 H 786.85 1.52122 0.264252 0
M  V30 8505 H 788.808 2.56136 3.20787 0
M  V30 8506 H 787.469 1.47769 2.7717 0
M  V30 8507 H 786.662 3.79576 3.31569 0
M  V30 8508 H 786.264 3.36279 1.63685 0
M  V30 8509 H 788.556 5.45036 4.0242 0
M  V30 8510 H 789.499 6.4656 2.88732 0
M  V30 8511 H 789.907 4.73419 3.07466 0
M  V30 8512 N 789.305 -0.326896 1.54172 0
M  V30 8513 C 790.215 -1.42525 1.86343 0
M  V30 8514 C 791.231 -1.56764 0.75505 0
M  V30 8515 O 792.407 -1.71924 1.04901 0
M  V30 8516 C 789.472 -2.77286 2.08119 0
M  V30 8517 C 788.533 -2.7225 3.31931 0
M  V30 8518 C 787.766 -4.00584 3.52659 0
M  V30 8519 O 787.989 -4.98686 2.76891 0
M  V30 8520 O 786.923 -4.04045 4.46129 0
M  V30 8521 H 790.749 -1.18249 2.79734 0
M  V30 8522 H 788.334 -0.520614 1.40036 0
M  V30 8523 H 790.216 -3.57065 2.23791 0
M  V30 8524 H 788.891 -3.01459 1.17917 0
M  V30 8525 H 787.798 -1.91033 3.21647 0
M  V30 8526 H 789.131 -2.53032 4.2218 0
M  V30 8527 N 790.784 -1.46188 -0.588786 0
M  V30 8528 C 792.195 -1.45421 -1.17088 0
M  V30 8529 C 792.546 -0.191801 -1.9526 0
M  V30 8530 O 791.671 0.705497 -2.04577 0
M  V30 8531 C 792.266 -2.63467 -2.13004 0
M  V30 8532 C 790.825 -2.6576 -2.6655 0
M  V30 8533 C 789.972 -2.38002 -1.42304 0
M  V30 8534 H 792.923 -1.54156 -0.377052 0
M  V30 8535 H 792.944 -2.38638 -2.96365 0
M  V30 8536 H 792.456 -3.55331 -1.56081 0
M  V30 8537 H 790.557 -1.77952 -3.27359 0
M  V30 8538 H 790.67 -3.65545 -3.09699 0
M  V30 8539 H 789.034 -1.87936 -1.71907 0
M  V30 8540 H 789.817 -3.32035 -0.872209 0
M  V30 8541 N 792.262 0.832906 -1.33792 0
M  V30 8542 C 793.209 1.94314 -1.24541 0
M  V30 8543 C 794.179 1.65646 -0.122753 0
M  V30 8544 O 795.364 1.88394 -0.30204 0
M  V30 8545 C 792.504 3.30395 -0.996641 0
M  V30 8546 C 791.617 3.71422 -2.20612 0
M  V30 8547 C 790.752 4.96401 -1.89101 0
M  V30 8548 C 789.791 5.2998 -3.06247 0
M  V30 8549 N 788.928 6.46137 -2.74685 0
M  V30 8550 H 793.768 2.01559 -2.19495 0
M  V30 8551 H 791.305 0.986243 -1.09141 0
M  V30 8552 H 793.263 4.08803 -0.832817 0
M  V30 8553 H 791.893 3.22691 -0.0838242 0
M  V30 8554 H 790.945 2.88488 -2.47949 0
M  V30 8555 H 792.257 3.92215 -3.0817 0
M  V30 8556 H 791.411 5.82572 -1.69396 0
M  V30 8557 H 790.15 4.7759 -0.987882 0
M  V30 8558 H 789.155 4.42312 -3.26559 0
M  V30 8559 H 790.38 5.50737 -3.97323 0
M  V30 8560 H 788.326 6.28801 -1.86938 0
M  V30 8561 H 788.243 6.67054 -3.55774 0
M  V30 8562 H 789.511 7.35403 -2.58461 0
M  V30 8563 N 793.74 1.17359 1.05189 0
M  V30 8564 C 795.017 0.871914 1.75091 0
M  V30 8565 C 795.397 -0.627821 2.01548 0
M  V30 8566 O 794.745 -1.5791 1.65156 0
M  V30 8567 C 794.955 1.70687 3.04413 0
M  V30 8568 C 796.303 1.92684 3.78362 0
M  V30 8569 O 797.327 1.67645 3.14282 0
M  V30 8570 O 796.186 2.34765 4.93505 0
M  V30 8571 H 793.28 0.322831 0.761386 0
M  V30 8572 H 795.826 1.28054 1.11357 0
M  V30 8573 H 794.598 2.72405 2.80911 0
M  V30 8574 H 794.221 1.29602 3.75884 0
M  V30 8575 N 795.218 -1.23913 0.973828 0
M  V30 8576 C 796.165 -2.25132 0.508366 0
M  V30 8577 C 797.135 -1.59908 -0.449307 0
M  V30 8578 O 798.32 -1.87405 -0.358313 0
M  V30 8579 C 795.46 -3.4458 -0.189422 0
M  V30 8580 C 794.573 -4.24381 0.807738 0
M  V30 8581 C 793.708 -5.31131 0.0854315 0
M  V30 8582 C 792.747 -6.02635 1.07225 0
M  V30 8583 N 791.884 -7.01073 0.379535 0
M  V30 8584 H 796.724 -2.64313 1.37632 0
M  V30 8585 H 794.261 -1.29924 0.689802 0
M  V30 8586 H 796.219 -4.12706 -0.610733 0
M  V30 8587 H 794.849 -3.06218 -1.02129 0
M  V30 8588 H 793.901 -3.55735 1.34747 0
M  V30 8589 H 795.213 -4.73778 1.55998 0
M  V30 8590 H 794.367 -6.05422 -0.393572 0
M  V30 8591 H 793.106 -4.82658 -0.699461 0
M  V30 8592 H 792.111 -5.27143 1.56207 0
M  V30 8593 H 793.336 -6.53197 1.85769 0
M  V30 8594 H 791.282 -6.54862 -0.386269 0
M  V30 8595 H 791.199 -7.48382 1.07054 0
M  V30 8596 H 792.467 -7.79462 -0.0772984 0
M  V30 8597 N 796.696 -0.74468 -1.38897 0
M  V30 8598 C 797.973 -0.222773 -1.94327 0
M  V30 8599 C 798.353 1.27731 -1.68071 0
M  V30 8600 O 797.701 2.04754 -1.01429 0
M  V30 8601 C 797.911 -0.566836 -3.44366 0
M  V30 8602 C 799.259 -0.521531 -4.21385 0
M  V30 8603 O 800.283 -0.504599 -3.52608 0
M  V30 8604 O 799.142 -0.524595 -5.43976 0
M  V30 8605 H 796.236 -0.0439259 -0.825833 0
M  V30 8606 H 798.782 -0.824197 -1.48341 0
M  V30 8607 H 797.554 -1.60321 -3.56949 0
M  V30 8608 H 797.177 0.0630577 -3.9755 0
M  V30 8609 N 798.174 1.49689 -0.493057 0
M  V30 8610 C 799.106 2.26867 0.326195 0
M  V30 8611 C 800.119 1.33083 0.937697 0
M  V30 8612 O 801.308 1.58427 0.822382 0
M  V30 8613 C 798.408 3.0519 1.4735 0
M  V30 8614 C 797.581 4.26491 0.970767 0
M  V30 8615 C 796.64 4.86926 1.99473 0
M  V30 8616 O 795.666 5.47221 1.56647 0
M  V30 8617 N 796.868 4.75871 3.32456 0
M  V30 8618 H 799.633 2.97816 -0.335547 0
M  V30 8619 H 797.194 1.58602 -0.325129 0
M  V30 8620 H 799.186 3.42496 2.15589 0
M  V30 8621 H 797.756 2.369 2.03954 0
M  V30 8622 H 796.976 3.94036 0.113529 0
M  V30 8623 H 798.264 5.05092 0.613156 0
M  V30 8624 H 797.662 4.2797 3.69944 0
M  V30 8625 H 796.219 5.17383 3.96431 0
M  V30 8626 N 799.652 0.226554 1.55963 0
M  V30 8627 C 800.562 -0.692725 2.24139 0
M  V30 8628 C 801.578 -1.20971 1.25068 0
M  V30 8629 O 802.754 -1.25027 1.57893 0
M  V30 8630 C 799.819 -1.88183 2.91184 0
M  V30 8631 C 798.88 -1.40633 4.05612 0
M  V30 8632 C 798.113 -2.53875 4.6945 0
M  V30 8633 O 798.336 -3.72129 4.32292 0
M  V30 8634 O 797.27 -2.24792 5.58348 0
M  V30 8635 H 801.096 -0.141921 3.03368 0
M  V30 8636 H 798.681 -0.0041049 1.49399 0
M  V30 8637 H 800.563 -2.57617 3.33484 0
M  V30 8638 H 799.238 -2.42064 2.14911 0
M  V30 8639 H 798.145 -0.67986 3.67871 0
M  V30 8640 H 799.478 -0.913838 4.83642 0
M  V30 8641 N 801.13 -1.57531 -0.0467866 0
M  V30 8642 C 802.376 -1.8873 -0.742218 0
M  V30 8643 C 802.709 -0.822084 -1.75941 0
M  V30 8644 O 801.984 0.164922 -1.938 0
M  V30 8645 C 802.267 -3.30586 -1.42776 0
M  V30 8646 C 802.12 -4.47785 -0.425285 0
M  V30 8647 C 803.439 -3.71068 -2.36636 0
M  V30 8648 H 800.558 -0.686406 -0.268359 0
M  V30 8649 H 803.2 -1.89999 -0.00511341 0
M  V30 8650 H 801.35 -3.29634 -2.05605 0
M  V30 8651 H 803.022 -4.60867 0.199721 0
M  V30 8652 H 801.265 -4.33037 0.25713 0
M  V30 8653 H 801.936 -5.43884 -0.943086 0
M  V30 8654 H 804.412 -3.73273 -1.83866 0
M  V30 8655 H 803.288 -4.71165 -2.81593 0
M  V30 8656 H 803.549 -3.02355 -3.22542 0
M  V30 8657 N 802.608 0.318715 -1.54344 0
M  V30 8658 C 803.538 1.39751 -1.87061 0
M  V30 8659 C 804.519 1.53741 -0.727848 0
M  V30 8660 O 805.704 1.67541 -0.982016 0
M  V30 8661 C 802.834 2.76446 -2.10226 0
M  V30 8662 C 801.788 2.77239 -3.26071 0
M  V30 8663 C 801.114 4.17056 -3.34617 0
M  V30 8664 C 802.414 2.40555 -4.63606 0
M  V30 8665 H 804.108 1.12619 -2.77412 0
M  V30 8666 H 801.654 0.540318 -1.33479 0
M  V30 8667 H 803.607 3.51985 -2.31699 0
M  V30 8668 H 802.331 3.05066 -1.16629 0
M  V30 8669 H 800.99 2.04155 -3.04493 0
M  V30 8670 H 800.638 4.42824 -2.3857 0
M  V30 8671 H 800.338 4.18492 -4.12478 0
M  V30 8672 H 801.862 4.94401 -3.5833 0
M  V30 8673 H 803.276 3.05808 -4.84927 0
M  V30 8674 H 801.673 2.53234 -5.44052 0
M  V30 8675 H 802.743 1.35698 -4.65526 0
M  V30 8676 N 804.086 1.46499 0.581025 0
M  V30 8677 C 805.016 1.60052 1.70017 0
M  V30 8678 C 805.997 0.450788 1.64018 0
M  V30 8679 O 807.182 0.677237 1.82009 0
M  V30 8680 C 804.312 1.5921 3.08658 0
M  V30 8681 C 803.266 2.73169 3.29488 0
M  V30 8682 C 802.592 2.57389 4.68674 0
M  V30 8683 C 803.892 4.14978 3.1716 0
M  V30 8684 H 805.586 2.53735 1.5893 0
M  V30 8685 H 803.132 1.22113 0.763173 0
M  V30 8686 H 805.085 1.67285 3.86773 0
M  V30 8687 H 803.809 0.620718 3.20647 0
M  V30 8688 H 802.468 2.64566 2.53773 0
M  V30 8689 H 802.116 1.58331 4.77431 0
M  V30 8690 H 801.816 3.33826 4.83564 0
M  V30 8691 H 803.34 2.67358 5.48956 0
M  V30 8692 H 804.754 4.24684 3.85119 0
M  V30 8693 H 803.151 4.92016 3.4357 0
M  V30 8694 H 804.221 4.35016 2.14218 0
M  V30 8695 N 805.565 -0.825799 1.34232 0
M  V30 8696 C 806.497 -1.94401 1.21413 0
M  V30 8697 C 807.51 -1.6218 0.141902 0
M  V30 8698 O 808.699 -1.74109 0.3935 0
M  V30 8699 C 805.799 -3.28257 0.842635 0
M  V30 8700 C 804.972 -3.88521 2.00924 0
M  V30 8701 C 804.031 -5.00752 1.61661 0
M  V30 8702 O 803.057 -5.19201 2.33279 0
M  V30 8703 N 804.259 -5.78084 0.52911 0
M  V30 8704 H 807.024 -2.05931 2.17744 0
M  V30 8705 H 804.585 -1.00223 1.27149 0
M  V30 8706 H 806.577 -4.00781 0.561822 0
M  V30 8707 H 805.147 -3.12585 -0.0304029 0
M  V30 8708 H 804.367 -3.08425 2.45495 0
M  V30 8709 H 805.655 -4.25516 2.78951 0
M  V30 8710 H 805.053 -5.65661 -0.0663322 0
M  V30 8711 H 803.61 -6.51072 0.308017 0
M  V30 8712 N 807.043 -1.17915 -1.04565 0
M  V30 8713 C 808.271 -0.99616 -1.8134 0
M  V30 8714 C 808.686 0.455509 -1.83223 0
M  V30 8715 O 808.043 1.31636 -1.26405 0
M  V30 8716 C 808.094 -1.53758 -3.27171 0
M  V30 8717 O 807.815 -2.93241 -3.25486 0
M  V30 8718 C 809.316 -1.40007 -4.2061 0
M  V30 8719 H 806.536 -0.352055 -0.571225 0
M  V30 8720 H 809.08 -1.56349 -1.31815 0
M  V30 8721 H 807.235 -1.01213 -3.73945 0
M  V30 8722 H 807.649 -3.18392 -4.16805 0
M  V30 8723 H 809.123 -1.82695 -5.2089 0
M  V30 8724 H 809.6 -0.348054 -4.37819 0
M  V30 8725 H 810.206 -1.916 -3.79697 0
M  V30 8726 N 808.521 1.23394 -0.980386 0
M  V30 8727 C 809.768 1.91809 -0.649261 0
M  V30 8728 C 810.096 1.765 0.817197 0
M  V30 8729 O 809.351 1.11979 1.60497 0
M  V30 8730 C 809.65 3.43542 -0.985588 0
M  V30 8731 C 809.316 3.79031 -2.44225 0
M  V30 8732 C 807.978 3.88429 -2.84035 0
M  V30 8733 C 810.33 3.96145 -3.38702 0
M  V30 8734 C 807.658 4.12368 -4.17336 0
M  V30 8735 C 810.01 4.21583 -4.71646 0
M  V30 8736 C 808.674 4.29203 -5.11215 0
M  V30 8737 H 807.944 0.70188 -0.237581 0
M  V30 8738 H 810.591 1.4642 -1.23424 0
M  V30 8739 H 808.896 3.90503 -0.318521 0
M  V30 8740 H 810.593 3.94708 -0.707596 0
M  V30 8741 H 807.183 3.7229 -2.12362 0
M  V30 8742 H 811.367 3.88274 -3.09123 0
M  V30 8743 H 806.623 4.1649 -4.47601 0
M  V30 8744 H 810.797 4.33769 -5.4481 0
M  V30 8745 H 808.424 4.47505 -6.14527 0
M  V30 8746 N 809.999 0.752036 1.385 0
M  V30 8747 C 810.929 0.138718 2.33088 0
M  V30 8748 C 811.91 -0.705318 1.54788 0
M  V30 8749 O 813.095 -0.646821 1.83112 0
M  V30 8750 C 810.225 -0.75641 3.38963 0
M  V30 8751 C 809.179 -0.0152239 4.27997 0
M  V30 8752 C 808.505 -1.0285 5.24715 0
M  V30 8753 C 809.805 1.15226 5.09431 0
M  V30 8754 H 811.499 0.928852 2.84627 0
M  V30 8755 H 809.045 0.448111 1.3685 0
M  V30 8756 H 810.998 -1.19513 4.04097 0
M  V30 8757 H 809.722 -1.57885 2.85902 0
M  V30 8758 H 808.381 0.404061 3.64366 0
M  V30 8759 H 808.029 -1.84496 4.67943 0
M  V30 8760 H 807.729 -0.537238 5.85139 0
M  V30 8761 H 809.253 -1.46657 5.92726 0
M  V30 8762 H 810.667 0.791161 5.67815 0
M  V30 8763 H 809.064 1.57428 5.79082 0
M  V30 8764 H 810.134 1.9659 4.43261 0
M  V30 8765 N 811.477 -1.49425 0.500989 0
M  V30 8766 C 812.754 -1.9531 -0.106551 0
M  V30 8767 C 813.134 -1.44248 -1.54129 0
M  V30 8768 O 812.482 -0.656237 -2.18874 0
M  V30 8769 C 812.692 -3.48995 -0.0191972 0
M  V30 8770 C 814.04 -4.24161 -0.193129 0
M  V30 8771 O 815.064 -3.56075 -0.0943843 0
M  V30 8772 O 813.923 -5.45064 -0.395869 0
M  V30 8773 H 811.017 -0.82149 -0.0953068 0
M  V30 8774 H 813.563 -1.6007 0.563526 0
M  V30 8775 H 812.335 -3.78794 0.981353 0
M  V30 8776 H 811.958 -3.90852 -0.72942 0
M  V30 8777 N 812.955 -0.234822 -1.55841 0
M  V30 8778 C 814.232 0.442961 -1.90518 0
M  V30 8779 C 814.612 1.76768 -1.15397 0
M  V30 8780 O 813.96 2.26928 -0.267534 0
M  V30 8781 C 814.17 0.622905 -3.43396 0
M  V30 8782 C 815.518 0.9243 -4.14417 0
M  V30 8783 O 816.542 0.709211 -3.49068 0
M  V30 8784 O 815.401 1.33323 -5.29988 0
M  V30 8785 H 812.495 0.236042 -0.792599 0
M  V30 8786 H 815.041 -0.277992 -1.67408 0
M  V30 8787 H 813.813 -0.310973 -3.90062 0
M  V30 8788 H 813.436 1.39485 -3.7233 0
M  V30 8789 N 814.433 1.57553 0.0384317 0
M  V30 8790 C 815.396 2.04927 1.02653 0
M  V30 8791 C 816.396 0.951768 1.29607 0
M  V30 8792 O 817.586 1.21568 1.24768 0
M  V30 8793 C 814.718 2.45828 2.36181 0
M  V30 8794 H 815.911 2.93474 0.617508 0
M  V30 8795 H 813.464 1.53679 0.285031 0
M  V30 8796 H 814.199 1.60408 2.8185 0
M  V30 8797 H 813.984 3.25945 2.1795 0
M  V30 8798 H 815.474 2.82939 3.0714 0
M  V30 8799 N 815.911 -0.310526 1.54511 0
M  V30 8800 C 817.136 -1.07046 1.7764 0
M  V30 8801 C 817.561 -1.80488 0.529696 0
M  V30 8802 O 816.919 -1.73702 -0.519361 0
M  V30 8803 C 816.967 -2.03411 2.97752 0
M  V30 8804 O 816.071 -3.11545 2.7021 0
M  V30 8805 H 815.412 -0.307994 0.588248 0
M  V30 8806 H 817.942 -0.350848 2.01569 0
M  V30 8807 H 817.952 -2.46048 3.2546 0
M  V30 8808 H 816.627 -1.49361 3.88155 0
M  V30 8809 H 815.204 -2.7349 2.53491 0
M  V30 8810 N 817.389 -1.46805 -0.573248 0
M  V30 8811 C 818.8 -1.46655 -1.15539 0
M  V30 8812 C 819.151 -0.2125 -1.95046 0
M  V30 8813 O 818.276 0.683759 -2.05314 0
M  V30 8814 C 818.871 -2.65711 -2.10198 0
M  V30 8815 C 817.43 -2.68572 -2.63716 0
M  V30 8816 C 816.577 -2.39498 -1.39772 0
M  V30 8817 H 819.528 -1.54547 -0.36068 0
M  V30 8818 H 819.549 -2.41768 -2.93817 0
M  V30 8819 H 819.061 -3.56967 -1.52303 0
M  V30 8820 H 817.162 -1.81414 -3.25453 0
M  V30 8821 H 817.275 -3.68809 -3.05805 0
M  V30 8822 H 815.639 -1.89749 -1.69904 0
M  V30 8823 H 816.422 -3.32942 -0.836943 0
M  V30 8824 N 818.867 0.818669 -1.34668 0
M  V30 8825 C 820.115 1.57201 -1.27013 0
M  V30 8826 C 820.436 1.94354 0.158599 0
M  V30 8827 O 819.706 1.62626 1.09223 0
M  V30 8828 H 818.286 0.582919 -0.467135 0
M  V30 8829 H 820.948 0.977234 -1.6863 0
M  V30 8830 H 820.044 2.49291 -1.87778 0
M  V30 8831 N 820.346 1.18468 1.03938 0
M  V30 8832 C 821.623 0.890435 1.74157 0
M  V30 8833 C 822.003 -0.606409 2.02203 0
M  V30 8834 O 821.351 -1.5615 1.66822 0
M  V30 8835 C 821.561 1.73906 3.02585 0
M  V30 8836 C 822.909 1.96686 3.76297 0
M  V30 8837 O 823.933 1.70969 3.12487 0
M  V30 8838 O 822.792 2.39986 4.90988 0
M  V30 8839 H 819.886 0.330889 0.757919 0
M  V30 8840 H 822.432 1.29228 1.09992 0
M  V30 8841 H 821.204 2.75369 2.78006 0
M  V30 8842 H 820.827 1.33581 3.74489 0
M  V30 8843 N 821.824 -1.22873 0.986916 0
M  V30 8844 C 822.771 -2.2458 0.532215 0
M  V30 8845 C 823.741 -1.60375 -0.432322 0
M  V30 8846 O 824.926 -1.87775 -0.338416 0
M  V30 8847 C 822.066 -3.44761 -0.152864 0
M  V30 8848 C 821.179 -4.23501 0.852704 0
M  V30 8849 C 820.314 -5.31011 0.14176 0
M  V30 8850 C 819.353 -6.01464 1.1361 0
M  V30 8851 N 818.49 -7.00631 0.453871 0
M  V30 8852 H 823.33 -2.62838 1.40428 0
M  V30 8853 H 820.867 -1.29185 0.703543 0
M  V30 8854 H 822.825 -4.1333 -0.566926 0
M  V30 8855 H 821.455 -3.07284 -0.988756 0
M  V30 8856 H 820.507 -3.54286 1.38512 0
M  V30 8857 H 821.819 -4.72097 1.61014 0
M  V30 8858 H 820.973 -6.05805 -0.329337 0
M  V30 8859 H 819.712 -4.83373 -0.648229 0
M  V30 8860 H 818.717 -5.25456 1.61789 0
M  V30 8861 H 819.942 -6.5119 1.92686 0
M  V30 8862 H 817.888 -6.55235 -0.316791 0
M  V30 8863 H 817.805 -7.47204 1.14986 0
M  V30 8864 H 819.073 -7.795 0.00537823 0
M  V30 8865 N 823.302 -0.75937 -1.38099 0
M  V30 8866 C 824.718 -0.437606 -1.53483 0
M  V30 8867 C 824.918 1.04849 -1.72072 0
M  V30 8868 O 823.974 1.83448 -1.73502 0
M  V30 8869 C 825.287 -1.24189 -2.73857 0
M  V30 8870 C 826.835 -1.23255 -2.8771 0
M  V30 8871 C 827.31 -2.01992 -4.11051 0
M  V30 8872 N 828.801 -1.99282 -4.1814 0
M  V30 8873 C 829.536 -2.56996 -5.12583 0
M  V30 8874 N 829.032 -3.23446 -6.12662 0
M  V30 8875 N 830.825 -2.46894 -5.04975 0
M  V30 8876 H 822.976 -1.72242 -1.24283 0
M  V30 8877 H 825.239 -0.730507 -0.604205 0
M  V30 8878 H 824.945 -2.29449 -2.66545 0
M  V30 8879 H 824.819 -0.862672 -3.67203 0
M  V30 8880 H 827.206 -0.187988 -2.94501 0
M  V30 8881 H 827.287 -1.65132 -1.95359 0
M  V30 8882 H 826.931 -3.06462 -4.05023 0
M  V30 8883 H 826.861 -1.57505 -5.02494 0
M  V30 8884 H 829.352 -1.50893 -3.46467 0
M  V30 8885 H 829.665 -3.6489 -6.81231 0
M  V30 8886 H 828.01 -3.27543 -6.12977 0
M  V30 8887 H 831.201 -1.94604 -4.25731 0
M  V30 8888 H 831.374 -2.92168 -5.78396 0
M  V30 8889 N 824.78 1.49157 -0.508906 0
M  V30 8890 C 825.71 2.32109 0.254469 0
M  V30 8891 C 826.691 1.40754 0.955111 0
M  V30 8892 O 827.876 1.69658 0.944983 0
M  V30 8893 C 825.006 3.21458 1.3146 0
M  V30 8894 C 823.96 4.2167 0.733368 0
M  V30 8895 C 823.286 5.00009 1.8946 0
M  V30 8896 C 824.586 5.21544 -0.280875 0
M  V30 8897 H 826.28 2.9618 -0.43795 0
M  V30 8898 H 823.826 1.4243 -0.212062 0
M  V30 8899 H 825.779 3.78305 1.85643 0
M  V30 8900 H 824.503 2.55346 2.03632 0
M  V30 8901 H 823.162 3.65979 0.213231 0
M  V30 8902 H 822.81 4.30338 2.60419 0
M  V30 8903 H 822.51 5.67821 1.51173 0
M  V30 8904 H 824.034 5.59702 2.44061 0
M  V30 8905 H 825.448 5.73039 0.173095 0
M  V30 8906 H 823.845 5.97291 -0.580006 0
M  V30 8907 H 824.915 4.69969 -1.19404 0
M  V30 8908 N 826.258 0.243083 1.55714 0
M  V30 8909 C 827.221 -0.644723 2.19945 0
M  V30 8910 C 828.221 -1.10562 1.16759 0
M  V30 8911 O 829.411 -1.01095 1.41865 0
M  V30 8912 C 826.543 -1.88569 2.83997 0
M  V30 8913 H 827.736 -0.0843839 2.99781 0
M  V30 8914 H 825.289 -0.00647246 1.56299 0
M  V30 8915 H 826.024 -2.48736 2.08089 0
M  V30 8916 H 825.809 -1.56345 3.59581 0
M  V30 8917 H 827.299 -2.51774 3.33166 0
M  V30 8918 N 827.736 -1.57571 -0.0300757 0
M  V30 8919 C 828.699 -2.05468 -1.01565 0
M  V30 8920 C 829.699 -0.958628 -1.29101 0
M  V30 8921 O 830.889 -1.22228 -1.24121 0
M  V30 8922 C 828.021 -2.47077 -2.34874 0
M  V30 8923 H 829.214 -2.93797 -0.601936 0
M  V30 8924 H 826.767 -1.53828 -0.276878 0
M  V30 8925 H 827.502 -1.61901 -2.80996 0
M  V30 8926 H 827.287 -3.27097 -2.16218 0
M  V30 8927 H 828.777 -2.84564 -3.05635 0
M  V30 8928 N 829.214 0.302327 -1.54673 0
M  V30 8929 C 830.444 1.05516 -1.77623 0
M  V30 8930 C 830.852 1.81474 -0.535159 0
M  V30 8931 O 830.195 1.76635 0.504543 0
M  V30 8932 C 830.257 2.08305 -2.93001 0
M  V30 8933 C 829.921 1.51554 -4.31139 0
M  V30 8934 C 830.918 0.946261 -5.11216 0
M  V30 8935 C 828.603 1.55157 -4.77736 0
M  V30 8936 C 830.597 0.420559 -6.36011 0
M  V30 8937 C 828.284 1.022 -6.02494 0
M  V30 8938 C 829.282 0.457461 -6.81466 0
M  V30 8939 O 828.97 -0.064083 -8.03874 0
M  V30 8940 H 828.702 0.318756 -0.59613 0
M  V30 8941 H 831.256 0.347558 -2.02438 0
M  V30 8942 H 829.486 2.82742 -2.63807 0
M  V30 8943 H 831.175 2.69479 -3.03539 0
M  V30 8944 H 831.941 0.911338 -4.76361 0
M  V30 8945 H 827.82 1.98037 -4.16296 0
M  V30 8946 H 831.364 -0.0207298 -6.97597 0
M  V30 8947 H 827.261 1.05406 -6.36836 0
M  V30 8948 H 828.029 0.0493422 -8.18485 0
M  V30 8949 N 830.692 1.47107 0.565454 0
M  V30 8950 C 831.622 1.61846 1.68309 0
M  V30 8951 C 832.603 0.468159 1.63531 0
M  V30 8952 O 833.788 0.696504 1.8128 0
M  V30 8953 C 830.918 1.62474 3.06952 0
M  V30 8954 C 829.872 2.76649 3.26572 0
M  V30 8955 C 829.198 2.62345 4.65917 0
M  V30 8956 C 830.498 4.18319 3.12741 0
M  V30 8957 H 832.192 2.55407 1.5623 0
M  V30 8958 H 829.738 1.22916 0.750179 0
M  V30 8959 H 831.691 1.71378 3.84977 0
M  V30 8960 H 830.415 0.654692 3.19971 0
M  V30 8961 H 829.074 2.67242 2.50952 0
M  V30 8962 H 828.722 1.63386 4.75725 0
M  V30 8963 H 828.422 3.38936 4.79996 0
M  V30 8964 H 829.946 2.73165 5.46089 0
M  V30 8965 H 831.36 4.28745 3.80593 0
M  V30 8966 H 829.757 4.95632 3.38333 0
M  V30 8967 H 830.827 4.37263 2.09592 0
M  V30 8968 N 832.17 -0.811516 1.35101 0
M  V30 8969 C 833.103 -1.92872 1.21966 0
M  V30 8970 C 834.081 -1.62236 0.108667 0
M  V30 8971 O 835.265 -1.8647 0.275875 0
M  V30 8972 C 832.392 -3.27152 0.876886 0
M  V30 8973 C 831.438 -3.7674 1.99924 0
M  V30 8974 S 832.271 -3.95132 3.61429 0
M  V30 8975 C 833.427 -5.32322 3.29218 0
M  V30 8976 H 833.66 -2.03718 2.16532 0
M  V30 8977 H 831.193 -0.968352 1.20259 0
M  V30 8978 H 833.151 -4.04729 0.685917 0
M  V30 8979 H 831.812 -3.14059 -0.0506289 0
M  V30 8980 H 831.005 -4.73981 1.71343 0
M  V30 8981 H 830.607 -3.06145 2.14829 0
M  V30 8982 H 832.899 -6.1614 2.8174 0
M  V30 8983 H 833.842 -5.65893 4.25641 0
M  V30 8984 H 834.25 -4.98374 2.65111 0
M  V30 8985 N 833.648 -1.19017 -1.03309 0
M  V30 8986 C 834.578 -0.94772 -2.13402 0
M  V30 8987 C 835.559 0.117383 -1.69694 0
M  V30 8988 O 836.744 -0.0367733 -1.94165 0
M  V30 8989 C 833.874 -0.480977 -3.43953 0
M  V30 8990 C 832.828 -1.48743 -4.01322 0
M  V30 8991 C 832.154 -0.877924 -5.27443 0
M  V30 8992 C 833.454 -2.86642 -4.36616 0
M  V30 8993 H 835.148 -1.86846 -2.33942 0
M  V30 8994 H 832.694 -0.899781 -1.12427 0
M  V30 8995 H 834.647 -0.298677 -4.2034 0
M  V30 8996 H 833.371 0.475348 -3.23122 0
M  V30 8997 H 832.03 -1.65681 -3.27025 0
M  V30 8998 H 831.678 0.0858232 -5.02927 0
M  V30 8999 H 831.378 -1.54996 -5.66789 0
M  V30 9000 H 832.902 -0.706326 -6.06501 0
M  V30 9001 H 834.316 -2.73312 -5.03958 0
M  V30 9002 H 832.713 -3.50599 -4.87032 0
M  V30 9003 H 833.783 -3.39617 -3.46105 0
M  V30 9004 N 835.127 1.22348 -0.993418 0
M  V30 9005 C 836.06 2.22898 -0.489073 0
M  V30 9006 C 837.038 1.56222 0.450927 0
M  V30 9007 O 838.222 1.84705 0.376351 0
M  V30 9008 C 835.349 3.37448 0.290946 0
M  V30 9009 C 834.395 4.22328 -0.595123 0
M  V30 9010 S 835.228 4.94677 -2.05072 0
M  V30 9011 C 836.384 6.12667 -1.28021 0
M  V30 9012 H 836.617 2.65333 -1.34111 0
M  V30 9013 H 834.15 1.32032 -0.800429 0
M  V30 9014 H 836.108 4.03867 0.734944 0
M  V30 9015 H 834.769 2.93519 1.11826 0
M  V30 9016 H 833.962 5.04 0.00507413 0
M  V30 9017 H 833.564 3.61043 -0.975906 0
M  V30 9018 H 835.856 6.75279 -0.548129 0
M  V30 9019 H 836.799 6.771 -2.07223 0
M  V30 9020 H 837.207 5.58898 -0.793272 0
M  V30 9021 N 836.605 0.766683 1.37694 0
M  V30 9022 C 838.021 0.445739 1.53249 0
M  V30 9023 C 838.221 -1.03935 1.72626 0
M  V30 9024 O 837.277 -1.82525 1.74473 0
M  V30 9025 C 838.59 1.2564 2.73194 0
M  V30 9026 C 840.138 1.24779 2.87053 0
M  V30 9027 C 840.613 2.04169 4.09974 0
M  V30 9028 N 842.104 2.01497 4.17077 0
M  V30 9029 C 842.839 2.5971 5.11212 0
M  V30 9030 N 842.335 3.26691 6.10938 0
M  V30 9031 N 844.128 2.49568 5.03659 0
M  V30 9032 H 836.279 1.72899 1.23368 0
M  V30 9033 H 838.542 0.733701 0.600322 0
M  V30 9034 H 838.248 2.30859 2.65324 0
M  V30 9035 H 838.122 0.882133 3.6674 0
M  V30 9036 H 840.509 0.203603 2.94397 0
M  V30 9037 H 840.59 1.66166 1.9448 0
M  V30 9038 H 840.234 3.08606 4.03392 0
M  V30 9039 H 840.164 1.60167 5.01651 0
M  V30 9040 H 842.655 1.52728 3.45662 0
M  V30 9041 H 842.968 3.68497 6.79286 0
M  V30 9042 H 841.313 3.30789 6.11231 0
M  V30 9043 H 844.504 1.96859 4.24693 0
M  V30 9044 H 844.677 2.95231 5.76839 0
M  V30 9045 N 838.083 -1.48885 0.516809 0
M  V30 9046 C 839.308 -2.0739 -0.0205201 0
M  V30 9047 C 839.733 -1.37259 -1.28614 0
M  V30 9048 O 839.091 -0.434304 -1.76021 0
M  V30 9049 C 839.139 -3.59793 -0.24104 0
M  V30 9050 O 838.243 -3.90957 -1.31251 0
M  V30 9051 H 837.584 -0.663167 0.0332564 0
M  V30 9052 H 840.114 -1.91477 0.720956 0
M  V30 9053 H 840.124 -4.0531 -0.467737 0
M  V30 9054 H 838.799 -4.10244 0.68356 0
M  V30 9055 H 837.376 -3.57234 -1.06951 0
M  V30 9056 N 839.561 -0.251338 -1.55583 0
M  V30 9057 C 840.972 0.25098 -1.85005 0
M  V30 9058 C 841.323 1.57259 -1.17321 0
M  V30 9059 O 840.448 2.11603 -0.453136 0
M  V30 9060 C 841.043 0.462161 -3.35633 0
M  V30 9061 C 839.602 0.908737 -3.65266 0
M  V30 9062 C 838.749 -0.0115418 -2.77298 0
M  V30 9063 H 841.7 -0.473782 -1.51463 0
M  V30 9064 H 841.721 1.30415 -3.57452 0
M  V30 9065 H 841.233 -0.499886 -3.84867 0
M  V30 9066 H 839.334 1.8831 -3.21512 0
M  V30 9067 H 839.447 0.762526 -4.72993 0
M  V30 9068 H 837.811 0.500612 -2.49732 0
M  V30 9069 H 838.594 -0.969042 -3.29339 0
M  V30 9070 N 841.039 1.57585 0.0217189 0
M  V30 9071 C 842.264 1.94267 0.726309 0
M  V30 9072 C 842.689 0.851904 1.67703 0
M  V30 9073 O 842.047 -0.191792 1.80283 0
M  V30 9074 C 842.095 3.30023 1.45318 0
M  V30 9075 O 841.199 3.22791 2.5667 0
M  V30 9076 H 840.54 0.634777 0.194818 0
M  V30 9077 H 843.07 2.04585 -0.0249985 0
M  V30 9078 H 843.08 3.65084 1.82147 0
M  V30 9079 H 841.755 4.08972 0.755962 0
M  V30 9080 H 840.332 2.99373 2.2233 0
M  V30 9081 N 842.517 -0.29412 1.54831 0
M  V30 9082 C 843.449 -1.38476 1.82639 0
M  V30 9083 C 844.462 -1.46517 0.709694 0
M  V30 9084 O 845.651 -1.48712 0.987269 0
M  V30 9085 C 842.751 -2.76791 1.95551 0
M  V30 9086 C 841.924 -2.91599 3.26019 0
M  V30 9087 C 840.983 -4.10456 3.29261 0
M  V30 9088 O 840.009 -4.02214 4.02756 0
M  V30 9089 N 841.211 -5.21422 2.55145 0
M  V30 9090 H 843.976 -1.14974 2.76769 0
M  V30 9091 H 841.537 -0.484206 1.5449 0
M  V30 9092 H 843.529 -3.5456 1.95113 0
M  V30 9093 H 842.099 -2.93209 1.08384 0
M  V30 9094 H 841.319 -2.00886 3.39173 0
M  V30 9095 H 842.607 -2.98409 4.12104 0
M  V30 9096 H 842.005 -5.31 1.95078 0
M  V30 9097 H 840.562 -5.97501 2.60454 0
M  V30 9098 N 843.995 -1.47404 -0.557645 0
M  V30 9099 C 844.958 -1.59411 -1.64684 0
M  V30 9100 C 845.958 -0.469244 -1.53801 0
M  V30 9101 O 847.148 -0.734298 -1.57967 0
M  V30 9102 C 844.28 -1.5382 -3.04224 0
M  V30 9103 H 845.473 -2.56504 -1.55389 0
M  V30 9104 H 843.026 -1.35588 -0.777531 0
M  V30 9105 H 843.761 -0.581 -3.19053 0
M  V30 9106 H 843.546 -2.35456 -3.13533 0
M  V30 9107 H 845.036 -1.65358 -3.83466 0
M  V30 9108 N 845.473 0.80434 -1.35529 0
M  V30 9109 C 846.75 1.5486 -1.1949 0
M  V30 9110 C 847.13 2.09897 0.22506 0
M  V30 9111 O 846.478 1.92643 1.22886 0
M  V30 9112 C 846.688 2.65535 -2.26478 0
M  V30 9113 C 848.036 3.33814 -2.62399 0
M  V30 9114 O 849.06 2.75807 -2.25409 0
M  V30 9115 O 847.919 4.38612 -3.26009 0
M  V30 9116 H 845.013 0.68433 -0.464351 0
M  V30 9117 H 847.559 0.844107 -1.47217 0
M  V30 9118 H 846.331 2.22754 -3.21709 0
M  V30 9119 H 845.954 3.43617 -2.00033 0
M  V30 9120 N 846.951 1.19563 1.02676 0
M  V30 9121 C 848.2 0.993864 1.75514 0
M  V30 9122 C 848.513 -0.475882 1.89723 0
M  V30 9123 O 849.719 -0.796525 2.59553 0
M  V30 9124 C 848.175 1.72937 3.15628 0
M  V30 9125 C 847.783 3.23937 3.09466 0
M  V30 9126 C 849.527 1.61092 3.92746 0
M  V30 9127 C 847.434 3.90067 4.44524 0
M  V30 9128 H 846.364 0.368244 0.657961 0
M  V30 9129 H 849.015 1.43081 1.14891 0
M  V30 9130 H 847.397 1.22025 3.76731 0
M  V30 9131 H 848.571 3.81983 2.57731 0
M  V30 9132 H 846.886 3.3608 2.45843 0
M  V30 9133 H 849.483 2.07848 4.92649 0
M  V30 9134 H 849.826 0.565415 4.12442 0
M  V30 9135 H 850.359 2.09361 3.3825 0
M  V30 9136 H 847.098 4.94725 4.30032 0
M  V30 9137 H 846.618 3.36809 4.96306 0
M  V30 9138 H 848.297 3.93736 5.13401 0
M  V30 9139 N 848.429 -1.21819 0.999893 0
M  V30 9140 C 849.377 -2.26027 0.549047 0
M  V30 9141 C 850.371 -1.64516 -0.403826 0
M  V30 9142 O 851.577 -1.77878 -0.275578 0
M  V30 9143 H 847.952 -0.734958 0.159185 0
M  V30 9144 H 849.923 -2.61398 1.43923 0
M  V30 9145 C 848.672 -3.47514 -0.11369 0
M  V30 9146 H 847.995 -3.95112 0.610482 0
M  V30 9147 H 849.435 -4.22179 -0.3925 0
M  V30 9148 C 847.894 -3.08614 -1.35126 0
M  V30 9149 O 848.424 -3.1864 -2.44605 0
M  V30 9150 N 846.63 -2.63327 -1.22911 0
M  V30 9151 H 846.177 -2.55369 -0.338288 0
M  V30 9152 H 846.135 -2.37668 -2.05818 0
M  V30 9153 N 849.908 -0.773975 -1.37286 0
M  V30 9154 C 850.855 -0.159938 -2.30245 0
M  V30 9155 C 851.825 0.687356 -1.51211 0
M  V30 9156 O 853.01 0.639255 -1.79773 0
M  V30 9157 C 850.15 0.711452 -3.37687 0
M  V30 9158 C 849.263 -0.152692 -4.3173 0
M  V30 9159 C 848.398 0.723613 -5.26248 0
M  V30 9160 C 847.437 -0.14293 -6.11933 0
M  V30 9161 N 846.574 0.691479 -6.98687 0
M  V30 9162 H 851.414 -0.958182 -2.82175 0
M  V30 9163 H 848.951 -0.48411 -1.38906 0
M  V30 9164 H 850.909 1.2315 -3.9861 0
M  V30 9165 H 849.539 1.47528 -2.87116 0
M  V30 9166 H 848.591 -0.790574 -3.72094 0
M  V30 9167 H 849.903 -0.821027 -4.91997 0
M  V30 9168 H 849.057 1.31006 -5.92387 0
M  V30 9169 H 847.796 1.42562 -4.66398 0
M  V30 9170 H 846.801 -0.7419 -5.44771 0
M  V30 9171 H 848.026 -0.842305 -6.73856 0
M  V30 9172 H 845.972 1.37806 -6.41362 0
M  V30 9173 H 845.889 0.0804911 -7.55957 0
M  V30 9174 H 847.157 1.26225 -7.69212 0
M  V30 9175 N 851.386 1.48609 -0.524698 0
M  V30 9176 C 852.635 2.01696 0.0132937 0
M  V30 9177 C 852.948 1.40751 1.35825 0
M  V30 9178 O 854.154 1.85304 1.9843 0
M  V30 9179 C 852.61 3.59824 0.0741012 0
M  V30 9180 C 852.218 4.2975 -1.26564 0
M  V30 9181 C 853.962 4.20774 0.5612 0
M  V30 9182 C 851.869 5.79798 -1.16571 0
M  V30 9183 H 850.799 0.753949 0.00873931 0
M  V30 9184 H 853.45 1.70922 -0.667684 0
M  V30 9185 H 851.832 3.87416 0.820043 0
M  V30 9186 H 853.006 4.13836 -2.02674 0
M  V30 9187 H 851.321 3.80649 -1.68806 0
M  V30 9188 H 853.918 5.30687 0.653853 0
M  V30 9189 H 854.261 3.85734 1.56573 0
M  V30 9190 H 854.794 3.97591 -0.128901 0
M  V30 9191 H 851.533 6.19403 -2.14523 0
M  V30 9192 H 851.053 5.9814 -0.445894 0
M  V30 9193 H 852.732 6.41337 -0.854186 0
M  V30 9194 N 852.864 0.259585 1.55447 0
M  V30 9195 C 854.11 -0.362143 1.9954 0
M  V30 9196 C 854.443 -1.5666 1.14767 0
M  V30 9197 O 853.718 -1.93319 0.214025 0
M  V30 9198 C 854.001 -0.759588 3.51998 0
M  V30 9199 C 853.854 0.451134 4.47532 0
M  V30 9200 C 855.173 -1.60186 4.09913 0
M  V30 9201 H 852.292 -0.130157 0.725416 0
M  V30 9202 H 854.934 0.363431 1.86492 0
M  V30 9203 H 853.084 -1.3778 3.63248 0
M  V30 9204 H 854.756 1.08965 4.48246 0
M  V30 9205 H 852.999 1.092 4.19831 0
M  V30 9206 H 853.67 0.129518 5.51848 0
M  V30 9207 H 856.146 -1.0799 4.01842 0
M  V30 9208 H 855.022 -1.84879 5.16828 0
M  V30 9209 H 855.283 -2.57787 3.59163 0
M  V30 9210 N 854.342 -1.57594 -0.0133615 0
M  V30 9211 C 855.274 -2.04402 -1.03695 0
M  V30 9212 C 856.287 -0.959546 -1.31516 0
M  V30 9213 O 857.476 -1.23659 -1.28727 0
M  V30 9214 C 854.576 -2.41766 -2.37491 0
M  V30 9215 C 853.749 -3.72785 -2.28802 0
M  V30 9216 C 852.808 -3.97165 -3.45176 0
M  V30 9217 O 851.834 -4.68013 -3.23963 0
M  V30 9218 N 853.036 -3.44021 -4.67579 0
M  V30 9219 H 855.801 -2.92833 -0.637874 0
M  V30 9220 H 853.362 -1.60647 -0.20101 0
M  V30 9221 H 855.354 -2.55201 -3.14093 0
M  V30 9222 H 853.924 -1.58924 -2.69188 0
M  V30 9223 H 853.144 -3.69555 -1.37197 0
M  V30 9224 H 854.432 -4.58704 -2.20154 0
M  V30 9225 H 853.83 -2.86623 -4.87713 0
M  V30 9226 H 852.387 -3.62808 -5.41492 0
M  V30 9227 N 855.82 0.285905 -1.54985 0
M  V30 9228 C 857.069 1.01691 -1.74189 0
M  V30 9229 C 857.382 1.87908 -0.543135 0
M  V30 9230 O 858.588 2.64389 -0.617305 0
M  V30 9231 C 857.044 1.85785 -3.0824 0
M  V30 9232 C 856.652 1.04497 -4.35642 0
M  V30 9233 C 858.396 2.58393 -3.36798 0
M  V30 9234 C 856.303 1.87955 -5.60738 0
M  V30 9235 H 855.233 0.383396 -0.649248 0
M  V30 9236 H 857.884 0.27317 -1.81455 0
M  V30 9237 H 856.266 2.64205 -2.94978 0
M  V30 9238 H 857.44 0.305847 -4.59784 0
M  V30 9239 H 855.755 0.434023 -4.14132 0
M  V30 9240 H 858.352 3.21214 -4.27464 0
M  V30 9241 H 858.695 3.28011 -2.56349 0
M  V30 9242 H 859.228 1.87012 -3.511 0
M  V30 9243 H 855.967 1.22781 -6.43898 0
M  V30 9244 H 855.487 2.59499 -5.40759 0
M  V30 9245 H 857.166 2.45636 -5.98558 0
M  V30 9246 N 857.298 1.47698 0.54982 0
M  V30 9247 C 858.228 1.63622 1.66583 0
M  V30 9248 C 859.209 0.485477 1.63025 0
M  V30 9249 O 860.394 0.715692 1.80531 0
M  V30 9250 C 857.524 1.65721 3.05211 0
M  V30 9251 C 856.478 2.80097 3.2362 0
M  V30 9252 C 855.804 2.67272 4.63109 0
M  V30 9253 C 857.104 4.21612 3.08286 0
M  V30 9254 H 858.798 2.57049 1.53512 0
M  V30 9255 H 856.344 1.23705 0.737099 0
M  V30 9256 H 858.297 1.75451 3.83138 0
M  V30 9257 H 857.021 0.688593 3.19258 0
M  V30 9258 H 855.68 2.69889 2.48104 0
M  V30 9259 H 855.328 1.68422 4.73965 0
M  V30 9260 H 855.028 3.44008 4.76374 0
M  V30 9261 H 856.552 2.78942 5.43161 0
M  V30 9262 H 857.966 4.32758 3.76024 0
M  V30 9263 H 856.363 4.99193 3.33057 0
M  V30 9264 H 857.433 4.39462 2.04942 0
M  V30 9265 N 858.776 -0.797141 1.35954 0
M  V30 9266 C 860.187 -1.37179 1.26644 0
M  V30 9267 C 860.538 -1.9596 -0.0971046 0
M  V30 9268 O 859.663 -1.91994 -0.998355 0
M  V30 9269 C 860.258 -2.49395 2.2932 0
M  V30 9270 C 858.817 -3.02697 2.23722 0
M  V30 9271 C 857.964 -1.75721 2.14517 0
M  V30 9272 H 860.915 -0.599407 1.46945 0
M  V30 9273 H 860.936 -3.28204 1.92515 0
M  V30 9274 H 860.448 -2.06584 3.2855 0
M  V30 9275 H 858.549 -3.49948 1.27934 0
M  V30 9276 H 858.662 -3.60036 3.16087 0
M  V30 9277 H 857.026 -1.97649 1.60646 0
M  V30 9278 H 857.809 -1.35049 3.15621 0
M  V30 9279 N 860.254 -1.20106 -1.0204 0
M  V30 9280 C 861.5 -1.02042 -1.75951 0
M  V30 9281 C 861.855 0.443229 -1.87225 0
M  V30 9282 O 861.148 1.32477 -1.38421 0
M  V30 9283 C 861.342 -1.63308 -3.17908 0
M  V30 9284 C 861.171 -3.15478 -3.20474 0
M  V30 9285 C 859.941 -3.84432 -3.27933 0
M  V30 9286 C 862.139 -4.12747 -3.06829 0
M  V30 9287 N 860.121 -5.23925 -3.19963 0
M  V30 9288 C 861.492 -5.38892 -3.06586 0
M  V30 9289 C 863.547 -4.03996 -2.91018 0
M  V30 9290 C 862.25 -6.57296 -2.92154 0
M  V30 9291 C 864.276 -5.22019 -2.77938 0
M  V30 9292 C 863.638 -6.47067 -2.78358 0
M  V30 9293 H 859.737 -0.427602 -0.654737 0
M  V30 9294 H 862.321 -1.52216 -1.21402 0
M  V30 9295 H 860.492 -1.15723 -3.7076 0
M  V30 9296 H 862.224 -1.38597 -3.80227 0
M  V30 9297 H 858.979 -3.35269 -3.34502 0
M  V30 9298 H 859.403 -5.9694 -3.19362 0
M  V30 9299 H 864.045 -3.0813 -2.8951 0
M  V30 9300 H 861.763 -7.5334 -2.92412 0
M  V30 9301 H 865.349 -5.17057 -2.66728 0
M  V30 9302 H 864.229 -7.36857 -2.6835 0
M  V30 9303 N 861.732 1.21287 -1.00634 0
M  V30 9304 C 862.642 2.27388 -0.577226 0
M  V30 9305 C 863.658 1.69791 0.380399 0
M  V30 9306 O 864.834 1.99918 0.2439 0
M  V30 9307 C 861.899 3.46588 0.0880532 0
M  V30 9308 C 860.96 4.19453 -0.914222 0
M  V30 9309 C 860.193 5.32962 -0.280596 0
M  V30 9310 O 860.416 5.62895 0.922265 0
M  V30 9311 O 859.35 5.93666 -0.992196 0
M  V30 9312 H 863.176 2.66289 -1.46028 0
M  V30 9313 H 860.761 1.2771 -0.775283 0
M  V30 9314 H 862.643 4.18881 0.460094 0
M  V30 9315 H 861.318 3.09585 0.945461 0
M  V30 9316 H 860.225 3.49376 -1.33744 0
M  V30 9317 H 861.558 4.6037 -1.74126 0
M  V30 9318 N 863.21 0.781244 1.36873 0
M  V30 9319 C 864.142 0.132075 2.28819 0
M  V30 9320 C 865.155 -0.653925 1.49089 0
M  V30 9321 O 866.344 -0.490453 1.7163 0
M  V30 9322 C 863.444 -0.836297 3.28419 0
M  V30 9323 C 862.617 -0.102097 4.37281 0
M  V30 9324 C 861.676 -0.985217 5.16894 0
M  V30 9325 O 860.702 -0.445478 5.67454 0
M  V30 9326 N 861.904 -2.31043 5.3254 0
M  V30 9327 H 864.669 0.921838 2.85171 0
M  V30 9328 H 862.23 0.634427 1.48952 0
M  V30 9329 H 864.222 -1.43074 3.78566 0
M  V30 9330 H 862.792 -1.52698 2.72767 0
M  V30 9331 H 862.012 0.67335 3.88407 0
M  V30 9332 H 863.3 0.404862 5.07187 0
M  V30 9333 H 862.698 -2.77318 4.93063 0
M  V30 9334 H 861.255 -2.85472 5.8596 0
M  V30 9335 N 864.689 -1.48329 0.532571 0
M  V30 9336 C 865.637 -2.31336 -0.242133 0
M  V30 9337 C 866.631 -1.41391 -0.933006 0
M  V30 9338 O 867.837 -1.58284 -0.857096 0
M  V30 9339 H 864.212 -0.745724 -0.0969536 0
M  V30 9340 H 866.183 -2.94555 0.477504 0
M  V30 9341 C 864.932 -3.23501 -1.27446 0
M  V30 9342 H 864.255 -3.92659 -0.752261 0
M  V30 9343 H 865.695 -3.84461 -1.78789 0
M  V30 9344 C 864.154 -2.45288 -2.30944 0
M  V30 9345 O 864.684 -2.17955 -3.37429 0
M  V30 9346 N 862.89 -2.06737 -2.04226 0
M  V30 9347 H 862.437 -2.29166 -1.17647 0
M  V30 9348 H 862.395 -1.54719 -2.73696 0
M  V30 9349 N 866.167 -0.267825 -1.55308 0
M  V30 9350 C 867.077 0.633055 -2.25897 0
M  V30 9351 C 868.093 1.17613 -1.28231 0
M  V30 9352 O 869.269 1.20797 -1.61153 0
M  V30 9353 C 866.334 1.80397 -2.96071 0
M  V30 9354 C 865.395 1.29829 -4.09198 0
M  V30 9355 C 864.628 2.4134 -4.76016 0
M  V30 9356 O 864.851 3.60537 -4.42006 0
M  V30 9357 O 863.785 2.09909 -5.64111 0
M  V30 9358 H 867.611 0.0614381 -3.03638 0
M  V30 9359 H 865.196 -0.0355072 -1.49358 0
M  V30 9360 H 867.078 2.48685 -3.40197 0
M  V30 9361 H 865.753 2.36281 -2.21253 0
M  V30 9362 H 864.66 0.582086 -3.69544 0
M  V30 9363 H 865.993 0.785288 -4.85895 0
M  V30 9364 N 867.645 1.57599 0.00500368 0
M  V30 9365 C 868.577 2.04949 1.02609 0
M  V30 9366 C 869.59 0.966507 1.31006 0
M  V30 9367 O 870.779 1.2434 1.2807 0
M  V30 9368 C 867.879 2.43023 2.36206 0
M  V30 9369 C 867.052 3.73993 2.26821 0
M  V30 9370 C 866.111 3.9899 3.43065 0
M  V30 9371 O 865.137 4.69725 3.21477 0
M  V30 9372 N 866.339 3.46496 4.65748 0
M  V30 9373 H 869.104 2.93167 0.622336 0
M  V30 9374 H 866.665 1.60752 0.192488 0
M  V30 9375 H 868.657 2.56863 3.12735 0
M  V30 9376 H 867.227 1.60349 2.68341 0
M  V30 9377 H 866.447 3.70277 1.35235 0
M  V30 9378 H 867.735 4.59865 2.17719 0
M  V30 9379 H 867.133 2.89206 4.86186 0
M  V30 9380 H 865.69 3.65675 5.3956 0
M  V30 9381 N 869.123 -0.277682 1.55134 0
M  V30 9382 C 870.369 -1.0114 1.7578 0
M  V30 9383 C 870.702 -1.86109 0.554719 0
M  V30 9384 O 869.977 -1.89275 -0.447813 0
M  V30 9385 C 870.26 -1.89789 3.06027 0
M  V30 9386 C 870.113 -1.07844 4.3668 0
M  V30 9387 C 871.432 -2.88577 3.32282 0
M  V30 9388 H 868.551 -0.366277 0.639539 0
M  V30 9389 H 871.193 -0.284155 1.87863 0
M  V30 9390 H 869.343 -2.51796 2.95856 0
M  V30 9391 H 871.015 -0.479432 4.58802 0
M  V30 9392 H 869.258 -0.381764 4.32117 0
M  V30 9393 H 869.929 -1.73179 5.24131 0
M  V30 9394 H 872.405 -2.36702 3.42215 0
M  V30 9395 H 871.281 -3.47749 4.2469 0
M  V30 9396 H 871.542 -3.63458 2.51696 0
M  V30 9397 N 870.601 -1.47988 -0.541979 0
M  V30 9398 C 871.548 -1.61615 -1.6477 0
M  V30 9399 C 872.518 -0.458602 -1.59644 0
M  V30 9400 O 873.703 -0.680585 -1.78249 0
M  V30 9401 C 870.843 -1.65066 -3.03063 0
M  V30 9402 C 869.956 -2.91845 -3.18513 0
M  V30 9403 C 869.091 -2.86534 -4.47294 0
M  V30 9404 C 868.13 -4.0807 -4.5623 0
M  V30 9405 N 867.267 -4.00905 -5.76385 0
M  V30 9406 H 872.107 -2.56046 -1.52461 0
M  V30 9407 H 869.644 -1.26989 -0.742449 0
M  V30 9408 H 871.602 -1.65049 -3.83164 0
M  V30 9409 H 870.232 -0.74136 -3.14171 0
M  V30 9410 H 869.284 -3.01661 -2.31743 0
M  V30 9411 H 870.596 -3.81804 -3.20978 0
M  V30 9412 H 869.75 -2.84851 -5.35672 0
M  V30 9413 H 868.489 -1.94283 -4.47332 0
M  V30 9414 H 867.494 -4.10041 -3.66261 0
M  V30 9415 H 868.719 -5.01465 -4.5794 0
M  V30 9416 H 866.665 -3.11467 -5.77342 0
M  V30 9417 H 866.582 -4.84557 -5.80293 0
M  V30 9418 H 867.85 -4.03263 -6.67083 0
M  V30 9419 N 872.079 0.78992 -1.36375 0
M  V30 9420 C 873.027 1.92394 -1.30719 0
M  V30 9421 C 874.021 1.68226 -0.199076 0
M  V30 9422 O 875.227 1.76239 -0.366051 0
M  V30 9423 H 871.602 0.632382 -0.406936 0
M  V30 9424 H 873.573 1.94282 -2.26488 0
M  V30 9425 C 872.322 3.2941 -1.11284 0
M  V30 9426 H 871.645 3.48573 -1.95798 0
M  V30 9427 H 873.085 4.09111 -1.11373 0
M  V30 9428 C 871.544 3.36405 0.182543 0
M  V30 9429 O 872.074 3.84206 1.17255 0
M  V30 9430 N 870.28 2.89712 0.227046 0
M  V30 9431 H 869.827 2.51004 -0.579217 0
M  V30 9432 H 869.785 2.94773 1.09344 0
M  V30 9433 N 873.557 1.20646 1.01402 0
M  V30 9434 C 874.804 1.01819 1.7504 0
M  V30 9435 C 875.132 -0.449386 1.89237 0
M  V30 9436 O 874.387 -1.34985 1.41695 0
M  V30 9437 C 874.686 1.64991 3.17037 0
M  V30 9438 C 874.352 3.14808 3.22811 0
M  V30 9439 C 873.014 3.55692 3.24094 0
M  V30 9440 C 875.366 4.108 3.2077 0
M  V30 9441 C 872.694 4.9109 3.2101 0
M  V30 9442 C 875.046 5.46147 3.19227 0
M  V30 9443 C 873.71 5.86441 3.18815 0
M  V30 9444 H 872.98 0.372582 0.640518 0
M  V30 9445 H 875.627 1.50108 1.18911 0
M  V30 9446 H 873.932 1.08971 3.76341 0
M  V30 9447 H 875.629 1.47937 3.72714 0
M  V30 9448 H 872.219 2.8224 3.2255 0
M  V30 9449 H 876.403 3.80246 3.18946 0
M  V30 9450 H 871.659 5.21569 3.19023 0
M  V30 9451 H 875.833 6.20272 3.166 0
M  V30 9452 H 873.46 6.91328 3.16179 0
M  V30 9453 N 875.035 -1.20752 1.01276 0
M  V30 9454 C 876.281 -1.90302 0.700924 0
M  V30 9455 C 876.614 -1.78406 -0.767142 0
M  V30 9456 O 875.889 -1.16575 -1.55694 0
M  V30 9457 C 876.172 -3.41831 1.13242 0
M  V30 9458 C 876.025 -3.6268 2.66051 0
M  V30 9459 C 877.344 -4.34486 0.700738 0
M  V30 9460 H 874.463 -0.69107 0.256107 0
M  V30 9461 H 877.105 -1.42227 1.25982 0
M  V30 9462 H 875.255 -3.82906 0.656902 0
M  V30 9463 H 876.927 -3.30882 3.21426 0
M  V30 9464 H 875.17 -3.06281 3.07204 0
M  V30 9465 H 875.841 -4.68882 2.91296 0
M  V30 9466 H 878.317 -4.01036 1.10948 0
M  V30 9467 H 877.193 -5.39136 1.03073 0
M  V30 9468 H 877.454 -4.40307 -0.39778 0
M  V30 9469 N 876.513 -0.788492 -1.36457 0
M  V30 9470 C 877.476 -0.192209 -2.28393 0
M  V30 9471 C 878.476 0.609916 -1.48784 0
M  V30 9472 O 879.666 0.431046 -1.68783 0
M  V30 9473 C 876.798 0.734096 -3.32902 0
M  V30 9474 H 877.991 -1.00284 -2.82636 0
M  V30 9475 H 875.544 -0.557852 -1.46006 0
M  V30 9476 H 876.279 1.5691 -2.83813 0
M  V30 9477 H 876.064 0.160875 -3.9177 0
M  V30 9478 H 877.554 1.1462 -4.01562 0
M  V30 9479 N 877.991 1.48044 -0.54043 0
M  V30 9480 C 879.216 2.07396 -0.0124765 0
M  V30 9481 C 879.641 1.39288 1.26414 0
M  V30 9482 O 878.999 0.462252 1.75308 0
M  V30 9483 C 879.047 3.60131 0.18377 0
M  V30 9484 O 878.151 3.92995 1.25014 0
M  V30 9485 H 877.492 0.662554 -0.0438026 0
M  V30 9486 H 880.022 1.90306 -0.751327 0
M  V30 9487 H 880.032 4.06003 0.403197 0
M  V30 9488 H 878.707 4.09105 -0.74874 0
M  V30 9489 H 877.284 3.5889 1.01254 0
M  V30 9490 N 879.47 0.276058 1.55163 0
M  V30 9491 C 880.42 -0.625549 2.19251 0
M  V30 9492 C 881.404 -1.11769 1.15744 0
M  V30 9493 O 882.596 -1.0626 1.41555 0
M  V30 9494 C 879.725 -1.80879 2.91784 0
M  V30 9495 C 878.811 -1.33379 4.0258 0
M  V30 9496 N 879.202 -0.575002 5.02521 0
M  V30 9497 C 877.5 -1.61666 4.15668 0
M  V30 9498 C 878.201 -0.325164 5.8079 0
M  V30 9499 N 877.177 -0.897851 5.36134 0
M  V30 9500 H 880.979 -0.0379943 2.93875 0
M  V30 9501 H 878.493 0.079661 1.62205 0
M  V30 9502 H 880.49 -2.466 3.36146 0
M  V30 9503 H 879.15 -2.40028 2.1867 0
M  V30 9504 H 880.161 -0.222256 5.17423 0
M  V30 9505 H 876.838 -2.21745 3.53745 0
M  V30 9506 H 878.228 0.282598 6.71305 0
M  V30 9507 N 880.948 -1.576 0.00335426 0
M  V30 9508 C 882.197 -1.89892 -0.680001 0
M  V30 9509 C 882.51 -0.878731 -1.7475 0
M  V30 9510 O 883.716 -1.09199 -2.48572 0
M  V30 9511 C 882.172 -3.37098 -1.26066 0
M  V30 9512 C 881.78 -4.4742 -0.227807 0
M  V30 9513 C 883.524 -3.78495 -1.92202 0
M  V30 9514 C 881.431 -5.85706 -0.81865 0
M  V30 9515 H 880.361 -0.708578 -0.257746 0
M  V30 9516 H 883.012 -1.83387 0.0644472 0
M  V30 9517 H 881.394 -3.38451 -2.05589 0
M  V30 9518 H 882.568 -4.57589 0.54307 0
M  V30 9519 H 880.883 -4.15064 0.333297 0
M  V30 9520 H 883.48 -4.7915 -2.37318 0
M  V30 9521 H 883.823 -3.12187 -2.75399 0
M  V30 9522 H 884.356 -3.79456 -1.19408 0
M  V30 9523 H 881.095 -6.55495 -0.0253787 0
M  V30 9524 H 880.615 -5.79196 -1.55861 0
M  V30 9525 H 882.294 -6.33469 -1.31627 0
M  V30 9526 N 882.426 0.269451 -1.5528 0
M  V30 9527 C 883.389 1.31642 -1.87625 0
M  V30 9528 C 884.389 1.42182 -0.751058 0
M  V30 9529 O 885.579 1.41272 -1.01921 0
M  V30 9530 C 882.711 2.6973 -2.08467 0
M  V30 9531 H 883.904 1.0419 -2.81219 0
M  V30 9532 H 881.457 0.507685 -1.47825 0
M  V30 9533 H 882.192 3.02356 -1.17266 0
M  V30 9534 H 881.977 2.63465 -2.90394 0
M  V30 9535 H 883.467 3.4537 -2.34753 0
M  V30 9536 N 883.904 1.48273 0.534124 0
M  V30 9537 C 884.852 1.62926 1.66005 0
M  V30 9538 C 885.846 0.495814 1.61982 0
M  V30 9539 O 887.052 0.6744 1.66889 0
M  V30 9540 H 883.427 0.513163 0.549698 0
M  V30 9541 H 885.398 2.57498 1.50789 0
M  V30 9542 C 884.147 1.68231 3.04292 0
M  V30 9543 H 883.47 2.54807 3.0808 0
M  V30 9544 H 884.91 1.82528 3.827 0
M  V30 9545 C 883.369 0.420154 3.3427 0
M  V30 9546 O 883.899 -0.468769 3.98955 0
M  V30 9547 N 882.105 0.293115 2.89118 0
M  V30 9548 H 881.652 1.01745 2.36655 0
M  V30 9549 H 881.61 -0.550376 3.09545 0
M  V30 9550 N 885.382 -0.782676 1.36792 0
M  V30 9551 C 886.631 -1.53605 1.30723 0
M  V30 9552 C 886.944 -1.95294 -0.109296 0
M  V30 9553 O 888.15 -2.69921 -0.292398 0
M  V30 9554 C 886.606 -2.77321 2.29393 0
M  V30 9555 C 886.214 -2.42774 3.76517 0
M  V30 9556 C 887.958 -3.55289 2.32314 0
M  V30 9557 C 885.865 -3.62926 4.66947 0
M  V30 9558 H 884.795 -0.576646 0.485794 0
M  V30 9559 H 887.446 -0.858255 1.62192 0
M  V30 9560 H 885.828 -3.46934 1.90927 0
M  V30 9561 H 887.002 -1.81014 4.23758 0
M  V30 9562 H 885.317 -1.78002 3.76436 0
M  V30 9563 H 887.914 -4.44573 2.97083 0
M  V30 9564 H 888.257 -3.94361 1.3336 0
M  V30 9565 H 888.79 -2.92662 2.69432 0
M  V30 9566 H 885.529 -3.28944 5.66989 0
M  V30 9567 H 885.049 -4.23828 4.24418 0
M  V30 9568 H 886.728 -4.29873 4.83548 0
M  V30 9569 N 886.86 -1.21182 -1.00761 0
M  V30 9570 C 887.79 -0.992773 -2.11344 0
M  V30 9571 C 888.771 0.0813618 -1.69905 0
M  V30 9572 O 889.956 -0.0779503 -1.94043 0
M  V30 9573 C 887.086 -0.553826 -3.42856 0
M  V30 9574 C 886.04 -1.57223 -3.98077 0
M  V30 9575 C 885.366 -0.989605 -5.25463 0
M  V30 9576 C 886.666 -2.95839 -4.30438 0
M  V30 9577 H 888.36 -1.91766 -2.29927 0
M  V30 9578 H 885.906 -0.923426 -1.10494 0
M  V30 9579 H 887.859 -0.387771 -4.19612 0
M  V30 9580 H 886.583 0.406702 -3.24058 0
M  V30 9581 H 885.242 -1.7258 -3.23437 0
M  V30 9582 H 884.89 -0.0208743 -5.02996 0
M  V30 9583 H 884.59 -1.66984 -5.63374 0
M  V30 9584 H 886.114 -0.834815 -6.04866 0
M  V30 9585 H 887.528 -2.8394 -4.98047 0
M  V30 9586 H 885.925 -3.60851 -4.79486 0
M  V30 9587 H 886.995 -3.46882 -3.38823 0
M  V30 9588 N 888.338 1.20213 -1.01915 0
M  V30 9589 C 889.286 2.25125 -0.584936 0
M  V30 9590 C 890.28 1.65138 0.377602 0
M  V30 9591 O 891.486 1.78294 0.247245 0
M  V30 9592 H 887.861 0.732333 -0.170858 0
M  V30 9593 H 889.832 2.59075 -1.48063 0
M  V30 9594 C 888.581 3.47651 0.058389 0
M  V30 9595 H 887.904 3.9409 -0.673263 0
M  V30 9596 H 889.344 4.2275 0.325285 0
M  V30 9597 C 887.803 3.10725 1.30199 0
M  V30 9598 O 888.333 3.22491 2.39505 0
M  V30 9599 N 886.539 2.6525 1.18706 0
M  V30 9600 H 886.086 2.55875 0.297618 0
M  V30 9601 H 886.044 2.40913 2.02011 0
M  V30 9602 N 889.816 0.795718 1.36037 0
M  V30 9603 C 891.041 0.38204 2.03851 0
M  V30 9604 C 891.466 -0.995553 1.59594 0
M  V30 9605 O 890.824 -1.64258 0.767401 0
M  V30 9606 C 890.872 0.461248 3.57638 0
M  V30 9607 O 889.976 -0.529448 4.08987 0
M  V30 9608 H 889.317 0.161227 0.644129 0
M  V30 9609 H 891.847 1.07858 1.73861 0
M  V30 9610 H 891.857 0.32712 4.06687 0
M  V30 9611 H 890.532 1.46613 3.89201 0
M  V30 9612 H 889.109 -0.35646 3.71192 0
M  V30 9613 N 891.294 -1.47756 0.548274 0
M  V30 9614 C 892.204 -2.33678 -0.207773 0
M  V30 9615 C 893.22 -1.47636 -0.920843 0
M  V30 9616 O 894.396 -1.80583 -0.89173 0
M  V30 9617 C 891.461 -3.24147 -1.23003 0
M  V30 9618 C 890.522 -4.26073 -0.52535 0
M  V30 9619 C 889.755 -5.12219 -1.4989 0
M  V30 9620 O 889.978 -5.0066 -2.73305 0
M  V30 9621 O 888.912 -5.93051 -1.02828 0
M  V30 9622 H 892.738 -2.99609 0.496794 0
M  V30 9623 H 890.323 -1.4617 0.308982 0
M  V30 9624 H 892.205 -3.80055 -1.82034 0
M  V30 9625 H 890.88 -2.60855 -1.91668 0
M  V30 9626 H 889.787 -3.7395 0.105927 0
M  V30 9627 H 891.12 -4.92054 0.119686 0
M  V30 9628 N 892.772 -0.284283 -1.55015 0
M  V30 9629 C 893.682 0.60906 -2.26556 0
M  V30 9630 C 894.698 1.16246 -1.29472 0
M  V30 9631 O 895.874 1.1908 -1.62425 0
M  V30 9632 C 892.939 1.77246 -2.97968 0
M  V30 9633 C 892 1.25482 -4.10552 0
M  V30 9634 C 891.233 2.36277 -4.78549 0
M  V30 9635 O 891.456 3.55829 -4.45805 0
M  V30 9636 O 890.39 2.03914 -5.66306 0
M  V30 9637 H 894.216 0.0292298 -3.03686 0
M  V30 9638 H 891.801 -0.0513466 -1.49312 0
M  V30 9639 H 893.683 2.45062 -3.42815 0
M  V30 9640 H 892.358 2.33921 -2.23747 0
M  V30 9641 H 891.265 0.542859 -3.7014 0
M  V30 9642 H 892.598 0.733708 -4.86701 0
M  V30 9643 N 894.251 1.57596 -0.0117121 0
M  V30 9644 C 895.181 2.12188 0.9746 0
M  V30 9645 C 896.162 1.03379 1.35081 0
M  V30 9646 O 897.347 1.31123 1.4325 0
M  V30 9647 C 894.477 2.63477 2.26268 0
M  V30 9648 C 893.431 3.76917 2.02774 0
M  V30 9649 C 892.757 4.14566 3.37697 0
M  V30 9650 C 894.057 5.03715 1.38089 0
M  V30 9651 H 895.751 2.9485 0.520007 0
M  V30 9652 H 893.297 1.41836 0.248685 0
M  V30 9653 H 895.25 3.00299 2.95633 0
M  V30 9654 H 893.974 1.77953 2.73862 0
M  V30 9655 H 892.633 3.40507 1.35832 0
M  V30 9656 H 892.281 3.26048 3.83016 0
M  V30 9657 H 891.981 4.91 3.22789 0
M  V30 9658 H 893.505 4.53956 4.08358 0
M  V30 9659 H 894.919 5.38233 1.97428 0
M  V30 9660 H 893.316 5.85032 1.33634 0
M  V30 9661 H 894.386 4.83624 0.351575 0
M  V30 9662 N 895.729 -0.261212 1.5542 0
M  V30 9663 C 897.006 -1.01321 1.67312 0
M  V30 9664 C 897.386 -2.0388 0.547356 0
M  V30 9665 O 896.734 -2.24003 -0.451083 0
M  V30 9666 C 896.944 -1.65943 3.07024 0
M  V30 9667 C 898.292 -2.16666 3.65159 0
M  V30 9668 O 899.316 -1.75909 3.09733 0
M  V30 9669 O 898.175 -2.91455 4.62294 0
M  V30 9670 H 895.269 -0.470714 0.679968 0
M  V30 9671 H 897.815 -0.256133 1.67756 0
M  V30 9672 H 896.587 -0.916868 3.80407 0
M  V30 9673 H 896.21 -2.48308 3.1053 0
M  V30 9674 N 897.207 -1.48554 -0.526253 0
M  V30 9675 C 898.456 -1.56014 -1.27837 0
M  V30 9676 C 898.769 -0.240643 -1.94114 0
M  V30 9677 O 899.975 -0.193525 -2.70809 0
M  V30 9678 C 898.431 -2.75161 -2.31979 0
M  V30 9679 C 898.039 -4.13768 -1.71755 0
M  V30 9680 C 899.783 -2.91936 -3.08178 0
M  V30 9681 C 897.69 -5.24171 -2.7386 0
M  V30 9682 H 896.62 -0.58082 -0.480795 0
M  V30 9683 H 899.271 -1.74895 -0.555335 0
M  V30 9684 H 897.653 -2.49722 -3.07335 0
M  V30 9685 H 898.827 -4.49241 -1.02563 0
M  V30 9686 H 897.142 -4.02141 -1.08036 0
M  V30 9687 H 899.739 -3.71586 -3.84484 0
M  V30 9688 H 900.082 -2.01533 -3.64267 0
M  V30 9689 H 900.615 -3.17294 -2.39937 0
M  V30 9690 H 897.354 -6.16552 -2.22586 0
M  V30 9691 H 896.874 -4.93181 -3.41368 0
M  V30 9692 H 898.553 -5.52442 -3.36774 0
M  V30 9693 N 898.685 0.775411 -1.37205 0
M  V30 9694 C 899.617 1.89761 -1.28544 0
M  V30 9695 C 900.63 1.61542 -0.201996 0
M  V30 9696 O 901.819 1.72528 -0.457848 0
M  V30 9697 C 898.919 3.24904 -0.963885 0
M  V30 9698 C 898.092 3.80796 -2.15205 0
M  V30 9699 C 897.151 4.94407 -1.80135 0
M  V30 9700 O 896.177 5.10185 -2.52388 0
M  V30 9701 N 897.379 5.75722 -0.743298 0
M  V30 9702 H 900.144 1.97708 -2.25237 0
M  V30 9703 H 897.705 0.954348 -1.30782 0
M  V30 9704 H 899.697 3.9842 -0.710182 0
M  V30 9705 H 898.267 3.12483 -0.085632 0
M  V30 9706 H 897.487 2.99101 -2.56773 0
M  V30 9707 H 898.775 4.1487 -2.94552 0
M  V30 9708 H 898.173 5.65518 -0.143655 0
M  V30 9709 H 896.73 6.4948 -0.549446 0
M  V30 9710 N 900.163 1.21714 1.00117 0
M  V30 9711 C 901.44 0.945391 1.71236 0
M  V30 9712 C 901.82 -0.541772 2.0403 0
M  V30 9713 O 901.168 -1.50763 1.71705 0
M  V30 9714 C 901.378 1.83444 2.96899 0
M  V30 9715 C 902.726 2.08558 3.69849 0
M  V30 9716 O 903.75 1.80824 3.06889 0
M  V30 9717 O 902.609 2.55485 4.83104 0
M  V30 9718 H 899.703 0.354834 0.747009 0
M  V30 9719 H 902.249 1.32661 1.05825 0
M  V30 9720 H 901.021 2.84075 2.69105 0
M  V30 9721 H 900.644 1.45428 3.70049 0
M  V30 9722 N 901.641 -1.19671 1.02551 0
M  V30 9723 C 902.571 -2.25009 0.623965 0
M  V30 9724 C 903.552 -1.66129 -0.36538 0
M  V30 9725 O 904.737 -1.92599 -0.248842 0
M  V30 9726 C 901.867 -3.47287 -0.0294869 0
M  V30 9727 C 900.821 -4.18818 0.881781 0
M  V30 9728 C 900.147 -5.34618 0.0936189 0
M  V30 9729 C 901.447 -4.73986 2.19396 0
M  V30 9730 H 903.141 -2.58851 1.50454 0
M  V30 9731 H 900.687 -1.24425 0.724872 0
M  V30 9732 H 902.64 -4.20168 -0.322016 0
M  V30 9733 H 901.364 -3.12635 -0.944838 0
M  V30 9734 H 900.023 -3.47815 1.15845 0
M  V30 9735 H 899.671 -4.9621 -0.823661 0
M  V30 9736 H 899.371 -5.83409 0.700568 0
M  V30 9737 H 900.895 -6.10297 -0.192249 0
M  V30 9738 H 902.309 -5.38639 1.96319 0
M  V30 9739 H 900.706 -5.3325 2.75254 0
M  V30 9740 H 901.776 -3.92238 2.85092 0
M  V30 9741 N 903.119 -0.802921 -1.35613 0
M  V30 9742 C 904.066 -0.20874 -2.29854 0
M  V30 9743 C 905.036 0.655128 -1.52634 0
M  V30 9744 O 906.221 0.600979 -1.81088 0
M  V30 9745 C 903.361 0.639663 -3.3912 0
M  V30 9746 C 902.474 -0.244234 -4.31309 0
M  V30 9747 C 901.609 0.611825 -5.27665 0
M  V30 9748 C 900.648 -0.272698 -6.11492 0
M  V30 9749 N 899.785 0.543122 -6.99996 0
M  V30 9750 H 904.625 -1.01782 -2.80079 0
M  V30 9751 H 902.162 -0.513465 -1.37848 0
M  V30 9752 H 904.12 1.14668 -4.01132 0
M  V30 9753 H 902.75 1.41404 -2.9018 0
M  V30 9754 H 901.802 -0.869322 -3.70334 0
M  V30 9755 H 903.114 -0.925202 -4.90144 0
M  V30 9756 H 902.268 1.18412 -5.95032 0
M  V30 9757 H 901.007 1.32637 -4.69317 0
M  V30 9758 H 900.012 -0.857287 -5.43075 0
M  V30 9759 H 901.237 -0.985051 -6.71918 0
M  V30 9760 H 899.183 1.24171 -6.44141 0
M  V30 9761 H 899.1 -0.0798767 -7.55958 0
M  V30 9762 H 900.368 1.09881 -7.71717 0
M  V30 9763 N 904.597 1.47463 -0.556102 0
M  V30 9764 C 905.544 2.29998 0.192213 0
M  V30 9765 C 906.514 1.38993 0.909403 0
M  V30 9766 O 907.699 1.67954 0.905316 0
M  V30 9767 C 904.839 3.22932 1.21692 0
M  V30 9768 C 903.952 4.29027 0.505908 0
M  V30 9769 C 903.087 5.09114 1.51581 0
M  V30 9770 C 902.126 6.06984 0.789714 0
M  V30 9771 N 901.263 6.80033 1.74639 0
M  V30 9772 H 906.103 2.93468 -0.517734 0
M  V30 9773 H 903.64 1.44654 -0.267147 0
M  V30 9774 H 905.598 3.75234 1.8236 0
M  V30 9775 H 904.228 2.61329 1.89491 0
M  V30 9776 H 903.28 3.7979 -0.215276 0
M  V30 9777 H 904.592 4.9876 -0.062958 0
M  V30 9778 H 903.746 5.6556 2.19606 0
M  V30 9779 H 902.485 4.3928 2.11859 0
M  V30 9780 H 901.49 5.49717 0.0955382 0
M  V30 9781 H 902.715 6.78827 0.192688 0
M  V30 9782 H 900.661 6.12931 2.33777 0
M  V30 9783 H 900.578 7.45933 1.22965 0
M  V30 9784 H 901.846 7.41054 2.41782 0
M  V30 9785 N 906.075 0.2925 1.54862 0
M  V30 9786 C 907.005 -0.580677 2.26165 0
M  V30 9787 C 907.986 -1.14485 1.25806 0
M  V30 9788 O 909.171 -1.17577 1.54562 0
M  V30 9789 C 906.301 -1.75668 2.99596 0
M  V30 9790 C 905.255 -1.32325 4.07031 0
M  V30 9791 C 904.581 -2.58374 4.68131 0
M  V30 9792 C 905.881 -0.460703 5.20264 0
M  V30 9793 H 907.575 0.0140075 2.99397 0
M  V30 9794 H 905.121 0.00817706 1.43998 0
M  V30 9795 H 907.074 -2.37356 3.48195 0
M  V30 9796 H 905.798 -2.37747 2.23928 0
M  V30 9797 H 904.457 -0.729477 3.59269 0
M  V30 9798 H 904.105 -3.18749 3.89112 0
M  V30 9799 H 903.805 -2.30078 5.40683 0
M  V30 9800 H 905.329 -3.2088 5.19489 0
M  V30 9801 H 906.743 -0.983037 5.64809 0
M  V30 9802 H 905.14 -0.271881 5.99484 0
M  V30 9803 H 906.21 0.516304 4.82143 0
M  V30 9804 N 907.553 -1.57587 0.0200696 0
M  V30 9805 C 908.799 -1.91708 -0.661503 0
M  V30 9806 C 909.132 -0.895968 -1.72296 0
M  V30 9807 O 908.407 0.082577 -1.94325 0
M  V30 9808 C 908.69 -3.36344 -1.28627 0
M  V30 9809 C 908.543 -4.49186 -0.234982 0
M  V30 9810 C 909.862 -3.80771 -2.20685 0
M  V30 9811 H 906.981 -0.69717 -0.239005 0
M  V30 9812 H 909.623 -1.8985 0.0754764 0
M  V30 9813 H 907.773 -3.38058 -1.91439 0
M  V30 9814 H 909.445 -4.59606 0.395011 0
M  V30 9815 H 907.688 -4.31557 0.440565 0
M  V30 9816 H 908.359 -5.47395 -0.711558 0
M  V30 9817 H 910.835 -3.80735 -1.67868 0
M  V30 9818 H 909.711 -4.82685 -2.61356 0
M  V30 9819 H 909.972 -3.15764 -3.09428 0
M  V30 9820 N 909.032 0.252966 -1.55557 0
M  V30 9821 C 909.979 1.3131 -1.89806 0
M  V30 9822 C 910.949 1.48121 -0.751633 0
M  V30 9823 O 912.134 1.62202 -1.00474 0
M  V30 9824 C 909.274 2.66467 -2.19293 0
M  V30 9825 C 908.387 2.57714 -3.46709 0
M  V30 9826 C 907.522 3.85184 -3.65796 0
M  V30 9827 C 906.561 3.71023 -4.86835 0
M  V30 9828 N 905.698 4.90371 -5.02474 0
M  V30 9829 H 910.538 1.01402 -2.80217 0
M  V30 9830 H 908.075 0.489462 -1.38718 0
M  V30 9831 H 910.033 3.45132 -2.34392 0
M  V30 9832 H 908.663 2.94536 -1.32093 0
M  V30 9833 H 907.715 1.70651 -3.39974 0
M  V30 9834 H 909.027 2.43158 -4.35517 0
M  V30 9835 H 908.181 4.72292 -3.80822 0
M  V30 9836 H 906.92 4.0263 -2.7521 0
M  V30 9837 H 905.925 2.82299 -4.71792 0
M  V30 9838 H 907.15 3.55078 -5.78875 0
M  V30 9839 H 905.096 5.0819 -4.14824 0
M  V30 9840 H 905.013 4.78423 -5.85361 0
M  V30 9841 H 906.281 5.78995 -5.21905 0
M  V30 9842 N 910.51 1.48831 0.518367 0
M  V30 9843 C 911.42 1.6692 1.64848 0
M  V30 9844 C 912.436 0.551711 1.65022 0
M  V30 9845 O 913.612 0.824251 1.83761 0
M  V30 9846 C 910.677 1.71559 3.01278 0
M  V30 9847 C 909.738 2.9502 3.11868 0
M  V30 9848 C 908.971 2.99428 4.4179 0
M  V30 9849 O 909.194 2.11914 5.29574 0
M  V30 9850 O 908.128 3.91719 4.5699 0
M  V30 9851 H 911.954 2.62623 1.52521 0
M  V30 9852 H 909.539 1.32368 0.692749 0
M  V30 9853 H 911.421 1.77064 3.82396 0
M  V30 9854 H 910.096 0.790316 3.13904 0
M  V30 9855 H 909.003 2.95042 2.30003 0
M  V30 9856 H 910.336 3.8697 3.04163 0
M  V30 9857 N 911.988 -0.768124 1.37614 0
M  V30 9858 C 912.951 -1.86314 1.3349 0
M  V30 9859 C 913.951 -1.59025 0.23823 0
M  V30 9860 O 915.141 -1.6704 0.494288 0
M  V30 9861 C 912.273 -3.23519 1.07462 0
M  V30 9862 H 913.466 -1.91382 2.30896 0
M  V30 9863 H 911.019 -0.968267 1.22696 0
M  V30 9864 H 911.754 -3.24127 0.106028 0
M  V30 9865 H 911.539 -3.44719 1.86846 0
M  V30 9866 H 913.029 -4.03597 1.07236 0
M  V30 9867 N 913.466 -1.22244 -0.994698 0
M  V30 9868 C 914.396 -1.01513 -2.10279 0
M  V30 9869 C 915.377 0.0633365 -1.69982 0
M  V30 9870 O 916.562 -0.0985268 -1.9395 0
M  V30 9871 C 913.692 -0.59016 -3.42249 0
M  V30 9872 C 912.646 -1.61436 -3.96387 0
M  V30 9873 C 911.972 -1.04528 -5.24383 0
M  V30 9874 C 913.272 -3.00388 -4.27276 0
M  V30 9875 H 914.966 -1.94194 -2.2788 0
M  V30 9876 H 912.512 -0.935094 -1.09508 0
M  V30 9877 H 914.465 -0.432254 -4.19177 0
M  V30 9878 H 913.189 0.372308 -3.24471 0
M  V30 9879 H 911.848 -1.76001 -3.21589 0
M  V30 9880 H 911.496 -0.0742225 -5.02945 0
M  V30 9881 H 911.196 -1.72949 -5.61571 0
M  V30 9882 H 912.72 -0.898922 -6.03947 0
M  V30 9883 H 914.134 -2.89207 -4.95007 0
M  V30 9884 H 912.531 -3.65916 -4.75631 0
M  V30 9885 H 913.601 -3.50456 -3.35125 0
M  V30 9886 N 914.944 1.19125 -1.03184 0
M  V30 9887 C 915.891 2.2245 -0.6152 0
M  V30 9888 C 916.861 1.61869 0.372502 0
M  V30 9889 O 918.046 1.88901 0.268491 0
M  V30 9890 C 915.186 3.45091 0.0248027 0
M  V30 9891 C 914.299 4.20044 -1.0093 0
M  V30 9892 C 913.434 5.30119 -0.338744 0
M  V30 9893 C 912.473 5.96833 -1.35855 0
M  V30 9894 N 911.61 6.98464 -0.713594 0
M  V30 9895 H 916.45 2.57445 -1.50086 0
M  V30 9896 H 913.987 1.26485 -0.751005 0
M  V30 9897 H 915.945 4.15149 0.413131 0
M  V30 9898 H 914.575 3.10742 0.874028 0
M  V30 9899 H 913.627 3.48901 -1.51566 0
M  V30 9900 H 914.939 4.65796 -1.78425 0
M  V30 9901 H 914.093 6.0661 0.104269 0
M  V30 9902 H 912.832 4.85446 0.468382 0
M  V30 9903 H 911.837 5.1909 -1.81179 0
M  V30 9904 H 913.062 6.4359 -2.16722 0
M  V30 9905 H 911.008 6.55959 0.0733863 0
M  V30 9906 H 910.925 7.42422 -1.42638 0
M  V30 9907 H 912.193 7.78943 -0.294681 0
M  V30 9908 N 916.422 0.810101 1.35185 0
M  V30 9909 C 917.332 0.224565 2.33523 0
M  V30 9910 C 918.348 -0.634287 1.62027 0
M  V30 9911 O 919.524 -0.545211 1.9388 0
M  V30 9912 C 916.589 -0.614319 3.41214 0
M  V30 9913 C 915.65 0.265435 4.28479 0
M  V30 9914 C 914.883 -0.533506 5.31027 0
M  V30 9915 O 915.106 -1.7679 5.42311 0
M  V30 9916 O 914.04 0.0774573 6.0185 0
M  V30 9917 H 917.866 1.03815 2.85405 0
M  V30 9918 H 915.451 0.571964 1.38018 0
M  V30 9919 H 917.333 -1.09201 4.07005 0
M  V30 9920 H 916.008 -1.40545 2.91597 0
M  V30 9921 H 914.915 0.790343 3.65656 0
M  V30 9922 H 916.248 1.0206 4.81503 0
M  V30 9923 N 917.9 -1.47166 0.563914 0
M  V30 9924 C 919.125 -2.0735 0.0454698 0
M  V30 9925 C 919.55 -1.41281 -1.24182 0
M  V30 9926 O 918.908 -0.490084 -1.7455 0
M  V30 9927 C 918.956 -3.60378 -0.126453 0
M  V30 9928 O 918.06 -3.94934 -1.18746 0
M  V30 9929 H 917.401 -0.661773 0.0543377 0
M  V30 9930 H 919.931 -1.89086 0.781508 0
M  V30 9931 H 919.941 -4.06593 -0.338554 0
M  V30 9932 H 918.616 -4.07862 0.81373 0
M  V30 9933 H 917.193 -3.60455 -0.955318 0
M  V30 9934 N 919.378 -0.300708 -1.54705 0
M  V30 9935 C 920.31 0.609179 -2.20956 0
M  V30 9936 C 921.323 1.09776 -1.20221 0
M  V30 9937 O 922.512 1.01527 -1.46815 0
M  V30 9938 C 919.612 1.84595 -2.84214 0
M  V30 9939 C 918.785 1.49991 -4.10879 0
M  V30 9940 C 917.844 2.5918 -4.57943 0
M  V30 9941 O 916.87 2.24285 -5.23149 0
M  V30 9942 N 918.072 3.89714 -4.30236 0
M  V30 9943 H 920.837 0.0420111 -2.99671 0
M  V30 9944 H 918.398 -0.122896 -1.61433 0
M  V30 9945 H 920.39 2.56988 -3.12633 0
M  V30 9946 H 918.96 2.32152 -2.09342 0
M  V30 9947 H 918.18 0.608637 -3.89473 0
M  V30 9948 H 919.468 1.24409 -4.93356 0
M  V30 9949 H 918.866 4.20874 -3.77997 0
M  V30 9950 H 917.423 4.58406 -4.63365 0
M  V30 9951 N 920.856 1.57574 -0.0284266 0
M  V30 9952 C 921.786 2.1321 0.952039 0
M  V30 9953 C 922.767 1.04806 1.33977 0
M  V30 9954 O 923.952 1.32635 1.41851 0
M  V30 9955 C 921.082 2.65862 2.23461 0
M  V30 9956 C 920.036 3.79047 1.98765 0
M  V30 9957 C 919.362 4.18124 3.33281 0
M  V30 9958 C 920.662 5.05151 1.32739 0
M  V30 9959 H 922.356 2.95385 0.488705 0
M  V30 9960 H 919.902 1.42092 0.233628 0
M  V30 9961 H 921.855 3.03417 2.92431 0
M  V30 9962 H 920.579 1.80848 2.71959 0
M  V30 9963 H 919.238 3.41929 1.32213 0
M  V30 9964 H 918.886 3.30092 3.79537 0
M  V30 9965 H 918.586 4.94396 3.17563 0
M  V30 9966 H 920.11 4.58262 4.0352 0
M  V30 9967 H 921.524 5.40297 1.91708 0
M  V30 9968 H 919.921 5.86416 1.27421 0
M  V30 9969 H 920.991 4.83969 0.300261 0
M  V30 9970 N 922.334 -0.244713 1.55689 0
M  V30 9971 C 923.745 -0.813603 1.6804 0
M  V30 9972 C 924.096 -1.85936 0.626281 0
M  V30 9973 O 923.221 -2.15206 -0.227038 0
M  V30 9974 C 923.816 -1.48252 3.04642 0
M  V30 9975 C 922.375 -1.99908 3.18926 0
M  V30 9976 C 921.522 -0.850958 2.6392 0
M  V30 9977 H 924.473 -0.0204805 1.58687 0
M  V30 9978 H 924.494 -2.35062 2.99209 0
M  V30 9979 H 924.006 -0.721164 3.81341 0
M  V30 9980 H 922.107 -2.78918 2.47054 0
M  V30 9981 H 922.22 -2.19497 4.25862 0
M  V30 9982 H 920.584 -1.25206 2.21801 0
M  V30 9983 H 921.367 -0.10265 3.43146 0
M  V30 9984 N 923.813 -1.49104 -0.510467 0
M  V30 9985 C 925.041 -1.61806 -1.28944 0
M  V30 9986 C 925.456 -0.285774 -1.86625 0
M  V30 9987 O 924.813 0.727551 -1.67371 0
M  V30 9988 C 924.864 -2.67966 -2.42645 0
M  V30 9989 O 924.585 -3.96026 -1.87337 0
M  V30 9990 C 926.086 -2.91286 -3.34166 0
M  V30 9991 H 923.306 -0.544999 -0.391429 0
M  V30 9992 H 925.85 -1.95071 -0.613805 0
M  V30 9993 H 924.005 -2.37505 -3.06056 0
M  V30 9994 H 924.419 -4.54427 -2.61909 0
M  V30 9995 H 925.893 -3.69323 -4.1025 0
M  V30 9996 H 926.37 -2.00842 -3.90588 0
M  V30 9997 H 926.976 -3.23127 -2.76531 0
M  V30 9998 N 925.291 0.760815 -1.38019 0
M  V30 9999 C 926.537 1.52198 -1.34028 0
M  V30 10000 C 926.87 1.94067 0.0718309 0
M  V30 10001 O 926.145 1.64895 1.0315 0
M  V30 10002 C 926.428 2.77954 -2.2894 0
M  V30 10003 C 926.281 2.42269 -3.7898 0
M  V30 10004 C 927.6 3.79943 -2.22107 0
M  V30 10005 H 924.719 0.552131 -0.488181 0
M  V30 10006 H 927.361 0.871971 -1.6881 0
M  V30 10007 H 925.511 3.33419 -1.9941 0
M  V30 10008 H 927.183 1.92635 -4.19153 0
M  V30 10009 H 925.426 1.74822 -3.97014 0
M  V30 10010 H 926.097 3.32211 -4.4084 0
M  V30 10011 H 928.573 3.34 -2.4816 0
M  V30 10012 H 927.449 4.6564 -2.90639 0
M  V30 10013 H 927.71 4.25004 -1.21753 0
M  V30 10014 N 926.769 1.22769 0.988202 0
M  V30 10015 C 927.702 0.945196 2.07705 0
M  V30 10016 C 928.68 -0.11363 1.62202 0
M  V30 10017 O 929.864 0.0189624 1.8849 0
M  V30 10018 C 926.991 0.422474 3.36055 0
M  V30 10019 C 926.037 1.4667 4.00487 0
M  V30 10020 S 926.87 3.04158 4.40736 0
M  V30 10021 C 928.026 2.53536 5.7225 0
M  V30 10022 H 928.259 1.86723 2.31348 0
M  V30 10023 H 925.792 1.05928 1.12333 0
M  V30 10024 H 927.75 0.12748 4.10302 0
M  V30 10025 H 926.411 -0.478515 3.10434 0
M  V30 10026 H 925.604 1.05093 4.92921 0
M  V30 10027 H 925.206 1.71064 3.32585 0
M  V30 10028 H 927.498 1.95069 6.4881 0
M  V30 10029 H 928.441 3.44479 6.1866 0
M  V30 10030 H 928.849 1.94658 5.29876 0
M  V30 10031 N 928.247 -1.18576 1.03814 0
M  V30 10032 C 929.524 -1.8433 0.654358 0
M  V30 10033 C 929.904 -1.92504 -0.866338 0
M  V30 10034 O 929.252 -1.44904 -1.76678 0
M  V30 10035 C 929.462 -3.22778 1.32723 0
M  V30 10036 C 930.81 -3.98841 1.45641 0
M  V30 10037 O 931.834 -3.32209 1.28514 0
M  V30 10038 O 930.693 -5.18219 1.73526 0
M  V30 10039 H 927.787 -0.794766 0.228638 0
M  V30 10040 H 930.333 -1.25989 1.13687 0
M  V30 10041 H 929.105 -3.11717 2.36534 0
M  V30 10042 H 928.728 -3.88772 0.833176 0
M  V30 10043 N 929.725 -0.817259 -1.34754 0
M  V30 10044 C 930.972 -0.402648 -1.98457 0
M  V30 10045 C 931.3 1.03287 -1.64809 0
M  V30 10046 O 930.555 1.73316 -0.908851 0
M  V30 10047 C 930.854 -0.5453 -3.53216 0
M  V30 10048 C 930.52 -1.9457 -4.06759 0
M  V30 10049 C 929.182 -2.32881 -4.21094 0
M  V30 10050 C 931.534 -2.86141 -4.35629 0
M  V30 10051 C 928.862 -3.62108 -4.61622 0
M  V30 10052 C 931.214 -4.14826 -4.776 0
M  V30 10053 C 929.878 -4.53121 -4.9014 0
M  V30 10054 H 929.148 -0.147339 -0.726204 0
M  V30 10055 H 931.795 -1.04011 -1.60791 0
M  V30 10056 H 930.1 0.175576 -3.91406 0
M  V30 10057 H 931.797 -0.205112 -4.00475 0
M  V30 10058 H 928.387 -1.6381 -3.96061 0
M  V30 10059 H 932.571 -2.57788 -4.24098 0
M  V30 10060 H 927.827 -3.91613 -4.69521 0
M  V30 10061 H 932.001 -4.85874 -4.98899 0
M  V30 10062 H 929.628 -5.53307 -5.21302 0
M  V30 10063 N 931.203 1.46865 -0.571711 0
M  V30 10064 C 932.619 1.57897 -0.23255 0
M  V30 10065 C 932.819 1.56836 1.26509 0
M  V30 10066 O 931.875 1.47947 2.04617 0
M  V30 10067 C 933.188 2.87778 -0.872036 0
M  V30 10068 C 934.736 3.01389 -0.844605 0
M  V30 10069 C 935.211 4.33991 -1.46343 0
M  V30 10070 N 936.702 4.40662 -1.42727 0
M  V30 10071 C 937.437 5.41858 -1.87557 0
M  V30 10072 N 936.933 6.49787 -2.4031 0
M  V30 10073 N 938.726 5.32992 -1.7854 0
M  V30 10074 H 930.877 1.45798 -1.54457 0
M  V30 10075 H 933.14 0.694785 -0.644964 0
M  V30 10076 H 932.846 2.94332 -1.92513 0
M  V30 10077 H 932.72 3.75345 -0.373677 0
M  V30 10078 H 935.107 2.94423 0.19984 0
M  V30 10079 H 935.188 2.15327 -1.38087 0
M  V30 10080 H 934.832 4.41714 -2.50701 0
M  V30 10081 H 934.762 5.18809 -0.902479 0
M  V30 10082 H 937.253 3.63263 -1.04155 0
M  V30 10083 H 937.566 7.23199 -2.72403 0
M  V30 10084 H 935.911 6.50637 -2.44329 0
M  V30 10085 H 939.102 4.47575 -1.37093 0
M  V30 10086 H 939.275 6.11716 -2.13794 0
M  V30 10087 N 932.681 0.308908 1.54543 0
M  V30 10088 C 933.628 -0.563659 2.23811 0
M  V30 10089 C 934.598 -1.12332 1.22355 0
M  V30 10090 O 935.783 -1.16638 1.50997 0
M  V30 10091 C 932.923 -1.72585 2.98845 0
M  V30 10092 C 932.036 -1.19682 4.1509 0
M  V30 10093 C 931.171 -2.32351 4.77688 0
M  V30 10094 C 930.21 -1.76623 5.86064 0
M  V30 10095 N 929.347 -2.82896 6.42584 0
M  V30 10096 H 934.187 0.0336288 2.97981 0
M  V30 10097 H 931.724 0.0283666 1.47073 0
M  V30 10098 H 933.682 -2.40951 3.40586 0
M  V30 10099 H 932.312 -2.29464 2.27037 0
M  V30 10100 H 931.364 -0.405173 3.78236 0
M  V30 10101 H 932.676 -0.748923 4.93146 0
M  V30 10102 H 931.83 -3.0865 5.22322 0
M  V30 10103 H 930.569 -2.80472 3.98982 0
M  V30 10104 H 929.574 -0.988171 5.40847 0
M  V30 10105 H 930.799 -1.29398 6.66658 0
M  V30 10106 H 928.745 -3.30336 5.66758 0
M  V30 10107 H 928.662 -2.42626 7.16009 0
M  V30 10108 H 929.93 -3.59068 6.91875 0
M  V30 10109 N 934.159 -1.57557 0.0367827 0
M  V30 10110 C 935.406 -1.92114 -0.640185 0
M  V30 10111 C 935.734 -0.913887 -1.71693 0
M  V30 10112 O 934.989 0.0760343 -1.95552 0
M  V30 10113 C 935.288 -3.33387 -1.28794 0
M  V30 10114 C 934.954 -4.4961 -0.340819 0
M  V30 10115 C 933.616 -4.81133 -0.0801574 0
M  V30 10116 C 935.968 -5.20283 0.309106 0
M  V30 10117 C 933.296 -5.80683 0.838107 0
M  V30 10118 C 935.648 -6.20813 1.21547 0
M  V30 10119 C 934.312 -6.50773 1.48495 0
M  V30 10120 H 933.582 -0.702996 -0.23426 0
M  V30 10121 H 936.229 -1.91238 0.100188 0
M  V30 10122 H 934.534 -3.30561 -2.10324 0
M  V30 10123 H 936.231 -3.57399 -1.81843 0
M  V30 10124 H 932.821 -4.25002 -0.554161 0
M  V30 10125 H 937.005 -4.96153 0.120794 0
M  V30 10126 H 932.261 -6.02238 1.05451 0
M  V30 10127 H 936.435 -6.74692 1.72522 0
M  V30 10128 H 934.062 -7.27727 2.19814 0
M  V30 10129 N 935.637 0.236453 -1.55816 0
M  V30 10130 C 936.862 0.98449 -1.82545 0
M  V30 10131 C 937.287 1.77755 -0.615206 0
M  V30 10132 O 936.645 1.75982 0.435895 0
M  V30 10133 C 936.693 1.88973 -3.07118 0
M  V30 10134 O 935.797 2.98298 -2.84766 0
M  V30 10135 H 935.138 0.279577 -0.602273 0
M  V30 10136 H 937.668 0.254277 -2.03014 0
M  V30 10137 H 937.678 2.3024 -3.36829 0
M  V30 10138 H 936.353 1.30671 -3.94839 0
M  V30 10139 H 934.93 2.61085 -2.6625 0
M  V30 10140 N 937.115 1.49373 0.502552 0
M  V30 10141 C 938.531 1.36101 0.833591 0
M  V30 10142 C 938.731 0.392911 1.97632 0
M  V30 10143 O 937.787 -0.175975 2.51886 0
M  V30 10144 C 939.1 2.76782 1.17526 0
M  V30 10145 C 940.648 2.85471 1.28356 0
M  V30 10146 C 941.123 4.26915 1.65853 0
M  V30 10147 N 942.614 4.29719 1.72905 0
M  V30 10148 C 943.349 5.36127 2.0336 0
M  V30 10149 N 942.845 6.52782 2.32049 0
M  V30 10150 N 944.638 5.23542 2.04598 0
M  V30 10151 H 936.789 2.10912 -0.251008 0
M  V30 10152 H 939.052 0.946696 -0.0497037 0
M  V30 10153 H 938.758 3.49314 0.408965 0
M  V30 10154 H 938.632 3.1205 2.11907 0
M  V30 10155 H 941.019 2.13177 2.04058 0
M  V30 10156 H 941.1 2.53787 0.320304 0
M  V30 10157 H 940.744 4.99735 0.907022 0
M  V30 10158 H 940.674 4.56063 2.63276 0
M  V30 10159 H 943.165 3.45586 1.529 0
M  V30 10160 H 943.478 7.29701 2.54471 0
M  V30 10161 H 941.823 6.56011 2.29509 0
M  V30 10162 H 945.014 4.31413 1.8166 0
M  V30 10163 H 945.187 6.06565 2.27998 0
M  V30 10164 N 938.594 -0.753485 1.38421 0
M  V30 10165 C 939.542 -1.8886 1.35774 0
M  V30 10166 C 940.536 -1.67639 0.243608 0
M  V30 10167 O 941.742 -1.75206 0.412649 0
M  V30 10168 H 938.117 -0.62137 0.42356 0
M  V30 10169 H 940.088 -1.88209 2.3156 0
M  V30 10170 C 938.837 -3.26344 1.19979 0
M  V30 10171 H 938.16 -3.43259 2.04971 0
M  V30 10172 H 939.6 -4.06015 1.22181 0
M  V30 10173 C 938.059 -3.36771 -0.0932867 0
M  V30 10174 O 938.589 -3.8718 -1.07027 0
M  V30 10175 N 936.795 -2.90212 -0.150154 0
M  V30 10176 H 936.342 -2.4938 0.645562 0
M  V30 10177 H 936.3 -2.97569 -1.0149 0
M  V30 10178 N 940.072 -1.23292 -0.981677 0
M  V30 10179 C 941.302 -1.0893 -1.7555 0
M  V30 10180 C 941.71 0.362219 -1.857 0
M  V30 10181 O 941.053 1.2624 -1.33451 0
M  V30 10182 C 941.115 -1.6389 -3.19969 0
M  V30 10183 C 940.779 -3.12632 -3.33332 0
M  V30 10184 C 941.776 -4.0994 -3.19758 0
M  V30 10185 C 939.461 -3.52314 -3.58022 0
M  V30 10186 C 941.455 -5.44915 -3.30676 0
M  V30 10187 C 939.142 -4.87434 -3.6858 0
M  V30 10188 C 940.14 -5.83544 -3.54916 0
M  V30 10189 O 939.828 -7.16209 -3.65102 0
M  V30 10190 H 939.56 -0.381901 -0.557788 0
M  V30 10191 H 942.114 -1.63586 -1.24213 0
M  V30 10192 H 940.344 -1.03653 -3.72549 0
M  V30 10193 H 942.033 -1.45023 -3.79108 0
M  V30 10194 H 942.799 -3.80625 -3.00582 0
M  V30 10195 H 938.678 -2.78022 -3.67729 0
M  V30 10196 H 942.222 -6.19913 -3.19928 0
M  V30 10197 H 938.119 -5.16426 -3.87265 0
M  V30 10198 H 938.887 -7.23941 -3.81905 0
M  V30 10199 N 941.55 1.18024 -1.04442 0
M  V30 10200 C 942.482 2.21294 -0.596799 0
M  V30 10201 C 943.495 1.59305 0.33552 0
M  V30 10202 O 944.684 1.7803 0.129443 0
M  V30 10203 C 941.784 3.38578 0.147648 0
M  V30 10204 C 940.957 4.30143 -0.793484 0
M  V30 10205 C 940.016 5.2612 -0.0916561 0
M  V30 10206 O 939.042 5.64586 -0.72331 0
M  V30 10207 N 940.244 5.68512 1.17364 0
M  V30 10208 H 943.009 2.6032 -1.48504 0
M  V30 10209 H 940.57 1.32847 -0.925374 0
M  V30 10210 H 942.562 3.99812 0.627098 0
M  V30 10211 H 941.132 2.98212 0.937466 0
M  V30 10212 H 940.352 3.66456 -1.45272 0
M  V30 10213 H 941.64 4.88216 -1.43258 0
M  V30 10214 H 941.038 5.39322 1.70729 0
M  V30 10215 H 939.595 6.31925 1.5973 0
M  V30 10216 N 943.028 0.824394 1.34319 0
M  V30 10217 C 943.958 0.262077 2.32025 0
M  V30 10218 C 944.939 -0.622277 1.58309 0
M  V30 10219 O 946.124 -0.548848 1.86283 0
M  V30 10220 C 943.254 -0.57567 3.42496 0
M  V30 10221 C 942.208 0.21167 4.27476 0
M  V30 10222 C 941.534 -0.748913 5.29429 0
M  V30 10223 C 942.834 1.42068 5.02607 0
M  V30 10224 H 944.528 1.07842 2.79304 0
M  V30 10225 H 942.074 0.520022 1.34282 0
M  V30 10226 H 944.027 -0.979251 4.09864 0
M  V30 10227 H 942.751 -1.42508 2.93869 0
M  V30 10228 H 941.41 0.596636 3.61712 0
M  V30 10229 H 941.058 -1.59432 4.77064 0
M  V30 10230 H 940.758 -0.226313 5.87164 0
M  V30 10231 H 942.282 -1.15032 5.99667 0
M  V30 10232 H 943.696 1.09103 5.62823 0
M  V30 10233 H 942.093 1.87903 5.69923 0
M  V30 10234 H 943.163 2.1981 4.32217 0
M  V30 10235 N 944.506 -1.46559 0.579492 0
M  V30 10236 C 945.736 -2.06484 0.0692642 0
M  V30 10237 C 946.144 -1.4293 -1.23967 0
M  V30 10238 O 945.487 -0.527632 -1.75959 0
M  V30 10239 C 945.549 -3.59078 -0.174174 0
M  V30 10240 C 945.213 -4.44805 1.04867 0
M  V30 10241 C 946.21 -4.81543 1.95991 0
M  V30 10242 C 943.895 -4.8599 1.26961 0
M  V30 10243 C 945.889 -5.58288 3.0756 0
M  V30 10244 C 943.576 -5.62495 2.38836 0
M  V30 10245 C 944.574 -5.98558 3.28964 0
M  V30 10246 O 944.262 -6.73518 4.38896 0
M  V30 10247 H 943.994 -0.673917 0.0530331 0
M  V30 10248 H 946.548 -1.89223 0.79898 0
M  V30 10249 H 944.778 -3.74634 -0.958464 0
M  V30 10250 H 946.467 -4.00941 -0.632515 0
M  V30 10251 H 947.233 -4.50307 1.80136 0
M  V30 10252 H 943.112 -4.57372 0.577184 0
M  V30 10253 H 946.656 -5.86355 3.77933 0
M  V30 10254 H 942.553 -5.93145 2.54655 0
M  V30 10255 H 943.321 -6.91938 4.37223 0
M  V30 10256 N 945.984 -0.3171 -1.54377 0
M  V30 10257 C 946.931 0.551782 -2.24107 0
M  V30 10258 C 947.901 1.11681 -1.22949 0
M  V30 10259 O 949.086 1.15836 -1.51614 0
M  V30 10260 C 946.226 1.70997 -2.99756 0
M  V30 10261 C 945.339 1.17479 -4.15719 0
M  V30 10262 C 944.474 2.29815 -4.78914 0
M  V30 10263 C 943.513 1.73513 -5.86992 0
M  V30 10264 N 942.65 2.79485 -6.44075 0
M  V30 10265 H 947.49 -0.049431 -2.97959 0
M  V30 10266 H 945.027 -0.0361658 -1.47056 0
M  V30 10267 H 946.985 2.39141 -3.41859 0
M  V30 10268 H 945.615 2.28257 -2.28251 0
M  V30 10269 H 944.667 0.385109 -3.78446 0
M  V30 10270 H 945.979 0.72276 -4.93536 0
M  V30 10271 H 945.133 3.05875 -5.23952 0
M  V30 10272 H 943.872 2.78352 -4.00464 0
M  V30 10273 H 942.877 0.959475 -5.41363 0
M  V30 10274 H 944.102 1.2586 -6.67335 0
M  V30 10275 H 942.048 3.27325 -5.68502 0
M  V30 10276 H 941.965 2.38825 -7.17286 0
M  V30 10277 H 943.233 3.55394 -6.93769 0
M  V30 10278 N 947.462 1.57535 -0.0451378 0
M  V30 10279 C 948.687 1.97172 0.64326 0
M  V30 10280 C 949.112 0.922266 1.63939 0
M  V30 10281 O 948.47 -0.115155 1.80934 0
M  V30 10282 C 948.518 3.35889 1.3119 0
M  V30 10283 O 947.622 3.33387 2.42748 0
M  V30 10284 H 946.963 0.642469 0.167719 0
M  V30 10285 H 949.493 2.04295 -0.111747 0
M  V30 10286 H 949.503 3.72481 1.66499 0
M  V30 10287 H 948.178 4.1181 0.581823 0
M  V30 10288 H 946.755 3.08533 2.09432 0
M  V30 10289 N 948.94 -0.228186 1.55939 0
M  V30 10290 C 950.186 -0.954964 1.78909 0
M  V30 10291 C 950.519 -1.8425 0.613648 0
M  V30 10292 O 949.794 -1.90604 -0.38737 0
M  V30 10293 C 950.077 -1.79957 3.1191 0
M  V30 10294 C 949.93 -0.938968 4.3989 0
M  V30 10295 C 951.249 -2.77859 3.41295 0
M  V30 10296 H 948.368 -0.345745 0.650868 0
M  V30 10297 H 951.01 -0.224244 1.88672 0
M  V30 10298 H 949.16 -2.42256 3.03717 0
M  V30 10299 H 950.832 -0.333225 4.60095 0
M  V30 10300 H 949.075 -0.244096 4.33113 0
M  V30 10301 H 949.746 -1.56416 5.29375 0
M  V30 10302 H 952.222 -2.25695 3.49572 0
M  V30 10303 H 951.098 -3.34062 4.35538 0
M  V30 10304 H 951.359 -3.55266 2.63132 0
M  V30 10305 N 950.418 -1.49637 -0.494624 0
M  V30 10306 C 951.643 -1.63431 -1.27691 0
M  V30 10307 C 952.068 -0.30813 -1.85559 0
M  V30 10308 O 951.426 0.725083 -1.66169 0
M  V30 10309 C 951.474 -2.71043 -2.3784 0
M  V30 10310 O 950.578 -2.3066 -3.41862 0
M  V30 10311 H 949.919 -0.546804 -0.376698 0
M  V30 10312 H 952.449 -1.95866 -0.591413 0
M  V30 10313 H 952.459 -2.93406 -2.83508 0
M  V30 10314 H 951.134 -3.67306 -1.95088 0
M  V30 10315 H 949.711 -2.18652 -3.02069 0
M  V30 10316 N 951.896 0.746133 -1.38819 0
M  V30 10317 C 952.826 1.87344 -1.39372 0
M  V30 10318 C 953.807 1.68123 -0.258583 0
M  V30 10319 O 954.992 1.88606 -0.462769 0
M  V30 10320 C 952.122 3.24962 -1.22543 0
M  V30 10321 C 951.076 3.58799 -2.33339 0
M  V30 10322 C 950.402 4.95235 -2.01609 0
M  V30 10323 C 951.702 3.62911 -3.75624 0
M  V30 10324 H 953.396 1.87138 -2.33709 0
M  V30 10325 H 950.942 0.898937 -1.12495 0
M  V30 10326 H 952.895 4.03488 -1.21554 0
M  V30 10327 H 951.619 3.25667 -0.246707 0
M  V30 10328 H 950.278 2.82596 -2.33527 0
M  V30 10329 H 949.926 4.92508 -1.02202 0
M  V30 10330 H 949.626 5.18843 -2.75819 0
M  V30 10331 H 951.15 5.76131 -2.02251 0
M  V30 10332 H 952.564 4.31535 -3.77426 0
M  V30 10333 H 950.961 3.98031 -4.491 0
M  V30 10334 H 952.031 2.62967 -4.07402 0
M  V30 10335 N 953.375 1.23811 0.975125 0
M  V30 10336 C 954.786 1.0675 1.53171 0
M  V30 10337 C 955.137 -0.363475 1.92804 0
M  V30 10338 O 954.262 -1.25089 1.76583 0
M  V30 10339 C 954.857 1.93161 2.78342 0
M  V30 10340 C 953.416 1.80346 3.30382 0
M  V30 10341 C 952.563 1.88544 2.03338 0
M  V30 10342 H 955.514 1.37396 0.79423 0
M  V30 10343 H 955.535 1.45951 3.51395 0
M  V30 10344 H 955.047 2.97302 2.49465 0
M  V30 10345 H 953.148 0.790077 3.64127 0
M  V30 10346 H 953.261 2.64026 3.99784 0
M  V30 10347 H 951.625 1.32186 2.17713 0
M  V30 10348 H 952.408 2.94252 1.76836 0
M  V30 10349 N 954.853 -1.17469 1.05066 0
M  V30 10350 C 956.078 -1.92162 0.780298 0
M  V30 10351 C 956.503 -1.76222 -0.657832 0
M  V30 10352 O 955.861 -1.0791 -1.45688 0
M  V30 10353 C 955.909 -3.41292 1.16414 0
M  V30 10354 O 955.013 -4.1134 0.295531 0
M  V30 10355 H 954.354 -0.599127 0.286257 0
M  V30 10356 H 956.884 -1.48903 1.40318 0
M  V30 10357 H 956.894 -3.92029 1.13036 0
M  V30 10358 H 955.569 -3.52214 2.21175 0
M  V30 10359 H 954.146 -3.70857 0.389797 0
M  V30 10360 N 956.331 -0.831506 -1.3388 0
M  V30 10361 C 957.261 -0.274378 -2.31882 0
M  V30 10362 C 958.242 0.613872 -1.58637 0
M  V30 10363 O 959.427 0.538961 -1.86571 0
M  V30 10364 C 956.557 0.557498 -3.42796 0
M  V30 10365 C 955.511 -0.234337 -4.27358 0
M  V30 10366 C 954.837 0.720825 -5.29819 0
M  V30 10367 C 956.137 -1.44732 -5.01847 0
M  V30 10368 H 957.831 -1.09322 -2.78728 0
M  V30 10369 H 955.377 -0.527136 -1.34005 0
M  V30 10370 H 957.33 0.957501 -4.10378 0
M  V30 10371 H 956.054 1.40947 -2.94621 0
M  V30 10372 H 954.713 -0.61581 -3.61391 0
M  V30 10373 H 954.361 1.569 -4.77903 0
M  V30 10374 H 954.061 0.195171 -5.87276 0
M  V30 10375 H 955.585 1.1185 -6.00268 0
M  V30 10376 H 956.999 -1.12087 -5.62236 0
M  V30 10377 H 955.396 -1.90923 -5.68919 0
M  V30 10378 H 956.466 -2.22099 -4.31045 0
M  V30 10379 N 957.809 1.4625 -0.587256 0
M  V30 10380 C 959.086 1.95599 -0.00750181 0
M  V30 10381 C 959.466 1.52989 1.45457 0
M  V30 10382 O 958.814 0.782731 2.14676 0
M  V30 10383 C 959.024 3.48513 -0.184309 0
M  V30 10384 C 960.372 4.24565 -0.0544972 0
M  V30 10385 O 961.396 3.5602 -0.113378 0
M  V30 10386 O 960.255 5.46445 0.0774075 0
M  V30 10387 H 957.349 0.825649 0.0472495 0
M  V30 10388 H 959.895 1.56512 -0.655893 0
M  V30 10389 H 958.667 3.72428 -1.20053 0
M  V30 10390 H 958.29 3.9444 0.500301 0
M  V30 10391 N 959.287 0.325282 1.54207 0
M  V30 10392 C 960.698 -0.162426 1.85992 0
M  V30 10393 C 961.049 -1.51482 1.2469 0
M  V30 10394 O 960.174 -2.092 0.553578 0
M  V30 10395 C 960.769 -0.3015 3.37456 0
M  V30 10396 C 959.328 -0.73343 3.69185 0
M  V30 10397 C 958.475 0.143831 2.76927 0
M  V30 10398 H 961.426 0.545508 1.4903 0
M  V30 10399 H 961.447 -1.13212 3.63268 0
M  V30 10400 H 960.959 0.682942 3.82044 0
M  V30 10401 H 959.06 -1.72755 3.30131 0
M  V30 10402 H 959.173 -0.535987 4.76092 0
M  V30 10403 H 957.537 -0.380892 2.51836 0
M  V30 10404 H 958.32 1.12507 3.24341 0
M  V30 10405 N 960.765 -1.57509 0.0534917 0
M  V30 10406 C 961.728 -2.10563 -0.905307 0
M  V30 10407 C 962.728 -1.02571 -1.23838 0
M  V30 10408 O 963.918 -1.28635 -1.17468 0
M  V30 10409 C 961.05 -2.5918 -2.21447 0
M  V30 10410 H 962.243 -2.96575 -0.445354 0
M  V30 10411 H 959.796 -1.55079 -0.194947 0
M  V30 10412 H 960.531 -1.76568 -2.72019 0
M  V30 10413 H 960.316 -3.38098 -1.98575 0
M  V30 10414 H 961.806 -3.00365 -2.90122 0
M  V30 10415 N 962.243 0.219913 -1.56058 0
M  V30 10416 C 963.468 0.965073 -1.83579 0
M  V30 10417 C 963.893 1.77092 -0.634024 0
M  V30 10418 O 963.251 1.76434 0.417205 0
M  V30 10419 C 963.299 1.85705 -3.09105 0
M  V30 10420 O 962.403 2.95261 -2.87914 0
M  V30 10421 H 961.744 0.273173 -0.605204 0
M  V30 10422 H 964.274 0.23273 -2.03272 0
M  V30 10423 H 964.284 2.26655 -3.39252 0
M  V30 10424 H 962.959 1.26476 -3.96203 0
M  V30 10425 H 961.536 2.58246 -2.69005 0
M  V30 10426 N 963.721 1.49897 0.486681 0
M  V30 10427 C 964.684 1.67086 1.56891 0
M  V30 10428 C 965.684 0.54209 1.51387 0
M  V30 10429 O 966.874 0.80883 1.54284 0
M  V30 10430 C 964.006 1.68159 2.96539 0
M  V30 10431 H 965.199 2.63626 1.42974 0
M  V30 10432 H 962.752 1.39143 0.711954 0
M  V30 10433 H 963.487 0.732562 3.15918 0
M  V30 10434 H 963.272 2.50147 3.01942 0
M  V30 10435 H 964.762 1.83466 3.7514 0
M  V30 10436 N 965.199 -0.738761 1.39212 0
M  V30 10437 C 966.146 -1.85273 1.37631 0
M  V30 10438 C 967.116 -1.64407 0.236572 0
M  V30 10439 O 968.301 -1.85866 0.431104 0
M  V30 10440 C 965.441 -3.22745 1.22188 0
M  V30 10441 C 964.554 -3.55342 2.45674 0
M  V30 10442 C 963.689 -4.82195 2.22847 0
M  V30 10443 C 962.728 -5.07625 3.42029 0
M  V30 10444 N 961.865 -6.25679 3.18543 0
M  V30 10445 H 966.705 -1.85959 2.32859 0
M  V30 10446 H 964.242 -0.908716 1.15675 0
M  V30 10447 H 966.2 -4.02095 1.11245 0
M  V30 10448 H 964.83 -3.21347 0.30592 0
M  V30 10449 H 963.882 -2.70722 2.67233 0
M  V30 10450 H 965.194 -3.70054 3.34457 0
M  V30 10451 H 964.348 -5.69518 2.09126 0
M  V30 10452 H 963.087 -4.6965 1.31454 0
M  V30 10453 H 962.092 -4.18765 3.56253 0
M  V30 10454 H 963.317 -5.22058 4.34319 0
M  V30 10455 H 961.263 -6.14429 2.2981 0
M  V30 10456 H 961.18 -6.40961 4.0088 0
M  V30 10457 H 962.448 -7.15851 3.08508 0
M  V30 10458 N 966.677 -1.24326 -0.968545 0
M  V30 10459 C 967.926 -1.07647 -1.70572 0
M  V30 10460 C 968.239 0.384821 -1.91777 0
M  V30 10461 O 969.445 0.671782 -2.63058 0
M  V30 10462 C 967.901 -1.87799 -3.07017 0
M  V30 10463 C 967.509 -3.38333 -2.93658 0
M  V30 10464 C 969.253 -1.79647 -3.84613 0
M  V30 10465 C 967.16 -4.10831 -4.25407 0
M  V30 10466 H 966.09 -0.399216 -0.639642 0
M  V30 10467 H 968.741 -1.484 -1.07934 0
M  V30 10468 H 967.123 -1.3986 -3.7048 0
M  V30 10469 H 968.297 -3.93845 -2.39213 0
M  V30 10470 H 966.612 -3.47427 -2.29528 0
M  V30 10471 H 969.209 -2.31116 -4.82172 0
M  V30 10472 H 969.552 -0.761553 -4.09275 0
M  V30 10473 H 970.085 -2.25261 -3.27875 0
M  V30 10474 H 966.824 -5.14679 -4.05939 0
M  V30 10475 H 966.344 -3.60105 -4.79671 0
M  V30 10476 H 968.023 -4.17783 -4.94031 0
M  V30 10477 N 968.156 1.1691 -1.05688 0
M  V30 10478 C 969.066 2.24735 -0.67315 0
M  V30 10479 C 970.082 1.71252 0.308043 0
M  V30 10480 O 971.258 2.00772 0.158889 0
M  V30 10481 C 968.323 3.4665 -0.059026 0
M  V30 10482 C 967.384 4.15198 -1.0913 0
M  V30 10483 C 966.617 5.31292 -0.50639 0
M  V30 10484 O 966.84 5.663 0.682692 0
M  V30 10485 O 965.774 5.88923 -1.2431 0
M  V30 10486 H 969.6 2.59855 -1.57191 0
M  V30 10487 H 967.185 1.24306 -0.828751 0
M  V30 10488 H 969.067 4.20455 0.282018 0
M  V30 10489 H 967.742 3.13316 0.813304 0
M  V30 10490 H 966.649 3.43389 -1.48442 0
M  V30 10491 H 967.982 4.52571 -1.93495 0
M  V30 10492 N 969.634 0.838594 1.33437 0
M  V30 10493 C 970.882 0.433312 1.974 0
M  V30 10494 C 971.203 -1.01078 1.66758 0
M  V30 10495 O 970.473 -1.70406 0.966373 0
M  V30 10496 H 969.053 0.15724 0.730263 0
M  V30 10497 H 971.715 1.07149 1.62804 0
M  V30 10498 H 970.811 0.565144 3.06941 0
M  V30 10499 N 971.112 -1.45937 0.595003 0
M  V30 10500 C 972.06 -2.32155 -0.143798 0
M  V30 10501 C 973.054 -1.45221 -0.872198 0
M  V30 10502 O 974.26 -1.61777 -0.789191 0
M  V30 10503 H 970.635 -0.749165 -0.0652377 0
M  V30 10504 H 972.606 -2.92264 0.602005 0
M  V30 10505 C 971.355 -3.28615 -1.13611 0
M  V30 10506 H 970.678 -3.95496 -0.585044 0
M  V30 10507 H 972.118 -3.91699 -1.62321 0
M  V30 10508 C 970.577 -2.54863 -2.20333 0
M  V30 10509 O 971.107 -2.32071 -3.27881 0
M  V30 10510 N 969.313 -2.15213 -1.95274 0
M  V30 10511 H 968.86 -2.33949 -1.07822 0
M  V30 10512 H 968.818 -1.66188 -2.66888 0
M  V30 10513 N 972.59 -0.333456 -1.54032 0
M  V30 10514 C 973.52 0.52051 -2.27625 0
M  V30 10515 C 974.501 1.1111 -1.28797 0
M  V30 10516 O 975.686 1.13438 -1.57625 0
M  V30 10517 C 972.816 1.67663 -3.04149 0
M  V30 10518 C 971.77 1.21487 -4.10396 0
M  V30 10519 C 971.096 2.45872 -4.74817 0
M  V30 10520 C 972.396 0.322603 -5.21303 0
M  V30 10521 H 974.09 -0.0933823 -2.99254 0
M  V30 10522 H 971.636 -0.0463526 -1.43925 0
M  V30 10523 H 973.589 2.28041 -3.54366 0
M  V30 10524 H 972.313 2.31727 -2.30153 0
M  V30 10525 H 970.972 0.633966 -3.61077 0
M  V30 10526 H 970.62 3.0832 -3.97426 0
M  V30 10527 H 970.32 2.15662 -5.46593 0
M  V30 10528 H 971.844 3.06994 -5.27814 0
M  V30 10529 H 973.258 0.832942 -5.67217 0
M  V30 10530 H 971.655 0.112843 -5.99994 0
M  V30 10531 H 972.725 -0.643954 -4.80605 0
M  V30 10532 N 974.068 1.57479 -0.061844 0
M  V30 10533 C 975.317 1.92285 0.609055 0
M  V30 10534 C 975.63 0.942983 1.71369 0
M  V30 10535 O 976.836 1.18349 2.44348 0
M  V30 10536 C 975.292 3.41545 1.13468 0
M  V30 10537 C 974.9 4.47958 0.0615926 0
M  V30 10538 C 976.644 3.85368 1.78022 0
M  V30 10539 C 974.551 5.88341 0.600705 0
M  V30 10540 H 973.481 0.717656 0.23127 0
M  V30 10541 H 976.132 1.83021 -0.132466 0
M  V30 10542 H 974.514 3.45848 1.92886 0
M  V30 10543 H 975.688 4.55258 -0.712527 0
M  V30 10544 H 974.003 4.13541 -0.487116 0
M  V30 10545 H 976.6 4.87627 2.19371 0
M  V30 10546 H 976.943 3.22193 2.63623 0
M  V30 10547 H 977.476 3.83626 1.05242 0
M  V30 10548 H 974.215 6.55138 -0.217922 0
M  V30 10549 H 973.735 5.84581 1.34257 0
M  V30 10550 H 975.414 6.37918 1.08025 0
M  V30 10551 N 975.546 -0.211634 1.56173 0
M  V30 10552 C 976.793 -0.93455 1.79645 0
M  V30 10553 C 977.121 -1.83936 0.632294 0
M  V30 10554 O 976.376 -1.91919 -0.382841 0
M  V30 10555 C 976.675 -1.79657 3.08963 0
M  V30 10556 C 976.341 -1.04415 4.38644 0
M  V30 10557 C 975.003 -0.836351 4.73876 0
M  V30 10558 C 977.355 -0.51355 5.18664 0
M  V30 10559 C 974.683 -0.0861976 5.86637 0
M  V30 10560 C 977.035 0.223309 6.32206 0
M  V30 10561 C 975.699 0.442279 6.66033 0
M  V30 10562 H 974.969 -0.341976 0.657368 0
M  V30 10563 H 977.616 -0.202024 1.90431 0
M  V30 10564 H 975.921 -2.59726 2.93342 0
M  V30 10565 H 977.618 -2.35823 3.24328 0
M  V30 10566 H 974.208 -1.21611 4.10985 0
M  V30 10567 H 978.392 -0.661541 4.91871 0
M  V30 10568 H 973.648 0.0935866 6.11328 0
M  V30 10569 H 977.822 0.641917 6.93435 0
M  V30 10570 H 975.449 1.02547 7.53252 0
M  V30 10571 N 977.024 -1.50153 -0.478725 0
M  V30 10572 C 978.301 -1.51274 -1.23999 0
M  V30 10573 C 978.681 -0.253048 -2.09578 0
M  V30 10574 O 978.029 0.763827 -2.15355 0
M  V30 10575 C 978.239 -2.80423 -2.07759 0
M  V30 10576 C 979.587 -3.30788 -2.66204 0
M  V30 10577 O 980.611 -2.81693 -2.18008 0
M  V30 10578 O 979.47 -4.1635 -3.53999 0
M  V30 10579 H 976.564 -0.606438 -0.562283 0
M  V30 10580 H 979.11 -1.62436 -0.491171 0
M  V30 10581 H 977.882 -3.63584 -1.44645 0
M  V30 10582 H 977.505 -2.72228 -2.89789 0
M  V30 10583 N 978.502 0.731368 -1.39602 0
M  V30 10584 C 979.913 1.30981 -1.33045 0
M  V30 10585 C 980.264 1.962 0.00349918 0
M  V30 10586 O 979.389 1.96539 0.905615 0
M  V30 10587 C 979.984 2.3817 -2.40958 0
M  V30 10588 C 978.543 2.91678 -2.3791 0
M  V30 10589 C 977.69 1.65286 -2.22656 0
M  V30 10590 H 980.641 0.528615 -1.49637 0
M  V30 10591 H 980.662 3.18645 -2.07955 0
M  V30 10592 H 980.174 1.90673 -3.38032 0
M  V30 10593 H 978.275 3.43446 -1.44485 0
M  V30 10594 H 978.388 3.44545 -3.32904 0
M  V30 10595 H 976.752 1.89759 -1.69893 0
M  V30 10596 H 977.535 1.19836 -3.21705 0
M  V30 10597 N 979.98 1.24838 0.961938 0
M  V30 10598 C 980.928 1.0436 2.07874 0
M  V30 10599 C 981.922 -0.0232531 1.69384 0
M  V30 10600 O 983.128 0.131773 1.79517 0
M  V30 10601 H 979.503 0.320492 0.680286 0
M  V30 10602 H 981.474 1.99055 2.22306 0
M  V30 10603 C 980.223 0.671246 3.41159 0
M  V30 10604 H 979.546 1.48395 3.7124 0
M  V30 10605 H 980.986 0.567608 4.20184 0
M  V30 10606 C 979.445 -0.622124 3.31106 0
M  V30 10607 O 979.975 -1.66627 3.65511 0
M  V30 10608 N 978.181 -0.605009 2.84232 0
M  V30 10609 H 977.728 0.245052 2.56432 0
M  V30 10610 H 977.686 -1.47056 2.77888 0
M  V30 10611 N 981.458 -1.16348 1.06306 0
M  V30 10612 C 982.406 -2.22799 0.668087 0
M  V30 10613 C 983.4 -1.66426 -0.316051 0
M  V30 10614 O 984.606 -1.79089 -0.180902 0
M  V30 10615 H 980.981 -0.725487 0.19792 0
M  V30 10616 H 982.952 -2.53401 1.57577 0
M  V30 10617 C 981.701 -3.47628 0.0706797 0
M  V30 10618 H 981.024 -3.9132 0.819064 0
M  V30 10619 H 982.464 -4.23666 -0.16816 0
M  V30 10620 C 980.923 -3.15343 -1.18577 0
M  V30 10621 O 981.453 -3.31158 -2.27371 0
M  V30 10622 N 979.659 -2.69472 -1.08779 0
M  V30 10623 H 979.206 -2.56803 -0.202447 0
M  V30 10624 H 979.164 -2.48244 -1.92931 0
M  V30 10625 N 982.937 -0.845659 -1.3299 0
M  V30 10626 C 984.167 -0.457686 -2.01467 0
M  V30 10627 C 984.575 0.947664 -1.63756 0
M  V30 10628 O 983.918 1.62841 -0.850213 0
M  V30 10629 C 983.98 -0.506589 -3.55913 0
M  V30 10630 C 983.644 -1.86924 -4.17023 0
M  V30 10631 C 984.641 -2.83344 -4.35904 0
M  V30 10632 C 982.326 -2.16394 -4.53298 0
M  V30 10633 C 984.32 -4.07391 -4.90216 0
M  V30 10634 C 982.007 -3.40695 -5.07316 0
M  V30 10635 C 983.005 -4.3601 -5.25722 0
M  V30 10636 O 982.693 -5.58112 -5.7859 0
M  V30 10637 H 982.425 -0.179258 -0.651799 0
M  V30 10638 H 984.979 -1.14172 -1.70745 0
M  V30 10639 H 983.209 0.234253 -3.8599 0
M  V30 10640 H 984.898 -0.135487 -4.05674 0
M  V30 10641 H 985.664 -2.61879 -4.08221 0
M  V30 10642 H 981.543 -1.42994 -4.38262 0
M  V30 10643 H 985.087 -4.81796 -5.04498 0
M  V30 10644 H 980.984 -3.62014 -5.3443 0
M  V30 10645 H 981.752 -5.59946 -5.96995 0
M  V30 10646 N 984.415 1.45619 -0.602734 0
M  V30 10647 C 985.345 2.33258 0.106342 0
M  V30 10648 C 986.326 1.46543 0.863664 0
M  V30 10649 O 987.511 1.75324 0.835175 0
M  V30 10650 C 984.641 3.29168 1.10751 0
M  V30 10651 C 983.595 4.25481 0.463717 0
M  V30 10652 C 982.921 5.11046 1.57278 0
M  V30 10653 C 984.221 5.18702 -0.61199 0
M  V30 10654 H 985.915 2.92795 -0.625423 0
M  V30 10655 H 983.461 1.40793 -0.302213 0
M  V30 10656 H 985.414 3.89346 1.61208 0
M  V30 10657 H 984.138 2.6778 1.8698 0
M  V30 10658 H 982.797 3.66595 -0.0199496 0
M  V30 10659 H 982.445 4.46029 2.32524 0
M  V30 10660 H 982.145 5.76286 1.14755 0
M  V30 10661 H 983.669 5.74091 2.07972 0
M  V30 10662 H 985.083 5.72979 -0.191686 0
M  V30 10663 H 983.48 5.92393 -0.958686 0
M  V30 10664 H 984.55 4.61424 -1.4905 0
M  V30 10665 N 985.893 0.34162 1.53853 0
M  V30 10666 C 987.304 -0.14269 1.86154 0
M  V30 10667 C 987.655 -1.50151 1.2629 0
M  V30 10668 O 986.78 -2.08601 0.575735 0
M  V30 10669 C 987.375 -0.265691 3.37757 0
M  V30 10670 C 985.934 -0.694231 3.69942 0
M  V30 10671 C 985.081 0.173195 2.76759 0
M  V30 10672 H 988.032 0.561284 1.48443 0
M  V30 10673 H 988.053 -1.09352 3.64448 0
M  V30 10674 H 987.565 0.723424 3.81298 0
M  V30 10675 H 985.666 -1.69244 3.31945 0
M  V30 10676 H 985.779 -0.485461 4.76634 0
M  V30 10677 H 984.143 -0.35416 2.52226 0
M  V30 10678 H 984.926 1.15941 3.23129 0
M  V30 10679 N 987.371 -1.57444 0.0701946 0
M  V30 10680 C 988.318 -2.12631 -0.897599 0
M  V30 10681 C 989.288 -1.03841 -1.29639 0
M  V30 10682 O 990.473 -1.31495 -1.38253 0
M  V30 10683 C 987.613 -2.6911 -2.16041 0
M  V30 10684 C 986.726 -3.9205 -1.8144 0
M  V30 10685 C 985.861 -4.36778 -3.02321 0
M  V30 10686 C 984.9 -5.52371 -2.63729 0
M  V30 10687 N 984.037 -5.92065 -3.77364 0
M  V30 10688 H 988.877 -2.95024 -0.420104 0
M  V30 10689 H 986.414 -1.45792 -0.195716 0
M  V30 10690 H 988.372 -2.99963 -2.89962 0
M  V30 10691 H 987.002 -1.89484 -2.61334 0
M  V30 10692 H 986.054 -3.67669 -0.975896 0
M  V30 10693 H 987.366 -4.76011 -1.49046 0
M  V30 10694 H 986.52 -4.69285 -3.84521 0
M  V30 10695 H 985.259 -3.51668 -3.37907 0
M  V30 10696 H 984.264 -5.19517 -1.7995 0
M  V30 10697 H 985.489 -6.39212 -2.29315 0
M  V30 10698 H 983.435 -5.09904 -4.12715 0
M  V30 10699 H 983.352 -6.70762 -3.48733 0
M  V30 10700 H 984.62 -6.29193 -4.60148 0
M  V30 10701 N 988.849 0.203349 -1.56283 0
M  V30 10702 C 989.759 1.27266 -1.9708 0
M  V30 10703 C 990.775 1.50268 -0.877236 0
M  V30 10704 O 991.951 1.63044 -1.18231 0
M  V30 10705 C 989.016 2.59871 -2.29495 0
M  V30 10706 C 988.077 2.45012 -3.52516 0
M  V30 10707 C 987.31 3.71293 -3.83376 0
M  V30 10708 O 987.533 4.75106 -3.15643 0
M  V30 10709 O 986.467 3.67316 -4.76826 0
M  V30 10710 H 990.293 0.956461 -2.88246 0
M  V30 10711 H 987.878 0.407688 -1.4373 0
M  V30 10712 H 989.76 3.38152 -2.51458 0
M  V30 10713 H 988.435 2.91135 -1.415 0
M  V30 10714 H 987.342 1.6487 -3.35811 0
M  V30 10715 H 988.675 2.18683 -4.40952 0
M  V30 10716 N 990.327 1.50405 0.470755 0
M  V30 10717 C 991.552 1.65442 1.25075 0
M  V30 10718 C 991.977 0.337612 1.85045 0
M  V30 10719 O 991.335 -0.698555 1.67302 0
M  V30 10720 C 991.383 2.74793 2.33498 0
M  V30 10721 O 990.487 2.36069 3.3815 0
M  V30 10722 H 989.828 0.552728 0.367951 0
M  V30 10723 H 992.358 1.96782 0.560177 0
M  V30 10724 H 992.368 2.97879 2.78804 0
M  V30 10725 H 991.043 3.70363 1.8922 0
M  V30 10726 H 989.62 2.2343 2.98552 0
M  V30 10727 N 991.805 -0.723954 1.39988 0
M  V30 10728 C 992.738 -1.84725 1.33985 0
M  V30 10729 C 993.716 -1.61217 0.211623 0
M  V30 10730 O 994.9 -1.84338 0.393905 0
M  V30 10731 C 992.027 -3.20913 1.08317 0
M  V30 10732 C 991.073 -3.63262 2.23478 0
M  V30 10733 S 991.906 -3.71346 3.85827 0
M  V30 10734 C 993.062 -5.10307 3.62405 0
M  V30 10735 H 993.295 -1.89535 2.2905 0
M  V30 10736 H 990.828 -0.889911 1.26174 0
M  V30 10737 H 992.786 -3.99547 0.941921 0
M  V30 10738 H 991.447 -3.13745 0.149203 0
M  V30 10739 H 990.64 -4.62124 2.01139 0
M  V30 10740 H 990.242 -2.91863 2.33863 0
M  V30 10741 H 992.534 -5.96975 3.20354 0
M  V30 10742 H 993.477 -5.37679 4.60768 0
M  V30 10743 H 993.885 -4.80505 2.96269 0
M  V30 10744 N 993.283 -1.25346 -0.955304 0
M  V30 10745 C 994.213 -1.08152 -2.06943 0
M  V30 10746 C 995.194 0.00922598 -1.70097 0
M  V30 10747 O 996.379 -0.160181 -1.93538 0
M  V30 10748 C 993.509 -0.698745 -3.40198 0
M  V30 10749 C 992.463 -1.73965 -3.9105 0
M  V30 10750 C 991.789 -1.21158 -5.20792 0
M  V30 10751 C 993.089 -3.13829 -4.17503 0
M  V30 10752 H 994.783 -2.01345 -2.21586 0
M  V30 10753 H 992.329 -0.969459 -1.06478 0
M  V30 10754 H 994.282 -0.565394 -4.1759 0
M  V30 10755 H 993.006 0.268892 -3.25491 0
M  V30 10756 H 991.665 -1.86143 -3.15827 0
M  V30 10757 H 991.313 -0.234193 -5.02455 0
M  V30 10758 H 991.013 -1.90728 -5.55785 0
M  V30 10759 H 992.537 -1.09061 -6.00781 0
M  V30 10760 H 993.951 -3.04809 -4.85556 0
M  V30 10761 H 992.348 -3.80863 -4.63749 0
M  V30 10762 H 993.418 -3.6094 -3.23806 0
M  V30 10763 N 994.761 1.15782 -1.06922 0
M  V30 10764 C 995.708 2.2038 -0.685659 0
M  V30 10765 C 996.678 1.62972 0.320816 0
M  V30 10766 O 997.863 1.8966 0.208258 0
M  V30 10767 C 995.003 3.44995 -0.084998 0
M  V30 10768 C 994.116 4.16621 -1.14242 0
M  V30 10769 C 993.251 5.28773 -0.507226 0
M  V30 10770 C 992.29 5.92209 -1.54774 0
M  V30 10771 N 991.427 6.9584 -0.935443 0
M  V30 10772 H 996.267 2.5254 -1.58201 0
M  V30 10773 H 993.804 1.24031 -0.790864 0
M  V30 10774 H 995.762 4.16254 0.280845 0
M  V30 10775 H 994.392 3.13365 0.774725 0
M  V30 10776 H 993.444 3.43903 -1.62589 0
M  V30 10777 H 994.756 4.59884 -1.93154 0
M  V30 10778 H 993.91 6.06635 -0.0887719 0
M  V30 10779 H 992.649 4.8669 0.313704 0
M  V30 10780 H 991.654 5.13063 -1.97602 0
M  V30 10781 H 992.879 6.3637 -2.37088 0
M  V30 10782 H 990.825 6.5586 -0.135339 0
M  V30 10783 H 990.742 7.37508 -1.66186 0
M  V30 10784 H 992.01 7.77611 -0.542346 0
M  V30 10785 N 996.239 0.8527 1.3254 0
M  V30 10786 C 997.467 0.469044 2.01513 0
M  V30 10787 C 997.882 -0.933701 1.64096 0
M  V30 10788 O 997.239 -1.60898 0.861283 0
M  V30 10789 C 997.29 0.596228 3.56549 0
M  V30 10790 O 997.011 1.94371 3.92621 0
M  V30 10791 C 998.512 0.211324 4.42796 0
M  V30 10792 H 995.732 0.184589 0.645111 0
M  V30 10793 H 998.276 1.1491 1.69163 0
M  V30 10794 H 996.431 -0.0360712 3.87383 0
M  V30 10795 H 996.845 1.93909 4.87339 0
M  V30 10796 H 998.319 0.351324 5.50881 0
M  V30 10797 H 998.796 -0.848055 4.30935 0
M  V30 10798 H 999.402 0.818617 4.17347 0
M  V30 10799 N 997.718 -1.45297 0.610449 0
M  V30 10800 C 998.946 -2.0659 0.113211 0
M  V30 10801 C 999.361 -1.4546 -1.20361 0
M  V30 10802 O 998.718 -0.569823 -1.73376 0
M  V30 10803 C 998.769 -3.61488 -0.0298411 0
M  V30 10804 O 998.49 -4.20336 1.23488 0
M  V30 10805 C 999.991 -4.39772 -0.558202 0
M  V30 10806 H 997.211 -0.667322 0.0701555 0
M  V30 10807 H 999.755 -1.86497 0.838993 0
M  V30 10808 H 997.91 -3.80913 -0.705963 0
M  V30 10809 H 998.324 -5.13545 1.0664 0
M  V30 10810 H 999.798 -5.48648 -0.607375 0
M  V30 10811 H 1000.27 -4.09755 -1.58107 0
M  V30 10812 H 1000.88 -4.25217 0.0839704 0
M  V30 10813 N 999.196 -0.349774 -1.5367 0
M  V30 10814 C 1000.13 0.496338 -2.28164 0
M  V30 10815 C 1001.11 1.09737 -1.29968 0
M  V30 10816 O 1002.29 1.11759 -1.58819 0
M  V30 10817 C 999.422 1.64428 -3.0591 0
M  V30 10818 C 998.376 1.17127 -4.11661 0
M  V30 10819 C 997.702 2.40822 -4.77398 0
M  V30 10820 C 999.002 0.267293 -5.21616 0
M  V30 10821 H 1000.7 -0.125117 -2.99138 0
M  V30 10822 H 998.242 -0.0616152 -1.43868 0
M  V30 10823 H 1000.19 2.2427 -3.56765 0
M  V30 10824 H 998.919 2.29272 -2.32598 0
M  V30 10825 H 997.578 0.595634 -3.61729 0
M  V30 10826 H 997.226 3.04088 -4.00674 0
M  V30 10827 H 996.926 2.09852 -5.48849 0
M  V30 10828 H 998.45 3.01378 -5.3104 0
M  V30 10829 H 999.864 0.772734 -5.68068 0
M  V30 10830 H 998.261 0.0491991 -6.0008 0
M  V30 10831 H 999.331 -0.694892 -4.79895 0
M  V30 10832 N 1000.67 1.57404 -0.0785433 0
M  V30 10833 C 1001.9 1.98074 0.597862 0
M  V30 10834 C 1002.32 0.95714 1.6274 0
M  V30 10835 O 1001.67 -0.0553728 1.82416 0
M  V30 10836 C 1001.72 3.38815 1.26041 0
M  V30 10837 O 1001.45 4.37254 0.27207 0
M  V30 10838 C 1002.95 3.94397 2.024 0
M  V30 10839 H 1000.17 0.651263 0.161546 0
M  V30 10840 H 1002.71 2.03927 -0.152941 0
M  V30 10841 H 1000.87 3.34028 1.96225 0
M  V30 10842 H 1001.28 5.19136 0.74822 0
M  V30 10843 H 1002.75 4.95075 2.4414 0
M  V30 10844 H 1003.23 3.31308 2.88326 0
M  V30 10845 H 1003.84 4.02607 1.37068 0
M  V30 10846 N 1002.15 -0.195058 1.56388 0
M  V30 10847 C 1003.11 -1.2254 1.93692 0
M  V30 10848 C 1004.11 -1.38437 0.81804 0
M  V30 10849 O 1005.3 -1.36248 1.08545 0
M  V30 10850 C 1002.44 -2.59476 2.21099 0
M  V30 10851 H 1003.63 -0.906544 2.8587 0
M  V30 10852 H 1001.18 -0.436577 1.50079 0
M  V30 10853 H 1001.92 -2.96417 1.31558 0
M  V30 10854 H 1001.7 -2.4931 3.02634 0
M  V30 10855 H 1003.19 -3.33777 2.50964 0
M  V30 10856 N 1003.63 -1.50653 -0.462772 0
M  V30 10857 C 1004.88 -1.62057 -1.21424 0
M  V30 10858 C 1005.2 -0.324778 -1.91769 0
M  V30 10859 O 1004.46 0.689828 -1.83139 0
M  V30 10860 C 1004.76 -2.75637 -2.27507 0
M  V30 10861 C 1004.42 -4.15826 -1.74354 0
M  V30 10862 C 1003.09 -4.53969 -1.5958 0
M  V30 10863 C 1005.44 -5.03409 -1.35012 0
M  V30 10864 C 1002.77 -5.77427 -1.03899 0
M  V30 10865 C 1005.12 -6.27422 -0.807704 0
M  V30 10866 C 1003.78 -6.6436 -0.646657 0
M  V30 10867 H 1003.05 -0.59301 -0.44432 0
M  V30 10868 H 1005.7 -1.84612 -0.508999 0
M  V30 10869 H 1004 -2.47203 -3.0397 0
M  V30 10870 H 1005.7 -2.81663 -2.85424 0
M  V30 10871 H 1002.29 -3.85739 -1.86823 0
M  V30 10872 H 1006.48 -4.74567 -1.45258 0
M  V30 10873 H 1001.73 -6.04713 -0.901751 0
M  V30 10874 H 1005.91 -6.94644 -0.494234 0
M  V30 10875 H 1003.53 -7.59901 -0.213053 0
M  V30 10876 N 1005.11 0.71652 -1.4037 0
M  V30 10877 C 1006.36 1.47347 -1.38324 0
M  V30 10878 C 1006.68 1.94995 0.0139949 0
M  V30 10879 O 1005.95 1.7028 0.968585 0
M  V30 10880 H 1004.53 0.546662 -0.509087 0
M  V30 10881 H 1007.19 0.849455 -1.75415 0
M  V30 10882 H 1006.29 2.34675 -2.05752 0
M  V30 10883 N 1006.59 1.25851 0.948643 0
M  V30 10884 C 1007.83 1.10954 1.69397 0
M  V30 10885 C 1008.16 -0.348443 1.91353 0
M  V30 10886 O 1007.42 -1.27285 1.48651 0
M  V30 10887 C 1007.72 1.81565 3.07846 0
M  V30 10888 C 1007.38 3.31477 3.0567 0
M  V30 10889 C 1006.04 3.72371 3.04784 0
M  V30 10890 C 1008.4 4.27225 2.98543 0
M  V30 10891 C 1005.72 5.07416 2.94527 0
M  V30 10892 C 1008.08 5.62301 2.89828 0
M  V30 10893 C 1006.74 6.02516 2.87281 0
M  V30 10894 H 1006.01 0.406011 0.619868 0
M  V30 10895 H 1008.66 1.562 1.10787 0
M  V30 10896 H 1006.96 1.28767 3.70035 0
M  V30 10897 H 1008.66 1.67486 3.64348 0
M  V30 10898 H 1005.25 2.98941 3.07135 0
M  V30 10899 H 1009.43 3.96618 2.98342 0
M  V30 10900 H 1004.69 5.37746 2.90928 0
M  V30 10901 H 1008.86 6.36182 2.83276 0
M  V30 10902 H 1006.49 7.07116 2.79089 0
M  V30 10903 N 1008.06 -1.15214 1.07534 0
M  V30 10904 C 1009.03 -2.18209 0.701237 0
M  V30 10905 C 1010.03 -1.58693 -0.25946 0
M  V30 10906 O 1011.22 -1.74154 -0.0401744 0
M  V30 10907 C 1008.35 -3.40883 0.0338703 0
M  V30 10908 H 1009.54 -2.5282 1.61314 0
M  V30 10909 H 1007.1 -1.29707 0.872105 0
M  V30 10910 H 1007.83 -3.11843 -0.890187 0
M  V30 10911 H 1007.62 -3.85342 0.72486 0
M  V30 10912 H 1009.11 -4.17056 -0.213152 0
M  V30 10913 N 1009.54 -0.859717 -1.32086 0
M  V30 10914 C 1010.77 -0.478865 -2.01796 0
M  V30 10915 C 1011.19 0.918274 -1.64163 0
M  V30 10916 O 1010.55 1.60409 -0.844896 0
M  V30 10917 C 1010.6 -0.631356 -3.5503 0
M  V30 10918 O 1009.7 0.333712 -4.11048 0
M  V30 10919 H 1009.04 -0.191775 -0.635703 0
M  V30 10920 H 1011.57 -1.16031 -1.68517 0
M  V30 10921 H 1011.58 -0.520783 -4.04663 0
M  V30 10922 H 1010.26 -1.65015 -3.81763 0
M  V30 10923 H 1008.84 0.178953 -3.7247 0
M  V30 10924 N 1011.02 1.44971 -0.618145 0
M  V30 10925 C 1011.98 2.29044 0.0846739 0
M  V30 10926 C 1012.98 1.40341 0.784921 0
M  V30 10927 O 1014.17 1.62351 0.631479 0
M  V30 10928 C 1011.31 3.21617 1.13027 0
M  V30 10929 H 1012.5 2.92668 -0.654612 0
M  V30 10930 H 1010.05 1.51668 -0.377672 0
M  V30 10931 H 1010.79 2.62815 1.89997 0
M  V30 10932 H 1010.57 3.86969 0.63224 0
M  V30 10933 H 1012.06 3.84805 1.62218 0
M  V30 10934 N 1012.5 0.357919 1.53482 0
M  V30 10935 C 1013.78 -0.290164 1.93436 0
M  V30 10936 C 1014.16 -1.67039 1.29079 0
M  V30 10937 O 1013.5 -2.24085 0.447017 0
M  V30 10938 C 1013.71 -0.348055 3.4726 0
M  V30 10939 C 1015.06 -0.59206 4.20452 0
M  V30 10940 O 1016.09 -0.429581 3.536 0
M  V30 10941 O 1014.94 -0.907855 5.38907 0
M  V30 10942 H 1012.04 -0.172312 0.80885 0
M  V30 10943 H 1014.58 0.410144 1.64669 0
M  V30 10944 H 1013.36 0.619953 3.86358 0
M  V30 10945 H 1012.98 -1.09457 3.82237 0
M  V30 10946 N 1013.98 -1.5736 0.0868897 0
M  V30 10947 C 1014.91 -2.16596 -0.872252 0
M  V30 10948 C 1015.89 -1.09706 -1.29995 0
M  V30 10949 O 1017.07 -1.37808 -1.36831 0
M  V30 10950 C 1014.2 -2.73972 -2.1344 0
M  V30 10951 C 1013.16 -3.86163 -1.8456 0
M  V30 10952 C 1012.48 -4.30206 -3.17533 0
M  V30 10953 C 1013.78 -5.0973 -1.13899 0
M  V30 10954 H 1015.48 -2.96995 -0.378738 0
M  V30 10955 H 1013.02 -1.42861 -0.18073 0
M  V30 10956 H 1014.98 -3.14062 -2.80968 0
M  V30 10957 H 1013.7 -1.90817 -2.6506 0
M  V30 10958 H 1012.36 -3.466 -1.19432 0
M  V30 10959 H 1012.01 -3.43951 -3.67024 0
M  V30 10960 H 1011.71 -5.05841 -2.98996 0
M  V30 10961 H 1013.23 -4.72922 -3.86234 0
M  V30 10962 H 1014.64 -5.4704 -1.71523 0
M  V30 10963 H 1013.04 -5.90741 -1.05569 0
M  V30 10964 H 1014.11 -4.8475 -0.120432 0
M  V30 10965 N 1015.45 0.186762 -1.56489 0
M  V30 10966 C 1016.7 0.904077 -1.80303 0
M  V30 10967 C 1017.02 1.84073 -0.661538 0
M  V30 10968 O 1018.22 2.59928 -0.784197 0
M  V30 10969 C 1016.68 1.65806 -3.19432 0
M  V30 10970 C 1016.29 0.765807 -4.41406 0
M  V30 10971 C 1018.03 2.36451 -3.52549 0
M  V30 10972 C 1015.94 1.51913 -5.71556 0
M  V30 10973 H 1014.87 0.34133 -0.672317 0
M  V30 10974 H 1017.52 0.157218 -1.82825 0
M  V30 10975 H 1015.9 2.44911 -3.11183 0
M  V30 10976 H 1017.07 0.0128225 -4.60798 0
M  V30 10977 H 1015.39 0.169772 -4.16054 0
M  V30 10978 H 1017.99 2.93378 -4.47027 0
M  V30 10979 H 1018.33 3.11044 -2.7669 0
M  V30 10980 H 1018.86 1.64305 -3.62283 0
M  V30 10981 H 1015.6 0.815829 -6.50403 0
M  V30 10982 H 1015.12 2.24583 -5.56168 0
M  V30 10983 H 1016.8 2.07073 -6.12968 0
M  V30 10984 N 1016.93 1.50896 0.454776 0
M  V30 10985 C 1017.84 1.73762 1.5762 0
M  V30 10986 C 1018.86 0.621206 1.62533 0
M  V30 10987 O 1020.03 0.901449 1.801 0
M  V30 10988 C 1017.1 1.84183 2.9373 0
M  V30 10989 C 1016.16 3.07982 2.99075 0
M  V30 10990 C 1015.39 3.17896 4.28693 0
M  V30 10991 O 1015.62 2.34184 5.20109 0
M  V30 10992 O 1014.55 4.10749 4.39964 0
M  V30 10993 H 1018.38 2.68856 1.41245 0
M  V30 10994 H 1015.96 1.35187 0.635984 0
M  V30 10995 H 1017.84 1.93123 3.74542 0
M  V30 10996 H 1016.52 0.922742 3.10269 0
M  V30 10997 H 1015.43 3.04531 2.17282 0
M  V30 10998 H 1016.76 3.99523 2.87476 0
M  V30 10999 N 1018.41 -0.709066 1.40748 0
M  V30 11000 C 1019.66 -1.4646 1.38681 0
M  V30 11001 C 1019.97 -1.95599 -0.0056209 0
M  V30 11002 O 1021.18 -2.71091 -0.148907 0
M  V30 11003 C 1019.63 -2.64771 2.43771 0
M  V30 11004 C 1019.24 -2.22474 3.88856 0
M  V30 11005 C 1020.99 -3.42475 2.50821 0
M  V30 11006 C 1018.89 -3.37663 4.85528 0
M  V30 11007 H 1017.82 -0.550084 0.515678 0
M  V30 11008 H 1020.47 -0.771074 1.66513 0
M  V30 11009 H 1018.86 -3.36325 2.09048 0
M  V30 11010 H 1020.03 -1.58297 4.32757 0
M  V30 11011 H 1018.35 -1.57798 3.85342 0
M  V30 11012 H 1020.94 -4.28201 3.20232 0
M  V30 11013 H 1021.29 -3.86738 1.54076 0
M  V30 11014 H 1021.82 -2.77969 2.84567 0
M  V30 11015 H 1018.56 -2.98426 5.83628 0
M  V30 11016 H 1018.08 -4.00734 4.46287 0
M  V30 11017 H 1019.76 -4.03636 5.05655 0
M  V30 11018 N 1019.89 -1.26353 -0.941956 0
M  V30 11019 C 1021.14 -1.1163 -1.68473 0
M  V30 11020 C 1021.46 0.34108 -1.91994 0
M  V30 11021 O 1020.73 1.24065 -1.51607 0
M  V30 11022 H 1019.31 -0.410113 -0.624353 0
M  V30 11023 H 1021.97 -1.58669 -1.13182 0
M  V30 11024 H 1021.07 -1.63445 -2.6588 0
M  V30 11025 N 1021.37 1.14642 -1.08144 0
M  V30 11026 C 1022.3 2.21775 -0.730609 0
M  V30 11027 C 1023.28 1.67683 0.285702 0
M  V30 11028 O 1024.46 1.93567 0.156667 0
M  V30 11029 C 1021.59 3.47033 -0.136242 0
M  V30 11030 C 1020.55 4.14134 -1.0806 0
M  V30 11031 C 1019.87 5.33563 -0.348585 0
M  V30 11032 C 1021.17 4.62978 -2.41761 0
M  V30 11033 H 1022.87 2.51378 -1.62633 0
M  V30 11034 H 1020.41 1.20825 -0.783411 0
M  V30 11035 H 1022.37 4.21226 0.121182 0
M  V30 11036 H 1021.09 3.16786 0.7946 0
M  V30 11037 H 1019.75 3.41892 -1.32308 0
M  V30 11038 H 1019.4 4.99575 0.585974 0
M  V30 11039 H 1019.1 5.79402 -0.978122 0
M  V30 11040 H 1020.62 6.10519 -0.0991508 0
M  V30 11041 H 1022.04 5.28659 -2.21795 0
M  V30 11042 H 1020.43 5.1951 -3.00383 0
M  V30 11043 H 1021.5 3.78189 -3.03482 0
M  V30 11044 N 1022.85 0.866709 1.31628 0
M  V30 11045 C 1023.76 0.323408 2.3236 0
M  V30 11046 C 1024.77 -0.564995 1.64572 0
M  V30 11047 O 1025.95 -0.462489 1.96018 0
M  V30 11048 C 1023.01 -0.469045 3.43513 0
M  V30 11049 C 1022.07 0.446928 4.26967 0
M  V30 11050 C 1021.31 -0.307799 5.32812 0
M  V30 11051 O 1021.53 -1.5363 5.49321 0
M  V30 11052 O 1020.46 0.332653 6.0098 0
M  V30 11053 H 1024.29 1.15827 2.80745 0
M  V30 11054 H 1021.87 0.629987 1.35468 0
M  V30 11055 H 1023.76 -0.918405 4.1127 0
M  V30 11056 H 1022.43 -1.28051 2.97296 0
M  V30 11057 H 1021.34 0.944719 3.61975 0
M  V30 11058 H 1022.67 1.2239 4.76741 0
M  V30 11059 N 1024.32 -1.44642 0.625825 0
M  V30 11060 C 1025.57 -2.01695 0.127948 0
M  V30 11061 C 1025.89 -1.49439 -1.25271 0
M  V30 11062 O 1025.16 -0.695873 -1.83124 0
M  V30 11063 H 1023.74 -0.745685 0.0443096 0
M  V30 11064 H 1026.4 -1.7721 0.811332 0
M  V30 11065 H 1025.5 -3.11966 0.0915933 0
M  V30 11066 N 1025.8 -0.366053 -1.5329 0
M  V30 11067 C 1026.75 0.480205 -2.25749 0
M  V30 11068 C 1027.72 1.07713 -1.2644 0
M  V30 11069 O 1028.9 1.10953 -1.55222 0
M  V30 11070 C 1026.04 1.61374 -3.05045 0
M  V30 11071 C 1025.16 1.04194 -4.19246 0
M  V30 11072 C 1024.29 2.14462 -4.85983 0
M  V30 11073 C 1023.33 1.5475 -5.92215 0
M  V30 11074 N 1022.47 2.58852 -6.52641 0
M  V30 11075 H 1027.31 -0.144199 -2.97651 0
M  V30 11076 H 1024.84 -0.0829321 -1.46866 0
M  V30 11077 H 1026.8 2.28144 -3.49294 0
M  V30 11078 H 1025.43 2.2088 -2.35397 0
M  V30 11079 H 1024.48 0.264514 -3.79479 0
M  V30 11080 H 1025.8 0.565379 -4.95585 0
M  V30 11081 H 1024.95 2.89051 -5.33418 0
M  V30 11082 H 1023.69 2.6547 -4.09117 0
M  V30 11083 H 1022.69 0.786759 -5.44142 0
M  V30 11084 H 1023.92 1.04566 -6.71001 0
M  V30 11085 H 1021.87 3.09073 -5.78627 0
M  V30 11086 H 1021.78 2.15884 -7.24521 0
M  V30 11087 H 1023.05 3.33142 -7.04724 0
M  V30 11088 N 1027.28 1.57312 -0.0952337 0
M  V30 11089 C 1028.53 1.93974 0.567319 0
M  V30 11090 C 1028.85 0.977805 1.68713 0
M  V30 11091 O 1028.12 0.0298944 1.95877 0
M  V30 11092 H 1026.7 0.71612 0.212558 0
M  V30 11093 H 1029.36 1.94254 -0.158598 0
M  V30 11094 H 1028.46 2.964 0.977423 0
M  V30 11095 N 1028.76 -0.17846 1.56586 0
M  V30 11096 C 1030 -0.896235 1.81587 0
M  V30 11097 C 1030.33 -1.82553 0.671168 0
M  V30 11098 O 1029.59 -1.92688 -0.342046 0
M  V30 11099 C 1029.89 -1.73063 3.12704 0
M  V30 11100 C 1029.55 -0.950877 4.4076 0
M  V30 11101 C 1028.21 -0.735647 4.75544 0
M  V30 11102 C 1030.57 -0.403419 5.19636 0
M  V30 11103 C 1027.89 0.0382562 5.86688 0
M  V30 11104 C 1030.25 0.357359 6.3159 0
M  V30 11105 C 1028.91 0.583455 6.64945 0
M  V30 11106 H 1028.18 -0.327956 0.664474 0
M  V30 11107 H 1030.83 -0.161586 1.90817 0
M  V30 11108 H 1029.13 -2.53446 2.98785 0
M  V30 11109 H 1030.83 -2.28891 3.29257 0
M  V30 11110 H 1027.42 -1.12866 4.13472 0
M  V30 11111 H 1031.6 -0.557059 4.93164 0
M  V30 11112 H 1026.86 0.223237 6.10992 0
M  V30 11113 H 1031.03 0.788861 6.91918 0
M  V30 11114 H 1028.66 1.18502 7.50907 0
M  V30 11115 N 1030.24 -1.51135 -0.446768 0
M  V30 11116 C 1031.15 -1.74595 -1.56696 0
M  V30 11117 C 1032.16 -0.629816 -1.62201 0
M  V30 11118 O 1033.34 -0.910987 -1.79619 0
M  V30 11119 C 1030.4 -1.85738 -2.9275 0
M  V30 11120 C 1029.46 -3.09564 -2.97437 0
M  V30 11121 C 1028.7 -3.20165 -4.27001 0
M  V30 11122 O 1028.92 -2.36939 -5.1886 0
M  V30 11123 O 1027.85 -4.13077 -4.3778 0
M  V30 11124 H 1031.68 -2.69601 -1.39817 0
M  V30 11125 H 1029.26 -1.35523 -0.628805 0
M  V30 11126 H 1031.15 -1.95107 -3.73512 0
M  V30 11127 H 1029.82 -0.939184 -3.09776 0
M  V30 11128 H 1028.73 -3.05679 -2.15664 0
M  V30 11129 H 1030.06 -4.01041 -2.85353 0
M  V30 11130 N 1031.71 0.701592 -1.41122 0
M  V30 11131 C 1033.12 1.28129 -1.35793 0
M  V30 11132 C 1033.48 1.96163 -0.0381185 0
M  V30 11133 O 1032.6 1.98416 0.863723 0
M  V30 11134 C 1033.2 2.33005 -2.45955 0
M  V30 11135 C 1031.75 2.86566 -2.44043 0
M  V30 11136 C 1030.9 1.60526 -2.26112 0
M  V30 11137 H 1033.85 0.496756 -1.50725 0
M  V30 11138 H 1033.87 3.14163 -2.14667 0
M  V30 11139 H 1033.39 1.8346 -3.42 0
M  V30 11140 H 1031.49 3.40304 -1.51737 0
M  V30 11141 H 1031.6 3.37406 -3.40138 0
M  V30 11142 H 1029.96 1.86113 -1.7388 0
M  V30 11143 H 1030.75 1.12985 -3.24175 0
M  V30 11144 N 1033.19 1.2685 0.935242 0
M  V30 11145 C 1034.42 1.15538 1.71635 0
M  V30 11146 C 1034.83 -0.288698 1.8658 0
M  V30 11147 O 1034.19 -1.19721 1.37743 0
M  V30 11148 C 1034.24 1.8259 3.11999 0
M  V30 11149 O 1033.96 3.21355 2.97763 0
M  V30 11150 C 1035.46 1.77307 4.06297 0
M  V30 11151 H 1032.68 0.402055 0.537208 0
M  V30 11152 H 1035.23 1.67582 1.17203 0
M  V30 11153 H 1033.38 1.3447 3.63313 0
M  V30 11154 H 1033.8 3.54626 3.86446 0
M  V30 11155 H 1035.27 2.28851 5.02326 0
M  V30 11156 H 1035.75 0.740823 4.32907 0
M  V30 11157 H 1036.35 2.25007 3.60904 0
M  V30 11158 N 1034.67 -1.14067 1.0875 0
M  V30 11159 C 1035.6 -2.21385 0.74236 0
M  V30 11160 C 1036.58 -1.67833 -0.276805 0
M  V30 11161 O 1037.77 -1.93647 -0.1464 0
M  V30 11162 C 1034.9 -3.46956 0.154644 0
M  V30 11163 C 1033.85 -4.13555 1.10255 0
M  V30 11164 C 1033.18 -5.3337 0.376877 0
M  V30 11165 C 1034.48 -4.6169 2.44213 0
M  V30 11166 H 1036.17 -2.50512 1.63964 0
M  V30 11167 H 1033.72 -1.20408 0.789807 0
M  V30 11168 H 1035.67 -4.21284 -0.0988419 0
M  V30 11169 H 1034.39 -3.17203 -0.777789 0
M  V30 11170 H 1033.05 -3.41186 1.34119 0
M  V30 11171 H 1032.7 -4.99879 -0.559472 0
M  V30 11172 H 1032.4 -5.78875 1.00884 0
M  V30 11173 H 1033.92 -6.10458 0.131527 0
M  V30 11174 H 1035.34 -5.27475 2.24595 0
M  V30 11175 H 1033.74 -5.17909 3.03134 0
M  V30 11176 H 1034.81 -3.76574 3.05483 0
M  V30 11177 N 1036.15 -0.873678 -1.31166 0
M  V30 11178 C 1037.06 -0.335726 -2.32185 0
M  V30 11179 C 1038.07 0.556259 -1.64869 0
M  V30 11180 O 1039.25 0.452087 -1.9626 0
M  V30 11181 C 1036.32 0.450822 -3.43756 0
M  V30 11182 C 1035.38 -0.469565 -4.26724 0
M  V30 11183 C 1034.61 0.279538 -5.32967 0
M  V30 11184 O 1034.83 1.50715 -5.50128 0
M  V30 11185 O 1033.77 -0.36452 -6.00795 0
M  V30 11186 H 1037.59 -1.17314 -2.80127 0
M  V30 11187 H 1035.18 -0.637163 -1.35132 0
M  V30 11188 H 1037.06 0.896582 -4.11752 0
M  V30 11189 H 1035.73 1.26472 -2.9797 0
M  V30 11190 H 1034.64 -0.963902 -3.61469 0
M  V30 11191 H 1035.97 -1.24916 -4.76085 0
M  V30 11192 N 1037.63 1.44308 -0.633487 0
M  V30 11193 C 1038.59 2.2912 0.060376 0
M  V30 11194 C 1039.59 1.41166 0.769992 0
M  V30 11195 O 1040.78 1.63012 0.614224 0
M  V30 11196 C 1037.91 3.22798 1.0961 0
M  V30 11197 H 1039.1 2.91958 -0.685617 0
M  V30 11198 H 1036.66 1.51259 -0.393738 0
M  V30 11199 H 1037.39 2.64815 1.87199 0
M  V30 11200 H 1037.18 3.87618 0.591161 0
M  V30 11201 H 1038.67 3.86504 1.58127 0
M  V30 11202 N 1039.1 0.374177 1.53094 0
M  V30 11203 C 1040.03 -0.459976 2.28925 0
M  V30 11204 C 1041.02 -1.07656 1.31698 0
M  V30 11205 O 1042.2 -1.09219 1.60577 0
M  V30 11206 C 1039.33 -1.5954 3.08487 0
M  V30 11207 C 1038.28 -1.10563 4.13473 0
M  V30 11208 C 1037.61 -2.33196 4.81169 0
M  V30 11209 C 1038.91 -0.184275 5.21975 0
M  V30 11210 H 1040.6 0.172692 2.98902 0
M  V30 11211 H 1038.15 0.0844956 1.43752 0
M  V30 11212 H 1040.1 -2.18565 3.60288 0
M  V30 11213 H 1038.83 -2.25543 2.36216 0
M  V30 11214 H 1037.49 -0.53801 3.62631 0
M  V30 11215 H 1037.13 -2.97675 4.05461 0
M  V30 11216 H 1036.83 -2.01094 5.52119 0
M  V30 11217 H 1038.36 -2.92892 5.35767 0
M  V30 11218 H 1039.77 -0.682262 5.69226 0
M  V30 11219 H 1038.17 0.0462746 6.00082 0
M  V30 11220 H 1039.24 0.771152 4.78729 0
M  V30 11221 N 1040.58 -1.57259 0.103575 0
M  V30 11222 C 1041.83 -1.94657 -0.558126 0
M  V30 11223 C 1042.16 -0.985886 -1.67662 0
M  V30 11224 O 1041.41 -0.0069745 -1.95699 0
M  V30 11225 C 1041.71 -3.38549 -1.14538 0
M  V30 11226 C 1041.38 -4.50651 -0.149818 0
M  V30 11227 C 1040.04 -4.8104 0.12398 0
M  V30 11228 C 1042.39 -5.18503 0.529497 0
M  V30 11229 C 1039.72 -5.76606 1.08364 0
M  V30 11230 C 1042.07 -6.15099 1.47769 0
M  V30 11231 C 1040.74 -6.43889 1.75963 0
M  V30 11232 H 1040.01 -0.712299 -0.204233 0
M  V30 11233 H 1042.65 -1.90641 0.181208 0
M  V30 11234 H 1040.96 -3.39185 -1.96115 0
M  V30 11235 H 1042.65 -3.6479 -1.66521 0
M  V30 11236 H 1039.24 -4.2697 -0.373404 0
M  V30 11237 H 1043.43 -4.95194 0.331121 0
M  V30 11238 H 1038.68 -5.97223 1.30899 0
M  V30 11239 H 1042.86 -6.66767 2.00983 0
M  V30 11240 H 1040.49 -7.17749 2.50481 0
M  V30 11241 N 1042.06 0.170153 -1.56679 0
M  V30 11242 C 1043.31 0.884841 -1.817 0
M  V30 11243 C 1043.63 1.82731 -0.680763 0
M  V30 11244 O 1042.9 1.936 0.299294 0
M  V30 11245 H 1041.48 0.329738 -0.670285 0
M  V30 11246 H 1044.14 0.169691 -1.9416 0
M  V30 11247 H 1043.24 1.46104 -2.7579 0
M  V30 11248 N 1043.54 1.5137 0.438746 0
M  V30 11249 C 1044.49 1.72582 1.53245 0
M  V30 11250 C 1045.46 0.567488 1.56105 0
M  V30 11251 O 1046.64 0.80176 1.73137 0
M  V30 11252 C 1043.78 1.85551 2.90972 0
M  V30 11253 C 1042.89 3.13094 2.97652 0
M  V30 11254 C 1042.03 3.16666 4.26493 0
M  V30 11255 C 1041.07 4.38529 4.27035 0
M  V30 11256 N 1040.2 4.39659 5.47398 0
M  V30 11257 H 1045.04 2.65941 1.3446 0
M  V30 11258 H 1042.58 1.31801 0.653206 0
M  V30 11259 H 1044.54 1.91053 3.70884 0
M  V30 11260 H 1043.17 0.956025 3.08318 0
M  V30 11261 H 1042.22 3.16909 2.10412 0
M  V30 11262 H 1043.53 4.03009 2.93914 0
M  V30 11263 H 1042.69 3.21075 5.14777 0
M  V30 11264 H 1041.43 2.24637 4.32885 0
M  V30 11265 H 1040.43 4.34297 3.37144 0
M  V30 11266 H 1041.66 5.31821 4.22307 0
M  V30 11267 H 1039.6 3.50499 5.54514 0
M  V30 11268 H 1039.52 5.23382 5.45534 0
M  V30 11269 H 1040.79 4.48259 6.37718 0
M  V30 11270 N 1045.02 -0.694098 1.41492 0
M  V30 11271 C 1045.95 -1.81943 1.39389 0
M  V30 11272 C 1046.96 -1.6009 0.295836 0
M  V30 11273 O 1048.15 -1.69565 0.557658 0
M  V30 11274 C 1045.25 -3.18731 1.15167 0
M  V30 11275 C 1044.42 -3.67601 2.37041 0
M  V30 11276 C 1043.48 -4.83063 2.08654 0
M  V30 11277 O 1042.51 -4.94603 2.81704 0
M  V30 11278 N 1043.71 -5.70409 1.0777 0
M  V30 11279 H 1046.48 -1.84239 2.36381 0
M  V30 11280 H 1044.04 -0.876475 1.36123 0
M  V30 11281 H 1046.03 -3.93602 0.941264 0
M  V30 11282 H 1044.6 -3.11452 0.267673 0
M  V30 11283 H 1043.82 -2.83622 2.73774 0
M  V30 11284 H 1045.11 -3.96991 3.18239 0
M  V30 11285 H 1044.5 -5.63718 0.473123 0
M  V30 11286 H 1043.06 -6.45172 0.927177 0
M  V30 11287 N 1046.49 -1.27344 -0.928501 0
M  V30 11288 C 1047.74 -1.13411 -1.67279 0
M  V30 11289 C 1048.06 0.320698 -1.92345 0
M  V30 11290 O 1047.33 1.2245 -1.52915 0
M  V30 11291 H 1045.91 -0.416712 -0.619968 0
M  V30 11292 H 1048.58 -1.5986 -1.11493 0
M  V30 11293 H 1047.67 -1.66256 -2.64131 0
M  V30 11294 N 1047.97 1.13488 -1.09353 0
M  V30 11295 C 1049.22 1.84748 -0.829126 0
M  V30 11296 C 1049.55 1.83485 0.645247 0
M  V30 11297 O 1048.8 1.26767 1.49093 0
M  V30 11298 C 1049.1 3.32584 -1.30854 0
M  V30 11299 C 1048.77 3.54028 -2.7924 0
M  V30 11300 C 1047.43 3.59588 -3.19765 0
M  V30 11301 C 1049.78 3.62058 -3.74918 0
M  V30 11302 C 1047.11 3.70712 -4.54741 0
M  V30 11303 C 1049.46 3.7471 -5.09682 0
M  V30 11304 C 1048.13 3.78523 -5.49797 0
M  V30 11305 H 1047.4 0.67604 -0.303399 0
M  V30 11306 H 1050.04 1.33989 -1.36818 0
M  V30 11307 H 1048.35 3.85689 -0.689275 0
M  V30 11308 H 1050.04 3.86166 -1.08059 0
M  V30 11309 H 1046.63 3.50354 -2.4688 0
M  V30 11310 H 1050.82 3.57043 -3.44723 0
M  V30 11311 H 1046.07 3.71931 -4.8526 0
M  V30 11312 H 1050.25 3.79866 -5.83674 0
M  V30 11313 H 1047.88 3.86895 -6.54382 0
M  V30 11314 N 1049.45 0.880621 1.30701 0
M  V30 11315 C 1050.7 0.496875 1.96309 0
M  V30 11316 C 1051.03 -0.953064 1.69549 0
M  V30 11317 O 1050.28 -1.68782 0.990507 0
M  V30 11318 C 1050.58 0.713203 3.50212 0
M  V30 11319 C 1050.25 2.13756 3.97013 0
M  V30 11320 C 1048.91 2.52706 4.09503 0
M  V30 11321 C 1051.26 3.066 4.21481 0
M  V30 11322 C 1048.59 3.8372 4.43819 0
M  V30 11323 C 1050.94 4.3714 4.57265 0
M  V30 11324 C 1049.6 4.7599 4.67963 0
M  V30 11325 H 1048.87 0.18182 0.718347 0
M  V30 11326 H 1051.52 1.11564 1.55646 0
M  V30 11327 H 1049.83 0.0113694 3.91798 0
M  V30 11328 H 1051.52 0.39595 3.9904 0
M  V30 11329 H 1048.11 1.8252 3.87794 0
M  V30 11330 H 1052.3 2.77729 4.11315 0
M  V30 11331 H 1047.55 4.13568 4.50301 0
M  V30 11332 H 1051.73 5.09123 4.75149 0
M  V30 11333 H 1049.35 5.77549 4.94309 0
M  V30 11334 N 1050.93 -1.4397 0.641131 0
M  V30 11335 C 1052.34 -1.85267 0.230838 0
M  V30 11336 C 1052.69 -1.53659 -1.21998 0
M  V30 11337 O 1051.82 -0.979572 -1.92959 0
M  V30 11338 C 1052.41 -3.36284 0.412171 0
M  V30 11339 C 1050.97 -3.76358 0.0563004 0
M  V30 11340 C 1050.12 -2.67768 0.720809 0
M  V30 11341 H 1053.07 -1.34294 0.845624 0
M  V30 11342 H 1053.09 -3.78924 -0.345936 0
M  V30 11343 H 1052.6 -3.59258 1.46818 0
M  V30 11344 H 1050.7 -3.58997 -0.997582 0
M  V30 11345 H 1050.82 -4.76756 0.473335 0
M  V30 11346 H 1049.18 -2.54227 0.155164 0
M  V30 11347 H 1049.96 -2.93573 1.77961 0
M  V30 11348 N 1052.41 -0.382291 -1.52893 0
M  V30 11349 C 1053.68 0.259354 -1.93873 0
M  V30 11350 C 1054.06 1.64964 -1.3172 0
M  V30 11351 O 1053.41 2.23345 -0.482611 0
M  V30 11352 C 1053.62 0.292765 -3.4777 0
M  V30 11353 C 1054.97 0.525095 -4.21341 0
M  V30 11354 O 1055.99 0.373272 -3.54239 0
M  V30 11355 O 1054.85 0.822004 -5.40283 0
M  V30 11356 H 1051.95 0.159422 -0.811489 0
M  V30 11357 H 1054.49 -0.436289 -1.63996 0
M  V30 11358 H 1053.27 -0.681341 -3.85323 0
M  V30 11359 H 1052.89 1.03362 -3.8393 0
M  V30 11360 N 1053.89 1.57202 -0.111913 0
M  V30 11361 C 1055.11 1.99723 0.559054 0
M  V30 11362 C 1055.54 0.990968 1.59879 0
M  V30 11363 O 1054.89 -0.038311 1.8126 0
M  V30 11364 C 1054.94 3.41151 1.16826 0
M  V30 11365 O 1054.05 3.43383 2.2839 0
M  V30 11366 H 1053.39 0.649004 0.140319 0
M  V30 11367 H 1055.92 2.03637 -0.198295 0
M  V30 11368 H 1055.93 3.79208 1.50551 0
M  V30 11369 H 1054.6 4.13907 0.406637 0
M  V30 11370 H 1053.18 3.17138 1.96158 0
M  V30 11371 N 1055.36 -0.161842 1.56767 0
M  V30 11372 C 1056.61 -0.878224 1.82798 0
M  V30 11373 C 1056.94 -1.81481 0.691242 0
M  V30 11374 O 1056.22 -1.92075 -0.30618 0
M  V30 11375 C 1056.5 -1.66565 3.19262 0
M  V30 11376 C 1056.35 -0.751551 4.43477 0
M  V30 11377 C 1057.67 -2.63134 3.52773 0
M  V30 11378 H 1054.79 -0.317828 0.664947 0
M  V30 11379 H 1057.43 -0.14402 1.89453 0
M  V30 11380 H 1055.58 -2.29157 3.13719 0
M  V30 11381 H 1057.26 -0.137783 4.61094 0
M  V30 11382 H 1055.5 -0.0601785 4.33758 0
M  V30 11383 H 1056.17 -1.33823 5.35533 0
M  V30 11384 H 1058.65 -2.10666 3.5883 0
M  V30 11385 H 1057.52 -3.15289 4.49315 0
M  V30 11386 H 1057.78 -3.43786 2.77963 0
M  V30 11387 N 1056.84 -1.516 -0.430713 0
M  V30 11388 C 1057.79 -1.73975 -1.54387 0
M  V30 11389 C 1058.78 -0.606222 -1.58181 0
M  V30 11390 O 1059.99 -0.787764 -1.61846 0
M  V30 11391 H 1056.36 -0.549811 -0.513041 0
M  V30 11392 H 1058.34 -2.67274 -1.32692 0
M  V30 11393 C 1057.08 -1.88794 -2.9198 0
M  V30 11394 H 1056.41 -2.75425 -2.89795 0
M  V30 11395 H 1057.85 -2.08458 -3.69217 0
M  V30 11396 C 1056.31 -0.649427 -3.30581 0
M  V30 11397 O 1056.84 0.192823 -4.01237 0
M  V30 11398 N 1055.04 -0.491586 -2.86412 0
M  V30 11399 H 1054.59 -1.17806 -2.29084 0
M  V30 11400 H 1054.55 0.33583 -3.12601 0
M  V30 11401 N 1058.32 0.686584 -1.41858 0
M  V30 11402 C 1059.27 1.80038 -1.44413 0
M  V30 11403 C 1060.24 1.63415 -0.297427 0
M  V30 11404 O 1061.42 1.84138 -0.499789 0
M  V30 11405 C 1058.56 3.17988 -1.34082 0
M  V30 11406 C 1057.67 3.45979 -2.58693 0
M  V30 11407 C 1056.81 4.73592 -2.4059 0
M  V30 11408 C 1055.85 4.94581 -3.60633 0
M  V30 11409 N 1054.99 6.13426 -3.41545 0
M  V30 11410 H 1059.83 1.77189 -2.396 0
M  V30 11411 H 1057.36 0.865158 -1.18968 0
M  V30 11412 H 1059.32 3.97689 -1.26092 0
M  V30 11413 H 1057.95 3.1999 -0.424975 0
M  V30 11414 H 1057 2.60617 -2.77097 0
M  V30 11415 H 1058.31 3.57386 -3.47961 0
M  V30 11416 H 1057.47 5.61364 -2.30119 0
M  V30 11417 H 1056.21 4.64448 -1.48794 0
M  V30 11418 H 1055.21 4.05254 -3.71549 0
M  V30 11419 H 1056.44 5.05578 -4.53395 0
M  V30 11420 H 1054.38 6.05477 -2.52456 0
M  V30 11421 H 1054.3 6.25641 -4.24393 0
M  V30 11422 H 1055.57 7.03908 -3.34864 0
M  V30 11423 N 1059.8 1.27835 0.921735 0
M  V30 11424 C 1060.76 1.11108 2.00469 0
M  V30 11425 C 1061.76 0.053203 1.60712 0
M  V30 11426 O 1062.95 0.298308 1.71627 0
M  V30 11427 C 1060.08 0.694269 3.33755 0
M  V30 11428 H 1061.28 2.07279 2.16738 0
M  V30 11429 H 1058.83 1.10708 1.10333 0
M  V30 11430 H 1059.56 -0.268561 3.23186 0
M  V30 11431 H 1059.35 1.45836 3.6397 0
M  V30 11432 H 1060.84 0.59965 4.13272 0
M  V30 11433 N 1061.28 -1.12907 1.09954 0
M  V30 11434 C 1062.21 -2.20585 0.765799 0
M  V30 11435 C 1063.19 -1.68117 -0.258989 0
M  V30 11436 O 1064.37 -1.93792 -0.125853 0
M  V30 11437 C 1061.5 -3.46772 0.191435 0
M  V30 11438 C 1060.46 -4.12363 1.14635 0
M  V30 11439 C 1059.78 -5.3294 0.433426 0
M  V30 11440 C 1061.08 -4.59073 2.49096 0
M  V30 11441 H 1062.78 -2.48759 1.66612 0
M  V30 11442 H 1060.32 -1.19563 0.802534 0
M  V30 11443 H 1062.27 -4.21365 -0.0541535 0
M  V30 11444 H 1061 -3.18011 -0.744101 0
M  V30 11445 H 1059.66 -3.39744 1.37731 0
M  V30 11446 H 1059.31 -5.00444 -0.506422 0
M  V30 11447 H 1059.01 -5.77772 1.07018 0
M  V30 11448 H 1060.53 -6.10284 0.196267 0
M  V30 11449 H 1061.94 -5.25063 2.30177 0
M  V30 11450 H 1060.34 -5.14665 3.0861 0
M  V30 11451 H 1061.41 -3.73313 3.0946 0
M  V30 11452 N 1062.75 -0.88754 -1.30232 0
M  V30 11453 C 1063.98 -0.521549 -1.99909 0
M  V30 11454 C 1064.39 0.895086 -1.66688 0
M  V30 11455 O 1063.73 1.60053 -0.90159 0
M  V30 11456 C 1063.8 -0.619564 -3.54121 0
M  V30 11457 C 1063.46 -2.00097 -4.10865 0
M  V30 11458 C 1064.46 -2.97068 -4.26669 0
M  V30 11459 C 1062.14 -2.30706 -4.46184 0
M  V30 11460 C 1064.14 -4.2278 -4.77007 0
M  V30 11461 C 1061.82 -3.56663 -4.96221 0
M  V30 11462 C 1062.82 -4.52515 -5.11585 0
M  V30 11463 O 1062.51 -5.76237 -5.60541 0
M  V30 11464 H 1062.24 -0.199904 -0.645766 0
M  V30 11465 H 1064.8 -1.19546 -1.67027 0
M  V30 11466 H 1063.03 0.111334 -3.8654 0
M  V30 11467 H 1064.71 -0.26448 -4.05037 0
M  V30 11468 H 1065.48 -2.74734 -3.99683 0
M  V30 11469 H 1061.36 -1.56865 -4.33491 0
M  V30 11470 H 1064.9 -4.97603 -4.88914 0
M  V30 11471 H 1060.8 -3.78834 -5.22643 0
M  V30 11472 H 1061.57 -5.78655 -5.78879 0
M  V30 11473 N 1064.23 1.43628 -0.648757 0
M  V30 11474 C 1065.48 2.02695 -0.169158 0
M  V30 11475 C 1065.83 1.50239 1.20191 0
M  V30 11476 O 1065.13 0.684018 1.78974 0
M  V30 11477 C 1065.32 3.57214 -0.115282 0
M  V30 11478 C 1065.15 4.24663 -1.47959 0
M  V30 11479 C 1063.92 4.60917 -2.07084 0
M  V30 11480 C 1066.12 4.53962 -2.41708 0
M  V30 11481 N 1064.1 5.13416 -3.36566 0
M  V30 11482 C 1065.47 5.07733 -3.55819 0
M  V30 11483 C 1067.53 4.35927 -2.40566 0
M  V30 11484 C 1066.23 5.45367 -4.69007 0
M  V30 11485 C 1068.25 4.7462 -3.52831 0
M  V30 11486 C 1067.62 5.2852 -4.65667 0
M  V30 11487 H 1063.72 0.774751 -0.106227 0
M  V30 11488 H 1066.3 1.74869 -0.85609 0
M  V30 11489 H 1064.47 3.84614 0.54098 0
M  V30 11490 H 1066.2 4.02961 0.374775 0
M  V30 11491 H 1062.96 4.45812 -1.59841 0
M  V30 11492 H 1063.38 5.44124 -4.02813 0
M  V30 11493 H 1068.02 3.93533 -1.54569 0
M  V30 11494 H 1065.74 5.86707 -5.55698 0
M  V30 11495 H 1069.33 4.62364 -3.53144 0
M  V30 11496 H 1068.21 5.57906 -5.511 0
M  V30 11497 N 1065.71 0.390394 1.52688 0
M  V30 11498 C 1066.96 -0.191729 2.01892 0
M  V30 11499 C 1067.29 -1.4637 1.27631 0
M  V30 11500 O 1066.56 -1.90809 0.377094 0
M  V30 11501 C 1066.85 -0.458535 3.57169 0
M  V30 11502 C 1066.7 0.828796 4.42098 0
M  V30 11503 C 1068.02 -1.2487 4.22014 0
M  V30 11504 H 1065.14 -0.0682091 0.733837 0
M  V30 11505 H 1067.78 0.520176 1.82741 0
M  V30 11506 H 1065.93 -1.06498 3.73618 0
M  V30 11507 H 1067.6 1.46562 4.37398 0
M  V30 11508 H 1065.85 1.44388 4.09066 0
M  V30 11509 H 1066.52 0.596746 5.48765 0
M  V30 11510 H 1068.99 -0.735452 4.09549 0
M  V30 11511 H 1067.87 -1.40412 5.30637 0
M  V30 11512 H 1068.13 -2.2642 3.79719 0
M  V30 11513 N 1067.19 -1.57141 0.120249 0
M  V30 11514 C 1068.14 -2.16638 -0.846809 0
M  V30 11515 C 1069.13 -1.11594 -1.27449 0
M  V30 11516 O 1070.34 -1.29895 -1.24608 0
M  V30 11517 H 1066.71 -0.693331 -0.291197 0
M  V30 11518 H 1068.68 -2.96673 -0.320536 0
M  V30 11519 C 1067.43 -2.78134 -2.08655 0
M  V30 11520 H 1066.75 -3.58662 -1.76639 0
M  V30 11521 H 1068.19 -3.23301 -2.74322 0
M  V30 11522 C 1066.65 -1.7528 -2.87713 0
M  V30 11523 O 1067.18 -1.20693 -3.8314 0
M  V30 11524 N 1065.39 -1.45192 -2.51729 0
M  V30 11525 H 1064.94 -1.89773 -1.74195 0
M  V30 11526 H 1064.89 -0.766166 -3.04922 0
M  V30 11527 N 1068.67 0.153526 -1.5685 0
M  V30 11528 C 1069.91 0.865519 -1.82629 0
M  V30 11529 C 1070.24 1.81999 -0.700105 0
M  V30 11530 O 1069.51 1.93907 0.278744 0
M  V30 11531 H 1068.09 0.32261 -0.673745 0
M  V30 11532 H 1070.75 0.149088 -1.94329 0
M  V30 11533 H 1069.84 1.43171 -2.77324 0
M  V30 11534 N 1070.14 1.51827 0.422667 0
M  V30 11535 C 1071.08 1.70409 1.53275 0
M  V30 11536 C 1072.09 0.584584 1.51942 0
M  V30 11537 O 1073.28 0.859349 1.56453 0
M  V30 11538 C 1070.38 1.717 2.92185 0
M  V30 11539 C 1069.55 3.00472 3.17861 0
M  V30 11540 C 1068.61 2.93755 4.36571 0
M  V30 11541 O 1067.64 3.67682 4.3451 0
M  V30 11542 N 1068.84 2.10612 5.40946 0
M  V30 11543 H 1071.6 2.66176 1.37734 0
M  V30 11544 H 1069.16 1.49895 0.611799 0
M  V30 11545 H 1071.16 1.64756 3.69645 0
M  V30 11546 H 1069.73 0.834655 3.01251 0
M  V30 11547 H 1068.95 3.21171 2.28567 0
M  V30 11548 H 1070.23 3.85684 3.31851 0
M  V30 11549 H 1069.63 1.49954 5.45463 0
M  V30 11550 H 1068.19 2.09535 6.17202 0
M  V30 11551 N 1071.62 -0.679052 1.4222 0
M  V30 11552 C 1072.87 -1.44125 1.42674 0
M  V30 11553 C 1073.2 -1.94156 0.041438 0
M  V30 11554 O 1072.48 -1.70628 -0.93361 0
M  V30 11555 C 1072.76 -2.64133 2.44756 0
M  V30 11556 C 1072.61 -2.19761 3.9246 0
M  V30 11557 C 1073.93 -3.66347 2.43881 0
M  V30 11558 H 1071.05 -0.522729 0.519541 0
M  V30 11559 H 1073.69 -0.772067 1.73606 0
M  V30 11560 H 1071.84 -3.21225 2.1851 0
M  V30 11561 H 1073.51 -1.67869 4.29671 0
M  V30 11562 H 1071.76 -1.51377 4.06531 0
M  V30 11563 H 1072.43 -3.05944 4.59459 0
M  V30 11564 H 1074.9 -3.18963 2.67211 0
M  V30 11565 H 1073.78 -4.47902 3.17293 0
M  V30 11566 H 1074.04 -4.17183 1.46325 0
M  V30 11567 N 1073.1 -1.28322 -0.914942 0
M  V30 11568 C 1074.51 -1.13937 -1.47903 0
M  V30 11569 C 1074.86 0.271072 -1.94318 0
M  V30 11570 O 1073.99 1.16522 -1.8235 0
M  V30 11571 C 1074.58 -2.06221 -2.68809 0
M  V30 11572 C 1073.14 -1.95903 -3.21402 0
M  V30 11573 C 1072.29 -1.98031 -1.94111 0
M  V30 11574 H 1075.24 -1.41029 -0.727772 0
M  V30 11575 H 1075.26 -1.6255 -3.44031 0
M  V30 11576 H 1074.77 -3.08866 -2.34997 0
M  V30 11577 H 1072.87 -0.962907 -3.59943 0
M  V30 11578 H 1072.99 -2.82799 -3.86732 0
M  V30 11579 H 1071.35 -1.42423 -2.11158 0
M  V30 11580 H 1072.13 -3.02354 -1.62595 0
M  V30 11581 N 1074.58 1.12322 -1.10551 0
M  V30 11582 C 1075.86 1.80201 -0.760715 0
M  V30 11583 C 1076.24 1.97228 0.752628 0
M  V30 11584 O 1075.58 1.54958 1.67929 0
M  V30 11585 C 1075.79 3.14491 -1.51316 0
M  V30 11586 C 1077.14 3.89671 -1.68647 0
M  V30 11587 O 1078.17 3.24151 -1.47664 0
M  V30 11588 O 1077.02 5.0722 -2.03445 0
M  V30 11589 H 1074.12 0.780084 -0.274587 0
M  V30 11590 H 1076.66 1.19147 -1.20839 0
M  V30 11591 H 1075.44 2.97396 -2.54306 0
M  V30 11592 H 1075.06 3.83253 -1.05842 0
M  V30 11593 N 1076.06 0.894434 1.2976 0
M  V30 11594 C 1077.3 0.516646 1.95385 0
M  V30 11595 C 1077.63 -0.939141 1.70895 0
M  V30 11596 O 1076.9 -1.66153 1.03778 0
M  V30 11597 H 1075.48 0.188072 0.722937 0
M  V30 11598 H 1078.14 1.13958 1.58113 0
M  V30 11599 H 1077.23 0.694819 3.04267 0
M  V30 11600 N 1077.53 -1.43282 0.656365 0
M  V30 11601 C 1078.78 -2.02075 0.171293 0
M  V30 11602 C 1079.11 -1.51682 -1.21269 0
M  V30 11603 O 1078.39 -0.711243 -1.81029 0
M  V30 11604 C 1078.67 -3.59621 0.185602 0
M  V30 11605 C 1078.52 -4.20239 1.60373 0
M  V30 11606 C 1079.84 -4.37515 -0.476289 0
M  V30 11607 H 1076.96 -0.73424 0.0637185 0
M  V30 11608 H 1079.6 -1.70539 0.837648 0
M  V30 11609 H 1077.75 -3.86619 -0.381804 0
M  V30 11610 H 1079.43 -4.0426 2.22197 0
M  V30 11611 H 1077.67 -3.76769 2.15006 0
M  V30 11612 H 1078.34 -5.29333 1.56557 0
M  V30 11613 H 1080.82 -4.16099 0.00651073 0
M  V30 11614 H 1079.69 -5.47169 -0.435562 0
M  V30 11615 H 1079.95 -4.14003 -1.55093 0
M  V30 11616 N 1079.01 -0.398486 -1.52479 0
M  V30 11617 C 1080.24 0.183059 -2.06591 0
M  V30 11618 C 1080.66 1.3898 -1.26753 0
M  V30 11619 O 1080.02 1.78885 -0.294959 0
M  V30 11620 C 1080.07 0.522392 -3.56796 0
M  V30 11621 O 1079.17 1.61499 -3.79462 0
M  V30 11622 H 1078.51 0.0188411 -0.663733 0
M  V30 11623 H 1081.04 -0.56861 -1.9654 0
M  V30 11624 H 1081.05 0.784078 -4.00395 0
M  V30 11625 H 1079.73 -0.359807 -4.14341 0
M  V30 11626 H 1078.31 1.3463 -3.47749 0
M  V30 11627 N 1080.49 1.57075 -0.12858 0
M  V30 11628 C 1081.44 2.15816 0.818064 0
M  V30 11629 C 1082.41 1.08581 1.25696 0
M  V30 11630 O 1083.59 1.36535 1.33277 0
M  V30 11631 C 1080.73 2.76943 2.05905 0
M  V30 11632 C 1079.85 3.98514 1.66764 0
M  V30 11633 C 1078.98 4.47698 2.85902 0
M  V30 11634 C 1078.02 5.61778 2.43047 0
M  V30 11635 N 1077.16 6.05662 3.5513 0
M  V30 11636 H 1082 2.9638 0.310318 0
M  V30 11637 H 1079.53 1.46418 0.141472 0
M  V30 11638 H 1081.49 3.10519 2.78629 0
M  V30 11639 H 1080.12 1.99053 2.54122 0
M  V30 11640 H 1079.17 3.71038 0.838766 0
M  V30 11641 H 1080.49 4.81215 1.31277 0
M  V30 11642 H 1079.64 4.83233 3.66839 0
M  V30 11643 H 1078.38 3.63967 3.24622 0
M  V30 11644 H 1077.38 5.25838 1.60544 0
M  V30 11645 H 1078.61 6.47282 2.05433 0
M  V30 11646 H 1076.56 5.2487 3.93506 0
M  V30 11647 H 1076.47 6.83242 3.23598 0
M  V30 11648 H 1077.74 6.45838 4.36479 0
M  V30 11649 N 1081.97 -0.145205 1.5693 0
M  V30 11650 C 1083.22 -0.858786 1.83719 0
M  V30 11651 C 1083.55 -1.80738 0.710452 0
M  V30 11652 O 1082.82 -1.92389 -0.285791 0
M  V30 11653 C 1083.11 -1.6317 3.2101 0
M  V30 11654 C 1082.96 -0.704472 4.44249 0
M  V30 11655 C 1084.28 -2.59377 3.55544 0
M  V30 11656 H 1081.4 -0.310757 0.66828 0
M  V30 11657 H 1084.04 -0.123918 1.89595 0
M  V30 11658 H 1082.19 -2.25816 3.16132 0
M  V30 11659 H 1083.86 -0.08887 4.61214 0
M  V30 11660 H 1082.1 -0.0141693 4.33798 0
M  V30 11661 H 1082.78 -1.28135 5.36922 0
M  V30 11662 H 1085.25 -2.06848 3.61044 0
M  V30 11663 H 1084.13 -3.10506 4.52634 0
M  V30 11664 H 1084.39 -3.40819 2.81594 0
M  V30 11665 N 1083.45 -1.52049 -0.414609 0
M  V30 11666 C 1084.38 -1.77956 -1.51175 0
M  V30 11667 C 1085.36 -0.630282 -1.57992 0
M  V30 11668 O 1086.54 -0.875324 -1.73354 0
M  V30 11669 C 1083.67 -1.92527 -2.89051 0
M  V30 11670 C 1082.63 -3.08096 -2.97087 0
M  V30 11671 C 1081.95 -3.07882 -4.37164 0
M  V30 11672 C 1083.25 -4.47656 -2.69075 0
M  V30 11673 H 1084.95 -2.69827 -1.29746 0
M  V30 11674 H 1082.49 -1.29839 -0.62273 0
M  V30 11675 H 1084.45 -2.09234 -3.65786 0
M  V30 11676 H 1083.17 -0.973235 -3.11762 0
M  V30 11677 H 1081.83 -2.91131 -2.22797 0
M  V30 11678 H 1081.48 -2.10411 -4.56877 0
M  V30 11679 H 1081.18 -3.85501 -4.43467 0
M  V30 11680 H 1082.7 -3.26712 -5.15841 0
M  V30 11681 H 1084.12 -4.64855 -3.35534 0
M  V30 11682 H 1082.51 -5.27151 -2.8676 0
M  V30 11683 H 1083.58 -4.56129 -1.64544 0
M  V30 11684 N 1084.93 0.6715 -1.42579 0
M  V30 11685 C 1086.17 1.43366 -1.43436 0
M  V30 11686 C 1086.5 1.94131 -0.0517339 0
M  V30 11687 O 1085.78 1.71121 0.924548 0
M  V30 11688 C 1086.06 2.62832 -2.46154 0
M  V30 11689 C 1085.92 2.17677 -3.9362 0
M  V30 11690 C 1087.23 3.65049 -2.4582 0
M  V30 11691 H 1084.35 0.519967 -0.522306 0
M  V30 11692 H 1087 0.762849 -1.74013 0
M  V30 11693 H 1085.15 3.20062 -2.2021 0
M  V30 11694 H 1086.82 1.65588 -4.30556 0
M  V30 11695 H 1085.06 1.49219 -4.07328 0
M  V30 11696 H 1085.73 3.03503 -4.61075 0
M  V30 11697 H 1088.21 3.17541 -2.68899 0
M  V30 11698 H 1087.08 4.46213 -3.19664 0
M  V30 11699 H 1087.34 4.16401 -1.48536 0
M  V30 11700 N 1086.4 1.28806 0.908124 0
M  V30 11701 C 1087.68 1.06981 1.63751 0
M  V30 11702 C 1088.06 -0.388936 2.07486 0
M  V30 11703 O 1087.41 -1.37611 1.82415 0
M  V30 11704 C 1087.62 2.04962 2.82474 0
M  V30 11705 C 1088.97 2.35418 3.5336 0
M  V30 11706 O 1089.99 2.03091 2.92631 0
M  V30 11707 O 1088.85 2.90617 4.62822 0
M  V30 11708 H 1085.94 0.409267 0.71863 0
M  V30 11709 H 1088.49 1.40146 0.956934 0
M  V30 11710 H 1087.26 3.03254 2.47291 0
M  V30 11711 H 1086.88 1.72476 3.58242 0
M  V30 11712 N 1087.88 -1.11734 1.11145 0
M  V30 11713 C 1088.83 -2.15789 0.736133 0
M  V30 11714 C 1089.82 -1.58813 -0.25832 0
M  V30 11715 O 1091.01 -1.76877 -0.0659078 0
M  V30 11716 C 1088.14 -3.4284 0.177597 0
M  V30 11717 C 1087.22 -4.06783 1.19953 0
M  V30 11718 N 1087.61 -4.45626 2.39271 0
M  V30 11719 C 1085.91 -4.33663 1.04176 0
M  V30 11720 C 1086.61 -4.95684 3.04422 0
M  V30 11721 N 1085.59 -4.91648 2.31912 0
M  V30 11722 H 1089.39 -2.43598 1.6443 0
M  V30 11723 H 1086.9 -1.28716 0.990247 0
M  V30 11724 H 1088.9 -4.16756 -0.109402 0
M  V30 11725 H 1087.56 -3.16498 -0.725201 0
M  V30 11726 H 1088.57 -4.37757 2.76747 0
M  V30 11727 H 1085.25 -4.17044 0.195132 0
M  V30 11728 H 1086.64 -5.35394 4.05959 0
M  V30 11729 N 1089.36 -0.901303 -1.29284 0
M  V30 11730 C 1090.61 -0.528043 -1.95494 0
M  V30 11731 C 1090.93 0.92597 -1.71044 0
M  V30 11732 O 1090.19 1.67185 -1.01723 0
M  V30 11733 C 1090.49 -0.768828 -3.49033 0
M  V30 11734 C 1090.15 -2.20045 -3.93562 0
M  V30 11735 C 1088.82 -2.59189 -4.05431 0
M  V30 11736 C 1091.17 -3.13266 -4.1655 0
M  V30 11737 C 1088.5 -3.90733 -4.37658 0
M  V30 11738 C 1090.85 -4.4436 -4.50252 0
M  V30 11739 C 1089.51 -4.83375 -4.60331 0
M  V30 11740 H 1088.78 -0.193225 -0.715364 0
M  V30 11741 H 1091.43 -1.14027 -1.53851 0
M  V30 11742 H 1089.73 -0.0736997 -3.91731 0
M  V30 11743 H 1091.43 -0.459384 -3.9836 0
M  V30 11744 H 1088.02 -1.88666 -3.84842 0
M  V30 11745 H 1092.21 -2.84237 -4.06845 0
M  V30 11746 H 1087.46 -4.2068 -4.43665 0
M  V30 11747 H 1091.64 -5.16618 -4.66989 0
M  V30 11748 H 1089.26 -5.8534 -4.85058 0
M  V30 11749 N 1090.84 1.42931 -0.663954 0
M  V30 11750 C 1092.09 2.01284 -0.181379 0
M  V30 11751 C 1092.41 1.52708 1.21265 0
M  V30 11752 O 1091.68 0.744181 1.81215 0
M  V30 11753 H 1090.26 0.744248 -0.0640646 0
M  V30 11754 H 1092.92 1.74997 -0.858031 0
M  V30 11755 H 1092.01 3.11613 -0.174273 0
M  V30 11756 N 1092.32 0.406567 1.52266 0
M  V30 11757 C 1093.55 -0.169378 2.05905 0
M  V30 11758 C 1093.95 -1.39626 1.27676 0
M  V30 11759 O 1093.3 -1.80871 0.32114 0
M  V30 11760 C 1093.36 -0.587209 3.54672 0
M  V30 11761 C 1093.02 0.528588 4.53933 0
M  V30 11762 C 1094.02 1.39137 5.00936 0
M  V30 11763 C 1091.7 0.700549 4.97391 0
M  V30 11764 C 1093.7 2.41108 5.90039 0
M  V30 11765 C 1091.39 1.72357 5.8629 0
M  V30 11766 C 1092.38 2.57725 6.32509 0
M  V30 11767 O 1092.07 3.58275 7.19649 0
M  V30 11768 H 1091.8 -0.0250574 0.675535 0
M  V30 11769 H 1094.36 0.575377 1.97177 0
M  V30 11770 H 1092.59 -1.38421 3.61077 0
M  V30 11771 H 1094.28 -1.09078 3.90969 0
M  V30 11772 H 1095.04 1.26991 4.68079 0
M  V30 11773 H 1090.92 0.0457503 4.60977 0
M  V30 11774 H 1094.47 3.07774 6.26036 0
M  V30 11775 H 1090.36 1.84535 6.1856 0
M  V30 11776 H 1091.13 3.54489 7.37753 0
M  V30 11777 N 1093.79 -1.57004 0.136909 0
M  V30 11778 C 1095.02 -2.00156 -0.523936 0
M  V30 11779 C 1095.44 -1.01688 -1.59075 0
M  V30 11780 O 1094.79 -0.0123678 -1.82496 0
M  V30 11781 C 1094.85 -3.4326 -1.13379 0
M  V30 11782 O 1094.57 -4.37963 -0.109598 0
M  V30 11783 C 1096.07 -4.01637 -1.87623 0
M  V30 11784 H 1093.29 -0.65681 -0.137263 0
M  V30 11785 H 1095.83 -2.03219 0.228522 0
M  V30 11786 H 1093.99 -3.4108 -1.83693 0
M  V30 11787 H 1094.4 -5.21555 -0.55503 0
M  V30 11788 H 1095.87 -5.03795 -2.25597 0
M  V30 11789 H 1096.35 -3.41781 -2.75831 0
M  V30 11790 H 1096.96 -4.07417 -1.22031 0
M  V30 11791 N 1095.27 0.136881 -1.57004 0
M  V30 11792 C 1096.22 1.16869 -1.99023 0
M  V30 11793 C 1097.19 1.42137 -0.859435 0
M  V30 11794 O 1098.37 1.54303 -1.12229 0
M  V30 11795 C 1095.51 2.49466 -2.38455 0
M  V30 11796 C 1094.63 2.31286 -3.64871 0
M  V30 11797 C 1093.76 3.56989 -3.9336 0
M  V30 11798 C 1092.8 3.33889 -5.13015 0
M  V30 11799 N 1091.94 4.51748 -5.37464 0
M  V30 11800 H 1096.78 0.803366 -2.86967 0
M  V30 11801 H 1094.32 0.385216 -1.41967 0
M  V30 11802 H 1096.27 3.26794 -2.59348 0
M  V30 11803 H 1094.9 2.83926 -1.53577 0
M  V30 11804 H 1093.96 1.44962 -3.51696 0
M  V30 11805 H 1095.27 2.10183 -4.52355 0
M  V30 11806 H 1094.42 4.42742 -4.14806 0
M  V30 11807 H 1093.16 3.81106 -3.04318 0
M  V30 11808 H 1092.17 2.46525 -4.91432 0
M  V30 11809 H 1093.39 3.1116 -6.03619 0
M  V30 11810 H 1091.34 4.76019 -4.51377 0
M  V30 11811 H 1091.25 4.33684 -6.19237 0
M  V30 11812 H 1092.52 5.38686 -5.63416 0
M  V30 11813 N 1096.75 1.52266 0.40654 0
M  V30 11814 C 1098.03 1.57018 1.1664 0
M  V30 11815 C 1098.41 0.352752 2.08132 0
M  V30 11816 O 1097.76 -0.660208 2.18754 0
M  V30 11817 C 1097.97 2.90016 1.94143 0
M  V30 11818 C 1099.31 3.43112 2.50119 0
M  V30 11819 O 1100.34 2.91773 2.0432 0
M  V30 11820 O 1099.2 4.32765 3.33731 0
M  V30 11821 H 1096.29 0.632574 0.532709 0
M  V30 11822 H 1098.84 1.64595 0.413111 0
M  V30 11823 H 1097.61 3.70071 1.27134 0
M  V30 11824 H 1097.23 2.85744 2.76471 0
M  V30 11825 N 1098.23 -0.663929 1.42933 0
M  V30 11826 C 1099.51 -1.42054 1.34462 0
M  V30 11827 C 1099.89 -2.11096 -0.0127801 0
M  V30 11828 O 1099.23 -2.04027 -1.02884 0
M  V30 11829 C 1099.44 -2.41406 2.5204 0
M  V30 11830 C 1100.79 -3.05726 2.94647 0
M  V30 11831 O 1101.82 -2.51733 2.52009 0
M  V30 11832 O 1100.67 -4.03593 3.68477 0
M  V30 11833 H 1097.77 -0.634149 0.530834 0
M  V30 11834 H 1100.31 -0.691738 1.54962 0
M  V30 11835 H 1099.09 -1.89263 3.42484 0
M  V30 11836 H 1098.71 -3.21752 2.33584 0
M  V30 11837 N 1099.71 -1.29285 -0.901281 0
M  V30 11838 C 1100.65 -1.1428 -2.00521 0
M  V30 11839 C 1101.62 -0.0365428 -1.6606 0
M  V30 11840 O 1102.81 -0.203771 -1.89709 0
M  V30 11841 C 1099.95 -0.823671 -3.35126 0
M  V30 11842 C 1099.06 -2.01021 -3.8238 0
M  V30 11843 C 1098.2 -1.6306 -5.05554 0
M  V30 11844 C 1097.24 -2.78304 -5.45173 0
M  V30 11845 N 1096.37 -2.4075 -6.59533 0
M  V30 11846 H 1101.21 -2.08729 -2.12688 0
M  V30 11847 H 1098.75 -1.0387 -1.04161 0
M  V30 11848 H 1100.71 -0.61934 -4.12577 0
M  V30 11849 H 1099.34 0.0839113 -3.22691 0
M  V30 11850 H 1098.39 -2.32629 -3.00978 0
M  V30 11851 H 1099.7 -2.8738 -4.07694 0
M  V30 11852 H 1098.86 -1.38906 -5.90584 0
M  V30 11853 H 1097.59 -0.738464 -4.82077 0
M  V30 11854 H 1096.6 -3.03142 -4.58678 0
M  V30 11855 H 1097.82 -3.68179 -5.70632 0
M  V30 11856 H 1095.77 -1.54022 -6.37662 0
M  V30 11857 H 1095.69 -3.20643 -6.84634 0
M  V30 11858 H 1096.96 -2.19912 -7.47836 0
M  V30 11859 N 1101.18 1.11143 -1.11736 0
M  V30 11860 C 1102.13 2.15396 -0.747566 0
M  V30 11861 C 1103.12 1.58948 0.249894 0
M  V30 11862 O 1104.31 1.7691 0.0565267 0
M  V30 11863 C 1101.44 3.42741 -0.195776 0
M  V30 11864 C 1100.53 4.06141 -1.22109 0
M  V30 11865 N 1100.92 4.44351 -2.41631 0
M  V30 11866 C 1099.21 4.33104 -1.06474 0
M  V30 11867 C 1099.92 4.94062 -3.07046 0
M  V30 11868 N 1098.89 4.90411 -2.34516 0
M  V30 11869 H 1102.69 2.42722 -1.6572 0
M  V30 11870 H 1100.21 1.28189 -0.997059 0
M  V30 11871 H 1102.2 4.16809 0.0872984 0
M  V30 11872 H 1100.86 3.16878 0.708406 0
M  V30 11873 H 1101.88 4.36283 -2.79065 0
M  V30 11874 H 1098.55 4.16934 -0.217246 0
M  V30 11875 H 1099.94 5.33234 -4.08792 0
M  V30 11876 N 1102.66 0.908147 1.28804 0
M  V30 11877 C 1103.57 0.397167 2.31214 0
M  V30 11878 C 1104.59 -0.512352 1.66286 0
M  V30 11879 O 1105.76 -0.399893 1.9739 0
M  V30 11880 C 1102.83 -0.359522 3.44831 0
M  V30 11881 C 1101.89 0.582539 4.25329 0
M  V30 11882 C 1101.12 -0.138133 5.33521 0
M  V30 11883 O 1101.35 -1.36076 5.53931 0
M  V30 11884 O 1100.28 0.523682 5.99618 0
M  V30 11885 H 1104.11 1.247 2.76918 0
M  V30 11886 H 1101.69 0.672766 1.33395 0
M  V30 11887 H 1103.57 -0.787098 4.13984 0
M  V30 11888 H 1102.25 -1.18528 3.01219 0
M  V30 11889 H 1101.16 1.0594 3.58786 0
M  V30 11890 H 1102.49 1.37495 4.72605 0
M  V30 11891 N 1104.14 -1.42577 0.671525 0
M  V30 11892 C 1105.07 -2.2915 -0.0477361 0
M  V30 11893 C 1106.09 -1.43503 -0.768805 0
M  V30 11894 O 1107.27 -1.67256 -0.623509 0
M  V30 11895 C 1104.37 -3.20851 -1.09122 0
M  V30 11896 C 1103.55 -4.35134 -0.44463 0
M  V30 11897 C 1102.61 -5.07579 -1.38745 0
M  V30 11898 O 1101.63 -5.62215 -0.889015 0
M  V30 11899 N 1102.83 -5.12786 -2.72086 0
M  V30 11900 H 1105.6 -2.9152 0.695415 0
M  V30 11901 H 1103.16 -1.53467 0.515689 0
M  V30 11902 H 1105.15 -3.66183 -1.72315 0
M  V30 11903 H 1103.72 -2.59956 -1.73614 0
M  V30 11904 H 1102.94 -3.9249 0.36675 0
M  V30 11905 H 1104.23 -5.088 0.00595927 0
M  V30 11906 H 1103.63 -4.69802 -3.15123 0
M  V30 11907 H 1102.19 -5.61774 -3.30535 0
M  V30 11908 N 1105.62 -0.414636 -1.52048 0
M  V30 11909 C 1106.9 0.218172 -1.94379 0
M  V30 11910 C 1107.28 1.62133 -1.35189 0
M  V30 11911 O 1106.62 2.22271 -0.529877 0
M  V30 11912 C 1106.83 0.218932 -3.48313 0
M  V30 11913 C 1108.18 0.435604 -4.2236 0
M  V30 11914 O 1109.21 0.298049 -3.54951 0
M  V30 11915 O 1108.06 0.707217 -5.41905 0
M  V30 11916 H 1105.16 0.142173 -0.814688 0
M  V30 11917 H 1107.7 -0.470977 -1.63033 0
M  V30 11918 H 1106.48 -0.76292 -3.83791 0
M  V30 11919 H 1106.1 0.951949 -3.86036 0
M  V30 11920 N 1107.1 1.56929 -0.145233 0
M  V30 11921 C 1108.03 2.12449 0.833107 0
M  V30 11922 C 1109.01 1.0476 1.24355 0
M  V30 11923 O 1110.19 1.32579 1.33997 0
M  V30 11924 C 1107.32 2.64274 2.11842 0
M  V30 11925 C 1106.36 3.84093 1.85404 0
M  V30 11926 S 1107.2 5.25172 1.04663 0
M  V30 11927 C 1108.35 5.80384 2.34318 0
M  V30 11928 H 1108.59 2.951 0.360969 0
M  V30 11929 H 1106.12 1.54246 0.0690187 0
M  V30 11930 H 1108.08 2.94783 2.8568 0
M  V30 11931 H 1106.74 1.81756 2.56171 0
M  V30 11932 H 1105.93 4.18593 2.80706 0
M  V30 11933 H 1105.53 3.54336 1.19675 0
M  V30 11934 H 1107.83 5.91709 3.29981 0
M  V30 11935 H 1108.77 6.7798 2.04325 0
M  V30 11936 H 1109.18 5.08617 2.44885 0
M  V30 11937 N 1108.58 -0.128553 1.57075 0
M  V30 11938 C 1109.82 -0.839252 1.8462 0
M  V30 11939 C 1110.15 -1.79974 0.729582 0
M  V30 11940 O 1109.43 -1.92681 -0.265369 0
M  V30 11941 C 1109.71 -1.59756 3.22723 0
M  V30 11942 C 1109.57 -0.657313 4.44971 0
M  V30 11943 C 1110.88 -2.55592 3.58275 0
M  V30 11944 H 1108 -0.303652 0.671539 0
M  V30 11945 H 1110.65 -0.103802 1.89716 0
M  V30 11946 H 1108.8 -2.22451 3.18509 0
M  V30 11947 H 1110.47 -0.0399471 4.61283 0
M  V30 11948 H 1108.71 0.0318416 4.33788 0
M  V30 11949 H 1109.38 -1.22433 5.38251 0
M  V30 11950 H 1111.86 -2.03007 3.63218 0
M  V30 11951 H 1110.73 -3.05687 4.55902 0
M  V30 11952 H 1110.99 -3.37813 2.85193 0
M  V30 11953 N 1110.05 -1.5248 -0.398459 0
M  V30 11954 C 1111 -1.77211 -1.50662 0
M  V30 11955 C 1112 -0.639638 -1.5686 0
M  V30 11956 O 1113.2 -0.821917 -1.60139 0
M  V30 11957 H 1109.58 -0.56057 -0.501264 0
M  V30 11958 H 1111.55 -2.70028 -1.26993 0
M  V30 11959 C 1110.3 -1.94944 -2.8791 0
M  V30 11960 H 1109.62 -2.8151 -2.83888 0
M  V30 11961 H 1111.06 -2.16243 -3.64712 0
M  V30 11962 C 1109.52 -0.719402 -3.29129 0
M  V30 11963 O 1110.05 0.107671 -4.01556 0
M  V30 11964 N 1108.25 -0.552228 -2.85305 0
M  V30 11965 H 1107.8 -1.22638 -2.26534 0
M  V30 11966 H 1107.76 0.269447 -3.13243 0
M  V30 11967 N 1111.53 0.65634 -1.43283 0
M  V30 11968 C 1112.78 1.41347 -1.44449 0
M  V30 11969 C 1113.1 1.94879 -0.0687217 0
M  V30 11970 O 1112.37 1.74235 0.895492 0
M  V30 11971 H 1110.95 0.524578 -0.531815 0
M  V30 11972 H 1113.61 0.774292 -1.7886 0
M  V30 11973 H 1112.71 2.25737 -2.15521 0
M  V30 11974 N 1113.01 1.29761 0.894412 0
M  V30 11975 C 1114.26 1.17409 1.64006 0
M  V30 11976 C 1114.57 -0.272355 1.93695 0
M  V30 11977 O 1115.78 -0.517269 2.66527 0
M  V30 11978 C 1114.23 2.05379 2.95546 0
M  V30 11979 C 1113.84 3.54878 2.73433 0
M  V30 11980 C 1115.59 2.01765 3.73485 0
M  V30 11981 C 1113.49 4.34935 4.00731 0
M  V30 11982 H 1112.42 0.43583 0.615279 0
M  V30 11983 H 1115.07 1.5444 0.990983 0
M  V30 11984 H 1113.46 1.61222 3.61695 0
M  V30 11985 H 1114.63 4.07122 2.15844 0
M  V30 11986 H 1112.94 3.60218 2.08882 0
M  V30 11987 H 1115.54 2.58835 4.67877 0
M  V30 11988 H 1115.88 0.998876 4.04139 0
M  V30 11989 H 1116.42 2.43994 3.14184 0
M  V30 11990 H 1113.16 5.3747 3.75241 0
M  V30 11991 H 1112.68 3.87458 4.5786 0
M  V30 11992 H 1114.36 4.45875 4.68833 0
M  V30 11993 N 1114.49 -1.10549 1.12324 0
M  V30 11994 C 1115.42 -2.16081 0.733768 0
M  V30 11995 C 1116.4 -1.60266 -0.274511 0
M  V30 11996 O 1117.58 -1.87743 -0.168742 0
M  V30 11997 C 1114.71 -3.38591 0.0858914 0
M  V30 11998 C 1113.76 -4.13097 1.0608 0
M  V30 11999 S 1114.59 -4.68821 2.5878 0
M  V30 12000 C 1115.74 -5.94644 1.95319 0
M  V30 12001 H 1115.98 -2.48784 1.62769 0
M  V30 12002 H 1113.51 -1.22318 0.942209 0
M  V30 12003 H 1115.47 -4.09533 -0.281538 0
M  V30 12004 H 1114.13 -3.04129 -0.785122 0
M  V30 12005 H 1113.32 -5.00934 0.555095 0
M  V30 12006 H 1112.92 -3.4796 1.37112 0
M  V30 12007 H 1115.22 -6.65004 1.29523 0
M  V30 12008 H 1116.16 -6.49875 2.81191 0
M  V30 12009 H 1116.57 -5.4662 1.40951 0
M  V30 12010 N 1115.97 -0.914965 -1.28321 0
M  V30 12011 C 1116.9 -0.421292 -2.29668 0
M  V30 12012 C 1117.88 0.511743 -1.6222 0
M  V30 12013 O 1119.06 0.419218 -1.89621 0
M  V30 12014 C 1116.19 0.338364 -3.45648 0
M  V30 12015 C 1115.15 -0.505646 -4.25003 0
M  V30 12016 C 1114.47 0.382421 -5.33331 0
M  V30 12017 C 1115.77 -1.76354 -4.91626 0
M  V30 12018 H 1117.47 -1.26826 -2.71211 0
M  V30 12019 H 1115.01 -0.611291 -1.30381 0
M  V30 12020 H 1116.96 0.694578 -4.15636 0
M  V30 12021 H 1115.69 1.21925 -3.02988 0
M  V30 12022 H 1114.35 -0.844395 -3.56743 0
M  V30 12023 H 1114 1.26189 -4.86914 0
M  V30 12024 H 1113.7 -0.17871 -5.87328 0
M  V30 12025 H 1115.22 0.73449 -6.06166 0
M  V30 12026 H 1116.63 -1.47616 -5.5397 0
M  V30 12027 H 1115.03 -2.26717 -5.55625 0
M  V30 12028 H 1116.1 -2.49063 -4.16048 0
M  V30 12029 N 1117.44 1.42219 -0.679077 0
M  V30 12030 C 1118.67 2.06333 -0.210097 0
M  V30 12031 C 1119.09 1.50703 1.12562 0
M  V30 12032 O 1118.45 0.627241 1.70104 0
M  V30 12033 C 1118.5 3.60243 -0.160322 0
M  V30 12034 O 1117.6 4.03122 0.869872 0
M  V30 12035 H 1116.94 0.655362 -0.106754 0
M  V30 12036 H 1119.47 1.82278 -0.929294 0
M  V30 12037 H 1119.48 4.07997 0.014384 0
M  V30 12038 H 1118.16 4.00106 -1.13526 0
M  V30 12039 H 1116.74 3.66907 0.66586 0
M  V30 12040 N 1118.92 0.422693 1.51826 0
M  V30 12041 C 1120.17 -0.148861 2.02253 0
M  V30 12042 C 1120.5 -1.43629 1.30707 0
M  V30 12043 O 1119.78 -1.89967 0.417482 0
M  V30 12044 C 1120.06 -0.382672 3.58061 0
M  V30 12045 C 1119.91 0.922386 4.40241 0
M  V30 12046 C 1121.23 -1.1589 4.24567 0
M  V30 12047 H 1118.35 -0.0526279 0.735119 0
M  V30 12048 H 1120.99 0.558821 1.81596 0
M  V30 12049 H 1119.14 -0.985495 3.75793 0
M  V30 12050 H 1120.81 1.55806 4.34191 0
M  V30 12051 H 1119.06 1.53032 4.05911 0
M  V30 12052 H 1119.73 0.713012 5.47376 0
M  V30 12053 H 1122.2 -0.648415 4.11017 0
M  V30 12054 H 1121.08 -1.29125 5.33496 0
M  V30 12055 H 1121.34 -2.18315 3.84436 0
M  V30 12056 N 1120.4 -1.5685 0.153553 0
M  V30 12057 C 1121.31 -2.20664 -0.796528 0
M  V30 12058 C 1122.33 -1.19289 -1.26674 0
M  V30 12059 O 1123.5 -1.51889 -1.32256 0
M  V30 12060 C 1120.57 -2.82088 -2.01561 0
M  V30 12061 C 1119.63 -3.9861 -1.59401 0
M  V30 12062 C 1118.86 -4.57096 -2.75498 0
M  V30 12063 O 1119.08 -4.14462 -3.9189 0
M  V30 12064 O 1118.02 -5.47254 -2.50593 0
M  V30 12065 H 1121.84 -3.02376 -0.283282 0
M  V30 12066 H 1119.43 -1.49218 -0.0737927 0
M  V30 12067 H 1121.31 -3.21103 -2.72893 0
M  V30 12068 H 1119.99 -2.03385 -2.51826 0
M  V30 12069 H 1118.89 -3.64299 -0.850725 0
M  V30 12070 H 1120.23 -4.78853 -1.13845 0
M  V30 12071 N 1121.88 0.120221 -1.57141 0
M  V30 12072 C 1122.82 1.14751 -2.00252 0
M  V30 12073 C 1123.79 1.41217 -0.874462 0
M  V30 12074 O 1124.98 1.53104 -1.13859 0
M  V30 12075 C 1122.12 2.46923 -2.41087 0
M  V30 12076 C 1121.23 2.27403 -3.67303 0
M  V30 12077 C 1120.37 3.52797 -3.97125 0
M  V30 12078 C 1119.41 3.28429 -5.16528 0
M  V30 12079 N 1118.54 4.46022 -5.42226 0
M  V30 12080 H 1123.38 0.772884 -2.87803 0
M  V30 12081 H 1120.92 0.370137 -1.42367 0
M  V30 12082 H 1122.88 3.24025 -2.62799 0
M  V30 12083 H 1121.51 2.82281 -1.5658 0
M  V30 12084 H 1120.56 1.41224 -3.53214 0
M  V30 12085 H 1121.87 2.05373 -4.54558 0
M  V30 12086 H 1121.03 4.38318 -4.19479 0
M  V30 12087 H 1119.77 3.77857 -3.08343 0
M  V30 12088 H 1118.77 2.41299 -4.94019 0
M  V30 12089 H 1120 3.0474 -6.06886 0
M  V30 12090 H 1117.94 4.71205 -4.56401 0
M  V30 12091 H 1117.86 4.27092 -6.23802 0
M  V30 12092 H 1119.13 5.3268 -5.69098 0
M  V30 12093 N 1123.36 1.52689 0.390367 0
M  V30 12094 C 1124.29 1.80338 1.48325 0
M  V30 12095 C 1125.27 0.655338 1.56969 0
M  V30 12096 O 1126.45 0.902792 1.7194 0
M  V30 12097 C 1123.58 1.97101 2.85952 0
M  V30 12098 C 1122.54 3.12783 2.92148 0
M  V30 12099 C 1121.86 3.14798 4.32211 0
M  V30 12100 C 1123.16 4.5188 2.61919 0
M  V30 12101 H 1124.86 2.71857 1.25437 0
M  V30 12102 H 1122.4 1.30813 0.601995 0
M  V30 12103 H 1124.36 2.15027 3.62411 0
M  V30 12104 H 1123.08 1.02271 3.10174 0
M  V30 12105 H 1121.74 2.94638 2.18137 0
M  V30 12106 H 1121.39 2.17653 4.53471 0
M  V30 12107 H 1121.09 3.92507 4.37278 0
M  V30 12108 H 1122.61 3.34877 5.10578 0
M  V30 12109 H 1124.02 4.70134 3.28096 0
M  V30 12110 H 1122.42 5.31647 2.78337 0
M  V30 12111 H 1123.49 4.58689 1.57266 0
M  V30 12112 N 1124.83 -0.648732 1.43629 0
M  V30 12113 C 1126.08 -1.40446 1.44768 0
M  V30 12114 C 1126.4 -1.95447 0.0773445 0
M  V30 12115 O 1127.6 -2.71479 -0.0337942 0
M  V30 12116 C 1126.06 -2.54194 2.54781 0
M  V30 12117 C 1125.67 -2.05781 3.97942 0
M  V30 12118 C 1127.41 -3.31529 2.65121 0
M  V30 12119 C 1125.32 -3.16767 4.99412 0
M  V30 12120 H 1124.25 -0.527717 0.538545 0
M  V30 12121 H 1126.9 -0.699756 1.69634 0
M  V30 12122 H 1125.28 -3.27156 2.23125 0
M  V30 12123 H 1126.45 -1.398 4.39081 0
M  V30 12124 H 1124.77 -1.41312 3.91688 0
M  V30 12125 H 1127.37 -4.14233 3.38105 0
M  V30 12126 H 1127.71 -3.79855 1.70341 0
M  V30 12127 H 1128.24 -2.65649 2.961 0
M  V30 12128 H 1124.98 -2.73404 5.9576 0
M  V30 12129 H 1124.5 -3.81445 4.62882 0
M  V30 12130 H 1126.18 -3.81827 5.22319 0
M  V30 12131 N 1126.31 -1.30234 -0.887518 0
M  V30 12132 C 1127.26 -1.164 -1.99298 0
M  V30 12133 C 1128.23 -0.0541536 -1.66012 0
M  V30 12134 O 1129.41 -0.223881 -1.89482 0
M  V30 12135 C 1126.55 -0.859169 -3.34234 0
M  V30 12136 C 1125.67 -2.05065 -3.80227 0
M  V30 12137 C 1124.8 -1.68413 -5.03796 0
M  V30 12138 C 1123.84 -2.8407 -5.4219 0
M  V30 12139 N 1122.98 -2.47732 -6.56942 0
M  V30 12140 H 1127.82 -2.10973 -2.10463 0
M  V30 12141 H 1125.36 -1.04969 -1.03053 0
M  V30 12142 H 1127.31 -0.663064 -4.11897 0
M  V30 12143 H 1125.94 0.0496808 -3.22762 0
M  V30 12144 H 1125 -2.35808 -2.98494 0
M  V30 12145 H 1126.31 -2.91688 -4.04623 0
M  V30 12146 H 1125.46 -1.45162 -5.89078 0
M  V30 12147 H 1124.2 -0.789553 -4.81266 0
M  V30 12148 H 1123.21 -3.0799 -4.55437 0
M  V30 12149 H 1124.43 -3.74211 -5.66695 0
M  V30 12150 H 1122.38 -1.60777 -6.35993 0
M  V30 12151 H 1122.29 -3.27887 -6.81195 0
M  V30 12152 H 1123.56 -2.27831 -7.45462 0
M  V30 12153 N 1127.79 1.09952 -1.12909 0
M  V30 12154 C 1129.07 1.78547 -0.798767 0
M  V30 12155 C 1129.45 1.9878 0.710624 0
M  V30 12156 O 1128.8 1.58485 1.64604 0
M  V30 12157 C 1129.01 3.1121 -1.57953 0
M  V30 12158 C 1130.35 3.86006 -1.76874 0
M  V30 12159 O 1131.38 3.20946 -1.54506 0
M  V30 12160 O 1130.24 5.02791 -2.14158 0
M  V30 12161 H 1127.33 0.774084 -0.291072 0
M  V30 12162 H 1129.88 1.16557 -1.2334 0
M  V30 12163 H 1128.65 2.91935 -2.60557 0
M  V30 12164 H 1128.27 3.80922 -1.13948 0
M  V30 12165 N 1129.27 0.921757 1.27833 0
M  V30 12166 C 1130.2 0.433466 2.29441 0
M  V30 12167 C 1131.18 -0.503133 1.62489 0
M  V30 12168 O 1132.36 -0.409156 1.89841 0
M  V30 12169 C 1129.49 -0.320029 3.45822 0
M  V30 12170 C 1128.45 0.528178 4.24728 0
M  V30 12171 C 1127.77 -0.354132 5.33526 0
M  V30 12172 C 1129.07 1.78959 4.90684 0
M  V30 12173 H 1130.77 1.28263 2.70535 0
M  V30 12174 H 1128.31 0.618197 1.30055 0
M  V30 12175 H 1130.27 -0.672526 4.15999 0
M  V30 12176 H 1128.99 -1.20317 3.0363 0
M  V30 12177 H 1127.65 0.863302 3.5629 0
M  V30 12178 H 1127.3 -1.23605 4.87576 0
M  V30 12179 H 1127 0.209855 5.87225 0
M  V30 12180 H 1128.52 -0.702333 6.06547 0
M  V30 12181 H 1129.94 1.50552 5.53179 0
M  V30 12182 H 1128.33 2.29661 5.54415 0
M  V30 12183 H 1129.4 2.51265 4.14721 0
M  V30 12184 N 1130.75 -1.41857 0.686609 0
M  V30 12185 C 1131.69 -2.30795 0.015643 0
M  V30 12186 C 1132.66 -1.46616 -0.780569 0
M  V30 12187 O 1133.85 -1.75423 -0.750424 0
M  V30 12188 C 1130.99 -3.32577 -0.921229 0
M  V30 12189 C 1130.1 -4.3184 -0.117585 0
M  V30 12190 C 1129.24 -5.20693 -1.05128 0
M  V30 12191 C 1128.28 -6.11629 -0.240018 0
M  V30 12192 N 1127.41 -6.92995 -1.12704 0
M  V30 12193 H 1132.25 -2.87615 0.77985 0
M  V30 12194 H 1129.79 -1.41661 0.396298 0
M  V30 12195 H 1131.75 -3.90129 -1.47836 0
M  V30 12196 H 1130.38 -2.77328 -1.65193 0
M  V30 12197 H 1129.43 -3.7631 0.55634 0
M  V30 12198 H 1130.74 -4.96168 0.511753 0
M  V30 12199 H 1129.9 -5.83035 -1.67795 0
M  V30 12200 H 1128.63 -4.5657 -1.71449 0
M  V30 12201 H 1127.64 -5.48345 0.399779 0
M  V30 12202 H 1128.86 -6.77805 0.419266 0
M  V30 12203 H 1126.81 -6.31489 -1.77644 0
M  V30 12204 H 1126.73 -7.53974 -0.553065 0
M  V30 12205 H 1128 -7.59813 -1.7408 0
M  V30 12206 N 1132.22 -0.430739 -1.51599 0
M  V30 12207 C 1133.45 0.139197 -2.06932 0
M  V30 12208 C 1133.87 1.3626 -1.29672 0
M  V30 12209 O 1133.23 1.78219 -0.332836 0
M  V30 12210 C 1133.28 0.446593 -3.57824 0
M  V30 12211 O 1132.38 1.53414 -3.82803 0
M  V30 12212 H 1131.73 0.00475812 -0.663983 0
M  V30 12213 H 1134.26 -0.610171 -1.9529 0
M  V30 12214 H 1134.27 0.698972 -4.01968 0
M  V30 12215 H 1132.94 -0.447613 -4.13484 0
M  V30 12216 H 1131.52 1.27224 -3.50526 0
M  V30 12217 N 1133.7 1.56767 -0.161869 0
M  V30 12218 C 1134.65 2.17502 0.772102 0
M  V30 12219 C 1135.62 1.11223 1.23364 0
M  V30 12220 O 1136.8 1.39332 1.30351 0
M  V30 12221 C 1133.94 2.81248 1.99984 0
M  V30 12222 C 1133.06 4.01962 1.58274 0
M  V30 12223 C 1132.19 4.53662 2.76341 0
M  V30 12224 C 1131.23 5.66807 2.31076 0
M  V30 12225 N 1130.37 6.13059 3.42203 0
M  V30 12226 H 1135.21 2.96971 0.247382 0
M  V30 12227 H 1132.75 1.46685 0.110382 0
M  V30 12228 H 1134.7 3.16359 2.7198 0
M  V30 12229 H 1133.33 2.04398 2.49842 0
M  V30 12230 H 1132.39 3.72733 0.759874 0
M  V30 12231 H 1133.7 4.83891 1.2104 0
M  V30 12232 H 1132.85 4.90905 3.56507 0
M  V30 12233 H 1131.59 3.7077 3.16829 0
M  V30 12234 H 1130.6 5.29125 1.49354 0
M  V30 12235 H 1131.82 6.51494 1.91657 0
M  V30 12236 H 1129.77 5.33099 3.82285 0
M  V30 12237 H 1129.68 6.89953 3.09033 0
M  V30 12238 H 1130.95 6.54951 4.22682 0
M  V30 12239 N 1135.18 -0.111886 1.57202 0
M  V30 12240 C 1136.09 -1.1556 2.04165 0
M  V30 12241 C 1137.11 -1.44898 0.963354 0
M  V30 12242 O 1138.28 -1.55873 1.27536 0
M  V30 12243 C 1135.35 -2.46048 2.44256 0
M  V30 12244 C 1134.41 -2.24043 3.66201 0
M  V30 12245 C 1133.64 -3.4831 4.04371 0
M  V30 12246 O 1133.86 -4.55895 3.42806 0
M  V30 12247 O 1132.8 -3.38891 4.9743 0
M  V30 12248 H 1136.62 -0.786778 2.93332 0
M  V30 12249 H 1134.21 -0.323196 1.45862 0
M  V30 12250 H 1136.09 -3.22916 2.70745 0
M  V30 12251 H 1134.77 -2.8239 1.58233 0
M  V30 12252 H 1133.67 -1.4501 3.44852 0
M  V30 12253 H 1135.01 -1.92602 4.52952 0
M  V30 12254 N 1136.66 -1.52894 -0.382264 0
M  V30 12255 C 1137.9 -1.68515 -1.12829 0
M  V30 12256 C 1138.24 -0.427211 -1.89443 0
M  V30 12257 O 1137.51 0.57516 -1.85801 0
M  V30 12258 C 1137.8 -2.92449 -2.10108 0
M  V30 12259 C 1137.65 -4.2836 -1.37214 0
M  V30 12260 C 1138.97 -3.11944 -3.1045 0
M  V30 12261 H 1136.09 -0.613223 -0.408811 0
M  V30 12262 H 1138.73 -1.85503 -0.410921 0
M  V30 12263 H 1136.88 -2.78097 -2.71283 0
M  V30 12264 H 1138.55 -4.54493 -0.789516 0
M  V30 12265 H 1136.79 -4.28532 -0.673973 0
M  V30 12266 H 1137.46 -5.11178 -2.0833 0
M  V30 12267 H 1139.94 -3.25372 -2.59369 0
M  V30 12268 H 1138.82 -4.00125 -3.75754 0
M  V30 12269 H 1139.08 -2.26465 -3.79692 0
M  V30 12270 N 1138.14 0.641106 -1.43971 0
M  V30 12271 C 1139.55 1.22254 -1.41106 0
M  V30 12272 C 1139.9 1.95825 -0.121284 0
M  V30 12273 O 1139.02 2.01901 0.77879 0
M  V30 12274 C 1139.62 2.22364 -2.55617 0
M  V30 12275 C 1138.18 2.75957 -2.55978 0
M  V30 12276 C 1137.33 1.50792 -2.32717 0
M  V30 12277 H 1140.28 0.432381 -1.52696 0
M  V30 12278 H 1140.3 3.04775 -2.27799 0
M  V30 12279 H 1139.81 1.68789 -3.49474 0
M  V30 12280 H 1137.91 3.33562 -1.66034 0
M  V30 12281 H 1138.02 3.22676 -3.54142 0
M  V30 12282 H 1136.39 1.7857 -1.81617 0
M  V30 12283 H 1137.17 0.991343 -3.28675 0
M  V30 12284 N 1139.62 1.30703 0.880598 0
M  V30 12285 C 1140.53 1.19389 2.01949 0
M  V30 12286 C 1141.54 0.112868 1.73634 0
M  V30 12287 O 1142.72 0.328643 1.98701 0
M  V30 12288 C 1139.78 0.891004 3.35055 0
M  V30 12289 C 1138.84 2.05784 3.76764 0
M  V30 12290 C 1138.08 1.76931 5.03519 0
M  V30 12291 O 1138.3 0.699326 5.66097 0
M  V30 12292 O 1137.23 2.623 5.4174 0
M  V30 12293 H 1141.06 2.15073 2.14423 0
M  V30 12294 H 1138.64 1.10339 1.00726 0
M  V30 12295 H 1140.53 0.737476 4.14897 0
M  V30 12296 H 1139.2 -0.0358909 3.2368 0
M  V30 12297 H 1138.11 2.26672 2.97608 0
M  V30 12298 H 1139.44 2.96661 3.9275 0
M  V30 12299 N 1141.09 -1.09351 1.1349 0
M  V30 12300 C 1142.06 -2.14185 0.815919 0
M  V30 12301 C 1143.06 -1.59845 -0.174976 0
M  V30 12302 O 1144.25 -1.74122 0.0521971 0
M  V30 12303 C 1141.38 -3.40224 0.214517 0
M  V30 12304 H 1142.57 -2.43913 1.74489 0
M  V30 12305 H 1140.12 -1.24902 0.939634 0
M  V30 12306 H 1140.86 -3.16123 -0.723634 0
M  V30 12307 H 1140.64 -3.80958 0.928102 0
M  V30 12308 H 1142.13 -4.17599 0.00821999 0
M  V30 12309 N 1142.57 -0.928524 -1.27343 0
M  V30 12310 C 1143.99 -0.62889 -1.46687 0
M  V30 12311 C 1144.19 0.821592 -1.83989 0
M  V30 12312 O 1143.24 1.59941 -1.95385 0
M  V30 12313 C 1144.56 -1.57947 -2.55878 0
M  V30 12314 C 1146.1 -1.58778 -2.69738 0
M  V30 12315 C 1146.58 -2.52535 -3.82087 0
M  V30 12316 N 1148.07 -2.50747 -3.89462 0
M  V30 12317 C 1148.81 -3.19981 -4.75814 0
M  V30 12318 N 1148.3 -3.98598 -5.66649 0
M  V30 12319 N 1150.09 -3.08996 -4.69551 0
M  V30 12320 H 1142.25 -1.86625 -1.01414 0
M  V30 12321 H 1144.51 -0.801293 -0.50659 0
M  V30 12322 H 1144.21 -2.61427 -2.35264 0
M  V30 12323 H 1144.09 -1.3218 -3.53282 0
M  V30 12324 H 1146.48 -0.560292 -2.89732 0
M  V30 12325 H 1146.56 -1.88594 -1.72817 0
M  V30 12326 H 1146.2 -3.55395 -3.62846 0
M  V30 12327 H 1146.13 -2.20015 -4.78436 0
M  V30 12328 H 1148.62 -1.93651 -3.24511 0
M  V30 12329 H 1148.93 -4.4841 -6.29403 0
M  V30 12330 H 1147.28 -4.02701 -5.66442 0
M  V30 12331 H 1150.47 -2.4707 -3.97585 0
M  V30 12332 H 1150.64 -3.63223 -5.36631 0
M  V30 12333 N 1144.05 1.41491 -0.694123 0
M  V30 12334 C 1145.01 2.2917 -0.0368562 0
M  V30 12335 C 1146.01 1.44305 0.709426 0
M  V30 12336 O 1147.2 1.6547 0.544533 0
M  V30 12337 C 1144.33 3.27156 0.958201 0
M  V30 12338 H 1145.53 2.88787 -0.808829 0
M  V30 12339 H 1143.08 1.49453 -0.457538 0
M  V30 12340 H 1143.82 2.72516 1.75799 0
M  V30 12341 H 1143.6 3.89776 0.426227 0
M  V30 12342 H 1145.09 3.92863 1.41592 0
M  V30 12343 N 1145.53 0.438773 1.51369 0
M  V30 12344 C 1146.76 -0.125665 2.06217 0
M  V30 12345 C 1147.17 -1.36887 1.30609 0
M  V30 12346 O 1146.51 -1.80149 0.359433 0
M  V30 12347 C 1146.57 -0.511846 3.55838 0
M  V30 12348 C 1146.23 0.624755 4.52709 0
M  V30 12349 C 1147.23 1.49731 4.97872 0
M  V30 12350 C 1144.92 0.805895 4.95793 0
M  V30 12351 C 1146.91 2.53569 5.84792 0
M  V30 12352 C 1144.6 1.84755 5.82502 0
M  V30 12353 C 1145.6 2.71083 6.269 0
M  V30 12354 O 1145.28 3.7346 7.11887 0
M  V30 12355 H 1145.02 -0.0107227 0.675915 0
M  V30 12356 H 1147.57 0.617071 1.95912 0
M  V30 12357 H 1145.8 -1.30731 3.63932 0
M  V30 12358 H 1147.49 -1.0076 3.93195 0
M  V30 12359 H 1148.25 1.36891 4.65281 0
M  V30 12360 H 1144.13 0.14352 4.60777 0
M  V30 12361 H 1147.68 3.20984 6.19367 0
M  V30 12362 H 1143.57 1.97614 6.14507 0
M  V30 12363 H 1144.34 3.70058 7.30068 0
M  V30 12364 N 1147.01 -1.56678 0.170181 0
M  V30 12365 C 1147.94 -2.20916 -0.756213 0
M  V30 12366 C 1148.92 -1.16442 -1.23997 0
M  V30 12367 O 1150.1 -1.44867 -1.29333 0
M  V30 12368 C 1147.23 -2.84901 -1.98617 0
M  V30 12369 C 1146.19 -3.95403 -1.63831 0
M  V30 12370 C 1145.51 -4.46432 -2.94282 0
M  V30 12371 C 1146.81 -5.15051 -0.867195 0
M  V30 12372 H 1148.51 -2.98585 -0.220776 0
M  V30 12373 H 1146.05 -1.43619 -0.104748 0
M  V30 12374 H 1148 -3.28514 -2.63926 0
M  V30 12375 H 1146.73 -2.04598 -2.54572 0
M  V30 12376 H 1145.39 -3.52444 -1.00891 0
M  V30 12377 H 1145.04 -3.62923 -3.48276 0
M  V30 12378 H 1144.74 -5.20979 -2.71762 0
M  V30 12379 H 1146.26 -4.92731 -3.60622 0
M  V30 12380 H 1147.67 -5.55363 -1.42285 0
M  V30 12381 H 1146.07 -5.95507 -0.741065 0
M  V30 12382 H 1147.14 -4.84707 0.136693 0
M  V30 12383 N 1148.48 0.103547 -1.57259 0
M  V30 12384 C 1149.9 0.457527 -1.52901 0
M  V30 12385 C 1150.1 1.80995 -0.8856 0
M  V30 12386 O 1149.16 2.48001 -0.474504 0
M  V30 12387 C 1150.47 0.427793 -2.97641 0
M  V30 12388 C 1152.02 0.51025 -3.08813 0
M  V30 12389 C 1152.49 0.51075 -4.55143 0
M  V30 12390 N 1153.98 0.571748 -4.59658 0
M  V30 12391 C 1154.72 0.593836 -5.70317 0
M  V30 12392 N 1154.21 0.572638 -6.90429 0
M  V30 12393 N 1156.01 0.638011 -5.58467 0
M  V30 12394 H 1148.16 -0.782408 -1.97464 0
M  V30 12395 H 1150.42 -0.290324 -0.90245 0
M  V30 12396 H 1150.13 -0.498608 -3.48148 0
M  V30 12397 H 1150 1.24991 -3.55889 0
M  V30 12398 H 1152.39 1.42707 -2.583 0
M  V30 12399 H 1152.47 -0.339846 -2.53532 0
M  V30 12400 H 1152.11 -0.40209 -5.06306 0
M  V30 12401 H 1152.04 1.37794 -5.08252 0
M  V30 12402 H 1154.53 0.593668 -3.73208 0
M  V30 12403 H 1154.85 0.592542 -7.70525 0
M  V30 12404 H 1153.19 0.539818 -6.929 0
M  V30 12405 H 1156.38 0.652042 -4.63536 0
M  V30 12406 H 1156.56 0.651756 -6.44714 0
M  V30 12407 N 1149.96 1.53094 0.37415 0
M  V30 12408 C 1151.21 1.68082 1.11495 0
M  V30 12409 C 1151.52 0.434685 1.90709 0
M  V30 12410 O 1152.73 0.464956 2.67489 0
M  V30 12411 C 1151.19 2.97101 2.03124 0
M  V30 12412 C 1150.79 4.28947 1.29262 0
M  V30 12413 C 1152.54 3.21456 2.77248 0
M  V30 12414 C 1150.44 5.4906 2.19743 0
M  V30 12415 H 1149.37 0.626238 0.419931 0
M  V30 12416 H 1152.03 1.79594 0.376588 0
M  V30 12417 H 1150.41 2.79371 2.80656 0
M  V30 12418 H 1151.58 4.57279 0.568528 0
M  V30 12419 H 1149.9 4.10968 0.670362 0
M  V30 12420 H 1152.49 4.08377 3.45155 0
M  V30 12421 H 1152.84 2.37153 3.42146 0
M  V30 12422 H 1153.37 3.3982 2.06803 0
M  V30 12423 H 1150.11 6.35815 1.59437 0
M  V30 12424 H 1149.63 5.25019 2.90027 0
M  V30 12425 H 1151.31 5.83517 2.79495 0
M  V30 12426 N 1151.44 -0.633461 1.44309 0
M  V30 12427 C 1152.37 -1.75676 1.53819 0
M  V30 12428 C 1153.35 -1.65537 0.391365 0
M  V30 12429 O 1154.54 -1.84332 0.611181 0
M  V30 12430 C 1151.67 -3.14197 1.47979 0
M  V30 12431 C 1150.62 -3.39122 2.61113 0
M  V30 12432 C 1149.95 -4.77648 2.40325 0
M  V30 12433 C 1151.25 -3.31914 4.03274 0
M  V30 12434 H 1152.94 -1.67974 2.47841 0
M  V30 12435 H 1150.49 -0.8067 1.19283 0
M  V30 12436 H 1152.44 -3.92553 1.53233 0
M  V30 12437 H 1151.16 -3.22677 0.504718 0
M  V30 12438 H 1149.82 -2.63145 2.55245 0
M  V30 12439 H 1149.47 -4.82829 1.41016 0
M  V30 12440 H 1149.17 -4.95284 3.16177 0
M  V30 12441 H 1150.69 -5.58237 2.47394 0
M  V30 12442 H 1152.11 -4.00178 4.10524 0
M  V30 12443 H 1150.5 -3.61085 4.7931 0
M  V30 12444 H 1151.57 -2.29761 4.2701 0
M  V30 12445 N 1152.92 -1.31168 -0.873655 0
M  V30 12446 C 1154.17 -1.20404 -1.62319 0
M  V30 12447 C 1154.49 0.238829 -1.93532 0
M  V30 12448 O 1153.76 1.15854 -1.57971 0
M  V30 12449 H 1152.34 -0.442632 -0.601736 0
M  V30 12450 H 1155 -1.64445 -1.04613 0
M  V30 12451 H 1154.1 -1.77309 -2.56842 0
M  V30 12452 N 1154.4 1.08748 -1.14068 0
M  V30 12453 C 1155.31 2.19123 -0.837998 0
M  V30 12454 C 1156.32 1.73065 0.180164 0
M  V30 12455 O 1157.5 2.01398 0.00952285 0
M  V30 12456 C 1154.56 3.45257 -0.316 0
M  V30 12457 C 1153.62 4.05959 -1.39628 0
M  V30 12458 C 1152.86 5.26072 -0.899095 0
M  V30 12459 O 1153.08 5.69804 0.260744 0
M  V30 12460 O 1152.01 5.7808 -1.67652 0
M  V30 12461 H 1155.84 2.4748 -1.76033 0
M  V30 12462 H 1153.43 1.17816 -0.918675 0
M  V30 12463 H 1155.31 4.21389 -0.0306425 0
M  V30 12464 H 1153.98 3.18486 0.578654 0
M  V30 12465 H 1152.89 3.31432 -1.73505 0
M  V30 12466 H 1154.22 4.36971 -2.26533 0
M  V30 12467 N 1155.87 0.935264 1.26849 0
M  V30 12468 C 1156.78 0.446122 2.30319 0
M  V30 12469 C 1157.8 -0.476965 1.67335 0
M  V30 12470 O 1158.98 -0.357934 1.98194 0
M  V30 12471 C 1156.04 -0.286297 3.45516 0
M  V30 12472 C 1155.1 0.672626 4.23998 0
M  V30 12473 C 1154.34 -0.0249345 5.33694 0
M  V30 12474 O 1154.56 -1.24296 5.56693 0
M  V30 12475 O 1153.49 0.650752 5.98372 0
M  V30 12476 H 1157.32 1.30546 2.74211 0
M  V30 12477 H 1154.9 0.70091 1.31938 0
M  V30 12478 H 1156.79 -0.699109 4.1556 0
M  V30 12479 H 1155.46 -1.12112 3.03665 0
M  V30 12480 H 1154.37 1.13527 3.56458 0
M  V30 12481 H 1155.7 1.47489 4.69583 0
M  V30 12482 N 1157.35 -1.41121 0.701616 0
M  V30 12483 C 1158.28 -2.33436 0.0545974 0
M  V30 12484 C 1159.26 -1.52144 -0.760662 0
M  V30 12485 O 1160.45 -1.80661 -0.712414 0
M  V30 12486 C 1157.58 -3.36015 -0.878117 0
M  V30 12487 C 1156.53 -4.27664 -0.169511 0
M  V30 12488 C 1155.86 -5.20666 -1.21699 0
M  V30 12489 C 1157.16 -5.13254 0.967859 0
M  V30 12490 H 1158.85 -2.87791 0.825637 0
M  V30 12491 H 1156.4 -1.38377 0.398484 0
M  V30 12492 H 1158.35 -3.99526 -1.34004 0
M  V30 12493 H 1157.08 -2.80024 -1.68089 0
M  V30 12494 H 1155.73 -3.65586 0.272441 0
M  V30 12495 H 1155.38 -4.60987 -2.01246 0
M  V30 12496 H 1155.08 -5.82822 -0.747836 0
M  V30 12497 H 1156.61 -5.87053 -1.6793 0
M  V30 12498 H 1158.02 -5.70298 0.585944 0
M  V30 12499 H 1156.42 -5.84381 1.3645 0
M  V30 12500 H 1157.49 -4.5006 1.80483 0
M  V30 12501 N 1158.83 -0.446794 -1.51134 0
M  V30 12502 C 1160.08 0.116263 -2.01765 0
M  V30 12503 C 1160.4 1.42382 -1.33238 0
M  V30 12504 O 1159.67 1.9018 -0.469915 0
M  V30 12505 H 1158.25 0.0459558 -0.745585 0
M  V30 12506 H 1160.91 -0.591664 -1.85702 0
M  V30 12507 H 1160.01 0.285358 -3.10793 0
M  V30 12508 N 1160.31 1.56586 -0.178487 0
M  V30 12509 C 1161.56 1.97098 0.464617 0
M  V30 12510 C 1161.88 1.06476 1.62767 0
M  V30 12511 O 1161.14 0.100337 1.95443 0
M  V30 12512 C 1161.44 3.43629 0.982552 0
M  V30 12513 C 1161.1 4.50853 -0.0653645 0
M  V30 12514 C 1159.77 4.79901 -0.353349 0
M  V30 12515 C 1162.12 5.15387 -0.776279 0
M  V30 12516 C 1159.45 5.70779 -1.35751 0
M  V30 12517 C 1161.8 6.07349 -1.76948 0
M  V30 12518 C 1160.46 6.34761 -2.06483 0
M  V30 12519 H 1159.73 0.721232 0.170016 0
M  V30 12520 H 1162.38 1.89559 -0.271959 0
M  V30 12521 H 1160.68 3.48155 1.79709 0
M  V30 12522 H 1162.38 3.7232 1.48926 0
M  V30 12523 H 1158.97 4.28266 0.169266 0
M  V30 12524 H 1163.15 4.9305 -0.567008 0
M  V30 12525 H 1158.41 5.90298 -1.59244 0
M  V30 12526 H 1162.58 6.56419 -2.32567 0
M  V30 12527 H 1160.21 7.0498 -2.84441 0
M  V30 12528 N 1161.79 -0.095206 1.57312 0
M  V30 12529 C 1162.75 -1.09974 2.01093 0
M  V30 12530 C 1163.75 -1.32954 0.904424 0
M  V30 12531 O 1164.94 -1.29069 1.16991 0
M  V30 12532 C 1162.07 -2.4489 2.37153 0
M  V30 12533 H 1163.26 -0.722906 2.91057 0
M  V30 12534 H 1160.82 -0.340249 1.52552 0
M  V30 12535 H 1161.55 -2.8745 1.50143 0
M  V30 12536 H 1161.34 -2.29559 3.17876 0
M  V30 12537 H 1162.83 -3.17141 2.71683 0
M  V30 12538 N 1163.26 -1.53291 -0.366026 0
M  V30 12539 C 1164.49 -1.73665 -1.13381 0
M  V30 12540 C 1164.91 -0.464284 -1.8228 0
M  V30 12541 O 1164.27 0.581645 -1.71717 0
M  V30 12542 C 1164.32 -2.90225 -2.14013 0
M  V30 12543 O 1163.42 -2.58803 -3.21084 0
M  V30 12544 H 1162.77 -0.576762 -0.329 0
M  V30 12545 H 1165.3 -2.00174 -0.423287 0
M  V30 12546 H 1165.31 -3.16378 -2.57622 0
M  V30 12547 H 1163.98 -3.82518 -1.63257 0
M  V30 12548 H 1162.56 -2.43466 -2.82451 0
M  V30 12549 N 1164.74 0.6258 -1.44643 0
M  V30 12550 C 1165.67 1.74858 -1.54748 0
M  V30 12551 C 1166.65 1.65327 -0.400138 0
M  V30 12552 O 1167.84 1.84005 -0.620948 0
M  V30 12553 C 1164.97 3.13408 -1.49643 0
M  V30 12554 C 1163.92 3.37733 -2.62908 0
M  V30 12555 C 1163.25 4.76367 -2.42855 0
M  V30 12556 C 1164.55 3.29771 -4.05029 0
M  V30 12557 H 1166.24 1.66658 -2.48728 0
M  V30 12558 H 1163.79 0.800363 -1.19709 0
M  V30 12559 H 1165.74 3.91735 -1.55312 0
M  V30 12560 H 1164.47 3.22404 -0.521824 0
M  V30 12561 H 1163.12 2.61788 -2.56637 0
M  V30 12562 H 1162.77 4.82074 -1.43575 0
M  V30 12563 H 1162.47 4.936 -3.18799 0
M  V30 12564 H 1164 5.56917 -2.50351 0
M  V30 12565 H 1165.41 3.97996 -4.12641 0
M  V30 12566 H 1163.81 3.58538 -4.81218 0
M  V30 12567 H 1164.88 2.27493 -4.28223 0
M  V30 12568 N 1166.22 1.31629 0.866686 0
M  V30 12569 C 1167.17 1.16149 1.96197 0
M  V30 12570 C 1168.15 0.0716068 1.60741 0
M  V30 12571 O 1169.35 0.296868 1.74493 0
M  V30 12572 C 1166.48 0.874322 3.3198 0
M  V30 12573 C 1165.56 2.00534 3.73693 0
M  V30 12574 N 1165.95 3.25272 3.87339 0
M  V30 12575 C 1164.25 1.90582 4.0323 0
M  V30 12576 C 1164.95 3.99275 4.2303 0
M  V30 12577 N 1163.93 3.27471 4.33894 0
M  V30 12578 H 1167.73 2.10732 2.04864 0
M  V30 12579 H 1165.24 1.23234 1.05769 0
M  V30 12580 H 1167.24 0.7444 4.102 0
M  V30 12581 H 1165.9 -0.0632521 3.24638 0
M  V30 12582 H 1166.91 3.60349 3.71979 0
M  V30 12583 H 1163.59 1.0431 4.0426 0
M  V30 12584 H 1164.98 5.06784 4.41157 0
M  V30 12585 N 1167.7 -1.08142 1.14644 0
M  V30 12586 C 1168.98 -1.77254 0.827071 0
M  V30 12587 C 1169.36 -1.99885 -0.67891 0
M  V30 12588 O 1168.7 -1.61084 -1.62062 0
M  V30 12589 C 1168.91 -3.08658 1.62884 0
M  V30 12590 C 1170.26 -3.83143 1.82993 0
M  V30 12591 O 1171.29 -3.18447 1.59593 0
M  V30 12592 O 1170.15 -4.9932 2.2213 0
M  V30 12593 H 1167.24 -0.769356 0.30335 0
M  V30 12594 H 1169.79 -1.1458 1.25178 0
M  V30 12595 H 1168.56 -2.87753 2.65168 0
M  V30 12596 H 1168.18 -3.79061 1.19994 0
M  V30 12597 N 1169.18 -0.941978 -1.26351 0
M  V30 12598 C 1170.11 -0.469913 -2.28723 0
M  V30 12599 C 1171.09 0.477218 -1.63269 0
M  V30 12600 O 1172.27 0.378902 -1.90468 0
M  V30 12601 C 1169.4 0.264971 -3.46288 0
M  V30 12602 C 1168.36 -0.595682 -4.23834 0
M  V30 12603 C 1167.68 0.269208 -5.34022 0
M  V30 12604 C 1168.98 -1.86743 -4.87775 0
M  V30 12605 H 1170.68 -1.32551 -2.6846 0
M  V30 12606 H 1168.22 -0.638809 -1.29055 0
M  V30 12607 H 1170.18 0.606259 -4.17016 0
M  V30 12608 H 1168.9 1.15471 -3.05506 0
M  V30 12609 H 1167.56 -0.919875 -3.54872 0
M  V30 12610 H 1167.21 1.15832 -4.89481 0
M  V30 12611 H 1166.91 -0.30325 -5.86817 0
M  V30 12612 H 1168.43 0.605748 -6.07588 0
M  V30 12613 H 1169.85 -1.59333 -5.50714 0
M  V30 12614 H 1168.24 -2.38452 -5.50691 0
M  V30 12615 H 1169.31 -2.57831 -4.10671 0
M  V30 12616 N 1170.66 1.40747 -0.709091 0
M  V30 12617 C 1171.59 2.29196 -0.0130359 0
M  V30 12618 C 1172.6 1.45491 0.730487 0
M  V30 12619 O 1173.79 1.6885 0.578944 0
M  V30 12620 C 1170.89 3.23632 1.00577 0
M  V30 12621 C 1170.06 4.3616 0.329105 0
M  V30 12622 C 1169.12 5.11079 1.25239 0
M  V30 12623 O 1168.15 5.64374 0.739641 0
M  V30 12624 N 1169.35 5.1982 2.58394 0
M  V30 12625 H 1172.11 2.89574 -0.772462 0
M  V30 12626 H 1169.68 1.52046 -0.556197 0
M  V30 12627 H 1171.67 3.70622 1.62546 0
M  V30 12628 H 1170.24 2.64467 1.66661 0
M  V30 12629 H 1169.46 3.9138 -0.470683 0
M  V30 12630 H 1170.75 5.08605 -0.140856 0
M  V30 12631 H 1170.14 4.77992 3.02556 0
M  V30 12632 H 1168.7 5.7034 3.15524 0
M  V30 12633 N 1172.13 0.454803 1.50895 0
M  V30 12634 C 1173.06 -0.337982 2.31041 0
M  V30 12635 C 1174.04 -1.00523 1.37219 0
M  V30 12636 O 1175.23 -1.00553 1.66141 0
M  V30 12637 C 1172.36 -1.42964 3.1651 0
M  V30 12638 C 1171.31 -0.884907 4.18752 0
M  V30 12639 C 1170.64 -2.07363 4.92854 0
M  V30 12640 C 1171.94 0.0926716 5.22218 0
M  V30 12641 H 1173.63 0.33089 2.97566 0
M  V30 12642 H 1171.18 0.160577 1.43102 0
M  V30 12643 H 1173.13 -1.9916 3.71367 0
M  V30 12644 H 1171.86 -2.12705 2.47839 0
M  V30 12645 H 1170.52 -0.345031 3.64973 0
M  V30 12646 H 1170.16 -2.75764 4.2067 0
M  V30 12647 H 1169.86 -1.71545 5.62002 0
M  V30 12648 H 1171.39 -2.6408 5.5054 0
M  V30 12649 H 1172.8 -0.379568 5.72042 0
M  V30 12650 H 1171.2 0.3643 5.98993 0
M  V30 12651 H 1172.27 1.02383 4.73968 0
M  V30 12652 N 1173.61 -1.56489 0.186789 0
M  V30 12653 C 1174.54 -2.21705 -0.732739 0
M  V30 12654 C 1175.52 -1.17751 -1.22755 0
M  V30 12655 O 1176.71 -1.46231 -1.27789 0
M  V30 12656 C 1173.84 -2.86992 -1.95584 0
M  V30 12657 C 1172.79 -3.97118 -1.59628 0
M  V30 12658 C 1172.12 -4.49529 -2.89531 0
M  V30 12659 C 1173.42 -5.15941 -0.812518 0
M  V30 12660 H 1175.11 -2.98802 -0.189094 0
M  V30 12661 H 1172.66 -1.43722 -0.0895099 0
M  V30 12662 H 1174.61 -3.31295 -2.60426 0
M  V30 12663 H 1173.33 -2.07287 -2.52388 0
M  V30 12664 H 1171.99 -3.53494 -0.971475 0
M  V30 12665 H 1171.64 -3.66596 -3.44407 0
M  V30 12666 H 1171.34 -5.23832 -2.66221 0
M  V30 12667 H 1172.87 -4.96528 -3.55376 0
M  V30 12668 H 1174.28 -5.56841 -1.36386 0
M  V30 12669 H 1172.68 -5.96259 -0.677862 0
M  V30 12670 H 1173.75 -4.84535 0.188095 0
M  V30 12671 N 1175.09 0.086862 -1.5736 0
M  V30 12672 C 1176.34 0.787281 -1.86135 0
M  V30 12673 C 1176.66 1.78866 -0.776667 0
M  V30 12674 O 1175.93 1.94915 0.19625 0
M  V30 12675 H 1174.51 0.293744 -0.686821 0
M  V30 12676 H 1177.17 0.0665326 -1.94786 0
M  V30 12677 H 1176.27 1.3128 -2.83147 0
M  V30 12678 N 1176.57 1.53483 0.357892 0
M  V30 12679 C 1177.51 1.80463 1.43881 0
M  V30 12680 C 1178.48 0.649438 1.52877 0
M  V30 12681 O 1179.67 0.892409 1.68644 0
M  V30 12682 C 1176.81 2.00714 2.80727 0
M  V30 12683 C 1175.92 3.28431 2.80637 0
M  V30 12684 C 1175.06 3.38828 4.09107 0
M  V30 12685 C 1174.1 4.60549 4.03189 0
M  V30 12686 N 1173.23 4.68057 5.23323 0
M  V30 12687 H 1178.07 2.72694 1.20174 0
M  V30 12688 H 1175.61 1.35079 0.582422 0
M  V30 12689 H 1177.57 2.10444 3.60235 0
M  V30 12690 H 1176.2 1.11811 3.02817 0
M  V30 12691 H 1175.25 3.27617 1.93317 0
M  V30 12692 H 1176.56 4.18022 2.72138 0
M  V30 12693 H 1175.72 3.47911 4.97034 0
M  V30 12694 H 1174.46 2.47267 4.20369 0
M  V30 12695 H 1173.46 4.51558 3.13649 0
M  V30 12696 H 1174.69 5.53459 3.93523 0
M  V30 12697 H 1172.63 3.794 5.35156 0
M  V30 12698 H 1172.55 5.51563 5.17024 0
M  V30 12699 H 1173.82 4.81433 6.1306 0
M  V30 12700 N 1178.05 -0.61812 1.44973 0
M  V30 12701 C 1178.98 -1.74035 1.55673 0
M  V30 12702 C 1179.96 -1.65112 0.4089 0
M  V30 12703 O 1181.14 -1.83673 0.630698 0
M  V30 12704 C 1178.27 -3.1261 1.51303 0
M  V30 12705 C 1177.23 -3.36334 2.64696 0
M  V30 12706 C 1176.55 -4.75072 2.45378 0
M  V30 12707 C 1177.85 -3.27618 4.06772 0
M  V30 12708 H 1179.55 -1.65336 2.49608 0
M  V30 12709 H 1177.09 -0.794003 1.20132 0
M  V30 12710 H 1179.04 -3.90906 1.57388 0
M  V30 12711 H 1177.77 -3.22123 0.538914 0
M  V30 12712 H 1176.43 -2.60423 2.58022 0
M  V30 12713 H 1176.08 -4.81306 1.46129 0
M  V30 12714 H 1175.78 -4.91903 3.21412 0
M  V30 12715 H 1177.3 -5.55582 2.53301 0
M  V30 12716 H 1178.71 -3.95802 4.14746 0
M  V30 12717 H 1177.11 -3.55981 4.83113 0
M  V30 12718 H 1178.18 -2.25219 4.29423 0
M  V30 12719 N 1179.52 -1.32087 -0.859693 0
M  V30 12720 C 1180.45 -1.23204 -1.98351 0
M  V30 12721 C 1181.43 -0.116974 -1.69697 0
M  V30 12722 O 1182.62 -0.303301 -1.91817 0
M  V30 12723 C 1179.75 -0.949171 -3.34078 0
M  V30 12724 C 1178.7 -2.02493 -3.77069 0
M  V30 12725 C 1178.03 -1.59455 -5.1037 0
M  V30 12726 C 1179.33 -3.43934 -3.93074 0
M  V30 12727 H 1181.02 -2.17227 -2.0604 0
M  V30 12728 H 1178.57 -1.04577 -0.989931 0
M  V30 12729 H 1180.52 -0.873594 -4.12245 0
M  V30 12730 H 1179.25 0.0267095 -3.26589 0
M  V30 12731 H 1177.91 -2.09057 -3.01149 0
M  V30 12732 H 1177.55 -0.606256 -4.99333 0
M  V30 12733 H 1177.25 -2.31429 -5.40106 0
M  V30 12734 H 1178.78 -1.53325 -5.91036 0
M  V30 12735 H 1180.19 -3.39986 -4.61608 0
M  V30 12736 H 1178.59 -4.14214 -4.3422 0
M  V30 12737 H 1179.66 -3.83965 -2.9614 0
M  V30 12738 N 1181 1.07532 -1.15215 0
M  V30 12739 C 1181.93 2.1668 -0.870171 0
M  V30 12740 C 1182.91 1.69161 0.178483 0
M  V30 12741 O 1184.1 1.94172 0.0332489 0
M  V30 12742 C 1181.23 3.45464 -0.356666 0
M  V30 12743 C 1180.18 4.06424 -1.34179 0
M  V30 12744 C 1179.51 5.30266 -0.687206 0
M  V30 12745 C 1180.81 4.46666 -2.70715 0
M  V30 12746 H 1182.5 2.40526 -1.7829 0
M  V30 12747 H 1180.05 1.15598 -0.858665 0
M  V30 12748 H 1182 4.21144 -0.146947 0
M  V30 12749 H 1180.72 3.21199 0.591527 0
M  V30 12750 H 1179.38 3.32786 -1.53783 0
M  V30 12751 H 1179.03 5.0229 0.267077 0
M  V30 12752 H 1178.73 5.72009 -1.34462 0
M  V30 12753 H 1180.26 6.08653 -0.487218 0
M  V30 12754 H 1181.67 5.13483 -2.54966 0
M  V30 12755 H 1180.07 4.99355 -3.32813 0
M  V30 12756 H 1181.14 3.58123 -3.26919 0
M  V30 12757 N 1182.48 0.948665 1.2585 0
M  V30 12758 C 1183.41 0.408398 2.24516 0
M  V30 12759 C 1184.39 -0.506954 1.54495 0
M  V30 12760 O 1185.58 -0.442695 1.83228 0
M  V30 12761 C 1182.7 -0.41241 3.3618 0
M  V30 12762 C 1181.75 0.442483 4.24198 0
M  V30 12763 S 1182.58 1.87106 5.01749 0
M  V30 12764 C 1183.74 1.05851 6.16884 0
M  V30 12765 H 1183.97 1.24458 2.69995 0
M  V30 12766 H 1181.5 0.752309 1.34832 0
M  V30 12767 H 1183.46 -0.880064 4.00955 0
M  V30 12768 H 1182.12 -1.22335 2.89297 0
M  V30 12769 H 1181.32 -0.186767 5.03654 0
M  V30 12770 H 1180.92 0.845113 3.64327 0
M  V30 12771 H 1183.21 0.304329 6.76816 0
M  V30 12772 H 1184.15 1.82678 6.8413 0
M  V30 12773 H 1184.56 0.591269 5.61395 0
M  V30 12774 N 1183.96 -1.40369 0.716545 0
M  V30 12775 C 1185.21 -2.00473 0.255959 0
M  V30 12776 C 1185.53 -1.57104 -1.15514 0
M  V30 12777 O 1184.8 -0.810925 -1.78328 0
M  V30 12778 H 1183.38 -0.741357 0.0916427 0
M  V30 12779 H 1186.04 -1.71692 0.922389 0
M  V30 12780 H 1185.14 -3.10752 0.289806 0
M  V30 12781 N 1185.44 -0.462799 -1.50652 0
M  V30 12782 C 1186.4 0.324264 -2.26895 0
M  V30 12783 C 1187.4 0.927687 -1.31342 0
M  V30 12784 O 1188.59 0.798159 -1.54839 0
M  V30 12785 C 1185.72 1.46113 -3.08 0
M  V30 12786 H 1186.91 -0.344266 -2.97917 0
M  V30 12787 H 1184.47 -0.216631 -1.54791 0
M  V30 12788 H 1185.2 2.16496 -2.41454 0
M  V30 12789 H 1184.99 1.03433 -3.78212 0
M  V30 12790 H 1186.48 2.01655 -3.65684 0
M  V30 12791 N 1186.91 1.56388 -0.195085 0
M  V30 12792 C 1188.33 1.58788 0.160758 0
M  V30 12793 C 1188.53 1.21125 1.61031 0
M  V30 12794 O 1187.59 0.933994 2.34591 0
M  V30 12795 C 1188.9 3.00366 -0.141588 0
M  V30 12796 C 1190.45 3.12893 -0.0816947 0
M  V30 12797 C 1190.92 4.56604 -0.35735 0
M  V30 12798 N 1192.41 4.62188 -0.305968 0
M  V30 12799 C 1193.15 5.71276 -0.493108 0
M  V30 12800 N 1192.64 6.8883 -0.740595 0
M  V30 12801 N 1194.44 5.60473 -0.427365 0
M  V30 12802 H 1186.59 1.79151 -1.14099 0
M  V30 12803 H 1188.85 0.831446 -0.455413 0
M  V30 12804 H 1188.56 3.32483 -1.14666 0
M  V30 12805 H 1188.43 3.73082 0.555834 0
M  V30 12806 H 1190.82 2.80589 0.913978 0
M  V30 12807 H 1190.9 2.42564 -0.812193 0
M  V30 12808 H 1190.54 4.8962 -1.35034 0
M  V30 12809 H 1190.47 5.25124 0.394036 0
M  V30 12810 H 1192.96 3.77705 -0.121298 0
M  V30 12811 H 1193.28 7.67862 -0.872201 0
M  V30 12812 H 1191.62 6.90637 -0.777488 0
M  V30 12813 H 1194.81 4.67513 -0.234436 0
M  V30 12814 H 1194.99 6.45429 -0.576627 0
M  V30 12815 N 1188.39 -0.0785156 1.57404 0
M  V30 12816 C 1189.62 -0.792042 1.9114 0
M  V30 12817 C 1190.04 -1.71458 0.790408 0
M  V30 12818 O 1189.39 -1.80959 -0.236662 0
M  V30 12819 C 1189.44 -1.59138 3.24588 0
M  V30 12820 O 1189.16 -0.705931 4.32375 0
M  V30 12821 C 1190.67 -2.4065 3.72293 0
M  V30 12822 H 1187.89 -0.225566 0.63195 0
M  V30 12823 H 1190.43 -0.0507929 2.04437 0
M  V30 12824 H 1188.58 -2.28498 3.12838 0
M  V30 12825 H 1189 -1.26121 5.09111 0
M  V30 12826 H 1190.47 -2.92204 4.68317 0
M  V30 12827 H 1190.95 -3.1987 3.00965 0
M  V30 12828 H 1191.56 -1.7646 3.86965 0
M  V30 12829 N 1189.87 -1.5367 -0.349747 0
M  V30 12830 C 1190.8 -1.84208 -1.43492 0
M  V30 12831 C 1191.78 -0.696725 -1.55177 0
M  V30 12832 O 1192.97 -0.948061 -1.69486 0
M  V30 12833 C 1190.1 -2.04613 -2.80625 0
M  V30 12834 C 1189.05 -3.20419 -2.83753 0
M  V30 12835 C 1188.38 -3.26147 -4.23713 0
M  V30 12836 C 1189.68 -4.58666 -2.49846 0
M  V30 12837 H 1191.37 -2.75087 -1.18185 0
M  V30 12838 H 1188.92 -1.32363 -0.567101 0
M  V30 12839 H 1190.87 -2.2456 -3.56582 0
M  V30 12840 H 1189.59 -1.10459 -3.07354 0
M  V30 12841 H 1188.25 -3.00318 -2.10249 0
M  V30 12842 H 1187.9 -2.29599 -4.47541 0
M  V30 12843 H 1187.6 -4.03963 -4.26717 0
M  V30 12844 H 1189.12 -3.48296 -5.0152 0
M  V30 12845 H 1190.54 -4.78668 -3.15516 0
M  V30 12846 H 1188.94 -5.3884 -2.64144 0
M  V30 12847 H 1190.01 -4.62697 -1.4505 0
M  V30 12848 N 1191.35 0.610423 -1.45298 0
M  V30 12849 C 1192.28 1.73507 -1.4976 0
M  V30 12850 C 1193.29 1.58092 -0.38867 0
M  V30 12851 O 1194.48 1.66026 -0.655571 0
M  V30 12852 C 1191.58 3.11475 -1.33554 0
M  V30 12853 C 1190.76 3.53156 -2.5807 0
M  V30 12854 C 1189.81 4.70076 -2.36463 0
M  V30 12855 O 1188.84 4.77337 -3.10061 0
M  V30 12856 N 1190.04 5.63155 -1.40843 0
M  V30 12857 H 1192.81 1.70144 -2.46721 0
M  V30 12858 H 1190.37 0.79562 -1.41002 0
M  V30 12859 H 1192.36 3.87444 -1.16914 0
M  V30 12860 H 1190.93 3.09361 -0.448803 0
M  V30 12861 H 1190.15 2.67178 -2.89844 0
M  V30 12862 H 1191.44 3.77761 -3.40843 0
M  V30 12863 H 1190.84 5.60001 -0.800982 0
M  V30 12864 H 1189.39 6.38669 -1.30175 0
M  V30 12865 N 1192.83 1.32541 0.852676 0
M  V30 12866 C 1194.07 1.22971 1.60383 0
M  V30 12867 C 1194.4 -0.208009 1.93887 0
M  V30 12868 O 1193.67 -1.13326 1.59794 0
M  V30 12869 H 1192.25 0.452149 0.594618 0
M  V30 12870 H 1194.91 1.66089 1.01983 0
M  V30 12871 H 1194 1.81373 2.53989 0
M  V30 12872 N 1194.3 -1.0692 1.15784 0
M  V30 12873 C 1195.55 -1.78983 0.929944 0
M  V30 12874 C 1195.87 -1.87884 -0.543969 0
M  V30 12875 O 1197.07 -2.56513 -0.889578 0
M  V30 12876 C 1195.53 -3.21657 1.61446 0
M  V30 12877 C 1195.14 -3.20943 3.12569 0
M  V30 12878 C 1196.88 -3.98299 1.46828 0
M  V30 12879 C 1194.79 -4.58298 3.73788 0
M  V30 12880 H 1193.72 -0.670809 0.344284 0
M  V30 12881 H 1196.37 -1.19975 1.38846 0
M  V30 12882 H 1194.75 -3.80885 1.08364 0
M  V30 12883 H 1195.92 -2.71334 3.72444 0
M  V30 12884 H 1194.24 -2.57799 3.26999 0
M  V30 12885 H 1196.84 -4.99822 1.89952 0
M  V30 12886 H 1197.18 -4.14213 0.416358 0
M  V30 12887 H 1197.71 -3.45577 1.97031 0
M  V30 12888 H 1194.45 -4.47588 4.789 0
M  V30 12889 H 1193.97 -5.08126 3.18698 0
M  V30 12890 H 1195.65 -5.27262 3.74972 0
M  V30 12891 N 1195.78 -0.955326 -1.25345 0
M  V30 12892 C 1197.19 -0.651118 -1.74978 0
M  V30 12893 C 1197.54 0.833495 -1.77616 0
M  V30 12894 O 1196.67 1.65228 -1.39745 0
M  V30 12895 C 1197.26 -1.17521 -3.17764 0
M  V30 12896 C 1195.82 -0.921151 -3.64954 0
M  V30 12897 C 1194.97 -1.31784 -2.43984 0
M  V30 12898 H 1197.92 -1.13205 -1.11222 0
M  V30 12899 H 1197.94 -0.535625 -3.76711 0
M  V30 12900 H 1197.45 -2.25575 -3.15813 0
M  V30 12901 H 1195.56 0.144392 -3.7232 0
M  V30 12902 H 1195.67 -1.5581 -4.53056 0
M  V30 12903 H 1194.03 -0.736219 -2.43828 0
M  V30 12904 H 1194.82 -2.40761 -2.44723 0
M  V30 12905 N 1197.26 1.39987 -0.723979 0
M  V30 12906 C 1198.19 2.2917 -0.0373445 0
M  V30 12907 C 1199.21 1.46258 0.715015 0
M  V30 12908 O 1200.4 1.69455 0.561003 0
M  V30 12909 C 1197.5 3.2468 0.971384 0
M  V30 12910 C 1196.67 4.36485 0.282826 0
M  V30 12911 C 1195.73 5.12379 1.19811 0
M  V30 12912 O 1194.75 5.65127 0.67974 0
M  V30 12913 N 1195.96 5.22531 2.52866 0
M  V30 12914 H 1198.72 2.88738 -0.803131 0
M  V30 12915 H 1196.28 1.51448 -0.572292 0
M  V30 12916 H 1198.27 3.72326 1.58606 0
M  V30 12917 H 1196.84 2.6622 1.63846 0
M  V30 12918 H 1196.06 3.90859 -0.512167 0
M  V30 12919 H 1197.35 5.08427 -0.194793 0
M  V30 12920 H 1196.75 4.81174 2.97469 0
M  V30 12921 H 1195.31 5.73655 3.09457 0
M  V30 12922 N 1198.74 0.470782 1.50404 0
M  V30 12923 C 1199.67 -0.369532 2.25188 0
M  V30 12924 C 1200.65 -0.996478 1.28488 0
M  V30 12925 O 1201.83 -1.03247 1.57709 0
M  V30 12926 C 1198.96 -1.51775 3.02791 0
M  V30 12927 C 1198.01 -1.00821 4.14412 0
M  V30 12928 S 1198.84 0.076844 5.35445 0
M  V30 12929 C 1200 -1.07525 6.16595 0
M  V30 12930 H 1200.23 0.265286 2.96114 0
M  V30 12931 H 1197.76 0.255662 1.52269 0
M  V30 12932 H 1199.72 -2.17582 3.48092 0
M  V30 12933 H 1198.38 -2.12408 2.31391 0
M  V30 12934 H 1197.57 -1.8678 4.68112 0
M  V30 12935 H 1197.18 -0.427851 3.71545 0
M  V30 12936 H 1199.47 -1.98693 6.47709 0
M  V30 12937 H 1200.41 -0.577518 7.05741 0
M  V30 12938 H 1200.82 -1.32894 5.48634 0
M  V30 12939 N 1200.22 -1.56282 0.203376 0
M  V30 12940 C 1201.47 -1.96987 -0.433461 0
M  V30 12941 C 1201.78 -1.09344 -1.62183 0
M  V30 12942 O 1202.99 -1.39868 -2.327 0
M  V30 12943 C 1201.44 -3.50374 -0.82257 0
M  V30 12944 C 1201.05 -4.46693 0.341969 0
M  V30 12945 C 1202.79 -3.99831 -1.42603 0
M  V30 12946 C 1200.7 -5.9136 -0.0685608 0
M  V30 12947 H 1199.63 -0.735564 -0.165717 0
M  V30 12948 H 1202.28 -1.81085 0.296708 0
M  V30 12949 H 1200.66 -3.6181 -1.60964 0
M  V30 12950 H 1201.84 -4.46994 1.11952 0
M  V30 12951 H 1200.15 -4.07476 0.857463 0
M  V30 12952 H 1202.75 -5.05398 -1.74577 0
M  V30 12953 H 1203.09 -3.4462 -2.33544 0
M  V30 12954 H 1203.63 -3.91543 -0.702758 0
M  V30 12955 H 1200.36 -6.50515 0.80688 0
M  V30 12956 H 1199.88 -5.94295 -0.810798 0
M  V30 12957 H 1201.56 -6.45053 -0.501525 0
M  V30 12958 N 1201.7 0.070167 -1.57444 0
M  V30 12959 C 1202.94 0.767495 -1.8696 0
M  V30 12960 C 1203.26 1.78032 -0.795595 0
M  V30 12961 O 1202.53 1.95112 0.175566 0
M  V30 12962 H 1201.11 0.286443 -0.689898 0
M  V30 12963 H 1203.78 0.0458692 -1.94846 0
M  V30 12964 H 1202.87 1.28269 -2.84523 0
M  V30 12965 N 1203.17 1.53854 0.341593 0
M  V30 12966 C 1204.08 1.84975 1.44297 0
M  V30 12967 C 1205.1 0.740057 1.57477 0
M  V30 12968 O 1206.28 1.03256 1.72917 0
M  V30 12969 C 1203.34 2.05464 2.79259 0
M  V30 12970 C 1202.4 3.29318 2.75405 0
M  V30 12971 C 1201.63 3.4882 4.03931 0
M  V30 12972 O 1201.86 2.7212 5.01305 0
M  V30 12973 O 1200.79 4.42253 4.08284 0
M  V30 12974 H 1204.62 2.78592 1.20913 0
M  V30 12975 H 1202.2 1.39532 0.533953 0
M  V30 12976 H 1204.08 2.20374 3.59184 0
M  V30 12977 H 1202.76 1.15035 3.0257 0
M  V30 12978 H 1201.67 3.1981 1.94094 0
M  V30 12979 H 1203 4.19746 2.57049 0
M  V30 12980 N 1204.65 -0.602709 1.4562 0
M  V30 12981 C 1205.9 -1.36359 1.50113 0
M  V30 12982 C 1206.23 -1.93663 0.144297 0
M  V30 12983 O 1205.51 -1.75337 -0.841851 0
M  V30 12984 C 1205.79 -2.50788 2.58413 0
M  V30 12985 C 1205.64 -1.98649 4.03557 0
M  V30 12986 C 1206.96 -3.52905 2.62957 0
M  V30 12987 H 1204.08 -0.494455 0.54652 0
M  V30 12988 H 1206.72 -0.678957 1.77455 0
M  V30 12989 H 1204.87 -3.09191 2.3523 0
M  V30 12990 H 1206.54 -1.44857 4.37966 0
M  V30 12991 H 1204.79 -1.29615 4.13984 0
M  V30 12992 H 1205.46 -2.81159 4.7503 0
M  V30 12993 H 1207.93 -3.0435 2.83743 0
M  V30 12994 H 1206.81 -4.30454 3.40589 0
M  V30 12995 H 1207.07 -4.0884 1.68233 0
M  V30 12996 N 1206.13 -1.32992 -0.845635 0
M  V30 12997 C 1207.38 -1.23415 -1.59536 0
M  V30 12998 C 1207.69 0.200278 -1.94572 0
M  V30 12999 O 1208.9 0.417993 -2.68263 0
M  V30 13000 C 1207.35 -2.16207 -2.8772 0
M  V30 13001 C 1206.96 -3.64782 -2.60073 0
M  V30 13002 C 1208.71 -2.15488 -3.65739 0
M  V30 13003 C 1206.61 -4.49508 -3.84313 0
M  V30 13004 H 1205.54 -0.458366 -0.598679 0
M  V30 13005 H 1208.19 -1.58012 -0.932981 0
M  V30 13006 H 1206.58 -1.74535 -3.55462 0
M  V30 13007 H 1207.75 -4.14852 -2.00585 0
M  V30 13008 H 1206.06 -3.67723 -1.95369 0
M  V30 13009 H 1208.66 -2.76021 -4.57948 0
M  V30 13010 H 1209 -1.14818 -4.00153 0
M  V30 13011 H 1209.54 -2.55487 -3.04912 0
M  V30 13012 H 1206.28 -5.51027 -3.55035 0
M  V30 13013 H 1205.8 -4.04185 -4.43165 0
M  V30 13014 H 1207.48 -4.62969 -4.51961 0
M  V30 13015 N 1207.61 1.06304 -1.1635 0
M  V30 13016 C 1209.02 1.31227 -0.90838 0
M  V30 13017 C 1209.22 1.96665 0.438779 0
M  V30 13018 O 1208.28 2.2332 1.17833 0
M  V30 13019 C 1209.59 2.19303 -2.05734 0
M  V30 13020 C 1211.14 2.3272 -2.09309 0
M  V30 13021 C 1211.62 3.24151 -3.23559 0
M  V30 13022 N 1213.11 3.31734 -3.23275 0
M  V30 13023 C 1213.84 4.02572 -4.08318 0
M  V30 13024 N 1213.34 4.75933 -5.03448 0
M  V30 13025 N 1215.13 3.98621 -3.96305 0
M  V30 13026 H 1207.28 0.622228 -2.03081 0
M  V30 13027 H 1209.54 0.336892 -0.886119 0
M  V30 13028 H 1209.25 1.78497 -3.03037 0
M  V30 13029 H 1209.12 3.19888 -1.99879 0
M  V30 13030 H 1211.51 2.72774 -1.12599 0
M  V30 13031 H 1211.59 1.31804 -2.19229 0
M  V30 13032 H 1211.24 2.84813 -4.20528 0
M  V30 13033 H 1211.17 4.25046 -3.10875 0
M  V30 13034 H 1213.66 2.79453 -2.5439 0
M  V30 13035 H 1213.97 5.27512 -5.64758 0
M  V30 13036 H 1212.32 4.74913 -5.07427 0
M  V30 13037 H 1215.51 3.40427 -3.21289 0
M  V30 13038 H 1215.68 4.5356 -4.62804 0
M  V30 13039 N 1209.09 0.96196 1.24836 0
M  V30 13040 C 1210.03 0.48686 2.25607 0
M  V30 13041 C 1211 -0.464546 1.59472 0
M  V30 13042 O 1212.19 -0.376179 1.87055 0
M  V30 13043 C 1209.33 -0.222294 3.44383 0
M  V30 13044 C 1208.44 0.767206 4.25133 0
M  V30 13045 C 1207.58 0.0347458 5.31189 0
M  V30 13046 C 1206.61 1.01469 6.03631 0
M  V30 13047 N 1205.75 0.312619 7.01404 0
M  V30 13048 H 1210.59 1.35104 2.65614 0
M  V30 13049 H 1208.13 0.677373 1.30576 0
M  V30 13050 H 1210.09 -0.650087 4.12104 0
M  V30 13051 H 1208.72 -1.05047 3.0523 0
M  V30 13052 H 1207.77 1.31346 3.57005 0
M  V30 13053 H 1209.08 1.5147 4.75245 0
M  V30 13054 H 1208.23 -0.451325 6.05019 0
M  V30 13055 H 1206.97 -0.745485 4.81969 0
M  V30 13056 H 1205.98 1.51169 5.28609 0
M  V30 13057 H 1207.2 1.79527 6.5494 0
M  V30 13058 H 1205.15 -0.44874 6.54463 0
M  V30 13059 H 1205.07 0.999079 7.49369 0
M  V30 13060 H 1206.33 -0.151673 7.79352 0
M  V30 13061 N 1210.56 -1.39601 0.731392 0
M  V30 13062 C 1211.81 -2.0019 0.277208 0
M  V30 13063 C 1212.13 -1.5832 -1.13841 0
M  V30 13064 O 1211.4 -0.829793 -1.77458 0
M  V30 13065 H 1209.98 -0.740344 0.0995006 0
M  V30 13066 H 1212.64 -1.70704 0.940547 0
M  V30 13067 H 1211.74 -3.10427 0.322749 0
M  V30 13068 N 1212.04 -0.478751 -1.50152 0
M  V30 13069 C 1213.27 0.0732929 -2.0727 0
M  V30 13070 C 1213.69 1.32066 -1.33941 0
M  V30 13071 O 1213.05 1.7707 -0.389367 0
M  V30 13072 C 1213.1 0.332528 -3.59064 0
M  V30 13073 O 1212.2 1.41158 -3.8749 0
M  V30 13074 H 1211.54 -0.0163684 -0.663798 0
M  V30 13075 H 1214.07 -0.671993 -1.9325 0
M  V30 13076 H 1214.08 0.570735 -4.03988 0
M  V30 13077 H 1212.76 -0.578934 -4.11851 0
M  V30 13078 H 1211.34 1.16008 -3.54396 0
M  V30 13079 N 1213.52 1.56172 -0.211661 0
M  V30 13080 C 1214.47 2.19849 0.702515 0
M  V30 13081 C 1215.44 1.15091 1.19763 0
M  V30 13082 O 1216.62 1.43408 1.25852 0
M  V30 13083 C 1213.76 2.87468 1.90935 0
M  V30 13084 C 1212.88 4.06794 1.45406 0
M  V30 13085 C 1212.01 4.62224 2.61769 0
M  V30 13086 C 1211.05 5.73872 2.12926 0
M  V30 13087 N 1210.19 6.23635 3.22526 0
M  V30 13088 H 1215.03 2.97608 0.152777 0
M  V30 13089 H 1212.56 1.46962 0.0636596 0
M  V30 13090 H 1214.52 3.24851 2.61777 0
M  V30 13091 H 1213.15 2.12244 2.43213 0
M  V30 13092 H 1212.2 3.74962 0.640907 0
M  V30 13093 H 1213.52 4.87497 1.05584 0
M  V30 13094 H 1212.67 5.01999 3.40709 0
M  V30 13095 H 1211.41 3.80662 3.04873 0
M  V30 13096 H 1210.41 5.33609 1.32445 0
M  V30 13097 H 1211.64 6.57262 1.70833 0
M  V30 13098 H 1209.58 5.44991 3.65131 0
M  V30 13099 H 1209.5 6.99435 2.86926 0
M  V30 13100 H 1210.77 6.68066 4.01631 0
M  V30 13101 N 1215 -0.0618163 1.57479 0
M  V30 13102 C 1215.95 -1.09105 2.05424 0
M  V30 13103 C 1216.94 -1.3947 0.961479 0
M  V30 13104 O 1218.15 -1.3876 1.14655 0
M  V30 13105 H 1214.52 -0.36923 0.655113 0
M  V30 13106 H 1216.49 -0.66061 2.90996 0
M  V30 13107 C 1215.24 -2.39345 2.52209 0
M  V30 13108 H 1214.56 -2.16832 3.35893 0
M  V30 13109 H 1216 -3.09784 2.89499 0
M  V30 13110 C 1214.46 -3.06011 1.40922 0
M  V30 13111 O 1214.99 -3.94504 0.756921 0
M  V30 13112 N 1213.2 -2.66797 1.15186 0
M  V30 13113 H 1212.75 -1.94923 1.68412 0
M  V30 13114 H 1212.7 -3.11724 0.409324 0
M  V30 13115 N 1216.48 -1.54033 -0.333429 0
M  V30 13116 C 1217.75 -1.62404 -1.09015 0
M  V30 13117 C 1218.13 -0.451653 -2.06212 0
M  V30 13118 O 1217.48 0.555086 -2.21655 0
M  V30 13119 C 1217.69 -2.98949 -1.80085 0
M  V30 13120 C 1219.04 -3.54655 -2.33464 0
M  V30 13121 O 1220.06 -3.0119 -1.90166 0
M  V30 13122 O 1218.92 -4.48195 -3.12703 0
M  V30 13123 H 1216.02 -0.65727 -0.501921 0
M  V30 13124 H 1218.56 -1.66378 -0.33411 0
M  V30 13125 H 1217.33 -3.75716 -1.09332 0
M  V30 13126 H 1216.96 -2.98609 -2.62523 0
M  V30 13127 N 1217.95 0.594978 -1.45938 0
M  V30 13128 C 1219.2 1.35361 -1.50611 0
M  V30 13129 C 1219.53 1.93898 -0.152866 0
M  V30 13130 O 1218.78 1.76275 0.850037 0
M  V30 13131 C 1219.08 2.51129 -2.54301 0
M  V30 13132 C 1218.75 2.1066 -3.98664 0
M  V30 13133 C 1217.41 1.99338 -4.3797 0
M  V30 13134 C 1219.76 1.79267 -4.894 0
M  V30 13135 C 1217.09 1.54863 -5.65893 0
M  V30 13136 C 1219.44 1.36274 -6.17748 0
M  V30 13137 C 1218.11 1.2352 -6.55972 0
M  V30 13138 H 1217.38 0.49532 -0.551125 0
M  V30 13139 H 1220.02 0.671236 -1.79351 0
M  V30 13140 H 1218.33 3.24759 -2.19177 0
M  V30 13141 H 1220.03 3.09353 -2.55151 0
M  V30 13142 H 1216.62 2.20403 -3.67587 0
M  V30 13143 H 1220.8 1.86906 -4.59761 0
M  V30 13144 H 1216.06 1.43621 -5.94292 0
M  V30 13145 H 1220.23 1.11032 -6.87492 0
M  V30 13146 H 1217.86 0.88832 -7.54992 0
M  V30 13147 N 1219.43 1.33438 0.838571 0
M  V30 13148 C 1220.68 1.24912 1.59384 0
M  V30 13149 C 1221.01 -0.185017 1.93618 0
M  V30 13150 O 1220.26 -1.14229 1.58904 0
M  V30 13151 C 1220.56 2.07002 2.9135 0
M  V30 13152 C 1220.23 3.5619 2.76477 0
M  V30 13153 C 1218.89 3.96862 2.72129 0
M  V30 13154 C 1221.24 4.5099 2.61261 0
M  V30 13155 C 1218.57 5.30551 2.50464 0
M  V30 13156 C 1220.92 5.84841 2.4113 0
M  V30 13157 C 1219.59 6.24696 2.35183 0
M  V30 13158 H 1218.86 0.457084 0.583228 0
M  V30 13159 H 1221.5 1.65027 0.971506 0
M  V30 13160 H 1219.81 1.59665 3.57791 0
M  V30 13161 H 1221.5 1.97762 3.48843 0
M  V30 13162 H 1218.09 3.23896 2.80695 0
M  V30 13163 H 1222.28 4.20476 2.63655 0
M  V30 13164 H 1217.53 5.60468 2.44307 0
M  V30 13165 H 1221.71 6.57901 2.2834 0
M  V30 13166 H 1219.34 7.28225 2.18156 0
M  V30 13167 N 1220.91 -1.05686 1.16912 0
M  V30 13168 C 1221.84 -2.15268 0.904532 0
M  V30 13169 C 1222.82 -1.69424 -0.151548 0
M  V30 13170 O 1224.01 -1.942 -0.00235371 0
M  V30 13171 C 1221.14 -3.44853 0.411581 0
M  V30 13172 C 1220.09 -4.04237 1.40628 0
M  V30 13173 C 1219.42 -5.29105 0.771479 0
M  V30 13174 C 1220.72 -4.42303 2.77787 0
M  V30 13175 H 1222.41 -2.37659 1.82094 0
M  V30 13176 H 1219.96 -1.14217 0.876947 0
M  V30 13177 H 1221.91 -4.20857 0.213929 0
M  V30 13178 H 1220.63 -3.22099 -0.540352 0
M  V30 13179 H 1219.29 -3.30297 1.59058 0
M  V30 13180 H 1218.94 -5.02652 -0.187133 0
M  V30 13181 H 1218.64 -5.69797 1.43545 0
M  V30 13182 H 1220.16 -6.07801 0.583988 0
M  V30 13183 H 1221.58 -5.09362 2.63103 0
M  V30 13184 H 1219.98 -4.93997 3.40716 0
M  V30 13185 H 1221.05 -3.52877 3.32575 0
M  V30 13186 N 1222.39 -0.968567 -1.24324 0
M  V30 13187 C 1223.34 -0.470481 -2.23093 0
M  V30 13188 C 1224.32 0.447989 -1.54538 0
M  V30 13189 O 1225.51 0.27877 -1.74791 0
M  V30 13190 C 1222.64 0.237222 -3.42479 0
M  V30 13191 C 1221.73 -0.700126 -4.18281 0
M  V30 13192 N 1222.12 -1.83775 -4.71233 0
M  V30 13193 C 1220.42 -0.51108 -4.43062 0
M  V30 13194 C 1221.12 -2.42411 -5.28783 0
M  V30 13195 N 1220.1 -1.70918 -5.16031 0
M  V30 13196 H 1223.9 -1.33848 -2.61652 0
M  V30 13197 H 1221.41 -0.827764 -1.39721 0
M  V30 13198 H 1223.41 0.61128 -4.12394 0
M  V30 13199 H 1222.07 1.10166 -3.0544 0
M  V30 13200 H 1223.08 -2.21926 -4.67942 0
M  V30 13201 H 1219.76 0.309316 -4.16353 0
M  V30 13202 H 1221.15 -3.38417 -5.80451 0
M  V30 13203 N 1223.87 1.39211 -0.738786 0
M  V30 13204 C 1225.1 2.04435 -0.298318 0
M  V30 13205 C 1225.5 1.55822 1.07314 0
M  V30 13206 O 1224.85 0.719922 1.69005 0
M  V30 13207 C 1224.91 3.58789 -0.225979 0
M  V30 13208 C 1224.57 4.30395 -1.53653 0
M  V30 13209 C 1225.57 4.56777 -2.48295 0
M  V30 13210 C 1223.26 4.68869 -1.80187 0
M  V30 13211 C 1225.25 5.20648 -3.67702 0
M  V30 13212 C 1222.94 5.32467 -2.99871 0
M  V30 13213 C 1223.93 5.58289 -3.93449 0
M  V30 13214 O 1223.62 6.20567 -5.1103 0
M  V30 13215 H 1223.35 0.663848 -0.127603 0
M  V30 13216 H 1225.91 1.79171 -1.00433 0
M  V30 13217 H 1224.14 3.82965 0.536164 0
M  V30 13218 H 1225.83 4.05487 0.182996 0
M  V30 13219 H 1226.59 4.27497 -2.29066 0
M  V30 13220 H 1222.47 4.48124 -1.08193 0
M  V30 13221 H 1226.02 5.4072 -4.40759 0
M  V30 13222 H 1221.91 5.61169 -3.18998 0
M  V30 13223 H 1222.68 6.39059 -5.11415 0
M  V30 13224 N 1225.34 0.486708 1.49896 0
M  V30 13225 C 1226.59 -0.0646197 2.01596 0
M  V30 13226 C 1226.91 -1.39363 1.37249 0
M  V30 13227 O 1228.11 -2.03082 1.80194 0
M  V30 13228 C 1226.57 -0.16565 3.59519 0
M  V30 13229 C 1226.18 1.15586 4.32832 0
M  V30 13230 C 1227.92 -0.668103 4.1921 0
M  V30 13231 C 1225.83 1.01778 5.82576 0
M  V30 13232 H 1224.76 -0.0279241 0.753483 0
M  V30 13233 H 1227.41 0.623969 1.72566 0
M  V30 13234 H 1225.79 -0.918372 3.85204 0
M  V30 13235 H 1226.96 1.92076 4.1886 0
M  V30 13236 H 1225.28 1.59064 3.84822 0
M  V30 13237 H 1227.88 -0.788698 5.28851 0
M  V30 13238 H 1228.22 -1.66339 3.81624 0
M  V30 13239 H 1228.75 0.0276746 3.9779 0
M  V30 13240 H 1225.49 1.9869 6.24662 0
M  V30 13241 H 1225.01 0.293527 5.99081 0
M  V30 13242 H 1226.69 0.690693 6.43303 0
M  V30 13243 N 1226.82 -1.56058 0.219941 0
M  V30 13244 C 1228.07 -1.9826 -0.412197 0
M  V30 13245 C 1228.4 -1.10754 -1.59887 0
M  V30 13246 O 1227.65 -0.15212 -1.95108 0
M  V30 13247 C 1227.95 -3.46113 -0.8911 0
M  V30 13248 C 1227.62 -4.50521 0.184877 0
M  V30 13249 C 1226.28 -4.78795 0.480462 0
M  V30 13250 C 1228.63 -5.13147 0.912652 0
M  V30 13251 C 1225.96 -5.66979 1.50837 0
M  V30 13252 C 1228.31 -6.02444 1.92988 0
M  V30 13253 C 1226.98 -6.29063 2.2324 0
M  V30 13254 H 1226.25 -0.725486 -0.150834 0
M  V30 13255 H 1228.89 -1.88771 0.322122 0
M  V30 13256 H 1227.2 -3.52797 -1.70415 0
M  V30 13257 H 1228.9 -3.76137 -1.39003 0
M  V30 13258 H 1225.49 -4.28564 -0.0556594 0
M  V30 13259 H 1229.67 -4.91374 0.697532 0
M  V30 13260 H 1224.93 -5.85868 1.74839 0
M  V30 13261 H 1229.1 -6.50022 2.49889 0
M  V30 13262 H 1226.73 -6.97191 3.03032 0
M  V30 13263 N 1228.3 0.053464 -1.57509 0
M  V30 13264 C 1229.23 1.09391 -2.00272 0
M  V30 13265 C 1230.21 1.36553 -0.882727 0
M  V30 13266 O 1231.4 1.4962 -1.14657 0
M  V30 13267 C 1228.52 2.43424 -2.35505 0
M  V30 13268 C 1227.57 2.32278 -3.577 0
M  V30 13269 S 1228.4 1.69939 -5.0782 0
M  V30 13270 C 1229.56 3.05512 -5.46272 0
M  V30 13271 H 1229.79 0.729569 -2.88209 0
M  V30 13272 H 1227.32 0.262633 -1.5215 0
M  V30 13273 H 1229.28 3.20515 -2.56477 0
M  V30 13274 H 1227.94 2.77013 -1.48064 0
M  V30 13275 H 1227.14 3.31165 -3.79928 0
M  V30 13276 H 1226.74 1.63327 -3.36453 0
M  V30 13277 H 1229.03 4.0184 -5.45464 0
M  V30 13278 H 1229.97 2.88043 -6.46867 0
M  V30 13279 H 1230.38 3.06962 -4.73745 0
M  V30 13280 N 1229.78 1.54207 0.325255 0
M  V30 13281 C 1230.69 1.86495 1.42326 0
M  V30 13282 C 1231.71 0.756718 1.56684 0
M  V30 13283 O 1232.88 1.05084 1.71812 0
M  V30 13284 C 1229.95 2.08414 2.77064 0
M  V30 13285 C 1229.01 3.32221 2.71897 0
M  V30 13286 C 1228.24 3.53085 4.00209 0
M  V30 13287 O 1228.46 2.77421 4.98391 0
M  V30 13288 O 1227.4 4.46559 4.0357 0
M  V30 13289 H 1231.22 2.79859 1.17951 0
M  V30 13290 H 1228.81 1.40091 0.519124 0
M  V30 13291 H 1230.69 2.24171 3.56827 0
M  V30 13292 H 1229.37 1.18238 3.01333 0
M  V30 13293 H 1228.27 3.21851 1.90691 0
M  V30 13294 H 1229.61 4.22449 2.52582 0
M  V30 13295 N 1231.26 -0.58723 1.46251 0
M  V30 13296 C 1232.21 -1.71771 1.56836 0
M  V30 13297 C 1233.2 -1.63664 0.437096 0
M  V30 13298 O 1234.41 -1.69212 0.613797 0
M  V30 13299 H 1230.78 -0.567841 0.493012 0
M  V30 13300 H 1232.75 -1.59974 2.51895 0
M  V30 13301 C 1231.5 -3.10159 1.57152 0
M  V30 13302 H 1230.82 -3.17066 2.43535 0
M  V30 13303 H 1232.26 -3.89032 1.68613 0
M  V30 13304 C 1230.72 -3.35567 0.299374 0
M  V30 13305 O 1231.25 -3.97006 -0.612291 0
M  V30 13306 N 1229.46 -2.89987 0.188695 0
M  V30 13307 H 1229.01 -2.4017 0.93147 0
M  V30 13308 H 1228.96 -3.0736 -0.661612 0
M  V30 13309 N 1232.74 -1.33881 -0.831482 0
M  V30 13310 C 1233.7 -1.24654 -1.92339 0
M  V30 13311 C 1234.7 -0.163788 -1.59964 0
M  V30 13312 O 1235.89 -0.415829 -1.69164 0
M  V30 13313 C 1233.02 -0.922537 -3.2818 0
M  V30 13314 H 1234.21 -2.21717 -2.01944 0
M  V30 13315 H 1231.77 -1.18046 -1.02445 0
M  V30 13316 H 1232.5 0.0452872 -3.24268 0
M  V30 13317 H 1232.29 -1.70562 -3.53059 0
M  V30 13318 H 1233.78 -0.88292 -4.0816 0
M  V30 13319 N 1234.21 1.05064 -1.1747 0
M  V30 13320 C 1235.46 1.78089 -0.963883 0
M  V30 13321 C 1235.79 1.87766 0.507365 0
M  V30 13322 O 1235.04 1.37477 1.39279 0
M  V30 13323 C 1235.34 3.21961 -1.55164 0
M  V30 13324 C 1235.01 3.32339 -3.04732 0
M  V30 13325 C 1233.67 3.34878 -3.45557 0
M  V30 13326 C 1236.02 3.3325 -4.00741 0
M  V30 13327 C 1233.35 3.35959 -4.80987 0
M  V30 13328 C 1235.7 3.3587 -5.36073 0
M  V30 13329 C 1234.37 3.36697 -5.7636 0
M  V30 13330 H 1233.64 0.651672 -0.35271 0
M  V30 13331 H 1236.28 1.23471 -1.4638 0
M  V30 13332 H 1234.59 3.79514 -0.973471 0
M  V30 13333 H 1236.29 3.77087 -1.36406 0
M  V30 13334 H 1232.88 3.31076 -2.72188 0
M  V30 13335 H 1237.06 3.30488 -3.70258 0
M  V30 13336 H 1232.32 3.34911 -5.11512 0
M  V30 13337 H 1236.49 3.35524 -6.10243 0
M  V30 13338 H 1234.12 3.37288 -6.81279 0
M  V30 13339 N 1235.69 0.975146 1.23809 0
M  V30 13340 C 1236.6 0.51917 2.28783 0
M  V30 13341 C 1237.62 -0.423487 1.68768 0
M  V30 13342 O 1238.79 -0.294699 1.99232 0
M  V30 13343 C 1235.86 -0.176229 3.46252 0
M  V30 13344 C 1234.92 0.807177 4.21643 0
M  V30 13345 C 1234.15 0.144869 5.33503 0
M  V30 13346 O 1234.38 -1.06522 5.60365 0
M  V30 13347 O 1233.31 0.84079 5.95999 0
M  V30 13348 H 1237.14 1.39204 2.69919 0
M  V30 13349 H 1234.72 0.74253 1.29641 0
M  V30 13350 H 1236.6 -0.566547 4.17574 0
M  V30 13351 H 1235.28 -1.02394 3.07078 0
M  V30 13352 H 1234.18 1.2481 3.52666 0
M  V30 13353 H 1235.52 1.62354 4.64653 0
M  V30 13354 N 1237.17 -1.38817 0.746158 0
M  V30 13355 C 1238.1 -2.33144 0.128836 0
M  V30 13356 C 1239.08 -1.54487 -0.711873 0
M  V30 13357 O 1240.27 -1.82836 -0.654577 0
M  V30 13358 C 1237.4 -3.38639 -0.770772 0
M  V30 13359 C 1236.35 -4.27987 -0.0333669 0
M  V30 13360 C 1235.68 -5.24274 -1.05073 0
M  V30 13361 C 1236.98 -5.09915 1.13066 0
M  V30 13362 H 1238.67 -2.85019 0.916778 0
M  V30 13363 H 1236.22 -1.37039 0.442306 0
M  V30 13364 H 1238.17 -4.03587 -1.21225 0
M  V30 13365 H 1236.89 -2.8523 -1.59095 0
M  V30 13366 H 1235.55 -3.64534 0.388612 0
M  V30 13367 H 1235.2 -4.67156 -1.86478 0
M  V30 13368 H 1234.9 -5.84906 -0.562037 0
M  V30 13369 H 1236.42 -5.92099 -1.49169 0
M  V30 13370 H 1237.84 -5.68145 0.767084 0
M  V30 13371 H 1236.23 -5.79744 1.54972 0
M  V30 13372 H 1237.3 -4.4409 1.94709 0
M  V30 13373 N 1238.65 -0.49465 -1.49636 0
M  V30 13374 C 1240.06 -0.0452894 -1.86645 0
M  V30 13375 C 1240.41 1.36686 -1.40753 0
M  V30 13376 O 1239.53 2.01751 -0.78265 0
M  V30 13377 C 1240.13 -0.0754115 -3.38716 0
M  V30 13378 C 1238.69 0.318579 -3.75049 0
M  V30 13379 C 1237.84 -0.450712 -2.73613 0
M  V30 13380 H 1240.79 -0.707758 -1.42044 0
M  V30 13381 H 1240.81 0.721372 -3.73599 0
M  V30 13382 H 1240.32 -1.10331 -3.72087 0
M  V30 13383 H 1238.42 1.34995 -3.47285 0
M  V30 13384 H 1238.53 0.00354416 -4.791 0
M  V30 13385 H 1236.9 0.0986455 -2.54509 0
M  V30 13386 H 1237.68 -1.47857 -3.09828 0
M  V30 13387 N 1240.13 1.55939 -0.228214 0
M  V30 13388 C 1241.35 2.0287 0.406348 0
M  V30 13389 C 1241.77 1.1079 1.52876 0
M  V30 13390 O 1241.13 0.118747 1.82113 0
M  V30 13391 C 1241.18 3.49286 0.931734 0
M  V30 13392 O 1240.9 4.37857 -0.145933 0
M  V30 13393 C 1242.4 4.11893 1.63887 0
M  V30 13394 H 1239.62 0.663696 0.0987358 0
M  V30 13395 H 1242.16 2.01541 -0.346616 0
M  V30 13396 H 1240.32 3.5121 1.63494 0
M  V30 13397 H 1240.73 5.23904 0.250005 0
M  V30 13398 H 1242.21 5.16091 1.95841 0
M  V30 13399 H 1242.68 3.57281 2.55435 0
M  V30 13400 H 1243.29 4.13839 0.980697 0
M  V30 13401 N 1241.6 -0.0451101 1.57535 0
M  V30 13402 C 1242.85 -0.737654 1.88157 0
M  V30 13403 C 1243.17 -1.76743 0.823817 0
M  V30 13404 O 1242.44 -1.95366 -0.144503 0
M  V30 13405 H 1241.02 -0.275431 0.694368 0
M  V30 13406 H 1243.69 -0.0148651 1.94894 0
M  V30 13407 H 1242.78 -1.23726 2.86528 0
M  V30 13408 N 1243.08 -1.54377 -0.317073 0
M  V30 13409 C 1244.05 -1.83488 -1.37349 0
M  V30 13410 C 1245.05 -0.706981 -1.44424 0
M  V30 13411 O 1246.24 -0.975289 -1.44339 0
M  V30 13412 C 1243.37 -2.00074 -2.76013 0
M  V30 13413 H 1244.56 -2.77883 -1.12789 0
M  V30 13414 H 1242.11 -1.46194 -0.552902 0
M  V30 13415 H 1242.85 -1.07913 -3.05819 0
M  V30 13416 H 1242.63 -2.82155 -2.7227 0
M  V30 13417 H 1244.12 -2.24022 -3.52426 0
M  V30 13418 N 1244.56 0.579466 -1.4656 0
M  V30 13419 C 1245.81 1.33492 -1.51738 0
M  V30 13420 C 1246.13 1.94241 -0.171926 0
M  V30 13421 O 1245.4 1.78737 0.801875 0
M  V30 13422 H 1243.98 0.49565 -0.558874 0
M  V30 13423 H 1246.64 0.678394 -1.82712 0
M  V30 13424 H 1245.74 2.13995 -2.27183 0
M  V30 13425 N 1246.04 1.3432 0.824371 0
M  V30 13426 C 1246.97 1.2842 1.95014 0
M  V30 13427 C 1247.95 0.161925 1.69328 0
M  V30 13428 O 1249.13 0.354052 1.90945 0
M  V30 13429 C 1246.26 1.03741 3.31444 0
M  V30 13430 C 1245.22 2.12419 3.71567 0
M  V30 13431 C 1244.54 1.72931 5.05963 0
M  V30 13432 C 1245.84 3.54235 3.83817 0
M  V30 13433 H 1247.54 2.22614 2.00209 0
M  V30 13434 H 1245.08 1.07165 0.961856 0
M  V30 13435 H 1247.04 0.982586 4.09784 0
M  V30 13436 H 1245.76 0.0598892 3.26545 0
M  V30 13437 H 1244.42 2.16968 2.955 0
M  V30 13438 H 1244.07 0.738433 4.9755 0
M  V30 13439 H 1243.77 2.45668 5.3378 0
M  V30 13440 H 1245.29 1.68941 5.86763 0
M  V30 13441 H 1246.71 3.52106 4.52432 0
M  V30 13442 H 1245.1 4.25581 4.23085 0
M  V30 13443 H 1246.17 3.91682 2.85856 0
M  V30 13444 N 1247.52 -1.0444 1.18026 0
M  V30 13445 C 1248.45 -2.12388 0.86162 0
M  V30 13446 C 1249.46 -1.62204 -0.139196 0
M  V30 13447 O 1250.65 -1.78282 0.0881334 0
M  V30 13448 C 1247.75 -3.37859 0.265407 0
M  V30 13449 C 1246.92 -4.17292 1.31096 0
M  V30 13450 C 1245.98 -5.21096 0.731121 0
M  V30 13451 O 1245.01 -5.5159 1.40488 0
M  V30 13452 N 1246.21 -5.78568 -0.473194 0
M  V30 13453 H 1248.98 -2.40317 1.79074 0
M  V30 13454 H 1246.54 -1.20601 1.08014 0
M  V30 13455 H 1248.53 -4.04472 -0.135976 0
M  V30 13456 H 1247.1 -3.07403 -0.567658 0
M  V30 13457 H 1246.32 -3.46057 1.8878 0
M  V30 13458 H 1247.61 -4.67158 2.01596 0
M  V30 13459 H 1247 -5.56088 -1.03839 0
M  V30 13460 H 1245.56 -6.46665 -0.816545 0
M  V30 13461 N 1248.99 -0.981699 -1.2329 0
M  V30 13462 C 1249.92 -0.542441 -2.27112 0
M  V30 13463 C 1250.91 0.425034 -1.64704 0
M  V30 13464 O 1252.09 0.318114 -1.91577 0
M  V30 13465 C 1249.22 0.154668 -3.46955 0
M  V30 13466 C 1248.17 -0.73022 -4.21725 0
M  V30 13467 C 1247.5 0.0991766 -5.34608 0
M  V30 13468 C 1248.8 -2.02166 -4.81587 0
M  V30 13469 H 1250.49 -1.41024 -2.64107 0
M  V30 13470 H 1248.04 -0.679544 -1.26957 0
M  V30 13471 H 1249.99 0.473281 -4.18734 0
M  V30 13472 H 1248.72 1.05693 -3.09025 0
M  V30 13473 H 1247.38 -1.03231 -3.51765 0
M  V30 13474 H 1247.02 1.00201 -4.92919 0
M  V30 13475 H 1246.72 -0.489788 -5.85555 0
M  V30 13476 H 1248.25 0.412141 -6.09207 0
M  V30 13477 H 1249.66 -1.76773 -5.45366 0
M  V30 13478 H 1248.06 -2.55851 -5.42826 0
M  V30 13479 H 1249.13 -2.70766 -4.02261 0
M  V30 13480 N 1250.47 1.3842 -0.753509 0
M  V30 13481 C 1251.4 2.29039 -0.0859463 0
M  V30 13482 C 1252.42 1.47742 0.68383 0
M  V30 13483 O 1253.61 1.70607 0.524933 0
M  V30 13484 C 1250.71 3.26668 0.902296 0
M  V30 13485 C 1249.88 4.36986 0.190178 0
M  V30 13486 C 1248.94 5.14805 1.08916 0
M  V30 13487 O 1247.96 5.66441 0.559715 0
M  V30 13488 N 1249.17 5.27777 2.41726 0
M  V30 13489 H 1251.93 2.8697 -0.864196 0
M  V30 13490 H 1249.49 1.502 -0.604288 0
M  V30 13491 H 1251.48 3.75606 1.50672 0
M  V30 13492 H 1250.05 2.69636 1.58163 0
M  V30 13493 H 1249.27 3.89684 -0.594959 0
M  V30 13494 H 1250.56 5.07899 -0.302594 0
M  V30 13495 H 1249.96 4.87376 2.87196 0
M  V30 13496 H 1248.52 5.8009 2.97219 0
M  V30 13497 N 1251.95 0.502579 1.49372 0
M  V30 13498 C 1253.2 -0.0432341 2.01654 0
M  V30 13499 C 1253.51 -1.379 1.38719 0
M  V30 13500 O 1254.72 -2.01159 1.82338 0
M  V30 13501 C 1253.17 -0.127509 3.59674 0
M  V30 13502 C 1252.78 1.20171 4.31582 0
M  V30 13503 C 1254.53 -0.623603 4.19895 0
M  V30 13504 C 1252.43 1.07951 5.81464 0
M  V30 13505 H 1251.36 -0.0199308 0.753737 0
M  V30 13506 H 1254.01 0.642237 1.71894 0
M  V30 13507 H 1252.4 -0.877465 3.86156 0
M  V30 13508 H 1253.57 1.96508 4.16799 0
M  V30 13509 H 1251.89 1.63136 3.83113 0
M  V30 13510 H 1254.48 -0.732562 5.29658 0
M  V30 13511 H 1254.83 -1.62282 3.83367 0
M  V30 13512 H 1255.36 0.0698641 3.97739 0
M  V30 13513 H 1252.1 2.05304 6.22519 0
M  V30 13514 H 1251.62 0.357051 5.98736 0
M  V30 13515 H 1253.3 0.758885 6.42534 0
M  V30 13516 N 1253.43 -1.55816 0.23648 0
M  V30 13517 C 1254.65 -2.03534 -0.398575 0
M  V30 13518 C 1255.08 -1.11488 -1.51499 0
M  V30 13519 O 1254.44 -0.105848 -1.80991 0
M  V30 13520 C 1254.48 -3.49356 -0.893467 0
M  V30 13521 O 1253.59 -3.60446 -2.00381 0
M  V30 13522 H 1252.93 -0.658102 -0.0883021 0
M  V30 13523 H 1255.46 -2.01417 0.359488 0
M  V30 13524 H 1255.47 -3.89972 -1.19941 0
M  V30 13525 H 1254.14 -4.1583 -0.0764388 0
M  V30 13526 H 1252.72 -3.31723 -1.70336 0
M  V30 13527 N 1254.91 0.036755 -1.57557 0
M  V30 13528 C 1256.13 0.744813 -1.93565 0
M  V30 13529 C 1256.56 1.68508 -0.835863 0
M  V30 13530 O 1255.91 1.80091 0.208986 0
M  V30 13531 C 1255.96 1.48461 -3.28621 0
M  V30 13532 O 1255.07 2.59739 -3.20327 0
M  V30 13533 H 1254.41 0.200866 -0.632889 0
M  V30 13534 H 1256.94 -0.00547543 -2.04599 0
M  V30 13535 H 1256.95 1.85622 -3.63329 0
M  V30 13536 H 1255.62 0.794953 -4.08232 0
M  V30 13537 H 1254.2 2.25176 -2.97237 0
M  V30 13538 N 1256.39 1.54543 0.308881 0
M  V30 13539 C 1257.61 1.77753 1.06857 0
M  V30 13540 C 1258.04 0.531616 1.80431 0
M  V30 13541 O 1257.39 -0.517513 1.73757 0
M  V30 13542 C 1257.44 2.97968 2.03094 0
M  V30 13543 O 1256.55 2.70541 3.11257 0
M  V30 13544 H 1255.89 0.588576 0.307368 0
M  V30 13545 H 1258.42 2.01607 0.348703 0
M  V30 13546 H 1258.43 3.25722 2.45702 0
M  V30 13547 H 1257.1 3.88314 1.48948 0
M  V30 13548 H 1255.68 2.53781 2.7322 0
M  V30 13549 N 1257.86 -0.571685 1.46866 0
M  V30 13550 C 1259.11 -1.32685 1.52444 0
M  V30 13551 C 1259.43 -1.94147 0.182225 0
M  V30 13552 O 1258.7 -1.79159 -0.792385 0
M  V30 13553 H 1257.28 -0.492679 0.561495 0
M  V30 13554 H 1259.94 -0.668694 1.8307 0
M  V30 13555 H 1259.04 -2.12788 2.28315 0
M  V30 13556 N 1259.34 -1.34755 -0.817236 0
M  V30 13557 C 1260.59 -1.2762 -1.5761 0
M  V30 13558 C 1260.92 0.152017 -1.93604 0
M  V30 13559 O 1260.2 1.09881 -1.60488 0
M  V30 13560 C 1260.48 -2.17251 -2.87183 0
M  V30 13561 C 1260.33 -3.68638 -2.57733 0
M  V30 13562 C 1261.65 -2.06206 -3.88802 0
M  V30 13563 H 1258.77 -0.464933 -0.571845 0
M  V30 13564 H 1261.41 -1.6506 -0.941028 0
M  V30 13565 H 1259.56 -1.85452 -3.41379 0
M  V30 13566 H 1261.23 -4.10829 -2.09802 0
M  V30 13567 H 1259.48 -3.89445 -1.91089 0
M  V30 13568 H 1260.15 -4.26726 -3.50156 0
M  V30 13569 H 1262.62 -2.34137 -3.43975 0
M  V30 13570 H 1261.5 -2.71136 -4.77259 0
M  V30 13571 H 1261.76 -1.04075 -4.29675 0
M  V30 13572 N 1260.82 1.03812 -1.18578 0
M  V30 13573 C 1262.07 1.76455 -0.977071 0
M  V30 13574 C 1262.38 1.8926 0.493964 0
M  V30 13575 O 1263.59 2.58781 0.821256 0
M  V30 13576 C 1262.04 3.17264 -1.69917 0
M  V30 13577 C 1261.65 3.12543 -3.20969 0
M  V30 13578 C 1263.4 3.94266 -1.57337 0
M  V30 13579 C 1261.3 4.48226 -3.85807 0
M  V30 13580 H 1260.23 0.661445 -0.361949 0
M  V30 13581 H 1262.88 1.16252 -1.41978 0
M  V30 13582 H 1261.27 3.77878 -1.18424 0
M  V30 13583 H 1262.44 2.61364 -3.79507 0
M  V30 13584 H 1260.75 2.49039 -3.33719 0
M  V30 13585 H 1263.35 4.9461 -2.03137 0
M  V30 13586 H 1263.69 4.12963 -0.526033 0
M  V30 13587 H 1264.23 3.40232 -2.06124 0
M  V30 13588 H 1260.97 4.34734 -4.90599 0
M  V30 13589 H 1260.49 4.99497 -3.32058 0
M  V30 13590 H 1262.17 5.17135 -3.88819 0
M  V30 13591 N 1262.3 0.988223 1.22768 0
M  V30 13592 C 1263.26 0.539813 2.22752 0
M  V30 13593 C 1264.26 -0.374796 1.56371 0
M  V30 13594 O 1265.45 -0.167402 1.73394 0
M  V30 13595 C 1262.58 -0.215461 3.40218 0
M  V30 13596 H 1263.78 1.42397 2.63938 0
M  V30 13597 H 1261.33 0.774933 1.35737 0
M  V30 13598 H 1262.06 -1.11581 3.045 0
M  V30 13599 H 1261.85 0.441173 3.8961 0
M  V30 13600 H 1263.34 -0.517517 4.14381 0
M  V30 13601 N 1263.78 -1.38018 0.760839 0
M  V30 13602 C 1265.19 -1.82645 0.387022 0
M  V30 13603 C 1265.54 -1.63445 -1.08536 0
M  V30 13604 O 1264.66 -1.13958 -1.83963 0
M  V30 13605 C 1265.26 -3.3158 0.69569 0
M  V30 13606 C 1263.82 -3.74527 0.375063 0
M  V30 13607 C 1262.96 -2.60696 0.94515 0
M  V30 13608 H 1265.91 -1.26644 0.956396 0
M  V30 13609 H 1265.94 -3.80493 -0.0235511 0
M  V30 13610 H 1265.45 -3.45522 1.76737 0
M  V30 13611 H 1263.55 -3.6616 -0.689741 0
M  V30 13612 H 1263.66 -4.71029 0.875685 0
M  V30 13613 H 1262.03 -2.51997 0.370065 0
M  V30 13614 H 1262.81 -2.77434 2.02201 0
M  V30 13615 N 1265.25 -0.510493 -1.49103 0
M  V30 13616 C 1266.5 0.0305831 -2.02077 0
M  V30 13617 C 1266.82 1.36602 -1.39157 0
M  V30 13618 O 1266.09 1.88016 -0.550154 0
M  V30 13619 H 1264.67 0.0142916 -0.746863 0
M  V30 13620 H 1267.33 -0.669895 -1.83026 0
M  V30 13621 H 1266.43 0.153283 -3.11723 0
M  V30 13622 N 1266.73 1.55688 -0.24474 0
M  V30 13623 C 1267.69 2.20014 0.642382 0
M  V30 13624 C 1268.69 1.16877 1.10437 0
M  V30 13625 O 1269.88 1.41972 1.00943 0
M  V30 13626 C 1267.02 2.84198 1.88267 0
M  V30 13627 H 1268.21 2.9979 0.0811937 0
M  V30 13628 H 1265.76 1.56299 0.00480917 0
M  V30 13629 H 1266.5 2.08354 2.48514 0
M  V30 13630 H 1266.28 3.59747 1.55963 0
M  V30 13631 H 1267.77 3.33434 2.5142 0
M  V30 13632 N 1268.21 -0.0283989 1.57574 0
M  V30 13633 C 1269.16 -1.02881 2.06601 0
M  V30 13634 C 1270.13 -1.35879 0.955308 0
M  V30 13635 O 1271.31 -1.46205 1.22592 0
M  V30 13636 C 1268.45 -2.32447 2.55073 0
M  V30 13637 C 1267.56 -2.05602 3.79937 0
M  V30 13638 C 1266.7 -3.29043 4.17018 0
M  V30 13639 C 1265.74 -2.97755 5.34797 0
M  V30 13640 N 1264.88 -4.1365 5.67308 0
M  V30 13641 H 1269.72 -0.603772 2.91819 0
M  V30 13642 H 1267.25 -0.286503 1.44283 0
M  V30 13643 H 1269.21 -3.08152 2.81244 0
M  V30 13644 H 1267.84 -2.72672 1.72771 0
M  V30 13645 H 1266.89 -1.2039 3.60847 0
M  V30 13646 H 1268.2 -1.78522 4.65759 0
M  V30 13647 H 1267.36 -4.13115 4.4432 0
M  V30 13648 H 1266.1 -3.59237 3.29849 0
M  V30 13649 H 1265.1 -2.12085 5.07247 0
M  V30 13650 H 1266.33 -2.68839 6.23621 0
M  V30 13651 H 1264.27 -4.43794 4.83097 0
M  V30 13652 H 1264.19 -3.89996 6.47641 0
M  V30 13653 H 1265.46 -4.98594 5.99186 0
M  V30 13654 N 1269.69 -1.54705 -0.300681 0
M  V30 13655 C 1270.65 -1.84934 -1.35395 0
M  V30 13656 C 1271.65 -0.72226 -1.43666 0
M  V30 13657 O 1272.84 -0.990543 -1.43296 0
M  V30 13658 C 1269.97 -2.02991 -2.73875 0
M  V30 13659 H 1271.17 -2.79063 -1.09835 0
M  V30 13660 H 1268.72 -1.46772 -0.537365 0
M  V30 13661 H 1269.45 -1.11151 -3.04657 0
M  V30 13662 H 1269.24 -2.85027 -2.69262 0
M  V30 13663 H 1270.73 -2.27747 -3.5003 0
M  V30 13664 N 1271.17 0.563888 -1.47167 0
M  V30 13665 C 1272.41 1.31875 -1.53145 0
M  V30 13666 C 1272.74 1.94047 -0.192518 0
M  V30 13667 O 1272.01 1.79577 0.782872 0
M  V30 13668 H 1270.59 0.489694 -0.5641 0
M  V30 13669 H 1273.25 0.658976 -1.83422 0
M  V30 13670 H 1272.34 2.11574 -2.2944 0
M  V30 13671 N 1272.64 1.35187 0.810078 0
M  V30 13672 C 1273.89 1.28454 1.56931 0
M  V30 13673 C 1274.22 -0.141747 1.93682 0
M  V30 13674 O 1273.5 -1.09028 1.61069 0
M  V30 13675 C 1273.78 2.18771 2.86027 0
M  V30 13676 C 1273.63 3.69999 2.55774 0
M  V30 13677 C 1274.95 2.08265 3.87703 0
M  V30 13678 H 1272.07 0.467959 0.569371 0
M  V30 13679 H 1274.71 1.65556 0.932262 0
M  V30 13680 H 1272.86 1.8726 3.40391 0
M  V30 13681 H 1274.54 4.11936 2.07621 0
M  V30 13682 H 1272.78 3.90453 1.89021 0
M  V30 13683 H 1273.45 4.28577 3.47888 0
M  V30 13684 H 1275.93 2.35958 3.42729 0
M  V30 13685 H 1274.8 2.73663 4.75815 0
M  V30 13686 H 1275.06 1.06352 4.29117 0
M  V30 13687 N 1274.12 -1.03182 1.19127 0
M  V30 13688 C 1275.07 -2.11394 0.926339 0
M  V30 13689 C 1276.04 -1.65528 -0.137703 0
M  V30 13690 O 1277.22 -1.908 0.00381804 0
M  V30 13691 C 1274.36 -3.41913 0.467894 0
M  V30 13692 C 1273.48 -4.01343 1.59837 0
M  V30 13693 C 1272.61 -5.1986 1.09175 0
M  V30 13694 C 1271.65 -5.71339 2.19632 0
M  V30 13695 N 1270.79 -6.81133 1.703 0
M  V30 13696 H 1275.63 -2.33393 1.85288 0
M  V30 13697 H 1273.17 -1.14473 0.923811 0
M  V30 13698 H 1275.12 -4.16796 0.183513 0
M  V30 13699 H 1273.75 -3.20034 -0.421656 0
M  V30 13700 H 1272.81 -3.23702 1.99803 0
M  V30 13701 H 1274.12 -4.35568 2.43068 0
M  V30 13702 H 1273.27 -6.0189 0.762427 0
M  V30 13703 H 1272.01 -4.87161 0.22914 0
M  V30 13704 H 1271.02 -4.87923 2.53399 0
M  V30 13705 H 1272.24 -6.06078 3.06344 0
M  V30 13706 H 1270.19 -6.50293 0.863415 0
M  V30 13707 H 1270.1 -7.1447 2.47122 0
M  V30 13708 H 1271.37 -7.66766 1.40321 0
M  V30 13709 N 1275.6 -0.99472 -1.22242 0
M  V30 13710 C 1276.53 -0.566499 -2.26524 0
M  V30 13711 C 1277.51 0.407541 -1.65146 0
M  V30 13712 O 1278.7 0.297777 -1.91903 0
M  V30 13713 C 1275.83 0.11786 -3.471 0
M  V30 13714 C 1274.78 -0.774908 -4.20927 0
M  V30 13715 C 1274.11 0.0424687 -5.34683 0
M  V30 13716 C 1275.41 -2.07263 -4.79416 0
M  V30 13717 H 1277.1 -1.43818 -2.62596 0
M  V30 13718 H 1274.65 -0.692971 -1.2623 0
M  V30 13719 H 1276.6 0.428842 -4.19212 0
M  V30 13720 H 1275.32 1.0241 -3.10129 0
M  V30 13721 H 1273.98 -1.06956 -3.50651 0
M  V30 13722 H 1273.63 0.949677 -4.93954 0
M  V30 13723 H 1273.33 -0.551867 -5.85003 0
M  V30 13724 H 1274.85 0.347504 -6.0961 0
M  V30 13725 H 1276.27 -1.82548 -5.4346 0
M  V30 13726 H 1274.67 -2.61594 -5.40082 0
M  V30 13727 H 1275.74 -2.75017 -3.99366 0
M  V30 13728 N 1277.08 1.37613 -0.768148 0
M  V30 13729 C 1277.99 2.34103 -0.152649 0
M  V30 13730 C 1279 1.6 0.683811 0
M  V30 13731 O 1280.18 1.92112 0.604572 0
M  V30 13732 C 1277.25 3.39164 0.718954 0
M  V30 13733 C 1276.31 4.29092 -0.13355 0
M  V30 13734 C 1275.54 5.29135 0.696547 0
M  V30 13735 O 1275.76 5.36618 1.93383 0
M  V30 13736 O 1274.7 6.01804 0.107652 0
M  V30 13737 H 1278.52 2.88462 -0.949899 0
M  V30 13738 H 1276.11 1.39711 -0.529252 0
M  V30 13739 H 1277.99 4.03454 1.21665 0
M  V30 13740 H 1276.66 2.87137 1.49445 0
M  V30 13741 H 1275.57 3.67914 -0.677528 0
M  V30 13742 H 1276.9 4.84413 -0.872048 0
M  V30 13743 N 1278.56 0.518393 1.4883 0
M  V30 13744 C 1279.8 -0.0199348 2.0279 0
M  V30 13745 C 1280.14 -1.35026 1.39576 0
M  V30 13746 O 1279.41 -1.86927 0.537449 0
M  V30 13747 C 1279.69 -0.154184 3.5977 0
M  V30 13748 C 1279.55 1.2005 4.33484 0
M  V30 13749 C 1280.87 -0.886547 4.31078 0
M  V30 13750 H 1277.98 -0.00577061 0.736977 0
M  V30 13751 H 1280.63 0.673178 1.77675 0
M  V30 13752 H 1278.78 -0.74451 3.81299 0
M  V30 13753 H 1280.45 1.83104 4.23404 0
M  V30 13754 H 1278.69 1.78537 3.95357 0
M  V30 13755 H 1279.36 1.05968 5.41733 0
M  V30 13756 H 1281.84 -0.385711 4.14308 0
M  V30 13757 H 1280.71 -0.949355 5.40628 0
M  V30 13758 H 1280.98 -1.93424 3.97542 0
M  V30 13759 N 1280.03 -1.55556 0.252993 0
M  V30 13760 C 1281 -2.20351 -0.630705 0
M  V30 13761 C 1282 -1.17461 -1.09816 0
M  V30 13762 O 1283.19 -1.42505 -1.00189 0
M  V30 13763 C 1280.32 -2.85192 -1.86757 0
M  V30 13764 H 1281.51 -2.99829 -0.0652939 0
M  V30 13765 H 1279.07 -1.563 0.00347982 0
M  V30 13766 H 1279.8 -2.09669 -2.47406 0
M  V30 13767 H 1279.59 -3.60569 -1.54053 0
M  V30 13768 H 1281.08 -3.34762 -2.49648 0
M  V30 13769 N 1281.51 0.0200419 -1.57587 0
M  V30 13770 C 1282.46 1.0362 -2.08244 0
M  V30 13771 C 1283.45 1.36872 -0.998119 0
M  V30 13772 O 1284.66 1.35671 -1.18293 0
M  V30 13773 H 1281.04 0.351731 -0.664673 0
M  V30 13774 H 1283.01 0.583226 -2.92645 0
M  V30 13775 C 1281.76 2.32574 -2.58466 0
M  V30 13776 H 1281.08 2.0785 -3.41523 0
M  V30 13777 H 1282.52 3.02 -2.97611 0
M  V30 13778 C 1280.98 3.02167 -1.48986 0
M  V30 13779 O 1281.51 3.92359 -0.861251 0
M  V30 13780 N 1279.71 2.63649 -1.22219 0
M  V30 13781 H 1279.26 1.90389 -1.73521 0
M  V30 13782 H 1279.22 3.10529 -0.491828 0
M  V30 13783 N 1282.99 1.54862 0.292472 0
M  V30 13784 C 1283.92 1.81298 1.38586 0
M  V30 13785 C 1284.9 0.664704 1.48393 0
M  V30 13786 O 1286.09 0.905595 1.65322 0
M  V30 13787 C 1283.21 1.9573 2.76419 0
M  V30 13788 C 1282.26 3.18197 2.83994 0
M  V30 13789 S 1283.09 4.76054 2.45219 0
M  V30 13790 C 1284.25 4.93433 3.85064 0
M  V30 13791 H 1284.48 2.73755 1.15955 0
M  V30 13792 H 1282.01 1.46383 0.491053 0
M  V30 13793 H 1283.97 2.0473 3.55803 0
M  V30 13794 H 1282.63 1.04196 2.96314 0
M  V30 13795 H 1281.83 3.25123 3.85112 0
M  V30 13796 H 1281.43 3.07688 2.12613 0
M  V30 13797 H 1283.72 4.7798 4.80148 0
M  V30 13798 H 1284.66 5.95515 3.83103 0
M  V30 13799 H 1285.07 4.2153 3.75463 0
M  V30 13800 N 1284.47 -0.556076 1.47464 0
M  V30 13801 C 1285.4 -1.67829 1.56096 0
M  V30 13802 C 1286.41 -1.56541 0.447077 0
M  V30 13803 O 1287.6 -1.63478 0.716739 0
M  V30 13804 C 1284.7 -3.06303 1.45023 0
M  V30 13805 C 1283.88 -3.43334 2.70999 0
M  V30 13806 C 1282.93 -4.60976 2.53746 0
M  V30 13807 O 1281.96 -4.65501 3.27564 0
M  V30 13808 N 1283.16 -5.5754 1.61647 0
M  V30 13809 H 1285.93 -1.6087 2.52865 0
M  V30 13810 H 1283.49 -0.74274 1.43857 0
M  V30 13811 H 1285.48 -3.82838 1.31214 0
M  V30 13812 H 1284.05 -3.07483 0.563311 0
M  V30 13813 H 1283.27 -2.56236 2.99561 0
M  V30 13814 H 1284.56 -3.64851 3.54629 0
M  V30 13815 H 1283.96 -5.56642 1.00827 0
M  V30 13816 H 1282.51 -6.33397 1.53789 0
M  V30 13817 N 1285.95 -1.35615 -0.802897 0
M  V30 13818 C 1286.91 -1.28705 -1.89651 0
M  V30 13819 C 1287.91 -0.197681 -1.5958 0
M  V30 13820 O 1289.1 -0.451618 -1.68244 0
M  V30 13821 C 1286.23 -0.991941 -3.26149 0
M  V30 13822 H 1287.43 -2.25951 -1.97196 0
M  V30 13823 H 1284.98 -1.20192 -0.999179 0
M  V30 13824 H 1285.71 -0.0235051 -3.24291 0
M  V30 13825 H 1285.5 -1.78013 -3.49362 0
M  V30 13826 H 1286.99 -0.969298 -4.06195 0
M  V30 13827 N 1287.43 1.02549 -1.19673 0
M  V30 13828 C 1288.34 2.14373 -0.952972 0
M  V30 13829 C 1289.35 1.73776 0.0881727 0
M  V30 13830 O 1290.53 2.01165 -0.0972471 0
M  V30 13831 C 1287.59 3.43096 -0.498569 0
M  V30 13832 C 1286.65 3.97987 -1.60951 0
M  V30 13833 C 1285.89 5.20567 -1.17669 0
M  V30 13834 O 1286.11 5.70385 -0.0416636 0
M  V30 13835 O 1285.04 5.6838 -1.98059 0
M  V30 13836 H 1288.87 2.378 -1.88904 0
M  V30 13837 H 1286.45 1.12781 -0.979836 0
M  V30 13838 H 1288.34 4.20634 -0.253968 0
M  V30 13839 H 1287.01 3.21105 0.409018 0
M  V30 13840 H 1285.92 3.21768 -1.90829 0
M  V30 13841 H 1287.25 4.24349 -2.49377 0
M  V30 13842 N 1288.9 1.00119 1.21713 0
M  V30 13843 C 1289.83 0.578504 2.2622 0
M  V30 13844 C 1290.81 -0.398777 1.6536 0
M  V30 13845 O 1292 -0.287596 1.92059 0
M  V30 13846 C 1289.13 -0.0994508 3.47158 0
M  V30 13847 C 1288.08 0.79722 4.2051 0
M  V30 13848 C 1287.41 -0.0141125 5.34698 0
M  V30 13849 C 1288.71 2.09802 4.7831 0
M  V30 13850 H 1290.4 1.45208 2.6183 0
M  V30 13851 H 1287.95 0.699656 1.2586 0
M  V30 13852 H 1289.9 -0.406605 4.19434 0
M  V30 13853 H 1288.63 -1.00763 3.10667 0
M  V30 13854 H 1287.29 1.08814 3.50079 0
M  V30 13855 H 1286.93 -0.923468 4.9445 0
M  V30 13856 H 1286.63 0.582883 5.84702 0
M  V30 13857 H 1288.16 -0.31517 6.09786 0
M  V30 13858 H 1289.57 1.85427 5.42485 0
M  V30 13859 H 1287.97 2.64455 5.38687 0
M  V30 13860 H 1289.04 2.77132 3.97902 0
M  V30 13861 N 1290.38 -1.37203 0.775435 0
M  V30 13862 C 1291.63 -1.99897 0.341936 0
M  V30 13863 C 1291.96 -1.61414 -1.07978 0
M  V30 13864 O 1291.24 -0.862108 -1.7435 0
M  V30 13865 C 1291.52 -3.56755 0.489715 0
M  V30 13866 C 1291.37 -4.05135 1.95411 0
M  V30 13867 C 1292.69 -4.39978 -0.103779 0
M  V30 13868 H 1289.81 -0.726199 0.125717 0
M  V30 13869 H 1292.45 -1.62826 0.979167 0
M  V30 13870 H 1290.6 -3.88464 -0.0527684 0
M  V30 13871 H 1292.27 -3.83975 2.55658 0
M  V30 13872 H 1290.52 -3.57192 2.46164 0
M  V30 13873 H 1291.19 -5.14161 2.00855 0
M  V30 13874 H 1293.66 -4.14547 0.359134 0
M  V30 13875 H 1292.54 -5.48892 0.0297337 0
M  V30 13876 H 1292.8 -4.25658 -1.19448 0
M  V30 13877 N 1291.86 -0.526279 -1.48553 0
M  V30 13878 C 1292.82 0.227739 -2.28066 0
M  V30 13879 C 1293.82 0.871146 -1.35158 0
M  V30 13880 O 1295.01 0.731769 -1.58085 0
M  V30 13881 C 1292.14 1.32918 -3.1392 0
M  V30 13882 H 1293.34 -0.470313 -2.96189 0
M  V30 13883 H 1290.89 -0.282089 -1.53733 0
M  V30 13884 H 1291.63 2.0606 -2.50419 0
M  V30 13885 H 1291.41 0.872991 -3.82258 0
M  V30 13886 H 1292.9 1.85964 -3.73908 0
M  V30 13887 N 1293.34 1.5542 -0.261239 0
M  V30 13888 C 1294.28 2.21972 0.632216 0
M  V30 13889 C 1295.25 1.18843 1.16041 0
M  V30 13890 O 1296.44 1.47339 1.21226 0
M  V30 13891 C 1293.58 2.93397 1.81693 0
M  V30 13892 C 1292.69 4.11214 1.3239 0
M  V30 13893 C 1291.83 4.70318 2.46931 0
M  V30 13894 C 1290.87 5.80355 1.94561 0
M  V30 13895 N 1290 6.33581 3.02523 0
M  V30 13896 H 1294.84 2.97944 0.058018 0
M  V30 13897 H 1292.38 1.4709 0.0168725 0
M  V30 13898 H 1294.34 3.33015 2.5131 0
M  V30 13899 H 1292.97 2.19874 2.36337 0
M  V30 13900 H 1292.02 3.76811 0.521292 0
M  V30 13901 H 1293.33 4.90609 0.900214 0
M  V30 13902 H 1292.49 5.12584 3.24565 0
M  V30 13903 H 1291.23 3.90169 2.92608 0
M  V30 13904 H 1290.23 5.37552 1.15402 0
M  V30 13905 H 1291.46 6.62364 1.49836 0
M  V30 13906 H 1289.4 5.56332 3.47608 0
M  V30 13907 H 1289.32 7.08209 2.64529 0
M  V30 13908 H 1290.59 6.80506 3.80174 0
M  V30 13909 N 1294.82 -0.0116844 1.57596 0
M  V30 13910 C 1296.23 -0.55604 1.78228 0
M  V30 13911 C 1296.58 -1.74624 0.894474 0
M  V30 13912 O 1295.7 -2.16196 0.0938498 0
M  V30 13913 C 1296.3 -1.0155 3.23223 0
M  V30 13914 C 1294.86 -1.50525 3.44992 0
M  V30 13915 C 1294 -0.451133 2.73606 0
M  V30 13916 H 1296.95 0.214516 1.57243 0
M  V30 13917 H 1296.98 -1.88208 3.30693 0
M  V30 13918 H 1296.49 -0.149048 3.87814 0
M  V30 13919 H 1294.59 -2.39298 2.856 0
M  V30 13920 H 1294.7 -1.54076 4.53649 0
M  V30 13921 H 1293.07 -0.910135 2.37884 0
M  V30 13922 H 1293.85 0.406152 3.40889 0
M  V30 13923 N 1296.29 -1.55015 -0.284256 0
M  V30 13924 C 1297.52 -1.79431 -1.04016 0
M  V30 13925 C 1297.94 -0.560254 -1.79563 0
M  V30 13926 O 1297.3 0.489804 -1.74558 0
M  V30 13927 C 1297.35 -3.01162 -1.98328 0
M  V30 13928 O 1296.45 -2.75459 -3.06914 0
M  V30 13929 H 1295.79 -0.593391 -0.297965 0
M  V30 13930 H 1298.32 -2.02136 -0.316585 0
M  V30 13931 H 1298.33 -3.29589 -2.40489 0
M  V30 13932 H 1297.01 -3.90634 -1.42751 0
M  V30 13933 H 1295.59 -2.58096 -2.69148 0
M  V30 13934 N 1297.77 0.548248 -1.47757 0
M  V30 13935 C 1299.02 1.30694 -1.55071 0
M  V30 13936 C 1299.35 1.92994 -0.216075 0
M  V30 13937 O 1298.63 1.78341 0.776196 0
M  V30 13938 C 1298.91 2.41024 -2.67543 0
M  V30 13939 C 1298.76 1.83534 -4.10652 0
M  V30 13940 C 1300.08 3.42902 -2.75874 0
M  V30 13941 H 1297.2 0.47383 -0.564494 0
M  V30 13942 H 1299.84 0.612628 -1.79852 0
M  V30 13943 H 1297.99 3.00248 -2.46543 0
M  V30 13944 H 1299.66 1.28503 -4.4304 0
M  V30 13945 H 1297.91 1.14161 -4.18509 0
M  V30 13946 H 1298.58 2.63335 -4.85138 0
M  V30 13947 H 1301.05 2.9361 -2.94843 0
M  V30 13948 H 1299.93 4.17516 -3.5633 0
M  V30 13949 H 1300.19 4.02314 -1.83291 0
M  V30 13950 N 1299.25 1.36039 0.795694 0
M  V30 13951 C 1300.47 1.33222 1.58955 0
M  V30 13952 C 1300.9 -0.0854596 1.87906 0
M  V30 13953 O 1300.26 -1.05555 1.47403 0
M  V30 13954 C 1300.31 2.15508 2.89117 0
M  V30 13955 O 1299.41 1.54327 3.82436 0
M  V30 13956 H 1298.75 0.456264 0.48241 0
M  V30 13957 H 1301.28 1.79234 0.986726 0
M  V30 13958 H 1301.29 2.2786 3.38444 0
M  V30 13959 H 1299.97 3.18568 2.67371 0
M  V30 13960 H 1298.54 1.50879 3.41013 0
M  V30 13961 N 1300.73 -1.01913 1.20215 0
M  V30 13962 C 1301.97 -1.7573 1.01226 0
M  V30 13963 C 1302.31 -1.88799 -0.45481 0
M  V30 13964 O 1301.58 -1.41196 -1.33768 0
M  V30 13965 C 1301.87 -3.17795 1.69348 0
M  V30 13966 C 1301.72 -3.12536 3.23483 0
M  V30 13967 C 1303.04 -4.16409 1.42448 0
M  V30 13968 H 1300.16 -0.637889 0.369144 0
M  V30 13969 H 1302.8 -1.18907 1.48193 0
M  V30 13970 H 1300.95 -3.66311 1.29416 0
M  V30 13971 H 1302.62 -2.71843 3.72692 0
M  V30 13972 H 1300.86 -2.49997 3.54519 0
M  V30 13973 H 1301.53 -4.12949 3.66302 0
M  V30 13974 H 1304.01 -3.76537 1.77086 0
M  V30 13975 H 1302.89 -5.13983 1.92648 0
M  V30 13976 H 1303.15 -4.407 0.351574 0
M  V30 13977 N 1302.21 -1.00763 -1.2118 0
M  V30 13978 C 1303.12 -0.579646 -2.27326 0
M  V30 13979 C 1304.13 0.378592 -1.69831 0
M  V30 13980 O 1305.31 0.241772 -1.99944 0
M  V30 13981 C 1302.37 0.0843648 -3.46597 0
M  V30 13982 C 1301.43 -0.918685 -4.19355 0
M  V30 13983 C 1300.67 -0.286267 -5.32932 0
M  V30 13984 O 1300.89 0.916274 -5.62993 0
M  V30 13985 O 1299.82 -0.998513 -5.9356 0
M  V30 13986 H 1303.65 -1.46311 -2.66133 0
M  V30 13987 H 1301.24 -0.776641 -1.27627 0
M  V30 13988 H 1303.12 0.455636 -4.18929 0
M  V30 13989 H 1301.79 0.942166 -3.09685 0
M  V30 13990 H 1300.7 -1.34116 -3.49233 0
M  V30 13991 H 1302.03 -1.74616 -4.60185 0
M  V30 13992 N 1303.68 1.3679 -0.7827 0
M  V30 13993 C 1304.93 1.99417 -0.352011 0
M  V30 13994 C 1305.26 1.62127 1.07448 0
M  V30 13995 O 1304.51 0.864449 1.75573 0
M  V30 13996 C 1304.81 3.54489 -0.455232 0
M  V30 13997 C 1304.48 4.11579 -1.84156 0
M  V30 13998 C 1303.14 4.26884 -2.22089 0
M  V30 13999 C 1305.49 4.4277 -2.74962 0
M  V30 14000 C 1302.82 4.70688 -3.50243 0
M  V30 14001 C 1305.17 4.88003 -4.02537 0
M  V30 14002 C 1303.84 5.01513 -4.40501 0
M  V30 14003 H 1303.11 0.729718 -0.12881 0
M  V30 14004 H 1305.75 1.63386 -0.998856 0
M  V30 14005 H 1304.06 3.90833 0.275129 0
M  V30 14006 H 1305.76 4.00867 -0.103127 0
M  V30 14007 H 1302.35 4.00102 -1.53677 0
M  V30 14008 H 1306.53 4.30521 -2.46912 0
M  V30 14009 H 1301.79 4.79335 -3.79537 0
M  V30 14010 H 1305.96 5.11102 -4.73019 0
M  V30 14011 H 1303.59 5.35214 -5.39861 0
M  V30 14012 N 1305.16 0.53415 1.48272 0
M  V30 14013 C 1306.41 0.00157492 2.028 0
M  V30 14014 C 1306.74 -1.33538 1.41001 0
M  V30 14015 O 1306.02 -1.86347 0.557245 0
M  V30 14016 C 1306.3 -0.116016 3.59913 0
M  V30 14017 C 1306.15 1.2464 4.32186 0
M  V30 14018 C 1307.47 -0.840775 4.31994 0
M  V30 14019 H 1304.59 0.00204634 0.736997 0
M  V30 14020 H 1307.23 0.691985 1.76951 0
M  V30 14021 H 1305.38 -0.704027 3.82068 0
M  V30 14022 H 1307.05 1.87584 4.21438 0
M  V30 14023 H 1305.3 1.8272 3.93441 0
M  V30 14024 H 1305.97 1.11708 5.40579 0
M  V30 14025 H 1308.44 -0.341746 4.14694 0
M  V30 14026 H 1307.32 -0.89196 5.41604 0
M  V30 14027 H 1307.58 -1.89197 3.99571 0
M  V30 14028 N 1306.64 -1.55279 0.269478 0
M  V30 14029 C 1307.87 -2.03876 -0.352418 0
M  V30 14030 C 1308.28 -1.14804 -1.49885 0
M  V30 14031 O 1307.64 -0.166989 -1.81734 0
M  V30 14032 C 1307.69 -3.51634 -0.838799 0
M  V30 14033 O 1307.41 -4.37316 0.261972 0
M  V30 14034 C 1308.91 -4.16094 -1.52909 0
M  V30 14035 H 1306.13 -0.66608 -0.0811043 0
M  V30 14036 H 1308.68 -2.00551 0.399929 0
M  V30 14037 H 1306.83 -3.55421 -1.54125 0
M  V30 14038 H 1307.25 -5.24383 -0.111013 0
M  V30 14039 H 1308.72 -5.21102 -1.82089 0
M  V30 14040 H 1309.2 -3.63928 -2.45872 0
M  V30 14041 H 1309.8 -4.16293 -0.87063 0
M  V30 14042 N 1308.12 0.00332656 -1.576 0
M  V30 14043 C 1309.07 1.01406 -2.09331 0
M  V30 14044 C 1310.06 1.35806 -1.01258 0
M  V30 14045 O 1311.27 1.34409 -1.19726 0
M  V30 14046 H 1307.64 0.344661 -0.668366 0
M  V30 14047 H 1309.61 0.552154 -2.93247 0
M  V30 14048 C 1308.36 2.29819 -2.60918 0
M  V30 14049 H 1307.68 2.04216 -3.43709 0
M  V30 14050 H 1309.12 2.98826 -3.00797 0
M  V30 14051 C 1307.58 3.0057 -1.52182 0
M  V30 14052 O 1308.11 3.91423 -0.902817 0
M  V30 14053 N 1306.32 2.62338 -1.25009 0
M  V30 14054 H 1305.87 1.88538 -1.75531 0
M  V30 14055 H 1305.82 3.0999 -0.524736 0
M  V30 14056 N 1309.6 1.55164 0.276031 0
M  V30 14057 C 1310.53 1.82758 1.36656 0
M  V30 14058 C 1311.51 0.680405 1.4768 0
M  V30 14059 O 1312.69 0.923078 1.64352 0
M  V30 14060 C 1309.82 1.98651 2.74328 0
M  V30 14061 C 1308.86 3.21192 2.80603 0
M  V30 14062 S 1309.7 4.78628 2.40156 0
M  V30 14063 C 1310.85 4.9749 3.79809 0
M  V30 14064 H 1311.09 2.74969 1.13045 0
M  V30 14065 H 1308.62 1.46896 0.4755 0
M  V30 14066 H 1310.58 2.08492 3.53612 0
M  V30 14067 H 1309.24 1.07333 2.95192 0
M  V30 14068 H 1308.43 3.29189 3.81642 0
M  V30 14069 H 1308.03 3.09926 2.09337 0
M  V30 14070 H 1310.33 4.83045 4.75051 0
M  V30 14071 H 1311.27 5.99544 3.76765 0
M  V30 14072 H 1311.68 4.25489 3.70971 0
M  V30 14073 N 1311.07 -0.540404 1.48045 0
M  V30 14074 C 1312.32 -1.29422 1.55224 0
M  V30 14075 C 1312.64 -1.93716 0.223365 0
M  V30 14076 O 1311.91 -1.808 -0.754204 0
M  V30 14077 H 1310.49 -0.480658 0.571819 0
M  V30 14078 H 1313.16 -0.629712 1.84447 0
M  V30 14079 H 1312.25 -2.07897 2.32777 0
M  V30 14080 N 1312.55 -1.36459 -0.788468 0
M  V30 14081 C 1313.8 -1.3007 -1.54158 0
M  V30 14082 C 1314.11 0.117574 -1.95246 0
M  V30 14083 O 1315.32 0.303837 -2.69795 0
M  V30 14084 C 1313.78 -2.28216 -2.78291 0
M  V30 14085 C 1313.38 -3.75484 -2.44368 0
M  V30 14086 C 1315.13 -2.30806 -3.56271 0
M  V30 14087 C 1313.04 -4.65404 -3.64902 0
M  V30 14088 H 1311.97 -0.483345 -0.5787 0
M  V30 14089 H 1314.62 -1.61827 -0.865123 0
M  V30 14090 H 1313 -1.89454 -3.4774 0
M  V30 14091 H 1314.17 -4.22986 -1.82809 0
M  V30 14092 H 1312.49 -3.75678 -1.79597 0
M  V30 14093 H 1315.08 -2.95196 -4.45829 0
M  V30 14094 H 1315.43 -1.31687 -3.94923 0
M  V30 14095 H 1315.96 -2.68189 -2.93802 0
M  V30 14096 H 1312.7 -5.65589 -3.31344 0
M  V30 14097 H 1312.22 -4.22617 -4.25623 0
M  V30 14098 H 1313.9 -4.81721 -4.31919 0
M  V30 14099 N 1314.03 1.01274 -1.20754 0
M  V30 14100 C 1315.28 1.74342 -1.01428 0
M  V30 14101 C 1315.59 1.90265 0.453708 0
M  V30 14102 O 1316.8 2.60465 0.76618 0
M  V30 14103 C 1315.25 3.13588 -1.76609 0
M  V30 14104 C 1314.86 3.05664 -3.27526 0
M  V30 14105 C 1316.61 3.9084 -1.65664 0
M  V30 14106 C 1314.51 4.39942 -3.95228 0
M  V30 14107 H 1313.44 0.653619 -0.375897 0
M  V30 14108 H 1316.09 1.13214 -1.44412 0
M  V30 14109 H 1314.48 3.75281 -1.26413 0
M  V30 14110 H 1315.65 2.53256 -3.84965 0
M  V30 14111 H 1313.97 2.41904 -3.38927 0
M  V30 14112 H 1316.56 4.9019 -2.13583 0
M  V30 14113 H 1316.91 4.11754 -0.61351 0
M  V30 14114 H 1317.44 3.35783 -2.13294 0
M  V30 14115 H 1314.18 4.24229 -4.9971 0
M  V30 14116 H 1313.7 4.92342 -3.42578 0
M  V30 14117 H 1315.38 5.08771 -3.99701 0
M  V30 14118 N 1315.51 1.01404 1.20644 0
M  V30 14119 C 1316.76 0.697244 1.89265 0
M  V30 14120 C 1317.07 -0.776149 1.79542 0
M  V30 14121 O 1318.28 -1.2054 2.43274 0
M  V30 14122 C 1316.73 1.19672 3.39421 0
M  V30 14123 C 1316.34 2.69683 3.57736 0
M  V30 14124 C 1318.09 0.955225 4.13613 0
M  V30 14125 C 1315.99 3.13124 5.01704 0
M  V30 14126 H 1314.92 0.257105 0.708811 0
M  V30 14127 H 1317.57 1.22639 1.36499 0
M  V30 14128 H 1315.96 0.595562 3.91496 0
M  V30 14129 H 1317.13 3.35326 3.16059 0
M  V30 14130 H 1315.44 2.91946 2.96911 0
M  V30 14131 H 1318.04 1.25524 5.19757 0
M  V30 14132 H 1318.38 -0.108362 4.16159 0
M  V30 14133 H 1318.92 1.51962 3.67631 0
M  V30 14134 H 1315.66 4.18748 5.04311 0
M  V30 14135 H 1315.18 2.522 5.44201 0
M  V30 14136 H 1316.86 3.05617 5.70269 0
M  V30 14137 N 1316.99 -1.36373 0.789944 0
M  V30 14138 C 1318.4 -1.81783 0.425677 0
M  V30 14139 C 1318.75 -1.65711 -1.05045 0
M  V30 14140 O 1317.87 -1.17835 -1.81505 0
M  V30 14141 C 1318.47 -3.3003 0.765866 0
M  V30 14142 C 1317.03 -3.73647 0.454421 0
M  V30 14143 C 1316.18 -2.58632 1.00023 0
M  V30 14144 H 1319.13 -1.24587 0.983044 0
M  V30 14145 H 1319.15 -3.80457 0.0571624 0
M  V30 14146 H 1318.66 -3.41696 1.84026 0
M  V30 14147 H 1316.76 -3.67541 -0.611918 0
M  V30 14148 H 1316.87 -4.69066 0.975401 0
M  V30 14149 H 1315.24 -2.51156 0.423434 0
M  V30 14150 H 1316.02 -2.73083 2.0804 0
M  V30 14151 N 1318.47 -0.542005 -1.47987 0
M  V30 14152 C 1319.74 0.0526494 -1.95529 0
M  V30 14153 C 1320.12 1.50092 -1.48444 0
M  V30 14154 O 1319.47 2.16981 -0.716347 0
M  V30 14155 C 1319.68 -0.0770524 -3.48915 0
M  V30 14156 C 1321.03 0.0760849 -4.24532 0
M  V30 14157 O 1322.05 -0.00384644 -3.562 0
M  V30 14158 O 1320.91 0.245406 -5.45949 0
M  V30 14159 H 1318.01 0.0726163 -0.823806 0
M  V30 14160 H 1320.55 -0.607454 -1.58455 0
M  V30 14161 H 1319.32 -1.08544 -3.75944 0
M  V30 14162 H 1318.95 0.621357 -3.92715 0
M  V30 14163 N 1319.94 1.55134 -0.277709 0
M  V30 14164 C 1321.19 1.99654 0.33833 0
M  V30 14165 C 1321.52 1.16612 1.55666 0
M  V30 14166 O 1320.77 0.224428 1.94409 0
M  V30 14167 C 1321.07 3.49182 0.762028 0
M  V30 14168 C 1320.74 4.49524 -0.351958 0
M  V30 14169 C 1319.4 4.76682 -0.657833 0
M  V30 14170 C 1321.75 5.09406 -1.10247 0
M  V30 14171 C 1319.08 5.6099 -1.71776 0
M  V30 14172 C 1321.43 5.94866 -2.15214 0
M  V30 14173 C 1320.1 6.20344 -2.46434 0
M  V30 14174 H 1319.37 0.730584 0.123804 0
M  V30 14175 H 1322.01 1.87446 -0.391961 0
M  V30 14176 H 1320.32 3.58879 1.57204 0
M  V30 14177 H 1322.02 3.81037 1.24947 0
M  V30 14178 H 1318.61 4.28475 -0.103438 0
M  V30 14179 H 1322.79 4.88446 -0.879422 0
M  V30 14180 H 1318.05 5.78975 -1.96463 0
M  V30 14181 H 1322.22 6.403 -2.73842 0
M  V30 14182 H 1319.85 6.85464 -3.28699 0
M  V30 14183 N 1321.42 0.00503138 1.57599 0
M  V30 14184 C 1322.38 -0.969628 2.0768 0
M  V30 14185 C 1323.38 -1.26933 0.987148 0
M  V30 14186 O 1324.57 -1.21368 1.24962 0
M  V30 14187 C 1321.71 -2.29312 2.52247 0
M  V30 14188 H 1322.9 -0.536342 2.95065 0
M  V30 14189 H 1320.45 -0.242543 1.54407 0
M  V30 14190 H 1321.19 -2.7732 1.6812 0
M  V30 14191 H 1320.97 -2.08878 3.31832 0
M  V30 14192 H 1322.46 -2.99221 2.91302 0
M  V30 14193 N 1322.9 -1.55308 -0.267798 0
M  V30 14194 C 1324.32 -1.47264 -0.61526 0
M  V30 14195 C 1324.52 -0.691025 -1.8928 0
M  V30 14196 O 1323.57 -0.211964 -2.51609 0
M  V30 14197 C 1324.88 -2.91519 -0.73739 0
M  V30 14198 C 1326.43 -3.01764 -0.831102 0
M  V30 14199 C 1326.91 -4.47283 -0.984965 0
M  V30 14200 N 1328.4 -4.51134 -1.05036 0
M  V30 14201 C 1329.13 -5.60952 -1.1883 0
M  V30 14202 N 1328.63 -6.80625 -1.29311 0
M  V30 14203 N 1330.42 -5.48705 -1.21982 0
M  V30 14204 H 1322.57 -2.04577 0.57114 0
M  V30 14205 H 1324.84 -0.927908 0.194141 0
M  V30 14206 H 1324.54 -3.51456 0.130974 0
M  V30 14207 H 1324.42 -3.40829 -1.61603 0
M  V30 14208 H 1326.8 -2.4192 -1.68993 0
M  V30 14209 H 1326.88 -2.55698 0.0722509 0
M  V30 14210 H 1326.53 -5.07732 -0.130776 0
M  V30 14211 H 1326.46 -4.91011 -1.90305 0
M  V30 14212 H 1328.95 -3.6493 -0.981551 0
M  V30 14213 H 1329.26 -7.60071 -1.39685 0
M  V30 14214 H 1327.61 -6.83426 -1.26306 0
M  V30 14215 H 1330.8 -4.5415 -1.13428 0
M  V30 14216 H 1330.97 -6.34332 -1.32388 0
M  V30 14217 N 1324.38 0.532545 -1.4833 0
M  V30 14218 C 1325.6 1.31809 -1.60129 0
M  V30 14219 C 1326.03 1.86283 -0.260807 0
M  V30 14220 O 1325.39 1.6427 0.767137 0
M  V30 14221 C 1325.43 2.44661 -2.64903 0
M  V30 14222 O 1324.54 3.47622 -2.21885 0
M  V30 14223 H 1323.88 0.390492 -0.53704 0
M  V30 14224 H 1326.41 0.641068 -1.94297 0
M  V30 14225 H 1326.42 2.90883 -2.86096 0
M  V30 14226 H 1325.09 2.04373 -3.62222 0
M  V30 14227 H 1323.67 3.07536 -2.10894 0
M  V30 14228 N 1325.86 1.36875 0.78122 0
M  V30 14229 C 1327.1 1.31299 1.53639 0
M  V30 14230 C 1327.42 -0.104942 1.94717 0
M  V30 14231 O 1326.69 -1.04696 1.65576 0
M  V30 14232 H 1325.27 0.483032 0.569815 0
M  V30 14233 H 1327.94 1.71261 0.930359 0
M  V30 14234 H 1327.03 1.94581 2.44018 0
M  V30 14235 N 1327.33 -1.00632 1.21289 0
M  V30 14236 C 1328.58 -1.74647 1.03084 0
M  V30 14237 C 1328.91 -1.89271 -0.43476 0
M  V30 14238 O 1328.19 -1.42607 -1.32263 0
M  V30 14239 C 1328.47 -3.15981 1.72709 0
M  V30 14240 C 1328.32 -3.09088 3.2678 0
M  V30 14241 C 1329.64 -4.14875 1.46857 0
M  V30 14242 H 1326.76 -0.633938 0.375889 0
M  V30 14243 H 1329.4 -1.17328 1.49446 0
M  V30 14244 H 1327.55 -3.64918 1.33294 0
M  V30 14245 H 1329.23 -2.67875 3.75554 0
M  V30 14246 H 1327.47 -2.46223 3.57151 0
M  V30 14247 H 1328.14 -4.09041 3.70661 0
M  V30 14248 H 1330.62 -3.74637 1.81069 0
M  V30 14249 H 1329.49 -5.1191 1.98088 0
M  V30 14250 H 1329.75 -4.40302 0.398296 0
M  V30 14251 N 1328.81 -1.02043 -1.20104 0
M  V30 14252 C 1329.74 -0.552093 -2.22451 0
M  V30 14253 C 1330.76 0.367547 -1.58597 0
M  V30 14254 O 1331.95 0.165285 -1.77733 0
M  V30 14255 C 1329.05 0.215833 -3.38212 0
M  V30 14256 C 1328.22 -0.70666 -4.31654 0
M  V30 14257 C 1327.28 0.0143628 -5.26198 0
M  V30 14258 O 1326.3 -0.609413 -5.65928 0
M  V30 14259 N 1327.51 1.28794 -5.66032 0
M  V30 14260 H 1330.27 -1.43229 -2.6326 0
M  V30 14261 H 1327.83 -0.89842 -1.34685 0
M  V30 14262 H 1329.82 0.707523 -3.98467 0
M  V30 14263 H 1328.39 0.997358 -2.96263 0
M  V30 14264 H 1327.61 -1.37859 -3.69308 0
M  V30 14265 H 1328.9 -1.33392 -4.91003 0
M  V30 14266 H 1328.3 1.8156 -5.35773 0
M  V30 14267 H 1326.86 1.72429 -6.28579 0
M  V30 14268 N 1330.29 1.35952 -0.797165 0
M  V30 14269 C 1331.22 2.27728 -0.146693 0
M  V30 14270 C 1332.2 1.47616 0.68178 0
M  V30 14271 O 1333.39 1.76898 0.651094 0
M  V30 14272 C 1330.51 3.29179 0.797442 0
M  V30 14273 C 1329.56 4.26471 0.0497851 0
M  V30 14274 S 1330.39 5.19982 -1.2798 0
M  V30 14275 C 1331.55 6.24977 -0.339864 0
M  V30 14276 H 1331.78 2.82549 -0.924834 0
M  V30 14277 H 1329.31 1.4261 -0.591759 0
M  V30 14278 H 1331.27 3.88127 1.33669 0
M  V30 14279 H 1329.93 2.73255 1.54889 0
M  V30 14280 H 1329.13 4.98138 0.766487 0
M  V30 14281 H 1328.73 3.71643 -0.419219 0
M  V30 14282 H 1331.02 6.75809 0.478412 0
M  V30 14283 H 1331.96 7.00636 -1.02544 0
M  V30 14284 H 1332.37 5.64468 0.0602491 0
M  V30 14285 N 1331.77 0.549846 1.47697 0
M  V30 14286 C 1332.72 -0.215119 2.31603 0
M  V30 14287 C 1333.71 -0.916441 1.4247 0
M  V30 14288 O 1334.92 -0.838565 1.59274 0
M  V30 14289 H 1331.29 -0.0882441 0.746805 0
M  V30 14290 H 1333.26 0.511847 2.93977 0
M  V30 14291 C 1332.01 -1.23662 3.24966 0
M  V30 14292 H 1331.33 -0.706384 3.9351 0
M  V30 14293 H 1332.77 -1.7429 3.86522 0
M  V30 14294 C 1331.23 -2.28066 2.47967 0
M  V30 14295 O 1331.76 -3.34862 2.21879 0
M  V30 14296 N 1329.97 -2.01799 2.09106 0
M  V30 14297 H 1329.52 -1.14965 2.30523 0
M  V30 14298 H 1329.47 -2.71872 1.57902 0
M  V30 14299 N 1333.25 -1.54984 0.285932 0
M  V30 14300 C 1334.47 -2.04239 -0.330774 0
M  V30 14301 C 1334.89 -1.16387 -1.48659 0
M  V30 14302 O 1334.25 -0.186255 -1.81547 0
M  V30 14303 C 1334.3 -3.52504 -0.801456 0
M  V30 14304 O 1334.02 -4.37014 0.30834 0
M  V30 14305 C 1335.52 -4.17692 -1.48487 0
M  V30 14306 H 1332.74 -0.666903 -0.0740351 0
M  V30 14307 H 1335.28 -2.00116 0.421178 0
M  V30 14308 H 1333.44 -3.57036 -1.50347 0
M  V30 14309 H 1333.85 -5.24471 -0.0553891 0
M  V30 14310 H 1335.33 -5.23004 -1.76552 0
M  V30 14311 H 1335.8 -3.66515 -2.41999 0
M  V30 14312 H 1336.41 -4.17193 -0.826428 0
M  V30 14313 N 1334.72 -0.0133892 -1.57594 0
M  V30 14314 C 1335.67 0.991796 -2.10395 0
M  V30 14315 C 1336.67 1.34724 -1.02693 0
M  V30 14316 O 1337.87 1.33131 -1.21145 0
M  V30 14317 H 1334.25 0.337553 -0.671984 0
M  V30 14318 H 1336.22 0.52102 -2.93816 0
M  V30 14319 C 1334.97 2.27039 -2.63341 0
M  V30 14320 H 1334.29 2.00559 -3.45855 0
M  V30 14321 H 1335.73 2.95619 -3.0395 0
M  V30 14322 C 1334.19 2.98939 -1.55362 0
M  V30 14323 O 1334.72 3.90444 -0.944282 0
M  V30 14324 N 1332.93 2.60997 -1.27784 0
M  V30 14325 H 1332.47 1.86666 -1.77521 0
M  V30 14326 H 1332.43 3.09416 -0.557585 0
M  V30 14327 N 1336.2 1.55448 0.259558 0
M  V30 14328 C 1337.45 1.76686 0.98935 0
M  V30 14329 C 1337.78 0.575434 1.85793 0
M  V30 14330 O 1337.03 -0.441676 1.90651 0
M  V30 14331 C 1337.33 3.03292 1.89073 0
M  V30 14332 C 1337 4.35225 1.17855 0
M  V30 14333 C 1335.66 4.7108 0.981675 0
M  V30 14334 C 1338.01 5.16839 0.6728 0
M  V30 14335 C 1335.34 5.86094 0.266551 0
M  V30 14336 C 1337.69 6.32593 -0.0287965 0
M  V30 14337 C 1336.36 6.67078 -0.23726 0
M  V30 14338 H 1335.63 0.646542 0.362029 0
M  V30 14339 H 1338.27 1.8972 0.260488 0
M  V30 14340 H 1336.58 2.85217 2.68624 0
M  V30 14341 H 1338.27 3.16923 2.45685 0
M  V30 14342 H 1334.86 4.07051 1.34192 0
M  V30 14343 H 1339.05 4.89604 0.812481 0
M  V30 14344 H 1334.3 6.11327 0.0944447 0
M  V30 14345 H 1338.48 6.95081 -0.428378 0
M  V30 14346 H 1336.11 7.56049 -0.793358 0
M  V30 14347 N 1337.68 -0.524672 1.4861 0
M  V30 14348 C 1338.93 -1.28021 1.56898 0
M  V30 14349 C 1339.26 -1.92948 0.245203 0
M  V30 14350 O 1338.51 -1.8013 -0.764966 0
M  V30 14351 C 1338.81 -2.3871 2.65993 0
M  V30 14352 C 1338.48 -1.914 4.08261 0
M  V30 14353 C 1337.14 -1.78215 4.46982 0
M  V30 14354 C 1339.49 -1.55713 4.97396 0
M  V30 14355 C 1336.82 -1.27687 5.72637 0
M  V30 14356 C 1339.17 -1.06645 6.23546 0
M  V30 14357 C 1337.83 -0.920818 6.61118 0
M  V30 14358 H 1337.1 -0.468461 0.57413 0
M  V30 14359 H 1339.75 -0.584901 1.82349 0
M  V30 14360 H 1338.06 -3.13932 2.34422 0
M  V30 14361 H 1339.75 -2.96827 2.6962 0
M  V30 14362 H 1336.34 -2.02614 3.77684 0
M  V30 14363 H 1340.53 -1.64757 4.68155 0
M  V30 14364 H 1335.78 -1.15103 6.00468 0
M  V30 14365 H 1339.96 -0.781048 6.92006 0
M  V30 14366 H 1337.58 -0.527091 7.5837 0
M  V30 14367 N 1339.16 -1.37287 -0.77395 0
M  V30 14368 C 1340.11 -1.29389 -1.8773 0
M  V30 14369 C 1341.09 -0.182167 -1.59865 0
M  V30 14370 O 1342.28 -0.416367 -1.72033 0
M  V30 14371 C 1339.41 -1.10094 -3.25168 0
M  V30 14372 C 1338.5 -2.25801 -3.58991 0
M  V30 14373 N 1338.89 -3.51182 -3.64012 0
M  V30 14374 C 1337.19 -2.17907 -3.89144 0
M  V30 14375 C 1337.89 -4.27468 -3.9452 0
M  V30 14376 N 1336.87 -3.56583 -4.10304 0
M  V30 14377 H 1340.67 -2.24344 -1.8986 0
M  V30 14378 H 1338.18 -1.30228 -0.970282 0
M  V30 14379 H 1340.18 -1.02521 -4.04098 0
M  V30 14380 H 1338.84 -0.160535 -3.24303 0
M  V30 14381 H 1339.85 -3.85118 -3.46272 0
M  V30 14382 H 1336.53 -1.3191 -3.96113 0
M  V30 14383 H 1337.92 -5.3597 -4.05198 0
M  V30 14384 N 1340.64 0.999871 -1.21821 0
M  V30 14385 C 1341.55 2.12303 -0.99823 0
M  V30 14386 C 1342.56 1.73924 0.0512923 0
M  V30 14387 O 1343.74 2.00914 -0.139895 0
M  V30 14388 C 1340.8 3.41962 -0.571232 0
M  V30 14389 C 1339.86 3.94483 -1.69356 0
M  V30 14390 C 1339.1 5.17954 -1.28685 0
M  V30 14391 O 1339.32 5.70168 -0.162641 0
M  V30 14392 O 1338.25 5.64051 -2.10071 0
M  V30 14393 H 1342.08 2.3374 -1.93905 0
M  V30 14394 H 1339.67 1.10677 -1.00354 0
M  V30 14395 H 1341.55 4.20001 -0.343134 0
M  V30 14396 H 1340.22 3.21901 0.340814 0
M  V30 14397 H 1339.13 3.17648 -1.97612 0
M  V30 14398 H 1340.46 4.18964 -2.58322 0
M  V30 14399 N 1342.11 1.02678 1.19562 0
M  V30 14400 C 1343.34 0.741424 1.93695 0
M  V30 14401 C 1343.76 -0.693203 1.74861 0
M  V30 14402 O 1343.12 -1.47833 1.04953 0
M  V30 14403 C 1343.17 1.09514 3.43568 0
M  V30 14404 O 1342.27 0.212596 4.11852 0
M  V30 14405 H 1341.62 0.274128 0.604773 0
M  V30 14406 H 1344.15 1.37289 1.517 0
M  V30 14407 H 1344.16 1.05115 3.94227 0
M  V30 14408 H 1342.83 2.14034 3.56598 0
M  V30 14409 H 1341.41 0.315 3.71567 0
M  V30 14410 N 1343.59 -1.35528 0.804364 0
M  V30 14411 C 1344.84 -1.98439 0.382934 0
M  V30 14412 C 1345.16 -1.64132 -1.05289 0
M  V30 14413 O 1344.43 -0.922693 -1.7281 0
M  V30 14414 H 1343.01 -0.734028 0.138605 0
M  V30 14415 H 1345.67 -1.65478 1.02971 0
M  V30 14416 H 1344.77 -3.08279 0.486846 0
M  V30 14417 N 1345.07 -0.557671 -1.47404 0
M  V30 14418 C 1346 0.178019 -2.3282 0
M  V30 14419 C 1346.98 0.908318 -1.43818 0
M  V30 14420 O 1348.17 0.888693 -1.72673 0
M  V30 14421 C 1345.3 1.2082 -3.25607 0
M  V30 14422 C 1344.25 0.594335 -4.23853 0
M  V30 14423 C 1343.58 1.72919 -5.05968 0
M  V30 14424 C 1344.88 -0.452196 -5.20339 0
M  V30 14425 H 1346.57 -0.535091 -2.9458 0
M  V30 14426 H 1344.12 -0.258775 -1.41656 0
M  V30 14427 H 1346.07 1.73104 -3.84204 0
M  V30 14428 H 1344.79 1.95126 -2.61903 0
M  V30 14429 H 1343.45 0.0927898 -3.66483 0
M  V30 14430 H 1343.1 2.4613 -4.38668 0
M  V30 14431 H 1342.8 1.32422 -5.72484 0
M  V30 14432 H 1344.33 2.25527 -5.67424 0
M  V30 14433 H 1345.74 -0.0154011 -5.73298 0
M  V30 14434 H 1344.14 -0.776068 -5.95061 0
M  V30 14435 H 1345.21 -1.34791 -4.65789 0
M  V30 14436 N 1346.55 1.54831 -0.294147 0
M  V30 14437 C 1347.46 2.26939 0.594621 0
M  V30 14438 C 1348.48 1.30209 1.15419 0
M  V30 14439 O 1349.65 1.6318 1.18044 0
M  V30 14440 C 1346.72 2.9909 1.75345 0
M  V30 14441 C 1345.78 4.11342 1.22865 0
M  V30 14442 C 1345.01 4.80043 2.33225 0
M  V30 14443 O 1345.23 4.48062 3.52983 0
M  V30 14444 O 1344.17 5.67593 2.00304 0
M  V30 14445 H 1347.99 3.03698 0.00989235 0
M  V30 14446 H 1345.58 1.49276 -0.0608528 0
M  V30 14447 H 1347.46 3.44369 2.42875 0
M  V30 14448 H 1346.14 2.25232 2.32492 0
M  V30 14449 H 1345.04 3.70478 0.519279 0
M  V30 14450 H 1346.38 4.87158 0.702703 0
M  V30 14451 N 1348.03 0.0217466 1.57585 0
M  V30 14452 C 1348.99 -0.947546 2.08696 0
M  V30 14453 C 1349.99 -1.25879 1.00055 0
M  V30 14454 O 1351.18 -1.20035 1.26242 0
M  V30 14455 C 1348.31 -2.26624 2.54665 0
M  V30 14456 H 1349.51 -0.505016 2.95617 0
M  V30 14457 H 1347.06 -0.226152 1.54655 0
M  V30 14458 H 1347.79 -2.75521 1.71052 0
M  V30 14459 H 1347.58 -2.05347 3.34028 0
M  V30 14460 H 1349.07 -2.96114 2.94459 0
M  V30 14461 N 1349.51 -1.55583 -0.251311 0
M  V30 14462 C 1350.46 -1.86337 -1.31387 0
M  V30 14463 C 1351.44 -0.723887 -1.43697 0
M  V30 14464 O 1352.63 -0.985717 -1.47012 0
M  V30 14465 C 1349.76 -2.15772 -2.67016 0
M  V30 14466 C 1348.85 -3.36036 -2.58729 0
M  V30 14467 N 1349.24 -4.55414 -2.20071 0
M  V30 14468 C 1347.54 -3.39058 -2.89751 0
M  V30 14469 C 1348.24 -5.37544 -2.22309 0
M  V30 14470 N 1347.21 -4.76494 -2.61638 0
M  V30 14471 H 1351.01 -2.76168 -1.00541 0
M  V30 14472 H 1348.53 -1.55751 -0.459941 0
M  V30 14473 H 1350.53 -2.35967 -3.43693 0
M  V30 14474 H 1349.19 -1.27237 -2.98732 0
M  V30 14475 H 1350.2 -4.8112 -1.91688 0
M  V30 14476 H 1346.87 -2.60781 -3.26036 0
M  V30 14477 H 1348.26 -6.43042 -1.94798 0
M  V30 14478 N 1350.98 0.516783 -1.48886 0
M  V30 14479 C 1352.23 1.27375 -1.57808 0
M  V30 14480 C 1352.56 1.92492 -0.256963 0
M  V30 14481 O 1351.84 1.79947 0.738193 0
M  V30 14482 C 1352.12 2.35295 -2.72595 0
M  V30 14483 C 1351.97 1.74783 -4.14453 0
M  V30 14484 C 1353.29 3.36973 -2.83085 0
M  V30 14485 H 1350.41 0.46175 -0.574418 0
M  V30 14486 H 1353.05 0.57434 -1.81111 0
M  V30 14487 H 1351.2 2.94951 -2.52857 0
M  V30 14488 H 1352.88 1.19076 -4.45666 0
M  V30 14489 H 1351.12 1.05258 -4.20836 0
M  V30 14490 H 1351.79 2.52985 -4.90615 0
M  V30 14491 H 1354.27 2.87289 -3.01005 0
M  V30 14492 H 1353.14 4.09864 -3.65106 0
M  V30 14493 H 1353.4 3.98336 -1.91784 0
M  V30 14494 N 1352.46 1.37696 0.766659 0
M  V30 14495 C 1353.42 1.33688 1.86172 0
M  V30 14496 C 1354.42 0.239922 1.59 0
M  V30 14497 O 1355.61 0.496066 1.66988 0
M  V30 14498 C 1352.75 1.07807 3.23405 0
M  V30 14499 H 1353.94 2.311 1.91136 0
M  V30 14500 H 1351.49 1.22799 0.966961 0
M  V30 14501 H 1352.23 0.109477 3.24115 0
M  V30 14502 H 1352.01 1.87213 3.4452 0
M  V30 14503 H 1353.5 1.07665 4.03482 0
M  V30 14504 N 1353.94 -0.993397 1.22349 0
M  V30 14505 C 1354.87 -2.10171 1.01737 0
M  V30 14506 C 1355.85 -1.69989 -0.0615276 0
M  V30 14507 O 1357.04 -1.93939 0.100591 0
M  V30 14508 C 1354.17 -3.42186 0.593801 0
M  V30 14509 C 1353.12 -3.96215 1.61858 0
M  V30 14510 C 1352.45 -5.24272 1.05086 0
M  V30 14511 C 1353.75 -4.26956 3.00842 0
M  V30 14512 H 1355.44 -2.27673 1.94436 0
M  V30 14513 H 1352.99 -1.09408 0.936258 0
M  V30 14514 H 1354.94 -4.19131 0.436715 0
M  V30 14515 H 1353.66 -3.2451 -0.368855 0
M  V30 14516 H 1352.32 -3.21401 1.76343 0
M  V30 14517 H 1351.97 -5.02937 0.0795747 0
M  V30 14518 H 1351.67 -5.61387 1.73547 0
M  V30 14519 H 1353.19 -6.03851 0.905349 0
M  V30 14520 H 1354.61 -4.94699 2.89734 0
M  V30 14521 H 1353 -4.75242 3.66422 0
M  V30 14522 H 1354.07 -3.34752 3.50812 0
M  V30 14523 N 1355.42 -1.03311 -1.19015 0
M  V30 14524 C 1356.36 -0.617567 -2.22384 0
M  V30 14525 C 1357.33 0.370779 -1.61909 0
M  V30 14526 O 1358.52 0.266481 -1.8893 0
M  V30 14527 C 1355.66 0.0211303 -3.45094 0
M  V30 14528 C 1354.77 -1.01377 -4.19937 0
M  V30 14529 C 1353.91 -0.344385 -5.30082 0
M  V30 14530 C 1352.95 -1.3649 -5.96688 0
M  V30 14531 N 1352.08 -0.721026 -6.98388 0
M  V30 14532 H 1356.92 -1.5036 -2.57286 0
M  V30 14533 H 1354.46 -0.75235 -1.26405 0
M  V30 14534 H 1356.42 0.408713 -4.15193 0
M  V30 14535 H 1355.05 0.870721 -3.10835 0
M  V30 14536 H 1354.1 -1.51937 -3.4874 0
M  V30 14537 H 1355.41 -1.78921 -4.65606 0
M  V30 14538 H 1354.57 0.097814 -6.06621 0
M  V30 14539 H 1353.31 0.463216 -4.85495 0
M  V30 14540 H 1352.31 -1.81732 -5.18897 0
M  V30 14541 H 1353.54 -2.17407 -6.43359 0
M  V30 14542 H 1351.48 0.0664057 -6.55966 0
M  V30 14543 H 1351.4 -1.43428 -7.4227 0
M  V30 14544 H 1352.67 -0.30297 -7.78911 0
M  V30 14545 N 1356.9 1.35099 -0.81154 0
M  V30 14546 C 1357.86 2.28033 -0.230947 0
M  V30 14547 C 1358.86 1.49798 0.584575 0
M  V30 14548 O 1360.05 1.6949 0.402336 0
M  V30 14549 C 1357.18 3.341 0.677486 0
M  V30 14550 H 1358.37 2.80893 -1.05067 0
M  V30 14551 H 1355.93 1.45038 -0.582554 0
M  V30 14552 H 1356.66 2.86435 1.5207 0
M  V30 14553 H 1356.45 3.91986 0.0943563 0
M  V30 14554 H 1357.94 4.0345 1.07787 0
M  V30 14555 N 1358.37 0.56548 1.47106 0
M  V30 14556 C 1359.62 0.0444375 2.02051 0
M  V30 14557 C 1359.94 -1.31344 1.44131 0
M  V30 14558 O 1359.21 -1.85845 0.619556 0
M  V30 14559 H 1357.79 0.0134375 0.746879 0
M  V30 14560 H 1360.45 0.737362 1.80413 0
M  V30 14561 H 1359.55 -0.0374834 3.12077 0
M  V30 14562 N 1359.85 -1.54672 0.302354 0
M  V30 14563 C 1360.8 -2.2357 -0.573141 0
M  V30 14564 C 1361.77 -1.21878 -1.12849 0
M  V30 14565 O 1362.95 -1.50502 -1.17277 0
M  V30 14566 C 1360.09 -2.98111 -1.7385 0
M  V30 14567 C 1359.21 -4.14579 -1.21441 0
M  V30 14568 C 1358.34 -4.76699 -2.34374 0
M  V30 14569 C 1357.38 -5.8531 -1.79106 0
M  V30 14570 N 1356.52 -6.41379 -2.85618 0
M  V30 14571 H 1361.36 -2.97993 0.0209969 0
M  V30 14572 H 1358.9 -1.47083 0.0221318 0
M  V30 14573 H 1360.85 -3.39561 -2.42392 0
M  V30 14574 H 1359.48 -2.26063 -2.30425 0
M  V30 14575 H 1358.54 -3.78061 -0.421204 0
M  V30 14576 H 1359.85 -4.92824 -0.769821 0
M  V30 14577 H 1359 -5.21009 -3.10861 0
M  V30 14578 H 1357.74 -3.9779 -2.8216 0
M  V30 14579 H 1356.75 -5.40423 -1.01109 0
M  V30 14580 H 1357.97 -6.66104 -1.32222 0
M  V30 14581 H 1355.92 -5.65352 -3.32735 0
M  V30 14582 H 1355.83 -7.14974 -2.45659 0
M  V30 14583 H 1357.1 -6.90346 -3.61998 0
M  V30 14584 N 1361.33 -0.0301034 -1.57571 0
M  V30 14585 C 1362.26 0.94977 -2.13311 0
M  V30 14586 C 1363.24 1.33865 -1.04948 0
M  V30 14587 O 1364.43 1.4171 -1.32786 0
M  V30 14588 C 1361.56 2.23178 -2.66099 0
M  V30 14589 C 1360.51 1.98362 -3.79258 0
M  V30 14590 C 1359.84 3.32836 -4.18479 0
M  V30 14591 C 1361.14 1.32201 -5.05292 0
M  V30 14592 H 1362.83 0.485562 -2.95436 0
M  V30 14593 H 1360.38 0.232116 -1.42117 0
M  V30 14594 H 1362.33 2.92108 -3.03728 0
M  V30 14595 H 1361.05 2.71766 -1.81137 0
M  V30 14596 H 1359.71 1.31849 -3.42069 0
M  V30 14597 H 1359.36 3.79185 -3.30496 0
M  V30 14598 H 1359.06 3.17037 -4.94733 0
M  V30 14599 H 1360.58 4.03032 -4.58691 0
M  V30 14600 H 1362 1.91133 -5.40501 0
M  V30 14601 H 1360.4 1.26797 -5.86551 0
M  V30 14602 H 1361.47 0.29511 -4.84001 0
M  V30 14603 N 1362.81 1.55714 0.243056 0
M  V30 14604 C 1363.76 1.90638 1.30099 0
M  V30 14605 C 1364.73 0.761049 1.47639 0
M  V30 14606 O 1365.91 1.01505 1.61559 0
M  V30 14607 C 1363.05 2.20985 2.65065 0
M  V30 14608 C 1362.16 3.48343 2.55501 0
M  V30 14609 C 1361.3 3.68241 3.82847 0
M  V30 14610 C 1360.34 4.89187 3.67916 0
M  V30 14611 N 1359.47 5.05586 4.87162 0
M  V30 14612 H 1364.31 2.80857 0.996155 0
M  V30 14613 H 1361.85 1.39027 0.480619 0
M  V30 14614 H 1363.81 2.36585 3.43632 0
M  V30 14615 H 1362.44 1.33966 2.93689 0
M  V30 14616 H 1361.49 3.41054 1.68483 0
M  V30 14617 H 1362.8 4.37057 2.4038 0
M  V30 14618 H 1361.96 3.83822 4.69857 0
M  V30 14619 H 1360.7 2.77768 4.00869 0
M  V30 14620 H 1359.7 4.7358 2.79289 0
M  V30 14621 H 1360.93 5.81124 3.51385 0
M  V30 14622 H 1358.87 4.18051 5.05538 0
M  V30 14623 H 1358.79 5.88395 4.74686 0
M  V30 14624 H 1360.06 5.25582 5.7566 0
M  V30 14625 N 1364.29 -0.50888 1.49158 0
M  V30 14626 C 1365.53 -1.2635 1.58247 0
M  V30 14627 C 1365.86 -1.92677 0.265654 0
M  V30 14628 O 1365.12 -1.80931 -0.745818 0
M  V30 14629 C 1365.42 -2.35875 2.6851 0
M  V30 14630 C 1365.08 -1.87059 4.10268 0
M  V30 14631 C 1363.74 -1.73464 4.48847 0
M  V30 14632 C 1366.1 -1.50429 4.9902 0
M  V30 14633 C 1363.42 -1.21606 5.73959 0
M  V30 14634 C 1365.78 -1.00026 6.24642 0
M  V30 14635 C 1364.44 -0.850646 6.62058 0
M  V30 14636 H 1363.71 -0.462346 0.579066 0
M  V30 14637 H 1366.36 -0.565528 1.82959 0
M  V30 14638 H 1364.66 -3.11428 2.37739 0
M  V30 14639 H 1366.36 -2.9395 2.72753 0
M  V30 14640 H 1362.95 -1.98597 3.79812 0
M  V30 14641 H 1367.13 -1.59782 4.69876 0
M  V30 14642 H 1362.39 -1.08728 6.01655 0
M  V30 14643 H 1366.56 -0.707608 6.92796 0
M  V30 14644 H 1364.19 -0.446627 7.58887 0
M  V30 14645 N 1365.76 -1.381 -0.759346 0
M  V30 14646 C 1367.01 -1.33311 -1.51364 0
M  V30 14647 C 1367.33 0.0761325 -1.95452 0
M  V30 14648 O 1368.53 0.246541 -2.70378 0
M  V30 14649 C 1366.99 -2.34067 -2.73387 0
M  V30 14650 C 1366.6 -3.80583 -2.36348 0
M  V30 14651 C 1368.34 -2.38311 -3.51295 0
M  V30 14652 C 1366.25 -4.73039 -3.54948 0
M  V30 14653 H 1365.18 -0.495512 -0.568317 0
M  V30 14654 H 1367.83 -1.63625 -0.830602 0
M  V30 14655 H 1366.21 -1.96788 -3.43643 0
M  V30 14656 H 1367.38 -4.26769 -1.73796 0
M  V30 14657 H 1365.7 -3.79403 -1.71587 0
M  V30 14658 H 1368.3 -3.04586 -4.39467 0
M  V30 14659 H 1368.64 -1.40034 -3.92041 0
M  V30 14660 H 1369.17 -2.74361 -2.88047 0
M  V30 14661 H 1365.91 -5.7249 -3.19273 0
M  V30 14662 H 1365.43 -4.3155 -4.16563 0
M  V30 14663 H 1367.11 -4.90775 -4.21603 0
M  V30 14664 N 1367.24 0.986894 -1.22875 0
M  V30 14665 C 1368.49 1.72152 -1.05103 0
M  V30 14666 C 1368.8 1.91185 0.413248 0
M  V30 14667 O 1370.01 2.62031 0.710759 0
M  V30 14668 C 1368.47 3.09771 -1.8322 0
M  V30 14669 C 1368.07 2.98648 -3.33936 0
M  V30 14670 C 1369.82 3.87238 -1.73917 0
M  V30 14671 C 1367.73 4.31459 -4.04471 0
M  V30 14672 H 1366.66 0.645498 -0.389677 0
M  V30 14673 H 1369.31 1.10125 -1.46781 0
M  V30 14674 H 1367.69 3.72515 -1.34345 0
M  V30 14675 H 1368.86 2.45033 -3.9025 0
M  V30 14676 H 1367.18 2.34661 -3.43982 0
M  V30 14677 H 1369.77 4.85549 -2.23933 0
M  V30 14678 H 1370.12 4.1036 -0.700711 0
M  V30 14679 H 1370.65 3.31183 -2.20369 0
M  V30 14680 H 1367.39 4.13534 -5.08596 0
M  V30 14681 H 1366.91 4.84964 -3.52944 0
M  V30 14682 H 1368.59 5.00179 -4.10403 0
M  V30 14683 N 1368.72 1.0394 1.18466 0
M  V30 14684 C 1370.13 0.77011 1.70077 0
M  V30 14685 C 1370.48 -0.70916 1.82935 0
M  V30 14686 O 1369.61 -1.55209 1.50795 0
M  V30 14687 C 1370.2 1.39132 3.08914 0
M  V30 14688 C 1368.76 1.17037 3.57742 0
M  V30 14689 C 1367.91 1.48279 2.34326 0
M  V30 14690 H 1370.86 1.20598 1.03159 0
M  V30 14691 H 1370.88 0.793861 3.72126 0
M  V30 14692 H 1370.39 2.46795 2.99523 0
M  V30 14693 H 1368.49 0.112435 3.7243 0
M  V30 14694 H 1368.61 1.8665 4.41247 0
M  V30 14695 H 1366.97 0.902438 2.38177 0
M  V30 14696 H 1367.75 2.57047 2.27556 0
M  V30 14697 N 1370.2 -1.34667 0.818693 0
M  V30 14698 C 1371.42 -2.03173 0.416585 0
M  V30 14699 C 1371.85 -1.61261 -0.968321 0
M  V30 14700 O 1371.21 -0.79517 -1.62932 0
M  V30 14701 C 1371.25 -3.56803 0.521884 0
M  V30 14702 O 1370.36 -4.09827 -0.459953 0
M  V30 14703 H 1369.7 -0.6413 0.172136 0
M  V30 14704 H 1372.23 -1.72006 1.10794 0
M  V30 14705 H 1372.24 -4.06073 0.3961 0
M  V30 14706 H 1370.91 -3.86656 1.53198 0
M  V30 14707 H 1369.49 -3.71744 -0.293405 0
M  V30 14708 N 1371.68 -0.573274 -1.46804 0
M  V30 14709 C 1373.09 -0.144162 -1.86143 0
M  V30 14710 C 1373.44 1.29033 -1.47801 0
M  V30 14711 O 1372.56 1.97319 -0.888494 0
M  V30 14712 C 1373.16 -0.254851 -3.3784 0
M  V30 14713 C 1371.72 0.119325 -3.76211 0
M  V30 14714 C 1370.86 -0.595115 -2.70839 0
M  V30 14715 H 1373.82 -0.782057 -1.38093 0
M  V30 14716 H 1373.84 0.522321 -3.76898 0
M  V30 14717 H 1373.35 -1.29899 -3.65715 0
M  V30 14718 H 1371.45 1.16396 -3.53953 0
M  V30 14719 H 1371.56 -0.250421 -4.78445 0
M  V30 14720 H 1369.93 -0.0364028 -2.54674 0
M  V30 14721 H 1370.71 -1.64072 -3.01555 0
M  V30 14722 N 1373.15 1.5451 -0.310553 0
M  V30 14723 C 1374.1 2.23871 0.561277 0
M  V30 14724 C 1375.07 1.22475 1.12202 0
M  V30 14725 O 1376.26 1.51121 1.16477 0
M  V30 14726 C 1373.4 2.99029 1.72267 0
M  V30 14727 C 1372.51 4.15218 1.19241 0
M  V30 14728 C 1371.64 4.77935 2.31843 0
M  V30 14729 C 1370.68 5.86251 1.75999 0
M  V30 14730 N 1369.82 6.42885 2.82212 0
M  V30 14731 H 1374.66 2.97977 -0.0367998 0
M  V30 14732 H 1372.2 1.4707 -0.0299317 0
M  V30 14733 H 1374.16 3.40842 2.40588 0
M  V30 14734 H 1372.79 2.27281 2.29223 0
M  V30 14735 H 1371.84 3.78279 0.401148 0
M  V30 14736 H 1373.15 4.93225 0.743675 0
M  V30 14737 H 1372.3 5.2265 3.08094 0
M  V30 14738 H 1371.04 3.99281 2.80047 0
M  V30 14739 H 1370.05 5.40952 0.982415 0
M  V30 14740 H 1371.27 6.66795 1.28688 0
M  V30 14741 H 1369.22 5.67109 3.29732 0
M  V30 14742 H 1369.14 7.16267 2.41864 0
M  V30 14743 H 1370.4 6.92256 3.58332 0
M  V30 14744 N 1374.63 0.0384594 1.57553 0
M  V30 14745 C 1376.05 -0.318006 1.564 0
M  V30 14746 C 1376.25 -1.72287 1.04496 0
M  V30 14747 O 1375.31 -2.42722 0.695861 0
M  V30 14748 C 1376.62 -0.158079 3.00284 0
M  V30 14749 C 1378.17 -0.230143 3.12153 0
M  V30 14750 C 1378.64 -0.0988948 4.57893 0
M  V30 14751 N 1380.13 -0.15558 4.62939 0
M  V30 14752 C 1380.87 -0.077948 5.73347 0
M  V30 14753 N 1380.36 0.0513054 6.92781 0
M  V30 14754 N 1382.16 -0.132612 5.61944 0
M  V30 14755 H 1374.31 0.957014 1.89618 0
M  V30 14756 H 1376.57 0.370396 0.872646 0
M  V30 14757 H 1376.28 0.810032 3.42245 0
M  V30 14758 H 1376.15 -0.924413 3.65697 0
M  V30 14759 H 1378.54 -1.18872 2.70099 0
M  V30 14760 H 1378.62 0.56673 2.49443 0
M  V30 14761 H 1378.26 0.856301 5.00629 0
M  V30 14762 H 1378.19 -0.91475 5.18594 0
M  V30 14763 H 1380.68 -0.255245 3.77037 0
M  V30 14764 H 1381 0.103595 7.72731 0
M  V30 14765 H 1379.34 0.0862166 6.94947 0
M  V30 14766 H 1382.53 -0.232056 4.67524 0
M  V30 14767 H 1382.71 -0.0686506 6.47964 0
M  V30 14768 N 1376.11 -1.55841 -0.234795 0
M  V30 14769 C 1377.52 -1.68555 -0.802886 0
M  V30 14770 C 1377.87 -0.638107 -1.85533 0
M  V30 14771 O 1377 0.21333 -2.15346 0
M  V30 14772 C 1377.59 -3.0558 -1.46309 0
M  V30 14773 C 1376.15 -3.20192 -1.97874 0
M  V30 14774 C 1375.3 -2.64457 -0.834136 0
M  V30 14775 H 1378.25 -1.58697 -0.0103759 0
M  V30 14776 H 1378.27 -3.007 -2.33152 0
M  V30 14777 H 1377.78 -3.81792 -0.696868 0
M  V30 14778 H 1375.88 -2.48825 -2.77339 0
M  V30 14779 H 1376 -4.27251 -2.1678 0
M  V30 14780 H 1374.36 -2.22593 -1.23791 0
M  V30 14781 H 1375.14 -3.43205 -0.0807988 0
M  V30 14782 N 1377.59 0.500963 -1.49426 0
M  V30 14783 C 1378.84 1.25694 -1.5915 0
M  V30 14784 C 1379.17 1.92209 -0.277365 0
M  V30 14785 O 1378.44 1.8072 0.719065 0
M  V30 14786 C 1378.73 2.32391 -2.75076 0
M  V30 14787 C 1378.58 1.70377 -4.16283 0
M  V30 14788 C 1379.9 3.33952 -2.86643 0
M  V30 14789 H 1377.02 0.455631 -0.579283 0
M  V30 14790 H 1379.66 0.555099 -1.8171 0
M  V30 14791 H 1377.81 2.92252 -2.55971 0
M  V30 14792 H 1379.48 1.14343 -4.46904 0
M  V30 14793 H 1377.72 1.00789 -4.21929 0
M  V30 14794 H 1378.4 2.47767 -4.9327 0
M  V30 14795 H 1380.87 2.84081 -3.04035 0
M  V30 14796 H 1379.75 4.05969 -3.69433 0
M  V30 14797 H 1380.01 3.96279 -1.95998 0
M  V30 14798 N 1379.07 1.38501 0.752011 0
M  V30 14799 C 1380.01 1.35857 1.86578 0
M  V30 14800 C 1380.98 0.220873 1.64625 0
M  V30 14801 O 1382.17 0.413348 1.86269 0
M  V30 14802 C 1379.31 1.19102 3.23896 0
M  V30 14803 C 1378.42 2.42272 3.5767 0
M  V30 14804 C 1377.56 2.18236 4.843 0
M  V30 14805 C 1376.6 3.37169 5.10865 0
M  V30 14806 N 1375.73 3.12558 6.28691 0
M  V30 14807 H 1380.57 2.31073 1.88173 0
M  V30 14808 H 1378.11 1.14803 0.919712 0
M  V30 14809 H 1380.07 1.07404 4.03138 0
M  V30 14810 H 1378.7 0.275243 3.21624 0
M  V30 14811 H 1377.75 2.64638 2.7326 0
M  V30 14812 H 1379.06 3.3091 3.73229 0
M  V30 14813 H 1378.22 2.03682 5.71488 0
M  V30 14814 H 1376.96 1.26966 4.70883 0
M  V30 14815 H 1375.96 3.52241 4.22145 0
M  V30 14816 H 1377.19 4.29317 5.26178 0
M  V30 14817 H 1375.13 2.23937 6.16594 0
M  V30 14818 H 1375.05 3.94746 6.44757 0
M  V30 14819 H 1376.32 3.01663 7.18763 0
M  V30 14820 N 1380.55 -0.980364 1.23396 0
M  V30 14821 C 1381.48 -2.0908 1.0396 0
M  V30 14822 C 1382.46 -1.70044 -0.0434946 0
M  V30 14823 O 1383.64 -1.93822 0.121155 0
M  V30 14824 C 1380.77 -3.41537 0.630061 0
M  V30 14825 C 1379.73 -3.94476 1.66051 0
M  V30 14826 C 1379.05 -5.23128 1.10641 0
M  V30 14827 C 1380.35 -4.23741 3.05354 0
M  V30 14828 H 1382.05 -2.25598 1.9684 0
M  V30 14829 H 1379.59 -1.08409 0.94781 0
M  V30 14830 H 1381.54 -4.18644 0.481145 0
M  V30 14831 H 1380.27 -3.24883 -0.334416 0
M  V30 14832 H 1378.93 -3.19513 1.79742 0
M  V30 14833 H 1378.58 -5.02824 0.132913 0
M  V30 14834 H 1378.28 -5.59515 1.79492 0
M  V30 14835 H 1379.8 -6.02857 0.969344 0
M  V30 14836 H 1381.21 -4.91598 2.94964 0
M  V30 14837 H 1379.61 -4.71329 3.71442 0
M  V30 14838 H 1380.68 -3.31012 3.54343 0
M  V30 14839 N 1382.02 -1.04567 -1.17913 0
M  V30 14840 C 1382.95 -0.662066 -2.23917 0
M  V30 14841 C 1383.93 0.33713 -1.66726 0
M  V30 14842 O 1385.12 0.216116 -1.92994 0
M  V30 14843 C 1382.25 -0.029463 -3.47288 0
M  V30 14844 C 1381.2 -0.95274 -4.17261 0
M  V30 14845 C 1380.53 -0.184347 -5.34382 0
M  V30 14846 C 1381.83 -2.2741 -4.70194 0
M  V30 14847 H 1383.52 -1.54826 -2.5626 0
M  V30 14848 H 1381.07 -0.745886 -1.23177 0
M  V30 14849 H 1383.02 0.250654 -4.20654 0
M  V30 14850 H 1381.75 0.891638 -3.14193 0
M  V30 14851 H 1380.41 -1.21732 -3.45799 0
M  V30 14852 H 1380.05 0.73932 -4.97537 0
M  V30 14853 H 1379.75 -0.79949 -5.82136 0
M  V30 14854 H 1381.28 0.0886344 -6.10536 0
M  V30 14855 H 1382.69 -2.05433 -5.35229 0
M  V30 14856 H 1381.09 -2.84265 -5.28501 0
M  V30 14857 H 1382.16 -2.91708 -3.87342 0
M  V30 14858 N 1383.5 1.34231 -0.825823 0
M  V30 14859 C 1384.73 2.02949 -0.427354 0
M  V30 14860 C 1385.15 1.61772 0.959755 0
M  V30 14861 O 1384.51 0.803799 1.62508 0
M  V30 14862 C 1384.56 3.56522 -0.540799 0
M  V30 14863 O 1383.66 4.10065 0.438213 0
M  V30 14864 H 1383 0.640378 -0.175535 0
M  V30 14865 H 1385.53 1.71416 -1.11704 0
M  V30 14866 H 1385.54 4.05857 -0.41763 0
M  V30 14867 H 1384.22 3.85839 -1.55246 0
M  V30 14868 H 1382.79 3.71894 0.273687 0
M  V30 14869 N 1384.98 0.581051 1.46498 0
M  V30 14870 C 1386.23 0.0658652 2.01993 0
M  V30 14871 C 1386.55 -1.29807 1.45516 0
M  V30 14872 O 1385.82 -1.85177 0.639233 0
M  V30 14873 H 1384.4 0.0213584 0.746695 0
M  V30 14874 H 1387.06 0.756456 1.79621 0
M  V30 14875 H 1386.16 -0.00438128 3.121 0
M  V30 14876 N 1386.46 -1.54343 0.318742 0
M  V30 14877 C 1387.71 -2.00084 -0.284713 0
M  V30 14878 C 1388.03 -1.20855 -1.53033 0
M  V30 14879 O 1387.3 -0.309104 -1.93446 0
M  V30 14880 H 1385.88 -0.739123 -0.108193 0
M  V30 14881 H 1388.54 -1.90002 0.434174 0
M  V30 14882 H 1387.63 -3.07314 -0.544459 0
M  V30 14883 N 1387.94 -0.0468143 -1.5753 0
M  V30 14884 C 1388.88 0.946945 -2.12452 0
M  V30 14885 C 1389.88 1.32515 -1.05527 0
M  V30 14886 O 1391.08 1.30532 -1.23941 0
M  V30 14887 H 1387.46 0.323223 -0.678993 0
M  V30 14888 H 1389.43 0.45858 -2.94855 0
M  V30 14889 C 1388.18 2.21402 -2.68098 0
M  V30 14890 H 1387.5 1.93178 -3.50032 0
M  V30 14891 H 1388.94 2.89105 -3.10152 0
M  V30 14892 C 1387.4 2.95576 -1.61668 0
M  V30 14893 O 1387.93 3.88353 -1.02689 0
M  V30 14894 N 1386.14 2.58228 -1.33291 0
M  V30 14895 H 1385.68 1.82858 -1.8144 0
M  V30 14896 H 1385.64 3.08164 -0.623092 0
M  V30 14897 N 1389.41 1.55964 0.226527 0
M  V30 14898 C 1390.64 1.82823 0.968673 0
M  V30 14899 C 1391.06 0.625281 1.78145 0
M  V30 14900 O 1390.41 -0.40617 1.77923 0
M  V30 14901 C 1390.47 3.08143 1.89024 0
M  V30 14902 O 1390.19 4.23797 1.11032 0
M  V30 14903 C 1391.69 3.47954 2.74669 0
M  V30 14904 H 1388.91 0.607876 0.284126 0
M  V30 14905 H 1391.45 2.03048 0.243258 0
M  V30 14906 H 1389.61 2.89908 2.56967 0
M  V30 14907 H 1390.02 4.94957 1.73546 0
M  V30 14908 H 1391.49 4.38691 3.35044 0
M  V30 14909 H 1391.97 2.69476 3.46813 0
M  V30 14910 H 1392.58 3.6861 2.12147 0
M  V30 14911 N 1390.89 -0.493031 1.4969 0
M  V30 14912 C 1391.82 -1.60215 1.69863 0
M  V30 14913 C 1392.8 -1.61053 0.547362 0
M  V30 14914 O 1393.99 -1.77667 0.784093 0
M  V30 14915 C 1391.12 -2.98662 1.77252 0
M  V30 14916 C 1390.07 -3.1269 2.92248 0
M  V30 14917 C 1389.4 -4.52567 2.84758 0
M  V30 14918 C 1390.7 -2.91965 4.33074 0
M  V30 14919 H 1392.39 -1.43587 2.62723 0
M  V30 14920 H 1389.94 -0.689334 1.26429 0
M  V30 14921 H 1391.89 -3.7616 1.89951 0
M  V30 14922 H 1390.62 -3.16397 0.809976 0
M  V30 14923 H 1389.27 -2.37619 2.79164 0
M  V30 14924 H 1388.92 -4.6719 1.86394 0
M  V30 14925 H 1388.62 -4.62893 3.61944 0
M  V30 14926 H 1390.15 -5.32116 2.99475 0
M  V30 14927 H 1391.56 -3.59228 4.46798 0
M  V30 14928 H 1389.96 -3.13756 5.11544 0
M  V30 14929 H 1391.03 -1.88015 4.46966 0
M  V30 14930 N 1392.37 -1.38898 -0.744656 0
M  V30 14931 C 1393.32 -1.33342 -1.84943 0
M  V30 14932 C 1394.3 -0.216036 -1.59443 0
M  V30 14933 O 1395.5 -0.452764 -1.71111 0
M  V30 14934 C 1392.63 -1.16966 -3.2276 0
M  V30 14935 C 1391.71 -2.33365 -3.54121 0
M  V30 14936 N 1392.1 -3.58824 -3.56481 0
M  V30 14937 C 1390.4 -2.26112 -3.84434 0
M  V30 14938 C 1391.1 -4.35741 -3.85364 0
M  V30 14939 N 1390.08 -3.65206 -4.02648 0
M  V30 14940 H 1393.88 -2.28321 -1.85059 0
M  V30 14941 H 1391.39 -1.32257 -0.94244 0
M  V30 14942 H 1393.39 -1.11069 -4.01832 0
M  V30 14943 H 1392.05 -0.229288 -3.23889 0
M  V30 14944 H 1393.06 -3.92377 -3.38025 0
M  V30 14945 H 1389.74 -1.40283 -3.93226 0
M  V30 14946 H 1391.13 -5.44445 -3.93738 0
M  V30 14947 N 1393.85 0.973806 -1.23914 0
M  V30 14948 C 1394.78 2.08526 -1.05068 0
M  V30 14949 C 1395.76 1.70065 0.0344761 0
M  V30 14950 O 1396.94 1.93755 -0.131432 0
M  V30 14951 C 1394.07 3.41198 -0.648165 0
M  V30 14952 C 1393.03 3.9359 -1.6814 0
M  V30 14953 C 1392.35 5.22534 -1.13414 0
M  V30 14954 C 1393.65 4.22116 -3.07597 0
M  V30 14955 H 1395.35 2.24551 -1.98034 0
M  V30 14956 H 1392.89 1.07905 -0.953546 0
M  V30 14957 H 1394.85 4.18383 -0.50334 0
M  V30 14958 H 1393.57 3.25056 0.317182 0
M  V30 14959 H 1392.23 3.18555 -1.81434 0
M  V30 14960 H 1391.88 5.02747 -0.159578 0
M  V30 14961 H 1391.58 5.58555 -1.82456 0
M  V30 14962 H 1393.1 6.02334 -1.0013 0
M  V30 14963 H 1394.52 4.90027 -2.97567 0
M  V30 14964 H 1392.91 4.69352 -3.73937 0
M  V30 14965 H 1393.98 3.29128 -3.56094 0
M  V30 14966 N 1395.33 1.05191 1.17357 0
M  V30 14967 C 1396.57 0.763113 1.87895 0
M  V30 14968 C 1396.91 -0.708071 1.80831 0
M  V30 14969 O 1396.18 -1.51777 1.21631 0
M  V30 14970 C 1396.46 1.2442 3.37923 0
M  V30 14971 C 1396.32 2.77832 3.53737 0
M  V30 14972 C 1397.64 0.843209 4.31947 0
M  V30 14973 H 1394.75 0.27869 0.682276 0
M  V30 14974 H 1397.4 1.3059 1.38008 0
M  V30 14975 H 1395.55 0.782438 3.80539 0
M  V30 14976 H 1397.22 3.32131 3.20135 0
M  V30 14977 H 1395.46 3.17108 2.96015 0
M  V30 14978 H 1396.13 3.06555 4.59052 0
M  V30 14979 H 1398.61 1.24073 3.97171 0
M  V30 14980 H 1397.48 1.20743 5.35455 0
M  V30 14981 H 1397.75 -0.252802 4.41377 0
M  V30 14982 N 1396.8 -1.33791 0.83293 0
M  V30 14983 C 1398.03 -2.0272 0.438111 0
M  V30 14984 C 1398.45 -1.62279 -0.951163 0
M  V30 14985 O 1397.81 -0.812406 -1.62079 0
M  V30 14986 C 1397.86 -3.5623 0.559698 0
M  V30 14987 O 1396.96 -4.10292 -0.41646 0
M  V30 14988 H 1396.31 -0.639438 0.178928 0
M  V30 14989 H 1398.84 -1.70821 1.12612 0
M  V30 14990 H 1398.85 -4.0563 0.439148 0
M  V30 14991 H 1397.52 -3.8501 1.5729 0
M  V30 14992 H 1396.1 -3.72034 -0.25396 0
M  V30 14993 N 1398.28 -0.588812 -1.46187 0
M  V30 14994 C 1399.51 -0.0825301 -2.06735 0
M  V30 14995 C 1399.93 1.22507 -1.43658 0
M  V30 14996 O 1399.28 1.74203 -0.544022 0
M  V30 14997 C 1399.33 0.083501 -3.61404 0
M  V30 14998 O 1399.05 -1.17235 -4.22123 0
M  V30 14999 C 1400.56 0.623425 -4.38894 0
M  V30 15000 H 1397.78 -0.0602413 -0.66829 0
M  V30 15001 H 1400.32 -0.811215 -1.87722 0
M  V30 15002 H 1398.47 0.762432 -3.79823 0
M  V30 15003 H 1398.89 -0.990047 -5.15071 0
M  V30 15004 H 1400.36 0.688755 -5.47686 0
M  V30 15005 H 1400.84 1.64172 -4.07362 0
M  V30 15006 H 1401.45 -0.0208373 -4.25295 0
M  V30 15007 N 1399.76 1.54172 -0.326923 0
M  V30 15008 C 1400.99 2.05044 0.276508 0
M  V30 15009 C 1401.4 1.20288 1.45521 0
M  V30 15010 O 1400.76 0.234324 1.80989 0
M  V30 15011 C 1400.81 3.54505 0.707714 0
M  V30 15012 O 1400.53 4.36042 -0.424098 0
M  V30 15013 C 1402.03 4.21482 1.3736 0
M  V30 15014 H 1399.25 0.668632 0.0563273 0
M  V30 15015 H 1401.8 1.98929 -0.474087 0
M  V30 15016 H 1399.95 3.60896 1.40828 0
M  V30 15017 H 1400.37 5.24433 -0.0836846 0
M  V30 15018 H 1401.84 5.27501 1.62623 0
M  V30 15019 H 1402.32 3.72802 2.32196 0
M  V30 15020 H 1402.92 4.19238 0.715526 0
M  V30 15021 N 1401.24 0.0551678 1.57503 0
M  V30 15022 C 1402.19 -0.917847 2.11764 0
M  V30 15023 C 1403.16 -1.30624 1.02599 0
M  V30 15024 O 1404.34 -1.39501 1.30169 0
M  V30 15025 C 1401.48 -2.18599 2.67036 0
M  V30 15026 C 1400.59 -1.85173 3.90301 0
M  V30 15027 C 1399.73 -3.06475 4.33874 0
M  V30 15028 C 1398.77 -2.68988 5.49829 0
M  V30 15029 N 1397.9 -3.82997 5.88437 0
M  V30 15030 H 1402.74 -0.448236 2.9461 0
M  V30 15031 H 1400.28 -0.209619 1.45599 0
M  V30 15032 H 1402.24 -2.92811 2.97183 0
M  V30 15033 H 1400.87 -2.6313 1.86982 0
M  V30 15034 H 1399.92 -1.01094 3.66721 0
M  V30 15035 H 1401.23 -1.53582 4.74567 0
M  V30 15036 H 1400.39 -3.88982 4.65594 0
M  V30 15037 H 1399.13 -3.41247 3.48427 0
M  V30 15038 H 1398.13 -1.84899 5.17776 0
M  V30 15039 H 1399.36 -2.35404 6.36994 0
M  V30 15040 H 1397.3 -4.17562 5.05942 0
M  V30 15041 H 1397.22 -3.55118 6.67403 0
M  V30 15042 H 1398.49 -4.66131 6.24773 0
M  V30 15043 N 1402.72 -1.56081 -0.218252 0
M  V30 15044 C 1403.94 -1.83334 -0.958964 0
M  V30 15045 C 1404.36 -0.63472 -1.77811 0
M  V30 15046 O 1403.72 0.396729 -1.78136 0
M  V30 15047 C 1403.77 -3.09141 -1.87387 0
M  V30 15048 O 1403.49 -4.24379 -1.08783 0
M  V30 15049 C 1404.99 -3.49405 -2.7282 0
M  V30 15050 H 1402.21 -0.609375 -0.280898 0
M  V30 15051 H 1404.75 -2.03174 -0.232486 0
M  V30 15052 H 1402.91 -2.91267 -2.55426 0
M  V30 15053 H 1403.32 -4.9587 -1.70919 0
M  V30 15054 H 1404.8 -4.40461 -3.32713 0
M  V30 15055 H 1405.27 -2.71311 -3.45379 0
M  V30 15056 H 1405.88 -3.6973 -2.1019 0
M  V30 15057 N 1404.2 0.485086 -1.49949 0
M  V30 15058 C 1405.11 1.61089 -1.70551 0
M  V30 15059 C 1406.12 1.63752 -0.588333 0
M  V30 15060 O 1407.3 1.81879 -0.86498 0
M  V30 15061 C 1404.36 2.97382 -1.78227 0
M  V30 15062 C 1403.42 3.05219 -3.01894 0
M  V30 15063 C 1402.66 4.35011 -3.09195 0
M  V30 15064 O 1402.88 5.24722 -2.23658 0
M  V30 15065 O 1401.81 4.48151 -4.01802 0
M  V30 15066 H 1405.64 1.46633 -2.65956 0
M  V30 15067 H 1403.22 0.663091 -1.33879 0
M  V30 15068 H 1405.11 3.78356 -1.85538 0
M  V30 15069 H 1403.78 3.12066 -0.860043 0
M  V30 15070 H 1402.69 2.23373 -3.00092 0
M  V30 15071 H 1404.02 2.95467 -3.93649 0
M  V30 15072 N 1405.67 1.39291 0.737279 0
M  V30 15073 C 1406.92 1.36592 1.49901 0
M  V30 15074 C 1407.25 -0.0388812 1.94161 0
M  V30 15075 O 1406.53 -1.00337 1.66622 0
M  V30 15076 C 1406.81 2.33625 2.74028 0
M  V30 15077 C 1406.66 3.83037 2.35802 0
M  V30 15078 C 1407.98 2.28524 3.76118 0
M  V30 15079 H 1405.1 0.497482 0.543765 0
M  V30 15080 H 1407.74 1.70265 0.843193 0
M  V30 15081 H 1405.89 2.0504 3.29986 0
M  V30 15082 H 1407.57 4.22363 1.85493 0
M  V30 15083 H 1405.81 3.99924 1.68058 0
M  V30 15084 H 1406.48 4.46415 3.24681 0
M  V30 15085 H 1408.96 2.53794 3.29739 0
M  V30 15086 H 1407.83 2.98501 4.60639 0
M  V30 15087 H 1408.09 1.28949 4.22876 0
M  V30 15088 N 1407.15 -0.967221 1.24429 0
M  V30 15089 C 1408.4 -1.70458 1.07829 0
M  V30 15090 C 1408.71 -1.91818 -0.38278 0
M  V30 15091 O 1409.92 -2.63129 -0.668982 0
M  V30 15092 C 1408.38 -3.06817 1.88125 0
M  V30 15093 C 1407.98 -2.93298 3.38645 0
M  V30 15094 C 1409.73 -3.84422 1.80056 0
M  V30 15095 C 1407.63 -4.2497 4.11284 0
M  V30 15096 H 1406.56 -0.639217 0.399897 0
M  V30 15097 H 1409.22 -1.07776 1.48515 0
M  V30 15098 H 1407.6 -3.70331 1.40254 0
M  V30 15099 H 1408.77 -2.38793 3.94099 0
M  V30 15100 H 1407.09 -2.29159 3.47671 0
M  V30 15101 H 1409.68 -4.81925 2.31629 0
M  V30 15102 H 1410.03 -4.09194 0.765908 0
M  V30 15103 H 1410.56 -3.27636 2.2561 0
M  V30 15104 H 1407.3 -4.05391 5.1511 0
M  V30 15105 H 1406.82 -4.79288 3.60615 0
M  V30 15106 H 1408.5 -4.93586 4.18308 0
M  V30 15107 N 1408.63 -1.05812 -1.16797 0
M  V30 15108 C 1410.04 -0.79707 -1.6883 0
M  V30 15109 C 1410.39 0.679967 -1.8404 0
M  V30 15110 O 1409.52 1.5279 -1.53245 0
M  V30 15111 C 1410.11 -1.44029 -3.06661 0
M  V30 15112 C 1408.67 -1.22714 -3.55835 0
M  V30 15113 C 1407.82 -1.51988 -2.31937 0
M  V30 15114 H 1410.77 -1.22224 -1.01227 0
M  V30 15115 H 1410.79 -0.852962 -3.70816 0
M  V30 15116 H 1410.3 -2.51529 -2.95559 0
M  V30 15117 H 1408.4 -0.171671 -3.72204 0
M  V30 15118 H 1408.52 -1.93646 -4.38221 0
M  V30 15119 H 1406.88 -0.940215 -2.36711 0
M  V30 15120 H 1407.66 -2.60635 -2.23438 0
M  V30 15121 N 1410.11 1.33347 -0.840014 0
M  V30 15122 C 1411.52 1.80077 -0.492851 0
M  V30 15123 C 1411.87 1.69495 0.988221 0
M  V30 15124 O 1410.99 1.2449 1.77006 0
M  V30 15125 C 1411.59 3.2696 -0.887827 0
M  V30 15126 C 1410.15 3.71703 -0.592785 0
M  V30 15127 C 1409.3 2.54742 -1.09554 0
M  V30 15128 H 1412.25 1.20853 -1.02861 0
M  V30 15129 H 1412.27 3.79983 -0.198327 0
M  V30 15130 H 1411.78 3.3463 -1.96581 0
M  V30 15131 H 1409.88 3.69559 0.475086 0
M  V30 15132 H 1409.99 4.65123 -1.14882 0
M  V30 15133 H 1408.36 2.49411 -0.516357 0
M  V30 15134 H 1409.14 2.65173 -2.18032 0
M  V30 15135 N 1411.59 0.596556 1.45873 0
M  V30 15136 C 1412.52 -0.116229 2.33211 0
M  V30 15137 C 1413.5 -0.869868 1.46176 0
M  V30 15138 O 1414.68 -0.842599 1.74968 0
M  V30 15139 C 1411.81 -1.12145 3.28696 0
M  V30 15140 C 1410.77 -0.481749 4.2528 0
M  V30 15141 C 1410.09 -1.59443 5.10374 0
M  V30 15142 C 1411.39 0.589996 5.18957 0
M  V30 15143 H 1413.09 0.613005 2.93057 0
M  V30 15144 H 1410.63 0.296242 1.4092 0
M  V30 15145 H 1412.58 -1.62857 3.88659 0
M  V30 15146 H 1411.31 -1.88114 2.66985 0
M  V30 15147 H 1409.97 0.0044092 3.666 0
M  V30 15148 H 1409.62 -2.34413 4.45039 0
M  V30 15149 H 1409.32 -1.17197 5.75794 0
M  V30 15150 H 1410.84 -2.10404 5.73204 0
M  V30 15151 H 1412.25 0.167395 5.73056 0
M  V30 15152 H 1410.65 0.933565 5.92794 0
M  V30 15153 H 1411.72 1.47093 4.62052 0
M  V30 15154 N 1413.06 -1.53996 0.335095 0
M  V30 15155 C 1414.31 -1.99952 -0.264954 0
M  V30 15156 C 1414.63 -1.22696 -1.52332 0
M  V30 15157 O 1415.83 -1.59086 -2.20009 0
M  V30 15158 C 1414.29 -3.56085 -0.522667 0
M  V30 15159 C 1413.9 -4.42188 0.719314 0
M  V30 15160 C 1415.64 -4.10478 -1.08204 0
M  V30 15161 C 1413.55 -5.89814 0.432867 0
M  V30 15162 H 1412.48 -0.746962 -0.102782 0
M  V30 15163 H 1415.13 -1.77919 0.449111 0
M  V30 15164 H 1413.51 -3.7415 -1.29722 0
M  V30 15165 H 1414.68 -4.35898 1.49432 0
M  V30 15166 H 1413 -3.98743 1.19972 0
M  V30 15167 H 1415.6 -5.18375 -1.31116 0
M  V30 15168 H 1415.94 -3.63173 -2.03497 0
M  V30 15169 H 1416.47 -3.96091 -0.368395 0
M  V30 15170 H 1413.21 -6.41336 1.35529 0
M  V30 15171 H 1412.73 -5.99028 -0.304214 0
M  V30 15172 H 1414.41 -6.46983 0.0469657 0
M  V30 15173 N 1414.54 -0.0635198 -1.57472 0
M  V30 15174 C 1415.45 0.921531 -2.15743 0
M  V30 15175 C 1416.47 1.33294 -1.11842 0
M  V30 15176 O 1417.64 1.40733 -1.4407 0
M  V30 15177 C 1414.71 2.17378 -2.70088 0
M  V30 15178 C 1413.77 1.81956 -3.88832 0
M  V30 15179 C 1413 3.01211 -4.40577 0
M  V30 15180 O 1413.23 4.14971 -3.9135 0
M  V30 15181 O 1412.16 2.81507 -5.32012 0
M  V30 15182 H 1415.99 0.455899 -3.00259 0
M  V30 15183 H 1413.57 0.159085 -1.48551 0
M  V30 15184 H 1415.45 2.90826 -3.04956 0
M  V30 15185 H 1414.13 2.63055 -1.88637 0
M  V30 15186 H 1413.03 1.05786 -3.58832 0
M  V30 15187 H 1414.37 1.41069 -4.71551 0
M  V30 15188 N 1416.02 1.56195 0.209972 0
M  V30 15189 C 1416.97 1.94226 1.27981 0
M  V30 15190 C 1417.96 0.825742 1.47912 0
M  V30 15191 O 1419.17 1.01066 1.48949 0
M  V30 15192 H 1415.54 0.617395 0.429333 0
M  V30 15193 H 1417.51 2.83474 0.931946 0
M  V30 15194 C 1416.26 2.28527 2.62051 0
M  V30 15195 H 1415.59 3.1396 2.47526 0
M  V30 15196 H 1417.03 2.59012 3.35692 0
M  V30 15197 C 1415.48 1.11452 3.17931 0
M  V30 15198 O 1416.01 0.381713 3.99882 0
M  V30 15199 N 1414.22 0.895263 2.76466 0
M  V30 15200 H 1413.77 1.4929 2.09929 0
M  V30 15201 H 1413.73 0.113688 3.14194 0
M  V30 15202 N 1417.5 -0.477127 1.50204 0
M  V30 15203 C 1418.91 -0.81037 1.37496 0
M  V30 15204 C 1419.11 -1.96937 0.426399 0
M  V30 15205 O 1418.17 -2.52148 -0.133197 0
M  V30 15206 C 1419.48 -1.12811 2.78737 0
M  V30 15207 C 1421.03 -1.23492 2.87608 0
M  V30 15208 C 1421.51 -1.58583 4.29669 0
M  V30 15209 N 1423 -1.65586 4.32591 0
M  V30 15210 C 1423.73 -1.94231 5.39502 0
M  V30 15211 N 1423.23 -2.20936 6.56627 0
M  V30 15212 N 1425.02 -1.95682 5.26939 0
M  V30 15213 H 1417.17 0.286771 2.10455 0
M  V30 15214 H 1419.43 0.0657649 0.945716 0
M  V30 15215 H 1419.14 -0.349616 3.49958 0
M  V30 15216 H 1419.01 -2.0658 3.15602 0
M  V30 15217 H 1421.4 -2.0041 2.1661 0
M  V30 15218 H 1421.48 -0.277182 2.54294 0
M  V30 15219 H 1421.13 -0.822071 5.01203 0
M  V30 15220 H 1421.06 -2.55497 4.60466 0
M  V30 15221 H 1423.55 -1.47012 3.48132 0
M  V30 15222 H 1423.86 -2.42049 7.33916 0
M  V30 15223 H 1422.21 -2.18341 6.59812 0
M  V30 15224 H 1425.4 -1.74311 4.34434 0
M  V30 15225 H 1425.57 -2.1767 6.10347 0
M  V30 15226 N 1418.98 -1.3968 -0.729882 0
M  V30 15227 C 1419.91 -1.34713 -1.85432 0
M  V30 15228 C 1420.92 -0.254999 -1.60791 0
M  V30 15229 O 1422.11 -0.514324 -1.7093 0
M  V30 15230 C 1419.21 -1.07019 -3.21559 0
M  V30 15231 C 1418.38 -2.27609 -3.73515 0
M  V30 15232 C 1417.44 -1.96292 -4.88217 0
M  V30 15233 O 1416.47 -2.69025 -5.01612 0
M  V30 15234 N 1417.67 -0.932181 -5.72967 0
M  V30 15235 H 1420.44 -2.31616 -1.90195 0
M  V30 15236 H 1418 -1.33849 -0.910834 0
M  V30 15237 H 1419.99 -0.84079 -3.9587 0
M  V30 15238 H 1418.56 -0.188323 -3.12032 0
M  V30 15239 H 1417.78 -2.66468 -2.90497 0
M  V30 15240 H 1419.07 -3.08033 -4.04961 0
M  V30 15241 H 1418.46 -0.329507 -5.6474 0
M  V30 15242 H 1417.02 -0.762684 -6.47322 0
M  V30 15243 N 1420.45 0.960609 -1.2494 0
M  V30 15244 C 1421.68 1.7446 -1.12153 0
M  V30 15245 C 1422.1 1.85335 0.321315 0
M  V30 15246 O 1421.46 1.32944 1.23271 0
M  V30 15247 C 1421.51 3.13945 -1.774 0
M  V30 15248 O 1420.61 3.9882 -1.04958 0
M  V30 15249 H 1419.96 0.536007 -0.391909 0
M  V30 15250 H 1422.49 1.2045 -1.65388 0
M  V30 15251 H 1422.5 3.64434 -1.83444 0
M  V30 15252 H 1421.17 3.05346 -2.82377 0
M  V30 15253 H 1419.75 3.57293 -1.06752 0
M  V30 15254 N 1421.93 1.0643 1.16234 0
M  V30 15255 C 1423.18 0.792814 1.87313 0
M  V30 15256 C 1423.53 -0.673464 1.80228 0
M  V30 15257 O 1422.83 -1.48719 1.20803 0
M  V30 15258 C 1423.02 1.22348 3.35806 0
M  V30 15259 C 1422.85 2.73008 3.57347 0
M  V30 15260 C 1421.62 3.40491 3.73355 0
M  V30 15261 C 1423.82 3.7122 3.5595 0
M  V30 15262 N 1421.8 4.79888 3.82859 0
M  V30 15263 C 1423.17 4.96408 3.71455 0
M  V30 15264 C 1425.23 3.6451 3.3917 0
M  V30 15265 C 1423.93 6.15688 3.71915 0
M  V30 15266 C 1425.95 4.83243 3.40925 0
M  V30 15267 C 1425.32 6.07261 3.5695 0
M  V30 15268 H 1421.42 0.342531 0.702991 0
M  V30 15269 H 1424 1.35872 1.39452 0
M  V30 15270 H 1422.17 0.685388 3.82305 0
M  V30 15271 H 1423.9 0.900518 3.94554 0
M  V30 15272 H 1420.66 2.90893 3.73735 0
M  V30 15273 H 1421.08 5.52407 3.91376 0
M  V30 15274 H 1425.72 2.69582 3.25708 0
M  V30 15275 H 1423.44 7.10948 3.8416 0
M  V30 15276 H 1427.03 4.79719 3.29182 0
M  V30 15277 H 1425.91 6.97597 3.58228 0
M  V30 15278 N 1423.41 -1.329 0.847073 0
M  V30 15279 C 1424.64 -2.02244 0.459588 0
M  V30 15280 C 1425.06 -1.63279 -0.933897 0
M  V30 15281 O 1424.42 -0.829551 -1.61208 0
M  V30 15282 C 1424.47 -3.55616 0.59745 0
M  V30 15283 O 1423.57 -4.1071 -0.372919 0
M  V30 15284 H 1422.91 -0.637504 0.1857 0
M  V30 15285 H 1425.44 -1.69617 1.14417 0
M  V30 15286 H 1425.45 -4.05141 0.482145 0
M  V30 15287 H 1424.13 -3.8332 1.61365 0
M  V30 15288 H 1422.7 -3.72283 -0.214487 0
M  V30 15289 N 1424.89 -0.604284 -1.45555 0
M  V30 15290 C 1426.13 -0.0983316 -2.02561 0
M  V30 15291 C 1426.47 1.26659 -1.47211 0
M  V30 15292 O 1425.74 1.83476 -0.645519 0
M  V30 15293 C 1426.03 -0.0558349 -3.60057 0
M  V30 15294 C 1425.88 -1.45119 -4.25747 0
M  V30 15295 C 1427.2 0.633708 -4.35514 0
M  V30 15296 H 1424.32 -0.0372071 -0.73606 0
M  V30 15297 H 1426.96 -0.775623 -1.73448 0
M  V30 15298 H 1425.11 0.520935 -3.84992 0
M  V30 15299 H 1426.78 -2.07478 -4.12008 0
M  V30 15300 H 1425.02 -2.01283 -3.84275 0
M  V30 15301 H 1425.69 -1.37372 -5.34633 0
M  V30 15302 H 1428.17 0.143501 -4.15852 0
M  V30 15303 H 1427.05 0.632538 -5.45243 0
M  V30 15304 H 1427.31 1.69917 -4.08143 0
M  V30 15305 N 1426.37 1.53816 -0.343257 0
M  V30 15306 C 1427.61 2.0282 0.253695 0
M  V30 15307 C 1427.97 1.22564 1.47791 0
M  V30 15308 O 1429.17 1.61464 2.14902 0
M  V30 15309 C 1427.44 3.5298 0.560361 0
M  V30 15310 S 1429 4.23889 1.13416 0
M  V30 15311 H 1425.82 0.706976 0.0755344 0
M  V30 15312 H 1428.42 1.89492 -0.480951 0
M  V30 15313 H 1427.13 4.09002 -0.338451 0
M  V30 15314 H 1426.66 3.70426 1.32468 0
M  V30 15315 H 1428.67 4.33192 2.4199 0
M  V30 15316 N 1427.84 0.0718701 1.57436 0
M  V30 15317 C 1428.79 -0.895335 2.12726 0
M  V30 15318 C 1429.76 -1.29528 1.03979 0
M  V30 15319 O 1430.95 -1.38113 1.31642 0
M  V30 15320 C 1428.09 -2.15755 2.6934 0
M  V30 15321 C 1427.2 -1.81023 3.92243 0
M  V30 15322 C 1426.33 -3.01856 4.371 0
M  V30 15323 C 1425.37 -2.63141 5.52651 0
M  V30 15324 N 1424.51 -3.76734 5.92466 0
M  V30 15325 H 1429.35 -0.416964 2.95068 0
M  V30 15326 H 1426.89 -0.194165 1.45813 0
M  V30 15327 H 1428.85 -2.89642 3.00272 0
M  V30 15328 H 1427.48 -2.61132 1.89762 0
M  V30 15329 H 1426.53 -0.971983 3.67773 0
M  V30 15330 H 1427.84 -1.4854 4.76169 0
M  V30 15331 H 1426.99 -3.84022 4.69694 0
M  V30 15332 H 1425.73 -3.37533 3.52027 0
M  V30 15333 H 1424.74 -1.79397 5.19708 0
M  V30 15334 H 1425.96 -2.28635 6.39455 0
M  V30 15335 H 1423.91 -4.12173 5.10343 0
M  V30 15336 H 1423.83 -3.48019 6.71132 0
M  V30 15337 H 1425.09 -4.59479 6.29682 0
M  V30 15338 N 1429.32 -1.56304 -0.201686 0
M  V30 15339 C 1430.25 -1.90538 -1.27389 0
M  V30 15340 C 1431.27 -0.795422 -1.42045 0
M  V30 15341 O 1432.46 -1.07381 -1.42589 0
M  V30 15342 C 1429.56 -2.11638 -2.64694 0
M  V30 15343 C 1428.73 -3.42755 -2.71731 0
M  V30 15344 C 1427.79 -3.53047 -3.90185 0
M  V30 15345 O 1426.81 -4.25923 -3.77595 0
M  V30 15346 N 1428.02 -2.85649 -5.05356 0
M  V30 15347 H 1430.78 -2.83106 -0.983411 0
M  V30 15348 H 1428.34 -1.57092 -0.391638 0
M  V30 15349 H 1430.33 -2.15818 -3.42352 0
M  V30 15350 H 1428.9 -1.256 -2.86258 0
M  V30 15351 H 1428.12 -3.50501 -1.80397 0
M  V30 15352 H 1429.41 -4.29092 -2.73418 0
M  V30 15353 H 1428.81 -2.26256 -5.18483 0
M  V30 15354 H 1427.37 -2.95465 -5.80985 0
M  V30 15355 N 1430.8 0.469154 -1.50455 0
M  V30 15356 C 1432.05 1.2229 -1.6178 0
M  V30 15357 C 1432.38 1.91577 -0.318073 0
M  V30 15358 O 1431.65 1.82205 0.68057 0
M  V30 15359 C 1431.94 2.26504 -2.79943 0
M  V30 15360 C 1431.79 1.61509 -4.19804 0
M  V30 15361 C 1433.11 3.27796 -2.93662 0
M  V30 15362 H 1430.23 0.443241 -0.588817 0
M  V30 15363 H 1432.87 0.516431 -1.82847 0
M  V30 15364 H 1431.02 2.86757 -2.62112 0
M  V30 15365 H 1432.69 1.04838 -4.49229 0
M  V30 15366 H 1430.94 0.918162 -4.23972 0
M  V30 15367 H 1431.61 2.37248 -4.98415 0
M  V30 15368 H 1434.08 2.77568 -3.09992 0
M  V30 15369 H 1432.96 3.98041 -3.77961 0
M  V30 15370 H 1433.22 3.92033 -2.04359 0
M  V30 15371 N 1432.28 1.40065 0.722464 0
M  V30 15372 C 1433.53 1.3797 1.48224 0
M  V30 15373 C 1433.85 -0.0202588 1.94489 0
M  V30 15374 O 1433.11 -1.0035 1.68013 0
M  V30 15375 C 1433.41 2.30949 2.72759 0
M  V30 15376 C 1433.07 3.7834 2.45295 0
M  V30 15377 C 1431.74 4.18497 2.37515 0
M  V30 15378 C 1434.09 4.71509 2.221 0
M  V30 15379 C 1431.42 5.4987 2.04598 0
M  V30 15380 C 1433.77 6.03173 1.90697 0
M  V30 15381 C 1432.43 6.4238 1.81394 0
M  V30 15382 H 1431.7 0.504869 0.542392 0
M  V30 15383 H 1434.35 1.72667 0.828149 0
M  V30 15384 H 1432.65 1.89413 3.42972 0
M  V30 15385 H 1434.35 2.26615 3.30827 0
M  V30 15386 H 1430.94 3.46519 2.52235 0
M  V30 15387 H 1435.12 4.41308 2.27071 0
M  V30 15388 H 1430.38 5.79157 1.95928 0
M  V30 15389 H 1434.55 6.74886 1.71761 0
M  V30 15390 H 1432.18 7.44094 1.55654 0
M  V30 15391 N 1433.76 -0.95397 1.25448 0
M  V30 15392 C 1435.17 -1.51337 1.09335 0
M  V30 15393 C 1435.52 -1.93393 -0.330698 0
M  V30 15394 O 1434.64 -1.78681 -1.22074 0
M  V30 15395 C 1435.24 -2.75024 1.97857 0
M  V30 15396 C 1433.8 -3.27274 1.85927 0
M  V30 15397 C 1432.95 -2.00108 1.91969 0
M  V30 15398 H 1435.9 -0.770795 1.38724 0
M  V30 15399 H 1435.92 -3.48867 1.51894 0
M  V30 15400 H 1435.43 -2.44383 3.01494 0
M  V30 15401 H 1433.53 -3.62734 0.851767 0
M  V30 15402 H 1433.64 -3.95245 2.70773 0
M  V30 15403 H 1432.01 -2.15438 1.35862 0
M  V30 15404 H 1432.79 -1.71816 2.97211 0
M  V30 15405 N 1435.24 -1.07045 -1.15668 0
M  V30 15406 C 1436.48 -0.790172 -1.86013 0
M  V30 15407 C 1436.8 0.685663 -1.82548 0
M  V30 15408 O 1436.07 1.49644 -1.26426 0
M  V30 15409 H 1434.65 -0.28931 -0.688701 0
M  V30 15410 H 1437.32 -1.35354 -1.40233 0
M  V30 15411 H 1436.41 -1.1219 -2.91239 0
M  V30 15412 N 1436.71 1.32449 -0.85411 0
M  V30 15413 C 1437.64 2.31383 -0.313697 0
M  V30 15414 C 1438.62 1.59656 0.586858 0
M  V30 15415 O 1439.81 1.87459 0.507216 0
M  V30 15416 C 1436.94 3.43693 0.499235 0
M  V30 15417 C 1435.89 4.26899 -0.306839 0
M  V30 15418 C 1435.22 5.30966 0.630795 0
M  V30 15419 C 1436.52 4.99318 -1.53229 0
M  V30 15420 H 1438.21 2.76832 -1.14037 0
M  V30 15421 H 1435.76 1.33091 -0.549805 0
M  V30 15422 H 1437.71 4.11944 0.887709 0
M  V30 15423 H 1436.44 2.96971 1.35926 0
M  V30 15424 H 1435.1 3.60294 -0.677061 0
M  V30 15425 H 1434.74 4.80498 1.48765 0
M  V30 15426 H 1434.44 5.87522 0.0954635 0
M  V30 15427 H 1435.97 6.0208 1.01646 0
M  V30 15428 H 1437.38 5.60253 -1.21614 0
M  V30 15429 H 1435.78 5.65596 -2.00552 0
M  V30 15430 H 1436.85 4.27213 -2.29383 0
M  V30 15431 N 1438.19 0.611994 1.45232 0
M  V30 15432 C 1439.14 -0.116695 2.32307 0
M  V30 15433 C 1440.13 -0.85519 1.46229 0
M  V30 15434 O 1441.34 -0.770257 1.62687 0
M  V30 15435 H 1437.71 -0.0564902 0.749875 0
M  V30 15436 H 1439.69 0.636073 2.91542 0
M  V30 15437 C 1438.43 -1.09768 3.29919 0
M  V30 15438 H 1437.76 -0.538848 3.96152 0
M  V30 15439 H 1439.2 -1.57739 3.93566 0
M  V30 15440 C 1437.66 -2.17344 2.57417 0
M  V30 15441 O 1438.19 -3.2515 2.35882 0
M  V30 15442 N 1436.39 -1.92749 2.17477 0
M  V30 15443 H 1435.94 -1.05084 2.35192 0
M  V30 15444 H 1435.9 -2.6493 1.69291 0
M  V30 15445 N 1439.67 -1.53632 0.351409 0
M  V30 15446 C 1440.9 -2.0516 -0.243498 0
M  V30 15447 C 1441.31 -1.22559 -1.44138 0
M  V30 15448 O 1440.65 -0.255726 -1.81911 0
M  V30 15449 C 1440.71 -3.52324 -0.71469 0
M  V30 15450 C 1440.38 -4.55543 0.364598 0
M  V30 15451 C 1441.37 -5.05626 1.20987 0
M  V30 15452 C 1439.06 -4.99593 0.520779 0
M  V30 15453 C 1441.05 -5.98347 2.1968 0
M  V30 15454 C 1438.74 -5.92123 1.51109 0
M  V30 15455 C 1439.74 -6.41389 2.34754 0
M  V30 15456 O 1439.43 -7.32097 3.32098 0
M  V30 15457 H 1439.16 -0.674193 -0.0493948 0
M  V30 15458 H 1441.71 -1.99123 0.503919 0
M  V30 15459 H 1439.94 -3.55852 -1.51348 0
M  V30 15460 H 1441.63 -3.86783 -1.23102 0
M  V30 15461 H 1442.4 -4.72353 1.10033 0
M  V30 15462 H 1438.28 -4.60843 -0.120466 0
M  V30 15463 H 1441.82 -6.36724 2.85005 0
M  V30 15464 H 1437.72 -6.24811 1.62116 0
M  V30 15465 H 1438.48 -7.50053 3.27662 0
M  V30 15466 N 1441.15 -0.0802183 -1.57396 0
M  V30 15467 C 1442.39 0.590512 -1.95684 0
M  V30 15468 C 1442.75 1.66265 -0.960199 0
M  V30 15469 O 1443.95 2.38954 -1.23104 0
M  V30 15470 C 1442.22 1.14486 -3.38567 0
M  V30 15471 S 1443.78 1.82954 -3.9884 0
M  V30 15472 H 1440.6 0.193123 -0.684269 0
M  V30 15473 H 1443.2 -0.156081 -1.94876 0
M  V30 15474 H 1441.91 0.352828 -4.08881 0
M  V30 15475 H 1441.44 1.92762 -3.42938 0
M  V30 15476 H 1443.45 3.11265 -3.86431 0
M  V30 15477 N 1442.63 1.56409 0.193394 0
M  V30 15478 C 1443.85 1.84837 0.929676 0
M  V30 15479 C 1444.27 0.662928 1.76779 0
M  V30 15480 O 1443.63 -0.368339 1.78744 0
M  V30 15481 C 1443.68 3.12083 1.82445 0
M  V30 15482 O 1443.4 4.26056 1.02018 0
M  V30 15483 C 1444.9 3.53701 2.67227 0
M  V30 15484 H 1442.12 0.613766 0.271168 0
M  V30 15485 H 1444.66 2.03518 0.200134 0
M  V30 15486 H 1442.82 2.95294 2.5076 0
M  V30 15487 H 1443.23 4.98526 1.63008 0
M  V30 15488 H 1444.71 4.45699 3.25663 0
M  V30 15489 H 1445.18 2.76771 3.41019 0
M  V30 15490 H 1445.79 3.73027 2.04281 0
M  V30 15491 N 1444.1 -0.461169 1.50702 0
M  V30 15492 C 1445.33 -1.24019 1.66235 0
M  V30 15493 C 1445.75 -1.84827 0.349388 0
M  V30 15494 O 1445.11 -1.67743 -0.687888 0
M  V30 15495 C 1445.16 -2.31743 2.76274 0
M  V30 15496 O 1444.26 -3.3664 2.38217 0
M  V30 15497 H 1443.6 -0.364424 0.55506 0
M  V30 15498 H 1446.13 -0.547636 1.97135 0
M  V30 15499 H 1446.14 -2.76902 2.99649 0
M  V30 15500 H 1444.82 -1.86858 3.7156 0
M  V30 15501 H 1443.4 -2.97123 2.25327 0
M  V30 15502 N 1445.58 -1.40446 -0.715026 0
M  V30 15503 C 1446.83 -1.3848 -1.47199 0
M  V30 15504 C 1447.15 0.0119198 -1.94996 0
M  V30 15505 O 1446.42 0.966772 -1.70383 0
M  V30 15506 H 1445 -0.509669 -0.54612 0
M  V30 15507 H 1447.66 -1.75505 -0.847588 0
M  V30 15508 H 1446.76 -2.06002 -2.34456 0
M  V30 15509 N 1447.06 0.947303 -1.25952 0
M  V30 15510 C 1448.02 2.02667 -1.07046 0
M  V30 15511 C 1449.02 1.60787 -0.0208127 0
M  V30 15512 O 1450.21 1.72193 -0.263668 0
M  V30 15513 C 1447.34 3.35087 -0.626885 0
M  V30 15514 H 1448.54 2.20871 -2.0287 0
M  V30 15515 H 1446.09 1.12541 -1.08462 0
M  V30 15516 H 1446.83 3.22579 0.333621 0
M  V30 15517 H 1446.61 3.66835 -1.38473 0
M  V30 15518 H 1448.1 4.14397 -0.516264 0
M  V30 15519 N 1448.54 1.07657 1.15099 0
M  V30 15520 C 1449.77 0.821631 1.89559 0
M  V30 15521 C 1450.18 -0.629174 1.78432 0
M  V30 15522 O 1449.52 -1.44353 1.13613 0
M  V30 15523 C 1449.58 1.15473 3.4045 0
M  V30 15524 C 1449.25 2.60675 3.75363 0
M  V30 15525 C 1450.24 3.58923 3.76125 0
M  V30 15526 C 1447.93 2.96333 4.05576 0
M  V30 15527 C 1449.92 4.90863 4.06611 0
M  V30 15528 C 1447.61 4.28469 4.35727 0
M  V30 15529 C 1448.61 5.25543 4.36226 0
M  V30 15530 O 1448.29 6.55305 4.65651 0
M  V30 15531 H 1448.03 0.296469 0.607521 0
M  V30 15532 H 1450.58 1.43722 1.46742 0
M  V30 15533 H 1448.81 0.482117 3.83683 0
M  V30 15534 H 1450.5 0.881832 3.96205 0
M  V30 15535 H 1451.27 3.32718 3.52879 0
M  V30 15536 H 1447.14 2.2142 4.04344 0
M  V30 15537 H 1450.69 5.66626 4.06916 0
M  V30 15538 H 1446.59 4.54425 4.58441 0
M  V30 15539 H 1447.35 6.60503 4.83402 0
M  V30 15540 N 1450.02 -1.31994 0.861122 0
M  V30 15541 C 1451.24 -2.01745 0.481013 0
M  V30 15542 C 1451.67 -1.6426 -0.916527 0
M  V30 15543 O 1451.02 -0.846603 -1.60319 0
M  V30 15544 C 1451.07 -3.54963 0.635134 0
M  V30 15545 O 1450.18 -4.11083 -0.329337 0
M  V30 15546 H 1449.52 -0.635499 0.192452 0
M  V30 15547 H 1452.05 -1.68394 1.1621 0
M  V30 15548 H 1452.06 -4.04607 0.525089 0
M  V30 15549 H 1450.73 -3.81587 1.65422 0
M  V30 15550 H 1449.31 -3.72489 -0.174989 0
M  V30 15551 N 1451.49 -0.619688 -1.44906 0
M  V30 15552 C 1452.44 0.104373 -2.32366 0
M  V30 15553 C 1453.44 0.847423 -1.4668 0
M  V30 15554 O 1454.64 0.761618 -1.63093 0
M  V30 15555 H 1451.02 0.0525126 -0.750164 0
M  V30 15556 H 1452.99 -0.651525 -2.912 0
M  V30 15557 C 1451.74 1.08017 -3.30496 0
M  V30 15558 H 1451.06 0.517831 -3.96432 0
M  V30 15559 H 1452.5 1.5565 -3.94397 0
M  V30 15560 C 1450.96 2.15975 -2.58566 0
M  V30 15561 O 1451.49 3.23895 -2.37603 0
M  V30 15562 N 1449.7 1.91593 -2.18496 0
M  V30 15563 H 1449.24 1.03835 -2.35746 0
M  V30 15564 H 1449.2 2.64028 -1.70694 0
M  V30 15565 N 1452.97 1.53444 -0.359552 0
M  V30 15566 C 1453.94 2.24173 0.477412 0
M  V30 15567 C 1454.94 1.24747 1.01464 0
M  V30 15568 O 1456.13 1.49069 0.901343 0
M  V30 15569 C 1453.26 2.9738 1.66667 0
M  V30 15570 H 1454.45 2.99566 -0.141407 0
M  V30 15571 H 1452 1.55904 -0.111143 0
M  V30 15572 H 1452.74 2.26214 2.32374 0
M  V30 15573 H 1452.52 3.70325 1.28848 0
M  V30 15574 H 1454.01 3.51165 2.25994 0
M  V30 15575 N 1454.45 0.0885642 1.57351 0
M  V30 15576 C 1455.68 -0.588641 1.98871 0
M  V30 15577 C 1456.1 -1.61333 0.967125 0
M  V30 15578 O 1455.46 -1.81183 -0.0652149 0
M  V30 15579 C 1455.51 -1.21877 3.39379 0
M  V30 15580 O 1454.61 -2.33462 3.39955 0
M  V30 15581 H 1453.95 -0.149938 0.64685 0
M  V30 15582 H 1456.48 0.168043 2.03909 0
M  V30 15583 H 1456.49 -1.56163 3.76931 0
M  V30 15584 H 1455.17 -0.468037 4.13258 0
M  V30 15585 H 1453.74 -2.00844 3.14191 0
M  V30 15586 N 1455.93 -1.56509 -0.185096 0
M  V30 15587 C 1457.15 -1.85683 -0.923941 0
M  V30 15588 C 1457.58 -0.673315 -1.75636 0
M  V30 15589 O 1456.94 0.3778 -1.7732 0
M  V30 15590 C 1456.98 -3.13165 -1.78774 0
M  V30 15591 O 1456.09 -2.9442 -2.88775 0
M  V30 15592 H 1455.43 -0.611139 -0.259624 0
M  V30 15593 H 1457.96 -2.0374 -0.187393 0
M  V30 15594 H 1457.97 -3.44216 -2.19042 0
M  V30 15595 H 1456.64 -3.98922 -1.17619 0
M  V30 15596 H 1455.22 -2.7469 -2.5219 0
M  V30 15597 N 1457.41 0.45317 -1.50944 0
M  V30 15598 C 1458.63 1.22672 -1.66611 0
M  V30 15599 C 1459.05 1.85398 -0.356814 0
M  V30 15600 O 1458.41 1.70026 0.663122 0
M  V30 15601 C 1458.46 2.32238 -2.77034 0
M  V30 15602 O 1458.18 1.72081 -4.02889 0
M  V30 15603 C 1459.68 3.22802 -3.03832 0
M  V30 15604 H 1456.9 0.370337 -0.559546 0
M  V30 15605 H 1459.44 0.538884 -1.97272 0
M  V30 15606 H 1457.6 2.96765 -2.49017 0
M  V30 15607 H 1458.01 2.4437 -4.64095 0
M  V30 15608 H 1459.49 3.95851 -3.84716 0
M  V30 15609 H 1459.96 3.82636 -2.15608 0
M  V30 15610 H 1460.57 2.63993 -3.33449 0
M  V30 15611 N 1458.88 1.40823 0.707568 0
M  V30 15612 C 1460.16 1.3003 1.46122 0
M  V30 15613 C 1460.54 -0.0776873 2.10957 0
M  V30 15614 O 1459.89 -1.09109 2.00767 0
M  V30 15615 C 1460.1 2.44498 2.49042 0
M  V30 15616 C 1461.45 2.85106 3.14642 0
M  V30 15617 O 1462.47 2.44149 2.59364 0
M  V30 15618 O 1461.33 3.55892 4.14733 0
M  V30 15619 H 1458.42 0.511082 0.650172 0
M  V30 15620 H 1460.97 1.52761 0.739062 0
M  V30 15621 H 1459.74 3.36502 1.99705 0
M  V30 15622 H 1459.37 2.23579 3.28783 0
M  V30 15623 N 1460.36 -0.94061 1.26453 0
M  V30 15624 C 1461.59 -1.72654 1.14914 0
M  V30 15625 C 1462.01 -1.85823 -0.291789 0
M  V30 15626 O 1461.37 -1.34888 -1.2114 0
M  V30 15627 C 1461.42 -3.11083 1.82372 0
M  V30 15628 O 1460.52 -3.971 1.1129 0
M  V30 15629 H 1459.86 -0.529704 0.400387 0
M  V30 15630 H 1462.39 -1.17803 1.67283 0
M  V30 15631 H 1462.4 -3.6147 1.89219 0
M  V30 15632 H 1461.08 -3.00815 2.87199 0
M  V30 15633 H 1459.66 -3.5555 1.12423 0
M  V30 15634 N 1461.84 -1.08266 -1.14527 0
M  V30 15635 C 1462.8 -0.715117 -2.17758 0
M  V30 15636 C 1463.8 0.24935 -1.58855 0
M  V30 15637 O 1464.99 0.0290846 -1.74176 0
M  V30 15638 C 1462.13 -0.055575 -3.40855 0
M  V30 15639 H 1463.32 -1.62921 -2.51787 0
M  V30 15640 H 1460.87 -0.880346 -1.2915 0
M  V30 15641 H 1461.61 0.870312 -3.12404 0
M  V30 15642 H 1461.39 -0.749382 -3.84872 0
M  V30 15643 H 1462.88 0.186592 -4.17183 0
M  V30 15644 N 1463.32 1.31536 -0.86811 0
M  V30 15645 C 1464.54 2.01487 -0.491705 0
M  V30 15646 C 1464.97 1.64744 0.907803 0
M  V30 15647 O 1464.33 0.855093 1.59868 0
M  V30 15648 C 1464.38 3.54621 -0.65395 0
M  V30 15649 O 1463.48 4.11252 0.307532 0
M  V30 15650 H 1462.82 0.634469 -0.195819 0
M  V30 15651 H 1465.35 1.67775 -1.17101 0
M  V30 15652 H 1465.36 4.04323 -0.546539 0
M  V30 15653 H 1464.04 3.80704 -1.67443 0
M  V30 15654 H 1462.61 3.72577 0.155233 0
M  V30 15655 N 1464.8 0.627364 1.44575 0
M  V30 15656 C 1466.03 0.137114 2.06145 0
M  V30 15657 C 1466.44 -1.19201 1.46928 0
M  V30 15658 O 1465.78 -1.7413 0.585199 0
M  V30 15659 C 1465.84 -0.0560229 3.59456 0
M  V30 15660 C 1465.5 1.19435 4.41117 0
M  V30 15661 C 1466.5 2.11717 4.74839 0
M  V30 15662 C 1464.19 1.42871 4.81553 0
M  V30 15663 C 1466.18 3.25749 5.47875 0
M  V30 15664 C 1463.87 2.572 5.54339 0
M  V30 15665 C 1464.87 3.48466 5.87419 0
M  V30 15666 O 1464.55 4.60802 6.58723 0
M  V30 15667 H 1464.29 0.0751614 0.671809 0
M  V30 15668 H 1466.84 0.86076 1.86494 0
M  V30 15669 H 1465.07 -0.834775 3.77582 0
M  V30 15670 H 1466.76 -0.500352 4.02804 0
M  V30 15671 H 1467.52 1.94844 4.44141 0
M  V30 15672 H 1463.4 0.727246 4.55228 0
M  V30 15673 H 1466.95 3.97007 5.73612 0
M  V30 15674 H 1462.84 2.74018 5.84452 0
M  V30 15675 H 1463.61 4.59736 6.77189 0
M  V30 15676 N 1466.28 -1.53251 0.367684 0
M  V30 15677 C 1467.51 -2.05407 -0.221725 0
M  V30 15678 C 1467.91 -1.24081 -1.4283 0
M  V30 15679 O 1467.26 -0.275005 -1.8163 0
M  V30 15680 C 1467.32 -3.53063 -0.677281 0
M  V30 15681 C 1466.98 -4.55131 0.412894 0
M  V30 15682 C 1467.98 -5.04315 1.26343 0
M  V30 15683 C 1465.66 -4.99013 0.573739 0
M  V30 15684 C 1467.66 -5.95984 2.26014 0
M  V30 15685 C 1465.35 -5.90487 1.57381 0
M  V30 15686 C 1466.34 -6.38863 2.41544 0
M  V30 15687 O 1466.03 -7.28533 3.39845 0
M  V30 15688 H 1465.76 -0.674679 -0.0422413 0
M  V30 15689 H 1468.32 -1.98577 0.52501 0
M  V30 15690 H 1466.55 -3.57437 -1.47565 0
M  V30 15691 H 1468.24 -3.88066 -1.18993 0
M  V30 15692 H 1469 -4.7116 1.15037 0
M  V30 15693 H 1464.88 -4.60944 -0.0715806 0
M  V30 15694 H 1468.43 -6.33666 2.91742 0
M  V30 15695 H 1464.32 -6.23056 1.68734 0
M  V30 15696 H 1465.09 -7.46536 3.35598 0
M  V30 15697 N 1467.75 -0.0969077 -1.57302 0
M  V30 15698 C 1469.16 0.431942 -1.81635 0
M  V30 15699 C 1469.52 1.68047 -1.01264 0
M  V30 15700 O 1468.64 2.15036 -0.24256 0
M  V30 15701 C 1469.24 0.790426 -3.29451 0
M  V30 15702 C 1467.79 1.26401 -3.54542 0
M  V30 15703 C 1466.94 0.26158 -2.76063 0
M  V30 15704 H 1469.89 -0.322328 -1.55392 0
M  V30 15705 H 1469.91 1.64981 -3.42873 0
M  V30 15706 H 1469.43 -0.118463 -3.87919 0
M  V30 15707 H 1467.53 2.19055 -3.01406 0
M  V30 15708 H 1467.64 1.22459 -4.63185 0
M  V30 15709 H 1466 0.7441 -2.43588 0
M  V30 15710 H 1466.79 -0.640018 -3.37281 0
M  V30 15711 N 1469.23 1.56605 0.176793 0
M  V30 15712 C 1470.16 1.99014 1.2213 0
M  V30 15713 C 1471.14 0.86487 1.46472 0
M  V30 15714 O 1472.33 1.13055 1.57899 0
M  V30 15715 C 1469.46 2.34534 2.56146 0
M  V30 15716 C 1468.41 3.4997 2.46384 0
M  V30 15717 C 1467.74 3.71217 3.8484 0
M  V30 15718 C 1469.04 4.83592 1.97323 0
M  V30 15719 H 1470.73 2.86517 0.8688 0
M  V30 15720 H 1468.28 1.37846 0.416481 0
M  V30 15721 H 1470.23 2.62799 3.29416 0
M  V30 15722 H 1468.95 1.43933 2.93174 0
M  V30 15723 H 1467.61 3.21824 1.75569 0
M  V30 15724 H 1467.26 2.77916 4.19251 0
M  V30 15725 H 1466.96 4.48885 3.79178 0
M  V30 15726 H 1468.49 4.01877 4.59704 0
M  V30 15727 H 1469.9 5.10768 2.60363 0
M  V30 15728 H 1468.3 5.64858 2.02622 0
M  V30 15729 H 1469.37 4.75951 0.927275 0
M  V30 15730 N 1470.71 -0.445159 1.51182 0
M  V30 15731 C 1471.94 -1.21787 1.67259 0
M  V30 15732 C 1472.35 -1.85206 0.366641 0
M  V30 15733 O 1471.71 -1.70376 -0.654095 0
M  V30 15734 C 1471.76 -2.30765 2.78262 0
M  V30 15735 O 1471.48 -1.69942 4.03796 0
M  V30 15736 C 1472.98 -3.21186 3.05539 0
M  V30 15737 H 1470.2 -0.367364 0.561502 0
M  V30 15738 H 1472.75 -0.528415 1.97555 0
M  V30 15739 H 1470.9 -2.9544 2.50587 0
M  V30 15740 H 1471.32 -2.41905 4.65384 0
M  V30 15741 H 1472.79 -3.93805 3.8681 0
M  V30 15742 H 1473.27 -3.81487 2.17634 0
M  V30 15743 H 1473.87 -2.62221 3.34844 0
M  V30 15744 N 1472.19 -1.41197 -0.700089 0
M  V30 15745 C 1473.44 -1.40034 -1.45722 0
M  V30 15746 C 1473.76 -0.00876281 -1.94998 0
M  V30 15747 O 1473.03 0.948647 -1.71399 0
M  V30 15748 H 1471.61 -0.515433 -0.540683 0
M  V30 15749 H 1474.27 -1.76394 -0.828926 0
M  V30 15750 H 1473.36 -2.08477 -2.32258 0
M  V30 15751 N 1473.67 0.933891 -1.2695 0
M  V30 15752 C 1474.94 1.65874 -1.0366 0
M  V30 15753 C 1475.32 2.0666 0.43066 0
M  V30 15754 O 1474.67 1.79606 1.41259 0
M  V30 15755 C 1474.88 2.86546 -1.99229 0
M  V30 15756 C 1476.23 3.58031 -2.28251 0
M  V30 15757 O 1477.25 2.96663 -1.97154 0
M  V30 15758 O 1476.11 4.68583 -2.81233 0
M  V30 15759 H 1473.21 0.72673 -0.394706 0
M  V30 15760 H 1475.75 0.984975 -1.38189 0
M  V30 15761 H 1474.52 2.53351 -2.9821 0
M  V30 15762 H 1474.15 3.61645 -1.65224 0
M  V30 15763 N 1475.14 1.08871 1.13951 0
M  V30 15764 C 1476.37 0.842913 1.88951 0
M  V30 15765 C 1476.79 -0.605348 1.78832 0
M  V30 15766 O 1476.14 -1.41631 1.15095 0
M  V30 15767 C 1476.19 1.26198 3.38757 0
M  V30 15768 O 1475.92 2.65344 3.48603 0
M  V30 15769 C 1477.42 1.04773 4.30741 0
M  V30 15770 H 1474.64 0.303651 0.598362 0
M  V30 15771 H 1477.18 1.44922 1.44284 0
M  V30 15772 H 1475.34 0.699682 3.81029 0
M  V30 15773 H 1475.75 2.82863 4.41688 0
M  V30 15774 H 1477.22 1.39029 5.34205 0
M  V30 15775 H 1477.7 -0.0149046 4.39197 0
M  V30 15776 H 1478.31 1.5957 3.9423 0
M  V30 15777 N 1476.62 -1.31073 0.875073 0
M  V30 15778 C 1478.04 -1.49162 0.567697 0
M  V30 15779 C 1478.24 -1.80435 -0.896969 0
M  V30 15780 O 1477.29 -1.88604 -1.67883 0
M  V30 15781 C 1478.61 -2.6219 1.47231 0
M  V30 15782 C 1480.15 -2.76072 1.47489 0
M  V30 15783 C 1480.63 -3.92202 2.36519 0
M  V30 15784 N 1482.12 -3.99497 2.34428 0
M  V30 15785 C 1482.86 -4.88639 3.00033 0
M  V30 15786 N 1482.35 -5.82647 3.74826 0
M  V30 15787 N 1484.14 -4.81926 2.89315 0
M  V30 15788 H 1476.3 -1.09045 1.82272 0
M  V30 15789 H 1478.56 -0.539291 0.77966 0
M  V30 15790 H 1478.26 -2.45872 2.51475 0
M  V30 15791 H 1478.14 -3.58446 1.17459 0
M  V30 15792 H 1480.53 -2.91801 0.440008 0
M  V30 15793 H 1480.61 -1.80468 1.81287 0
M  V30 15794 H 1480.25 -3.77231 3.40087 0
M  V30 15795 H 1480.18 -4.87125 2.00043 0
M  V30 15796 H 1482.67 -3.32241 1.80067 0
M  V30 15797 H 1482.98 -6.47406 4.22001 0
M  V30 15798 H 1481.33 -5.82609 3.78934 0
M  V30 15799 H 1484.52 -4.07462 2.30418 0
M  V30 15800 H 1484.69 -5.51192 3.40722 0
M  V30 15801 N 1478.1 -0.635022 -1.4424 0
M  V30 15802 C 1479.03 0.0543561 -2.33437 0
M  V30 15803 C 1480.01 0.830807 -1.48431 0
M  V30 15804 O 1481.2 0.795913 -1.77141 0
M  V30 15805 C 1478.33 1.03391 -3.31553 0
M  V30 15806 C 1477.28 0.368824 -4.26408 0
M  V30 15807 C 1476.61 1.45855 -5.14422 0
M  V30 15808 C 1477.91 -0.727381 -5.1721 0
M  V30 15809 H 1479.6 -0.690489 -2.91329 0
M  V30 15810 H 1477.15 -0.3335 -1.40085 0
M  V30 15811 H 1479.1 1.52495 -3.9284 0
M  V30 15812 H 1477.82 1.80969 -2.71878 0
M  V30 15813 H 1476.48 -0.101605 -3.66459 0
M  V30 15814 H 1476.13 2.22531 -4.51098 0
M  V30 15815 H 1475.83 1.0189 -5.78699 0
M  V30 15816 H 1477.35 1.95132 -5.78581 0
M  V30 15817 H 1478.77 -0.319272 -5.7241 0
M  V30 15818 H 1477.17 -1.09041 -5.9011 0
M  V30 15819 H 1478.24 -1.59292 -4.57989 0
M  V30 15820 N 1479.58 1.53054 -0.375806 0
M  V30 15821 C 1480.49 2.29772 0.47349 0
M  V30 15822 C 1481.5 1.36144 1.08355 0
M  V30 15823 O 1482.68 1.69208 1.09228 0
M  V30 15824 C 1479.75 3.07964 1.59245 0
M  V30 15825 C 1478.81 4.17277 1.00888 0
M  V30 15826 C 1478.04 4.91731 2.07451 0
M  V30 15827 O 1478.26 4.66143 3.28736 0
M  V30 15828 O 1477.2 5.77413 1.69936 0
M  V30 15829 H 1481.02 3.03324 -0.151105 0
M  V30 15830 H 1478.61 1.48744 -0.139895 0
M  V30 15831 H 1480.49 3.56759 2.24279 0
M  V30 15832 H 1479.16 2.37239 2.20226 0
M  V30 15833 H 1478.07 3.7271 0.322167 0
M  V30 15834 H 1479.4 4.90198 0.443483 0
M  V30 15835 N 1481.06 0.105248 1.57248 0
M  V30 15836 C 1481.99 -0.846915 2.176 0
M  V30 15837 C 1482.97 -1.28706 1.11216 0
M  V30 15838 O 1484.15 -1.35213 1.39396 0
M  V30 15839 C 1481.28 -2.10228 2.76445 0
M  V30 15840 C 1480.24 -1.80041 3.8829 0
M  V30 15841 C 1479.56 -3.12491 4.33882 0
M  V30 15842 C 1480.86 -1.07943 5.11024 0
M  V30 15843 H 1482.56 -0.344052 2.97417 0
M  V30 15844 H 1480.1 -0.164045 1.43063 0
M  V30 15845 H 1482.06 -2.77284 3.17319 0
M  V30 15846 H 1480.78 -2.62815 1.93897 0
M  V30 15847 H 1479.44 -1.15379 3.4797 0
M  V30 15848 H 1479.09 -3.62985 3.48211 0
M  V30 15849 H 1478.79 -2.93072 5.09296 0
M  V30 15850 H 1480.31 -3.80688 4.77398 0
M  V30 15851 H 1481.72 -1.65127 5.49004 0
M  V30 15852 H 1480.12 -0.986674 5.91933 0
M  V30 15853 H 1481.19 -0.0638511 4.84858 0
M  V30 15854 N 1482.53 -1.56697 -0.168486 0
M  V30 15855 C 1483.44 -1.99866 -1.22845 0
M  V30 15856 C 1484.46 -0.910491 -1.48277 0
M  V30 15857 O 1485.64 -1.21834 -1.6037 0
M  V30 15858 C 1482.7 -2.35227 -2.54694 0
M  V30 15859 C 1481.76 -3.57886 -2.37099 0
M  V30 15860 C 1481 -3.91551 -3.62661 0
M  V30 15861 O 1481.22 -3.26148 -4.67957 0
M  V30 15862 O 1480.15 -4.8489 -3.56603 0
M  V30 15863 H 1483.98 -2.90305 -0.892015 0
M  V30 15864 H 1481.56 -1.44602 -0.375571 0
M  V30 15865 H 1483.45 -2.58928 -3.32467 0
M  V30 15866 H 1482.12 -1.4795 -2.87911 0
M  V30 15867 H 1481.03 -3.394 -1.57348 0
M  V30 15868 H 1482.36 -4.45714 -2.08806 0
M  V30 15869 N 1484.01 0.437135 -1.51416 0
M  V30 15870 C 1484.94 1.538 -1.75692 0
M  V30 15871 C 1485.92 1.5891 -0.606759 0
M  V30 15872 O 1487.11 1.74635 -0.849492 0
M  V30 15873 C 1484.24 2.91877 -1.88215 0
M  V30 15874 C 1483.19 3.01628 -3.03652 0
M  V30 15875 C 1482.52 4.41687 -3.01358 0
M  V30 15876 C 1483.82 2.75691 -4.43612 0
M  V30 15877 H 1485.51 1.33737 -2.67871 0
M  V30 15878 H 1483.06 0.641936 -1.289 0
M  V30 15879 H 1485.01 3.68851 -2.03781 0
M  V30 15880 H 1483.74 3.13173 -0.926847 0
M  V30 15881 H 1482.39 2.27094 -2.87791 0
M  V30 15882 H 1482.04 4.5995 -2.03605 0
M  V30 15883 H 1481.74 4.49141 -3.78875 0
M  V30 15884 H 1483.27 5.20634 -3.19018 0
M  V30 15885 H 1484.68 3.42398 -4.59822 0
M  V30 15886 H 1483.08 2.94554 -5.22836 0
M  V30 15887 H 1484.15 1.71297 -4.53636 0
M  V30 15888 N 1485.49 1.41566 0.692592 0
M  V30 15889 C 1486.91 1.24101 1.00355 0
M  V30 15890 C 1487.11 0.132485 2.01064 0
M  V30 15891 O 1486.16 -0.502142 2.47457 0
M  V30 15892 C 1487.48 2.59142 1.52532 0
M  V30 15893 C 1489.02 2.66348 1.64401 0
M  V30 15894 C 1489.5 4.01713 2.19978 0
M  V30 15895 N 1490.99 4.03575 2.27335 0
M  V30 15896 C 1491.72 5.05118 2.71373 0
M  V30 15897 N 1491.22 6.1705 3.14994 0
M  V30 15898 N 1493.01 4.92479 2.70963 0
M  V30 15899 H 1485.16 2.12385 0.0254859 0
M  V30 15900 H 1487.43 0.945118 0.0738684 0
M  V30 15901 H 1487.13 3.41026 0.85989 0
M  V30 15902 H 1487.01 2.81833 2.50699 0
M  V30 15903 H 1489.39 1.84821 2.30055 0
M  V30 15904 H 1489.48 2.47464 0.647717 0
M  V30 15905 H 1489.12 4.8369 1.54939 0
M  V30 15906 H 1489.05 4.1794 3.20365 0
M  V30 15907 H 1491.54 3.2276 1.96556 0
M  V30 15908 H 1491.85 6.90399 3.47231 0
M  V30 15909 H 1490.2 6.20582 3.12895 0
M  V30 15910 H 1493.39 4.04117 2.36236 0
M  V30 15911 H 1493.56 5.71752 3.04965 0
M  V30 15912 N 1486.97 -0.927146 1.27443 0
M  V30 15913 C 1488.38 -1.48984 1.1252 0
M  V30 15914 C 1488.73 -1.94051 -0.289602 0
M  V30 15915 O 1487.86 -1.8123 -1.18257 0
M  V30 15916 C 1488.45 -2.70765 2.03646 0
M  V30 15917 C 1487.01 -3.23256 1.92827 0
M  V30 15918 C 1486.16 -1.95991 1.9617 0
M  V30 15919 H 1489.11 -0.741196 1.40328 0
M  V30 15920 H 1489.13 -3.45567 1.5926 0
M  V30 15921 H 1488.64 -2.37933 3.0661 0
M  V30 15922 H 1486.74 -3.60845 0.928516 0
M  V30 15923 H 1486.85 -3.89413 2.79096 0
M  V30 15924 H 1485.22 -2.12508 1.40402 0
M  V30 15925 H 1486 -1.65473 3.00788 0
M  V30 15926 N 1488.45 -1.09474 -1.13372 0
M  V30 15927 C 1489.67 -0.852921 -1.88502 0
M  V30 15928 C 1490.09 0.595855 -1.79151 0
M  V30 15929 O 1489.45 1.41019 -1.15845 0
M  V30 15930 C 1489.5 -1.27993 -3.38083 0
M  V30 15931 O 1489.22 -2.67189 -3.47191 0
M  V30 15932 C 1490.72 -1.07056 -4.30179 0
M  V30 15933 H 1487.94 -0.30682 -0.596743 0
M  V30 15934 H 1490.48 -1.45685 -1.43513 0
M  V30 15935 H 1488.64 -0.719879 -3.80653 0
M  V30 15936 H 1489.05 -2.85202 -4.40182 0
M  V30 15937 H 1490.53 -1.4186 -5.3346 0
M  V30 15938 H 1491 -0.00838732 -4.39199 0
M  V30 15939 H 1491.61 -1.61659 -3.93378 0
M  V30 15940 N 1489.92 1.30607 -0.882012 0
M  V30 15941 C 1491.17 1.95869 -0.497978 0
M  V30 15942 C 1491.49 1.69991 0.955405 0
M  V30 15943 O 1490.76 1.02188 1.67136 0
M  V30 15944 H 1489.34 0.724699 -0.181165 0
M  V30 15945 H 1492.01 1.59193 -1.12444 0
M  V30 15946 H 1491.1 3.04917 -0.665754 0
M  V30 15947 N 1491.4 0.642663 1.43901 0
M  V30 15948 C 1492.31 -0.0562462 2.34533 0
M  V30 15949 C 1493.33 -0.823457 1.53281 0
M  V30 15950 O 1494.5 -0.773103 1.85971 0
M  V30 15951 C 1491.57 -1.01787 3.31422 0
M  V30 15952 C 1490.63 -0.248759 4.28579 0
M  V30 15953 C 1489.86 -1.16458 5.20839 0
M  V30 15954 O 1490.09 -2.40361 5.17284 0
M  V30 15955 O 1489.02 -0.642671 5.98459 0
M  V30 15956 H 1492.85 0.689476 2.9577 0
M  V30 15957 H 1490.43 0.402847 1.43866 0
M  V30 15958 H 1492.31 -1.5708 3.91029 0
M  V30 15959 H 1490.99 -1.744 2.72702 0
M  V30 15960 H 1489.9 0.347495 3.72483 0
M  V30 15961 H 1491.23 0.437589 4.90251 0
M  V30 15962 N 1492.88 -1.52852 0.383918 0
M  V30 15963 C 1494.13 -2.00694 -0.201206 0
M  V30 15964 C 1494.44 -1.2748 -1.48352 0
M  V30 15965 O 1495.65 -1.66005 -2.14836 0
M  V30 15966 C 1494.11 -3.57567 -0.409117 0
M  V30 15967 C 1493.71 -4.39675 0.859628 0
M  V30 15968 C 1495.46 -4.13713 -0.950899 0
M  V30 15969 C 1493.36 -5.88138 0.620292 0
M  V30 15970 H 1492.29 -0.749854 -0.0789656 0
M  V30 15971 H 1494.95 -1.764 0.505488 0
M  V30 15972 H 1493.33 -3.78088 -1.17753 0
M  V30 15973 H 1494.5 -4.30923 1.63224 0
M  V30 15974 H 1492.82 -3.94724 1.32597 0
M  V30 15975 H 1495.41 -5.22284 -1.14558 0
M  V30 15976 H 1495.76 -3.69463 -1.9184 0
M  V30 15977 H 1496.29 -3.97062 -0.242195 0
M  V30 15978 H 1493.03 -6.367 1.55864 0
M  V30 15979 H 1492.55 -5.99693 -0.113483 0
M  V30 15980 H 1494.23 -6.46506 0.252775 0
M  V30 15981 N 1494.36 -0.113586 -1.5719 0
M  V30 15982 C 1495.27 0.852428 -2.18565 0
M  V30 15983 C 1496.29 1.29668 -1.16026 0
M  V30 15984 O 1497.46 1.36079 -1.48474 0
M  V30 15985 C 1494.53 2.08675 -2.76867 0
M  V30 15986 C 1493.59 1.69493 -3.94424 0
M  V30 15987 C 1492.82 2.87042 -4.49936 0
M  V30 15988 O 1493.04 4.02311 -4.04354 0
M  V30 15989 O 1491.98 2.64439 -5.40699 0
M  V30 15990 H 1495.8 0.360144 -3.01557 0
M  V30 15991 H 1493.39 0.111744 -1.48982 0
M  V30 15992 H 1495.27 2.80976 -3.14054 0
M  V30 15993 H 1493.95 2.5692 -1.9691 0
M  V30 15994 H 1492.85 0.943161 -3.62016 0
M  V30 15995 H 1494.19 1.25995 -4.758 0
M  V30 15996 N 1495.84 1.56784 0.160173 0
M  V30 15997 C 1496.77 1.93848 1.22293 0
M  V30 15998 C 1497.78 0.832803 1.39886 0
M  V30 15999 O 1498.97 1.11124 1.39692 0
M  V30 16000 C 1496.07 2.18581 2.58989 0
M  V30 16001 C 1495.24 3.49839 2.62548 0
M  V30 16002 C 1494.3 3.63268 3.80687 0
M  V30 16003 O 1493.33 4.35785 3.6617 0
M  V30 16004 N 1494.53 2.98948 4.97605 0
M  V30 16005 H 1497.3 2.85614 0.908004 0
M  V30 16006 H 1494.86 1.58075 0.349851 0
M  V30 16007 H 1496.85 2.24819 3.36509 0
M  V30 16008 H 1495.42 1.33145 2.82827 0
M  V30 16009 H 1494.64 3.5516 1.7104 0
M  V30 16010 H 1495.93 4.3619 2.61945 0
M  V30 16011 H 1495.33 2.39924 5.12302 0
M  V30 16012 H 1493.88 3.10765 5.72947 0
M  V30 16013 N 1497.32 -0.429099 1.51646 0
M  V30 16014 C 1498.55 -1.19832 1.68297 0
M  V30 16015 C 1498.95 -1.85275 0.383378 0
M  V30 16016 O 1498.3 -1.71862 -0.648771 0
M  V30 16017 C 1498.36 -2.31803 2.74786 0
M  V30 16018 C 1498.02 -1.8666 4.17141 0
M  V30 16019 C 1499.02 -1.36544 5.01649 0
M  V30 16020 C 1496.7 -1.94101 4.63282 0
M  V30 16021 C 1498.7 -0.944655 6.30361 0
M  V30 16022 C 1496.39 -1.51634 5.91988 0
M  V30 16023 C 1497.38 -1.01899 6.75356 0
M  V30 16024 O 1497.07 -0.600375 8.01655 0
M  V30 16025 H 1496.8 -0.366924 0.567752 0
M  V30 16026 H 1499.36 -0.513643 1.98874 0
M  V30 16027 H 1497.59 -3.03573 2.39542 0
M  V30 16028 H 1499.28 -2.93639 2.80234 0
M  V30 16029 H 1500.04 -1.30184 4.67201 0
M  V30 16030 H 1495.92 -2.31758 3.98509 0
M  V30 16031 H 1499.47 -0.555763 6.95383 0
M  V30 16032 H 1495.36 -1.57667 6.25948 0
M  V30 16033 H 1496.13 -0.725485 8.15278 0
M  V30 16034 N 1498.79 -1.41931 -0.685074 0
M  V30 16035 C 1500.02 -1.45432 -1.47866 0
M  V30 16036 C 1500.44 -0.0641302 -1.87991 0
M  V30 16037 O 1499.8 0.935081 -1.55325 0
M  V30 16038 C 1499.85 -2.37801 -2.71077 0
M  V30 16039 O 1498.95 -1.84229 -3.68963 0
M  V30 16040 H 1498.29 -0.493156 -0.444627 0
M  V30 16041 H 1500.82 -1.86508 -0.841177 0
M  V30 16042 H 1500.83 -2.54033 -3.19266 0
M  V30 16043 H 1499.51 -3.38807 -2.41211 0
M  V30 16044 H 1498.09 -1.775 -3.27945 0
M  V30 16045 N 1500.27 0.920374 -1.27933 0
M  V30 16046 C 1501.52 1.67131 -1.1487 0
M  V30 16047 C 1501.85 1.91816 0.303343 0
M  V30 16048 O 1501.13 1.51379 1.22125 0
M  V30 16049 C 1501.41 3.03332 -1.94066 0
M  V30 16050 C 1501.26 2.85842 -3.47296 0
M  V30 16051 C 1502.58 4.03773 -1.75087 0
M  V30 16052 H 1499.7 0.606537 -0.418666 0
M  V30 16053 H 1502.34 1.06755 -1.57173 0
M  V30 16054 H 1500.49 3.54869 -1.58116 0
M  V30 16055 H 1502.16 2.41367 -3.93115 0
M  V30 16056 H 1500.41 2.21035 -3.73264 0
M  V30 16057 H 1501.08 3.82535 -3.97958 0
M  V30 16058 H 1503.55 3.61274 -2.06447 0
M  V30 16059 H 1502.43 4.97048 -2.32882 0
M  V30 16060 H 1502.69 4.36512 -0.700665 0
M  V30 16061 N 1501.75 1.10074 1.1279 0
M  V30 16062 C 1502.97 0.863106 1.88587 0
M  V30 16063 C 1503.4 -0.580595 1.78915 0
M  V30 16064 O 1502.76 -1.40859 1.14142 0
M  V30 16065 C 1502.81 1.31142 3.35908 0
M  V30 16066 O 1501.91 0.474088 4.09666 0
M  V30 16067 H 1501.25 0.312034 0.586115 0
M  V30 16068 H 1503.78 1.46659 1.42662 0
M  V30 16069 H 1503.79 1.29974 3.86744 0
M  V30 16070 H 1502.47 2.36279 3.42265 0
M  V30 16071 H 1501.04 0.550665 3.68812 0
M  V30 16072 N 1503.23 -1.30138 0.888926 0
M  V30 16073 C 1504.19 -2.26299 0.363504 0
M  V30 16074 C 1505.19 -1.52951 -0.496244 0
M  V30 16075 O 1506.38 -1.71548 -0.302834 0
M  V30 16076 C 1503.51 -3.37482 -0.481544 0
M  V30 16077 H 1504.71 -2.7429 1.21265 0
M  V30 16078 H 1502.26 -1.41395 0.666124 0
M  V30 16079 H 1502.99 -2.94814 -1.35112 0
M  V30 16080 H 1502.78 -3.9187 0.134344 0
M  V30 16081 H 1504.27 -4.09048 -0.840816 0
M  V30 16082 N 1504.71 -0.650285 -1.43559 0
M  V30 16083 C 1505.93 -0.170139 -2.06199 0
M  V30 16084 C 1506.35 1.16304 -1.48724 0
M  V30 16085 O 1505.71 1.71739 -0.617418 0
M  V30 16086 C 1505.76 -0.0698577 -3.61432 0
M  V30 16087 O 1505.48 -1.35033 -4.16771 0
M  V30 16088 C 1506.98 0.436714 -4.41144 0
M  V30 16089 H 1504.2 -0.0885316 -0.665134 0
M  V30 16090 H 1506.74 -0.890104 -1.84112 0
M  V30 16091 H 1504.9 0.60065 -3.82715 0
M  V30 16092 H 1505.31 -1.20762 -5.10409 0
M  V30 16093 H 1506.79 0.455843 -5.50115 0
M  V30 16094 H 1507.26 1.46747 -4.13959 0
M  V30 16095 H 1507.87 -0.201201 -4.24824 0
M  V30 16096 N 1506.18 1.52647 -0.392018 0
M  V30 16097 C 1507.41 2.05734 0.189018 0
M  V30 16098 C 1507.82 1.26338 1.40838 0
M  V30 16099 O 1507.16 0.303866 1.81169 0
M  V30 16100 C 1507.23 3.54095 0.621026 0
M  V30 16101 C 1506.89 4.54416 -0.485249 0
M  V30 16102 C 1507.89 5.02241 -1.3435 0
M  V30 16103 C 1505.57 4.98037 -0.653055 0
M  V30 16104 C 1507.57 5.92313 -2.35467 0
M  V30 16105 C 1505.25 5.87908 -1.66755 0
M  V30 16106 C 1506.25 6.34939 -2.51677 0
M  V30 16107 O 1505.94 7.23034 -3.51392 0
M  V30 16108 H 1505.67 0.675266 0.0315024 0
M  V30 16109 H 1508.23 1.97717 -0.556535 0
M  V30 16110 H 1506.46 3.5974 1.4186 0
M  V30 16111 H 1508.14 3.8991 1.12804 0
M  V30 16112 H 1508.91 4.6927 -1.22518 0
M  V30 16113 H 1504.79 4.61 -0.00176071 0
M  V30 16114 H 1508.33 6.28944 -3.01786 0
M  V30 16115 H 1504.23 6.20293 -1.78624 0
M  V30 16116 H 1505 7.41102 -3.47433 0
M  V30 16117 N 1507.66 0.121921 1.57128 0
M  V30 16118 C 1508.57 -0.840825 2.19014 0
M  V30 16119 C 1509.59 -1.29051 1.16712 0
M  V30 16120 O 1510.76 -1.35289 1.49194 0
M  V30 16121 C 1507.83 -2.07204 2.7797 0
M  V30 16122 C 1506.89 -1.67399 3.95318 0
M  V30 16123 C 1506.12 -2.84652 4.51452 0
M  V30 16124 O 1506.35 -4.00161 4.06482 0
M  V30 16125 O 1505.28 -2.61568 5.42094 0
M  V30 16126 H 1509.11 -0.344146 3.01744 0
M  V30 16127 H 1506.69 -0.103841 1.49039 0
M  V30 16128 H 1508.57 -2.79307 3.1554 0
M  V30 16129 H 1507.25 -2.55872 1.9827 0
M  V30 16130 H 1506.16 -0.92395 3.62511 0
M  V30 16131 H 1507.49 -1.2347 4.76462 0
M  V30 16132 N 1509.14 -1.56867 -0.151857 0
M  V30 16133 C 1510.07 -2.00932 -1.18949 0
M  V30 16134 C 1511.05 -0.888062 -1.45077 0
M  V30 16135 O 1512.24 -1.15553 -1.56081 0
M  V30 16136 C 1509.37 -2.3858 -2.52383 0
M  V30 16137 C 1508.32 -3.53845 -2.40785 0
M  V30 16138 C 1507.65 -3.77292 -3.78886 0
M  V30 16139 C 1508.95 -4.8667 -1.89605 0
M  V30 16140 H 1510.64 -2.87863 -0.823107 0
M  V30 16141 H 1508.19 -1.38491 -0.394499 0
M  V30 16142 H 1510.14 -2.68006 -3.25193 0
M  V30 16143 H 1508.86 -1.48579 -2.90847 0
M  V30 16144 H 1507.52 -3.24577 -1.70427 0
M  V30 16145 H 1507.17 -2.84551 -4.14777 0
M  V30 16146 H 1506.87 -4.54861 -3.71989 0
M  V30 16147 H 1508.39 -4.09139 -4.53252 0
M  V30 16148 H 1509.81 -5.14846 -2.52204 0
M  V30 16149 H 1508.21 -5.6801 -1.93609 0
M  V30 16150 H 1509.28 -4.77366 -0.851438 0
M  V30 16151 N 1510.62 0.421051 -1.51871 0
M  V30 16152 C 1511.55 1.53094 -1.70572 0
M  V30 16153 C 1512.56 1.5188 -0.586201 0
M  V30 16154 O 1513.75 1.56361 -0.861013 0
M  V30 16155 C 1510.85 2.92002 -1.72011 0
M  V30 16156 C 1510.03 3.17541 -3.0081 0
M  V30 16157 C 1509.08 4.36259 -2.94219 0
M  V30 16158 O 1508.11 4.34118 -3.68144 0
M  V30 16159 N 1509.31 5.40722 -2.11188 0
M  V30 16160 H 1512.08 1.3745 -2.66322 0
M  V30 16161 H 1509.64 0.610204 -1.4996 0
M  V30 16162 H 1511.63 3.6947 -1.65149 0
M  V30 16163 H 1510.2 3.01162 -0.837861 0
M  V30 16164 H 1509.42 2.28225 -3.21414 0
M  V30 16165 H 1510.71 3.3144 -3.86037 0
M  V30 16166 H 1510.11 5.45304 -1.50534 0
M  V30 16167 H 1508.66 6.16979 -2.10192 0
M  V30 16168 N 1512.1 1.42293 0.677538 0
M  V30 16169 C 1513.51 1.25158 0.990334 0
M  V30 16170 C 1513.71 0.153803 2.00912 0
M  V30 16171 O 1512.77 -0.475868 2.47975 0
M  V30 16172 C 1514.08 2.60745 1.49775 0
M  V30 16173 C 1515.63 2.68077 1.61566 0
M  V30 16174 C 1516.1 4.04024 2.15705 0
M  V30 16175 N 1517.6 4.05964 2.23042 0
M  V30 16176 C 1518.33 5.07968 2.66 0
M  V30 16177 N 1517.83 6.20356 3.08432 0
M  V30 16178 N 1519.62 4.95325 2.65725 0
M  V30 16179 H 1511.77 2.124 0.00295822 0
M  V30 16180 H 1514.03 0.945848 0.06384 0
M  V30 16181 H 1513.74 3.41919 0.823672 0
M  V30 16182 H 1513.61 2.84476 2.47695 0
M  V30 16183 H 1516 1.87251 2.28082 0
M  V30 16184 H 1516.08 2.48137 0.621434 0
M  V30 16185 H 1515.73 4.85306 1.498 0
M  V30 16186 H 1515.66 4.21314 3.15914 0
M  V30 16187 H 1518.15 3.24827 1.93122 0
M  V30 16188 H 1518.46 6.94043 3.39889 0
M  V30 16189 H 1516.8 6.23865 3.06296 0
M  V30 16190 H 1520 4.06599 2.31936 0
M  V30 16191 H 1520.17 5.74954 2.98884 0
M  V30 16192 N 1513.57 -0.913576 1.28419 0
M  V30 16193 C 1514.48 -2.04922 1.14211 0
M  V30 16194 C 1515.5 -1.73865 0.0686424 0
M  V30 16195 O 1516.68 -1.99473 0.277968 0
M  V30 16196 C 1513.74 -3.37214 0.805445 0
M  V30 16197 C 1512.8 -3.81879 1.96129 0
M  V30 16198 C 1512.04 -5.07858 1.6406 0
M  V30 16199 O 1512.26 -5.67693 0.555032 0
M  V30 16200 O 1511.19 -5.4824 2.48428 0
M  V30 16201 H 1515.02 -2.19827 2.09547 0
M  V30 16202 H 1512.6 -1.03501 1.0774 0
M  V30 16203 H 1514.49 -4.16639 0.631648 0
M  V30 16204 H 1513.16 -3.23484 -0.118254 0
M  V30 16205 H 1512.07 -3.03281 2.19024 0
M  V30 16206 H 1513.4 -4.00173 2.8657 0
M  V30 16207 N 1515.05 -1.1067 -1.12204 0
M  V30 16208 C 1516.33 -0.762632 -1.8012 0
M  V30 16209 C 1516.71 0.750529 -1.97308 0
M  V30 16210 O 1516.06 1.67764 -1.55137 0
M  V30 16211 C 1516.27 -1.51651 -3.14329 0
M  V30 16212 C 1517.62 -1.69061 -3.89491 0
M  V30 16213 O 1518.64 -1.48009 -3.23994 0
M  V30 16214 O 1517.5 -2.03984 -5.07004 0
M  V30 16215 H 1514.59 -0.275417 -0.779791 0
M  V30 16216 H 1517.14 -1.20966 -1.19018 0
M  V30 16217 H 1515.91 -2.54622 -2.97125 0
M  V30 16218 H 1515.53 -1.0625 -3.83141 0
M  V30 16219 N 1516.53 1.29665 -0.895815 0
M  V30 16220 C 1517.95 1.4824 -0.591355 0
M  V30 16221 C 1518.15 1.81839 0.86815 0
M  V30 16222 O 1517.2 1.91251 1.64861 0
M  V30 16223 C 1518.52 2.59814 -1.51384 0
M  V30 16224 C 1520.06 2.73691 -1.51862 0
M  V30 16225 C 1520.54 3.8839 -2.42729 0
M  V30 16226 N 1522.03 3.95717 -2.40754 0
M  V30 16227 C 1522.76 4.83804 -3.07769 0
M  V30 16228 N 1522.26 5.7661 -3.84048 0
M  V30 16229 N 1524.05 4.77263 -2.96946 0
M  V30 16230 H 1516.2 1.06131 -1.83984 0
M  V30 16231 H 1518.47 0.526819 -0.788141 0
M  V30 16232 H 1518.17 2.4184 -2.55355 0
M  V30 16233 H 1518.05 3.56532 -1.23147 0
M  V30 16234 H 1520.43 2.91064 -0.486375 0
M  V30 16235 H 1520.52 1.77561 -1.84135 0
M  V30 16236 H 1520.16 3.71773 -3.46045 0
M  V30 16237 H 1520.09 4.8388 -2.07767 0
M  V30 16238 H 1522.58 3.29334 -1.8533 0
M  V30 16239 H 1522.89 6.40611 -4.32247 0
M  V30 16240 H 1521.24 5.76507 -3.88155 0
M  V30 16241 H 1524.43 4.03744 -2.36871 0
M  V30 16242 H 1524.6 5.45701 -3.49448 0
M  V30 16243 N 1518.01 0.657889 1.43212 0
M  V30 16244 C 1518.97 -0.0214783 2.2919 0
M  V30 16245 C 1519.97 -0.745921 1.42452 0
M  V30 16246 O 1521.16 -0.586468 1.64031 0
M  V30 16247 C 1518.29 -1.04115 3.24612 0
M  V30 16248 H 1519.49 0.735072 2.90752 0
M  V30 16249 H 1517.04 0.419354 1.50569 0
M  V30 16250 H 1517.77 -1.82677 2.67954 0
M  V30 16251 H 1517.56 -0.525285 3.88566 0
M  V30 16252 H 1519.05 -1.51544 3.89132 0
M  V30 16253 N 1519.49 -1.52437 0.400108 0
M  V30 16254 C 1520.42 -2.29672 -0.421054 0
M  V30 16255 C 1521.4 -1.33506 -1.05405 0
M  V30 16256 O 1522.58 -1.62408 -1.06477 0
M  V30 16257 C 1519.71 -3.1115 -1.54281 0
M  V30 16258 C 1518.67 -4.1529 -1.0353 0
M  V30 16259 C 1517.99 -4.85058 -2.24996 0
M  V30 16260 C 1519.29 -5.22212 -0.0956529 0
M  V30 16261 H 1520.99 -2.98565 0.2234 0
M  V30 16262 H 1518.53 -1.43588 0.108883 0
M  V30 16263 H 1520.49 -3.63945 -2.12419 0
M  V30 16264 H 1519.21 -2.4001 -2.21501 0
M  V30 16265 H 1517.87 -3.63492 -0.476383 0
M  V30 16266 H 1517.52 -4.10455 -2.9075 0
M  V30 16267 H 1517.22 -5.55452 -1.91694 0
M  V30 16268 H 1518.74 -5.40661 -2.83756 0
M  V30 16269 H 1520.15 -5.70302 -0.585548 0
M  V30 16270 H 1518.55 -5.99917 0.148121 0
M  V30 16271 H 1519.62 -4.77351 0.852296 0
M  V30 16272 N 1520.96 -0.130252 -1.57061 0
M  V30 16273 C 1522.21 0.525784 -1.95866 0
M  V30 16274 C 1522.54 1.65607 -1.01429 0
M  V30 16275 O 1521.82 1.94426 -0.0535544 0
M  V30 16276 C 1522.1 1.04784 -3.44517 0
M  V30 16277 C 1521.95 -0.0797972 -4.49729 0
M  V30 16278 C 1523.27 1.9351 -3.95275 0
M  V30 16279 H 1520.39 0.189652 -0.71218 0
M  V30 16280 H 1523.03 -0.208091 -1.88857 0
M  V30 16281 H 1521.18 1.67324 -3.50621 0
M  V30 16282 H 1522.86 -0.715535 -4.55717 0
M  V30 16283 H 1521.1 -0.741358 -4.27418 0
M  V30 16284 H 1521.77 0.326915 -5.51031 0
M  V30 16285 H 1524.25 1.40825 -3.91545 0
M  V30 16286 H 1523.12 2.26952 -4.99784 0
M  V30 16287 H 1523.38 2.86583 -3.36634 0
M  V30 16288 N 1522.44 1.56945 0.143535 0
M  V30 16289 C 1523.72 1.74461 0.884454 0
M  V30 16290 C 1524.1 0.699201 1.99184 0
M  V30 16291 O 1523.45 -0.281267 2.26762 0
M  V30 16292 C 1523.66 3.18639 1.42373 0
M  V30 16293 C 1525.01 3.80426 1.88577 0
M  V30 16294 O 1526.03 3.2209 1.52107 0
M  V30 16295 O 1524.89 4.82913 2.55847 0
M  V30 16296 H 1521.98 0.713457 0.41822 0
M  V30 16297 H 1524.53 1.69208 0.12919 0
M  V30 16298 H 1523.3 3.86227 0.628056 0
M  V30 16299 H 1522.92 3.28332 2.2424 0
M  V30 16300 N 1523.92 -0.412991 1.52093 0
M  V30 16301 C 1525.15 -1.18212 1.69805 0
M  V30 16302 C 1525.56 -1.84386 0.405844 0
M  V30 16303 O 1524.92 -1.71725 -0.617809 0
M  V30 16304 C 1524.97 -2.24811 2.83094 0
M  V30 16305 O 1524.69 -1.61338 4.0731 0
M  V30 16306 C 1526.19 -3.14633 3.12283 0
M  V30 16307 H 1523.41 -0.355371 0.569168 0
M  V30 16308 H 1525.96 -0.486392 1.98632 0
M  V30 16309 H 1524.11 -2.90058 2.56797 0
M  V30 16310 H 1524.53 -2.31979 4.7041 0
M  V30 16311 H 1526 -3.85511 3.95076 0
M  V30 16312 H 1526.48 -3.76785 2.25677 0
M  V30 16313 H 1527.08 -2.55059 3.40331 0
M  V30 16314 N 1525.4 -1.4265 -0.669982 0
M  V30 16315 C 1526.33 -1.49298 -1.79534 0
M  V30 16316 C 1527.31 -0.34911 -1.66479 0
M  V30 16317 O 1528.5 -0.564072 -1.85828 0
M  V30 16318 C 1525.63 -1.39935 -3.17861 0
M  V30 16319 C 1524.58 -2.52398 -3.45657 0
M  V30 16320 C 1523.91 -2.28092 -4.8361 0
M  V30 16321 C 1525.21 -3.94697 -3.4207 0
M  V30 16322 H 1526.9 -2.43486 -1.74227 0
M  V30 16323 H 1524.45 -1.17191 -0.836796 0
M  V30 16324 H 1526.4 -1.43193 -3.96325 0
M  V30 16325 H 1525.12 -0.422436 -3.23857 0
M  V30 16326 H 1523.78 -2.48465 -2.69556 0
M  V30 16327 H 1523.43 -1.28683 -4.86261 0
M  V30 16328 H 1523.13 -3.03469 -5.0317 0
M  V30 16329 H 1524.65 -2.33107 -5.64352 0
M  V30 16330 H 1526.07 -4.00207 -4.10496 0
M  V30 16331 H 1524.46 -4.69965 -3.73166 0
M  V30 16332 H 1525.53 -4.21025 -2.40554 0
M  V30 16333 N 1526.88 0.906753 -1.28902 0
M  V30 16334 C 1527.82 2.01004 -1.13429 0
M  V30 16335 C 1528.79 1.66074 -0.0295031 0
M  V30 16336 O 1529.98 1.89793 -0.195727 0
M  V30 16337 C 1527.12 3.35473 -0.809457 0
M  V30 16338 C 1526.23 3.83229 -1.99398 0
M  V30 16339 C 1525.37 5.06241 -1.60915 0
M  V30 16340 C 1524.41 5.46348 -2.7599 0
M  V30 16341 N 1523.54 6.60548 -2.37952 0
M  V30 16342 H 1528.38 2.13571 -2.07825 0
M  V30 16343 H 1525.92 1.046 -1.03428 0
M  V30 16344 H 1527.88 4.12836 -0.601845 0
M  V30 16345 H 1526.51 3.22652 0.0975896 0
M  V30 16346 H 1525.56 3.01962 -2.31351 0
M  V30 16347 H 1526.87 4.08908 -2.85649 0
M  V30 16348 H 1526.03 5.91168 -1.36401 0
M  V30 16349 H 1524.77 4.82385 -0.718021 0
M  V30 16350 H 1523.77 4.59959 -3.01195 0
M  V30 16351 H 1525 5.72188 -3.65757 0
M  V30 16352 H 1522.94 6.38309 -1.51318 0
M  V30 16353 H 1522.86 6.85987 -3.17738 0
M  V30 16354 H 1524.13 7.48762 -2.1674 0
M  V30 16355 N 1528.36 1.11264 1.11616 0
M  V30 16356 C 1529.6 0.860364 1.83314 0
M  V30 16357 C 1529.93 -0.614011 1.84554 0
M  V30 16358 O 1529.19 -1.4692 1.29279 0
M  V30 16359 C 1529.48 1.36481 3.30315 0
M  V30 16360 C 1529.15 2.85209 3.49237 0
M  V30 16361 C 1527.81 3.25822 3.54109 0
M  V30 16362 C 1530.16 3.81009 3.55642 0
M  V30 16363 C 1527.49 4.60968 3.62941 0
M  V30 16364 C 1529.84 5.15968 3.66005 0
M  V30 16365 C 1528.51 5.56142 3.69137 0
M  V30 16366 H 1527.78 0.314829 0.670793 0
M  V30 16367 H 1530.43 1.39073 1.31647 0
M  V30 16368 H 1528.73 0.754639 3.84464 0
M  V30 16369 H 1530.43 1.14597 3.84276 0
M  V30 16370 H 1527.02 2.52791 3.46114 0
M  V30 16371 H 1531.2 3.50734 3.5114 0
M  V30 16372 H 1526.46 4.91503 3.63641 0
M  V30 16373 H 1530.63 5.90037 3.69904 0
M  V30 16374 H 1528.26 6.60855 3.75732 0
M  V30 16375 N 1529.83 -1.29188 0.902679 0
M  V30 16376 C 1531.08 -1.95727 0.530909 0
M  V30 16377 C 1531.41 -1.70971 -0.921014 0
M  V30 16378 O 1530.69 -1.02436 -1.65339 0
M  V30 16379 C 1530.97 -3.50463 0.827523 0
M  V30 16380 C 1530.82 -3.84665 2.33137 0
M  V30 16381 C 1532.14 -4.38964 0.316053 0
M  V30 16382 H 1529.26 -0.71091 0.194361 0
M  V30 16383 H 1531.9 -1.52752 1.1299 0
M  V30 16384 H 1530.05 -3.87199 0.317732 0
M  V30 16385 H 1531.73 -3.57859 2.91093 0
M  V30 16386 H 1529.97 -3.32102 2.79088 0
M  V30 16387 H 1530.64 -4.92676 2.48947 0
M  V30 16388 H 1533.12 -4.09237 0.75262 0
M  V30 16389 H 1531.99 -5.4611 0.552769 0
M  V30 16390 H 1532.25 -4.35105 -0.783329 0
M  V30 16391 N 1531.31 -0.665475 -1.42861 0
M  V30 16392 C 1532.54 -0.192 -2.06007 0
M  V30 16393 C 1532.95 1.1472 -1.49949 0
M  V30 16394 O 1532.31 1.71074 -0.635599 0
M  V30 16395 C 1532.36 -0.108189 -3.61338 0
M  V30 16396 O 1532.08 -1.39446 -4.15315 0
M  V30 16397 C 1533.58 0.3899 -4.41582 0
M  V30 16398 H 1530.8 -0.0955812 -0.664158 0
M  V30 16399 H 1533.35 -0.909582 -1.83158 0
M  V30 16400 H 1531.5 0.560024 -3.83331 0
M  V30 16401 H 1531.92 -1.26168 -5.09099 0
M  V30 16402 H 1533.39 0.39747 -5.50567 0
M  V30 16403 H 1533.87 1.42348 -4.15492 0
M  V30 16404 H 1534.47 -0.246248 -4.24587 0
M  V30 16405 N 1532.79 1.52222 -0.408187 0
M  V30 16406 C 1533.72 2.24676 0.453129 0
M  V30 16407 C 1534.73 1.27605 1.01098 0
M  V30 16408 O 1535.92 1.53557 0.910084 0
M  V30 16409 C 1533.02 2.96431 1.64262 0
M  V30 16410 C 1532.2 4.20364 1.20883 0
M  V30 16411 C 1531.26 4.74951 2.26512 0
M  V30 16412 O 1530.28 5.37556 1.87142 0
M  V30 16413 N 1531.48 4.56443 3.58665 0
M  V30 16414 H 1534.25 2.9923 -0.16771 0
M  V30 16415 H 1531.81 1.60178 -0.235517 0
M  V30 16416 H 1533.8 3.29844 2.3449 0
M  V30 16417 H 1532.37 2.25068 2.1694 0
M  V30 16418 H 1531.59 3.92776 0.334712 0
M  V30 16419 H 1532.88 5.0085 0.895939 0
M  V30 16420 H 1532.28 4.06511 3.93402 0
M  V30 16421 H 1530.83 4.94295 4.24871 0
M  V30 16422 N 1534.27 0.138579 1.5699 0
M  V30 16423 C 1535.23 -0.79013 2.1515 0
M  V30 16424 C 1536.23 -1.1811 1.09117 0
M  V30 16425 O 1537.42 -1.1034 1.34798 0
M  V30 16426 C 1534.55 -2.07109 2.70774 0
M  V30 16427 H 1535.75 -0.284343 2.98549 0
M  V30 16428 H 1533.3 -0.11081 1.55907 0
M  V30 16429 H 1534.03 -2.62074 1.91018 0
M  V30 16430 H 1533.82 -1.80004 3.4834 0
M  V30 16431 H 1535.31 -2.73456 3.15613 0
M  V30 16432 N 1535.75 -1.57019 -0.13521 0
M  V30 16433 C 1536.66 -2.02427 -1.18578 0
M  V30 16434 C 1537.67 -0.941738 -1.46312 0
M  V30 16435 O 1538.85 -1.25208 -1.57749 0
M  V30 16436 C 1535.91 -2.40577 -2.49647 0
M  V30 16437 C 1534.97 -3.62835 -2.29455 0
M  V30 16438 C 1534.21 -3.99156 -3.54274 0
M  V30 16439 O 1534.43 -3.36001 -4.60933 0
M  V30 16440 O 1533.36 -4.92345 -3.46238 0
M  V30 16441 H 1537.19 -2.92131 -0.830237 0
M  V30 16442 H 1534.77 -1.45366 -0.344814 0
M  V30 16443 H 1536.66 -2.65922 -3.269 0
M  V30 16444 H 1535.33 -1.54023 -2.84708 0
M  V30 16445 H 1534.24 -3.42661 -1.50114 0
M  V30 16446 H 1535.57 -4.50043 -1.99305 0
M  V30 16447 N 1537.22 0.404919 -1.52309 0
M  V30 16448 C 1538.47 1.14921 -1.66246 0
M  V30 16449 C 1538.79 1.90919 -0.396868 0
M  V30 16450 O 1538.06 1.86856 0.588361 0
M  V30 16451 H 1536.64 0.427223 -0.612772 0
M  V30 16452 H 1539.31 0.461091 -1.89367 0
M  V30 16453 H 1538.4 1.86095 -2.5055 0
M  V30 16454 N 1538.7 1.43003 0.662408 0
M  V30 16455 C 1539.67 1.4713 1.75743 0
M  V30 16456 C 1540.67 0.357203 1.56782 0
M  V30 16457 O 1541.86 0.618566 1.62848 0
M  V30 16458 C 1538.99 1.31499 3.14517 0
M  V30 16459 H 1540.18 2.44641 1.73467 0
M  V30 16460 H 1537.73 1.29633 0.873208 0
M  V30 16461 H 1538.47 0.349596 3.2241 0
M  V30 16462 H 1538.25 2.12253 3.29683 0
M  V30 16463 H 1539.74 1.37298 3.94384 0
M  V30 16464 N 1540.18 -0.899904 1.29381 0
M  V30 16465 C 1541.13 -2.004 1.14493 0
M  V30 16466 C 1542.1 -1.66056 0.0383099 0
M  V30 16467 O 1543.28 -1.89687 0.20579 0
M  V30 16468 C 1540.42 -3.35039 0.827237 0
M  V30 16469 C 1539.54 -3.82166 2.01427 0
M  V30 16470 C 1538.67 -5.0538 1.63598 0
M  V30 16471 C 1537.71 -5.44876 2.78884 0
M  V30 16472 N 1536.85 -6.59276 2.41452 0
M  V30 16473 H 1541.69 -2.12466 2.08955 0
M  V30 16474 H 1539.22 -1.0405 1.03981 0
M  V30 16475 H 1541.18 -4.12511 0.62373 0
M  V30 16476 H 1539.81 -3.227 -0.0804772 0
M  V30 16477 H 1538.86 -3.00731 2.32949 0
M  V30 16478 H 1540.18 -4.07387 2.87814 0
M  V30 16479 H 1539.33 -5.90436 1.39534 0
M  V30 16480 H 1538.07 -4.81998 0.743593 0
M  V30 16481 H 1537.07 -4.58355 3.0363 0
M  V30 16482 H 1538.3 -5.7024 3.68786 0
M  V30 16483 H 1536.24 -6.37498 1.54701 0
M  V30 16484 H 1536.16 -6.84293 3.21372 0
M  V30 16485 H 1537.43 -7.47602 2.20708 0
M  V30 16486 N 1541.66 -1.11854 -1.11024 0
M  V30 16487 C 1542.59 -0.738635 -2.16972 0
M  V30 16488 C 1543.6 0.231814 -1.61141 0
M  V30 16489 O 1544.79 0.0140607 -1.78494 0
M  V30 16490 C 1541.89 -0.0715797 -3.38824 0
M  V30 16491 C 1541.07 -1.06995 -4.24112 0
M  V30 16492 C 1540.12 -0.431644 -5.24427 0
M  V30 16493 O 1539.15 -1.08685 -5.58727 0
M  V30 16494 N 1540.35 0.803593 -5.74911 0
M  V30 16495 H 1543.12 -1.65025 -2.50174 0
M  V30 16496 H 1540.68 -1.00933 -1.26586 0
M  V30 16497 H 1542.67 0.367274 -4.0303 0
M  V30 16498 H 1541.24 0.742686 -3.03649 0
M  V30 16499 H 1540.46 -1.68662 -3.56296 0
M  V30 16500 H 1541.75 -1.74525 -4.77931 0
M  V30 16501 H 1541.15 1.355 -5.49232 0
M  V30 16502 H 1539.7 1.18536 -6.40931 0
M  V30 16503 N 1543.14 1.28707 -0.909517 0
M  V30 16504 C 1544.36 1.99283 -0.556211 0
M  V30 16505 C 1544.78 1.68 0.861475 0
M  V30 16506 O 1544.14 0.930421 1.57001 0
M  V30 16507 C 1544.19 3.5362 -0.75068 0
M  V30 16508 O 1543.91 3.83799 -2.11258 0
M  V30 16509 C 1545.41 4.41459 -0.403637 0
M  V30 16510 H 1542.63 0.636476 -0.212462 0
M  V30 16511 H 1545.17 1.64007 -1.22156 0
M  V30 16512 H 1543.33 3.87174 -0.132384 0
M  V30 16513 H 1543.74 4.78448 -2.14913 0
M  V30 16514 H 1545.22 5.48833 -0.590496 0
M  V30 16515 H 1545.69 4.34214 0.659897 0
M  V30 16516 H 1546.3 4.13394 -0.999292 0
M  V30 16517 N 1544.61 0.673042 1.42506 0
M  V30 16518 C 1545.52 -0.00648572 2.34599 0
M  V30 16519 C 1546.54 -0.790758 1.54994 0
M  V30 16520 O 1547.72 -0.733482 1.87569 0
M  V30 16521 C 1544.78 -0.94734 3.33506 0
M  V30 16522 C 1543.84 -0.157795 4.2901 0
M  V30 16523 C 1543.08 -1.05384 5.23192 0
M  V30 16524 O 1543.3 -2.29334 5.22266 0
M  V30 16525 O 1542.23 -0.515584 5.99688 0
M  V30 16526 H 1546.06 0.752059 2.94241 0
M  V30 16527 H 1543.64 0.433272 1.42979 0
M  V30 16528 H 1545.53 -1.4875 3.94273 0
M  V30 16529 H 1544.2 -1.68577 2.7634 0
M  V30 16530 H 1543.11 0.426426 3.71662 0
M  V30 16531 H 1544.44 0.54148 4.89212 0
M  V30 16532 N 1546.09 -1.52004 0.416254 0
M  V30 16533 C 1547.06 -2.2579 -0.393882 0
M  V30 16534 C 1548.06 -1.28427 -0.967637 0
M  V30 16535 O 1549.25 -1.52311 -0.845396 0
M  V30 16536 C 1546.38 -3.03361 -1.55515 0
M  V30 16537 H 1547.57 -2.98835 0.252492 0
M  V30 16538 H 1545.12 -1.55384 0.168929 0
M  V30 16539 H 1545.86 -2.34682 -2.23818 0
M  V30 16540 H 1545.64 -3.74852 -1.15015 0
M  V30 16541 H 1547.13 -3.5931 -2.12805 0
M  V30 16542 N 1547.57 -0.146903 -1.56914 0
M  V30 16543 C 1548.8 0.511181 -2.00486 0
M  V30 16544 C 1549.21 1.58425 -1.02699 0
M  V30 16545 O 1548.57 1.82484 -0.0239878 0
M  V30 16546 C 1548.62 1.11191 -3.43975 0
M  V30 16547 O 1548.34 0.0817094 -4.38024 0
M  V30 16548 C 1549.84 1.85061 -4.02824 0
M  V30 16549 H 1547.06 0.133078 -0.657671 0
M  V30 16550 H 1549.61 -0.241457 -2.0307 0
M  V30 16551 H 1547.76 1.81517 -3.42243 0
M  V30 16552 H 1548.18 0.52181 -5.21898 0
M  V30 16553 H 1549.65 2.22385 -5.05222 0
M  V30 16554 H 1550.13 2.73649 -3.4353 0
M  V30 16555 H 1550.73 1.19434 -4.08186 0
M  V30 16556 N 1549.05 1.57088 0.126881 0
M  V30 16557 C 1549.98 1.94951 1.18614 0
M  V30 16558 C 1550.96 0.818067 1.40522 0
M  V30 16559 O 1552.14 1.07553 1.54805 0
M  V30 16560 C 1549.27 2.23893 2.54144 0
M  V30 16561 C 1548.32 3.46475 2.48712 0
M  V30 16562 S 1549.15 4.9934 1.93443 0
M  V30 16563 C 1550.31 5.31426 3.30662 0
M  V30 16564 H 1550.54 2.84492 0.863219 0
M  V30 16565 H 1548.07 1.50759 0.333323 0
M  V30 16566 H 1550.03 2.41247 3.3213 0
M  V30 16567 H 1548.69 1.3498 2.83618 0
M  V30 16568 H 1547.88 3.64067 3.48528 0
M  V30 16569 H 1547.49 3.28467 1.78844 0
M  V30 16570 H 1549.78 5.26125 4.26847 0
M  V30 16571 H 1550.72 6.32726 3.17905 0
M  V30 16572 H 1551.13 4.5891 3.28727 0
M  V30 16573 N 1550.53 -0.396836 1.52522 0
M  V30 16574 C 1551.75 -1.16404 1.71049 0
M  V30 16575 C 1552.17 -1.83946 0.425378 0
M  V30 16576 O 1551.53 -1.7237 -0.599561 0
M  V30 16577 C 1551.58 -2.21796 2.85463 0
M  V30 16578 O 1551.3 -1.57009 4.08998 0
M  V30 16579 C 1552.8 -3.11303 3.15603 0
M  V30 16580 H 1550.02 -0.349314 0.572905 0
M  V30 16581 H 1552.56 -0.465297 1.99136 0
M  V30 16582 H 1550.72 -2.87318 2.59859 0
M  V30 16583 H 1551.13 -2.26977 4.72844 0
M  V30 16584 H 1552.61 -3.81299 3.99143 0
M  V30 16585 H 1553.08 -3.7437 2.2966 0
M  V30 16586 H 1553.69 -2.51435 3.43017 0
M  V30 16587 N 1552.01 -1.43353 -0.654814 0
M  V30 16588 C 1553.25 -1.44885 -1.41473 0
M  V30 16589 C 1553.58 -0.0725577 -1.94365 0
M  V30 16590 O 1552.84 0.9222 -1.72609 0
M  V30 16591 C 1553.13 -2.437 -2.61429 0
M  V30 16592 C 1552.8 -3.89612 -2.26965 0
M  V30 16593 C 1551.46 -4.29353 -2.17278 0
M  V30 16594 C 1553.81 -4.81569 -1.99351 0
M  V30 16595 C 1551.14 -5.59005 -1.7813 0
M  V30 16596 C 1553.49 -6.11584 -1.61702 0
M  V30 16597 C 1552.16 -6.50303 -1.50539 0
M  V30 16598 H 1551.43 -0.530172 -0.517686 0
M  V30 16599 H 1554.08 -1.76422 -0.744824 0
M  V30 16600 H 1552.38 -2.05561 -3.33544 0
M  V30 16601 H 1554.08 -2.42141 -3.19638 0
M  V30 16602 H 1550.67 -3.58159 -2.35414 0
M  V30 16603 H 1554.85 -4.51639 -2.05757 0
M  V30 16604 H 1550.11 -5.87845 -1.68072 0
M  V30 16605 H 1554.28 -6.82312 -1.39365 0
M  V30 16606 H 1551.91 -7.50673 -1.19975 0
M  V30 16607 N 1553.48 0.89303 -1.29857 0
M  V30 16608 C 1554.43 1.9979 -1.15554 0
M  V30 16609 C 1555.4 1.66033 -0.0471157 0
M  V30 16610 O 1556.59 1.89575 -0.215846 0
M  V30 16611 C 1553.73 3.34595 -0.844993 0
M  V30 16612 C 1552.84 3.81093 -2.03451 0
M  V30 16613 C 1551.97 5.04506 -1.66275 0
M  V30 16614 C 1551.01 5.4339 -2.8177 0
M  V30 16615 N 1550.15 6.57987 -2.44945 0
M  V30 16616 H 1554.99 2.11355 -2.10079 0
M  V30 16617 H 1552.53 1.03497 -1.04531 0
M  V30 16618 H 1554.48 4.12175 -0.645598 0
M  V30 16619 H 1553.11 3.22738 0.0633626 0
M  V30 16620 H 1552.17 2.99491 -2.34541 0
M  V30 16621 H 1553.48 4.05855 -2.8997 0
M  V30 16622 H 1552.63 5.89688 -1.42664 0
M  V30 16623 H 1551.37 4.81597 -0.769144 0
M  V30 16624 H 1550.38 4.56738 -3.06056 0
M  V30 16625 H 1551.6 5.68276 -3.71805 0
M  V30 16626 H 1549.55 6.36669 -1.58079 0
M  V30 16627 H 1549.46 6.82579 -3.24996 0
M  V30 16628 H 1550.73 7.46421 -2.24669 0
M  V30 16629 N 1554.96 1.12442 1.10429 0
M  V30 16630 C 1556.19 0.901291 1.85904 0
M  V30 16631 C 1556.6 -0.552928 1.8094 0
M  V30 16632 O 1555.94 -1.39404 1.19633 0
M  V30 16633 C 1556 1.29808 3.35246 0
M  V30 16634 C 1555.67 2.76361 3.63969 0
M  V30 16635 C 1556.67 3.74553 3.60564 0
M  V30 16636 C 1554.35 3.13268 3.92643 0
M  V30 16637 C 1556.34 5.07667 3.85426 0
M  V30 16638 C 1554.03 4.46564 4.17162 0
M  V30 16639 C 1555.03 5.43572 4.13544 0
M  V30 16640 O 1554.72 6.74465 4.37439 0
M  V30 16641 H 1554.45 0.321969 0.5944 0
M  V30 16642 H 1557 1.49816 1.40514 0
M  V30 16643 H 1555.23 0.644416 3.81293 0
M  V30 16644 H 1556.92 1.04908 3.92108 0
M  V30 16645 H 1557.69 3.47385 3.3845 0
M  V30 16646 H 1553.57 2.3837 3.94589 0
M  V30 16647 H 1557.11 5.83375 3.82518 0
M  V30 16648 H 1553.01 4.73461 4.38754 0
M  V30 16649 H 1553.78 6.80412 4.54953 0
M  V30 16650 N 1556.44 -1.28223 0.91633 0
M  V30 16651 C 1557.39 -2.29188 0.396916 0
M  V30 16652 C 1558.38 -1.61453 -0.512763 0
M  V30 16653 O 1559.59 -1.75641 -0.393723 0
M  V30 16654 H 1555.96 -0.743947 0.109761 0
M  V30 16655 H 1557.93 -2.70423 1.2615 0
M  V30 16656 C 1556.68 -3.4598 -0.345452 0
M  V30 16657 H 1556.01 -3.98306 0.345326 0
M  V30 16658 H 1557.45 -4.18617 -0.67349 0
M  V30 16659 C 1555.9 -2.98904 -1.55429 0
M  V30 16660 O 1556.43 -3.01598 -2.65333 0
M  V30 16661 N 1554.64 -2.54534 -1.40217 0
M  V30 16662 H 1554.19 -2.52541 -0.508029 0
M  V30 16663 H 1554.15 -2.23397 -2.21227 0
M  V30 16664 N 1557.92 -0.68059 -1.42147 0
M  V30 16665 C 1559.33 -0.350691 -1.55699 0
M  V30 16666 C 1559.53 1.1435 -1.6591 0
M  V30 16667 O 1558.59 1.92905 -1.62923 0
M  V30 16668 C 1559.9 -1.08608 -2.80401 0
M  V30 16669 C 1561.45 -1.06897 -2.9418 0
M  V30 16670 C 1561.93 -1.78581 -4.2175 0
M  V30 16671 N 1563.42 -1.75477 -4.28675 0
M  V30 16672 C 1564.15 -2.27794 -5.26211 0
M  V30 16673 N 1563.65 -2.88518 -6.29865 0
M  V30 16674 N 1565.44 -2.18135 -5.18048 0
M  V30 16675 H 1557.59 -1.64988 -1.33763 0
M  V30 16676 H 1559.85 -0.695411 -0.644289 0
M  V30 16677 H 1559.56 -2.14113 -2.79014 0
M  V30 16678 H 1559.43 -0.655022 -3.71469 0
M  V30 16679 H 1561.82 -0.0222464 -2.95092 0
M  V30 16680 H 1561.9 -1.53897 -2.04327 0
M  V30 16681 H 1561.55 -2.83225 -4.21599 0
M  V30 16682 H 1561.48 -1.29027 -5.10548 0
M  V30 16683 H 1563.97 -1.31191 -3.54397 0
M  V30 16684 H 1564.28 -3.26043 -7.00654 0
M  V30 16685 H 1562.63 -2.92589 -6.3041 0
M  V30 16686 H 1565.82 -1.7038 -4.35991 0
M  V30 16687 H 1565.99 -2.59213 -5.93896 0
M  V30 16688 N 1559.4 1.51781 -0.424309 0
M  V30 16689 C 1560.33 2.25144 0.429274 0
M  V30 16690 C 1561.34 1.2867 0.997389 0
M  V30 16691 O 1562.53 1.54514 0.893746 0
M  V30 16692 C 1559.63 2.98156 1.61109 0
M  V30 16693 C 1558.8 4.21623 1.16417 0
M  V30 16694 C 1557.86 4.77327 2.21462 0
M  V30 16695 O 1556.89 5.39511 1.8143 0
M  V30 16696 N 1558.09 4.60221 3.53803 0
M  V30 16697 H 1560.85 2.99036 -0.199438 0
M  V30 16698 H 1558.42 1.59919 -0.252492 0
M  V30 16699 H 1560.41 3.32312 2.30978 0
M  V30 16700 H 1558.98 2.27356 2.14541 0
M  V30 16701 H 1558.2 3.93109 0.293034 0
M  V30 16702 H 1559.49 5.01772 0.842767 0
M  V30 16703 H 1558.88 4.10661 3.89068 0
M  V30 16704 H 1557.44 4.98774 4.19604 0
M  V30 16705 N 1560.87 0.155222 1.56834 0
M  V30 16706 C 1562.1 -0.503763 2.01189 0
M  V30 16707 C 1562.52 -1.57086 1.03468 0
M  V30 16708 O 1561.88 -1.81296 0.0116895 0
M  V30 16709 C 1561.93 -1.07373 3.44243 0
M  V30 16710 O 1561.03 -2.18834 3.49551 0
M  V30 16711 H 1560.37 -0.122368 0.652627 0
M  V30 16712 H 1562.9 0.254377 2.03013 0
M  V30 16713 H 1562.91 -1.40036 3.83215 0
M  V30 16714 H 1561.59 -0.292339 4.14871 0
M  V30 16715 H 1560.17 -1.87337 3.22427 0
M  V30 16716 N 1562.35 -1.57153 -0.118549 0
M  V30 16717 C 1563.28 -1.95577 -1.17579 0
M  V30 16718 C 1564.26 -0.825508 -1.40086 0
M  V30 16719 O 1565.45 -1.08372 -1.54233 0
M  V30 16720 C 1562.57 -2.25238 -2.52954 0
M  V30 16721 C 1561.62 -3.47789 -2.46871 0
M  V30 16722 S 1562.45 -5.00358 -1.90792 0
M  V30 16723 C 1563.61 -5.33172 -3.27839 0
M  V30 16724 H 1563.84 -2.84946 -0.84812 0
M  V30 16725 H 1561.37 -1.50934 -0.325323 0
M  V30 16726 H 1563.33 -2.43005 -3.30846 0
M  V30 16727 H 1561.99 -1.36482 -2.82898 0
M  V30 16728 H 1561.19 -3.6591 -3.46592 0
M  V30 16729 H 1560.79 -3.29411 -1.771 0
M  V30 16730 H 1563.08 -5.28381 -4.24051 0
M  V30 16731 H 1564.02 -6.34403 -3.14545 0
M  V30 16732 H 1564.43 -4.60647 -3.26289 0
M  V30 16733 N 1563.83 0.388742 -1.5273 0
M  V30 16734 C 1565.06 1.15495 -1.71664 0
M  V30 16735 C 1565.47 1.83717 -0.435127 0
M  V30 16736 O 1564.83 1.72686 0.590411 0
M  V30 16737 C 1564.88 2.20279 -2.86635 0
M  V30 16738 O 1564.6 1.54838 -4.09825 0
M  V30 16739 C 1566.1 3.09625 -3.1725 0
M  V30 16740 H 1563.32 0.346271 -0.57475 0
M  V30 16741 H 1565.87 0.454729 -1.9938 0
M  V30 16742 H 1564.02 2.85936 -2.61379 0
M  V30 16743 H 1564.44 2.24466 -4.74042 0
M  V30 16744 H 1565.91 3.79177 -4.01159 0
M  V30 16745 H 1566.39 3.73147 -2.31643 0
M  V30 16746 H 1566.99 2.49612 -3.44345 0
M  V30 16747 N 1565.31 1.43698 0.647203 0
M  V30 16748 C 1566.24 1.52135 1.77136 0
M  V30 16749 C 1567.22 0.375551 1.65902 0
M  V30 16750 O 1568.4 0.593564 1.84907 0
M  V30 16751 C 1565.53 1.44974 3.15594 0
M  V30 16752 C 1564.49 2.57866 3.41598 0
M  V30 16753 C 1563.81 2.35757 4.7992 0
M  V30 16754 C 1565.11 4.00089 3.35747 0
M  V30 16755 H 1566.81 2.46227 1.70332 0
M  V30 16756 H 1564.35 1.18507 0.818046 0
M  V30 16757 H 1566.31 1.4948 3.93997 0
M  V30 16758 H 1565.03 0.473905 3.23143 0
M  V30 16759 H 1563.69 2.52722 2.65569 0
M  V30 16760 H 1563.34 1.36403 4.84152 0
M  V30 16761 H 1563.04 3.11436 4.98278 0
M  V30 16762 H 1564.56 2.42055 5.60572 0
M  V30 16763 H 1565.98 4.06687 4.04078 0
M  V30 16764 H 1564.37 4.75842 3.65642 0
M  V30 16765 H 1565.44 4.24798 2.33825 0
M  V30 16766 N 1566.79 -0.886131 1.30328 0
M  V30 16767 C 1568.01 -1.67625 1.22134 0
M  V30 16768 C 1568.44 -1.86893 -0.212712 0
M  V30 16769 O 1567.79 -1.39905 -1.1531 0
M  V30 16770 C 1567.84 -3.03068 1.95402 0
M  V30 16771 O 1566.95 -3.92022 1.28032 0
M  V30 16772 H 1566.29 -0.512246 0.422493 0
M  V30 16773 H 1568.82 -1.10602 1.72129 0
M  V30 16774 H 1568.83 -3.53119 2.04379 0
M  V30 16775 H 1567.5 -2.88363 2.99699 0
M  V30 16776 H 1566.08 -3.50461 1.27402 0
M  V30 16777 N 1568.26 -1.13026 -1.09832 0
M  V30 16778 C 1569.49 -0.912803 -1.86233 0
M  V30 16779 C 1569.91 0.532955 -1.80392 0
M  V30 16780 O 1569.27 1.37783 -1.17837 0
M  V30 16781 C 1569.32 -1.40002 -3.32313 0
M  V30 16782 O 1568.42 -0.582537 -4.08265 0
M  V30 16783 H 1567.77 -0.327464 -0.577636 0
M  V30 16784 H 1570.3 -1.5039 -1.38723 0
M  V30 16785 H 1570.31 -1.40182 -3.83162 0
M  V30 16786 H 1568.98 -2.4527 -3.3588 0
M  V30 16787 H 1567.56 -0.648255 -3.67222 0
M  V30 16788 N 1569.74 1.27735 -0.923117 0
M  V30 16789 C 1570.65 2.30734 -0.424124 0
M  V30 16790 C 1571.67 1.66872 0.49291 0
M  V30 16791 O 1572.84 1.97843 0.37683 0
M  V30 16792 C 1569.91 3.45227 0.319254 0
M  V30 16793 C 1568.97 4.2462 -0.632137 0
M  V30 16794 C 1568.2 5.33646 0.0758596 0
M  V30 16795 O 1568.43 5.55481 1.29602 0
M  V30 16796 O 1567.36 5.98966 -0.593624 0
M  V30 16797 H 1571.19 2.75444 -1.27923 0
M  V30 16798 H 1568.77 1.32601 -0.688288 0
M  V30 16799 H 1570.65 4.14874 0.73873 0
M  V30 16800 H 1569.33 3.02582 1.15004 0
M  V30 16801 H 1568.24 3.57525 -1.1012 0
M  V30 16802 H 1569.57 4.70969 -1.43001 0
M  V30 16803 N 1571.22 0.688118 1.41784 0
M  V30 16804 C 1572.47 0.216263 2.01644 0
M  V30 16805 C 1572.8 -1.17861 1.54345 0
M  V30 16806 O 1572.07 -1.794 0.751392 0
M  V30 16807 C 1572.36 0.265663 3.59119 0
M  V30 16808 C 1572.21 1.69694 4.16562 0
M  V30 16809 C 1573.53 -0.378713 4.38468 0
M  V30 16810 H 1570.65 0.0800582 0.732639 0
M  V30 16811 H 1573.29 0.875428 1.68631 0
M  V30 16812 H 1571.44 -0.295588 3.87374 0
M  V30 16813 H 1573.11 2.31146 3.9921 0
M  V30 16814 H 1571.36 2.23345 3.71886 0
M  V30 16815 H 1572.03 1.68309 5.25715 0
M  V30 16816 H 1574.5 0.0991969 4.15982 0
M  V30 16817 H 1573.38 -0.31357 5.48004 0
M  V30 16818 H 1573.64 -1.45832 4.17355 0
M  V30 16819 N 1572.7 -1.51554 0.432352 0
M  V30 16820 C 1573.63 -2.25369 -0.417328 0
M  V30 16821 C 1574.64 -1.29197 -0.990551 0
M  V30 16822 O 1575.83 -1.54985 -0.885539 0
M  V30 16823 C 1572.93 -2.99006 -1.59526 0
M  V30 16824 C 1572.11 -4.22234 -1.1418 0
M  V30 16825 C 1571.16 -4.78495 -2.18928 0
M  V30 16826 O 1570.19 -5.40465 -1.78566 0
M  V30 16827 N 1571.39 -4.62091 -3.51358 0
M  V30 16828 H 1574.16 -2.98926 0.215294 0
M  V30 16829 H 1571.72 -1.59783 0.26097 0
M  V30 16830 H 1573.71 -3.33532 -2.29212 0
M  V30 16831 H 1572.28 -2.28491 -2.13332 0
M  V30 16832 H 1571.5 -3.93259 -0.272182 0
M  V30 16833 H 1572.79 -5.02212 -0.816145 0
M  V30 16834 H 1572.19 -4.12718 -3.86885 0
M  V30 16835 H 1570.74 -5.00992 -4.16953 0
M  V30 16836 N 1574.18 -0.163538 -1.56749 0
M  V30 16837 C 1575.43 0.483453 -1.9582 0
M  V30 16838 C 1575.74 1.64913 -1.05181 0
M  V30 16839 O 1576.94 2.36184 -1.33901 0
M  V30 16840 C 1575.4 0.911471 -3.48167 0
M  V30 16841 C 1575.01 -0.228178 -4.47419 0
M  V30 16842 C 1576.75 1.52732 -3.96072 0
M  V30 16843 C 1574.66 0.219036 -5.90994 0
M  V30 16844 H 1573.59 0.184383 -0.731108 0
M  V30 16845 H 1576.24 -0.250527 -1.81782 0
M  V30 16846 H 1574.62 1.7012 -3.57596 0
M  V30 16847 H 1575.8 -1.0054 -4.49698 0
M  V30 16848 H 1574.11 -0.753485 -4.09526 0
M  V30 16849 H 1576.71 1.87383 -5.00791 0
M  V30 16850 H 1577.05 2.42239 -3.38565 0
M  V30 16851 H 1577.58 0.802176 -3.89628 0
M  V30 16852 H 1574.32 -0.641066 -6.52358 0
M  V30 16853 H 1573.84 0.96178 -5.92039 0
M  V30 16854 H 1575.52 0.665524 -6.43568 0
M  V30 16855 N 1575.65 1.57214 0.110213 0
M  V30 16856 C 1577.07 1.74402 0.666405 0
M  V30 16857 C 1577.42 0.783524 1.79876 0
M  V30 16858 O 1576.54 -0.0415306 2.1636 0
M  V30 16859 C 1577.14 3.1624 1.21564 0
M  V30 16860 C 1575.7 3.34904 1.71804 0
M  V30 16861 C 1574.84 2.70249 0.621347 0
M  V30 16862 H 1577.79 1.58277 -0.115765 0
M  V30 16863 H 1577.81 3.18276 2.0852 0
M  V30 16864 H 1577.33 3.86123 0.391273 0
M  V30 16865 H 1575.43 2.70077 2.56689 0
M  V30 16866 H 1575.54 4.43126 1.82143 0
M  V30 16867 H 1573.9 2.31727 1.05711 0
M  V30 16868 H 1574.69 3.42762 -0.192185 0
M  V30 16869 N 1577.13 -0.380637 1.52934 0
M  V30 16870 C 1578.41 -1.13958 1.58975 0
M  V30 16871 C 1578.79 -2.07503 0.388028 0
M  V30 16872 O 1578.14 -2.19844 -0.622984 0
M  V30 16873 C 1578.35 -1.89192 2.9327 0
M  V30 16874 C 1579.7 -2.44259 3.47308 0
M  V30 16875 O 1580.72 -1.99338 2.95199 0
M  V30 16876 O 1579.58 -3.26338 4.38367 0
M  V30 16877 H 1576.67 -0.521896 0.641525 0
M  V30 16878 H 1579.22 -0.385114 1.65272 0
M  V30 16879 H 1577.99 -1.20834 3.72176 0
M  V30 16880 H 1577.61 -2.71581 2.90395 0
M  V30 16881 N 1578.61 -1.44039 -0.639573 0
M  V30 16882 C 1579.86 -1.46377 -1.39928 0
M  V30 16883 C 1580.19 -0.0931685 -1.94277 0
M  V30 16884 O 1579.44 0.903841 -1.73578 0
M  V30 16885 C 1579.74 -2.46459 -2.5883 0
M  V30 16886 C 1579.41 -3.91998 -2.2282 0
M  V30 16887 C 1578.07 -4.31633 -2.12712 0
M  V30 16888 C 1580.42 -4.83656 -1.94232 0
M  V30 16889 C 1577.75 -5.60863 -1.72191 0
M  V30 16890 C 1580.1 -6.13265 -1.55206 0
M  V30 16891 C 1578.76 -6.51863 -1.43633 0
M  V30 16892 H 1578.03 -0.535633 -0.512034 0
M  V30 16893 H 1580.68 -1.77202 -0.72607 0
M  V30 16894 H 1578.99 -2.09087 -3.31345 0
M  V30 16895 H 1580.68 -2.45518 -3.17052 0
M  V30 16896 H 1577.27 -3.60636 -2.31602 0
M  V30 16897 H 1581.46 -4.53796 -2.00955 0
M  V30 16898 H 1576.71 -5.89595 -1.61828 0
M  V30 16899 H 1580.89 -6.83752 -1.32121 0
M  V30 16900 H 1578.51 -7.51903 -1.12006 0
M  V30 16901 N 1580.09 0.879207 -1.30796 0
M  V30 16902 C 1581.37 1.61328 -1.10602 0
M  V30 16903 C 1581.75 2.08301 0.342621 0
M  V30 16904 O 1581.09 1.85436 1.33514 0
M  V30 16905 C 1581.3 2.77838 -2.11203 0
M  V30 16906 C 1582.65 3.48028 -2.43231 0
M  V30 16907 O 1583.68 2.88034 -2.09559 0
M  V30 16908 O 1582.53 4.56233 -3.00854 0
M  V30 16909 H 1579.63 0.709335 -0.425174 0
M  V30 16910 H 1582.17 0.925478 -1.42243 0
M  V30 16911 H 1580.95 2.40475 -3.08687 0
M  V30 16912 H 1580.57 3.54312 -1.80414 0
M  V30 16913 N 1581.57 1.13606 1.09231 0
M  V30 16914 C 1582.81 0.900386 1.81717 0
M  V30 16915 C 1583.15 -0.571984 1.85586 0
M  V30 16916 O 1582.42 -1.42336 1.32554 0
M  V30 16917 C 1582.7 1.49143 3.27763 0
M  V30 16918 C 1582.56 3.03306 3.32153 0
M  V30 16919 C 1583.88 1.16129 4.24502 0
M  V30 16920 H 1581 0.328531 0.659724 0
M  V30 16921 H 1583.64 1.40467 1.27941 0
M  V30 16922 H 1581.79 1.06256 3.73687 0
M  V30 16923 H 1583.46 3.54963 2.94617 0
M  V30 16924 H 1581.7 3.38192 2.71677 0
M  V30 16925 H 1582.37 3.39761 4.35047 0
M  V30 16926 H 1584.85 1.53193 3.86874 0
M  V30 16927 H 1583.73 1.60129 5.25024 0
M  V30 16928 H 1583.99 0.0752973 4.42036 0
M  V30 16929 N 1583.05 -1.27244 0.929878 0
M  V30 16930 C 1584.32 -1.89369 0.489774 0
M  V30 16931 C 1584.7 -1.84142 -1.03222 0
M  V30 16932 O 1584.05 -1.2881 -1.88733 0
M  V30 16933 C 1584.26 -3.33196 1.03833 0
M  V30 16934 C 1585.61 -4.101 1.10013 0
M  V30 16935 O 1586.63 -3.42221 0.988106 0
M  V30 16936 O 1585.49 -5.31468 1.27296 0
M  V30 16937 H 1582.59 -0.811789 0.157882 0
M  V30 16938 H 1585.13 -1.35496 1.02171 0
M  V30 16939 H 1583.9 -3.31304 2.08214 0
M  V30 16940 H 1583.53 -3.94592 0.488167 0
M  V30 16941 N 1584.52 -0.695628 -1.41417 0
M  V30 16942 C 1585.45 -0.0447013 -2.33457 0
M  V30 16943 C 1586.43 0.767104 -1.51821 0
M  V30 16944 O 1587.62 0.720066 -1.80357 0
M  V30 16945 C 1584.75 0.892353 -3.3564 0
M  V30 16946 C 1583.7 0.187638 -4.27588 0
M  V30 16947 C 1583.03 1.23906 -5.20146 0
M  V30 16948 C 1584.33 -0.946093 -5.1366 0
M  V30 16949 H 1586.02 -0.81343 -2.88138 0
M  V30 16950 H 1583.57 -0.392614 -1.38544 0
M  V30 16951 H 1585.52 1.35696 -3.98954 0
M  V30 16952 H 1584.25 1.69275 -2.79309 0
M  V30 16953 H 1582.91 -0.256942 -3.65698 0
M  V30 16954 H 1582.55 2.03198 -4.6013 0
M  V30 16955 H 1582.25 0.772536 -5.82499 0
M  V30 16956 H 1583.78 1.70417 -5.86336 0
M  V30 16957 H 1585.19 -0.561764 -5.70541 0
M  V30 16958 H 1583.59 -1.33971 -5.84954 0
M  V30 16959 H 1584.66 -1.78573 -4.50821 0
M  V30 16960 N 1586 1.51322 -0.440383 0
M  V30 16961 C 1587.25 2.01714 0.124815 0
M  V30 16962 C 1587.57 1.32634 1.42945 0
M  V30 16963 O 1586.84 0.461849 1.90378 0
M  V30 16964 H 1585.42 0.745384 0.049116 0
M  V30 16965 H 1588.08 1.85951 -0.583787 0
M  V30 16966 H 1587.18 3.10669 0.29853 0
M  V30 16967 N 1587.48 0.171848 1.5666 0
M  V30 16968 C 1588.71 -0.479221 2.01274 0
M  V30 16969 C 1589.12 -1.56771 1.05206 0
M  V30 16970 O 1588.48 -1.82423 0.0530164 0
M  V30 16971 C 1588.53 -1.05705 3.457 0
M  V30 16972 O 1588.25 -0.0120133 4.38098 0
M  V30 16973 C 1589.75 -1.78629 4.05717 0
M  V30 16974 H 1586.97 -0.122598 0.659705 0
M  V30 16975 H 1589.52 0.273733 2.0266 0
M  V30 16976 H 1587.67 -1.7605 3.45087 0
M  V30 16977 H 1588.09 -0.438714 5.22662 0
M  V30 16978 H 1589.56 -2.14319 5.08696 0
M  V30 16979 H 1590.04 -2.68149 3.4784 0
M  V30 16980 H 1590.64 -1.12925 4.10034 0
M  V30 16981 N 1588.96 -1.5727 -0.101874 0
M  V30 16982 C 1590.21 -1.84928 -0.805263 0
M  V30 16983 C 1590.52 -0.760099 -1.80227 0
M  V30 16984 O 1591.73 -0.923594 -2.55308 0
M  V30 16985 C 1590.18 -3.27929 -1.48291 0
M  V30 16986 C 1589.79 -4.44901 -0.526016 0
M  V30 16987 C 1591.53 -3.64819 -2.17043 0
M  V30 16988 C 1589.44 -5.78934 -1.20787 0
M  V30 16989 H 1588.37 -0.689789 -0.304478 0
M  V30 16990 H 1591.02 -1.83408 -0.0581337 0
M  V30 16991 H 1589.4 -3.2397 -2.27726 0
M  V30 16992 H 1590.58 -4.60193 0.236352 0
M  V30 16993 H 1588.89 -4.16363 0.0554387 0
M  V30 16994 H 1591.49 -4.62236 -2.68778 0
M  V30 16995 H 1591.83 -2.93104 -2.95628 0
M  V30 16996 H 1592.37 -3.70637 -1.44476 0
M  V30 16997 H 1589.1 -6.53863 -0.46296 0
M  V30 16998 H 1588.62 -5.67497 -1.94183 0
M  V30 16999 H 1590.3 -6.23268 -1.73626 0
M  V30 17000 N 1590.44 0.372521 -1.53134 0
M  V30 17001 C 1591.37 1.4621 -1.82057 0
M  V30 17002 C 1592.35 1.56194 -0.673612 0
M  V30 17003 O 1593.53 1.70875 -0.922797 0
M  V30 17004 C 1590.66 2.83632 -2.00425 0
M  V30 17005 C 1589.62 2.88478 -3.16171 0
M  V30 17006 C 1588.94 4.28508 -3.19821 0
M  V30 17007 C 1590.24 2.56628 -4.54906 0
M  V30 17008 H 1591.94 1.22256 -2.73302 0
M  V30 17009 H 1589.48 0.586688 -1.31507 0
M  V30 17010 H 1591.43 3.59876 -2.19242 0
M  V30 17011 H 1590.16 3.0896 -1.05884 0
M  V30 17012 H 1588.82 2.14684 -2.97164 0
M  V30 17013 H 1588.47 4.509 -2.2293 0
M  V30 17014 H 1588.17 4.32667 -3.97584 0
M  V30 17015 H 1589.69 5.06635 -3.40813 0
M  V30 17016 H 1591.1 3.22587 -4.73931 0
M  V30 17017 H 1589.5 2.72114 -5.34859 0
M  V30 17018 H 1590.57 1.51902 -4.60493 0
M  V30 17019 N 1591.91 1.44376 0.631925 0
M  V30 17020 C 1593.33 1.28245 0.950014 0
M  V30 17021 C 1593.53 0.217644 2.00321 0
M  V30 17022 O 1592.59 -0.396736 2.49364 0
M  V30 17023 C 1593.9 2.65378 1.41404 0
M  V30 17024 C 1595.45 2.73081 1.52956 0
M  V30 17025 C 1595.92 4.10682 2.02742 0
M  V30 17026 N 1597.41 4.12854 2.10014 0
M  V30 17027 C 1598.15 5.16173 2.49705 0
M  V30 17028 N 1597.64 6.29855 2.88539 0
M  V30 17029 N 1599.44 5.03528 2.49832 0
M  V30 17030 H 1591.59 2.12302 -0.0646167 0
M  V30 17031 H 1593.85 0.9474 0.0337162 0
M  V30 17032 H 1593.56 3.44366 0.714476 0
M  V30 17033 H 1593.43 2.92213 2.3852 0
M  V30 17034 H 1595.82 1.94412 2.22009 0
M  V30 17035 H 1595.9 2.49988 0.542176 0
M  V30 17036 H 1595.54 4.89827 1.34285 0
M  V30 17037 H 1595.47 4.31152 3.02351 0
M  V30 17038 H 1597.96 3.30806 1.8269 0
M  V30 17039 H 1598.28 7.04505 3.17637 0
M  V30 17040 H 1596.62 6.33294 2.86293 0
M  V30 17041 H 1599.81 4.13773 2.18883 0
M  V30 17042 H 1599.99 5.84172 2.80441 0
M  V30 17043 N 1593.39 -0.872258 1.31261 0
M  V30 17044 C 1594.64 -1.62752 1.20994 0
M  V30 17045 C 1594.97 -1.9281 -0.231942 0
M  V30 17046 O 1594.25 -1.55808 -1.16423 0
M  V30 17047 C 1594.53 -2.95921 2.0519 0
M  V30 17048 C 1594.38 -2.72756 3.57665 0
M  V30 17049 C 1595.7 -3.96996 1.89953 0
M  V30 17050 H 1592.82 -0.590581 0.440889 0
M  V30 17051 H 1595.46 -1.00848 1.61027 0
M  V30 17052 H 1593.61 -3.48756 1.71177 0
M  V30 17053 H 1595.28 -2.26611 4.01803 0
M  V30 17054 H 1593.53 -2.07029 3.81211 0
M  V30 17055 H 1594.2 -3.67502 4.11882 0
M  V30 17056 H 1596.67 -3.53363 2.19713 0
M  V30 17057 H 1595.55 -4.88063 2.51169 0
M  V30 17058 H 1595.81 -4.33611 0.862191 0
M  V30 17059 N 1594.87 -1.14184 -1.08627 0
M  V30 17060 C 1595.82 -0.822297 -2.1758 0
M  V30 17061 C 1596.81 0.198863 -1.68229 0
M  V30 17062 O 1598.02 0.0551869 -1.79915 0
M  V30 17063 H 1594.39 -0.248183 -0.709866 0
M  V30 17064 H 1596.36 -1.74916 -2.41758 0
M  V30 17065 C 1595.11 -0.313671 -3.46282 0
M  V30 17066 H 1594.44 -1.09078 -3.84632 0
M  V30 17067 H 1595.88 -0.128604 -4.23805 0
M  V30 17068 C 1594.33 0.962289 -3.22865 0
M  V30 17069 O 1594.86 2.03649 -3.46251 0
M  V30 17070 N 1593.07 0.896635 -2.76421 0
M  V30 17071 H 1592.62 0.0223186 -2.5759 0
M  V30 17072 H 1592.58 1.75093 -2.61132 0
M  V30 17073 N 1596.35 1.26749 -0.936613 0
M  V30 17074 C 1597.63 1.89106 -0.49981 0
M  V30 17075 C 1598.01 1.84687 1.02244 0
M  V30 17076 O 1597.35 1.2981 1.88047 0
M  V30 17077 C 1597.56 3.32641 -1.05598 0
M  V30 17078 C 1598.91 4.09511 -1.12187 0
M  V30 17079 O 1599.94 3.41692 -1.00624 0
M  V30 17080 O 1598.79 5.30785 -1.30113 0
M  V30 17081 H 1595.89 0.810941 -0.162185 0
M  V30 17082 H 1598.43 1.34952 -1.02888 0
M  V30 17083 H 1597.21 3.30196 -2.09968 0
M  V30 17084 H 1596.83 3.94327 -0.509086 0
M  V30 17085 N 1597.83 0.703118 1.41046 0
M  V30 17086 C 1598.74 0.0432777 2.3456 0
M  V30 17087 C 1599.75 -0.757704 1.56636 0
M  V30 17088 O 1600.93 -0.693531 1.89082 0
M  V30 17089 C 1597.99 -0.876385 3.35441 0
M  V30 17090 C 1597.05 -0.06676 4.29248 0
M  V30 17091 C 1596.29 -0.942622 5.2531 0
M  V30 17092 O 1596.51 -2.18205 5.27013 0
M  V30 17093 O 1595.44 -0.388266 6.00646 0
M  V30 17094 H 1599.27 0.814302 2.9258 0
M  V30 17095 H 1596.86 0.463503 1.42028 0
M  V30 17096 H 1598.74 -1.40353 3.9734 0
M  V30 17097 H 1597.41 -1.62677 2.79853 0
M  V30 17098 H 1596.32 0.505165 3.70674 0
M  V30 17099 H 1597.65 0.645128 4.87954 0
M  V30 17100 N 1599.3 -1.51086 0.448402 0
M  V30 17101 C 1600.53 -2.07081 -0.115038 0
M  V30 17102 C 1600.95 -1.31253 -1.34737 0
M  V30 17103 O 1600.31 -0.353613 -1.77818 0
M  V30 17104 C 1600.36 -3.58321 -0.404803 0
M  V30 17105 O 1599.46 -3.84567 -1.48936 0
M  V30 17106 H 1598.81 -0.663993 0.00299118 0
M  V30 17107 H 1601.34 -1.94564 0.632921 0
M  V30 17108 H 1601.35 -4.02756 -0.652013 0
M  V30 17109 H 1600.02 -4.12934 0.495838 0
M  V30 17110 H 1598.6 -3.51987 -1.23124 0
M  V30 17111 N 1600.78 -0.180154 -1.56567 0
M  V30 17112 C 1602.01 0.46854 -2.01525 0
M  V30 17113 C 1602.43 1.56211 -1.06036 0
M  V30 17114 O 1601.78 1.82392 -0.06269 0
M  V30 17115 C 1601.83 1.0387 -3.46256 0
M  V30 17116 O 1601.55 -0.0112203 -4.38099 0
M  V30 17117 C 1603.06 1.76475 -4.06659 0
M  V30 17118 H 1600.28 0.119098 -0.660346 0
M  V30 17119 H 1602.82 -0.284477 -2.02512 0
M  V30 17120 H 1600.97 1.74217 -3.46016 0
M  V30 17121 H 1601.39 0.41099 -5.22887 0
M  V30 17122 H 1602.86 2.11618 -5.09825 0
M  V30 17123 H 1603.34 2.66301 -3.49257 0
M  V30 17124 H 1603.95 1.10749 -4.10627 0
M  V30 17125 N 1602.26 1.57322 0.0935319 0
M  V30 17126 C 1603.17 2.05499 1.13169 0
M  V30 17127 C 1604.19 0.980199 1.43764 0
M  V30 17128 O 1605.36 1.29347 1.54374 0
M  V30 17129 C 1602.43 2.47111 2.43181 0
M  V30 17130 C 1601.49 3.68791 2.19754 0
M  V30 17131 C 1600.72 4.08408 3.43567 0
M  V30 17132 O 1600.94 3.48104 4.51863 0
M  V30 17133 O 1599.88 5.01351 3.33062 0
M  V30 17134 H 1603.7 2.9423 0.752491 0
M  V30 17135 H 1601.29 1.4623 0.306151 0
M  V30 17136 H 1603.17 2.74495 3.19735 0
M  V30 17137 H 1601.85 1.61518 2.80524 0
M  V30 17138 H 1600.75 3.46521 1.40976 0
M  V30 17139 H 1602.09 4.55169 1.87303 0
M  V30 17140 N 1603.74 -0.364395 1.53329 0
M  V30 17141 C 1604.99 -1.10473 1.69234 0
M  V30 17142 C 1605.31 -1.89799 0.447347 0
M  V30 17143 O 1604.58 -1.8835 -0.538612 0
M  V30 17144 H 1603.16 -0.410826 0.623884 0
M  V30 17145 H 1605.82 -0.410721 1.90523 0
M  V30 17146 H 1604.92 -1.79387 2.55396 0
M  V30 17147 N 1605.22 -1.44709 -0.62426 0
M  V30 17148 C 1606.16 -1.52104 -1.73589 0
M  V30 17149 C 1607.13 -0.368193 -1.61968 0
M  V30 17150 O 1608.32 -0.579374 -1.81791 0
M  V30 17151 C 1605.46 -1.4778 -3.11857 0
M  V30 17152 C 1604.57 -2.73491 -3.34405 0
M  V30 17153 C 1603.71 -2.60953 -4.62685 0
M  V30 17154 C 1602.75 -3.81795 -4.78434 0
M  V30 17155 N 1601.88 -3.67892 -5.97997 0
M  V30 17156 H 1606.72 -2.47077 -1.66604 0
M  V30 17157 H 1604.26 -1.22617 -0.812616 0
M  V30 17158 H 1606.22 -1.43263 -3.91831 0
M  V30 17159 H 1604.85 -0.563694 -3.1784 0
M  V30 17160 H 1603.9 -2.88166 -2.48324 0
M  V30 17161 H 1605.21 -3.6317 -3.4192 0
M  V30 17162 H 1604.37 -2.54308 -5.50829 0
M  V30 17163 H 1603.1 -1.68846 -4.57539 0
M  V30 17164 H 1602.11 -3.88817 -3.88717 0
M  V30 17165 H 1603.33 -4.74947 -4.85388 0
M  V30 17166 H 1601.28 -2.78541 -5.93928 0
M  V30 17167 H 1601.2 -4.51193 -6.06598 0
M  V30 17168 H 1602.47 -3.6515 -6.88684 0
M  V30 17169 N 1606.69 0.865285 -1.31722 0
M  V30 17170 C 1607.92 1.65137 -1.24649 0
M  V30 17171 C 1608.34 1.87868 0.187391 0
M  V30 17172 O 1607.69 1.44015 1.12098 0
M  V30 17173 C 1607.75 3.0167 -1.99193 0
M  V30 17174 O 1607.47 2.79951 -3.36985 0
M  V30 17175 C 1608.97 3.96115 -1.99017 0
M  V30 17176 H 1606.19 0.514683 -0.430514 0
M  V30 17177 H 1608.73 1.07971 -1.73674 0
M  V30 17178 H 1606.89 3.55511 -1.53918 0
M  V30 17179 H 1607.3 3.66706 -3.75002 0
M  V30 17180 H 1608.77 4.89217 -2.55677 0
M  V30 17181 H 1609.25 4.28268 -0.973815 0
M  V30 17182 H 1609.86 3.4821 -2.44192 0
M  V30 17183 N 1608.17 1.14759 1.0802 0
M  V30 17184 C 1609.4 0.942316 1.84757 0
M  V30 17185 C 1609.82 -0.504188 1.81217 0
M  V30 17186 O 1609.18 -1.35891 1.20014 0
M  V30 17187 C 1609.23 1.45271 3.30043 0
M  V30 17188 O 1608.33 0.647414 4.07287 0
M  V30 17189 H 1607.67 0.336613 0.572353 0
M  V30 17190 H 1610.2 1.52578 1.36313 0
M  V30 17191 H 1610.21 1.4626 3.80883 0
M  V30 17192 H 1608.89 2.50583 3.31935 0
M  V30 17193 H 1607.47 0.706595 3.66144 0
M  V30 17194 N 1609.65 -1.26251 0.943322 0
M  V30 17195 C 1610.88 -1.97452 0.607969 0
M  V30 17196 C 1611.29 -1.70422 -0.82177 0
M  V30 17197 O 1610.63 -0.970323 -1.55982 0
M  V30 17198 C 1610.69 -3.51092 0.772938 0
M  V30 17199 C 1610.36 -4.01777 2.17771 0
M  V30 17200 C 1611.35 -4.1335 3.15338 0
M  V30 17201 C 1609.04 -4.35732 2.49886 0
M  V30 17202 C 1611.03 -4.58175 4.43119 0
M  V30 17203 C 1608.72 -4.80245 3.779 0
M  V30 17204 C 1609.72 -4.91427 4.74329 0
M  V30 17205 O 1609.41 -5.34958 6.00063 0
M  V30 17206 H 1609.14 -0.636465 0.227791 0
M  V30 17207 H 1611.69 -1.61671 1.26695 0
M  V30 17208 H 1609.92 -3.86658 0.0568252 0
M  V30 17209 H 1611.61 -4.03505 0.440326 0
M  V30 17210 H 1612.38 -3.87361 2.91851 0
M  V30 17211 H 1608.26 -4.26261 1.75563 0
M  V30 17212 H 1611.8 -4.66818 5.18389 0
M  V30 17213 H 1607.7 -5.05678 4.01198 0
M  V30 17214 H 1608.47 -5.53173 6.03276 0
M  V30 17215 N 1611.13 -0.710588 -1.40671 0
M  V30 17216 C 1612.55 -0.383638 -1.54921 0
M  V30 17217 C 1612.75 1.10805 -1.68299 0
M  V30 17218 O 1611.8 1.89406 -1.66978 0
M  V30 17219 C 1613.11 -1.14532 -2.78034 0
M  V30 17220 C 1614.66 -1.13113 -2.91847 0
M  V30 17221 C 1615.14 -1.87487 -4.17867 0
M  V30 17222 N 1616.63 -1.8453 -4.24856 0
M  V30 17223 C 1617.36 -2.38904 -5.2126 0
M  V30 17224 N 1616.86 -3.01813 -6.23603 0
M  V30 17225 N 1618.65 -2.29075 -5.13304 0
M  V30 17226 H 1610.8 -1.67789 -1.30233 0
M  V30 17227 H 1613.07 -0.70892 -0.629393 0
M  V30 17228 H 1612.77 -2.19983 -2.74409 0
M  V30 17229 H 1612.65 -0.733669 -3.69996 0
M  V30 17230 H 1615.03 -0.0848347 -2.94978 0
M  V30 17231 H 1615.11 -1.58196 -2.01017 0
M  V30 17232 H 1614.76 -2.92104 -4.15497 0
M  V30 17233 H 1614.69 -1.39827 -5.07697 0
M  V30 17234 H 1617.18 -1.38679 -3.51535 0
M  V30 17235 H 1617.49 -3.40832 -6.9358 0
M  V30 17236 H 1615.84 -3.05896 -6.24062 0
M  V30 17237 H 1619.03 -1.79589 -4.32279 0
M  V30 17238 H 1619.2 -2.71752 -5.88264 0
M  V30 17239 N 1612.61 1.50847 -0.456408 0
M  V30 17240 C 1613.54 2.31077 0.335523 0
M  V30 17241 C 1614.52 1.37326 1.00377 0
M  V30 17242 O 1615.7 1.66247 1.00376 0
M  V30 17243 C 1612.83 3.16662 1.42627 0
M  V30 17244 C 1611.79 4.18846 0.88045 0
M  V30 17245 C 1611.11 4.93074 2.06838 0
M  V30 17246 C 1612.41 5.22208 -0.0982288 0
M  V30 17247 H 1614.11 2.97531 -0.334056 0
M  V30 17248 H 1611.65 1.43085 -0.162099 0
M  V30 17249 H 1613.61 3.71578 1.98765 0
M  V30 17250 H 1612.33 2.48066 2.12441 0
M  V30 17251 H 1610.99 3.65009 0.341147 0
M  V30 17252 H 1610.64 4.20963 2.75316 0
M  V30 17253 H 1610.34 5.62184 1.70947 0
M  V30 17254 H 1611.86 5.5082 2.63494 0
M  V30 17255 H 1613.28 5.72082 0.373481 0
M  V30 17256 H 1611.67 5.98954 -0.370674 0
M  V30 17257 H 1612.74 4.73859 -1.02887 0
M  V30 17258 N 1614.09 0.188454 1.56469 0
M  V30 17259 C 1615.31 -0.457846 2.01771 0
M  V30 17260 C 1615.73 -1.55646 1.06863 0
M  V30 17261 O 1615.09 -1.82356 0.0723619 0
M  V30 17262 C 1615.14 -1.02032 3.46802 0
M  V30 17263 O 1614.86 0.0344536 4.38086 0
M  V30 17264 C 1616.36 -1.74316 4.07589 0
M  V30 17265 H 1613.58 -0.115594 0.660968 0
M  V30 17266 H 1616.12 0.295213 2.02358 0
M  V30 17267 H 1614.28 -1.7238 3.46935 0
M  V30 17268 H 1614.69 -0.383254 5.23098 0
M  V30 17269 H 1616.17 -2.08912 5.1094 0
M  V30 17270 H 1616.64 -2.64445 3.50665 0
M  V30 17271 H 1617.25 -1.0857 4.11209 0
M  V30 17272 N 1615.56 -1.5737 -0.0851874 0
M  V30 17273 C 1616.49 -2.05796 -1.10319 0
M  V30 17274 C 1617.47 -0.948796 -1.4118 0
M  V30 17275 O 1618.66 -1.22069 -1.51039 0
M  V30 17276 C 1615.79 -2.49069 -2.42037 0
M  V30 17277 C 1614.74 -3.6374 -2.25561 0
M  V30 17278 C 1614.07 -3.93023 -3.62543 0
M  V30 17279 C 1615.37 -4.94274 -1.68793 0
M  V30 17280 H 1617.06 -2.91095 -0.700274 0
M  V30 17281 H 1614.61 -1.40039 -0.335405 0
M  V30 17282 H 1616.56 -2.81558 -3.13534 0
M  V30 17283 H 1615.29 -1.60781 -2.84283 0
M  V30 17284 H 1613.95 -3.31513 -1.56507 0
M  V30 17285 H 1613.59 -3.01887 -4.02335 0
M  V30 17286 H 1613.29 -4.70229 -3.52362 0
M  V30 17287 H 1614.82 -4.27995 -4.35491 0
M  V30 17288 H 1616.23 -5.25079 -2.30141 0
M  V30 17289 H 1614.63 -5.75711 -1.69344 0
M  V30 17290 H 1615.7 -4.80548 -0.648204 0
M  V30 17291 N 1617.04 0.356258 -1.53521 0
M  V30 17292 C 1618.32 1.11414 -1.60768 0
M  V30 17293 C 1618.7 2.0686 -0.420991 0
M  V30 17294 O 1618.05 2.20807 0.587929 0
M  V30 17295 C 1618.26 1.84503 -2.96243 0
M  V30 17296 C 1619.6 2.38703 -3.5115 0
M  V30 17297 O 1620.63 1.94617 -2.98333 0
M  V30 17298 O 1619.49 3.19322 -4.43504 0
M  V30 17299 H 1616.58 0.511623 -0.649747 0
M  V30 17300 H 1619.13 0.358772 -1.65864 0
M  V30 17301 H 1617.9 1.14898 -3.74051 0
M  V30 17302 H 1617.52 2.66927 -2.94679 0
M  V30 17303 N 1618.52 1.45038 0.616577 0
M  V30 17304 C 1619.77 1.47861 1.37186 0
M  V30 17305 C 1620.08 0.120862 1.95226 0
M  V30 17306 O 1621.29 0.0266872 2.71487 0
M  V30 17307 C 1619.74 2.6038 2.48455 0
M  V30 17308 C 1619.35 4.02428 1.96866 0
M  V30 17309 C 1621.1 2.7244 3.25541 0
M  V30 17310 C 1619 5.06345 3.05563 0
M  V30 17311 H 1617.93 0.550166 0.51559 0
M  V30 17312 H 1620.58 1.71151 0.661796 0
M  V30 17313 H 1618.97 2.30357 3.22105 0
M  V30 17314 H 1620.14 4.42087 1.29985 0
M  V30 17315 H 1618.45 3.94739 1.32552 0
M  V30 17316 H 1621.05 3.47248 4.06599 0
M  V30 17317 H 1621.39 1.7876 3.75966 0
M  V30 17318 H 1621.93 3.01944 2.58988 0
M  V30 17319 H 1618.67 6.01703 2.60065 0
M  V30 17320 H 1618.19 4.71264 3.7104 0
M  V30 17321 H 1619.87 5.30695 3.70097 0
M  V30 17322 N 1620 -0.858287 1.32179 0
M  V30 17323 C 1620.93 -1.97304 1.16636 0
M  V30 17324 C 1621.94 -1.62478 0.102311 0
M  V30 17325 O 1623.13 -1.75016 0.350926 0
M  V30 17326 C 1620.23 -3.30215 0.762337 0
M  V30 17327 C 1619.4 -3.93305 1.9139 0
M  V30 17328 C 1618.46 -5.04545 1.49402 0
M  V30 17329 O 1617.49 -5.24735 2.20548 0
M  V30 17330 N 1618.69 -5.79202 0.387984 0
M  V30 17331 H 1621.46 -2.11179 2.12658 0
M  V30 17332 H 1619.02 -1.03294 1.24668 0
M  V30 17333 H 1621.01 -4.02032 0.463922 0
M  V30 17334 H 1619.58 -3.12418 -0.10662 0
M  V30 17335 H 1618.8 -3.1432 2.37901 0
M  V30 17336 H 1620.09 -4.32192 2.68492 0
M  V30 17337 H 1619.49 -5.65331 -0.204252 0
M  V30 17338 H 1618.04 -6.51629 0.149158 0
M  V30 17339 N 1621.48 -1.1533 -1.07409 0
M  V30 17340 C 1622.42 -0.845328 -2.16696 0
M  V30 17341 C 1623.42 0.181009 -1.6843 0
M  V30 17342 O 1624.62 0.0361013 -1.79964 0
M  V30 17343 H 1621 -0.255698 -0.707193 0
M  V30 17344 H 1622.97 -1.7747 -2.39889 0
M  V30 17345 C 1621.72 -0.350381 -3.4593 0
M  V30 17346 H 1621.04 -1.13152 -3.83454 0
M  V30 17347 H 1622.48 -0.173547 -4.23645 0
M  V30 17348 C 1620.94 0.927991 -3.23867 0
M  V30 17349 O 1621.47 1.99965 -3.48392 0
M  V30 17350 N 1619.68 0.867266 -2.77357 0
M  V30 17351 H 1619.22 -0.00500352 -2.576 0
M  V30 17352 H 1619.18 1.72314 -2.62974 0
M  V30 17353 N 1622.95 1.25748 -0.950004 0
M  V30 17354 C 1623.9 2.26061 -0.46531 0
M  V30 17355 C 1624.87 1.59021 0.479742 0
M  V30 17356 O 1626.06 1.86687 0.394011 0
M  V30 17357 C 1623.2 3.44156 0.255146 0
M  V30 17358 C 1622.31 4.25846 -0.726604 0
M  V30 17359 C 1621.44 5.31198 0.0159429 0
M  V30 17360 C 1620.48 6.04572 -0.957046 0
M  V30 17361 N 1619.62 7.0167 -0.245676 0
M  V30 17362 H 1624.46 2.66891 -1.32563 0
M  V30 17363 H 1622 1.31216 -0.664882 0
M  V30 17364 H 1623.95 4.11465 0.689381 0
M  V30 17365 H 1622.58 3.04213 1.07954 0
M  V30 17366 H 1621.64 3.58242 -1.27933 0
M  V30 17367 H 1622.95 4.76669 -1.46928 0
M  V30 17368 H 1622.1 6.04561 0.509037 0
M  V30 17369 H 1620.84 4.81235 0.791442 0
M  V30 17370 H 1619.85 5.30028 -1.46118 0
M  V30 17371 H 1621.07 6.56624 -1.7327 0
M  V30 17372 H 1619.02 6.54005 0.51117 0
M  V30 17373 H 1618.93 7.50289 -0.927527 0
M  V30 17374 H 1620.2 7.79172 0.226034 0
M  V30 17375 N 1624.43 0.718038 1.40292 0
M  V30 17376 C 1625.38 0.0670495 2.30703 0
M  V30 17377 C 1626.35 -0.747716 1.48319 0
M  V30 17378 O 1627.53 -0.711161 1.77051 0
M  V30 17379 C 1624.67 -0.846918 3.34546 0
M  V30 17380 C 1623.79 -0.0213622 4.31995 0
M  V30 17381 C 1622.92 -0.935035 5.22906 0
M  V30 17382 C 1621.96 -0.103715 6.12012 0
M  V30 17383 N 1621.1 -0.972397 6.95334 0
M  V30 17384 H 1625.94 0.843724 2.85806 0
M  V30 17385 H 1623.47 0.427756 1.40743 0
M  V30 17386 H 1625.43 -1.39109 3.93325 0
M  V30 17387 H 1624.06 -1.58975 2.80939 0
M  V30 17388 H 1623.11 0.640026 3.74977 0
M  V30 17389 H 1624.43 0.62215 4.94905 0
M  V30 17390 H 1623.58 -1.54766 5.86628 0
M  V30 17391 H 1622.32 -1.61236 4.60276 0
M  V30 17392 H 1621.32 0.521826 5.47318 0
M  V30 17393 H 1622.55 0.570146 6.76702 0
M  V30 17394 H 1620.5 -1.63533 6.3529 0
M  V30 17395 H 1620.41 -0.384977 7.55019 0
M  V30 17396 H 1621.68 -1.57112 7.63503 0
M  V30 17397 N 1625.91 -1.50602 0.464402 0
M  V30 17398 C 1627.16 -2.01478 -0.0945398 0
M  V30 17399 C 1627.47 -1.35165 -1.41386 0
M  V30 17400 O 1628.68 -1.7716 -2.05735 0
M  V30 17401 C 1627.13 -3.59233 -0.219003 0
M  V30 17402 C 1626.74 -4.345 1.09148 0
M  V30 17403 C 1628.49 -4.18172 -0.730262 0
M  V30 17404 C 1626.39 -5.84023 0.931179 0
M  V30 17405 H 1625.32 -0.752985 -0.0391065 0
M  V30 17406 H 1627.97 -1.73473 0.598283 0
M  V30 17407 H 1626.36 -3.83798 -0.975455 0
M  V30 17408 H 1627.53 -4.21665 1.85837 0
M  V30 17409 H 1625.85 -3.8714 1.53334 0
M  V30 17410 H 1628.44 -5.27622 -0.867119 0
M  V30 17411 H 1628.79 -3.79113 -1.71986 0
M  V30 17412 H 1629.32 -3.97788 -0.0313808 0
M  V30 17413 H 1626.06 -6.27543 1.89395 0
M  V30 17414 H 1625.58 -5.99451 0.20456 0
M  V30 17415 H 1627.26 -6.44257 0.595118 0
M  V30 17416 N 1627.39 -0.19675 -1.56367 0
M  V30 17417 C 1628.62 0.447139 -2.02011 0
M  V30 17418 C 1629.03 1.55077 -1.07687 0
M  V30 17419 O 1628.39 1.82316 -0.0820316 0
M  V30 17420 C 1628.44 1.00192 -3.47338 0
M  V30 17421 O 1628.16 -0.0576859 -4.38062 0
M  V30 17422 C 1629.66 1.72152 -4.08508 0
M  V30 17423 H 1626.88 0.112088 -0.661572 0
M  V30 17424 H 1629.43 -0.30594 -2.02199 0
M  V30 17425 H 1627.58 1.70537 -3.47844 0
M  V30 17426 H 1627.99 0.355508 -5.23294 0
M  V30 17427 H 1629.47 2.06199 -5.12041 0
M  V30 17428 H 1629.95 2.62581 -3.52062 0
M  V30 17429 H 1630.55 1.06388 -4.11779 0
M  V30 17430 N 1628.87 1.57413 0.0768405 0
M  V30 17431 C 1629.78 2.06688 1.10983 0
M  V30 17432 C 1630.79 0.995392 1.42716 0
M  V30 17433 O 1631.97 1.30977 1.52994 0
M  V30 17434 C 1629.03 2.49676 2.40546 0
M  V30 17435 C 1628.09 3.71101 2.1583 0
M  V30 17436 C 1627.33 4.1203 3.39216 0
M  V30 17437 O 1627.55 3.52877 4.48145 0
M  V30 17438 O 1626.48 5.04856 3.27726 0
M  V30 17439 H 1630.31 2.95012 0.721242 0
M  V30 17440 H 1627.9 1.46546 0.290624 0
M  V30 17441 H 1629.78 2.77871 3.16805 0
M  V30 17442 H 1628.45 1.64484 2.78795 0
M  V30 17443 H 1627.36 3.47996 1.37293 0
M  V30 17444 H 1628.69 4.5713 1.82465 0
M  V30 17445 N 1630.34 -0.348112 1.53707 0
M  V30 17446 C 1631.59 -1.09048 1.70987 0
M  V30 17447 C 1631.92 -1.88444 0.469305 0
M  V30 17448 O 1631.2 -1.87037 -0.533629 0
M  V30 17449 C 1631.48 -2.03542 2.97057 0
M  V30 17450 C 1631.33 -1.27638 4.3131 0
M  V30 17451 C 1632.65 -3.03424 3.18782 0
M  V30 17452 H 1629.77 -0.395049 0.622178 0
M  V30 17453 H 1632.41 -0.369498 1.86373 0
M  V30 17454 H 1630.56 -2.65021 2.8407 0
M  V30 17455 H 1632.24 -0.688079 4.56139 0
M  V30 17456 H 1630.48 -0.578349 4.29927 0
M  V30 17457 H 1631.15 -1.96891 5.15692 0
M  V30 17458 H 1633.63 -2.52056 3.31069 0
M  V30 17459 H 1632.5 -3.66748 4.08396 0
M  V30 17460 H 1632.76 -3.74553 2.34866 0
M  V30 17461 N 1631.82 -1.45363 -0.608876 0
M  V30 17462 C 1632.79 -1.53551 -1.70161 0
M  V30 17463 C 1633.79 -0.415146 -1.55349 0
M  V30 17464 O 1634.98 -0.67858 -1.6044 0
M  V30 17465 C 1632.11 -1.43081 -3.0942 0
M  V30 17466 H 1633.3 -2.5091 -1.64268 0
M  V30 17467 H 1630.85 -1.32785 -0.824493 0
M  V30 17468 H 1631.59 -0.469016 -3.20891 0
M  V30 17469 H 1631.37 -2.24343 -3.21579 0
M  V30 17470 H 1632.86 -1.51841 -3.89017 0
M  V30 17471 N 1633.3 0.851265 -1.32632 0
M  V30 17472 C 1634.23 1.97562 -1.24465 0
M  V30 17473 C 1635.21 1.69619 -0.127777 0
M  V30 17474 O 1636.4 1.9162 -0.315509 0
M  V30 17475 C 1633.53 3.33467 -0.970423 0
M  V30 17476 C 1632.48 3.75772 -2.0489 0
M  V30 17477 C 1631.81 5.09345 -1.62702 0
M  V30 17478 C 1633.11 3.90876 -3.4643 0
M  V30 17479 H 1634.8 2.04653 -2.18535 0
M  V30 17480 H 1632.35 0.983252 -1.05205 0
M  V30 17481 H 1634.3 4.11681 -0.899825 0
M  V30 17482 H 1633.02 3.26599 0.00591373 0
M  V30 17483 H 1631.68 2.99812 -2.1097 0
M  V30 17484 H 1631.33 4.98937 -0.638039 0
M  V30 17485 H 1631.03 5.38621 -2.34864 0
M  V30 17486 H 1632.55 5.90048 -1.57085 0
M  V30 17487 H 1633.97 4.59434 -3.42919 0
M  V30 17488 H 1632.37 4.31574 -4.1697 0
M  V30 17489 H 1633.44 2.93689 -3.85843 0
M  V30 17490 N 1634.78 1.15898 1.06796 0
M  V30 17491 C 1635.71 0.804414 2.13552 0
M  V30 17492 C 1636.69 -0.22167 1.61082 0
M  V30 17493 O 1637.87 -0.106925 1.88196 0
M  V30 17494 C 1635 0.197166 3.38126 0
M  V30 17495 C 1634.05 1.19605 4.09386 0
M  V30 17496 S 1634.88 2.74054 4.6006 0
M  V30 17497 C 1636.04 2.14764 5.87901 0
M  V30 17498 H 1636.27 1.7086 2.43298 0
M  V30 17499 H 1633.8 0.981915 1.19154 0
M  V30 17500 H 1635.76 -0.14674 4.10238 0
M  V30 17501 H 1634.42 -0.684706 3.06546 0
M  V30 17502 H 1633.61 0.719491 4.98838 0
M  V30 17503 H 1633.22 1.48478 3.43264 0
M  V30 17504 H 1635.51 1.51317 6.60386 0
M  V30 17505 H 1636.45 3.02406 6.40278 0
M  V30 17506 H 1636.86 1.58846 5.4169 0
M  V30 17507 N 1636.26 -1.25243 0.956659 0
M  V30 17508 C 1637.5 -1.92632 0.611328 0
M  V30 17509 C 1637.83 -1.75272 -0.85467 0
M  V30 17510 O 1637.1 -1.11758 -1.60894 0
M  V30 17511 H 1635.68 -0.712904 0.223109 0
M  V30 17512 H 1638.34 -1.52366 1.21534 0
M  V30 17513 H 1637.43 -3.00516 0.842396 0
M  V30 17514 N 1637.73 -0.725468 -1.3991 0
M  V30 17515 C 1638.68 -0.0555314 -2.27932 0
M  V30 17516 C 1639.67 0.722435 -1.4377 0
M  V30 17517 O 1640.86 0.593011 -1.6677 0
M  V30 17518 C 1637.99 0.858122 -3.32402 0
M  V30 17519 C 1637.08 0.0748146 -4.24034 0
M  V30 17520 N 1637.47 -0.947093 -4.96854 0
M  V30 17521 C 1635.76 0.305902 -4.4495 0
M  V30 17522 C 1636.47 -1.41861 -5.64137 0
M  V30 17523 N 1635.44 -0.738949 -5.38554 0
M  V30 17524 H 1639.24 -0.838606 -2.81682 0
M  V30 17525 H 1636.76 -0.558938 -1.52478 0
M  V30 17526 H 1638.75 1.35347 -3.94318 0
M  V30 17527 H 1637.41 1.64046 -2.80212 0
M  V30 17528 H 1638.43 -1.32821 -5.00579 0
M  V30 17529 H 1635.1 1.06379 -4.0372 0
M  V30 17530 H 1636.49 -2.26829 -6.32454 0
M  V30 17531 N 1639.21 1.50354 -0.472382 0
M  V30 17532 C 1640.14 2.3142 0.310995 0
M  V30 17533 C 1641.12 1.38383 0.989151 0
M  V30 17534 O 1642.31 1.67303 0.986074 0
M  V30 17535 C 1639.44 3.18157 1.3926 0
M  V30 17536 C 1638.39 4.19756 0.835977 0
M  V30 17537 C 1637.72 4.9524 2.01597 0
M  V30 17538 C 1639.02 5.22074 -0.15361 0
M  V30 17539 H 1640.71 2.97159 -0.365595 0
M  V30 17540 H 1638.26 1.42905 -0.177266 0
M  V30 17541 H 1640.21 3.73666 1.94813 0
M  V30 17542 H 1638.94 2.50305 2.09798 0
M  V30 17543 H 1637.59 3.65351 0.302414 0
M  V30 17544 H 1637.24 4.2386 2.70836 0
M  V30 17545 H 1636.94 5.63966 1.64974 0
M  V30 17546 H 1638.47 5.53584 2.57637 0
M  V30 17547 H 1639.88 5.72446 0.312783 0
M  V30 17548 H 1638.28 5.98527 -0.43418 0
M  V30 17549 H 1639.35 4.72741 -1.07908 0
M  V30 17550 N 1640.69 0.205039 1.56261 0
M  V30 17551 C 1641.92 -0.439502 2.0269 0
M  V30 17552 C 1642.34 -1.53715 1.08413 0
M  V30 17553 O 1641.7 -1.81167 0.0693616 0
M  V30 17554 C 1641.75 -0.963672 3.47485 0
M  V30 17555 O 1640.85 -2.07602 3.56336 0
M  V30 17556 H 1640.19 -0.101543 0.65619 0
M  V30 17557 H 1642.72 0.318835 2.021 0
M  V30 17558 H 1642.73 -1.27773 3.87476 0
M  V30 17559 H 1641.41 -0.160203 4.15591 0
M  V30 17560 H 1639.98 -1.76985 3.28224 0
M  V30 17561 N 1642.17 -1.57451 -0.0684915 0
M  V30 17562 C 1643.41 -1.89247 -0.772325 0
M  V30 17563 C 1643.77 -0.799211 -1.74576 0
M  V30 17564 O 1644.97 -1.00034 -2.49493 0
M  V30 17565 C 1643.25 -3.26269 -1.45888 0
M  V30 17566 S 1644.8 -3.7982 -2.19732 0
M  V30 17567 H 1641.62 -0.66302 -0.256759 0
M  V30 17568 H 1644.22 -1.9548 -0.0282932 0
M  V30 17569 H 1642.93 -4.03735 -0.736646 0
M  V30 17570 H 1642.46 -3.23242 -2.24227 0
M  V30 17571 H 1644.47 -3.55372 -3.46302 0
M  V30 17572 N 1643.65 0.339955 -1.5389 0
M  V30 17573 C 1644.92 1.09703 -1.6194 0
M  V30 17574 C 1645.3 2.06401 -0.442907 0
M  V30 17575 O 1644.65 2.21418 0.564477 0
M  V30 17576 C 1644.86 1.8135 -2.98183 0
M  V30 17577 C 1646.21 2.34965 -3.53662 0
M  V30 17578 O 1647.23 1.91442 -3.00381 0
M  V30 17579 O 1646.09 3.14601 -4.46865 0
M  V30 17580 H 1643.19 0.504703 -0.655136 0
M  V30 17581 H 1645.73 0.34116 -1.66235 0
M  V30 17582 H 1644.51 1.10924 -3.75249 0
M  V30 17583 H 1644.13 2.63787 -2.97494 0
M  V30 17584 N 1645.13 1.45684 0.601159 0
M  V30 17585 C 1646.35 1.53574 1.38646 0
M  V30 17586 C 1646.77 0.170511 1.88028 0
M  V30 17587 O 1646.13 -0.829061 1.62582 0
M  V30 17588 C 1646.18 2.52543 2.58658 0
M  V30 17589 O 1645.9 3.83761 2.11327 0
M  V30 17590 C 1647.4 2.70194 3.5144 0
M  V30 17591 H 1644.62 0.519907 0.424191 0
M  V30 17592 H 1647.16 1.90929 0.732559 0
M  V30 17593 H 1645.32 2.18242 3.20077 0
M  V30 17594 H 1645.73 4.37467 2.89349 0
M  V30 17595 H 1647.21 3.43405 4.32177 0
M  V30 17596 H 1647.68 1.76452 4.02196 0
M  V30 17597 H 1648.29 3.05517 2.95871 0
M  V30 17598 N 1646.6 -0.84422 1.33082 0
M  V30 17599 C 1647.55 -1.95363 1.2289 0
M  V30 17600 C 1648.52 -1.65744 0.108705 0
M  V30 17601 O 1649.71 -1.88643 0.286057 0
M  V30 17602 C 1646.85 -3.31228 0.968594 0
M  V30 17603 C 1645.96 -3.73279 2.17455 0
M  V30 17604 C 1645.09 -4.97987 1.84885 0
M  V30 17605 C 1644.13 -5.32558 3.01743 0
M  V30 17606 N 1643.27 -6.48442 2.69197 0
M  V30 17607 H 1648.11 -2.03412 2.17778 0
M  V30 17608 H 1645.65 -0.995461 1.083 0
M  V30 17609 H 1647.6 -4.09494 0.798129 0
M  V30 17610 H 1646.23 -3.22751 0.0564631 0
M  V30 17611 H 1645.29 -2.9058 2.45494 0
M  V30 17612 H 1646.6 -3.94814 3.04834 0
M  V30 17613 H 1645.75 -5.83987 1.64451 0
M  V30 17614 H 1644.49 -4.7841 0.947356 0
M  V30 17615 H 1643.5 -4.45064 3.22797 0
M  V30 17616 H 1644.72 -5.54085 3.9264 0
M  V30 17617 H 1642.67 -6.30363 1.816 0
M  V30 17618 H 1642.58 -6.70046 3.50106 0
M  V30 17619 H 1643.85 -7.37568 2.52217 0
M  V30 17620 N 1648.08 -1.16463 -1.0618 0
M  V30 17621 C 1648.99 -0.886601 -2.17202 0
M  V30 17622 C 1650.01 0.141568 -1.73423 0
M  V30 17623 O 1651.18 -0.0353417 -2.01369 0
M  V30 17624 C 1648.25 -0.392829 -3.44467 0
M  V30 17625 C 1647.31 -1.48636 -4.02748 0
M  V30 17626 C 1646.54 -1.01606 -5.23939 0
M  V30 17627 O 1646.77 0.133753 -5.70243 0
M  V30 17628 O 1645.7 -1.80487 -5.74202 0
M  V30 17629 H 1649.53 -1.81502 -2.43497 0
M  V30 17630 H 1647.11 -0.944691 -1.15741 0
M  V30 17631 H 1648.99 -0.124501 -4.21216 0
M  V30 17632 H 1647.67 0.507566 -3.19696 0
M  V30 17633 H 1646.57 -1.80845 -3.27484 0
M  V30 17634 H 1647.91 -2.3621 -4.31817 0
M  V30 17635 N 1649.56 1.24734 -0.963288 0
M  V30 17636 C 1650.47 2.29268 -0.497316 0
M  V30 17637 C 1651.49 1.68356 0.439572 0
M  V30 17638 O 1652.66 1.98942 0.313697 0
M  V30 17639 C 1649.73 3.46068 0.209261 0
M  V30 17640 C 1648.79 4.22394 -0.766907 0
M  V30 17641 C 1648.02 5.33617 -0.0939542 0
M  V30 17642 O 1648.24 5.59323 1.11864 0
M  V30 17643 O 1647.18 5.96774 -0.78388 0
M  V30 17644 H 1651 2.71235 -1.36622 0
M  V30 17645 H 1648.59 1.30344 -0.730126 0
M  V30 17646 H 1650.47 4.17015 0.606367 0
M  V30 17647 H 1649.15 3.06087 1.0532 0
M  V30 17648 H 1648.05 3.53841 -1.21439 0
M  V30 17649 H 1649.39 4.66181 -1.57912 0
M  V30 17650 N 1651.04 0.732878 1.39523 0
M  V30 17651 C 1652.45 0.408236 1.54291 0
M  V30 17652 C 1652.65 -1.08114 1.7004 0
M  V30 17653 O 1651.71 -1.86726 1.6997 0
M  V30 17654 C 1653.02 1.1894 2.76177 0
M  V30 17655 C 1654.57 1.17742 2.9001 0
M  V30 17656 C 1655.05 1.94111 4.14831 0
M  V30 17657 N 1656.54 1.91266 4.21867 0
M  V30 17658 C 1657.27 2.47167 5.17394 0
M  V30 17659 N 1656.77 3.11696 6.18723 0
M  V30 17660 N 1658.56 2.37212 5.09595 0
M  V30 17661 H 1650.71 1.69839 1.27548 0
M  V30 17662 H 1652.97 0.718844 0.618035 0
M  V30 17663 H 1652.68 2.24321 2.70875 0
M  V30 17664 H 1652.55 0.792439 3.68782 0
M  V30 17665 H 1654.94 0.131752 2.94806 0
M  V30 17666 H 1655.02 1.61374 1.98474 0
M  V30 17667 H 1654.67 2.98677 4.10797 0
M  V30 17668 H 1654.6 1.47886 5.05408 0
M  V30 17669 H 1657.09 1.44254 3.49284 0
M  V30 17670 H 1657.4 3.51823 6.8807 0
M  V30 17671 H 1655.75 3.15785 6.19116 0
M  V30 17672 H 1658.94 1.86444 4.29367 0
M  V30 17673 H 1659.11 2.81076 5.83866 0
M  V30 17674 N 1652.52 -1.50101 0.480349 0
M  V30 17675 C 1653.46 -2.28722 -0.308993 0
M  V30 17676 C 1654.43 -1.34186 -0.978948 0
M  V30 17677 O 1655.62 -1.6313 -0.989602 0
M  V30 17678 C 1652.76 -3.16322 -1.37966 0
M  V30 17679 C 1651.87 -4.25898 -0.723552 0
M  V30 17680 C 1651.01 -5.00741 -1.7729 0
M  V30 17681 C 1650.04 -6.0218 -1.09754 0
M  V30 17682 N 1649.18 -6.70266 -2.09015 0
M  V30 17683 H 1654.02 -2.95722 0.367739 0
M  V30 17684 H 1651.56 -1.45826 0.193197 0
M  V30 17685 H 1653.52 -3.65469 -2.01217 0
M  V30 17686 H 1652.15 -2.51349 -2.02543 0
M  V30 17687 H 1651.2 -3.80394 0.0217507 0
M  V30 17688 H 1652.51 -4.98435 -0.190905 0
M  V30 17689 H 1651.66 -5.53653 -2.48098 0
M  V30 17690 H 1650.4 -4.27931 -2.33937 0
M  V30 17691 H 1649.41 -5.48519 -0.375123 0
M  V30 17692 H 1650.63 -6.76967 -0.537841 0
M  V30 17693 H 1648.58 -6.00242 -2.64662 0
M  V30 17694 H 1648.5 -7.3871 -1.6076 0
M  V30 17695 H 1649.76 -7.27792 -2.79175 0
M  V30 17696 N 1653.99 -0.213323 -1.5615 0
M  V30 17697 C 1655.24 0.420909 -1.97259 0
M  V30 17698 C 1655.56 1.61483 -1.10375 0
M  V30 17699 O 1656.76 2.31804 -1.41347 0
M  V30 17700 C 1655.22 0.800243 -3.5089 0
M  V30 17701 C 1654.83 -0.370405 -4.46466 0
M  V30 17702 C 1656.57 1.40054 -4.00731 0
M  V30 17703 C 1654.48 0.0309052 -5.91392 0
M  V30 17704 H 1653.41 0.16103 -0.736604 0
M  V30 17705 H 1656.06 -0.308232 -1.80893 0
M  V30 17706 H 1654.44 1.58657 -3.62828 0
M  V30 17707 H 1655.61 -1.14796 -4.46272 0
M  V30 17708 H 1653.93 -0.883391 -4.06922 0
M  V30 17709 H 1656.53 1.71355 -5.06499 0
M  V30 17710 H 1656.87 2.31345 -3.461 0
M  V30 17711 H 1657.4 0.677813 -3.91983 0
M  V30 17712 H 1654.14 -0.848284 -6.49988 0
M  V30 17713 H 1653.66 0.772941 -5.94799 0
M  V30 17714 H 1655.34 0.460441 -6.4536 0
M  V30 17715 N 1655.47 1.57485 0.0601405 0
M  V30 17716 C 1656.42 2.04487 1.07023 0
M  V30 17717 C 1657.39 0.927738 1.37776 0
M  V30 17718 O 1658.57 1.19621 1.48645 0
M  V30 17719 C 1655.71 2.50338 2.37539 0
M  V30 17720 C 1654.83 3.75717 2.13215 0
M  V30 17721 C 1653.96 4.10304 3.37378 0
M  V30 17722 C 1653 5.2869 3.0847 0
M  V30 17723 N 1652.14 5.58858 4.24996 0
M  V30 17724 H 1656.98 2.90544 0.662444 0
M  V30 17725 H 1654.52 1.43676 0.315515 0
M  V30 17726 H 1656.47 2.74978 3.13756 0
M  V30 17727 H 1655.1 1.67242 2.76098 0
M  V30 17728 H 1654.16 3.58348 1.27636 0
M  V30 17729 H 1655.47 4.62068 1.87869 0
M  V30 17730 H 1654.62 4.35907 4.21983 0
M  V30 17731 H 1653.36 3.22544 3.6581 0
M  V30 17732 H 1652.37 5.02871 2.22262 0
M  V30 17733 H 1653.59 6.18077 2.81349 0
M  V30 17734 H 1651.54 4.74058 4.53437 0
M  V30 17735 H 1651.45 6.39652 4.02965 0
M  V30 17736 H 1652.72 5.89019 5.10565 0
M  V30 17737 N 1656.95 -0.331789 1.54068 0
M  V30 17738 C 1658.2 -1.06858 1.71539 0
M  V30 17739 C 1658.52 -1.88808 0.487506 0
M  V30 17740 O 1657.79 -1.8945 -0.498539 0
M  V30 17741 H 1656.37 -0.3975 0.632457 0
M  V30 17742 H 1659.03 -0.370216 1.91352 0
M  V30 17743 H 1658.13 -1.73929 2.59143 0
M  V30 17744 N 1658.43 -1.46001 -0.593424 0
M  V30 17745 C 1659.67 -1.50978 -1.35401 0
M  V30 17746 C 1660.01 -0.156626 -1.93567 0
M  V30 17747 O 1659.28 0.83067 -1.7587 0
M  V30 17748 C 1659.57 -2.60005 -2.49137 0
M  V30 17749 C 1659.42 -4.04814 -1.96075 0
M  V30 17750 C 1660.74 -2.65199 -3.51223 0
M  V30 17751 H 1657.86 -0.549657 -0.490965 0
M  V30 17752 H 1660.5 -1.77883 -0.667644 0
M  V30 17753 H 1658.65 -2.37194 -3.07687 0
M  V30 17754 H 1660.32 -4.38879 -1.42066 0
M  V30 17755 H 1658.56 -4.148 -1.26976 0
M  V30 17756 H 1659.23 -4.76811 -2.78128 0
M  V30 17757 H 1661.71 -2.85675 -3.02537 0
M  V30 17758 H 1660.59 -3.43323 -4.28276 0
M  V30 17759 H 1660.85 -1.70833 -4.0776 0
M  V30 17760 N 1659.91 0.83715 -1.33527 0
M  V30 17761 C 1661.16 1.58747 -1.24428 0
M  V30 17762 C 1661.47 1.94696 0.187885 0
M  V30 17763 O 1662.67 2.68524 0.400903 0
M  V30 17764 C 1661.13 2.86337 -2.18035 0
M  V30 17765 C 1660.74 2.57745 -3.66431 0
M  V30 17766 C 1662.48 3.6436 -2.17812 0
M  V30 17767 C 1660.39 3.81443 -4.51946 0
M  V30 17768 H 1659.32 0.595749 -0.462168 0
M  V30 17769 H 1661.97 0.922901 -1.58603 0
M  V30 17770 H 1660.35 3.54344 -1.76795 0
M  V30 17771 H 1661.53 1.97939 -4.16121 0
M  V30 17772 H 1659.84 1.93023 -3.68959 0
M  V30 17773 H 1662.44 4.56181 -2.78932 0
M  V30 17774 H 1662.78 3.99414 -1.17364 0
M  V30 17775 H 1663.31 3.03279 -2.57423 0
M  V30 17776 H 1660.05 3.51519 -5.53276 0
M  V30 17777 H 1659.57 4.40582 -4.06998 0
M  V30 17778 H 1661.25 4.49004 -4.65837 0
M  V30 17779 N 1661.38 1.17024 1.05561 0
M  V30 17780 C 1662.61 0.981293 1.82717 0
M  V30 17781 C 1663.03 -0.465636 1.82246 0
M  V30 17782 O 1662.39 -1.33315 1.22869 0
M  V30 17783 C 1662.44 1.52239 3.26888 0
M  V30 17784 O 1661.54 0.73366 4.05822 0
M  V30 17785 H 1660.89 0.348677 0.565084 0
M  V30 17786 H 1663.42 1.55435 1.33046 0
M  V30 17787 H 1663.43 1.54306 3.77695 0
M  V30 17788 H 1662.1 2.57567 3.26545 0
M  V30 17789 H 1660.68 0.784101 3.64563 0
M  V30 17790 N 1662.86 -1.24221 0.969889 0
M  V30 17791 C 1664.11 -1.91656 0.628559 0
M  V30 17792 C 1664.42 -1.76627 -0.840371 0
M  V30 17793 O 1665.63 -2.38771 -1.29232 0
M  V30 17794 C 1664.09 -3.43515 1.07357 0
M  V30 17795 C 1663.69 -3.67226 2.56611 0
M  V30 17796 C 1665.44 -4.16788 0.805493 0
M  V30 17797 C 1663.35 -5.12667 2.94834 0
M  V30 17798 H 1662.28 -0.717619 0.231384 0
M  V30 17799 H 1664.93 -1.40831 1.17639 0
M  V30 17800 H 1663.31 -3.93388 0.454037 0
M  V30 17801 H 1664.48 -3.27942 3.23713 0
M  V30 17802 H 1662.8 -3.07243 2.81053 0
M  V30 17803 H 1665.39 -5.23945 1.06705 0
M  V30 17804 H 1665.74 -4.15498 -0.258321 0
M  V30 17805 H 1666.27 -3.7287 1.3861 0
M  V30 17806 H 1663.01 -5.1908 4.00295 0
M  V30 17807 H 1662.53 -5.5294 2.32417 0
M  V30 17808 H 1664.21 -5.80916 2.8486 0
M  V30 17809 N 1664.34 -0.740267 -1.39132 0
M  V30 17810 C 1665.75 -0.359866 -1.83199 0
M  V30 17811 C 1666.1 1.1095 -1.61816 0
M  V30 17812 O 1665.23 1.85635 -1.11215 0
M  V30 17813 C 1665.82 -0.64639 -3.32577 0
M  V30 17814 C 1664.38 -0.319423 -3.75042 0
M  V30 17815 C 1663.53 -0.906345 -2.6207 0
M  V30 17816 H 1666.48 -0.93749 -1.2805 0
M  V30 17817 H 1666.5 0.080033 -3.80416 0
M  V30 17818 H 1666.01 -1.71588 -3.48108 0
M  V30 17819 H 1664.11 0.744022 -3.65096 0
M  V30 17820 H 1664.23 -0.805664 -4.72277 0
M  V30 17821 H 1662.59 -0.332615 -2.52519 0
M  V30 17822 H 1663.37 -1.9806 -2.80405 0
M  V30 17823 N 1665.82 1.49844 -0.488302 0
M  V30 17824 C 1667.23 1.58954 -0.14348 0
M  V30 17825 C 1667.43 1.49482 1.3512 0
M  V30 17826 O 1666.49 1.36218 2.12605 0
M  V30 17827 C 1667.8 2.92222 -0.708991 0
M  V30 17828 C 1669.35 3.05658 -0.673957 0
M  V30 17829 C 1669.83 4.41526 -1.21731 0
M  V30 17830 N 1671.32 4.47985 -1.17746 0
M  V30 17831 C 1672.05 5.51539 -1.5682 0
M  V30 17832 N 1671.55 6.62261 -2.03426 0
M  V30 17833 N 1673.34 5.4218 -1.48315 0
M  V30 17834 H 1665.49 1.54244 -1.46022 0
M  V30 17835 H 1667.76 0.72992 -0.604914 0
M  V30 17836 H 1667.46 3.04683 -1.75674 0
M  V30 17837 H 1667.34 3.76851 -0.162226 0
M  V30 17838 H 1669.72 2.92835 0.364925 0
M  V30 17839 H 1669.8 2.22744 -1.25772 0
M  V30 17840 H 1669.45 4.551 -2.25491 0
M  V30 17841 H 1669.38 5.2306 -0.609598 0
M  V30 17842 H 1671.87 3.68541 -0.835828 0
M  V30 17843 H 1672.18 7.3736 -2.31345 0
M  V30 17844 H 1670.53 6.63335 -2.07392 0
M  V30 17845 H 1673.72 4.54569 -1.11733 0
M  V30 17846 H 1673.89 6.2276 -1.79092 0
M  V30 17847 N 1667.3 0.221601 1.56034 0
M  V30 17848 C 1668.23 -0.683171 2.23282 0
M  V30 17849 C 1669.21 -1.20101 1.20456 0
M  V30 17850 O 1670.39 -1.245 1.49041 0
M  V30 17851 C 1667.52 -1.89143 2.91277 0
M  V30 17852 C 1666.48 -1.50742 4.00576 0
M  V30 17853 C 1665.8 -2.79446 4.55867 0
M  V30 17854 C 1667.1 -0.697388 5.17623 0
M  V30 17855 H 1668.8 -0.122488 2.99149 0
M  V30 17856 H 1666.34 -0.0574732 1.43885 0
M  V30 17857 H 1668.3 -2.52982 3.37013 0
M  V30 17858 H 1667.02 -2.47708 2.12858 0
M  V30 17859 H 1665.68 -0.892492 3.5557 0
M  V30 17860 H 1665.33 -3.36155 3.74177 0
M  V30 17861 H 1665.03 -2.54486 5.29633 0
M  V30 17862 H 1666.55 -3.44228 5.04321 0
M  V30 17863 H 1667.96 -1.23948 5.59741 0
M  V30 17864 H 1666.36 -0.544875 5.97621 0
M  V30 17865 H 1667.43 0.295981 4.83996 0
M  V30 17866 N 1668.77 -1.57515 -0.0517878 0
M  V30 17867 C 1669.71 -2.01812 -1.08649 0
M  V30 17868 C 1670.72 -0.92719 -1.33817 0
M  V30 17869 O 1671.91 -1.20483 -1.31705 0
M  V30 17870 C 1669.01 -2.35903 -2.43316 0
M  V30 17871 C 1668.18 -3.67095 -2.37824 0
M  V30 17872 C 1667.24 -3.8863 -3.54758 0
M  V30 17873 O 1666.27 -4.59974 -3.3528 0
M  V30 17874 N 1667.47 -3.32516 -4.75829 0
M  V30 17875 H 1670.23 -2.91191 -0.709094 0
M  V30 17876 H 1667.79 -1.60109 -0.240125 0
M  V30 17877 H 1669.79 -2.47466 -3.20223 0
M  V30 17878 H 1668.36 -1.52312 -2.72983 0
M  V30 17879 H 1667.58 -3.66099 -1.46168 0
M  V30 17880 H 1668.86 -4.53199 -2.31275 0
M  V30 17881 H 1668.26 -2.74645 -4.94557 0
M  V30 17882 H 1666.82 -3.49496 -5.50178 0
M  V30 17883 N 1670.25 0.323614 -1.54242 0
M  V30 17884 C 1671.22 1.38126 -1.82904 0
M  V30 17885 C 1672.22 1.44723 -0.700853 0
M  V30 17886 O 1673.41 1.44751 -0.969161 0
M  V30 17887 C 1670.54 2.76858 -1.98903 0
M  V30 17888 H 1671.73 1.13966 -2.77402 0
M  V30 17889 H 1669.28 0.559094 -1.45958 0
M  V30 17890 H 1670.02 3.06274 -1.06616 0
M  V30 17891 H 1669.8 2.73464 -2.80998 0
M  V30 17892 H 1671.29 3.53372 -2.22526 0
M  V30 17893 N 1671.73 1.46313 0.585673 0
M  V30 17894 C 1672.64 1.59232 1.72286 0
M  V30 17895 C 1673.66 0.475912 1.67365 0
M  V30 17896 O 1674.83 0.739627 1.87327 0
M  V30 17897 C 1671.9 1.57647 3.08785 0
M  V30 17898 C 1670.96 2.80497 3.24992 0
M  V30 17899 C 1670.19 2.78978 4.5498 0
M  V30 17900 O 1670.42 1.87553 5.38684 0
M  V30 17901 O 1669.35 3.7048 4.74371 0
M  V30 17902 H 1673.18 2.55398 1.64334 0
M  V30 17903 H 1670.76 1.29073 0.752369 0
M  V30 17904 H 1672.64 1.59448 3.90069 0
M  V30 17905 H 1671.32 0.6464 3.1718 0
M  V30 17906 H 1670.22 2.8425 2.43213 0
M  V30 17907 H 1671.56 3.72703 3.21487 0
M  V30 17908 N 1673.21 -0.830057 1.33969 0
M  V30 17909 C 1674.17 -1.92206 1.24858 0
M  V30 17910 C 1675.17 -1.59946 0.16549 0
M  V30 17911 O 1676.36 -1.6912 0.417629 0
M  V30 17912 C 1673.49 -3.28082 0.926029 0
M  V30 17913 H 1674.69 -2.01708 2.21932 0
M  V30 17914 H 1672.24 -1.02319 1.18154 0
M  V30 17915 H 1672.98 -3.24273 -0.0418364 0
M  V30 17916 H 1672.76 -3.52878 1.70938 0
M  V30 17917 H 1674.25 -4.08065 0.887263 0
M  V30 17918 N 1674.69 -1.17582 -1.04939 0
M  V30 17919 C 1676.1 -0.923633 -1.30158 0
M  V30 17920 C 1676.3 0.415798 -1.97163 0
M  V30 17921 O 1675.36 1.15218 -2.2468 0
M  V30 17922 C 1676.67 -2.0828 -2.16887 0
M  V30 17923 C 1678.22 -2.12011 -2.30262 0
M  V30 17924 C 1678.7 -3.2732 -3.20352 0
M  V30 17925 N 1680.19 -3.27125 -3.27939 0
M  V30 17926 C 1680.92 -4.12988 -3.97779 0
M  V30 17927 N 1680.42 -5.08968 -4.70025 0
M  V30 17928 N 1682.21 -4.0093 -3.93969 0
M  V30 17929 H 1674.36 -2.03794 -0.598485 0
M  V30 17930 H 1676.62 -0.889991 -0.326528 0
M  V30 17931 H 1676.33 -3.051 -1.74948 0
M  V30 17932 H 1676.2 -2.03599 -3.17533 0
M  V30 17933 H 1678.59 -1.15774 -2.71441 0
M  V30 17934 H 1678.67 -2.20752 -1.29236 0
M  V30 17935 H 1678.32 -4.23823 -2.79886 0
M  V30 17936 H 1678.25 -3.15814 -4.21389 0
M  V30 17937 H 1680.74 -2.57634 -2.76465 0
M  V30 17938 H 1681.05 -5.70876 -5.20885 0
M  V30 17939 H 1679.4 -5.12935 -4.68959 0
M  V30 17940 H 1682.59 -3.2524 -3.36654 0
M  V30 17941 H 1682.76 -4.68065 -4.48128 0
M  V30 17942 N 1676.17 1.23705 -0.976463 0
M  V30 17943 C 1677.39 1.96595 -0.660697 0
M  V30 17944 C 1677.82 1.71845 0.764916 0
M  V30 17945 O 1677.17 0.987506 1.52046 0
M  V30 17946 C 1677.22 3.47803 -0.95214 0
M  V30 17947 O 1676.33 4.12378 -0.0421126 0
M  V30 17948 H 1675.67 0.615591 -0.248886 0
M  V30 17949 H 1678.2 1.57247 -1.30899 0
M  V30 17950 H 1678.21 3.98236 -0.887238 0
M  V30 17951 H 1676.88 3.65144 -1.99105 0
M  V30 17952 H 1675.46 3.72552 -0.161087 0
M  V30 17953 N 1677.64 0.747635 1.38738 0
M  V30 17954 C 1678.55 0.117879 2.34304 0
M  V30 17955 C 1679.57 -0.707488 1.58967 0
M  V30 17956 O 1680.75 -0.633025 1.91193 0
M  V30 17957 C 1677.81 -0.769223 3.38059 0
M  V30 17958 C 1676.87 0.0698358 4.29243 0
M  V30 17959 C 1676.1 -0.775021 5.28043 0
M  V30 17960 O 1676.33 -2.01328 5.33688 0
M  V30 17961 O 1675.26 -0.196978 6.01578 0
M  V30 17962 H 1679.09 0.906972 2.89841 0
M  V30 17963 H 1676.67 0.508453 1.40482 0
M  V30 17964 H 1678.55 -1.27641 4.01604 0
M  V30 17965 H 1677.23 -1.53691 2.84887 0
M  V30 17966 H 1676.14 0.622836 3.68879 0
M  V30 17967 H 1677.47 0.80004 4.85654 0
M  V30 17968 N 1679.12 -1.49583 0.496242 0
M  V30 17969 C 1680.37 -2.01634 -0.051782 0
M  V30 17970 C 1680.68 -1.38133 -1.38487 0
M  V30 17971 O 1681.89 -1.81484 -2.0193 0
M  V30 17972 C 1680.35 -3.59617 -0.142755 0
M  V30 17973 C 1679.95 -4.32088 1.1834 0
M  V30 17974 C 1681.7 -4.19626 -0.641397 0
M  V30 17975 C 1679.6 -5.81917 1.05485 0
M  V30 17976 H 1678.53 -0.753645 -0.0231258 0
M  V30 17977 H 1681.19 -1.72165 0.634944 0
M  V30 17978 H 1679.57 -3.85781 -0.893826 0
M  V30 17979 H 1680.74 -4.17628 1.94739 0
M  V30 17980 H 1679.06 -3.83801 1.61511 0
M  V30 17981 H 1681.65 -5.29343 -0.755008 0
M  V30 17982 H 1682 -3.82676 -1.63906 0
M  V30 17983 H 1682.53 -3.97765 0.053003 0
M  V30 17984 H 1679.27 -6.23384 2.02664 0
M  V30 17985 H 1678.79 -5.98882 0.331667 0
M  V30 17986 H 1680.47 -6.4285 0.731641 0
M  V30 17987 N 1680.6 -0.229873 -1.55915 0
M  V30 17988 C 1681.53 0.671321 -2.23642 0
M  V30 17989 C 1682.51 1.19461 -1.21091 0
M  V30 17990 O 1683.7 1.23708 -1.49699 0
M  V30 17991 C 1680.83 1.87595 -2.92276 0
M  V30 17992 C 1679.78 1.48616 -4.01369 0
M  V30 17993 C 1679.11 2.77024 -4.57342 0
M  V30 17994 C 1680.41 0.669928 -5.17986 0
M  V30 17995 H 1682.1 0.106622 -2.9921 0
M  V30 17996 H 1679.65 0.0498418 -1.43914 0
M  V30 17997 H 1681.6 2.51191 -3.3835 0
M  V30 17998 H 1680.32 2.46576 -2.14168 0
M  V30 17999 H 1678.98 0.873623 -3.56038 0
M  V30 18000 H 1678.63 3.34166 -3.75955 0
M  V30 18001 H 1678.33 2.51674 -5.30975 0
M  V30 18002 H 1679.85 3.41548 -5.0614 0
M  V30 18003 H 1681.27 1.20978 -5.6039 0
M  V30 18004 H 1679.66 0.513174 -5.97902 0
M  V30 18005 H 1680.73 -0.321644 -4.83832 0
M  V30 18006 N 1682.08 1.5754 0.0434337 0
M  V30 18007 C 1683.04 2.046 1.03303 0
M  V30 18008 C 1684.04 0.947648 1.29909 0
M  V30 18009 O 1685.23 1.21171 1.25153 0
M  V30 18010 C 1682.36 2.45077 2.36961 0
M  V30 18011 H 1683.56 2.93276 0.626822 0
M  V30 18012 H 1681.11 1.53588 0.289909 0
M  V30 18013 H 1681.84 1.59513 2.82358 0
M  V30 18014 H 1681.63 3.25252 2.18983 0
M  V30 18015 H 1683.12 2.81963 3.08037 0
M  V30 18016 N 1683.56 -0.31543 1.54411 0
M  V30 18017 C 1684.51 -1.3898 1.80745 0
M  V30 18018 C 1685.49 -1.46567 0.663849 0
M  V30 18019 O 1686.68 -1.50963 0.924084 0
M  V30 18020 C 1683.81 -2.7571 2.04546 0
M  V30 18021 C 1682.9 -2.72403 3.2505 0
M  V30 18022 N 1683.29 -2.38715 4.45925 0
M  V30 18023 C 1681.59 -3.03523 3.26787 0
M  V30 18024 C 1682.29 -2.44346 5.27892 0
M  V30 18025 N 1681.26 -2.81118 4.65268 0
M  V30 18026 H 1685.06 -1.11875 2.71774 0
M  V30 18027 H 1682.58 -0.523951 1.53716 0
M  V30 18028 H 1684.58 -3.53156 2.21554 0
M  V30 18029 H 1683.24 -3.03738 1.14775 0
M  V30 18030 H 1684.25 -2.11419 4.72782 0
M  V30 18031 H 1680.92 -3.3654 2.47076 0
M  V30 18032 H 1682.31 -2.21221 6.34437 0
M  V30 18033 N 1685.03 -1.46622 -0.577906 0
M  V30 18034 C 1686.28 -1.53392 -1.33575 0
M  V30 18035 C 1686.64 -0.185083 -1.91508 0
M  V30 18036 O 1685.93 0.806821 -1.73784 0
M  V30 18037 C 1686.12 -2.57215 -2.48144 0
M  V30 18038 C 1685.95 -4.02062 -2.01435 0
M  V30 18039 C 1684.72 -4.69731 -1.86229 0
M  V30 18040 C 1686.92 -4.89714 -1.57112 0
M  V30 18041 N 1684.9 -5.99177 -1.33642 0
M  V30 18042 C 1686.27 -6.09023 -1.16149 0
M  V30 18043 C 1688.33 -4.76327 -1.44974 0
M  V30 18044 C 1687.03 -7.16424 -0.642558 0
M  V30 18045 C 1689.06 -5.83804 -0.944837 0
M  V30 18046 C 1688.42 -7.02288 -0.545014 0
M  V30 18047 H 1684.52 -0.616116 -0.481586 0
M  V30 18048 H 1687.1 -1.83264 -0.657462 0
M  V30 18049 H 1685.27 -2.29246 -3.1353 0
M  V30 18050 H 1687 -2.53952 -3.15104 0
M  V30 18051 H 1683.76 -4.25323 -2.08321 0
M  V30 18052 H 1684.18 -6.68087 -1.09496 0
M  V30 18053 H 1688.83 -3.85109 -1.74503 0
M  V30 18054 H 1686.54 -8.07406 -0.334864 0
M  V30 18055 H 1690.13 -5.75487 -0.854761 0
M  V30 18056 H 1689.01 -7.84036 -0.16036 0
M  V30 18057 N 1686.51 0.822941 -1.34408 0
M  V30 18058 C 1687.74 1.61607 -1.29992 0
M  V30 18059 C 1688.16 1.87695 0.123301 0
M  V30 18060 O 1687.52 1.45247 1.08504 0
M  V30 18061 C 1687.57 2.934 -2.09639 0
M  V30 18062 O 1686.67 3.85467 -1.4659 0
M  V30 18063 H 1686.01 0.491504 -0.446452 0
M  V30 18064 H 1688.54 1.02264 -1.7721 0
M  V30 18065 H 1688.55 3.42966 -2.20994 0
M  V30 18066 H 1687.23 2.73736 -3.13116 0
M  V30 18067 H 1685.81 3.43984 -1.43978 0
M  V30 18068 N 1687.99 1.18137 1.04314 0
M  V30 18069 C 1689.4 0.979768 1.58926 0
M  V30 18070 C 1689.75 -0.471214 1.90457 0
M  V30 18071 O 1688.88 -1.34812 1.69277 0
M  V30 18072 C 1689.47 1.77219 2.88754 0
M  V30 18073 C 1688.03 1.61501 3.39992 0
M  V30 18074 C 1687.18 1.76824 2.13609 0
M  V30 18075 H 1690.13 1.32717 0.870162 0
M  V30 18076 H 1690.15 1.2598 3.59039 0
M  V30 18077 H 1689.66 2.82818 2.65773 0
M  V30 18078 H 1687.76 0.58427 3.67991 0
M  V30 18079 H 1687.88 2.4115 4.13985 0
M  V30 18080 H 1686.24 1.19747 2.24795 0
M  V30 18081 H 1687.02 2.83853 1.93087 0
M  V30 18082 N 1689.47 -1.23186 0.98301 0
M  V30 18083 C 1690.43 -2.22979 0.530366 0
M  V30 18084 C 1691.43 -1.56211 -0.381421 0
M  V30 18085 O 1692.62 -1.73321 -0.17475 0
M  V30 18086 C 1689.75 -3.40124 -0.229882 0
M  V30 18087 H 1690.95 -2.64539 1.41277 0
M  V30 18088 H 1688.5 -1.36064 0.769172 0
M  V30 18089 H 1689.23 -3.04024 -1.12871 0
M  V30 18090 H 1689.02 -3.89794 0.424653 0
M  V30 18091 H 1690.51 -4.14158 -0.535078 0
M  V30 18092 N 1690.95 -0.754982 -1.38339 0
M  V30 18093 C 1691.89 -0.128193 -2.30444 0
M  V30 18094 C 1692.86 0.70813 -1.50249 0
M  V30 18095 O 1694.05 0.663969 -1.78875 0
M  V30 18096 C 1691.19 0.757921 -3.36674 0
M  V30 18097 C 1690.3 -0.093181 -4.31899 0
M  V30 18098 C 1689.44 0.796067 -5.25201 0
M  V30 18099 C 1688.48 -0.0585854 -6.12072 0
M  V30 18100 N 1687.61 0.7877 -6.97667 0
M  V30 18101 H 1692.45 -0.919204 -2.83469 0
M  V30 18102 H 1689.99 -0.464921 -1.3956 0
M  V30 18103 H 1691.95 1.28632 -3.96875 0
M  V30 18104 H 1690.58 1.5147 -2.85055 0
M  V30 18105 H 1689.63 -0.73922 -3.73148 0
M  V30 18106 H 1690.94 -0.753146 -4.93081 0
M  V30 18107 H 1690.1 1.39158 -5.90525 0
M  V30 18108 H 1688.83 1.48976 -4.64389 0
M  V30 18109 H 1687.84 -0.666754 -5.45742 0
M  V30 18110 H 1689.06 -0.749361 -6.74953 0
M  V30 18111 H 1687.01 1.46632 -6.39402 0
M  V30 18112 H 1686.93 0.184662 -7.55774 0
M  V30 18113 H 1688.2 1.36814 -7.674 0
M  V30 18114 N 1692.42 1.49318 -0.504168 0
M  V30 18115 C 1693.35 2.32027 0.261837 0
M  V30 18116 C 1694.34 1.4045 0.959575 0
M  V30 18117 O 1695.52 1.69357 0.950365 0
M  V30 18118 C 1692.65 3.21039 1.3248 0
M  V30 18119 C 1691.6 4.21435 0.746752 0
M  V30 18120 C 1690.93 4.99405 1.91047 0
M  V30 18121 C 1692.23 5.21631 -0.264315 0
M  V30 18122 H 1693.92 2.96317 -0.428544 0
M  V30 18123 H 1691.47 1.42497 -0.207539 0
M  V30 18124 H 1693.42 3.77714 1.86843 0
M  V30 18125 H 1692.15 2.54699 2.04441 0
M  V30 18126 H 1690.81 3.6591 0.22485 0
M  V30 18127 H 1690.45 4.29509 2.61784 0
M  V30 18128 H 1690.15 5.67338 1.52975 0
M  V30 18129 H 1691.68 5.58924 2.45837 0
M  V30 18130 H 1693.09 5.72981 0.191288 0
M  V30 18131 H 1691.49 5.97472 -0.561039 0
M  V30 18132 H 1692.56 4.70346 -1.17911 0
M  V30 18133 N 1693.9 0.238138 1.5579 0
M  V30 18134 C 1694.83 -0.659451 2.23994 0
M  V30 18135 C 1695.81 -1.18817 1.21723 0
M  V30 18136 O 1697 -1.22913 1.50353 0
M  V30 18137 C 1694.13 -1.86043 2.93267 0
M  V30 18138 C 1693.08 -1.46485 4.02152 0
M  V30 18139 C 1692.41 -2.74595 4.58805 0
M  V30 18140 C 1693.71 -0.642448 5.18334 0
M  V30 18141 H 1695.4 -0.0907522 2.99262 0
M  V30 18142 H 1692.95 -0.042209 1.43938 0
M  V30 18143 H 1694.9 -2.49393 3.39678 0
M  V30 18144 H 1693.63 -2.45436 2.15473 0
M  V30 18145 H 1692.28 -0.854729 3.56497 0
M  V30 18146 H 1691.93 -3.32168 3.77721 0
M  V30 18147 H 1691.63 -2.48854 5.32302 0
M  V30 18148 H 1693.16 -3.38859 5.07944 0
M  V30 18149 H 1694.57 -1.18005 5.61024 0
M  V30 18150 H 1692.97 -0.481458 5.98166 0
M  V30 18151 H 1694.04 0.347298 4.83655 0
M  V30 18152 N 1695.38 -1.57561 -0.0350783 0
M  V30 18153 C 1696.31 -2.09201 -1.03716 0
M  V30 18154 C 1697.29 -0.993231 -1.3809 0
M  V30 18155 O 1698.48 -1.26812 -1.47079 0
M  V30 18156 C 1695.61 -2.56643 -2.3399 0
M  V30 18157 C 1694.56 -3.70731 -2.13874 0
M  V30 18158 C 1693.89 -4.04358 -3.49855 0
M  V30 18159 C 1695.19 -4.99393 -1.52982 0
M  V30 18160 H 1696.88 -2.93176 -0.60731 0
M  V30 18161 H 1694.43 -1.41036 -0.290683 0
M  V30 18162 H 1696.38 -2.9139 -3.04417 0
M  V30 18163 H 1695.1 -1.69744 -2.79024 0
M  V30 18164 H 1693.76 -3.36325 -1.45881 0
M  V30 18165 H 1693.41 -3.14534 -3.92527 0
M  V30 18166 H 1693.11 -4.81201 -3.37223 0
M  V30 18167 H 1694.63 -4.41633 -4.21654 0
M  V30 18168 H 1696.05 -5.32135 -2.13319 0
M  V30 18169 H 1694.45 -5.80807 -1.50943 0
M  V30 18170 H 1695.52 -4.82367 -0.494993 0
M  V30 18171 N 1696.86 0.307236 -1.54576 0
M  V30 18172 C 1697.79 1.40019 -1.81459 0
M  V30 18173 C 1698.8 1.47113 -0.697246 0
M  V30 18174 O 1699.99 1.49544 -0.974626 0
M  V30 18175 C 1697.09 2.78439 -1.93197 0
M  V30 18176 C 1696.27 2.94353 -3.23536 0
M  V30 18177 C 1695.32 4.13232 -3.25769 0
M  V30 18178 O 1694.35 4.05614 -3.99331 0
M  V30 18179 N 1695.55 5.23567 -2.50715 0
M  V30 18180 H 1698.32 1.17317 -2.75784 0
M  V30 18181 H 1695.88 0.497286 -1.54074 0
M  V30 18182 H 1697.87 3.56202 -1.921 0
M  V30 18183 H 1696.44 2.94117 -1.05895 0
M  V30 18184 H 1695.66 2.03754 -3.37458 0
M  V30 18185 H 1696.95 3.01892 -4.09559 0
M  V30 18186 H 1696.35 5.32635 -1.90569 0
M  V30 18187 H 1694.9 5.99687 -2.55379 0
M  V30 18188 N 1698.34 1.46926 0.570122 0
M  V30 18189 C 1699.27 1.52969 1.69339 0
M  V30 18190 C 1700.25 0.382791 1.5803 0
M  V30 18191 O 1701.43 0.58875 1.7907 0
M  V30 18192 C 1698.56 1.42009 3.07492 0
M  V30 18193 C 1697.6 2.61039 3.37285 0
M  V30 18194 S 1698.44 4.23321 3.27963 0
M  V30 18195 C 1699.59 4.14892 4.68631 0
M  V30 18196 H 1699.83 2.48003 1.63957 0
M  V30 18197 H 1697.36 1.34966 0.749898 0
M  V30 18198 H 1699.32 1.36374 3.87185 0
M  V30 18199 H 1697.98 0.48382 3.10351 0
M  V30 18200 H 1697.17 2.49399 4.37968 0
M  V30 18201 H 1696.77 2.6373 2.65184 0
M  V30 18202 H 1699.07 3.82349 5.59299 0
M  V30 18203 H 1700.01 5.15618 4.85329 0
M  V30 18204 H 1700.42 3.45948 4.46072 0
M  V30 18205 N 1699.82 -0.815801 1.34842 0
M  V30 18206 C 1701.09 -1.55867 1.18173 0
M  V30 18207 C 1701.47 -2.09698 -0.242848 0
M  V30 18208 O 1700.82 -1.91594 -1.24514 0
M  V30 18209 C 1701.03 -2.67445 2.24219 0
M  V30 18210 C 1702.38 -3.36027 2.59559 0
M  V30 18211 O 1703.4 -2.77708 2.23062 0
M  V30 18212 O 1702.26 -4.4136 3.22279 0
M  V30 18213 H 1699.36 -0.688242 0.458533 0
M  V30 18214 H 1701.9 -0.856558 1.46496 0
M  V30 18215 H 1700.67 -2.25473 3.19809 0
M  V30 18216 H 1700.3 -3.453 1.97113 0
M  V30 18217 N 1701.29 -1.18689 -1.03686 0
M  V30 18218 C 1702.52 -1.01024 -1.81132 0
M  V30 18219 C 1702.94 0.436584 -1.82963 0
M  V30 18220 O 1702.3 1.31343 -1.24975 0
M  V30 18221 C 1702.35 -1.5742 -3.24424 0
M  V30 18222 O 1701.45 -0.79813 -4.04603 0
M  V30 18223 H 1700.79 -0.357623 -0.559465 0
M  V30 18224 H 1703.32 -1.57532 -1.30556 0
M  V30 18225 H 1703.33 -1.60295 -3.75193 0
M  V30 18226 H 1702.01 -2.6273 -3.22406 0
M  V30 18227 H 1700.59 -0.842 -3.6327 0
M  V30 18228 N 1702.77 1.22662 -0.989529 0
M  V30 18229 C 1704 1.95883 -0.681511 0
M  V30 18230 C 1704.42 1.72646 0.746646 0
M  V30 18231 O 1703.78 1.00358 1.5099 0
M  V30 18232 C 1703.83 3.46773 -0.988975 0
M  V30 18233 O 1702.93 4.12311 -0.0858485 0
M  V30 18234 H 1702.27 0.612916 -0.255401 0
M  V30 18235 H 1704.8 1.5585 -1.32559 0
M  V30 18236 H 1704.81 3.97273 -0.929426 0
M  V30 18237 H 1703.49 3.63011 -2.02967 0
M  V30 18238 H 1702.06 3.7236 -0.200592 0
M  V30 18239 N 1704.25 0.762308 1.37937 0
M  V30 18240 C 1705.21 0.148588 2.28718 0
M  V30 18241 C 1706.21 -0.638198 1.47593 0
M  V30 18242 O 1707.4 -0.463178 1.67929 0
M  V30 18243 C 1704.53 -0.797492 3.31441 0
M  V30 18244 H 1705.73 0.94872 2.84498 0
M  V30 18245 H 1703.28 0.529888 1.47044 0
M  V30 18246 H 1704.02 -1.62298 2.80767 0
M  V30 18247 H 1703.8 -0.23561 3.91391 0
M  V30 18248 H 1705.29 -1.22262 3.99302 0
M  V30 18249 N 1705.73 -1.49049 0.51208 0
M  V30 18250 C 1706.96 -2.06885 -0.0249703 0
M  V30 18251 C 1707.37 -1.371 -1.29804 0
M  V30 18252 O 1706.73 -0.452798 -1.76794 0
M  V30 18253 C 1706.78 -3.60482 -0.27112 0
M  V30 18254 O 1706.5 -4.27643 0.951493 0
M  V30 18255 C 1708 -4.35063 -0.850568 0
M  V30 18256 H 1705.22 -0.670517 0.0254456 0
M  V30 18257 H 1707.76 -1.91682 0.712607 0
M  V30 18258 H 1705.92 -3.7535 -0.958702 0
M  V30 18259 H 1706.33 -5.19519 0.721156 0
M  V30 18260 H 1707.81 -5.43369 -0.972322 0
M  V30 18261 H 1708.28 -3.98285 -1.85111 0
M  V30 18262 H 1708.89 -4.24829 -0.200111 0
M  V30 18263 N 1707.21 -0.246397 -1.55662 0
M  V30 18264 C 1708.17 0.640041 -2.20082 0
M  V30 18265 C 1709.17 1.10313 -1.16994 0
M  V30 18266 O 1710.36 1.00792 -1.42079 0
M  V30 18267 C 1707.49 1.87964 -2.84398 0
M  V30 18268 H 1708.68 0.0780034 -2.99799 0
M  V30 18269 H 1706.24 0.00314588 -1.563 0
M  V30 18270 H 1706.97 2.48292 -2.08618 0
M  V30 18271 H 1706.76 1.5558 -3.59913 0
M  V30 18272 H 1708.25 2.51065 -3.33701 0
M  V30 18273 N 1708.68 1.57577 0.026722 0
M  V30 18274 C 1709.91 1.93359 0.727714 0
M  V30 18275 C 1710.32 0.844761 1.69294 0
M  V30 18276 O 1709.66 -0.187342 1.82742 0
M  V30 18277 C 1709.73 3.24958 1.53761 0
M  V30 18278 C 1709.39 4.5102 0.736909 0
M  V30 18279 C 1710.39 5.19887 0.036166 0
M  V30 18280 C 1708.07 4.97528 0.690759 0
M  V30 18281 C 1710.07 6.33545 -0.700003 0
M  V30 18282 C 1707.75 6.1108 -0.0491539 0
M  V30 18283 C 1708.75 6.78943 -0.743293 0
M  V30 18284 O 1708.44 7.90324 -1.47119 0
M  V30 18285 H 1708.17 0.642747 0.209408 0
M  V30 18286 H 1710.73 2.05396 -0.0124135 0
M  V30 18287 H 1708.96 3.09254 2.32161 0
M  V30 18288 H 1710.64 3.46049 2.12144 0
M  V30 18289 H 1711.41 4.84959 0.0628368 0
M  V30 18290 H 1707.29 4.44549 1.22055 0
M  V30 18291 H 1710.83 6.86448 -1.24235 0
M  V30 18292 H 1706.73 6.45453 -0.0777396 0
M  V30 18293 H 1707.5 8.06695 -1.38511 0
M  V30 18294 N 1710.16 -0.299034 1.54737 0
M  V30 18295 C 1711.41 -1.03195 1.73767 0
M  V30 18296 C 1711.73 -1.87731 0.527445 0
M  V30 18297 O 1711 -1.90465 -0.458242 0
M  V30 18298 H 1709.58 -0.383996 0.640747 0
M  V30 18299 H 1712.24 -0.329544 1.92094 0
M  V30 18300 H 1711.34 -1.68393 2.62774 0
M  V30 18301 N 1711.64 -1.47227 -0.562322 0
M  V30 18302 C 1712.86 -1.5744 -1.35008 0
M  V30 18303 C 1713.29 -0.223223 -1.86771 0
M  V30 18304 O 1712.65 0.800078 -1.62691 0
M  V30 18305 C 1712.7 -2.5992 -2.49948 0
M  V30 18306 O 1711.8 -2.14836 -3.52022 0
M  V30 18307 H 1711.14 -0.529064 -0.401232 0
M  V30 18308 H 1713.67 -1.92966 -0.680084 0
M  V30 18309 H 1713.68 -2.80177 -2.96588 0
M  V30 18310 H 1712.36 -3.58031 -2.11629 0
M  V30 18311 H 1710.93 -2.04655 -3.11722 0
M  V30 18312 N 1713.12 0.808639 -1.35273 0
M  V30 18313 C 1714.35 1.59701 -1.31541 0
M  V30 18314 C 1714.76 1.88493 0.107541 0
M  V30 18315 O 1714.12 1.4864 1.05889 0
M  V30 18316 C 1714.17 2.9295 -2.11808 0
M  V30 18317 O 1713.89 2.65407 -3.48555 0
M  V30 18318 C 1715.39 3.87318 -2.15638 0
M  V30 18319 H 1712.61 0.495961 -0.451956 0
M  V30 18320 H 1715.15 1.00507 -1.78097 0
M  V30 18321 H 1713.31 3.48663 -1.68858 0
M  V30 18322 H 1713.72 3.50471 -3.90218 0
M  V30 18323 H 1715.2 4.77933 -2.76196 0
M  V30 18324 H 1715.67 4.23752 -1.15458 0
M  V30 18325 H 1716.28 3.3754 -2.58741 0
M  V30 18326 N 1714.6 1.19237 1.03055 0
M  V30 18327 C 1715.84 0.995444 1.76688 0
M  V30 18328 C 1716.18 -0.472805 1.88357 0
M  V30 18329 O 1715.45 -1.3511 1.39913 0
M  V30 18330 C 1715.73 1.66308 3.19396 0
M  V30 18331 C 1715.59 3.20486 3.15609 0
M  V30 18332 C 1716.91 1.38468 4.17749 0
M  V30 18333 H 1714.02 0.36304 0.641382 0
M  V30 18334 H 1716.67 1.47052 1.20315 0
M  V30 18335 H 1714.82 1.25915 3.67529 0
M  V30 18336 H 1716.49 3.70081 2.75387 0
M  V30 18337 H 1714.73 3.52118 2.53369 0
M  V30 18338 H 1715.4 3.62345 4.16426 0
M  V30 18339 H 1717.88 1.73485 3.78209 0
M  V30 18340 H 1716.75 1.87735 5.15797 0
M  V30 18341 H 1717.02 0.309505 4.41015 0
M  V30 18342 N 1716.07 -1.22136 0.99602 0
M  V30 18343 C 1717.3 -1.95519 0.69189 0
M  V30 18344 C 1717.72 -1.7304 -0.73748 0
M  V30 18345 O 1717.08 -1.01157 -1.50456 0
M  V30 18346 C 1717.13 -3.46244 1.00735 0
M  V30 18347 O 1716.23 -4.12259 0.107713 0
M  V30 18348 H 1715.58 -0.611553 0.258648 0
M  V30 18349 H 1718.11 -1.55145 1.33384 0
M  V30 18350 H 1718.12 -3.96774 0.950482 0
M  V30 18351 H 1716.79 -3.6193 2.04889 0
M  V30 18352 H 1715.37 -3.72248 0.220336 0
M  V30 18353 N 1717.55 -0.769612 -1.37531 0
M  V30 18354 C 1718.5 -0.152627 -2.30295 0
M  V30 18355 C 1719.47 0.692154 -1.50992 0
M  V30 18356 O 1720.65 0.64496 -1.79569 0
M  V30 18357 C 1717.79 0.72217 -3.37459 0
M  V30 18358 C 1716.91 -0.138985 -4.31776 0
M  V30 18359 C 1716.04 0.740317 -5.26016 0
M  V30 18360 C 1715.08 -0.1235 -6.11975 0
M  V30 18361 N 1714.22 0.713658 -6.98464 0
M  V30 18362 H 1719.06 -0.949218 -2.82478 0
M  V30 18363 H 1716.6 -0.479697 -1.39059 0
M  V30 18364 H 1718.55 1.24415 -3.98217 0
M  V30 18365 H 1717.18 1.48438 -2.86646 0
M  V30 18366 H 1716.24 -0.778756 -3.72343 0
M  V30 18367 H 1717.55 -0.805402 -4.92255 0
M  V30 18368 H 1716.7 1.32887 -5.91968 0
M  V30 18369 H 1715.44 1.44042 -4.65943 0
M  V30 18370 H 1714.45 -0.7246 -5.45004 0
M  V30 18371 H 1715.67 -0.820907 -6.7412 0
M  V30 18372 H 1713.62 1.39842 -6.40921 0
M  V30 18373 H 1713.53 0.104492 -7.55928 0
M  V30 18374 H 1714.8 1.28667 -7.68808 0
M  V30 18375 N 1719.03 1.48775 -0.519977 0
M  V30 18376 C 1720.45 1.58614 -0.177164 0
M  V30 18377 C 1720.65 1.52314 1.31919 0
M  V30 18378 O 1719.7 1.40697 2.09668 0
M  V30 18379 C 1721.02 2.90653 -0.770816 0
M  V30 18380 C 1722.56 3.0416 -0.73864 0
M  V30 18381 C 1723.04 4.38845 -1.31069 0
M  V30 18382 N 1724.53 4.45386 -1.27222 0
M  V30 18383 C 1725.26 5.48088 -1.68484 0
M  V30 18384 N 1724.76 6.57797 -2.17428 0
M  V30 18385 N 1726.55 5.38912 -1.59782 0
M  V30 18386 H 1718.7 1.51112 -1.49261 0
M  V30 18387 H 1720.97 0.716925 -0.62026 0
M  V30 18388 H 1720.67 3.00888 -1.82097 0
M  V30 18389 H 1720.55 3.76422 -0.242125 0
M  V30 18390 H 1722.93 2.93543 0.302728 0
M  V30 18391 H 1723.02 2.20026 -1.30469 0
M  V30 18392 H 1722.66 4.50215 -2.35093 0
M  V30 18393 H 1722.59 5.21649 -0.720409 0
M  V30 18394 H 1725.08 3.66685 -0.913813 0
M  V30 18395 H 1725.39 7.32287 -2.46933 0
M  V30 18396 H 1723.74 6.58787 -2.21415 0
M  V30 18397 H 1726.93 4.52097 -1.2135 0
M  V30 18398 H 1727.1 6.18821 -1.92261 0
M  V30 18399 N 1720.51 0.254649 1.55529 0
M  V30 18400 C 1721.75 -0.368477 1.99424 0
M  V30 18401 C 1722.09 -1.57023 1.14269 0
M  V30 18402 O 1721.36 -1.93386 0.207886 0
M  V30 18403 C 1721.65 -0.77076 3.51755 0
M  V30 18404 C 1721.5 0.436923 4.47673 0
M  V30 18405 C 1722.82 -1.61487 4.09402 0
M  V30 18406 H 1719.94 -0.132459 0.724999 0
M  V30 18407 H 1722.58 0.357508 1.86606 0
M  V30 18408 H 1720.73 -1.38932 3.62809 0
M  V30 18409 H 1722.4 1.07541 4.4859 0
M  V30 18410 H 1720.64 1.07866 4.20175 0
M  V30 18411 H 1721.31 0.111996 5.51886 0
M  V30 18412 H 1723.79 -1.09265 4.01498 0
M  V30 18413 H 1722.67 -1.86519 5.16238 0
M  V30 18414 H 1722.93 -2.58926 3.58343 0
M  V30 18415 N 1721.99 -1.57589 -0.0183649 0
M  V30 18416 C 1722.95 -2.06217 -1.00035 0
M  V30 18417 C 1723.95 -0.968195 -1.28385 0
M  V30 18418 O 1725.14 -1.23147 -1.23209 0
M  V30 18419 C 1722.27 -2.48815 -2.33032 0
M  V30 18420 H 1723.46 -2.94236 -0.580085 0
M  V30 18421 H 1721.02 -1.5403 -0.265438 0
M  V30 18422 H 1721.75 -1.63985 -2.79785 0
M  V30 18423 H 1721.54 -3.28694 -2.13781 0
M  V30 18424 H 1723.03 -2.86828 -3.03512 0
M  V30 18425 N 1723.46 0.290824 -1.54893 0
M  V30 18426 C 1724.71 1.02228 -1.75844 0
M  V30 18427 C 1725.07 1.84574 -0.543161 0
M  V30 18428 O 1724.36 1.85888 0.464367 0
M  V30 18429 C 1724.55 1.95145 -2.99422 0
M  V30 18430 C 1724.38 1.2194 -4.32852 0
M  V30 18431 C 1723.15 0.942376 -4.96435 0
M  V30 18432 C 1725.35 0.618727 -5.10565 0
M  V30 18433 N 1723.33 0.181668 -6.13631 0
M  V30 18434 C 1724.7 -0.00869983 -6.19999 0
M  V30 18435 C 1726.76 0.52479 -4.95127 0
M  V30 18436 C 1725.46 -0.720987 -7.15677 0
M  V30 18437 C 1727.49 -0.173865 -5.91144 0
M  V30 18438 C 1726.85 -0.790102 -6.99955 0
M  V30 18439 H 1722.95 0.356662 -0.695928 0
M  V30 18440 H 1725.53 0.299802 -1.92378 0
M  V30 18441 H 1723.7 2.64634 -2.84295 0
M  V30 18442 H 1725.43 2.61518 -3.08854 0
M  V30 18443 H 1722.19 1.24313 -4.56994 0
M  V30 18444 H 1722.61 -0.185496 -6.76746 0
M  V30 18445 H 1727.26 0.986914 -4.1112 0
M  V30 18446 H 1724.97 -1.19485 -7.99218 0
M  V30 18447 H 1728.56 -0.246628 -5.81277 0
M  V30 18448 H 1727.44 -1.32212 -7.72975 0
M  V30 18449 N 1724.94 1.47523 0.554506 0
M  V30 18450 C 1725.89 1.5662 1.65693 0
M  V30 18451 C 1726.88 0.424914 1.55188 0
M  V30 18452 O 1728.07 0.674989 1.63624 0
M  V30 18453 C 1725.2 1.58607 3.04465 0
M  V30 18454 C 1724.28 2.78129 3.20164 0
M  V30 18455 N 1724.67 4.028 3.05918 0
M  V30 18456 C 1722.97 2.74947 3.5117 0
M  V30 18457 C 1723.67 4.82859 3.24379 0
M  V30 18458 N 1722.65 4.15228 3.50837 0
M  V30 18459 H 1726.45 2.50781 1.53252 0
M  V30 18460 H 1723.97 1.43554 0.759335 0
M  V30 18461 H 1725.96 1.63214 3.83623 0
M  V30 18462 H 1724.62 0.655437 3.18016 0
M  V30 18463 H 1725.63 4.33618 2.83189 0
M  V30 18464 H 1722.31 1.91034 3.71231 0
M  V30 18465 H 1723.7 5.91716 3.1831 0
M  V30 18466 N 1726.42 -0.801453 1.357 0
M  V30 18467 C 1727.65 -1.58771 1.32194 0
M  V30 18468 C 1728.06 -1.88927 -0.101529 0
M  V30 18469 O 1727.4 -1.49649 -1.0654 0
M  V30 18470 C 1727.46 -2.94186 2.06627 0
M  V30 18471 C 1727.13 -2.86819 3.55786 0
M  V30 18472 C 1728.12 -2.59898 4.50276 0
M  V30 18473 C 1725.81 -3.05775 3.98506 0
M  V30 18474 C 1727.8 -2.52017 5.85462 0
M  V30 18475 C 1725.49 -2.97516 5.33786 0
M  V30 18476 C 1726.49 -2.70673 6.27076 0
M  V30 18477 O 1726.18 -2.62387 7.59874 0
M  V30 18478 H 1725.91 -0.499518 0.455475 0
M  V30 18479 H 1728.46 -1.00358 1.79213 0
M  V30 18480 H 1726.69 -3.54602 1.54253 0
M  V30 18481 H 1728.38 -3.55368 1.96133 0
M  V30 18482 H 1729.15 -2.44968 4.18588 0
M  V30 18483 H 1725.03 -3.25678 3.26274 0
M  V30 18484 H 1728.57 -2.30985 6.58249 0
M  V30 18485 H 1724.47 -3.12006 5.65086 0
M  V30 18486 H 1725.24 -2.77957 7.69859 0
M  V30 18487 N 1727.9 -1.19782 -1.02421 0
M  V30 18488 C 1729.18 -0.912541 -1.73009 0
M  V30 18489 C 1729.56 0.58061 -2.02958 0
M  V30 18490 O 1728.9 1.54013 -1.68797 0
M  V30 18491 C 1729.11 -1.77745 -3.00346 0
M  V30 18492 C 1730.46 -2.01462 -3.73762 0
M  V30 18493 O 1731.49 -1.74935 -3.10284 0
M  V30 18494 O 1730.34 -2.46219 -4.87892 0
M  V30 18495 H 1727.44 -0.340513 -0.753644 0
M  V30 18496 H 1729.98 -1.30618 -1.08338 0
M  V30 18497 H 1728.76 -2.78887 -2.74477 0
M  V30 18498 H 1728.38 -1.38339 -3.72757 0
M  V30 18499 N 1729.38 1.21606 -1.00248 0
M  V30 18500 C 1730.29 2.2757 -0.570004 0
M  V30 18501 C 1731.3 1.69669 0.385788 0
M  V30 18502 O 1732.48 1.99839 0.250246 0
M  V30 18503 C 1729.54 3.46558 0.0990566 0
M  V30 18504 C 1728.61 4.19741 -0.9009 0
M  V30 18505 C 1727.84 5.33048 -0.263673 0
M  V30 18506 O 1728.06 5.62599 0.940131 0
M  V30 18507 O 1727 5.93978 -0.973342 0
M  V30 18508 H 1730.82 2.66751 -1.45182 0
M  V30 18509 H 1728.41 1.27955 -0.771224 0
M  V30 18510 H 1730.29 4.18733 0.47339 0
M  V30 18511 H 1728.96 3.09283 0.955285 0
M  V30 18512 H 1727.87 3.49798 -1.32634 0
M  V30 18513 H 1729.2 4.60921 -1.72664 0
M  V30 18514 N 1730.86 0.776895 1.37121 0
M  V30 18515 C 1731.77 0.167552 2.34001 0
M  V30 18516 C 1732.78 -0.673609 1.60432 0
M  V30 18517 O 1733.96 -0.592327 1.92493 0
M  V30 18518 C 1731.02 -0.697343 3.39615 0
M  V30 18519 C 1730.08 0.160869 4.28998 0
M  V30 18520 C 1729.32 -0.662841 5.29568 0
M  V30 18521 O 1729.54 -1.89962 5.37839 0
M  V30 18522 O 1728.47 -0.0693304 6.0186 0
M  V30 18523 H 1732.3 0.968247 2.87852 0
M  V30 18524 H 1729.88 0.538137 1.39372 0
M  V30 18525 H 1731.77 -1.19094 4.04221 0
M  V30 18526 H 1730.44 -1.47614 2.88083 0
M  V30 18527 H 1729.35 0.700941 3.67475 0
M  V30 18528 H 1730.68 0.902875 4.83848 0
M  V30 18529 N 1732.33 -1.48497 0.527859 0
M  V30 18530 C 1733.28 -2.2959 -0.23607 0
M  V30 18531 C 1734.25 -1.37232 -0.935762 0
M  V30 18532 O 1735.44 -1.66196 -0.937202 0
M  V30 18533 C 1732.58 -3.20551 -1.27832 0
M  V30 18534 C 1731.69 -4.27984 -0.58769 0
M  V30 18535 C 1730.82 -5.06128 -1.61269 0
M  V30 18536 C 1729.86 -6.05367 -0.905404 0
M  V30 18537 N 1729 -6.76577 -1.87585 0
M  V30 18538 H 1733.84 -2.94403 0.461635 0
M  V30 18539 H 1731.38 -1.45137 0.239493 0
M  V30 18540 H 1733.33 -3.71686 -1.89488 0
M  V30 18541 H 1731.96 -2.57665 -1.94444 0
M  V30 18542 H 1731.02 -3.80132 0.142759 0
M  V30 18543 H 1732.33 -4.9879 -0.0322348 0
M  V30 18544 H 1731.48 -5.61266 -2.30359 0
M  V30 18545 H 1730.22 -4.35157 -2.20204 0
M  V30 18546 H 1729.23 -5.49435 -0.200426 0
M  V30 18547 H 1730.45 -6.78335 -0.322197 0
M  V30 18548 H 1728.4 -6.08358 -2.45432 0
M  V30 18549 H 1728.31 -7.4345 -1.37178 0
M  V30 18550 H 1729.58 -7.36305 -2.5588 0
M  V30 18551 N 1733.81 -0.262893 -1.55392 0
M  V30 18552 C 1735.06 0.357939 -1.98499 0
M  V30 18553 C 1735.37 1.5789 -1.15456 0
M  V30 18554 O 1736.58 2.2719 -1.4865 0
M  V30 18555 C 1735.04 0.688205 -3.53259 0
M  V30 18556 C 1734.64 -0.512257 -4.45062 0
M  V30 18557 C 1736.39 1.27234 -4.04984 0
M  V30 18558 C 1734.29 -0.157257 -5.91191 0
M  V30 18559 H 1733.22 0.137514 -0.741354 0
M  V30 18560 H 1735.88 -0.365626 -1.79821 0
M  V30 18561 H 1734.26 1.47034 -3.67692 0
M  V30 18562 H 1735.43 -1.28935 -4.42394 0
M  V30 18563 H 1733.75 -1.0124 -4.03905 0
M  V30 18564 H 1736.34 1.55155 -5.11694 0
M  V30 18565 H 1736.69 2.20217 -3.53285 0
M  V30 18566 H 1737.22 0.552763 -3.93941 0
M  V30 18567 H 1733.96 -1.05464 -6.4696 0
M  V30 18568 H 1733.48 0.583319 -5.96957 0
M  V30 18569 H 1735.16 0.254892 -6.46498 0
M  V30 18570 N 1735.29 1.57597 0.0100073 0
M  V30 18571 C 1736.2 2.11209 1.02117 0
M  V30 18572 C 1737.22 1.05503 1.38366 0
M  V30 18573 O 1738.39 1.37348 1.47301 0
M  V30 18574 C 1735.46 2.59654 2.2974 0
M  V30 18575 C 1734.52 3.79921 1.99896 0
M  V30 18576 C 1733.75 4.26046 3.21435 0
M  V30 18577 O 1733.97 3.71566 4.32775 0
M  V30 18578 O 1732.91 5.18301 3.06018 0
M  V30 18579 H 1736.73 2.97805 0.595469 0
M  V30 18580 H 1734.32 1.47647 0.228208 0
M  V30 18581 H 1736.2 2.91058 3.04735 0
M  V30 18582 H 1734.88 1.76161 2.71568 0
M  V30 18583 H 1733.78 3.53506 1.22409 0
M  V30 18584 H 1735.12 4.64457 1.62912 0
M  V30 18585 N 1736.77 -0.282606 1.55045 0
M  V30 18586 C 1738.01 -1.01547 1.75198 0
M  V30 18587 C 1738.34 -1.86627 0.54779 0
M  V30 18588 O 1737.6 -1.89974 -0.46993 0
M  V30 18589 C 1737.9 -1.93554 3.00452 0
M  V30 18590 C 1737.56 -1.24303 4.33428 0
M  V30 18591 C 1736.22 -1.0515 4.69571 0
M  V30 18592 C 1738.58 -0.749451 5.15784 0
M  V30 18593 C 1735.9 -0.353528 5.85634 0
M  V30 18594 C 1738.26 -0.0651157 6.32566 0
M  V30 18595 C 1736.92 0.138206 6.67357 0
M  V30 18596 H 1736.19 -0.371587 0.641096 0
M  V30 18597 H 1738.84 -0.288623 1.89312 0
M  V30 18598 H 1737.14 -2.72828 2.81197 0
M  V30 18599 H 1738.84 -2.50363 3.1324 0
M  V30 18600 H 1735.43 -1.4022 4.05014 0
M  V30 18601 H 1739.61 -0.885074 4.88344 0
M  V30 18602 H 1734.87 -0.185186 6.11119 0
M  V30 18603 H 1739.04 0.325146 6.95641 0
M  V30 18604 H 1736.67 0.681034 7.57143 0
M  V30 18605 N 1738.25 -1.47815 -0.546675 0
M  V30 18606 C 1739.16 -1.63744 -1.68003 0
M  V30 18607 C 1740.17 -0.520118 -1.66044 0
M  V30 18608 O 1741.35 -0.789033 -1.853 0
M  V30 18609 C 1738.41 -1.65778 -3.04497 0
M  V30 18610 C 1737.47 -2.89015 -3.17441 0
M  V30 18611 C 1736.71 -2.90943 -4.47424 0
M  V30 18612 O 1736.93 -2.01769 -5.33522 0
M  V30 18613 O 1735.86 -3.82927 -4.64382 0
M  V30 18614 H 1739.69 -2.59665 -1.57505 0
M  V30 18615 H 1737.27 -1.31022 -0.717883 0
M  V30 18616 H 1739.16 -1.69734 -3.85705 0
M  V30 18617 H 1737.83 -0.730268 -3.15355 0
M  V30 18618 H 1736.74 -2.90599 -2.35591 0
M  V30 18619 H 1738.07 -3.81095 -3.11492 0
M  V30 18620 N 1739.72 0.794246 -1.36123 0
M  V30 18621 C 1740.97 1.55357 -1.31285 0
M  V30 18622 C 1741.32 1.92094 0.108426 0
M  V30 18623 O 1740.62 1.59486 1.06182 0
M  V30 18624 C 1740.81 2.84387 -2.16469 0
M  V30 18625 C 1740.64 2.60259 -3.66736 0
M  V30 18626 C 1739.41 2.55525 -4.3593 0
M  V30 18627 C 1741.61 2.29787 -4.60111 0
M  V30 18628 N 1739.59 2.23243 -5.7187 0
M  V30 18629 C 1740.96 2.07452 -5.84263 0
M  V30 18630 C 1743.02 2.15753 -4.48726 0
M  V30 18631 C 1741.72 1.72503 -6.98309 0
M  V30 18632 C 1743.75 1.82202 -5.62633 0
M  V30 18633 C 1743.11 1.60711 -6.85822 0
M  V30 18634 H 1739.21 0.569714 -0.535677 0
M  V30 18635 H 1741.79 0.928621 -1.71128 0
M  V30 18636 H 1739.96 3.44757 -1.78878 0
M  V30 18637 H 1741.69 3.50072 -2.03056 0
M  V30 18638 H 1738.45 2.70603 -3.88678 0
M  V30 18639 H 1738.87 2.09862 -6.43651 0
M  V30 18640 H 1743.51 2.31061 -3.54077 0
M  V30 18641 H 1741.23 1.55933 -7.92913 0
M  V30 18642 H 1744.82 1.72034 -5.55784 0
M  V30 18643 H 1743.7 1.35131 -7.7247 0
M  V30 18644 N 1741.2 1.20323 1.01785 0
M  V30 18645 C 1742.15 0.947754 2.12416 0
M  V30 18646 C 1743.14 -0.100443 1.69102 0
M  V30 18647 O 1744.35 0.0498028 1.79931 0
M  V30 18648 H 1740.72 0.289148 0.694188 0
M  V30 18649 H 1742.7 1.88714 2.31149 0
M  V30 18650 C 1741.44 0.51503 3.43864 0
M  V30 18651 H 1740.77 1.31318 3.77618 0
M  V30 18652 H 1742.21 0.375476 4.22334 0
M  V30 18653 C 1740.67 -0.772413 3.27926 0
M  V30 18654 O 1741.2 -1.83115 3.57536 0
M  V30 18655 N 1739.4 -0.733948 2.81179 0
M  V30 18656 H 1738.95 0.127902 2.57282 0
M  V30 18657 H 1738.91 -1.59571 2.70896 0
M  V30 18658 N 1742.68 -1.21073 1.00892 0
M  V30 18659 C 1743.91 -1.94233 0.712813 0
M  V30 18660 C 1744.32 -1.74315 -0.725249 0
M  V30 18661 O 1743.68 -1.05224 -1.49111 0
M  V30 18662 C 1743.73 -3.46536 1.02931 0
M  V30 18663 O 1743.45 -3.65798 2.41088 0
M  V30 18664 C 1744.95 -4.36855 0.753166 0
M  V30 18665 H 1742.17 -0.617579 0.262367 0
M  V30 18666 H 1744.72 -1.53781 1.34802 0
M  V30 18667 H 1742.87 -3.84897 0.439634 0
M  V30 18668 H 1743.29 -4.59857 2.52254 0
M  V30 18669 H 1744.76 -5.42405 1.02476 0
M  V30 18670 H 1745.24 -4.38085 -0.312761 0
M  V30 18671 H 1745.84 -4.04145 1.32464 0
M  V30 18672 N 1744.16 -0.784156 -1.36707 0
M  V30 18673 C 1745.41 -0.353434 -1.98986 0
M  V30 18674 C 1745.73 1.07714 -1.62551 0
M  V30 18675 O 1745 1.7416 -0.896938 0
M  V30 18676 H 1743.58 -0.127693 -0.736005 0
M  V30 18677 H 1746.24 -1.00503 -1.66988 0
M  V30 18678 H 1745.34 -0.441028 -3.08968 0
M  V30 18679 N 1745.64 1.48215 -0.535727 0
M  V30 18680 C 1746.86 2.06898 -0.0079465 0
M  V30 18681 C 1747.28 1.39148 1.27606 0
M  V30 18682 O 1746.64 0.480867 1.76051 0
M  V30 18683 C 1746.69 3.60868 0.213736 0
M  V30 18684 O 1746.41 4.26075 -1.01941 0
M  V30 18685 C 1747.91 4.36362 0.781245 0
M  V30 18686 H 1745.13 0.670028 -0.0361097 0
M  V30 18687 H 1747.67 1.90524 -0.743012 0
M  V30 18688 H 1745.83 3.76828 0.898866 0
M  V30 18689 H 1746.24 5.18306 -0.803716 0
M  V30 18690 H 1747.72 5.44847 0.885753 0
M  V30 18691 H 1748.19 4.01179 1.78751 0
M  V30 18692 H 1748.8 4.25094 0.132499 0
M  V30 18693 N 1747.11 0.27113 1.5525 0
M  V30 18694 C 1748.06 -0.634087 2.2379 0
M  V30 18695 C 1749.06 -1.16101 1.23357 0
M  V30 18696 O 1750.26 -1.1151 1.413 0
M  V30 18697 H 1746.64 -0.223023 0.718168 0
M  V30 18698 H 1748.61 -0.0331304 2.98382 0
M  V30 18699 C 1747.36 -1.80879 2.96948 0
M  V30 18700 H 1746.68 -1.41252 3.74016 0
M  V30 18701 H 1748.12 -2.41888 3.48233 0
M  V30 18702 C 1746.58 -2.69481 2.02192 0
M  V30 18703 O 1747.11 -3.69725 1.57056 0
M  V30 18704 N 1745.32 -2.36565 1.68776 0
M  V30 18705 H 1744.86 -1.55096 2.05677 0
M  V30 18706 H 1744.82 -2.96119 1.05646 0
M  V30 18707 N 1748.59 -1.576 -0.00164943 0
M  V30 18708 C 1749.84 -1.90778 -0.68786 0
M  V30 18709 C 1750.17 -0.872138 -1.73515 0
M  V30 18710 O 1749.45 0.109349 -1.94192 0
M  V30 18711 C 1749.73 -3.34539 -1.3325 0
M  V30 18712 C 1749.58 -4.48819 -0.296862 0
M  V30 18713 C 1750.9 -3.77693 -2.25911 0
M  V30 18714 H 1748.02 -0.69381 -0.24859 0
M  V30 18715 H 1750.66 -1.89936 0.0493059 0
M  V30 18716 H 1748.81 -3.35388 -1.9608 0
M  V30 18717 H 1750.48 -4.60106 0.331635 0
M  V30 18718 H 1748.73 -4.32123 0.38105 0
M  V30 18719 H 1749.4 -5.46362 -0.786927 0
M  V30 18720 H 1751.87 -3.78386 -1.73099 0
M  V30 18721 H 1750.75 -4.79037 -2.67983 0
M  V30 18722 H 1751.01 -3.11469 -3.1375 0
M  V30 18723 N 1750.07 0.274379 -1.55193 0
M  V30 18724 C 1751.35 1.02736 -1.66447 0
M  V30 18725 C 1751.73 2.04337 -0.530051 0
M  V30 18726 O 1751.08 2.23613 0.470058 0
M  V30 18727 C 1751.29 1.6854 -3.05606 0
M  V30 18728 C 1752.63 2.19754 -3.63309 0
M  V30 18729 O 1753.66 1.78529 -3.0823 0
M  V30 18730 O 1752.52 2.95364 -4.59807 0
M  V30 18731 H 1749.61 0.476462 -0.675953 0
M  V30 18732 H 1752.16 0.270347 -1.67533 0
M  V30 18733 H 1750.93 0.949086 -3.79616 0
M  V30 18734 H 1750.55 2.50931 -3.08414 0
M  V30 18735 N 1751.55 1.48103 0.538828 0
M  V30 18736 C 1752.78 1.59316 1.32008 0
M  V30 18737 C 1753.19 0.250107 1.87136 0
M  V30 18738 O 1752.55 -0.759358 1.65952 0
M  V30 18739 C 1752.6 2.63287 2.47714 0
M  V30 18740 O 1752.32 3.92379 1.9486 0
M  V30 18741 C 1753.82 2.84856 3.39664 0
M  V30 18742 H 1751.04 0.53743 0.401758 0
M  V30 18743 H 1753.59 1.93864 0.65092 0
M  V30 18744 H 1751.74 2.31621 3.10532 0
M  V30 18745 H 1752.15 4.49346 2.70534 0
M  V30 18746 H 1753.63 3.61426 4.17223 0
M  V30 18747 H 1754.11 1.93352 3.9435 0
M  V30 18748 H 1754.71 3.17791 2.82647 0
M  V30 18749 N 1753.03 -0.787016 1.36542 0
M  V30 18750 C 1753.97 -1.89975 1.31065 0
M  V30 18751 C 1754.94 -1.65134 0.178905 0
M  V30 18752 O 1756.13 -1.8726 0.36581 0
M  V30 18753 C 1753.27 -3.26822 1.10821 0
M  V30 18754 C 1752.38 -3.6372 2.33091 0
M  V30 18755 C 1751.52 -4.89697 2.0584 0
M  V30 18756 C 1750.56 -5.1928 3.24059 0
M  V30 18757 N 1749.69 -6.36441 2.96457 0
M  V30 18758 H 1754.53 -1.93993 2.2621 0
M  V30 18759 H 1752.07 -0.948631 1.12425 0
M  V30 18760 H 1754.03 -4.05741 0.971091 0
M  V30 18761 H 1752.66 -3.22221 0.193302 0
M  V30 18762 H 1751.71 -2.79906 2.57598 0
M  V30 18763 H 1753.02 -3.81529 3.21305 0
M  V30 18764 H 1752.18 -5.76486 1.89072 0
M  V30 18765 H 1750.91 -4.73962 1.14941 0
M  V30 18766 H 1749.92 -4.30973 3.41383 0
M  V30 18767 H 1751.14 -5.36934 4.15787 0
M  V30 18768 H 1749.09 -6.22093 2.08172 0
M  V30 18769 H 1749.01 -6.54594 3.78209 0
M  V30 18770 H 1750.28 -7.26207 2.83273 0
M  V30 18771 N 1754.5 -1.20861 -1.01145 0
M  V30 18772 C 1755.45 -0.962085 -2.09792 0
M  V30 18773 C 1756.42 0.109588 -1.65738 0
M  V30 18774 O 1757.61 -0.0362022 -1.90766 0
M  V30 18775 C 1754.75 -0.52586 -3.4107 0
M  V30 18776 C 1753.86 -1.66626 -3.98572 0
M  V30 18777 C 1752.99 -1.17983 -5.17932 0
M  V30 18778 C 1752.03 -2.29298 -5.67529 0
M  V30 18779 N 1751.17 -1.81836 -6.78145 0
M  V30 18780 H 1756.01 -1.89222 -2.30215 0
M  V30 18781 H 1753.55 -0.943108 -1.12889 0
M  V30 18782 H 1755.51 -0.25423 -4.16425 0
M  V30 18783 H 1754.14 0.367275 -3.20704 0
M  V30 18784 H 1753.19 -2.05268 -3.20264 0
M  V30 18785 H 1754.5 -2.50426 -4.3138 0
M  V30 18786 H 1753.65 -0.864477 -6.0051 0
M  V30 18787 H 1752.39 -0.311793 -4.86702 0
M  V30 18788 H 1751.4 -2.61644 -4.83552 0
M  V30 18789 H 1752.62 -3.16587 -6.00791 0
M  V30 18790 H 1750.57 -0.973665 -6.48734 0
M  V30 18791 H 1750.49 -2.59213 -7.10172 0
M  V30 18792 H 1751.75 -1.53315 -7.64274 0
M  V30 18793 N 1755.98 1.20536 -1.01532 0
M  V30 18794 C 1756.92 2.21979 -0.529198 0
M  V30 18795 C 1757.89 1.5701 0.422676 0
M  V30 18796 O 1759.08 1.85354 0.342975 0
M  V30 18797 C 1756.2 3.37918 0.230033 0
M  V30 18798 C 1755.25 4.21185 -0.671202 0
M  V30 18799 S 1756.08 4.90898 -2.13962 0
M  V30 18800 C 1757.24 6.10259 -1.39051 0
M  V30 18801 H 1757.47 2.62871 -1.38875 0
M  V30 18802 H 1755.01 1.30567 -0.824113 0
M  V30 18803 H 1756.96 4.05127 0.661978 0
M  V30 18804 H 1755.62 2.95489 1.06514 0
M  V30 18805 H 1754.82 5.03927 -0.085834 0
M  V30 18806 H 1754.42 3.59224 -1.04087 0
M  V30 18807 H 1756.71 6.74181 -0.669841 0
M  V30 18808 H 1757.65 6.73252 -2.19402 0
M  V30 18809 H 1758.06 5.57377 -0.893953 0
M  V30 18810 N 1757.46 0.791395 1.36289 0
M  V30 18811 C 1758.69 0.376696 2.03442 0
M  V30 18812 C 1759.1 -1.00753 1.59669 0
M  V30 18813 O 1758.46 -1.64657 0.787042 0
M  V30 18814 C 1758.51 0.433074 3.58897 0
M  V30 18815 O 1758.23 1.76272 4.01073 0
M  V30 18816 C 1759.73 0.00925475 4.43299 0
M  V30 18817 H 1756.95 0.154989 0.652855 0
M  V30 18818 H 1759.5 1.07079 1.74225 0
M  V30 18819 H 1757.65 -0.212623 3.86816 0
M  V30 18820 H 1758.07 1.71492 4.95672 0
M  V30 18821 H 1759.54 0.0998386 5.5191 0
M  V30 18822 H 1760.02 -1.04362 4.26621 0
M  V30 18823 H 1760.62 0.627518 4.20645 0
M  V30 18824 N 1758.94 -1.47929 0.54358 0
M  V30 18825 C 1760.16 -2.07393 0.0168905 0
M  V30 18826 C 1760.59 -1.39557 -1.26117 0
M  V30 18827 O 1759.95 -0.465983 -1.75209 0
M  V30 18828 C 1760 -3.6017 -0.176105 0
M  V30 18829 O 1759.1 -3.9326 -1.24178 0
M  V30 18830 H 1758.44 -0.662459 0.0452126 0
M  V30 18831 H 1760.97 -1.90145 0.755376 0
M  V30 18832 H 1760.98 -4.06088 -0.394555 0
M  V30 18833 H 1759.66 -4.08944 0.757445 0
M  V30 18834 H 1758.23 -3.59105 -1.0049 0
M  V30 18835 N 1760.42 -0.27936 -1.55104 0
M  V30 18836 C 1761.37 0.62221 -2.24123 0
M  V30 18837 C 1762.36 1.15445 -1.23971 0
M  V30 18838 O 1763.57 1.10759 -1.41889 0
M  V30 18839 H 1759.94 0.219212 -0.71934 0
M  V30 18840 H 1761.91 0.0173061 -2.98395 0
M  V30 18841 C 1760.66 1.79301 -2.97903 0
M  V30 18842 H 1759.98 1.39266 -3.7476 0
M  V30 18843 H 1761.42 2.40038 -3.49511 0
M  V30 18844 C 1759.88 2.68405 -2.03618 0
M  V30 18845 O 1760.41 3.68887 -1.59014 0
M  V30 18846 N 1758.62 2.35666 -1.70028 0
M  V30 18847 H 1758.17 1.54003 -2.06497 0
M  V30 18848 H 1758.12 2.95554 -1.07215 0
M  V30 18849 N 1761.9 1.57599 -0.0067085 0
M  V30 18850 C 1763.14 1.90858 0.67673 0
M  V30 18851 C 1763.47 0.880956 1.73405 0
M  V30 18852 O 1762.73 -0.113339 1.95372 0
M  V30 18853 C 1763.02 3.30868 1.35133 0
M  V30 18854 C 1762.69 4.48878 0.426559 0
M  V30 18855 C 1761.35 4.80893 0.17196 0
M  V30 18856 C 1763.7 5.20778 -0.209761 0
M  V30 18857 C 1761.03 5.82177 -0.727139 0
M  V30 18858 C 1763.38 6.2302 -1.09678 0
M  V30 18859 C 1762.05 6.53488 -1.36049 0
M  V30 18860 H 1761.32 0.698397 0.247633 0
M  V30 18861 H 1763.97 1.91394 -0.0636748 0
M  V30 18862 H 1762.27 3.26487 2.16594 0
M  V30 18863 H 1763.97 3.53864 1.8863 0
M  V30 18864 H 1760.56 4.23867 0.635166 0
M  V30 18865 H 1764.74 4.96293 -0.0260888 0
M  V30 18866 H 1760 6.0414 -0.939389 0
M  V30 18867 H 1764.17 6.77861 -1.59616 0
M  V30 18868 H 1761.8 7.31789 -2.05886 0
M  V30 18869 N 1763.37 -0.266145 1.55336 0
M  V30 18870 C 1764.78 -0.836683 1.66903 0
M  V30 18871 C 1765.14 -1.86781 0.600597 0
M  V30 18872 O 1764.26 -2.14872 -0.256674 0
M  V30 18873 C 1764.86 -1.52436 3.0257 0
M  V30 18874 C 1763.41 -2.04284 3.1614 0
M  V30 18875 C 1762.56 -0.887248 2.62723 0
M  V30 18876 H 1765.51 -0.0423472 1.58643 0
M  V30 18877 H 1765.53 -2.39163 2.95941 0
M  V30 18878 H 1765.05 -0.773649 3.80311 0
M  V30 18879 H 1763.15 -2.82296 2.43187 0
M  V30 18880 H 1763.26 -2.25345 4.22796 0
M  V30 18881 H 1761.62 -1.28251 2.20054 0
M  V30 18882 H 1762.41 -0.14993 3.42972 0
M  V30 18883 N 1764.85 -1.48386 -0.530967 0
M  V30 18884 C 1766.1 -1.56585 -1.28875 0
M  V30 18885 C 1766.43 -0.238583 -1.92729 0
M  V30 18886 O 1765.71 0.75533 -1.79235 0
M  V30 18887 C 1765.99 -2.70338 -2.37886 0
M  V30 18888 C 1765.84 -4.12766 -1.78729 0
M  V30 18889 C 1767.16 -2.79857 -3.39659 0
M  V30 18890 H 1764.28 -0.569986 -0.46721 0
M  V30 18891 H 1766.92 -1.80555 -0.591596 0
M  V30 18892 H 1765.07 -2.50031 -2.9735 0
M  V30 18893 H 1766.74 -4.4451 -1.23324 0
M  V30 18894 H 1764.99 -4.19813 -1.09269 0
M  V30 18895 H 1765.66 -4.88178 -2.57655 0
M  V30 18896 H 1768.13 -2.9825 -2.90149 0
M  V30 18897 H 1767.01 -3.61179 -4.13329 0
M  V30 18898 H 1767.27 -1.87974 -4.00148 0
M  V30 18899 N 1766.33 0.779763 -1.36958 0
M  V30 18900 C 1767.61 1.52679 -1.22264 0
M  V30 18901 C 1767.99 2.10269 0.187164 0
M  V30 18902 O 1767.33 1.94828 1.19391 0
M  V30 18903 C 1767.54 2.61406 -2.31231 0
M  V30 18904 C 1768.89 3.29027 -2.68377 0
M  V30 18905 O 1769.92 2.71696 -2.30347 0
M  V30 18906 O 1768.78 4.3266 -3.33868 0
M  V30 18907 H 1765.87 0.675843 -0.476619 0
M  V30 18908 H 1768.42 0.817416 -1.48716 0
M  V30 18909 H 1767.19 2.16915 -3.25674 0
M  V30 18910 H 1766.81 3.39953 -2.06199 0
M  V30 18911 N 1767.81 1.21396 1.00503 0
M  V30 18912 C 1768.74 0.997268 2.11132 0
M  V30 18913 C 1769.72 -0.0777455 1.69922 0
M  V30 18914 O 1770.9 0.08208 1.94026 0
M  V30 18915 C 1768.03 0.561122 3.42737 0
M  V30 18916 C 1766.99 1.58069 3.97741 0
M  V30 18917 C 1766.31 1.00079 5.25251 0
M  V30 18918 C 1767.61 2.96754 4.29807 0
M  V30 18919 H 1769.31 1.92255 2.29518 0
M  V30 18920 H 1766.85 0.925776 1.10297 0
M  V30 18921 H 1768.81 0.396701 4.19529 0
M  V30 18922 H 1767.53 -0.399804 3.24144 0
M  V30 18923 H 1766.19 1.73268 3.23069 0
M  V30 18924 H 1765.84 0.0315797 5.0299 0
M  V30 18925 H 1765.54 1.68182 5.63017 0
M  V30 18926 H 1767.06 0.847687 6.04687 0
M  V30 18927 H 1768.48 2.85 4.97441 0
M  V30 18928 H 1766.87 3.61871 4.78717 0
M  V30 18929 H 1767.94 3.47602 3.38084 0
M  V30 18930 N 1769.29 -1.19996 1.0217 0
M  V30 18931 C 1770.51 -1.94007 0.733207 0
M  V30 18932 C 1770.94 -1.74565 -0.70061 0
M  V30 18933 O 1770.29 -1.04326 -1.48276 0
M  V30 18934 C 1770.34 -3.44029 1.08057 0
M  V30 18935 O 1769.45 -4.11938 0.195135 0
M  V30 18936 H 1768.79 -0.605929 0.271562 0
M  V30 18937 H 1771.32 -1.5228 1.36645 0
M  V30 18938 H 1771.33 -3.94669 1.03443 0
M  V30 18939 H 1770 -3.57502 2.1252 0
M  V30 18940 H 1768.58 -3.71697 0.299246 0
M  V30 18941 N 1770.76 -0.798611 -1.35867 0
M  V30 18942 C 1772.04 -0.298858 -1.93303 0
M  V30 18943 C 1772.42 1.21038 -1.72954 0
M  V30 18944 O 1771.77 2.00617 -1.09386 0
M  V30 18945 C 1771.98 -0.701532 -3.41876 0
M  V30 18946 C 1773.33 -0.686486 -4.19014 0
M  V30 18947 O 1774.35 -0.642577 -3.50356 0
M  V30 18948 O 1773.21 -0.737653 -5.41499 0
M  V30 18949 H 1770.3 -0.0762987 -0.823473 0
M  V30 18950 H 1772.85 -0.881773 -1.44993 0
M  V30 18951 H 1771.62 -1.74204 -3.50383 0
M  V30 18952 H 1771.24 -0.092994 -3.97491 0
M  V30 18953 N 1772.24 1.47639 -0.551417 0
M  V30 18954 C 1773.47 2.06578 -0.0298471 0
M  V30 18955 C 1773.88 1.40538 1.26672 0
M  V30 18956 O 1773.22 0.493957 1.76934 0
M  V30 18957 C 1773.28 3.5868 0.242667 0
M  V30 18958 C 1772.95 4.46726 -0.963597 0
M  V30 18959 C 1773.95 4.85195 -1.86766 0
M  V30 18960 C 1771.63 4.88324 -1.17664 0
M  V30 18961 C 1773.62 5.64056 -2.96849 0
M  V30 18962 C 1771.31 5.66951 -2.28058 0
M  V30 18963 C 1772.31 6.04727 -3.17482 0
M  V30 18964 O 1772 6.81771 -4.25963 0
M  V30 18965 H 1771.73 0.674806 -0.0401627 0
M  V30 18966 H 1774.28 1.90714 -0.762724 0
M  V30 18967 H 1772.51 3.72736 1.02978 0
M  V30 18968 H 1774.2 3.99661 0.708914 0
M  V30 18969 H 1774.97 4.53662 -1.7151 0
M  V30 18970 H 1770.85 4.58391 -0.489796 0
M  V30 18971 H 1774.39 5.93461 -3.66675 0
M  V30 18972 H 1770.29 5.97897 -2.43289 0
M  V30 18973 H 1771.06 7.00156 -4.23938 0
M  V30 18974 N 1773.72 0.287581 1.54954 0
M  V30 18975 C 1775.13 -0.207733 1.85541 0
M  V30 18976 C 1775.48 -1.54478 1.20959 0
M  V30 18977 O 1774.61 -2.10487 0.502399 0
M  V30 18978 C 1775.2 -0.383701 3.3662 0
M  V30 18979 C 1773.76 -0.82324 3.67287 0
M  V30 18980 C 1772.91 0.0762579 2.77195 0
M  V30 18981 H 1775.86 0.509004 1.50316 0
M  V30 18982 H 1775.88 -1.22036 3.60399 0
M  V30 18983 H 1775.39 0.589575 3.83596 0
M  V30 18984 H 1773.49 -1.80754 3.2582 0
M  V30 18985 H 1773.61 -0.651925 4.74644 0
M  V30 18986 H 1771.97 -0.44219 2.50832 0
M  V30 18987 H 1772.75 1.04564 3.26988 0
M  V30 18988 N 1775.2 -1.57593 0.0150662 0
M  V30 18989 C 1776.15 -2.0936 -0.971443 0
M  V30 18990 C 1777.12 -0.992416 -1.33193 0
M  V30 18991 O 1778.3 -1.26577 -1.42769 0
M  V30 18992 C 1775.44 -2.61386 -2.25324 0
M  V30 18993 C 1774.55 -3.85462 -1.95046 0
M  V30 18994 C 1773.69 -4.25934 -3.17418 0
M  V30 18995 C 1772.73 -5.42805 -2.82894 0
M  V30 18996 N 1771.86 -5.78499 -3.97848 0
M  V30 18997 H 1776.7 -2.93373 -0.523068 0
M  V30 18998 H 1774.24 -1.45018 -0.246605 0
M  V30 18999 H 1776.2 -2.89635 -3.00279 0
M  V30 19000 H 1774.83 -1.80225 -2.67804 0
M  V30 19001 H 1773.88 -3.64029 -1.10394 0
M  V30 19002 H 1775.19 -4.70505 -1.6561 0
M  V30 19003 H 1774.35 -4.55544 -4.00705 0
M  V30 19004 H 1773.09 -3.3963 -3.50004 0
M  V30 19005 H 1772.09 -5.12903 -1.98016 0
M  V30 19006 H 1773.32 -6.30797 -2.51539 0
M  V30 19007 H 1771.26 -4.95152 -4.30303 0
M  V30 19008 H 1771.18 -6.5815 -3.71988 0
M  V30 19009 H 1772.45 -6.12708 -4.8188 0
M  V30 19010 N 1776.68 0.257904 -1.55475 0
M  V30 19011 C 1777.9 1.00955 -1.81171 0
M  V30 19012 C 1778.33 1.78586 -0.590651 0
M  V30 19013 O 1777.68 1.75365 0.460105 0
M  V30 19014 C 1777.73 1.93188 -3.04485 0
M  V30 19015 O 1776.84 3.02194 -2.80628 0
M  V30 19016 H 1776.18 0.28785 -0.598363 0
M  V30 19017 H 1778.71 0.28223 -2.02644 0
M  V30 19018 H 1778.72 2.3486 -3.33624 0
M  V30 19019 H 1777.39 1.361 -3.93001 0
M  V30 19020 H 1775.97 2.64729 -2.62627 0
M  V30 19021 N 1778.15 1.48666 0.52309 0
M  V30 19022 C 1779.08 1.666 1.63605 0
M  V30 19023 C 1780.07 0.514803 1.62123 0
M  V30 19024 O 1781.25 0.748138 1.79211 0
M  V30 19025 C 1778.38 1.71199 3.02172 0
M  V30 19026 C 1777.33 2.85888 3.18515 0
M  V30 19027 C 1776.66 2.75582 4.58213 0
M  V30 19028 C 1777.96 4.27104 3.00631 0
M  V30 19029 H 1779.65 2.59776 1.48851 0
M  V30 19030 H 1777.2 1.25014 0.714667 0
M  V30 19031 H 1779.15 1.82333 3.79911 0
M  V30 19032 H 1777.88 0.746066 3.17964 0
M  V30 19033 H 1776.54 2.7432 2.43195 0
M  V30 19034 H 1776.18 1.76944 4.7085 0
M  V30 19035 H 1775.88 3.52545 4.70091 0
M  V30 19036 H 1777.41 2.88693 5.38041 0
M  V30 19037 H 1778.82 4.3947 3.68157 0
M  V30 19038 H 1777.22 5.05119 3.23999 0
M  V30 19039 H 1778.29 4.43087 1.96982 0
M  V30 19040 N 1779.63 -0.772489 1.37369 0
M  V30 19041 C 1780.58 -1.87592 1.29589 0
M  V30 19042 C 1781.57 -1.59846 0.183869 0
M  V30 19043 O 1782.76 -1.71989 0.418198 0
M  V30 19044 C 1779.89 -3.25051 1.1044 0
M  V30 19045 C 1778.97 -3.58751 2.26183 0
M  V30 19046 N 1779.36 -3.63638 3.51569 0
M  V30 19047 C 1777.66 -3.88912 2.1832 0
M  V30 19048 C 1778.36 -3.94064 4.27888 0
M  V30 19049 N 1777.34 -4.09925 3.57019 0
M  V30 19050 H 1781.14 -1.89621 2.24546 0
M  V30 19051 H 1778.66 -0.968896 1.30331 0
M  V30 19052 H 1780.65 -4.03989 1.02951 0
M  V30 19053 H 1779.31 -3.24286 0.163986 0
M  V30 19054 H 1780.32 -3.45862 3.85487 0
M  V30 19055 H 1777 -3.95973 1.32332 0
M  V30 19056 H 1778.39 -4.04627 5.36401 0
M  V30 19057 N 1781.11 -1.21927 -0.998575 0
M  V30 19058 C 1782.04 -0.927553 -2.08499 0
M  V30 19059 C 1783.02 0.127378 -1.621 0
M  V30 19060 O 1784.21 -0.00298127 -1.885 0
M  V30 19061 C 1781.33 -0.393968 -3.36401 0
M  V30 19062 C 1780.38 -1.4327 -4.01716 0
M  V30 19063 S 1781.21 -3.0041 -4.43299 0
M  V30 19064 C 1782.37 -2.48675 -5.74379 0
M  V30 19065 H 1782.6 -1.84755 -2.32923 0
M  V30 19066 H 1780.13 -1.04972 -1.13227 0
M  V30 19067 H 1782.09 -0.0926895 -4.10395 0
M  V30 19068 H 1780.75 0.504816 -3.10017 0
M  V30 19069 H 1779.95 -1.0091 -4.93795 0
M  V30 19070 H 1779.55 -1.68239 -3.34024 0
M  V30 19071 H 1781.84 -1.89562 -6.5044 0
M  V30 19072 H 1782.78 -3.39221 -6.21558 0
M  V30 19073 H 1783.19 -1.90158 -5.31507 0
M  V30 19074 N 1782.59 1.19452 -1.02805 0
M  V30 19075 C 1783.82 1.92795 -0.742546 0
M  V30 19076 C 1784.23 1.75678 0.702418 0
M  V30 19077 O 1783.57 1.07547 1.48927 0
M  V30 19078 C 1783.63 3.44934 -1.01296 0
M  V30 19079 C 1783.3 3.85821 -2.44931 0
M  V30 19080 C 1784.29 3.90645 -3.43063 0
M  V30 19081 C 1781.98 4.17483 -2.79309 0
M  V30 19082 C 1783.97 4.26561 -4.73629 0
M  V30 19083 C 1781.66 4.53071 -4.10085 0
M  V30 19084 C 1782.66 4.57584 -5.07056 0
M  V30 19085 O 1782.34 4.9235 -6.35489 0
M  V30 19086 H 1782.08 0.619261 -0.271094 0
M  V30 19087 H 1784.63 1.5256 -1.37531 0
M  V30 19088 H 1782.86 3.85348 -0.323051 0
M  V30 19089 H 1784.55 3.99513 -0.717246 0
M  V30 19090 H 1785.32 3.66335 -3.17842 0
M  V30 19091 H 1781.19 4.13154 -2.0451 0
M  V30 19092 H 1784.74 4.29998 -5.49315 0
M  V30 19093 H 1780.64 4.76839 -4.3508 0
M  V30 19094 H 1781.4 5.10301 -6.39949 0
M  V30 19095 N 1784.07 0.805805 1.35442 0
M  V30 19096 C 1785.03 0.221278 2.28129 0
M  V30 19097 C 1786.03 -0.590919 1.49549 0
M  V30 19098 O 1787.22 -0.409518 1.69318 0
M  V30 19099 C 1784.35 -0.691643 3.3381 0
M  V30 19100 H 1785.54 1.03875 2.81336 0
M  V30 19101 H 1783.1 0.5764 1.45284 0
M  V30 19102 H 1783.83 -1.53283 2.85788 0
M  V30 19103 H 1783.62 -0.110972 3.91943 0
M  V30 19104 H 1785.11 -1.09497 4.02989 0
M  V30 19105 N 1785.54 -1.47344 0.559239 0
M  V30 19106 C 1786.49 -2.31735 -0.200368 0
M  V30 19107 C 1787.49 -1.43051 -0.907351 0
M  V30 19108 O 1788.69 -1.59804 -0.828406 0
M  V30 19109 H 1785.07 -0.747351 -0.0834871 0
M  V30 19110 H 1787.04 -2.93645 0.530556 0
M  V30 19111 C 1785.79 -3.25747 -1.2159 0
M  V30 19112 H 1785.11 -3.93952 -0.681314 0
M  V30 19113 H 1786.55 -3.87624 -1.71825 0
M  V30 19114 C 1785.01 -2.49414 -2.26482 0
M  V30 19115 O 1785.54 -2.24006 -3.33443 0
M  V30 19116 N 1783.75 -2.10387 -2.00464 0
M  V30 19117 H 1783.29 -2.3125 -1.13495 0
M  V30 19118 H 1783.25 -1.5963 -2.70861 0
M  V30 19119 N 1787.02 -0.295795 -1.54799 0
M  V30 19120 C 1788.44 0.0577516 -1.59495 0
M  V30 19121 C 1788.64 1.52862 -1.31284 0
M  V30 19122 O 1787.69 2.28061 -1.08372 0
M  V30 19123 C 1789.01 -0.335503 -2.98822 0
M  V30 19124 C 1790.56 -0.283835 -3.1171 0
M  V30 19125 C 1791.03 -0.651835 -4.53338 0
M  V30 19126 N 1792.52 -0.604171 -4.59243 0
M  V30 19127 C 1793.26 -0.861453 -5.66892 0
M  V30 19128 N 1792.75 -1.18443 -6.826 0
M  V30 19129 N 1794.55 -0.788863 -5.56537 0
M  V30 19130 H 1786.7 -1.25444 -1.71399 0
M  V30 19131 H 1788.96 -0.50822 -0.80026 0
M  V30 19132 H 1788.67 -1.35923 -3.24373 0
M  V30 19133 H 1788.54 0.313443 -3.75895 0
M  V30 19134 H 1790.93 0.730641 -2.85912 0
M  V30 19135 H 1791.01 -0.967331 -2.36804 0
M  V30 19136 H 1790.65 -1.66409 -4.79865 0
M  V30 19137 H 1790.58 0.053676 -5.26573 0
M  V30 19138 H 1793.07 -0.365262 -3.76131 0
M  V30 19139 H 1793.39 -1.36686 -7.60616 0
M  V30 19140 H 1791.73 -1.22242 -6.84165 0
M  V30 19141 H 1794.92 -0.536231 -4.65018 0
M  V30 19142 H 1795.09 -0.992744 -6.4035 0
M  V30 19143 N 1788.5 1.57583 -0.0234236 0
M  V30 19144 C 1789.43 2.12907 0.958804 0
M  V30 19145 C 1790.41 1.0438 1.34309 0
M  V30 19146 O 1791.6 1.32184 1.42271 0
M  V30 19147 C 1788.73 2.65151 2.24304 0
M  V30 19148 C 1787.68 3.78414 1.99967 0
M  V30 19149 C 1787.01 4.17064 3.34607 0
M  V30 19150 C 1788.31 5.04727 1.34342 0
M  V30 19151 H 1790 2.95228 0.498081 0
M  V30 19152 H 1787.55 1.42017 0.238138 0
M  V30 19153 H 1789.5 3.02487 2.93393 0
M  V30 19154 H 1788.22 1.79983 2.72532 0
M  V30 19155 H 1786.88 3.41507 1.33298 0
M  V30 19156 H 1786.53 3.28886 3.80583 0
M  V30 19157 H 1786.23 4.93385 3.19132 0
M  V30 19158 H 1787.76 4.56978 4.04973 0
M  V30 19159 H 1789.17 5.39686 1.93422 0
M  V30 19160 H 1787.57 5.86009 1.29282 0
M  V30 19161 H 1788.64 4.83872 0.315625 0
M  V30 19162 N 1789.98 -0.249655 1.5561 0
M  V30 19163 C 1790.91 -1.31281 1.931 0
M  V30 19164 C 1791.89 -1.50347 0.795601 0
M  V30 19165 O 1793.08 -1.63001 1.05566 0
M  V30 19166 C 1790.21 -2.66808 2.2233 0
M  V30 19167 C 1789.16 -2.62441 3.38096 0
M  V30 19168 C 1788.49 -4.01738 3.52861 0
M  V30 19169 C 1789.79 -2.19667 4.7386 0
M  V30 19170 H 1791.48 -1.00151 2.82153 0
M  V30 19171 H 1789.03 -0.480331 1.35753 0
M  V30 19172 H 1790.98 -3.41316 2.47146 0
M  V30 19173 H 1789.7 -2.99569 1.30101 0
M  V30 19174 H 1788.36 -1.90391 3.13284 0
M  V30 19175 H 1788.01 -4.31759 2.58056 0
M  V30 19176 H 1787.71 -3.99705 4.30708 0
M  V30 19177 H 1789.23 -4.7795 3.79995 0
M  V30 19178 H 1790.65 -2.83906 4.98067 0
M  V30 19179 H 1789.04 -2.28751 5.54791 0
M  V30 19180 H 1790.11 -1.14829 4.71108 0
M  V30 19181 N 1791.46 -1.48941 -0.515198 0
M  V30 19182 C 1792.73 -1.48205 -1.27651 0
M  V30 19183 C 1793.11 -0.201866 -2.10133 0
M  V30 19184 O 1792.46 0.816115 -2.13429 0
M  V30 19185 C 1792.67 -2.75274 -2.14535 0
M  V30 19186 C 1794.02 -3.24198 -2.74192 0
M  V30 19187 O 1795.04 -2.76293 -2.24813 0
M  V30 19188 O 1793.9 -4.07593 -3.64047 0
M  V30 19189 H 1791 -0.592546 -0.576904 0
M  V30 19190 H 1793.54 -1.6119 -0.530636 0
M  V30 19191 H 1792.32 -3.59949 -1.53469 0
M  V30 19192 H 1791.94 -2.6508 -2.96342 0
M  V30 19193 N 1792.94 0.765193 -1.37777 0
M  V30 19194 C 1793.89 1.86902 -1.30582 0
M  V30 19195 C 1794.87 1.59746 -0.192343 0
M  V30 19196 O 1796.06 1.71764 -0.427313 0
M  V30 19197 C 1793.19 3.2446 -1.12162 0
M  V30 19198 C 1792.28 3.57546 -2.28082 0
M  V30 19199 N 1792.67 3.61769 -3.53493 0
M  V30 19200 C 1790.97 3.87748 -2.2038 0
M  V30 19201 C 1791.67 3.9179 -4.29972 0
M  V30 19202 N 1790.64 4.08025 -3.59188 0
M  V30 19203 H 1794.44 1.88428 -2.25549 0
M  V30 19204 H 1791.96 0.96197 -1.30843 0
M  V30 19205 H 1793.96 4.03437 -1.05092 0
M  V30 19206 H 1792.62 3.24194 -0.181181 0
M  V30 19207 H 1793.63 3.43813 -3.87315 0
M  V30 19208 H 1790.3 3.95266 -1.3443 0
M  V30 19209 H 1791.69 4.01777 -5.3854 0
M  V30 19210 N 1794.41 1.22455 0.992094 0
M  V30 19211 C 1795.83 0.984682 1.25603 0
M  V30 19212 C 1796.03 -0.321255 1.98923 0
M  V30 19213 O 1795.09 -1.04367 2.29921 0
M  V30 19214 C 1796.4 2.1839 2.06703 0
M  V30 19215 C 1797.95 2.22755 2.19884 0
M  V30 19216 C 1798.42 3.42232 3.04371 0
M  V30 19217 N 1799.91 3.42398 3.11958 0
M  V30 19218 C 1800.65 4.31497 3.77622 0
M  V30 19219 N 1800.14 5.30814 4.45206 0
M  V30 19220 N 1801.94 4.1927 3.74391 0
M  V30 19221 H 1794.09 2.06417 0.50057 0
M  V30 19222 H 1796.35 0.904556 0.283693 0
M  V30 19223 H 1796.06 3.13099 1.60192 0
M  V30 19224 H 1795.93 2.18517 3.07458 0
M  V30 19225 H 1798.32 1.28593 2.65608 0
M  V30 19226 H 1798.4 2.26667 1.18557 0
M  V30 19227 H 1798.04 4.36694 2.59346 0
M  V30 19228 H 1797.97 3.3556 4.05841 0
M  V30 19229 H 1800.46 2.70531 2.63858 0
M  V30 19230 H 1800.78 5.95078 4.93054 0
M  V30 19231 H 1799.12 5.34726 4.43952 0
M  V30 19232 H 1802.31 3.40932 3.20753 0
M  V30 19233 H 1802.49 4.88913 4.25286 0
M  V30 19234 N 1795.89 -1.18905 1.03437 0
M  V30 19235 C 1797.14 -1.89007 0.735135 0
M  V30 19236 C 1797.47 -1.7976 -0.734838 0
M  V30 19237 O 1796.75 -1.19365 -1.53565 0
M  V30 19238 C 1797.03 -3.39732 1.1939 0
M  V30 19239 C 1796.88 -3.57822 2.7255 0
M  V30 19240 C 1798.2 -4.33151 0.778993 0
M  V30 19241 H 1795.32 -0.686338 0.26853 0
M  V30 19242 H 1797.96 -1.39932 1.28527 0
M  V30 19243 H 1796.11 -3.81659 0.725861 0
M  V30 19244 H 1797.78 -3.25031 3.27342 0
M  V30 19245 H 1796.03 -3.0069 3.12679 0
M  V30 19246 H 1796.7 -4.63552 2.99706 0
M  V30 19247 H 1799.17 -3.98969 1.18164 0
M  V30 19248 H 1798.05 -5.37189 1.12781 0
M  V30 19249 H 1798.31 -4.40953 -0.318296 0
M  V30 19250 N 1797.37 -0.812977 -1.35013 0
M  V30 19251 C 1798.78 -0.45647 -1.81034 0
M  V30 19252 C 1799.13 1.02217 -1.6747 0
M  V30 19253 O 1798.26 1.79478 -1.20898 0
M  V30 19254 C 1798.85 -0.821773 -3.28683 0
M  V30 19255 C 1797.41 -0.517776 -3.72822 0
M  V30 19256 C 1796.56 -1.04399 -2.56897 0
M  V30 19257 H 1799.51 -1.00405 -1.22901 0
M  V30 19258 H 1799.53 -0.12173 -3.80305 0
M  V30 19259 H 1799.04 -1.89799 -3.38523 0
M  V30 19260 H 1797.14 0.549446 -3.68527 0
M  V30 19261 H 1797.26 -1.05488 -4.67343 0
M  V30 19262 H 1795.62 -0.466002 -2.50401 0
M  V30 19263 H 1796.4 -2.12645 -2.69512 0
M  V30 19264 N 1798.85 1.47045 -0.567045 0
M  V30 19265 C 1799.78 2.28211 0.212726 0
M  V30 19266 C 1800.79 1.37591 0.870207 0
M  V30 19267 O 1801.98 1.62329 0.742404 0
M  V30 19268 C 1799.08 3.12155 1.31957 0
M  V30 19269 C 1798.25 4.30799 0.75701 0
M  V30 19270 C 1797.31 4.96262 1.74958 0
M  V30 19271 O 1796.34 5.54347 1.29181 0
M  V30 19272 N 1797.54 4.91848 3.08327 0
M  V30 19273 H 1800.31 2.95773 -0.483552 0
M  V30 19274 H 1797.87 1.56784 -0.403768 0
M  V30 19275 H 1799.86 3.52815 1.98252 0
M  V30 19276 H 1798.43 2.4677 1.91894 0
M  V30 19277 H 1797.65 3.94113 -0.0829881 0
M  V30 19278 H 1798.94 5.0752 0.360671 0
M  V30 19279 H 1798.34 4.45875 3.48155 0
M  V30 19280 H 1796.89 5.36497 3.70154 0
M  V30 19281 N 1800.33 0.304 1.5464 0
M  V30 19282 C 1801.55 -0.306916 2.04611 0
M  V30 19283 C 1801.97 -1.4729 1.18114 0
M  V30 19284 O 1801.33 -1.81317 0.20743 0
M  V30 19285 C 1801.38 -0.760263 3.53415 0
M  V30 19286 O 1801.1 0.359321 4.36624 0
M  V30 19287 C 1802.6 -1.43602 4.19396 0
M  V30 19288 H 1799.82 -0.066247 0.667722 0
M  V30 19289 H 1802.36 0.444504 1.99611 0
M  V30 19290 H 1800.52 -1.4617 3.58766 0
M  V30 19291 H 1800.93 0.00582275 5.245 0
M  V30 19292 H 1802.41 -1.70436 5.25029 0
M  V30 19293 H 1802.88 -2.37705 3.69314 0
M  V30 19294 H 1803.49 -0.777683 4.18129 0
M  V30 19295 N 1801.8 -1.57568 0.0317802 0
M  V30 19296 C 1803.08 -1.8321 -0.685081 0
M  V30 19297 C 1803.46 -0.91624 -1.9018 0
M  V30 19298 O 1802.81 0.0275043 -2.28483 0
M  V30 19299 C 1803.02 -3.32488 -1.06078 0
M  V30 19300 C 1804.37 -3.99027 -1.45129 0
M  V30 19301 O 1805.39 -3.36999 -1.15368 0
M  V30 19302 O 1804.25 -5.08355 -2.00592 0
M  V30 19303 H 1801.34 -0.755517 -0.336337 0
M  V30 19304 H 1803.89 -1.69595 0.0596652 0
M  V30 19305 H 1802.66 -3.90814 -0.194918 0
M  V30 19306 H 1802.28 -3.5122 -1.8636 0
M  V30 19307 N 1803.28 0.241399 -1.5574 0
M  V30 19308 C 1804.22 1.32551 -1.85757 0
M  V30 19309 C 1805.19 1.46127 -0.713133 0
M  V30 19310 O 1806.38 1.62255 -0.959459 0
M  V30 19311 C 1803.5 2.69835 -2.04712 0
M  V30 19312 C 1802.55 2.73379 -3.27363 0
M  V30 19313 S 1803.38 2.29435 -4.83859 0
M  V30 19314 C 1804.54 3.68633 -5.05827 0
M  V30 19315 H 1804.77 1.06892 -2.77419 0
M  V30 19316 H 1802.31 0.44266 -1.47918 0
M  V30 19317 H 1804.26 3.4888 -2.16317 0
M  V30 19318 H 1802.92 2.92728 -1.13882 0
M  V30 19319 H 1802.12 3.74214 -3.37609 0
M  V30 19320 H 1801.72 2.02382 -3.14512 0
M  V30 19321 H 1804.01 4.64173 -4.93507 0
M  V30 19322 H 1804.95 3.63317 -6.07788 0
M  V30 19323 H 1805.36 3.61401 -4.33647 0
M  V30 19324 N 1804.76 1.49212 0.507292 0
M  V30 19325 C 1805.99 1.6208 1.28599 0
M  V30 19326 C 1806.4 0.289745 1.86563 0
M  V30 19327 O 1805.76 -0.723987 1.67525 0
M  V30 19328 C 1805.81 2.68482 2.42074 0
M  V30 19329 O 1805.53 3.96424 1.86493 0
M  V30 19330 C 1807.03 2.91997 3.33546 0
M  V30 19331 H 1804.25 0.545831 0.390268 0
M  V30 19332 H 1806.8 1.95201 0.609652 0
M  V30 19333 H 1804.95 2.38156 3.05549 0
M  V30 19334 H 1805.37 4.54983 2.60942 0
M  V30 19335 H 1806.84 3.70195 4.09463 0
M  V30 19336 H 1807.32 2.01673 3.9016 0
M  V30 19337 H 1807.92 3.23715 2.75842 0
M  V30 19338 N 1806.24 -0.757876 1.38181 0
M  V30 19339 C 1807.49 -1.51688 1.34153 0
M  V30 19340 C 1807.81 -1.94375 -0.0697487 0
M  V30 19341 O 1807.07 -1.65404 -1.04594 0
M  V30 19342 C 1807.37 -2.78548 2.23933 0
M  V30 19343 C 1807.03 -2.54845 3.71975 0
M  V30 19344 C 1805.7 -2.48089 4.12317 0
M  V30 19345 C 1808.05 -2.34027 4.65704 0
M  V30 19346 C 1805.38 -2.18526 5.44485 0
M  V30 19347 C 1807.73 -2.05986 5.98124 0
M  V30 19348 C 1806.39 -1.97683 6.37556 0
M  V30 19349 H 1805.66 -0.555064 0.490902 0
M  V30 19350 H 1808.31 -0.871823 1.70504 0
M  V30 19351 H 1806.61 -3.47682 1.80623 0
M  V30 19352 H 1808.31 -3.36487 2.18122 0
M  V30 19353 H 1804.9 -2.60972 3.39988 0
M  V30 19354 H 1809.08 -2.38228 4.35386 0
M  V30 19355 H 1804.34 -2.10603 5.73983 0
M  V30 19356 H 1808.51 -1.8888 6.70296 0
M  V30 19357 H 1806.14 -1.7454 7.39892 0
M  V30 19358 N 1807.72 -1.22979 -0.985586 0
M  V30 19359 C 1809.13 -0.991329 -1.25079 0
M  V30 19360 C 1809.33 0.310701 -1.9909 0
M  V30 19361 O 1808.39 1.03147 -2.30471 0
M  V30 19362 C 1809.7 -2.19483 -2.05542 0
M  V30 19363 C 1811.25 -2.23918 -2.187 0
M  V30 19364 C 1811.72 -3.43841 -3.02552 0
M  V30 19365 N 1813.22 -3.44048 -3.10137 0
M  V30 19366 C 1813.95 -4.33493 -3.75328 0
M  V30 19367 N 1813.45 -5.33167 -4.42385 0
M  V30 19368 N 1815.24 -4.2125 -3.72163 0
M  V30 19369 H 1807.39 -2.0668 -0.489617 0
M  V30 19370 H 1809.65 -0.906048 -0.278892 0
M  V30 19371 H 1809.36 -3.13945 -1.5853 0
M  V30 19372 H 1809.23 -2.20144 -3.06295 0
M  V30 19373 H 1811.62 -1.3 -2.64923 0
M  V30 19374 H 1811.7 -2.27293 -1.17353 0
M  V30 19375 H 1811.35 -4.38063 -2.57027 0
M  V30 19376 H 1811.28 -3.37707 -4.04056 0
M  V30 19377 H 1813.77 -2.71927 -2.6242 0
M  V30 19378 H 1814.08 -5.97684 -4.89892 0
M  V30 19379 H 1812.42 -5.37073 -4.4111 0
M  V30 19380 H 1815.62 -3.42629 -3.18941 0
M  V30 19381 H 1815.79 -4.91162 -4.22687 0
M  V30 19382 N 1809.19 1.18355 -1.04066 0
M  V30 19383 C 1810.14 2.19907 -0.60209 0
M  V30 19384 C 1811.13 1.56925 0.355457 0
M  V30 19385 O 1812.32 1.76138 0.174513 0
M  V30 19386 C 1809.45 3.43284 0.0334903 0
M  V30 19387 C 1808.54 4.13387 -0.947205 0
M  V30 19388 N 1808.93 4.59492 -2.11425 0
M  V30 19389 C 1807.22 4.39247 -0.773204 0
M  V30 19390 C 1807.93 5.1346 -2.73375 0
M  V30 19391 N 1806.9 5.04974 -2.01251 0
M  V30 19392 H 1810.7 2.53245 -1.49145 0
M  V30 19393 H 1808.22 1.3456 -0.90925 0
M  V30 19394 H 1810.21 4.15296 0.365384 0
M  V30 19395 H 1808.87 3.11441 0.918387 0
M  V30 19396 H 1809.89 4.53942 -2.49314 0
M  V30 19397 H 1806.56 4.17455 0.0616022 0
M  V30 19398 H 1807.95 5.59337 -3.72279 0
M  V30 19399 N 1810.67 0.820125 1.3458 0
M  V30 19400 C 1811.92 0.407473 1.98664 0
M  V30 19401 C 1812.25 -1.02613 1.64877 0
M  V30 19402 O 1811.53 -1.71421 0.918964 0
M  V30 19403 C 1811.81 0.606744 3.54952 0
M  V30 19404 C 1811.66 2.08626 3.98491 0
M  V30 19405 C 1812.98 0.0409321 4.40081 0
M  V30 19406 H 1810.1 0.149524 0.721673 0
M  V30 19407 H 1812.74 1.03217 1.59519 0
M  V30 19408 H 1810.89 0.0749788 3.88428 0
M  V30 19409 H 1812.56 2.68144 3.75361 0
M  V30 19410 H 1810.81 2.57774 3.48905 0
M  V30 19411 H 1811.48 2.17651 5.07279 0
M  V30 19412 H 1813.95 0.495234 4.13142 0
M  V30 19413 H 1812.83 0.210182 5.48497 0
M  V30 19414 H 1813.09 -1.05389 4.29355 0
M  V30 19415 N 1812.15 -1.46743 0.574835 0
M  V30 19416 C 1813.4 -2.02019 0.057302 0
M  V30 19417 C 1813.72 -1.44965 -1.30423 0
M  V30 19418 O 1812.99 -0.631377 -1.85447 0
M  V30 19419 H 1811.57 -0.746778 0.018193 0
M  V30 19420 H 1814.23 -1.7994 0.748834 0
M  V30 19421 H 1813.33 -3.12095 -0.0176114 0
M  V30 19422 N 1813.63 -0.312197 -1.54477 0
M  V30 19423 C 1814.85 0.298829 -2.05236 0
M  V30 19424 C 1815.28 1.45881 -1.18745 0
M  V30 19425 O 1814.64 1.80259 -0.193999 0
M  V30 19426 C 1814.68 0.722008 -3.53298 0
M  V30 19427 O 1813.79 1.82562 -3.6979 0
M  V30 19428 H 1813.13 0.0560985 -0.661626 0
M  V30 19429 H 1815.66 -0.4573 -1.99424 0
M  V30 19430 H 1815.67 1.00777 -3.95358 0
M  V30 19431 H 1814.34 -0.12647 -4.15708 0
M  V30 19432 H 1812.92 1.53954 -3.39636 0
M  V30 19433 N 1815.11 1.57549 -0.040136 0
M  V30 19434 C 1816.05 2.10879 0.938013 0
M  V30 19435 C 1817.02 1.01348 1.31597 0
M  V30 19436 O 1818.21 1.28832 1.40737 0
M  V30 19437 C 1815.35 2.64938 2.21138 0
M  V30 19438 C 1814.46 3.88516 1.88889 0
M  V30 19439 C 1813.6 4.3093 3.10601 0
M  V30 19440 C 1812.64 5.47237 2.74223 0
M  V30 19441 N 1811.77 5.84755 3.88594 0
M  V30 19442 H 1816.61 2.94169 0.476328 0
M  V30 19443 H 1814.15 1.45392 0.223503 0
M  V30 19444 H 1816.11 2.94375 2.95633 0
M  V30 19445 H 1814.74 1.84463 2.64903 0
M  V30 19446 H 1813.79 3.6574 1.04588 0
M  V30 19447 H 1815.1 4.7308 1.58103 0
M  V30 19448 H 1814.26 4.61861 3.93407 0
M  V30 19449 H 1812.99 3.45155 3.44557 0
M  V30 19450 H 1812 5.15988 1.89831 0
M  V30 19451 H 1813.22 6.34719 2.41472 0
M  V30 19452 H 1811.17 5.01935 4.22371 0
M  V30 19453 H 1811.09 6.63984 3.6147 0
M  V30 19454 H 1812.36 6.20297 4.72072 0
M  V30 19455 N 1816.58 -0.233136 1.55866 0
M  V30 19456 C 1817.51 -1.29225 1.94482 0
M  V30 19457 C 1818.5 -1.49495 0.811503 0
M  V30 19458 O 1819.68 -1.61872 1.07289 0
M  V30 19459 C 1816.81 -2.64435 2.25147 0
M  V30 19460 C 1815.76 -2.5884 3.4086 0
M  V30 19461 C 1815.09 -3.97973 3.57102 0
M  V30 19462 C 1816.39 -2.14629 4.76164 0
M  V30 19463 H 1818.08 -0.971527 2.83199 0
M  V30 19464 H 1815.63 -0.465905 1.36255 0
M  V30 19465 H 1817.58 -3.38676 2.50752 0
M  V30 19466 H 1816.31 -2.98172 1.33271 0
M  V30 19467 H 1814.97 -1.87057 3.15286 0
M  V30 19468 H 1814.61 -4.28998 2.62621 0
M  V30 19469 H 1814.31 -3.95114 4.34924 0
M  V30 19470 H 1815.84 -4.73893 3.85043 0
M  V30 19471 H 1817.25 -2.78607 5.0105 0
M  V30 19472 H 1815.65 -2.22853 5.57186 0
M  V30 19473 H 1816.72 -1.09826 4.72299 0
M  V30 19474 N 1818.06 -1.49479 -0.499372 0
M  V30 19475 C 1819.31 -1.58295 -1.25003 0
M  V30 19476 C 1819.63 -0.275616 -1.93648 0
M  V30 19477 O 1820.83 -0.24234 -2.70416 0
M  V30 19478 C 1819.29 -2.793 -2.26979 0
M  V30 19479 C 1818.9 -4.16799 -1.64264 0
M  V30 19480 C 1820.64 -2.97447 -3.02862 0
M  V30 19481 C 1818.55 -5.29025 -2.6436 0
M  V30 19482 H 1817.48 -0.589398 -0.470241 0
M  V30 19483 H 1820.13 -1.75868 -0.523698 0
M  V30 19484 H 1818.51 -2.55225 -3.02781 0
M  V30 19485 H 1819.68 -4.51018 -0.944432 0
M  V30 19486 H 1818 -4.04024 -1.00765 0
M  V30 19487 H 1820.6 -3.78461 -3.77719 0
M  V30 19488 H 1820.94 -2.08071 -3.60572 0
M  V30 19489 H 1821.47 -3.2157 -2.34175 0
M  V30 19490 H 1818.21 -6.20466 -2.11429 0
M  V30 19491 H 1817.73 -4.99258 -3.32417 0
M  V30 19492 H 1819.41 -5.58427 -3.26755 0
M  V30 19493 N 1819.54 0.750537 -1.38581 0
M  V30 19494 C 1820.79 1.51198 -1.35156 0
M  V30 19495 C 1821.12 1.94115 0.0574068 0
M  V30 19496 O 1820.4 1.65657 1.01922 0
M  V30 19497 C 1820.68 2.76245 -2.30999 0
M  V30 19498 C 1820.53 2.39446 -3.8077 0
M  V30 19499 C 1821.85 3.78282 -2.24924 0
M  V30 19500 H 1818.97 0.548488 -0.492271 0
M  V30 19501 H 1821.61 0.859402 -1.69453 0
M  V30 19502 H 1819.76 3.31928 -2.01882 0
M  V30 19503 H 1821.43 1.89515 -4.20573 0
M  V30 19504 H 1819.68 1.71866 -3.98302 0
M  V30 19505 H 1820.35 3.28926 -4.43296 0
M  V30 19506 H 1822.82 3.32146 -2.50636 0
M  V30 19507 H 1821.7 4.63467 -2.94091 0
M  V30 19508 H 1821.96 4.24088 -1.24908 0
M  V30 19509 N 1821.02 1.235 0.979051 0
M  V30 19510 C 1821.98 1.01854 2.05325 0
M  V30 19511 C 1822.98 -0.0201133 1.60787 0
M  V30 19512 O 1824.17 0.219761 1.72808 0
M  V30 19513 C 1821.3 0.541404 3.36573 0
M  V30 19514 H 1822.5 1.97183 2.25962 0
M  V30 19515 H 1820.05 1.05563 1.15265 0
M  V30 19516 H 1820.79 -0.415607 3.21626 0
M  V30 19517 H 1820.57 1.29092 3.7024 0
M  V30 19518 H 1822.06 0.410635 4.15576 0
M  V30 19519 N 1822.5 -1.17802 1.04693 0
M  V30 19520 C 1823.43 -2.20498 0.587866 0
M  V30 19521 C 1824.41 -1.58076 -0.380899 0
M  V30 19522 O 1825.59 -1.86198 -0.293711 0
M  V30 19523 C 1822.72 -3.38409 -0.140359 0
M  V30 19524 C 1821.77 -4.19258 0.782636 0
M  V30 19525 S 1822.6 -4.85052 2.26902 0
M  V30 19526 C 1823.75 -6.06357 1.55182 0
M  V30 19527 H 1823.99 -2.59096 1.45796 0
M  V30 19528 H 1821.52 -1.28336 0.858441 0
M  V30 19529 H 1823.48 -4.0674 -0.554333 0
M  V30 19530 H 1822.14 -2.98209 -0.98642 0
M  V30 19531 H 1821.33 -5.03522 0.219411 0
M  V30 19532 H 1820.93 -3.56338 1.13575 0
M  V30 19533 H 1823.23 -6.72168 0.848353 0
M  V30 19534 H 1824.17 -6.67198 2.37175 0
M  V30 19535 H 1824.58 -5.54811 1.04142 0
M  V30 19536 N 1823.98 -0.827251 -1.34143 0
M  V30 19537 C 1825.2 -0.429514 -2.02904 0
M  V30 19538 C 1825.63 0.958033 -1.61874 0
M  V30 19539 O 1824.98 1.62422 -0.805528 0
M  V30 19540 C 1825.03 -0.544592 -3.56464 0
M  V30 19541 O 1824.14 0.433849 -4.10112 0
M  V30 19542 H 1823.48 -0.176216 -0.64019 0
M  V30 19543 H 1826.01 -1.11887 -1.71297 0
M  V30 19544 H 1826.02 -0.421949 -4.05812 0
M  V30 19545 H 1824.69 -1.55657 -3.85673 0
M  V30 19546 H 1823.27 0.269729 -3.71923 0
M  V30 19547 N 1825.45 1.46436 -0.582609 0
M  V30 19548 C 1826.68 2.07275 -0.0718712 0
M  V30 19549 C 1827.1 1.42851 1.22373 0
M  V30 19550 O 1826.46 0.512272 1.73912 0
M  V30 19551 C 1826.51 3.6051 0.08055 0
M  V30 19552 O 1825.61 3.96414 1.13707 0
M  V30 19553 H 1824.95 0.661027 -0.0627607 0
M  V30 19554 H 1827.48 1.88076 -0.805524 0
M  V30 19555 H 1827.49 4.06991 0.286749 0
M  V30 19556 H 1826.17 4.06792 -0.865603 0
M  V30 19557 H 1824.75 3.61643 0.909338 0
M  V30 19558 N 1826.93 0.320385 1.54309 0
M  V30 19559 C 1828.18 -0.276343 2.01514 0
M  V30 19560 C 1828.53 -1.50026 1.20457 0
M  V30 19561 O 1827.83 -1.89575 0.27782 0
M  V30 19562 C 1828.02 -0.665444 3.5115 0
M  V30 19563 C 1827.85 0.519217 4.46693 0
M  V30 19564 C 1826.62 1.01733 4.94953 0
M  V30 19565 C 1828.82 1.3704 4.95706 0
M  V30 19566 N 1826.8 2.16673 5.74392 0
M  V30 19567 C 1828.17 2.36701 5.73038 0
M  V30 19568 C 1830.22 1.39853 4.77855 0
M  V30 19569 C 1828.93 3.38976 6.34419 0
M  V30 19570 C 1830.95 2.40997 5.40069 0
M  V30 19571 C 1830.32 3.39385 6.17249 0
M  V30 19572 H 1826.41 -0.0650523 0.77929 0
M  V30 19573 H 1829 0.454702 1.89316 0
M  V30 19574 H 1827.17 -1.36563 3.636 0
M  V30 19575 H 1828.9 -1.24337 3.85127 0
M  V30 19576 H 1825.66 0.589128 4.69922 0
M  V30 19577 H 1826.08 2.74642 6.1879 0
M  V30 19578 H 1830.72 0.651536 4.1775 0
M  V30 19579 H 1828.44 4.14583 6.93647 0
M  V30 19580 H 1832.03 2.43971 5.28175 0
M  V30 19581 H 1830.91 4.16368 6.64535 0
M  V30 19582 N 1828.41 -1.57525 0.0484906 0
M  V30 19583 C 1829.34 -2.14405 -0.924811 0
M  V30 19584 C 1830.32 -1.06503 -1.32631 0
M  V30 19585 O 1831.51 -1.3443 -1.4015 0
M  V30 19586 C 1828.64 -2.68686 -2.20057 0
M  V30 19587 C 1827.59 -3.81547 -1.93922 0
M  V30 19588 C 1826.92 -4.22334 -3.27929 0
M  V30 19589 C 1828.22 -5.06801 -1.26295 0
M  V30 19590 H 1829.91 -2.95983 -0.45105 0
M  V30 19591 H 1827.46 -1.42378 -0.215514 0
M  V30 19592 H 1829.41 -3.07117 -2.88543 0
M  V30 19593 H 1828.13 -1.84296 -2.69634 0
M  V30 19594 H 1826.79 -3.43585 -1.27848 0
M  V30 19595 H 1826.44 -3.34899 -3.75302 0
M  V30 19596 H 1826.14 -4.984 -3.11242 0
M  V30 19597 H 1827.66 -4.63363 -3.97652 0
M  V30 19598 H 1829.08 -5.42695 -1.84812 0
M  V30 19599 H 1827.47 -5.87991 -1.19943 0
M  V30 19600 H 1828.54 -4.84313 -0.238605 0
M  V30 19601 N 1829.89 0.224867 -1.55988 0
M  V30 19602 C 1830.82 1.30204 -1.88626 0
M  V30 19603 C 1831.83 1.4321 -0.774248 0
M  V30 19604 O 1833.02 1.44167 -1.05253 0
M  V30 19605 C 1830.12 2.67806 -2.07685 0
M  V30 19606 C 1829.29 2.76789 -3.38684 0
M  V30 19607 C 1828.35 3.95383 -3.47216 0
M  V30 19608 O 1827.38 3.83876 -4.20271 0
M  V30 19609 N 1828.58 5.09541 -2.78116 0
M  V30 19610 H 1831.35 1.02533 -2.81615 0
M  V30 19611 H 1828.91 0.414916 -1.56493 0
M  V30 19612 H 1830.9 3.45518 -2.10712 0
M  V30 19613 H 1829.47 2.88091 -1.21336 0
M  V30 19614 H 1828.69 1.8558 -3.47784 0
M  V30 19615 H 1829.98 2.79758 -4.24986 0
M  V30 19616 H 1829.38 5.21785 -2.18535 0
M  V30 19617 H 1827.93 5.85307 -2.86808 0
M  V30 19618 N 1831.37 1.49742 0.491438 0
M  V30 19619 C 1832.31 1.67115 1.59189 0
M  V30 19620 C 1833.28 0.512523 1.57995 0
M  V30 19621 O 1834.47 0.740693 1.75836 0
M  V30 19622 C 1831.61 1.75258 2.97286 0
M  V30 19623 C 1830.72 3.02488 3.08424 0
M  V30 19624 C 1829.86 3.0155 4.37311 0
M  V30 19625 C 1828.89 4.2332 4.42116 0
M  V30 19626 N 1828.03 4.20238 5.62445 0
M  V30 19627 H 1832.87 2.61073 1.43683 0
M  V30 19628 H 1830.41 1.29435 0.69892 0
M  V30 19629 H 1832.37 1.77959 3.77341 0
M  V30 19630 H 1831 0.847568 3.11474 0
M  V30 19631 H 1830.05 3.09353 2.21371 0
M  V30 19632 H 1831.36 3.92479 3.07834 0
M  V30 19633 H 1830.51 3.02868 5.25695 0
M  V30 19634 H 1829.25 2.09354 4.4048 0
M  V30 19635 H 1828.26 4.22236 3.52132 0
M  V30 19636 H 1829.48 5.1672 4.40656 0
M  V30 19637 H 1827.43 3.30884 5.66438 0
M  V30 19638 H 1827.35 5.03974 5.63512 0
M  V30 19639 H 1828.61 4.25672 6.53011 0
M  V30 19640 N 1832.84 -0.743177 1.38977 0
M  V30 19641 C 1833.81 -1.83876 1.36829 0
M  V30 19642 C 1834.81 -1.5857 0.266875 0
M  V30 19643 O 1836 -1.66121 0.524337 0
M  V30 19644 C 1833.13 -3.21528 1.1328 0
M  V30 19645 H 1834.32 -1.87186 2.3431 0
M  V30 19646 H 1831.88 -0.945979 1.24422 0
M  V30 19647 H 1832.61 -3.23883 0.164474 0
M  V30 19648 H 1832.4 -3.41292 1.93034 0
M  V30 19649 H 1833.89 -4.01597 1.14498 0
M  V30 19650 N 1834.32 -1.24018 -0.972487 0
M  V30 19651 C 1835.55 -1.10483 -1.75523 0
M  V30 19652 C 1835.97 0.338985 -1.8502 0
M  V30 19653 O 1835.33 1.24534 -1.31761 0
M  V30 19654 C 1835.38 -1.74396 -3.15624 0
M  V30 19655 O 1834.48 -1.01148 -3.99804 0
M  V30 19656 H 1833.82 -0.386777 -0.539722 0
M  V30 19657 H 1836.35 -1.64231 -1.22022 0
M  V30 19658 H 1836.36 -1.79958 -3.66168 0
M  V30 19659 H 1835.04 -2.7945 -3.08026 0
M  V30 19660 H 1833.62 -1.03338 -3.58296 0
M  V30 19661 N 1835.8 1.17245 -1.05316 0
M  V30 19662 C 1837.05 1.87165 -0.762471 0
M  V30 19663 C 1837.37 1.8151 0.712687 0
M  V30 19664 O 1836.64 1.2419 1.51504 0
M  V30 19665 H 1835.22 0.69292 -0.279054 0
M  V30 19666 H 1837.88 1.42227 -1.33257 0
M  V30 19667 H 1836.98 2.92872 -1.07854 0
M  V30 19668 N 1837.28 0.834353 1.33702 0
M  V30 19669 C 1838.5 0.440268 2.02673 0
M  V30 19670 C 1838.93 -0.949435 1.6238 0
M  V30 19671 O 1838.29 -1.61993 0.814131 0
M  V30 19672 C 1838.33 0.563489 3.5617 0
M  V30 19673 O 1837.44 -0.412093 4.10336 0
M  V30 19674 H 1836.78 0.179609 0.639247 0
M  V30 19675 H 1839.31 1.12794 1.70701 0
M  V30 19676 H 1839.32 0.443464 4.05583 0
M  V30 19677 H 1837.99 1.577 3.84842 0
M  V30 19678 H 1836.57 -0.250001 3.72061 0
M  V30 19679 N 1838.76 -1.46125 0.590367 0
M  V30 19680 C 1839.69 -2.33159 -0.126114 0
M  V30 19681 C 1840.67 -1.45806 -0.876057 0
M  V30 19682 O 1841.85 -1.7461 -0.850009 0
M  V30 19683 C 1838.98 -3.28217 -1.13537 0
M  V30 19684 C 1837.94 -4.25072 -0.499773 0
M  V30 19685 C 1837.26 -5.09694 -1.61605 0
M  V30 19686 C 1838.56 -5.19202 0.567992 0
M  V30 19687 H 1840.26 -2.93315 0.600577 0
M  V30 19688 H 1837.8 -1.41044 0.290265 0
M  V30 19689 H 1839.76 -3.87965 -1.64503 0
M  V30 19690 H 1838.48 -2.66185 -1.89244 0
M  V30 19691 H 1837.14 -3.66598 -0.0111313 0
M  V30 19692 H 1836.79 -4.44041 -2.36297 0
M  V30 19693 H 1836.49 -5.75292 -1.19637 0
M  V30 19694 H 1838.01 -5.72307 -2.12832 0
M  V30 19695 H 1839.42 -5.73121 0.143102 0
M  V30 19696 H 1837.82 -5.93184 0.908428 0
M  V30 19697 H 1838.89 -4.62671 1.45133 0
M  V30 19698 N 1840.23 -0.328564 -1.54137 0
M  V30 19699 C 1841.65 0.158467 -1.86026 0
M  V30 19700 C 1842 1.51216 -1.25012 0
M  V30 19701 O 1841.12 2.09081 -0.558029 0
M  V30 19702 C 1841.72 0.294317 -3.37519 0
M  V30 19703 C 1840.28 0.72557 -3.69341 0
M  V30 19704 C 1839.42 -0.149724 -2.76895 0
M  V30 19705 H 1842.37 -0.548678 -1.48913 0
M  V30 19706 H 1842.39 1.12438 -3.63508 0
M  V30 19707 H 1841.91 -0.691071 -3.81898 0
M  V30 19708 H 1840.01 1.72052 -3.30498 0
M  V30 19709 H 1840.12 0.525853 -4.76205 0
M  V30 19710 H 1838.48 0.375531 -2.51916 0
M  V30 19711 H 1839.27 -1.13197 -3.24101 0
M  V30 19712 N 1841.71 1.57497 -0.0568439 0
M  V30 19713 C 1842.94 1.96945 0.624196 0
M  V30 19714 C 1843.35 0.933312 1.64578 0
M  V30 19715 O 1842.69 -0.0902107 1.83478 0
M  V30 19716 C 1842.76 3.32652 1.3632 0
M  V30 19717 C 1842.42 4.54292 0.496798 0
M  V30 19718 C 1843.42 5.19348 -0.239466 0
M  V30 19719 C 1841.1 5.0049 0.426059 0
M  V30 19720 C 1843.1 6.28943 -1.03485 0
M  V30 19721 C 1840.78 6.09961 -0.373005 0
M  V30 19722 C 1841.78 6.74049 -1.10214 0
M  V30 19723 O 1841.47 7.81414 -1.88805 0
M  V30 19724 H 1841.2 0.652944 0.175043 0
M  V30 19725 H 1843.75 2.05042 -0.121272 0
M  V30 19726 H 1841.98 3.21126 2.15442 0
M  V30 19727 H 1843.67 3.56808 1.93502 0
M  V30 19728 H 1844.44 4.84611 -0.194318 0
M  V30 19729 H 1840.32 4.50394 0.983188 0
M  V30 19730 H 1843.86 6.78898 -1.60447 0
M  V30 19731 H 1839.76 6.44134 -0.419771 0
M  V30 19732 H 1840.53 7.98219 -1.81077 0
M  V30 19733 N 1843.19 -0.216591 1.56105 0
M  V30 19734 C 1844.42 -0.957013 1.83436 0
M  V30 19735 C 1844.83 -1.77743 0.636612 0
M  V30 19736 O 1844.19 -1.78178 -0.394833 0
M  V30 19737 C 1844.24 -1.87058 3.09341 0
M  V30 19738 O 1843.96 -1.08331 4.24495 0
M  V30 19739 C 1845.46 -2.72448 3.49695 0
M  V30 19740 H 1842.68 -0.280249 0.609673 0
M  V30 19741 H 1845.23 -0.230324 2.03199 0
M  V30 19742 H 1843.38 -2.55116 2.91539 0
M  V30 19743 H 1843.8 -1.70391 4.96052 0
M  V30 19744 H 1845.27 -3.32244 4.40815 0
M  V30 19745 H 1845.75 -3.4509 2.71679 0
M  V30 19746 H 1846.35 -2.09796 3.69954 0
M  V30 19747 N 1844.67 -1.5 -0.48349 0
M  V30 19748 C 1845.6 -1.64096 -1.60016 0
M  V30 19749 C 1846.61 -0.522896 -1.54174 0
M  V30 19750 O 1847.8 -0.795621 -1.59788 0
M  V30 19751 C 1844.9 -1.5979 -2.98865 0
M  V30 19752 C 1844.08 -2.87422 -3.29708 0
M  V30 19753 C 1843.13 -2.75928 -4.48051 0
M  V30 19754 O 1842.16 -3.49878 -4.4897 0
M  V30 19755 N 1843.36 -1.88648 -5.48992 0
M  V30 19756 H 1846.13 -2.60411 -1.48345 0
M  V30 19757 H 1843.69 -1.47309 -0.671691 0
M  V30 19758 H 1845.68 -1.4973 -3.75983 0
M  V30 19759 H 1844.25 -0.712613 -3.04369 0
M  V30 19760 H 1843.47 -3.11702 -2.4132 0
M  V30 19761 H 1844.76 -3.72002 -3.4712 0
M  V30 19762 H 1844.16 -1.27857 -5.51062 0
M  V30 19763 H 1842.71 -1.845 -6.25142 0
M  V30 19764 N 1846.15 0.735796 -1.39369 0
M  V30 19765 C 1847.37 1.52504 -1.39822 0
M  V30 19766 C 1847.79 1.88799 0.00747346 0
M  V30 19767 O 1847.15 1.54044 0.978611 0
M  V30 19768 C 1847.2 2.8131 -2.27039 0
M  V30 19769 O 1846.92 2.46557 -3.62134 0
M  V30 19770 C 1848.42 3.75343 -2.35866 0
M  V30 19771 H 1845.64 0.471306 -0.47761 0
M  V30 19772 H 1848.18 0.909257 -1.83174 0
M  V30 19773 H 1846.34 3.39222 -1.87102 0
M  V30 19774 H 1846.75 3.29294 -4.08247 0
M  V30 19775 H 1848.23 4.6262 -3.01142 0
M  V30 19776 H 1848.7 4.17036 -1.37758 0
M  V30 19777 H 1849.31 3.2335 -2.7627 0
M  V30 19778 N 1847.63 1.24532 0.965897 0
M  V30 19779 C 1848.56 1.06393 2.07853 0
M  V30 19780 C 1849.54 -0.0236467 1.70084 0
M  V30 19781 O 1850.72 0.143767 1.93667 0
M  V30 19782 C 1847.85 0.669877 3.40778 0
M  V30 19783 C 1846.81 1.70643 3.92511 0
M  V30 19784 C 1846.13 1.16738 5.21801 0
M  V30 19785 C 1847.43 3.10278 4.20149 0
M  V30 19786 H 1849.13 1.99459 2.23285 0
M  V30 19787 H 1846.67 0.960397 1.07296 0
M  V30 19788 H 1848.62 0.52997 4.18054 0
M  V30 19789 H 1847.35 -0.296477 3.25252 0
M  V30 19790 H 1846.01 1.83458 3.17393 0
M  V30 19791 H 1845.66 0.191586 5.02635 0
M  V30 19792 H 1845.36 1.86009 5.57382 0
M  V30 19793 H 1846.88 1.03963 6.01684 0
M  V30 19794 H 1848.29 3.00681 4.88123 0
M  V30 19795 H 1846.69 3.76918 4.66962 0
M  V30 19796 H 1847.76 3.58182 3.26854 0
M  V30 19797 N 1849.1 -1.16685 1.05936 0
M  V30 19798 C 1850.04 -2.20516 0.624931 0
M  V30 19799 C 1851.05 -1.59719 -0.315206 0
M  V30 19800 O 1852.24 -1.7818 -0.106761 0
M  V30 19801 C 1849.34 -3.38739 -0.10452 0
M  V30 19802 C 1848.51 -4.29097 0.848197 0
M  V30 19803 C 1847.57 -5.25961 0.158648 0
M  V30 19804 O 1846.6 -5.63619 0.795149 0
M  V30 19805 N 1847.8 -5.69961 -1.10115 0
M  V30 19806 H 1850.56 -2.58408 1.51807 0
M  V30 19807 H 1848.12 -1.31658 0.942216 0
M  V30 19808 H 1850.12 -4.00578 -0.576133 0
M  V30 19809 H 1848.69 -2.99382 -0.899414 0
M  V30 19810 H 1847.91 -3.64576 1.49927 0
M  V30 19811 H 1849.19 -4.86352 1.49463 0
M  V30 19812 H 1848.59 -5.41452 -1.63847 0
M  V30 19813 H 1847.15 -6.33908 -1.51669 0
M  V30 19814 N 1850.58 -0.841432 -1.33258 0
M  V30 19815 C 1851.86 -0.360204 -1.92255 0
M  V30 19816 C 1852.24 1.15474 -1.76717 0
M  V30 19817 O 1851.59 1.97035 -1.15713 0
M  V30 19818 C 1851.8 -0.809942 -3.39472 0
M  V30 19819 C 1853.14 -0.819444 -4.16618 0
M  V30 19820 O 1854.17 -0.753715 -3.48134 0
M  V30 19821 O 1853.03 -0.909553 -5.38878 0
M  V30 19822 H 1850.12 -0.102458 -0.820629 0
M  V30 19823 H 1852.67 -0.927455 -1.42114 0
M  V30 19824 H 1851.44 -1.85263 -3.44664 0
M  V30 19825 H 1851.06 -0.219406 -3.96994 0
M  V30 19826 N 1852.06 1.4581 -0.598108 0
M  V30 19827 C 1853.01 2.27522 0.147488 0
M  V30 19828 C 1853.99 1.36772 0.847487 0
M  V30 19829 O 1855.19 1.60833 0.739041 0
M  V30 19830 C 1852.31 3.23449 1.15047 0
M  V30 19831 C 1851.4 4.21687 0.451796 0
M  V30 19832 N 1851.79 5.0331 -0.501268 0
M  V30 19833 C 1850.09 4.40463 0.700576 0
M  V30 19834 C 1850.79 5.74521 -0.911055 0
M  V30 19835 N 1849.77 5.42993 -0.256847 0
M  V30 19836 H 1853.57 2.88026 -0.584658 0
M  V30 19837 H 1851.08 1.56847 -0.421055 0
M  V30 19838 H 1853.08 3.80712 1.69894 0
M  V30 19839 H 1851.74 2.64505 1.88327 0
M  V30 19840 H 1852.75 5.10411 -0.877558 0
M  V30 19841 H 1849.43 3.92654 1.41878 0
M  V30 19842 H 1850.82 6.50128 -1.69657 0
M  V30 19843 N 1853.54 0.336733 1.53961 0
M  V30 19844 C 1854.47 -0.515664 2.27735 0
M  V30 19845 C 1855.45 -1.10835 1.29033 0
M  V30 19846 O 1856.63 -1.13102 1.57866 0
M  V30 19847 C 1853.76 -1.67015 3.04505 0
M  V30 19848 C 1852.72 -1.20613 4.10654 0
M  V30 19849 C 1852.04 -2.44861 4.75339 0
M  V30 19850 C 1853.34 -0.311507 5.2137 0
M  V30 19851 H 1855.04 0.0997513 2.99234 0
M  V30 19852 H 1852.58 0.0494157 1.43915 0
M  V30 19853 H 1854.54 -2.27286 3.54851 0
M  V30 19854 H 1853.26 -2.31236 2.30646 0
M  V30 19855 H 1851.92 -0.62628 3.61211 0
M  V30 19856 H 1851.57 -3.07474 3.98081 0
M  V30 19857 H 1851.27 -2.14498 5.47051 0
M  V30 19858 H 1852.79 -3.0587 5.28466 0
M  V30 19859 H 1854.21 -0.820868 5.67393 0
M  V30 19860 H 1852.6 -0.100073 6.00017 0
M  V30 19861 H 1853.67 0.654181 4.80467 0
M  V30 19862 N 1855.02 -1.57465 0.0651956 0
M  V30 19863 C 1855.96 -2.13542 -0.922087 0
M  V30 19864 C 1856.96 -1.07067 -1.31275 0
M  V30 19865 O 1858.16 -1.25456 -1.29076 0
M  V30 19866 H 1854.54 -0.682718 -0.315277 0
M  V30 19867 H 1856.51 -2.9537 -0.424138 0
M  V30 19868 C 1855.26 -2.70663 -2.18258 0
M  V30 19869 H 1854.58 -3.52262 -1.8908 0
M  V30 19870 H 1856.02 -3.13505 -2.85466 0
M  V30 19871 C 1854.48 -1.65106 -2.93669 0
M  V30 19872 O 1855.01 -1.07214 -3.87128 0
M  V30 19873 N 1853.22 -1.36296 -2.56655 0
M  V30 19874 H 1852.76 -1.83562 -1.80728 0
M  V30 19875 H 1852.72 -0.659013 -3.07416 0
M  V30 19876 N 1856.49 0.20831 -1.56217 0
M  V30 19877 C 1857.72 0.951404 -1.84291 0
M  V30 19878 C 1858.14 1.76616 -0.647168 0
M  V30 19879 O 1857.5 1.7674 0.404081 0
M  V30 19880 C 1857.55 1.83403 -3.10477 0
M  V30 19881 O 1856.65 2.93113 -2.90101 0
M  V30 19882 H 1855.99 0.268668 -0.607218 0
M  V30 19883 H 1858.52 0.217618 -2.03439 0
M  V30 19884 H 1858.53 2.24127 -3.40927 0
M  V30 19885 H 1857.21 1.23528 -3.97132 0
M  V30 19886 H 1855.79 2.5624 -2.70916 0
M  V30 19887 N 1857.97 1.50255 0.475528 0
M  V30 19888 C 1858.9 1.71721 1.58222 0
M  V30 19889 C 1859.88 0.56612 1.60403 0
M  V30 19890 O 1861.07 0.804774 1.7674 0
M  V30 19891 C 1858.2 1.80726 2.96573 0
M  V30 19892 C 1857.15 2.95877 3.09258 0
M  V30 19893 C 1856.48 2.9002 4.49213 0
M  V30 19894 C 1857.78 4.36452 2.86891 0
M  V30 19895 H 1859.47 2.6438 1.40511 0
M  V30 19896 H 1857.02 1.27224 0.674533 0
M  V30 19897 H 1858.97 1.94328 3.73918 0
M  V30 19898 H 1857.69 0.846846 3.1543 0
M  V30 19899 H 1856.35 2.81918 2.34345 0
M  V30 19900 H 1856 1.91834 4.64982 0
M  V30 19901 H 1855.7 3.67322 4.58637 0
M  V30 19902 H 1857.23 3.05665 5.28584 0
M  V30 19903 H 1858.64 4.5096 3.53989 0
M  V30 19904 H 1857.04 5.15171 3.07765 0
M  V30 19905 H 1858.11 4.49129 1.82786 0
M  V30 19906 N 1859.45 -0.728395 1.39758 0
M  V30 19907 C 1860.4 -1.84245 1.39005 0
M  V30 19908 C 1861.37 -1.64226 0.248783 0
M  V30 19909 O 1862.55 -1.8554 0.444904 0
M  V30 19910 C 1859.69 -3.21828 1.24583 0
M  V30 19911 C 1858.8 -3.53507 2.48308 0
M  V30 19912 C 1857.94 -4.80526 2.26425 0
M  V30 19913 C 1856.98 -5.05069 3.45792 0
M  V30 19914 N 1856.12 -6.23295 3.23184 0
M  V30 19915 H 1860.96 -1.84224 2.34234 0
M  V30 19916 H 1858.49 -0.900094 1.16347 0
M  V30 19917 H 1860.45 -4.01257 1.14231 0
M  V30 19918 H 1859.08 -3.21111 0.329793 0
M  V30 19919 H 1858.13 -2.68729 2.69238 0
M  V30 19920 H 1859.44 -3.67558 3.37198 0
M  V30 19921 H 1858.6 -5.67949 2.13353 0
M  V30 19922 H 1857.34 -4.6866 1.3494 0
M  V30 19923 H 1856.34 -4.16106 3.59355 0
M  V30 19924 H 1857.57 -5.18815 4.38186 0
M  V30 19925 H 1855.51 -6.12704 2.3437 0
M  V30 19926 H 1855.43 -6.37964 4.05633 0
M  V30 19927 H 1856.7 -7.13539 3.13819 0
M  V30 19928 N 1860.93 -1.25042 -0.959279 0
M  V30 19929 C 1861.84 -1.06749 -2.08906 0
M  V30 19930 C 1862.85 -0.00591805 -1.73999 0
M  V30 19931 O 1864.03 -0.205876 -2.00345 0
M  V30 19932 C 1861.09 -0.683353 -3.39899 0
M  V30 19933 C 1860.16 -1.82235 -3.88702 0
M  V30 19934 C 1859.39 -1.45644 -5.13443 0
M  V30 19935 O 1859.61 -0.350012 -5.69325 0
M  V30 19936 O 1858.55 -2.28502 -5.5684 0
M  V30 19937 H 1862.37 -2.01485 -2.27238 0
M  V30 19938 H 1859.96 -1.03938 -1.07318 0
M  V30 19939 H 1861.84 -0.481036 -4.18645 0
M  V30 19940 H 1860.51 0.234796 -3.22847 0
M  V30 19941 H 1859.42 -2.07948 -3.10979 0
M  V30 19942 H 1860.75 -2.71957 -4.10244 0
M  V30 19943 N 1862.41 1.16121 -1.06553 0
M  V30 19944 C 1863.65 1.86715 -0.783827 0
M  V30 19945 C 1863.98 1.81857 0.689799 0
M  V30 19946 O 1863.24 1.23093 1.5214 0
M  V30 19947 C 1863.54 3.35676 -1.22705 0
M  V30 19948 C 1863.2 3.60732 -2.70524 0
M  V30 19949 C 1861.86 3.67279 -3.10901 0
M  V30 19950 C 1864.22 3.71093 -3.65977 0
M  V30 19951 C 1861.54 3.81691 -4.45566 0
M  V30 19952 C 1863.9 3.87027 -5.00393 0
M  V30 19953 C 1862.56 3.91817 -5.40403 0
M  V30 19954 H 1861.83 0.683238 -0.286823 0
M  V30 19955 H 1864.48 1.37285 -1.3351 0
M  V30 19956 H 1862.78 3.87255 -0.595017 0
M  V30 19957 H 1864.48 3.88686 -0.986096 0
M  V30 19958 H 1861.07 3.5627 -2.38263 0
M  V30 19959 H 1865.25 3.65343 -3.35914 0
M  V30 19960 H 1860.51 3.83654 -4.76046 0
M  V30 19961 H 1864.68 3.93986 -5.74237 0
M  V30 19962 H 1862.31 4.02737 -6.44753 0
M  V30 19963 N 1863.88 0.848487 1.3281 0
M  V30 19964 C 1864.83 0.277328 2.30941 0
M  V30 19965 C 1865.83 -0.595938 1.58572 0
M  V30 19966 O 1867.03 -0.484428 1.73359 0
M  V30 19967 H 1863.41 0.0709686 0.748644 0
M  V30 19968 H 1865.38 1.11932 2.76611 0
M  V30 19969 C 1864.13 -0.524705 3.43718 0
M  V30 19970 H 1863.45 0.137959 3.99562 0
M  V30 19971 H 1864.89 -0.890032 4.14553 0
M  V30 19972 C 1863.35 -1.70746 2.90426 0
M  V30 19973 O 1863.88 -2.80641 2.87408 0
M  V30 19974 N 1862.09 -1.5325 2.46907 0
M  V30 19975 H 1861.63 -0.638526 2.49561 0
M  V30 19976 H 1861.59 -2.32532 2.11603 0
M  V30 19977 N 1865.36 -1.4549 0.605832 0
M  V30 19978 C 1866.29 -2.3328 -0.101377 0
M  V30 19979 C 1867.27 -1.46727 -0.860543 0
M  V30 19980 O 1868.46 -1.75501 -0.831441 0
M  V30 19981 C 1865.59 -3.29403 -1.1005 0
M  V30 19982 C 1864.54 -4.25578 -0.45466 0
M  V30 19983 C 1863.87 -5.11379 -1.5619 0
M  V30 19984 C 1865.17 -5.18571 0.623028 0
M  V30 19985 H 1866.86 -2.92661 0.631653 0
M  V30 19986 H 1864.41 -1.40728 0.305208 0
M  V30 19987 H 1866.36 -3.89688 -1.60379 0
M  V30 19988 H 1865.09 -2.68177 -1.8641 0
M  V30 19989 H 1863.74 -3.66589 0.027752 0
M  V30 19990 H 1863.39 -4.46523 -2.31574 0
M  V30 19991 H 1863.09 -5.76528 -1.13529 0
M  V30 19992 H 1864.62 -5.74532 -2.0675 0
M  V30 19993 H 1866.03 -5.72937 0.203881 0
M  V30 19994 H 1864.43 -5.92187 0.971292 0
M  V30 19995 H 1865.5 -4.61106 1.50032 0
M  V30 19996 N 1866.84 -0.344893 -1.5378 0
M  V30 19997 C 1867.77 0.545646 -2.2261 0
M  V30 19998 C 1868.79 1.06288 -1.23315 0
M  V30 19999 O 1869.97 0.972802 -1.49662 0
M  V30 20000 C 1867.07 1.76379 -2.89385 0
M  V30 20001 C 1866.25 1.38162 -4.15006 0
M  V30 20002 C 1865.31 2.45958 -4.65179 0
M  V30 20003 O 1864.33 2.0921 -5.29358 0
M  V30 20004 N 1865.53 3.77232 -4.41221 0
M  V30 20005 H 1868.3 -0.043834 -2.99668 0
M  V30 20006 H 1865.86 -0.169081 -1.61015 0
M  V30 20007 H 1867.85 2.47928 -3.19865 0
M  V30 20008 H 1866.42 2.26061 -2.15905 0
M  V30 20009 H 1865.64 0.496839 -3.91056 0
M  V30 20010 H 1866.93 1.10227 -4.96717 0
M  V30 20011 H 1866.33 4.09875 -3.89896 0
M  V30 20012 H 1864.89 4.44947 -4.76304 0
M  V30 20013 N 1868.32 1.57428 -0.0735454 0
M  V30 20014 C 1869.27 2.14028 0.910749 0
M  V30 20015 C 1870.26 1.07761 1.30705 0
M  V30 20016 O 1871.47 1.26139 1.28409 0
M  V30 20017 H 1867.84 0.684381 0.311652 0
M  V30 20018 H 1869.81 2.95591 0.408468 0
M  V30 20019 C 1868.56 2.71817 2.1682 0
M  V30 20020 H 1867.88 3.5326 1.87209 0
M  V30 20021 H 1869.32 3.15014 2.83799 0
M  V30 20022 C 1867.78 1.66661 2.92789 0
M  V30 20023 O 1868.31 1.09266 3.86554 0
M  V30 20024 N 1866.52 1.37655 2.55929 0
M  V30 20025 H 1866.07 1.84518 1.79752 0
M  V30 20026 H 1866.02 0.675307 3.07062 0
M  V30 20027 N 1869.8 -0.200022 1.56326 0
M  V30 20028 C 1870.73 -1.27579 1.89206 0
M  V30 20029 C 1871.71 -1.44185 0.751625 0
M  V30 20030 O 1872.89 -1.59654 1.00214 0
M  V30 20031 C 1870.02 -2.64312 2.11794 0
M  V30 20032 C 1869.06 -2.64603 3.34496 0
M  V30 20033 S 1869.9 -2.16526 4.89772 0
M  V30 20034 C 1871.05 -3.55092 5.15422 0
M  V30 20035 H 1871.29 -0.99499 2.80156 0
M  V30 20036 H 1868.82 -0.403286 1.4904 0
M  V30 20037 H 1870.78 -3.43022 2.25491 0
M  V30 20038 H 1869.44 -2.89606 1.21603 0
M  V30 20039 H 1868.63 -3.65131 3.47412 0
M  V30 20040 H 1868.23 -1.93972 3.19767 0
M  V30 20041 H 1870.53 -4.50925 5.05641 0
M  V30 20042 H 1871.47 -3.47075 6.17207 0
M  V30 20043 H 1871.88 -3.49777 4.43076 0
M  V30 20044 N 1871.27 -1.50505 -0.467553 0
M  V30 20045 C 1872.52 -1.61352 -1.21697 0
M  V30 20046 C 1872.84 -0.317583 -1.92396 0
M  V30 20047 O 1872.11 0.665123 -1.84263 0
M  V30 20048 H 1870.69 -0.594582 -0.452196 0
M  V30 20049 H 1873.36 -1.87299 -0.539 0
M  V30 20050 H 1872.45 -2.4264 -1.96296 0
M  V30 20051 N 1872.75 0.720973 -1.40142 0
M  V30 20052 C 1873.68 1.84799 -1.42729 0
M  V30 20053 C 1874.66 1.67629 -0.288866 0
M  V30 20054 O 1875.85 1.8774 -0.496713 0
M  V30 20055 C 1872.98 3.22699 -1.28385 0
M  V30 20056 C 1871.93 3.54532 -2.39773 0
M  V30 20057 C 1871.26 4.91518 -2.10509 0
M  V30 20058 C 1872.56 3.56077 -3.82108 0
M  V30 20059 H 1874.25 1.82892 -2.37046 0
M  V30 20060 H 1871.8 0.8785 -1.14098 0
M  V30 20061 H 1873.75 4.0123 -1.28812 0
M  V30 20062 H 1872.48 3.25169 -0.305408 0
M  V30 20063 H 1871.13 2.78338 -2.38586 0
M  V30 20064 H 1870.78 4.90584 -1.11069 0
M  V30 20065 H 1870.48 5.13783 -2.85132 0
M  V30 20066 H 1872.01 5.72389 -2.1261 0
M  V30 20067 H 1873.42 4.24657 -3.85148 0
M  V30 20068 H 1871.82 3.89866 -4.56207 0
M  V30 20069 H 1872.89 2.55576 -4.12079 0
M  V30 20070 N 1874.23 1.25549 0.952634 0
M  V30 20071 C 1875.64 1.09496 1.5122 0
M  V30 20072 C 1875.99 -0.328639 1.93428 0
M  V30 20073 O 1875.12 -1.21884 1.78811 0
M  V30 20074 C 1875.71 1.9815 2.74813 0
M  V30 20075 C 1874.27 1.86275 3.27076 0
M  V30 20076 C 1873.42 1.92181 1.99904 0
M  V30 20077 H 1876.37 1.38806 0.769318 0
M  V30 20078 H 1876.39 1.52265 3.48705 0
M  V30 20079 H 1875.9 3.01754 2.44062 0
M  V30 20080 H 1874 0.855627 3.62643 0
M  V30 20081 H 1874.12 2.71194 3.94957 0
M  V30 20082 H 1872.48 1.36092 2.15293 0
M  V30 20083 H 1873.26 2.97393 1.71499 0
M  V30 20084 N 1875.71 -1.15554 1.07168 0
M  V30 20085 C 1876.99 -1.8238 0.706884 0
M  V30 20086 C 1877.37 -1.94906 -0.810848 0
M  V30 20087 O 1876.71 -1.49905 -1.72455 0
M  V30 20088 C 1876.92 -3.18844 1.41913 0
M  V30 20089 C 1878.27 -3.94506 1.57004 0
M  V30 20090 O 1879.3 -3.28392 1.37976 0
M  V30 20091 O 1878.15 -5.13036 1.88297 0
M  V30 20092 H 1875.25 -0.787892 0.251307 0
M  V30 20093 H 1877.79 -1.22681 1.17249 0
M  V30 20094 H 1876.57 -3.04814 2.45365 0
M  V30 20095 H 1876.19 -3.86227 0.944182 0
M  V30 20096 N 1877.19 -0.855519 -1.32358 0
M  V30 20097 C 1878.43 -0.459322 -1.97222 0
M  V30 20098 C 1878.76 0.985247 -1.677 0
M  V30 20099 O 1878.02 1.70642 -0.958117 0
M  V30 20100 C 1878.32 -0.64624 -3.51509 0
M  V30 20101 C 1877.98 -2.06141 -4.0102 0
M  V30 20102 C 1876.64 -2.44846 -4.14251 0
M  V30 20103 C 1879 -2.985 -4.27255 0
M  V30 20104 C 1876.32 -3.75181 -4.51061 0
M  V30 20105 C 1878.68 -4.28335 -4.65524 0
M  V30 20106 C 1877.34 -4.66973 -4.76961 0
M  V30 20107 H 1876.61 -0.168078 -0.721686 0
M  V30 20108 H 1879.26 -1.08574 -1.57747 0
M  V30 20109 H 1877.56 0.0634018 -3.91749 0
M  V30 20110 H 1879.26 -0.319727 -3.99723 0
M  V30 20111 H 1875.85 -1.75086 -3.91207 0
M  V30 20112 H 1880.03 -2.69829 -4.1654 0
M  V30 20113 H 1875.29 -4.04899 -4.58112 0
M  V30 20114 H 1879.46 -4.99963 -4.84778 0
M  V30 20115 H 1877.09 -5.6801 -5.05241 0
M  V30 20116 N 1878.67 1.45167 -0.61354 0
M  V30 20117 C 1879.62 2.27666 0.123348 0
M  V30 20118 C 1880.6 1.37663 0.832933 0
M  V30 20119 O 1881.79 1.61608 0.721941 0
M  V30 20120 C 1878.92 3.24651 1.1161 0
M  V30 20121 C 1878.01 4.22142 0.407045 0
M  V30 20122 N 1878.4 5.0275 -0.554622 0
M  V30 20123 C 1876.7 4.41182 0.65382 0
M  V30 20124 C 1877.4 5.73523 -0.97194 0
M  V30 20125 N 1876.37 5.4269 -0.314424 0
M  V30 20126 H 1880.17 2.8739 -0.615174 0
M  V30 20127 H 1877.69 1.56391 -0.437667 0
M  V30 20128 H 1879.69 3.82493 1.65846 0
M  V30 20129 H 1878.35 2.66488 1.85511 0
M  V30 20130 H 1879.36 5.09451 -0.931644 0
M  V30 20131 H 1876.03 3.94136 1.37705 0
M  V30 20132 H 1877.42 6.48292 -1.76543 0
M  V30 20133 N 1880.14 0.353044 1.53595 0
M  V30 20134 C 1881.39 -0.2416 2.00248 0
M  V30 20135 C 1881.71 -1.5089 1.24465 0
M  V30 20136 O 1882.91 -2.18137 1.61643 0
M  V30 20137 C 1881.37 -0.481075 3.5667 0
M  V30 20138 C 1880.98 0.77087 4.41318 0
M  V30 20139 C 1882.72 -1.03406 4.11713 0
M  V30 20140 C 1880.63 0.501671 5.89268 0
M  V30 20141 H 1879.56 -0.0940573 0.74811 0
M  V30 20142 H 1882.21 0.469845 1.77383 0
M  V30 20143 H 1880.59 -1.25346 3.75639 0
M  V30 20144 H 1881.76 1.54509 4.34124 0
M  V30 20145 H 1880.08 1.24617 3.97315 0
M  V30 20146 H 1882.68 -1.25058 5.1987 0
M  V30 20147 H 1883.02 -1.99245 3.65523 0
M  V30 20148 H 1883.55 -0.322144 3.96493 0
M  V30 20149 H 1880.29 1.43005 6.39711 0
M  V30 20150 H 1879.81 -0.234284 5.99342 0
M  V30 20151 H 1881.49 0.122468 6.46884 0
M  V30 20152 N 1881.62 -1.57387 0.0818932 0
M  V30 20153 C 1883.03 -1.81214 -0.449254 0
M  V30 20154 C 1883.38 -0.996563 -1.69006 0
M  V30 20155 O 1882.51 -0.22203 -2.15258 0
M  V30 20156 C 1883.1 -3.28681 -0.821827 0
M  V30 20157 C 1881.66 -3.53319 -1.29779 0
M  V30 20158 C 1880.81 -2.75801 -0.287911 0
M  V30 20159 H 1883.76 -1.55693 0.307486 0
M  V30 20160 H 1883.78 -3.41283 -1.68245 0
M  V30 20161 H 1883.29 -3.88015 0.081441 0
M  V30 20162 H 1881.39 -2.99302 -2.21921 0
M  V30 20163 H 1881.51 -4.61996 -1.26874 0
M  V30 20164 H 1879.87 -2.42867 -0.76731 0
M  V30 20165 H 1880.65 -3.37877 0.607805 0
M  V30 20166 N 1883.1 0.191729 -1.56429 0
M  V30 20167 C 1884.01 1.25798 -1.9802 0
M  V30 20168 C 1885.03 1.49612 -0.888379 0
M  V30 20169 O 1886.2 1.62161 -1.1944 0
M  V30 20170 C 1883.27 2.58158 -2.3142 0
M  V30 20171 C 1882.33 2.42386 -3.54327 0
M  V30 20172 C 1881.56 3.68434 -3.86124 0
M  V30 20173 O 1881.78 4.72747 -3.19165 0
M  V30 20174 O 1880.72 3.63762 -4.79542 0
M  V30 20175 H 1884.54 0.935013 -2.88948 0
M  V30 20176 H 1882.13 0.396996 -1.44029 0
M  V30 20177 H 1884.01 3.36274 -2.53964 0
M  V30 20178 H 1882.69 2.90075 -1.43659 0
M  V30 20179 H 1881.59 1.62369 -3.37027 0
M  V30 20180 H 1882.93 2.154 -4.42565 0
M  V30 20181 N 1884.58 1.50751 0.459565 0
M  V30 20182 C 1885.53 1.70997 1.57679 0
M  V30 20183 C 1886.52 0.575925 1.59309 0
M  V30 20184 O 1887.73 0.756735 1.6332 0
M  V30 20185 H 1884.1 0.539921 0.52344 0
M  V30 20186 H 1886.07 2.64693 1.37769 0
M  V30 20187 C 1884.82 1.83187 2.9553 0
M  V30 20188 H 1884.14 2.69844 2.94998 0
M  V30 20189 H 1885.58 2.01374 3.73128 0
M  V30 20190 C 1884.04 0.586222 3.31761 0
M  V30 20191 O 1884.57 -0.269358 4.00796 0
M  V30 20192 N 1882.78 0.436839 2.87298 0
M  V30 20193 H 1882.33 1.13413 2.31291 0
M  V30 20194 H 1882.28 -0.395424 3.11903 0
M  V30 20195 N 1886.06 -0.713531 1.40522 0
M  V30 20196 C 1886.99 -1.8404 1.43707 0
M  V30 20197 C 1887.97 -1.67474 0.297751 0
M  V30 20198 O 1889.15 -1.87474 0.506662 0
M  V30 20199 C 1886.28 -3.22014 1.30094 0
M  V30 20200 C 1885.24 -3.53255 2.4165 0
M  V30 20201 C 1884.56 -4.90395 2.13113 0
M  V30 20202 C 1885.86 -3.54045 3.83991 0
M  V30 20203 H 1887.56 -1.81632 2.38013 0
M  V30 20204 H 1885.1 -0.872437 1.14562 0
M  V30 20205 H 1887.05 -4.00541 1.30938 0
M  V30 20206 H 1885.78 -3.25002 0.322648 0
M  V30 20207 H 1884.44 -2.77069 2.40059 0
M  V30 20208 H 1884.09 -4.89988 1.13669 0
M  V30 20209 H 1883.79 -5.12264 2.87853 0
M  V30 20210 H 1885.31 -5.71254 2.15642 0
M  V30 20211 H 1886.72 -4.22609 3.87395 0
M  V30 20212 H 1885.12 -3.87441 4.58268 0
M  V30 20213 H 1886.19 -2.53387 4.13428 0
M  V30 20214 N 1887.53 -1.26053 -0.945962 0
M  V30 20215 C 1888.78 -1.11315 -1.69161 0
M  V30 20216 C 1889.11 0.34437 -1.91427 0
M  V30 20217 O 1888.36 1.26968 -1.48921 0
M  V30 20218 C 1888.66 -1.8222 -3.07459 0
M  V30 20219 C 1888.33 -3.32126 -3.04964 0
M  V30 20220 C 1886.99 -3.73019 -3.03991 0
M  V30 20221 C 1889.34 -4.2786 -2.97633 0
M  V30 20222 C 1886.67 -5.08041 -2.93446 0
M  V30 20223 C 1889.02 -5.62917 -2.88631 0
M  V30 20224 C 1887.69 -6.03127 -2.85998 0
M  V30 20225 H 1886.96 -0.407329 -0.619002 0
M  V30 20226 H 1889.6 -1.56435 -1.10454 0
M  V30 20227 H 1887.91 -1.29554 -3.69761 0
M  V30 20228 H 1889.61 -1.68261 -3.63991 0
M  V30 20229 H 1886.2 -2.99594 -3.06498 0
M  V30 20230 H 1890.38 -3.97252 -2.97497 0
M  V30 20231 H 1885.64 -5.38364 -2.89782 0
M  V30 20232 H 1889.81 -6.36784 -2.81921 0
M  V30 20233 H 1887.44 -7.07709 -2.77583 0
M  V30 20234 N 1889.01 1.14984 -1.07779 0
M  V30 20235 C 1889.94 2.22006 -0.723564 0
M  V30 20236 C 1890.92 1.67592 0.291024 0
M  V30 20237 O 1892.11 1.93516 0.162812 0
M  V30 20238 C 1889.24 3.47074 -0.125223 0
M  V30 20239 C 1888.19 4.14475 -1.06745 0
M  V30 20240 C 1887.52 5.33671 -0.331643 0
M  V30 20241 C 1888.82 4.63744 -2.4029 0
M  V30 20242 H 1890.51 2.51893 -1.61834 0
M  V30 20243 H 1888.06 1.21073 -0.779571 0
M  V30 20244 H 1890.01 4.21185 0.134555 0
M  V30 20245 H 1888.73 3.16533 0.804654 0
M  V30 20246 H 1887.39 3.4231 -1.31222 0
M  V30 20247 H 1887.04 4.99387 0.601833 0
M  V30 20248 H 1886.74 5.7971 -0.959721 0
M  V30 20249 H 1888.27 6.10548 -0.0797668 0
M  V30 20250 H 1889.68 5.2936 -2.20115 0
M  V30 20251 H 1888.08 5.20461 -2.98732 0
M  V30 20252 H 1889.15 3.79151 -3.02279 0
M  V30 20253 N 1890.49 0.862526 1.31902 0
M  V30 20254 C 1891.44 0.31091 2.28696 0
M  V30 20255 C 1892.41 -0.586495 1.55401 0
M  V30 20256 O 1893.59 -0.519727 1.83585 0
M  V30 20257 C 1890.73 -0.487986 3.41632 0
M  V30 20258 C 1889.84 0.436096 4.29793 0
M  V30 20259 C 1888.98 -0.376197 5.29866 0
M  V30 20260 C 1888.02 0.544784 6.09671 0
M  V30 20261 N 1887.16 -0.230806 7.01721 0
M  V30 20262 H 1892 1.14156 2.75268 0
M  V30 20263 H 1889.53 0.574352 1.35424 0
M  V30 20264 H 1891.49 -0.966875 4.05842 0
M  V30 20265 H 1890.12 -1.28339 2.96191 0
M  V30 20266 H 1889.17 1.03341 3.66094 0
M  V30 20267 H 1890.48 1.14259 4.85537 0
M  V30 20268 H 1889.64 -0.917915 5.99716 0
M  V30 20269 H 1888.38 -1.11602 4.74759 0
M  V30 20270 H 1887.38 1.09832 5.38718 0
M  V30 20271 H 1888.61 1.28334 6.66864 0
M  V30 20272 H 1886.55 -0.95358 6.49032 0
M  V30 20273 H 1886.47 0.416499 7.54852 0
M  V30 20274 H 1887.74 -0.753996 7.75845 0
M  V30 20275 N 1891.97 -1.4484 0.62123 0
M  V30 20276 C 1893.19 -2.07012 0.126801 0
M  V30 20277 C 1893.62 -1.46046 -1.18542 0
M  V30 20278 O 1892.98 -0.558202 -1.72493 0
M  V30 20279 C 1893.02 -3.60597 0.0150611 0
M  V30 20280 O 1892.13 -3.9929 -1.03157 0
M  V30 20281 H 1891.47 -0.659131 0.0802646 0
M  V30 20282 H 1894 -1.85874 0.855105 0
M  V30 20283 H 1894.01 -4.07608 -0.178742 0
M  V30 20284 H 1892.68 -4.04354 0.973153 0
M  V30 20285 H 1891.26 -3.63927 -0.813135 0
M  V30 20286 N 1893.45 -0.361184 -1.53405 0
M  V30 20287 C 1894.72 0.286047 -1.93497 0
M  V30 20288 C 1895.1 1.66764 -1.29434 0
M  V30 20289 O 1894.45 2.23989 -0.451785 0
M  V30 20290 C 1894.66 0.340663 -3.47333 0
M  V30 20291 C 1896.01 0.58311 -4.20577 0
M  V30 20292 O 1897.03 0.422054 -3.53691 0
M  V30 20293 O 1895.89 0.896383 -5.39099 0
M  V30 20294 H 1892.99 0.17059 -0.809215 0
M  V30 20295 H 1895.53 -0.413648 -1.64581 0
M  V30 20296 H 1894.3 -0.628175 -3.86225 0
M  V30 20297 H 1893.93 1.08643 -3.82469 0
M  V30 20298 N 1894.92 1.57341 -0.0902386 0
M  V30 20299 C 1896.17 1.93793 0.573474 0
M  V30 20300 C 1896.49 0.972444 1.69022 0
M  V30 20301 O 1895.76 0.0236753 1.95886 0
M  V30 20302 H 1894.34 0.715442 0.21483 0
M  V30 20303 H 1897.01 1.94303 -0.15243 0
M  V30 20304 H 1896.1 2.96088 0.986829 0
M  V30 20305 N 1896.4 -0.183431 1.56529 0
M  V30 20306 C 1897.82 -0.534734 1.50375 0
M  V30 20307 C 1898.02 -1.85267 0.792359 0
M  V30 20308 O 1897.07 -2.50095 0.3477 0
M  V30 20309 C 1898.39 -0.578686 2.95079 0
M  V30 20310 C 1899.94 -0.66672 3.05817 0
M  V30 20311 C 1900.41 -0.741676 4.51955 0
M  V30 20312 N 1901.9 -0.804892 4.56153 0
M  V30 20313 C 1902.64 -0.883257 5.66556 0
M  V30 20314 N 1902.13 -0.923203 6.86621 0
M  V30 20315 N 1903.93 -0.921346 5.54498 0
M  V30 20316 H 1896.08 0.68092 2.0119 0
M  V30 20317 H 1898.34 0.244029 0.916053 0
M  V30 20318 H 1898.05 0.320816 3.50234 0
M  V30 20319 H 1897.92 -1.42937 3.49068 0
M  V30 20320 H 1900.31 -1.55665 2.50704 0
M  V30 20321 H 1900.39 0.210402 2.54933 0
M  V30 20322 H 1900.03 0.143948 5.07696 0
M  V30 20323 H 1899.96 -1.63477 5.00583 0
M  V30 20324 H 1902.45 -0.782796 3.69704 0
M  V30 20325 H 1902.77 -0.983835 7.66512 0
M  V30 20326 H 1901.11 -0.891683 6.89256 0
M  V30 20327 H 1904.3 -0.887056 4.59618 0
M  V30 20328 H 1904.47 -0.978957 6.40563 0
M  V30 20329 N 1897.88 -1.50992 -0.451564 0
M  V30 20330 C 1899.13 -1.63197 -1.20394 0
M  V30 20331 C 1899.46 -0.340409 -1.91193 0
M  V30 20332 O 1898.73 0.65926 -1.82986 0
M  V30 20333 C 1899.02 -2.82567 -2.23221 0
M  V30 20334 C 1898.87 -4.2166 -1.56598 0
M  V30 20335 C 1900.19 -2.97468 -3.24347 0
M  V30 20336 H 1897.31 -0.59395 -0.43634 0
M  V30 20337 H 1899.95 -1.83437 -0.495056 0
M  V30 20338 H 1898.1 -2.65441 -2.83678 0
M  V30 20339 H 1899.77 -4.50422 -0.995877 0
M  V30 20340 H 1898.02 -4.25015 -0.86862 0
M  V30 20341 H 1898.69 -5.0115 -2.31415 0
M  V30 20342 H 1901.16 -3.13211 -2.73931 0
M  V30 20343 H 1900.04 -3.82581 -3.93603 0
M  V30 20344 H 1900.3 -2.08921 -3.89621 0
M  V30 20345 N 1899.36 0.706069 -1.40899 0
M  V30 20346 C 1900.31 1.82011 -1.41918 0
M  V30 20347 C 1901.28 1.6381 -0.274879 0
M  V30 20348 O 1902.46 1.84809 -0.474366 0
M  V30 20349 C 1899.6 3.19805 -1.29687 0
M  V30 20350 C 1898.71 3.49512 -2.53901 0
M  V30 20351 C 1897.85 4.76863 -2.34041 0
M  V30 20352 C 1896.89 4.99504 -3.53783 0
M  V30 20353 N 1896.02 6.18074 -3.33059 0
M  V30 20354 H 1900.86 1.80474 -2.37135 0
M  V30 20355 H 1898.4 0.881471 -1.17765 0
M  V30 20356 H 1900.36 3.99389 -1.206 0
M  V30 20357 H 1898.99 3.20546 -0.380837 0
M  V30 20358 H 1898.04 2.64411 -2.73479 0
M  V30 20359 H 1899.35 3.62147 -3.43002 0
M  V30 20360 H 1898.51 5.64482 -2.22361 0
M  V30 20361 H 1897.25 4.66454 -1.42379 0
M  V30 20362 H 1896.25 4.10336 -3.65929 0
M  V30 20363 H 1897.48 5.11779 -4.46385 0
M  V30 20364 H 1895.42 6.08898 -2.44088 0
M  V30 20365 H 1895.34 6.3143 -4.15731 0
M  V30 20366 H 1896.61 7.08456 -3.25131 0
M  V30 20367 N 1900.84 1.26553 0.939264 0
M  V30 20368 C 1902.07 1.14826 1.71752 0
M  V30 20369 C 1902.47 -0.298981 1.86823 0
M  V30 20370 O 1901.82 -1.21638 1.37659 0
M  V30 20371 C 1901.88 1.74655 3.14222 0
M  V30 20372 C 1901.54 3.23765 3.22529 0
M  V30 20373 C 1902.54 4.20557 3.0566 0
M  V30 20374 C 1900.23 3.64263 3.45858 0
M  V30 20375 C 1902.22 5.55825 3.1199 0
M  V30 20376 C 1899.91 4.99664 3.51823 0
M  V30 20377 C 1900.9 5.95254 3.34905 0
M  V30 20378 O 1900.59 7.28189 3.40583 0
M  V30 20379 H 1900.32 0.400613 0.544505 0
M  V30 20380 H 1902.88 1.67708 1.18589 0
M  V30 20381 H 1901.11 1.16238 3.68816 0
M  V30 20382 H 1902.8 1.57807 3.73967 0
M  V30 20383 H 1903.56 3.90608 2.8749 0
M  V30 20384 H 1899.44 2.90343 3.58081 0
M  V30 20385 H 1902.99 6.30414 2.98703 0
M  V30 20386 H 1898.88 5.29273 3.69514 0
M  V30 20387 H 1899.65 7.36486 3.57114 0
M  V30 20388 N 1902.31 -1.14411 1.08387 0
M  V30 20389 C 1903.54 -1.89307 0.834895 0
M  V30 20390 C 1903.96 -1.78574 -0.612923 0
M  V30 20391 O 1903.31 -1.14494 -1.42118 0
M  V30 20392 C 1903.37 -3.39289 1.24761 0
M  V30 20393 O 1903.09 -3.49725 2.63863 0
M  V30 20394 C 1904.59 -4.31181 1.02947 0
M  V30 20395 H 1901.81 -0.599644 0.301112 0
M  V30 20396 H 1904.35 -1.44897 1.44309 0
M  V30 20397 H 1902.51 -3.81322 0.683524 0
M  V30 20398 H 1902.92 -4.42884 2.80988 0
M  V30 20399 H 1904.39 -5.34789 1.36763 0
M  V30 20400 H 1904.87 -4.39187 -0.0335224 0
M  V30 20401 H 1905.48 -3.94903 1.57898 0
M  V30 20402 N 1903.79 -0.869509 -1.31443 0
M  V30 20403 C 1904.72 -0.340679 -2.31001 0
M  V30 20404 C 1905.7 0.568186 -1.6033 0
M  V30 20405 O 1906.89 0.485305 -1.88038 0
M  V30 20406 C 1904.02 0.45909 -3.44252 0
M  V30 20407 C 1902.97 -0.356639 -4.26512 0
M  V30 20408 C 1902.3 0.568786 -5.31666 0
M  V30 20409 C 1903.6 -1.59045 -4.97496 0
M  V30 20410 H 1905.29 -1.1726 -2.75482 0
M  V30 20411 H 1902.84 -0.5653 -1.3244 0
M  V30 20412 H 1904.79 0.839573 -4.12952 0
M  V30 20413 H 1903.52 1.32451 -2.98537 0
M  V30 20414 H 1902.17 -0.719063 -3.59479 0
M  V30 20415 H 1901.82 1.43148 -4.82201 0
M  V30 20416 H 1901.52 0.0268906 -5.87594 0
M  V30 20417 H 1903.05 0.946122 -6.03225 0
M  V30 20418 H 1904.46 -1.28144 -5.58795 0
M  V30 20419 H 1902.86 -2.07139 -5.63217 0
M  V30 20420 H 1903.93 -2.34354 -4.24507 0
M  V30 20421 N 1905.27 1.44508 -0.628902 0
M  V30 20422 C 1906.22 2.32427 0.0895754 0
M  V30 20423 C 1907.21 1.47217 0.838067 0
M  V30 20424 O 1908.42 1.63575 0.751218 0
M  V30 20425 H 1904.79 0.750483 0.0477349 0
M  V30 20426 H 1906.76 2.9078 -0.670054 0
M  V30 20427 C 1905.51 3.31177 1.0591 0
M  V30 20428 H 1904.84 3.96754 0.492578 0
M  V30 20429 H 1906.28 3.9538 1.53135 0
M  V30 20430 C 1904.74 2.59936 2.14325 0
M  V30 20431 O 1905.27 2.3966 3.22375 0
M  V30 20432 N 1903.47 2.19712 1.90197 0
M  V30 20433 H 1903.02 2.36402 1.02332 0
M  V30 20434 H 1902.98 1.72371 2.62936 0
M  V30 20435 N 1906.75 0.369315 1.53212 0
M  V30 20436 C 1907.7 -0.475399 2.25851 0
M  V30 20437 C 1908.67 -1.07444 1.26669 0
M  V30 20438 O 1909.85 -1.10623 1.55458 0
M  V30 20439 C 1906.99 -1.60725 3.05388 0
M  V30 20440 C 1906.1 -1.03302 4.19467 0
M  V30 20441 C 1905.24 -2.13427 4.86438 0
M  V30 20442 C 1904.28 -1.53489 5.92543 0
M  V30 20443 N 1903.42 -2.57463 6.5319 0
M  V30 20444 H 1908.26 0.150534 2.9762 0
M  V30 20445 H 1905.79 0.0860577 1.46848 0
M  V30 20446 H 1907.75 -2.274 3.49779 0
M  V30 20447 H 1906.38 -2.20378 2.35867 0
M  V30 20448 H 1905.43 -0.256437 3.79535 0
M  V30 20449 H 1906.74 -0.55483 4.95705 0
M  V30 20450 H 1905.9 -2.87915 5.34032 0
M  V30 20451 H 1904.64 -2.64599 4.09681 0
M  V30 20452 H 1903.64 -0.775176 5.44308 0
M  V30 20453 H 1904.87 -1.03137 6.71222 0
M  V30 20454 H 1902.81 -3.07841 5.79284 0
M  V30 20455 H 1902.73 -2.14342 7.24978 0
M  V30 20456 H 1904 -3.31642 7.05432 0
M  V30 20457 N 1908.23 -1.57291 0.0985816 0
M  V30 20458 C 1909.18 -2.1545 -0.876584 0
M  V30 20459 C 1910.17 -1.09827 -1.28974 0
M  V30 20460 O 1911.38 -1.28166 -1.26386 0
M  V30 20461 H 1907.75 -0.689252 -0.300725 0
M  V30 20462 H 1909.72 -2.96204 -0.36139 0
M  V30 20463 C 1908.47 -2.75232 -2.12468 0
M  V30 20464 H 1907.79 -3.56194 -1.81565 0
M  V30 20465 H 1909.23 -3.19489 -2.78752 0
M  V30 20466 C 1907.69 -1.71298 -2.90101 0
M  V30 20467 O 1908.22 -1.15402 -3.84767 0
M  V30 20468 N 1906.43 -1.41709 -2.53706 0
M  V30 20469 H 1905.98 -1.87354 -1.76794 0
M  V30 20470 H 1905.93 -0.724072 -3.05949 0
M  V30 20471 N 1909.71 0.175127 -1.56624 0
M  V30 20472 C 1910.93 0.912099 -1.86267 0
M  V30 20473 C 1911.36 1.75204 -0.684485 0
M  V30 20474 O 1910.71 1.77557 0.366501 0
M  V30 20475 C 1910.76 1.76776 -3.14297 0
M  V30 20476 O 1909.87 2.86894 -2.96253 0
M  V30 20477 H 1909.21 0.255728 -0.61278 0
M  V30 20478 H 1911.74 0.174416 -2.03855 0
M  V30 20479 H 1911.75 2.16845 -3.45604 0
M  V30 20480 H 1910.42 1.15077 -3.99663 0
M  V30 20481 H 1909 2.50435 -2.76291 0
M  V30 20482 N 1911.18 1.5123 0.44355 0
M  V30 20483 C 1912.11 1.75038 1.54544 0
M  V30 20484 C 1913.09 0.600017 1.59166 0
M  V30 20485 O 1914.28 0.842082 1.74993 0
M  V30 20486 C 1911.41 1.86976 2.92673 0
M  V30 20487 C 1910.36 3.0237 3.02913 0
M  V30 20488 C 1909.69 2.99483 4.4296 0
M  V30 20489 C 1910.99 4.4244 2.77569 0
M  V30 20490 H 1912.68 2.67301 1.34872 0
M  V30 20491 H 1910.23 1.28627 0.647395 0
M  V30 20492 H 1912.18 2.02215 3.69712 0
M  V30 20493 H 1910.91 0.913563 3.13563 0
M  V30 20494 H 1909.57 2.86826 2.28312 0
M  V30 20495 H 1909.21 2.01654 4.60809 0
M  V30 20496 H 1908.91 3.76968 4.50743 0
M  V30 20497 H 1910.44 3.16808 5.21982 0
M  V30 20498 H 1911.85 4.58367 3.44344 0
M  V30 20499 H 1910.25 5.21583 2.96768 0
M  V30 20500 H 1911.32 4.52906 1.73218 0
M  V30 20501 N 1912.66 -0.698586 1.41271 0
M  V30 20502 C 1913.61 -1.81256 1.42881 0
M  V30 20503 C 1914.58 -1.63662 0.283562 0
M  V30 20504 O 1915.76 -1.84555 0.48416 0
M  V30 20505 C 1912.9 -3.19113 1.31381 0
M  V30 20506 C 1912.02 -3.4816 2.55751 0
M  V30 20507 C 1911.15 -4.75615 2.36566 0
M  V30 20508 C 1910.19 -4.9762 3.56427 0
M  V30 20509 N 1909.33 -6.16299 3.36332 0
M  V30 20510 H 1914.17 -1.79214 2.38089 0
M  V30 20511 H 1911.7 -0.875213 1.1823 0
M  V30 20512 H 1913.66 -3.98744 1.22716 0
M  V30 20513 H 1912.29 -3.20339 0.397831 0
M  V30 20514 H 1911.34 -2.62957 2.74878 0
M  V30 20515 H 1912.66 -3.60323 3.44918 0
M  V30 20516 H 1911.81 -5.63295 2.25352 0
M  V30 20517 H 1910.55 -4.65693 1.44851 0
M  V30 20518 H 1909.55 -4.0839 3.681 0
M  V30 20519 H 1910.78 -5.09404 4.49093 0
M  V30 20520 H 1908.73 -6.07595 2.47314 0
M  V30 20521 H 1908.64 -6.29216 4.19074 0
M  V30 20522 H 1909.91 -7.06722 3.28884 0
M  V30 20523 N 1914.14 -1.27049 -0.93254 0
M  V30 20524 C 1915.39 -1.12488 -1.67419 0
M  V30 20525 C 1915.7 0.329736 -1.92801 0
M  V30 20526 O 1916.91 0.596164 -2.64874 0
M  V30 20527 C 1915.36 -1.96515 -3.01513 0
M  V30 20528 C 1914.97 -3.46604 -2.83847 0
M  V30 20529 C 1916.72 -1.90589 -3.7931 0
M  V30 20530 C 1914.62 -4.22847 -4.13466 0
M  V30 20531 H 1913.55 -0.417373 -0.627946 0
M  V30 20532 H 1916.2 -1.5143 -1.03639 0
M  V30 20533 H 1914.59 -1.50413 -3.66322 0
M  V30 20534 H 1915.76 -4.00535 -2.27835 0
M  V30 20535 H 1914.07 -3.53859 -2.19484 0
M  V30 20536 H 1916.67 -2.44831 -4.75355 0
M  V30 20537 H 1917.01 -0.87846 -4.06926 0
M  V30 20538 H 1917.55 -2.34559 -3.21289 0
M  V30 20539 H 1914.29 -5.26094 -3.91031 0
M  V30 20540 H 1913.81 -3.73695 -4.69161 0
M  V30 20541 H 1915.49 -4.31761 -4.81863 0
M  V30 20542 N 1915.62 1.13835 -1.08993 0
M  V30 20543 C 1916.53 2.22715 -0.73724 0
M  V30 20544 C 1917.54 1.72064 0.258869 0
M  V30 20545 O 1918.72 2.01145 0.101321 0
M  V30 20546 C 1915.78 3.46338 -0.158285 0
M  V30 20547 C 1914.85 4.11902 -1.20977 0
M  V30 20548 C 1914.08 5.29624 -0.658349 0
M  V30 20549 O 1914.3 5.68023 0.520219 0
M  V30 20550 O 1913.24 5.85121 -1.41126 0
M  V30 20551 H 1917.06 2.55247 -1.64568 0
M  V30 20552 H 1914.65 1.21882 -0.864013 0
M  V30 20553 H 1916.53 4.2109 0.161481 0
M  V30 20554 H 1915.2 3.15517 0.723235 0
M  V30 20555 H 1914.11 3.38996 -1.58216 0
M  V30 20556 H 1915.44 4.46843 -2.06378 0
M  V30 20557 N 1917.1 0.876467 1.3098 0
M  V30 20558 C 1918.34 0.486745 1.95739 0
M  V30 20559 C 1918.66 -0.967265 1.7001 0
M  V30 20560 O 1919.86 -1.46344 2.28683 0
M  V30 20561 C 1918.32 0.819534 3.50445 0
M  V30 20562 C 1917.93 2.29074 3.85005 0
M  V30 20563 C 1919.67 0.498597 4.21562 0
M  V30 20564 C 1917.58 2.5656 5.32851 0
M  V30 20565 H 1916.51 0.178295 0.732616 0
M  V30 20566 H 1919.16 1.07027 1.49055 0
M  V30 20567 H 1917.54 0.165191 3.95655 0
M  V30 20568 H 1918.72 2.98869 3.50733 0
M  V30 20569 H 1917.03 2.57836 3.2697 0
M  V30 20570 H 1919.63 0.6811 5.30344 0
M  V30 20571 H 1919.97 -0.561426 4.12497 0
M  V30 20572 H 1920.5 1.10976 3.82007 0
M  V30 20573 H 1917.24 3.61271 5.46959 0
M  V30 20574 H 1916.76 1.91366 5.68453 0
M  V30 20575 H 1918.44 2.41623 6.00189 0
M  V30 20576 N 1918.57 -1.44173 0.636557 0
M  V30 20577 C 1919.98 -1.8534 0.224954 0
M  V30 20578 C 1920.34 -1.53271 -1.22485 0
M  V30 20579 O 1919.46 -0.973441 -1.93269 0
M  V30 20580 C 1920.06 -3.36413 0.401492 0
M  V30 20581 C 1918.61 -3.76374 0.0443511 0
M  V30 20582 C 1917.76 -2.67995 0.712303 0
M  V30 20583 H 1920.71 -1.34562 0.841356 0
M  V30 20584 H 1920.73 -3.78812 -0.357965 0
M  V30 20585 H 1920.25 -3.59722 1.45677 0
M  V30 20586 H 1918.35 -3.58679 -1.00897 0
M  V30 20587 H 1918.46 -4.76904 0.458196 0
M  V30 20588 H 1916.82 -2.54275 0.147092 0
M  V30 20589 H 1917.61 -2.94136 1.77028 0
M  V30 20590 N 1920.05 -0.377435 -1.53014 0
M  V30 20591 C 1920.98 0.455103 -2.29022 0
M  V30 20592 C 1921.96 1.07375 -1.31926 0
M  V30 20593 O 1923.15 1.08877 -1.60809 0
M  V30 20594 C 1920.28 1.58883 -3.08826 0
M  V30 20595 C 1919.23 1.09683 -4.13707 0
M  V30 20596 C 1918.56 2.32172 -4.81664 0
M  V30 20597 C 1919.86 0.173165 -5.22013 0
M  V30 20598 H 1921.55 -0.179053 -2.98864 0
M  V30 20599 H 1919.1 -0.0875549 -1.43734 0
M  V30 20600 H 1921.05 2.17798 -3.60752 0
M  V30 20601 H 1919.77 2.2504 -2.36695 0
M  V30 20602 H 1918.43 0.530291 -3.62744 0
M  V30 20603 H 1918.08 2.96811 -4.06094 0
M  V30 20604 H 1917.78 1.99919 -5.52545 0
M  V30 20605 H 1919.31 2.91751 -5.3639 0
M  V30 20606 H 1920.72 0.670145 -5.6937 0
M  V30 20607 H 1919.12 -0.0590463 -6.00071 0
M  V30 20608 H 1920.19 -0.781339 -4.78564 0
M  V30 20609 N 1921.53 1.57237 -0.106922 0
M  V30 20610 C 1922.94 1.81906 0.420368 0
M  V30 20611 C 1923.29 1.02332 1.67399 0
M  V30 20612 O 1922.42 0.256247 2.14877 0
M  V30 20613 C 1923.01 3.29947 0.769432 0
M  V30 20614 C 1921.57 3.55339 1.24141 0
M  V30 20615 C 1920.72 2.76224 0.243997 0
M  V30 20616 H 1923.67 1.55184 -0.332216 0
M  V30 20617 H 1923.69 3.43916 1.62794 0
M  V30 20618 H 1923.2 3.87836 -0.14316 0
M  V30 20619 H 1921.3 3.02795 2.17131 0
M  V30 20620 H 1921.42 4.63956 1.19508 0
M  V30 20621 H 1919.78 2.44057 0.728574 0
M  V30 20622 H 1920.56 3.36867 -0.661482 0
M  V30 20623 N 1923.01 -0.166818 1.56715 0
M  V30 20624 C 1924.26 -0.882715 1.82248 0
M  V30 20625 C 1924.58 -1.82049 0.684716 0
M  V30 20626 O 1923.84 -1.92937 -0.327717 0
M  V30 20627 C 1924.14 -1.70734 3.13982 0
M  V30 20628 C 1923.8 -0.918095 4.41454 0
M  V30 20629 C 1922.47 -0.700286 4.76077 0
M  V30 20630 C 1924.82 -0.364791 5.19922 0
M  V30 20631 C 1922.15 0.081855 5.86643 0
M  V30 20632 C 1924.5 0.404286 6.31307 0
M  V30 20633 C 1923.16 0.632854 6.64493 0
M  V30 20634 H 1922.43 -0.323008 0.666893 0
M  V30 20635 H 1925.08 -0.147401 1.90932 0
M  V30 20636 H 1923.38 -2.51218 3.0066 0
M  V30 20637 H 1925.08 -2.26437 3.30949 0
M  V30 20638 H 1921.67 -1.0979 4.14299 0
M  V30 20639 H 1925.85 -0.520394 4.93564 0
M  V30 20640 H 1921.11 0.268637 6.1081 0
M  V30 20641 H 1925.28 0.840259 6.91312 0
M  V30 20642 H 1922.91 1.24079 7.50006 0
M  V30 20643 N 1924.49 -1.51463 -0.435524 0
M  V30 20644 C 1925.73 -1.63897 -1.18247 0
M  V30 20645 C 1926.06 -0.358322 -1.9168 0
M  V30 20646 O 1925.33 0.625888 -1.85633 0
M  V30 20647 H 1923.91 -0.60404 -0.439482 0
M  V30 20648 H 1926.57 -1.884 -0.49915 0
M  V30 20649 H 1925.66 -2.46749 -1.91105 0
M  V30 20650 N 1925.96 0.691085 -1.4164 0
M  V30 20651 C 1927.21 1.44828 -1.40959 0
M  V30 20652 C 1927.53 1.94988 -0.0211789 0
M  V30 20653 O 1926.8 1.71999 0.937714 0
M  V30 20654 H 1925.38 0.53739 -0.518865 0
M  V30 20655 H 1928.05 0.817677 -1.76918 0
M  V30 20656 H 1927.14 2.30926 -2.09952 0
M  V30 20657 N 1927.44 1.27542 0.925789 0
M  V30 20658 C 1928.39 1.10432 2.02666 0
M  V30 20659 C 1929.36 0.004846 1.66099 0
M  V30 20660 O 1930.54 0.167531 1.90063 0
M  V30 20661 C 1927.68 0.759567 3.36637 0
M  V30 20662 C 1926.8 1.93687 3.86147 0
M  V30 20663 C 1925.93 1.53382 5.08574 0
M  V30 20664 C 1924.97 2.67849 5.50385 0
M  V30 20665 N 1924.11 2.2812 6.64007 0
M  V30 20666 H 1928.95 2.04632 2.16633 0
M  V30 20667 H 1926.49 1.01863 1.06124 0
M  V30 20668 H 1928.44 0.540492 4.13684 0
M  V30 20669 H 1927.07 -0.145477 3.22472 0
M  V30 20670 H 1926.13 2.26843 3.05363 0
M  V30 20671 H 1927.44 2.79548 4.13104 0
M  V30 20672 H 1926.59 1.2761 5.93128 0
M  V30 20673 H 1925.33 0.646332 4.83398 0
M  V30 20674 H 1924.34 2.94333 4.64379 0
M  V30 20675 H 1925.56 3.57222 5.77554 0
M  V30 20676 H 1923.51 1.41825 6.40485 0
M  V30 20677 H 1923.42 3.07519 6.90629 0
M  V30 20678 H 1924.69 2.056 7.51897 0
M  V30 20679 N 1928.92 -1.13255 1.09595 0
M  V30 20680 C 1930.15 -1.88952 0.855104 0
M  V30 20681 C 1930.57 -1.78668 -0.588174 0
M  V30 20682 O 1929.93 -1.13544 -1.41341 0
M  V30 20683 C 1929.98 -3.36461 1.29717 0
M  V30 20684 O 1929.08 -4.09863 0.456717 0
M  V30 20685 H 1928.42 -0.587432 0.309547 0
M  V30 20686 H 1930.95 -1.43282 1.46053 0
M  V30 20687 H 1930.96 -3.87291 1.28333 0
M  V30 20688 H 1929.64 -3.43263 2.34826 0
M  V30 20689 H 1928.21 -3.69042 0.535026 0
M  V30 20690 N 1930.4 -0.883401 -1.30514 0
M  V30 20691 C 1931.62 -0.515186 -2.00899 0
M  V30 20692 C 1932.05 0.888515 -1.65792 0
M  V30 20693 O 1931.41 1.58859 -0.873692 0
M  V30 20694 C 1931.45 -0.695291 -3.53833 0
M  V30 20695 O 1930.56 0.259516 -4.11583 0
M  V30 20696 H 1929.9 -0.20321 -0.63214 0
M  V30 20697 H 1932.43 -1.19051 -1.66397 0
M  V30 20698 H 1932.44 -0.593688 -4.03657 0
M  V30 20699 H 1931.11 -1.71874 -3.78724 0
M  V30 20700 H 1929.69 0.111741 -3.72733 0
M  V30 20701 N 1931.88 1.43833 -0.644194 0
M  V30 20702 C 1933.29 1.56542 -0.310952 0
M  V30 20703 C 1933.49 1.62946 1.18536 0
M  V30 20704 O 1932.55 1.57961 1.96989 0
M  V30 20705 C 1933.86 2.83074 -1.01437 0
M  V30 20706 C 1935.41 2.96805 -0.993759 0
M  V30 20707 C 1935.88 4.26158 -1.6779 0
M  V30 20708 N 1937.38 4.33002 -1.64511 0
M  V30 20709 C 1938.11 5.31837 -2.14328 0
M  V30 20710 N 1937.61 6.37003 -2.72394 0
M  V30 20711 N 1939.4 5.23431 -2.04881 0
M  V30 20712 H 1931.55 1.37919 -1.61531 0
M  V30 20713 H 1933.81 0.661778 -0.678789 0
M  V30 20714 H 1933.52 2.84372 -2.06943 0
M  V30 20715 H 1933.39 3.73016 -0.560273 0
M  V30 20716 H 1935.78 2.95053 0.0528599 0
M  V30 20717 H 1935.86 2.08177 -1.48647 0
M  V30 20718 H 1935.51 4.28671 -2.72404 0
M  V30 20719 H 1935.44 5.13667 -1.15992 0
M  V30 20720 H 1937.93 3.57621 -1.22129 0
M  V30 20721 H 1938.24 7.08724 -3.08107 0
M  V30 20722 H 1936.58 6.37652 -2.76451 0
M  V30 20723 H 1939.78 4.40186 -1.59229 0
M  V30 20724 H 1939.95 6.00301 -2.44015 0
M  V30 20725 N 1933.35 0.385544 1.52811 0
M  V30 20726 C 1934.63 -0.255227 1.93928 0
M  V30 20727 C 1935.01 -1.64683 1.32071 0
M  V30 20728 O 1934.36 -2.23242 0.487363 0
M  V30 20729 C 1934.57 -0.285363 3.47831 0
M  V30 20730 C 1935.92 -0.516126 4.21451 0
M  V30 20731 O 1936.94 -0.365732 3.54317 0
M  V30 20732 O 1935.8 -0.810503 5.40456 0
M  V30 20733 H 1932.89 -0.157694 0.811826 0
M  V30 20734 H 1935.44 0.439779 1.63903 0
M  V30 20735 H 1934.21 0.68954 3.85177 0
M  V30 20736 H 1933.84 -1.02545 3.84149 0
M  V30 20737 N 1934.83 -1.57178 0.115259 0
M  V30 20738 C 1935.76 -2.18134 -0.833042 0
M  V30 20739 C 1936.74 -1.12033 -1.27995 0
M  V30 20740 O 1937.93 -1.40254 -1.34323 0
M  V30 20741 C 1935.06 -2.77778 -2.08463 0
M  V30 20742 C 1934.01 -3.89429 -1.77565 0
M  V30 20743 C 1933.34 -4.35863 -3.09722 0
M  V30 20744 C 1934.64 -5.11701 -1.04687 0
M  V30 20745 H 1936.33 -2.9763 -0.325107 0
M  V30 20746 H 1933.88 -1.43164 -0.154933 0
M  V30 20747 H 1935.83 -3.19079 -2.75258 0
M  V30 20748 H 1934.56 -1.95566 -2.61575 0
M  V30 20749 H 1933.21 -3.48698 -1.13161 0
M  V30 20750 H 1932.86 -3.50515 -3.6076 0
M  V30 20751 H 1932.56 -5.11152 -2.89823 0
M  V30 20752 H 1934.09 -4.79812 -3.77641 0
M  V30 20753 H 1935.5 -5.50045 -1.61628 0
M  V30 20754 H 1933.9 -5.92549 -0.948964 0
M  V30 20755 H 1934.97 -4.84889 -0.032977 0
M  V30 20756 N 1936.31 0.158505 -1.56801 0
M  V30 20757 C 1937.26 1.196 -1.97394 0
M  V30 20758 C 1938.23 1.43308 -0.839765 0
M  V30 20759 O 1939.41 1.55835 -1.10092 0
M  V30 20760 C 1936.55 2.52729 -2.34994 0
M  V30 20761 C 1935.67 2.36292 -3.61649 0
M  V30 20762 C 1934.8 3.62376 -3.88403 0
M  V30 20763 C 1933.84 3.40927 -5.08365 0
M  V30 20764 N 1932.98 4.59112 -5.31188 0
M  V30 20765 H 1937.82 0.842837 -2.85833 0
M  V30 20766 H 1935.35 0.404744 -1.41422 0
M  V30 20767 H 1937.31 3.30337 -2.5482 0
M  V30 20768 H 1935.94 2.86016 -1.49649 0
M  V30 20769 H 1934.99 1.49795 -3.49665 0
M  V30 20770 H 1936.31 2.16397 -4.49415 0
M  V30 20771 H 1935.46 4.48417 -4.08665 0
M  V30 20772 H 1934.2 3.85264 -2.99037 0
M  V30 20773 H 1933.2 2.53274 -4.87988 0
M  V30 20774 H 1934.43 3.19449 -5.99274 0
M  V30 20775 H 1932.38 4.82195 -4.44774 0
M  V30 20776 H 1932.29 4.42177 -6.13201 0
M  V30 20777 H 1933.56 5.46399 -5.55939 0
M  V30 20778 N 1937.79 1.51692 0.427485 0
M  V30 20779 C 1938.72 1.68413 1.53988 0
M  V30 20780 C 1939.7 0.531673 1.53662 0
M  V30 20781 O 1940.88 0.756748 1.72643 0
M  V30 20782 C 1938.01 1.70671 2.92556 0
M  V30 20783 C 1937.06 2.91998 3.10868 0
M  V30 20784 S 1937.89 4.52653 2.86122 0
M  V30 20785 C 1939.05 4.5767 4.26953 0
M  V30 20786 H 1939.28 2.62501 1.39573 0
M  V30 20787 H 1936.81 1.41499 0.617842 0
M  V30 20788 H 1938.77 1.72657 3.72424 0
M  V30 20789 H 1937.43 0.777425 3.04327 0
M  V30 20790 H 1936.62 2.90008 4.12203 0
M  V30 20791 H 1936.23 2.87805 2.38839 0
M  V30 20792 H 1938.52 4.33917 5.20309 0
M  V30 20793 H 1939.46 5.59529 4.33974 0
M  V30 20794 H 1939.87 3.8689 4.11067 0
M  V30 20795 N 1939.27 -0.683564 1.42004 0
M  V30 20796 C 1940.2 -1.8095 1.47578 0
M  V30 20797 C 1941.18 -1.66804 0.333208 0
M  V30 20798 O 1942.36 -1.86357 0.546314 0
M  V30 20799 C 1939.49 -3.19182 1.36895 0
M  V30 20800 C 1938.45 -3.4805 2.49089 0
M  V30 20801 C 1937.77 -4.85764 2.23467 0
M  V30 20802 C 1939.07 -3.4582 3.91415 0
M  V30 20803 H 1940.77 -1.76543 2.41812 0
M  V30 20804 H 1938.31 -0.84794 1.16387 0
M  V30 20805 H 1940.27 -3.97674 1.39404 0
M  V30 20806 H 1938.99 -3.24245 0.391513 0
M  V30 20807 H 1937.65 -2.71915 2.45882 0
M  V30 20808 H 1937.3 -4.87467 1.24037 0
M  V30 20809 H 1937 -5.06043 2.98654 0
M  V30 20810 H 1938.52 -5.66551 2.27711 0
M  V30 20811 H 1939.94 -4.14297 3.96272 0
M  V30 20812 H 1938.33 -3.77633 4.66383 0
M  V30 20813 H 1939.4 -2.4456 4.1871 0
M  V30 20814 N 1940.75 -1.28031 -0.919012 0
M  V30 20815 C 1941.66 -1.13341 -2.05404 0
M  V30 20816 C 1942.67 -0.0612715 -1.73892 0
M  V30 20817 O 1943.85 -0.26951 -1.99589 0
M  V30 20818 C 1940.91 -0.791143 -3.37553 0
M  V30 20819 C 1939.97 -1.94509 -3.82707 0
M  V30 20820 C 1939.21 -1.61905 -5.08549 0
M  V30 20821 O 1939.43 -0.530962 -5.67923 0
M  V30 20822 O 1938.36 -2.46102 -5.49288 0
M  V30 20823 H 1942.19 -2.08613 -2.20713 0
M  V30 20824 H 1939.77 -1.073 -1.03957 0
M  V30 20825 H 1941.66 -0.613981 -4.16903 0
M  V30 20826 H 1940.33 0.131966 -3.23431 0
M  V30 20827 H 1939.24 -2.17737 -3.04206 0
M  V30 20828 H 1940.57 -2.84871 -4.01384 0
M  V30 20829 N 1942.22 1.12672 -1.10194 0
M  V30 20830 C 1943.45 1.87955 -0.864907 0
M  V30 20831 C 1943.87 1.79527 0.584436 0
M  V30 20832 O 1943.22 1.1674 1.40278 0
M  V30 20833 C 1943.27 3.37261 -1.30143 0
M  V30 20834 O 1943 3.45483 -2.69394 0
M  V30 20835 C 1944.5 4.29488 -1.09793 0
M  V30 20836 H 1941.72 0.594777 -0.310614 0
M  V30 20837 H 1944.26 1.42583 -1.46596 0
M  V30 20838 H 1942.42 3.80187 -0.744103 0
M  V30 20839 H 1942.83 4.38357 -2.87999 0
M  V30 20840 H 1944.3 5.32546 -1.45254 0
M  V30 20841 H 1944.78 4.39185 -0.0363527 0
M  V30 20842 H 1945.39 3.92341 -1.6416 0
M  V30 20843 N 1943.7 0.89031 1.30043 0
M  V30 20844 C 1944.95 0.512208 1.96225 0
M  V30 20845 C 1945.28 -0.937287 1.70084 0
M  V30 20846 O 1944.56 -1.66309 1.00854 0
M  V30 20847 C 1944.84 0.794043 3.51236 0
M  V30 20848 C 1944.69 2.29456 3.86872 0
M  V30 20849 C 1946.01 0.274152 4.39245 0
M  V30 20850 H 1943.13 0.187568 0.712732 0
M  V30 20851 H 1945.77 1.11528 1.53823 0
M  V30 20852 H 1943.92 0.28077 3.87484 0
M  V30 20853 H 1945.59 2.87665 3.6062 0
M  V30 20854 H 1943.84 2.75907 3.34751 0
M  V30 20855 H 1944.51 2.44235 4.95029 0
M  V30 20856 H 1946.98 0.713535 4.09936 0
M  V30 20857 H 1945.86 0.500633 5.46612 0
M  V30 20858 H 1946.12 -0.824812 4.34338 0
M  V30 20859 N 1945.18 -1.43489 0.651812 0
M  V30 20860 C 1946.6 -1.56374 0.31925 0
M  V30 20861 C 1946.8 -1.63573 -1.1767 0
M  V30 20862 O 1945.85 -1.59003 -1.96149 0
M  V30 20863 C 1947.16 -2.82532 1.02937 0
M  V30 20864 C 1948.71 -2.96274 1.00949 0
M  V30 20865 C 1949.19 -4.25262 1.70047 0
M  V30 20866 N 1950.68 -4.32123 1.66805 0
M  V30 20867 C 1951.41 -5.30693 2.17146 0
M  V30 20868 N 1950.91 -6.3555 2.75769 0
M  V30 20869 N 1952.7 -5.22337 2.07654 0
M  V30 20870 H 1944.85 -1.3706 1.6226 0
M  V30 20871 H 1947.12 -0.658169 0.682289 0
M  V30 20872 H 1946.82 -2.83271 2.08448 0
M  V30 20873 H 1946.7 -3.72713 0.580047 0
M  V30 20874 H 1949.08 -2.95077 -0.0372118 0
M  V30 20875 H 1949.16 -2.07386 1.49749 0
M  V30 20876 H 1948.81 -4.2722 2.74673 0
M  V30 20877 H 1948.74 -5.13044 1.18714 0
M  V30 20878 H 1951.23 -3.56968 1.24024 0
M  V30 20879 H 1951.54 -7.0708 3.11861 0
M  V30 20880 H 1949.89 -6.36177 2.79829 0
M  V30 20881 H 1953.08 -4.39336 1.61561 0
M  V30 20882 H 1953.25 -5.98998 2.47195 0
M  V30 20883 N 1946.66 -0.393643 -1.52605 0
M  V30 20884 C 1947.89 0.1871 -2.06052 0
M  V30 20885 C 1948.3 1.40154 -1.26501 0
M  V30 20886 O 1947.66 1.798 -0.31279 0
M  V30 20887 C 1947.71 0.552918 -3.57246 0
M  V30 20888 O 1947.43 -0.613274 -4.33786 0
M  V30 20889 C 1948.93 1.18906 -4.27055 0
M  V30 20890 H 1946.15 0.0272042 -0.670448 0
M  V30 20891 H 1948.69 -0.560126 -1.9668 0
M  V30 20892 H 1946.85 1.25004 -3.66678 0
M  V30 20893 H 1947.26 -0.311611 -5.23574 0
M  V30 20894 H 1948.74 1.39535 -5.34073 0
M  V30 20895 H 1949.21 2.15768 -3.82545 0
M  V30 20896 H 1949.82 0.532579 -4.21952 0
M  V30 20897 N 1948.14 1.57115 -0.123593 0
M  V30 20898 C 1949.55 1.82342 0.401051 0
M  V30 20899 C 1949.9 1.04102 1.66304 0
M  V30 20900 O 1949.02 0.279024 2.14594 0
M  V30 20901 C 1949.62 3.30745 0.734394 0
M  V30 20902 C 1948.18 3.56636 1.20365 0
M  V30 20903 C 1947.32 2.76468 0.214686 0
M  V30 20904 H 1950.27 1.54823 -0.348657 0
M  V30 20905 H 1950.3 3.45624 1.59137 0
M  V30 20906 H 1949.81 3.87662 -0.184288 0
M  V30 20907 H 1947.91 3.05081 2.13908 0
M  V30 20908 H 1948.02 4.65197 1.1458 0
M  V30 20909 H 1946.39 2.44816 0.702648 0
M  V30 20910 H 1947.17 3.36146 -0.697174 0
M  V30 20911 N 1949.61 -0.150187 1.56883 0
M  V30 20912 C 1950.58 -1.16943 1.97122 0
M  V30 20913 C 1951.58 -1.36037 0.857354 0
M  V30 20914 O 1952.77 -1.33083 1.12403 0
M  V30 20915 C 1949.9 -2.53037 2.2844 0
M  V30 20916 H 1951.09 -0.824297 2.88349 0
M  V30 20917 H 1948.64 -0.393414 1.51268 0
M  V30 20918 H 1949.38 -2.92527 1.39994 0
M  V30 20919 H 1949.16 -2.4054 3.0965 0
M  V30 20920 H 1950.65 -3.26452 2.6042 0
M  V30 20921 N 1951.09 -1.51916 -0.419434 0
M  V30 20922 C 1952.02 -1.77475 -1.5174 0
M  V30 20923 C 1953 -0.625263 -1.58191 0
M  V30 20924 O 1954.19 -0.869815 -1.73631 0
M  V30 20925 C 1951.32 -1.91608 -2.89661 0
M  V30 20926 C 1950.27 -3.07151 -2.98064 0
M  V30 20927 C 1949.6 -3.06493 -4.3814 0
M  V30 20928 C 1950.9 -4.46799 -2.70495 0
M  V30 20929 H 1952.59 -2.69413 -1.30602 0
M  V30 20930 H 1950.14 -1.2964 -0.626849 0
M  V30 20931 H 1952.09 -2.08072 -3.66448 0
M  V30 20932 H 1950.82 -0.963332 -3.1207 0
M  V30 20933 H 1949.47 -2.90422 -2.2372 0
M  V30 20934 H 1949.12 -2.08959 -4.57542 0
M  V30 20935 H 1948.82 -3.84091 -4.44689 0
M  V30 20936 H 1950.35 -3.25072 -5.16876 0
M  V30 20937 H 1951.76 -4.63787 -3.37008 0
M  V30 20938 H 1950.16 -5.26238 -2.88432 0
M  V30 20939 H 1951.23 -4.55604 -1.65991 0
M  V30 20940 N 1952.57 0.676023 -1.42365 0
M  V30 20941 C 1953.52 1.78219 -1.42204 0
M  V30 20942 C 1954.5 1.582 -0.293546 0
M  V30 20943 O 1955.7 1.68699 -0.535684 0
M  V30 20944 C 1952.83 3.1667 -1.3257 0
M  V30 20945 C 1951.91 3.42317 -2.50359 0
M  V30 20946 N 1952.3 3.38555 -3.75784 0
M  V30 20947 C 1950.6 3.72948 -2.44593 0
M  V30 20948 C 1951.3 3.63652 -4.54018 0
M  V30 20949 N 1950.28 3.84357 -3.8441 0
M  V30 20950 H 1954.08 1.73702 -2.37075 0
M  V30 20951 H 1951.59 0.876812 -1.36696 0
M  V30 20952 H 1953.59 3.95937 -1.30536 0
M  V30 20953 H 1952.25 3.22386 -0.38699 0
M  V30 20954 H 1953.26 3.18485 -4.08396 0
M  V30 20955 H 1949.94 3.85916 -1.59295 0
M  V30 20956 H 1951.33 3.66715 -5.63001 0
M  V30 20957 N 1954.05 1.28517 0.912209 0
M  V30 20958 C 1955.3 1.15761 1.6615 0
M  V30 20959 C 1955.62 -0.293495 1.92273 0
M  V30 20960 O 1954.88 -1.22975 1.52235 0
M  V30 20961 C 1955.18 1.90307 3.02519 0
M  V30 20962 C 1954.84 3.40095 2.96051 0
M  V30 20963 C 1953.51 3.80948 2.93994 0
M  V30 20964 C 1955.86 4.35601 2.86185 0
M  V30 20965 C 1953.19 5.15643 2.79873 0
M  V30 20966 C 1955.54 5.70371 2.73604 0
M  V30 20967 C 1954.2 6.10497 2.69906 0
M  V30 20968 H 1953.47 0.423598 0.607985 0
M  V30 20969 H 1956.12 1.59309 1.06268 0
M  V30 20970 H 1954.42 1.39312 3.66196 0
M  V30 20971 H 1956.12 1.77852 3.59402 0
M  V30 20972 H 1952.71 3.07615 2.98447 0
M  V30 20973 H 1956.89 4.05 2.8686 0
M  V30 20974 H 1952.15 5.45858 2.75407 0
M  V30 20975 H 1956.32 6.44035 2.64939 0
M  V30 20976 H 1953.95 7.1482 2.58722 0
M  V30 20977 N 1955.53 -1.12086 1.1079 0
M  V30 20978 C 1956.47 -2.17926 0.760064 0
M  V30 20979 C 1957.44 -1.63967 -0.265316 0
M  V30 20980 O 1958.63 -1.90258 -0.143764 0
M  V30 20981 C 1955.77 -3.44508 0.202045 0
M  V30 20982 C 1954.88 -4.12503 1.28317 0
M  V30 20983 C 1954.02 -5.26747 0.686406 0
M  V30 20984 C 1953.06 -5.86614 1.74785 0
M  V30 20985 N 1952.19 -6.92264 1.17108 0
M  V30 20986 H 1957.03 -2.47025 1.66681 0
M  V30 20987 H 1954.57 -1.21275 0.832507 0
M  V30 20988 H 1956.53 -4.16967 -0.139401 0
M  V30 20989 H 1955.16 -3.15814 -0.667918 0
M  V30 20990 H 1954.21 -3.38186 1.74168 0
M  V30 20991 H 1955.52 -4.53063 2.08651 0
M  V30 20992 H 1954.68 -6.05984 0.294621 0
M  V30 20993 H 1953.41 -4.87474 -0.148334 0
M  V30 20994 H 1952.42 -5.0606 2.14902 0
M  V30 20995 H 1953.64 -6.27956 2.5855 0
M  V30 20996 H 1951.59 -6.55023 0.35787 0
M  V30 20997 H 1951.51 -7.31443 1.91122 0
M  V30 20998 H 1952.78 -7.75322 0.805966 0
M  V30 20999 N 1957 -0.897194 -1.29569 0
M  V30 21000 C 1958.23 -0.536465 -2.00342 0
M  V30 21001 C 1958.65 0.87088 -1.66725 0
M  V30 21002 O 1958.01 1.57924 -0.890492 0
M  V30 21003 C 1958.06 -0.732781 -3.53076 0
M  V30 21004 O 1957.16 0.215848 -4.11835 0
M  V30 21005 H 1956.51 -0.209904 -0.62995 0
M  V30 21006 H 1959.04 -1.20809 -1.65125 0
M  V30 21007 H 1959.05 -0.636468 -4.03005 0
M  V30 21008 H 1957.72 -1.75882 -3.7688 0
M  V30 21009 H 1956.3 0.0722012 -3.7283 0
M  V30 21010 N 1958.48 1.43142 -0.659413 0
M  V30 21011 C 1959.73 2.02038 -0.175593 0
M  V30 21012 C 1960.06 1.5194 1.20946 0
M  V30 21013 O 1959.34 0.715095 1.80877 0
M  V30 21014 C 1959.62 3.59581 -0.193256 0
M  V30 21015 C 1959.47 4.19896 -1.61267 0
M  V30 21016 C 1960.79 4.37616 0.466976 0
M  V30 21017 H 1957.91 0.734103 -0.0652811 0
M  V30 21018 H 1960.55 1.7036 -0.841276 0
M  V30 21019 H 1958.7 3.867 0.373574 0
M  V30 21020 H 1960.37 4.03786 -2.23056 0
M  V30 21021 H 1958.62 3.7631 -2.15807 0
M  V30 21022 H 1959.29 5.28999 -1.57683 0
M  V30 21023 H 1961.76 4.16097 -0.0153667 0
M  V30 21024 H 1960.64 5.47261 0.423915 0
M  V30 21025 H 1960.9 4.14332 1.54211 0
M  V30 21026 N 1959.96 0.40173 1.52394 0
M  V30 21027 C 1961.21 -0.17611 2.01331 0
M  V30 21028 C 1961.53 -1.46274 1.28953 0
M  V30 21029 O 1960.8 -1.91492 0.413249 0
M  V30 21030 H 1959.38 -0.0680697 0.743892 0
M  V30 21031 H 1962.04 0.536274 1.87377 0
M  V30 21032 H 1961.14 -0.377497 3.09809 0
M  V30 21033 N 1961.44 -1.57047 0.131923 0
M  V30 21034 C 1962.69 -1.95632 -0.522925 0
M  V30 21035 C 1963.01 -1.01597 -1.65856 0
M  V30 21036 O 1962.27 -0.0422719 -1.95654 0
M  V30 21037 C 1962.57 -3.4056 -1.08413 0
M  V30 21038 C 1962.23 -4.50848 -0.0685085 0
M  V30 21039 C 1960.9 -4.80738 0.210726 0
M  V30 21040 C 1963.25 -5.17464 0.622935 0
M  V30 21041 C 1960.58 -5.74557 1.18747 0
M  V30 21042 C 1962.93 -6.12334 1.58839 0
M  V30 21043 C 1961.59 -6.40611 1.87548 0
M  V30 21044 H 1960.86 -0.715867 -0.191352 0
M  V30 21045 H 1963.51 -1.90283 0.215565 0
M  V30 21046 H 1961.81 -3.42667 -1.89965 0
M  V30 21047 H 1963.51 -3.67734 -1.59914 0
M  V30 21048 H 1960.1 -4.27574 -0.29633 0
M  V30 21049 H 1964.28 -4.94516 0.420386 0
M  V30 21050 H 1959.54 -5.94765 1.4165 0
M  V30 21051 H 1963.71 -6.63034 2.12977 0
M  V30 21052 H 1961.34 -7.13114 2.63387 0
M  V30 21053 N 1962.92 0.141865 -1.5696 0
M  V30 21054 C 1963.87 1.18031 -1.95071 0
M  V30 21055 C 1964.85 1.38281 -0.822629 0
M  V30 21056 O 1966.04 1.39757 -1.08614 0
M  V30 21057 C 1963.17 2.51269 -2.33921 0
M  V30 21058 C 1962.26 2.3459 -3.53311 0
M  V30 21059 N 1962.65 1.87676 -4.69693 0
M  V30 21060 C 1960.95 2.65324 -3.58496 0
M  V30 21061 C 1961.65 1.84163 -5.51778 0
M  V30 21062 N 1960.62 2.27667 -4.93628 0
M  V30 21063 H 1964.43 0.809774 -2.82524 0
M  V30 21064 H 1961.94 0.349868 -1.58587 0
M  V30 21065 H 1963.94 3.26345 -2.59431 0
M  V30 21066 H 1962.6 2.891 -1.47821 0
M  V30 21067 H 1963.61 1.57565 -4.9335 0
M  V30 21068 H 1960.28 3.06996 -2.82948 0
M  V30 21069 H 1961.67 1.49341 -6.55093 0
M  V30 21070 N 1964.39 1.52136 0.411372 0
M  V30 21071 C 1965.32 1.78277 1.50796 0
M  V30 21072 C 1966.31 0.633643 1.57857 0
M  V30 21073 O 1967.49 0.879011 1.73168 0
M  V30 21074 C 1964.62 1.93142 2.88641 0
M  V30 21075 C 1963.57 3.08727 2.96431 0
M  V30 21076 C 1962.9 3.08812 4.36508 0
M  V30 21077 C 1964.2 4.48228 2.68122 0
M  V30 21078 H 1965.89 2.70102 1.29171 0
M  V30 21079 H 1963.44 1.29971 0.619965 0
M  V30 21080 H 1965.39 2.10012 3.65339 0
M  V30 21081 H 1964.12 0.979869 3.11554 0
M  V30 21082 H 1962.78 2.91604 2.22177 0
M  V30 21083 H 1962.42 2.11383 4.56428 0
M  V30 21084 H 1962.12 3.86444 4.42645 0
M  V30 21085 H 1963.65 3.27809 5.15144 0
M  V30 21086 H 1965.06 4.65568 3.34544 0
M  V30 21087 H 1963.46 5.27761 2.85638 0
M  V30 21088 H 1964.53 4.56478 1.63572 0
M  V30 21089 N 1965.87 -0.668464 1.42721 0
M  V30 21090 C 1967.28 -1.24925 1.38747 0
M  V30 21091 C 1967.64 -1.96021 0.0838911 0
M  V30 21092 O 1966.76 -2.00378 -0.817178 0
M  V30 21093 C 1967.36 -2.27201 2.51327 0
M  V30 21094 C 1965.91 -2.80792 2.50665 0
M  V30 21095 C 1965.06 -1.55205 2.29797 0
M  V30 21096 H 1968.01 -0.461443 1.51843 0
M  V30 21097 H 1968.03 -3.09067 2.21941 0
M  V30 21098 H 1967.55 -1.75428 3.46189 0
M  V30 21099 H 1965.65 -3.36669 1.59639 0
M  V30 21100 H 1965.76 -3.29376 3.4792 0
M  V30 21101 H 1964.12 -1.82004 1.78176 0
M  V30 21102 H 1964.91 -1.05389 3.26723 0
M  V30 21103 N 1967.35 -1.28999 -0.905381 0
M  V30 21104 C 1968.58 -1.19632 -1.69419 0
M  V30 21105 C 1969 0.240433 -1.86557 0
M  V30 21106 O 1968.36 1.17374 -1.38177 0
M  V30 21107 C 1968.41 -1.90881 -3.05936 0
M  V30 21108 O 1967.51 -1.22198 -3.9388 0
M  V30 21109 H 1966.85 -0.414842 -0.518461 0
M  V30 21110 H 1969.38 -1.70468 -1.13145 0
M  V30 21111 H 1969.39 -1.99115 -3.56114 0
M  V30 21112 H 1968.07 -2.95385 -2.9278 0
M  V30 21113 H 1966.64 -1.22185 -3.52314 0
M  V30 21114 N 1968.83 1.11497 -1.11383 0
M  V30 21115 C 1970.25 1.35232 -0.847616 0
M  V30 21116 C 1970.45 1.9446 0.527973 0
M  V30 21117 O 1969.5 2.17716 1.2789 0
M  V30 21118 C 1970.81 2.28454 -1.95523 0
M  V30 21119 C 1972.36 2.4202 -1.98483 0
M  V30 21120 C 1972.84 3.38563 -3.08446 0
M  V30 21121 N 1974.33 3.46126 -3.07817 0
M  V30 21122 C 1975.06 4.20766 -3.89542 0
M  V30 21123 N 1974.56 4.98388 -4.81229 0
M  V30 21124 N 1976.35 4.16272 -3.77722 0
M  V30 21125 H 1968.5 0.714156 -2.00034 0
M  V30 21126 H 1970.77 0.376936 -0.869841 0
M  V30 21127 H 1970.47 1.92126 -2.94586 0
M  V30 21128 H 1970.35 3.28667 -1.85089 0
M  V30 21129 H 1972.73 2.77623 -1.00047 0
M  V30 21130 H 1972.81 1.4166 -2.12993 0
M  V30 21131 H 1972.46 3.03687 -4.07107 0
M  V30 21132 H 1972.39 4.38776 -2.91176 0
M  V30 21133 H 1974.88 2.90759 -2.41387 0
M  V30 21134 H 1975.19 5.52708 -5.40124 0
M  V30 21135 H 1973.54 4.97551 -4.85251 0
M  V30 21136 H 1976.73 3.54719 -3.05437 0
M  V30 21137 H 1976.9 4.74186 -4.41647 0
M  V30 21138 N 1970.31 0.904053 1.29092 0
M  V30 21139 C 1971.22 0.389825 2.31339 0
M  V30 21140 C 1972.23 -0.517628 1.66122 0
M  V30 21141 O 1973.41 -0.406158 1.97262 0
M  V30 21142 C 1970.47 -0.370468 3.44715 0
M  V30 21143 C 1969.54 0.569032 4.25512 0
M  V30 21144 C 1968.77 -0.155071 5.33475 0
M  V30 21145 O 1968.99 -1.37834 5.53496 0
M  V30 21146 O 1967.93 0.504642 5.99781 0
M  V30 21147 H 1971.75 1.2382 2.77313 0
M  V30 21148 H 1969.34 0.668528 1.33608 0
M  V30 21149 H 1971.22 -0.800237 4.13732 0
M  V30 21150 H 1969.89 -1.19484 3.00841 0
M  V30 21151 H 1968.8 1.048 3.59121 0
M  V30 21152 H 1970.13 1.35994 4.7304 0
M  V30 21153 N 1971.79 -1.4279 0.666995 0
M  V30 21154 C 1973.03 -2.01644 0.18603 0
M  V30 21155 C 1973.36 -1.52694 -1.20477 0
M  V30 21156 O 1972.62 -0.716418 -1.82115 0
M  V30 21157 C 1972.91 -3.57038 0.160763 0
M  V30 21158 C 1972.58 -4.25389 1.49517 0
M  V30 21159 C 1971.24 -4.43775 1.86056 0
M  V30 21160 C 1973.59 -4.63976 2.37436 0
M  V30 21161 C 1970.92 -4.98018 3.10152 0
M  V30 21162 C 1973.27 -5.19596 3.60837 0
M  V30 21163 C 1971.94 -5.36197 3.97554 0
M  V30 21164 H 1971.21 -0.737867 0.0680731 0
M  V30 21165 H 1973.86 -1.71081 0.860435 0
M  V30 21166 H 1972.16 -3.87223 -0.597132 0
M  V30 21167 H 1973.86 -4.00349 -0.228461 0
M  V30 21168 H 1970.45 -4.11432 1.20091 0
M  V30 21169 H 1974.63 -4.49451 2.10494 0
M  V30 21170 H 1969.89 -5.09057 3.38632 0
M  V30 21171 H 1974.06 -5.4844 4.2917 0
M  V30 21172 H 1971.69 -5.77992 4.9379 0
M  V30 21173 N 1973.26 -0.409806 -1.52179 0
M  V30 21174 C 1974.2 0.450738 -2.24724 0
M  V30 21175 C 1975.21 1.00962 -1.27713 0
M  V30 21176 O 1976.4 0.908449 -1.53654 0
M  V30 21177 C 1973.5 1.63947 -2.96605 0
M  V30 21178 C 1972.67 1.20435 -4.20493 0
M  V30 21179 C 1971.73 2.26007 -4.75192 0
M  V30 21180 O 1970.76 1.86569 -5.37755 0
M  V30 21181 N 1971.96 3.58179 -4.56824 0
M  V30 21182 H 1974.72 -0.170894 -2.99212 0
M  V30 21183 H 1972.28 -0.237221 -1.60153 0
M  V30 21184 H 1974.28 2.34138 -3.30093 0
M  V30 21185 H 1972.85 2.16701 -2.25299 0
M  V30 21186 H 1972.07 0.330532 -3.92812 0
M  V30 21187 H 1973.35 0.890608 -5.00945 0
M  V30 21188 H 1972.75 3.92969 -4.0693 0
M  V30 21189 H 1971.31 4.24345 -4.94747 0
M  V30 21190 N 1974.74 1.56975 -0.14025 0
M  V30 21191 C 1975.99 1.96196 0.513302 0
M  V30 21192 C 1976.32 1.02482 1.64958 0
M  V30 21193 O 1975.6 0.0659332 1.94388 0
M  V30 21194 C 1975.88 3.45178 1.02589 0
M  V30 21195 C 1975.73 4.49669 -0.108432 0
M  V30 21196 C 1977.05 3.96499 1.90989 0
M  V30 21197 H 1974.17 0.713374 0.185114 0
M  V30 21198 H 1976.81 1.88721 -0.220112 0
M  V30 21199 H 1974.96 3.51679 1.65088 0
M  V30 21200 H 1976.63 4.55252 -0.744538 0
M  V30 21201 H 1974.88 4.26937 -0.768558 0
M  V30 21202 H 1975.55 5.51228 0.291822 0
M  V30 21203 H 1978.02 3.92434 1.38329 0
M  V30 21204 H 1976.9 5.01219 2.23765 0
M  V30 21205 H 1977.16 3.38452 2.84433 0
M  V30 21206 N 1976.22 -0.133539 1.57033 0
M  V30 21207 C 1977.63 -0.692222 1.73393 0
M  V30 21208 C 1977.98 -1.81019 0.756735 0
M  V30 21209 O 1977.11 -2.16275 -0.0736448 0
M  V30 21210 C 1977.7 -1.26245 3.144 0
M  V30 21211 C 1976.26 -1.76756 3.32316 0
M  V30 21212 C 1975.41 -0.661397 2.69297 0
M  V30 21213 H 1978.36 0.0922563 1.58432 0
M  V30 21214 H 1978.38 -2.13221 3.15146 0
M  V30 21215 H 1977.89 -0.44855 3.85499 0
M  V30 21216 H 1975.99 -2.6067 2.66236 0
M  V30 21217 H 1976.11 -1.88702 4.40373 0
M  V30 21218 H 1974.47 -1.0914 2.30132 0
M  V30 21219 H 1975.25 0.141281 3.43009 0
M  V30 21220 N 1977.7 -1.52352 -0.403298 0
M  V30 21221 C 1978.93 -1.70554 -1.17128 0
M  V30 21222 C 1979.34 -0.417576 -1.84124 0
M  V30 21223 O 1978.7 0.606862 -1.72115 0
M  V30 21224 C 1978.75 -2.8452 -2.23004 0
M  V30 21225 O 1978.47 -4.08329 -1.58742 0
M  V30 21226 C 1979.97 -3.14281 -3.12638 0
M  V30 21227 H 1977.19 -0.571419 -0.35174 0
M  V30 21228 H 1979.73 -1.98937 -0.473734 0
M  V30 21229 H 1977.89 -2.58639 -2.88417 0
M  V30 21230 H 1978.3 -4.71878 -2.28979 0
M  V30 21231 H 1979.78 -3.97523 -3.82988 0
M  V30 21232 H 1980.25 -2.28071 -3.7534 0
M  V30 21233 H 1980.86 -3.41948 -2.52887 0
M  V30 21234 N 1979.18 0.660885 -1.43074 0
M  V30 21235 C 1980.42 1.42086 -1.44284 0
M  V30 21236 C 1980.75 1.94394 -0.0643177 0
M  V30 21237 O 1980.01 1.72217 0.929509 0
M  V30 21238 C 1980.3 2.6246 -2.42589 0
M  V30 21239 C 1979.97 2.28615 -3.88647 0
M  V30 21240 C 1978.63 2.19096 -4.28428 0
M  V30 21241 C 1980.98 2.0139 -4.8072 0
M  V30 21242 C 1978.31 1.80498 -5.58245 0
M  V30 21243 C 1980.66 1.64293 -6.10893 0
M  V30 21244 C 1979.33 1.53294 -6.49659 0
M  V30 21245 H 1978.6 0.519929 -0.527973 0
M  V30 21246 H 1981.25 0.752296 -1.76104 0
M  V30 21247 H 1979.55 3.34413 -2.04145 0
M  V30 21248 H 1981.25 3.20662 -2.40784 0
M  V30 21249 H 1977.84 2.36931 -3.57158 0
M  V30 21250 H 1982.02 2.0767 -4.50763 0
M  V30 21251 H 1977.28 1.70563 -5.87127 0
M  V30 21252 H 1981.45 1.42256 -6.81716 0
M  V30 21253 H 1979.08 1.23156 -7.50158 0
M  V30 21254 N 1980.65 1.29477 0.898527 0
M  V30 21255 C 1981.88 1.20406 1.68255 0
M  V30 21256 C 1982.3 -0.235141 1.8733 0
M  V30 21257 O 1981.65 -1.15727 1.41115 0
M  V30 21258 C 1981.71 1.91451 3.06641 0
M  V30 21259 O 1981.43 3.29751 2.88437 0
M  V30 21260 C 1982.93 1.88871 4.01052 0
M  V30 21261 H 1980.15 0.417276 0.525473 0
M  V30 21262 H 1982.69 1.7087 1.12356 0
M  V30 21263 H 1980.85 1.4482 3.59313 0
M  V30 21264 H 1981.26 3.65548 3.76131 0
M  V30 21265 H 1982.73 2.43144 4.95566 0
M  V30 21266 H 1983.21 0.864507 4.30608 0
M  V30 21267 H 1983.82 2.35251 3.54312 0
M  V30 21268 N 1982.13 -1.10905 1.11972 0
M  V30 21269 C 1983.38 -1.82127 0.866753 0
M  V30 21270 C 1983.69 -1.85866 -0.609372 0
M  V30 21271 O 1984.9 -2.53243 -0.978781 0
M  V30 21272 C 1983.36 -3.27109 1.50093 0
M  V30 21273 C 1982.96 -3.31682 3.01149 0
M  V30 21274 C 1984.71 -4.03192 1.32803 0
M  V30 21275 C 1982.62 -4.71095 3.57524 0
M  V30 21276 H 1981.55 -0.682444 0.320604 0
M  V30 21277 H 1984.2 -1.24759 1.34564 0
M  V30 21278 H 1982.58 -3.84443 0.949712 0
M  V30 21279 H 1983.75 -2.84199 3.62722 0
M  V30 21280 H 1982.07 -2.69082 3.17779 0
M  V30 21281 H 1984.66 -5.06162 1.72348 0
M  V30 21282 H 1985.01 -4.15416 0.271181 0
M  V30 21283 H 1985.54 -3.52259 1.84819 0
M  V30 21284 H 1982.28 -4.6407 4.62947 0
M  V30 21285 H 1981.8 -5.18965 3.00725 0
M  V30 21286 H 1983.48 -5.40059 3.56294 0
M  V30 21287 N 1983.61 -0.910886 -1.2861 0
M  V30 21288 C 1985.02 -0.589499 -1.77149 0
M  V30 21289 C 1985.37 0.895128 -1.74591 0
M  V30 21290 O 1984.5 1.70016 -1.33879 0
M  V30 21291 C 1985.09 -1.06332 -3.21682 0
M  V30 21292 C 1983.65 -0.792899 -3.67954 0
M  V30 21293 C 1982.8 -1.23167 -2.48445 0
M  V30 21294 H 1985.75 -1.09245 -1.15114 0
M  V30 21295 H 1985.77 -0.403495 -3.78355 0
M  V30 21296 H 1985.28 -2.14387 -3.23512 0
M  V30 21297 H 1983.38 0.274569 -3.71587 0
M  V30 21298 H 1983.5 -1.39863 -4.5823 0
M  V30 21299 H 1981.86 -0.650459 -2.46254 0
M  V30 21300 H 1982.64 -2.32051 -2.52996 0
M  V30 21301 N 1985.09 1.42434 -0.674558 0
M  V30 21302 C 1986.04 2.308 0.00392457 0
M  V30 21303 C 1987.01 1.45949 0.792972 0
M  V30 21304 O 1988.19 1.74781 0.765269 0
M  V30 21305 C 1985.33 3.31784 0.949392 0
M  V30 21306 C 1984.44 4.31725 0.154193 0
M  V30 21307 C 1983.58 5.19783 1.09539 0
M  V30 21308 C 1982.62 6.11404 0.291864 0
M  V30 21309 N 1981.75 6.92015 1.18576 0
M  V30 21310 H 1986.59 2.88266 -0.755438 0
M  V30 21311 H 1984.13 1.41992 -0.384274 0
M  V30 21312 H 1986.09 3.88861 1.51138 0
M  V30 21313 H 1984.72 2.75918 1.67539 0
M  V30 21314 H 1983.77 3.76768 -0.524416 0
M  V30 21315 H 1985.08 4.96584 -0.469669 0
M  V30 21316 H 1984.24 5.81592 1.72732 0
M  V30 21317 H 1982.98 4.551 1.75314 0
M  V30 21318 H 1981.98 5.48664 -0.353276 0
M  V30 21319 H 1983.21 6.78136 -0.361786 0
M  V30 21320 H 1981.15 6.29961 1.82991 0
M  V30 21321 H 1981.07 7.53478 0.616968 0
M  V30 21322 H 1982.34 7.5831 1.80516 0
M  V30 21323 N 1986.57 0.417871 1.51959 0
M  V30 21324 C 1987.5 -0.394222 2.30148 0
M  V30 21325 C 1988.48 -1.0384 1.34727 0
M  V30 21326 O 1989.66 -1.04575 1.63639 0
M  V30 21327 C 1986.79 -1.50639 3.1293 0
M  V30 21328 C 1985.75 -0.986759 4.1647 0
M  V30 21329 C 1985.07 -2.1932 4.8765 0
M  V30 21330 C 1986.37 -0.0347019 5.22288 0
M  V30 21331 H 1988.07 0.258228 2.98284 0
M  V30 21332 H 1985.61 0.125633 1.43451 0
M  V30 21333 H 1987.57 -2.08157 3.664 0
M  V30 21334 H 1986.29 -2.18685 2.42579 0
M  V30 21335 H 1984.95 -0.43393 3.64023 0
M  V30 21336 H 1984.6 -2.8594 4.1382 0
M  V30 21337 H 1984.3 -1.85199 5.57652 0
M  V30 21338 H 1985.82 -2.77427 5.43936 0
M  V30 21339 H 1987.23 -0.518951 5.70946 0
M  V30 21340 H 1985.63 0.218124 5.99703 0
M  V30 21341 H 1986.7 0.907947 4.76324 0
M  V30 21342 N 1988.04 -1.56898 0.148573 0
M  V30 21343 C 1989.27 -2.00249 -0.508309 0
M  V30 21344 C 1989.68 -1.02768 -1.58857 0
M  V30 21345 O 1989.03 -0.0169159 -1.83692 0
M  V30 21346 C 1989.09 -3.40034 -1.16693 0
M  V30 21347 C 1988.75 -4.56415 -0.231088 0
M  V30 21348 C 1989.75 -5.17069 0.541853 0
M  V30 21349 C 1987.43 -5.02122 -0.133535 0
M  V30 21350 C 1989.43 -6.2184 1.39978 0
M  V30 21351 C 1987.11 -6.06748 0.727995 0
M  V30 21352 C 1988.11 -6.66476 1.49326 0
M  V30 21353 O 1987.8 -7.69077 2.34043 0
M  V30 21354 H 1987.53 -0.662039 -0.136677 0
M  V30 21355 H 1990.09 -2.03986 0.240611 0
M  V30 21356 H 1988.32 -3.3314 -1.96352 0
M  V30 21357 H 1990.01 -3.67482 -1.7237 0
M  V30 21358 H 1990.77 -4.82653 0.476529 0
M  V30 21359 H 1986.65 -4.5536 -0.718923 0
M  V30 21360 H 1990.19 -6.68389 1.99756 0
M  V30 21361 H 1986.09 -6.40591 0.794605 0
M  V30 21362 H 1986.86 -7.86304 2.27308 0
M  V30 21363 N 1989.52 0.125209 -1.57102 0
M  V30 21364 C 1990.45 1.17944 -1.96524 0
M  V30 21365 C 1991.47 1.37997 -0.863757 0
M  V30 21366 O 1992.66 1.37182 -1.14208 0
M  V30 21367 C 1989.76 2.54056 -2.24296 0
M  V30 21368 C 1988.93 2.5469 -3.55601 0
M  V30 21369 C 1987.99 3.72501 -3.71658 0
M  V30 21370 O 1987.01 3.56372 -4.43833 0
M  V30 21371 N 1988.22 4.90822 -3.09958 0
M  V30 21372 H 1990.98 0.844157 -2.87566 0
M  V30 21373 H 1988.54 0.314552 -1.58815 0
M  V30 21374 H 1990.53 3.31418 -2.32259 0
M  V30 21375 H 1989.1 2.79791 -1.39412 0
M  V30 21376 H 1988.32 1.63087 -3.58882 0
M  V30 21377 H 1989.61 2.52164 -4.41917 0
M  V30 21378 H 1989.01 5.0683 -2.51276 0
M  V30 21379 H 1987.57 5.65882 -3.23451 0
M  V30 21380 N 1991 1.52564 0.395213 0
M  V30 21381 C 1991.93 1.79867 1.48897 0
M  V30 21382 C 1992.91 0.650351 1.57176 0
M  V30 21383 O 1994.1 0.897328 1.72226 0
M  V30 21384 C 1991.23 1.96192 2.86576 0
M  V30 21385 C 1990.18 3.11854 2.9314 0
M  V30 21386 C 1989.51 3.13424 4.33208 0
M  V30 21387 C 1990.81 4.51046 2.63353 0
M  V30 21388 H 1992.5 2.71457 1.26299 0
M  V30 21389 H 1990.05 1.30621 0.606145 0
M  V30 21390 H 1992 2.13875 3.63091 0
M  V30 21391 H 1990.72 1.01286 3.10498 0
M  V30 21392 H 1989.38 2.93944 2.19072 0
M  V30 21393 H 1989.03 2.16212 4.5416 0
M  V30 21394 H 1988.73 3.91117 4.38522 0
M  V30 21395 H 1990.25 3.33254 5.11639 0
M  V30 21396 H 1991.67 4.6909 3.29587 0
M  V30 21397 H 1990.07 5.3076 2.80024 0
M  V30 21398 H 1991.14 4.58187 1.58722 0
M  V30 21399 N 1992.48 -0.653289 1.43422 0
M  V30 21400 C 1993.41 -1.77877 1.44543 0
M  V30 21401 C 1994.42 -1.59177 0.341566 0
M  V30 21402 O 1995.61 -1.67899 0.605995 0
M  V30 21403 C 1992.71 -3.15302 1.24249 0
M  V30 21404 C 1991.89 -3.60661 2.47472 0
M  V30 21405 C 1990.94 -4.76889 2.22403 0
M  V30 21406 O 1989.97 -4.86332 2.95754 0
M  V30 21407 N 1991.17 -5.67088 1.24062 0
M  V30 21408 H 1993.94 -1.77394 2.41561 0
M  V30 21409 H 1991.5 -0.837129 1.38578 0
M  V30 21410 H 1993.49 -3.90744 1.05361 0
M  V30 21411 H 1992.06 -3.10557 0.356765 0
M  V30 21412 H 1991.28 -2.75664 2.81785 0
M  V30 21413 H 1992.57 -3.87713 3.29478 0
M  V30 21414 H 1991.97 -5.62132 0.634383 0
M  V30 21415 H 1990.52 -6.42252 1.11158 0
M  V30 21416 N 1993.96 -1.29952 -0.891648 0
M  V30 21417 C 1995.2 -1.18565 -1.6453 0
M  V30 21418 C 1995.54 0.260539 -1.92444 0
M  V30 21419 O 1994.81 1.18723 -1.54062 0
M  V30 21420 C 1995.09 -2.00774 -2.98934 0
M  V30 21421 C 1994.95 -3.53577 -2.78035 0
M  V30 21422 C 1996.27 -1.84038 -3.99772 0
M  V30 21423 H 1993.38 -0.432073 -0.597061 0
M  V30 21424 H 1996.03 -1.59512 -1.03227 0
M  V30 21425 H 1994.18 -1.65981 -3.51258 0
M  V30 21426 H 1995.85 -3.98394 -2.3255 0
M  V30 21427 H 1994.09 -3.78095 -2.12665 0
M  V30 21428 H 1994.76 -4.06381 -3.73575 0
M  V30 21429 H 1997.24 -2.14444 -3.56585 0
M  V30 21430 H 1996.11 -2.43896 -4.91737 0
M  V30 21431 H 1996.38 -0.797726 -4.34843 0
M  V30 21432 N 1995.44 1.1031 -1.12559 0
M  V30 21433 C 1996.85 1.63801 -0.895891 0
M  V30 21434 C 1997.2 1.87753 0.569511 0
M  V30 21435 O 1996.32 1.62046 1.43423 0
M  V30 21436 C 1996.92 2.9757 -1.6198 0
M  V30 21437 C 1995.48 3.47922 -1.43622 0
M  V30 21438 C 1994.62 2.22506 -1.65489 0
M  V30 21439 H 1997.57 0.937927 -1.28018 0
M  V30 21440 H 1997.6 3.65099 -1.07159 0
M  V30 21441 H 1997.11 2.80105 -2.68631 0
M  V30 21442 H 1995.21 3.70529 -0.392328 0
M  V30 21443 H 1995.32 4.25953 -2.1932 0
M  V30 21444 H 1993.69 2.30712 -1.07908 0
M  V30 21445 H 1994.47 2.07571 -2.7344 0
M  V30 21446 N 1996.91 0.917694 1.28125 0
M  V30 21447 C 1997.84 0.426179 2.29578 0
M  V30 21448 C 1998.82 -0.508289 1.62328 0
M  V30 21449 O 2000.01 -0.415181 1.8971 0
M  V30 21450 C 1997.14 -0.331007 3.45719 0
M  V30 21451 C 1996.09 0.51469 4.24894 0
M  V30 21452 C 1995.42 -0.371069 5.33411 0
M  V30 21453 C 1996.72 1.774 4.9125 0
M  V30 21454 H 1998.41 1.27403 2.7094 0
M  V30 21455 H 1995.96 0.614065 1.30251 0
M  V30 21456 H 1997.91 -0.68573 4.15783 0
M  V30 21457 H 1996.64 -1.2128 3.03247 0
M  V30 21458 H 1995.3 0.851986 3.56562 0
M  V30 21459 H 1994.94 -1.25152 4.87182 0
M  V30 21460 H 1994.64 0.19121 5.87289 0
M  V30 21461 H 1996.17 -0.721587 6.06321 0
M  V30 21462 H 1997.58 1.48795 5.53654 0
M  V30 21463 H 1995.98 2.27899 5.55141 0
M  V30 21464 H 1997.05 2.49947 4.15517 0
M  V30 21465 N 1998.39 -1.42074 0.682102 0
M  V30 21466 C 1999.32 -2.33489 0.0224223 0
M  V30 21467 C 2000.3 -1.51082 -0.781557 0
M  V30 21468 O 2001.49 -1.79662 -0.737243 0
M  V30 21469 C 1998.62 -3.34773 -0.92434 0
M  V30 21470 C 1997.57 -4.2739 -0.228431 0
M  V30 21471 C 1996.9 -5.1894 -1.28863 0
M  V30 21472 C 1998.2 -5.14539 0.897035 0
M  V30 21473 H 1999.89 -2.88901 0.785898 0
M  V30 21474 H 1997.44 -1.38913 0.379376 0
M  V30 21475 H 1999.39 -3.97641 -1.39497 0
M  V30 21476 H 1998.11 -2.77681 -1.71932 0
M  V30 21477 H 1996.77 -3.65927 0.222034 0
M  V30 21478 H 1996.42 -4.5817 -2.07579 0
M  V30 21479 H 1996.12 -5.81736 -0.828084 0
M  V30 21480 H 1997.65 -5.84683 -1.76005 0
M  V30 21481 H 1999.06 -5.71051 0.507296 0
M  V30 21482 H 1997.46 -5.86206 1.28383 0
M  V30 21483 H 1998.53 -4.52505 1.74263 0
M  V30 21484 N 1999.87 -0.425924 -1.51735 0
M  V30 21485 C 2001.12 0.144058 -2.01586 0
M  V30 21486 C 2001.44 1.44204 -1.31264 0
M  V30 21487 O 2000.71 1.9081 -0.443661 0
M  V30 21488 H 1999.29 0.0562264 -0.744881 0
M  V30 21489 H 2001.95 -0.566016 -1.865 0
M  V30 21490 H 2001.05 0.328161 -3.1037 0
M  V30 21491 N 2001.35 1.56817 -0.156891 0
M  V30 21492 C 2002.59 1.9673 0.492464 0
M  V30 21493 C 2002.93 1.04226 1.63862 0
M  V30 21494 O 2002.2 0.0865469 1.94307 0
M  V30 21495 C 2002.48 3.46246 0.989218 0
M  V30 21496 C 2002.34 4.49529 -0.156119 0
M  V30 21497 C 2003.66 3.98502 1.86773 0
M  V30 21498 H 2000.78 0.715297 0.177537 0
M  V30 21499 H 2003.42 1.88477 -0.240116 0
M  V30 21500 H 2001.57 3.53411 1.61348 0
M  V30 21501 H 2003.24 4.54437 -0.792781 0
M  V30 21502 H 2001.48 4.26098 -0.813797 0
M  V30 21503 H 2002.15 5.51507 0.233341 0
M  V30 21504 H 2004.63 3.93879 1.34159 0
M  V30 21505 H 2003.51 5.03564 2.18436 0
M  V30 21506 H 2003.77 3.4145 2.80828 0
M  V30 21507 N 2002.83 -0.116876 1.57166 0
M  V30 21508 C 2003.76 -1.14443 2.03531 0
M  V30 21509 C 2004.74 -1.43063 0.920159 0
M  V30 21510 O 2005.92 -1.53468 1.19001 0
M  V30 21511 C 2003.05 -2.47006 2.44142 0
M  V30 21512 C 2002.01 -2.32843 3.59121 0
M  V30 21513 C 2001.33 -3.70388 3.85639 0
M  V30 21514 C 2002.63 -1.78717 4.90772 0
M  V30 21515 H 2004.33 -0.75878 2.89625 0
M  V30 21516 H 2001.87 -0.363551 1.39335 0
M  V30 21517 H 2003.82 -3.19143 2.75184 0
M  V30 21518 H 2002.55 -2.87465 1.55021 0
M  V30 21519 H 2001.21 -1.63155 3.28293 0
M  V30 21520 H 2000.86 -4.08335 2.9372 0
M  V30 21521 H 2000.56 -3.61764 4.63034 0
M  V30 21522 H 2002.08 -4.44026 4.19134 0
M  V30 21523 H 2003.49 -2.40673 5.20336 0
M  V30 21524 H 2001.89 -1.80909 5.72182 0
M  V30 21525 H 2002.96 -0.744891 4.79144 0
M  V30 21526 N 2004.3 -1.52772 -0.387116 0
M  V30 21527 C 2005.58 -1.5849 -1.14631 0
M  V30 21528 C 2005.96 -0.379228 -2.07666 0
M  V30 21529 O 2005.31 0.632297 -2.19577 0
M  V30 21530 C 2005.52 -2.92465 -1.90434 0
M  V30 21531 C 2006.87 -3.46269 -2.45729 0
M  V30 21532 O 2007.89 -2.94352 -2.00588 0
M  V30 21533 O 2006.75 -4.3698 -3.28193 0
M  V30 21534 H 2003.84 -0.639307 -0.52461 0
M  V30 21535 H 2006.39 -1.65108 -0.392117 0
M  V30 21536 H 2005.16 -3.7166 -1.22411 0
M  V30 21537 H 2004.78 -2.89241 -2.7281 0
M  V30 21538 N 2005.78 0.645673 -1.43767 0
M  V30 21539 C 2006.71 1.76974 -1.52324 0
M  V30 21540 C 2007.69 1.65862 -0.377316 0
M  V30 21541 O 2008.88 1.84843 -0.595532 0
M  V30 21542 C 2006.01 3.1544 -1.4531 0
M  V30 21543 C 2004.96 3.41324 -2.58229 0
M  V30 21544 C 2004.29 4.79669 -2.36267 0
M  V30 21545 C 2005.59 3.35321 -4.00446 0
M  V30 21546 H 2007.28 1.70069 -2.46408 0
M  V30 21547 H 2004.83 0.816784 -1.18594 0
M  V30 21548 H 2006.78 3.93838 -1.49899 0
M  V30 21549 H 2005.5 3.23093 -0.477344 0
M  V30 21550 H 2004.16 2.653 -2.53005 0
M  V30 21551 H 2003.81 4.84007 -1.36918 0
M  V30 21552 H 2003.51 4.97947 -3.11966 0
M  V30 21553 H 2005.04 5.60315 -2.42652 0
M  V30 21554 H 2006.45 4.03644 -4.07117 0
M  V30 21555 H 2004.85 3.65135 -4.76231 0
M  V30 21556 H 2005.92 2.33373 -4.25047 0
M  V30 21557 N 2007.26 1.30423 0.884744 0
M  V30 21558 C 2008.48 1.22312 1.67495 0
M  V30 21559 C 2008.91 -0.210723 1.86916 0
M  V30 21560 O 2008.27 -1.15161 1.40027 0
M  V30 21561 C 2008.32 1.95725 3.0286 0
M  V30 21562 O 2007.42 1.28449 3.91886 0
M  V30 21563 H 2006.76 0.423038 0.511796 0
M  V30 21564 H 2009.29 1.72246 1.10419 0
M  V30 21565 H 2009.3 2.04755 3.52901 0
M  V30 21566 H 2007.98 3.00006 2.88044 0
M  V30 21567 H 2006.55 1.27775 3.50326 0
M  V30 21568 N 2008.74 -1.09711 1.13142 0
M  V30 21569 C 2009.97 -1.85595 0.914436 0
M  V30 21570 C 2010.38 -1.81013 -0.536632 0
M  V30 21571 O 2009.74 -1.20419 -1.37134 0
M  V30 21572 C 2009.79 -3.33692 1.39039 0
M  V30 21573 O 2009.51 -3.38219 2.78459 0
M  V30 21574 C 2011.01 -4.26427 1.21142 0
M  V30 21575 H 2008.23 -0.586333 0.326274 0
M  V30 21576 H 2010.77 -1.38646 1.50325 0
M  V30 21577 H 2008.93 -3.7808 0.844641 0
M  V30 21578 H 2009.34 -4.30567 2.9952 0
M  V30 21579 H 2010.82 -5.28508 1.59323 0
M  V30 21580 H 2011.29 -4.38934 0.152782 0
M  V30 21581 H 2011.9 -3.87851 1.74505 0
M  V30 21582 N 2010.22 -0.924476 -1.27637 0
M  V30 21583 C 2011.16 -0.411501 -2.28931 0
M  V30 21584 C 2012.16 0.502472 -1.61776 0
M  V30 21585 O 2013.36 0.382531 -1.75888 0
M  V30 21586 H 2009.74 -0.114496 -0.743233 0
M  V30 21587 H 2011.71 -1.27869 -2.69615 0
M  V30 21588 C 2010.46 0.323415 -3.46193 0
M  V30 21589 H 2009.78 -0.37068 -3.98078 0
M  V30 21590 H 2011.22 0.646821 -4.19037 0
M  V30 21591 C 2009.68 1.53523 -2.99887 0
M  V30 21592 O 2010.21 2.63407 -3.03281 0
M  V30 21593 N 2008.42 1.38594 -2.55421 0
M  V30 21594 H 2007.96 0.491939 -2.52859 0
M  V30 21595 H 2007.92 2.198 -2.24801 0
M  V30 21596 N 2011.69 1.41711 -0.689627 0
M  V30 21597 C 2012.94 2.0162 -0.218409 0
M  V30 21598 C 2013.27 1.54471 1.17696 0
M  V30 21599 O 2012.55 0.753301 1.7932 0
M  V30 21600 C 2012.83 3.5909 -0.269485 0
M  V30 21601 C 2012.68 4.16381 -1.70137 0
M  V30 21602 C 2014 4.38508 0.374046 0
M  V30 21603 H 2011.12 0.732553 -0.0808378 0
M  V30 21604 H 2013.76 1.68537 -0.877222 0
M  V30 21605 H 2011.91 3.87405 0.291466 0
M  V30 21606 H 2013.59 3.98964 -2.31571 0
M  V30 21607 H 2011.83 3.71648 -2.23741 0
M  V30 21608 H 2012.5 5.25535 -1.68869 0
M  V30 21609 H 2014.98 4.15971 -0.103624 0
M  V30 21610 H 2013.85 5.48037 0.307738 0
M  V30 21611 H 2014.11 4.1751 1.45388 0
M  V30 21612 N 2013.17 0.433965 1.51507 0
M  V30 21613 C 2014.4 -0.132211 2.06177 0
M  V30 21614 C 2014.81 -1.37301 1.30174 0
M  V30 21615 O 2014.15 -1.80262 0.353712 0
M  V30 21616 C 2014.22 -0.523141 3.55673 0
M  V30 21617 C 2013.88 0.610379 4.52905 0
M  V30 21618 C 2014.88 1.4815 4.98345 0
M  V30 21619 C 2012.56 0.79015 4.96046 0
M  V30 21620 C 2014.56 2.51711 5.85594 0
M  V30 21621 C 2012.24 1.82904 5.83086 0
M  V30 21622 C 2013.24 2.69091 6.27757 0
M  V30 21623 O 2012.93 3.71197 7.13069 0
M  V30 21624 H 2012.66 -0.0128686 0.675878 0
M  V30 21625 H 2015.21 0.610848 1.96107 0
M  V30 21626 H 2013.44 -1.31885 3.63515 0
M  V30 21627 H 2015.13 -1.02008 3.92873 0
M  V30 21628 H 2015.9 1.35413 4.65713 0
M  V30 21629 H 2011.78 0.12889 4.6082 0
M  V30 21630 H 2015.32 3.19016 6.20383 0
M  V30 21631 H 2011.22 1.95662 6.15131 0
M  V30 21632 H 2011.99 3.67738 7.31239 0
M  V30 21633 N 2014.65 -1.56732 0.165206 0
M  V30 21634 C 2015.88 -2.01506 -0.490943 0
M  V30 21635 C 2016.3 -1.04466 -1.56424 0
M  V30 21636 O 2015.66 -0.0232331 -1.81285 0
M  V30 21637 C 2015.71 -3.4492 -1.05179 0
M  V30 21638 O 2014.81 -3.50937 -2.16603 0
M  V30 21639 H 2014.15 -0.653393 -0.11821 0
M  V30 21640 H 2016.68 -2.02846 0.267298 0
M  V30 21641 H 2016.69 -3.84099 -1.37593 0
M  V30 21642 H 2015.37 -4.15049 -0.265916 0
M  V30 21643 H 2013.94 -3.23613 -1.85281 0
M  V30 21644 N 2016.13 0.10854 -1.57226 0
M  V30 21645 C 2017.08 1.15155 -2.02094 0
M  V30 21646 C 2018.07 1.42263 -0.919651 0
M  V30 21647 O 2019.28 1.42102 -1.10485 0
M  V30 21648 H 2015.65 0.388515 -0.643863 0
M  V30 21649 H 2017.62 0.746707 -2.88906 0
M  V30 21650 C 2016.37 2.46727 -2.44992 0
M  V30 21651 H 2015.69 2.26708 -3.29307 0
M  V30 21652 H 2017.13 3.18242 -2.80175 0
M  V30 21653 C 2015.59 3.10059 -1.31776 0
M  V30 21654 O 2016.12 3.96577 -0.639471 0
M  V30 21655 N 2014.33 2.70099 -1.07215 0
M  V30 21656 H 2013.88 1.99837 -1.62552 0
M  V30 21657 H 2013.83 3.12802 -0.316602 0
M  V30 21658 N 2017.61 1.52975 0.379009 0
M  V30 21659 C 2018.54 1.81436 1.46981 0
M  V30 21660 C 2019.52 0.666985 1.56478 0
M  V30 21661 O 2020.7 0.915545 1.71264 0
M  V30 21662 C 2017.83 1.99221 2.84479 0
M  V30 21663 C 2016.79 3.14946 2.89816 0
M  V30 21664 C 2016.11 3.18001 4.2986 0
M  V30 21665 C 2017.41 4.53814 2.58554 0
M  V30 21666 H 2019.11 2.72781 1.23413 0
M  V30 21667 H 2016.65 1.31257 0.592257 0
M  V30 21668 H 2018.61 2.17714 3.60803 0
M  V30 21669 H 2017.33 1.04573 3.09406 0
M  V30 21670 H 2015.99 2.96251 2.15942 0
M  V30 21671 H 2015.64 2.21017 4.51841 0
M  V30 21672 H 2015.34 3.95746 4.34349 0
M  V30 21673 H 2016.86 3.38662 5.08075 0
M  V30 21674 H 2018.27 4.72559 3.24593 0
M  V30 21675 H 2016.67 5.33701 2.74379 0
M  V30 21676 H 2017.74 4.59845 1.53853 0
M  V30 21677 N 2019.08 -0.63804 1.44107 0
M  V30 21678 C 2020.31 -1.42303 1.49778 0
M  V30 21679 C 2020.72 -1.88825 0.119087 0
M  V30 21680 O 2020.07 -1.61034 -0.883953 0
M  V30 21681 C 2020.13 -2.68134 2.39467 0
M  V30 21682 C 2019.79 -2.43453 3.86755 0
M  V30 21683 C 2020.79 -2.05716 4.77469 0
M  V30 21684 C 2018.47 -2.57307 4.31391 0
M  V30 21685 C 2020.47 -1.82151 6.10819 0
M  V30 21686 C 2018.15 -2.33357 5.6479 0
M  V30 21687 C 2019.15 -1.95837 6.54322 0
M  V30 21688 O 2018.84 -1.72148 7.85252 0
M  V30 21689 H 2018.57 -0.443102 0.510526 0
M  V30 21690 H 2021.13 -0.788144 1.89677 0
M  V30 21691 H 2019.36 -3.34236 1.94483 0
M  V30 21692 H 2021.05 -3.30121 2.36167 0
M  V30 21693 H 2021.81 -1.94576 4.44258 0
M  V30 21694 H 2017.69 -2.85483 3.61967 0
M  V30 21695 H 2021.23 -1.5279 6.80662 0
M  V30 21696 H 2017.13 -2.44105 5.97564 0
M  V30 21697 H 2017.9 -1.8645 7.96981 0
M  V30 21698 N 2020.56 -1.3089 -0.877815 0
M  V30 21699 C 2021.51 -1.17796 -2.00566 0
M  V30 21700 C 2022.5 -0.0881167 -1.69171 0
M  V30 21701 O 2023.71 -0.249467 -1.78263 0
M  V30 21702 H 2020.09 -0.364508 -0.657752 0
M  V30 21703 H 2022.06 -2.13234 -2.08743 0
M  V30 21704 C 2020.81 -0.894005 -3.3601 0
M  V30 21705 H 2020.13 -1.72472 -3.60684 0
M  V30 21706 H 2021.57 -0.842526 -4.15545 0
M  V30 21707 C 2020.03 0.403175 -3.34479 0
M  V30 21708 O 2020.56 1.42245 -3.75672 0
M  V30 21709 N 2018.76 0.416903 -2.87594 0
M  V30 21710 H 2018.31 -0.413049 -2.54267 0
M  V30 21711 H 2018.27 1.28475 -2.86952 0
M  V30 21712 N 2022.04 1.0911 -1.13723 0
M  V30 21713 C 2023.29 1.81794 -0.912268 0
M  V30 21714 C 2023.64 1.84206 0.555522 0
M  V30 21715 O 2022.93 1.30166 1.40597 0
M  V30 21716 C 2023.13 3.27193 -1.43805 0
M  V30 21717 C 2022.96 3.38947 -2.95542 0
M  V30 21718 C 2021.73 3.50558 -3.63919 0
M  V30 21719 C 2023.93 3.31203 -3.93458 0
M  V30 21720 N 2021.91 3.51029 -5.03639 0
M  V30 21721 C 2023.28 3.38581 -5.19387 0
M  V30 21722 C 2025.33 3.14892 -3.85678 0
M  V30 21723 C 2024.04 3.31328 -6.38447 0
M  V30 21724 C 2026.06 3.08966 -5.04276 0
M  V30 21725 C 2025.42 3.16939 -6.2907 0
M  V30 21726 H 2021.52 0.679373 -0.387268 0
M  V30 21727 H 2024.11 1.30375 -1.44604 0
M  V30 21728 H 2022.28 3.77073 -0.931145 0
M  V30 21729 H 2024.01 3.87906 -1.15375 0
M  V30 21730 H 2020.77 3.54145 -3.1445 0
M  V30 21731 H 2021.19 3.5484 -5.76557 0
M  V30 21732 H 2025.83 3.07595 -2.90078 0
M  V30 21733 H 2023.55 3.37387 -7.34299 0
M  V30 21734 H 2027.14 2.97476 -4.99999 0
M  V30 21735 H 2026.02 3.12373 -7.193 0
M  V30 21736 N 2023.52 0.931232 1.27145 0
M  V30 21737 C 2024.74 0.589393 1.98849 0
M  V30 21738 C 2025.17 -0.82637 1.68976 0
M  V30 21739 O 2024.53 -1.55507 0.93205 0
M  V30 21740 C 2024.57 0.826135 3.51009 0
M  V30 21741 O 2023.68 -0.106581 4.12262 0
M  V30 21742 H 2023.02 0.226532 0.624163 0
M  V30 21743 H 2025.55 1.25145 1.61864 0
M  V30 21744 H 2025.56 0.743094 4.01176 0
M  V30 21745 H 2024.23 1.85812 3.72084 0
M  V30 21746 H 2022.81 0.0266735 3.7289 0
M  V30 21747 N 2025 -1.41343 0.697132 0
M  V30 21748 C 2025.96 -2.29162 0.0417336 0
M  V30 21749 C 2026.96 -1.44455 -0.706353 0
M  V30 21750 O 2028.15 -1.65586 -0.54101 0
M  V30 21751 C 2025.28 -3.2736 -0.951235 0
M  V30 21752 H 2026.48 -2.88614 0.814974 0
M  V30 21753 H 2024.03 -1.49356 0.460717 0
M  V30 21754 H 2024.76 -2.7289 -1.75218 0
M  V30 21755 H 2024.55 -3.89866 -0.417931 0
M  V30 21756 H 2026.04 -3.93164 -1.40756 0
M  V30 21757 N 2026.48 -0.441993 -1.51275 0
M  V30 21758 C 2027.7 0.123815 -2.0703 0
M  V30 21759 C 2028.13 1.35293 -1.30681 0
M  V30 21760 O 2027.48 1.77966 -0.346072 0
M  V30 21761 C 2027.53 0.419988 -3.58146 0
M  V30 21762 O 2026.64 1.50565 -3.83932 0
M  V30 21763 H 2025.98 -0.00017643 -0.664 0
M  V30 21764 H 2028.51 -0.624668 -1.94831 0
M  V30 21765 H 2028.52 0.66908 -4.02476 0
M  V30 21766 H 2027.19 -0.478329 -4.1314 0
M  V30 21767 H 2025.77 1.24615 -3.51462 0
M  V30 21768 N 2027.95 1.56642 -0.173515 0
M  V30 21769 C 2029.18 2.01033 0.476387 0
M  V30 21770 C 2029.59 1.05282 1.57202 0
M  V30 21771 O 2028.93 0.0461376 1.83642 0
M  V30 21772 C 2029 3.41847 1.11269 0
M  V30 21773 C 2028.66 4.56725 0.158447 0
M  V30 21774 C 2029.66 5.16141 -0.624046 0
M  V30 21775 C 2027.34 5.02271 0.0536344 0
M  V30 21776 C 2029.34 6.19534 -1.49853 0
M  V30 21777 C 2027.02 6.05513 -0.824431 0
M  V30 21778 C 2028.02 6.64016 -1.5991 0
M  V30 21779 O 2027.71 7.65256 -2.46249 0
M  V30 21780 H 2027.44 0.66413 0.126127 0
M  V30 21781 H 2030 2.03577 -0.273033 0
M  V30 21782 H 2028.23 3.36222 1.91028 0
M  V30 21783 H 2029.91 3.70178 1.66502 0
M  V30 21784 H 2030.68 4.81834 -0.553255 0
M  V30 21785 H 2026.56 4.56446 0.646388 0
M  V30 21786 H 2030.1 6.65126 -2.10364 0
M  V30 21787 H 2026 6.39245 -0.896417 0
M  V30 21788 H 2026.77 7.82588 -2.39788 0
M  V30 21789 N 2029.43 -0.1002 1.57281 0
M  V30 21790 C 2030.66 -0.82219 1.90407 0
M  V30 21791 C 2031.08 -1.71739 0.767297 0
M  V30 21792 O 2030.44 -1.79103 -0.281369 0
M  V30 21793 C 2030.49 -1.61579 3.22373 0
M  V30 21794 O 2029.59 -2.72433 3.09603 0
M  V30 21795 H 2028.93 -0.2262 0.624283 0
M  V30 21796 H 2031.46 -0.0769557 2.04455 0
M  V30 21797 H 2031.47 -2.00109 3.55556 0
M  V30 21798 H 2030.15 -0.958772 4.04698 0
M  V30 21799 H 2028.72 -2.36968 2.87925 0
M  V30 21800 N 2030.91 -1.53174 -0.370891 0
M  V30 21801 C 2032.16 -1.68764 -1.11189 0
M  V30 21802 C 2032.48 -0.439297 -1.89987 0
M  V30 21803 O 2031.75 0.546592 -1.8812 0
M  V30 21804 H 2030.33 -0.622136 -0.413467 0
M  V30 21805 H 2032.99 -1.90347 -0.418794 0
M  V30 21806 H 2032.09 -2.54633 -1.80468 0
M  V30 21807 N 2032.39 0.630389 -1.44443 0
M  V30 21808 C 2033.64 1.38719 -1.46975 0
M  V30 21809 C 2033.96 1.94723 -0.103861 0
M  V30 21810 O 2033.23 1.75822 0.863919 0
M  V30 21811 H 2031.81 0.5149 -0.54119 0
M  V30 21812 H 2034.47 0.741905 -1.80227 0
M  V30 21813 H 2033.56 2.21813 -2.19557 0
M  V30 21814 N 2033.87 1.31354 0.870861 0
M  V30 21815 C 2034.81 1.18858 1.99939 0
M  V30 21816 C 2035.81 0.0970869 1.69122 0
M  V30 21817 O 2037.01 0.258917 1.78128 0
M  V30 21818 H 2033.39 0.367991 0.65581 0
M  V30 21819 H 2035.36 2.14338 2.07609 0
M  V30 21820 C 2034.11 0.911812 3.35531 0
M  V30 21821 H 2033.43 1.74383 3.59765 0
M  V30 21822 H 2034.87 0.864551 4.15092 0
M  V30 21823 C 2033.33 -0.385431 3.34688 0
M  V30 21824 O 2033.86 -1.40251 3.76421 0
M  V30 21825 N 2032.07 -0.401645 2.87811 0
M  V30 21826 H 2031.61 0.426528 2.54044 0
M  V30 21827 H 2031.57 -1.26952 2.87629 0
M  V30 21828 N 2035.34 -1.08505 1.143 0
M  V30 21829 C 2036.57 -1.84615 0.934069 0
M  V30 21830 C 2036.99 -1.81572 -0.517403 0
M  V30 21831 O 2036.34 -1.21866 -1.35849 0
M  V30 21832 C 2036.39 -3.32199 1.42571 0
M  V30 21833 O 2036.12 -3.35247 2.82031 0
M  V30 21834 C 2037.62 -4.25118 1.25658 0
M  V30 21835 H 2034.84 -0.582839 0.332474 0
M  V30 21836 H 2037.38 -1.37043 1.51787 0
M  V30 21837 H 2035.54 -3.77163 0.884694 0
M  V30 21838 H 2035.95 -4.27366 3.0407 0
M  V30 21839 H 2037.42 -5.26788 1.64919 0
M  V30 21840 H 2037.9 -4.38747 0.199328 0
M  V30 21841 H 2038.51 -3.85978 1.78609 0
M  V30 21842 N 2036.82 -0.937962 -1.26649 0
M  V30 21843 C 2038.05 -0.59993 -1.98534 0
M  V30 21844 C 2038.47 0.817397 -1.69411 0
M  V30 21845 O 2037.83 1.55011 -0.940284 0
M  V30 21846 C 2037.88 -0.844738 -3.50566 0
M  V30 21847 O 2036.98 0.0847162 -4.12313 0
M  V30 21848 H 2036.32 -0.229839 -0.622953 0
M  V30 21849 H 2038.85 -1.26002 -1.61198 0
M  V30 21850 H 2038.86 -0.764359 -4.00776 0
M  V30 21851 H 2037.54 -1.87783 -3.71094 0
M  V30 21852 H 2036.11 -0.0464484 -3.72871 0
M  V30 21853 N 2038.3 1.40971 -0.704618 0
M  V30 21854 C 2039.53 2.05399 -0.248738 0
M  V30 21855 C 2039.94 1.53056 1.10541 0
M  V30 21856 O 2039.3 0.682534 1.69256 0
M  V30 21857 C 2039.35 3.60902 -0.207794 0
M  V30 21858 O 2039.07 4.11311 -1.50846 0
M  V30 21859 C 2040.57 4.42489 0.267977 0
M  V30 21860 H 2037.79 0.661269 -0.11386 0
M  V30 21861 H 2040.34 1.8058 -0.959745 0
M  V30 21862 H 2038.49 3.84729 0.4541 0
M  V30 21863 H 2038.91 5.05426 -1.4016 0
M  V30 21864 H 2040.38 5.51454 0.245489 0
M  V30 21865 H 2040.86 4.1926 1.30836 0
M  V30 21866 H 2041.46 4.23746 -0.363242 0
M  V30 21867 N 2039.78 0.45001 1.51039 0
M  V30 21868 C 2041.06 -0.172746 1.94836 0
M  V30 21869 C 2041.44 -1.58934 1.38936 0
M  V30 21870 O 2040.78 -2.20974 0.581609 0
M  V30 21871 C 2040.99 -0.137579 3.48729 0
M  V30 21872 C 2042.34 -0.33691 4.23261 0
M  V30 21873 O 2043.37 -0.215124 3.5555 0
M  V30 21874 O 2042.22 -0.580548 5.43408 0
M  V30 21875 H 2039.32 -0.12312 0.817784 0
M  V30 21876 H 2041.86 0.5089 1.6189 0
M  V30 21877 H 2040.64 0.852286 3.81905 0
M  V30 21878 H 2040.26 -0.861592 3.88152 0
M  V30 21879 N 2041.26 -1.56548 0.18182 0
M  V30 21880 C 2042.21 -2.15071 -0.756856 0
M  V30 21881 C 2043.19 -1.0878 -1.18557 0
M  V30 21882 O 2044.38 -1.34877 -1.14618 0
M  V30 21883 C 2041.51 -2.80324 -1.98175 0
M  V30 21884 C 2040.6 -3.93788 -1.57455 0
M  V30 21885 N 2040.99 -4.9813 -0.877524 0
M  V30 21886 C 2039.29 -4.05143 -1.86482 0
M  V30 21887 C 2039.99 -5.77765 -0.675425 0
M  V30 21888 N 2038.96 -5.29731 -1.22009 0
M  V30 21889 H 2042.77 -2.93109 -0.215455 0
M  V30 21890 H 2040.28 -1.62389 -0.0184721 0
M  V30 21891 H 2042.28 -3.20635 -2.66456 0
M  V30 21892 H 2040.94 -2.0377 -2.528 0
M  V30 21893 H 2041.95 -5.15135 -0.534425 0
M  V30 21894 H 2038.62 -3.39703 -2.42709 0
M  V30 21895 H 2040.01 -6.71787 -0.123453 0
M  V30 21896 N 2042.73 0.0918577 -1.57332 0
M  V30 21897 C 2043.98 0.794757 -1.86252 0
M  V30 21898 C 2044.31 1.78575 -0.770794 0
M  V30 21899 O 2043.56 1.9428 0.235291 0
M  V30 21900 C 2043.86 1.55559 -3.2177 0
M  V30 21901 C 2043.53 0.706426 -4.45332 0
M  V30 21902 C 2042.19 0.472346 -4.78876 0
M  V30 21903 C 2044.54 0.116314 -5.2107 0
M  V30 21904 C 2041.87 -0.361657 -5.85584 0
M  V30 21905 C 2044.22 -0.70503 -6.28659 0
M  V30 21906 C 2042.89 -0.949172 -6.60717 0
M  V30 21907 H 2042.16 0.290822 -0.681545 0
M  V30 21908 H 2044.8 0.0561366 -1.91418 0
M  V30 21909 H 2043.11 2.36587 -3.12304 0
M  V30 21910 H 2044.81 2.1039 -3.41375 0
M  V30 21911 H 2041.4 0.898985 -4.19066 0
M  V30 21912 H 2045.58 0.284315 -4.95485 0
M  V30 21913 H 2040.84 -0.559757 -6.08832 0
M  V30 21914 H 2045.01 -1.16914 -6.86516 0
M  V30 21915 H 2042.64 -1.59721 -7.43232 0
M  V30 21916 N 2044.21 1.53368 0.362763 0
M  V30 21917 C 2045.44 1.73906 1.13011 0
M  V30 21918 C 2045.86 0.468163 1.82181 0
M  V30 21919 O 2045.22 -0.577989 1.7184 0
M  V30 21920 C 2045.27 2.9068 2.13395 0
M  V30 21921 O 2044.37 2.59486 3.20532 0
M  V30 21922 H 2043.71 0.577461 0.327772 0
M  V30 21923 H 2046.24 2.00263 0.419026 0
M  V30 21924 H 2046.25 3.16926 2.56948 0
M  V30 21925 H 2044.93 3.82865 1.62442 0
M  V30 21926 H 2043.51 2.44067 2.81932 0
M  V30 21927 N 2045.69 -0.62272 1.44776 0
M  V30 21928 C 2046.62 -1.74528 1.5512 0
M  V30 21929 C 2047.6 -1.65241 0.403656 0
M  V30 21930 O 2048.79 -1.83873 0.624863 0
M  V30 21931 C 2045.92 -3.13088 1.5031 0
M  V30 21932 C 2044.87 -3.37172 2.63626 0
M  V30 21933 C 2044.2 -4.75849 2.43868 0
M  V30 21934 C 2045.5 -3.28908 4.0573 0
M  V30 21935 H 2047.19 -1.66128 2.49082 0
M  V30 21936 H 2044.74 -0.797813 1.19879 0
M  V30 21937 H 2046.69 -3.91403 1.56146 0
M  V30 21938 H 2045.41 -3.22293 0.528684 0
M  V30 21939 H 2044.07 -2.61241 2.57194 0
M  V30 21940 H 2043.72 -4.81767 1.446 0
M  V30 21941 H 2043.42 -4.92921 3.19849 0
M  V30 21942 H 2044.94 -5.56383 2.51535 0
M  V30 21943 H 2046.36 -3.97117 4.13487 0
M  V30 21944 H 2044.76 -3.57513 4.8198 0
M  V30 21945 H 2045.83 -2.26581 4.28706 0
M  V30 21946 N 2047.17 -1.31814 -0.863883 0
M  V30 21947 C 2048.58 -1.10603 -1.15061 0
M  V30 21948 C 2048.78 0.119526 -2.01145 0
M  V30 21949 O 2047.84 0.807099 -2.39253 0
M  V30 21950 C 2049.15 -2.38075 -1.83686 0
M  V30 21951 C 2050.7 -2.43744 -1.96361 0
M  V30 21952 C 2051.18 -3.71113 -2.68401 0
M  V30 21953 N 2052.67 -3.72042 -2.75933 0
M  V30 21954 C 2053.4 -4.67294 -3.32301 0
M  V30 21955 N 2052.9 -5.72905 -3.89553 0
M  V30 21956 N 2054.69 -4.54804 -3.30317 0
M  V30 21957 H 2046.84 -2.10406 -0.290393 0
M  V30 21958 H 2049.11 -0.928505 -0.191264 0
M  V30 21959 H 2048.81 -3.27625 -1.27885 0
M  V30 21960 H 2048.69 -2.48336 -2.83917 0
M  V30 21961 H 2051.07 -1.54659 -2.51326 0
M  V30 21962 H 2051.15 -2.37443 -0.951544 0
M  V30 21963 H 2050.8 -4.60567 -2.14103 0
M  V30 21964 H 2050.73 -3.74682 -3.70028 0
M  V30 21965 H 2053.22 -2.95701 -2.35307 0
M  V30 21966 H 2053.53 -6.41656 -4.30694 0
M  V30 21967 H 2051.88 -5.76671 -3.87911 0
M  V30 21968 H 2055.07 -3.71468 -2.84832 0
M  V30 21969 H 2055.24 -5.29213 -3.73948 0
M  V30 21970 N 2048.65 1.07897 -1.14873 0
M  V30 21971 C 2049.61 2.13129 -0.843128 0
M  V30 21972 C 2050.61 1.60055 0.154606 0
M  V30 21973 O 2051.8 1.74041 -0.0743665 0
M  V30 21974 C 2048.93 3.39924 -0.257826 0
M  V30 21975 H 2050.12 2.41671 -1.77581 0
M  V30 21976 H 2047.68 1.23696 -0.955463 0
M  V30 21977 H 2048.41 3.17019 0.683318 0
M  V30 21978 H 2048.2 3.79745 -0.97654 0
M  V30 21979 H 2049.69 4.17555 -0.0613986 0
M  V30 21980 N 2050.12 0.944665 1.2615 0
M  V30 21981 C 2051.54 0.647519 1.45874 0
M  V30 21982 C 2051.74 -0.798095 1.85021 0
M  V30 21983 O 2050.8 -1.57439 1.97406 0
M  V30 21984 C 2052.11 1.61192 2.53845 0
M  V30 21985 C 2053.66 1.62201 2.67694 0
M  V30 21986 C 2054.13 2.5738 3.7884 0
M  V30 21987 N 2055.62 2.55686 3.86237 0
M  V30 21988 C 2056.36 3.26015 4.71701 0
M  V30 21989 N 2055.85 4.05782 5.61527 0
M  V30 21990 N 2057.65 3.1495 4.65578 0
M  V30 21991 H 2049.8 1.87901 0.990296 0
M  V30 21992 H 2052.06 0.807679 0.496345 0
M  V30 21993 H 2051.77 2.64402 2.31915 0
M  V30 21994 H 2051.64 1.36668 3.5157 0
M  V30 21995 H 2054.03 0.597142 2.88995 0
M  V30 21996 H 2054.11 1.9078 1.70402 0
M  V30 21997 H 2053.75 3.59987 3.5829 0
M  V30 21998 H 2053.68 2.26089 4.75596 0
M  V30 21999 H 2056.17 1.97768 3.22019 0
M  V30 22000 H 2056.49 4.56389 6.23642 0
M  V30 22001 H 2054.83 4.09882 5.61268 0
M  V30 22002 H 2058.02 2.52113 3.94407 0
M  V30 22003 H 2058.2 3.70027 5.31962 0
M  V30 22004 N 2051.6 -1.40596 0.712085 0
M  V30 22005 C 2052.83 -2.04967 0.25925 0
M  V30 22006 C 2053.24 -1.53745 -1.10268 0
M  V30 22007 O 2052.58 -0.687539 -1.70348 0
M  V30 22008 C 2052.65 -3.59155 0.157468 0
M  V30 22009 C 2052.31 -4.33249 1.45411 0
M  V30 22010 C 2053.31 -4.61433 2.39533 0
M  V30 22011 C 2050.99 -4.72222 1.71207 0
M  V30 22012 C 2052.99 -5.2757 3.57699 0
M  V30 22013 C 2050.67 -5.38092 2.89655 0
M  V30 22014 C 2051.67 -5.65696 3.82723 0
M  V30 22015 O 2051.36 -6.30206 4.99095 0
M  V30 22016 H 2051.09 -0.666162 0.114911 0
M  V30 22017 H 2053.64 -1.81055 0.969955 0
M  V30 22018 H 2051.87 -3.81872 -0.60915 0
M  V30 22019 H 2053.56 -4.05064 -0.260344 0
M  V30 22020 H 2054.33 -4.3179 2.20867 0
M  V30 22021 H 2050.21 -4.50107 0.99621 0
M  V30 22022 H 2053.75 -5.49032 4.30359 0
M  V30 22023 H 2049.65 -5.67154 3.08231 0
M  V30 22024 H 2050.42 -6.48703 4.99126 0
M  V30 22025 N 2053.08 -0.458013 -1.50798 0
M  V30 22026 C 2054.03 0.361282 -2.25119 0
M  V30 22027 C 2055.01 0.972627 -1.28175 0
M  V30 22028 O 2056.21 0.887343 -1.53151 0
M  V30 22029 C 2053.34 1.45021 -3.11165 0
M  V30 22030 C 2052.42 0.847244 -4.15551 0
M  V30 22031 N 2052.81 -0.0246437 -5.05794 0
M  V30 22032 C 2051.11 1.11261 -4.31899 0
M  V30 22033 C 2051.81 -0.365487 -5.80551 0
M  V30 22034 N 2050.79 0.256092 -5.42996 0
M  V30 22035 H 2054.59 -0.310578 -2.92254 0
M  V30 22036 H 2052.1 -0.271346 -1.60117 0
M  V30 22037 H 2054.1 2.05021 -3.63004 0
M  V30 22038 H 2052.76 2.1242 -2.45577 0
M  V30 22039 H 2053.77 -0.392565 -5.1641 0
M  V30 22040 H 2050.45 1.78256 -3.77533 0
M  V30 22041 H 2051.84 -1.07624 -6.63224 0
M  V30 22042 N 2054.56 1.56449 -0.190119 0
M  V30 22043 C 2055.49 2.14748 0.771918 0
M  V30 22044 C 2056.47 1.08278 1.21304 0
M  V30 22045 O 2057.65 1.36362 1.30144 0
M  V30 22046 C 2054.78 2.70233 2.04186 0
M  V30 22047 C 2053.83 3.89246 1.74327 0
M  V30 22048 S 2054.66 5.27954 0.895791 0
M  V30 22049 C 2055.82 5.86857 2.17599 0
M  V30 22050 H 2056.05 2.96013 0.276302 0
M  V30 22051 H 2053.58 1.5438 0.0248132 0
M  V30 22052 H 2055.54 3.02845 2.7712 0
M  V30 22053 H 2054.2 1.89018 2.5086 0
M  V30 22054 H 2053.39 4.26461 2.68602 0
M  V30 22055 H 2053 3.57618 1.09478 0
M  V30 22056 H 2055.29 6.00917 3.12898 0
M  V30 22057 H 2056.23 6.83554 1.84823 0
M  V30 22058 H 2056.64 5.15422 2.30218 0
M  V30 22059 N 2056.04 -0.0835127 1.57379 0
M  V30 22060 C 2056.98 -1.10046 2.02875 0
M  V30 22061 C 2057.95 -1.39138 0.907183 0
M  V30 22062 O 2059.14 -1.50405 1.17401 0
M  V30 22063 C 2056.28 -2.41229 2.46784 0
M  V30 22064 C 2055.39 -2.18769 3.72511 0
M  V30 22065 C 2054.53 -3.43432 4.05251 0
M  V30 22066 C 2053.57 -3.16284 5.24052 0
M  V30 22067 N 2052.7 -4.33246 5.52488 0
M  V30 22068 H 2057.54 -0.705503 2.89528 0
M  V30 22069 H 2055.08 -0.336809 1.43192 0
M  V30 22070 H 2057.04 -3.17803 2.7029 0
M  V30 22071 H 2055.67 -2.7855 1.63125 0
M  V30 22072 H 2054.72 -1.32942 3.56414 0
M  V30 22073 H 2056.03 -1.94708 4.59228 0
M  V30 22074 H 2055.19 -4.28408 4.29595 0
M  V30 22075 H 2053.93 -3.70558 3.17078 0
M  V30 22076 H 2052.93 -2.29703 4.99516 0
M  V30 22077 H 2054.16 -2.90493 6.13833 0
M  V30 22078 H 2052.1 -4.60425 4.67274 0
M  V30 22079 H 2052.02 -4.12417 6.336 0
M  V30 22080 H 2053.29 -5.19253 5.81375 0
M  V30 22081 N 2057.52 -1.53558 -0.354624 0
M  V30 22082 C 2058.48 -1.80084 -1.41783 0
M  V30 22083 C 2059.48 -0.671552 -1.46105 0
M  V30 22084 O 2060.67 -0.939801 -1.46674 0
M  V30 22085 C 2057.8 -1.93284 -2.8081 0
M  V30 22086 H 2058.99 -2.75049 -1.19532 0
M  V30 22087 H 2056.55 -1.44802 -0.588388 0
M  V30 22088 H 2057.28 -1.00423 -3.0836 0
M  V30 22089 H 2057.07 -2.75432 -2.7907 0
M  V30 22090 H 2058.56 -2.15361 -3.57784 0
M  V30 22091 N 2058.99 0.615033 -1.45104 0
M  V30 22092 C 2060.27 1.37409 -1.39206 0
M  V30 22093 C 2060.65 2.11018 -0.0588763 0
M  V30 22094 O 2060 2.07402 0.958997 0
M  V30 22095 C 2060.21 2.32712 -2.60089 0
M  V30 22096 C 2061.56 2.95549 -3.04854 0
M  V30 22097 O 2062.58 2.43035 -2.60408 0
M  V30 22098 O 2061.44 3.90854 -3.81963 0
M  V30 22099 H 2058.53 0.615766 -0.552052 0
M  V30 22100 H 2061.08 0.638743 -1.5722 0
M  V30 22101 H 2059.85 1.77529 -3.48711 0
M  V30 22102 H 2059.47 3.13639 -2.4437 0
M  V30 22103 N 2060.47 1.3227 0.85688 0
M  V30 22104 C 2061.7 1.25837 1.64863 0
M  V30 22105 C 2062.12 -0.171028 1.87321 0
M  V30 22106 O 2061.48 -1.12165 1.42438 0
M  V30 22107 C 2061.53 2.02105 2.9864 0
M  V30 22108 O 2060.63 1.36733 3.89073 0
M  V30 22109 H 2059.97 0.433799 0.502707 0
M  V30 22110 H 2062.5 1.7455 1.0674 0
M  V30 22111 H 2062.51 2.12195 3.48479 0
M  V30 22112 H 2061.19 3.06048 2.81616 0
M  V30 22113 H 2059.76 1.35177 3.47537 0
M  V30 22114 N 2061.95 -1.07287 1.15444 0
M  V30 22115 C 2063.2 -1.80162 0.931099 0
M  V30 22116 C 2063.53 -1.8653 -0.540402 0
M  V30 22117 O 2062.8 -1.34951 -1.40066 0
M  V30 22118 C 2063.09 -3.25184 1.54685 0
M  V30 22119 C 2062.94 -3.26957 3.089 0
M  V30 22120 C 2064.26 -4.2247 1.23318 0
M  V30 22121 H 2061.38 -0.654053 0.339682 0
M  V30 22122 H 2064.02 -1.25539 1.42619 0
M  V30 22123 H 2062.17 -3.7183 1.12583 0
M  V30 22124 H 2063.84 -2.88549 3.59912 0
M  V30 22125 H 2062.08 -2.65898 3.42755 0
M  V30 22126 H 2062.76 -4.29218 3.47097 0
M  V30 22127 H 2065.23 -3.84218 1.59737 0
M  V30 22128 H 2064.11 -5.2223 1.69018 0
M  V30 22129 H 2064.37 -4.41844 0.150314 0
M  V30 22130 N 2063.43 -0.951342 -1.25647 0
M  V30 22131 C 2064.67 -0.605246 -1.93558 0
M  V30 22132 C 2065.01 0.85507 -1.74362 0
M  V30 22133 O 2064.28 1.61308 -1.08674 0
M  V30 22134 C 2064.56 -0.960718 -3.47048 0
M  V30 22135 C 2064.42 -2.47652 -3.75484 0
M  V30 22136 C 2065.74 -0.483409 -4.37437 0
M  V30 22137 H 2062.86 -0.22136 -0.702971 0
M  V30 22138 H 2065.5 -1.1874 -1.48327 0
M  V30 22139 H 2063.65 -0.465324 -3.85703 0
M  V30 22140 H 2065.32 -3.04543 -3.46484 0
M  V30 22141 H 2063.56 -2.91564 -3.21205 0
M  V30 22142 H 2064.23 -2.67575 -4.82812 0
M  V30 22143 H 2066.71 -0.908309 -4.06065 0
M  V30 22144 H 2065.59 -0.760858 -5.43601 0
M  V30 22145 H 2065.85 0.616645 -4.37778 0
M  V30 22146 N 2064.91 1.40216 -0.719531 0
M  V30 22147 C 2066.18 1.94697 -0.18772 0
M  V30 22148 C 2066.56 1.65742 1.30739 0
M  V30 22149 O 2065.91 0.97723 2.06549 0
M  V30 22150 C 2066.12 3.45332 -0.50469 0
M  V30 22151 C 2067.47 4.22256 -0.445515 0
M  V30 22152 O 2068.49 3.5346 -0.440978 0
M  V30 22153 O 2067.35 5.44833 -0.426487 0
M  V30 22154 H 2064.45 0.82649 -0.0290376 0
M  V30 22155 H 2066.99 1.49802 -0.797333 0
M  V30 22156 H 2065.76 3.5978 -1.53863 0
M  V30 22157 H 2065.39 3.97372 0.134684 0
M  V30 22158 N 2066.38 0.466004 1.50553 0
M  V30 22159 C 2067.31 -0.320802 2.31286 0
M  V30 22160 C 2068.29 -0.995008 1.37962 0
M  V30 22161 O 2069.48 -0.993158 1.66883 0
M  V30 22162 C 2066.61 -1.40607 3.17564 0
M  V30 22163 C 2065.56 -0.853763 4.19398 0
M  V30 22164 C 2064.89 -2.03694 4.94381 0
M  V30 22165 C 2066.19 0.131478 5.22134 0
M  V30 22166 H 2067.88 0.352995 2.97312 0
M  V30 22167 H 2065.43 0.171207 1.42979 0
M  V30 22168 H 2067.38 -1.96395 3.72836 0
M  V30 22169 H 2066.11 -2.10857 2.49413 0
M  V30 22170 H 2064.77 -0.317899 3.65219 0
M  V30 22171 H 2064.41 -2.7263 4.22708 0
M  V30 22172 H 2064.11 -1.67364 5.63261 0
M  V30 22173 H 2065.64 -2.59982 5.52487 0
M  V30 22174 H 2067.05 -0.337046 5.72308 0
M  V30 22175 H 2065.45 0.408804 5.98706 0
M  V30 22176 H 2066.52 1.05903 4.73194 0
M  V30 22177 N 2067.86 -1.56346 0.198413 0
M  V30 22178 C 2068.79 -2.22244 -0.716243 0
M  V30 22179 C 2069.77 -1.1866 -1.21876 0
M  V30 22180 O 2070.96 -1.47177 -1.26699 0
M  V30 22181 C 2068.09 -2.88437 -1.93446 0
M  V30 22182 C 2067.04 -3.98294 -1.56672 0
M  V30 22183 C 2066.37 -4.51668 -2.86182 0
M  V30 22184 C 2067.67 -5.16531 -0.774153 0
M  V30 22185 H 2069.36 -2.98935 -0.166883 0
M  V30 22186 H 2066.91 -1.43784 -0.0788267 0
M  V30 22187 H 2068.86 -3.33221 -2.57957 0
M  V30 22188 H 2067.58 -2.09157 -2.5084 0
M  V30 22189 H 2066.24 -3.54206 -0.945178 0
M  V30 22190 H 2065.89 -3.69146 -3.41673 0
M  V30 22191 H 2065.59 -5.25796 -2.6232 0
M  V30 22192 H 2067.12 -4.99155 -3.51676 0
M  V30 22193 H 2068.53 -5.57839 -1.32244 0
M  V30 22194 H 2066.93 -5.96746 -0.633532 0
M  V30 22195 H 2068 -4.84382 0.224098 0
M  V30 22196 N 2069.34 0.0751653 -1.57421 0
M  V30 22197 C 2070.57 0.791793 -1.91691 0
M  V30 22198 C 2070.99 1.70496 -0.794522 0
M  V30 22199 O 2070.35 1.79528 0.25284 0
M  V30 22200 C 2070.4 1.5643 -3.24903 0
M  V30 22201 O 2069.5 2.67473 -3.13898 0
M  V30 22202 H 2068.84 0.21624 -0.627803 0
M  V30 22203 H 2071.37 0.0444189 -2.04552 0
M  V30 22204 H 2071.38 1.94427 -3.58695 0
M  V30 22205 H 2070.06 0.894266 -4.06172 0
M  V30 22206 H 2068.63 2.32357 -2.91658 0
M  V30 22207 N 2070.82 1.53744 0.346476 0
M  V30 22208 C 2072.05 1.7453 1.10557 0
M  V30 22209 C 2072.46 0.482996 1.82931 0
M  V30 22210 O 2071.8 -0.554895 1.75119 0
M  V30 22211 C 2071.86 2.86918 2.16606 0
M  V30 22212 C 2071.53 4.26624 1.63832 0
M  V30 22213 C 2072.52 5.08298 1.0922 0
M  V30 22214 C 2070.21 4.73099 1.68767 0
M  V30 22215 C 2072.2 6.34547 0.602434 0
M  V30 22216 C 2069.89 5.99321 1.19403 0
M  V30 22217 C 2070.89 6.79878 0.652331 0
M  V30 22218 O 2070.57 8.03729 0.166038 0
M  V30 22219 H 2070.31 0.586761 0.335689 0
M  V30 22220 H 2072.86 2.0136 0.40536 0
M  V30 22221 H 2071.09 2.55606 2.90177 0
M  V30 22222 H 2072.78 2.95701 2.78057 0
M  V30 22223 H 2073.55 4.73557 1.04731 0
M  V30 22224 H 2069.42 4.10457 2.09871 0
M  V30 22225 H 2072.97 6.9737 0.178953 0
M  V30 22226 H 2068.87 6.33558 1.23591 0
M  V30 22227 H 2069.63 8.18009 0.283599 0
M  V30 22228 N 2072.3 -0.607329 1.45428 0
M  V30 22229 C 2073.24 -1.73916 1.54454 0
M  V30 22230 C 2074.24 -1.64251 0.4145 0
M  V30 22231 O 2075.44 -1.70041 0.59042 0
M  V30 22232 H 2071.82 -0.574581 0.48514 0
M  V30 22233 H 2073.79 -1.6343 2.49666 0
M  V30 22234 C 2072.54 -3.12295 1.52863 0
M  V30 22235 H 2071.86 -3.20392 2.39142 0
M  V30 22236 H 2073.3 -3.91318 1.63236 0
M  V30 22237 C 2071.76 -3.35948 0.2531 0
M  V30 22238 O 2072.29 -3.96125 -0.666944 0
M  V30 22239 N 2070.5 -2.90219 0.148714 0
M  V30 22240 H 2070.04 -2.4143 0.898284 0
M  V30 22241 H 2070 -3.06419 -0.703907 0
M  V30 22242 N 2073.77 -1.32722 -0.849853 0
M  V30 22243 C 2075.02 -1.23739 -1.60675 0
M  V30 22244 C 2075.35 0.199183 -1.93176 0
M  V30 22245 O 2074.63 1.13761 -1.57761 0
M  V30 22246 C 2074.91 -2.10183 -2.92395 0
M  V30 22247 C 2074.76 -3.62243 -2.66646 0
M  V30 22248 C 2076.08 -1.96664 -3.93715 0
M  V30 22249 H 2073.2 -0.45085 -0.583013 0
M  V30 22250 H 2075.84 -1.62716 -0.980999 0
M  V30 22251 H 2073.99 -1.77072 -3.458 0
M  V30 22252 H 2075.67 -4.05591 -2.19758 0
M  V30 22253 H 2073.91 -3.8467 -2.00529 0
M  V30 22254 H 2074.58 -4.1806 -3.60458 0
M  V30 22255 H 2077.06 -2.25679 -3.49583 0
M  V30 22256 H 2075.93 -2.59417 -4.83729 0
M  V30 22257 H 2076.19 -0.935664 -4.32085 0
M  V30 22258 N 2075.25 1.06673 -1.16011 0
M  V30 22259 C 2076.18 2.13994 -0.820931 0
M  V30 22260 C 2077.2 1.61909 0.170124 0
M  V30 22261 O 2078.39 1.78418 -0.0540947 0
M  V30 22262 C 2075.49 3.38304 -0.200883 0
M  V30 22263 C 2074.66 4.19718 -1.23108 0
M  V30 22264 C 2073.72 5.22396 -0.631544 0
M  V30 22265 O 2072.74 5.54171 -1.29936 0
M  V30 22266 N 2073.95 5.7756 0.583519 0
M  V30 22267 H 2076.71 2.43691 -1.74456 0
M  V30 22268 H 2074.27 1.2264 -1.05693 0
M  V30 22269 H 2076.26 4.04138 0.213139 0
M  V30 22270 H 2074.83 3.06263 0.626218 0
M  V30 22271 H 2074.05 3.49597 -1.82142 0
M  V30 22272 H 2075.34 4.7092 -1.92644 0
M  V30 22273 H 2074.74 5.54005 1.14432 0
M  V30 22274 H 2073.3 6.44989 0.939804 0
M  V30 22275 N 2076.73 0.957992 1.25141 0
M  V30 22276 C 2077.98 0.613378 1.92567 0
M  V30 22277 C 2078.3 -0.852805 1.75363 0
M  V30 22278 O 2077.57 -1.60775 1.11929 0
M  V30 22279 H 2076.15 0.223867 0.712666 0
M  V30 22280 H 2078.81 1.21696 1.52237 0
M  V30 22281 H 2077.91 0.845594 3.00427 0
M  V30 22282 N 2078.21 -1.39832 0.726957 0
M  V30 22283 C 2079.43 -2.05501 0.280008 0
M  V30 22284 C 2079.86 -1.54436 -1.07383 0
M  V30 22285 O 2079.22 -0.684615 -1.67877 0
M  V30 22286 C 2079.26 -3.59492 0.282502 0
M  V30 22287 O 2078.37 -4.05842 -0.732546 0
M  V30 22288 H 2077.71 -0.651361 0.128936 0
M  V30 22289 H 2080.24 -1.79019 0.990626 0
M  V30 22290 H 2080.25 -4.07811 0.124104 0
M  V30 22291 H 2078.92 -3.96022 1.27041 0
M  V30 22292 H 2077.5 -3.68956 -0.540943 0
M  V30 22293 N 2079.69 -0.473982 -1.50304 0
M  V30 22294 C 2080.93 0.0798516 -2.01942 0
M  V30 22295 C 2081.26 1.39955 -1.35785 0
M  V30 22296 O 2080.53 1.89302 -0.504142 0
M  V30 22297 H 2079.11 0.0325001 -0.746293 0
M  V30 22298 H 2081.77 -0.625063 -1.84605 0
M  V30 22299 H 2080.86 0.229253 -3.11257 0
M  V30 22300 N 2081.16 1.56239 -0.206702 0
M  V30 22301 C 2082.07 2.2324 0.721172 0
M  V30 22302 C 2083.09 1.2352 1.22552 0
M  V30 22303 O 2084.27 1.56291 1.27025 0
M  V30 22304 C 2081.33 2.88767 1.91871 0
M  V30 22305 C 2080.39 4.03791 1.45779 0
M  V30 22306 C 2079.63 4.66183 2.59825 0
M  V30 22307 O 2079.85 4.27524 3.77597 0
M  V30 22308 O 2078.78 5.55444 2.31874 0
M  V30 22309 H 2082.61 3.03163 0.180488 0
M  V30 22310 H 2080.19 1.49382 0.0231036 0
M  V30 22311 H 2082.08 3.30181 2.61837 0
M  V30 22312 H 2080.75 2.11815 2.44777 0
M  V30 22313 H 2079.66 3.66976 0.726587 0
M  V30 22314 H 2080.99 4.82441 0.975269 0
M  V30 22315 N 2082.64 -0.0668159 1.57458 0
M  V30 22316 C 2083.87 -0.777815 1.91723 0
M  V30 22317 C 2084.29 -1.70866 0.803128 0
M  V30 22318 O 2083.64 -1.8113 -0.223207 0
M  V30 22319 C 2083.69 -1.56722 3.25761 0
M  V30 22320 O 2083.41 -0.673779 4.32888 0
M  V30 22321 C 2084.92 -2.37877 3.74071 0
M  V30 22322 H 2082.14 -0.220863 0.633609 0
M  V30 22323 H 2084.68 -0.0355987 2.04469 0
M  V30 22324 H 2082.83 -2.26166 3.14527 0
M  V30 22325 H 2083.25 -1.22335 5.10034 0
M  V30 22326 H 2084.72 -2.88716 4.70476 0
M  V30 22327 H 2085.2 -3.17625 3.03334 0
M  V30 22328 H 2085.81 -1.73579 3.88266 0
M  V30 22329 N 2084.12 -1.53926 -0.338317 0
M  V30 22330 C 2085.35 -1.75368 -1.09789 0
M  V30 22331 C 2085.76 -0.495294 -1.82187 0
M  V30 22332 O 2085.12 0.533316 -1.74534 0
M  V30 22333 C 2085.17 -2.93722 -2.10736 0
M  V30 22334 O 2084.89 -4.14695 -1.4128 0
M  V30 22335 C 2086.39 -3.27258 -2.99027 0
M  V30 22336 H 2083.61 -0.585824 -0.327188 0
M  V30 22337 H 2086.16 -2.00767 -0.388932 0
M  V30 22338 H 2084.31 -2.70639 -2.77188 0
M  V30 22339 H 2084.73 -4.81165 -2.08759 0
M  V30 22340 H 2086.2 -4.13409 -3.65783 0
M  V30 22341 H 2086.68 -2.43786 -3.65329 0
M  V30 22342 H 2087.28 -3.52366 -2.38156 0
M  V30 22343 N 2085.6 0.599608 -1.45748 0
M  V30 22344 C 2086.83 1.38282 -1.53498 0
M  V30 22345 C 2087.24 1.88443 -0.169109 0
M  V30 22346 O 2086.58 1.63321 0.840947 0
M  V30 22347 C 2086.64 2.6169 -2.46492 0
M  V30 22348 C 2086.31 2.33114 -3.93074 0
M  V30 22349 C 2087.3 1.92984 -4.82756 0
M  V30 22350 C 2084.99 2.45779 -4.38061 0
M  V30 22351 C 2086.98 1.65892 -6.15434 0
M  V30 22352 C 2084.67 2.18301 -5.70778 0
M  V30 22353 C 2085.67 1.7842 -6.59284 0
M  V30 22354 O 2085.36 1.51268 -7.8954 0
M  V30 22355 H 2085.09 0.42941 -0.522095 0
M  V30 22356 H 2087.64 0.737577 -1.917 0
M  V30 22357 H 2085.87 3.28962 -2.03276 0
M  V30 22358 H 2087.56 3.23743 -2.44837 0
M  V30 22359 H 2088.33 1.82729 -4.49261 0
M  V30 22360 H 2084.21 2.75786 -3.69409 0
M  V30 22361 H 2087.75 1.3469 -6.84474 0
M  V30 22362 H 2083.65 2.28176 -6.03826 0
M  V30 22363 H 2084.41 1.65254 -8.01644 0
M  V30 22364 N 2087.08 1.33171 0.842803 0
M  V30 22365 C 2088.35 1.15008 1.58216 0
M  V30 22366 C 2088.73 -0.285047 2.09167 0
M  V30 22367 O 2088.08 -1.28349 1.89047 0
M  V30 22368 C 2088.29 2.18785 2.71908 0
M  V30 22369 C 2089.64 2.52736 3.41188 0
M  V30 22370 O 2090.66 2.17422 2.82146 0
M  V30 22371 O 2089.52 3.13321 4.47763 0
M  V30 22372 H 2086.62 0.444573 0.69734 0
M  V30 22373 H 2089.16 1.44741 0.8859 0
M  V30 22374 H 2087.94 3.15201 2.31871 0
M  V30 22375 H 2087.56 1.90116 3.49202 0
M  V30 22376 N 2088.56 -1.06056 1.16576 0
M  V30 22377 C 2089.51 -2.11853 0.842761 0
M  V30 22378 C 2090.49 -1.59903 -0.178851 0
M  V30 22379 O 2091.68 -1.76986 0.0223245 0
M  V30 22380 C 2088.81 -3.41529 0.348238 0
M  V30 22381 C 2087.9 -4.00299 1.40077 0
M  V30 22382 N 2088.29 -4.33148 2.61183 0
M  V30 22383 C 2086.59 -4.27932 1.25659 0
M  V30 22384 C 2087.29 -4.79896 3.28747 0
M  V30 22385 N 2086.26 -4.79479 2.56126 0
M  V30 22386 H 2090.06 -2.351 1.76366 0
M  V30 22387 H 2087.58 -1.23621 1.05317 0
M  V30 22388 H 2089.58 -4.16784 0.0984337 0
M  V30 22389 H 2088.24 -3.19719 -0.566566 0
M  V30 22390 H 2089.25 -4.23421 2.9822 0
M  V30 22391 H 2085.92 -4.15553 0.402732 0
M  V30 22392 H 2087.31 -5.14497 4.32137 0
M  V30 22393 N 2090.03 -0.964615 -1.24631 0
M  V30 22394 C 2090.98 -0.49166 -2.25502 0
M  V30 22395 C 2091.95 0.46115 -1.5957 0
M  V30 22396 O 2093.14 0.372197 -1.87135 0
M  V30 22397 C 2090.28 0.214964 -3.4443 0
M  V30 22398 C 2089.39 -0.776253 -4.24969 0
M  V30 22399 C 2088.52 -0.0460512 -5.3118 0
M  V30 22400 C 2087.56 -1.02754 -6.03414 0
M  V30 22401 N 2086.7 -0.327547 -7.01336 0
M  V30 22402 H 2091.54 -1.35669 -2.65326 0
M  V30 22403 H 2089.08 -0.68015 -1.30431 0
M  V30 22404 H 2091.03 0.641314 -4.12241 0
M  V30 22405 H 2089.66 1.04397 -3.05452 0
M  V30 22406 H 2088.72 -1.32105 -3.56724 0
M  V30 22407 H 2090.03 -1.52481 -4.74922 0
M  V30 22408 H 2089.18 0.438447 -6.05114 0
M  V30 22409 H 2087.92 0.735226 -4.82126 0
M  V30 22410 H 2086.93 -1.52294 -5.28286 0
M  V30 22411 H 2088.15 -1.80921 -6.54557 0
M  V30 22412 H 2086.1 0.43481 -6.54557 0
M  V30 22413 H 2086.01 -1.01503 -7.49155 0
M  V30 22414 H 2087.28 0.135085 -7.79383 0
M  V30 22415 N 2091.51 1.39445 -0.734362 0
M  V30 22416 C 2092.46 2.32452 -0.0830804 0
M  V30 22417 C 2093.45 1.53028 0.726556 0
M  V30 22418 O 2094.66 1.68697 0.627813 0
M  V30 22419 H 2091.03 0.751957 -0.00806559 0
M  V30 22420 H 2093.01 2.85008 -0.883901 0
M  V30 22421 C 2091.75 3.38121 0.810522 0
M  V30 22422 H 2091.08 3.99315 0.196919 0
M  V30 22423 H 2092.52 4.0565 1.23385 0
M  V30 22424 C 2090.98 2.75118 1.94453 0
M  V30 22425 O 2091.51 2.62913 3.0371 0
M  V30 22426 N 2089.71 2.33215 1.73376 0
M  V30 22427 H 2089.26 2.43341 0.845144 0
M  V30 22428 H 2089.22 1.914 2.49426 0
M  V30 22429 N 2092.99 0.481946 1.5005 0
M  V30 22430 C 2094.22 -0.0666474 2.06793 0
M  V30 22431 C 2094.63 -1.3254 1.34457 0
M  V30 22432 O 2093.99 -1.7767 0.417087 0
M  V30 22433 C 2094.04 -0.343693 3.59862 0
M  V30 22434 O 2093.76 0.86514 4.29473 0
M  V30 22435 C 2095.26 -0.93805 4.33261 0
M  V30 22436 H 2092.48 0.0119311 0.670894 0
M  V30 22437 H 2095.03 0.673843 1.93079 0
M  V30 22438 H 2093.18 -1.03413 3.73342 0
M  V30 22439 H 2093.6 0.616339 5.20866 0
M  V30 22440 H 2095.07 -1.0816 5.413 0
M  V30 22441 H 2095.55 -1.93098 3.94474 0
M  V30 22442 H 2096.15 -0.285663 4.2434 0
M  V30 22443 N 2094.47 -1.56127 0.214985 0
M  V30 22444 C 2095.71 -1.98129 -0.41849 0
M  V30 22445 C 2096.04 -1.10246 -1.60238 0
M  V30 22446 O 2095.3 -0.145925 -1.95155 0
M  V30 22447 C 2095.6 -3.45828 -0.902084 0
M  V30 22448 C 2095.26 -4.50577 0.170573 0
M  V30 22449 C 2093.92 -4.78945 0.465258 0
M  V30 22450 C 2096.28 -5.13434 0.896355 0
M  V30 22451 C 2093.6 -5.67455 1.49036 0
M  V30 22452 C 2095.96 -6.03053 1.91074 0
M  V30 22453 C 2094.62 -6.29768 2.21242 0
M  V30 22454 H 2093.89 -0.725004 -0.153136 0
M  V30 22455 H 2096.54 -1.88873 0.316127 0
M  V30 22456 H 2094.84 -3.52255 -1.71534 0
M  V30 22457 H 2096.54 -3.75694 -1.40196 0
M  V30 22458 H 2093.13 -4.28544 -0.0692657 0
M  V30 22459 H 2097.31 -4.91593 0.681928 0
M  V30 22460 H 2092.57 -5.8642 1.72978 0
M  V30 22461 H 2096.74 -6.50812 2.47824 0
M  V30 22462 H 2094.37 -6.9815 3.00817 0
M  V30 22463 N 2095.95 0.0584645 -1.57492 0
M  V30 22464 C 2097.17 0.767637 -1.92133 0
M  V30 22465 C 2097.59 1.70438 -0.812178 0
M  V30 22466 O 2096.95 1.81246 0.213598 0
M  V30 22467 C 2097 1.54992 -3.26588 0
M  V30 22468 O 2096.72 0.650813 -4.33239 0
M  V30 22469 C 2098.22 2.3589 -3.75328 0
M  V30 22470 H 2095.44 0.2175 -0.634772 0
M  V30 22471 H 2097.98 0.0247547 -2.04485 0
M  V30 22472 H 2096.14 2.24495 -3.15722 0
M  V30 22473 H 2096.55 1.19628 -5.10675 0
M  V30 22474 H 2098.03 2.86216 -4.72 0
M  V30 22475 H 2098.5 3.16011 -3.05014 0
M  V30 22476 H 2099.11 1.71518 -3.89181 0
M  V30 22477 N 2097.42 1.54103 0.330149 0
M  V30 22478 C 2098.35 1.8602 1.41134 0
M  V30 22479 C 2099.33 0.716429 1.54277 0
M  V30 22480 O 2100.52 0.969568 1.68265 0
M  V30 22481 C 2097.65 2.08171 2.77997 0
M  V30 22482 C 2096.6 3.24007 2.79649 0
M  V30 22483 C 2095.93 3.31516 4.19525 0
M  V30 22484 C 2097.23 4.6181 2.43985 0
M  V30 22485 H 2098.92 2.76569 1.14672 0
M  V30 22486 H 2096.47 1.33074 0.550199 0
M  V30 22487 H 2098.42 2.29083 3.53694 0
M  V30 22488 H 2097.15 1.14364 3.05922 0
M  V30 22489 H 2095.81 3.02971 2.06407 0
M  V30 22490 H 2095.45 2.3528 4.44581 0
M  V30 22491 H 2095.15 4.09364 4.21538 0
M  V30 22492 H 2096.68 3.54655 4.97044 0
M  V30 22493 H 2098.09 4.82647 3.09395 0
M  V30 22494 H 2096.49 5.4216 2.5726 0
M  V30 22495 H 2097.56 4.64507 1.39146 0
M  V30 22496 N 2098.9 -0.59187 1.46064 0
M  V30 22497 C 2100.13 -1.38153 1.54688 0
M  V30 22498 C 2100.55 -1.87183 0.185547 0
M  V30 22499 O 2099.91 -1.61046 -0.832694 0
M  V30 22500 C 2099.96 -2.55134 2.54831 0
M  V30 22501 O 2099.06 -3.56279 2.077 0
M  V30 22502 H 2098.4 -0.41181 0.520873 0
M  V30 22503 H 2100.93 -0.718824 1.91557 0
M  V30 22504 H 2100.94 -3.02173 2.74145 0
M  V30 22505 H 2099.62 -2.188 3.53694 0
M  V30 22506 H 2098.2 -3.15782 1.98333 0
M  V30 22507 N 2100.38 -1.33616 -0.835729 0
M  V30 22508 C 2101.61 -1.28111 -1.62084 0
M  V30 22509 C 2102.02 0.149577 -1.88608 0
M  V30 22510 O 2101.36 1.10314 -1.4689 0
M  V30 22511 C 2101.42 -1.99073 -2.9935 0
M  V30 22512 C 2101.09 -3.48371 -2.95781 0
M  V30 22513 C 2102.08 -4.43516 -2.71273 0
M  V30 22514 C 2099.77 -3.90595 -3.15818 0
M  V30 22515 C 2101.76 -5.78859 -2.66835 0
M  V30 22516 C 2099.45 -5.26041 -3.11004 0
M  V30 22517 C 2100.45 -6.19985 -2.86544 0
M  V30 22518 O 2100.14 -7.5295 -2.8164 0
M  V30 22519 H 2099.87 -0.442615 -0.510948 0
M  V30 22520 H 2102.42 -1.76601 -1.04887 0
M  V30 22521 H 2100.65 -1.45179 -3.58413 0
M  V30 22522 H 2102.34 -1.87026 -3.60245 0
M  V30 22523 H 2103.11 -4.12218 -2.55541 0
M  V30 22524 H 2098.99 -3.1788 -3.33876 0
M  V30 22525 H 2102.53 -6.52157 -2.47663 0
M  V30 22526 H 2098.43 -5.56963 -3.26286 0
M  V30 22527 H 2099.2 -7.62535 -2.97459 0
M  V30 22528 N 2101.86 1.05436 -1.17136 0
M  V30 22529 C 2103.14 1.75275 -0.868216 0
M  V30 22530 C 2103.52 2.01415 0.632074 0
M  V30 22531 O 2102.86 1.64823 1.58258 0
M  V30 22532 C 2103.07 3.04772 -1.70044 0
M  V30 22533 C 2104.42 3.78768 -1.91885 0
M  V30 22534 O 2105.45 3.14636 -1.66982 0
M  V30 22535 O 2104.3 4.94 -2.33723 0
M  V30 22536 H 2101.4 0.762066 -0.321223 0
M  V30 22537 H 2103.94 1.11627 -1.27818 0
M  V30 22538 H 2102.72 2.81485 -2.71812 0
M  V30 22539 H 2102.34 3.76157 -1.28808 0
M  V30 22540 N 2103.34 0.971211 1.24118 0
M  V30 22541 C 2104.58 0.633768 1.91906 0
M  V30 22542 C 2104.91 -0.834157 1.76258 0
M  V30 22543 O 2104.18 -1.59579 1.13628 0
M  V30 22544 H 2102.76 0.231413 0.710251 0
M  V30 22545 H 2105.42 1.23304 1.50938 0
M  V30 22546 H 2104.51 0.877411 2.99513 0
M  V30 22547 N 2104.81 -1.39054 0.741747 0
M  V30 22548 C 2106.04 -2.05193 0.301789 0
M  V30 22549 C 2106.46 -1.55567 -1.05739 0
M  V30 22550 O 2105.82 -0.702382 -1.67141 0
M  V30 22551 C 2105.87 -3.59172 0.320615 0
M  V30 22552 O 2104.97 -4.06596 -0.68946 0
M  V30 22553 H 2104.32 -0.649957 0.135837 0
M  V30 22554 H 2106.85 -1.77958 1.00956 0
M  V30 22555 H 2106.86 -4.07657 0.167351 0
M  V30 22556 H 2105.53 -3.94652 1.31234 0
M  V30 22557 H 2104.11 -3.69509 -0.50178 0
M  V30 22558 N 2106.29 -0.489897 -1.49792 0
M  V30 22559 C 2107.22 0.283966 -2.31767 0
M  V30 22560 C 2108.2 0.972934 -1.39528 0
M  V30 22561 O 2109.39 0.966482 -1.68442 0
M  V30 22562 C 2106.52 1.35538 -3.19761 0
M  V30 22563 C 2105.47 0.786932 -4.20703 0
M  V30 22564 C 2104.8 1.95803 -4.97559 0
M  V30 22565 C 2106.1 -0.214528 -5.21859 0
M  V30 22566 H 2107.79 -0.40025 -2.96713 0
M  V30 22567 H 2105.34 -0.193932 -1.42688 0
M  V30 22568 H 2107.29 1.90438 -3.75914 0
M  V30 22569 H 2106.02 2.06862 -2.52736 0
M  V30 22570 H 2104.67 0.259755 -3.65679 0
M  V30 22571 H 2104.32 2.65871 -4.26992 0
M  V30 22572 H 2104.02 1.58381 -5.65853 0
M  V30 22573 H 2105.55 2.51159 -5.56553 0
M  V30 22574 H 2106.96 0.245954 -5.72772 0
M  V30 22575 H 2105.36 -0.504002 -5.9798 0
M  V30 22576 H 2106.43 -1.13417 -4.71449 0
M  V30 22577 N 2107.77 1.56011 -0.223262 0
M  V30 22578 C 2109.19 1.59052 0.132091 0
M  V30 22579 C 2109.39 1.2401 1.5882 0
M  V30 22580 O 2108.44 0.976155 2.32868 0
M  V30 22581 C 2109.76 3.00062 -0.195742 0
M  V30 22582 C 2111.3 3.12695 -0.138118 0
M  V30 22583 C 2111.78 4.55885 -0.439651 0
M  V30 22584 N 2113.27 4.61561 -0.389284 0
M  V30 22585 C 2114 5.70293 -0.596069 0
M  V30 22586 N 2113.5 6.87382 -0.86472 0
M  V30 22587 N 2115.29 5.59611 -0.528389 0
M  V30 22588 H 2107.44 1.77064 -1.17312 0
M  V30 22589 H 2109.71 0.823097 -0.470336 0
M  V30 22590 H 2109.41 3.3036 -1.20644 0
M  V30 22591 H 2109.29 3.74024 0.48845 0
M  V30 22592 H 2111.67 2.82192 0.863219 0
M  V30 22593 H 2111.76 2.41059 -0.855813 0
M  V30 22594 H 2111.4 4.87105 -1.43843 0
M  V30 22595 H 2111.33 5.25749 0.299255 0
M  V30 22596 H 2113.82 3.77425 -0.189406 0
M  V30 22597 H 2114.13 7.66164 -1.01056 0
M  V30 22598 H 2112.48 6.89123 -0.901933 0
M  V30 22599 H 2115.67 4.67014 -0.318724 0
M  V30 22600 H 2115.84 6.44284 -0.69295 0
M  V30 22601 N 2109.25 -0.0501116 1.5752 0
M  V30 22602 C 2110.2 -1.06457 2.01621 0
M  V30 22603 C 2111.18 -1.3325 0.901851 0
M  V30 22604 O 2112.37 -1.33187 1.16577 0
M  V30 22605 C 2109.5 -2.37203 2.48173 0
M  V30 22606 C 2108.59 -2.13592 3.66387 0
M  V30 22607 N 2108.98 -1.59973 4.79836 0
M  V30 22608 C 2107.28 -2.43972 3.73355 0
M  V30 22609 C 2107.98 -1.5168 5.61576 0
M  V30 22610 N 2106.96 -1.985 5.06062 0
M  V30 22611 H 2110.76 -0.643677 2.86765 0
M  V30 22612 H 2108.27 -0.256812 1.60357 0
M  V30 22613 H 2110.27 -3.10665 2.78016 0
M  V30 22614 H 2108.93 -2.7999 1.64425 0
M  V30 22615 H 2109.94 -1.28533 5.01697 0
M  V30 22616 H 2106.62 -2.89977 3.00366 0
M  V30 22617 H 2108.01 -1.10893 6.62686 0
M  V30 22618 N 2110.73 -1.54276 -0.321972 0
M  V30 22619 C 2111.67 -1.83772 -1.3963 0
M  V30 22620 C 2112.64 -0.684941 -1.5132 0
M  V30 22621 O 2113.83 -0.931526 -1.66515 0
M  V30 22622 C 2110.97 -2.07212 -2.75966 0
M  V30 22623 C 2110.08 -3.34892 -2.72895 0
M  V30 22624 C 2109.22 -3.48284 -4.01088 0
M  V30 22625 C 2108.26 -4.69833 -3.9233 0
M  V30 22626 N 2107.39 -4.80144 -5.12256 0
M  V30 22627 H 2112.23 -2.75425 -1.13777 0
M  V30 22628 H 2109.77 -1.36401 -0.550737 0
M  V30 22629 H 2111.73 -2.18794 -3.55225 0
M  V30 22630 H 2110.36 -1.18848 -3.00125 0
M  V30 22631 H 2109.41 -3.32039 -1.85618 0
M  V30 22632 H 2110.72 -4.2426 -2.62307 0
M  V30 22633 H 2109.88 -3.59417 -4.88778 0
M  V30 22634 H 2108.61 -2.57011 -4.14483 0
M  V30 22635 H 2107.62 -4.58755 -3.03024 0
M  V30 22636 H 2108.84 -5.62492 -3.80498 0
M  V30 22637 H 2106.79 -3.91787 -5.26155 0
M  V30 22638 H 2106.71 -5.6348 -5.0401 0
M  V30 22639 H 2107.98 -4.9561 -6.01657 0
M  V30 22640 N 2112.2 0.584116 -1.46376 0
M  V30 22641 C 2113.45 1.34238 -1.51613 0
M  V30 22642 C 2113.78 1.93779 -0.167271 0
M  V30 22643 O 2113.03 1.76902 0.836914 0
M  V30 22644 C 2113.33 2.49232 -2.56161 0
M  V30 22645 C 2113 2.07692 -4.00219 0
M  V30 22646 C 2111.66 1.96078 -4.39439 0
M  V30 22647 C 2114.01 1.75625 -4.90719 0
M  V30 22648 C 2111.34 1.50653 -5.67028 0
M  V30 22649 C 2113.69 1.3168 -6.18743 0
M  V30 22650 C 2112.36 1.18641 -6.56872 0
M  V30 22651 H 2111.63 0.491211 -0.554791 0
M  V30 22652 H 2114.27 0.657889 -1.79845 0
M  V30 22653 H 2112.58 3.23121 -2.21585 0
M  V30 22654 H 2114.28 3.07448 -2.57443 0
M  V30 22655 H 2110.87 2.17665 -3.69215 0
M  V30 22656 H 2115.05 1.83484 -4.61137 0
M  V30 22657 H 2110.31 1.39201 -5.95343 0
M  V30 22658 H 2114.48 1.0592 -6.88298 0
M  V30 22659 H 2112.11 0.832188 -7.55631 0
M  V30 22660 N 2113.68 1.34058 0.828631 0
M  V30 22661 C 2114.61 1.278 1.95421 0
M  V30 22662 C 2115.59 0.156548 1.69378 0
M  V30 22663 O 2116.78 0.347987 1.91057 0
M  V30 22664 C 2113.91 1.02688 3.31772 0
M  V30 22665 C 2112.86 2.11238 3.7224 0
M  V30 22666 C 2112.19 1.71324 5.0651 0
M  V30 22667 C 2113.49 3.53014 3.84939 0
M  V30 22668 H 2115.18 2.21977 2.00914 0
M  V30 22669 H 2112.73 1.06859 0.965253 0
M  V30 22670 H 2114.68 0.969571 4.10094 0
M  V30 22671 H 2113.41 0.0495214 3.26562 0
M  V30 22672 H 2112.07 2.16029 2.96188 0
M  V30 22673 H 2111.71 0.722632 4.97782 0
M  V30 22674 H 2111.41 2.43972 5.34557 0
M  V30 22675 H 2112.94 1.67077 5.87297 0
M  V30 22676 H 2114.35 3.50667 4.53547 0
M  V30 22677 H 2112.75 4.24235 4.24434 0
M  V30 22678 H 2113.82 3.90772 2.87098 0
M  V30 22679 N 2115.16 -1.04814 1.17694 0
M  V30 22680 C 2116.44 -1.74812 0.877499 0
M  V30 22681 C 2116.82 -2.01747 -0.621383 0
M  V30 22682 O 2116.17 -1.6566 -1.57382 0
M  V30 22683 C 2116.38 -3.03866 1.71658 0
M  V30 22684 C 2117.72 -3.77745 1.93891 0
M  V30 22685 O 2118.75 -3.13746 1.68648 0
M  V30 22686 O 2117.61 -4.92753 2.3634 0
M  V30 22687 H 2114.7 -0.760352 0.32526 0
M  V30 22688 H 2117.25 -1.10947 1.28409 0
M  V30 22689 H 2116.02 -2.8004 2.73301 0
M  V30 22690 H 2115.64 -3.75469 1.30801 0
M  V30 22691 N 2116.64 -0.977779 -1.23601 0
M  V30 22692 C 2117.86 -0.662789 -1.96524 0
M  V30 22693 C 2118.29 0.763086 -1.71926 0
M  V30 22694 O 2117.65 1.51941 -0.989123 0
M  V30 22695 C 2117.7 -0.95584 -3.47701 0
M  V30 22696 O 2116.8 -0.046501 -4.12374 0
M  V30 22697 H 2116.14 -0.249541 -0.615325 0
M  V30 22698 H 2118.67 -1.31066 -1.57108 0
M  V30 22699 H 2118.68 -0.891475 -3.98142 0
M  V30 22700 H 2117.36 -1.99494 -3.64932 0
M  V30 22701 H 2115.93 -0.165051 -3.72535 0
M  V30 22702 N 2118.12 1.38658 -0.749111 0
M  V30 22703 C 2119.07 2.3235 -0.10773 0
M  V30 22704 C 2120.06 1.5379 0.710284 0
M  V30 22705 O 2121.27 1.69353 0.609885 0
M  V30 22706 H 2117.64 0.751829 -0.0160406 0
M  V30 22707 H 2119.61 2.84055 -0.91408 0
M  V30 22708 C 2118.36 3.38962 0.774615 0
M  V30 22709 H 2117.68 3.99501 0.154555 0
M  V30 22710 H 2119.12 4.06936 1.19076 0
M  V30 22711 C 2117.58 2.77165 1.91524 0
M  V30 22712 O 2118.11 2.66119 3.00904 0
M  V30 22713 N 2116.32 2.35041 1.70892 0
M  V30 22714 H 2115.87 2.44224 0.819286 0
M  V30 22715 H 2115.82 1.94035 2.47382 0
M  V30 22716 N 2119.6 0.497834 1.49531 0
M  V30 22717 C 2120.84 -0.0496362 2.01639 0
M  V30 22718 C 2121.16 -1.3834 1.38281 0
M  V30 22719 O 2122.36 -2.01737 1.81699 0
M  V30 22720 C 2120.82 -0.138928 3.59632 0
M  V30 22721 C 2120.43 1.188 4.31961 0
M  V30 22722 C 2122.17 -0.636931 4.19694 0
M  V30 22723 C 2120.08 1.06104 5.81804 0
M  V30 22724 H 2119.01 -0.0223237 0.753669 0
M  V30 22725 H 2121.66 0.636776 1.72097 0
M  V30 22726 H 2120.04 -0.88972 3.85876 0
M  V30 22727 H 2121.22 1.95184 4.17421 0
M  V30 22728 H 2119.53 1.61919 3.83629 0
M  V30 22729 H 2122.13 -0.749374 5.29423 0
M  V30 22730 H 2122.47 -1.63499 3.8285 0
M  V30 22731 H 2123 0.0572358 3.97759 0
M  V30 22732 H 2119.74 2.03327 6.23168 0
M  V30 22733 H 2119.26 0.33804 5.98847 0
M  V30 22734 H 2120.94 0.738481 6.42772 0
M  V30 22735 N 2121.07 -1.5589 0.231532 0
M  V30 22736 C 2122.02 -2.20725 -0.674461 0
M  V30 22737 C 2122.99 -1.16607 -1.18288 0
M  V30 22738 O 2124.18 -1.44999 -1.24016 0
M  V30 22739 C 2121.32 -2.89876 -1.87259 0
M  V30 22740 C 2120.43 -4.08613 -1.40213 0
M  V30 22741 C 2119.56 -4.6552 -2.55861 0
M  V30 22742 C 2118.6 -5.76537 -2.05601 0
M  V30 22743 N 2117.74 -6.27692 -3.14558 0
M  V30 22744 H 2122.58 -2.97779 -0.114866 0
M  V30 22745 H 2120.12 -1.47031 -0.0449395 0
M  V30 22746 H 2122.07 -3.28159 -2.57619 0
M  V30 22747 H 2120.7 -2.15324 -2.4049 0
M  V30 22748 H 2119.76 -3.75748 -0.593106 0
M  V30 22749 H 2121.07 -4.88802 -0.993676 0
M  V30 22750 H 2120.22 -5.06297 -3.34288 0
M  V30 22751 H 2118.96 -3.84514 -3.00001 0
M  V30 22752 H 2117.97 -5.35252 -1.25639 0
M  V30 22753 H 2119.19 -6.59384 -1.62449 0
M  V30 22754 H 2117.14 -5.49597 -3.58161 0
M  V30 22755 H 2117.05 -7.03032 -2.77996 0
M  V30 22756 H 2118.32 -6.73127 -3.93091 0
M  V30 22757 N 2122.55 0.0417572 -1.57545 0
M  V30 22758 C 2123.8 0.7351 -1.88686 0
M  V30 22759 C 2124.13 1.76032 -0.827216 0
M  V30 22760 O 2123.38 1.94931 0.173363 0
M  V30 22761 C 2123.68 1.45244 -3.26556 0
M  V30 22762 C 2123.35 0.56439 -4.47354 0
M  V30 22763 C 2122.01 0.319756 -4.80136 0
M  V30 22764 C 2124.36 -0.0495197 -5.21176 0
M  V30 22765 C 2121.69 -0.547773 -5.84137 0
M  V30 22766 C 2124.04 -0.904676 -6.26098 0
M  V30 22767 C 2122.7 -1.15889 -6.57363 0
M  V30 22768 H 2121.97 0.268992 -0.690452 0
M  V30 22769 H 2124.62 -0.00478987 -1.91499 0
M  V30 22770 H 2122.93 2.26532 -3.19673 0
M  V30 22771 H 2124.62 1.99422 -3.47896 0
M  V30 22772 H 2121.21 0.765207 -4.21714 0
M  V30 22773 H 2125.4 0.126537 -4.96139 0
M  V30 22774 H 2120.65 -0.753169 -6.06743 0
M  V30 22775 H 2124.83 -1.38695 -6.82449 0
M  V30 22776 H 2122.45 -1.83286 -7.37774 0
M  V30 22777 N 2124.03 1.54445 0.313786 0
M  V30 22778 C 2125.25 1.77413 1.07421 0
M  V30 22779 C 2125.68 0.525885 1.80599 0
M  V30 22780 O 2125.04 -0.523027 1.73592 0
M  V30 22781 C 2125.09 2.97322 2.04039 0
M  V30 22782 O 2124.19 2.69552 3.12115 0
M  V30 22783 H 2123.53 0.587597 0.309235 0
M  V30 22784 H 2126.06 2.01495 0.355102 0
M  V30 22785 H 2126.07 3.2494 2.46735 0
M  V30 22786 H 2124.75 3.87839 1.5018 0
M  V30 22787 H 2123.32 2.52913 2.74025 0
M  V30 22788 N 2125.51 -0.576345 1.46683 0
M  V30 22789 C 2126.46 -1.68 1.54143 0
M  V30 22790 C 2127.44 -1.55802 0.401829 0
M  V30 22791 O 2128.63 -1.64608 0.650624 0
M  V30 22792 C 2125.76 -3.06786 1.54069 0
M  V30 22793 C 2124.85 -3.24257 2.73346 0
M  V30 22794 N 2125.24 -3.11864 3.98214 0
M  V30 22795 C 2123.54 -3.55213 2.69704 0
M  V30 22796 C 2124.24 -3.31512 4.7799 0
M  V30 22797 N 2123.21 -3.56962 4.09974 0
M  V30 22798 H 2127.02 -1.56958 2.48478 0
M  V30 22799 H 2124.53 -0.780562 1.42411 0
M  V30 22800 H 2126.53 -3.86004 1.57501 0
M  V30 22801 H 2125.19 -3.18954 0.608155 0
M  V30 22802 H 2126.2 -2.89595 4.29366 0
M  V30 22803 H 2122.88 -3.74026 1.85502 0
M  V30 22804 H 2124.27 -3.27059 5.86926 0
M  V30 22805 N 2126.99 -1.34495 -0.82151 0
M  V30 22806 C 2128.23 -1.27119 -1.58014 0
M  V30 22807 C 2128.56 0.158163 -1.93555 0
M  V30 22808 O 2127.84 1.10389 -1.60139 0
M  V30 22809 C 2128.12 -2.16338 -2.87871 0
M  V30 22810 C 2127.98 -3.67818 -2.58902 0
M  V30 22811 C 2129.29 -2.04971 -3.89455 0
M  V30 22812 H 2126.41 -0.463115 -0.573318 0
M  V30 22813 H 2129.06 -1.6476 -0.946264 0
M  V30 22814 H 2127.21 -1.84367 -3.41966 0
M  V30 22815 H 2128.88 -4.10161 -2.11106 0
M  V30 22816 H 2127.12 -3.88837 -1.92324 0
M  V30 22817 H 2127.79 -4.25612 -3.51509 0
M  V30 22818 H 2130.27 -2.33044 -3.44717 0
M  V30 22819 H 2129.14 -2.6962 -4.78118 0
M  V30 22820 H 2129.4 -1.02711 -4.30003 0
M  V30 22821 N 2128.46 1.04188 -1.18248 0
M  V30 22822 C 2129.37 2.15666 -0.923339 0
M  V30 22823 C 2130.39 1.73638 0.112112 0
M  V30 22824 O 2131.57 2.0128 -0.0695153 0
M  V30 22825 C 2128.63 3.43751 -0.451239 0
M  V30 22826 C 2127.69 4.00167 -1.55451 0
M  V30 22827 C 2126.93 5.22139 -1.10484 0
M  V30 22828 O 2127.15 5.70388 0.0369453 0
M  V30 22829 O 2126.08 5.71056 -1.90207 0
M  V30 22830 H 2129.91 2.40381 -1.85609 0
M  V30 22831 H 2127.49 1.14121 -0.9642 0
M  V30 22832 H 2129.38 4.20944 -0.195977 0
M  V30 22833 H 2128.05 3.20511 0.45323 0
M  V30 22834 H 2126.96 3.24368 -1.86377 0
M  V30 22835 H 2128.29 4.27745 -2.43506 0
M  V30 22836 N 2129.94 0.98432 1.23081 0
M  V30 22837 C 2130.89 0.527474 2.24692 0
M  V30 22838 C 2131.86 -0.435706 1.60284 0
M  V30 22839 O 2133.04 -0.342378 1.87703 0
M  V30 22840 C 2130.18 -0.160141 3.44728 0
M  V30 22841 C 2129.3 0.843763 4.2368 0
M  V30 22842 C 2128.43 0.130552 5.3104 0
M  V30 22843 C 2127.47 1.1234 6.01703 0
M  V30 22844 N 2126.61 0.439082 7.00726 0
M  V30 22845 H 2131.45 1.39873 2.63134 0
M  V30 22846 H 2128.99 0.700815 1.29333 0
M  V30 22847 H 2130.94 -0.575649 4.1321 0
M  V30 22848 H 2129.57 -0.995239 3.07075 0
M  V30 22849 H 2128.63 1.37764 3.54578 0
M  V30 22850 H 2129.94 1.60017 4.72436 0
M  V30 22851 H 2129.09 -0.342123 6.05735 0
M  V30 22852 H 2127.83 -0.65843 4.83235 0
M  V30 22853 H 2126.84 1.60679 5.25797 0
M  V30 22854 H 2128.06 1.91311 6.51596 0
M  V30 22855 H 2126.01 -0.33062 6.55166 0
M  V30 22856 H 2125.92 1.13408 7.47445 0
M  V30 22857 H 2127.19 -0.0110751 7.79499 0
M  V30 22858 N 2131.42 -1.38259 0.756453 0
M  V30 22859 C 2132.35 -2.33042 0.146158 0
M  V30 22860 C 2133.33 -1.55012 -0.700373 0
M  V30 22861 O 2134.52 -1.83317 -0.640972 0
M  V30 22862 C 2131.65 -3.39202 -0.745585 0
M  V30 22863 C 2130.6 -4.28 -0.00155995 0
M  V30 22864 C 2129.93 -5.25041 -1.01174 0
M  V30 22865 C 2131.23 -5.09061 1.16852 0
M  V30 22866 H 2132.92 -2.84329 0.937934 0
M  V30 22867 H 2130.47 -1.36706 0.452478 0
M  V30 22868 H 2132.42 -4.04477 -1.18223 0
M  V30 22869 H 2131.14 -2.86405 -1.56971 0
M  V30 22870 H 2129.8 -3.64236 0.415692 0
M  V30 22871 H 2129.45 -4.68529 -1.83001 0
M  V30 22872 H 2129.15 -5.85307 -0.518554 0
M  V30 22873 H 2130.67 -5.93191 -1.44764 0
M  V30 22874 H 2132.09 -5.67559 0.809284 0
M  V30 22875 H 2130.49 -5.78577 1.59276 0
M  V30 22876 H 2131.56 -4.42631 1.98004 0
M  V30 22877 N 2132.9 -0.505757 -1.49264 0
M  V30 22878 C 2134.15 0.0369987 -2.02066 0
M  V30 22879 C 2134.47 1.37044 -1.38723 0
M  V30 22880 O 2133.74 1.8819 -0.544182 0
M  V30 22881 H 2132.32 0.0166628 -0.746814 0
M  V30 22882 H 2134.98 -0.66408 -1.83238 0
M  V30 22883 H 2134.08 0.163179 -3.11673 0
M  V30 22884 N 2134.38 1.55765 -0.239796 0
M  V30 22885 C 2135.32 2.22467 0.679046 0
M  V30 22886 C 2136.32 1.20993 1.18562 0
M  V30 22887 O 2137.52 1.39024 1.14334 0
M  V30 22888 H 2133.9 0.713528 0.237447 0
M  V30 22889 H 2135.87 2.98254 0.0932403 0
M  V30 22890 C 2134.62 2.93244 1.86825 0
M  V30 22891 H 2133.94 3.71094 1.48759 0
M  V30 22892 H 2135.38 3.43289 2.48855 0
M  V30 22893 C 2133.84 1.96721 2.735 0
M  V30 22894 O 2134.37 1.49575 3.72814 0
M  V30 22895 N 2132.58 1.63976 2.39917 0
M  V30 22896 H 2132.12 2.02511 1.59208 0
M  V30 22897 H 2132.08 0.996588 2.98187 0
M  V30 22898 N 2135.85 -0.0334016 1.57565 0
M  V30 22899 C 2136.8 -1.05382 2.07358 0
M  V30 22900 C 2137.8 -1.37713 0.986479 0
M  V30 22901 O 2139 -1.36669 1.17139 0
M  V30 22902 H 2135.38 -0.357353 0.661667 0
M  V30 22903 H 2137.35 -0.608016 2.9214 0
M  V30 22904 C 2136.1 -2.34757 2.56485 0
M  V30 22905 H 2135.42 -2.10738 3.39749 0
M  V30 22906 H 2136.86 -3.04512 2.9504 0
M  V30 22907 C 2135.32 -3.03419 1.46419 0
M  V30 22908 O 2135.85 -3.93075 0.827955 0
M  V30 22909 N 2134.06 -2.64676 1.19979 0
M  V30 22910 H 2133.6 -1.91854 1.71901 0
M  V30 22911 H 2133.56 -3.10935 0.465483 0
M  V30 22912 N 2137.33 -1.54609 -0.305591 0
M  V30 22913 C 2138.74 -1.64719 -0.878888 0
M  V30 22914 C 2139.09 -0.552868 -1.88249 0
M  V30 22915 O 2138.22 0.311274 -2.1415 0
M  V30 22916 C 2138.81 -2.98593 -1.60087 0
M  V30 22917 C 2137.37 -3.10839 -2.12264 0
M  V30 22918 C 2136.52 -2.6038 -0.953822 0
M  V30 22919 H 2139.47 -1.58484 -0.0827074 0
M  V30 22920 H 2139.49 -2.89759 -2.46617 0
M  V30 22921 H 2139 -3.78219 -0.870185 0
M  V30 22922 H 2137.11 -2.35924 -2.88394 0
M  V30 22923 H 2137.22 -4.16924 -2.36031 0
M  V30 22924 H 2135.58 -2.16719 -1.33809 0
M  V30 22925 H 2136.37 -3.4248 -0.237166 0
M  V30 22926 N 2138.81 0.568558 -1.46987 0
M  V30 22927 C 2140.06 1.32819 -1.53255 0
M  V30 22928 C 2140.39 1.93274 -0.189458 0
M  V30 22929 O 2139.66 1.77254 0.800699 0
M  V30 22930 C 2139.95 2.44688 -2.64196 0
M  V30 22931 C 2139.8 1.89176 -4.08084 0
M  V30 22932 C 2141.12 3.46671 -2.71122 0
M  V30 22933 H 2138.24 0.481565 -0.557911 0
M  V30 22934 H 2140.88 0.637355 -1.78991 0
M  V30 22935 H 2139.03 3.03617 -2.42382 0
M  V30 22936 H 2140.7 1.34596 -4.41227 0
M  V30 22937 H 2138.95 1.19918 -4.16896 0
M  V30 22938 H 2139.62 2.69995 -4.81463 0
M  V30 22939 H 2142.09 2.97645 -2.90769 0
M  V30 22940 H 2140.97 4.22387 -3.50543 0
M  V30 22941 H 2141.23 4.04802 -1.7773 0
M  V30 22942 N 2140.29 1.34929 0.814366 0
M  V30 22943 C 2141.51 1.31019 1.60776 0
M  V30 22944 C 2141.94 -0.111347 1.8777 0
M  V30 22945 O 2141.3 -1.07577 1.45935 0
M  V30 22946 C 2141.34 2.11503 2.92059 0
M  V30 22947 O 2140.45 1.49042 3.84526 0
M  V30 22948 H 2139.79 0.449572 0.488652 0
M  V30 22949 H 2142.32 1.77857 1.01133 0
M  V30 22950 H 2142.33 2.23174 3.41552 0
M  V30 22951 H 2141 3.14853 2.71736 0
M  V30 22952 H 2139.58 1.46165 3.4306 0
M  V30 22953 N 2141.77 -1.0356 1.18799 0
M  V30 22954 C 2142.71 -2.11687 0.919622 0
M  V30 22955 C 2143.68 -1.65484 -0.142958 0
M  V30 22956 O 2144.87 -1.908 -0.00223972 0
M  V30 22957 C 2142.01 -3.4206 0.457036 0
M  V30 22958 C 2141.12 -4.01848 1.58562 0
M  V30 22959 C 2140.26 -5.20204 1.07524 0
M  V30 22960 C 2139.3 -5.72033 2.17817 0
M  V30 22961 N 2138.43 -6.8167 1.68136 0
M  V30 22962 H 2143.27 -2.33981 1.84546 0
M  V30 22963 H 2140.81 -1.14766 0.920172 0
M  V30 22964 H 2142.77 -4.16852 0.170279 0
M  V30 22965 H 2141.4 -3.19899 -0.431815 0
M  V30 22966 H 2140.45 -3.24335 1.98774 0
M  V30 22967 H 2141.76 -4.36338 2.41684 0
M  V30 22968 H 2140.92 -6.02129 0.743314 0
M  V30 22969 H 2139.65 -4.87232 0.213672 0
M  V30 22970 H 2138.66 -4.88725 2.51849 0
M  V30 22971 H 2139.88 -6.07047 3.04418 0
M  V30 22972 H 2137.83 -6.50564 0.842764 0
M  V30 22973 H 2137.75 -7.15251 2.44852 0
M  V30 22974 H 2139.02 -7.67208 1.37886 0
M  V30 22975 N 2143.25 -0.990834 -1.22557 0
M  V30 22976 C 2144.49 -0.664218 -1.90873 0
M  V30 22977 C 2144.81 0.80601 -1.77563 0
M  V30 22978 O 2144.08 1.57751 -1.16153 0
M  V30 22979 H 2142.66 -0.242684 -0.70648 0
M  V30 22980 H 2145.33 -1.2569 -1.48957 0
M  V30 22981 H 2144.42 -0.924949 -2.98079 0
M  V30 22982 N 2144.72 1.37856 -0.763775 0
M  V30 22983 C 2145.65 2.32961 -0.158515 0
M  V30 22984 C 2146.63 1.55381 0.692142 0
M  V30 22985 O 2147.82 1.83655 0.631241 0
M  V30 22986 C 2144.95 3.39593 0.727585 0
M  V30 22987 C 2143.9 4.27995 -0.0211379 0
M  V30 22988 C 2143.23 5.2557 0.983884 0
M  V30 22989 C 2144.53 5.08434 -1.1955 0
M  V30 22990 H 2146.22 2.83828 -0.952999 0
M  V30 22991 H 2143.77 1.36465 -0.459721 0
M  V30 22992 H 2145.72 4.05098 1.16076 0
M  V30 22993 H 2144.45 2.87233 1.5545 0
M  V30 22994 H 2143.11 3.6401 -0.435002 0
M  V30 22995 H 2142.75 4.69493 1.80514 0
M  V30 22996 H 2142.45 5.85574 0.487507 0
M  V30 22997 H 2143.98 5.9395 1.41616 0
M  V30 22998 H 2145.39 5.67122 -0.839372 0
M  V30 22999 H 2143.79 5.77724 -1.62342 0
M  V30 23000 H 2144.86 4.41575 -2.00349 0
M  V30 23001 N 2146.2 0.513665 1.48994 0
M  V30 23002 C 2147.13 -0.247058 2.32189 0
M  V30 23003 C 2148.11 -0.950613 1.41058 0
M  V30 23004 O 2149.3 -0.939562 1.69958 0
M  V30 23005 C 2146.43 -1.30433 3.21876 0
M  V30 23006 C 2145.38 -0.719902 4.21902 0
M  V30 23007 C 2144.71 -1.87863 5.00611 0
M  V30 23008 C 2146.01 0.297524 5.21452 0
M  V30 23009 H 2147.7 0.447403 2.96038 0
M  V30 23010 H 2145.25 0.216608 1.42362 0
M  V30 23011 H 2147.2 -1.84434 3.78896 0
M  V30 23012 H 2145.92 -2.02815 2.55995 0
M  V30 23013 H 2144.58 -0.201546 3.66046 0
M  V30 23014 H 2144.23 -2.59044 4.31167 0
M  V30 23015 H 2143.93 -1.49359 5.68301 0
M  V30 23016 H 2145.46 -2.42273 5.60478 0
M  V30 23017 H 2146.87 -0.1548 5.73091 0
M  V30 23018 H 2145.27 0.599071 5.97102 0
M  V30 23019 H 2146.34 1.20903 4.69585 0
M  V30 23020 N 2147.68 -1.55636 0.248053 0
M  V30 23021 C 2148.93 -1.98148 -0.376864 0
M  V30 23022 C 2149.24 -1.13944 -1.58984 0
M  V30 23023 O 2150.45 -1.46475 -2.28598 0
M  V30 23024 C 2148.9 -3.52586 -0.721883 0
M  V30 23025 C 2148.51 -4.4553 0.469765 0
M  V30 23026 C 2150.26 -4.03751 -1.31093 0
M  V30 23027 C 2148.16 -5.91314 0.100837 0
M  V30 23028 H 2147.09 -0.740008 -0.144582 0
M  V30 23029 H 2149.74 -1.80161 0.348451 0
M  V30 23030 H 2148.13 -3.66272 -1.50536 0
M  V30 23031 H 2149.3 -4.43604 1.24708 0
M  V30 23032 H 2147.61 -4.04853 0.973816 0
M  V30 23033 H 2150.21 -5.10191 -1.6003 0
M  V30 23034 H 2150.55 -3.51167 -2.23578 0
M  V30 23035 H 2151.09 -3.93395 -0.590329 0
M  V30 23036 H 2147.83 -6.47937 0.992861 0
M  V30 23037 H 2147.35 -5.96373 -0.640255 0
M  V30 23038 H 2149.03 -6.46225 -0.316571 0
M  V30 23039 N 2149.16 0.0250451 -1.5758 0
M  V30 23040 C 2150.4 0.715046 -1.89455 0
M  V30 23041 C 2150.73 1.75145 -0.84584 0
M  V30 23042 O 2149.99 1.95104 0.152678 0
M  V30 23043 C 2150.29 1.41772 -3.28079 0
M  V30 23044 C 2149.95 0.51691 -4.47927 0
M  V30 23045 C 2148.61 0.268813 -4.80449 0
M  V30 23046 C 2150.97 -0.104795 -5.21095 0
M  V30 23047 C 2148.29 -0.609698 -5.83523 0
M  V30 23048 C 2150.65 -0.971032 -6.25103 0
M  V30 23049 C 2149.31 -1.22855 -6.56097 0
M  V30 23050 H 2148.58 0.261654 -0.693266 0
M  V30 23051 H 2151.23 -0.0251007 -1.91484 0
M  V30 23052 H 2149.53 2.23128 -3.22057 0
M  V30 23053 H 2151.23 1.95721 -3.49992 0
M  V30 23054 H 2147.82 0.720436 -4.22502 0
M  V30 23055 H 2152 0.0739074 -4.96245 0
M  V30 23056 H 2147.26 -0.817479 -6.0591 0
M  V30 23057 H 2151.43 -1.45926 -6.80939 0
M  V30 23058 H 2149.06 -1.91101 -7.35788 0
M  V30 23059 N 2150.64 1.54769 0.297388 0
M  V30 23060 C 2151.91 1.64904 1.05195 0
M  V30 23061 C 2152.29 0.499658 2.05102 0
M  V30 23062 O 2151.64 -0.503202 2.2289 0
M  V30 23063 C 2151.85 3.03071 1.73058 0
M  V30 23064 C 2153.2 3.60007 2.25123 0
M  V30 23065 O 2154.22 3.05546 1.83085 0
M  V30 23066 O 2153.08 4.55371 3.02158 0
M  V30 23067 H 2150.18 0.668805 0.486444 0
M  V30 23068 H 2152.72 1.67113 0.295187 0
M  V30 23069 H 2151.49 3.78165 1.00534 0
M  V30 23070 H 2151.12 3.04655 2.55482 0
M  V30 23071 N 2152.11 -0.560755 1.47286 0
M  V30 23072 C 2153.08 -1.6502 1.59063 0
M  V30 23073 C 2154.08 -1.539 0.465997 0
M  V30 23074 O 2155.27 -1.58122 0.730962 0
M  V30 23075 C 2152.4 -3.04548 1.53177 0
M  V30 23076 H 2153.59 -1.5593 2.56176 0
M  V30 23077 H 2151.14 -0.780391 1.35424 0
M  V30 23078 H 2151.88 -3.19175 0.574264 0
M  V30 23079 H 2151.66 -3.14029 2.34794 0
M  V30 23080 H 2153.15 -3.83814 1.64549 0
M  V30 23081 N 2153.59 -1.35359 -0.807199 0
M  V30 23082 C 2154.82 -1.31869 -1.60079 0
M  V30 23083 C 2155.24 0.101387 -1.87827 0
M  V30 23084 O 2154.6 1.06801 -1.46503 0
M  V30 23085 C 2154.65 -2.13049 -2.90934 0
M  V30 23086 O 2153.75 -1.51079 -3.8373 0
M  V30 23087 H 2153.09 -0.452158 -0.486261 0
M  V30 23088 H 2155.62 -1.78391 -1.00189 0
M  V30 23089 H 2155.63 -2.24982 -3.40363 0
M  V30 23090 H 2154.31 -3.16289 -2.70063 0
M  V30 23091 H 2152.88 -1.47982 -3.4228 0
M  V30 23092 N 2155.07 1.02928 -1.19346 0
M  V30 23093 C 2156.29 1.80485 -1.02175 0
M  V30 23094 C 2156.72 1.83238 0.424925 0
M  V30 23095 O 2156.08 1.25809 1.30545 0
M  V30 23096 C 2156.13 3.23415 -1.59483 0
M  V30 23097 O 2155.23 4.04087 -0.823877 0
M  V30 23098 H 2154.57 0.557177 -0.361178 0
M  V30 23099 H 2157.1 1.29551 -1.5836 0
M  V30 23100 H 2157.11 3.74164 -1.62681 0
M  V30 23101 H 2155.79 3.20727 -2.64777 0
M  V30 23102 H 2154.36 3.62726 -0.865114 0
M  V30 23103 N 2156.55 0.997319 1.2203 0
M  V30 23104 C 2157.77 0.69397 1.95445 0
M  V30 23105 C 2158.2 -0.735638 1.73118 0
M  V30 23106 O 2157.56 -1.50348 1.01317 0
M  V30 23107 C 2157.6 1.01104 3.46136 0
M  V30 23108 O 2156.71 0.1121 4.12248 0
M  V30 23109 H 2156.05 0.259299 0.611277 0
M  V30 23110 H 2158.58 1.33549 1.55003 0
M  V30 23111 H 2158.59 0.954704 3.96673 0
M  V30 23112 H 2157.26 2.05274 3.61712 0
M  V30 23113 H 2155.84 0.224297 3.72225 0
M  V30 23114 N 2158.03 -1.37449 0.771075 0
M  V30 23115 C 2159.27 -2.0046 0.344602 0
M  V30 23116 C 2159.63 -1.60113 -1.06685 0
M  V30 23117 O 2158.92 -0.836909 -1.72355 0
M  V30 23118 C 2159.11 -3.54862 0.425162 0
M  V30 23119 C 2158.94 -4.10204 1.8429 0
M  V30 23120 C 2157.71 -4.41185 2.46342 0
M  V30 23121 C 2159.91 -4.31249 2.8023 0
M  V30 23122 N 2157.89 -4.82238 3.79895 0
M  V30 23123 C 2159.26 -4.74904 3.98581 0
M  V30 23124 C 2161.32 -4.13381 2.77526 0
M  V30 23125 C 2160.02 -5.02562 5.1461 0
M  V30 23126 C 2162.05 -4.42175 3.92728 0
M  V30 23127 C 2161.41 -4.86069 5.0982 0
M  V30 23128 H 2157.51 -0.762595 0.173129 0
M  V30 23129 H 2160.09 -1.66771 1.00476 0
M  V30 23130 H 2158.26 -3.8786 -0.204817 0
M  V30 23131 H 2160 -4.04693 -0.0233022 0
M  V30 23132 H 2156.75 -4.30241 1.97965 0
M  V30 23133 H 2157.18 -5.07074 4.48558 0
M  V30 23134 H 2161.82 -3.78618 1.88172 0
M  V30 23135 H 2159.54 -5.36215 6.04565 0
M  V30 23136 H 2163.12 -4.29938 3.91975 0
M  V30 23137 H 2162 -5.07922 5.97482 0
M  V30 23138 N 2159.5 -0.52156 -1.4872 0
M  V30 23139 C 2160.75 0.0155648 -2.02094 0
M  V30 23140 C 2161.07 1.35564 -1.40169 0
M  V30 23141 O 2160.34 1.87602 -0.564111 0
M  V30 23142 H 2158.92 0.0087409 -0.746949 0
M  V30 23143 H 2161.59 -0.683478 -1.82523 0
M  V30 23144 H 2160.68 0.130113 -3.11829 0
M  V30 23145 N 2160.98 1.55502 -0.256304 0
M  V30 23146 C 2162.39 1.85085 0.245072 0
M  V30 23147 C 2162.74 1.17822 1.56883 0
M  V30 23148 O 2161.87 0.459889 2.11457 0
M  V30 23149 C 2162.46 3.35779 0.451444 0
M  V30 23150 C 2161.02 3.65554 0.897072 0
M  V30 23151 C 2160.17 2.77293 -0.0203944 0
M  V30 23152 H 2163.12 1.51311 -0.478616 0
M  V30 23153 H 2163.14 3.57867 1.29273 0
M  V30 23154 H 2162.65 3.84706 -0.51217 0
M  V30 23155 H 2160.76 3.22112 1.87282 0
M  V30 23156 H 2160.87 4.73234 0.747422 0
M  V30 23157 H 2159.23 2.4989 0.492637 0
M  V30 23158 H 2160.02 3.29028 -0.979551 0
M  V30 23159 N 2162.46 -0.0166879 1.57591 0
M  V30 23160 C 2163.39 -1.04126 2.04182 0
M  V30 23161 C 2164.41 -1.31719 0.956768 0
M  V30 23162 O 2165.59 -1.28988 1.23387 0
M  V30 23163 C 2162.69 -2.38001 2.41265 0
M  V30 23164 C 2161.87 -2.29588 3.72301 0
M  V30 23165 C 2160.93 -3.46013 3.96436 0
M  V30 23166 O 2159.95 -3.2495 4.67328 0
M  V30 23167 N 2161.15 -4.68304 3.43033 0
M  V30 23168 H 2163.92 -0.644054 2.92698 0
M  V30 23169 H 2161.48 -0.204401 1.60605 0
M  V30 23170 H 2163.47 -3.14631 2.54538 0
M  V30 23171 H 2162.04 -2.69522 1.58355 0
M  V30 23172 H 2161.26 -1.37977 3.69264 0
M  V30 23173 H 2162.55 -2.21122 4.58238 0
M  V30 23174 H 2161.95 -4.88316 2.85593 0
M  V30 23175 H 2160.51 -5.42256 3.61665 0
M  V30 23176 N 2163.94 -1.54924 -0.289176 0
M  V30 23177 C 2164.87 -1.81593 -1.382 0
M  V30 23178 C 2165.85 -0.667861 -1.48251 0
M  V30 23179 O 2167.03 -0.909111 -1.65128 0
M  V30 23180 C 2164.16 -1.96318 -2.76002 0
M  V30 23181 C 2163.21 -3.18801 -2.83316 0
M  V30 23182 S 2164.04 -4.76575 -2.44206 0
M  V30 23183 C 2165.2 -4.94252 -3.84013 0
M  V30 23184 H 2165.43 -2.74001 -1.15372 0
M  V30 23185 H 2162.96 -1.46487 -0.487936 0
M  V30 23186 H 2164.92 -2.05486 -3.55367 0
M  V30 23187 H 2163.58 -1.04826 -2.96092 0
M  V30 23188 H 2162.77 -3.25942 -3.84419 0
M  V30 23189 H 2162.38 -3.0814 -2.11957 0
M  V30 23190 H 2164.67 -4.79 -4.79129 0
M  V30 23191 H 2165.61 -5.96329 -3.81835 0
M  V30 23192 H 2166.02 -4.22328 -3.74565 0
M  V30 23193 N 2165.42 0.552936 -1.47582 0
M  V30 23194 C 2166.64 1.34003 -1.58297 0
M  V30 23195 C 2167.07 1.86625 -0.23511 0
M  V30 23196 O 2166.42 1.63197 0.789702 0
M  V30 23197 C 2166.47 2.48288 -2.61506 0
M  V30 23198 O 2165.58 3.50647 -2.17073 0
M  V30 23199 H 2164.92 0.397855 -0.531608 0
M  V30 23200 H 2167.45 0.667783 -1.93395 0
M  V30 23201 H 2167.46 2.94798 -2.8206 0
M  V30 23202 H 2166.13 2.09345 -3.59371 0
M  V30 23203 H 2164.71 3.10413 -2.06636 0
M  V30 23204 N 2166.89 1.35785 0.800009 0
M  V30 23205 C 2167.86 1.29109 1.89377 0
M  V30 23206 C 2168.86 0.201077 1.59538 0
M  V30 23207 O 2170.05 0.455197 1.68148 0
M  V30 23208 C 2167.18 0.99888 3.25937 0
M  V30 23209 H 2168.37 2.2637 1.96715 0
M  V30 23210 H 2165.93 1.20404 0.996618 0
M  V30 23211 H 2166.66 0.0304071 3.24286 0
M  V30 23212 H 2166.45 1.78756 3.48982 0
M  V30 23213 H 2167.94 0.977941 4.05988 0
M  V30 23214 N 2168.37 -1.02294 1.19891 0
M  V30 23215 C 2169.6 -1.79941 1.03131 0
M  V30 23216 C 2170.02 -1.8346 -0.415201 0
M  V30 23217 O 2169.38 -1.26499 -1.29876 0
M  V30 23218 C 2169.43 -3.22565 1.61196 0
M  V30 23219 O 2168.53 -4.03644 0.845295 0
M  V30 23220 H 2167.87 -0.555254 0.364128 0
M  V30 23221 H 2170.4 -1.28709 1.59045 0
M  V30 23222 H 2170.41 -3.73296 1.64663 0
M  V30 23223 H 2169.09 -3.19318 2.66474 0
M  V30 23224 H 2167.67 -3.62262 0.884338 0
M  V30 23225 N 2169.85 -1.00378 -1.21499 0
M  V30 23226 C 2171.1 -0.686796 -1.90817 0
M  V30 23227 C 2171.43 0.780348 -1.77832 0
M  V30 23228 O 2170.7 1.56554 -1.15418 0
M  V30 23229 C 2170.99 -1.10705 -3.42661 0
M  V30 23230 C 2170.84 -2.63355 -3.64642 0
M  V30 23231 C 2172.16 -0.668506 -4.34993 0
M  V30 23232 H 2169.28 -0.250976 -0.69295 0
M  V30 23233 H 2171.92 -1.24924 -1.43157 0
M  V30 23234 H 2170.07 -0.628496 -3.83383 0
M  V30 23235 H 2171.74 -3.18964 -3.33256 0
M  V30 23236 H 2169.99 -3.04925 -3.0855 0
M  V30 23237 H 2170.66 -2.87812 -4.71029 0
M  V30 23238 H 2173.13 -1.07972 -4.01847 0
M  V30 23239 H 2172.01 -0.990733 -5.39885 0
M  V30 23240 H 2172.27 0.430413 -4.4 0
M  V30 23241 N 2171.33 1.37038 -0.778354 0
M  V30 23242 C 2172.28 2.27554 -0.14251 0
M  V30 23243 C 2173.26 1.46423 0.66702 0
M  V30 23244 O 2174.45 1.68913 0.528909 0
M  V30 23245 C 2171.58 3.35436 0.730593 0
M  V30 23246 C 2170.67 4.2401 -0.0871266 0
M  V30 23247 N 2171.06 4.92876 -1.13609 0
M  V30 23248 C 2169.36 4.45793 0.135807 0
M  V30 23249 C 2170.06 5.58309 -1.63295 0
M  V30 23250 N 2169.04 5.3534 -0.944018 0
M  V30 23251 H 2172.84 2.78275 -0.945535 0
M  V30 23252 H 2170.35 1.50233 -0.616743 0
M  V30 23253 H 2172.35 3.99198 1.20194 0
M  V30 23254 H 2171.01 2.86271 1.53229 0
M  V30 23255 H 2172.02 4.95143 -1.51835 0
M  V30 23256 H 2168.7 4.07487 0.908887 0
M  V30 23257 H 2170.09 6.23333 -2.50809 0
M  V30 23258 N 2172.81 0.529439 1.48441 0
M  V30 23259 C 2173.74 -0.222417 2.32438 0
M  V30 23260 C 2174.72 -0.935598 1.42058 0
M  V30 23261 O 2175.9 -0.921483 1.70945 0
M  V30 23262 C 2173.03 -1.27012 3.23242 0
M  V30 23263 C 2171.99 -0.675114 4.22642 0
M  V30 23264 C 2171.31 -1.82543 5.02576 0
M  V30 23265 C 2172.61 0.352815 5.21107 0
M  V30 23266 H 2174.31 0.478777 2.95547 0
M  V30 23267 H 2171.85 0.231695 1.42124 0
M  V30 23268 H 2173.81 -1.80405 3.80831 0
M  V30 23269 H 2172.53 -2.00089 2.58132 0
M  V30 23270 H 2171.19 -0.162711 3.66239 0
M  V30 23271 H 2170.84 -2.54456 4.33891 0
M  V30 23272 H 2170.54 -1.43323 5.69853 0
M  V30 23273 H 2172.06 -2.36315 5.63017 0
M  V30 23274 H 2173.48 -0.0940075 5.73223 0
M  V30 23275 H 2171.87 0.662368 5.96433 0
M  V30 23276 H 2172.94 1.25877 4.68277 0
M  V30 23277 N 2174.29 -1.55364 0.264547 0
M  V30 23278 C 2175.56 -1.9133 -0.406489 0
M  V30 23279 C 2175.94 -1.18752 -1.74531 0
M  V30 23280 O 2175.29 -0.310831 -2.26376 0
M  V30 23281 C 2175.5 -3.44523 -0.557199 0
M  V30 23282 C 2176.85 -4.16107 -0.844973 0
M  V30 23283 O 2177.87 -3.50359 -0.642406 0
M  V30 23284 O 2176.73 -5.32438 -1.23175 0
M  V30 23285 H 2173.83 -0.796963 -0.220859 0
M  V30 23286 H 2176.37 -1.66846 0.309918 0
M  V30 23287 H 2175.14 -3.89397 0.385423 0
M  V30 23288 H 2174.77 -3.74926 -1.32348 0
M  V30 23289 N 2175.76 0.00833021 -1.57598 0
M  V30 23290 C 2176.99 0.709778 -1.94877 0
M  V30 23291 C 2177.41 1.66973 -0.866121 0
M  V30 23292 O 2176.77 1.80439 0.176468 0
M  V30 23293 C 2176.82 1.42509 -3.31245 0
M  V30 23294 O 2175.92 2.53918 -3.2496 0
M  V30 23295 H 2175.26 0.189418 -0.636409 0
M  V30 23296 H 2177.79 -0.0423784 -2.04556 0
M  V30 23297 H 2177.8 1.79039 -3.66618 0
M  V30 23298 H 2176.48 0.72119 -4.09599 0
M  V30 23299 H 2175.06 2.19778 -3.01251 0
M  V30 23300 N 2177.24 1.55075 0.280956 0
M  V30 23301 C 2178.19 1.87409 1.34709 0
M  V30 23302 C 2179.16 0.72482 1.49451 0
M  V30 23303 O 2180.34 0.975348 1.63987 0
M  V30 23304 C 2177.48 2.14456 2.70375 0
M  V30 23305 C 2176.6 3.42009 2.6392 0
M  V30 23306 C 2175.73 3.58796 3.91713 0
M  V30 23307 C 2174.77 4.8007 3.79736 0
M  V30 23308 N 2173.91 4.93556 4.99346 0
M  V30 23309 H 2178.75 2.78344 1.06435 0
M  V30 23310 H 2176.28 1.37813 0.514379 0
M  V30 23311 H 2178.24 2.28135 3.493 0
M  V30 23312 H 2176.87 1.26764 2.96868 0
M  V30 23313 H 2175.92 3.36844 1.7675 0
M  V30 23314 H 2177.24 4.31065 2.50967 0
M  V30 23315 H 2176.39 3.7225 4.79077 0
M  V30 23316 H 2175.13 2.6791 4.07524 0
M  V30 23317 H 2174.13 4.66628 2.90754 0
M  V30 23318 H 2175.36 5.72383 3.65451 0
M  V30 23319 H 2173.31 4.05599 5.15582 0
M  V30 23320 H 2173.22 5.76645 4.88893 0
M  V30 23321 H 2174.49 5.11387 5.88305 0
M  V30 23322 N 2178.72 -0.545102 1.47873 0
M  V30 23323 C 2179.67 -1.65111 1.61267 0
M  V30 23324 C 2180.64 -1.5974 0.455231 0
M  V30 23325 O 2181.82 -1.78392 0.676821 0
M  V30 23326 C 2178.96 -3.03411 1.64426 0
M  V30 23327 C 2178.07 -3.19128 2.91172 0
M  V30 23328 C 2177.21 -4.47898 2.85589 0
M  V30 23329 C 2176.25 -4.5709 4.07106 0
M  V30 23330 N 2175.39 -5.7723 3.99688 0
M  V30 23331 H 2180.23 -1.53001 2.55724 0
M  V30 23332 H 2177.76 -0.745128 1.26832 0
M  V30 23333 H 2179.72 -3.83511 1.6424 0
M  V30 23334 H 2178.35 -3.14327 0.734727 0
M  V30 23335 H 2177.4 -2.32379 3.01171 0
M  V30 23336 H 2178.71 -3.21783 3.81126 0
M  V30 23337 H 2177.87 -5.36272 2.8372 0
M  V30 23338 H 2176.61 -4.47741 1.93338 0
M  V30 23339 H 2175.61 -3.67125 4.09267 0
M  V30 23340 H 2176.84 -4.58998 5.00498 0
M  V30 23341 H 2174.78 -5.77998 3.10248 0
M  V30 23342 H 2174.7 -5.81315 4.83332 0
M  V30 23343 H 2175.97 -6.67932 4.01854 0
M  V30 23344 N 2180.2 -1.36208 -0.792797 0
M  V30 23345 C 2181.14 -1.30258 -1.90529 0
M  V30 23346 C 2182.11 -0.171903 -1.65208 0
M  V30 23347 O 2183.3 -0.357869 -1.87414 0
M  V30 23348 C 2180.44 -1.09434 -3.27289 0
M  V30 23349 C 2179.55 -2.31548 -3.64705 0
M  V30 23350 C 2178.69 -2.03763 -4.90565 0
M  V30 23351 C 2177.73 -3.21855 -5.20649 0
M  V30 23352 N 2176.86 -2.93756 -6.37692 0
M  V30 23353 H 2181.7 -2.25385 -1.9495 0
M  V30 23354 H 2179.24 -1.12022 -0.953389 0
M  V30 23355 H 2181.2 -0.953883 -4.06149 0
M  V30 23356 H 2179.83 -0.179641 -3.223 0
M  V30 23357 H 2178.88 -2.56409 -2.80996 0
M  V30 23358 H 2180.19 -3.19685 -3.82888 0
M  V30 23359 H 2179.35 -1.86627 -5.77283 0
M  V30 23360 H 2178.09 -1.12931 -4.74445 0
M  V30 23361 H 2177.09 -3.39553 -4.32416 0
M  V30 23362 H 2178.32 -4.13507 -5.38691 0
M  V30 23363 H 2176.26 -2.05533 -6.2297 0
M  V30 23364 H 2176.18 -3.75431 -6.56192 0
M  V30 23365 H 2177.45 -2.80192 -7.27401 0
M  V30 23366 N 2181.68 1.01656 -1.20431 0
M  V30 23367 C 2182.61 2.10319 -0.910955 0
M  V30 23368 C 2183.62 1.62485 0.1013 0
M  V30 23369 O 2184.81 1.78028 -0.129719 0
M  V30 23370 C 2181.91 3.37148 -0.344189 0
M  V30 23371 C 2181.08 4.14119 -1.40799 0
M  V30 23372 C 2180.14 5.19248 -0.852542 0
M  V30 23373 O 2179.17 5.48161 -1.53324 0
M  V30 23374 N 2180.37 5.79515 0.338032 0
M  V30 23375 H 2183.13 2.36073 -1.84634 0
M  V30 23376 H 2180.7 1.18047 -1.10799 0
M  V30 23377 H 2182.69 4.04679 0.0415379 0
M  V30 23378 H 2181.26 3.08644 0.495757 0
M  V30 23379 H 2180.48 3.41557 -1.96805 0
M  V30 23380 H 2181.77 4.62326 -2.12444 0
M  V30 23381 H 2181.16 5.5836 0.908322 0
M  V30 23382 H 2179.72 6.48395 0.665396 0
M  V30 23383 N 2183.15 1.01021 1.20965 0
M  V30 23384 C 2184.1 0.54593 2.21368 0
M  V30 23385 C 2185.09 -0.395278 1.55969 0
M  V30 23386 O 2186.28 -0.219283 1.75636 0
M  V30 23387 C 2183.41 -0.120843 3.43087 0
M  V30 23388 C 2182.49 0.841693 4.15664 0
M  V30 23389 N 2182.89 1.99663 4.64724 0
M  V30 23390 C 2181.18 0.661168 4.41072 0
M  V30 23391 C 2181.88 2.60219 5.20251 0
M  V30 23392 N 2180.86 1.88334 5.09932 0
M  V30 23393 H 2184.66 1.42652 2.56959 0
M  V30 23394 H 2182.18 0.874711 1.3683 0
M  V30 23395 H 2184.17 -0.470956 4.14231 0
M  V30 23396 H 2182.83 -0.99735 3.09003 0
M  V30 23397 H 2183.84 2.37681 4.60139 0
M  V30 23398 H 2180.52 -0.167822 4.17163 0
M  V30 23399 H 2181.91 3.57924 5.6863 0
M  V30 23400 N 2184.63 -1.36623 0.78561 0
M  V30 23401 C 2185.56 -2.3268 0.195557 0
M  V30 23402 C 2186.54 -1.56463 -0.667335 0
M  V30 23403 O 2187.73 -1.84636 -0.601943 0
M  V30 23404 C 2184.86 -3.40708 -0.673467 0
M  V30 23405 C 2183.81 -4.27907 0.0892255 0
M  V30 23406 C 2183.14 -5.27069 -0.900146 0
M  V30 23407 C 2184.44 -5.06468 1.27624 0
M  V30 23408 H 2186.13 -2.82276 0.998033 0
M  V30 23409 H 2183.68 -1.35716 0.481373 0
M  V30 23410 H 2185.63 -4.06893 -1.09617 0
M  V30 23411 H 2184.35 -2.8967 -1.50861 0
M  V30 23412 H 2183.01 -3.63272 0.492858 0
M  V30 23413 H 2182.66 -4.72306 -1.73022 0
M  V30 23414 H 2182.36 -5.86276 -0.394285 0
M  V30 23415 H 2183.89 -5.96128 -1.32149 0
M  V30 23416 H 2185.3 -5.65715 0.92949 0
M  V30 23417 H 2183.7 -5.75068 1.71513 0
M  V30 23418 H 2184.77 -4.38332 2.07349 0
M  V30 23419 N 2186.11 -0.537304 -1.48158 0
M  V30 23420 C 2187.36 -0.00588246 -2.02499 0
M  V30 23421 C 2187.68 1.33585 -1.41369 0
M  V30 23422 O 2186.94 1.87767 -0.551542 0
M  V30 23423 C 2187.24 0.157545 -3.57053 0
M  V30 23424 C 2186.9 -1.11076 -4.37005 0
M  V30 23425 C 2185.57 -1.45834 -4.58569 0
M  V30 23426 C 2187.92 -1.95212 -4.83261 0
M  V30 23427 C 2185.25 -2.64612 -5.23639 0
M  V30 23428 C 2187.6 -3.13176 -5.4964 0
M  V30 23429 C 2186.26 -3.4827 -5.69442 0
M  V30 23430 H 2185.53 -0.00215255 -0.740997 0
M  V30 23431 H 2188.18 -0.704805 -1.78058 0
M  V30 23432 H 2186.48 0.93929 -3.80374 0
M  V30 23433 H 2188.18 0.583759 -3.96728 0
M  V30 23434 H 2184.77 -0.830084 -4.20485 0
M  V30 23435 H 2188.96 -1.6967 -4.66397 0
M  V30 23436 H 2184.21 -2.91996 -5.37167 0
M  V30 23437 H 2188.39 -3.78671 -5.8445 0
M  V30 23438 H 2186.01 -4.40406 -6.19634 0
M  V30 23439 N 2187.59 1.55221 -0.272782 0
M  V30 23440 C 2188.83 1.99841 0.345178 0
M  V30 23441 C 2189.17 1.16093 1.55679 0
M  V30 23442 O 2188.44 0.230441 1.9313 0
M  V30 23443 C 2188.73 3.5263 0.729656 0
M  V30 23444 C 2188.58 4.47133 -0.489138 0
M  V30 23445 C 2189.9 4.11259 1.56698 0
M  V30 23446 H 2187.02 0.726495 0.123989 0
M  V30 23447 H 2189.66 1.86176 -0.379262 0
M  V30 23448 H 2187.81 3.64405 1.34689 0
M  V30 23449 H 2189.48 4.47304 -1.12769 0
M  V30 23450 H 2187.72 4.18888 -1.12762 0
M  V30 23451 H 2188.39 5.51718 -0.176396 0
M  V30 23452 H 2190.87 4.02745 1.04572 0
M  V30 23453 H 2189.75 5.1838 1.80481 0
M  V30 23454 H 2190.01 3.61341 2.54726 0
M  V30 23455 N 2189.07 2.77022e-05 1.576 0
M  V30 23456 C 2190.01 -0.991376 2.08424 0
M  V30 23457 C 2190.98 -1.34134 0.979661 0
M  V30 23458 O 2192.17 -1.4397 1.25209 0
M  V30 23459 C 2189.31 -2.27808 2.59224 0
M  V30 23460 C 2188.42 -1.98715 3.83584 0
M  V30 23461 C 2187.56 -3.21468 4.22885 0
M  V30 23462 C 2186.6 -2.88061 5.40081 0
M  V30 23463 N 2185.73 -4.0335 5.74676 0
M  V30 23464 H 2190.57 -0.551038 2.92861 0
M  V30 23465 H 2188.11 -0.260432 1.44776 0
M  V30 23466 H 2190.07 -3.03029 2.86756 0
M  V30 23467 H 2188.7 -2.69511 1.77661 0
M  V30 23468 H 2187.75 -1.13862 3.62959 0
M  V30 23469 H 2189.06 -1.70092 4.68903 0
M  V30 23470 H 2188.22 -4.05034 4.517 0
M  V30 23471 H 2186.95 -3.53229 3.36275 0
M  V30 23472 H 2185.96 -2.02902 5.1099 0
M  V30 23473 H 2187.18 -2.57547 6.28368 0
M  V30 23474 H 2185.13 -4.35008 4.91023 0
M  V30 23475 H 2185.05 -3.78251 6.5457 0
M  V30 23476 H 2186.32 -4.87705 6.08082 0
M  V30 23477 N 2190.54 -1.55222 -0.272728 0
M  V30 23478 C 2191.45 -1.91218 -1.35915 0
M  V30 23479 C 2192.47 -0.809463 -1.54025 0
M  V30 23480 O 2193.65 -1.10855 -1.68146 0
M  V30 23481 C 2190.71 -2.17698 -2.69831 0
M  V30 23482 C 2189.77 -3.41258 -2.60464 0
M  V30 23483 C 2189.01 -3.66465 -3.87994 0
M  V30 23484 O 2189.23 -2.94178 -4.88688 0
M  V30 23485 O 2188.16 -4.59999 -3.88181 0
M  V30 23486 H 2191.99 -2.83701 -1.08385 0
M  V30 23487 H 2189.57 -1.41772 -0.471276 0
M  V30 23488 H 2191.46 -2.36153 -3.49012 0
M  V30 23489 H 2190.13 -1.28397 -2.97146 0
M  V30 23490 H 2189.04 -3.28137 -1.79657 0
M  V30 23491 H 2190.37 -4.30778 -2.38098 0
M  V30 23492 N 2192.02 0.537252 -1.4816 0
M  V30 23493 C 2193.27 1.29538 -1.56038 0
M  V30 23494 C 2193.6 1.92828 -0.230411 0
M  V30 23495 O 2192.88 1.78913 0.762921 0
M  V30 23496 C 2193.16 2.39029 -2.69327 0
M  V30 23497 C 2193.01 1.80478 -4.12005 0
M  V30 23498 C 2194.33 3.40842 -2.78414 0
M  V30 23499 H 2191.45 0.469622 -0.568 0
M  V30 23500 H 2194.09 0.599245 -1.80303 0
M  V30 23501 H 2192.24 2.98407 -2.48768 0
M  V30 23502 H 2193.91 1.25207 -4.43983 0
M  V30 23503 H 2192.16 1.11048 -4.19346 0
M  V30 23504 H 2192.83 2.59722 -4.87082 0
M  V30 23505 H 2195.3 2.9141 -2.97017 0
M  V30 23506 H 2194.18 4.14857 -3.59423 0
M  V30 23507 H 2194.44 4.00941 -1.86276 0
M  V30 23508 N 2193.5 1.36626 0.785562 0
M  V30 23509 C 2194.45 1.31267 1.89836 0
M  V30 23510 C 2195.42 0.180662 1.65115 0
M  V30 23511 O 2196.6 0.367802 1.87221 0
M  V30 23512 C 2193.74 1.11168 3.26704 0
M  V30 23513 C 2192.86 2.33478 3.63472 0
M  V30 23514 C 2191.99 2.06361 4.89478 0
M  V30 23515 C 2191.03 3.24611 5.18935 0
M  V30 23516 N 2190.17 2.97134 6.36126 0
M  V30 23517 H 2195.01 2.26416 1.93752 0
M  V30 23518 H 2192.54 1.12526 0.947434 0
M  V30 23519 H 2194.5 0.975408 4.05637 0
M  V30 23520 H 2193.13 0.196731 3.222 0
M  V30 23521 H 2192.18 2.57896 2.79632 0
M  V30 23522 H 2193.5 3.21711 3.81187 0
M  V30 23523 H 2192.65 1.89685 5.76285 0
M  V30 23524 H 2191.39 1.15446 4.73839 0
M  V30 23525 H 2190.39 3.41842 4.30609 0
M  V30 23526 H 2191.62 4.16358 5.36491 0
M  V30 23527 H 2189.56 2.08834 6.21872 0
M  V30 23528 H 2189.48 3.78906 6.54191 0
M  V30 23529 H 2190.75 2.84046 7.25905 0
M  V30 23530 N 2194.98 -1.01016 1.20969 0
M  V30 23531 C 2196.23 -1.74126 1.01799 0
M  V30 23532 C 2196.54 -1.90361 -0.449657 0
M  V30 23533 O 2197.75 -2.60627 -0.760634 0
M  V30 23534 C 2196.2 -3.13211 1.77276 0
M  V30 23535 C 2195.81 -3.04967 3.28176 0
M  V30 23536 C 2197.55 -3.90486 1.66496 0
M  V30 23537 C 2195.46 -4.391 3.96164 0
M  V30 23538 H 2194.39 -0.652817 0.377288 0
M  V30 23539 H 2197.04 -1.12906 1.44653 0
M  V30 23540 H 2195.42 -3.75011 1.27211 0
M  V30 23541 H 2196.6 -2.52436 3.85503 0
M  V30 23542 H 2194.91 -2.41182 3.39441 0
M  V30 23543 H 2197.51 -4.89734 2.14626 0
M  V30 23544 H 2197.85 -4.11623 0.622272 0
M  V30 23545 H 2198.39 -3.35328 2.14009 0
M  V30 23546 H 2195.13 -4.23165 5.00611 0
M  V30 23547 H 2194.65 -4.91611 3.43625 0
M  V30 23548 H 2196.32 -5.07919 4.00783 0
M  V30 23549 N 2196.46 -1.01661 -1.20428 0
M  V30 23550 C 2197.73 -0.621037 -1.85479 0
M  V30 23551 C 2198.11 0.900885 -1.90912 0
M  V30 23552 O 2197.46 1.7926 -1.41697 0
M  V30 23553 C 2197.67 -1.26885 -3.25117 0
M  V30 23554 C 2199.02 -1.3843 -4.014 0
M  V30 23555 O 2200.04 -1.22507 -3.34471 0
M  V30 23556 O 2198.9 -1.6416 -5.21262 0
M  V30 23557 H 2196 -0.21428 -0.798757 0
M  V30 23558 H 2198.54 -1.11399 -1.28017 0
M  V30 23559 H 2197.31 -2.30879 -3.15928 0
M  V30 23560 H 2196.94 -0.762986 -3.90211 0
M  V30 23561 N 2197.93 1.36205 -0.792844 0
M  V30 23562 C 2199.18 1.98756 -0.366097 0
M  V30 23563 C 2199.5 1.63233 1.06677 0
M  V30 23564 O 2198.77 0.908009 1.73586 0
M  V30 23565 H 2197.35 0.735177 -0.132377 0
M  V30 23566 H 2200.02 1.66345 -1.01564 0
M  V30 23567 H 2199.11 3.08681 -0.460692 0
M  V30 23568 N 2199.41 0.545154 1.47871 0
M  V30 23569 C 2200.34 -0.246581 2.2787 0
M  V30 23570 C 2201.36 -0.890537 1.36284 0
M  V30 23571 O 2202.55 -0.76642 1.61209 0
M  V30 23572 C 2199.65 -1.36576 3.10161 0
M  V30 23573 C 2198.82 -0.820879 4.29628 0
M  V30 23574 C 2197.88 -1.82306 4.9361 0
M  V30 23575 O 2196.9 -1.37396 5.52369 0
M  V30 23576 N 2198.11 -3.15595 4.87217 0
M  V30 23577 H 2200.87 0.439591 2.96459 0
M  V30 23578 H 2198.43 0.380449 1.57366 0
M  V30 23579 H 2200.42 -2.03468 3.49833 0
M  V30 23580 H 2198.99 -1.95536 2.43894 0
M  V30 23581 H 2198.21 0.0244725 3.94192 0
M  V30 23582 H 2199.5 -0.435973 5.06929 0
M  V30 23583 H 2198.9 -3.54736 4.40657 0
M  V30 23584 H 2197.46 -3.78078 5.30943 0
M  V30 23585 N 2200.89 -1.55074 0.28101 0
M  V30 23586 C 2202.14 -1.99725 -0.33408 0
M  V30 23587 C 2202.47 -1.16943 -1.55418 0
M  V30 23588 O 2201.72 -0.228565 -1.94361 0
M  V30 23589 C 2202.02 -3.49343 -0.754595 0
M  V30 23590 C 2201.69 -4.49448 0.361524 0
M  V30 23591 C 2200.35 -4.76541 0.667977 0
M  V30 23592 C 2202.7 -5.09171 1.11331 0
M  V30 23593 C 2200.03 -5.60623 1.72969 0
M  V30 23594 C 2202.38 -5.94407 2.1648 0
M  V30 23595 C 2201.04 -6.19818 2.47753 0
M  V30 23596 H 2200.31 -0.730846 -0.122249 0
M  V30 23597 H 2202.96 -1.87362 0.39595 0
M  V30 23598 H 2201.27 -3.59213 -1.56439 0
M  V30 23599 H 2202.96 -3.81302 -1.24136 0
M  V30 23600 H 2199.55 -4.28452 0.112557 0
M  V30 23601 H 2203.74 -4.88258 0.889815 0
M  V30 23602 H 2198.99 -5.78556 1.97694 0
M  V30 23603 H 2203.17 -6.39715 2.75204 0
M  V30 23604 H 2200.79 -6.84763 3.30157 0
M  V30 23605 N 2202.37 -0.00838561 -1.57598 0
M  V30 23606 C 2203.79 0.347795 -1.55764 0
M  V30 23607 C 2203.99 1.7425 -1.01189 0
M  V30 23608 O 2203.04 2.44006 -0.649414 0
M  V30 23609 C 2204.35 0.215355 -2.99928 0
M  V30 23610 C 2205.9 0.289671 -3.11657 0
M  V30 23611 C 2206.38 0.186259 -4.57621 0
M  V30 23612 N 2207.87 0.243897 -4.62557 0
M  V30 23613 C 2208.6 0.187349 -5.73094 0
M  V30 23614 N 2208.1 0.0809113 -6.92753 0
M  V30 23615 N 2209.89 0.239827 -5.61588 0
M  V30 23616 H 2202.04 -0.920654 -1.9141 0
M  V30 23617 H 2204.31 -0.353675 -0.879556 0
M  V30 23618 H 2204.01 -0.744572 -3.43728 0
M  V30 23619 H 2203.89 0.994033 -3.63866 0
M  V30 23620 H 2206.27 1.24005 -2.67781 0
M  V30 23621 H 2206.35 -0.519024 -2.50479 0
M  V30 23622 H 2206 -0.760608 -5.02172 0
M  V30 23623 H 2205.93 1.01355 -5.16754 0
M  V30 23624 H 2208.42 0.327151 -3.76481 0
M  V30 23625 H 2208.73 0.0438883 -7.72788 0
M  V30 23626 H 2207.08 0.0464198 -6.94984 0
M  V30 23627 H 2210.27 0.321234 -4.66996 0
M  V30 23628 H 2210.44 0.192293 -6.47715 0
M  V30 23629 N 2203.85 1.55365 0.264492 0
M  V30 23630 C 2205.09 1.76633 0.996429 0
M  V30 23631 C 2205.43 0.570511 1.85631 0
M  V30 23632 O 2204.7 -0.431717 1.89648 0
M  V30 23633 C 2204.98 3.07628 1.87182 0
M  V30 23634 C 2204.84 4.37581 1.0413 0
M  V30 23635 C 2206.16 3.34722 2.85743 0
M  V30 23636 H 2203.28 0.642628 0.36083 0
M  V30 23637 H 2205.92 1.88098 0.268185 0
M  V30 23638 H 2204.07 2.97985 2.49274 0
M  V30 23639 H 2205.74 4.59193 0.440436 0
M  V30 23640 H 2203.98 4.32426 0.345039 0
M  V30 23641 H 2204.65 5.25583 1.6872 0
M  V30 23642 H 2207.13 3.44214 2.33787 0
M  V30 23643 H 2206.01 4.27629 3.44129 0
M  V30 23644 H 2206.27 2.54775 3.61306 0
M  V30 23645 N 2205.33 -0.529387 1.48443 0
M  V30 23646 C 2206.55 -1.31468 1.60409 0
M  V30 23647 C 2206.98 -1.86227 0.264771 0
M  V30 23648 O 2206.33 -1.64433 -0.763639 0
M  V30 23649 C 2206.38 -2.44096 2.65423 0
M  V30 23650 O 2205.49 -3.47149 2.22624 0
M  V30 23651 H 2204.83 -0.389348 0.53787 0
M  V30 23652 H 2207.36 -0.636931 1.94433 0
M  V30 23653 H 2207.37 -2.90274 2.86715 0
M  V30 23654 H 2206.04 -2.03601 3.62656 0
M  V30 23655 H 2204.62 -3.07086 2.11548 0
M  V30 23656 N 2206.8 -1.37041 -0.778305 0
M  V30 23657 C 2208.03 -1.35235 -1.57246 0
M  V30 23658 C 2208.45 0.0615238 -1.87999 0
M  V30 23659 O 2207.81 1.0367 -1.48736 0
M  V30 23660 C 2207.86 -2.19172 -2.86349 0
M  V30 23661 O 2206.96 -1.59184 -3.80439 0
M  V30 23662 H 2206.3 -0.46237 -0.47656 0
M  V30 23663 H 2208.83 -1.80476 -0.963821 0
M  V30 23664 H 2208.84 -2.32151 -3.35514 0
M  V30 23665 H 2207.52 -3.21947 -2.63293 0
M  V30 23666 H 2206.1 -1.55209 -3.39064 0
M  V30 23667 N 2208.28 1.00373 -1.21503 0
M  V30 23668 C 2209.53 1.74169 -1.03302 0
M  V30 23669 C 2209.86 1.89612 0.433293 0
M  V30 23670 O 2209.11 1.42837 1.33777 0
M  V30 23671 C 2209.41 3.15624 -1.67679 0
M  V30 23672 C 2209.08 3.20125 -3.17539 0
M  V30 23673 C 2207.74 3.2106 -3.58432 0
M  V30 23674 C 2210.09 3.17268 -4.1351 0
M  V30 23675 C 2207.42 3.16826 -4.938 0
M  V30 23676 C 2209.77 3.14575 -5.4884 0
M  V30 23677 C 2208.43 3.13821 -5.89129 0
M  V30 23678 H 2207.7 0.63733 -0.378011 0
M  V30 23679 H 2210.35 1.17632 -1.51113 0
M  V30 23680 H 2208.66 3.75402 -1.12165 0
M  V30 23681 H 2210.35 3.71444 -1.51098 0
M  V30 23682 H 2206.94 3.2014 -2.84971 0
M  V30 23683 H 2211.13 3.15704 -3.82942 0
M  V30 23684 H 2206.38 3.14581 -5.2426 0
M  V30 23685 H 2210.56 3.11319 -6.22939 0
M  V30 23686 H 2208.18 3.10294 -6.93989 0
M  V30 23687 N 2209.76 1.02298 1.19887 0
M  V30 23688 C 2210.99 0.734366 1.93108 0
M  V30 23689 C 2211.4 -0.709859 1.75379 0
M  V30 23690 O 2210.74 -1.49382 1.06915 0
M  V30 23691 C 2210.8 0.99833 3.4536 0
M  V30 23692 C 2210.47 2.43293 3.86856 0
M  V30 23693 C 2211.46 3.41404 3.92096 0
M  V30 23694 C 2209.15 2.77537 4.18663 0
M  V30 23695 C 2211.14 4.71817 4.28565 0
M  V30 23696 C 2208.83 4.08161 4.54806 0
M  V30 23697 C 2209.83 5.05111 4.5973 0
M  V30 23698 O 2209.52 6.33397 4.95039 0
M  V30 23699 H 2209.25 0.268467 0.620404 0
M  V30 23700 H 2211.8 1.36883 1.53141 0
M  V30 23701 H 2210.03 0.306713 3.85482 0
M  V30 23702 H 2211.72 0.700304 3.99813 0
M  V30 23703 H 2212.49 3.16286 3.67679 0
M  V30 23704 H 2208.37 2.02757 4.14018 0
M  V30 23705 H 2211.91 5.47487 4.32323 0
M  V30 23706 H 2207.81 4.33055 4.78679 0
M  V30 23707 H 2208.57 6.37781 5.13009 0
M  V30 23708 N 2211.24 -1.35782 0.800057 0
M  V30 23709 C 2212.2 -2.28221 0.211605 0
M  V30 23710 C 2213.2 -1.49297 -0.597254 0
M  V30 23711 O 2214.39 -1.69143 -0.416692 0
M  V30 23712 C 2211.52 -3.33514 -0.705787 0
M  V30 23713 H 2212.72 -2.81774 1.02682 0
M  V30 23714 H 2210.27 -1.45527 0.570236 0
M  V30 23715 H 2211 -2.85136 -1.54493 0
M  V30 23716 H 2210.79 -3.91892 -0.127586 0
M  V30 23717 H 2212.28 -4.02521 -1.11204 0
M  V30 23718 N 2212.72 -0.552988 -1.4758 0
M  V30 23719 C 2213.66 0.197067 -2.29957 0
M  V30 23720 C 2214.63 0.912335 -1.38801 0
M  V30 23721 O 2215.82 0.908859 -1.67763 0
M  V30 23722 C 2212.96 1.22373 -3.22674 0
M  V30 23723 C 2212.07 0.514963 -4.2892 0
M  V30 23724 C 2211.21 1.52655 -5.08792 0
M  V30 23725 C 2210.24 0.802524 -6.06816 0
M  V30 23726 N 2209.38 1.76074 -6.79663 0
M  V30 23727 H 2214.22 -0.511538 -2.93577 0
M  V30 23728 H 2211.76 -0.264093 -1.4471 0
M  V30 23729 H 2213.72 1.83152 -3.74848 0
M  V30 23730 H 2212.35 1.90042 -2.60929 0
M  V30 23731 H 2211.4 -0.207259 -3.79835 0
M  V30 23732 H 2212.71 -0.0524302 -4.98772 0
M  V30 23733 H 2211.86 2.20799 -5.65095 0
M  V30 23734 H 2210.6 2.12786 -4.38832 0
M  V30 23735 H 2209.61 0.107141 -5.49696 0
M  V30 23736 H 2210.83 0.207016 -6.78784 0
M  V30 23737 H 2208.78 2.35071 -6.12436 0
M  V30 23738 H 2208.7 1.24539 -7.45672 0
M  V30 23739 H 2209.96 2.43346 -7.40542 0
M  V30 23740 N 2214.19 1.54923 -0.28923 0
M  V30 23741 C 2215.44 1.99505 0.322844 0
M  V30 23742 C 2215.76 1.17913 1.55311 0
M  V30 23743 O 2215.03 0.272131 1.94001 0
M  V30 23744 H 2213.61 0.736924 0.122278 0
M  V30 23745 H 2216.27 1.90796 -0.397836 0
M  V30 23746 H 2215.37 3.06219 0.603007 0
M  V30 23747 N 2215.67 0.0167433 1.57591 0
M  V30 23748 C 2216.9 -0.675094 1.95576 0
M  V30 23749 C 2217.31 -1.66369 0.892571 0
M  V30 23750 O 2216.67 -1.82058 -0.12688 0
M  V30 23751 C 2216.72 -1.39234 3.33611 0
M  V30 23752 O 2216.44 -0.443367 4.35851 0
M  V30 23753 C 2217.94 -2.17714 3.86155 0
M  V30 23754 H 2215.16 -0.186966 0.644426 0
M  V30 23755 H 2217.71 0.0728359 2.0437 0
M  V30 23756 H 2215.86 -2.09176 3.26074 0
M  V30 23757 H 2216.28 -0.951268 5.15801 0
M  V30 23758 H 2217.75 -2.63371 4.85118 0
M  V30 23759 H 2218.23 -3.01099 3.19744 0
M  V30 23760 H 2218.83 -1.52754 3.96921 0
M  V30 23761 N 2217.15 -1.55503 -0.256249 0
M  V30 23762 C 2218.38 -1.80679 -1.00193 0
M  V30 23763 C 2218.79 -0.588829 -1.79804 0
M  V30 23764 O 2218.13 0.451852 -1.78056 0
M  V30 23765 C 2218.19 -2.99059 -1.9951 0
M  V30 23766 C 2217.86 -4.3545 -1.3868 0
M  V30 23767 C 2218.85 -5.13801 -0.793989 0
M  V30 23768 C 2216.54 -4.82134 -1.40897 0
M  V30 23769 C 2218.53 -6.3698 -0.23145 0
M  V30 23770 C 2216.22 -6.05263 -0.842578 0
M  V30 23771 C 2217.22 -6.82524 -0.254833 0
M  V30 23772 O 2216.91 -8.03329 0.302841 0
M  V30 23773 H 2216.64 -0.605335 -0.300908 0
M  V30 23774 H 2219.19 -2.03381 -0.287271 0
M  V30 23775 H 2217.42 -2.72089 -2.74781 0
M  V30 23776 H 2219.11 -3.1141 -2.60344 0
M  V30 23777 H 2219.88 -4.78858 -0.769435 0
M  V30 23778 H 2215.76 -4.21995 -1.85583 0
M  V30 23779 H 2219.3 -6.97228 0.227938 0
M  V30 23780 H 2215.2 -6.39686 -0.864428 0
M  V30 23781 H 2215.97 -8.18271 0.193806 0
M  V30 23782 N 2218.63 0.521507 -1.48721 0
M  V30 23783 C 2219.88 1.27434 -1.56859 0
M  V30 23784 C 2220.2 1.93416 -0.248016 0
M  V30 23785 O 2219.47 1.81746 0.731119 0
M  V30 23786 H 2218.05 0.473337 -0.577894 0
M  V30 23787 H 2220.71 0.606173 -1.85234 0
M  V30 23788 H 2219.81 2.04916 -2.35406 0
M  V30 23789 N 2220.11 1.37452 0.771027 0
M  V30 23790 C 2221.04 1.35974 1.89825 0
M  V30 23791 C 2222.02 0.228246 1.68562 0
M  V30 23792 O 2223.2 0.428708 1.89409 0
M  V30 23793 C 2220.33 1.16668 3.27118 0
M  V30 23794 C 2219.29 2.26836 3.62946 0
M  V30 23795 C 2218.61 1.92652 4.98788 0
M  V30 23796 C 2219.91 3.69023 3.6962 0
M  V30 23797 H 2221.61 2.30299 1.91319 0
M  V30 23798 H 2219.15 1.10857 0.919062 0
M  V30 23799 H 2221.11 1.14263 4.05613 0
M  V30 23800 H 2219.83 0.187983 3.26059 0
M  V30 23801 H 2218.49 2.28397 2.86759 0
M  V30 23802 H 2218.14 0.933108 4.94269 0
M  V30 23803 H 2217.84 2.66425 5.23729 0
M  V30 23804 H 2219.36 1.91836 5.79682 0
M  V30 23805 H 2220.77 3.69588 4.38266 0
M  V30 23806 H 2219.17 4.41855 4.06059 0
M  V30 23807 H 2220.24 4.02597 2.70266 0
M  V30 23808 N 2221.58 -0.997276 1.22033 0
M  V30 23809 C 2222.81 -1.77713 1.06924 0
M  V30 23810 C 2223.23 -1.843 -0.376193 0
M  V30 23811 O 2222.59 -1.29226 -1.27163 0
M  V30 23812 C 2222.64 -3.19073 1.68002 0
M  V30 23813 O 2221.74 -4.0176 0.930723 0
M  V30 23814 H 2221.09 -0.547405 0.375824 0
M  V30 23815 H 2223.62 -1.25306 1.61739 0
M  V30 23816 H 2223.63 -3.6972 1.72544 0
M  V30 23817 H 2222.3 -3.13594 2.73188 0
M  V30 23818 H 2220.88 -3.60305 0.96098 0
M  V30 23819 N 2223.06 -1.02932 -1.19343 0
M  V30 23820 C 2224.3 -0.734761 -1.90737 0
M  V30 23821 C 2224.67 0.723383 -1.77852 0
M  V30 23822 O 2225.87 1.13104 -2.43846 0
M  V30 23823 C 2224.14 -1.17402 -3.37567 0
M  V30 23824 S 2225.7 -1.00336 -4.27174 0
M  V30 23825 H 2222.52 -0.267485 -0.658766 0
M  V30 23826 H 2225.12 -1.31925 -1.44278 0
M  V30 23827 H 2223.82 -2.23087 -3.44471 0
M  V30 23828 H 2223.35 -0.58284 -3.89059 0
M  V30 23829 H 2225.37 0.085828 -4.96126 0
M  V30 23830 N 2224.54 1.35356 -0.807246 0
M  V30 23831 C 2225.47 2.28525 -0.175758 0
M  V30 23832 C 2226.49 1.50311 0.625328 0
M  V30 23833 O 2227.67 1.72535 0.45758 0
M  V30 23834 C 2224.77 3.29957 0.773413 0
M  V30 23835 C 2223.95 4.37396 0.0185527 0
M  V30 23836 C 2223.01 5.18682 0.886304 0
M  V30 23837 O 2222.03 5.68201 0.337006 0
M  V30 23838 N 2223.23 5.36856 2.20829 0
M  V30 23839 H 2226 2.83358 -0.976141 0
M  V30 23840 H 2223.56 1.47713 -0.662763 0
M  V30 23841 H 2225.55 3.81229 1.35817 0
M  V30 23842 H 2224.12 2.75634 1.4746 0
M  V30 23843 H 2223.34 3.87049 -0.747417 0
M  V30 23844 H 2224.63 5.06321 -0.501666 0
M  V30 23845 H 2224.03 4.9827 2.6785 0
M  V30 23846 H 2222.59 5.91306 2.74227 0
M  V30 23847 N 2226.02 0.560807 1.47284 0
M  V30 23848 C 2227.43 0.220837 1.58065 0
M  V30 23849 C 2227.63 -1.27668 1.55894 0
M  V30 23850 O 2226.69 -2.05708 1.46426 0
M  V30 23851 C 2228 0.850676 2.88416 0
M  V30 23852 C 2229.55 0.822237 3.02007 0
M  V30 23853 C 2230.03 1.43121 4.35064 0
M  V30 23854 N 2231.52 1.39456 4.41708 0
M  V30 23855 C 2232.25 1.83534 5.43234 0
M  V30 23856 N 2231.75 2.35485 6.51551 0
M  V30 23857 N 2233.54 1.74583 5.34301 0
M  V30 23858 H 2225.69 1.53371 1.46939 0
M  V30 23859 H 2227.96 0.639795 0.699547 0
M  V30 23860 H 2227.66 1.90326 2.95752 0
M  V30 23861 H 2227.54 0.345839 3.75611 0
M  V30 23862 H 2229.92 -0.221663 2.94266 0
M  V30 23863 H 2230 1.36487 2.16345 0
M  V30 23864 H 2229.65 2.4742 4.43561 0
M  V30 23865 H 2229.58 0.86399 5.19464 0
M  V30 23866 H 2232.07 1.01459 3.64026 0
M  V30 23867 H 2232.38 2.67034 7.25198 0
M  V30 23868 H 2230.73 2.39498 6.5243 0
M  V30 23869 H 2233.92 1.33771 4.48579 0
M  V30 23870 H 2234.09 2.09253 6.13284 0
M  V30 23871 N 2227.5 -1.54768 0.297442 0
M  V30 23872 C 2228.77 -1.92149 -0.365813 0
M  V30 23873 C 2229.15 -1.22427 -1.71973 0
M  V30 23874 O 2228.5 -0.358779 -2.25666 0
M  V30 23875 C 2228.71 -3.45628 -0.483995 0
M  V30 23876 C 2230.06 -4.17806 -0.756521 0
M  V30 23877 O 2231.08 -3.51643 -0.567945 0
M  V30 23878 O 2229.94 -5.34931 -1.11853 0
M  V30 23879 H 2227.04 -0.801468 -0.203905 0
M  V30 23880 H 2229.58 -1.66151 0.345239 0
M  V30 23881 H 2228.35 -3.88492 0.467933 0
M  V30 23882 H 2227.98 -3.77649 -1.24365 0
M  V30 23883 N 2228.97 -0.0251005 -1.5758 0
M  V30 23884 C 2230.39 0.514292 -1.79477 0
M  V30 23885 C 2230.74 1.72489 -0.934987 0
M  V30 23886 O 2229.86 2.15918 -0.144283 0
M  V30 23887 C 2230.46 0.939785 -3.25505 0
M  V30 23888 C 2229.02 1.42432 -3.48411 0
M  V30 23889 C 2228.16 0.387152 -2.74584 0
M  V30 23890 H 2231.11 -0.251157 -1.567 0
M  V30 23891 H 2231.13 1.80439 -3.34996 0
M  V30 23892 H 2230.65 0.0584946 -3.88056 0
M  V30 23893 H 2228.75 2.32567 -2.91107 0
M  V30 23894 H 2228.86 1.43447 -4.57121 0
M  V30 23895 H 2227.22 0.854367 -2.39943 0
M  V30 23896 H 2228.01 -0.485603 -3.39848 0
M  V30 23897 N 2230.45 1.55637 0.247999 0
M  V30 23898 C 2231.4 1.91047 1.3268 0
M  V30 23899 C 2232.39 0.789427 1.49881 0
M  V30 23900 O 2233.6 0.974034 1.51369 0
M  V30 23901 H 2229.98 0.606742 0.444261 0
M  V30 23902 H 2231.95 2.81117 1.0008 0
M  V30 23903 C 2230.7 2.22069 2.67546 0
M  V30 23904 H 2230.02 3.0783 2.55109 0
M  V30 23905 H 2231.46 2.50749 3.41908 0
M  V30 23906 C 2229.92 1.03666 3.20554 0
M  V30 23907 O 2230.45 0.284086 4.00694 0
M  V30 23908 N 2228.65 0.827579 2.78567 0
M  V30 23909 H 2228.2 1.44127 2.13507 0
M  V30 23910 H 2228.16 0.0370356 3.14378 0
M  V30 23911 N 2231.93 -0.513613 1.48996 0
M  V30 23912 C 2233.16 -1.29285 1.61533 0
M  V30 23913 C 2233.57 -1.86685 0.281834 0
M  V30 23914 O 2232.93 -1.67217 -0.731082 0
M  V30 23915 C 2232.98 -2.4321 2.67453 0
M  V30 23916 O 2232.7 -1.88172 3.9563 0
M  V30 23917 C 2234.2 -3.3478 2.9058 0
M  V30 23918 H 2231.42 -0.392578 0.544172 0
M  V30 23919 H 2233.97 -0.617922 1.94941 0
M  V30 23920 H 2232.12 -3.06556 2.36859 0
M  V30 23921 H 2232.54 -2.62868 4.53873 0
M  V30 23922 H 2234.01 -4.11028 3.68456 0
M  V30 23923 H 2234.49 -3.91011 2.00018 0
M  V30 23924 H 2235.09 -2.77212 3.22542 0
M  V30 23925 N 2233.41 -1.37859 -0.763727 0
M  V30 23926 C 2234.66 -1.33245 -1.51954 0
M  V30 23927 C 2234.98 0.0801367 -1.94835 0
M  V30 23928 O 2234.25 1.02579 -1.66896 0
M  V30 23929 H 2232.83 -0.49025 -0.563617 0
M  V30 23930 H 2235.49 -1.72432 -0.908474 0
M  V30 23931 H 2234.59 -1.97673 -2.4152 0
M  V30 23932 N 2234.89 0.990791 -1.22561 0
M  V30 23933 C 2236.3 1.25498 -0.986018 0
M  V30 23934 C 2236.5 1.98957 0.319138 0
M  V30 23935 O 2235.56 2.30032 1.04123 0
M  V30 23936 C 2236.87 2.0647 -2.1861 0
M  V30 23937 C 2238.42 2.19647 -2.22989 0
M  V30 23938 C 2238.9 3.04006 -3.42555 0
M  V30 23939 N 2240.39 3.11593 -3.4273 0
M  V30 23940 C 2241.12 3.77162 -4.31898 0
M  V30 23941 N 2240.62 4.44641 -5.31287 0
M  V30 23942 N 2242.41 3.73945 -4.19668 0
M  V30 23943 H 2234.56 0.498373 -2.0647 0
M  V30 23944 H 2236.82 0.282731 -0.904858 0
M  V30 23945 H 2236.53 1.59859 -3.1327 0
M  V30 23946 H 2236.4 3.07225 -2.18844 0
M  V30 23947 H 2238.79 2.65471 -1.28876 0
M  V30 23948 H 2238.87 1.18315 -2.26793 0
M  V30 23949 H 2238.52 2.58882 -4.3697 0
M  V30 23950 H 2238.45 4.05484 -3.35991 0
M  V30 23951 H 2240.94 2.6357 -2.70812 0
M  V30 23952 H 2241.25 4.92421 -5.95602 0
M  V30 23953 H 2239.6 4.43383 -5.35198 0
M  V30 23954 H 2242.79 3.2039 -3.41273 0
M  V30 23955 H 2242.96 4.24765 -4.89365 0
M  V30 23956 N 2236.37 1.03564 1.18795 0
M  V30 23957 C 2237.3 0.643058 2.24471 0
M  V30 23958 C 2238.28 -0.351253 1.66434 0
M  V30 23959 O 2239.46 -0.232471 1.92804 0
M  V30 23960 C 2236.59 1.85533e-05 3.473 0
M  V30 23961 C 2235.55 0.91733 4.18054 0
M  V30 23962 C 2234.87 0.139035 5.34519 0
M  V30 23963 C 2236.17 2.23415 4.72105 0
M  V30 23964 H 2237.87 1.52648 2.57564 0
M  V30 23965 H 2235.41 0.735416 1.23805 0
M  V30 23966 H 2237.36 -0.286309 4.20426 0
M  V30 23967 H 2236.09 -0.918243 3.13426 0
M  V30 23968 H 2234.75 1.18796 3.46818 0
M  V30 23969 H 2234.4 -0.781475 4.96892 0
M  V30 23970 H 2234.1 0.750107 5.82793 0
M  V30 23971 H 2235.62 -0.140393 6.10439 0
M  V30 23972 H 2237.03 2.00888 5.36951 0
M  V30 23973 H 2235.43 2.79774 5.30892 0
M  V30 23974 H 2236.5 2.88414 3.89802 0
M  V30 23975 N 2237.84 -1.34926 0.814413 0
M  V30 23976 C 2238.79 -2.31572 0.218465 0
M  V30 23977 C 2239.79 -1.57004 -0.6361 0
M  V30 23978 O 2240.99 -1.7207 -0.52839 0
M  V30 23979 H 2237.37 -0.750207 0.0518931 0
M  V30 23980 H 2239.34 -2.7937 1.04857 0
M  V30 23981 C 2238.09 -3.42271 -0.612009 0
M  V30 23982 H 2237.41 -3.99784 0.0362281 0
M  V30 23983 H 2238.85 -4.12154 -0.995245 0
M  V30 23984 C 2237.31 -2.85987 -1.78082 0
M  V30 23985 O 2237.84 -2.80173 -2.87865 0
M  V30 23986 N 2236.04 -2.42927 -1.59484 0
M  V30 23987 H 2235.59 -2.47855 -0.701831 0
M  V30 23988 H 2235.55 -2.05617 -2.37842 0
M  V30 23989 N 2239.32 -0.56861 -1.46985 0
M  V30 23990 C 2240.57 -0.0487377 -2.02041 0
M  V30 23991 C 2240.89 1.31037 -1.44411 0
M  V30 23992 O 2240.16 1.85713 -0.62351 0
M  V30 23993 H 2238.74 -0.0150271 -0.746849 0
M  V30 23994 H 2241.4 -0.7412 -1.80256 0
M  V30 23995 H 2240.5 0.0308412 -3.12085 0
M  V30 23996 N 2240.8 1.54608 -0.305646 0
M  V30 23997 C 2241.71 2.27375 0.57774 0
M  V30 23998 C 2242.73 1.31063 1.14448 0
M  V30 23999 O 2243.9 1.64052 1.16828 0
M  V30 24000 C 2240.97 3.00385 1.73118 0
M  V30 24001 C 2240.03 4.12244 1.19805 0
M  V30 24002 C 2239.26 4.81763 2.29651 0
M  V30 24003 O 2239.48 4.50673 3.49643 0
M  V30 24004 O 2238.42 5.69066 1.96081 0
M  V30 24005 H 2242.24 3.03697 -0.0126774 0
M  V30 24006 H 2239.83 1.49227 -0.0719446 0
M  V30 24007 H 2241.71 3.46164 2.40309 0
M  V30 24008 H 2240.39 2.26953 2.30811 0
M  V30 24009 H 2239.29 3.70854 0.491733 0
M  V30 24010 H 2240.63 4.87667 0.66648 0
M  V30 24011 N 2242.28 0.033457 1.57564 0
M  V30 24012 C 2243.5 -0.657861 1.9669 0
M  V30 24013 C 2243.93 -1.64618 0.910086 0
M  V30 24014 O 2243.29 -1.80844 -0.128566 0
M  V30 24015 C 2243.33 -1.33677 3.34907 0
M  V30 24016 O 2242.44 -2.45213 3.31578 0
M  V30 24017 H 2241.78 -0.172478 0.641208 0
M  V30 24018 H 2244.31 0.096598 2.04372 0
M  V30 24019 H 2244.32 -1.69256 3.71236 0
M  V30 24020 H 2242.99 -0.612339 4.11368 0
M  V30 24021 H 2241.57 -2.11714 3.06972 0
M  V30 24022 N 2243.76 -1.55766 -0.239741 0
M  V30 24023 C 2244.7 -1.91748 -1.31665 0
M  V30 24024 C 2245.7 -0.797365 -1.49461 0
M  V30 24025 O 2246.9 -0.982047 -1.5085 0
M  V30 24026 H 2243.28 -0.60909 -0.441037 0
M  V30 24027 H 2245.25 -2.81644 -0.985873 0
M  V30 24028 C 2244 -2.23484 -2.66364 0
M  V30 24029 H 2243.32 -3.09179 -2.53473 0
M  V30 24030 H 2244.76 -2.52559 -3.40573 0
M  V30 24031 C 2243.22 -1.05364 -3.2 0
M  V30 24032 O 2243.75 -0.305332 -4.00538 0
M  V30 24033 N 2241.96 -0.842341 -2.78124 0
M  V30 24034 H 2241.5 -1.45257 -2.1274 0
M  V30 24035 H 2241.46 -0.0537073 -3.14354 0
M  V30 24036 N 2245.23 0.505704 -1.49266 0
M  V30 24037 C 2246.16 1.6165 -1.68498 0
M  V30 24038 C 2247.14 1.61511 -0.533688 0
M  V30 24039 O 2248.33 1.78326 -0.769002 0
M  V30 24040 C 2245.46 3.00154 -1.74714 0
M  V30 24041 C 2244.41 3.15157 -2.89586 0
M  V30 24042 C 2243.74 4.54965 -2.80911 0
M  V30 24043 C 2245.04 2.95627 -4.30584 0
M  V30 24044 H 2246.73 1.45809 -2.61496 0
M  V30 24045 H 2244.28 0.700028 -1.2584 0
M  V30 24046 H 2246.23 3.77757 -1.86755 0
M  V30 24047 H 2244.96 3.17072 -0.783123 0
M  V30 24048 H 2243.62 2.39977 -2.7714 0
M  V30 24049 H 2243.26 4.68753 -1.82427 0
M  V30 24050 H 2242.96 4.65945 -3.58007 0
M  V30 24051 H 2244.49 5.34636 -2.94953 0
M  V30 24052 H 2245.9 3.63003 -4.43736 0
M  V30 24053 H 2244.3 3.18082 -5.08866 0
M  V30 24054 H 2245.37 1.91798 -4.45356 0
M  V30 24055 N 2246.71 1.38262 0.756405 0
M  V30 24056 C 2248.13 1.19397 1.05908 0
M  V30 24057 C 2248.33 0.0406921 2.01459 0
M  V30 24058 O 2247.38 -0.614424 2.4491 0
M  V30 24059 C 2248.7 2.51919 1.64187 0
M  V30 24060 C 2250.25 2.58577 1.76371 0
M  V30 24061 C 2250.72 3.91268 2.38062 0
M  V30 24062 N 2252.21 3.92793 2.45496 0
M  V30 24063 C 2252.95 4.92222 2.94117 0
M  V30 24064 N 2252.44 6.02049 3.42795 0
M  V30 24065 N 2254.24 4.79615 2.93131 0
M  V30 24066 H 2246.39 2.12048 0.122276 0
M  V30 24067 H 2248.65 0.940768 0.116875 0
M  V30 24068 H 2248.36 3.36752 1.01445 0
M  V30 24069 H 2248.23 2.70112 2.63285 0
M  V30 24070 H 2250.62 1.74142 2.38241 0
M  V30 24071 H 2250.7 2.44254 0.759851 0
M  V30 24072 H 2250.34 4.76125 1.76827 0
M  V30 24073 H 2250.27 4.02901 3.39084 0
M  V30 24074 H 2252.76 3.13465 2.11065 0
M  V30 24075 H 2253.08 6.73852 3.78342 0
M  V30 24076 H 2251.42 6.05673 3.40859 0
M  V30 24077 H 2254.61 3.92928 2.54412 0
M  V30 24078 H 2254.78 5.57256 3.30712 0
M  V30 24079 N 2248.19 -0.984277 1.23084 0
M  V30 24080 C 2249.44 -1.72504 1.0606 0
M  V30 24081 C 2249.77 -1.90278 -0.403072 0
M  V30 24082 O 2249.02 -1.44947 -1.31487 0
M  V30 24083 C 2249.32 -3.12917 1.72679 0
M  V30 24084 C 2248.99 -3.15033 3.22591 0
M  V30 24085 C 2247.65 -3.15317 3.63495 0
M  V30 24086 C 2250 -3.10649 4.18505 0
M  V30 24087 C 2247.33 -3.0893 4.98777 0
M  V30 24088 C 2249.68 -3.05804 5.53775 0
M  V30 24089 C 2248.34 -3.04409 5.94047 0
M  V30 24090 H 2247.61 -0.631235 0.388102 0
M  V30 24091 H 2250.26 -1.15213 1.52965 0
M  V30 24092 H 2248.57 -3.7357 1.18123 0
M  V30 24093 H 2250.26 -3.68993 1.56988 0
M  V30 24094 H 2246.85 -3.15566 2.90028 0
M  V30 24095 H 2251.04 -3.09572 3.87916 0
M  V30 24096 H 2246.29 -3.062 5.29199 0
M  V30 24097 H 2250.47 -3.01369 6.27813 0
M  V30 24098 H 2248.09 -2.99214 6.98838 0
M  V30 24099 N 2249.67 -1.04192 -1.18244 0
M  V30 24100 C 2250.62 -0.627831 -2.23967 0
M  V30 24101 C 2251.61 0.345989 -1.65829 0
M  V30 24102 O 2252.82 0.213143 -1.78734 0
M  V30 24103 H 2249.19 -0.184815 -0.728936 0
M  V30 24104 H 2251.16 -1.52985 -2.56199 0
M  V30 24105 C 2249.91 -0.00802703 -3.47699 0
M  V30 24106 H 2249.23 -0.748416 -3.92732 0
M  V30 24107 H 2250.67 0.244476 -4.23295 0
M  V30 24108 C 2249.13 1.2424 -3.13155 0
M  V30 24109 O 2249.66 2.33301 -3.27007 0
M  V30 24110 N 2247.87 1.13618 -2.67469 0
M  V30 24111 H 2247.42 0.248689 -2.56397 0
M  V30 24112 H 2247.37 1.97372 -2.44727 0
M  V30 24113 N 2251.15 1.34492 -0.821557 0
M  V30 24114 C 2252.37 2.03084 -0.420909 0
M  V30 24115 C 2252.8 1.61467 0.964887 0
M  V30 24116 O 2252.15 0.798636 1.62762 0
M  V30 24117 C 2252.2 3.56692 -0.529477 0
M  V30 24118 O 2251.31 4.09924 0.45123 0
M  V30 24119 H 2250.65 0.640932 -0.173501 0
M  V30 24120 H 2253.18 1.71769 -1.1116 0
M  V30 24121 H 2253.19 4.05987 -0.404742 0
M  V30 24122 H 2251.86 3.8633 -1.54021 0
M  V30 24123 H 2250.44 3.71806 0.285493 0
M  V30 24124 N 2252.62 0.576397 1.46681 0
M  V30 24125 C 2253.85 0.063084 2.07304 0
M  V30 24126 C 2254.27 -1.22977 1.42331 0
M  V30 24127 O 2253.63 -1.74128 0.504895 0
M  V30 24128 C 2253.68 -0.0958316 3.60473 0
M  V30 24129 O 2252.78 -1.15387 3.95929 0
M  V30 24130 H 2252.13 0.0599579 0.661287 0
M  V30 24131 H 2254.66 0.797544 1.88415 0
M  V30 24132 H 2254.67 -0.303999 4.06866 0
M  V30 24133 H 2253.34 0.848351 4.07156 0
M  V30 24134 H 2251.92 -0.92466 3.61254 0
M  V30 24135 N 2254.1 -1.54444 0.313841 0
M  V30 24136 C 2255.33 -2.04505 -0.293455 0
M  V30 24137 C 2255.74 -1.19008 -1.47084 0
M  V30 24138 O 2255.08 -0.21129 -1.82481 0
M  V30 24139 C 2255.15 -3.50477 -0.800394 0
M  V30 24140 C 2254.81 -4.56297 0.253403 0
M  V30 24141 C 2255.81 -5.08426 1.08621 0
M  V30 24142 C 2253.49 -5.00714 0.398796 0
M  V30 24143 C 2255.49 -6.03526 2.05023 0
M  V30 24144 C 2253.17 -5.95631 1.36625 0
M  V30 24145 C 2254.17 -6.46922 2.19044 0
M  V30 24146 O 2253.86 -7.39978 3.14147 0
M  V30 24147 H 2253.59 -0.672788 -0.0658207 0
M  V30 24148 H 2256.14 -2.00292 0.455212 0
M  V30 24149 H 2254.37 -3.52056 -1.59981 0
M  V30 24150 H 2256.06 -3.83666 -1.32497 0
M  V30 24151 H 2256.83 -4.74896 0.98482 0
M  V30 24152 H 2252.71 -4.60412 -0.232809 0
M  V30 24153 H 2256.25 -6.43485 2.69393 0
M  V30 24154 H 2252.15 -6.28578 1.46831 0
M  V30 24155 H 2252.92 -7.57821 3.09274 0
M  V30 24156 N 2255.58 -0.0418125 -1.57545 0
M  V30 24157 C 2256.51 0.933891 -2.14011 0
M  V30 24158 C 2257.49 1.33082 -1.0594 0
M  V30 24159 O 2258.68 1.40719 -1.33835 0
M  V30 24160 C 2255.81 2.21194 -2.67751 0
M  V30 24161 C 2254.76 1.95538 -3.80722 0
M  V30 24162 C 2254.09 3.29717 -4.20941 0
M  V30 24163 C 2255.39 1.28443 -5.06261 0
M  V30 24164 H 2257.08 0.463593 -2.95789 0
M  V30 24165 H 2254.63 0.221548 -1.42286 0
M  V30 24166 H 2256.58 2.89843 -3.05891 0
M  V30 24167 H 2255.3 2.70413 -1.83151 0
M  V30 24168 H 2253.96 1.29304 -3.4304 0
M  V30 24169 H 2253.61 3.76719 -3.33305 0
M  V30 24170 H 2253.31 3.13352 -4.97076 0
M  V30 24171 H 2254.83 3.99612 -4.61673 0
M  V30 24172 H 2256.25 1.87111 -5.41906 0
M  V30 24173 H 2254.65 1.22434 -5.87477 0
M  V30 24174 H 2255.72 0.259134 -4.84207 0
M  V30 24175 N 2257.06 1.55891 0.231477 0
M  V30 24176 C 2257.99 1.88072 1.31002 0
M  V30 24177 C 2259 0.76817 1.43537 0
M  V30 24178 O 2260.19 1.0464 1.44612 0
M  V30 24179 C 2257.29 2.06548 2.68684 0
M  V30 24180 C 2256.47 3.37507 2.78222 0
M  V30 24181 C 2255.52 3.45536 3.96851 0
M  V30 24182 O 2254.55 4.1864 3.85655 0
M  V30 24183 N 2255.75 2.75953 5.10715 0
M  V30 24184 H 2258.52 2.81178 1.03726 0
M  V30 24185 H 2256.08 1.56316 0.421546 0
M  V30 24186 H 2258.07 2.09245 3.46408 0
M  V30 24187 H 2256.64 1.20114 2.88602 0
M  V30 24188 H 2255.86 3.46994 1.87053 0
M  V30 24189 H 2257.15 4.23796 2.81557 0
M  V30 24190 H 2256.55 2.16321 5.22706 0
M  V30 24191 H 2255.1 2.84324 5.86518 0
M  V30 24192 N 2258.54 -0.497781 1.49532 0
M  V30 24193 C 2259.78 -1.24923 1.58867 0
M  V30 24194 C 2260.11 -1.92997 0.278755 0
M  V30 24195 O 2259.38 -1.82886 -0.702112 0
M  V30 24196 H 2257.96 -0.464083 0.585351 0
M  V30 24197 H 2260.62 -0.576627 1.86175 0
M  V30 24198 H 2259.71 -2.01145 2.38636 0
M  V30 24199 N 2260.01 -1.38661 -0.749062 0
M  V30 24200 C 2261.24 -1.3836 -1.53831 0
M  V30 24201 C 2261.66 0.0254887 -1.88783 0
M  V30 24202 O 2261.01 0.993265 -1.53103 0
M  V30 24203 C 2261.07 -2.24345 -2.83464 0
M  V30 24204 O 2260.79 -3.59765 -2.50002 0
M  V30 24205 C 2262.29 -2.32274 -3.77576 0
M  V30 24206 H 2259.51 -0.473091 -0.475842 0
M  V30 24207 H 2262.05 -1.82298 -0.926694 0
M  V30 24208 H 2260.21 -1.83857 -3.40992 0
M  V30 24209 H 2260.62 -4.05086 -3.33174 0
M  V30 24210 H 2262.09 -2.96714 -4.65473 0
M  V30 24211 H 2262.57 -1.33772 -4.18332 0
M  V30 24212 H 2263.18 -2.73171 -3.25972 0
M  V30 24213 N 2261.49 0.977736 -1.23605 0
M  V30 24214 C 2262.44 2.09185 -1.01708 0
M  V30 24215 C 2263.44 1.69341 0.0447917 0
M  V30 24216 O 2264.64 1.7967 -0.108933 0
M  V30 24217 H 2261.02 0.684307 -0.311815 0
M  V30 24218 H 2262.99 2.24819 -1.96211 0
M  V30 24219 C 2261.74 3.41985 -0.627806 0
M  V30 24220 H 2261.06 3.73097 -1.43662 0
M  V30 24221 H 2262.5 4.20871 -0.514127 0
M  V30 24222 C 2260.96 3.30288 0.66418 0
M  V30 24223 O 2261.49 3.63363 1.71261 0
M  V30 24224 N 2259.69 2.8344 0.641106 0
M  V30 24225 H 2259.24 2.56723 -0.212422 0
M  V30 24226 H 2259.2 2.75996 1.50578 0
M  V30 24227 N 2262.97 1.04818 1.1769 0
M  V30 24228 C 2263.9 0.603861 2.21102 0
M  V30 24229 C 2264.92 -0.330432 1.59411 0
M  V30 24230 O 2266.11 -0.123758 1.7807 0
M  V30 24231 C 2263.21 -0.136838 3.38624 0
M  V30 24232 C 2262.38 0.807213 4.29887 0
M  V30 24233 C 2261.44 0.108452 5.26088 0
M  V30 24234 O 2260.46 0.741331 5.64352 0
M  V30 24235 N 2261.67 -1.15548 5.68884 0
M  V30 24236 H 2264.43 1.49334 2.59845 0
M  V30 24237 H 2261.99 0.92961 1.32551 0
M  V30 24238 H 2263.98 -0.614331 4.0001 0
M  V30 24239 H 2262.55 -0.927941 2.9851 0
M  V30 24240 H 2261.77 1.46441 3.6599 0
M  V30 24241 H 2263.06 1.44816 4.87756 0
M  V30 24242 H 2262.46 -1.69006 5.39864 0
M  V30 24243 H 2261.02 -1.57711 6.32432 0
M  V30 24244 N 2264.45 -1.34055 0.828678 0
M  V30 24245 C 2265.7 -1.97366 0.415863 0
M  V30 24246 C 2266.01 -1.66412 -1.02793 0
M  V30 24247 O 2267.22 -2.23258 -1.54493 0
M  V30 24248 C 2265.67 -3.53172 0.692663 0
M  V30 24249 C 2265.28 -3.93013 2.15045 0
M  V30 24250 C 2267.03 -4.23085 0.346296 0
M  V30 24251 C 2264.93 -5.41754 2.37184 0
M  V30 24252 H 2263.86 -0.738568 0.151768 0
M  V30 24253 H 2266.51 -1.52817 1.01584 0
M  V30 24254 H 2264.9 -3.95994 0.022446 0
M  V30 24255 H 2266.07 -3.6128 2.8603 0
M  V30 24256 H 2264.38 -3.36053 2.45881 0
M  V30 24257 H 2266.98 -5.32455 0.489464 0
M  V30 24258 H 2267.32 -4.10205 -0.70977 0
M  V30 24259 H 2267.86 -3.85759 0.971326 0
M  V30 24260 H 2264.6 -5.59627 3.41317 0
M  V30 24261 H 2264.12 -5.74983 1.70749 0
M  V30 24262 H 2265.8 -6.0851 2.19829 0
M  V30 24263 N 2265.93 -0.584167 -1.46374 0
M  V30 24264 C 2267.16 -0.075966 -2.0676 0
M  V30 24265 C 2267.57 1.22962 -1.43268 0
M  V30 24266 O 2266.93 1.74375 -0.538489 0
M  V30 24267 C 2266.98 0.0949749 -3.61375 0
M  V30 24268 O 2266.7 -1.15894 -4.22493 0
M  V30 24269 C 2268.2 0.637357 -4.38694 0
M  V30 24270 H 2265.42 -0.0581192 -0.668478 0
M  V30 24271 H 2267.96 -0.805251 -1.87979 0
M  V30 24272 H 2266.12 0.774487 -3.79579 0
M  V30 24273 H 2266.53 -0.973689 -5.15383 0
M  V30 24274 H 2268.01 0.70614 -5.47465 0
M  V30 24275 H 2268.48 1.65465 -4.06839 0
M  V30 24276 H 2269.09 -0.00733443 -4.25299 0
M  V30 24277 N 2267.41 1.54275 -0.322027 0
M  V30 24278 C 2268.65 2.00145 0.280454 0
M  V30 24279 C 2268.97 1.2118 1.52775 0
M  V30 24280 O 2268.24 0.313221 1.9338 0
M  V30 24281 H 2266.82 0.739352 0.106619 0
M  V30 24282 H 2269.49 1.8991 -0.438217 0
M  V30 24283 H 2268.58 3.07429 0.537917 0
M  V30 24284 N 2268.88 0.0501669 1.5752 0
M  V30 24285 C 2270.3 -0.306374 1.56632 0
M  V30 24286 C 2270.5 -1.71506 1.05774 0
M  V30 24287 O 2269.56 -2.42198 0.71388 0
M  V30 24288 C 2270.87 -0.135758 3.00393 0
M  V30 24289 C 2272.42 -0.206939 3.12315 0
M  V30 24290 C 2272.89 -0.0648635 4.57954 0
M  V30 24291 N 2274.38 -0.121172 4.63041 0
M  V30 24292 C 2275.12 -0.0353374 5.73389 0
M  V30 24293 N 2274.61 0.102788 6.92724 0
M  V30 24294 N 2276.41 -0.0908472 5.62027 0
M  V30 24295 H 2268.56 0.971079 1.88902 0
M  V30 24296 H 2270.82 0.37687 0.869869 0
M  V30 24297 H 2270.53 0.835444 3.41633 0
M  V30 24298 H 2270.4 -0.897211 3.66374 0
M  V30 24299 H 2272.79 -1.16861 2.70975 0
M  V30 24300 H 2272.87 0.585251 2.49015 0
M  V30 24301 H 2272.51 0.893482 4.99979 0
M  V30 24302 H 2272.44 -0.876185 5.1926 0
M  V30 24303 H 2274.93 -0.227218 3.77216 0
M  V30 24304 H 2275.25 0.161018 7.72632 0
M  V30 24305 H 2273.59 0.137859 6.94863 0
M  V30 24306 H 2276.78 -0.197306 4.67684 0
M  V30 24307 H 2276.96 -0.020495 6.47997 0
M  V30 24308 N 2270.36 -1.56011 -0.223207 0
M  V30 24309 C 2271.59 -1.82764 -0.963381 0
M  V30 24310 C 2272 -0.626835 -1.78514 0
M  V30 24311 O 2271.34 0.413982 -1.78975 0
M  V30 24312 C 2271.4 -3.03223 -1.93121 0
M  V30 24313 C 2271.07 -4.38294 -1.29413 0
M  V30 24314 C 2272.07 -5.1537 -0.684826 0
M  V30 24315 C 2269.75 -4.85014 -1.30639 0
M  V30 24316 C 2271.74 -6.37327 -0.0962851 0
M  V30 24317 C 2269.43 -6.06914 -0.714003 0
M  V30 24318 C 2270.43 -6.82911 -0.110003 0
M  V30 24319 O 2270.12 -8.02506 0.473171 0
M  V30 24320 H 2269.85 -0.611581 -0.288 0
M  V30 24321 H 2272.4 -2.03945 -0.244067 0
M  V30 24322 H 2270.63 -2.77856 -2.68947 0
M  V30 24323 H 2272.32 -3.16862 -2.5368 0
M  V30 24324 H 2273.09 -4.80382 -0.667689 0
M  V30 24325 H 2268.97 -4.25837 -1.76591 0
M  V30 24326 H 2272.51 -6.96587 0.375779 0
M  V30 24327 H 2268.41 -6.41375 -0.728547 0
M  V30 24328 H 2269.18 -8.17675 0.36733 0
M  V30 24329 N 2271.84 0.489844 -1.49794 0
M  V30 24330 C 2272.75 1.6163 -1.70038 0
M  V30 24331 C 2273.77 1.63938 -0.583131 0
M  V30 24332 O 2274.94 1.82153 -0.859201 0
M  V30 24333 C 2272.01 2.97946 -1.77282 0
M  V30 24334 C 2271.07 3.06176 -3.00923 0
M  V30 24335 C 2270.3 4.3599 -3.07812 0
M  V30 24336 O 2270.52 5.2543 -2.21991 0
M  V30 24337 O 2269.46 4.49424 -4.00377 0
M  V30 24338 H 2273.28 1.47477 -2.65489 0
M  V30 24339 H 2270.87 0.667339 -1.33667 0
M  V30 24340 H 2272.75 3.78944 -1.84336 0
M  V30 24341 H 2271.43 3.12337 -0.850131 0
M  V30 24342 H 2270.33 2.24325 -2.99381 0
M  V30 24343 H 2271.67 2.96716 -3.92709 0
M  V30 24344 N 2273.32 1.39056 0.741698 0
M  V30 24345 C 2274.59 1.26428 1.49249 0
M  V30 24346 C 2274.97 -0.129107 2.10705 0
M  V30 24347 O 2274.32 -1.13973 1.98047 0
M  V30 24348 C 2274.53 2.38352 2.5493 0
M  V30 24349 C 2275.88 2.77349 3.21501 0
M  V30 24350 O 2276.9 2.37752 2.6524 0
M  V30 24351 O 2275.76 3.45672 4.23288 0
M  V30 24352 H 2272.86 0.495075 0.662442 0
M  V30 24353 H 2275.4 1.50913 0.776094 0
M  V30 24354 H 2274.18 3.31532 2.07851 0
M  V30 24355 H 2273.8 2.15495 3.34137 0
M  V30 24356 N 2274.8 -0.971167 1.24121 0
M  V30 24357 C 2276.04 -1.7103 1.07671 0
M  V30 24358 C 2276.36 -1.91146 -0.385764 0
M  V30 24359 O 2275.63 -1.48673 -1.27567 0
M  V30 24360 H 2274.21 -0.633748 0.39544 0
M  V30 24361 H 2276.88 -1.16852 1.55986 0
M  V30 24362 H 2275.97 -2.69619 1.572 0
M  V30 24363 N 2276.27 -1.05441 -1.17133 0
M  V30 24364 C 2277.5 -0.786447 -1.9137 0
M  V30 24365 C 2277.92 0.658171 -1.76956 0
M  V30 24366 O 2277.27 1.44985 -1.1084 0
M  V30 24367 C 2277.33 -1.16086 -3.42354 0
M  V30 24368 O 2277.05 -2.54878 -3.56327 0
M  V30 24369 C 2278.55 -0.919399 -4.33661 0
M  V30 24370 H 2275.77 -0.285754 -0.607113 0
M  V30 24371 H 2278.31 -1.40575 -1.48522 0
M  V30 24372 H 2276.47 -0.586258 -3.82938 0
M  V30 24373 H 2276.88 -2.69626 -4.49891 0
M  V30 24374 H 2278.35 -1.23109 -5.38097 0
M  V30 24375 H 2278.83 0.145282 -4.3896 0
M  V30 24376 H 2279.44 -1.47796 -3.98794 0
M  V30 24377 N 2277.75 1.33613 -0.835776 0
M  V30 24378 C 2278.68 2.31794 -0.28178 0
M  V30 24379 C 2279.66 1.58832 0.608805 0
M  V30 24380 O 2280.85 1.86742 0.533002 0
M  V30 24381 C 2277.98 3.42972 0.546552 0
M  V30 24382 C 2276.93 4.27281 -0.247979 0
M  V30 24383 C 2276.26 5.30046 0.703907 0
M  V30 24384 C 2277.56 5.01382 -1.46333 0
M  V30 24385 H 2279.25 2.78377 -1.10211 0
M  V30 24386 H 2276.8 1.33836 -0.531412 0
M  V30 24387 H 2278.75 4.10681 0.944395 0
M  V30 24388 H 2277.48 2.95069 1.40006 0
M  V30 24389 H 2276.13 3.61192 -0.627345 0
M  V30 24390 H 2275.78 4.78402 1.55373 0
M  V30 24391 H 2275.48 5.87335 0.176421 0
M  V30 24392 H 2277.01 6.00622 1.09933 0
M  V30 24393 H 2278.42 5.61875 -1.13881 0
M  V30 24394 H 2276.82 5.68306 -1.92738 0
M  V30 24395 H 2277.89 4.30334 -2.23474 0
M  V30 24396 N 2279.23 0.591922 1.46062 0
M  V30 24397 C 2280.46 0.0850678 2.07225 0
M  V30 24398 C 2280.88 -1.21461 1.43628 0
M  V30 24399 O 2280.24 -1.73583 0.523336 0
M  V30 24400 C 2280.29 -0.0575933 3.60554 0
M  V30 24401 O 2279.39 -1.11181 3.9713 0
M  V30 24402 H 2278.73 0.0669684 0.660614 0
M  V30 24403 H 2281.26 0.817483 1.87559 0
M  V30 24404 H 2281.27 -0.260829 4.07165 0
M  V30 24405 H 2279.95 0.891488 4.06233 0
M  V30 24406 H 2278.52 -0.886292 3.62214 0
M  V30 24407 N 2280.71 -1.54102 0.330204 0
M  V30 24408 C 2281.64 -2.27514 -0.525313 0
M  V30 24409 C 2282.62 -1.28562 -1.11381 0
M  V30 24410 O 2283.8 -1.57385 -1.1377 0
M  V30 24411 C 2280.93 -3.03794 -1.68305 0
M  V30 24412 C 2279.89 -4.10139 -1.22353 0
M  V30 24413 C 2279.21 -4.74297 -2.46873 0
M  V30 24414 C 2280.51 -5.21234 -0.333605 0
M  V30 24415 H 2282.21 -2.99273 0.0870656 0
M  V30 24416 H 2279.75 -1.43935 0.0433146 0
M  V30 24417 H 2281.71 -3.53884 -2.28788 0
M  V30 24418 H 2280.43 -2.29663 -2.32212 0
M  V30 24419 H 2279.09 -3.60942 -0.641586 0
M  V30 24420 H 2278.74 -3.96775 -3.09159 0
M  V30 24421 H 2278.44 -5.46136 -2.16815 0
M  V30 24422 H 2279.96 -5.27164 -3.08107 0
M  V30 24423 H 2281.38 -5.6704 -0.844913 0
M  V30 24424 H 2279.77 -5.99969 -0.125507 0
M  V30 24425 H 2280.84 -4.8074 0.633808 0
M  V30 24426 N 2282.19 -0.0585199 -1.57491 0
M  V30 24427 C 2283.41 0.623003 -1.97297 0
M  V30 24428 C 2283.83 1.63944 -0.936367 0
M  V30 24429 O 2283.19 1.82331 0.0785661 0
M  V30 24430 C 2283.24 1.3034 -3.37185 0
M  V30 24431 O 2282.96 0.327653 -4.36873 0
M  V30 24432 C 2284.46 2.07399 -3.91791 0
M  V30 24433 H 2281.68 0.169815 -0.649156 0
M  V30 24434 H 2284.22 -0.126995 -2.04105 0
M  V30 24435 H 2282.38 2.00457 -3.31505 0
M  V30 24436 H 2282.79 0.814178 -5.18142 0
M  V30 24437 H 2284.27 2.50416 -4.91931 0
M  V30 24438 H 2284.74 2.92516 -3.27614 0
M  V30 24439 H 2285.35 1.42177 -4.00831 0
M  V30 24440 N 2283.66 1.56128 0.21493 0
M  V30 24441 C 2284.89 1.83886 0.959207 0
M  V30 24442 C 2285.31 0.639675 1.76889 0
M  V30 24443 O 2284.67 -0.41157 1.76567 0
M  V30 24444 C 2284.72 3.09696 1.84718 0
M  V30 24445 O 2283.82 2.88855 2.94341 0
M  V30 24446 H 2283.17 0.606073 0.27124 0
M  V30 24447 H 2285.7 2.03345 0.22624 0
M  V30 24448 H 2285.71 3.39973 2.2557 0
M  V30 24449 H 2284.38 3.96605 1.25211 0
M  V30 24450 H 2282.96 2.69828 2.57386 0
M  V30 24451 N 2285.14 -0.481893 1.50052 0
M  V30 24452 C 2286.37 -1.25829 1.64239 0
M  V30 24453 C 2286.79 -1.86045 0.321369 0
M  V30 24454 O 2286.14 -1.6873 -0.695448 0
M  V30 24455 C 2286.19 -2.37482 2.72552 0
M  V30 24456 O 2285.91 -1.79738 3.99532 0
M  V30 24457 C 2287.42 -3.28541 2.97616 0
M  V30 24458 H 2284.64 -0.380947 0.552377 0
M  V30 24459 H 2287.18 -0.576433 1.96208 0
M  V30 24460 H 2285.33 -3.01463 2.43308 0
M  V30 24461 H 2285.75 -2.53182 4.59347 0
M  V30 24462 H 2287.22 -4.0312 3.77092 0
M  V30 24463 H 2287.7 -3.8668 2.08266 0
M  V30 24464 H 2288.31 -2.70308 3.2835 0
M  V30 24465 N 2286.62 -1.39448 -0.734313 0
M  V30 24466 C 2287.85 -1.4017 -1.52864 0
M  V30 24467 C 2288.27 0.00168206 -1.881 0
M  V30 24468 O 2287.63 0.988853 -1.51959 0
M  V30 24469 C 2287.68 -2.28171 -2.79231 0
M  V30 24470 O 2286.78 -1.71207 -3.75182 0
M  V30 24471 H 2286.12 -0.477298 -0.461609 0
M  V30 24472 H 2288.65 -1.83451 -0.905916 0
M  V30 24473 H 2288.66 -2.42708 -3.27959 0
M  V30 24474 H 2287.34 -3.3016 -2.52917 0
M  V30 24475 H 2285.91 -1.65918 -3.33955 0
M  V30 24476 N 2288.1 0.964571 -1.24635 0
M  V30 24477 C 2289.38 1.68352 -0.995839 0
M  V30 24478 C 2289.76 2.05549 0.480927 0
M  V30 24479 O 2289.1 1.76108 1.45596 0
M  V30 24480 C 2289.31 2.91319 -1.92182 0
M  V30 24481 C 2290.66 3.63491 -2.19453 0
M  V30 24482 O 2291.69 3.01382 -1.89861 0
M  V30 24483 O 2290.54 4.75302 -2.69723 0
M  V30 24484 H 2287.64 0.736139 -0.376867 0
M  V30 24485 H 2290.18 1.01838 -1.35746 0
M  V30 24486 H 2288.96 2.60548 -2.91943 0
M  V30 24487 H 2288.58 3.65566 -1.56356 0
M  V30 24488 N 2289.58 1.0606 1.16572 0
M  V30 24489 C 2290.51 0.690527 2.23056 0
M  V30 24490 C 2291.49 -0.315871 1.67141 0
M  V30 24491 O 2292.67 -0.191522 1.93253 0
M  V30 24492 C 2289.8 0.073686 3.47222 0
M  V30 24493 C 2288.76 1.0058 4.16014 0
M  V30 24494 C 2288.08 0.252383 5.34104 0
M  V30 24495 C 2289.38 2.33379 4.6726 0
M  V30 24496 H 2291.08 1.58077 2.54268 0
M  V30 24497 H 2288.62 0.761512 1.22217 0
M  V30 24498 H 2290.58 -0.197066 4.20939 0
M  V30 24499 H 2289.3 -0.851555 3.15303 0
M  V30 24500 H 2287.96 1.26126 3.44221 0
M  V30 24501 H 2287.61 -0.675901 4.98438 0
M  V30 24502 H 2287.31 0.873557 5.8107 0
M  V30 24503 H 2288.83 -0.0108784 6.10599 0
M  V30 24504 H 2290.24 2.12233 5.32569 0
M  V30 24505 H 2288.64 2.90973 5.24838 0
M  V30 24506 H 2289.71 2.96617 3.83596 0
M  V30 24507 N 2291.06 -1.33168 0.84285 0
M  V30 24508 C 2291.99 -2.27979 0.236285 0
M  V30 24509 C 2293 -1.51916 -0.585256 0
M  V30 24510 O 2294.19 -1.73688 -0.411675 0
M  V30 24511 C 2291.29 -3.31891 -0.685659 0
M  V30 24512 C 2290.46 -4.37291 0.0974217 0
M  V30 24513 C 2289.52 -5.2085 -0.748473 0
M  V30 24514 O 2288.55 -5.68895 -0.186239 0
M  V30 24515 N 2289.75 -5.42523 -2.06518 0
M  V30 24516 H 2292.51 -2.8067 1.05093 0
M  V30 24517 H 2290.08 -1.45904 0.701693 0
M  V30 24518 H 2292.07 -3.84696 -1.25662 0
M  V30 24519 H 2290.64 -2.79447 -1.401 0
M  V30 24520 H 2289.86 -3.84932 0.849774 0
M  V30 24521 H 2291.15 -5.04813 0.635732 0
M  V30 24522 H 2290.54 -5.05196 -2.54545 0
M  V30 24523 H 2289.1 -5.98369 -2.58453 0
M  V30 24524 N 2292.53 -0.599659 -1.45746 0
M  V30 24525 C 2293.76 -0.0960563 -2.07177 0
M  V30 24526 C 2294.18 1.20697 -1.4427 0
M  V30 24527 O 2293.54 1.73303 -0.532534 0
M  V30 24528 C 2293.59 0.0384714 -3.60579 0
M  V30 24529 O 2292.69 1.09073 -3.97714 0
M  V30 24530 H 2292.03 -0.0704709 -0.66025 0
M  V30 24531 H 2294.56 -0.827418 -1.87123 0
M  V30 24532 H 2294.57 0.239232 -4.07298 0
M  V30 24533 H 2293.25 -0.913019 -4.05755 0
M  V30 24534 H 2291.83 0.867071 -3.62679 0
M  V30 24535 N 2294.01 1.53925 -0.338371 0
M  V30 24536 C 2295.26 2.00431 0.25921 0
M  V30 24537 C 2295.58 1.22794 1.51481 0
M  V30 24538 O 2294.85 0.333713 1.93037 0
M  V30 24539 H 2293.43 0.740441 0.0987715 0
M  V30 24540 H 2296.09 1.89434 -0.458335 0
M  V30 24541 H 2295.19 3.07983 0.50528 0
M  V30 24542 N 2295.49 0.0668712 1.57458 0
M  V30 24543 C 2296.74 -0.602913 1.92478 0
M  V30 24544 C 2297.05 -1.71067 0.948449 0
M  V30 24545 O 2298.26 -2.43968 1.19129 0
M  V30 24546 C 2296.71 -1.12377 3.41905 0
M  V30 24547 C 2296.32 -0.0472913 4.47975 0
M  V30 24548 C 2298.07 -1.7679 3.85934 0
M  V30 24549 C 2295.97 -0.581919 5.8853 0
M  V30 24550 H 2294.9 -0.228977 0.718391 0
M  V30 24551 H 2297.55 0.138308 1.82978 0
M  V30 24552 H 2295.94 -1.91781 3.46462 0
M  V30 24553 H 2297.11 0.727058 4.55028 0
M  V30 24554 H 2295.42 0.500316 4.13383 0
M  V30 24555 H 2298.02 -2.17813 4.88325 0
M  V30 24556 H 2298.36 -2.62593 3.23033 0
M  V30 24557 H 2298.9 -1.04017 3.8396 0
M  V30 24558 H 2295.64 0.238836 6.55065 0
M  V30 24559 H 2295.16 -1.3239 5.85007 0
M  V30 24560 H 2296.84 -1.05988 6.3826 0
M  V30 24561 N 2296.97 -1.56239 -0.206647 0
M  V30 24562 C 2298.22 -1.79139 -0.926933 0
M  V30 24563 C 2298.53 -0.638076 -1.849 0
M  V30 24564 O 2299.74 -0.751079 -2.60904 0
M  V30 24565 C 2298.19 -3.17297 -1.69854 0
M  V30 24566 C 2297.8 -4.40397 -0.821878 0
M  V30 24567 C 2299.54 -3.49514 -2.40915 0
M  V30 24568 C 2297.45 -5.69578 -1.59169 0
M  V30 24569 H 2296.38 -0.667922 -0.349852 0
M  V30 24570 H 2299.03 -1.82611 -0.180455 0
M  V30 24571 H 2297.41 -3.08043 -2.48848 0
M  V30 24572 H 2298.59 -4.60745 -0.0714209 0
M  V30 24573 H 2296.9 -4.15804 -0.222668 0
M  V30 24574 H 2299.5 -4.4326 -2.99039 0
M  V30 24575 H 2299.84 -2.72712 -3.14537 0
M  V30 24576 H 2300.38 -3.60164 -1.68899 0
M  V30 24577 H 2297.11 -6.49313 -0.898475 0
M  V30 24578 H 2296.63 -5.53267 -2.31638 0
M  V30 24579 H 2298.31 -6.10285 -2.14851 0
M  V30 24580 N 2298.45 0.473929 -1.50305 0
M  V30 24581 C 2299.39 1.57228 -1.68961 0
M  V30 24582 C 2300.36 1.57386 -0.530927 0
M  V30 24583 O 2301.55 1.7496 -0.761164 0
M  V30 24584 C 2298.69 2.9522 -1.78715 0
M  V30 24585 C 2297.8 3.04872 -3.06067 0
M  V30 24586 C 2296.94 4.33762 -3.06633 0
M  V30 24587 C 2295.97 4.37146 -4.2845 0
M  V30 24588 N 2295.11 5.57503 -4.26773 0
M  V30 24589 H 2299.95 1.40626 -2.62732 0
M  V30 24590 H 2297.49 0.683766 -1.30242 0
M  V30 24591 H 2299.45 3.75239 -1.82351 0
M  V30 24592 H 2298.08 3.10464 -0.88386 0
M  V30 24593 H 2297.13 2.17745 -3.11915 0
M  V30 24594 H 2298.44 3.03233 -3.96045 0
M  V30 24595 H 2297.59 5.22125 -3.08983 0
M  V30 24596 H 2296.33 4.38006 -2.1448 0
M  V30 24597 H 2295.34 3.47181 -4.26316 0
M  V30 24598 H 2296.56 4.34595 -5.21827 0
M  V30 24599 H 2294.51 5.62538 -3.37472 0
M  V30 24600 H 2294.43 5.57592 -5.10516 0
M  V30 24601 H 2295.69 6.47999 -4.33264 0
M  V30 24602 N 2299.92 1.39835 0.726907 0
M  V30 24603 C 2300.87 1.39357 1.86232 0
M  V30 24604 C 2301.87 0.275585 1.67143 0
M  V30 24605 O 2303.07 0.44604 1.74386 0
M  V30 24606 H 2299.45 0.435351 0.613167 0
M  V30 24607 H 2301.42 2.35113 1.83752 0
M  V30 24608 C 2300.17 1.2619 3.23993 0
M  V30 24609 H 2299.49 2.1149 3.39282 0
M  V30 24610 H 2300.93 1.29914 4.03607 0
M  V30 24611 C 2299.39 -0.0289426 3.36888 0
M  V30 24612 O 2299.92 -0.996122 3.89153 0
M  V30 24613 N 2298.12 -0.0946926 2.90446 0
M  V30 24614 H 2297.67 0.693079 2.48101 0
M  V30 24615 H 2297.63 -0.95788 2.99453 0
M  V30 24616 N 2301.4 -0.957948 1.25144 0
M  V30 24617 C 2302.63 -1.73689 1.12427 0
M  V30 24618 C 2303.04 -1.86029 -0.322272 0
M  V30 24619 O 2302.4 -1.35563 -1.22184 0
M  V30 24620 C 2302.45 -3.15238 1.76938 0
M  V30 24621 O 2302.17 -3.03505 3.15937 0
M  V30 24622 C 2303.67 -4.09426 1.69957 0
M  V30 24623 H 2300.89 -0.544366 0.392309 0
M  V30 24624 H 2303.44 -1.20204 1.65442 0
M  V30 24625 H 2301.59 -3.65678 1.27901 0
M  V30 24626 H 2302.01 -3.92774 3.47605 0
M  V30 24627 H 2303.48 -5.06368 2.19762 0
M  V30 24628 H 2303.96 -4.34172 0.662695 0
M  V30 24629 H 2304.56 -3.649 2.18467 0
M  V30 24630 N 2302.88 -1.06677 -1.16008 0
M  V30 24631 C 2303.84 -0.685039 -2.18723 0
M  V30 24632 C 2304.84 0.271218 -1.58496 0
M  V30 24633 O 2306.03 0.053085 -1.74119 0
M  V30 24634 C 2303.16 -0.0085964 -3.40899 0
M  V30 24635 H 2304.36 -1.59435 -2.54009 0
M  V30 24636 H 2301.91 -0.862464 -1.3035 0
M  V30 24637 H 2302.65 0.913282 -3.11175 0
M  V30 24638 H 2302.43 -0.696271 -3.85868 0
M  V30 24639 H 2303.92 0.244066 -4.16886 0
M  V30 24640 N 2304.36 1.32719 -0.8499 0
M  V30 24641 C 2305.58 2.02146 -0.463891 0
M  V30 24642 C 2306.01 1.63477 0.93042 0
M  V30 24643 O 2305.37 0.83298 1.61031 0
M  V30 24644 C 2305.41 3.55488 -0.605017 0
M  V30 24645 O 2304.52 4.10789 0.364177 0
M  V30 24646 H 2303.86 0.637107 -0.187057 0
M  V30 24647 H 2306.39 1.69373 -1.14778 0
M  V30 24648 H 2306.4 4.05038 -0.490767 0
M  V30 24649 H 2305.07 3.82976 -1.6218 0
M  V30 24650 H 2303.65 3.72327 0.206563 0
M  V30 24651 N 2305.84 0.60738 1.45426 0
M  V30 24652 C 2306.77 -0.0988942 2.3329 0
M  V30 24653 C 2307.75 -0.858981 1.46818 0
M  V30 24654 O 2308.93 -0.829573 1.7559 0
M  V30 24655 C 2306.06 -1.09699 3.2952 0
M  V30 24656 C 2305.02 -0.450131 4.25626 0
M  V30 24657 C 2304.34 -1.55646 5.11545 0
M  V30 24658 C 2305.64 0.628546 5.18504 0
M  V30 24659 H 2307.34 0.634767 2.92594 0
M  V30 24660 H 2304.88 0.306706 1.40696 0
M  V30 24661 H 2306.84 -1.59964 3.89858 0
M  V30 24662 H 2305.56 -1.86124 2.68375 0
M  V30 24663 H 2304.22 0.0316531 3.66586 0
M  V30 24664 H 2303.87 -2.31099 4.46769 0
M  V30 24665 H 2303.57 -1.12915 5.76649 0
M  V30 24666 H 2305.09 -2.06138 5.74752 0
M  V30 24667 H 2306.5 0.209978 5.72915 0
M  V30 24668 H 2304.9 0.977593 5.92084 0
M  V30 24669 H 2305.97 1.50522 4.60946 0
M  V30 24670 N 2307.31 -1.53743 0.34653 0
M  V30 24671 C 2308.26 -2.2512 -0.508874 0
M  V30 24672 C 2309.23 -1.2506 -1.09313 0
M  V30 24673 O 2310.42 -1.53799 -1.12918 0
M  V30 24674 C 2307.56 -3.02968 -1.65241 0
M  V30 24675 C 2306.67 -4.17888 -1.09517 0
M  V30 24676 C 2305.8 -4.83216 -2.20625 0
M  V30 24677 C 2304.84 -5.90199 -1.62269 0
M  V30 24678 N 2303.98 -6.49296 -2.67131 0
M  V30 24679 H 2308.82 -2.9781 0.106336 0
M  V30 24680 H 2306.36 -1.4696 0.0642485 0
M  V30 24681 H 2308.32 -3.46364 -2.32568 0
M  V30 24682 H 2306.95 -2.32569 -2.23856 0
M  V30 24683 H 2306 -3.79112 -0.312751 0
M  V30 24684 H 2307.31 -4.94826 -0.628357 0
M  V30 24685 H 2306.46 -5.29699 -2.95811 0
M  V30 24686 H 2305.2 -4.05708 -2.70652 0
M  V30 24687 H 2304.21 -5.43097 -0.855893 0
M  V30 24688 H 2305.43 -6.69617 -1.1309 0
M  V30 24689 H 2303.38 -5.7465 -3.16407 0
M  V30 24690 H 2303.3 -7.21717 -2.25081 0
M  V30 24691 H 2304.56 -7.00431 -3.42077 0
M  V30 24692 N 2308.79 -0.0752207 -1.5742 0
M  V30 24693 C 2310.02 0.601169 -1.9766 0
M  V30 24694 C 2310.43 1.63478 -0.952456 0
M  V30 24695 O 2309.77 1.83571 0.0687918 0
M  V30 24696 C 2309.84 1.32428 -3.3422 0
M  V30 24697 C 2309.5 0.443746 -4.54841 0
M  V30 24698 C 2310.5 -0.30006 -5.19033 0
M  V30 24699 C 2308.18 0.367621 -5.00953 0
M  V30 24700 C 2310.18 -1.10818 -6.27693 0
M  V30 24701 C 2307.86 -0.444165 -6.09484 0
M  V30 24702 C 2308.86 -1.18073 -6.72717 0
M  V30 24703 O 2308.55 -1.97912 -7.79157 0
M  V30 24704 H 2308.28 0.167411 -0.654942 0
M  V30 24705 H 2310.83 -0.145193 -2.04886 0
M  V30 24706 H 2309.06 2.11679 -3.23618 0
M  V30 24707 H 2310.75 1.89325 -3.59042 0
M  V30 24708 H 2311.52 -0.250861 -4.84351 0
M  V30 24709 H 2307.4 0.930558 -4.5151 0
M  V30 24710 H 2310.94 -1.68359 -6.76979 0
M  V30 24711 H 2306.84 -0.494916 -6.436 0
M  V30 24712 H 2307.61 -1.90381 -7.96051 0
M  V30 24713 N 2310.27 1.56347 0.198358 0
M  V30 24714 C 2311.18 1.97485 1.26637 0
M  V30 24715 C 2312.2 0.882028 1.49988 0
M  V30 24716 O 2313.37 1.18751 1.62666 0
M  V30 24717 C 2310.44 2.30324 2.59137 0
M  V30 24718 C 2309.5 3.53296 2.43886 0
M  V30 24719 C 2308.73 3.84559 3.70067 0
M  V30 24720 O 2308.95 3.17159 4.74096 0
M  V30 24721 O 2307.89 4.77996 3.65792 0
M  V30 24722 H 2311.71 2.88549 0.947253 0
M  V30 24723 H 2309.3 1.43859 0.403098 0
M  V30 24724 H 2311.18 2.52536 3.37348 0
M  V30 24725 H 2309.86 1.42428 2.90682 0
M  V30 24726 H 2308.76 3.36335 1.63797 0
M  V30 24727 H 2310.1 4.41648 2.17274 0
M  V30 24728 N 2311.75 -0.465951 1.50554 0
M  V30 24729 C 2312.7 -1.58403 1.70327 0
M  V30 24730 C 2313.69 -1.59552 0.569167 0
M  V30 24731 O 2314.9 -1.6364 0.749805 0
M  V30 24732 H 2311.27 -0.525724 0.537697 0
M  V30 24733 H 2313.24 -1.3889 2.64106 0
M  V30 24734 C 2311.99 -2.96303 1.81933 0
M  V30 24735 H 2311.31 -2.9614 2.68592 0
M  V30 24736 H 2312.75 -3.73978 1.99791 0
M  V30 24737 C 2311.21 -3.32006 0.572153 0
M  V30 24738 O 2311.74 -4.00678 -0.286346 0
M  V30 24739 N 2309.95 -2.8748 0.424656 0
M  V30 24740 H 2309.5 -2.31769 1.12431 0
M  V30 24741 H 2309.45 -3.11733 -0.408642 0
M  V30 24742 N 2313.23 -1.40218 -0.719481 0
M  V30 24743 C 2314.46 -1.41387 -1.50643 0
M  V30 24744 C 2314.86 -0.0108076 -1.89197 0
M  V30 24745 O 2314.21 0.97468 -1.5571 0
M  V30 24746 C 2314.27 -2.23727 -2.81401 0
M  V30 24747 C 2313.93 -3.72186 -2.65192 0
M  V30 24748 C 2314.93 -4.64911 -2.32709 0
M  V30 24749 C 2312.62 -4.15955 -2.81579 0
M  V30 24750 C 2314.61 -5.99391 -2.16816 0
M  V30 24751 C 2312.3 -5.50506 -2.65303 0
M  V30 24752 C 2313.29 -6.42039 -2.3297 0
M  V30 24753 O 2312.98 -7.7411 -2.16814 0
M  V30 24754 H 2312.71 -0.484326 -0.471598 0
M  V30 24755 H 2315.27 -1.84855 -0.895424 0
M  V30 24756 H 2313.5 -1.75032 -3.4482 0
M  V30 24757 H 2315.19 -2.16884 -3.43098 0
M  V30 24758 H 2315.95 -4.32392 -2.19686 0
M  V30 24759 H 2311.83 -3.45033 -3.05734 0
M  V30 24760 H 2315.38 -6.708 -1.91501 0
M  V30 24761 H 2311.27 -5.82612 -2.7791 0
M  V30 24762 H 2312.04 -7.85002 -2.31764 0
M  V30 24763 N 2314.7 0.951297 -1.25651 0
M  V30 24764 C 2315.61 2.08222 -1.08077 0
M  V30 24765 C 2316.63 1.73992 -0.0169971 0
M  V30 24766 O 2317.81 2.0021 -0.218628 0
M  V30 24767 C 2314.87 3.39457 -0.704982 0
M  V30 24768 C 2313.93 3.87534 -1.84706 0
M  V30 24769 C 2313.17 5.12505 -1.48911 0
M  V30 24770 O 2313.39 5.69091 -0.386256 0
M  V30 24771 O 2312.32 5.55373 -2.32043 0
M  V30 24772 H 2316.15 2.25951 -2.02928 0
M  V30 24773 H 2313.73 1.06654 -1.0462 0
M  V30 24774 H 2315.62 4.18331 -0.507683 0
M  V30 24775 H 2314.29 3.2299 0.214234 0
M  V30 24776 H 2313.2 3.09649 -2.09924 0
M  V30 24777 H 2314.53 4.08504 -2.74564 0
M  V30 24778 N 2316.18 1.07291 1.1544 0
M  V30 24779 C 2317.11 0.714146 2.22311 0
M  V30 24780 C 2318.09 -0.298126 1.67467 0
M  V30 24781 O 2319.28 -0.171014 1.93446 0
M  V30 24782 C 2316.41 0.110509 3.47124 0
M  V30 24783 C 2315.36 1.04987 4.14924 0
M  V30 24784 C 2314.69 0.309018 5.33806 0
M  V30 24785 C 2315.99 2.38322 4.64758 0
M  V30 24786 H 2317.68 1.60765 2.52577 0
M  V30 24787 H 2315.23 0.774431 1.21402 0
M  V30 24788 H 2317.18 -0.152408 4.21124 0
M  V30 24789 H 2315.91 -0.818065 3.16189 0
M  V30 24790 H 2314.56 1.2977 3.42864 0
M  V30 24791 H 2314.21 -0.622997 4.99127 0
M  V30 24792 H 2313.91 0.935138 5.80111 0
M  V30 24793 H 2315.44 0.0538844 6.10576 0
M  V30 24794 H 2316.85 2.17869 5.30289 0
M  V30 24795 H 2315.25 2.96523 5.21722 0
M  V30 24796 H 2316.32 3.00669 3.80429 0
M  V30 24797 N 2317.66 -1.32267 0.856927 0
M  V30 24798 C 2318.89 -2.01362 0.475475 0
M  V30 24799 C 2319.3 -1.64393 -0.928457 0
M  V30 24800 O 2318.66 -0.866415 -1.60622 0
M  V30 24801 C 2318.71 -3.56357 0.607608 0
M  V30 24802 O 2318.43 -3.91999 1.95624 0
M  V30 24803 C 2319.93 -4.42726 0.225459 0
M  V30 24804 H 2317.15 -0.644518 0.186647 0
M  V30 24805 H 2319.7 -1.68795 1.15449 0
M  V30 24806 H 2317.85 -3.87393 -0.0237038 0
M  V30 24807 H 2318.27 -4.86718 1.95464 0
M  V30 24808 H 2319.74 -5.50766 0.368909 0
M  V30 24809 H 2320.22 -4.31203 -0.834293 0
M  V30 24810 H 2320.82 -4.17084 0.831937 0
M  V30 24811 N 2319.14 -0.615084 -1.45102 0
M  V30 24812 C 2320.07 0.0865209 -2.3334 0
M  V30 24813 C 2321.05 0.851183 -1.47271 0
M  V30 24814 O 2322.23 0.82025 -1.76027 0
M  V30 24815 C 2319.36 1.0795 -3.30097 0
M  V30 24816 C 2318.32 0.427553 -4.25859 0
M  V30 24817 C 2317.64 1.52931 -5.12363 0
M  V30 24818 C 2318.94 -0.656035 -5.18164 0
M  V30 24819 H 2320.64 -0.650275 -2.92253 0
M  V30 24820 H 2318.18 -0.314163 -1.40531 0
M  V30 24821 H 2320.14 1.57894 -3.90701 0
M  V30 24822 H 2318.86 1.84699 -2.69359 0
M  V30 24823 H 2317.52 -0.0510936 -3.66564 0
M  V30 24824 H 2317.17 2.28726 -4.47988 0
M  V30 24825 H 2316.87 1.09855 -5.7724 0
M  V30 24826 H 2318.39 2.03087 -5.75837 0
M  V30 24827 H 2319.81 -0.240358 -5.72796 0
M  V30 24828 H 2318.2 -1.00898 -5.91557 0
M  V30 24829 H 2319.27 -1.52965 -4.60141 0
M  V30 24830 N 2320.62 1.53557 -0.354678 0
M  V30 24831 C 2321.56 2.25387 0.496928 0
M  V30 24832 C 2322.53 1.25638 1.08648 0
M  V30 24833 O 2323.72 1.54395 1.12101 0
M  V30 24834 C 2320.86 3.0384 1.63632 0
M  V30 24835 C 2319.97 4.18462 1.073 0
M  V30 24836 C 2319.11 4.8438 2.18059 0
M  V30 24837 C 2318.15 5.91052 1.59136 0
M  V30 24838 N 2317.28 6.50704 2.63684 0
M  V30 24839 H 2322.12 2.9775 -0.122128 0
M  V30 24840 H 2319.66 1.46923 -0.0720412 0
M  V30 24841 H 2321.62 3.47593 2.30727 0
M  V30 24842 H 2320.25 2.33753 2.22619 0
M  V30 24843 H 2319.3 3.79273 0.292642 0
M  V30 24844 H 2320.61 4.95153 0.602106 0
M  V30 24845 H 2319.77 5.3126 2.92998 0
M  V30 24846 H 2318.51 4.07138 2.68496 0
M  V30 24847 H 2317.51 5.43543 0.82708 0
M  V30 24848 H 2318.74 6.70208 1.09538 0
M  V30 24849 H 2316.68 5.7632 3.13355 0
M  V30 24850 H 2316.6 7.229 2.2125 0
M  V30 24851 H 2317.87 7.02235 3.38358 0
M  V30 24852 N 2322.1 0.083568 1.57378 0
M  V30 24853 C 2323.32 -0.594952 1.98683 0
M  V30 24854 C 2323.75 -1.61639 0.961997 0
M  V30 24855 O 2323.1 -1.81161 -0.070967 0
M  V30 24856 C 2323.15 -1.22954 3.38991 0
M  V30 24857 O 2322.26 -2.3454 3.39212 0
M  V30 24858 H 2321.6 -0.151991 0.64637 0
M  V30 24859 H 2324.13 0.161568 2.03961 0
M  V30 24860 H 2324.14 -1.57359 3.76433 0
M  V30 24861 H 2322.81 -0.481155 4.13107 0
M  V30 24862 H 2321.39 -2.01841 3.13552 0
M  V30 24863 N 2323.57 -1.5645 -0.190064 0
M  V30 24864 C 2324.85 -1.71759 -0.935856 0
M  V30 24865 C 2325.23 -0.639761 -2.01172 0
M  V30 24866 O 2324.58 0.348462 -2.25827 0
M  V30 24867 C 2324.79 -3.14272 -1.51769 0
M  V30 24868 C 2326.14 -3.7466 -1.99788 0
M  V30 24869 O 2327.16 -3.17432 -1.61602 0
M  V30 24870 O 2326.02 -4.75104 -2.7007 0
M  V30 24871 H 2323.11 -0.700727 -0.439216 0
M  V30 24872 H 2325.66 -1.68749 -0.179365 0
M  V30 24873 H 2324.43 -3.84192 -0.742438 0
M  V30 24874 H 2324.05 -3.21531 -2.33888 0
M  V30 24875 N 2325.05 0.45796 -1.50799 0
M  V30 24876 C 2326.28 1.23201 -1.6622 0
M  V30 24877 C 2326.69 1.8551 -0.350926 0
M  V30 24878 O 2326.05 1.69815 0.668517 0
M  V30 24879 C 2326.1 2.33116 -2.76295 0
M  V30 24880 O 2325.82 1.73359 -4.02341 0
M  V30 24881 C 2327.32 3.23765 -3.02805 0
M  V30 24882 H 2324.54 0.372111 -0.558367 0
M  V30 24883 H 2327.09 0.545145 -1.971 0
M  V30 24884 H 2325.24 2.97554 -2.48073 0
M  V30 24885 H 2325.66 2.45842 -4.63316 0
M  V30 24886 H 2327.13 3.9707 -3.83457 0
M  V30 24887 H 2327.61 3.83318 -2.14392 0
M  V30 24888 H 2328.21 2.6505 -3.32609 0
M  V30 24889 N 2326.53 1.40598 0.712035 0
M  V30 24890 C 2327.48 1.41324 1.84744 0
M  V30 24891 C 2328.47 0.293297 1.66842 0
M  V30 24892 O 2329.68 0.464511 1.73903 0
M  V30 24893 H 2326.05 0.44183 0.608515 0
M  V30 24894 H 2328.02 2.37048 1.81247 0
M  V30 24895 C 2326.77 1.2962 3.22636 0
M  V30 24896 H 2326.1 2.15077 3.37019 0
M  V30 24897 H 2327.54 1.34187 4.02206 0
M  V30 24898 C 2325.99 0.00679043 3.36899 0
M  V30 24899 O 2326.52 -0.954791 3.90188 0
M  V30 24900 N 2324.73 -0.0638816 2.9053 0
M  V30 24901 H 2324.28 0.719354 2.47352 0
M  V30 24902 H 2324.24 -0.926065 3.00452 0
M  V30 24903 N 2328.01 -0.94462 1.26153 0
M  V30 24904 C 2329.26 -1.68708 1.11274 0
M  V30 24905 C 2329.58 -1.91921 -0.345132 0
M  V30 24906 O 2328.85 -1.51345 -1.24384 0
M  V30 24907 H 2327.43 -0.625217 0.408794 0
M  V30 24908 H 2330.09 -1.13517 1.58429 0
M  V30 24909 H 2329.18 -2.66224 1.62884 0
M  V30 24910 N 2329.49 -1.07901 -1.1487 0
M  V30 24911 C 2330.43 -0.704357 -2.1979 0
M  V30 24912 C 2331.4 0.306958 -1.63239 0
M  V30 24913 O 2332.59 0.192137 -1.8983 0
M  V30 24914 C 2329.73 -0.114305 -3.44911 0
M  V30 24915 C 2328.84 -1.17777 -4.15635 0
M  V30 24916 C 2327.98 -0.55213 -5.28323 0
M  V30 24917 C 2327.01 -1.598 -5.90873 0
M  V30 24918 N 2326.15 -0.994526 -6.95021 0
M  V30 24919 H 2330.99 -1.6034 -2.51187 0
M  V30 24920 H 2328.53 -0.801373 -1.23355 0
M  V30 24921 H 2330.49 0.245471 -4.16477 0
M  V30 24922 H 2329.12 0.748075 -3.14012 0
M  V30 24923 H 2328.17 -1.65505 -3.42509 0
M  V30 24924 H 2329.48 -1.97054 -4.58226 0
M  V30 24925 H 2328.63 -0.140306 -6.06538 0
M  V30 24926 H 2327.37 0.272345 -4.86939 0
M  V30 24927 H 2326.38 -2.01954 -5.11366 0
M  V30 24928 H 2327.6 -2.42486 -6.34332 0
M  V30 24929 H 2325.55 -0.191054 -6.55722 0
M  V30 24930 H 2325.47 -1.72445 -7.3607 0
M  V30 24931 H 2326.73 -0.60839 -7.77122 0
M  V30 24932 N 2330.96 1.31811 -0.863929 0
M  V30 24933 C 2332.19 2.00816 -0.485442 0
M  V30 24934 C 2332.6 1.65048 0.924978 0
M  V30 24935 O 2331.94 0.872602 1.61652 0
M  V30 24936 C 2332.01 3.5518 -0.555652 0
M  V30 24937 C 2331.67 4.14404 -1.92661 0
M  V30 24938 C 2332.67 4.31953 -2.89332 0
M  V30 24939 C 2330.35 4.50269 -2.22628 0
M  V30 24940 C 2332.35 4.84548 -4.14116 0
M  V30 24941 C 2330.03 5.02567 -3.47663 0
M  V30 24942 C 2331.03 5.19656 -4.43223 0
M  V30 24943 O 2330.72 5.70833 -5.66043 0
M  V30 24944 H 2330.45 0.649264 -0.188235 0
M  V30 24945 H 2333.01 1.69154 -1.16517 0
M  V30 24946 H 2331.24 3.86276 0.180969 0
M  V30 24947 H 2332.92 4.05448 -0.191451 0
M  V30 24948 H 2333.69 4.04569 -2.67487 0
M  V30 24949 H 2329.57 4.36247 -1.49028 0
M  V30 24950 H 2333.11 4.97802 -4.88712 0
M  V30 24951 H 2329.01 5.29384 -3.69354 0
M  V30 24952 H 2329.78 5.89212 -5.6813 0
M  V30 24953 N 2332.44 0.62277 1.44773 0
M  V30 24954 C 2333.39 -0.0871274 2.30635 0
M  V30 24955 C 2334.36 -0.845072 1.42996 0
M  V30 24956 O 2335.54 -0.827782 1.71908 0
M  V30 24957 C 2332.68 -1.06839 3.28146 0
M  V30 24958 C 2331.8 -0.309733 4.30888 0
M  V30 24959 C 2330.93 -1.28206 5.15496 0
M  V30 24960 C 2329.97 -0.51209 6.09954 0
M  V30 24961 N 2329.11 -1.43446 6.8729 0
M  V30 24962 H 2333.95 0.651025 2.90802 0
M  V30 24963 H 2331.48 0.332835 1.43285 0
M  V30 24964 H 2333.44 -1.65059 3.8316 0
M  V30 24965 H 2332.07 -1.77377 2.69699 0
M  V30 24966 H 2331.12 0.388247 3.78414 0
M  V30 24967 H 2332.44 0.290341 4.97954 0
M  V30 24968 H 2331.59 -1.93586 5.74986 0
M  V30 24969 H 2330.33 -1.91607 4.48484 0
M  V30 24970 H 2329.33 0.155248 5.49581 0
M  V30 24971 H 2330.56 0.117077 6.78999 0
M  V30 24972 H 2328.51 -2.05583 6.22954 0
M  V30 24973 H 2328.42 -0.888203 7.50764 0
M  V30 24974 H 2329.69 -2.07736 7.51309 0
M  V30 24975 N 2333.92 -1.53367 0.362817 0
M  V30 24976 C 2334.87 -2.2716 -0.500115 0
M  V30 24977 C 2335.86 -1.30032 -1.08573 0
M  V30 24978 O 2337.07 -1.4767 -1.02925 0
M  V30 24979 H 2333.44 -0.730141 -0.179996 0
M  V30 24980 H 2335.41 -2.98052 0.144063 0
M  V30 24981 C 2334.16 -3.07162 -1.62931 0
M  V30 24982 H 2333.49 -3.81742 -1.18799 0
M  V30 24983 H 2334.93 -3.61979 -2.20788 0
M  V30 24984 C 2333.38 -2.17833 -2.57003 0
M  V30 24985 O 2333.91 -1.78727 -3.59749 0
M  V30 24986 N 2332.12 -1.82522 -2.26128 0
M  V30 24987 H 2331.67 -2.14522 -1.42612 0
M  V30 24988 H 2331.63 -1.23039 -2.89325 0
M  V30 24989 N 2335.4 -0.091913 -1.57332 0
M  V30 24990 C 2336.65 0.572543 -1.94237 0
M  V30 24991 C 2336.97 1.68388 -0.973428 0
M  V30 24992 O 2336.23 1.95699 0.00753472 0
M  V30 24993 C 2336.53 1.17045 -3.37691 0
M  V30 24994 C 2336.19 0.183224 -4.50528 0
M  V30 24995 C 2334.86 -0.0883122 -4.81119 0
M  V30 24996 C 2337.21 -0.491041 -5.18882 0
M  V30 24997 C 2334.54 -1.04086 -5.77393 0
M  V30 24998 C 2336.89 -1.43204 -6.16178 0
M  V30 24999 C 2335.55 -1.71184 -6.45176 0
M  V30 25000 H 2334.82 0.209508 -0.710765 0
M  V30 25001 H 2337.47 -0.167069 -1.9077 0
M  V30 25002 H 2335.77 1.98624 -3.37721 0
M  V30 25003 H 2337.47 1.69221 -3.63546 0
M  V30 25004 H 2334.06 0.405049 -4.26682 0
M  V30 25005 H 2338.24 -0.294399 -4.95426 0
M  V30 25006 H 2333.5 -1.26468 -5.98177 0
M  V30 25007 H 2337.67 -1.96034 -6.68239 0
M  V30 25008 H 2335.3 -2.45153 -7.19586 0
M  V30 25009 N 2336.88 1.56548 0.181765 0
M  V30 25010 C 2337.84 1.94726 1.2089 0
M  V30 25011 C 2338.84 0.829771 1.37737 0
M  V30 25012 O 2340.03 1.09699 1.35321 0
M  V30 25013 C 2337.16 2.23296 2.57589 0
M  V30 25014 H 2338.35 2.8663 0.882225 0
M  V30 25015 H 2335.91 1.50444 0.423811 0
M  V30 25016 H 2336.64 1.34072 2.95288 0
M  V30 25017 H 2336.43 3.04741 2.4673 0
M  V30 25018 H 2337.92 2.5379 3.31633 0
M  V30 25019 N 2338.35 -0.449957 1.5104 0
M  V30 25020 C 2339.58 -1.22317 1.66871 0
M  V30 25021 C 2340 -1.85321 0.360759 0
M  V30 25022 O 2339.35 -1.70167 -0.659501 0
M  V30 25023 C 2339.41 -2.31648 2.77528 0
M  V30 25024 O 2339.13 -1.71223 4.03255 0
M  V30 25025 C 2340.63 -3.22155 3.04518 0
M  V30 25026 H 2337.85 -0.369145 0.560333 0
M  V30 25027 H 2340.39 -0.534684 1.97386 0
M  V30 25028 H 2338.55 -2.96234 2.49648 0
M  V30 25029 H 2338.96 -2.43381 4.64614 0
M  V30 25030 H 2340.43 -3.95031 3.85557 0
M  V30 25031 H 2340.91 -3.82176 2.16422 0
M  V30 25032 H 2341.52 -2.63282 3.3401 0
M  V30 25033 N 2339.83 -1.40974 -0.704569 0
M  V30 25034 C 2341.06 -1.4338 -1.49856 0
M  V30 25035 C 2341.48 -0.0382171 -1.88061 0
M  V30 25036 O 2340.84 0.956398 -1.54022 0
M  V30 25037 C 2340.89 -2.34043 -2.74329 0
M  V30 25038 O 2339.99 -1.79127 -3.71466 0
M  V30 25039 H 2339.33 -0.486982 -0.451381 0
M  V30 25040 H 2341.86 -1.85331 -0.8668 0
M  V30 25041 H 2341.87 -2.49609 -3.22737 0
M  V30 25042 H 2340.55 -3.35451 -2.45857 0
M  V30 25043 H 2339.13 -1.72964 -3.3036 0
M  V30 25044 N 2341.31 0.937917 -1.26653 0
M  V30 25045 C 2342.26 2.05843 -1.08311 0
M  V30 25046 C 2343.25 1.69398 -0.00910548 0
M  V30 25047 O 2344.46 1.79233 -0.166039 0
M  V30 25048 H 2340.83 0.67404 -0.333428 0
M  V30 25049 H 2342.8 2.18463 -2.03265 0
M  V30 25050 C 2341.55 3.39815 -0.736289 0
M  V30 25051 H 2340.88 3.68337 -1.55459 0
M  V30 25052 H 2342.32 4.19023 -0.647764 0
M  V30 25053 C 2340.78 3.32234 0.558765 0
M  V30 25054 O 2341.31 3.68627 1.59615 0
M  V30 25055 N 2339.51 2.85336 0.550607 0
M  V30 25056 H 2339.06 2.55917 -0.293988 0
M  V30 25057 H 2339.02 2.80646 1.41721 0
M  V30 25058 N 2342.79 1.08509 1.14296 0
M  V30 25059 C 2343.74 0.716003 2.19413 0
M  V30 25060 C 2344.71 -0.298297 1.634 0
M  V30 25061 O 2345.89 -0.182067 1.89929 0
M  V30 25062 C 2343.03 0.132594 3.44845 0
M  V30 25063 C 2342.14 1.1998 4.15005 0
M  V30 25064 C 2341.28 0.580141 5.28023 0
M  V30 25065 C 2340.32 1.62931 5.90017 0
M  V30 25066 N 2339.45 1.03137 6.94483 0
M  V30 25067 H 2344.29 1.6167 2.50333 0
M  V30 25068 H 2341.83 0.807904 1.22928 0
M  V30 25069 H 2343.79 -0.223381 4.16602 0
M  V30 25070 H 2342.42 -0.731412 3.14405 0
M  V30 25071 H 2341.47 1.67319 3.41626 0
M  V30 25072 H 2342.78 1.99481 4.57175 0
M  V30 25073 H 2341.94 0.172471 6.06455 0
M  V30 25074 H 2340.68 -0.246518 4.87077 0
M  V30 25075 H 2339.68 2.04663 5.10287 0
M  V30 25076 H 2340.91 2.45846 6.33037 0
M  V30 25077 H 2338.85 0.225826 6.55611 0
M  V30 25078 H 2338.77 1.76347 7.35145 0
M  V30 25079 H 2340.04 0.649594 7.76789 0
M  V30 25080 N 2344.27 -1.31351 0.870907 0
M  V30 25081 C 2345.2 -2.26573 0.272023 0
M  V30 25082 C 2346.18 -1.5115 -0.599358 0
M  V30 25083 O 2347.36 -1.80219 -0.552574 0
M  V30 25084 C 2344.49 -3.33074 -0.614743 0
M  V30 25085 C 2343.53 -4.26097 0.185417 0
M  V30 25086 S 2344.37 -5.12135 1.56453 0
M  V30 25087 C 2345.52 -6.22152 0.683916 0
M  V30 25088 H 2345.76 -2.77021 1.07921 0
M  V30 25089 H 2343.29 -1.3913 0.669484 0
M  V30 25090 H 2345.25 -3.94907 -1.12067 0
M  V30 25091 H 2343.91 -2.81379 -1.39588 0
M  V30 25092 H 2343.1 -5.01606 -0.490683 0
M  V30 25093 H 2342.7 -3.68766 0.62348 0
M  V30 25094 H 2345 -6.77418 -0.105091 0
M  V30 25095 H 2345.94 -6.93916 1.41016 0
M  V30 25096 H 2346.35 -5.63941 0.251051 0
M  V30 25097 N 2345.74 -0.630439 -1.44441 0
M  V30 25098 C 2347.02 -0.0656 -1.9549 0
M  V30 25099 C 2347.4 1.40848 -1.57242 0
M  V30 25100 O 2346.75 2.12256 -0.846154 0
M  V30 25101 C 2346.96 -0.287752 -3.47812 0
M  V30 25102 C 2348.31 -0.180588 -4.24216 0
M  V30 25103 O 2349.33 -0.219082 -3.55526 0
M  V30 25104 O 2348.19 -0.0849453 -5.46434 0
M  V30 25105 H 2345.28 0.0227031 -0.826688 0
M  V30 25106 H 2347.83 -0.702095 -1.54495 0
M  V30 25107 H 2346.6 -1.31063 -3.68698 0
M  V30 25108 H 2346.23 0.382914 -3.95752 0
M  V30 25109 N 2347.22 1.53172 -0.370945 0
M  V30 25110 C 2348.16 2.22274 0.516688 0
M  V30 25111 C 2349.13 1.21663 1.07874 0
M  V30 25112 O 2350.32 1.50585 1.13386 0
M  V30 25113 C 2347.44 2.92164 1.71341 0
M  V30 25114 C 2346.49 4.06893 1.27831 0
M  V30 25115 S 2347.32 5.34793 0.275123 0
M  V30 25116 C 2348.48 6.08198 1.47805 0
M  V30 25117 H 2348.71 2.97217 -0.0701577 0
M  V30 25118 H 2346.25 1.53619 -0.155065 0
M  V30 25119 H 2348.2 3.33045 2.39982 0
M  V30 25120 H 2346.86 2.16935 2.27152 0
M  V30 25121 H 2346.06 4.54829 2.17133 0
M  V30 25122 H 2345.66 3.67931 0.671041 0
M  V30 25123 H 2347.95 6.33255 2.4082 0
M  V30 25124 H 2348.89 7.00422 1.03996 0
M  V30 25125 H 2349.3 5.38717 1.68654 0
M  V30 25126 N 2348.7 0.100255 1.57281 0
M  V30 25127 C 2349.93 -0.570474 1.9888 0
M  V30 25128 C 2350.34 -1.61404 0.979505 0
M  V30 25129 O 2349.7 -1.82475 -0.0301967 0
M  V30 25130 C 2349.75 -1.21354 3.40522 0
M  V30 25131 O 2349.47 -0.211709 4.37588 0
M  V30 25132 C 2350.97 -1.96939 3.97153 0
M  V30 25133 H 2348.19 -0.152544 0.65343 0
M  V30 25134 H 2350.74 0.181066 2.03697 0
M  V30 25135 H 2348.89 -1.91597 3.36703 0
M  V30 25136 H 2349.31 -0.676515 5.20119 0
M  V30 25137 H 2350.78 -2.37285 4.98397 0
M  V30 25138 H 2351.26 -2.83727 3.35255 0
M  V30 25139 H 2351.86 -1.31499 4.0446 0
M  V30 25140 N 2350.18 -1.56643 -0.17346 0
M  V30 25141 C 2351.43 -1.81872 -0.890433 0
M  V30 25142 C 2351.75 -0.676992 -1.82338 0
M  V30 25143 O 2351.01 0.335893 -1.92796 0
M  V30 25144 C 2351.31 -3.13255 -1.72064 0
M  V30 25145 C 2350.97 -4.41061 -0.936801 0
M  V30 25146 C 2349.64 -4.75776 -0.720461 0
M  V30 25147 C 2351.99 -5.19763 -0.386827 0
M  V30 25148 C 2349.32 -5.86672 0.056986 0
M  V30 25149 C 2351.67 -6.31473 0.377521 0
M  V30 25150 C 2350.33 -6.64755 0.60468 0
M  V30 25151 H 2349.6 -0.665518 -0.325833 0
M  V30 25152 H 2352.25 -1.90868 -0.155493 0
M  V30 25153 H 2350.55 -2.99593 -2.5249 0
M  V30 25154 H 2352.25 -3.29986 -2.27838 0
M  V30 25155 H 2348.84 -4.1383 -1.11546 0
M  V30 25156 H 2353.03 -4.93339 -0.541312 0
M  V30 25157 H 2348.28 -6.10918 0.242742 0
M  V30 25158 H 2352.46 -6.91662 0.810946 0
M  V30 25159 H 2350.08 -7.50525 1.20898 0
M  V30 25160 N 2351.66 0.44194 -1.51277 0
M  V30 25161 C 2352.88 1.21892 -1.67801 0
M  V30 25162 C 2353.31 1.84367 -0.372896 0
M  V30 25163 O 2352.67 1.68606 0.666471 0
M  V30 25164 C 2352.71 2.28206 -2.79203 0
M  V30 25165 O 2351.82 3.33579 -2.42485 0
M  V30 25166 H 2351.16 0.357326 -0.559655 0
M  V30 25167 H 2353.69 0.522487 -1.97816 0
M  V30 25168 H 2353.7 2.73064 -3.03151 0
M  V30 25169 H 2352.37 1.82111 -3.7391 0
M  V30 25170 H 2350.95 2.9423 -2.29092 0
M  V30 25171 N 2353.14 1.41345 0.697083 0
M  V30 25172 C 2354.08 1.43074 1.81103 0
M  V30 25173 C 2355.05 0.285303 1.63631 0
M  V30 25174 O 2356.24 0.486124 1.84503 0
M  V30 25175 C 2353.38 1.31721 3.18973 0
M  V30 25176 C 2352.49 2.56121 3.47888 0
M  V30 25177 C 2351.63 2.37072 4.75363 0
M  V30 25178 C 2350.66 3.56957 4.97241 0
M  V30 25179 N 2349.8 3.36988 6.15941 0
M  V30 25180 H 2354.64 2.3828 1.7896 0
M  V30 25181 H 2352.18 1.18324 0.873954 0
M  V30 25182 H 2354.14 1.2314 3.98613 0
M  V30 25183 H 2352.77 0.40124 3.20297 0
M  V30 25184 H 2351.82 2.75157 2.62665 0
M  V30 25185 H 2353.13 3.45301 3.59956 0
M  V30 25186 H 2352.28 2.25951 5.63055 0
M  V30 25187 H 2351.02 1.45346 4.65538 0
M  V30 25188 H 2350.03 3.68535 4.07998 0
M  V30 25189 H 2351.25 4.49634 5.08926 0
M  V30 25190 H 2349.2 2.4796 6.07332 0
M  V30 25191 H 2349.12 4.19743 6.2877 0
M  V30 25192 H 2350.38 3.29636 7.06371 0
M  V30 25193 N 2354.61 -0.931187 1.27148 0
M  V30 25194 C 2355.55 -2.03544 1.05368 0
M  V30 25195 C 2356.56 -1.62796 0.0108724 0
M  V30 25196 O 2357.75 -1.76711 0.252051 0
M  V30 25197 C 2354.85 -3.33976 0.575625 0
M  V30 25198 C 2354.02 -4.03436 1.68992 0
M  V30 25199 C 2353.08 -5.12141 1.20822 0
M  V30 25200 O 2352.11 -5.36297 1.90721 0
M  V30 25201 N 2353.31 -5.80467 0.0619871 0
M  V30 25202 H 2356.07 -2.22793 2.00458 0
M  V30 25203 H 2353.63 -1.10134 1.18668 0
M  V30 25204 H 2355.63 -4.04003 0.237335 0
M  V30 25205 H 2354.2 -3.11326 -0.281961 0
M  V30 25206 H 2353.42 -3.27188 2.19867 0
M  V30 25207 H 2354.7 -4.46592 2.43788 0
M  V30 25208 H 2354.1 -5.63291 -0.521522 0
M  V30 25209 H 2352.66 -6.51438 -0.21715 0
M  V30 25210 N 2356.09 -1.09114 -1.13719 0
M  V30 25211 C 2357.04 -0.722258 -2.21102 0
M  V30 25212 C 2358.03 0.275344 -1.67147 0
M  V30 25213 O 2359.24 0.137144 -1.79477 0
M  V30 25214 H 2355.61 -0.215565 -0.720441 0
M  V30 25215 H 2357.59 -1.63714 -2.4948 0
M  V30 25216 C 2356.33 -0.155491 -3.47352 0
M  V30 25217 H 2355.66 -0.914314 -3.89205 0
M  V30 25218 H 2357.1 0.0647221 -4.23951 0
M  V30 25219 C 2355.56 1.10847 -3.18142 0
M  V30 25220 O 2356.09 2.19221 -3.36608 0
M  V30 25221 N 2354.29 1.02171 -2.72047 0
M  V30 25222 H 2353.84 0.139719 -2.57221 0
M  V30 25223 H 2353.8 1.86815 -2.52878 0
M  V30 25224 N 2357.57 1.30887 -0.877861 0
M  V30 25225 C 2358.53 2.26599 -0.344305 0
M  V30 25226 C 2359.53 1.52525 0.509193 0
M  V30 25227 O 2360.72 1.71285 0.317368 0
M  V30 25228 C 2357.85 3.37061 0.510139 0
M  V30 25229 H 2359.05 2.75308 -1.18935 0
M  V30 25230 H 2356.6 1.41954 -0.654113 0
M  V30 25231 H 2357.34 2.93658 1.37606 0
M  V30 25232 H 2357.12 3.9197 -0.101116 0
M  V30 25233 H 2358.61 4.0832 0.875465 0
M  V30 25234 N 2359.05 0.638091 1.44105 0
M  V30 25235 C 2359.98 -0.0493876 2.33448 0
M  V30 25236 C 2360.96 -0.827646 1.48607 0
M  V30 25237 O 2362.14 -0.792141 1.7731 0
M  V30 25238 C 2359.27 -1.02685 3.31773 0
M  V30 25239 C 2358.23 -0.359748 4.26485 0
M  V30 25240 C 2357.55 -1.4476 5.14732 0
M  V30 25241 C 2358.85 0.738387 5.17054 0
M  V30 25242 H 2360.55 0.696688 2.91181 0
M  V30 25243 H 2358.09 0.336481 1.40014 0
M  V30 25244 H 2360.05 -1.51659 3.93164 0
M  V30 25245 H 2358.77 -1.8039 2.72263 0
M  V30 25246 H 2357.43 0.109404 3.66437 0
M  V30 25247 H 2357.08 -2.2157 4.5157 0
M  V30 25248 H 2356.78 -1.00658 5.78914 0
M  V30 25249 H 2358.3 -1.93901 5.78995 0
M  V30 25250 H 2359.72 0.331454 5.72341 0
M  V30 25251 H 2358.11 1.10296 5.89877 0
M  V30 25252 H 2359.18 1.60266 4.57649 0
M  V30 25253 N 2360.53 -1.52973 0.379063 0
M  V30 25254 C 2361.46 -2.2907 -0.452665 0
M  V30 25255 C 2362.44 -1.32041 -1.07235 0
M  V30 25256 O 2363.62 -1.60925 -1.08705 0
M  V30 25257 C 2360.75 -3.08995 -1.58554 0
M  V30 25258 C 2359.71 -4.13824 -1.09243 0
M  V30 25259 C 2359.03 -4.81911 -2.31659 0
M  V30 25260 C 2360.33 -5.22031 -0.16761 0
M  V30 25261 H 2362.03 -2.98845 0.182233 0
M  V30 25262 H 2359.57 -1.43724 0.0890845 0
M  V30 25263 H 2361.52 -3.60983 -2.17414 0
M  V30 25264 H 2360.25 -2.36935 -2.24788 0
M  V30 25265 H 2358.91 -3.62801 -0.526431 0
M  V30 25266 H 2358.56 -4.06409 -2.96379 0
M  V30 25267 H 2358.26 -5.52758 -1.9933 0
M  V30 25268 H 2359.78 -5.367 -2.9118 0
M  V30 25269 H 2361.19 -5.69441 -0.664086 0
M  V30 25270 H 2359.59 -6.00064 0.065432 0
M  V30 25271 H 2360.66 -4.7848 0.786431 0
M  V30 25272 N 2362 -0.108595 -1.57225 0
M  V30 25273 C 2363.42 0.24803 -1.57661 0
M  V30 25274 C 2363.62 1.67462 -1.12066 0
M  V30 25275 O 2362.68 2.39382 -0.803278 0
M  V30 25276 C 2363.99 0.0241758 -3.0069 0
M  V30 25277 C 2365.54 0.0908822 -3.12868 0
M  V30 25278 C 2366.01 -0.105148 -4.57879 0
M  V30 25279 N 2367.5 -0.050766 -4.63172 0
M  V30 25280 C 2368.24 -0.177497 -5.73125 0
M  V30 25281 N 2367.73 -0.359817 -6.91865 0
M  V30 25282 N 2369.53 -0.117808 -5.61977 0
M  V30 25283 H 2361.68 -1.04052 -1.85167 0
M  V30 25284 H 2363.94 -0.408895 -0.855283 0
M  V30 25285 H 2363.65 -0.961663 -3.38297 0
M  V30 25286 H 2363.52 0.760615 -3.69452 0
M  V30 25287 H 2365.91 1.06724 -2.75126 0
M  V30 25288 H 2365.99 -0.677268 -2.46671 0
M  V30 25289 H 2365.63 -1.07843 -4.96319 0
M  V30 25290 H 2365.56 0.682862 -5.22154 0
M  V30 25291 H 2368.05 0.0870602 -3.778 0
M  V30 25292 H 2368.37 -0.447665 -7.71502 0
M  V30 25293 H 2366.71 -0.395658 -6.93873 0
M  V30 25294 H 2369.9 0.0235919 -4.68094 0
M  V30 25295 H 2370.08 -0.220019 -6.47626 0
M  V30 25296 N 2363.48 1.56732 0.16515 0
M  V30 25297 C 2364.71 1.86844 0.90022 0
M  V30 25298 C 2365.13 0.695627 1.74765 0
M  V30 25299 O 2364.49 -0.355188 1.77787 0
M  V30 25300 C 2364.54 3.15416 1.74771 0
M  V30 25301 O 2363.64 2.98073 2.85002 0
M  V30 25302 H 2362.98 0.614396 0.251821 0
M  V30 25303 H 2365.51 2.03962 0.161433 0
M  V30 25304 H 2365.52 3.46978 2.1464 0
M  V30 25305 H 2364.2 4.00387 1.12529 0
M  V30 25306 H 2362.77 2.7788 2.48671 0
M  V30 25307 N 2364.96 -0.433911 1.51509 0
M  V30 25308 C 2365.87 -1.55207 1.7592 0
M  V30 25309 C 2366.89 -1.61661 0.643574 0
M  V30 25310 O 2368.06 -1.78839 0.926214 0
M  V30 25311 C 2365.13 -2.91161 1.88218 0
M  V30 25312 C 2364.19 -2.94796 3.12079 0
M  V30 25313 C 2363.42 -4.24266 3.23782 0
M  V30 25314 O 2363.64 -5.16829 2.41339 0
M  V30 25315 O 2362.58 -4.34255 4.16781 0
M  V30 25316 H 2366.4 -1.37522 2.70779 0
M  V30 25317 H 2363.99 -0.617269 1.36052 0
M  V30 25318 H 2365.87 -3.71841 1.98273 0
M  V30 25319 H 2364.55 -3.08967 0.965467 0
M  V30 25320 H 2363.45 -2.13059 3.07501 0
M  V30 25321 H 2364.79 -2.81936 4.03451 0
M  V30 25322 N 2366.44 -1.41713 -0.689577 0
M  V30 25323 C 2367.67 -1.4455 -1.4761 0
M  V30 25324 C 2368.08 -0.0509366 -1.89131 0
M  V30 25325 O 2367.42 0.941432 -1.57743 0
M  V30 25326 C 2367.48 -2.29645 -2.76592 0
M  V30 25327 C 2367.15 -3.77727 -2.57238 0
M  V30 25328 C 2368.14 -4.69743 -2.22795 0
M  V30 25329 C 2365.83 -4.21834 -2.72692 0
M  V30 25330 C 2367.82 -6.03855 -2.04053 0
M  V30 25331 C 2365.51 -5.5601 -2.53567 0
M  V30 25332 C 2366.51 -6.46836 -2.19298 0
M  V30 25333 O 2366.19 -7.78535 -2.00345 0
M  V30 25334 H 2365.93 -0.49422 -0.461218 0
M  V30 25335 H 2368.48 -1.86713 -0.856012 0
M  V30 25336 H 2366.71 -1.82307 -3.4103 0
M  V30 25337 H 2368.4 -2.24112 -3.3842 0
M  V30 25338 H 2369.17 -4.36955 -2.10465 0
M  V30 25339 H 2365.04 -3.5144 -2.98347 0
M  V30 25340 H 2368.59 -6.74712 -1.77229 0
M  V30 25341 H 2364.49 -5.88376 -2.65489 0
M  V30 25342 H 2365.25 -7.89741 -2.15061 0
M  V30 25343 N 2367.92 0.924431 -1.2764 0
M  V30 25344 C 2368.85 2.02983 -1.06445 0
M  V30 25345 C 2369.86 1.62788 -0.0195057 0
M  V30 25346 O 2371.05 1.76575 -0.261419 0
M  V30 25347 C 2368.15 3.33666 -0.593328 0
M  V30 25348 C 2367.32 4.02534 -1.7113 0
M  V30 25349 C 2366.38 5.11493 -1.23536 0
M  V30 25350 O 2365.41 5.35278 -1.93563 0
M  V30 25351 N 2366.61 5.80426 -0.0927698 0
M  V30 25352 H 2369.38 2.21726 -2.01637 0
M  V30 25353 H 2366.94 1.09503 -1.1925 0
M  V30 25354 H 2368.93 4.03872 -0.258757 0
M  V30 25355 H 2367.5 3.11471 0.265447 0
M  V30 25356 H 2366.72 3.26018 -2.21599 0
M  V30 25357 H 2368.01 4.45293 -2.46153 0
M  V30 25358 H 2367.4 5.6356 0.491642 0
M  V30 25359 H 2365.96 6.51544 0.182599 0
M  V30 25360 N 2369.39 1.09715 1.13139 0
M  V30 25361 C 2370.36 0.742789 2.1683 0
M  V30 25362 C 2371.36 -0.229101 1.5916 0
M  V30 25363 O 2372.55 -0.00690175 1.74199 0
M  V30 25364 C 2369.68 0.0989767 3.40756 0
M  V30 25365 H 2370.87 1.66114 2.49692 0
M  V30 25366 H 2368.43 0.896721 1.28018 0
M  V30 25367 H 2369.16 -0.830459 3.13487 0
M  V30 25368 H 2368.95 0.798333 3.83887 0
M  V30 25369 H 2370.44 -0.13345 4.17387 0
M  V30 25370 N 2370.87 -1.30419 0.88479 0
M  V30 25371 C 2372.15 -1.90967 0.423219 0
M  V30 25372 C 2372.53 -1.80418 -1.09601 0
M  V30 25373 O 2371.88 -1.22128 -1.93124 0
M  V30 25374 C 2372.09 -3.36625 0.921115 0
M  V30 25375 C 2373.44 -4.13698 0.955976 0
M  V30 25376 O 2374.46 -3.45468 0.867767 0
M  V30 25377 O 2373.32 -5.35596 1.08623 0
M  V30 25378 H 2370.41 -0.816816 0.129383 0
M  V30 25379 H 2372.96 -1.38988 0.973678 0
M  V30 25380 H 2371.73 -3.38386 1.96495 0
M  V30 25381 H 2371.35 -3.96058 0.34981 0
M  V30 25382 N 2372.35 -0.645724 -1.43764 0
M  V30 25383 C 2373.58 -0.163355 -2.05953 0
M  V30 25384 C 2373.99 1.1732 -1.48434 0
M  V30 25385 O 2373.33 1.7337 -0.607326 0
M  V30 25386 C 2373.39 0.0102433 -3.59499 0
M  V30 25387 C 2373.06 -1.25043 -4.3956 0
M  V30 25388 C 2374.05 -2.17747 -4.72104 0
M  V30 25389 C 2371.74 -1.48992 -4.79694 0
M  V30 25390 C 2373.73 -3.32699 -5.43682 0
M  V30 25391 C 2371.42 -2.64238 -5.51018 0
M  V30 25392 C 2372.42 -3.55918 -5.82933 0
M  V30 25393 O 2372.11 -4.69153 -6.52802 0
M  V30 25394 H 2371.84 -0.0837104 -0.670797 0
M  V30 25395 H 2374.39 -0.88444 -1.85383 0
M  V30 25396 H 2372.62 0.786624 -3.78615 0
M  V30 25397 H 2374.31 0.449017 -4.03409 0
M  V30 25398 H 2375.08 -2.00484 -4.41623 0
M  V30 25399 H 2370.96 -0.785158 -4.54265 0
M  V30 25400 H 2374.5 -4.04279 -5.6851 0
M  V30 25401 H 2370.4 -2.81439 -5.80915 0
M  V30 25402 H 2371.17 -4.68322 -6.7128 0
M  V30 25403 N 2373.83 1.5277 -0.38717 0
M  V30 25404 C 2374.74 2.30118 0.456401 0
M  V30 25405 C 2375.75 1.36946 1.0734 0
M  V30 25406 O 2376.93 1.70015 1.07968 0
M  V30 25407 C 2374 3.09139 1.56952 0
M  V30 25408 C 2373.06 4.18015 0.977842 0
M  V30 25409 C 2372.29 4.93259 2.03791 0
M  V30 25410 O 2372.51 4.68573 3.25263 0
M  V30 25411 O 2371.45 5.7866 1.6564 0
M  V30 25412 H 2375.27 3.03203 -0.173643 0
M  V30 25413 H 2372.86 1.48636 -0.150945 0
M  V30 25414 H 2374.74 3.58416 2.21621 0
M  V30 25415 H 2373.41 2.38869 2.18456 0
M  V30 25416 H 2372.32 3.72939 0.29446 0
M  V30 25417 H 2373.65 4.90514 0.407042 0
M  V30 25418 N 2375.31 0.116931 1.57166 0
M  V30 25419 C 2376.53 -0.552675 1.99901 0
M  V30 25420 C 2376.96 -1.59562 0.996067 0
M  V30 25421 O 2376.31 -1.81271 -0.0325241 0
M  V30 25422 C 2376.36 -1.15736 3.41522 0
M  V30 25423 O 2375.47 -2.27292 3.4411 0
M  V30 25424 H 2374.81 -0.138246 0.649449 0
M  V30 25425 H 2377.34 0.204795 2.03572 0
M  V30 25426 H 2377.35 -1.49339 3.79686 0
M  V30 25427 H 2376.02 -0.393421 4.14035 0
M  V30 25428 H 2374.6 -1.95144 3.17763 0
M  V30 25429 N 2376.78 -1.56818 -0.156836 0
M  V30 25430 C 2377.71 -2.00553 -1.19586 0
M  V30 25431 C 2378.7 -0.883452 -1.45359 0
M  V30 25432 O 2379.88 -1.15057 -1.56447 0
M  V30 25433 C 2377.01 -2.37777 -2.53139 0
M  V30 25434 C 2375.96 -3.53079 -2.41907 0
M  V30 25435 C 2375.29 -3.76088 -3.80082 0
M  V30 25436 C 2376.59 -4.86065 -1.91149 0
M  V30 25437 H 2378.28 -2.87601 -0.832243 0
M  V30 25438 H 2375.83 -1.38365 -0.398894 0
M  V30 25439 H 2377.78 -2.66972 -3.26042 0
M  V30 25440 H 2376.51 -1.47655 -2.91317 0
M  V30 25441 H 2375.17 -3.24034 -1.71457 0
M  V30 25442 H 2374.81 -2.83233 -4.15678 0
M  V30 25443 H 2374.51 -4.53677 -3.73431 0
M  V30 25444 H 2376.04 -4.07698 -4.54549 0
M  V30 25445 H 2377.45 -5.14042 -2.53837 0
M  V30 25446 H 2375.85 -5.67392 -1.95412 0
M  V30 25447 H 2376.92 -4.77094 -0.866589 0
M  V30 25448 N 2378.26 0.425871 -1.51737 0
M  V30 25449 C 2379.68 0.763235 -1.40167 0
M  V30 25450 C 2379.88 1.95376 -0.492996 0
M  V30 25451 O 2378.93 2.52455 0.0475371 0
M  V30 25452 C 2380.25 1.03286 -2.82405 0
M  V30 25453 C 2381.8 1.13659 -2.91634 0
M  V30 25454 C 2382.27 1.43908 -4.34804 0
M  V30 25455 N 2383.76 1.50808 -4.37962 0
M  V30 25456 C 2384.5 1.75807 -5.45783 0
M  V30 25457 N 2383.99 1.98522 -6.63748 0
M  V30 25458 N 2385.79 1.77684 -5.33277 0
M  V30 25459 H 2377.94 -0.358037 -2.09361 0
M  V30 25460 H 2380.2 -0.097826 -0.942939 0
M  V30 25461 H 2379.91 0.230634 -3.50943 0
M  V30 25462 H 2379.78 1.95749 -3.22432 0
M  V30 25463 H 2382.17 1.92943 -2.23287 0
M  V30 25464 H 2382.25 0.190711 -2.55088 0
M  V30 25465 H 2381.89 0.651482 -5.03704 0
M  V30 25466 H 2381.82 2.39721 -4.68872 0
M  V30 25467 H 2384.31 1.35111 -3.52921 0
M  V30 25468 H 2384.63 2.17 -7.41708 0
M  V30 25469 H 2382.97 1.95821 -6.66843 0
M  V30 25470 H 2386.16 1.59465 -4.401 0
M  V30 25471 H 2386.33 1.96829 -6.17384 0
M  V30 25472 N 2379.74 1.42077 0.682052 0
M  V30 25473 C 2380.99 1.42159 1.44212 0
M  V30 25474 C 2381.32 0.0354527 1.94468 0
M  V30 25475 O 2380.57 -0.954972 1.70818 0
M  V30 25476 C 2380.87 2.38666 2.66032 0
M  V30 25477 C 2380.54 3.8521 2.34359 0
M  V30 25478 C 2379.2 4.25128 2.25432 0
M  V30 25479 C 2381.55 4.77677 2.08504 0
M  V30 25480 C 2378.88 5.55504 1.88765 0
M  V30 25481 C 2381.23 6.08387 1.73343 0
M  V30 25482 C 2379.89 6.47312 1.62921 0
M  V30 25483 H 2379.16 0.520196 0.527709 0
M  V30 25484 H 2381.81 1.74968 0.778356 0
M  V30 25485 H 2380.12 1.99158 3.37407 0
M  V30 25486 H 2381.81 2.35997 3.24201 0
M  V30 25487 H 2378.4 3.53601 2.42207 0
M  V30 25488 H 2382.59 4.4763 2.14338 0
M  V30 25489 H 2377.84 5.8453 1.7926 0
M  V30 25490 H 2382.02 6.79529 1.52361 0
M  V30 25491 H 2379.64 7.48247 1.34279 0
M  V30 25492 N 2381.22 -0.917649 1.28129 0
M  V30 25493 C 2382.47 -1.66639 1.15055 0
M  V30 25494 C 2382.79 -1.92147 -0.301643 0
M  V30 25495 O 2382.05 -1.51713 -1.23619 0
M  V30 25496 C 2382.35 -3.03323 1.89023 0
M  V30 25497 C 2382.01 -2.9749 3.38837 0
M  V30 25498 C 2380.68 -2.95606 3.79698 0
M  V30 25499 C 2383.03 -2.88028 4.34384 0
M  V30 25500 C 2380.36 -2.82057 5.14452 0
M  V30 25501 C 2382.71 -2.7602 5.69206 0
M  V30 25502 C 2381.37 -2.72492 6.09348 0
M  V30 25503 H 2380.64 -0.609775 0.421017 0
M  V30 25504 H 2383.29 -1.06942 1.58857 0
M  V30 25505 H 2381.59 -3.66783 1.37759 0
M  V30 25506 H 2383.29 -3.60152 1.76327 0
M  V30 25507 H 2379.88 -2.99749 3.06347 0
M  V30 25508 H 2384.07 -2.88574 4.0378 0
M  V30 25509 H 2379.32 -2.77718 5.44686 0
M  V30 25510 H 2383.5 -2.67666 6.42906 0
M  V30 25511 H 2381.12 -2.6175 7.13716 0
M  V30 25512 N 2382.7 -1.10314 -1.12555 0
M  V30 25513 C 2383.92 -0.867118 -1.88403 0
M  V30 25514 C 2384.35 0.576786 -1.79039 0
M  V30 25515 O 2383.71 1.40616 -1.14442 0
M  V30 25516 C 2383.75 -1.31857 -3.35628 0
M  V30 25517 O 2382.86 -0.482806 -4.09564 0
M  V30 25518 H 2382.2 -0.313281 -0.585449 0
M  V30 25519 H 2384.73 -1.46962 -1.42349 0
M  V30 25520 H 2384.74 -1.30796 -3.86466 0
M  V30 25521 H 2383.41 -2.37007 -3.41761 0
M  V30 25522 H 2381.99 -0.558513 -3.68694 0
M  V30 25523 N 2384.18 1.29948 -0.891694 0
M  V30 25524 C 2385.11 2.3039 -0.379838 0
M  V30 25525 C 2386.09 1.61271 0.540891 0
M  V30 25526 O 2387.27 1.88835 0.453319 0
M  V30 25527 C 2384.4 3.44982 0.400593 0
M  V30 25528 C 2383.36 4.25845 -0.42898 0
M  V30 25529 C 2382.68 5.32555 0.478463 0
M  V30 25530 C 2383.98 4.94724 -1.67467 0
M  V30 25531 H 2385.68 2.73452 -1.21919 0
M  V30 25532 H 2383.22 1.31461 -0.587698 0
M  V30 25533 H 2385.17 4.14317 0.769361 0
M  V30 25534 H 2383.9 3.00742 1.27365 0
M  V30 25535 H 2382.56 3.58207 -0.779974 0
M  V30 25536 H 2382.21 4.84561 1.34943 0
M  V30 25537 H 2381.91 5.87555 -0.0728465 0
M  V30 25538 H 2383.43 6.04744 0.843599 0
M  V30 25539 H 2384.84 5.5654 -1.3761 0
M  V30 25540 H 2383.24 5.5962 -2.16668 0
M  V30 25541 H 2384.31 4.20468 -2.41525 0
M  V30 25542 N 2385.65 0.653339 1.4342 0
M  V30 25543 C 2386.58 -0.0246246 2.33487 0
M  V30 25544 C 2387.56 -0.811837 1.49476 0
M  V30 25545 O 2388.75 -0.773291 1.7814 0
M  V30 25546 C 2385.88 -0.991601 3.32843 0
M  V30 25547 C 2384.83 -0.314493 4.26843 0
M  V30 25548 C 2384.16 -1.39292 5.16238 0
M  V30 25549 C 2385.46 0.793186 5.16242 0
M  V30 25550 H 2387.15 0.727532 2.90426 0
M  V30 25551 H 2384.7 0.351312 1.39649 0
M  V30 25552 H 2386.65 -1.4748 3.9475 0
M  V30 25553 H 2385.38 -1.77492 2.74161 0
M  V30 25554 H 2384.04 0.148264 3.663 0
M  V30 25555 H 2383.68 -2.16768 4.53895 0
M  V30 25556 H 2383.38 -0.945121 5.79949 0
M  V30 25557 H 2384.91 -1.87749 5.81019 0
M  V30 25558 H 2386.32 0.39214 5.71957 0
M  V30 25559 H 2384.72 1.16547 5.88674 0
M  V30 25560 H 2385.79 1.65111 4.55924 0
M  V30 25561 N 2387.13 -1.52563 0.395266 0
M  V30 25562 C 2388.36 -2.06551 -0.18742 0
M  V30 25563 C 2388.78 -1.26459 -1.39247 0
M  V30 25564 O 2388.14 -0.291182 -1.78946 0
M  V30 25565 C 2388.19 -3.56685 -0.529922 0
M  V30 25566 O 2387.29 -3.79121 -1.623 0
M  V30 25567 H 2386.63 -0.663691 -0.020242 0
M  V30 25568 H 2389.16 -1.9666 0.564461 0
M  V30 25569 H 2389.17 -4.00229 -0.792528 0
M  V30 25570 H 2387.85 -4.14416 0.35106 0
M  V30 25571 H 2386.42 -3.47464 -1.35364 0
M  V30 25572 N 2388.61 -0.125265 -1.57101 0
M  V30 25573 C 2389.86 0.530164 -1.95022 0
M  V30 25574 C 2390.18 1.66814 -1.00985 0
M  V30 25575 O 2389.45 1.95784 -0.0673037 0
M  V30 25576 H 2388.03 0.19884 -0.72005 0
M  V30 25577 H 2390.69 -0.195674 -1.93915 0
M  V30 25578 H 2389.79 0.920629 -2.98213 0
M  V30 25579 N 2390.09 1.56899 0.148518 0
M  V30 25580 C 2391.31 1.87789 0.880352 0
M  V30 25581 C 2391.74 0.714124 1.74017 0
M  V30 25582 O 2391.1 -0.336312 1.78153 0
M  V30 25583 C 2391.14 3.17252 1.71416 0
M  V30 25584 O 2390.25 3.01079 2.81824 0
M  V30 25585 H 2389.59 0.617032 0.24529 0
M  V30 25586 H 2392.12 2.04122 0.139791 0
M  V30 25587 H 2392.13 3.49235 2.10948 0
M  V30 25588 H 2390.8 4.01558 1.08277 0
M  V30 25589 H 2389.38 2.80501 2.4571 0
M  V30 25590 N 2391.57 -0.417818 1.51961 0
M  V30 25591 C 2392.5 -1.51551 1.77636 0
M  V30 25592 C 2393.48 -1.58125 0.626946 0
M  V30 25593 O 2394.66 -1.73539 0.871662 0
M  V30 25594 C 2391.79 -2.89457 1.91917 0
M  V30 25595 C 2390.75 -2.97737 3.07468 0
M  V30 25596 C 2390.07 -4.37813 3.06959 0
M  V30 25597 C 2391.37 -2.70019 4.47087 0
M  V30 25598 H 2393.07 -1.30315 2.69552 0
M  V30 25599 H 2390.61 -0.625469 1.29707 0
M  V30 25600 H 2392.56 -3.66226 2.08461 0
M  V30 25601 H 2391.29 -3.11967 0.966653 0
M  V30 25602 H 2389.95 -2.23411 2.9066 0
M  V30 25603 H 2389.6 -4.5732 2.09446 0
M  V30 25604 H 2389.3 -4.4428 3.84564 0
M  V30 25605 H 2390.82 -5.16529 3.25622 0
M  V30 25606 H 2392.23 -3.36514 4.64145 0
M  V30 25607 H 2390.63 -2.87872 5.26545 0
M  V30 25608 H 2391.7 -1.65506 4.5578 0
M  V30 25609 N 2393.04 -1.42436 -0.674508 0
M  V30 25610 C 2393.99 -1.46173 -1.80932 0
M  V30 25611 C 2394.99 -0.337429 -1.66005 0
M  V30 25612 O 2396.19 -0.510455 -1.7261 0
M  V30 25613 H 2392.57 -0.457809 -0.596586 0
M  V30 25614 H 2394.54 -2.4177 -1.74899 0
M  V30 25615 C 2393.29 -1.38128 -3.19086 0
M  V30 25616 H 2392.61 -2.23936 -3.31199 0
M  V30 25617 H 2394.05 -1.44804 -3.98507 0
M  V30 25618 C 2392.51 -0.0961109 -3.36763 0
M  V30 25619 O 2393.04 0.851004 -3.92582 0
M  V30 25620 N 2391.24 -0.0131697 -2.90597 0
M  V30 25621 H 2390.79 -0.784683 -2.45358 0
M  V30 25622 H 2390.75 0.84608 -3.02802 0
M  V30 25623 N 2394.52 0.910841 -1.28614 0
M  V30 25624 C 2395.75 1.69925 -1.18913 0
M  V30 25625 C 2396.17 1.86453 0.248339 0
M  V30 25626 O 2395.53 1.37679 1.17959 0
M  V30 25627 C 2395.58 3.06742 -1.89583 0
M  V30 25628 O 2394.68 3.94394 -1.20528 0
M  V30 25629 H 2394.02 0.520215 -0.412641 0
M  V30 25630 H 2396.55 1.13867 -1.69987 0
M  V30 25631 H 2396.56 3.56955 -1.97603 0
M  V30 25632 H 2395.24 2.9403 -2.94142 0
M  V30 25633 H 2393.81 3.52829 -1.2069 0
M  V30 25634 N 2396 1.10909 1.11969 0
M  V30 25635 C 2396.95 0.731576 2.15944 0
M  V30 25636 C 2397.93 -0.261671 1.58758 0
M  V30 25637 O 2399.13 -0.0696412 1.76863 0
M  V30 25638 C 2396.26 0.17036 3.42877 0
M  V30 25639 C 2395.34 1.19094 4.07035 0
M  V30 25640 N 2395.73 2.3833 4.4613 0
M  V30 25641 C 2394.03 1.0326 4.33882 0
M  V30 25642 C 2394.73 3.03375 4.96325 0
M  V30 25643 N 2393.71 2.30874 4.92136 0
M  V30 25644 H 2397.51 1.63916 2.43944 0
M  V30 25645 H 2395.02 0.987528 1.28925 0
M  V30 25646 H 2397.02 -0.118198 4.16732 0
M  V30 25647 H 2395.68 -0.73188 3.16344 0
M  V30 25648 H 2396.69 2.75823 4.3834 0
M  V30 25649 H 2393.37 0.186329 4.17084 0
M  V30 25650 H 2394.76 4.04828 5.3625 0
M  V30 25651 N 2397.48 -1.29474 0.898573 0
M  V30 25652 C 2398.73 -1.95219 0.522881 0
M  V30 25653 C 2399.05 -1.71194 -0.93368 0
M  V30 25654 O 2398.32 -1.04308 -1.65821 0
M  V30 25655 H 2396.9 -0.722333 0.190379 0
M  V30 25656 H 2399.56 -1.57748 1.14462 0
M  V30 25657 H 2398.66 -3.04044 0.704529 0
M  V30 25658 N 2398.96 -0.660936 -1.43071 0
M  V30 25659 C 2399.89 0.0122419 -2.33497 0
M  V30 25660 C 2400.87 0.803899 -1.49905 0
M  V30 25661 O 2402.05 0.763833 -1.78548 0
M  V30 25662 C 2399.18 0.973936 -3.33364 0
M  V30 25663 C 2398.14 0.291852 -4.27004 0
M  V30 25664 C 2397.46 1.36553 -5.16969 0
M  V30 25665 C 2398.76 -0.820552 -5.15814 0
M  V30 25666 H 2400.46 -0.742924 -2.90036 0
M  V30 25667 H 2398 -0.358713 -1.39461 0
M  V30 25668 H 2399.96 1.45385 -3.95527 0
M  V30 25669 H 2398.68 1.76036 -2.75098 0
M  V30 25670 H 2397.34 -0.167687 -3.66216 0
M  V30 25671 H 2396.99 2.14358 -4.55038 0
M  V30 25672 H 2396.69 0.914352 -5.80442 0
M  V30 25673 H 2398.21 1.84665 -5.82006 0
M  V30 25674 H 2399.62 -0.422467 -5.71741 0
M  V30 25675 H 2398.02 -1.19667 -5.88048 0
M  V30 25676 H 2399.09 -1.67526 -4.55042 0
M  V30 25677 N 2400.43 1.52351 -0.403352 0
M  V30 25678 C 2401.34 2.30589 0.431969 0
M  V30 25679 C 2402.36 1.38077 1.05881 0
M  V30 25680 O 2403.54 1.7115 1.06158 0
M  V30 25681 C 2400.6 3.10787 1.53664 0
M  V30 25682 C 2399.66 4.19029 0.933451 0
M  V30 25683 C 2398.9 4.95393 1.98548 0
M  V30 25684 O 2399.12 4.71996 3.20274 0
M  V30 25685 O 2398.05 5.80384 1.59493 0
M  V30 25686 H 2401.88 3.03002 -0.205792 0
M  V30 25687 H 2399.46 1.48467 -0.166702 0
M  V30 25688 H 2401.35 3.60746 2.17808 0
M  V30 25689 H 2400.02 2.41173 2.15911 0
M  V30 25690 H 2398.93 3.73231 0.254888 0
M  V30 25691 H 2400.26 4.90918 0.354993 0
M  V30 25692 N 2401.91 0.133594 1.57033 0
M  V30 25693 C 2402.84 -0.807528 2.19092 0
M  V30 25694 C 2403.82 -1.26679 1.13519 0
M  V30 25695 O 2405.01 -1.32677 1.41812 0
M  V30 25696 C 2402.14 -2.05207 2.80191 0
M  V30 25697 C 2401.09 -1.73008 3.91475 0
M  V30 25698 C 2400.42 -3.04614 4.39448 0
M  V30 25699 C 2401.72 -0.987077 5.12888 0
M  V30 25700 H 2403.41 -0.290351 2.97989 0
M  V30 25701 H 2400.96 -0.138214 1.43335 0
M  V30 25702 H 2402.91 -2.71515 3.22269 0
M  V30 25703 H 2401.64 -2.59275 1.98606 0
M  V30 25704 H 2400.29 -1.09083 3.49995 0
M  V30 25705 H 2399.94 -3.56645 3.54702 0
M  V30 25706 H 2399.64 -2.83838 5.145 0
M  V30 25707 H 2401.17 -3.72016 4.84187 0
M  V30 25708 H 2402.58 -1.55198 5.51894 0
M  V30 25709 H 2400.98 -0.879746 5.93616 0
M  V30 25710 H 2402.05 0.0236139 4.84894 0
M  V30 25711 N 2403.39 -1.56975 -0.140195 0
M  V30 25712 C 2404.34 -1.99733 -1.19204 0
M  V30 25713 C 2405.33 -0.890802 -1.44087 0
M  V30 25714 O 2406.54 -1.07599 -1.443 0
M  V30 25715 H 2402.91 -0.635905 -0.401409 0
M  V30 25716 H 2404.88 -2.87343 -0.804763 0
M  V30 25717 C 2403.63 -2.39972 -2.51612 0
M  V30 25718 H 2402.96 -3.24673 -2.33297 0
M  V30 25719 H 2404.4 -2.73706 -3.23822 0
M  V30 25720 C 2402.86 -1.25502 -3.12651 0
M  V30 25721 O 2403.39 -0.559441 -3.97785 0
M  V30 25722 N 2401.59 -1.01751 -2.72204 0
M  V30 25723 H 2401.14 -1.58492 -2.03071 0
M  V30 25724 H 2401.1 -0.253516 -3.13376 0
M  V30 25725 N 2404.87 0.409753 -1.5218 0
M  V30 25726 C 2405.83 1.48183 -1.74855 0
M  V30 25727 C 2406.83 1.48432 -0.618443 0
M  V30 25728 O 2408.02 1.49967 -0.886312 0
M  V30 25729 C 2405.15 2.87595 -1.83035 0
M  V30 25730 H 2406.35 1.2937 -2.70561 0
M  V30 25731 H 2403.9 0.640208 -1.42587 0
M  V30 25732 H 2404.63 3.11779 -0.892415 0
M  V30 25733 H 2404.42 2.88818 -2.65192 0
M  V30 25734 H 2405.91 3.65315 -2.02323 0
M  V30 25735 N 2406.35 1.42792 0.666944 0
M  V30 25736 C 2407.62 1.34161 1.42338 0
M  V30 25737 C 2408 -0.0172358 2.11093 0
M  V30 25738 O 2407.35 -1.03314 2.0381 0
M  V30 25739 C 2407.56 2.5153 2.41937 0
M  V30 25740 C 2408.91 2.94001 3.06347 0
M  V30 25741 O 2409.93 2.51477 2.52265 0
M  V30 25742 O 2408.79 3.67624 4.0437 0
M  V30 25743 H 2405.89 0.529494 0.635268 0
M  V30 25744 H 2408.43 1.54815 0.695007 0
M  V30 25745 H 2407.2 3.42084 1.89985 0
M  V30 25746 H 2406.83 2.32904 3.22245 0
M  V30 25747 N 2407.82 -0.904008 1.29095 0
M  V30 25748 C 2409.07 -1.64872 1.1619 0
M  V30 25749 C 2409.39 -1.93487 -0.286708 0
M  V30 25750 O 2410.59 -2.66136 -0.537015 0
M  V30 25751 C 2409.05 -2.9706 2.03183 0
M  V30 25752 C 2408.66 -2.76056 3.52841 0
M  V30 25753 C 2410.4 -3.74971 1.98991 0
M  V30 25754 C 2408.31 -4.03945 4.31952 0
M  V30 25755 H 2407.24 -0.618493 0.431257 0
M  V30 25756 H 2409.89 -1.00241 1.53701 0
M  V30 25757 H 2408.27 -3.62881 1.58536 0
M  V30 25758 H 2409.44 -2.18856 4.0551 0
M  V30 25759 H 2407.76 -2.11547 3.5866 0
M  V30 25760 H 2410.36 -4.69783 2.55359 0
M  V30 25761 H 2410.7 -4.04868 0.968886 0
M  V30 25762 H 2411.23 -3.15985 2.41658 0
M  V30 25763 H 2407.97 -3.79215 5.34674 0
M  V30 25764 H 2407.49 -4.6072 3.84053 0
M  V30 25765 H 2409.17 -4.72126 4.42387 0
M  V30 25766 N 2409.3 -1.11501 -1.11379 0
M  V30 25767 C 2410.23 -0.796163 -2.19507 0
M  V30 25768 C 2411.21 0.235766 -1.68458 0
M  V30 25769 O 2412.4 0.0991003 -1.93947 0
M  V30 25770 C 2409.53 -0.239266 -3.46475 0
M  V30 25771 C 2408.48 -1.20314 -4.10741 0
M  V30 25772 C 2407.81 -0.506924 -5.32292 0
M  V30 25773 C 2409.11 -2.55407 -4.55593 0
M  V30 25774 H 2410.8 -1.70028 -2.46436 0
M  V30 25775 H 2408.35 -0.818956 -1.18445 0
M  V30 25776 H 2410.3 -0.00399414 -4.214 0
M  V30 25777 H 2409.03 0.70015 -3.19007 0
M  V30 25778 H 2407.68 -1.42405 -3.37811 0
M  V30 25779 H 2407.33 0.43732 -5.01095 0
M  V30 25780 H 2407.03 -1.1498 -5.76241 0
M  V30 25781 H 2408.56 -0.280459 -6.09956 0
M  V30 25782 H 2409.97 -2.374 -5.21837 0
M  V30 25783 H 2408.37 -3.15682 -5.10358 0
M  V30 25784 H 2409.44 -3.14581 -3.69007 0
M  V30 25785 N 2410.78 1.28995 -0.905426 0
M  V30 25786 C 2412.03 1.94939 -0.533227 0
M  V30 25787 C 2412.35 1.71687 0.924588 0
M  V30 25788 O 2411.62 1.05186 1.65266 0
M  V30 25789 H 2410.2 0.721313 -0.194207 0
M  V30 25790 H 2412.86 1.57139 -1.15297 0
M  V30 25791 H 2411.96 3.03666 -0.720644 0
M  V30 25792 N 2412.26 0.668514 1.42719 0
M  V30 25793 C 2413.49 0.196384 2.05966 0
M  V30 25794 C 2413.9 -1.144 1.50193 0
M  V30 25795 O 2413.26 -1.70939 0.639238 0
M  V30 25796 C 2413.31 0.115879 3.61314 0
M  V30 25797 O 2413.03 1.40329 4.15017 0
M  V30 25798 C 2414.53 -0.380501 4.41664 0
M  V30 25799 H 2411.75 0.0969946 0.663953 0
M  V30 25800 H 2414.3 0.913478 1.82964 0
M  V30 25801 H 2412.45 -0.551864 3.83449 0
M  V30 25802 H 2412.87 1.27252 5.08829 0
M  V30 25803 H 2414.34 -0.385751 5.5065 0
M  V30 25804 H 2414.82 -1.41463 4.15794 0
M  V30 25805 H 2415.42 0.255284 4.24533 0
M  V30 25806 N 2413.74 -1.52135 0.411426 0
M  V30 25807 C 2415.01 -1.94333 -0.222274 0
M  V30 25808 C 2415.39 -1.34847 -1.62418 0
M  V30 25809 O 2414.74 -0.525184 -2.22383 0
M  V30 25810 C 2414.95 -3.48266 -0.226284 0
M  V30 25811 C 2416.3 -4.22267 -0.444518 0
M  V30 25812 O 2417.32 -3.54887 -0.30554 0
M  V30 25813 O 2416.18 -5.41754 -0.718654 0
M  V30 25814 H 2413.28 -0.814386 -0.143892 0
M  V30 25815 H 2415.82 -1.63132 0.467535 0
M  V30 25816 H 2414.6 -3.83951 0.754818 0
M  V30 25817 H 2414.22 -3.85834 -0.960096 0
M  V30 25818 N 2415.22 -0.14192 -1.5696 0
M  V30 25819 C 2416.16 0.799699 -2.16503 0
M  V30 25820 C 2417.13 1.24769 -1.09645 0
M  V30 25821 O 2418.32 1.32112 -1.37663 0
M  V30 25822 C 2415.46 2.03544 -2.78682 0
M  V30 25823 C 2414.57 1.63373 -3.99917 0
M  V30 25824 C 2413.71 2.82088 -4.50111 0
M  V30 25825 C 2412.74 2.38265 -5.63823 0
M  V30 25826 N 2411.88 3.49972 -6.08658 0
M  V30 25827 H 2416.72 0.285127 -2.96633 0
M  V30 25828 H 2414.26 0.129027 -1.46533 0
M  V30 25829 H 2416.22 2.75981 -3.12874 0
M  V30 25830 H 2414.85 2.52421 -2.01205 0
M  V30 25831 H 2413.9 0.807213 -3.71737 0
M  V30 25832 H 2415.21 1.27184 -4.82313 0
M  V30 25833 H 2414.36 3.62721 -4.86332 0
M  V30 25834 H 2413.1 3.21518 -3.66711 0
M  V30 25835 H 2412.11 1.56071 -5.27183 0
M  V30 25836 H 2413.33 1.99927 -6.49004 0
M  V30 25837 H 2411.28 3.89033 -5.28194 0
M  V30 25838 H 2411.2 3.17782 -6.85967 0
M  V30 25839 H 2412.46 4.30977 -6.49522 0
M  V30 25840 N 2416.69 1.57047 0.131868 0
M  V30 25841 C 2417.94 1.83358 0.840408 0
M  V30 25842 C 2418.26 0.725567 1.81645 0
M  V30 25843 O 2419.46 0.874704 2.57024 0
M  V30 25844 C 2417.92 3.2504 1.54522 0
M  V30 25845 C 2417.53 4.43816 0.610823 0
M  V30 25846 C 2419.27 3.6061 2.23965 0
M  V30 25847 C 2417.18 5.76523 1.31813 0
M  V30 25848 H 2416.11 0.683853 0.317587 0
M  V30 25849 H 2418.76 1.83264 0.0931239 0
M  V30 25850 H 2417.14 3.19565 2.33867 0
M  V30 25851 H 2418.31 4.60561 -0.148488 0
M  V30 25852 H 2416.63 4.16393 0.0240284 0
M  V30 25853 H 2419.23 4.57023 2.7755 0
M  V30 25854 H 2419.57 2.87409 3.01168 0
M  V30 25855 H 2420.1 3.67812 1.51522 0
M  V30 25856 H 2416.84 6.52861 0.587656 0
M  V30 25857 H 2416.36 5.63688 2.04977 0
M  V30 25858 H 2418.04 6.19841 1.85489 0
M  V30 25859 N 2418.17 -0.401677 1.52395 0
M  V30 25860 C 2419.12 -1.51036 1.76892 0
M  V30 25861 C 2420.11 -1.56994 0.636326 0
M  V30 25862 O 2421.32 -1.60312 0.818535 0
M  V30 25863 H 2417.69 -0.502446 0.559511 0
M  V30 25864 H 2419.67 -1.27563 2.6976 0
M  V30 25865 C 2418.41 -2.8832 1.94336 0
M  V30 25866 H 2417.74 -2.84481 2.8091 0
M  V30 25867 H 2419.18 -3.65168 2.15473 0
M  V30 25868 C 2417.64 -3.29281 0.712454 0
M  V30 25869 O 2418.17 -4.01532 -0.116147 0
M  V30 25870 N 2416.37 -2.85421 0.546204 0
M  V30 25871 H 2415.92 -2.26792 1.2216 0
M  V30 25872 H 2415.88 -3.13186 -0.276058 0
M  V30 25873 N 2419.65 -1.43144 -0.659362 0
M  V30 25874 C 2420.87 -1.48075 -1.45219 0
M  V30 25875 C 2421.3 -0.098028 -1.87844 0
M  V30 25876 O 2420.66 0.906913 -1.56987 0
M  V30 25877 C 2420.71 -2.42652 -2.66744 0
M  V30 25878 O 2419.81 -1.90854 -3.6558 0
M  V30 25879 H 2419.15 -0.501095 -0.43566 0
M  V30 25880 H 2421.68 -1.87995 -0.807399 0
M  V30 25881 H 2421.69 -2.59751 -3.14632 0
M  V30 25882 H 2420.37 -3.43103 -2.35061 0
M  V30 25883 H 2418.94 -1.83387 -3.2469 0
M  V30 25884 N 2421.13 0.897149 -1.29572 0
M  V30 25885 C 2422.38 1.64462 -1.17459 0
M  V30 25886 C 2422.7 1.9307 0.273664 0
M  V30 25887 O 2421.97 1.55857 1.18682 0
M  V30 25888 H 2420.55 0.609614 -0.431717 0
M  V30 25889 H 2423.21 1.07559 -1.62533 0
M  V30 25890 H 2422.3 2.59995 -1.72652 0
M  V30 25891 N 2422.61 1.1209 1.10786 0
M  V30 25892 C 2423.57 0.788615 2.15206 0
M  V30 25893 C 2424.57 -0.195289 1.5961 0
M  V30 25894 O 2425.76 0.0300499 1.74174 0
M  V30 25895 C 2422.89 0.171234 3.4047 0
M  V30 25896 H 2424.08 1.71373 2.46113 0
M  V30 25897 H 2421.64 0.923674 1.26087 0
M  V30 25898 H 2422.37 -0.763777 3.15178 0
M  V30 25899 H 2422.16 0.879581 3.82107 0
M  V30 25900 H 2423.65 -0.0448866 4.17576 0
M  V30 25901 N 2424.08 -1.28513 0.912254 0
M  V30 25902 C 2425.03 -2.24966 0.370688 0
M  V30 25903 C 2426.02 -1.5239 -0.516348 0
M  V30 25904 O 2427.21 -1.73376 -0.356314 0
M  V30 25905 C 2424.34 -3.41084 -0.389466 0
M  V30 25906 C 2423.42 -4.20983 0.513204 0
M  V30 25907 N 2423.82 -4.78948 1.62612 0
M  V30 25908 C 2422.11 -4.44898 0.313313 0
M  V30 25909 C 2422.81 -5.39051 2.18628 0
M  V30 25910 N 2421.79 -5.23129 1.47774 0
M  V30 25911 H 2425.59 -2.67352 1.22066 0
M  V30 25912 H 2423.11 -1.43267 0.764737 0
M  V30 25913 H 2425.1 -4.09264 -0.794281 0
M  V30 25914 H 2423.76 -3.00232 -1.23655 0
M  V30 25915 H 2424.77 -4.77358 2.00872 0
M  V30 25916 H 2421.45 -4.14563 -0.494379 0
M  V30 25917 H 2422.84 -5.94942 3.12239 0
M  V30 25918 N 2425.56 -0.676073 -1.42362 0
M  V30 25919 C 2426.51 0.00146847 -2.308 0
M  V30 25920 C 2427.48 0.791418 -1.46034 0
M  V30 25921 O 2428.66 0.763409 -1.74862 0
M  V30 25922 C 2425.8 0.945861 -3.31885 0
M  V30 25923 C 2424.92 0.149599 -4.31741 0
M  V30 25924 C 2424.05 1.08986 -5.199 0
M  V30 25925 C 2423.09 0.285357 -6.11434 0
M  V30 25926 N 2422.23 1.17839 -6.9214 0
M  V30 25927 H 2427.07 -0.758505 -2.88185 0
M  V30 25928 H 2424.61 -0.385785 -1.41951 0
M  V30 25929 H 2426.56 1.50724 -3.89022 0
M  V30 25930 H 2425.19 1.67245 -2.76096 0
M  V30 25931 H 2424.25 -0.528425 -3.76712 0
M  V30 25932 H 2425.56 -0.474954 -4.96534 0
M  V30 25933 H 2424.71 1.72113 -5.81775 0
M  V30 25934 H 2423.45 1.74829 -4.55287 0
M  V30 25935 H 2422.46 -0.359114 -5.48626 0
M  V30 25936 H 2423.68 -0.369002 -6.78097 0
M  V30 25937 H 2421.63 1.82321 -6.30155 0
M  V30 25938 H 2421.54 0.60895 -7.53543 0
M  V30 25939 H 2422.81 1.79709 -7.58502 0
M  V30 25940 N 2427.04 1.51915 -0.419488 0
M  V30 25941 C 2428 2.25874 0.389076 0
M  V30 25942 C 2429 1.28632 0.964901 0
M  V30 25943 O 2430.19 1.52491 0.842152 0
M  V30 25944 C 2427.33 3.03691 1.54869 0
M  V30 25945 H 2428.52 2.98781 -0.258851 0
M  V30 25946 H 2426.07 1.55348 -0.172236 0
M  V30 25947 H 2426.81 2.35158 2.23318 0
M  V30 25948 H 2426.59 3.75096 1.14217 0
M  V30 25949 H 2428.08 3.59762 2.1204 0
M  V30 25950 N 2428.52 0.150242 1.56882 0
M  V30 25951 C 2429.75 -0.506913 2.00594 0
M  V30 25952 C 2430.16 -1.58206 1.03036 0
M  V30 25953 O 2429.52 -1.82479 0.0278716 0
M  V30 25954 C 2429.57 -1.10459 3.44211 0
M  V30 25955 O 2429.29 -0.0723866 4.3804 0
M  V30 25956 C 2430.79 -1.84204 4.03217 0
M  V30 25957 H 2428.01 -0.131678 0.657953 0
M  V30 25958 H 2430.56 0.245779 2.03018 0
M  V30 25959 H 2428.71 -1.80789 3.42628 0
M  V30 25960 H 2429.12 -0.510701 5.22008 0
M  V30 25961 H 2430.6 -2.21309 5.05694 0
M  V30 25962 H 2431.08 -2.72917 3.44112 0
M  V30 25963 H 2431.68 -1.18565 4.08439 0
M  V30 25964 N 2430 -1.57115 -0.123538 0
M  V30 25965 C 2430.93 -2.03044 -1.15305 0
M  V30 25966 C 2431.91 -0.914086 -1.43452 0
M  V30 25967 O 2433.09 -1.18349 -1.53971 0
M  V30 25968 C 2430.22 -2.43093 -2.48038 0
M  V30 25969 C 2429.18 -3.58131 -2.34363 0
M  V30 25970 C 2428.5 -3.84065 -3.72019 0
M  V30 25971 C 2429.8 -4.9001 -1.80796 0
M  V30 25972 H 2431.5 -2.89301 -0.771051 0
M  V30 25973 H 2429.04 -1.3918 -0.369455 0
M  V30 25974 H 2431 -2.73828 -3.20306 0
M  V30 25975 H 2429.72 -1.53801 -2.88119 0
M  V30 25976 H 2428.38 -3.27598 -1.64545 0
M  V30 25977 H 2428.03 -2.91986 -4.09577 0
M  V30 25978 H 2427.73 -4.61496 -3.63724 0
M  V30 25979 H 2429.25 -4.17248 -4.45799 0
M  V30 25980 H 2430.66 -5.19311 -2.42877 0
M  V30 25981 H 2429.06 -5.7141 -1.83333 0
M  V30 25982 H 2430.13 -4.78824 -0.765196 0
M  V30 25983 N 2431.47 0.393589 -1.52606 0
M  V30 25984 C 2432.89 0.733332 -1.41755 0
M  V30 25985 C 2433.09 1.94286 -0.534328 0
M  V30 25986 O 2432.15 2.52499 -0.00602308 0
M  V30 25987 C 2433.46 0.972722 -2.84532 0
M  V30 25988 C 2435.01 1.07448 -2.9398 0
M  V30 25989 C 2435.48 1.34653 -4.37759 0
M  V30 25990 N 2436.97 1.41484 -4.41063 0
M  V30 25991 C 2437.71 1.64191 -5.4939 0
M  V30 25992 N 2437.2 1.84398 -6.67809 0
M  V30 25993 N 2439 1.66333 -5.36926 0
M  V30 25994 H 2431.15 -0.402365 -2.08554 0
M  V30 25995 H 2433.41 -0.117805 -0.940652 0
M  V30 25996 H 2433.12 0.156142 -3.51353 0
M  V30 25997 H 2432.99 1.88865 -3.26511 0
M  V30 25998 H 2435.38 1.88163 -2.27329 0
M  V30 25999 H 2435.46 0.13656 -2.55435 0
M  V30 26000 H 2435.1 0.544492 -5.04973 0
M  V30 26001 H 2435.03 2.29722 -4.73852 0
M  V30 26002 H 2437.52 1.27595 -3.55708 0
M  V30 26003 H 2437.84 2.01218 -7.46144 0
M  V30 26004 H 2436.18 1.81632 -6.70846 0
M  V30 26005 H 2439.37 1.50094 -4.43384 0
M  V30 26006 H 2439.55 1.83689 -6.2142 0
M  V30 26007 N 2432.95 1.43492 0.651762 0
M  V30 26008 C 2434.2 1.44472 1.40751 0
M  V30 26009 C 2434.51 0.0732189 1.95463 0
M  V30 26010 O 2435.72 -0.0395244 2.71471 0
M  V30 26011 C 2434.18 2.54244 2.54731 0
M  V30 26012 C 2433.78 3.97507 2.06621 0
M  V30 26013 C 2435.53 2.6442 3.32088 0
M  V30 26014 C 2433.44 4.98743 3.1782 0
M  V30 26015 H 2432.37 0.53743 0.528853 0
M  V30 26016 H 2435.02 1.69486 0.703335 0
M  V30 26017 H 2433.4 2.22434 3.27626 0
M  V30 26018 H 2434.57 4.38785 1.40727 0
M  V30 26019 H 2432.89 3.91389 1.42139 0
M  V30 26020 H 2435.48 3.3723 4.14946 0
M  V30 26021 H 2435.83 1.69538 3.80214 0
M  V30 26022 H 2436.36 2.95539 2.66274 0
M  V30 26023 H 2433.1 5.95182 2.74661 0
M  V30 26024 H 2432.62 4.62076 3.82421 0
M  V30 26025 H 2434.3 5.21512 3.82928 0
M  V30 26026 N 2434.43 -0.890264 1.30046 0
M  V30 26027 C 2435.68 -1.63837 1.1833 0
M  V30 26028 C 2436 -1.93213 -0.263421 0
M  V30 26029 O 2435.27 -1.56485 -1.17853 0
M  V30 26030 H 2433.85 -0.607316 0.434944 0
M  V30 26031 H 2436.51 -1.06695 1.63101 0
M  V30 26032 H 2435.61 -2.59076 1.74029 0
M  V30 26033 N 2435.91 -1.12676 -1.1019 0
M  V30 26034 C 2436.84 -0.754739 -2.16417 0
M  V30 26035 C 2437.85 0.219832 -1.61309 0
M  V30 26036 O 2439.04 0.000795465 -1.785 0
M  V30 26037 C 2436.14 -0.0967576 -3.38762 0
M  V30 26038 C 2435.32 -1.10144 -4.23305 0
M  V30 26039 C 2434.37 -0.470605 -5.24091 0
M  V30 26040 O 2433.4 -1.12834 -5.57904 0
M  V30 26041 N 2434.6 0.760847 -5.75492 0
M  V30 26042 H 2437.37 -1.66879 -2.4894 0
M  V30 26043 H 2434.93 -1.01871 -1.25833 0
M  V30 26044 H 2436.92 0.337313 -4.03292 0
M  V30 26045 H 2435.49 0.720099 -3.04193 0
M  V30 26046 H 2434.71 -1.71305 -3.55033 0
M  V30 26047 H 2436 -1.78072 -4.76621 0
M  V30 26048 H 2435.4 1.31414 -5.50224 0
M  V30 26049 H 2433.95 1.1377 -6.41794 0
M  V30 26050 N 2437.39 1.28028 -0.919057 0
M  V30 26051 C 2438.66 1.89777 -0.473701 0
M  V30 26052 C 2439.04 1.83261 1.0478 0
M  V30 26053 O 2438.39 1.27206 1.89818 0
M  V30 26054 C 2438.6 3.34065 -1.01004 0
M  V30 26055 C 2439.95 4.11018 -1.06532 0
M  V30 26056 O 2440.97 3.43046 -0.959056 0
M  V30 26057 O 2439.83 5.32528 -1.22786 0
M  V30 26058 H 2436.93 0.813099 -0.150994 0
M  V30 26059 H 2439.47 1.36357 -1.01019 0
M  V30 26060 H 2438.24 3.33058 -2.05398 0
M  V30 26061 H 2437.87 3.94991 -0.454695 0
M  V30 26062 N 2438.86 0.683613 1.42002 0
M  V30 26063 C 2440.11 0.209136 2.01015 0
M  V30 26064 C 2440.43 -1.19147 1.54367 0
M  V30 26065 O 2439.7 -1.80171 0.769115 0
M  V30 26066 H 2438.28 0.0743281 0.743293 0
M  V30 26067 H 2440.95 0.882097 1.73796 0
M  V30 26068 H 2440.04 0.217255 3.11343 0
M  V30 26069 N 2440.34 -1.5169 0.427538 0
M  V30 26070 C 2441.59 -2.01188 -0.143643 0
M  V30 26071 C 2441.91 -1.31677 -1.4464 0
M  V30 26072 O 2443.11 -1.7209 -2.09993 0
M  V30 26073 C 2441.57 -3.58592 -0.306539 0
M  V30 26074 C 2441.18 -4.37033 0.985202 0
M  V30 26075 C 2442.92 -4.16266 -0.832018 0
M  V30 26076 C 2440.83 -5.8612 0.788485 0
M  V30 26077 H 2439.76 -0.751808 -0.0574568 0
M  V30 26078 H 2442.41 -1.7488 0.555803 0
M  V30 26079 H 2440.79 -3.81305 -1.06876 0
M  V30 26080 H 2441.96 -4.26071 1.75499 0
M  V30 26081 H 2440.28 -3.90765 1.43847 0
M  V30 26082 H 2442.88 -5.25351 -0.995525 0
M  V30 26083 H 2443.22 -3.74806 -1.8118 0
M  V30 26084 H 2443.75 -3.97593 -0.128374 0
M  V30 26085 H 2440.49 -6.31975 1.74036 0
M  V30 26086 H 2440.01 -5.99772 0.0583197 0
M  V30 26087 H 2441.69 -6.45517 0.437835 0
M  V30 26088 N 2441.82 -0.15856 -1.568 0
M  V30 26089 C 2443.05 0.49948 -2.01296 0
M  V30 26090 C 2443.47 1.56865 -1.03802 0
M  V30 26091 O 2442.83 1.81293 -0.0155481 0
M  V30 26092 C 2442.88 1.0664 -3.44471 0
M  V30 26093 O 2441.98 2.18089 -3.50016 0
M  V30 26094 H 2441.32 0.120979 -0.652886 0
M  V30 26095 H 2443.85 -0.258697 -2.02958 0
M  V30 26096 H 2443.86 1.3922 -3.83512 0
M  V30 26097 H 2442.54 0.283508 -4.14933 0
M  V30 26098 H 2441.11 1.86651 -3.22825 0
M  V30 26099 N 2443.3 1.57178 0.115204 0
M  V30 26100 C 2444.53 1.8924 0.836403 0
M  V30 26101 C 2444.94 0.750206 1.73255 0
M  V30 26102 O 2444.3 -0.2788 1.80358 0
M  V30 26103 C 2444.35 3.20788 1.66665 0
M  V30 26104 O 2444.07 4.30611 0.806576 0
M  V30 26105 C 2445.57 3.6658 2.49267 0
M  V30 26106 H 2442.79 0.626518 0.240242 0
M  V30 26107 H 2445.34 2.04263 0.0984573 0
M  V30 26108 H 2443.49 3.07424 2.35731 0
M  V30 26109 H 2443.91 5.06031 1.37961 0
M  V30 26110 H 2445.38 4.61375 3.03046 0
M  V30 26111 H 2445.86 2.93423 3.26802 0
M  V30 26112 H 2446.46 3.82745 1.85436 0
M  V30 26113 N 2444.78 -0.38549 1.52813 0
M  V30 26114 C 2446 -1.1558 1.72209 0
M  V30 26115 C 2446.43 -1.82856 0.441066 0
M  V30 26116 O 2445.79 -1.70963 -0.603435 0
M  V30 26117 C 2445.83 -2.17687 2.8748 0
M  V30 26118 O 2444.94 -3.24349 2.54699 0
M  V30 26119 H 2444.28 -0.336309 0.572532 0
M  V30 26120 H 2446.81 -0.448709 1.99619 0
M  V30 26121 H 2446.82 -2.61624 3.13076 0
M  V30 26122 H 2445.49 -1.68108 3.80411 0
M  V30 26123 H 2444.07 -2.85524 2.39855 0
M  V30 26124 N 2446.26 -1.43835 -0.644143 0
M  V30 26125 C 2447.22 -1.49356 -1.73855 0
M  V30 26126 C 2448.22 -0.37714 -1.56315 0
M  V30 26127 O 2449.41 -0.639254 -1.62047 0
M  V30 26128 C 2446.54 -1.35493 -3.12817 0
M  V30 26129 H 2447.73 -2.4683 -1.70338 0
M  V30 26130 H 2445.29 -1.30735 -0.856629 0
M  V30 26131 H 2446.02 -0.390625 -3.21939 0
M  V30 26132 H 2445.81 -2.16434 -3.26954 0
M  V30 26133 H 2447.3 -1.42309 -3.92604 0
M  V30 26134 N 2447.73 0.883355 -1.30517 0
M  V30 26135 C 2448.96 1.66839 -1.22362 0
M  V30 26136 C 2449.38 1.87592 0.213263 0
M  V30 26137 O 2448.73 1.42456 1.14072 0
M  V30 26138 C 2448.78 3.04386 -1.95017 0
M  V30 26139 O 2448.51 2.84569 -3.33095 0
M  V30 26140 C 2450.01 3.9882 -1.93539 0
M  V30 26141 H 2447.23 0.520567 -0.42338 0
M  V30 26142 H 2449.77 1.10354 -1.72169 0
M  V30 26143 H 2447.93 3.57598 -1.49004 0
M  V30 26144 H 2448.34 3.71839 -3.69913 0
M  V30 26145 H 2449.81 4.92694 -2.48911 0
M  V30 26146 H 2450.29 4.29569 -0.914702 0
M  V30 26147 H 2450.9 3.51542 -2.3937 0
M  V30 26148 N 2449.21 1.13259 1.09591 0
M  V30 26149 C 2450.44 0.91641 1.85498 0
M  V30 26150 C 2450.85 -0.534706 1.8107 0
M  V30 26151 O 2450.21 -1.37005 1.20564 0
M  V30 26152 C 2450.26 1.39394 3.33544 0
M  V30 26153 O 2449.98 2.78819 3.37923 0
M  V30 26154 C 2451.48 1.21595 4.26297 0
M  V30 26155 H 2448.7 0.326898 0.585985 0
M  V30 26156 H 2451.25 1.50473 1.38486 0
M  V30 26157 H 2449.4 0.848664 3.7799 0
M  V30 26158 H 2449.82 2.99978 4.30248 0
M  V30 26159 H 2451.29 1.59885 5.28338 0
M  V30 26160 H 2451.77 0.157453 4.38918 0
M  V30 26161 H 2452.37 1.74917 3.87665 0
M  V30 26162 N 2450.69 -1.27539 0.925834 0
M  V30 26163 C 2451.64 -2.28887 0.413937 0
M  V30 26164 C 2452.63 -1.6183 -0.50075 0
M  V30 26165 O 2453.84 -1.75929 -0.380659 0
M  V30 26166 H 2450.21 -0.74311 0.115287 0
M  V30 26167 H 2452.18 -2.69478 1.28156 0
M  V30 26168 C 2450.93 -3.46227 -0.319731 0
M  V30 26169 H 2450.26 -3.98038 0.374916 0
M  V30 26170 H 2451.7 -4.19106 -0.642362 0
M  V30 26171 C 2450.15 -3.0005 -1.53204 0
M  V30 26172 O 2450.68 -3.03562 -2.63084 0
M  V30 26173 N 2448.89 -2.55569 -1.38322 0
M  V30 26174 H 2448.44 -2.52911 -0.489248 0
M  V30 26175 H 2448.4 -2.25035 -2.1956 0
M  V30 26176 N 2452.17 -0.691135 -1.41637 0
M  V30 26177 C 2453.1 -0.037289 -2.3347 0
M  V30 26178 C 2454.08 0.771921 -1.51576 0
M  V30 26179 O 2455.26 0.725788 -1.80128 0
M  V30 26180 C 2452.39 0.903005 -3.35355 0
M  V30 26181 C 2451.35 0.201213 -4.27527 0
M  V30 26182 C 2450.67 1.25556 -5.1975 0
M  V30 26183 C 2451.97 -0.92978 -5.13958 0
M  V30 26184 H 2453.67 -0.804278 -2.88395 0
M  V30 26185 H 2451.21 -0.388214 -1.38668 0
M  V30 26186 H 2453.17 1.36962 -3.98521 0
M  V30 26187 H 2451.89 1.70161 -2.7877 0
M  V30 26188 H 2450.55 -0.24533 -3.65778 0
M  V30 26189 H 2450.2 2.04658 -4.59483 0
M  V30 26190 H 2449.9 0.791026 -5.82251 0
M  V30 26191 H 2451.42 1.72278 -5.85792 0
M  V30 26192 H 2452.84 -0.543647 -5.70717 0
M  V30 26193 H 2451.23 -1.32113 -5.85377 0
M  V30 26194 H 2452.3 -1.77141 -4.51386 0
M  V30 26195 N 2453.65 1.51461 -0.435577 0
M  V30 26196 C 2454.59 2.27704 0.376757 0
M  V30 26197 C 2455.56 1.3122 1.01835 0
M  V30 26198 O 2456.75 1.60121 1.03759 0
M  V30 26199 C 2453.89 3.12087 1.47296 0
M  V30 26200 C 2453 4.23562 0.849669 0
M  V30 26201 C 2452.14 4.95257 1.92077 0
M  V30 26202 C 2451.17 5.98656 1.27582 0
M  V30 26203 N 2450.31 6.63766 2.28821 0
M  V30 26204 H 2455.15 2.96684 -0.279787 0
M  V30 26205 H 2452.69 1.46335 -0.149821 0
M  V30 26206 H 2454.65 3.59334 2.11978 0
M  V30 26207 H 2453.28 2.45225 2.09915 0
M  V30 26208 H 2452.33 3.80291 0.091186 0
M  V30 26209 H 2453.64 4.97648 0.33879 0
M  V30 26210 H 2452.79 5.46044 2.64425 0
M  V30 26211 H 2451.53 4.20798 2.46537 0
M  V30 26212 H 2450.54 5.47163 0.537796 0
M  V30 26213 H 2451.76 6.75072 0.738574 0
M  V30 26214 H 2449.71 5.9212 2.82365 0
M  V30 26215 H 2449.63 7.33612 1.8262 0
M  V30 26216 H 2450.89 7.19184 3.00658 0
M  V30 26217 N 2455.12 0.166873 1.56714 0
M  V30 26218 C 2456.36 -0.481728 1.98642 0
M  V30 26219 C 2456.73 -1.60719 1.05041 0
M  V30 26220 O 2457.93 -2.31803 1.36091 0
M  V30 26221 C 2456.2 -0.956457 3.44364 0
M  V30 26222 S 2457.76 -1.60687 4.0832 0
M  V30 26223 H 2454.58 -0.155104 0.693876 0
M  V30 26224 H 2457.18 0.263285 1.93719 0
M  V30 26225 H 2455.88 -0.126863 4.10204 0
M  V30 26226 H 2455.41 -1.73562 3.53044 0
M  V30 26227 H 2457.43 -2.89486 4.03004 0
M  V30 26228 N 2456.6 -1.57237 -0.106866 0
M  V30 26229 C 2457.83 -1.90057 -0.830254 0
M  V30 26230 C 2458.25 -0.76001 -1.72062 0
M  V30 26231 O 2457.61 0.288959 -1.78982 0
M  V30 26232 C 2457.66 -3.21685 -1.62944 0
M  V30 26233 O 2456.76 -3.08446 -2.73743 0
M  V30 26234 H 2456.1 -0.623319 -0.228844 0
M  V30 26235 H 2458.63 -2.04421 -0.0856221 0
M  V30 26236 H 2458.64 -3.54705 -2.01615 0
M  V30 26237 H 2457.32 -4.04288 -0.975918 0
M  V30 26238 H 2455.9 -2.86917 -2.38186 0
M  V30 26239 N 2458.08 0.377381 -1.53015 0
M  V30 26240 C 2459.01 1.46788 -1.81592 0
M  V30 26241 C 2459.99 1.56407 -0.66865 0
M  V30 26242 O 2461.18 1.71167 -0.917367 0
M  V30 26243 C 2458.31 2.84267 -1.99524 0
M  V30 26244 C 2457.26 2.8948 -3.15254 0
M  V30 26245 C 2456.59 4.29521 -3.18459 0
M  V30 26246 C 2457.89 2.58071 -4.54089 0
M  V30 26247 H 2459.58 1.23123 -2.72912 0
M  V30 26248 H 2457.13 0.59086 -1.3132 0
M  V30 26249 H 2459.08 3.60571 -2.18098 0
M  V30 26250 H 2457.8 3.09294 -1.04903 0
M  V30 26251 H 2456.46 2.15626 -2.96481 0
M  V30 26252 H 2456.11 4.51606 -2.21498 0
M  V30 26253 H 2455.81 4.33927 -3.96208 0
M  V30 26254 H 2457.33 5.07715 -3.39202 0
M  V30 26255 H 2458.75 3.2409 -4.72904 0
M  V30 26256 H 2457.15 2.73811 -5.33992 0
M  V30 26257 H 2458.22 1.53364 -4.60008 0
M  V30 26258 N 2459.56 1.44175 0.636506 0
M  V30 26259 C 2460.49 1.53447 1.76 0
M  V30 26260 C 2461.47 0.38787 1.65619 0
M  V30 26261 O 2462.65 0.607289 1.8446 0
M  V30 26262 C 2459.78 1.47315 3.14508 0
M  V30 26263 C 2458.74 2.60397 3.39673 0
M  V30 26264 C 2458.06 2.39317 4.78154 0
M  V30 26265 C 2459.36 4.02573 3.32765 0
M  V30 26266 H 2461.06 2.47486 1.68497 0
M  V30 26267 H 2458.6 1.19112 0.809216 0
M  V30 26268 H 2460.56 1.52404 3.92875 0
M  V30 26269 H 2459.28 0.497906 3.22782 0
M  V30 26270 H 2457.94 2.54689 2.63684 0
M  V30 26271 H 2457.59 1.39997 4.83125 0
M  V30 26272 H 2457.29 3.1513 4.9595 0
M  V30 26273 H 2458.81 2.46215 5.58758 0
M  V30 26274 H 2460.23 4.09679 4.01044 0
M  V30 26275 H 2458.62 4.78547 3.62096 0
M  V30 26276 H 2459.69 4.26524 2.30662 0
M  V30 26277 N 2461.04 -0.876421 1.30983 0
M  V30 26278 C 2462.28 -1.63136 1.20477 0
M  V30 26279 C 2462.62 -1.92735 -0.238063 0
M  V30 26280 O 2461.89 -1.55437 -1.16917 0
M  V30 26281 C 2462.17 -2.96571 2.04249 0
M  V30 26282 C 2462.03 -2.7389 3.56797 0
M  V30 26283 C 2463.35 -3.97597 1.88691 0
M  V30 26284 H 2460.46 -0.591978 0.439012 0
M  V30 26285 H 2463.11 -1.01358 1.60706 0
M  V30 26286 H 2461.26 -3.49297 1.70069 0
M  V30 26287 H 2462.93 -2.27885 4.01081 0
M  V30 26288 H 2461.17 -2.08238 3.80551 0
M  V30 26289 H 2461.84 -3.68807 4.10713 0
M  V30 26290 H 2464.32 -3.54059 2.1859 0
M  V30 26291 H 2463.19 -4.88858 2.49619 0
M  V30 26292 H 2463.46 -4.33883 0.848419 0
M  V30 26293 N 2462.51 -1.13839 -1.08989 0
M  V30 26294 C 2463.44 -0.842545 -2.17769 0
M  V30 26295 C 2464.43 0.199981 -1.6892 0
M  V30 26296 O 2465.61 0.0579389 -1.94114 0
M  V30 26297 C 2462.74 -0.312705 -3.45889 0
M  V30 26298 C 2461.69 -1.28999 -4.08097 0
M  V30 26299 C 2461.02 -0.619716 -5.31097 0
M  V30 26300 C 2462.32 -2.65013 -4.50073 0
M  V30 26301 H 2464.01 -1.75217 -2.42774 0
M  V30 26302 H 2461.56 -0.843895 -1.16681 0
M  V30 26303 H 2463.51 -0.0933784 -4.21297 0
M  V30 26304 H 2462.24 0.632326 -3.2042 0
M  V30 26305 H 2460.9 -1.49539 -3.34714 0
M  V30 26306 H 2460.54 0.330931 -5.0191 0
M  V30 26307 H 2460.24 -1.27177 -5.73672 0
M  V30 26308 H 2461.77 -0.409776 -6.09223 0
M  V30 26309 H 2463.18 -2.48416 -5.16684 0
M  V30 26310 H 2461.58 -3.26436 -5.03547 0
M  V30 26311 H 2462.65 -3.22338 -3.62252 0
M  V30 26312 N 2463.99 1.27046 -0.932584 0
M  V30 26313 C 2464.9 2.30413 -0.441259 0
M  V30 26314 C 2465.92 1.67234 0.480496 0
M  V30 26315 O 2467.09 1.98118 0.362116 0
M  V30 26316 C 2464.16 3.45455 0.29359 0
M  V30 26317 C 2463.22 4.24139 -0.663675 0
M  V30 26318 C 2462.45 5.33688 0.0361994 0
M  V30 26319 O 2462.68 5.56429 1.2547 0
M  V30 26320 O 2461.61 5.98508 -0.63812 0
M  V30 26321 H 2465.44 2.74486 -1.29967 0
M  V30 26322 H 2463.02 1.32086 -0.698124 0
M  V30 26323 H 2464.9 4.15412 0.707878 0
M  V30 26324 H 2463.58 3.03428 1.12753 0
M  V30 26325 H 2462.49 3.56697 -1.12774 0
M  V30 26326 H 2463.82 4.69893 -1.46497 0
M  V30 26327 N 2465.47 0.698636 1.41269 0
M  V30 26328 C 2466.42 0.0238959 2.32588 0
M  V30 26329 C 2467.41 -0.765265 1.51129 0
M  V30 26330 O 2468.62 -0.670542 1.67044 0
M  V30 26331 H 2464.99 -0.0110739 0.751918 0
M  V30 26332 H 2466.96 0.811082 2.87166 0
M  V30 26333 C 2465.71 -0.89631 3.35949 0
M  V30 26334 H 2465.04 -0.298478 3.98684 0
M  V30 26335 H 2466.48 -1.33669 4.02379 0
M  V30 26336 C 2464.94 -2.01391 2.7008 0
M  V30 26337 O 2465.47 -3.10302 2.55099 0
M  V30 26338 N 2463.67 -1.79255 2.28727 0
M  V30 26339 H 2463.22 -0.906799 2.41112 0
M  V30 26340 H 2463.18 -2.54216 1.84991 0
M  V30 26341 N 2466.95 -1.51228 0.443603 0
M  V30 26342 C 2467.86 -2.31653 -0.37068 0
M  V30 26343 C 2468.87 -1.40835 -1.02183 0
M  V30 26344 O 2470.05 -1.73905 -1.01583 0
M  V30 26345 C 2467.12 -3.14751 -1.4537 0
M  V30 26346 C 2466.18 -4.21356 -0.822025 0
M  V30 26347 C 2465.41 -5.00483 -1.85344 0
M  V30 26348 O 2465.63 -4.80322 -3.07648 0
M  V30 26349 O 2464.57 -5.84409 -1.44049 0
M  V30 26350 H 2468.39 -3.0235 0.286055 0
M  V30 26351 H 2465.98 -1.47973 0.206006 0
M  V30 26352 H 2467.86 -3.66394 -2.08166 0
M  V30 26353 H 2466.53 -2.46812 -2.09441 0
M  V30 26354 H 2465.44 -3.73775 -0.155843 0
M  V30 26355 H 2466.77 -4.91687 -0.22471 0
M  V30 26356 N 2468.43 -0.175182 -1.56623 0
M  V30 26357 C 2469.36 0.749156 -2.21156 0
M  V30 26358 C 2470.34 1.23624 -1.16838 0
M  V30 26359 O 2471.52 1.2887 -1.4528 0
M  V30 26360 C 2468.65 1.97706 -2.85534 0
M  V30 26361 C 2467.61 1.62568 -3.95924 0
M  V30 26362 C 2466.93 2.92856 -4.4737 0
M  V30 26363 C 2468.23 0.850747 -5.15325 0
M  V30 26364 H 2469.93 0.211242 -2.98654 0
M  V30 26365 H 2467.47 0.100163 -1.43651 0
M  V30 26366 H 2469.43 2.62875 -3.29355 0
M  V30 26367 H 2468.15 2.53918 -2.0541 0
M  V30 26368 H 2466.81 0.997657 -3.52764 0
M  V30 26369 H 2466.46 3.47115 -3.64033 0
M  V30 26370 H 2466.16 2.70097 -5.21844 0
M  V30 26371 H 2467.68 3.59048 -4.9388 0
M  V30 26372 H 2469.09 1.40511 -5.55814 0
M  V30 26373 H 2467.49 0.72205 -5.9574 0
M  V30 26374 H 2468.56 -0.152167 -4.84661 0
M  V30 26375 N 2469.91 1.57292 0.0985263 0
M  V30 26376 C 2470.85 2.02823 1.13866 0
M  V30 26377 C 2471.85 0.928691 1.41675 0
M  V30 26378 O 2473.05 1.11387 1.41396 0
M  V30 26379 H 2469.43 0.646324 0.384408 0
M  V30 26380 H 2471.4 2.89376 0.728296 0
M  V30 26381 C 2470.15 2.46558 2.45162 0
M  V30 26382 H 2469.47 3.30744 2.24607 0
M  V30 26383 H 2470.91 2.82196 3.16451 0
M  V30 26384 C 2469.37 1.33747 3.09214 0
M  V30 26385 O 2469.9 0.66471 3.96162 0
M  V30 26386 N 2468.11 1.08932 2.69411 0
M  V30 26387 H 2467.65 1.63821 1.98798 0
M  V30 26388 H 2467.61 0.336513 3.12594 0
M  V30 26389 N 2471.38 -0.369261 1.53213 0
M  V30 26390 C 2472.35 -1.43495 1.78723 0
M  V30 26391 C 2473.35 -1.4674 0.65758 0
M  V30 26392 O 2474.54 -1.47565 0.925762 0
M  V30 26393 C 2471.67 -2.82641 1.90596 0
M  V30 26394 H 2472.86 -1.22151 2.73896 0
M  V30 26395 H 2470.41 -0.602178 1.44234 0
M  V30 26396 H 2471.15 -3.09304 0.974764 0
M  V30 26397 H 2470.93 -2.81685 2.72756 0
M  V30 26398 H 2472.42 -3.59823 2.11937 0
M  V30 26399 N 2472.86 -1.4451 -0.628851 0
M  V30 26400 C 2473.77 -1.54047 -1.76937 0
M  V30 26401 C 2474.79 -0.426016 -1.68704 0
M  V30 26402 O 2475.96 -0.683689 -1.8944 0
M  V30 26403 C 2473.03 -1.4841 -3.13329 0
M  V30 26404 C 2472.09 -2.70725 -3.33176 0
M  V30 26405 C 2471.32 -2.65348 -4.63062 0
M  V30 26406 O 2471.55 -1.71478 -5.44014 0
M  V30 26407 O 2470.48 -3.56234 -4.85161 0
M  V30 26408 H 2474.31 -2.50406 -1.71844 0
M  V30 26409 H 2471.89 -1.26782 -0.790355 0
M  V30 26410 H 2473.77 -1.47798 -3.94631 0
M  V30 26411 H 2472.45 -0.551955 -3.18959 0
M  V30 26412 H 2471.35 -2.76905 -2.51544 0
M  V30 26413 H 2472.69 -3.62994 -3.32409 0
M  V30 26414 N 2474.34 0.869463 -1.31446 0
M  V30 26415 C 2475.27 1.99259 -1.2173 0
M  V30 26416 C 2476.25 1.69779 -0.104389 0
M  V30 26417 O 2477.44 1.92036 -0.289072 0
M  V30 26418 C 2474.57 3.34772 -0.924376 0
M  V30 26419 C 2473.52 3.78559 -1.99692 0
M  V30 26420 C 2472.85 5.11539 -1.55667 0
M  V30 26421 C 2474.15 3.95613 -3.4101 0
M  V30 26422 H 2475.84 2.07645 -2.15694 0
M  V30 26423 H 2473.39 0.997657 -1.0384 0
M  V30 26424 H 2475.34 4.12882 -0.843006 0
M  V30 26425 H 2474.06 3.2656 0.0509219 0
M  V30 26426 H 2472.72 3.02691 -2.06819 0
M  V30 26427 H 2472.37 4.99769 -0.569219 0
M  V30 26428 H 2472.07 5.41807 -2.27419 0
M  V30 26429 H 2473.59 5.92157 -1.48939 0
M  V30 26430 H 2475.01 4.64116 -3.36555 0
M  V30 26431 H 2473.4 4.37279 -4.10983 0
M  V30 26432 H 2474.47 2.98979 -3.81759 0
M  V30 26433 N 2475.82 1.14415 1.08383 0
M  V30 26434 C 2477.07 0.910711 1.80417 0
M  V30 26435 C 2477.39 -0.56421 1.86659 0
M  V30 26436 O 2476.66 -1.41012 1.35987 0
M  V30 26437 H 2475.24 0.333946 0.668198 0
M  V30 26438 H 2477.9 1.44278 1.31034 0
M  V30 26439 H 2476.99 1.31087 2.83236 0
M  V30 26440 N 2477.3 -1.26549 0.939309 0
M  V30 26441 C 2478.23 -2.28821 0.465084 0
M  V30 26442 C 2479.21 -1.63168 -0.480663 0
M  V30 26443 O 2480.39 -1.90387 -0.382921 0
M  V30 26444 C 2477.52 -3.46231 -0.27228 0
M  V30 26445 C 2476.48 -4.23959 0.586734 0
M  V30 26446 C 2475.8 -5.33964 -0.280479 0
M  V30 26447 C 2477.1 -4.88168 1.85713 0
M  V30 26448 H 2478.8 -2.68739 1.31984 0
M  V30 26449 H 2476.34 -1.2919 0.636084 0
M  V30 26450 H 2478.29 -4.16887 -0.61506 0
M  V30 26451 H 2477.02 -3.05262 -1.16116 0
M  V30 26452 H 2475.68 -3.55065 0.912383 0
M  V30 26453 H 2475.33 -4.89236 -1.16865 0
M  V30 26454 H 2475.03 -5.8688 0.290863 0
M  V30 26455 H 2476.55 -6.07459 -0.618571 0
M  V30 26456 H 2477.96 -5.51049 1.5817 0
M  V30 26457 H 2476.36 -5.51193 2.37289 0
M  V30 26458 H 2477.43 -4.11215 2.56964 0
M  V30 26459 N 2478.77 -0.706118 -1.40896 0
M  V30 26460 C 2480 -0.249471 -2.05894 0
M  V30 26461 C 2480.42 1.09663 -1.52825 0
M  V30 26462 O 2479.78 1.68875 -0.659618 0
M  V30 26463 C 2479.83 -0.229104 -3.59871 0
M  V30 26464 O 2478.93 0.792713 -4.0471 0
M  V30 26465 H 2478.27 -0.119252 -0.653204 0
M  V30 26466 H 2480.8 -0.963942 -1.8047 0
M  V30 26467 H 2480.81 -0.0635509 -4.07951 0
M  V30 26468 H 2479.49 -1.21148 -3.97864 0
M  V30 26469 H 2478.07 0.595655 -3.68112 0
M  V30 26470 N 2480.25 1.50991 -0.451617 0
M  V30 26471 C 2481.5 2.01801 0.109821 0
M  V30 26472 C 2481.82 1.33692 1.41956 0
M  V30 26473 O 2481.09 0.475984 1.90029 0
M  V30 26474 H 2479.67 0.745728 0.0435753 0
M  V30 26475 H 2482.33 1.85512 -0.59759 0
M  V30 26476 H 2481.43 3.10882 0.275434 0
M  V30 26477 N 2481.73 0.183486 1.56528 0
M  V30 26478 C 2482.69 -0.728185 2.17325 0
M  V30 26479 C 2483.69 -1.14937 1.12455 0
M  V30 26480 O 2484.88 -1.06434 1.37903 0
M  V30 26481 C 2482.01 -1.99269 2.76595 0
M  V30 26482 H 2483.21 -0.19872 2.99241 0
M  V30 26483 H 2480.76 -0.0661116 1.5616 0
M  V30 26484 H 2481.5 -2.56495 1.98446 0
M  V30 26485 H 2481.28 -1.69953 3.53353 0
M  V30 26486 H 2482.77 -2.64305 3.23315 0
M  V30 26487 N 2483.21 -1.57342 -0.0901833 0
M  V30 26488 C 2484.43 -1.90927 -0.810049 0
M  V30 26489 C 2484.86 -0.778217 -1.71247 0
M  V30 26490 O 2484.22 0.269959 -1.79279 0
M  V30 26491 C 2484.26 -3.23396 -1.59523 0
M  V30 26492 O 2483.37 -3.11332 -2.70456 0
M  V30 26493 H 2482.71 -0.625711 -0.22222 0
M  V30 26494 H 2485.24 -2.045 -0.0639357 0
M  V30 26495 H 2485.25 -3.56823 -1.97841 0
M  V30 26496 H 2483.92 -4.053 -0.932983 0
M  V30 26497 H 2482.5 -2.89428 -2.3513 0
M  V30 26498 N 2484.69 0.36113 -1.53407 0
M  V30 26499 C 2485.62 1.46521 -1.74948 0
M  V30 26500 C 2486.6 1.51205 -0.597977 0
M  V30 26501 O 2487.78 1.6919 -0.831092 0
M  V30 26502 C 2484.91 2.84859 -1.83229 0
M  V30 26503 C 2483.95 2.97879 -3.05238 0
M  V30 26504 S 2484.79 2.66171 -4.64665 0
M  V30 26505 C 2485.94 4.06651 -4.758 0
M  V30 26506 H 2486.18 1.28028 -2.68321 0
M  V30 26507 H 2483.71 0.555739 -1.44052 0
M  V30 26508 H 2485.67 3.64566 -1.88685 0
M  V30 26509 H 2484.33 3.00659 -0.909001 0
M  V30 26510 H 2483.52 3.99205 -3.07655 0
M  V30 26511 H 2483.12 2.26101 -2.97917 0
M  V30 26512 H 2485.42 5.00952 -4.56128 0
M  V30 26513 H 2486.36 4.09237 -5.77867 0
M  V30 26514 H 2486.77 3.93858 -4.04396 0
M  V30 26515 N 2486.16 1.44842 0.621179 0
M  V30 26516 C 2487.11 1.52473 1.73265 0
M  V30 26517 C 2488.08 0.37164 1.61889 0
M  V30 26518 O 2489.27 0.583242 1.81667 0
M  V30 26519 C 2486.41 1.48443 3.11542 0
M  V30 26520 C 2485.52 2.74202 3.33822 0
M  V30 26521 C 2484.65 2.61937 4.62128 0
M  V30 26522 C 2483.69 3.82812 4.7762 0
M  V30 26523 N 2482.83 3.69164 5.97212 0
M  V30 26524 H 2487.67 2.47431 1.66078 0
M  V30 26525 H 2485.21 1.2279 0.810005 0
M  V30 26526 H 2487.17 1.44097 3.91525 0
M  V30 26527 H 2485.8 0.570458 3.17719 0
M  V30 26528 H 2484.85 2.88694 2.4771 0
M  V30 26529 H 2486.16 3.63896 3.41146 0
M  V30 26530 H 2485.31 2.5548 5.50286 0
M  V30 26531 H 2484.05 1.69819 4.57179 0
M  V30 26532 H 2483.06 3.89644 3.87889 0
M  V30 26533 H 2484.28 4.75979 4.84376 0
M  V30 26534 H 2482.23 2.79805 5.93334 0
M  V30 26535 H 2482.15 4.52483 6.05636 0
M  V30 26536 H 2483.41 3.66615 6.87905 0
M  V30 26537 N 2487.64 -0.862479 1.31905 0
M  V30 26538 C 2488.57 -1.9861 1.22785 0
M  V30 26539 C 2489.55 -1.69722 0.113391 0
M  V30 26540 O 2490.74 -1.9188 0.299252 0
M  V30 26541 C 2487.87 -3.34278 0.942117 0
M  V30 26542 C 2486.82 -3.77495 2.01696 0
M  V30 26543 C 2486.15 -5.10706 1.58378 0
M  V30 26544 C 2487.45 -3.93799 3.43103 0
M  V30 26545 H 2489.14 -2.06498 2.16792 0
M  V30 26546 H 2486.69 -0.992136 1.04368 0
M  V30 26547 H 2488.64 -4.12429 0.86489 0
M  V30 26548 H 2487.37 -3.26583 -0.0336029 0
M  V30 26549 H 2486.02 -3.01589 2.08421 0
M  V30 26550 H 2485.67 -4.9946 0.595715 0
M  V30 26551 H 2485.37 -5.40593 2.30289 0
M  V30 26552 H 2486.9 -5.91359 1.52077 0
M  V30 26553 H 2488.31 -4.62325 3.39011 0
M  V30 26554 H 2486.71 -4.35094 4.13296 0
M  V30 26555 H 2487.78 -2.9695 3.83339 0
M  V30 26556 N 2489.12 -1.14988 -1.07775 0
M  V30 26557 C 2490.35 -0.945805 -1.84017 0
M  V30 26558 C 2490.76 0.505831 -1.81898 0
M  V30 26559 O 2490.12 1.3507 -1.22729 0
M  V30 26560 C 2490.17 -1.44683 -3.31284 0
M  V30 26561 O 2489.89 -2.8416 -3.33444 0
M  V30 26562 C 2491.39 -1.28362 -4.24309 0
M  V30 26563 H 2488.61 -0.336179 -0.580711 0
M  V30 26564 H 2491.16 -1.52657 -1.36074 0
M  V30 26565 H 2489.31 -0.908691 -3.76592 0
M  V30 26566 H 2489.73 -3.06785 -4.25422 0
M  V30 26567 H 2491.2 -1.6827 -5.25727 0
M  V30 26568 H 2491.68 -0.227261 -4.38612 0
M  V30 26569 H 2492.28 -1.81063 -3.84833 0
M  V30 26570 N 2490.6 1.26049 -0.946007 0
M  V30 26571 C 2491.83 1.97609 -0.613059 0
M  V30 26572 C 2492.24 1.70399 0.813005 0
M  V30 26573 O 2491.6 0.975006 1.54272 0
M  V30 26574 C 2491.65 3.51325 -0.851651 0
M  V30 26575 O 2491.37 3.77591 -2.22163 0
M  V30 26576 C 2492.87 4.40121 -0.529909 0
M  V30 26577 H 2490.09 0.630129 -0.230604 0
M  V30 26578 H 2492.64 1.60441 -1.26803 0
M  V30 26579 H 2490.79 3.86636 -0.243219 0
M  V30 26580 H 2491.2 4.72096 -2.28528 0
M  V30 26581 H 2492.68 5.46916 -0.747444 0
M  V30 26582 H 2493.16 4.35926 0.535264 0
M  V30 26583 H 2493.76 4.10362 -1.11728 0
M  V30 26584 N 2492.08 0.71358 1.4052 0
M  V30 26585 C 2493.02 0.0485636 2.32549 0
M  V30 26586 C 2494.02 -0.749193 1.51932 0
M  V30 26587 O 2495.22 -0.652787 1.67746 0
M  V30 26588 H 2491.6 -0.00309817 0.751994 0
M  V30 26589 H 2493.57 0.841494 2.86289 0
M  V30 26590 C 2492.32 -0.860628 3.36881 0
M  V30 26591 H 2491.64 -0.256176 3.98978 0
M  V30 26592 H 2493.08 -1.29393 4.03774 0
M  V30 26593 C 2491.54 -1.98516 2.72201 0
M  V30 26594 O 2492.07 -3.07579 2.58375 0
M  V30 26595 N 2490.28 -1.76819 2.30615 0
M  V30 26596 H 2489.82 -0.881175 2.4206 0
M  V30 26597 H 2489.78 -2.5224 1.87677 0
M  V30 26598 N 2493.55 -1.50749 0.459618 0
M  V30 26599 C 2494.8 -2.01857 -0.0991177 0
M  V30 26600 C 2495.12 -1.34443 -1.41245 0
M  V30 26601 O 2494.39 -0.486055 -1.89774 0
M  V30 26602 H 2492.97 -0.745949 -0.0396199 0
M  V30 26603 H 2495.64 -1.85193 0.60742 0
M  V30 26604 H 2494.73 -3.11024 -0.258943 0
M  V30 26605 N 2495.03 -0.191784 -1.56429 0
M  V30 26606 C 2496.45 0.164109 -1.58754 0
M  V30 26607 C 2496.65 1.61286 -1.20785 0
M  V30 26608 O 2495.7 2.34787 -0.92904 0
M  V30 26609 C 2497.02 -0.135248 -3.00396 0
M  V30 26610 C 2498.57 -0.0750901 -3.1291 0
M  V30 26611 C 2499.04 -0.347712 -4.56678 0
M  V30 26612 N 2500.53 -0.296212 -4.62252 0
M  V30 26613 C 2501.27 -0.481048 -5.71379 0
M  V30 26614 N 2500.76 -0.726054 -6.88985 0
M  V30 26615 N 2502.56 -0.415534 -5.60562 0
M  V30 26616 H 2494.71 -1.13721 -1.79391 0
M  V30 26617 H 2496.97 -0.453657 -0.832406 0
M  V30 26618 H 2496.68 -1.13964 -3.32724 0
M  V30 26619 H 2496.55 0.563708 -3.72964 0
M  V30 26620 H 2498.94 0.919899 -2.80396 0
M  V30 26621 H 2499.02 -0.807071 -2.42734 0
M  V30 26622 H 2498.66 -1.34 -4.89904 0
M  V30 26623 H 2498.59 0.40512 -5.25039 0
M  V30 26624 H 2501.08 -0.113326 -3.7773 0
M  V30 26625 H 2501.4 -0.855992 -7.68045 0
M  V30 26626 H 2499.74 -0.762909 -6.908 0
M  V30 26627 H 2502.93 -0.224568 -4.67561 0
M  V30 26628 H 2503.1 -0.563002 -6.4555 0
M  V30 26629 N 2496.51 1.57387 0.0818378 0
M  V30 26630 C 2497.76 1.86754 0.782882 0
M  V30 26631 C 2498.09 0.782149 1.78081 0
M  V30 26632 O 2497.34 -0.222916 1.94426 0
M  V30 26633 C 2497.64 3.22754 1.53507 0
M  V30 26634 C 2497.31 4.45773 0.678056 0
M  V30 26635 C 2495.97 4.79167 0.441845 0
M  V30 26636 C 2498.32 5.21134 0.0831327 0
M  V30 26637 C 2495.65 5.85342 -0.398936 0
M  V30 26638 C 2498 6.28197 -0.745045 0
M  V30 26639 C 2496.66 6.60099 -0.991223 0
M  V30 26640 H 2495.93 0.683383 0.286477 0
M  V30 26641 H 2498.58 1.9145 0.0439472 0
M  V30 26642 H 2496.89 3.13804 2.34594 0
M  V30 26643 H 2498.58 3.42708 2.08212 0
M  V30 26644 H 2495.17 4.1963 0.872283 0
M  V30 26645 H 2499.36 4.95656 0.25276 0
M  V30 26646 H 2494.61 6.08463 -0.598512 0
M  V30 26647 H 2498.79 6.85758 -1.21283 0
M  V30 26648 H 2496.41 7.42199 -1.6445 0
M  V30 26649 N 2497.99 -0.35299 1.53596 0
M  V30 26650 C 2499.4 -0.69549 1.43649 0
M  V30 26651 C 2499.6 -1.92801 0.585651 0
M  V30 26652 O 2498.66 -2.52395 0.0729667 0
M  V30 26653 C 2499.97 -0.896941 2.87011 0
M  V30 26654 C 2501.52 -0.996157 2.96725 0
M  V30 26655 C 2502 -1.22999 4.41175 0
M  V30 26656 N 2503.49 -1.29741 4.44659 0
M  V30 26657 C 2504.22 -1.49567 5.5355 0
M  V30 26658 N 2503.72 -1.66628 6.72463 0
M  V30 26659 N 2505.51 -1.52038 5.41148 0
M  V30 26660 H 2497.66 0.457518 2.07414 0
M  V30 26661 H 2499.93 0.142703 0.937198 0
M  V30 26662 H 2499.63 -0.062932 3.51644 0
M  V30 26663 H 2499.51 -1.80142 3.31404 0
M  V30 26664 H 2501.89 -1.8207 2.32238 0
M  V30 26665 H 2501.97 -0.0687881 2.55707 0
M  V30 26666 H 2501.62 -0.410416 5.06239 0
M  V30 26667 H 2501.55 -2.17078 4.79776 0
M  V30 26668 H 2504.04 -1.18119 3.58966 0
M  V30 26669 H 2504.35 -1.81365 7.51217 0
M  V30 26670 H 2502.7 -1.63782 6.75426 0
M  V30 26671 H 2505.89 -1.38286 4.47208 0
M  V30 26672 H 2506.06 -1.67148 6.26071 0
M  V30 26673 N 2499.47 -1.45169 -0.613489 0
M  V30 26674 C 2500.38 -1.55915 -1.75293 0
M  V30 26675 C 2501.39 -0.443886 -1.68243 0
M  V30 26676 O 2502.57 -0.703743 -1.88705 0
M  V30 26677 C 2499.63 -1.51725 -3.11738 0
M  V30 26678 C 2498.7 -2.74244 -3.30286 0
M  V30 26679 C 2497.93 -2.70244 -4.60221 0
M  V30 26680 O 2498.15 -1.77239 -5.42165 0
M  V30 26681 O 2497.09 -3.6136 -4.81355 0
M  V30 26682 H 2500.91 -2.52215 -1.69178 0
M  V30 26683 H 2498.5 -1.27613 -0.776864 0
M  V30 26684 H 2500.38 -1.51975 -3.93041 0
M  V30 26685 H 2499.05 -0.585753 -3.18356 0
M  V30 26686 H 2497.96 -2.79557 -2.48593 0
M  V30 26687 H 2499.29 -3.665 -3.28541 0
M  V30 26688 N 2500.95 0.855472 -1.32361 0
M  V30 26689 C 2501.9 1.95203 -1.17812 0
M  V30 26690 C 2502.88 1.60674 -0.0852602 0
M  V30 26691 O 2504.07 1.74234 -0.311682 0
M  V30 26692 C 2501.2 3.31225 -0.902495 0
M  V30 26693 C 2500.29 3.71976 -2.03702 0
M  V30 26694 N 2500.68 3.84562 -3.28551 0
M  V30 26695 C 2498.98 4.01597 -1.94 0
M  V30 26696 C 2499.68 4.19622 -4.02855 0
M  V30 26697 N 2498.65 4.31096 -3.31145 0
M  V30 26698 H 2502.45 2.03066 -2.12465 0
M  V30 26699 H 2499.97 1.04718 -1.24129 0
M  V30 26700 H 2501.97 4.09553 -0.779222 0
M  V30 26701 H 2500.63 3.2468 0.0356696 0
M  V30 26702 H 2501.64 3.68905 -3.63497 0
M  V30 26703 H 2498.31 4.03359 -1.0774 0
M  V30 26704 H 2499.7 4.36836 -5.10514 0
M  V30 26705 N 2502.42 1.15558 1.07164 0
M  V30 26706 C 2503.37 0.849938 2.16515 0
M  V30 26707 C 2504.37 -0.177424 1.68468 0
M  V30 26708 O 2505.57 -0.032271 1.79971 0
M  V30 26709 H 2501.95 0.257203 0.706648 0
M  V30 26710 H 2503.92 1.77981 2.39511 0
M  V30 26711 C 2502.67 0.357743 3.45855 0
M  V30 26712 H 2501.99 1.13968 3.83212 0
M  V30 26713 H 2503.43 0.182563 4.23607 0
M  V30 26714 C 2501.89 -0.921096 3.24064 0
M  V30 26715 O 2502.42 -1.99223 3.48816 0
M  V30 26716 N 2500.62 -0.861361 2.77541 0
M  V30 26717 H 2500.17 0.0104861 2.57598 0
M  V30 26718 H 2500.13 -1.71754 2.6334 0
M  V30 26719 N 2503.9 -1.25546 0.952678 0
M  V30 26720 C 2504.86 -2.24206 0.475833 0
M  V30 26721 C 2505.86 -1.55234 -0.419401 0
M  V30 26722 O 2507.05 -1.72844 -0.216964 0
M  V30 26723 C 2504.19 -3.39462 -0.312755 0
M  V30 26724 H 2505.38 -2.67905 1.34784 0
M  V30 26725 H 2502.93 -1.37899 0.735763 0
M  V30 26726 H 2503.67 -3.01181 -1.20251 0
M  V30 26727 H 2503.45 -3.90713 0.329473 0
M  V30 26728 H 2504.94 -4.1273 -0.635914 0
M  V30 26729 N 2505.38 -0.721022 -1.40139 0
M  V30 26730 C 2506.33 -0.0719595 -2.30688 0
M  V30 26731 C 2507.3 0.744558 -1.48477 0
M  V30 26732 O 2508.48 0.707391 -1.77202 0
M  V30 26733 C 2505.62 0.839796 -3.34726 0
M  V30 26734 C 2504.73 0.0121679 -4.31998 0
M  V30 26735 C 2503.87 0.923903 -5.23104 0
M  V30 26736 C 2502.91 0.0906894 -6.12033 0
M  V30 26737 N 2502.05 0.957596 -6.95539 0
M  V30 26738 H 2506.89 -0.849805 -2.85626 0
M  V30 26739 H 2504.42 -0.43075 -1.40652 0
M  V30 26740 H 2506.38 1.38272 -3.9362 0
M  V30 26741 H 2505.01 1.58376 -2.81277 0
M  V30 26742 H 2504.06 -0.648006 -3.7484 0
M  V30 26743 H 2505.37 -0.632682 -4.94771 0
M  V30 26744 H 2504.53 1.53517 -5.86956 0
M  V30 26745 H 2503.27 1.60256 -4.60618 0
M  V30 26746 H 2502.27 -0.533473 -5.47206 0
M  V30 26747 H 2503.5 -0.584547 -6.7658 0
M  V30 26748 H 2501.44 1.6218 -6.35636 0
M  V30 26749 H 2501.36 0.368907 -7.55099 0
M  V30 26750 H 2502.63 1.55487 -7.63835 0
M  V30 26751 N 2506.86 1.50503 -0.467606 0
M  V30 26752 C 2508.1 2.02306 0.0885864 0
M  V30 26753 C 2508.43 1.34984 1.40034 0
M  V30 26754 O 2507.69 0.463351 1.90136 0
M  V30 26755 C 2507.99 3.55929 0.323932 0
M  V30 26756 C 2507.65 4.4171 -0.905695 0
M  V30 26757 C 2506.31 4.64873 -1.24284 0
M  V30 26758 C 2508.67 4.91842 -1.72456 0
M  V30 26759 C 2505.99 5.35412 -2.39897 0
M  V30 26760 C 2508.35 5.63651 -2.87195 0
M  V30 26761 C 2507.01 5.85068 -3.21328 0
M  V30 26762 H 2506.28 0.740291 0.032416 0
M  V30 26763 H 2508.93 1.81152 -0.620977 0
M  V30 26764 H 2507.23 3.75579 1.11571 0
M  V30 26765 H 2508.93 3.93573 0.768191 0
M  V30 26766 H 2505.52 4.23899 -0.633031 0
M  V30 26767 H 2509.7 4.73804 -1.47728 0
M  V30 26768 H 2504.96 5.50203 -2.6662 0
M  V30 26769 H 2509.13 6.01478 -3.50995 0
M  V30 26770 H 2506.76 6.39504 -4.11021 0
M  V30 26771 N 2508.34 0.200077 1.56325 0
M  V30 26772 C 2509.56 -0.445935 2.02549 0
M  V30 26773 C 2509.99 -1.54058 1.07925 0
M  V30 26774 O 2509.34 -1.81188 0.0636093 0
M  V30 26775 C 2509.39 -0.9747 3.47177 0
M  V30 26776 O 2508.5 -2.08732 3.55675 0
M  V30 26777 H 2507.84 -0.103626 0.655864 0
M  V30 26778 H 2510.37 0.312417 2.02201 0
M  V30 26779 H 2510.38 -1.29003 3.87069 0
M  V30 26780 H 2509.05 -0.173397 4.15538 0
M  V30 26781 H 2507.63 -1.78026 3.2766 0
M  V30 26782 N 2509.81 -1.57429 -0.0734901 0
M  V30 26783 C 2510.74 -2.0661 -1.08787 0
M  V30 26784 C 2511.72 -0.959261 -1.40471 0
M  V30 26785 O 2512.91 -1.23188 -1.50128 0
M  V30 26786 C 2510.04 -2.50861 -2.40179 0
M  V30 26787 C 2508.99 -3.65406 -2.22851 0
M  V30 26788 C 2508.32 -3.95706 -3.59612 0
M  V30 26789 C 2509.62 -4.95514 -1.65115 0
M  V30 26790 H 2511.31 -2.91608 -0.678622 0
M  V30 26791 H 2508.86 -1.40285 -0.324989 0
M  V30 26792 H 2510.81 -2.8388 -3.11432 0
M  V30 26793 H 2509.54 -1.6289 -2.8308 0
M  V30 26794 H 2508.2 -3.32667 -1.54039 0
M  V30 26795 H 2507.84 -3.04869 -4.0008 0
M  V30 26796 H 2507.54 -4.72834 -3.48857 0
M  V30 26797 H 2509.07 -4.3122 -4.32299 0
M  V30 26798 H 2510.48 -5.26775 -2.26232 0
M  V30 26799 H 2508.88 -5.76953 -1.65061 0
M  V30 26800 H 2509.95 -4.81016 -0.612474 0
M  V30 26801 N 2511.29 0.344839 -1.53781 0
M  V30 26802 C 2512.57 1.10217 -1.61591 0
M  V30 26803 C 2512.95 2.06541 -0.436352 0
M  V30 26804 O 2512.3 2.21238 0.571504 0
M  V30 26805 C 2512.51 1.82296 -2.97606 0
M  V30 26806 C 2513.85 2.36087 -3.52914 0
M  V30 26807 O 2514.88 1.92394 -2.99771 0
M  V30 26808 O 2513.74 3.16018 -4.45864 0
M  V30 26809 H 2510.83 0.506781 -0.653531 0
M  V30 26810 H 2513.38 0.346436 -1.66126 0
M  V30 26811 H 2512.15 1.12115 -3.74895 0
M  V30 26812 H 2511.77 2.6473 -2.96655 0
M  V30 26813 N 2512.77 1.45492 0.605781 0
M  V30 26814 C 2514.02 1.49308 1.36204 0
M  V30 26815 C 2514.34 0.136897 1.94519 0
M  V30 26816 O 2513.61 -0.833952 1.77263 0
M  V30 26817 H 2512.19 0.549852 0.50564 0
M  V30 26818 H 2514.85 1.8146 0.711208 0
M  V30 26819 H 2513.95 2.2329 2.18055 0
M  V30 26820 N 2514.25 -0.848441 1.32813 0
M  V30 26821 C 2515.2 -1.95752 1.22269 0
M  V30 26822 C 2516.17 -1.65778 0.103443 0
M  V30 26823 O 2517.35 -1.88733 0.280066 0
M  V30 26824 C 2514.49 -3.31534 0.958073 0
M  V30 26825 C 2513.6 -3.73968 2.16269 0
M  V30 26826 C 2512.74 -4.98571 1.83303 0
M  V30 26827 C 2511.78 -5.33513 3.00051 0
M  V30 26828 N 2510.91 -6.49294 2.67137 0
M  V30 26829 H 2515.75 -2.04103 2.17131 0
M  V30 26830 H 2513.29 -0.998894 1.07984 0
M  V30 26831 H 2515.25 -4.09746 0.785124 0
M  V30 26832 H 2513.88 -3.22767 0.0462158 0
M  V30 26833 H 2512.93 -2.91358 2.44571 0
M  V30 26834 H 2514.24 -3.9578 3.03579 0
M  V30 26835 H 2513.4 -5.84506 1.62596 0
M  V30 26836 H 2512.14 -4.78709 0.932162 0
M  V30 26837 H 2511.14 -4.46087 3.21382 0
M  V30 26838 H 2512.37 -5.55329 3.90879 0
M  V30 26839 H 2510.31 -6.30936 1.79598 0
M  V30 26840 H 2510.23 -6.71155 3.47976 0
M  V30 26841 H 2511.5 -7.38365 2.49874 0
M  V30 26842 N 2515.73 -1.16125 -1.06549 0
M  V30 26843 C 2516.69 -0.867944 -2.12131 0
M  V30 26844 C 2517.69 0.135916 -1.60225 0
M  V30 26845 O 2518.88 -0.0946728 -1.73943 0
M  V30 26846 C 2516.01 -0.297479 -3.396 0
M  V30 26847 H 2517.2 -1.80389 -2.39583 0
M  V30 26848 H 2514.76 -0.969834 -1.22572 0
M  V30 26849 H 2515.49 0.646274 -3.17795 0
M  V30 26850 H 2515.28 -1.02079 -3.78579 0
M  V30 26851 H 2516.77 -0.110125 -4.17455 0
M  V30 26852 N 2517.2 1.25039 -0.959323 0
M  V30 26853 C 2518.17 2.23951 -0.487717 0
M  V30 26854 C 2519.17 1.55454 0.411162 0
M  V30 26855 O 2520.36 1.72956 0.207794 0
M  V30 26856 C 2517.49 3.39623 0.294748 0
M  V30 26857 H 2518.68 2.67187 -1.36203 0
M  V30 26858 H 2516.24 1.37507 -0.743066 0
M  V30 26859 H 2516.97 3.01815 1.18652 0
M  V30 26860 H 2516.76 3.90533 -0.350189 0
M  V30 26861 H 2518.25 4.13061 0.614017 0
M  V30 26862 N 2518.68 0.728444 1.39755 0
M  V30 26863 C 2519.61 0.0991764 2.33289 0
M  V30 26864 C 2520.59 -0.731462 1.5357 0
M  V30 26865 O 2521.78 -0.677775 1.81989 0
M  V30 26866 C 2518.91 -0.813774 3.37631 0
M  V30 26867 C 2517.86 -0.0877911 4.2791 0
M  V30 26868 C 2517.19 -1.11732 5.22896 0
M  V30 26869 C 2518.49 1.06572 5.11312 0
M  V30 26870 H 2520.18 0.880458 2.86161 0
M  V30 26871 H 2517.73 0.424843 1.3759 0
M  V30 26872 H 2519.68 -1.26348 4.02013 0
M  V30 26873 H 2518.41 -1.6271 2.83184 0
M  V30 26874 H 2517.06 0.342223 3.64999 0
M  V30 26875 H 2516.71 -1.92403 4.64747 0
M  V30 26876 H 2516.41 -0.636374 5.84144 0
M  V30 26877 H 2517.94 -1.56686 5.90154 0
M  V30 26878 H 2519.35 0.694771 5.69075 0
M  V30 26879 H 2517.75 1.47587 5.81668 0
M  V30 26880 H 2518.82 1.89046 4.46531 0
M  V30 26881 N 2520.16 -1.50253 0.475581 0
M  V30 26882 C 2521.39 -2.06763 -0.0754129 0
M  V30 26883 C 2521.8 -1.33894 -1.33109 0
M  V30 26884 O 2521.16 -0.409551 -1.77845 0
M  V30 26885 C 2521.21 -3.59714 -0.358945 0
M  V30 26886 O 2520.93 -4.29836 0.846927 0
M  V30 26887 C 2522.43 -4.3286 -0.956408 0
M  V30 26888 H 2519.65 -0.670938 0.00908704 0
M  V30 26889 H 2522.2 -1.93363 0.665652 0
M  V30 26890 H 2520.35 -3.72901 -1.04995 0
M  V30 26891 H 2520.77 -5.21123 0.594254 0
M  V30 26892 H 2522.24 -5.40836 -1.10454 0
M  V30 26893 H 2522.72 -3.93652 -1.94768 0
M  V30 26894 H 2523.32 -4.24215 -0.303648 0
M  V30 26895 N 2521.64 -0.208365 -1.56217 0
M  V30 26896 C 2522.55 0.718796 -2.23317 0
M  V30 26897 C 2523.56 1.2242 -1.2365 0
M  V30 26898 O 2524.74 1.26858 -1.56426 0
M  V30 26899 C 2521.81 1.91563 -2.88971 0
M  V30 26900 C 2520.87 1.4535 -4.03945 0
M  V30 26901 C 2520.1 2.59329 -4.66459 0
M  V30 26902 O 2520.32 3.77141 -4.27926 0
M  V30 26903 O 2519.26 2.31283 -5.5569 0
M  V30 26904 H 2523.08 0.177262 -3.03182 0
M  V30 26905 H 2520.67 0.0215139 -1.49385 0
M  V30 26906 H 2522.55 2.61486 -3.30459 0
M  V30 26907 H 2521.22 2.44552 -2.12076 0
M  V30 26908 H 2520.13 0.722681 -3.67053 0
M  V30 26909 H 2521.46 0.970134 -4.82545 0
M  V30 26910 N 2523.12 1.57465 0.0651402 0
M  V30 26911 C 2524.05 2.07184 1.0769 0
M  V30 26912 C 2525.03 0.966697 1.39961 0
M  V30 26913 O 2526.21 1.23982 1.49472 0
M  V30 26914 C 2523.34 2.52131 2.38845 0
M  V30 26915 C 2522.3 3.66582 2.2091 0
M  V30 26916 C 2521.62 3.97608 3.57508 0
M  V30 26917 C 2522.92 4.96383 1.62485 0
M  V30 26918 H 2524.62 2.91964 0.663148 0
M  V30 26919 H 2522.16 1.40455 0.317544 0
M  V30 26920 H 2524.12 2.85528 3.09923 0
M  V30 26921 H 2522.84 1.64389 2.82213 0
M  V30 26922 H 2521.5 3.33479 1.52273 0
M  V30 26923 H 2521.15 3.06986 3.98458 0
M  V30 26924 H 2520.85 4.74678 3.46345 0
M  V30 26925 H 2522.37 4.33506 4.30006 0
M  V30 26926 H 2523.78 5.27967 2.23435 0
M  V30 26927 H 2522.18 5.7782 1.61999 0
M  V30 26928 H 2523.25 4.81334 0.586956 0
M  V30 26929 N 2524.59 -0.336679 1.53962 0
M  V30 26930 C 2525.82 -1.10043 1.75799 0
M  V30 26931 C 2526.24 -1.8136 0.499017 0
M  V30 26932 O 2525.6 -1.72796 -0.548739 0
M  V30 26933 C 2525.65 -2.0843 2.9426 0
M  V30 26934 O 2524.75 -3.16082 2.64889 0
M  V30 26935 H 2524.1 -0.317924 0.582941 0
M  V30 26936 H 2526.63 -0.384975 2.00946 0
M  V30 26937 H 2526.64 -2.51531 3.21241 0
M  V30 26938 H 2525.31 -1.55921 3.85567 0
M  V30 26939 H 2523.89 -2.77749 2.48817 0
M  V30 26940 N 2526.07 -1.45812 -0.598057 0
M  V30 26941 C 2527 -1.5806 -1.7187 0
M  V30 26942 C 2527.98 -0.431644 -1.64532 0
M  V30 26943 O 2529.17 -0.655982 -1.82785 0
M  V30 26944 C 2526.3 -1.55602 -3.10492 0
M  V30 26945 C 2525.25 -2.69311 -3.32649 0
M  V30 26946 C 2524.58 -2.5191 -4.71641 0
M  V30 26947 C 2525.88 -4.11254 -3.21974 0
M  V30 26948 H 2527.57 -2.51866 -1.61876 0
M  V30 26949 H 2525.12 -1.21216 -0.777351 0
M  V30 26950 H 2527.07 -1.62767 -3.88697 0
M  V30 26951 H 2525.8 -0.583311 -3.21349 0
M  V30 26952 H 2524.45 -2.61591 -2.56838 0
M  V30 26953 H 2524.1 -1.52757 -4.79244 0
M  V30 26954 H 2523.8 -3.28169 -4.87421 0
M  V30 26955 H 2525.33 -2.60943 -5.52034 0
M  V30 26956 H 2526.74 -4.20168 -3.90041 0
M  V30 26957 H 2525.14 -4.87979 -3.49281 0
M  V30 26958 H 2526.21 -4.3249 -2.19272 0
M  V30 26959 N 2527.55 0.841385 -1.33261 0
M  V30 26960 C 2528.8 1.59332 -1.24329 0
M  V30 26961 C 2529.12 1.94057 0.19153 0
M  V30 26962 O 2528.39 1.60751 1.11964 0
M  V30 26963 H 2526.97 0.590755 -0.457184 0
M  V30 26964 H 2529.63 1.00569 -1.66949 0
M  V30 26965 H 2528.73 2.52439 -1.83524 0
M  V30 26966 N 2529.03 1.16688 1.05932 0
M  V30 26967 C 2530.25 0.975487 1.83027 0
M  V30 26968 C 2530.68 -0.47142 1.82097 0
M  V30 26969 O 2530.04 -1.33704 1.22446 0
M  V30 26970 C 2530.09 1.51201 3.27369 0
M  V30 26971 O 2529.19 0.720772 4.06053 0
M  V30 26972 H 2528.53 0.346882 0.566188 0
M  V30 26973 H 2531.06 1.55011 1.33539 0
M  V30 26974 H 2531.07 1.53106 3.78183 0
M  V30 26975 H 2529.75 2.56529 3.27362 0
M  V30 26976 H 2528.32 0.772522 3.6481 0
M  V30 26977 N 2530.51 -1.24529 0.96594 0
M  V30 26978 C 2531.47 -2.23689 0.499586 0
M  V30 26979 C 2532.47 -1.5567 -0.402913 0
M  V30 26980 O 2533.66 -1.73064 -0.198619 0
M  V30 26981 C 2530.79 -3.39775 -0.276732 0
M  V30 26982 H 2531.99 -2.66461 1.37618 0
M  V30 26983 H 2529.54 -1.37111 0.750348 0
M  V30 26984 H 2530.27 -3.0244 -1.1705 0
M  V30 26985 H 2530.06 -3.90342 0.370895 0
M  V30 26986 H 2531.55 -4.13381 -0.592103 0
M  V30 26987 N 2531.99 -0.735845 -1.39367 0
M  V30 26988 C 2533.22 -0.294002 -2.04497 0
M  V30 26989 C 2533.62 1.07642 -1.55595 0
M  V30 26990 O 2532.97 1.69157 -0.716353 0
M  V30 26991 C 2533.03 -0.218405 -3.58836 0
M  V30 26992 C 2532.69 -1.52744 -4.30718 0
M  V30 26993 C 2533.69 -2.4733 -4.57301 0
M  V30 26994 C 2531.37 -1.79197 -4.69248 0
M  V30 26995 C 2533.37 -3.66602 -5.21423 0
M  V30 26996 C 2531.06 -2.98746 -5.33098 0
M  V30 26997 C 2532.05 -3.9227 -5.59118 0
M  V30 26998 O 2531.74 -5.09719 -6.21644 0
M  V30 26999 H 2531.47 -0.126201 -0.664115 0
M  V30 27000 H 2534.03 -1.00055 -1.79383 0
M  V30 27001 H 2532.26 0.544247 -3.82851 0
M  V30 27002 H 2533.95 0.191555 -4.05448 0
M  V30 27003 H 2534.71 -2.28164 -4.27979 0
M  V30 27004 H 2530.59 -1.07246 -4.48352 0
M  V30 27005 H 2534.14 -4.39616 -5.41649 0
M  V30 27006 H 2530.03 -3.17813 -5.61841 0
M  V30 27007 H 2530.8 -5.10065 -6.40138 0
M  V30 27008 N 2533.46 1.49999 -0.483543 0
M  V30 27009 C 2534.4 2.26655 0.340594 0
M  V30 27010 C 2535.41 1.32485 0.946129 0
M  V30 27011 O 2536.6 1.57902 0.832425 0
M  V30 27012 C 2533.7 3.04249 1.49285 0
M  V30 27013 C 2532.87 4.25866 0.997829 0
M  V30 27014 C 2531.93 4.8565 2.02561 0
M  V30 27015 O 2530.96 5.46215 1.60119 0
M  V30 27016 N 2532.16 4.7375 3.35471 0
M  V30 27017 H 2534.92 2.98023 -0.316629 0
M  V30 27018 H 2532.48 1.58805 -0.315052 0
M  V30 27019 H 2534.48 3.4112 2.1776 0
M  V30 27020 H 2533.05 2.356 2.05454 0
M  V30 27021 H 2532.27 3.93956 0.138548 0
M  V30 27022 H 2533.55 5.04692 0.645217 0
M  V30 27023 H 2532.95 4.25612 3.72654 0
M  V30 27024 H 2531.51 5.14855 3.99709 0
M  V30 27025 N 2534.94 0.216646 1.56104 0
M  V30 27026 C 2535.9 -0.681923 2.18821 0
M  V30 27027 C 2536.9 -1.12526 1.14868 0
M  V30 27028 O 2538.09 -1.03485 1.4013 0
M  V30 27029 C 2535.23 -1.93357 2.80759 0
M  V30 27030 H 2536.42 -0.135201 2.99595 0
M  V30 27031 H 2533.97 -0.0329729 1.56265 0
M  V30 27032 H 2534.71 -2.52228 2.03842 0
M  V30 27033 H 2534.49 -1.6242 3.56878 0
M  V30 27034 H 2535.98 -2.57387 3.28849 0
M  V30 27035 N 2536.42 -1.57498 -0.0567885 0
M  V30 27036 C 2537.35 -2.00041 -1.09813 0
M  V30 27037 C 2538.33 -0.879843 -1.36739 0
M  V30 27038 O 2539.51 -1.14341 -1.49861 0
M  V30 27039 C 2536.64 -2.34991 -2.4392 0
M  V30 27040 C 2535.69 -3.57208 -2.33033 0
M  V30 27041 S 2536.52 -5.0746 -1.71011 0
M  V30 27042 C 2537.68 -5.45626 -3.06664 0
M  V30 27043 H 2537.91 -2.88055 -0.73565 0
M  V30 27044 H 2535.44 -1.52094 -0.265844 0
M  V30 27045 H 2537.4 -2.558 -3.21055 0
M  V30 27046 H 2536.06 -1.47478 -2.77325 0
M  V30 27047 H 2535.25 -3.79229 -3.31966 0
M  V30 27048 H 2534.86 -3.36107 -1.64037 0
M  V30 27049 H 2537.15 -5.44615 -4.0299 0
M  V30 27050 H 2538.09 -6.46257 -2.89408 0
M  V30 27051 H 2538.5 -4.73096 -3.07961 0
M  V30 27052 N 2537.9 0.328509 -1.54138 0
M  V30 27053 C 2539.15 1.06453 -1.7132 0
M  V30 27054 C 2539.46 1.89333 -0.491142 0
M  V30 27055 O 2540.67 2.6599 -0.544207 0
M  V30 27056 C 2539.12 1.94209 -3.03003 0
M  V30 27057 C 2538.73 1.16464 -4.32597 0
M  V30 27058 C 2540.47 2.67577 -3.29549 0
M  V30 27059 C 2538.38 2.03337 -5.55345 0
M  V30 27060 H 2537.31 0.401143 -0.638436 0
M  V30 27061 H 2539.96 0.323074 -1.80634 0
M  V30 27062 H 2538.34 2.72234 -2.87584 0
M  V30 27063 H 2539.52 0.432445 -4.58766 0
M  V30 27064 H 2537.83 0.54799 -4.12778 0
M  V30 27065 H 2540.43 3.32872 -4.1845 0
M  V30 27066 H 2540.77 3.34951 -2.47212 0
M  V30 27067 H 2541.31 1.96617 -3.45813 0
M  V30 27068 H 2538.04 1.4048 -6.4027 0
M  V30 27069 H 2537.56 2.74303 -5.33402 0
M  V30 27070 H 2539.24 2.62039 -5.91561 0
M  V30 27071 N 2539.38 1.46127 0.590316 0
M  V30 27072 C 2540.31 1.58969 1.71029 0
M  V30 27073 C 2541.29 0.440364 1.64301 0
M  V30 27074 O 2542.47 0.665666 1.82435 0
M  V30 27075 C 2539.6 1.57246 3.09662 0
M  V30 27076 C 2538.56 2.71072 3.31216 0
M  V30 27077 C 2537.88 2.54408 4.70299 0
M  V30 27078 C 2539.18 4.12956 3.19789 0
M  V30 27079 H 2540.88 2.52721 1.60538 0
M  V30 27080 H 2538.42 1.21626 0.770912 0
M  V30 27081 H 2540.37 1.64826 3.87828 0
M  V30 27082 H 2539.1 0.600345 3.21035 0
M  V30 27083 H 2537.76 2.62949 2.55447 0
M  V30 27084 H 2537.41 1.55296 4.78427 0
M  V30 27085 H 2537.11 3.30749 4.85674 0
M  V30 27086 H 2538.63 2.63867 5.50642 0
M  V30 27087 H 2540.04 4.2223 3.87807 0
M  V30 27088 H 2538.44 4.89824 3.46688 0
M  V30 27089 H 2539.51 4.33647 2.16976 0
M  V30 27090 N 2540.85 -0.834306 1.33705 0
M  V30 27091 C 2542.1 -1.58671 1.25172 0
M  V30 27092 C 2542.42 -1.94156 -0.181236 0
M  V30 27093 O 2541.69 -1.61342 -1.1111 0
M  V30 27094 H 2540.27 -0.588322 0.460311 0
M  V30 27095 H 2542.93 -0.996817 1.6748 0
M  V30 27096 H 2542.03 -2.51462 1.8486 0
M  V30 27097 N 2542.33 -1.17248 -1.05312 0
M  V30 27098 C 2543.58 -0.961544 -1.78556 0
M  V30 27099 C 2543.91 0.508664 -1.8742 0
M  V30 27100 O 2543.19 1.37755 -1.37309 0
M  V30 27101 C 2543.47 -1.60182 -3.22512 0
M  V30 27102 C 2543.32 -3.14405 -3.21667 0
M  V30 27103 C 2544.64 -1.30471 -4.20316 0
M  V30 27104 H 2541.76 -0.350734 -0.648193 0
M  V30 27105 H 2544.4 -1.44729 -1.231 0
M  V30 27106 H 2542.55 -1.18878 -3.69865 0
M  V30 27107 H 2544.22 -3.64758 -2.82399 0
M  V30 27108 H 2542.47 -3.47218 -2.60042 0
M  V30 27109 H 2543.14 -3.54332 -4.23265 0
M  V30 27110 H 2545.61 -1.66235 -3.81451 0
M  V30 27111 H 2544.49 -1.77857 -5.19286 0
M  V30 27112 H 2544.75 -0.225287 -4.41526 0
M  V30 27113 N 2543.81 1.24015 -0.972531 0
M  V30 27114 C 2545.09 1.87597 -0.553766 0
M  V30 27115 C 2545.47 1.8754 0.969125 0
M  V30 27116 O 2544.82 1.35142 1.84252 0
M  V30 27117 C 2545.03 3.2948 -1.15082 0
M  V30 27118 C 2546.37 4.0613 -1.23869 0
M  V30 27119 O 2547.4 3.3867 -1.10369 0
M  V30 27120 O 2546.26 5.26841 -1.45261 0
M  V30 27121 H 2543.35 0.805963 -0.185345 0
M  V30 27122 H 2545.9 1.3195 -1.06711 0
M  V30 27123 H 2544.67 3.24046 -2.19339 0
M  V30 27124 H 2544.29 3.92708 -0.621815 0
M  V30 27125 N 2545.29 0.743226 1.38974 0
M  V30 27126 C 2546.51 0.303972 2.0516 0
M  V30 27127 C 2546.94 -1.05573 1.55679 0
M  V30 27128 O 2546.3 -1.67067 0.704161 0
M  V30 27129 C 2546.34 0.324437 3.59138 0
M  V30 27130 O 2545.45 -0.685132 4.06669 0
M  V30 27131 H 2544.79 0.136529 0.649812 0
M  V30 27132 H 2547.32 1.01145 1.77851 0
M  V30 27133 H 2547.33 0.171689 4.07639 0
M  V30 27134 H 2546 1.31654 3.94512 0
M  V30 27135 H 2544.58 -0.497848 3.69562 0
M  V30 27136 N 2546.77 -1.4974 0.491491 0
M  V30 27137 C 2547.71 -2.28946 -0.291986 0
M  V30 27138 C 2548.68 -1.3491 -0.968949 0
M  V30 27139 O 2549.87 -1.63861 -0.977452 0
M  V30 27140 C 2547.01 -3.17338 -1.35611 0
M  V30 27141 C 2546.12 -4.26423 -0.691882 0
M  V30 27142 C 2545.26 -5.02045 -1.73563 0
M  V30 27143 C 2544.3 -6.02979 -1.05276 0
M  V30 27144 N 2543.43 -6.71801 -2.04028 0
M  V30 27145 H 2548.27 -2.95441 0.389706 0
M  V30 27146 H 2545.81 -1.45678 0.204029 0
M  V30 27147 H 2547.77 -3.66954 -1.98495 0
M  V30 27148 H 2546.4 -2.52847 -2.00669 0
M  V30 27149 H 2545.45 -3.80367 0.0500192 0
M  V30 27150 H 2546.76 -4.98563 -0.153858 0
M  V30 27151 H 2545.92 -5.55482 -2.43977 0
M  V30 27152 H 2544.65 -4.29658 -2.3075 0
M  V30 27153 H 2543.66 -5.48782 -0.33435 0
M  V30 27154 H 2544.88 -6.77348 -0.487517 0
M  V30 27155 H 2542.83 -6.02192 -2.60194 0
M  V30 27156 H 2542.75 -7.39884 -1.55266 0
M  V30 27157 H 2544.02 -7.29847 -2.73759 0
M  V30 27158 N 2548.24 -0.224922 -1.55987 0
M  V30 27159 C 2549.19 0.700244 -2.21809 0
M  V30 27160 C 2550.19 1.19712 -1.19856 0
M  V30 27161 O 2551.39 1.15655 -1.37927 0
M  V30 27162 H 2547.77 0.244245 -0.71123 0
M  V30 27163 H 2549.74 0.121696 -2.98152 0
M  V30 27164 C 2548.49 1.89615 -2.91447 0
M  V30 27165 H 2547.81 1.52293 -3.69658 0
M  V30 27166 H 2549.25 2.52119 -3.40899 0
M  V30 27167 C 2547.71 2.75365 -1.94103 0
M  V30 27168 O 2548.24 3.74224 -1.4601 0
M  V30 27169 N 2546.45 2.41471 -1.61679 0
M  V30 27170 H 2545.99 1.61133 -2.00982 0
M  V30 27171 H 2545.95 2.99124 -0.968089 0
M  V30 27172 N 2549.72 1.57526 0.0484352 0
M  V30 27173 C 2550.97 1.87555 0.742032 0
M  V30 27174 C 2551.28 0.820833 1.77543 0
M  V30 27175 O 2552.49 1.00972 2.52026 0
M  V30 27176 C 2550.95 3.32774 1.37075 0
M  V30 27177 C 2550.55 4.4643 0.374707 0
M  V30 27178 C 2552.3 3.71975 2.04535 0
M  V30 27179 C 2550.21 5.827 1.01067 0
M  V30 27180 H 2549.14 0.699726 0.28089 0
M  V30 27181 H 2551.79 1.835 -0.00415102 0
M  V30 27182 H 2550.17 3.31513 2.16599 0
M  V30 27183 H 2551.34 4.59126 -0.392412 0
M  V30 27184 H 2549.66 4.15935 -0.196726 0
M  V30 27185 H 2552.25 4.71093 2.52934 0
M  V30 27186 H 2552.6 3.02969 2.85509 0
M  V30 27187 H 2553.13 3.75327 1.31812 0
M  V30 27188 H 2549.87 6.55058 0.240763 0
M  V30 27189 H 2549.39 5.73761 1.74809 0
M  V30 27190 H 2551.07 6.28802 1.52372 0
M  V30 27191 N 2551.2 -0.32033 1.5431 0
M  V30 27192 C 2552.45 -1.05789 1.7267 0
M  V30 27193 C 2552.78 -1.87907 0.502117 0
M  V30 27194 O 2552.03 -1.88772 -0.516116 0
M  V30 27195 C 2552.33 -2.00823 2.95643 0
M  V30 27196 C 2552 -1.34835 4.30268 0
M  V30 27197 C 2550.66 -1.16569 4.66867 0
M  V30 27198 C 2553.01 -0.875005 5.13803 0
M  V30 27199 C 2550.34 -0.496233 5.84598 0
M  V30 27200 C 2552.69 -0.219351 6.3222 0
M  V30 27201 C 2551.35 -0.0245742 6.67495 0
M  V30 27202 H 2550.62 -0.38711 0.631844 0
M  V30 27203 H 2553.27 -0.334702 1.88552 0
M  V30 27204 H 2551.58 -2.79604 2.74461 0
M  V30 27205 H 2553.27 -2.57927 3.07042 0
M  V30 27206 H 2549.86 -1.50054 4.01474 0
M  V30 27207 H 2554.05 -1.0039 4.86041 0
M  V30 27208 H 2549.3 -0.334156 6.10486 0
M  V30 27209 H 2553.48 0.155413 6.96227 0
M  V30 27210 H 2551.1 0.496198 7.58579 0
M  V30 27211 N 2552.68 -1.46438 -0.582558 0
M  V30 27212 C 2553.63 -1.57383 -1.7127 0
M  V30 27213 C 2554.62 -0.442319 -1.63523 0
M  V30 27214 O 2555.83 -0.619196 -1.69015 0
M  V30 27215 H 2552.2 -0.494822 -0.566264 0
M  V30 27216 H 2554.17 -2.52404 -1.59169 0
M  V30 27217 C 2552.92 -1.58141 -3.09656 0
M  V30 27218 H 2552.24 -2.44546 -3.16287 0
M  V30 27219 H 2553.68 -1.69854 -3.88491 0
M  V30 27220 C 2552.14 -0.310085 -3.3547 0
M  V30 27221 O 2552.67 0.599613 -3.972 0
M  V30 27222 N 2550.88 -0.197952 -2.89925 0
M  V30 27223 H 2550.43 -0.939133 -2.39871 0
M  V30 27224 H 2550.38 0.651796 -3.07569 0
M  V30 27225 N 2554.16 0.827204 -1.34146 0
M  V30 27226 C 2555.4 1.58317 -1.26261 0
M  V30 27227 C 2555.73 1.93768 0.168561 0
M  V30 27228 O 2554.99 1.59868 1.12874 0
M  V30 27229 C 2555.29 2.89581 -2.09469 0
M  V30 27230 C 2554.95 2.73441 -3.58526 0
M  V30 27231 C 2553.61 2.68747 -3.9916 0
M  V30 27232 C 2555.97 2.5742 -4.53193 0
M  V30 27233 C 2553.29 2.45947 -5.3266 0
M  V30 27234 C 2555.65 2.36153 -5.86869 0
M  V30 27235 C 2554.31 2.29868 -6.26671 0
M  V30 27236 H 2553.58 0.579324 -0.462023 0
M  V30 27237 H 2556.23 0.95745 -1.65847 0
M  V30 27238 H 2554.53 3.56422 -1.62698 0
M  V30 27239 H 2556.23 3.4715 -2.00718 0
M  V30 27240 H 2552.82 2.77933 -3.26269 0
M  V30 27241 H 2557 2.60073 -4.227 0
M  V30 27242 H 2552.26 2.39536 -5.62523 0
M  V30 27243 H 2556.43 2.22742 -6.59817 0
M  V30 27244 H 2554.06 2.11962 -7.30052 0
M  V30 27245 N 2555.63 1.17805 1.04688 0
M  V30 27246 C 2556.58 0.899381 2.12555 0
M  V30 27247 C 2557.55 -0.158742 1.6534 0
M  V30 27248 O 2558.74 -0.0204462 1.90789 0
M  V30 27249 C 2555.88 0.424375 3.42481 0
M  V30 27250 C 2554.99 1.5472 4.03343 0
M  V30 27251 C 2554.12 1.02556 5.21206 0
M  V30 27252 C 2553.16 2.12349 5.74086 0
M  V30 27253 N 2552.3 1.61624 6.83244 0
M  V30 27254 H 2557.14 1.82305 2.35731 0
M  V30 27255 H 2554.68 0.909179 1.15639 0
M  V30 27256 H 2556.64 0.130495 4.16996 0
M  V30 27257 H 2555.27 -0.462321 3.19472 0
M  V30 27258 H 2554.32 1.9567 3.26217 0
M  V30 27259 H 2555.63 2.37509 4.38624 0
M  V30 27260 H 2554.78 0.685824 6.02811 0
M  V30 27261 H 2553.52 0.167169 4.87413 0
M  V30 27262 H 2552.53 2.47174 4.91106 0
M  V30 27263 H 2553.75 2.98612 6.09924 0
M  V30 27264 H 2551.7 0.780647 6.51339 0
M  V30 27265 H 2551.62 2.38016 7.17554 0
M  V30 27266 H 2552.88 1.30559 7.68489 0
M  V30 27267 N 2557.11 -1.23497 0.979094 0
M  V30 27268 C 2558.36 -1.92162 0.648212 0
M  V30 27269 C 2558.69 -1.76224 -0.816018 0
M  V30 27270 O 2557.97 -1.1224 -1.58847 0
M  V30 27271 C 2558.25 -3.44822 1.03779 0
M  V30 27272 C 2558.1 -3.69874 2.55955 0
M  V30 27273 C 2559.42 -4.36252 0.58073 0
M  V30 27274 H 2556.54 -0.697866 0.236964 0
M  V30 27275 H 2559.18 -1.45645 1.22014 0
M  V30 27276 H 2557.33 -3.84571 0.551126 0
M  V30 27277 H 2559 -3.39615 3.12185 0
M  V30 27278 H 2557.25 -3.14631 2.98647 0
M  V30 27279 H 2557.92 -4.76732 2.78263 0
M  V30 27280 H 2560.39 -4.03941 0.998536 0
M  V30 27281 H 2559.27 -5.41771 0.881759 0
M  V30 27282 H 2559.53 -4.39043 -0.518975 0
M  V30 27283 N 2558.59 -0.750586 -1.38578 0
M  V30 27284 C 2559.82 -0.314848 -2.04996 0
M  V30 27285 C 2560.24 1.04746 -1.56237 0
M  V30 27286 O 2559.6 1.66691 -0.713011 0
M  V30 27287 C 2559.65 -0.343478 -3.5896 0
M  V30 27288 O 2558.75 0.663556 -4.07027 0
M  V30 27289 H 2558.09 -0.139973 -0.649079 0
M  V30 27290 H 2560.62 -1.02087 -1.77312 0
M  V30 27291 H 2560.63 -0.193305 -4.07542 0
M  V30 27292 H 2559.31 -1.33745 -3.93809 0
M  V30 27293 H 2557.88 0.478242 -3.69821 0
M  V30 27294 N 2560.07 1.49477 -0.499425 0
M  V30 27295 C 2561 2.27004 0.316535 0
M  V30 27296 C 2562.01 1.33481 0.932024 0
M  V30 27297 O 2563.2 1.58776 0.81563 0
M  V30 27298 C 2560.3 3.05815 1.4605 0
M  V30 27299 C 2559.48 4.26901 0.952604 0
M  V30 27300 C 2558.54 4.87771 1.97398 0
M  V30 27301 O 2557.56 5.47882 1.54316 0
M  V30 27302 N 2558.76 4.77282 3.30428 0
M  V30 27303 H 2561.53 2.9767 -0.348221 0
M  V30 27304 H 2559.09 1.58462 -0.331878 0
M  V30 27305 H 2561.08 3.4341 2.14129 0
M  V30 27306 H 2559.65 2.37766 2.02944 0
M  V30 27307 H 2558.87 3.94081 0.0967555 0
M  V30 27308 H 2560.16 5.05348 0.591651 0
M  V30 27309 H 2559.56 4.29541 3.68119 0
M  V30 27310 H 2558.11 5.19066 3.94226 0
M  V30 27311 N 2561.55 0.233191 1.55865 0
M  V30 27312 C 2562.46 -0.683178 2.24432 0
M  V30 27313 C 2563.47 -1.20438 1.25582 0
M  V30 27314 O 2564.65 -1.24353 1.58424 0
M  V30 27315 C 2561.71 -1.86942 2.91982 0
M  V30 27316 C 2560.78 -1.38905 4.06207 0
M  V30 27317 C 2560.01 -2.51875 4.70526 0
M  V30 27318 O 2560.23 -3.70286 4.33872 0
M  V30 27319 O 2559.17 -2.22413 5.593 0
M  V30 27320 H 2562.99 -0.129006 3.03426 0
M  V30 27321 H 2560.58 0.00225456 1.494 0
M  V30 27322 H 2562.46 -2.56195 3.34577 0
M  V30 27323 H 2561.13 -2.41147 2.15939 0
M  V30 27324 H 2560.04 -0.664195 3.68157 0
M  V30 27325 H 2561.37 -0.893243 4.84027 0
M  V30 27326 N 2563.03 -1.57549 -0.0400806 0
M  V30 27327 C 2564.27 -1.88392 -0.731644 0
M  V30 27328 C 2564.59 -0.829456 -1.7648 0
M  V30 27329 O 2563.86 0.138265 -1.95411 0
M  V30 27330 H 2562.44 -0.695244 -0.273213 0
M  V30 27331 H 2565.11 -1.94898 -0.00864299 0
M  V30 27332 H 2564.2 -2.86921 -1.22811 0
M  V30 27333 N 2564.5 0.312142 -1.54478 0
M  V30 27334 C 2565.43 1.38954 -1.87654 0
M  V30 27335 C 2566.41 1.5343 -0.734385 0
M  V30 27336 O 2567.6 1.67122 -0.989139 0
M  V30 27337 C 2564.73 2.75549 -2.11401 0
M  V30 27338 C 2563.68 2.75849 -3.27248 0
M  V30 27339 C 2563.01 4.15628 -3.36389 0
M  V30 27340 C 2564.31 2.38579 -4.64626 0
M  V30 27341 H 2566 1.11437 -2.77889 0
M  V30 27342 H 2563.55 0.534631 -1.33707 0
M  V30 27343 H 2565.5 3.50996 -2.33195 0
M  V30 27344 H 2564.23 3.04567 -1.17926 0
M  V30 27345 H 2562.89 2.02857 -3.0536 0
M  V30 27346 H 2562.53 4.41805 -2.40452 0
M  V30 27347 H 2562.23 4.16732 -4.14256 0
M  V30 27348 H 2563.76 4.92871 -3.60431 0
M  V30 27349 H 2565.17 3.03741 -4.86225 0
M  V30 27350 H 2563.57 2.50916 -5.45125 0
M  V30 27351 H 2564.64 1.33715 -4.66099 0
M  V30 27352 N 2565.98 1.46745 0.574784 0
M  V30 27353 C 2566.93 1.57908 1.68326 0
M  V30 27354 C 2567.9 0.422955 1.60625 0
M  V30 27355 O 2569.08 0.640742 1.7972 0
M  V30 27356 C 2566.22 1.5828 3.06662 0
M  V30 27357 C 2565.34 2.84683 3.2493 0
M  V30 27358 C 2564.47 2.76507 4.53561 0
M  V30 27359 C 2563.51 3.97814 4.652 0
M  V30 27360 N 2562.65 3.87977 5.85165 0
M  V30 27361 H 2567.49 2.52589 1.58122 0
M  V30 27362 H 2565.02 1.25305 0.77053 0
M  V30 27363 H 2566.98 1.5648 3.86743 0
M  V30 27364 H 2565.61 0.671249 3.15744 0
M  V30 27365 H 2564.66 2.96428 2.384 0
M  V30 27366 H 2565.98 3.74566 3.29397 0
M  V30 27367 H 2565.13 2.72857 5.4188 0
M  V30 27368 H 2563.87 1.84278 4.51545 0
M  V30 27369 H 2562.87 4.01787 3.75296 0
M  V30 27370 H 2564.1 4.91148 4.68988 0
M  V30 27371 H 2562.05 2.9854 5.84132 0
M  V30 27372 H 2561.96 4.71521 5.90935 0
M  V30 27373 H 2563.23 3.88315 6.75893 0
M  V30 27374 N 2567.46 -0.820078 1.34583 0
M  V30 27375 C 2568.39 -1.94603 1.29042 0
M  V30 27376 C 2569.37 -1.69275 0.16733 0
M  V30 27377 O 2570.56 -1.90831 0.360146 0
M  V30 27378 C 2567.69 -3.31111 1.04799 0
M  V30 27379 C 2566.64 -3.70887 2.13604 0
M  V30 27380 C 2565.97 -5.05409 1.74545 0
M  V30 27381 C 2567.27 -3.82684 3.55458 0
M  V30 27382 H 2568.96 -1.99497 2.23252 0
M  V30 27383 H 2566.51 -0.95843 1.07472 0
M  V30 27384 H 2568.46 -4.09469 0.995664 0
M  V30 27385 H 2567.18 -3.26524 0.0703139 0
M  V30 27386 H 2565.84 -2.94806 2.1791 0
M  V30 27387 H 2565.49 -4.97312 0.754313 0
M  V30 27388 H 2565.19 -5.32993 2.47371 0
M  V30 27389 H 2566.71 -5.86221 1.70814 0
M  V30 27390 H 2568.13 -4.51305 3.53548 0
M  V30 27391 H 2566.52 -4.21725 4.26929 0
M  V30 27392 H 2567.59 -2.84604 3.92592 0
M  V30 27393 N 2568.94 -1.18359 -1.04062 0
M  V30 27394 C 2570.16 -1.00448 -1.81452 0
M  V30 27395 C 2570.59 0.44239 -1.82824 0
M  V30 27396 O 2569.95 1.31739 -1.24557 0
M  V30 27397 C 2569.99 -1.5639 -3.24923 0
M  V30 27398 O 2569.1 -0.78528 -4.04854 0
M  V30 27399 H 2568.44 -0.355845 -0.560598 0
M  V30 27400 H 2570.97 -1.57116 -1.31056 0
M  V30 27401 H 2570.98 -1.59103 -3.757 0
M  V30 27402 H 2569.65 -2.61705 -3.23239 0
M  V30 27403 H 2568.23 -0.830462 -3.63535 0
M  V30 27404 N 2570.42 1.22976 -0.98563 0
M  V30 27405 C 2571.36 2.26652 -0.522671 0
M  V30 27406 C 2572.36 1.64035 0.422969 0
M  V30 27407 O 2573.56 1.77545 0.296287 0
M  V30 27408 H 2569.94 0.736764 -0.15061 0
M  V30 27409 H 2571.91 2.63057 -1.40867 0
M  V30 27410 C 2570.66 3.47358 0.154177 0
M  V30 27411 H 2569.98 3.95796 -0.564399 0
M  V30 27412 H 2571.42 4.21693 0.441669 0
M  V30 27413 C 2569.88 3.07018 1.38713 0
M  V30 27414 O 2570.41 3.15768 2.48301 0
M  V30 27415 N 2568.62 2.61877 1.25971 0
M  V30 27416 H 2568.16 2.54958 0.368023 0
M  V30 27417 H 2568.12 2.35254 2.08574 0
M  V30 27418 N 2571.89 0.757924 1.38178 0
M  V30 27419 C 2573.17 0.24134 1.94105 0
M  V30 27420 C 2573.55 -1.26119 1.69285 0
M  V30 27421 O 2572.9 -2.03775 1.03382 0
M  V30 27422 C 2573.11 0.59973 3.43808 0
M  V30 27423 C 2574.46 0.561791 4.20867 0
M  V30 27424 O 2575.48 0.538284 3.52109 0
M  V30 27425 O 2574.34 0.576574 5.4345 0
M  V30 27426 H 2571.43 0.0518187 0.825375 0
M  V30 27427 H 2573.98 0.838341 1.47546 0
M  V30 27428 H 2572.75 1.63726 3.55401 0
M  V30 27429 H 2572.37 -0.0250498 3.97592 0
M  V30 27430 N 2573.37 -1.4921 0.507345 0
M  V30 27431 C 2574.31 -2.26023 -0.314469 0
M  V30 27432 C 2575.28 -1.30881 -0.964826 0
M  V30 27433 O 2576.47 -1.60182 -0.993679 0
M  V30 27434 C 2573.59 -3.06404 -1.4434 0
M  V30 27435 C 2572.64 -4.16749 -0.906776 0
M  V30 27436 S 2573.47 -5.35098 0.207487 0
M  V30 27437 C 2574.63 -6.19035 -0.924464 0
M  V30 27438 H 2574.86 -2.95378 0.337468 0
M  V30 27439 H 2572.4 -1.51599 0.292744 0
M  V30 27440 H 2574.35 -3.53298 -2.09023 0
M  V30 27441 H 2573.01 -2.36506 -2.06698 0
M  V30 27442 H 2572.21 -4.72531 -1.75301 0
M  V30 27443 H 2571.81 -3.72478 -0.337055 0
M  V30 27444 H 2574.1 -6.52365 -1.82828 0
M  V30 27445 H 2575.04 -7.0694 -0.405123 0
M  V30 27446 H 2575.45 -5.51714 -1.19466 0
M  V30 27447 N 2574.85 -0.241454 -1.55739 0
M  V30 27448 C 2575.78 0.700896 -2.1717 0
M  V30 27449 C 2576.76 1.17678 -1.12208 0
M  V30 27450 O 2577.95 1.25591 -1.40567 0
M  V30 27451 C 2575.07 1.95191 -2.768 0
M  V30 27452 C 2574.12 1.61435 -3.94767 0
M  V30 27453 S 2574.95 0.721727 -5.30614 0
M  V30 27454 C 2576.11 1.98186 -5.93694 0
M  V30 27455 H 2576.34 0.17883 -2.96762 0
M  V30 27456 H 2573.87 -0.025957 -1.54378 0
M  V30 27457 H 2575.83 2.67013 -3.11792 0
M  V30 27458 H 2574.49 2.4451 -1.97164 0
M  V30 27459 H 2573.69 2.54435 -4.35062 0
M  V30 27460 H 2573.29 0.976608 -3.61024 0
M  V30 27461 H 2575.58 2.92972 -6.10879 0
M  V30 27462 H 2576.52 1.6225 -6.89261 0
M  V30 27463 H 2576.93 2.13147 -5.22713 0
M  V30 27464 N 2576.33 1.57568 0.0317248 0
M  V30 27465 C 2577.58 1.88777 0.721642 0
M  V30 27466 C 2577.9 0.838803 1.76037 0
M  V30 27467 O 2577.17 -0.1279 1.95482 0
M  V30 27468 H 2575.75 0.696683 0.269522 0
M  V30 27469 H 2578.41 1.949 -0.00169305 0
M  V30 27470 H 2577.51 2.87569 1.21288 0
M  V30 27471 N 2577.81 -0.303946 1.54641 0
M  V30 27472 C 2579.03 -1.06289 1.78094 0
M  V30 27473 C 2579.46 -1.80261 0.537374 0
M  V30 27474 O 2578.81 -1.73921 -0.511963 0
M  V30 27475 C 2578.86 -2.02142 2.98615 0
M  V30 27476 O 2577.97 -3.10392 2.71534 0
M  V30 27477 H 2577.31 -0.305487 0.589554 0
M  V30 27478 H 2579.84 -0.342265 2.01717 0
M  V30 27479 H 2579.85 -2.44661 3.26504 0
M  V30 27480 H 2578.52 -1.47707 3.88787 0
M  V30 27481 H 2577.1 -2.72409 2.54652 0
M  V30 27482 N 2579.28 -1.47047 -0.566994 0
M  V30 27483 C 2580.51 -1.5654 -1.34828 0
M  V30 27484 C 2580.92 -0.211043 -1.88019 0
M  V30 27485 O 2580.27 0.804358 -1.65154 0
M  V30 27486 C 2580.33 -2.5226 -2.56135 0
M  V30 27487 C 2579.99 -3.98169 -2.243 0
M  V30 27488 C 2580.99 -4.86935 -1.82183 0
M  V30 27489 C 2578.67 -4.43428 -2.3596 0
M  V30 27490 C 2580.67 -6.18976 -1.52142 0
M  V30 27491 C 2578.35 -5.755 -2.05532 0
M  V30 27492 C 2579.35 -6.63095 -1.6369 0
M  V30 27493 O 2579.04 -7.92714 -1.33643 0
M  V30 27494 H 2578.77 -0.531531 -0.417674 0
M  V30 27495 H 2581.33 -1.93296 -0.694692 0
M  V30 27496 H 2579.56 -2.10553 -3.24352 0
M  V30 27497 H 2581.25 -2.51987 -3.18209 0
M  V30 27498 H 2582.01 -4.5322 -1.72676 0
M  V30 27499 H 2577.89 -3.75461 -2.67489 0
M  V30 27500 H 2581.43 -6.87304 -1.19409 0
M  V30 27501 H 2577.33 -6.08759 -2.14669 0
M  V30 27502 H 2578.1 -8.05126 -1.47356 0
M  V30 27503 N 2580.76 0.812929 -1.35016 0
M  V30 27504 C 2581.73 1.906 -1.27296 0
M  V30 27505 C 2582.73 1.59722 -0.185845 0
M  V30 27506 O 2583.92 1.68574 -0.439132 0
M  V30 27507 C 2581.05 3.26876 -0.967733 0
M  V30 27508 H 2582.24 1.98866 -2.24482 0
M  V30 27509 H 2579.79 1.00806 -1.19448 0
M  V30 27510 H 2580.53 3.243 0.000538396 0
M  V30 27511 H 2580.31 3.50672 -1.75418 0
M  V30 27512 H 2581.8 4.06902 -0.939156 0
M  V30 27513 N 2582.24 1.18909 1.03433 0
M  V30 27514 C 2583.15 0.937053 2.15073 0
M  V30 27515 C 2584.17 -0.101054 1.73706 0
M  V30 27516 O 2585.34 0.0823301 2.01232 0
M  V30 27517 C 2582.41 0.473118 3.43457 0
M  V30 27518 C 2581.47 1.57996 3.99169 0
M  V30 27519 C 2580.7 1.13806 5.21425 0
M  V30 27520 O 2580.92 -0.000625679 5.704 0
M  V30 27521 O 2579.86 1.9384 5.69833 0
M  V30 27522 H 2583.68 1.87136 2.39194 0
M  V30 27523 H 2581.27 0.971447 1.13504 0
M  V30 27524 H 2583.15 0.222776 4.20811 0
M  V30 27525 H 2581.83 -0.432813 3.20793 0
M  V30 27526 H 2580.73 1.88439 3.23174 0
M  V30 27527 H 2582.07 2.46224 4.26186 0
M  V30 27528 N 2583.72 -1.22452 0.992137 0
M  V30 27529 C 2584.65 -2.22949 0.48674 0
M  V30 27530 C 2585.63 -1.56175 -0.452562 0
M  V30 27531 O 2586.81 -1.84665 -0.378284 0
M  V30 27532 C 2583.94 -3.37417 -0.294477 0
M  V30 27533 C 2582.99 -4.2239 0.590702 0
M  V30 27534 S 2583.82 -4.94892 2.04555 0
M  V30 27535 C 2584.98 -6.12801 1.2738 0
M  V30 27536 H 2585.21 -2.65473 1.33833 0
M  V30 27537 H 2582.74 -1.32116 0.799046 0
M  V30 27538 H 2584.7 -4.0379 -0.73917 0
M  V30 27539 H 2583.36 -2.93402 -1.12133 0
M  V30 27540 H 2582.55 -5.03999 -0.0103489 0
M  V30 27541 H 2582.16 -3.61145 0.972127 0
M  V30 27542 H 2584.45 -6.75336 0.541062 0
M  V30 27543 H 2585.39 -6.77316 2.06514 0
M  V30 27544 H 2585.8 -5.58981 0.787423 0
M  V30 27545 N 2585.2 -0.765242 -1.37774 0
M  V30 27546 C 2586.14 -0.145315 -2.30342 0
M  V30 27547 C 2587.11 0.696944 -1.50771 0
M  V30 27548 O 2588.3 0.650658 -1.79363 0
M  V30 27549 C 2585.44 0.73288 -3.37228 0
M  V30 27550 C 2584.55 -0.125275 -4.31818 0
M  V30 27551 C 2583.69 0.757014 -5.25778 0
M  V30 27552 C 2582.73 -0.10407 -6.12012 0
M  V30 27553 N 2581.86 0.73583 -6.98233 0
M  V30 27554 H 2586.7 -0.940245 -2.82778 0
M  V30 27555 H 2584.24 -0.47528 -1.3921 0
M  V30 27556 H 2586.2 1.25679 -3.9782 0
M  V30 27557 H 2584.83 1.49348 -2.86173 0
M  V30 27558 H 2583.88 -0.76693 -3.72589 0
M  V30 27559 H 2585.19 -0.789769 -4.92508 0
M  V30 27560 H 2584.35 1.34765 -5.91543 0
M  V30 27561 H 2583.08 1.45521 -4.65484 0
M  V30 27562 H 2582.09 -0.707293 -5.45232 0
M  V30 27563 H 2583.31 -0.7995 -6.74377 0
M  V30 27564 H 2581.26 1.41876 -6.40474 0
M  V30 27565 H 2581.18 0.128491 -7.55891 0
M  V30 27566 H 2582.45 1.31107 -7.68395 0
M  V30 27567 N 2586.67 1.48939 -0.515251 0
M  V30 27568 C 2587.92 2.02486 0.0241794 0
M  V30 27569 C 2588.25 1.39371 1.35669 0
M  V30 27570 O 2587.5 0.523607 1.88565 0
M  V30 27571 C 2587.8 3.56779 0.210532 0
M  V30 27572 C 2587.47 4.38605 -1.04576 0
M  V30 27573 C 2586.13 4.60684 -1.3901 0
M  V30 27574 C 2588.48 4.86106 -1.88017 0
M  V30 27575 C 2585.81 5.27509 -2.56809 0
M  V30 27576 C 2588.16 5.54228 -3.04982 0
M  V30 27577 C 2586.83 5.74549 -3.39779 0
M  V30 27578 H 2586.1 0.740947 0.00884786 0
M  V30 27579 H 2588.74 1.79085 -0.678294 0
M  V30 27580 H 2587.05 3.78938 0.995653 0
M  V30 27581 H 2588.75 3.95818 0.64259 0
M  V30 27582 H 2585.34 4.21671 -0.767571 0
M  V30 27583 H 2589.52 4.68864 -1.62727 0
M  V30 27584 H 2584.78 5.41442 -2.8399 0
M  V30 27585 H 2588.95 5.90007 -3.69953 0
M  V30 27586 H 2586.58 6.26104 -4.31159 0
M  V30 27587 N 2588.15 0.249709 1.55609 0
M  V30 27588 C 2589.43 -0.424727 1.90933 0
M  V30 27589 C 2589.81 -1.75656 1.17081 0
M  V30 27590 O 2589.16 -2.26662 0.289216 0
M  V30 27591 C 2589.37 -0.590049 3.43976 0
M  V30 27592 C 2590.72 -0.884641 4.15282 0
M  V30 27593 O 2591.74 -0.675809 3.4973 0
M  V30 27594 O 2590.6 -1.2825 5.31238 0
M  V30 27595 H 2587.69 -0.228454 0.794819 0
M  V30 27596 H 2590.24 0.293984 1.67134 0
M  V30 27597 H 2589.01 0.348248 3.89747 0
M  V30 27598 H 2588.63 -1.35919 3.73646 0
M  V30 27599 N 2589.63 -1.57583 -0.0233682 0
M  V30 27600 C 2590.58 -2.03398 -1.0302 0
M  V30 27601 C 2591.57 -0.924338 -1.317 0
M  V30 27602 O 2592.76 -1.18821 -1.31189 0
M  V30 27603 C 2589.89 -2.52163 -2.32957 0
M  V30 27604 C 2588.97 -3.69959 -2.07342 0
M  V30 27605 N 2589.36 -4.82482 -1.51805 0
M  V30 27606 C 2587.66 -3.77442 -2.37599 0
M  V30 27607 C 2588.36 -5.6407 -1.42126 0
M  V30 27608 N 2587.34 -5.09358 -1.89882 0
M  V30 27609 H 2591.14 -2.87816 -0.594911 0
M  V30 27610 H 2588.65 -1.60769 -0.229557 0
M  V30 27611 H 2590.65 -2.83249 -3.05901 0
M  V30 27612 H 2589.31 -1.69154 -2.77159 0
M  V30 27613 H 2590.32 -5.03806 -1.19999 0
M  V30 27614 H 2587 -3.05244 -2.84837 0
M  V30 27615 H 2588.39 -6.64473 -0.996288 0
M  V30 27616 N 2591.11 0.29574 -1.548 0
M  V30 27617 C 2592.34 1.04911 -1.78329 0
M  V30 27618 C 2592.75 1.80752 -0.545347 0
M  V30 27619 O 2592.11 1.75938 0.484982 0
M  V30 27620 C 2592.16 2.02556 -2.99422 0
M  V30 27621 O 2591.88 1.2979 -4.18433 0
M  V30 27622 C 2593.38 2.89889 -3.3538 0
M  V30 27623 H 2590.6 0.310908 -0.594624 0
M  V30 27624 H 2593.15 0.333418 -2.01764 0
M  V30 27625 H 2591.3 2.69619 -2.7818 0
M  V30 27626 H 2591.72 1.9541 -4.86739 0
M  V30 27627 H 2593.19 3.54243 -4.23339 0
M  V30 27628 H 2593.67 3.58467 -2.53768 0
M  V30 27629 H 2594.27 2.28348 -3.588 0
M  V30 27630 N 2592.59 1.47346 0.559187 0
M  V30 27631 C 2593.54 1.60088 1.68744 0
M  V30 27632 C 2594.53 0.468278 1.62799 0
M  V30 27633 O 2595.74 0.646006 1.68008 0
M  V30 27634 H 2592.11 0.503769 0.55832 0
M  V30 27635 H 2594.08 2.54904 1.55133 0
M  V30 27636 C 2592.83 1.63048 3.07101 0
M  V30 27637 H 2592.15 2.49547 3.12356 0
M  V30 27638 H 2593.59 1.76013 3.8574 0
M  V30 27639 C 2592.05 0.363416 3.34934 0
M  V30 27640 O 2592.58 -0.536346 3.98103 0
M  V30 27641 N 2590.79 0.244051 2.89573 0
M  V30 27642 H 2590.34 0.977175 2.38346 0
M  V30 27643 H 2590.29 -0.602782 3.08567 0
M  V30 27644 N 2594.07 -0.805758 1.35445 0
M  V30 27645 C 2595.29 -1.59938 1.3204 0
M  V30 27646 C 2595.72 -1.87837 -0.0993885 0
M  V30 27647 O 2595.07 -1.46617 -1.06645 0
M  V30 27648 C 2595.12 -2.90707 2.13359 0
M  V30 27649 O 2594.23 -3.83569 1.51487 0
M  V30 27650 H 2593.57 -0.485779 0.452675 0
M  V30 27651 H 2596.1 -0.999987 1.78498 0
M  V30 27652 H 2596.11 -3.40124 2.25344 0
M  V30 27653 H 2594.78 -2.69726 3.16577 0
M  V30 27654 H 2593.36 -3.42122 1.48346 0
M  V30 27655 N 2595.54 -1.19456 -1.02801 0
M  V30 27656 C 2596.47 -0.956795 -2.12997 0
M  V30 27657 C 2597.45 0.110159 -1.69743 0
M  V30 27658 O 2598.64 -0.0450379 -1.94148 0
M  V30 27659 C 2595.77 -0.495614 -3.43745 0
M  V30 27660 C 2594.72 -1.5045 -4.00685 0
M  V30 27661 C 2594.05 -0.900368 -5.27065 0
M  V30 27662 C 2595.35 -2.88498 -4.35392 0
M  V30 27663 H 2597.04 -1.8784 -2.33145 0
M  V30 27664 H 2594.59 -0.904559 -1.12043 0
M  V30 27665 H 2596.54 -0.316567 -4.20209 0
M  V30 27666 H 2595.27 0.461589 -3.23322 0
M  V30 27667 H 2593.93 -1.67071 -3.26317 0
M  V30 27668 H 2593.57 0.0644145 -5.02959 0
M  V30 27669 H 2593.27 -1.57407 -5.66124 0
M  V30 27670 H 2594.8 -0.732136 -6.06195 0
M  V30 27671 H 2596.21 -2.75455 -5.0279 0
M  V30 27672 H 2594.61 -3.52669 -4.85535 0
M  V30 27673 H 2595.68 -3.41087 -3.44656 0
M  V30 27674 N 2597.02 1.21924 -0.998617 0
M  V30 27675 C 2597.97 2.26084 -0.546681 0
M  V30 27676 C 2598.96 1.64474 0.405547 0
M  V30 27677 O 2600.17 1.77849 0.27744 0
M  V30 27678 H 2596.54 0.735125 -0.158416 0
M  V30 27679 H 2598.52 2.61548 -1.43649 0
M  V30 27680 C 2597.26 3.47502 0.117327 0
M  V30 27681 H 2596.59 3.95175 -0.606346 0
M  V30 27682 H 2598.03 4.22138 0.396918 0
M  V30 27683 C 2596.49 3.08472 1.35449 0
M  V30 27684 O 2597.02 3.18384 2.44938 0
M  V30 27685 N 2595.22 2.63199 1.23186 0
M  V30 27686 H 2594.77 2.55334 0.340961 0
M  V30 27687 H 2594.73 2.37453 2.06067 0
M  V30 27688 N 2598.5 0.772537 1.37367 0
M  V30 27689 C 2599.75 0.333896 1.98917 0
M  V30 27690 C 2600.06 -1.09586 1.62019 0
M  V30 27691 O 2601.27 -1.63593 2.16679 0
M  V30 27692 C 2599.72 0.546033 3.55734 0
M  V30 27693 C 2599.33 1.9861 4.01569 0
M  V30 27694 C 2601.08 0.171054 4.24155 0
M  V30 27695 C 2598.98 2.14579 5.51099 0
M  V30 27696 H 2597.91 0.121098 0.744212 0
M  V30 27697 H 2600.56 0.951778 1.56887 0
M  V30 27698 H 2598.95 -0.141317 3.95748 0
M  V30 27699 H 2600.12 2.70847 3.72798 0
M  V30 27700 H 2598.43 2.31775 3.45933 0
M  V30 27701 H 2601.03 0.268874 5.34024 0
M  V30 27702 H 2601.37 -0.878783 4.06919 0
M  V30 27703 H 2601.91 0.810983 3.89446 0
M  V30 27704 H 2598.65 3.17885 5.73262 0
M  V30 27705 H 2598.17 1.46827 5.81551 0
M  V30 27706 H 2599.85 1.94479 6.17079 0
M  V30 27707 N 2599.98 -1.48664 0.523142 0
M  V30 27708 C 2600.94 -2.28017 -0.232552 0
M  V30 27709 C 2601.94 -1.34974 -0.873997 0
M  V30 27710 O 2603.13 -1.5793 -0.735104 0
M  V30 27711 C 2600.26 -3.13638 -1.3358 0
M  V30 27712 H 2601.46 -2.96288 0.46406 0
M  V30 27713 H 2599.01 -1.53793 0.278843 0
M  V30 27714 H 2599.74 -2.49983 -2.06588 0
M  V30 27715 H 2599.53 -3.82073 -0.881057 0
M  V30 27716 H 2601.02 -3.73515 -1.86753 0
M  V30 27717 N 2601.46 -0.257958 -1.55475 0
M  V30 27718 C 2602.7 0.362974 -1.98814 0
M  V30 27719 C 2603.02 1.57655 -1.1476 0
M  V30 27720 O 2602.29 1.9451 -0.23299 0
M  V30 27721 H 2600.87 0.1371 -0.734311 0
M  V30 27722 H 2603.54 -0.359314 -1.91559 0
M  V30 27723 H 2602.63 0.66458 -3.04942 0
M  V30 27724 N 2602.93 1.57593 0.0150108 0
M  V30 27725 C 2603.86 2.10505 1.01044 0
M  V30 27726 C 2604.85 1.01074 1.36814 0
M  V30 27727 O 2606.03 1.28675 1.45452 0
M  V30 27728 C 2603.16 2.59602 2.30703 0
M  V30 27729 C 2602.11 3.73425 2.09136 0
M  V30 27730 C 2601.44 4.0878 3.44678 0
M  V30 27731 C 2602.74 5.01301 1.4661 0
M  V30 27732 H 2604.43 2.93926 0.569926 0
M  V30 27733 H 2601.98 1.41394 0.272699 0
M  V30 27734 H 2603.93 2.95243 3.00682 0
M  V30 27735 H 2602.66 1.73284 2.7684 0
M  V30 27736 H 2601.32 3.38155 1.41586 0
M  V30 27737 H 2600.96 3.19507 3.8849 0
M  V30 27738 H 2600.66 4.85456 3.31068 0
M  V30 27739 H 2602.19 4.46967 4.15996 0
M  V30 27740 H 2603.6 5.34809 2.06525 0
M  V30 27741 H 2602 5.82682 1.43534 0
M  V30 27742 H 2603.07 4.82958 0.433526 0
M  V30 27743 N 2604.41 -0.287527 1.54955 0
M  V30 27744 C 2605.64 -1.04394 1.79211 0
M  V30 27745 C 2606.06 -1.79681 0.556463 0
M  V30 27746 O 2605.42 -1.74455 -0.493487 0
M  V30 27747 C 2605.47 -1.98963 3.00742 0
M  V30 27748 O 2604.57 -3.07495 2.7481 0
M  V30 27749 H 2603.91 -0.299217 0.592761 0
M  V30 27750 H 2606.44 -0.320851 2.02069 0
M  V30 27751 H 2606.45 -2.41184 3.29081 0
M  V30 27752 H 2605.13 -1.43575 3.90332 0
M  V30 27753 H 2603.71 -2.69693 2.57527 0
M  V30 27754 N 2605.89 -1.47641 -0.551365 0
M  V30 27755 C 2606.82 -1.63448 -1.66755 0
M  V30 27756 C 2607.8 -0.48377 -1.63076 0
M  V30 27757 O 2608.99 -0.713802 -1.80606 0
M  V30 27758 C 2606.12 -1.65401 -3.05384 0
M  V30 27759 C 2605.07 -2.79758 -3.23913 0
M  V30 27760 C 2604.4 -2.66787 -4.63388 0
M  V30 27761 C 2605.7 -4.21289 -3.08727 0
M  V30 27762 H 2607.39 -2.56888 -1.53781 0
M  V30 27763 H 2604.94 -1.23627 -0.738394 0
M  V30 27764 H 2606.89 -1.7505 -3.83322 0
M  V30 27765 H 2605.61 -0.685251 -3.1933 0
M  V30 27766 H 2604.27 -2.69629 -2.48386 0
M  V30 27767 H 2603.92 -1.67926 -4.74141 0
M  V30 27768 H 2603.62 -3.4351 -4.76734 0
M  V30 27769 H 2605.14 -2.78373 -5.43453 0
M  V30 27770 H 2606.56 -4.32364 -3.76476 0
M  V30 27771 H 2604.96 -4.98844 -3.33579 0
M  V30 27772 H 2606.03 -4.39247 -2.05402 0
M  V30 27773 N 2607.37 0.798563 -1.3587 0
M  V30 27774 C 2608.65 1.5435 -1.20148 0
M  V30 27775 C 2609.03 2.09991 0.216124 0
M  V30 27776 O 2608.37 1.93165 1.22064 0
M  V30 27777 C 2608.58 2.64568 -2.27607 0
M  V30 27778 C 2609.93 3.32694 -2.63817 0
M  V30 27779 O 2610.96 2.74845 -2.26581 0
M  V30 27780 O 2609.81 4.3722 -3.27874 0
M  V30 27781 H 2606.91 0.682347 -0.46726 0
M  V30 27782 H 2609.45 0.837833 -1.47575 0
M  V30 27783 H 2608.23 2.21382 -3.22654 0
M  V30 27784 H 2607.85 3.42762 -2.01494 0
M  V30 27785 N 2608.85 1.19999 1.02166 0
M  V30 27786 C 2610.09 1.00706 1.75683 0
M  V30 27787 C 2610.42 -0.461393 1.88948 0
M  V30 27788 O 2609.68 -1.35882 1.40835 0
M  V30 27789 C 2609.98 1.62975 3.18079 0
M  V30 27790 C 2609.64 3.12751 3.24804 0
M  V30 27791 C 2608.3 3.53627 3.26346 0
M  V30 27792 C 2610.66 4.08754 3.23372 0
M  V30 27793 C 2607.98 4.89042 3.24122 0
M  V30 27794 C 2610.34 5.44109 3.22688 0
M  V30 27795 C 2609 5.84405 3.22532 0
M  V30 27796 H 2608.27 0.368508 0.642871 0
M  V30 27797 H 2610.92 1.4935 1.19862 0
M  V30 27798 H 2609.22 1.06579 3.77025 0
M  V30 27799 H 2610.92 1.45567 3.73646 0
M  V30 27800 H 2607.51 2.80187 3.24335 0
M  V30 27801 H 2611.69 3.78213 3.21354 0
M  V30 27802 H 2606.95 5.19533 3.22329 0
M  V30 27803 H 2611.12 6.18249 3.20532 0
M  V30 27804 H 2608.75 6.89307 3.20563 0
M  V30 27805 N 2610.32 -1.21392 1.00507 0
M  V30 27806 C 2611.55 -1.94999 0.706401 0
M  V30 27807 C 2611.97 -1.73583 -0.7246 0
M  V30 27808 O 2611.33 -1.02272 -1.497 0
M  V30 27809 C 2611.38 -3.45486 1.03306 0
M  V30 27810 O 2610.48 -4.12168 0.138347 0
M  V30 27811 H 2609.83 -0.609614 0.263186 0
M  V30 27812 H 2612.36 -1.54149 1.34533 0
M  V30 27813 H 2612.37 -3.96057 0.979942 0
M  V30 27814 H 2611.04 -3.60397 2.07573 0
M  V30 27815 H 2609.62 -3.72074 0.247994 0
M  V30 27816 N 2611.8 -0.779811 -1.36955 0
M  V30 27817 C 2613.03 -0.35826 -2.04282 0
M  V30 27818 C 2613.45 1.01408 -1.58423 0
M  V30 27819 O 2612.81 1.65141 -0.748208 0
M  V30 27820 C 2612.86 -0.419542 -3.58151 0
M  V30 27821 O 2611.96 0.57707 -4.08343 0
M  V30 27822 H 2611.3 -0.15371 -0.645964 0
M  V30 27823 H 2613.83 -1.05825 -1.75106 0
M  V30 27824 H 2613.84 -0.279707 -4.0704 0
M  V30 27825 H 2612.52 -1.42068 -3.90883 0
M  V30 27826 H 2611.1 0.39969 -3.70752 0
M  V30 27827 N 2613.28 1.48384 -0.531019 0
M  V30 27828 C 2614.23 2.29639 0.231183 0
M  V30 27829 C 2615.2 1.37431 0.932839 0
M  V30 27830 O 2616.38 1.66395 0.933663 0
M  V30 27831 C 2613.52 3.20822 1.2715 0
M  V30 27832 C 2612.64 4.28108 0.57858 0
M  V30 27833 C 2611.77 5.0647 1.60192 0
M  V30 27834 C 2610.81 6.05558 0.892518 0
M  V30 27835 N 2609.95 6.76975 1.86145 0
M  V30 27836 H 2614.79 2.94304 -0.4679 0
M  V30 27837 H 2612.32 1.45086 -0.242581 0
M  V30 27838 H 2614.28 3.72088 1.88696 0
M  V30 27839 H 2612.91 2.58079 1.93895 0
M  V30 27840 H 2611.96 3.80101 -0.150849 0
M  V30 27841 H 2613.28 4.98795 0.0216188 0
M  V30 27842 H 2612.43 5.61755 2.29164 0
M  V30 27843 H 2611.17 4.35625 2.19277 0
M  V30 27844 H 2610.17 5.49476 0.188732 0
M  V30 27845 H 2611.4 6.78402 0.307759 0
M  V30 27846 H 2609.34 6.08879 2.44136 0
M  V30 27847 H 2609.26 7.43741 1.35595 0
M  V30 27848 H 2610.53 7.36848 2.54312 0
M  V30 27849 N 2614.76 0.2662 1.55336 0
M  V30 27850 C 2615.69 -0.618941 2.25147 0
M  V30 27851 C 2616.67 -1.16602 1.23847 0
M  V30 27852 O 2617.85 -1.20181 1.52546 0
M  V30 27853 C 2614.98 -1.80723 2.96575 0
M  V30 27854 C 2613.94 -1.39208 4.04729 0
M  V30 27855 C 2613.26 -2.66275 4.63683 0
M  V30 27856 C 2614.56 -0.548851 5.19408 0
M  V30 27857 H 2616.26 -0.036759 2.99377 0
M  V30 27858 H 2613.8 -0.0162398 1.43991 0
M  V30 27859 H 2615.76 -2.43226 3.44121 0
M  V30 27860 H 2614.48 -2.4151 2.19865 0
M  V30 27861 H 2613.14 -0.790288 3.5798 0
M  V30 27862 H 2612.79 -3.25301 3.83651 0
M  V30 27863 H 2612.49 -2.39213 5.36704 0
M  V30 27864 H 2614.01 -3.29642 5.13973 0
M  V30 27865 H 2615.43 -1.07866 5.63061 0
M  V30 27866 H 2613.82 -0.373488 5.98937 0
M  V30 27867 H 2614.89 0.434479 4.8295 0
M  V30 27868 N 2616.24 -1.57599 -0.0066531 0
M  V30 27869 C 2617.51 -1.81485 -0.729554 0
M  V30 27870 C 2617.89 -0.869591 -1.92357 0
M  V30 27871 O 2617.24 0.0832132 -2.28348 0
M  V30 27872 C 2617.45 -3.29803 -1.14154 0
M  V30 27873 C 2618.8 -3.95369 -1.54816 0
M  V30 27874 O 2619.82 -3.34086 -1.23552 0
M  V30 27875 O 2618.68 -5.03313 -2.12929 0
M  V30 27876 H 2615.78 -0.747091 -0.354661 0
M  V30 27877 H 2618.32 -1.6969 0.0182907 0
M  V30 27878 H 2617.09 -3.90223 -0.290162 0
M  V30 27879 H 2616.72 -3.46571 -1.9487 0
M  V30 27880 N 2617.72 0.279305 -1.55105 0
M  V30 27881 C 2618.66 1.36502 -1.88335 0
M  V30 27882 C 2619.66 1.51441 -0.75907 0
M  V30 27883 O 2620.86 1.53301 -0.943339 0
M  V30 27884 H 2617.24 0.456395 -0.597668 0
M  V30 27885 H 2619.21 1.05723 -2.79043 0
M  V30 27886 C 2617.96 2.71966 -2.16633 0
M  V30 27887 H 2617.28 2.61259 -3.02628 0
M  V30 27888 H 2618.72 3.4689 -2.43809 0
M  V30 27889 C 2617.18 3.22578 -0.971864 0
M  V30 27890 O 2617.71 4.01185 -0.203298 0
M  V30 27891 N 2615.92 2.80178 -0.771287 0
M  V30 27892 H 2615.46 2.16368 -1.39796 0
M  V30 27893 H 2615.42 3.14389 0.0263114 0
M  V30 27894 N 2619.19 1.47931 0.543528 0
M  V30 27895 C 2620.44 1.54514 1.29647 0
M  V30 27896 C 2620.76 0.218007 1.94381 0
M  V30 27897 O 2621.96 0.161955 2.71017 0
M  V30 27898 C 2620.42 2.72439 2.3517 0
M  V30 27899 C 2620.03 4.11739 1.76565 0
M  V30 27900 C 2621.77 2.88325 3.11559 0
M  V30 27901 C 2619.68 5.20944 2.79949 0
M  V30 27902 H 2618.61 0.575178 0.487531 0
M  V30 27903 H 2621.26 1.74236 0.575677 0
M  V30 27904 H 2619.64 2.46124 3.10224 0
M  V30 27905 H 2620.81 4.48015 1.07791 0
M  V30 27906 H 2619.13 4.00854 1.12715 0
M  V30 27907 H 2621.73 3.6708 3.88788 0
M  V30 27908 H 2622.07 1.97275 3.6659 0
M  V30 27909 H 2622.6 3.14476 2.43618 0
M  V30 27910 H 2619.34 6.13916 2.29755 0
M  V30 27911 H 2618.86 4.8917 3.47092 0
M  V30 27912 H 2620.54 5.4848 3.43189 0
M  V30 27913 N 2620.67 -0.791347 1.36292 0
M  V30 27914 C 2621.9 -1.57784 1.33371 0
M  V30 27915 C 2622.31 -1.88998 -0.0874856 0
M  V30 27916 O 2621.65 -1.50437 -1.05425 0
M  V30 27917 C 2621.71 -2.92643 2.08807 0
M  V30 27918 C 2621.38 -2.84167 3.57908 0
M  V30 27919 C 2622.38 -2.56545 4.52195 0
M  V30 27920 C 2620.06 -3.02805 4.00767 0
M  V30 27921 C 2622.05 -2.47659 5.87319 0
M  V30 27922 C 2619.74 -2.93541 5.35982 0
M  V30 27923 C 2620.74 -2.66006 6.29071 0
M  V30 27924 O 2620.43 -2.56732 7.61803 0
M  V30 27925 H 2620.16 -0.496119 0.459175 0
M  V30 27926 H 2622.71 -0.990238 1.79954 0
M  V30 27927 H 2620.94 -3.53446 1.56884 0
M  V30 27928 H 2622.63 -3.53901 1.98769 0
M  V30 27929 H 2623.4 -2.4185 4.20397 0
M  V30 27930 H 2619.28 -3.23244 3.28685 0
M  V30 27931 H 2622.82 -2.26087 6.59947 0
M  V30 27932 H 2618.72 -3.07798 5.67389 0
M  V30 27933 H 2619.49 -2.72228 7.71903 0
M  V30 27934 N 2622.15 -1.2054 -1.01528 0
M  V30 27935 C 2623.37 -1.04274 -1.79281 0
M  V30 27936 C 2623.8 0.403511 -1.83721 0
M  V30 27937 O 2623.16 1.29067 -1.27324 0
M  V30 27938 C 2623.21 -1.63247 -3.21532 0
M  V30 27939 O 2622.31 -0.870979 -4.03098 0
M  V30 27940 H 2621.65 -0.367656 -0.552924 0
M  V30 27941 H 2624.18 -1.59861 -1.27694 0
M  V30 27942 H 2624.19 -1.67037 -3.7224 0
M  V30 27943 H 2622.87 -2.68502 -3.17615 0
M  V30 27944 H 2621.44 -0.907387 -3.61692 0
M  V30 27945 N 2623.63 1.20858 -1.01149 0
M  V30 27946 C 2624.85 1.94622 -0.716732 0
M  V30 27947 C 2625.28 1.73965 0.715384 0
M  V30 27948 O 2624.64 1.03065 1.49155 0
M  V30 27949 C 2624.68 3.44933 -1.05136 0
M  V30 27950 O 2623.79 4.12089 -0.160204 0
M  V30 27951 H 2623.13 0.60821 -0.266415 0
M  V30 27952 H 2625.66 1.53433 -1.35349 0
M  V30 27953 H 2625.67 3.95532 -1.00093 0
M  V30 27954 H 2624.34 3.59291 -2.09482 0
M  V30 27955 H 2622.92 3.71938 -0.267722 0
M  V30 27956 N 2625.11 0.787064 1.3654 0
M  V30 27957 C 2626.38 0.282458 1.9355 0
M  V30 27958 C 2626.76 -1.225 1.71922 0
M  V30 27959 O 2626.11 -2.01537 1.07681 0
M  V30 27960 C 2626.32 0.672522 3.42459 0
M  V30 27961 C 2627.67 0.650936 4.19581 0
M  V30 27962 O 2628.69 0.612851 3.50888 0
M  V30 27963 O 2627.55 0.691718 5.42105 0
M  V30 27964 H 2624.65 0.0693144 0.82409 0
M  V30 27965 H 2627.19 0.869449 1.45735 0
M  V30 27966 H 2625.96 1.71228 3.51848 0
M  V30 27967 H 2625.59 0.059291 3.97556 0
M  V30 27968 N 2626.58 -1.48101 0.53888 0
M  V30 27969 C 2627.53 -2.29759 -0.219001 0
M  V30 27970 C 2628.5 -1.37924 -0.925538 0
M  V30 27971 O 2629.69 -1.66888 -0.924826 0
M  V30 27972 C 2626.83 -3.21492 -1.25447 0
M  V30 27973 C 2625.94 -4.28409 -0.555868 0
M  V30 27974 C 2625.07 -5.07313 -1.57503 0
M  V30 27975 C 2624.11 -6.06023 -0.860391 0
M  V30 27976 N 2623.25 -6.77952 -1.82552 0
M  V30 27977 H 2628.09 -2.94051 0.483501 0
M  V30 27978 H 2625.63 -1.44955 0.250272 0
M  V30 27979 H 2627.58 -3.73083 -1.86721 0
M  V30 27980 H 2626.21 -2.59103 -1.92524 0
M  V30 27981 H 2625.27 -3.80015 0.171005 0
M  V30 27982 H 2626.58 -4.988 0.00483384 0
M  V30 27983 H 2625.73 -5.62963 -2.26181 0
M  V30 27984 H 2624.47 -4.36781 -2.16964 0
M  V30 27985 H 2623.48 -5.49568 -0.15959 0
M  V30 27986 H 2624.7 -6.78556 -0.271777 0
M  V30 27987 H 2622.65 -6.10165 -2.40904 0
M  V30 27988 H 2622.56 -7.44449 -1.31649 0
M  V30 27989 H 2623.83 -7.38187 -2.50401 0
M  V30 27990 N 2628.06 -0.274434 -1.55192 0
M  V30 27991 C 2629.31 0.342544 -1.99582 0
M  V30 27992 C 2629.64 1.55912 -1.16283 0
M  V30 27993 O 2628.89 1.94456 -0.220324 0
M  V30 27994 C 2629.19 0.769397 -3.4902 0
M  V30 27995 C 2628.86 -0.342468 -4.49598 0
M  V30 27996 C 2627.52 -0.64777 -4.7682 0
M  V30 27997 C 2629.87 -1.09172 -5.09638 0
M  V30 27998 C 2627.2 -1.70591 -5.61351 0
M  V30 27999 C 2629.55 -2.13958 -5.95319 0
M  V30 28000 C 2628.21 -2.45124 -6.20863 0
M  V30 28001 H 2627.48 0.125346 -0.730321 0
M  V30 28002 H 2630.13 -0.388004 -1.87528 0
M  V30 28003 H 2628.44 1.57961 -3.58547 0
M  V30 28004 H 2630.13 1.25751 -3.80773 0
M  V30 28005 H 2626.72 -0.0943933 -4.28496 0
M  V30 28006 H 2630.91 -0.86911 -4.88631 0
M  V30 28007 H 2626.16 -1.9524 -5.79389 0
M  V30 28008 H 2630.34 -2.7249 -6.40876 0
M  V30 28009 H 2627.96 -3.27252 -6.86156 0
M  V30 28010 N 2629.54 1.576 -0.00170483 0
M  V30 28011 C 2630.77 1.94641 0.692719 0
M  V30 28012 C 2631.18 0.875159 1.67743 0
M  V30 28013 O 2630.52 -0.15435 1.8305 0
M  V30 28014 C 2630.58 3.27679 1.47875 0
M  V30 28015 C 2630.25 4.52275 0.655438 0
M  V30 28016 C 2631.24 5.19868 -0.0576128 0
M  V30 28017 C 2628.93 4.98693 0.600907 0
M  V30 28018 C 2630.92 6.32179 -0.814163 0
M  V30 28019 C 2628.61 6.10892 -0.159367 0
M  V30 28020 C 2629.61 6.77492 -0.865634 0
M  V30 28021 O 2629.3 7.87541 -1.6135 0
M  V30 28022 H 2629.03 0.64642 0.19778 0
M  V30 28023 H 2631.58 2.0534 -0.0494591 0
M  V30 28024 H 2629.81 3.13392 2.26545 0
M  V30 28025 H 2631.5 3.49819 2.05867 0
M  V30 28026 H 2632.27 4.84994 -0.0246464 0
M  V30 28027 H 2628.15 4.46678 1.14017 0
M  V30 28028 H 2631.69 6.84096 -1.36596 0
M  V30 28029 H 2627.59 6.45208 -0.194148 0
M  V30 28030 H 2628.35 8.04066 -1.53039 0
M  V30 28031 N 2631.02 -0.271076 1.55251 0
M  V30 28032 C 2631.96 -1.33513 1.88263 0
M  V30 28033 C 2632.93 -1.48986 0.734322 0
M  V30 28034 O 2634.12 -1.63362 0.985769 0
M  V30 28035 C 2631.26 -2.69004 2.16173 0
M  V30 28036 C 2630.37 -2.61737 3.43683 0
M  V30 28037 C 2629.51 -3.8942 3.61283 0
M  V30 28038 C 2628.55 -3.76671 4.82478 0
M  V30 28039 N 2627.68 -4.96193 4.96726 0
M  V30 28040 H 2632.52 -1.0466 2.79017 0
M  V30 28041 H 2630.06 -0.505594 1.38138 0
M  V30 28042 H 2632.02 -3.4784 2.30355 0
M  V30 28043 H 2630.65 -2.96055 1.28652 0
M  V30 28044 H 2629.7 -1.74601 3.37962 0
M  V30 28045 H 2631.01 -2.48217 4.32654 0
M  V30 28046 H 2630.17 -4.76697 3.75293 0
M  V30 28047 H 2628.91 -4.05809 2.705 0
M  V30 28048 H 2627.91 -2.87777 4.6847 0
M  V30 28049 H 2629.14 -3.61799 5.74698 0
M  V30 28050 H 2627.08 -5.12989 4.08874 0
M  V30 28051 H 2627 -4.85212 5.79746 0
M  V30 28052 H 2628.27 -5.85037 5.15123 0
M  V30 28053 N 2632.5 -1.48217 -0.535675 0
M  V30 28054 C 2633.43 -1.58397 -1.65659 0
M  V30 28055 C 2634.44 -0.468635 -1.55909 0
M  V30 28056 O 2635.63 -0.739228 -1.62474 0
M  V30 28057 C 2632.73 -1.49235 -3.04273 0
M  V30 28058 C 2631.9 -2.75711 -3.39562 0
M  V30 28059 C 2630.96 -2.60083 -4.57431 0
M  V30 28060 O 2629.99 -3.33956 -4.60936 0
M  V30 28061 N 2631.19 -1.69325 -5.55256 0
M  V30 28062 H 2633.96 -2.55061 -1.57366 0
M  V30 28063 H 2631.52 -1.44869 -0.722819 0
M  V30 28064 H 2633.51 -1.36484 -3.80991 0
M  V30 28065 H 2632.08 -0.605686 -3.06676 0
M  V30 28066 H 2631.3 -3.03068 -2.52078 0
M  V30 28067 H 2632.59 -3.59629 -3.59922 0
M  V30 28068 H 2631.98 -1.08498 -5.55198 0
M  V30 28069 H 2630.54 -1.62515 -6.31215 0
M  V30 28070 N 2633.97 0.784108 -1.3671 0
M  V30 28071 C 2635.2 1.57303 -1.344 0
M  V30 28072 C 2635.62 1.88657 0.0735246 0
M  V30 28073 O 2634.97 1.50525 1.03191 0
M  V30 28074 C 2635.03 2.89082 -2.17058 0
M  V30 28075 O 2634.75 2.59077 -3.53286 0
M  V30 28076 C 2636.25 3.83365 -2.22589 0
M  V30 28077 H 2633.47 0.487728 -0.460828 0
M  V30 28078 H 2636.01 0.972788 -1.79881 0
M  V30 28079 H 2634.17 3.45561 -1.75119 0
M  V30 28080 H 2634.58 3.43376 -3.96476 0
M  V30 28081 H 2636.05 4.72873 -2.84772 0
M  V30 28082 H 2636.53 4.21601 -1.23083 0
M  V30 28083 H 2637.14 3.32818 -2.64787 0
M  V30 28084 N 2635.45 1.21076 1.00888 0
M  V30 28085 C 2636.7 1.02715 1.74864 0
M  V30 28086 C 2637.03 -0.438754 1.89179 0
M  V30 28087 O 2636.31 -1.32564 1.42327 0
M  V30 28088 C 2636.59 1.72041 3.16344 0
M  V30 28089 C 2636.44 3.26126 3.09777 0
M  V30 28090 C 2637.76 1.4598 4.15184 0
M  V30 28091 H 2634.88 0.37455 0.634729 0
M  V30 28092 H 2637.52 1.49198 1.17643 0
M  V30 28093 H 2635.67 1.32523 3.65198 0
M  V30 28094 H 2637.34 3.74988 2.68667 0
M  V30 28095 H 2635.59 3.5663 2.46976 0
M  V30 28096 H 2636.26 3.69797 4.09822 0
M  V30 28097 H 2638.73 1.80278 3.75019 0
M  V30 28098 H 2637.61 1.97008 5.12327 0
M  V30 28099 H 2637.87 0.389001 4.40385 0
M  V30 28100 N 2636.93 -1.2032 1.01789 0
M  V30 28101 C 2637.88 -2.25186 0.58258 0
M  V30 28102 C 2638.87 -1.65098 -0.37933 0
M  V30 28103 O 2640.08 -1.78268 -0.24911 0
M  V30 28104 H 2636.45 -0.732511 0.170091 0
M  V30 28105 H 2638.42 -2.5923 1.47792 0
M  V30 28106 C 2637.17 -3.47645 -0.0620274 0
M  V30 28107 H 2636.5 -3.94161 0.669138 0
M  V30 28108 H 2637.94 -4.22716 -0.32971 0
M  V30 28109 C 2636.4 -3.10588 -1.30525 0
M  V30 28110 O 2636.93 -3.2224 -2.39842 0
M  V30 28111 N 2635.13 -2.65125 -1.18983 0
M  V30 28112 H 2634.68 -2.55844 -0.300296 0
M  V30 28113 H 2634.64 -2.40701 -2.02263 0
M  V30 28114 N 2638.41 -0.794293 -1.3612 0
M  V30 28115 C 2639.34 -0.210369 -2.3255 0
M  V30 28116 C 2640.32 0.657359 -1.56885 0
M  V30 28117 O 2641.5 0.590174 -1.85015 0
M  V30 28118 C 2638.63 0.651759 -3.4113 0
M  V30 28119 C 2637.59 -0.11647 -4.27841 0
M  V30 28120 C 2636.91 0.866567 -5.27631 0
M  V30 28121 C 2638.21 -1.30846 -5.05645 0
M  V30 28122 H 2639.91 -1.01599 -2.81635 0
M  V30 28123 H 2637.45 -0.490005 -1.35407 0
M  V30 28124 H 2639.41 1.07023 -4.07583 0
M  V30 28125 H 2638.13 1.49013 -2.90624 0
M  V30 28126 H 2636.79 -0.515979 -3.62951 0
M  V30 28127 H 2636.44 1.70011 -4.73398 0
M  V30 28128 H 2636.14 0.356947 -5.86515 0
M  V30 28129 H 2637.66 1.28351 -5.96958 0
M  V30 28130 H 2639.08 -0.965492 -5.65112 0
M  V30 28131 H 2637.47 -1.75171 -5.73964 0
M  V30 28132 H 2638.54 -2.10136 -4.37002 0
M  V30 28133 N 2639.89 1.47813 -0.546727 0
M  V30 28134 C 2640.82 2.27896 0.244156 0
M  V30 28135 C 2641.83 1.36379 0.889086 0
M  V30 28136 O 2643.02 1.6129 0.764704 0
M  V30 28137 C 2640.12 3.10307 1.36246 0
M  V30 28138 C 2639.29 4.29715 0.816306 0
M  V30 28139 C 2638.35 4.93804 1.8178 0
M  V30 28140 O 2637.38 5.52514 1.36808 0
M  V30 28141 N 2638.58 4.87552 3.15076 0
M  V30 28142 H 2641.35 2.96412 -0.442746 0
M  V30 28143 H 2638.91 1.57326 -0.382123 0
M  V30 28144 H 2640.9 3.50049 2.03096 0
M  V30 28145 H 2639.47 2.44102 1.95276 0
M  V30 28146 H 2638.69 3.9419 -0.0286674 0
M  V30 28147 H 2639.98 5.06975 0.430579 0
M  V30 28148 H 2639.37 4.41035 3.54267 0
M  V30 28149 H 2637.93 5.31345 3.77512 0
M  V30 28150 N 2641.36 0.28266 1.55044 0
M  V30 28151 C 2642.29 -0.595027 2.25791 0
M  V30 28152 C 2643.28 -1.15282 1.25076 0
M  V30 28153 O 2644.46 -1.18556 1.53812 0
M  V30 28154 C 2641.59 -1.77567 2.98475 0
M  V30 28155 C 2640.54 -1.34907 4.06182 0
M  V30 28156 C 2639.87 -2.61342 4.66481 0
M  V30 28157 C 2641.17 -0.49373 5.19961 0
M  V30 28158 H 2642.86 -0.00500391 2.994 0
M  V30 28159 H 2640.41 -0.00096669 1.44 0
M  V30 28160 H 2642.36 -2.39562 3.46681 0
M  V30 28161 H 2641.09 -2.39164 2.22414 0
M  V30 28162 H 2639.75 -0.752275 3.58799 0
M  V30 28163 H 2639.39 -3.21213 3.8708 0
M  V30 28164 H 2639.09 -2.33507 5.39211 0
M  V30 28165 H 2640.62 -3.24172 5.17441 0
M  V30 28166 H 2642.03 -1.01888 5.64173 0
M  V30 28167 H 2640.43 -0.309942 5.99299 0
M  V30 28168 H 2641.5 0.485678 4.82462 0
M  V30 28169 N 2642.84 -1.57597 0.0100627 0
M  V30 28170 C 2643.77 -2.0592 -1.00645 0
M  V30 28171 C 2644.79 -0.978987 -1.30076 0
M  V30 28172 O 2645.98 -1.25558 -1.26875 0
M  V30 28173 C 2643.08 -2.4527 -2.33872 0
M  V30 28174 C 2642.25 -3.76144 -2.23236 0
M  V30 28175 C 2641.31 -4.02251 -3.39235 0
M  V30 28176 O 2640.33 -4.72777 -3.16972 0
M  V30 28177 N 2641.54 -3.50932 -4.62414 0
M  V30 28178 H 2644.3 -2.93749 -0.594281 0
M  V30 28179 H 2641.86 -1.60928 -0.177111 0
M  V30 28180 H 2643.85 -2.59841 -3.10265 0
M  V30 28181 H 2642.42 -1.62907 -2.66796 0
M  V30 28182 H 2641.64 -3.71553 -1.31689 0
M  V30 28183 H 2642.93 -4.61926 -2.13313 0
M  V30 28184 H 2642.33 -2.9384 -4.83399 0
M  V30 28185 H 2640.89 -3.70816 -5.3604 0
M  V30 28186 N 2644.32 0.262839 -1.55393 0
M  V30 28187 C 2645.73 0.833129 -1.6708 0
M  V30 28188 C 2646.08 1.86653 -0.604571 0
M  V30 28189 O 2645.21 2.14927 0.2521 0
M  V30 28190 C 2645.8 1.51792 -3.02894 0
M  V30 28191 C 2644.36 2.03611 -3.16575 0
M  V30 28192 C 2643.51 0.881655 -2.62911 0
M  V30 28193 H 2646.46 0.0389707 -1.58652 0
M  V30 28194 H 2646.48 2.38533 -2.9645 0
M  V30 28195 H 2645.99 0.765553 -3.80475 0
M  V30 28196 H 2644.09 2.81778 -2.43787 0
M  V30 28197 H 2644.21 2.24444 -4.23275 0
M  V30 28198 H 2642.57 1.27782 -2.20327 0
M  V30 28199 H 2643.35 0.14263 -3.43004 0
M  V30 28200 N 2645.8 1.48499 0.527807 0
M  V30 28201 C 2647.03 1.6006 1.30631 0
M  V30 28202 C 2647.44 0.260819 1.87394 0
M  V30 28203 O 2646.78 -0.760287 1.67228 0
M  V30 28204 C 2646.84 2.58963 2.49356 0
M  V30 28205 C 2646.51 4.03976 2.13664 0
M  V30 28206 C 2647.5 4.91594 1.69209 0
M  V30 28207 C 2645.19 4.49528 2.24121 0
M  V30 28208 C 2647.18 6.22792 1.35678 0
M  V30 28209 C 2644.87 5.80747 1.90202 0
M  V30 28210 C 2645.87 6.67202 1.46051 0
M  V30 28211 O 2645.55 7.95978 1.12579 0
M  V30 28212 H 2645.29 0.542418 0.403434 0
M  V30 28213 H 2647.84 1.9507 0.643199 0
M  V30 28214 H 2646.07 2.19079 3.18656 0
M  V30 28215 H 2647.76 2.60336 3.11416 0
M  V30 28216 H 2648.53 4.57639 1.60599 0
M  V30 28217 H 2644.4 3.82421 2.5744 0
M  V30 28218 H 2647.95 6.90229 1.01145 0
M  V30 28219 H 2643.85 6.14237 1.98453 0
M  V30 28220 H 2644.61 8.0875 1.25958 0
M  V30 28221 N 2647.28 -0.776847 1.37123 0
M  V30 28222 C 2648.5 -1.57102 1.35403 0
M  V30 28223 C 2648.93 -1.88006 -0.0595231 0
M  V30 28224 O 2648.29 -1.48846 -1.03511 0
M  V30 28225 C 2648.33 -2.86116 2.19477 0
M  V30 28226 O 2647.44 -3.8027 1.59589 0
M  V30 28227 H 2646.78 -0.476068 0.462877 0
M  V30 28228 H 2649.31 -0.9619 1.80579 0
M  V30 28229 H 2649.32 -3.35267 2.32508 0
M  V30 28230 H 2647.99 -2.6295 3.22227 0
M  V30 28231 H 2646.57 -3.38899 1.5557 0
M  V30 28232 N 2648.76 -1.2161 -1.00244 0
M  V30 28233 C 2649.69 -1.00176 -2.10919 0
M  V30 28234 C 2650.67 0.0741288 -1.69938 0
M  V30 28235 O 2651.85 -0.0862094 -1.94009 0
M  V30 28236 C 2648.98 -0.568416 -3.42617 0
M  V30 28237 C 2647.94 -1.58916 -3.97404 0
M  V30 28238 C 2647.26 -1.01196 -5.25037 0
M  V30 28239 C 2648.56 -2.97668 -4.29175 0
M  V30 28240 H 2650.26 -1.92743 -2.29108 0
M  V30 28241 H 2647.8 -0.928121 -1.101 0
M  V30 28242 H 2649.75 -0.405629 -4.19443 0
M  V30 28243 H 2648.48 0.392904 -3.24228 0
M  V30 28244 H 2647.14 -1.73955 -3.227 0
M  V30 28245 H 2646.79 -0.0422849 -5.02982 0
M  V30 28246 H 2646.49 -1.6938 -5.62658 0
M  V30 28247 H 2648.01 -0.860554 -6.04505 0
M  V30 28248 H 2649.42 -2.86058 -4.96834 0
M  V30 28249 H 2647.82 -3.62889 -4.77945 0
M  V30 28250 H 2648.89 -3.48321 -3.37343 0
M  V30 28251 N 2650.23 1.19778 -1.02425 0
M  V30 28252 C 2651.48 1.89623 -0.719085 0
M  V30 28253 C 2651.81 1.79131 0.750052 0
M  V30 28254 O 2651.09 1.18058 1.54572 0
M  V30 28255 C 2651.37 3.40732 -1.16505 0
M  V30 28256 C 2651.22 3.6012 -2.69506 0
M  V30 28257 C 2652.54 4.33796 -0.742242 0
M  V30 28258 H 2649.66 0.68859 -0.262702 0
M  V30 28259 H 2652.3 1.41016 -1.27336 0
M  V30 28260 H 2650.45 3.82261 -0.693477 0
M  V30 28261 H 2652.13 3.27794 -3.24575 0
M  V30 28262 H 2650.37 3.0333 -3.10118 0
M  V30 28263 H 2651.04 4.66076 -2.95765 0
M  V30 28264 H 2653.52 3.99957 -1.14777 0
M  V30 28265 H 2652.39 5.38126 -1.08223 0
M  V30 28266 H 2652.65 4.40667 0.355669 0
M  V30 28267 N 2651.71 0.801501 1.35697 0
M  V30 28268 C 2652.94 0.391804 2.03156 0
M  V30 28269 C 2653.35 -0.99564 1.60413 0
M  V30 28270 O 2652.71 -1.64067 0.799256 0
M  V30 28271 C 2652.76 0.459734 3.58565 0
M  V30 28272 O 2652.48 1.79247 3.99752 0
M  V30 28273 C 2653.98 0.0421984 4.4328 0
M  V30 28274 H 2651.2 0.159837 0.651685 0
M  V30 28275 H 2653.75 1.08371 1.73424 0
M  V30 28276 H 2651.9 -0.183871 3.86963 0
M  V30 28277 H 2652.32 1.75171 4.94384 0
M  V30 28278 H 2653.79 0.140851 5.5182 0
M  V30 28279 H 2654.27 -1.01188 4.27385 0
M  V30 28280 H 2654.87 0.658761 4.20167 0
M  V30 28281 N 2653.19 -1.47521 0.554558 0
M  V30 28282 C 2654.42 -2.06872 0.0342934 0
M  V30 28283 C 2654.83 -1.40761 -1.25824 0
M  V30 28284 O 2654.19 -0.503247 -1.75424 0
M  V30 28285 C 2654.24 -3.61111 -0.167764 0
M  V30 28286 O 2653.96 -4.24742 1.07358 0
M  V30 28287 C 2655.46 -4.37321 -0.725613 0
M  V30 28288 H 2652.68 -0.669514 0.0446393 0
M  V30 28289 H 2655.23 -1.89563 0.767214 0
M  V30 28290 H 2653.38 -3.77942 -0.850806 0
M  V30 28291 H 2653.8 -5.1724 0.869654 0
M  V30 28292 H 2655.27 -5.45931 -0.816298 0
M  V30 28293 H 2655.75 -4.03423 -1.73628 0
M  V30 28294 H 2656.35 -4.25228 -0.0783544 0
M  V30 28295 N 2654.67 -0.290879 -1.54892 0
M  V30 28296 C 2655.6 0.583044 -2.26104 0
M  V30 28297 C 2656.58 1.14617 -1.25686 0
M  V30 28298 O 2657.76 1.17739 -1.54439 0
M  V30 28299 C 2654.89 1.75982 -2.99412 0
M  V30 28300 C 2653.85 1.32751 -4.06892 0
M  V30 28301 C 2653.17 2.58864 -4.67861 0
M  V30 28302 C 2654.47 0.466148 -5.20216 0
M  V30 28303 H 2656.17 -0.0108741 -2.99398 0
M  V30 28304 H 2653.71 -0.00666999 -1.43998 0
M  V30 28305 H 2655.67 2.3772 -3.47947 0
M  V30 28306 H 2654.39 2.37981 -2.23679 0
M  V30 28307 H 2653.05 0.733236 -3.59192 0
M  V30 28308 H 2652.7 3.19156 -3.88778 0
M  V30 28309 H 2652.4 2.30644 -5.40442 0
M  V30 28310 H 2653.92 3.21424 -5.19152 0
M  V30 28311 H 2655.34 0.988948 -5.64706 0
M  V30 28312 H 2653.73 0.278155 -5.99455 0
M  V30 28313 H 2654.8 -0.511257 -4.82197 0
M  V30 28314 N 2656.15 1.57589 -0.0184203 0
M  V30 28315 C 2657.09 2.10711 0.985074 0
M  V30 28316 C 2658.09 1.03122 1.34395 0
M  V30 28317 O 2659.29 1.21569 1.32744 0
M  V30 28318 H 2655.67 0.673058 0.335406 0
M  V30 28319 H 2657.64 2.93981 0.511638 0
M  V30 28320 C 2656.39 2.64065 2.26197 0
M  V30 28321 H 2655.71 3.46494 1.99454 0
M  V30 28322 H 2657.15 3.04892 2.94647 0
M  V30 28323 C 2655.61 1.56315 2.98441 0
M  V30 28324 O 2656.14 0.956742 3.9014 0
M  V30 28325 N 2654.35 1.28617 2.60588 0
M  V30 28326 H 2653.89 1.78116 1.86098 0
M  V30 28327 H 2653.85 0.567461 3.09237 0
M  V30 28328 N 2657.62 -0.254594 1.5553 0
M  V30 28329 C 2658.85 -1.00569 1.81385 0
M  V30 28330 C 2659.27 -1.7846 0.59445 0
M  V30 28331 O 2658.63 -1.75462 -0.456372 0
M  V30 28332 C 2658.68 -1.92539 3.04895 0
M  V30 28333 O 2657.78 -3.01596 2.81271 0
M  V30 28334 H 2657.12 -0.286576 0.598974 0
M  V30 28335 H 2659.65 -0.277917 2.02704 0
M  V30 28336 H 2659.66 -2.3415 3.34123 0
M  V30 28337 H 2658.34 -1.35263 3.9329 0
M  V30 28338 H 2656.92 -2.64169 2.6319 0
M  V30 28339 N 2659.1 -1.48777 -0.519925 0
M  V30 28340 C 2660.38 -1.47799 -1.2812 0
M  V30 28341 C 2660.76 -0.195194 -2.10196 0
M  V30 28342 O 2660.11 0.822887 -2.13169 0
M  V30 28343 C 2660.32 -2.74591 -2.15408 0
M  V30 28344 C 2661.66 -3.23325 -2.7522 0
M  V30 28345 O 2662.69 -2.75578 -2.25689 0
M  V30 28346 O 2661.55 -4.06435 -3.65339 0
M  V30 28347 H 2658.64 -0.590711 -0.578783 0
M  V30 28348 H 2661.19 -1.61021 -0.535751 0
M  V30 28349 H 2659.96 -3.5946 -1.54611 0
M  V30 28350 H 2659.58 -2.64138 -2.97182 0
M  V30 28351 N 2660.58 0.769564 -1.37534 0
M  V30 28352 C 2661.51 1.8968 -1.36176 0
M  V30 28353 C 2662.49 1.68537 -0.23004 0
M  V30 28354 O 2663.68 1.89363 -0.430723 0
M  V30 28355 C 2660.81 3.26993 -1.17016 0
M  V30 28356 C 2659.76 3.62704 -2.27222 0
M  V30 28357 C 2659.09 4.98582 -1.93183 0
M  V30 28358 C 2660.39 3.69228 -3.69416 0
M  V30 28359 H 2662.08 1.91074 -2.30502 0
M  V30 28360 H 2659.63 0.917882 -1.10955 0
M  V30 28361 H 2661.58 4.05491 -1.14695 0
M  V30 28362 H 2660.3 3.26038 -0.191453 0
M  V30 28363 H 2658.96 2.86515 -2.28702 0
M  V30 28364 H 2658.61 4.9417 -0.938368 0
M  V30 28365 H 2658.31 5.23445 -2.66982 0
M  V30 28366 H 2659.83 5.79477 -1.92453 0
M  V30 28367 H 2661.25 4.37873 -3.70055 0
M  V30 28368 H 2659.64 4.05589 -4.42287 0
M  V30 28369 H 2660.71 2.69837 -4.02885 0
M  V30 28370 N 2662.06 1.22139 0.995977 0
M  V30 28371 C 2663.01 0.988723 2.0855 0
M  V30 28372 C 2663.98 -0.0884729 1.65864 0
M  V30 28373 O 2665.16 0.0604924 1.90704 0
M  V30 28374 C 2662.3 0.569251 3.40373 0
M  V30 28375 C 2661.41 1.71688 3.96418 0
M  V30 28376 C 2660.55 1.24569 5.16387 0
M  V30 28377 C 2659.59 2.36507 5.64563 0
M  V30 28378 N 2658.72 1.90457 6.75774 0
M  V30 28379 H 2663.56 1.92139 2.27787 0
M  V30 28380 H 2661.1 0.957408 1.11679 0
M  V30 28381 H 2663.06 0.307239 4.16067 0
M  V30 28382 H 2661.69 -0.326406 3.21146 0
M  V30 28383 H 2660.74 2.0933 3.17624 0
M  V30 28384 H 2662.05 2.55899 4.28156 0
M  V30 28385 H 2661.21 0.940879 5.9936 0
M  V30 28386 H 2659.95 0.373747 4.86266 0
M  V30 28387 H 2658.95 2.67781 4.80181 0
M  V30 28388 H 2660.18 3.24212 5.9671 0
M  V30 28389 H 2658.12 1.0562 6.47441 0
M  V30 28390 H 2658.04 2.68236 7.06814 0
M  V30 28391 H 2659.31 1.63036 7.6226 0
M  V30 28392 N 2663.54 -1.19233 1.03059 0
M  V30 28393 C 2664.77 -1.92636 0.746647 0
M  V30 28394 C 2665.17 -1.75827 -0.698677 0
M  V30 28395 O 2664.52 -1.07864 -1.48698 0
M  V30 28396 C 2664.58 -3.44717 1.0203 0
M  V30 28397 C 2664.24 -3.85299 2.45752 0
M  V30 28398 C 2665.24 -3.89914 3.43894 0
M  V30 28399 C 2662.93 -4.16887 2.80197 0
M  V30 28400 C 2664.92 -4.25552 4.74536 0
M  V30 28401 C 2662.61 -4.52197 4.11048 0
M  V30 28402 C 2663.6 -4.56504 5.08028 0
M  V30 28403 O 2663.29 -4.90996 6.36536 0
M  V30 28404 H 2663.02 -0.618682 0.272412 0
M  V30 28405 H 2665.58 -1.52266 1.37855 0
M  V30 28406 H 2663.81 -3.85279 0.331252 0
M  V30 28407 H 2665.5 -3.99359 0.725748 0
M  V30 28408 H 2666.26 -3.65658 3.18621 0
M  V30 28409 H 2662.14 -4.12718 2.05389 0
M  V30 28410 H 2665.69 -4.28828 5.50229 0
M  V30 28411 H 2661.58 -4.75912 4.36094 0
M  V30 28412 H 2662.35 -5.08938 6.41034 0
M  V30 28413 N 2665.01 -0.808686 -1.3527 0
M  V30 28414 C 2665.96 -0.208646 -2.31662 0
M  V30 28415 C 2666.96 0.64275 -1.56733 0
M  V30 28416 O 2668.16 0.535679 -1.71844 0
M  V30 28417 H 2664.54 -0.0487124 -0.750421 0
M  V30 28418 H 2666.51 -1.03671 -2.79812 0
M  V30 28419 C 2665.26 0.626513 -3.42009 0
M  V30 28420 H 2664.58 -0.0192806 -3.99795 0
M  V30 28421 H 2666.02 1.01271 -4.11728 0
M  V30 28422 C 2664.48 1.79293 -2.85229 0
M  V30 28423 O 2665.01 2.8905 -2.7895 0
M  V30 28424 N 2663.22 1.60512 -2.42248 0
M  V30 28425 H 2662.76 0.712331 -2.47555 0
M  V30 28426 H 2662.72 2.38712 -2.04607 0
M  V30 28427 N 2666.49 1.47225 -0.562374 0
M  V30 28428 C 2667.46 2.28554 0.172016 0
M  V30 28429 C 2668.46 1.37244 0.837904 0
M  V30 28430 O 2669.65 1.59823 0.692973 0
M  V30 28431 C 2666.78 3.1707 1.25218 0
M  V30 28432 H 2667.97 2.94953 -0.542453 0
M  V30 28433 H 2665.52 1.52999 -0.31952 0
M  V30 28434 H 2666.26 2.55373 1.99888 0
M  V30 28435 H 2666.04 3.84275 0.779448 0
M  V30 28436 H 2667.53 3.78335 1.76784 0
M  V30 28437 N 2667.97 0.299089 1.54736 0
M  V30 28438 C 2668.9 -0.571045 2.2641 0
M  V30 28439 C 2669.88 -1.13949 1.26292 0
M  V30 28440 O 2671.07 -1.16918 1.55061 0
M  V30 28441 C 2668.2 -1.74391 3.00341 0
M  V30 28442 C 2667.15 -1.30591 4.0759 0
M  V30 28443 C 2666.48 -2.56379 4.69227 0
M  V30 28444 C 2667.78 -0.438553 5.20456 0
M  V30 28445 H 2669.47 0.0267517 2.99388 0
M  V30 28446 H 2667.02 0.0143065 1.43993 0
M  V30 28447 H 2668.97 -2.35872 3.49203 0
M  V30 28448 H 2667.69 -2.36792 2.24938 0
M  V30 28449 H 2666.35 -0.714177 3.59576 0
M  V30 28450 H 2666 -3.1709 3.90465 0
M  V30 28451 H 2665.7 -2.27774 5.41657 0
M  V30 28452 H 2667.22 -3.18666 5.2085 0
M  V30 28453 H 2668.64 -0.958986 5.65222 0
M  V30 28454 H 2667.04 -0.24636 5.99594 0
M  V30 28455 H 2668.11 0.536822 4.81919 0
M  V30 28456 N 2669.45 -1.57577 0.0267774 0
M  V30 28457 C 2670.73 -1.82992 -0.690894 0
M  V30 28458 C 2671.11 -0.910198 -1.90469 0
M  V30 28459 O 2670.45 0.0347584 -2.28474 0
M  V30 28460 C 2670.66 -3.3215 -1.07133 0
M  V30 28461 C 2672.01 -3.98564 -1.46395 0
M  V30 28462 O 2673.04 -3.36632 -1.16437 0
M  V30 28463 O 2671.89 -5.07716 -2.02205 0
M  V30 28464 H 2668.99 -0.754446 -0.338734 0
M  V30 28465 H 2671.53 -1.69613 0.0542804 0
M  V30 28466 H 2670.31 -3.9075 -0.207325 0
M  V30 28467 H 2669.93 -3.50627 -1.87475 0
M  V30 28468 N 2670.93 0.246342 -1.55663 0
M  V30 28469 C 2671.86 1.3087 -1.93379 0
M  V30 28470 C 2672.84 1.50177 -0.798799 0
M  V30 28471 O 2674.02 1.62776 -1.05913 0
M  V30 28472 C 2671.15 2.66334 -2.22897 0
M  V30 28473 C 2670.11 2.61721 -3.38653 0
M  V30 28474 C 2669.43 4.00986 -3.53715 0
M  V30 28475 C 2670.73 2.18658 -4.74327 0
M  V30 28476 H 2672.43 0.995502 -2.82365 0
M  V30 28477 H 2669.97 0.47744 -1.35855 0
M  V30 28478 H 2671.93 3.4079 -2.47872 0
M  V30 28479 H 2670.65 2.99291 -1.30738 0
M  V30 28480 H 2669.31 1.89723 -3.13689 0
M  V30 28481 H 2668.96 4.31209 -2.58975 0
M  V30 28482 H 2668.66 3.98787 -4.31558 0
M  V30 28483 H 2670.18 4.7714 -3.81011 0
M  V30 28484 H 2671.59 2.82845 -4.9867 0
M  V30 28485 H 2669.99 2.27569 -5.55277 0
M  V30 28486 H 2671.06 1.13826 -4.71351 0
M  V30 28487 N 2672.4 1.4905 0.512027 0
M  V30 28488 C 2673.63 1.61671 1.29113 0
M  V30 28489 C 2674.05 0.28382 1.86654 0
M  V30 28490 O 2673.4 -0.729302 1.67294 0
M  V30 28491 C 2673.46 2.67712 2.42925 0
M  V30 28492 O 2673.18 3.9583 1.87751 0
M  V30 28493 C 2674.68 2.90937 3.34471 0
M  V30 28494 H 2671.9 0.544589 0.391999 0
M  V30 28495 H 2674.44 1.95007 0.615847 0
M  V30 28496 H 2672.6 2.37185 3.06304 0
M  V30 28497 H 2673.01 4.54152 2.62385 0
M  V30 28498 H 2674.48 3.68893 4.10636 0
M  V30 28499 H 2674.96 2.00433 3.90798 0
M  V30 28500 H 2675.57 3.22837 2.76869 0
M  V30 28501 N 2673.88 -0.762259 1.3794 0
M  V30 28502 C 2674.83 -1.89719 1.34572 0
M  V30 28503 C 2675.82 -1.67791 0.232958 0
M  V30 28504 O 2677.03 -1.75465 0.401516 0
M  V30 28505 H 2673.41 -0.624047 0.419605 0
M  V30 28506 H 2675.38 -1.89675 2.3036 0
M  V30 28507 C 2674.13 -3.27099 1.17904 0
M  V30 28508 H 2673.45 -3.44554 2.02787 0
M  V30 28509 H 2674.89 -4.06782 1.196 0
M  V30 28510 C 2673.35 -3.36705 -0.114669 0
M  V30 28511 O 2673.88 -3.86492 -1.09484 0
M  V30 28512 N 2672.08 -2.90111 -0.168579 0
M  V30 28513 H 2671.63 -2.49785 0.629714 0
M  V30 28514 H 2671.59 -2.96918 -1.03378 0
M  V30 28515 N 2675.36 -1.22666 -0.989486 0
M  V30 28516 C 2676.31 -0.997072 -2.10146 0
M  V30 28517 C 2677.3 0.0609485 -1.6929 0
M  V30 28518 O 2678.51 -0.0917839 -1.79766 0
M  V30 28519 H 2674.88 -0.305271 -0.687251 0
M  V30 28520 H 2676.85 -1.94057 -2.26681 0
M  V30 28521 C 2675.6 -0.595145 -3.42569 0
M  V30 28522 H 2674.93 -1.40096 -3.74451 0
M  V30 28523 H 2676.37 -0.473943 -4.21343 0
M  V30 28524 C 2674.83 0.695667 -3.29639 0
M  V30 28525 O 2675.36 1.74721 -3.61712 0
M  V30 28526 N 2673.56 0.668123 -2.82815 0
M  V30 28527 H 2673.11 -0.187915 -2.56914 0
M  V30 28528 H 2673.07 1.53205 -2.74546 0
M  V30 28529 N 2676.84 1.18685 -1.0369 0
M  V30 28530 C 2678.09 1.88198 -0.736605 0
M  V30 28531 C 2678.41 1.8051 0.737633 0
M  V30 28532 O 2677.68 1.22091 1.53201 0
M  V30 28533 H 2676.26 0.6967 -0.269479 0
M  V30 28534 H 2678.92 1.4405 -1.31285 0
M  V30 28535 H 2678.02 2.9433 -1.03807 0
M  V30 28536 N 2678.32 0.815849 1.34839 0
M  V30 28537 C 2679.26 0.230705 2.29644 0
M  V30 28538 C 2680.23 -0.640506 1.53254 0
M  V30 28539 O 2681.42 -0.58364 1.81654 0
M  V30 28540 C 2678.56 -0.607215 3.39716 0
M  V30 28541 C 2677.67 0.285455 4.31056 0
M  V30 28542 C 2676.81 -0.561353 5.28226 0
M  V30 28543 C 2675.85 0.331143 6.11204 0
M  V30 28544 N 2674.98 -0.476179 7.00483 0
M  V30 28545 H 2679.82 1.04455 2.79094 0
M  V30 28546 H 2677.36 0.526619 1.3735 0
M  V30 28547 H 2679.32 -1.10828 4.0221 0
M  V30 28548 H 2677.95 -1.38624 2.91519 0
M  V30 28549 H 2677 0.904686 3.69486 0
M  V30 28550 H 2678.31 0.972016 4.89237 0
M  V30 28551 H 2677.47 -1.12718 5.96137 0
M  V30 28552 H 2676.21 -1.28145 4.70564 0
M  V30 28553 H 2675.21 0.909165 5.42231 0
M  V30 28554 H 2676.44 1.04924 6.70945 0
M  V30 28555 H 2674.38 -1.18008 6.45299 0
M  V30 28556 H 2674.3 0.152141 7.55847 0
M  V30 28557 H 2675.57 -1.02498 7.72732 0
M  V30 28558 N 2679.8 -1.46924 0.570174 0
M  V30 28559 C 2680.73 -2.32963 -0.158233 0
M  V30 28560 C 2681.71 -1.44584 -0.896067 0
M  V30 28561 O 2682.89 -1.73422 -0.873991 0
M  V30 28562 C 2680.02 -3.26621 -1.1805 0
M  V30 28563 C 2678.98 -4.24343 -0.558305 0
M  V30 28564 C 2678.3 -5.07418 -1.68614 0
M  V30 28565 C 2679.6 -5.19936 0.496386 0
M  V30 28566 H 2681.3 -2.94114 0.560098 0
M  V30 28567 H 2678.84 -1.41431 0.2708 0
M  V30 28568 H 2680.79 -3.85661 -1.69834 0
M  V30 28569 H 2679.52 -2.63552 -1.92894 0
M  V30 28570 H 2678.18 -3.66548 -0.0616513 0
M  V30 28571 H 2677.83 -4.40743 -2.42394 0
M  V30 28572 H 2677.53 -5.73589 -1.27554 0
M  V30 28573 H 2679.05 -5.69319 -2.20699 0
M  V30 28574 H 2680.46 -5.73264 0.064106 0
M  V30 28575 H 2678.86 -5.9438 0.826595 0
M  V30 28576 H 2679.93 -4.64627 1.38743 0
M  V30 28577 N 2681.27 -0.307291 -1.54575 0
M  V30 28578 C 2682.69 0.045897 -1.59534 0
M  V30 28579 C 2682.89 1.51882 -1.32416 0
M  V30 28580 O 2681.95 2.27249 -1.10064 0
M  V30 28581 C 2683.26 -0.357701 -2.98565 0
M  V30 28582 C 2684.81 -0.306992 -3.11491 0
M  V30 28583 C 2685.28 -0.685507 -4.52841 0
M  V30 28584 N 2686.77 -0.638283 -4.58781 0
M  V30 28585 C 2687.51 -0.903558 -5.66236 0
M  V30 28586 N 2687 -1.23513 -6.81701 0
M  V30 28587 N 2688.8 -0.8302 -5.55935 0
M  V30 28588 H 2680.95 -1.26715 -1.70462 0
M  V30 28589 H 2683.21 -0.514153 -0.796461 0
M  V30 28590 H 2682.92 -1.3833 -3.23354 0
M  V30 28591 H 2682.79 0.285499 -3.76118 0
M  V30 28592 H 2685.18 0.709373 -2.86447 0
M  V30 28593 H 2685.26 -0.984902 -2.36079 0
M  V30 28594 H 2684.9 -1.69971 -4.78615 0
M  V30 28595 H 2684.83 0.0145421 -5.26598 0
M  V30 28596 H 2687.32 -0.393204 -3.75849 0
M  V30 28597 H 2687.64 -1.42335 -7.59579 0
M  V30 28598 H 2685.98 -1.27323 -6.83238 0
M  V30 28599 H 2689.17 -0.570774 -4.64607 0
M  V30 28600 H 2689.35 -1.0403 -6.39595 0
M  V30 28601 N 2682.75 1.57561 -0.0351337 0
M  V30 28602 C 2683.68 2.13613 0.942955 0
M  V30 28603 C 2684.66 1.05375 1.33529 0
M  V30 28604 O 2685.85 1.33237 1.41285 0
M  V30 28605 C 2682.98 2.66811 2.22327 0
M  V30 28606 C 2681.93 3.79889 1.9715 0
M  V30 28607 C 2681.26 4.19539 3.31498 0
M  V30 28608 C 2682.56 5.05712 1.30588 0
M  V30 28609 H 2684.25 2.9559 0.476127 0
M  V30 28610 H 2681.8 1.4219 0.227577 0
M  V30 28611 H 2683.75 3.04659 2.91137 0
M  V30 28612 H 2682.47 1.82004 2.71187 0
M  V30 28613 H 2681.13 3.42488 1.30757 0
M  V30 28614 H 2680.78 3.31705 3.78128 0
M  V30 28615 H 2680.48 4.95743 3.15456 0
M  V30 28616 H 2682.01 4.59975 4.01566 0
M  V30 28617 H 2683.42 5.41108 1.89406 0
M  V30 28618 H 2681.82 5.86953 1.24924 0
M  V30 28619 H 2682.89 4.84093 0.279657 0
M  V30 28620 N 2684.23 -0.238084 1.55791 0
M  V30 28621 C 2685.14 -1.31621 1.94198 0
M  V30 28622 C 2686.16 -1.52184 0.843572 0
M  V30 28623 O 2687.33 -1.65635 1.14573 0
M  V30 28624 C 2684.4 -2.64914 2.23654 0
M  V30 28625 C 2683.46 -2.52798 3.46975 0
M  V30 28626 C 2682.69 -3.79734 3.75017 0
M  V30 28627 O 2682.91 -4.82014 3.0499 0
M  V30 28628 O 2681.85 -3.77838 4.68532 0
M  V30 28629 H 2685.67 -1.02038 2.86045 0
M  V30 28630 H 2683.26 -0.439578 1.42787 0
M  V30 28631 H 2685.14 -3.43665 2.43869 0
M  V30 28632 H 2683.82 -2.94212 1.34984 0
M  V30 28633 H 2682.72 -1.72303 3.32058 0
M  V30 28634 H 2684.06 -2.28443 4.35975 0
M  V30 28635 N 2685.71 -1.4932 -0.504115 0
M  V30 28636 C 2687.12 -1.51887 -1.08569 0
M  V30 28637 C 2687.47 -0.303289 -1.93842 0
M  V30 28638 O 2686.59 0.587203 -2.08281 0
M  V30 28639 C 2687.19 -2.75231 -1.97569 0
M  V30 28640 C 2685.75 -2.80586 -2.50895 0
M  V30 28641 C 2684.9 -2.45759 -1.28443 0
M  V30 28642 H 2687.85 -1.56062 -0.288167 0
M  V30 28643 H 2687.87 -2.55216 -2.82215 0
M  V30 28644 H 2687.38 -3.63685 -1.35479 0
M  V30 28645 H 2685.48 -1.96404 -3.16633 0
M  V30 28646 H 2685.59 -3.82678 -2.88261 0
M  V30 28647 H 2683.96 -1.97471 -1.60864 0
M  V30 28648 H 2684.74 -3.36485 -0.680661 0
M  V30 28649 N 2687.19 0.754933 -1.38342 0
M  V30 28650 C 2688.12 1.88225 -1.3818 0
M  V30 28651 C 2689.1 1.68284 -0.247902 0
M  V30 28652 O 2690.28 1.88896 -0.450784 0
M  V30 28653 C 2687.41 3.25734 -1.20477 0
M  V30 28654 C 2686.37 3.60274 -2.31056 0
M  V30 28655 C 2685.69 4.96505 -1.9846 0
M  V30 28656 C 2686.99 3.65289 -3.73312 0
M  V30 28657 H 2688.69 1.88618 -2.32516 0
M  V30 28658 H 2686.23 0.906062 -1.11922 0
M  V30 28659 H 2688.18 4.04252 -1.18989 0
M  V30 28660 H 2686.91 3.25817 -0.226023 0
M  V30 28661 H 2685.57 2.84074 -2.31728 0
M  V30 28662 H 2685.22 4.93147 -0.990728 0
M  V30 28663 H 2684.92 5.20584 -2.72519 0
M  V30 28664 H 2686.44 5.77404 -1.98588 0
M  V30 28665 H 2687.85 4.33923 -3.74678 0
M  V30 28666 H 2686.25 4.00875 -4.46564 0
M  V30 28667 H 2687.32 2.65549 -4.05724 0
M  V30 28668 N 2688.66 1.23189 0.982967 0
M  V30 28669 C 2689.61 1.01079 2.07489 0
M  V30 28670 C 2690.58 -0.0708758 1.65949 0
M  V30 28671 O 2691.77 0.0807157 1.90629 0
M  V30 28672 C 2688.91 0.60532 3.3975 0
M  V30 28673 C 2688.02 1.75883 3.94575 0
M  V30 28674 C 2687.15 1.30039 5.15037 0
M  V30 28675 C 2686.19 2.42481 5.62022 0
M  V30 28676 N 2685.33 1.97614 6.73716 0
M  V30 28677 H 2690.17 1.94544 2.25736 0
M  V30 28678 H 2687.71 0.969199 1.10657 0
M  V30 28679 H 2689.66 0.351352 4.15718 0
M  V30 28680 H 2688.29 -0.292325 3.21474 0
M  V30 28681 H 2687.35 2.12687 3.15386 0
M  V30 28682 H 2688.66 2.60426 4.25417 0
M  V30 28683 H 2687.81 1.0044 5.98328 0
M  V30 28684 H 2686.55 0.425301 4.85842 0
M  V30 28685 H 2685.56 2.72858 4.77314 0
M  V30 28686 H 2686.78 3.30523 5.93238 0
M  V30 28687 H 2684.73 1.12481 6.46285 0
M  V30 28688 H 2684.64 2.75717 7.03929 0
M  V30 28689 H 2685.91 1.71111 7.60487 0
M  V30 28690 N 2690.14 -1.18133 1.04318 0
M  V30 28691 C 2691.07 -2.24057 0.657338 0
M  V30 28692 C 2692.05 -1.66654 -0.340649 0
M  V30 28693 O 2693.24 -1.92948 -0.22019 0
M  V30 28694 C 2690.37 -3.47293 0.0221325 0
M  V30 28695 C 2689.32 -4.17461 0.943931 0
M  V30 28696 C 2688.65 -5.3442 0.173067 0
M  V30 28697 C 2689.95 -4.70673 2.26417 0
M  V30 28698 H 2691.64 -2.56586 1.54285 0
M  V30 28699 H 2689.19 -1.23334 0.743284 0
M  V30 28700 H 2691.14 -4.206 -0.259533 0
M  V30 28701 H 2689.86 -3.14004 -0.898268 0
M  V30 28702 H 2688.52 -3.46055 1.21002 0
M  V30 28703 H 2688.17 -4.9738 -0.74982 0
M  V30 28704 H 2687.87 -5.82303 0.7872 0
M  V30 28705 H 2689.4 -6.10516 -0.101521 0
M  V30 28706 H 2690.81 -5.35661 2.04303 0
M  V30 28707 H 2689.21 -5.291 2.83149 0
M  V30 28708 H 2690.28 -3.87957 2.9089 0
M  V30 28709 N 2691.62 -0.822988 -1.34405 0
M  V30 28710 C 2692.57 -0.217248 -2.26963 0
M  V30 28711 C 2693.55 0.618519 -1.48537 0
M  V30 28712 O 2694.75 0.473088 -1.7056 0
M  V30 28713 C 2691.88 0.619914 -3.37657 0
M  V30 28714 C 2690.96 -0.226485 -4.23495 0
M  V30 28715 N 2691.35 -1.29752 -4.88874 0
M  V30 28716 C 2689.65 -0.0108338 -4.45999 0
M  V30 28717 C 2690.35 -1.81563 -5.52639 0
M  V30 28718 N 2689.33 -1.11952 -5.31947 0
M  V30 28719 H 2693.13 -1.03651 -2.75016 0
M  V30 28720 H 2690.64 -0.665803 -1.48124 0
M  V30 28721 H 2692.64 1.07004 -4.02934 0
M  V30 28722 H 2691.3 1.43734 -2.91154 0
M  V30 28723 H 2692.31 -1.68032 -4.89883 0
M  V30 28724 H 2688.99 0.774422 -4.10255 0
M  V30 28725 H 2690.38 -2.71167 -6.1475 0
M  V30 28726 N 2693.1 1.4662 -0.577957 0
M  V30 28727 C 2694.34 2.02706 -0.0618149 0
M  V30 28728 C 2694.68 1.44905 1.29291 0
M  V30 28729 O 2693.95 0.612352 1.84609 0
M  V30 28730 C 2694.24 3.60099 0.00905495 0
M  V30 28731 C 2694.09 4.28293 -1.37423 0
M  V30 28732 C 2695.41 4.34301 0.712082 0
M  V30 28733 H 2692.53 0.736611 -0.0239376 0
M  V30 28734 H 2695.17 1.74817 -0.744242 0
M  V30 28735 H 2693.32 3.8399 0.590225 0
M  V30 28736 H 2694.99 4.1568 -2.0002 0
M  V30 28737 H 2693.23 3.8784 -1.94326 0
M  V30 28738 H 2693.9 5.37022 -1.27716 0
M  V30 28739 H 2696.38 4.15526 0.218413 0
M  V30 28740 H 2695.26 5.44015 0.730686 0
M  V30 28741 H 2695.52 4.05015 1.77244 0
M  V30 28742 N 2694.58 0.315484 1.5441 0
M  V30 28743 C 2695.54 -0.541381 2.22714 0
M  V30 28744 C 2696.54 -1.04993 1.21792 0
M  V30 28745 O 2697.73 -0.943641 1.46428 0
M  V30 28746 C 2694.86 -1.75111 2.92488 0
M  V30 28747 H 2696.05 0.0556036 2.99848 0
M  V30 28748 H 2693.61 0.0664727 1.56159 0
M  V30 28749 H 2694.34 -2.38754 2.1947 0
M  V30 28750 H 2694.13 -1.39395 3.66485 0
M  V30 28751 H 2695.62 -2.35953 3.44552 0
M  V30 28752 N 2696.05 -1.5754 0.0434891 0
M  V30 28753 C 2697.3 -1.92005 -0.630753 0
M  V30 28754 C 2697.62 -0.921838 -1.71835 0
M  V30 28755 O 2696.89 0.0344876 -1.9587 0
M  V30 28756 H 2695.47 -0.708749 -0.235975 0
M  V30 28757 H 2698.14 -1.9467 0.0946804 0
M  V30 28758 H 2697.23 -2.93028 -1.07429 0
M  V30 28759 N 2697.53 0.229818 -1.55915 0
M  V30 28760 C 2698.48 1.30441 -1.92582 0
M  V30 28761 C 2699.47 1.4895 -0.806865 0
M  V30 28762 O 2700.68 1.50222 -0.991633 0
M  V30 28763 H 2697.06 0.43715 -0.611886 0
M  V30 28764 H 2699.03 0.96792 -2.82266 0
M  V30 28765 C 2697.78 2.64936 -2.25176 0
M  V30 28766 H 2697.1 2.51499 -3.10787 0
M  V30 28767 H 2698.54 3.38958 -2.54722 0
M  V30 28768 C 2697 3.19323 -1.074 0
M  V30 28769 O 2697.53 4.00335 -0.330829 0
M  V30 28770 N 2695.73 2.77582 -0.860033 0
M  V30 28771 H 2695.28 2.1181 -1.46609 0
M  V30 28772 H 2695.24 3.14314 -0.0737224 0
M  V30 28773 N 2699.01 1.49585 0.49619 0
M  V30 28774 C 2699.94 1.69524 1.60573 0
M  V30 28775 C 2700.92 0.543962 1.61168 0
M  V30 28776 O 2702.11 0.780341 1.77832 0
M  V30 28777 C 2699.24 1.76622 2.99035 0
M  V30 28778 C 2698.19 2.91587 3.13307 0
M  V30 28779 C 2697.52 2.83802 4.53167 0
M  V30 28780 C 2698.82 4.32457 2.92879 0
M  V30 28781 H 2700.51 2.62419 1.44141 0
M  V30 28782 H 2698.06 1.26283 0.692001 0
M  V30 28783 H 2700.01 1.89156 3.76561 0
M  V30 28784 H 2698.73 0.803296 3.16567 0
M  V30 28785 H 2697.39 2.78662 2.38208 0
M  V30 28786 H 2697.04 1.85408 4.67582 0
M  V30 28787 H 2696.74 3.60967 4.63656 0
M  V30 28788 H 2698.26 2.98351 5.32747 0
M  V30 28789 H 2699.68 4.46039 3.6017 0
M  V30 28790 H 2698.08 5.10881 3.14835 0
M  V30 28791 H 2699.15 4.46568 1.88958 0
M  V30 28792 N 2700.49 -0.747586 1.3874 0
M  V30 28793 C 2701.44 -1.86144 1.36452 0
M  V30 28794 C 2702.41 -1.64554 0.226127 0
M  V30 28795 O 2703.59 -1.86136 0.419293 0
M  V30 28796 C 2700.73 -3.23514 1.20136 0
M  V30 28797 C 2699.84 -3.56895 2.43413 0
M  V30 28798 C 2698.98 -4.83601 2.19781 0
M  V30 28799 C 2698.02 -5.09786 3.38799 0
M  V30 28800 N 2697.15 -6.2769 3.14564 0
M  V30 28801 H 2701.99 -1.87434 2.31673 0
M  V30 28802 H 2699.53 -0.916043 1.15096 0
M  V30 28803 H 2701.49 -4.02793 1.0869 0
M  V30 28804 H 2700.12 -3.21535 0.285509 0
M  V30 28805 H 2699.17 -2.72414 2.65509 0
M  V30 28806 H 2700.48 -3.7217 3.321 0
M  V30 28807 H 2699.64 -5.70835 2.05506 0
M  V30 28808 H 2698.38 -4.70475 1.28469 0
M  V30 28809 H 2697.38 -4.21019 3.53586 0
M  V30 28810 H 2698.61 -5.24805 4.30995 0
M  V30 28811 H 2696.55 -6.15876 2.25904 0
M  V30 28812 H 2696.47 -6.43493 3.96802 0
M  V30 28813 H 2697.74 -7.17796 3.03956 0
M  V30 28814 N 2701.97 -1.23709 -0.97642 0
M  V30 28815 C 2703.21 -1.06945 -1.71485 0
M  V30 28816 C 2703.54 0.393863 -1.90981 0
M  V30 28817 O 2702.81 1.28196 -1.48131 0
M  V30 28818 H 2701.39 -0.39275 -0.635418 0
M  V30 28819 H 2704.05 -1.55489 -1.17512 0
M  V30 28820 H 2703.14 -1.56056 -2.70283 0
M  V30 28821 N 2703.44 1.17579 -1.04943 0
M  V30 28822 C 2704.41 2.19716 -0.652494 0
M  V30 28823 C 2705.41 1.58076 0.294717 0
M  V30 28824 O 2706.6 1.74021 0.0789273 0
M  V30 28825 C 2703.73 3.40874 0.0420113 0
M  V30 28826 H 2704.92 2.56348 -1.55647 0
M  V30 28827 H 2702.48 1.31616 -0.843019 0
M  V30 28828 H 2703.21 3.09785 0.959376 0
M  V30 28829 H 2703 3.8686 -0.638912 0
M  V30 28830 H 2704.49 4.16478 0.305927 0
M  V30 28831 N 2704.92 0.830104 1.33967 0
M  V30 28832 C 2706.15 0.434178 2.01986 0
M  V30 28833 C 2706.56 -0.966682 1.6264 0
M  V30 28834 O 2705.9 -1.6382 0.83118 0
M  V30 28835 C 2705.97 0.465081 3.56479 0
M  V30 28836 C 2705.63 1.82052 4.19173 0
M  V30 28837 C 2706.63 2.78245 4.39176 0
M  V30 28838 C 2704.31 2.11097 4.55789 0
M  V30 28839 C 2706.31 4.01651 4.9493 0
M  V30 28840 C 2703.99 3.34761 5.11252 0
M  V30 28841 C 2704.99 4.29854 5.30767 0
M  V30 28842 O 2704.68 5.51332 5.85054 0
M  V30 28843 H 2704.41 0.171651 0.653844 0
M  V30 28844 H 2706.96 1.12174 1.72064 0
M  V30 28845 H 2705.19 -0.279216 3.85691 0
M  V30 28846 H 2706.88 0.0882048 4.05804 0
M  V30 28847 H 2707.65 2.57104 4.11245 0
M  V30 28848 H 2703.53 1.37878 4.39899 0
M  V30 28849 H 2707.07 4.75885 5.10078 0
M  V30 28850 H 2702.97 3.55762 5.38613 0
M  V30 28851 H 2703.74 5.52951 6.0348 0
M  V30 28852 N 2706.4 -1.46311 0.585725 0
M  V30 28853 C 2707.33 -2.28463 -0.183647 0
M  V30 28854 C 2708.35 -1.38688 -0.852615 0
M  V30 28855 O 2709.54 -1.63261 -0.721672 0
M  V30 28856 C 2706.64 -3.1381 -1.27971 0
M  V30 28857 C 2705.81 -4.31728 -0.702088 0
M  V30 28858 C 2704.87 -4.9845 -1.68624 0
M  V30 28859 O 2703.89 -5.55947 -1.22111 0
M  V30 28860 N 2705.1 -4.95735 -3.02039 0
M  V30 28861 H 2707.86 -2.95134 0.521178 0
M  V30 28862 H 2705.42 -1.56257 0.423701 0
M  V30 28863 H 2707.41 -3.55311 -1.93743 0
M  V30 28864 H 2705.98 -2.49194 -1.88736 0
M  V30 28865 H 2705.2 -3.93975 0.13317 0
M  V30 28866 H 2706.49 -5.07938 -0.296012 0
M  V30 28867 H 2705.89 -4.50272 -3.42449 0
M  V30 28868 H 2704.45 -5.41167 -3.63292 0
M  V30 28869 N 2707.88 -0.323668 -1.54241 0
M  V30 28870 C 2708.83 0.557764 -2.25814 0
M  V30 28871 C 2709.82 1.11847 -1.27227 0
M  V30 28872 O 2711.03 1.06649 -1.45003 0
M  V30 28873 H 2707.4 0.198519 -0.725323 0
M  V30 28874 H 2709.37 -0.0681636 -2.98322 0
M  V30 28875 C 2708.12 1.70696 -3.02916 0
M  V30 28876 H 2707.45 1.28476 -3.78595 0
M  V30 28877 H 2708.89 2.29929 -3.56242 0
M  V30 28878 C 2707.34 2.62463 -2.11222 0
M  V30 28879 O 2707.87 3.64181 -1.69514 0
M  V30 28880 N 2706.08 2.307 -1.76708 0
M  V30 28881 H 2705.63 1.48025 -2.10823 0
M  V30 28882 H 2705.59 2.92362 -1.15636 0
M  V30 28883 N 2709.36 1.57515 -0.0518432 0
M  V30 28884 C 2710.31 2.12753 0.940158 0
M  V30 28885 C 2711.3 1.0595 1.32178 0
M  V30 28886 O 2712.51 1.24357 1.30135 0
M  V30 28887 H 2708.88 0.680021 0.321054 0
M  V30 28888 H 2710.85 2.95 0.449165 0
M  V30 28889 C 2709.6 2.68803 2.20545 0
M  V30 28890 H 2708.92 3.50647 1.9206 0
M  V30 28891 H 2710.36 3.11073 2.88114 0
M  V30 28892 C 2708.82 1.62611 2.95058 0
M  V30 28893 O 2709.35 1.03928 3.88023 0
M  V30 28894 N 2707.56 1.34115 2.57801 0
M  V30 28895 H 2707.11 1.82023 1.82278 0
M  V30 28896 H 2707.06 0.632927 3.07963 0
M  V30 28897 N 2710.84 -0.221546 1.56035 0
M  V30 28898 C 2711.75 -1.29554 1.95583 0
M  V30 28899 C 2712.76 -1.5128 0.859665 0
M  V30 28900 O 2713.94 -1.64411 1.16323 0
M  V30 28901 C 2711 -2.62527 2.26452 0
M  V30 28902 C 2710.06 -2.49104 3.49637 0
M  V30 28903 C 2709.3 -3.75735 3.79023 0
M  V30 28904 O 2709.52 -4.78752 3.10086 0
M  V30 28905 O 2708.45 -3.72847 4.72513 0
M  V30 28906 H 2712.28 -0.989984 2.87111 0
M  V30 28907 H 2709.86 -0.424409 1.43245 0
M  V30 28908 H 2711.75 -3.4106 2.475 0
M  V30 28909 H 2710.42 -2.92764 1.38097 0
M  V30 28910 H 2709.33 -1.68771 3.33867 0
M  V30 28911 H 2710.66 -2.23806 4.38374 0
M  V30 28912 N 2712.31 -1.49846 -0.48825 0
M  V30 28913 C 2713.56 -1.59219 -1.23823 0
M  V30 28914 C 2713.88 -0.29 -1.93438 0
M  V30 28915 O 2715.08 -0.26243 -2.70229 0
M  V30 28916 C 2713.54 -2.8098 -2.24897 0
M  V30 28917 C 2713.15 -4.18008 -1.61162 0
M  V30 28918 C 2714.89 -2.9969 -3.00643 0
M  V30 28919 C 2712.8 -5.30975 -2.60422 0
M  V30 28920 H 2711.73 -0.592876 -0.465847 0
M  V30 28921 H 2714.38 -1.76253 -0.510614 0
M  V30 28922 H 2712.76 -2.57468 -3.00876 0
M  V30 28923 H 2713.93 -4.51707 -0.910888 0
M  V30 28924 H 2712.25 -4.04762 -0.977599 0
M  V30 28925 H 2714.85 -3.81257 -3.74896 0
M  V30 28926 H 2715.19 -2.10745 -3.59016 0
M  V30 28927 H 2715.72 -3.23301 -2.31778 0
M  V30 28928 H 2712.46 -6.2202 -2.06812 0
M  V30 28929 H 2711.98 -5.01715 -3.28698 0
M  V30 28930 H 2713.66 -5.60839 -3.22596 0
M  V30 28931 N 2713.79 0.740218 -1.39135 0
M  V30 28932 C 2714.74 1.85417 -1.37437 0
M  V30 28933 C 2715.71 1.64431 -0.234851 0
M  V30 28934 O 2716.89 1.85911 -0.429158 0
M  V30 28935 C 2714.03 3.22873 -1.2185 0
M  V30 28936 C 2713.15 3.55599 -2.45302 0
M  V30 28937 C 2712.28 4.82428 -2.22343 0
M  V30 28938 C 2711.32 5.07982 -3.41497 0
M  V30 28939 N 2710.46 6.26012 -3.17888 0
M  V30 28940 H 2715.3 1.86203 -2.32664 0
M  V30 28941 H 2712.83 0.909926 -1.1558 0
M  V30 28942 H 2714.79 4.02211 -1.10825 0
M  V30 28943 H 2713.42 3.21379 -0.302557 0
M  V30 28944 H 2712.47 2.71002 -2.6695 0
M  V30 28945 H 2713.79 3.70404 -3.34069 0
M  V30 28946 H 2712.94 5.69737 -2.0853 0
M  V30 28947 H 2711.68 4.69787 -1.30962 0
M  V30 28948 H 2710.68 4.19138 -3.55814 0
M  V30 28949 H 2711.91 5.22512 -4.33772 0
M  V30 28950 H 2709.86 6.14669 -2.29167 0
M  V30 28951 H 2709.77 6.4138 -4.00209 0
M  V30 28952 H 2711.04 7.16174 -3.07758 0
M  V30 28953 N 2715.27 1.24225 0.969846 0
M  V30 28954 C 2716.22 0.999768 2.04911 0
M  V30 28955 C 2717.2 -0.0580353 1.60795 0
M  V30 28956 O 2718.4 0.155423 1.76316 0
M  V30 28957 C 2715.52 0.604213 3.37941 0
M  V30 28958 C 2714.61 1.69798 3.88625 0
M  V30 28959 N 2715 2.93032 4.12269 0
M  V30 28960 C 2713.3 1.575 4.17265 0
M  V30 28961 C 2714 3.63922 4.53802 0
M  V30 28962 N 2712.98 2.91476 4.5885 0
M  V30 28963 H 2716.78 1.93555 2.21164 0
M  V30 28964 H 2714.29 1.14319 1.15347 0
M  V30 28965 H 2716.29 0.411738 4.14862 0
M  V30 28966 H 2714.95 -0.324408 3.23075 0
M  V30 28967 H 2715.96 3.29232 3.99783 0
M  V30 28968 H 2712.64 0.714248 4.11345 0
M  V30 28969 H 2714.03 4.69622 4.80526 0
M  V30 28970 N 2716.75 -1.1702 1.05565 0
M  V30 28971 C 2718 -1.86709 0.763069 0
M  V30 28972 C 2718.31 -1.82149 -0.712825 0
M  V30 28973 O 2719.52 -2.47345 -1.1195 0
M  V30 28974 C 2717.97 -3.35024 1.3148 0
M  V30 28975 C 2717.58 -3.48077 2.8204 0
M  V30 28976 C 2719.32 -4.10016 1.09942 0
M  V30 28977 C 2717.23 -4.90436 3.30495 0
M  V30 28978 H 2716.16 -0.699377 0.281759 0
M  V30 28979 H 2718.81 -1.32122 1.27342 0
M  V30 28980 H 2717.19 -3.89171 0.73224 0
M  V30 28981 H 2718.37 -3.04127 3.46184 0
M  V30 28982 H 2716.68 -2.8651 3.02161 0
M  V30 28983 H 2719.28 -5.15045 1.43641 0
M  V30 28984 H 2719.62 -4.16283 0.0373804 0
M  V30 28985 H 2720.16 -3.62086 1.64738 0
M  V30 28986 H 2716.89 -4.89344 4.36145 0
M  V30 28987 H 2716.41 -5.3504 2.71095 0
M  V30 28988 H 2718.09 -5.59222 3.25392 0
M  V30 28989 N 2718.23 -0.837197 -1.33524 0
M  V30 28990 C 2719.46 -0.444884 -2.01753 0
M  V30 28991 C 2719.86 0.958043 -1.63151 0
M  V30 28992 O 2719.21 1.63377 -0.839856 0
M  V30 28993 C 2719.27 -0.483979 -3.56227 0
M  V30 28994 C 2718.93 -1.84273 -4.18202 0
M  V30 28995 C 2719.93 -2.8057 -4.37694 0
M  V30 28996 C 2717.61 -2.13511 -4.54663 0
M  V30 28997 C 2719.61 -4.0427 -4.92793 0
M  V30 28998 C 2717.3 -3.37467 -5.09469 0
M  V30 28999 C 2718.29 -4.32663 -5.2848 0
M  V30 29000 O 2717.98 -5.54427 -5.82122 0
M  V30 29001 H 2717.71 -0.175116 -0.652925 0
M  V30 29002 H 2720.27 -1.13085 -1.71467 0
M  V30 29003 H 2718.5 0.258758 -3.85833 0
M  V30 29004 H 2720.19 -0.109724 -4.05752 0
M  V30 29005 H 2720.95 -2.59282 -4.09876 0
M  V30 29006 H 2716.83 -1.40209 -4.39161 0
M  V30 29007 H 2720.38 -4.78583 -5.07547 0
M  V30 29008 H 2716.27 -3.58614 -5.36718 0
M  V30 29009 H 2717.04 -5.56144 -6.00539 0
M  V30 29010 N 2719.7 1.45999 -0.593476 0
M  V30 29011 C 2720.67 2.28867 0.123497 0
M  V30 29012 C 2721.67 1.3899 0.808604 0
M  V30 29013 O 2722.86 1.61257 0.658916 0
M  V30 29014 C 2719.99 3.19655 1.18464 0
M  V30 29015 H 2721.18 2.93736 -0.604894 0
M  V30 29016 H 2718.73 1.52287 -0.351902 0
M  V30 29017 H 2719.47 2.59555 1.94426 0
M  V30 29018 H 2719.25 3.85842 0.697762 0
M  V30 29019 H 2720.74 3.82 1.68719 0
M  V30 29020 N 2721.18 0.331843 1.54067 0
M  V30 29021 C 2722.43 -0.269173 1.99896 0
M  V30 29022 C 2722.74 -1.52591 1.22374 0
M  V30 29023 O 2723.95 -2.20344 1.58621 0
M  V30 29024 C 2722.41 -0.530182 3.55973 0
M  V30 29025 C 2722.01 0.709978 4.42338 0
M  V30 29026 C 2723.76 -1.0907 4.10249 0
M  V30 29027 C 2721.67 0.420416 5.89904 0
M  V30 29028 H 2720.6 -0.104358 0.746743 0
M  V30 29029 H 2723.25 0.445355 1.78014 0
M  V30 29030 H 2721.63 -1.30511 3.73875 0
M  V30 29031 H 2722.8 1.48512 4.36212 0
M  V30 29032 H 2721.12 1.1913 3.98995 0
M  V30 29033 H 2723.71 -1.3221 5.18097 0
M  V30 29034 H 2724.06 -2.04263 3.62743 0
M  V30 29035 H 2724.59 -0.376755 3.96012 0
M  V30 29036 H 2721.33 1.34175 6.41621 0
M  V30 29037 H 2720.85 -0.316857 5.98962 0
M  V30 29038 H 2722.53 0.0333093 6.46991 0
M  V30 29039 N 2722.66 -1.57485 0.0601958 0
M  V30 29040 C 2723.89 -1.97778 -0.624381 0
M  V30 29041 C 2724.31 -0.937896 -1.63049 0
M  V30 29042 O 2723.67 0.0978527 -1.81036 0
M  V30 29043 C 2723.72 -3.37128 -1.27973 0
M  V30 29044 O 2722.82 -3.35692 -2.3955 0
M  V30 29045 H 2722.16 -0.644043 -0.16157 0
M  V30 29046 H 2724.69 -2.04178 0.131272 0
M  V30 29047 H 2724.7 -3.74056 -1.6293 0
M  V30 29048 H 2723.38 -4.12348 -0.542428 0
M  V30 29049 H 2721.95 -3.10521 -2.06473 0
M  V30 29050 N 2724.14 0.213268 -1.5615 0
M  V30 29051 C 2725.36 0.95725 -1.83988 0
M  V30 29052 C 2725.79 1.76821 -0.641557 0
M  V30 29053 O 2725.15 1.7661 0.409691 0
M  V30 29054 C 2725.19 1.84388 -3.09893 0
M  V30 29055 O 2724.3 2.94033 -2.89168 0
M  V30 29056 H 2723.64 0.270595 -0.606362 0
M  V30 29057 H 2726.17 0.224076 -2.03369 0
M  V30 29058 H 2726.18 2.25209 -3.40213 0
M  V30 29059 H 2724.85 1.24788 -3.96738 0
M  V30 29060 H 2723.43 2.57098 -2.70101 0
M  V30 29061 N 2725.62 1.50103 0.480296 0
M  V30 29062 C 2726.58 1.67753 1.56178 0
M  V30 29063 C 2727.58 0.548529 1.51155 0
M  V30 29064 O 2728.77 0.81539 1.53938 0
M  V30 29065 C 2725.9 1.6942 2.9582 0
M  V30 29066 H 2727.09 2.64232 1.4185 0
M  V30 29067 H 2724.65 1.39445 0.706025 0
M  V30 29068 H 2725.38 0.746003 3.15603 0
M  V30 29069 H 2725.17 2.5143 3.00874 0
M  V30 29070 H 2726.66 1.85061 3.74356 0
M  V30 29071 N 2727.09 -0.732829 1.39526 0
M  V30 29072 C 2728.06 -1.82854 1.38192 0
M  V30 29073 C 2729.06 -1.58367 0.278651 0
M  V30 29074 O 2730.25 -1.65727 0.536668 0
M  V30 29075 C 2727.38 -3.20678 1.15666 0
M  V30 29076 H 2728.57 -1.8544 2.35695 0
M  V30 29077 H 2726.13 -0.936706 1.25122 0
M  V30 29078 H 2726.86 -3.23751 0.188539 0
M  V30 29079 H 2726.65 -3.39848 1.95565 0
M  V30 29080 H 2728.14 -4.00735 1.17479 0
M  V30 29081 N 2728.57 -1.24737 -0.963244 0
M  V30 29082 C 2729.5 -1.06836 -2.07626 0
M  V30 29083 C 2730.48 0.0200267 -1.70088 0
M  V30 29084 O 2731.67 -0.147888 -1.93636 0
M  V30 29085 C 2728.8 -0.677129 -3.40635 0
M  V30 29086 C 2727.75 -1.71478 -3.92147 0
M  V30 29087 C 2727.08 -1.17849 -5.21551 0
M  V30 29088 C 2728.38 -3.11172 -4.19487 0
M  V30 29089 H 2730.07 -1.99934 -2.2286 0
M  V30 29090 H 2727.62 -0.962679 -1.07091 0
M  V30 29091 H 2729.57 -0.538866 -4.1794 0
M  V30 29092 H 2728.3 0.289554 -3.25314 0
M  V30 29093 H 2726.95 -1.84134 -3.17002 0
M  V30 29094 H 2726.6 -0.202284 -5.02593 0
M  V30 29095 H 2726.3 -1.87195 -5.56985 0
M  V30 29096 H 2727.83 -1.05244 -6.01462 0
M  V30 29097 H 2729.24 -3.01719 -4.87482 0
M  V30 29098 H 2727.64 -3.77911 -4.66158 0
M  V30 29099 H 2728.71 -3.58877 -3.26091 0
M  V30 29100 N 2730.05 1.16459 -1.06184 0
M  V30 29101 C 2731.28 1.91407 -0.798633 0
M  V30 29102 C 2731.7 1.76843 0.640956 0
M  V30 29103 O 2731.06 1.09298 1.4465 0
M  V30 29104 C 2731.11 3.40163 -1.19671 0
M  V30 29105 O 2730.21 4.11038 -0.33484 0
M  V30 29106 H 2729.55 0.596363 -0.291972 0
M  V30 29107 H 2732.08 1.47555 -1.41735 0
M  V30 29108 H 2732.09 3.90931 -1.16779 0
M  V30 29109 H 2730.77 3.50083 -2.24532 0
M  V30 29110 H 2729.34 3.70468 -0.425233 0
M  V30 29111 N 2731.53 0.844266 1.33079 0
M  V30 29112 C 2732.49 0.286525 2.27402 0
M  V30 29113 C 2733.49 -0.547845 1.5118 0
M  V30 29114 O 2734.68 -0.360856 1.70421 0
M  V30 29115 C 2731.81 -0.595754 3.35654 0
M  V30 29116 H 2733.01 1.1189 2.78246 0
M  V30 29117 H 2730.56 0.617774 1.43573 0
M  V30 29118 H 2731.29 -1.45035 2.90061 0
M  V30 29119 H 2731.08 0.00132887 3.921 0
M  V30 29120 H 2732.57 -0.979097 4.0596 0
M  V30 29121 N 2733.01 -1.45682 0.60121 0
M  V30 29122 C 2734.23 -2.07167 0.0982609 0
M  V30 29123 C 2734.66 -1.44398 -1.20544 0
M  V30 29124 O 2734.01 -0.534378 -1.73246 0
M  V30 29125 C 2734.06 -3.60583 -0.0346342 0
M  V30 29126 O 2733.17 -3.9783 -1.0865 0
M  V30 29127 H 2732.51 -0.660174 0.0711734 0
M  V30 29128 H 2735.04 -1.87035 0.829409 0
M  V30 29129 H 2735.05 -4.07323 -0.234897 0
M  V30 29130 H 2733.72 -4.05657 0.917336 0
M  V30 29131 H 2732.3 -3.62771 -0.863211 0
M  V30 29132 N 2734.48 -0.340009 -1.53889 0
M  V30 29133 C 2735.71 0.258702 -2.04974 0
M  V30 29134 C 2736.12 1.45043 -1.21487 0
M  V30 29135 O 2735.47 1.82096 -0.242232 0
M  V30 29136 C 2735.53 0.740791 -3.51785 0
M  V30 29137 C 2735.19 -0.330814 -4.55801 0
M  V30 29138 C 2736.19 -1.17235 -5.0651 0
M  V30 29139 C 2733.87 -0.483725 -4.99965 0
M  V30 29140 C 2735.87 -2.15238 -5.9996 0
M  V30 29141 C 2733.55 -1.46715 -5.93227 0
M  V30 29142 C 2734.55 -2.29993 -6.43111 0
M  V30 29143 O 2734.24 -3.26662 -7.34539 0
M  V30 29144 H 2733.97 0.0543919 -0.673808 0
M  V30 29145 H 2736.53 -0.489142 -1.99491 0
M  V30 29146 H 2734.76 1.53982 -3.5472 0
M  V30 29147 H 2736.45 1.25966 -3.85859 0
M  V30 29148 H 2737.21 -1.06528 -4.73156 0
M  V30 29149 H 2733.09 0.154629 -4.60741 0
M  V30 29150 H 2736.63 -2.80276 -6.3882 0
M  V30 29151 H 2732.53 -1.57479 -6.25996 0
M  V30 29152 H 2733.3 -3.22092 -7.52462 0
M  V30 29153 N 2735.96 1.57451 -0.0685468 0
M  V30 29154 C 2736.91 2.12537 0.899824 0
M  V30 29155 C 2737.88 1.03705 1.29748 0
M  V30 29156 O 2739.07 1.3135 1.3839 0
M  V30 29157 C 2736.21 2.68884 2.16323 0
M  V30 29158 C 2735.32 3.9186 1.8185 0
M  V30 29159 C 2734.45 4.36462 3.02778 0
M  V30 29160 C 2733.49 5.52094 2.64307 0
M  V30 29161 N 2732.63 5.91669 3.77984 0
M  V30 29162 H 2737.47 2.9498 0.423191 0
M  V30 29163 H 2735.01 1.45772 0.197242 0
M  V30 29164 H 2736.96 2.9966 2.90275 0
M  V30 29165 H 2735.59 1.89211 2.61532 0
M  V30 29166 H 2734.65 3.67567 0.979743 0
M  V30 29167 H 2735.96 4.75855 1.49545 0
M  V30 29168 H 2735.11 4.68882 3.85012 0
M  V30 29169 H 2733.85 3.51314 3.38275 0
M  V30 29170 H 2732.86 5.19329 1.80494 0
M  V30 29171 H 2734.08 6.38971 2.29984 0
M  V30 29172 H 2732.03 5.09472 4.13249 0
M  V30 29173 H 2731.94 6.70396 3.49435 0
M  V30 29174 H 2733.21 6.28711 4.60807 0
M  V30 29175 N 2737.44 -0.204984 1.56261 0
M  V30 29176 C 2738.4 -1.23768 1.9291 0
M  V30 29177 C 2739.4 -1.38953 0.809233 0
M  V30 29178 O 2740.59 -1.36935 1.07678 0
M  V30 29179 C 2737.73 -2.60875 2.19447 0
M  V30 29180 H 2738.92 -0.924678 2.85289 0
M  V30 29181 H 2736.47 -0.446098 1.49799 0
M  V30 29182 H 2737.21 -2.97246 1.29674 0
M  V30 29183 H 2736.99 -2.51226 3.01044 0
M  V30 29184 H 2738.48 -3.35364 2.48839 0
M  V30 29185 N 2738.92 -1.50356 -0.472329 0
M  V30 29186 C 2740.2 -1.518 -1.23353 0
M  V30 29187 C 2740.58 -0.261967 -2.09468 0
M  V30 29188 O 2739.92 0.754653 -2.15679 0
M  V30 29189 C 2740.13 -2.81305 -2.06563 0
M  V30 29190 C 2741.48 -3.31918 -2.64794 0
M  V30 29191 O 2742.51 -2.82618 -2.16807 0
M  V30 29192 O 2741.37 -4.17853 -3.52224 0
M  V30 29193 H 2738.46 -0.608826 -0.559697 0
M  V30 29194 H 2741.01 -1.62644 -0.484252 0
M  V30 29195 H 2739.78 -3.64197 -1.43096 0
M  V30 29196 H 2739.4 -2.73459 -2.88628 0
M  V30 29197 N 2740.4 0.725419 -1.39912 0
M  V30 29198 C 2741.63 1.51461 -1.40951 0
M  V30 29199 C 2742.04 1.88799 -0.00655738 0
M  V30 29200 O 2741.4 1.54767 0.967136 0
M  V30 29201 C 2741.45 2.79615 -2.29123 0
M  V30 29202 O 2741.17 2.43859 -3.63956 0
M  V30 29203 C 2742.67 3.7358 -2.38649 0
M  V30 29204 H 2739.89 0.467744 -0.4811 0
M  V30 29205 H 2742.43 0.895619 -1.83845 0
M  V30 29206 H 2740.59 3.37822 -1.89618 0
M  V30 29207 H 2741 3.26251 -4.10683 0
M  V30 29208 H 2742.48 4.6037 -3.04572 0
M  V30 29209 H 2742.95 4.16001 -1.40853 0
M  V30 29210 H 2743.56 3.21288 -2.78665 0
M  V30 29211 N 2741.88 1.25246 0.956615 0
M  V30 29212 C 2743.12 1.10039 1.7035 0
M  V30 29213 C 2743.45 -0.358122 1.90869 0
M  V30 29214 O 2742.73 -1.26408 1.47822 0
M  V30 29215 C 2743.01 1.85304 3.08763 0
M  V30 29216 C 2742.87 3.38972 2.95666 0
M  V30 29217 C 2744.18 1.63458 4.08619 0
M  V30 29218 H 2741.3 0.401134 0.618272 0
M  V30 29219 H 2743.95 1.54053 1.1121 0
M  V30 29220 H 2742.1 1.47893 3.59249 0
M  V30 29221 H 2743.77 3.86045 2.5252 0
M  V30 29222 H 2742.01 3.66785 2.31628 0
M  V30 29223 H 2742.68 3.86846 3.93769 0
M  V30 29224 H 2745.16 1.96022 3.67035 0
M  V30 29225 H 2744.03 2.1856 5.03511 0
M  V30 29226 H 2744.29 0.575434 4.38339 0
M  V30 29227 N 2743.35 -1.15894 1.068 0
M  V30 29228 C 2744.32 -2.1865 0.687366 0
M  V30 29229 C 2745.32 -1.58525 -0.269532 0
M  V30 29230 O 2746.51 -1.74125 -0.0512321 0
M  V30 29231 C 2743.64 -3.40898 0.0122241 0
M  V30 29232 H 2744.83 -2.53839 1.59705 0
M  V30 29233 H 2742.38 -1.30259 0.863851 0
M  V30 29234 H 2743.12 -3.11272 -0.90997 0
M  V30 29235 H 2742.9 -3.85794 0.700377 0
M  V30 29236 H 2744.39 -4.16912 -0.23963 0
M  V30 29237 N 2744.83 -0.851312 -1.32629 0
M  V30 29238 C 2745.78 -0.291509 -2.28952 0
M  V30 29239 C 2746.75 0.599649 -1.54898 0
M  V30 29240 O 2747.93 0.535272 -1.83138 0
M  V30 29241 C 2745.07 0.516932 -3.41206 0
M  V30 29242 C 2744.19 -0.399642 -4.30147 0
M  V30 29243 C 2743.32 0.421106 -5.29528 0
M  V30 29244 C 2742.36 -0.493076 -6.10111 0
M  V30 29245 N 2741.5 0.29029 -7.015 0
M  V30 29246 H 2746.34 -1.11818 -2.76226 0
M  V30 29247 H 2743.87 -0.56285 -1.35906 0
M  V30 29248 H 2745.83 1.00125 -4.05007 0
M  V30 29249 H 2744.46 1.30846 -2.95092 0
M  V30 29250 H 2743.51 -1.00233 -3.66957 0
M  V30 29251 H 2744.83 -1.10139 -4.86488 0
M  V30 29252 H 2743.98 0.968727 -5.98916 0
M  V30 29253 H 2742.72 1.15623 -4.73796 0
M  V30 29254 H 2741.72 -1.05261 -5.3963 0
M  V30 29255 H 2742.95 -1.22676 -6.67928 0
M  V30 29256 H 2740.9 1.00857 -6.482 0
M  V30 29257 H 2740.81 -0.352487 -7.55178 0
M  V30 29258 H 2742.08 0.819746 -7.75178 0
M  V30 29259 N 2746.31 1.45361 -0.608928 0
M  V30 29260 C 2747.56 2.02529 -0.104798 0
M  V30 29261 C 2747.89 1.47615 1.26188 0
M  V30 29262 O 2747.16 0.651373 1.83269 0
M  V30 29263 C 2747.45 3.60037 -0.0673294 0
M  V30 29264 C 2747.3 4.25282 -1.46477 0
M  V30 29265 C 2748.62 4.35714 0.619801 0
M  V30 29266 H 2745.74 0.735938 -0.0395568 0
M  V30 29267 H 2748.38 1.73199 -0.781156 0
M  V30 29268 H 2746.53 3.85156 0.508642 0
M  V30 29269 H 2748.2 4.11343 -2.08792 0
M  V30 29270 H 2746.44 3.83631 -2.02509 0
M  V30 29271 H 2747.12 5.34192 -1.39078 0
M  V30 29272 H 2749.59 4.15896 0.130224 0
M  V30 29273 H 2748.47 5.45442 0.615128 0
M  V30 29274 H 2748.73 4.08683 1.68613 0
M  V30 29275 N 2747.79 0.348166 1.53706 0
M  V30 29276 C 2748.72 -0.540907 2.22726 0
M  V30 29277 C 2749.73 -1.06025 1.23541 0
M  V30 29278 O 2750.92 -0.969614 1.49869 0
M  V30 29279 C 2748.02 -1.75763 2.8976 0
M  V30 29280 C 2747.19 -1.37278 4.15299 0
M  V30 29281 C 2746.25 -2.44967 4.65701 0
M  V30 29282 O 2745.28 -2.08082 5.29802 0
M  V30 29283 N 2746.48 -3.76292 4.42023 0
M  V30 29284 H 2749.25 0.0502119 2.99658 0
M  V30 29285 H 2746.81 0.172508 1.60978 0
M  V30 29286 H 2748.8 -2.47247 3.20392 0
M  V30 29287 H 2747.37 -2.25601 2.16386 0
M  V30 29288 H 2746.59 -0.488515 3.91161 0
M  V30 29289 H 2747.88 -1.0917 4.9695 0
M  V30 29290 H 2747.28 -4.09044 3.90768 0
M  V30 29291 H 2745.83 -4.43932 4.7725 0
M  V30 29292 N 2749.27 -1.57412 0.0768958 0
M  V30 29293 C 2750.51 -1.933 -0.589884 0
M  V30 29294 C 2750.83 -0.958079 -1.69841 0
M  V30 29295 O 2750.1 -0.00706705 -1.95899 0
M  V30 29296 H 2748.68 -0.713595 -0.220888 0
M  V30 29297 H 2751.35 -1.94425 0.135951 0
M  V30 29298 H 2750.44 -2.95241 -1.0119 0
M  V30 29299 N 2750.74 0.196695 -1.56368 0
M  V30 29300 C 2751.99 0.918693 -1.80798 0
M  V30 29301 C 2752.32 1.82975 -0.650677 0
M  V30 29302 O 2751.6 1.91346 0.348856 0
M  V30 29303 C 2751.88 1.7363 -3.15475 0
M  V30 29304 C 2751.73 0.850073 -4.41694 0
M  V30 29305 C 2753.05 2.7092 -3.46829 0
M  V30 29306 H 2750.17 0.33255 -0.657708 0
M  V30 29307 H 2752.81 0.186153 -1.89086 0
M  V30 29308 H 2750.96 2.36083 -3.08541 0
M  V30 29309 H 2752.64 0.240378 -4.60673 0
M  V30 29310 H 2750.88 0.156709 -4.33517 0
M  V30 29311 H 2751.55 1.4571 -5.32422 0
M  V30 29312 H 2754.03 2.186 -3.54052 0
M  V30 29313 H 2752.9 3.25212 -4.42186 0
M  V30 29314 H 2753.16 3.49888 -2.70242 0
M  V30 29315 N 2752.22 1.50604 0.464349 0
M  V30 29316 C 2753.13 1.72757 1.5872 0
M  V30 29317 C 2754.15 0.610872 1.62924 0
M  V30 29318 O 2755.32 0.889995 1.80668 0
M  V30 29319 C 2752.39 1.82314 2.94894 0
M  V30 29320 C 2751.45 3.06077 3.01024 0
M  V30 29321 C 2750.68 3.15168 4.30703 0
M  V30 29322 O 2750.91 2.30877 5.21586 0
M  V30 29323 O 2749.84 4.07947 4.42564 0
M  V30 29324 H 2753.67 2.67954 1.42949 0
M  V30 29325 H 2751.25 1.34781 0.644555 0
M  V30 29326 H 2753.13 1.90741 3.7576 0
M  V30 29327 H 2751.81 0.903022 3.10849 0
M  V30 29328 H 2750.72 3.03146 2.19211 0
M  V30 29329 H 2752.05 3.97689 2.90007 0
M  V30 29330 N 2753.7 -0.717989 1.40295 0
M  V30 29331 C 2754.95 -1.47783 1.38443 0
M  V30 29332 C 2755.28 -1.94495 -0.0140497 0
M  V30 29333 O 2754.53 -1.68332 -0.998135 0
M  V30 29334 C 2754.83 -2.7202 2.31819 0
M  V30 29335 C 2754.5 -2.44086 3.79121 0
M  V30 29336 C 2753.16 -2.36178 4.19253 0
M  V30 29337 C 2755.51 -2.20593 4.72216 0
M  V30 29338 C 2752.84 -2.02842 5.5052 0
M  V30 29339 C 2755.19 -1.8877 6.03779 0
M  V30 29340 C 2753.85 -1.79342 6.42956 0
M  V30 29341 H 2753.12 -0.540777 0.506598 0
M  V30 29342 H 2755.77 -0.822632 1.72931 0
M  V30 29343 H 2754.08 -3.42366 1.90507 0
M  V30 29344 H 2755.77 -3.30102 2.2767 0
M  V30 29345 H 2752.36 -2.51127 3.47323 0
M  V30 29346 H 2756.55 -2.25661 4.4203 0
M  V30 29347 H 2751.8 -1.94078 5.79779 0
M  V30 29348 H 2755.98 -1.69605 6.75431 0
M  V30 29349 H 2753.6 -1.53278 7.44587 0
M  V30 29350 N 2755.18 -1.25752 -0.94996 0
M  V30 29351 C 2756.4 -1.13631 -1.73501 0
M  V30 29352 C 2756.83 0.305557 -1.85602 0
M  V30 29353 O 2756.19 1.22137 -1.33986 0
M  V30 29354 C 2756.23 -1.80061 -3.12427 0
M  V30 29355 O 2755.34 -1.08343 -3.97914 0
M  V30 29356 H 2754.68 -0.396449 -0.532658 0
M  V30 29357 H 2757.21 -1.66405 -1.1904 0
M  V30 29358 H 2757.22 -1.86533 -3.62863 0
M  V30 29359 H 2755.89 -2.84961 -3.02936 0
M  V30 29360 H 2754.47 -1.09784 -3.56373 0
M  V30 29361 N 2756.66 1.15326 -1.07413 0
M  V30 29362 C 2757.61 2.18092 -0.664826 0
M  V30 29363 C 2758.59 1.57878 0.310367 0
M  V30 29364 O 2759.78 1.76565 0.123995 0
M  V30 29365 C 2756.91 3.43239 -0.0648425 0
M  V30 29366 C 2756 4.10505 -1.06521 0
M  V30 29367 N 2756.39 4.53248 -2.24499 0
M  V30 29368 C 2754.69 4.36852 -0.89869 0
M  V30 29369 C 2755.39 5.05419 -2.87969 0
M  V30 29370 N 2754.36 4.99003 -2.15631 0
M  V30 29371 H 2758.17 2.48869 -1.56337 0
M  V30 29372 H 2755.68 1.31901 -0.947416 0
M  V30 29373 H 2757.68 4.16172 0.24629 0
M  V30 29374 H 2756.34 3.13944 0.828811 0
M  V30 29375 H 2757.35 4.46615 -2.62213 0
M  V30 29376 H 2754.02 4.1746 -0.0579852 0
M  V30 29377 H 2755.41 5.48445 -3.88146 0
M  V30 29378 N 2758.13 0.858334 1.32176 0
M  V30 29379 C 2759.55 0.548682 1.49872 0
M  V30 29380 C 2759.75 -0.919842 1.7928 0
M  V30 29381 O 2758.81 -1.70268 1.86454 0
M  V30 29382 C 2760.12 1.43885 2.64041 0
M  V30 29383 C 2761.67 1.43966 2.77926 0
M  V30 29384 C 2762.14 2.31513 3.95178 0
M  V30 29385 N 2763.63 2.29329 4.02446 0
M  V30 29386 C 2764.37 2.93795 4.92415 0
M  V30 29387 N 2763.86 3.67387 5.87366 0
M  V30 29388 N 2765.66 2.83163 4.85567 0
M  V30 29389 H 2757.81 1.8087 1.11354 0
M  V30 29390 H 2760.07 0.772739 0.549162 0
M  V30 29391 H 2759.78 2.48328 2.4905 0
M  V30 29392 H 2759.65 1.12891 3.5991 0
M  V30 29393 H 2762.04 0.402864 2.92337 0
M  V30 29394 H 2762.12 1.78977 1.82759 0
M  V30 29395 H 2761.76 3.35262 3.81525 0
M  V30 29396 H 2761.69 1.93832 4.89629 0
M  V30 29397 H 2764.18 1.75827 3.34504 0
M  V30 29398 H 2764.5 4.13734 6.52721 0
M  V30 29399 H 2762.84 3.71495 5.87381 0
M  V30 29400 H 2766.03 2.25218 4.10359 0
M  V30 29401 H 2766.21 3.33685 5.5548 0
M  V30 29402 N 2759.61 -1.45036 0.616628 0
M  V30 29403 C 2760.54 -2.33349 -0.0840377 0
M  V30 29404 C 2761.52 -1.47362 -0.849615 0
M  V30 29405 O 2762.71 -1.76114 -0.818376 0
M  V30 29406 C 2759.84 -3.30212 -1.07599 0
M  V30 29407 C 2758.79 -4.25904 -0.423021 0
M  V30 29408 C 2758.12 -5.12526 -1.52385 0
M  V30 29409 C 2759.42 -5.18093 0.661549 0
M  V30 29410 H 2761.11 -2.92184 0.653385 0
M  V30 29411 H 2758.66 -1.40498 0.315658 0
M  V30 29412 H 2760.61 -3.90869 -1.57479 0
M  V30 29413 H 2759.34 -2.69555 -1.84412 0
M  V30 29414 H 2757.99 -3.66559 0.0549944 0
M  V30 29415 H 2757.64 -4.48231 -2.28249 0
M  V30 29416 H 2757.34 -5.77356 -1.09241 0
M  V30 29417 H 2758.87 -5.76052 -2.02474 0
M  V30 29418 H 2760.28 -5.7277 0.246453 0
M  V30 29419 H 2758.68 -5.91449 1.01527 0
M  V30 29420 H 2759.75 -4.59978 1.53454 0
M  V30 29421 N 2761.09 -0.356312 -1.53519 0
M  V30 29422 C 2762.04 0.50974 -2.26946 0
M  V30 29423 C 2763.03 1.09123 -1.29571 0
M  V30 29424 O 2764.24 1.0355 -1.47233 0
M  V30 29425 H 2760.61 0.183089 -0.729371 0
M  V30 29426 H 2762.58 -0.131427 -2.9811 0
M  V30 29427 C 2761.33 1.64232 -3.06469 0
M  V30 29428 H 2760.66 1.20416 -3.81235 0
M  V30 29429 H 2762.1 2.22321 -3.61039 0
M  V30 29430 C 2760.56 2.57924 -2.16742 0
M  V30 29431 O 2761.09 3.60503 -1.77201 0
M  V30 29432 N 2759.29 2.269 -1.81562 0
M  V30 29433 H 2758.84 1.4352 -2.13915 0
M  V30 29434 H 2758.8 2.89844 -1.21812 0
M  V30 29435 N 2762.57 1.57369 -0.0852427 0
M  V30 29436 C 2763.8 1.98326 0.589425 0
M  V30 29437 C 2764.21 0.964059 1.62331 0
M  V30 29438 O 2763.57 -0.0476075 1.82438 0
M  V30 29439 C 2763.62 3.39349 1.24598 0
M  V30 29440 O 2763.34 4.37366 0.253455 0
M  V30 29441 C 2764.84 3.95255 2.00719 0
M  V30 29442 H 2762.06 0.651945 0.158772 0
M  V30 29443 H 2764.61 2.0386 -0.16162 0
M  V30 29444 H 2762.76 3.3486 1.94802 0
M  V30 29445 H 2763.17 5.1945 0.726115 0
M  V30 29446 H 2764.65 4.9611 2.4203 0
M  V30 29447 H 2765.13 3.32532 2.86913 0
M  V30 29448 H 2765.73 4.03187 1.35353 0
M  V30 29449 N 2764.05 -0.188399 1.5647 0
M  V30 29450 C 2765.32 -0.934028 1.71858 0
M  V30 29451 C 2765.7 -2.01104 0.641902 0
M  V30 29452 O 2765.05 -2.25864 -0.346058 0
M  V30 29453 C 2765.26 -1.51435 3.14434 0
M  V30 29454 C 2766.61 -1.99389 3.74872 0
M  V30 29455 O 2767.63 -1.61264 3.17604 0
M  V30 29456 O 2766.49 -2.69565 4.75392 0
M  V30 29457 H 2763.59 -0.43847 0.701194 0
M  V30 29458 H 2766.13 -0.17757 1.68768 0
M  V30 29459 H 2764.9 -0.738349 3.84271 0
M  V30 29460 H 2764.53 -2.33546 3.21779 0
M  V30 29461 N 2765.53 -1.50848 -0.456355 0
M  V30 29462 C 2766.77 -1.6181 -1.20418 0
M  V30 29463 C 2767.09 -0.330966 -1.9278 0
M  V30 29464 O 2768.29 -0.31969 -2.69611 0
M  V30 29465 C 2766.75 -2.85687 -2.18886 0
M  V30 29466 C 2766.36 -4.21333 -1.52259 0
M  V30 29467 C 2768.1 -3.05999 -2.94219 0
M  V30 29468 C 2766.01 -5.3638 -2.491 0
M  V30 29469 H 2764.94 -0.602624 -0.453167 0
M  V30 29470 H 2767.59 -1.77296 -0.473113 0
M  V30 29471 H 2765.97 -2.63792 -2.95347 0
M  V30 29472 H 2767.15 -4.53538 -0.81487 0
M  V30 29473 H 2765.46 -4.06744 -0.891523 0
M  V30 29474 H 2768.06 -3.89123 -3.66725 0
M  V30 29475 H 2768.4 -2.18312 -3.54465 0
M  V30 29476 H 2768.93 -3.28145 -2.24868 0
M  V30 29477 H 2765.67 -6.26267 -1.93571 0
M  V30 29478 H 2765.19 -5.08574 -3.17982 0
M  V30 29479 H 2766.87 -5.67556 -3.10627 0
M  V30 29480 N 2767 0.710538 -1.40674 0
M  V30 29481 C 2767.97 1.80633 -1.41083 0
M  V30 29482 C 2768.97 1.57904 -0.303811 0
M  V30 29483 O 2770.16 1.64852 -0.562966 0
M  V30 29484 C 2767.29 3.18797 -1.20754 0
M  V30 29485 H 2768.48 1.81666 -2.38615 0
M  V30 29486 H 2766.03 0.916682 -1.26596 0
M  V30 29487 H 2766.77 3.23411 -0.240021 0
M  V30 29488 H 2766.55 3.36694 -2.00947 0
M  V30 29489 H 2768.04 3.98815 -1.2384 0
M  V30 29490 N 2768.48 1.26254 0.943277 0
M  V30 29491 C 2769.73 1.11454 1.6859 0
M  V30 29492 C 2770.05 -0.343089 1.91958 0
M  V30 29493 O 2769.32 -1.24223 1.51477 0
M  V30 29494 H 2767.9 0.409459 0.624782 0
M  V30 29495 H 2770.56 1.5855 1.13348 0
M  V30 29496 H 2769.66 1.63167 2.66051 0
M  V30 29497 N 2769.96 -1.14755 1.08024 0
M  V30 29498 C 2770.89 -2.21852 0.728287 0
M  V30 29499 C 2771.87 -1.67654 -0.287457 0
M  V30 29500 O 2773.06 -1.93551 -0.158693 0
M  V30 29501 C 2770.19 -3.47047 0.13261 0
M  V30 29502 C 2769.14 -4.14247 1.07627 0
M  V30 29503 C 2768.47 -5.33599 0.343001 0
M  V30 29504 C 2769.77 -4.63231 2.41276 0
M  V30 29505 H 2771.46 -2.51548 1.6237 0
M  V30 29506 H 2769.01 -1.20907 0.782146 0
M  V30 29507 H 2770.96 -4.21213 -0.125591 0
M  V30 29508 H 2769.68 -3.16703 -0.797915 0
M  V30 29509 H 2768.34 -3.4203 1.3195 0
M  V30 29510 H 2767.99 -4.99514 -0.591203 0
M  V30 29511 H 2767.69 -5.79504 0.972057 0
M  V30 29512 H 2769.21 -6.1053 0.0927611 0
M  V30 29513 H 2770.63 -5.28891 2.21241 0
M  V30 29514 H 2769.02 -5.19824 2.99839 0
M  V30 29515 H 2770.09 -3.78506 3.03086 0
M  V30 29516 N 2771.44 -0.865331 -1.31719 0
M  V30 29517 C 2772.4 -0.322667 -2.26917 0
M  V30 29518 C 2773.4 0.523725 -1.52032 0
M  V30 29519 O 2774.59 0.333697 -1.70974 0
M  V30 29520 C 2771.72 0.542279 -3.36559 0
M  V30 29521 H 2772.92 -1.16303 -2.7643 0
M  V30 29522 H 2770.47 -0.640537 -1.42572 0
M  V30 29523 H 2771.2 1.40402 -2.92331 0
M  V30 29524 H 2770.99 -0.0637084 -3.92048 0
M  V30 29525 H 2772.48 0.914388 -4.07466 0
M  V30 29526 N 2772.92 1.44707 -0.624311 0
M  V30 29527 C 2774.14 2.06985 -0.131207 0
M  V30 29528 C 2774.57 1.46298 1.18231 0
M  V30 29529 O 2773.92 0.561872 1.72374 0
M  V30 29530 C 2773.97 3.60593 -0.0227358 0
M  V30 29531 O 2773.08 3.99508 1.02307 0
M  V30 29532 H 2772.42 0.658959 -0.0816672 0
M  V30 29533 H 2774.95 1.85691 -0.85906 0
M  V30 29534 H 2774.96 4.07645 0.170066 0
M  V30 29535 H 2773.63 4.04146 -0.981757 0
M  V30 29536 H 2772.21 3.64099 0.805388 0
M  V30 29537 N 2774.39 0.364449 1.53328 0
M  V30 29538 C 2775.36 -0.470252 2.24324 0
M  V30 29539 C 2776.36 -1.01065 1.2507 0
M  V30 29540 O 2777.55 -0.896579 1.49356 0
M  V30 29541 C 2774.68 -1.65717 2.97911 0
M  V30 29542 H 2775.87 0.15097 2.9952 0
M  V30 29543 H 2773.42 0.11612 1.55868 0
M  V30 29544 H 2774.16 -2.31651 2.26954 0
M  V30 29545 H 2773.94 -1.27665 3.70735 0
M  V30 29546 H 2775.43 -2.24872 3.51884 0
M  V30 29547 N 2775.87 -1.57322 0.0935872 0
M  V30 29548 C 2777.12 -1.93474 -0.570157 0
M  V30 29549 C 2777.43 -0.977348 -1.69432 0
M  V30 29550 O 2778.64 -1.23252 -2.41911 0
M  V30 29551 C 2777.1 -3.43764 -1.06558 0
M  V30 29552 C 2776.7 -4.47991 0.0287511 0
M  V30 29553 C 2778.45 -3.8888 -1.70214 0
M  V30 29554 C 2776.35 -5.89433 -0.481943 0
M  V30 29555 H 2775.28 -0.722174 -0.216751 0
M  V30 29556 H 2777.94 -1.82717 0.169345 0
M  V30 29557 H 2776.32 -3.49668 -1.85872 0
M  V30 29558 H 2777.49 -4.53728 0.804186 0
M  V30 29559 H 2775.81 -4.12475 0.570408 0
M  V30 29560 H 2778.4 -4.91952 -2.09493 0
M  V30 29561 H 2778.75 -3.27444 -2.57072 0
M  V30 29562 H 2779.28 -3.8567 -0.974851 0
M  V30 29563 H 2776.02 -6.54565 0.349986 0
M  V30 29564 H 2775.54 -5.8717 -1.22442 0
M  V30 29565 H 2777.22 -6.39967 -0.951395 0
M  V30 29566 N 2777.35 0.180099 -1.56568 0
M  V30 29567 C 2778.63 0.924901 -1.72351 0
M  V30 29568 C 2779.01 2.00761 -0.652558 0
M  V30 29569 O 2778.35 2.26045 0.334075 0
M  V30 29570 C 2778.56 1.49765 -3.15232 0
M  V30 29571 C 2779.91 1.97398 -3.75924 0
M  V30 29572 O 2780.94 1.59577 -3.18455 0
M  V30 29573 O 2779.8 2.6704 -4.76814 0
M  V30 29574 H 2776.89 0.434746 -0.703509 0
M  V30 29575 H 2779.44 0.168617 -1.6886 0
M  V30 29576 H 2778.21 0.71796 -3.84657 0
M  V30 29577 H 2777.83 2.31836 -3.23013 0
M  V30 29578 N 2778.83 1.51088 0.448349 0
M  V30 29579 C 2779.76 1.66274 1.56295 0
M  V30 29580 C 2780.74 0.510446 1.5438 0
M  V30 29581 O 2781.92 0.732884 1.73669 0
M  V30 29582 C 2779.05 1.66623 2.9488 0
M  V30 29583 C 2778.1 2.87687 3.14863 0
M  V30 29584 S 2778.93 4.48667 2.92332 0
M  V30 29585 C 2780.08 4.51743 4.33219 0
M  V30 29586 H 2780.32 2.60552 1.43177 0
M  V30 29587 H 2777.85 1.40634 0.637284 0
M  V30 29588 H 2779.81 1.67508 3.74768 0
M  V30 29589 H 2778.47 0.735412 3.05369 0
M  V30 29590 H 2777.66 2.843 4.16161 0
M  V30 29591 H 2777.26 2.84486 2.42783 0
M  V30 29592 H 2779.56 4.26706 5.2624 0
M  V30 29593 H 2780.5 5.53495 4.41643 0
M  V30 29594 H 2780.91 3.81188 4.1636 0
M  V30 29595 N 2780.31 -0.703068 1.41049 0
M  V30 29596 C 2781.53 -1.49703 1.4354 0
M  V30 29597 C 2781.96 -1.88057 0.0402184 0
M  V30 29598 O 2781.31 -1.54124 -0.954758 0
M  V30 29599 C 2781.36 -2.74079 2.34335 0
M  V30 29600 O 2780.47 -3.71276 1.79522 0
M  V30 29601 H 2779.81 -0.450863 0.487462 0
M  V30 29602 H 2782.34 -0.864827 1.85424 0
M  V30 29603 H 2782.35 -3.22471 2.49953 0
M  V30 29604 H 2781.02 -2.455 3.35712 0
M  V30 29605 H 2779.6 -3.30176 1.73315 0
M  V30 29606 N 2781.78 -1.26752 -0.936569 0
M  V30 29607 C 2783.01 -1.15358 -1.71756 0
M  V30 29608 C 2783.43 0.29065 -1.86549 0
M  V30 29609 O 2782.78 1.19865 -1.37618 0
M  V30 29610 C 2782.84 -1.82263 -3.1219 0
M  V30 29611 O 2782.56 -3.21043 -2.98099 0
M  V30 29612 C 2784.06 -1.76882 -4.06482 0
M  V30 29613 H 2781.28 -0.401492 -0.537629 0
M  V30 29614 H 2783.82 -1.67459 -1.17379 0
M  V30 29615 H 2781.98 -1.34089 -3.63454 0
M  V30 29616 H 2782.39 -3.54221 -3.86817 0
M  V30 29617 H 2783.86 -2.28325 -5.02565 0
M  V30 29618 H 2784.34 -0.736292 -4.32984 0
M  V30 29619 H 2784.95 -2.24629 -3.6114 0
M  V30 29620 N 2783.26 1.1418 -1.08631 0
M  V30 29621 C 2784.21 2.21406 -0.712879 0
M  V30 29622 C 2785.2 1.67029 0.282427 0
M  V30 29623 O 2786.41 1.79417 0.144751 0
M  V30 29624 H 2782.79 0.721349 -0.21251 0
M  V30 29625 H 2784.76 2.50172 -1.62655 0
M  V30 29626 C 2783.51 3.47415 -0.140765 0
M  V30 29627 H 2782.83 3.89589 -0.897807 0
M  V30 29628 H 2784.27 4.23919 0.0826932 0
M  V30 29629 C 2782.73 3.1767 1.12194 0
M  V30 29630 O 2783.26 3.35675 2.20646 0
M  V30 29631 N 2781.46 2.71611 1.03323 0
M  V30 29632 H 2781.01 2.57159 0.150621 0
M  V30 29633 H 2780.97 2.52084 1.87885 0
M  V30 29634 N 2784.74 0.872304 1.31258 0
M  V30 29635 C 2785.97 0.498219 2.00503 0
M  V30 29636 C 2786.38 -0.91445 1.65634 0
M  V30 29637 O 2785.72 -1.61093 0.882878 0
M  V30 29638 C 2785.78 0.578256 3.54819 0
M  V30 29639 C 2785.45 1.95296 4.13169 0
M  V30 29640 C 2786.44 2.92076 4.30102 0
M  V30 29641 C 2784.13 2.25491 4.48842 0
M  V30 29642 C 2786.12 4.17193 4.81901 0
M  V30 29643 C 2783.81 3.50856 5.00343 0
M  V30 29644 C 2784.81 4.46523 5.16823 0
M  V30 29645 O 2784.5 5.69666 5.67218 0
M  V30 29646 H 2784.23 0.192366 0.648052 0
M  V30 29647 H 2786.78 1.17592 1.68408 0
M  V30 29648 H 2785.01 -0.15637 3.86384 0
M  V30 29649 H 2786.7 0.217264 4.05318 0
M  V30 29650 H 2787.47 2.70058 4.02857 0
M  V30 29651 H 2783.35 1.51803 4.35289 0
M  V30 29652 H 2786.89 4.91872 4.9468 0
M  V30 29653 H 2782.79 3.72718 5.27022 0
M  V30 29654 H 2783.56 5.7187 5.85582 0
M  V30 29655 N 2786.22 -1.44374 0.631976 0
M  V30 29656 C 2787.17 -2.32446 -0.0846284 0
M  V30 29657 C 2788.16 -1.47395 -0.834931 0
M  V30 29658 O 2789.37 -1.63734 -0.747735 0
M  V30 29659 H 2785.74 -0.750583 -0.0461376 0
M  V30 29660 H 2787.71 -2.90636 0.676241 0
M  V30 29661 C 2786.46 -3.31402 -1.05205 0
M  V30 29662 H 2785.78 -3.96858 -0.484133 0
M  V30 29663 H 2787.22 -3.95705 -1.52293 0
M  V30 29664 C 2785.68 -2.60391 -2.13771 0
M  V30 29665 O 2786.21 -2.40346 -3.21865 0
M  V30 29666 N 2784.42 -2.20116 -1.89729 0
M  V30 29667 H 2783.97 -2.36619 -1.01829 0
M  V30 29668 H 2783.92 -1.72931 -2.62569 0
M  V30 29669 N 2787.7 -0.372575 -1.53133 0
M  V30 29670 C 2788.92 0.218062 -2.0625 0
M  V30 29671 C 2789.35 1.41109 -1.24378 0
M  V30 29672 O 2788.7 1.79359 -0.264585 0
M  V30 29673 C 2788.75 0.582814 -3.55859 0
M  V30 29674 O 2787.86 1.6791 -3.7667 0
M  V30 29675 H 2787.2 0.0300924 -0.663318 0
M  V30 29676 H 2789.73 -0.535204 -1.97476 0
M  V30 29677 H 2789.74 0.851855 -3.99008 0
M  V30 29678 H 2788.41 -0.289501 -4.14891 0
M  V30 29679 H 2786.99 1.40507 -3.45416 0
M  V30 29680 N 2789.17 1.5727 -0.101929 0
M  V30 29681 C 2790.45 1.8608 0.6028 0
M  V30 29682 C 2790.83 1.00004 1.8591 0
M  V30 29683 O 2790.18 0.0742889 2.28379 0
M  V30 29684 C 2790.39 3.36883 0.911635 0
M  V30 29685 C 2791.74 4.05095 1.27212 0
M  V30 29686 O 2792.76 3.41804 1.00244 0
M  V30 29687 O 2791.62 5.16785 1.77751 0
M  V30 29688 H 2788.71 0.769748 0.302353 0
M  V30 29689 H 2791.26 1.69161 -0.135143 0
M  V30 29690 H 2790.03 3.91295 0.0206568 0
M  V30 29691 H 2789.66 3.59172 1.70532 0
M  V30 29692 N 2790.65 -0.171793 1.56661 0
M  V30 29693 C 2791.88 -0.908132 1.86461 0
M  V30 29694 C 2792.3 -1.75058 0.688212 0
M  V30 29695 O 2791.66 -1.77635 -0.362722 0
M  V30 29696 C 2791.71 -1.76107 3.14672 0
M  V30 29697 O 2790.81 -2.86263 2.96863 0
M  V30 29698 H 2790.15 -0.254423 0.613323 0
M  V30 29699 H 2792.68 -0.170077 2.03892 0
M  V30 29700 H 2792.69 -2.16109 3.46065 0
M  V30 29701 H 2791.37 -1.14226 3.99907 0
M  V30 29702 H 2789.95 -2.49847 2.76823 0
M  V30 29703 N 2792.13 -1.51324 -0.44033 0
M  V30 29704 C 2793.06 -1.75367 -1.54171 0
M  V30 29705 C 2794.04 -0.603403 -1.59038 0
M  V30 29706 O 2795.23 -0.845804 -1.74814 0
M  V30 29707 C 2792.36 -1.87598 -2.92274 0
M  V30 29708 C 2791.31 -3.03014 -3.02269 0
M  V30 29709 C 2790.64 -3.00425 -4.42322 0
M  V30 29710 C 2791.94 -4.43029 -2.76627 0
M  V30 29711 H 2793.63 -2.67588 -1.34302 0
M  V30 29712 H 2791.18 -1.28764 -0.644656 0
M  V30 29713 H 2793.13 -2.03002 -3.69281 0
M  V30 29714 H 2791.85 -0.920234 -3.13368 0
M  V30 29715 H 2790.51 -2.87311 -2.27701 0
M  V30 29716 H 2790.16 -2.02634 -4.60379 0
M  V30 29717 H 2789.86 -3.77926 -4.49939 0
M  V30 29718 H 2791.38 -3.17918 -5.21306 0
M  V30 29719 H 2792.8 -4.59099 -3.43368 0
M  V30 29720 H 2791.2 -5.22213 -2.95657 0
M  V30 29721 H 2792.27 -4.53273 -1.72254 0
M  V30 29722 N 2793.61 0.695578 -1.41419 0
M  V30 29723 C 2794.56 1.80162 -1.39734 0
M  V30 29724 C 2795.54 1.58589 -0.271717 0
M  V30 29725 O 2796.73 1.69421 -0.512384 0
M  V30 29726 C 2793.86 3.18467 -1.28193 0
M  V30 29727 C 2792.95 3.45735 -2.45618 0
M  V30 29728 N 2793.34 3.43702 -3.71083 0
M  V30 29729 C 2791.64 3.76283 -2.3943 0
M  V30 29730 C 2792.34 3.69874 -4.48963 0
M  V30 29731 N 2791.32 3.89618 -3.79077 0
M  V30 29732 H 2795.12 1.76953 -2.34659 0
M  V30 29733 H 2792.63 0.895567 -1.35475 0
M  V30 29734 H 2794.63 3.97698 -1.25067 0
M  V30 29735 H 2793.29 3.22888 -0.342525 0
M  V30 29736 H 2794.3 3.24083 -4.03969 0
M  V30 29737 H 2790.98 3.88075 -1.53962 0
M  V30 29738 H 2792.37 3.74438 -5.57894 0
M  V30 29739 N 2795.09 1.27247 0.929833 0
M  V30 29740 C 2796.33 1.1346 1.67729 0
M  V30 29741 C 2796.66 -0.319965 1.9185 0
M  V30 29742 O 2795.92 -1.25061 1.50526 0
M  V30 29743 C 2796.22 1.8612 3.05113 0
M  V30 29744 C 2795.88 3.35983 3.0071 0
M  V30 29745 C 2794.54 3.7686 2.99216 0
M  V30 29746 C 2796.9 4.31615 2.9216 0
M  V30 29747 C 2794.22 5.11737 2.86953 0
M  V30 29748 C 2796.58 5.66547 2.81439 0
M  V30 29749 C 2795.24 6.0672 2.78294 0
M  V30 29750 H 2794.51 0.415179 0.613765 0
M  V30 29751 H 2797.16 1.57829 1.08453 0
M  V30 29752 H 2795.46 1.34253 3.68081 0
M  V30 29753 H 2797.16 1.72882 3.61819 0
M  V30 29754 H 2793.75 3.03473 3.02658 0
M  V30 29755 H 2797.93 4.01008 2.92414 0
M  V30 29756 H 2793.19 5.42011 2.82903 0
M  V30 29757 H 2797.36 6.40322 2.73789 0
M  V30 29758 H 2794.99 7.11186 2.68548 0
M  V30 29759 N 2796.57 -1.13603 1.09235 0
M  V30 29760 C 2797.79 -1.89222 0.849101 0
M  V30 29761 C 2798.22 -1.7848 -0.593844 0
M  V30 29762 O 2797.57 -1.13095 -1.41701 0
M  V30 29763 C 2797.62 -3.36871 1.28648 0
M  V30 29764 O 2796.73 -4.10006 0.443702 0
M  V30 29765 H 2796.07 -0.588412 0.30768 0
M  V30 29766 H 2798.6 -1.43745 1.45597 0
M  V30 29767 H 2798.61 -3.87697 1.27103 0
M  V30 29768 H 2797.28 -3.44007 2.33735 0
M  V30 29769 H 2795.86 -3.6921 0.523306 0
M  V30 29770 N 2798.04 -0.879253 -1.30793 0
M  V30 29771 C 2798.99 -0.331152 -2.30231 0
M  V30 29772 C 2799.99 0.558766 -1.59919 0
M  V30 29773 O 2801.19 0.443835 -1.74442 0
M  V30 29774 H 2797.57 -0.0884221 -0.746783 0
M  V30 29775 H 2799.54 -1.18358 -2.73923 0
M  V30 29776 C 2798.29 0.444341 -3.44849 0
M  V30 29777 H 2797.61 -0.231176 -3.99131 0
M  V30 29778 H 2799.05 0.793036 -4.16518 0
M  V30 29779 C 2797.51 1.63921 -2.94332 0
M  V30 29780 O 2798.04 2.73857 -2.9388 0
M  V30 29781 N 2796.24 1.47445 -2.50416 0
M  V30 29782 H 2795.79 0.580106 -2.50983 0
M  V30 29783 H 2795.75 2.2753 -2.16973 0
M  V30 29784 N 2799.52 1.44037 -0.639624 0
M  V30 29785 C 2800.77 2.02261 -0.147734 0
M  V30 29786 C 2801.1 1.50258 1.23029 0
M  V30 29787 O 2800.38 0.6901 1.81846 0
M  V30 29788 C 2800.66 3.59813 -0.143683 0
M  V30 29789 C 2800.51 4.22079 -1.55465 0
M  V30 29790 C 2801.83 4.3693 0.52724 0
M  V30 29791 H 2798.95 0.734933 -0.0551582 0
M  V30 29792 H 2801.59 1.71503 -0.817718 0
M  V30 29793 H 2799.74 3.86148 0.42683 0
M  V30 29794 H 2801.41 4.06822 -2.17471 0
M  V30 29795 H 2799.66 3.79249 -2.10601 0
M  V30 29796 H 2800.33 5.31122 -1.50378 0
M  V30 29797 H 2802.8 4.16079 0.0419772 0
M  V30 29798 H 2801.68 5.46624 0.499293 0
M  V30 29799 H 2801.94 4.12168 1.59907 0
M  V30 29800 N 2801 0.380691 1.52933 0
M  V30 29801 C 2802.25 -0.204242 2.01467 0
M  V30 29802 C 2802.57 -1.47531 1.26747 0
M  V30 29803 O 2801.83 -1.92476 0.353757 0
M  V30 29804 C 2802.13 -0.527137 3.53491 0
M  V30 29805 C 2801.79 0.651373 4.4617 0
M  V30 29806 C 2800.46 0.974702 4.71225 0
M  V30 29807 C 2802.81 1.4402 5.00907 0
M  V30 29808 C 2800.14 2.08856 5.48266 0
M  V30 29809 C 2802.49 2.5446 5.79166 0
M  V30 29810 C 2801.15 2.87311 6.02502 0
M  V30 29811 H 2800.42 -0.0747375 0.737221 0
M  V30 29812 H 2803.07 0.516266 1.8441 0
M  V30 29813 H 2801.37 -1.32886 3.68576 0
M  V30 29814 H 2803.07 -0.992215 3.88531 0
M  V30 29815 H 2799.66 0.389351 4.26828 0
M  V30 29816 H 2803.85 1.20365 4.81483 0
M  V30 29817 H 2799.1 2.34689 5.64563 0
M  V30 29818 H 2803.28 3.15991 6.20583 0
M  V30 29819 H 2800.9 3.73742 6.61983 0
M  V30 29820 N 2802.48 -1.57214 0.110268 0
M  V30 29821 C 2803.89 -1.57687 -0.246352 0
M  V30 29822 C 2804.09 -1.12244 -1.67343 0
M  V30 29823 O 2803.15 -0.805825 -2.39296 0
M  V30 29824 C 2804.46 -3.00693 -0.020976 0
M  V30 29825 C 2806.01 -3.12878 -0.0875527 0
M  V30 29826 C 2806.49 -4.57868 0.11002 0
M  V30 29827 N 2807.98 -4.63167 0.0556949 0
M  V30 29828 C 2808.71 -5.73106 0.183596 0
M  V30 29829 N 2808.21 -6.91826 0.36718 0
M  V30 29830 N 2810 -5.61964 0.123788 0
M  V30 29831 H 2802.15 -1.85057 1.04249 0
M  V30 29832 H 2804.41 -0.854847 0.409805 0
M  V30 29833 H 2804.12 -3.38195 0.965263 0
M  V30 29834 H 2803.99 -3.69532 -0.756683 0
M  V30 29835 H 2806.38 -2.75239 -1.06431 0
M  V30 29836 H 2806.46 -2.46599 0.679893 0
M  V30 29837 H 2806.11 -4.96204 1.08371 0
M  V30 29838 H 2806.04 -5.22226 -0.677305 0
M  V30 29839 H 2808.53 -3.77809 -0.0830398 0
M  V30 29840 H 2808.84 -7.71454 0.455874 0
M  V30 29841 H 2807.19 -6.9383 0.403042 0
M  V30 29842 H 2810.38 -4.68096 -0.0186105 0
M  V30 29843 H 2810.55 -6.47603 0.226911 0
M  V30 29844 N 2803.96 0.163482 -1.5675 0
M  V30 29845 C 2805.18 0.898231 -1.8694 0
M  V30 29846 C 2805.61 1.7469 -0.697486 0
M  V30 29847 O 2804.96 1.77824 0.353296 0
M  V30 29848 C 2805.01 1.74436 -3.15602 0
M  V30 29849 O 2804.12 2.84684 -2.98376 0
M  V30 29850 H 2803.46 0.251167 -0.614664 0
M  V30 29851 H 2805.99 0.159262 -2.03979 0
M  V30 29852 H 2806 2.14271 -3.47206 0
M  V30 29853 H 2804.67 1.12103 -4.00507 0
M  V30 29854 H 2803.25 2.48375 -2.78144 0
M  V30 29855 N 2805.43 1.51555 0.432299 0
M  V30 29856 C 2806.68 1.64717 1.18306 0
M  V30 29857 C 2807.01 0.364729 1.90744 0
M  V30 29858 O 2806.29 -0.635904 1.83811 0
M  V30 29859 C 2806.57 2.85387 2.19605 0
M  V30 29860 C 2806.42 4.2362 1.51216 0
M  V30 29861 C 2807.74 3.01574 3.20532 0
M  V30 29862 H 2804.86 0.599459 0.42874 0
M  V30 29863 H 2807.5 1.84053 0.471656 0
M  V30 29864 H 2805.65 2.69032 2.80275 0
M  V30 29865 H 2807.33 4.51654 0.938437 0
M  V30 29866 H 2805.57 4.26086 0.814426 0
M  V30 29867 H 2806.24 5.04056 2.25015 0
M  V30 29868 H 2808.72 3.16674 2.6992 0
M  V30 29869 H 2807.59 3.87562 3.88699 0
M  V30 29870 H 2807.85 2.13865 3.86929 0
M  V30 29871 N 2806.91 -0.688069 1.41786 0
M  V30 29872 C 2807.84 -1.81253 1.38646 0
M  V30 29873 C 2808.82 -1.60626 0.252612 0
M  V30 29874 O 2810.01 -1.83275 0.440723 0
M  V30 29875 C 2807.13 -3.1805 1.16454 0
M  V30 29876 C 2806.18 -3.57453 2.32657 0
M  V30 29877 S 2807.01 -3.614 3.95158 0
M  V30 29878 C 2808.17 -5.00912 3.75284 0
M  V30 29879 H 2808.4 -1.8364 2.33802 0
M  V30 29880 H 2805.93 -0.85749 1.284 0
M  V30 29881 H 2807.89 -3.97019 1.04337 0
M  V30 29882 H 2806.55 -3.13264 0.229057 0
M  V30 29883 H 2805.75 -4.56852 2.12843 0
M  V30 29884 H 2805.35 -2.85812 2.4122 0
M  V30 29885 H 2807.64 -5.88623 3.35454 0
M  V30 29886 H 2808.58 -5.2577 4.74312 0
M  V30 29887 H 2808.99 -4.72804 3.0841 0
M  V30 29888 N 2808.39 -1.27739 -0.923072 0
M  V30 29889 C 2809.35 -1.10898 -2.00585 0
M  V30 29890 C 2810.35 -0.0515209 -1.60717 0
M  V30 29891 O 2811.54 -0.296511 -1.71658 0
M  V30 29892 C 2808.67 -0.690776 -3.33828 0
M  V30 29893 H 2809.87 -2.07052 -2.16955 0
M  V30 29894 H 2807.42 -1.10592 -1.10449 0
M  V30 29895 H 2808.16 0.271944 -3.23158 0
M  V30 29896 H 2807.94 -1.45455 -3.64123 0
M  V30 29897 H 2809.43 -0.595324 -4.13335 0
M  V30 29898 N 2809.87 1.13022 -1.09836 0
M  V30 29899 C 2811.28 1.65937 -0.85568 0
M  V30 29900 C 2811.63 1.86308 0.615126 0
M  V30 29901 O 2810.76 1.585 1.47332 0
M  V30 29902 C 2811.35 3.01431 -1.54676 0
M  V30 29903 C 2809.91 3.51321 -1.35095 0
M  V30 29904 C 2809.06 2.26475 -1.60014 0
M  V30 29905 H 2812.01 0.968867 -1.25693 0
M  V30 29906 H 2812.03 3.67603 -0.982244 0
M  V30 29907 H 2811.54 2.86573 -2.6172 0
M  V30 29908 H 2809.64 3.71375 -0.301856 0
M  V30 29909 H 2809.75 4.31174 -2.08867 0
M  V30 29910 H 2808.12 2.33275 -1.0225 0
M  V30 29911 H 2808.9 2.14177 -2.68297 0
M  V30 29912 N 2811.35 0.886177 1.30325 0
M  V30 29913 C 2812.59 0.505227 1.96096 0
M  V30 29914 C 2812.92 -0.945838 1.69953 0
M  V30 29915 O 2812.18 -1.68359 0.997683 0
M  V30 29916 C 2812.48 0.728104 3.49905 0
M  V30 29917 C 2812.14 2.15444 3.96099 0
M  V30 29918 C 2810.8 2.54447 4.08424 0
M  V30 29919 C 2813.16 3.08391 4.20172 0
M  V30 29920 C 2810.48 3.85606 4.42182 0
M  V30 29921 C 2812.84 4.39083 4.554 0
M  V30 29922 C 2811.5 4.77978 4.65933 0
M  V30 29923 H 2810.77 0.184876 0.717567 0
M  V30 29924 H 2813.42 1.12226 1.5517 0
M  V30 29925 H 2811.72 0.0280468 3.9179 0
M  V30 29926 H 2813.42 0.412932 3.98868 0
M  V30 29927 H 2810.01 1.84169 3.87014 0
M  V30 29928 H 2814.19 2.79477 4.10129 0
M  V30 29929 H 2809.45 4.15481 4.48537 0
M  V30 29930 H 2813.62 5.11141 4.72977 0
M  V30 29931 H 2811.25 5.79648 4.91846 0
M  V30 29932 N 2812.82 -1.43695 0.647253 0
M  V30 29933 C 2814.05 -2.06235 0.165787 0
M  V30 29934 C 2814.47 -1.48478 -1.16617 0
M  V30 29935 O 2813.82 -0.613792 -1.71869 0
M  V30 29936 C 2813.88 -3.61446 0.0622286 0
M  V30 29937 O 2813.6 -4.17055 1.34153 0
M  V30 29938 C 2815.1 -4.4105 -0.446025 0
M  V30 29939 H 2812.32 -0.665319 0.0871275 0
M  V30 29940 H 2814.86 -1.843 0.886216 0
M  V30 29941 H 2813.02 -3.82588 -0.608727 0
M  V30 29942 H 2813.43 -5.10662 1.19684 0
M  V30 29943 H 2814.9 -5.50017 -0.467454 0
M  V30 29944 H 2815.38 -4.13648 -1.4762 0
M  V30 29945 H 2815.99 -4.24865 0.192233 0
M  V30 29946 N 2814.3 -0.388796 -1.52729 0
M  V30 29947 C 2815.24 0.490712 -2.22862 0
M  V30 29948 C 2816.21 1.06447 -1.22914 0
M  V30 29949 O 2817.4 1.11621 -1.51898 0
M  V30 29950 C 2814.52 1.6792 -2.94144 0
M  V30 29951 C 2813.57 1.23073 -4.08357 0
M  V30 29952 S 2814.4 0.212692 -5.35077 0
M  V30 29953 C 2815.56 1.40697 -6.09881 0
M  V30 29954 H 2815.79 -0.104839 -2.97115 0
M  V30 29955 H 2813.33 -0.172983 -1.53428 0
M  V30 29956 H 2815.28 2.36079 -3.35823 0
M  V30 29957 H 2813.94 2.24604 -2.19571 0
M  V30 29958 H 2813.14 2.1181 -4.57332 0
M  V30 29959 H 2812.74 0.628056 -3.68689 0
M  V30 29960 H 2815.03 2.33413 -6.36022 0
M  V30 29961 H 2815.97 0.958148 -7.01588 0
M  V30 29962 H 2816.38 1.62355 -5.40649 0
M  V30 29963 N 2815.78 1.57153 -0.118604 0
M  V30 29964 C 2817.01 1.99532 0.547225 0
M  V30 29965 C 2817.42 0.998275 1.6025 0
M  V30 29966 O 2816.78 -0.00889898 1.82498 0
M  V30 29967 C 2816.83 3.41915 1.17372 0
M  V30 29968 O 2816.55 4.37805 0.160626 0
M  V30 29969 C 2818.05 3.99424 1.9229 0
M  V30 29970 H 2815.27 0.655166 0.144908 0
M  V30 29971 H 2817.82 2.03472 -0.204826 0
M  V30 29972 H 2815.97 3.38916 1.87655 0
M  V30 29973 H 2816.39 5.20873 0.615769 0
M  V30 29974 H 2817.86 5.01132 2.31453 0
M  V30 29975 H 2818.34 3.38543 2.79795 0
M  V30 29976 H 2818.94 4.05967 1.2677 0
M  V30 29977 N 2817.26 -0.155167 1.56834 0
M  V30 29978 C 2818.51 -0.867535 1.8209 0
M  V30 29979 C 2818.82 -1.82702 0.698522 0
M  V30 29980 O 2820.03 -2.58294 0.836453 0
M  V30 29981 C 2818.48 -1.59331 3.2271 0
M  V30 29982 C 2818.09 -0.676641 4.42861 0
M  V30 29983 C 2819.83 -2.29294 3.57246 0
M  V30 29984 C 2817.74 -1.40357 5.74503 0
M  V30 29985 H 2816.67 -0.327703 0.679063 0
M  V30 29986 H 2819.32 -0.120319 1.83105 0
M  V30 29987 H 2817.7 -2.38586 3.16058 0
M  V30 29988 H 2818.88 0.0801006 4.6073 0
M  V30 29989 H 2817.19 -0.0858397 4.16312 0
M  V30 29990 H 2819.79 -2.84304 4.52852 0
M  V30 29991 H 2820.13 -3.05401 2.82906 0
M  V30 29992 H 2820.67 -1.56966 3.65522 0
M  V30 29993 H 2817.41 -0.684509 6.51916 0
M  V30 29994 H 2816.93 -2.13323 5.60583 0
M  V30 29995 H 2818.6 -1.9467 6.17019 0
M  V30 29996 N 2818.74 -1.51782 -0.424256 0
M  V30 29997 C 2820.01 -1.55648 -1.18462 0
M  V30 29998 C 2820.39 -0.328475 -2.08529 0
M  V30 29999 O 2819.74 0.685654 -2.1797 0
M  V30 30000 C 2819.95 -2.87734 -1.97509 0
M  V30 30001 C 2821.3 -3.40174 -2.541 0
M  V30 30002 O 2822.32 -2.89373 -2.07706 0
M  V30 30003 O 2821.18 -4.28847 -3.38752 0
M  V30 30004 H 2818.28 -0.626324 -0.540044 0
M  V30 30005 H 2820.82 -1.64102 -0.432263 0
M  V30 30006 H 2819.59 -3.68565 -1.31437 0
M  V30 30007 H 2819.22 -2.82503 -2.79782 0
M  V30 30008 N 2820.21 0.68054 -1.42149 0
M  V30 30009 C 2821.18 1.77599 -1.44883 0
M  V30 30010 C 2822.18 1.57224 -0.337236 0
M  V30 30011 O 2823.37 1.63621 -0.597807 0
M  V30 30012 C 2820.5 3.16164 -1.27489 0
M  V30 30013 H 2821.69 1.76564 -2.42415 0
M  V30 30014 H 2819.25 0.889622 -1.28512 0
M  V30 30015 H 2819.98 3.22829 -0.308567 0
M  V30 30016 H 2819.77 3.32356 -2.08043 0
M  V30 30017 H 2821.26 3.96098 -1.32272 0
M  V30 30018 N 2821.69 1.28226 0.916285 0
M  V30 30019 C 2822.64 1.08578 2.00487 0
M  V30 30020 C 2823.63 0.0102157 1.60897 0
M  V30 30021 O 2824.82 0.230065 1.75498 0
M  V30 30022 C 2821.95 0.747002 3.35074 0
M  V30 30023 C 2821.03 1.86128 3.81074 0
M  V30 30024 N 2821.42 3.10254 3.9947 0
M  V30 30025 C 2819.72 1.75055 4.10209 0
M  V30 30026 C 2820.42 3.82842 4.37958 0
M  V30 30027 N 2819.4 3.10675 4.46074 0
M  V30 30028 H 2823.2 2.02761 2.12756 0
M  V30 30029 H 2820.72 1.19108 1.10394 0
M  V30 30030 H 2822.71 0.587324 4.12742 0
M  V30 30031 H 2821.37 -0.187089 3.24161 0
M  V30 30032 H 2822.38 3.45892 3.8546 0
M  V30 30033 H 2819.06 0.888071 4.07946 0
M  V30 30034 H 2820.45 4.8958 4.60175 0
M  V30 30035 N 2823.17 -1.12438 1.10433 0
M  V30 30036 C 2824.4 -1.8777 0.868905 0
M  V30 30037 C 2824.81 -1.79651 -0.580614 0
M  V30 30038 O 2824.17 -1.17039 -1.40029 0
M  V30 30039 C 2824.22 -3.36983 1.30861 0
M  V30 30040 O 2823.94 -3.44909 2.70129 0
M  V30 30041 C 2825.44 -4.29254 1.10707 0
M  V30 30042 H 2822.66 -0.594115 0.311879 0
M  V30 30043 H 2825.21 -1.4227 1.46899 0
M  V30 30044 H 2823.36 -3.80027 0.752192 0
M  V30 30045 H 2823.78 -4.37743 2.88931 0
M  V30 30046 H 2825.25 -5.32236 1.46387 0
M  V30 30047 H 2825.73 -4.39176 0.0456999 0
M  V30 30048 H 2826.33 -3.91991 1.64995 0
M  V30 30049 N 2824.65 -0.893076 -1.29853 0
M  V30 30050 C 2825.6 -0.355553 -2.29866 0
M  V30 30051 C 2826.59 0.541773 -1.60503 0
M  V30 30052 O 2827.8 0.425308 -1.74903 0
M  V30 30053 H 2824.17 -0.0963378 -0.745804 0
M  V30 30054 H 2826.14 -1.21256 -2.72653 0
M  V30 30055 C 2824.89 0.40774 -3.45301 0
M  V30 30056 H 2824.22 -0.273496 -3.98863 0
M  V30 30057 H 2825.66 0.748814 -4.17335 0
M  V30 30058 C 2824.11 1.6079 -2.96054 0
M  V30 30059 O 2824.64 2.70724 -2.96768 0
M  V30 30060 N 2822.85 1.44781 -2.51966 0
M  V30 30061 H 2822.4 0.553454 -2.51584 0
M  V30 30062 H 2822.36 2.25216 -2.19374 0
M  V30 30063 N 2826.13 1.4335 -0.654865 0
M  V30 30064 C 2827.38 2.01396 -0.168594 0
M  V30 30065 C 2827.7 1.51935 1.22232 0
M  V30 30066 O 2826.97 0.732659 1.81684 0
M  V30 30067 H 2825.55 0.74464 -0.0593375 0
M  V30 30068 H 2828.21 1.75538 -0.846902 0
M  V30 30069 H 2827.3 3.11717 -0.154483 0
M  V30 30070 N 2827.61 0.39689 1.52521 0
M  V30 30071 C 2828.55 -0.44939 2.28218 0
M  V30 30072 C 2829.55 -1.05649 1.32418 0
M  V30 30073 O 2830.75 -0.996097 1.49926 0
M  V30 30074 H 2827.13 -0.163687 0.733969 0
M  V30 30075 H 2829.1 0.210419 2.97657 0
M  V30 30076 C 2827.85 -1.56049 3.10715 0
M  V30 30077 H 2827.17 -1.10266 3.84293 0
M  V30 30078 H 2828.61 -2.1267 3.66807 0
M  V30 30079 C 2827.07 -2.52087 2.23504 0
M  V30 30080 O 2827.6 -3.55679 1.86697 0
M  V30 30081 N 2825.81 -2.22006 1.87514 0
M  V30 30082 H 2825.35 -1.37798 2.17645 0
M  V30 30083 H 2825.31 -2.86512 1.29453 0
M  V30 30084 N 2829.08 -1.57088 0.126936 0
M  V30 30085 C 2830.33 -1.95079 -0.528088 0
M  V30 30086 C 2830.65 -1.01163 -1.66707 0
M  V30 30087 O 2829.92 -0.0693872 -1.95777 0
M  V30 30088 H 2828.5 -0.720261 -0.198074 0
M  V30 30089 H 2831.16 -1.93894 0.197738 0
M  V30 30090 H 2830.26 -2.98311 -0.917455 0
M  V30 30091 N 2830.56 0.146848 -1.56914 0
M  V30 30092 C 2831.51 1.1813 -1.98277 0
M  V30 30093 C 2832.48 1.4268 -0.850392 0
M  V30 30094 O 2833.66 1.55012 -1.11247 0
M  V30 30095 C 2830.8 2.50975 -2.36866 0
M  V30 30096 C 2829.92 2.33598 -3.63395 0
M  V30 30097 C 2829.05 3.59479 -3.91086 0
M  V30 30098 C 2828.09 3.3714 -5.10885 0
M  V30 30099 N 2827.23 4.55152 -5.34585 0
M  V30 30100 H 2832.07 0.821572 -2.86451 0
M  V30 30101 H 2829.6 0.394223 -1.41719 0
M  V30 30102 H 2831.56 3.28435 -2.57267 0
M  V30 30103 H 2830.19 2.84895 -1.51771 0
M  V30 30104 H 2829.24 1.47193 -3.50768 0
M  V30 30105 H 2830.56 2.13051 -4.51011 0
M  V30 30106 H 2829.71 4.45367 -4.11987 0
M  V30 30107 H 2828.45 3.83031 -3.01892 0
M  V30 30108 H 2827.45 2.4964 -4.89857 0
M  V30 30109 H 2828.68 3.14987 -6.01631 0
M  V30 30110 H 2826.63 4.78876 -4.48346 0
M  V30 30111 H 2826.54 4.37608 -6.1647 0
M  V30 30112 H 2827.81 5.42253 -5.59984 0
M  V30 30113 N 2832.04 1.52005 0.4162 0
M  V30 30114 C 2832.97 1.77797 1.51362 0
M  V30 30115 C 2833.95 0.628628 1.58058 0
M  V30 30116 O 2835.14 0.873509 1.73446 0
M  V30 30117 C 2832.27 1.92224 2.89253 0
M  V30 30118 C 2831.22 3.07785 2.9741 0
M  V30 30119 C 2830.55 3.07424 4.37486 0
M  V30 30120 C 2831.85 4.47374 2.69543 0
M  V30 30121 H 2833.54 2.69691 1.30028 0
M  V30 30122 H 2831.09 1.29773 0.624089 0
M  V30 30123 H 2833.04 2.08851 3.66004 0
M  V30 30124 H 2831.76 0.969972 3.11864 0
M  V30 30125 H 2830.42 2.90897 2.23102 0
M  V30 30126 H 2830.07 2.09933 4.57097 0
M  V30 30127 H 2829.77 3.85037 4.4387 0
M  V30 30128 H 2831.29 3.26171 5.16183 0
M  V30 30129 H 2832.71 4.64503 3.3602 0
M  V30 30130 H 2831.1 5.26851 2.87312 0
M  V30 30131 H 2832.17 4.55956 1.65021 0
M  V30 30132 N 2833.52 -0.672992 1.42508 0
M  V30 30133 C 2834.48 -1.76829 1.45823 0
M  V30 30134 C 2835.48 -1.57043 0.34557 0
M  V30 30135 O 2836.67 -1.63302 0.606476 0
M  V30 30136 C 2833.8 -3.15483 1.29163 0
M  V30 30137 H 2835 -1.75276 2.43348 0
M  V30 30138 H 2832.55 -0.882794 1.28982 0
M  V30 30139 H 2833.28 -3.2266 0.325683 0
M  V30 30140 H 2833.07 -3.31248 2.09803 0
M  V30 30141 H 2834.56 -3.95391 1.3437 0
M  V30 30142 N 2835 -1.2871 -0.909472 0
M  V30 30143 C 2835.93 -1.15545 -2.02908 0
M  V30 30144 C 2836.91 -0.0521316 -1.7002 0
M  V30 30145 O 2838.09 -0.229883 -1.92835 0
M  V30 30146 C 2835.22 -0.820994 -3.37457 0
M  V30 30147 C 2834.18 -1.87956 -3.84521 0
M  V30 30148 C 2833.5 -1.39864 -5.16084 0
M  V30 30149 C 2834.8 -3.28683 -4.05912 0
M  V30 30150 H 2836.5 -2.09207 -2.1418 0
M  V30 30151 H 2834.04 -1.00723 -1.02912 0
M  V30 30152 H 2835.99 -0.715644 -4.15279 0
M  V30 30153 H 2834.72 0.151317 -3.26249 0
M  V30 30154 H 2833.38 -1.97413 -3.08907 0
M  V30 30155 H 2833.03 -0.415268 -5.01283 0
M  V30 30156 H 2832.73 -2.1065 -5.48544 0
M  V30 30157 H 2834.25 -1.30659 -5.96457 0
M  V30 30158 H 2835.66 -3.22124 -4.74246 0
M  V30 30159 H 2834.06 -3.97342 -4.4971 0
M  V30 30160 H 2835.13 -3.72385 -3.10576 0
M  V30 30161 N 2836.47 1.1185 -1.11028 0
M  V30 30162 C 2837.72 1.83965 -0.867665 0
M  V30 30163 C 2838.07 1.82796 0.600277 0
M  V30 30164 O 2837.37 1.26699 1.43729 0
M  V30 30165 C 2837.56 3.30602 -1.35783 0
M  V30 30166 C 2837.39 3.46053 -2.87189 0
M  V30 30167 C 2836.16 3.59328 -3.55262 0
M  V30 30168 C 2838.36 3.40699 -3.85264 0
M  V30 30169 N 2836.34 3.63206 -4.94929 0
M  V30 30170 C 2837.71 3.51146 -5.10976 0
M  V30 30171 C 2839.77 3.24203 -3.77884 0
M  V30 30172 C 2838.47 3.46798 -6.30177 0
M  V30 30173 C 2840.5 3.21171 -4.96592 0
M  V30 30174 C 2839.86 3.32185 -6.21154 0
M  V30 30175 H 2835.96 0.688615 -0.370586 0
M  V30 30176 H 2838.54 1.33863 -1.41382 0
M  V30 30177 H 2836.71 3.79232 -0.838917 0
M  V30 30178 H 2838.44 3.90604 -1.05881 0
M  V30 30179 H 2835.2 3.61707 -3.0572 0
M  V30 30180 H 2835.62 3.68794 -5.67732 0
M  V30 30181 H 2840.26 3.14577 -2.8249 0
M  V30 30182 H 2837.98 3.55193 -7.25854 0
M  V30 30183 H 2841.57 3.0958 -4.92597 0
M  V30 30184 H 2840.45 3.29821 -7.11469 0
M  V30 30185 N 2837.95 0.89995 1.29378 0
M  V30 30186 C 2839.2 0.524958 1.95163 0
M  V30 30187 C 2839.52 -0.931858 1.71293 0
M  V30 30188 O 2838.79 -1.6571 1.04484 0
M  V30 30189 H 2837.37 0.191148 0.72213 0
M  V30 30190 H 2840.03 1.1463 1.57626 0
M  V30 30191 H 2839.13 0.707765 3.03969 0
M  V30 30192 N 2839.43 -1.43001 0.662458 0
M  V30 30193 C 2840.34 -2.34588 -0.0238786 0
M  V30 30194 C 2841.36 -1.54403 -0.802228 0
M  V30 30195 O 2842.53 -1.8702 -0.747368 0
M  V30 30196 C 2839.6 -3.32795 -0.97204 0
M  V30 30197 C 2838.66 -4.28881 -0.189597 0
M  V30 30198 C 2837.89 -5.22396 -1.0926 0
M  V30 30199 O 2838.11 -5.20551 -2.332 0
M  V30 30200 O 2837.05 -5.99289 -0.560031 0
M  V30 30201 H 2840.87 -2.9479 0.730223 0
M  V30 30202 H 2838.46 -1.43297 0.42266 0
M  V30 30203 H 2840.34 -3.9316 -1.51669 0
M  V30 30204 H 2839.02 -2.75082 -1.70621 0
M  V30 30205 H 2837.92 -3.71968 0.398859 0
M  V30 30206 H 2839.26 -4.896 0.505196 0
M  V30 30207 N 2840.91 -0.404973 -1.52308 0
M  V30 30208 C 2841.86 0.439824 -2.23718 0
M  V30 30209 C 2842.84 1.01688 -1.24693 0
M  V30 30210 O 2844.03 0.940383 -1.49953 0
M  V30 30211 C 2841.16 1.55819 -3.05901 0
M  V30 30212 C 2840.25 0.992115 -4.12332 0
M  V30 30213 N 2840.64 0.152336 -5.05571 0
M  V30 30214 C 2838.94 1.26304 -4.27742 0
M  V30 30215 C 2839.64 -0.162144 -5.81474 0
M  V30 30216 N 2838.62 0.445915 -5.41768 0
M  V30 30217 H 2842.42 -0.208135 -2.93162 0
M  V30 30218 H 2839.93 -0.215159 -1.60968 0
M  V30 30219 H 2841.93 2.17596 -3.55609 0
M  V30 30220 H 2840.59 2.20882 -2.37995 0
M  V30 30221 H 2841.6 -0.211647 -5.17467 0
M  V30 30222 H 2838.28 1.91355 -3.71065 0
M  V30 30223 H 2839.67 -0.843541 -6.66584 0
M  V30 30224 N 2842.39 1.57018 -0.135265 0
M  V30 30225 C 2843.61 2.00101 0.526031 0
M  V30 30226 C 2844.03 1.01522 1.59182 0
M  V30 30227 O 2843.39 0.0104579 1.82497 0
M  V30 30228 C 2843.44 3.43141 1.13738 0
M  V30 30229 O 2843.16 4.37951 0.114182 0
M  V30 30230 C 2844.66 4.01441 1.88043 0
M  V30 30231 H 2841.88 0.656666 0.137951 0
M  V30 30232 H 2844.42 2.03243 -0.226395 0
M  V30 30233 H 2842.58 3.40888 1.8405 0
M  V30 30234 H 2842.99 5.21497 0.560489 0
M  V30 30235 H 2844.47 5.03559 2.26125 0
M  V30 30236 H 2844.94 3.41492 2.76188 0
M  V30 30237 H 2845.55 4.07289 1.22457 0
M  V30 30238 N 2843.86 -0.138524 1.5699 0
M  V30 30239 C 2845.11 -0.848021 1.83448 0
M  V30 30240 C 2845.43 -1.81321 0.717472 0
M  V30 30241 O 2844.7 -1.94164 -0.260194 0
M  V30 30242 H 2843.28 -0.316154 0.676798 0
M  V30 30243 H 2845.95 -0.130504 1.94463 0
M  V30 30244 H 2845.04 -1.40513 2.7868 0
M  V30 30245 N 2845.34 -1.52224 -0.408133 0
M  V30 30246 C 2846.27 -1.71867 -1.51639 0
M  V30 30247 C 2847.29 -0.599083 -1.51376 0
M  V30 30248 O 2848.48 -0.874266 -1.55624 0
M  V30 30249 C 2845.58 -1.74486 -2.9053 0
M  V30 30250 C 2844.75 -3.03497 -3.14974 0
M  V30 30251 C 2843.81 -2.97915 -4.33743 0
M  V30 30252 O 2842.83 -3.71819 -4.30975 0
M  V30 30253 N 2844.04 -2.15774 -5.38908 0
M  V30 30254 H 2846.8 -2.6748 -1.35183 0
M  V30 30255 H 2844.36 -1.50473 -0.597442 0
M  V30 30256 H 2846.35 -1.68282 -3.68053 0
M  V30 30257 H 2844.92 -0.863416 -3.00439 0
M  V30 30258 H 2844.14 -3.23341 -2.25486 0
M  V30 30259 H 2845.43 -3.88839 -3.28149 0
M  V30 30260 H 2844.83 -1.55161 -5.44005 0
M  V30 30261 H 2843.39 -2.15426 -6.15171 0
M  V30 30262 N 2846.82 0.665425 -1.42863 0
M  V30 30263 C 2847.75 1.79056 -1.4987 0
M  V30 30264 C 2848.73 1.66367 -0.354423 0
M  V30 30265 O 2849.92 1.85646 -0.570002 0
M  V30 30266 C 2847.05 3.17413 -1.40949 0
M  V30 30267 C 2846 3.4485 -2.53501 0
M  V30 30268 C 2845.33 4.82879 -2.29634 0
M  V30 30269 C 2846.63 3.40808 -3.95787 0
M  V30 30270 H 2848.32 1.73449 -2.44041 0
M  V30 30271 H 2845.87 0.83305 -1.17458 0
M  V30 30272 H 2847.82 3.95866 -1.44457 0
M  V30 30273 H 2846.54 3.2372 -0.432773 0
M  V30 30274 H 2845.2 2.68761 -2.49325 0
M  V30 30275 H 2844.85 4.85848 -1.30235 0
M  V30 30276 H 2844.55 5.02199 -3.05074 0
M  V30 30277 H 2846.07 5.63605 -2.34907 0
M  V30 30278 H 2847.49 4.09217 -4.01515 0
M  V30 30279 H 2845.89 3.71664 -4.71154 0
M  V30 30280 H 2846.96 2.39209 -4.21791 0
M  V30 30281 N 2848.3 1.29191 0.902633 0
M  V30 30282 C 2849.53 1.19698 1.68392 0
M  V30 30283 C 2849.94 -0.245351 1.87602 0
M  V30 30284 O 2849.28 -1.17645 1.41086 0
M  V30 30285 C 2849.34 1.83583 3.09091 0
M  V30 30286 C 2849.01 3.3287 3.13124 0
M  V30 30287 C 2850 4.29139 2.93489 0
M  V30 30288 C 2847.69 3.74019 3.35283 0
M  V30 30289 C 2849.68 5.64532 2.95943 0
M  V30 30290 C 2847.37 5.09535 3.37368 0
M  V30 30291 C 2848.37 6.04602 3.1772 0
M  V30 30292 O 2848.05 7.37644 3.19587 0
M  V30 30293 H 2847.79 0.416044 0.532807 0
M  V30 30294 H 2850.34 1.71035 1.13737 0
M  V30 30295 H 2848.57 1.26754 3.65336 0
M  V30 30296 H 2850.26 1.68453 3.69294 0
M  V30 30297 H 2851.03 3.98681 2.76185 0
M  V30 30298 H 2846.9 3.0048 3.49618 0
M  V30 30299 H 2850.45 6.38711 2.80525 0
M  V30 30300 H 2846.35 5.39639 3.54203 0
M  V30 30301 H 2847.11 7.46412 3.35874 0
M  V30 30302 N 2849.78 -1.1126 1.1162 0
M  V30 30303 C 2851 -1.87379 0.889046 0
M  V30 30304 C 2851.43 -1.79699 -0.555852 0
M  V30 30305 O 2850.78 -1.16075 -1.3927 0
M  V30 30306 C 2850.83 -3.34066 1.35765 0
M  V30 30307 O 2849.94 -4.08973 0.530571 0
M  V30 30308 H 2849.28 -0.581753 0.320092 0
M  V30 30309 H 2851.81 -1.40624 1.48613 0
M  V30 30310 H 2851.82 -3.84914 1.35298 0
M  V30 30311 H 2850.49 -3.38972 2.40979 0
M  V30 30312 H 2849.07 -3.68017 0.601503 0
M  V30 30313 N 2851.25 -0.906798 -1.28899 0
M  V30 30314 C 2852.2 -0.388353 -2.27509 0
M  V30 30315 C 2853.17 0.533411 -1.57302 0
M  V30 30316 O 2854.36 0.457116 -1.85243 0
M  V30 30317 C 2851.5 0.371749 -3.43092 0
M  V30 30318 C 2850.61 -0.581723 -4.28065 0
M  V30 30319 C 2849.74 0.196136 -5.30838 0
M  V30 30320 C 2848.78 -0.751401 -6.0747 0
M  V30 30321 N 2847.92 -0.00750068 -7.021 0
M  V30 30322 H 2852.76 -1.23433 -2.71235 0
M  V30 30323 H 2850.3 -0.619986 -1.33396 0
M  V30 30324 H 2852.26 0.828569 -4.08889 0
M  V30 30325 H 2850.89 1.18212 -3.00376 0
M  V30 30326 H 2849.94 -1.15707 -3.62376 0
M  V30 30327 H 2851.25 -1.30673 -4.81379 0
M  V30 30328 H 2850.4 0.713834 -6.02486 0
M  V30 30329 H 2849.14 0.95424 -4.78274 0
M  V30 30330 H 2848.15 -1.28054 -5.3468 0
M  V30 30331 H 2849.37 -1.50895 -6.62124 0
M  V30 30332 H 2847.32 0.73274 -6.51895 0
M  V30 30333 H 2847.24 -0.672467 -7.53003 0
M  V30 30334 H 2848.5 0.490229 -7.77957 0
M  V30 30335 N 2852.73 1.42648 -0.670032 0
M  V30 30336 C 2853.98 2.01604 -0.190321 0
M  V30 30337 C 2854.31 1.5295 1.20152 0
M  V30 30338 O 2853.56 0.720292 1.81962 0
M  V30 30339 C 2853.86 3.57003 -0.168361 0
M  V30 30340 C 2853.53 4.25069 -1.50422 0
M  V30 30341 C 2852.19 4.43378 -1.87 0
M  V30 30342 C 2854.54 4.6347 -2.38423 0
M  V30 30343 C 2851.87 4.97357 -3.11212 0
M  V30 30344 C 2854.22 5.18826 -3.61942 0
M  V30 30345 C 2852.89 5.35349 -3.98695 0
M  V30 30346 H 2852.16 0.73772 -0.0696434 0
M  V30 30347 H 2854.8 1.70898 -0.864074 0
M  V30 30348 H 2853.11 3.87349 0.588889 0
M  V30 30349 H 2854.8 4.00396 0.21994 0
M  V30 30350 H 2851.39 4.11175 -1.20967 0
M  V30 30351 H 2855.58 4.49002 -2.1145 0
M  V30 30352 H 2850.83 5.08335 -3.39714 0
M  V30 30353 H 2855.01 5.47525 -4.30336 0
M  V30 30354 H 2852.64 5.7694 -4.95019 0
M  V30 30355 N 2854.21 0.413044 1.52091 0
M  V30 30356 C 2855.14 -0.401527 2.30022 0
M  V30 30357 C 2856.12 -1.04267 1.34397 0
M  V30 30358 O 2857.31 -1.05094 1.63306 0
M  V30 30359 C 2854.44 -1.51632 3.1245 0
M  V30 30360 C 2853.39 -0.999977 4.16154 0
M  V30 30361 C 2852.72 -2.20867 4.86952 0
M  V30 30362 C 2854.02 -0.0512839 5.22275 0
M  V30 30363 H 2855.71 0.248757 2.98365 0
M  V30 30364 H 2853.26 0.121077 1.4349 0
M  V30 30365 H 2855.21 -2.09319 3.65737 0
M  V30 30366 H 2853.93 -2.19454 2.41883 0
M  V30 30367 H 2852.59 -0.445485 3.63883 0
M  V30 30368 H 2852.24 -2.87252 4.1291 0
M  V30 30369 H 2851.94 -1.86968 5.57061 0
M  V30 30370 H 2853.47 -2.79153 5.43053 0
M  V30 30371 H 2854.88 -0.537076 5.70779 0
M  V30 30372 H 2853.28 0.199082 5.9977 0
M  V30 30373 H 2854.35 0.892819 4.7661 0
M  V30 30374 N 2855.69 -1.56945 0.143591 0
M  V30 30375 C 2856.62 -2.19602 -0.793561 0
M  V30 30376 C 2857.6 -1.14323 -1.25953 0
M  V30 30377 O 2858.79 -1.42654 -1.31771 0
M  V30 30378 C 2855.92 -2.81492 -2.03419 0
M  V30 30379 C 2854.87 -3.92568 -1.70512 0
M  V30 30380 C 2854.2 -4.41379 -3.0181 0
M  V30 30381 C 2855.5 -5.13506 -0.9544 0
M  V30 30382 H 2857.19 -2.98168 -0.271371 0
M  V30 30383 H 2854.74 -1.4342 -0.129085 0
M  V30 30384 H 2856.69 -3.23991 -2.69458 0
M  V30 30385 H 2855.41 -2.00253 -2.58005 0
M  V30 30386 H 2854.07 -3.50682 -1.06853 0
M  V30 30387 H 2853.72 -3.56965 -3.54379 0
M  V30 30388 H 2853.42 -5.16296 -2.80556 0
M  V30 30389 H 2854.94 -4.86546 -3.68925 0
M  V30 30390 H 2856.36 -5.52871 -1.51681 0
M  V30 30391 H 2854.75 -5.94165 -0.84193 0
M  V30 30392 H 2855.82 -4.84869 0.0544885 0
M  V30 30393 N 2857.17 0.130197 -1.57061 0
M  V30 30394 C 2858.11 1.16021 -1.99519 0
M  V30 30395 C 2859.08 1.4177 -0.865477 0
M  V30 30396 O 2860.27 1.53824 -1.12885 0
M  V30 30397 C 2857.41 2.48449 -2.39514 0
M  V30 30398 C 2856.52 2.29731 -3.65852 0
M  V30 30399 C 2855.66 3.55311 -3.94876 0
M  V30 30400 C 2854.7 3.31702 -5.14432 0
M  V30 30401 N 2853.83 4.49456 -5.39383 0
M  V30 30402 H 2858.67 0.791144 -2.87306 0
M  V30 30403 H 2856.21 0.37917 -1.42129 0
M  V30 30404 H 2858.17 3.25687 -2.60736 0
M  V30 30405 H 2856.8 2.8327 -1.54784 0
M  V30 30406 H 2855.85 1.43464 -3.5231 0
M  V30 30407 H 2857.16 2.08255 -4.53245 0
M  V30 30408 H 2856.32 4.40972 -4.16687 0
M  V30 30409 H 2855.06 3.79807 -3.05937 0
M  V30 30410 H 2854.06 2.44431 -4.92477 0
M  V30 30411 H 2855.29 3.08588 -6.04938 0
M  V30 30412 H 2853.23 4.74094 -4.534 0
M  V30 30413 H 2853.15 4.31045 -6.21077 0
M  V30 30414 H 2854.42 5.36283 -5.65704 0
M  V30 30415 N 2858.65 1.52438 0.400055 0
M  V30 30416 C 2859.61 1.75795 1.47067 0
M  V30 30417 C 2860.61 0.627882 1.48035 0
M  V30 30418 O 2861.8 0.895843 1.494 0
M  V30 30419 C 2858.93 1.84863 2.86424 0
M  V30 30420 H 2860.12 2.7138 1.27644 0
M  V30 30421 H 2857.68 1.42992 0.631116 0
M  V30 30422 H 2858.41 0.912249 3.11205 0
M  V30 30423 H 2858.2 2.67026 2.87123 0
M  V30 30424 H 2859.69 2.04645 3.6402 0
M  V30 30425 N 2860.12 -0.657839 1.43214 0
M  V30 30426 C 2861.03 -1.80005 1.50451 0
M  V30 30427 C 2862.05 -1.69528 0.39194 0
M  V30 30428 O 2863.23 -1.90779 0.645383 0
M  V30 30429 C 2860.29 -3.16256 1.42067 0
M  V30 30430 C 2859.35 -3.38563 2.63957 0
M  V30 30431 C 2858.58 -4.68314 2.55964 0
M  V30 30432 O 2858.81 -5.47359 1.60483 0
M  V30 30433 O 2857.74 -4.92239 3.46387 0
M  V30 30434 H 2861.57 -1.76854 2.46893 0
M  V30 30435 H 2859.15 -0.815738 1.25164 0
M  V30 30436 H 2861.03 -3.97529 1.39817 0
M  V30 30437 H 2859.71 -3.20007 0.48758 0
M  V30 30438 H 2858.62 -2.57072 2.71781 0
M  V30 30439 H 2859.95 -3.39655 3.56223 0
M  V30 30440 N 2861.6 -1.29668 -0.895769 0
M  V30 30441 C 2863.01 -1.16122 -1.46193 0
M  V30 30442 C 2863.36 0.242161 -1.947 0
M  V30 30443 O 2862.49 1.13799 -1.84062 0
M  V30 30444 C 2863.08 -2.10193 -2.65715 0
M  V30 30445 C 2861.64 -2.00658 -3.18454 0
M  V30 30446 C 2860.79 -2.00894 -1.91146 0
M  V30 30447 H 2863.74 -1.42095 -0.706731 0
M  V30 30448 H 2863.76 -1.67646 -3.41578 0
M  V30 30449 H 2863.27 -3.12325 -2.3038 0
M  V30 30450 H 2861.37 -1.0163 -3.58472 0
M  V30 30451 H 2861.49 -2.88516 -3.82486 0
M  V30 30452 H 2859.85 -1.45546 -2.09018 0
M  V30 30453 H 2860.63 -3.04737 -1.58083 0
M  V30 30454 N 2863.08 1.10667 -1.12208 0
M  V30 30455 C 2864.01 2.18996 -0.810124 0
M  V30 30456 C 2864.99 1.68605 0.225035 0
M  V30 30457 O 2866.18 1.94006 0.0867489 0
M  V30 30458 C 2863.31 3.46315 -0.261323 0
M  V30 30459 C 2862.26 4.09967 -1.22927 0
M  V30 30460 C 2861.59 5.31958 -0.540806 0
M  V30 30461 C 2862.89 4.53957 -2.58303 0
M  V30 30462 H 2864.58 2.45349 -1.71594 0
M  V30 30463 H 2862.13 1.17921 -0.826481 0
M  V30 30464 H 2864.08 4.21389 -0.0308262 0
M  V30 30465 H 2862.8 3.19446 0.679823 0
M  V30 30466 H 2861.46 3.36897 -1.44553 0
M  V30 30467 H 2861.11 5.01364 0.405404 0
M  V30 30468 H 2860.81 5.75497 -1.18647 0
M  V30 30469 H 2862.33 6.09765 -0.319291 0
M  V30 30470 H 2863.75 5.20315 -2.40718 0
M  V30 30471 H 2862.14 5.08337 -3.18925 0
M  V30 30472 H 2863.21 3.66997 -3.16925 0
M  V30 30473 N 2864.56 0.913621 1.28416 0
M  V30 30474 C 2865.52 0.406663 2.25563 0
M  V30 30475 C 2866.52 -0.466938 1.53871 0
M  V30 30476 O 2867.71 -0.270012 1.72095 0
M  V30 30477 C 2864.84 -0.416993 3.3834 0
M  V30 30478 H 2866.04 1.26482 2.71923 0
M  V30 30479 H 2863.59 0.693011 1.40097 0
M  V30 30480 H 2864.32 -1.29456 2.97341 0
M  V30 30481 H 2864.11 0.209171 3.91542 0
M  V30 30482 H 2865.6 -0.76253 4.10579 0
M  V30 30483 N 2866.04 -1.4229 0.677588 0
M  V30 30484 C 2867.28 -2.015 0.20101 0
M  V30 30485 C 2867.61 -1.53585 -1.19339 0
M  V30 30486 O 2866.87 -0.729932 -1.81578 0
M  V30 30487 C 2867.16 -3.56909 0.187292 0
M  V30 30488 C 2866.83 -4.24266 1.52674 0
M  V30 30489 C 2865.49 -4.4238 1.89349 0
M  V30 30490 C 2867.84 -4.62199 2.40877 0
M  V30 30491 C 2865.17 -4.957 3.13845 0
M  V30 30492 C 2867.52 -5.169 3.64688 0
M  V30 30493 C 2866.19 -5.33227 4.01528 0
M  V30 30494 H 2865.46 -0.73734 0.0735548 0
M  V30 30495 H 2868.11 -1.70437 0.873125 0
M  V30 30496 H 2866.41 -3.87656 -0.568339 0
M  V30 30497 H 2868.11 -4.00507 -0.198703 0
M  V30 30498 H 2864.7 -4.10528 1.23145 0
M  V30 30499 H 2868.88 -4.47874 2.13828 0
M  V30 30500 H 2864.14 -5.06526 3.42405 0
M  V30 30501 H 2868.31 -5.45235 4.33234 0
M  V30 30502 H 2865.94 -5.74307 4.98072 0
M  V30 30503 N 2867.51 -0.421104 -1.5187 0
M  V30 30504 C 2868.74 0.149904 -2.06356 0
M  V30 30505 C 2869.16 1.37849 -1.29008 0
M  V30 30506 O 2868.51 1.79206 -0.34517 0
M  V30 30507 C 2868.56 0.488391 -3.58186 0
M  V30 30508 O 2868.29 -0.691417 -4.3261 0
M  V30 30509 C 2869.79 1.11184 -4.29131 0
M  V30 30510 H 2867.01 0.0151068 -0.67083 0
M  V30 30511 H 2869.55 -0.59551 -1.95637 0
M  V30 30512 H 2867.71 1.1837 -3.68873 0
M  V30 30513 H 2868.12 -0.405998 -5.22926 0
M  V30 30514 H 2869.59 1.29879 -5.36503 0
M  V30 30515 H 2870.07 2.08833 -3.86375 0
M  V30 30516 H 2870.68 0.456384 -4.22844 0
M  V30 30517 N 2868.99 1.56866 -0.151912 0
M  V30 30518 C 2870.24 1.96282 0.49797 0
M  V30 30519 C 2870.57 1.03701 1.64549 0
M  V30 30520 O 2869.82 0.0671841 1.95585 0
M  V30 30521 C 2870.12 3.41913 1.04068 0
M  V30 30522 C 2869.79 4.50899 0.0110896 0
M  V30 30523 C 2868.45 4.80431 -0.271928 0
M  V30 30524 C 2870.8 5.16629 -0.688781 0
M  V30 30525 C 2868.13 5.72999 -1.26054 0
M  V30 30526 C 2870.48 6.10262 -1.66624 0
M  V30 30527 C 2869.15 6.3817 -1.95691 0
M  V30 30528 H 2868.42 0.718246 0.18222 0
M  V30 30529 H 2871.06 1.89993 -0.239779 0
M  V30 30530 H 2869.37 3.45058 1.85586 0
M  V30 30531 H 2871.06 3.69741 1.55218 0
M  V30 30532 H 2867.65 4.27917 0.241857 0
M  V30 30533 H 2871.84 4.93941 -0.483327 0
M  V30 30534 H 2867.09 5.92913 -1.49213 0
M  V30 30535 H 2871.27 6.60268 -2.21403 0
M  V30 30536 H 2868.9 7.09702 -2.72447 0
M  V30 30537 N 2870.47 -0.121866 1.57128 0
M  V30 30538 C 2871.7 -0.848351 1.89256 0
M  V30 30539 C 2872.12 -1.7278 0.743557 0
M  V30 30540 O 2871.48 -1.78699 -0.306025 0
M  V30 30541 C 2871.53 -1.66007 3.20116 0
M  V30 30542 O 2870.63 -2.76673 3.05819 0
M  V30 30543 H 2869.97 -0.234782 0.621107 0
M  V30 30544 H 2872.5 -0.105124 2.0433 0
M  V30 30545 H 2872.51 -2.0499 3.52765 0
M  V30 30546 H 2871.19 -1.01445 4.03338 0
M  V30 30547 H 2869.76 -2.40913 2.84632 0
M  V30 30548 N 2871.95 -1.52648 -0.391965 0
M  V30 30549 C 2872.9 -1.73596 -1.47812 0
M  V30 30550 C 2873.88 -0.590006 -1.49692 0
M  V30 30551 O 2875.07 -0.847728 -1.55379 0
M  V30 30552 C 2872.2 -1.90556 -2.85558 0
M  V30 30553 C 2871.29 -3.11075 -2.88259 0
M  V30 30554 N 2871.68 -4.33478 -2.60634 0
M  V30 30555 C 2869.98 -3.1126 -3.19427 0
M  V30 30556 C 2870.68 -5.15063 -2.70342 0
M  V30 30557 N 2869.66 -4.50685 -3.03948 0
M  V30 30558 H 2873.46 -2.65863 -1.25276 0
M  V30 30559 H 2870.97 -1.50915 -0.599881 0
M  V30 30560 H 2872.97 -2.03685 -3.63756 0
M  V30 30561 H 2871.63 -0.995007 -3.09079 0
M  V30 30562 H 2872.64 -4.61662 -2.3471 0
M  V30 30563 H 2869.32 -2.30003 -3.48432 0
M  V30 30564 H 2870.71 -6.22628 -2.52554 0
M  V30 30565 N 2873.43 0.650235 -1.43561 0
M  V30 30566 C 2874.7 1.40762 -1.35813 0
M  V30 30567 C 2875.08 2.11099 -0.00740089 0
M  V30 30568 O 2874.43 2.05002 1.00929 0
M  V30 30569 C 2874.64 2.38985 -2.54336 0
M  V30 30570 C 2875.99 3.02895 -2.97556 0
M  V30 30571 O 2877.01 2.49313 -2.54404 0
M  V30 30572 O 2875.87 4.00052 -3.72318 0
M  V30 30573 H 2872.97 0.629045 -0.536872 0
M  V30 30574 H 2875.51 0.676892 -1.55616 0
M  V30 30575 H 2874.28 1.8598 -3.44278 0
M  V30 30576 H 2873.91 3.19504 -2.36649 0
M  V30 30577 N 2874.9 1.30141 0.88888 0
M  V30 30578 C 2876.13 1.21477 1.67113 0
M  V30 30579 C 2876.54 -0.225439 1.87852 0
M  V30 30580 O 2875.89 -1.16142 1.42326 0
M  V30 30581 C 2875.95 1.86851 3.07127 0
M  V30 30582 C 2875.61 3.36172 3.09576 0
M  V30 30583 C 2876.61 4.32227 2.88921 0
M  V30 30584 C 2874.29 3.77554 3.31297 0
M  V30 30585 C 2876.29 5.67639 2.89939 0
M  V30 30586 C 2873.97 5.13085 3.31945 0
M  V30 30587 C 2874.97 6.07938 3.11289 0
M  V30 30588 O 2874.66 7.40993 3.11745 0
M  V30 30589 H 2874.39 0.421671 0.528365 0
M  V30 30590 H 2876.95 1.72232 1.11916 0
M  V30 30591 H 2875.18 1.30621 3.63971 0
M  V30 30592 H 2876.87 1.72361 3.67487 0
M  V30 30593 H 2877.63 4.01588 2.71941 0
M  V30 30594 H 2873.51 3.04171 3.46411 0
M  V30 30595 H 2877.05 6.4165 2.73735 0
M  V30 30596 H 2872.95 5.43366 3.4846 0
M  V30 30597 H 2873.72 7.49933 3.27938 0
M  V30 30598 N 2876.38 -1.1007 1.12794 0
M  V30 30599 C 2877.33 -2.16519 0.799248 0
M  V30 30600 C 2878.3 -1.64419 -0.235697 0
M  V30 30601 O 2879.48 -1.90486 -0.109424 0
M  V30 30602 C 2876.62 -3.44088 0.264152 0
M  V30 30603 C 2875.74 -4.10122 1.35736 0
M  V30 30604 C 2874.87 -5.25423 0.781305 0
M  V30 30605 C 2873.91 -5.83366 1.85338 0
M  V30 30606 N 2873.05 -6.9004 1.29576 0
M  V30 30607 H 2877.89 -2.43978 1.7111 0
M  V30 30608 H 2875.43 -1.19754 0.854246 0
M  V30 30609 H 2877.38 -4.17151 -0.064169 0
M  V30 30610 H 2876.01 -3.16968 -0.610846 0
M  V30 30611 H 2875.07 -3.34989 1.80239 0
M  V30 30612 H 2876.38 -4.49226 2.16789 0
M  V30 30613 H 2875.53 -6.05354 0.403876 0
M  V30 30614 H 2874.27 -4.87663 -0.0603829 0
M  V30 30615 H 2873.28 -5.02102 2.23995 0
M  V30 30616 H 2874.5 -6.2319 2.69835 0
M  V30 30617 H 2872.45 -6.54271 0.475959 0
M  V30 30618 H 2872.36 -7.27876 2.04284 0
M  V30 30619 H 2873.63 -7.73742 0.945681 0
M  V30 30620 N 2877.86 -0.920419 -1.2793 0
M  V30 30621 C 2879.11 -0.55594 -1.94303 0
M  V30 30622 C 2879.43 0.904489 -1.72754 0
M  V30 30623 O 2878.7 1.64027 -1.07107 0
M  V30 30624 H 2877.28 -0.202612 -0.718998 0
M  V30 30625 H 2879.94 -1.17123 -1.55783 0
M  V30 30626 H 2879.04 -0.756034 -3.02804 0
M  V30 30627 N 2879.34 1.41929 -0.685124 0
M  V30 30628 C 2880.56 2.06242 -0.218878 0
M  V30 30629 C 2880.99 1.5118 1.1192 0
M  V30 30630 O 2880.35 0.634476 1.69835 0
M  V30 30631 C 2880.39 3.60172 -0.175655 0
M  V30 30632 O 2879.5 4.03488 0.852705 0
M  V30 30633 H 2878.84 0.654902 -0.109542 0
M  V30 30634 H 2881.37 1.81881 -0.937045 0
M  V30 30635 H 2881.38 4.08 -0.00298323 0
M  V30 30636 H 2880.05 3.99619 -1.15229 0
M  V30 30637 H 2878.63 3.67187 0.650236 0
M  V30 30638 N 2880.82 0.429152 1.51644 0
M  V30 30639 C 2882.04 -0.138958 2.06433 0
M  V30 30640 C 2882.46 -1.37163 1.29737 0
M  V30 30641 O 2881.82 -1.79021 0.354669 0
M  V30 30642 C 2881.87 -0.469389 3.5844 0
M  V30 30643 O 2881.59 0.714349 4.32237 0
M  V30 30644 C 2883.09 -1.08906 4.29714 0
M  V30 30645 H 2880.31 -0.011549 0.670901 0
M  V30 30646 H 2882.85 0.605877 1.95319 0
M  V30 30647 H 2881.01 -1.16412 3.69496 0
M  V30 30648 H 2881.42 0.433725 5.22704 0
M  V30 30649 H 2882.9 -1.27032 5.37184 0
M  V30 30650 H 2883.37 -2.06781 3.87477 0
M  V30 30651 H 2883.98 -0.433953 4.2308 0
M  V30 30652 N 2882.29 -1.56783 0.160229 0
M  V30 30653 C 2883.52 -2.01349 -0.497338 0
M  V30 30654 C 2883.94 -1.03969 -1.56755 0
M  V30 30655 O 2883.3 -0.0174773 -1.81292 0
M  V30 30656 C 2883.35 -3.44584 -1.06274 0
M  V30 30657 O 2882.45 -3.50247 -2.17717 0
M  V30 30658 H 2881.8 -0.653014 -0.120284 0
M  V30 30659 H 2884.33 -2.0293 0.260857 0
M  V30 30660 H 2884.34 -3.8366 -1.38812 0
M  V30 30661 H 2883.01 -4.14963 -0.279093 0
M  V30 30662 H 2881.59 -3.23023 -1.86307 0
M  V30 30663 N 2883.77 0.113531 -1.57191 0
M  V30 30664 C 2884.72 1.14493 -1.97168 0
M  V30 30665 C 2885.71 1.36775 -0.847437 0
M  V30 30666 O 2886.9 1.37775 -1.11117 0
M  V30 30667 C 2884.03 2.47009 -2.38415 0
M  V30 30668 C 2883.11 2.28179 -3.57484 0
M  V30 30669 N 2883.51 1.79174 -4.73001 0
M  V30 30670 C 2881.8 2.58815 -3.63223 0
M  V30 30671 C 2882.5 1.74181 -5.5501 0
M  V30 30672 N 2881.48 2.18726 -4.97654 0
M  V30 30673 H 2885.28 0.758683 -2.83939 0
M  V30 30674 H 2882.8 0.321206 -1.59192 0
M  V30 30675 H 2884.79 3.21613 -2.65275 0
M  V30 30676 H 2883.45 2.86387 -1.53012 0
M  V30 30677 H 2884.46 1.4864 -4.96111 0
M  V30 30678 H 2881.14 3.01842 -2.8844 0
M  V30 30679 H 2882.53 1.375 -6.5768 0
M  V30 30680 N 2885.25 1.52854 0.383864 0
M  V30 30681 C 2886.2 1.74378 1.46889 0
M  V30 30682 C 2887.19 0.597936 1.49377 0
M  V30 30683 O 2888.38 0.855956 1.54927 0
M  V30 30684 C 2885.51 1.92068 2.84543 0
M  V30 30685 C 2884.59 3.12599 2.86605 0
M  V30 30686 N 2884.98 4.34855 2.58332 0
M  V30 30687 C 2883.28 3.12949 3.17771 0
M  V30 30688 C 2883.98 5.1649 2.67607 0
M  V30 30689 N 2882.96 4.5229 3.01554 0
M  V30 30690 H 2886.76 2.66524 1.23864 0
M  V30 30691 H 2884.27 1.51231 0.591869 0
M  V30 30692 H 2886.27 2.05611 3.6267 0
M  V30 30693 H 2884.93 1.01138 3.08547 0
M  V30 30694 H 2885.94 4.629 2.32258 0
M  V30 30695 H 2882.62 2.31848 3.47207 0
M  V30 30696 H 2884.01 6.23959 2.49249 0
M  V30 30697 N 2886.73 -0.642612 1.43904 0
M  V30 30698 C 2887.66 -1.76649 1.527 0
M  V30 30699 C 2888.64 -1.65782 0.380845 0
M  V30 30700 O 2889.83 -1.84716 0.599464 0
M  V30 30701 C 2886.96 -3.1513 1.45981 0
M  V30 30702 C 2885.91 -3.40773 2.58955 0
M  V30 30703 C 2885.24 -4.79165 2.37288 0
M  V30 30704 C 2886.54 -3.34468 4.01159 0
M  V30 30705 H 2888.23 -1.69545 2.46769 0
M  V30 30706 H 2885.78 -0.814258 1.18768 0
M  V30 30707 H 2887.73 -3.93518 1.50737 0
M  V30 30708 H 2886.45 -3.22991 0.484219 0
M  V30 30709 H 2885.11 -2.64761 2.53569 0
M  V30 30710 H 2884.76 -4.83714 1.37947 0
M  V30 30711 H 2884.46 -4.97282 3.13025 0
M  V30 30712 H 2885.98 -5.59797 2.43844 0
M  V30 30713 H 2887.4 -4.02777 4.07975 0
M  V30 30714 H 2885.79 -3.64121 4.77007 0
M  V30 30715 H 2886.86 -2.32468 4.25543 0
M  V30 30716 N 2888.21 -1.30611 -0.881966 0
M  V30 30717 C 2889.45 -1.19784 -1.63645 0
M  V30 30718 C 2889.79 0.246231 -1.92633 0
M  V30 30719 O 2889.06 1.17575 -1.5494 0
M  V30 30720 C 2889.34 -2.0299 -2.97434 0
M  V30 30721 C 2889.2 -3.55633 -2.754 0
M  V30 30722 C 2890.52 -1.87004 -3.98394 0
M  V30 30723 H 2887.64 -0.436498 -0.593833 0
M  V30 30724 H 2890.28 -1.60275 -1.02039 0
M  V30 30725 H 2888.43 -1.68587 -3.50015 0
M  V30 30726 H 2890.1 -4.00111 -2.29583 0
M  V30 30727 H 2888.34 -3.79665 -2.09849 0
M  V30 30728 H 2889.01 -4.09146 -3.70545 0
M  V30 30729 H 2891.49 -2.17088 -3.54982 0
M  V30 30730 H 2890.37 -2.47544 -4.89911 0
M  V30 30731 H 2890.63 -0.830019 -4.34239 0
M  V30 30732 N 2889.69 1.0947 -1.13376 0
M  V30 30733 C 2890.91 1.8594 -0.918744 0
M  V30 30734 C 2891.34 1.80561 0.527193 0
M  V30 30735 O 2890.69 1.18276 1.37406 0
M  V30 30736 C 2890.74 3.31864 -1.41062 0
M  V30 30737 O 2889.85 4.08077 -0.595568 0
M  V30 30738 H 2889.19 0.576587 -0.329307 0
M  V30 30739 H 2891.72 1.38242 -1.50832 0
M  V30 30740 H 2891.73 3.82712 -1.41404 0
M  V30 30741 H 2890.4 3.35095 -2.46341 0
M  V30 30742 H 2888.98 3.67013 -0.659975 0
M  V30 30743 N 2891.16 0.92719 1.2744 0
M  V30 30744 C 2892.58 0.627355 1.46753 0
M  V30 30745 C 2892.78 -0.823517 1.83903 0
M  V30 30746 O 2891.84 -1.60145 1.95217 0
M  V30 30747 C 2893.15 1.57679 2.56043 0
M  V30 30748 C 2894.7 1.58496 2.69904 0
M  V30 30749 C 2895.17 2.52135 3.82351 0
M  V30 30750 N 2896.66 2.50339 3.89724 0
M  V30 30751 C 2897.4 3.19483 4.76149 0
M  V30 30752 N 2896.89 3.98005 5.67066 0
M  V30 30753 N 2898.69 3.08504 4.69874 0
M  V30 30754 H 2890.84 1.86519 1.0161 0
M  V30 30755 H 2893.1 0.800762 0.507429 0
M  V30 30756 H 2892.81 2.6118 2.35537 0
M  V30 30757 H 2892.68 1.3181 3.5342 0
M  V30 30758 H 2895.07 0.557259 2.89791 0
M  V30 30759 H 2895.15 1.88413 1.73015 0
M  V30 30760 H 2894.79 3.55015 3.63217 0
M  V30 30761 H 2894.72 2.19514 4.78666 0
M  V30 30762 H 2897.21 1.93312 3.24714 0
M  V30 30763 H 2897.53 4.47751 6.29872 0
M  V30 30764 H 2895.87 4.02108 5.66863 0
M  V30 30765 H 2899.06 2.46653 3.97844 0
M  V30 30766 H 2899.24 3.62661 5.37011 0
M  V30 30767 N 2892.64 -1.41564 0.692641 0
M  V30 30768 C 2893.59 -2.30786 0.025467 0
M  V30 30769 C 2894.56 -1.46947 -0.774321 0
M  V30 30770 O 2895.74 -1.75741 -0.74295 0
M  V30 30771 C 2892.88 -3.32966 -0.907064 0
M  V30 30772 C 2892 -4.31886 -0.0992024 0
M  V30 30773 C 2891.13 -5.21136 -1.02911 0
M  V30 30774 C 2890.17 -6.11726 -0.213981 0
M  V30 30775 N 2889.31 -6.93469 -1.09754 0
M  V30 30776 H 2894.15 -2.8728 0.792086 0
M  V30 30777 H 2891.68 -1.41491 0.402325 0
M  V30 30778 H 2893.64 -3.90754 -1.46174 0
M  V30 30779 H 2892.27 -2.78029 -1.64011 0
M  V30 30780 H 2891.32 -3.7607 0.572353 0
M  V30 30781 H 2892.64 -4.95946 0.532869 0
M  V30 30782 H 2891.79 -5.83744 -1.65311 0
M  V30 30783 H 2890.53 -4.57296 -1.69504 0
M  V30 30784 H 2889.53 -5.48169 0.423117 0
M  V30 30785 H 2890.76 -6.7762 0.448114 0
M  V30 30786 H 2888.71 -6.3224 -1.74954 0
M  V30 30787 H 2888.62 -7.54203 -0.520966 0
M  V30 30788 H 2889.89 -7.60547 -1.70844 0
M  V30 30789 N 2894.12 -0.437188 -1.51415 0
M  V30 30790 C 2895.34 0.130388 -2.0699 0
M  V30 30791 C 2895.77 1.35707 -1.30251 0
M  V30 30792 O 2895.13 1.78075 -0.34042 0
M  V30 30793 C 2895.18 0.431357 -3.58011 0
M  V30 30794 O 2894.28 1.51783 -3.83452 0
M  V30 30795 H 2893.62 0.00193172 -0.663997 0
M  V30 30796 H 2896.15 -0.618479 -1.95028 0
M  V30 30797 H 2896.16 0.681855 -4.02262 0
M  V30 30798 H 2894.84 -0.46521 -4.1329 0
M  V30 30799 H 2893.41 1.25731 -3.51064 0
M  V30 30800 N 2895.6 1.56696 -0.168541 0
M  V30 30801 C 2896.85 1.95974 0.477198 0
M  V30 30802 C 2897.16 1.05707 1.64576 0
M  V30 30803 O 2898.37 1.34654 2.35755 0
M  V30 30804 C 2896.82 3.48456 0.900352 0
M  V30 30805 C 2896.43 4.47343 -0.242461 0
M  V30 30806 C 2898.17 3.96558 1.51467 0
M  V30 30807 C 2896.08 5.91061 0.200168 0
M  V30 30808 H 2895.01 0.731693 0.182048 0
M  V30 30809 H 2897.66 1.81701 -0.256329 0
M  V30 30810 H 2896.04 3.58138 1.68978 0
M  V30 30811 H 2897.22 4.49375 -1.01975 0
M  V30 30812 H 2895.53 4.09283 -0.766555 0
M  V30 30813 H 2898.13 5.01387 1.85783 0
M  V30 30814 H 2898.47 3.39336 2.41157 0
M  V30 30815 H 2899.01 3.89882 0.789733 0
M  V30 30816 H 2895.74 6.5215 -0.661889 0
M  V30 30817 H 2895.26 5.92343 0.942875 0
M  V30 30818 H 2896.94 6.43777 0.644975 0
M  V30 30819 N 2897.08 -0.105193 1.57249 0
M  V30 30820 C 2898.3 -0.828231 1.90145 0
M  V30 30821 C 2898.73 -1.71981 0.761841 0
M  V30 30822 O 2898.08 -1.79013 -0.287054 0
M  V30 30823 C 2898.13 -1.62602 3.21859 0
M  V30 30824 O 2897.24 -2.73414 3.08737 0
M  V30 30825 H 2896.58 -0.228181 0.623562 0
M  V30 30826 H 2899.11 -0.0834466 2.0443 0
M  V30 30827 H 2899.12 -2.01237 3.54919 0
M  V30 30828 H 2897.79 -0.971616 4.04391 0
M  V30 30829 H 2896.37 -2.37881 2.87171 0
M  V30 30830 N 2898.55 -1.53055 -0.375752 0
M  V30 30831 C 2899.52 -1.78113 -1.44251 0
M  V30 30832 C 2900.52 -0.651354 -1.47017 0
M  V30 30833 O 2901.71 -0.919498 -1.47956 0
M  V30 30834 C 2898.84 -1.89396 -2.83447 0
M  V30 30835 H 2900.03 -2.73376 -1.23311 0
M  V30 30836 H 2897.59 -1.43978 -0.608287 0
M  V30 30837 H 2898.32 -0.961643 -3.09714 0
M  V30 30838 H 2898.11 -2.7156 -2.82839 0
M  V30 30839 H 2899.6 -2.1041 -3.60718 0
M  V30 30840 N 2900.03 0.634971 -1.44242 0
M  V30 30841 C 2901 1.729 -1.5046 0
M  V30 30842 C 2902 1.56071 -0.387085 0
M  V30 30843 O 2903.19 1.61637 -0.649559 0
M  V30 30844 C 2900.32 3.11948 -1.37483 0
M  V30 30845 H 2901.51 1.68763 -2.4791 0
M  V30 30846 H 2899.06 0.848287 -1.31278 0
M  V30 30847 H 2899.8 3.21684 -0.411116 0
M  V30 30848 H 2899.58 3.25569 -2.18511 0
M  V30 30849 H 2901.07 3.9169 -1.44806 0
M  V30 30850 N 2901.51 1.31076 0.875027 0
M  V30 30851 C 2902.44 1.20885 1.99773 0
M  V30 30852 C 2903.42 0.0971911 1.69822 0
M  V30 30853 O 2904.61 0.280929 1.92157 0
M  V30 30854 C 2901.74 0.910176 3.35161 0
M  V30 30855 C 2900.69 1.98085 3.79403 0
M  V30 30856 C 2900.02 1.53497 5.12194 0
M  V30 30857 C 2901.32 3.3933 3.97055 0
M  V30 30858 H 2903.01 2.14812 2.08558 0
M  V30 30859 H 2900.56 1.03416 1.00205 0
M  V30 30860 H 2902.51 0.825496 4.13235 0
M  V30 30861 H 2901.23 -0.0647647 3.26536 0
M  V30 30862 H 2899.89 2.05534 3.03565 0
M  V30 30863 H 2899.54 0.548029 5.00006 0
M  V30 30864 H 2899.24 2.2512 5.42766 0
M  V30 30865 H 2900.76 1.46427 5.92783 0
M  V30 30866 H 2902.18 3.34584 4.65539 0
M  V30 30867 H 2900.58 4.09126 4.39017 0
M  V30 30868 H 2901.65 3.80488 3.00594 0
M  V30 30869 N 2902.99 -1.08867 1.13955 0
M  V30 30870 C 2903.9 -2.1921 0.835705 0
M  V30 30871 C 2904.91 -1.73046 -0.181975 0
M  V30 30872 O 2906.09 -2.01397 -0.0116307 0
M  V30 30873 C 2903.16 -3.4529 0.312386 0
M  V30 30874 C 2902.22 -4.06105 1.39203 0
M  V30 30875 C 2901.45 -5.26166 0.893589 0
M  V30 30876 O 2901.67 -5.69776 -0.266707 0
M  V30 30877 O 2900.61 -5.78255 1.67047 0
M  V30 30878 H 2904.43 -2.47664 1.75774 0
M  V30 30879 H 2902.02 -1.17913 0.917442 0
M  V30 30880 H 2903.9 -4.21392 0.0262323 0
M  V30 30881 H 2902.57 -3.18425 -0.581986 0
M  V30 30882 H 2901.48 -3.31613 1.73158 0
M  V30 30883 H 2902.81 -4.37208 2.26075 0
M  V30 30884 N 2904.47 -0.933936 -1.26946 0
M  V30 30885 C 2905.42 -0.408819 -2.24305 0
M  V30 30886 C 2906.4 0.490408 -1.53244 0
M  V30 30887 O 2907.59 0.326836 -1.73956 0
M  V30 30888 C 2904.72 0.331518 -3.41696 0
M  V30 30889 C 2903.81 -0.584584 -4.20052 0
M  V30 30890 N 2904.2 -1.70718 -4.76119 0
M  V30 30891 C 2902.5 -0.388781 -4.44302 0
M  V30 30892 C 2903.2 -2.27746 -5.35263 0
M  V30 30893 N 2902.17 -1.56632 -5.20545 0
M  V30 30894 H 2905.98 -1.26586 -2.65242 0
M  V30 30895 H 2903.49 -0.788944 -1.41949 0
M  V30 30896 H 2905.49 0.724702 -4.10553 0
M  V30 30897 H 2904.15 1.18541 -3.02288 0
M  V30 30898 H 2905.16 -2.08945 -4.7388 0
M  V30 30899 H 2901.83 0.423943 -4.15342 0
M  V30 30900 H 2903.22 -3.22292 -5.89557 0
M  V30 30901 N 2905.94 1.41194 -0.700139 0
M  V30 30902 C 2906.89 2.30769 -0.0377058 0
M  V30 30903 C 2907.86 1.47356 0.766518 0
M  V30 30904 O 2909.05 1.76133 0.733619 0
M  V30 30905 C 2906.19 3.33442 0.889394 0
M  V30 30906 C 2905.3 4.31933 0.0762971 0
M  V30 30907 C 2904.43 5.21675 1.00146 0
M  V30 30908 C 2903.47 6.11831 0.181536 0
M  V30 30909 N 2902.61 6.94041 1.06074 0
M  V30 30910 H 2907.45 2.86856 -0.80731 0
M  V30 30911 H 2904.99 1.41276 -0.409823 0
M  V30 30912 H 2906.95 3.91524 1.441 0
M  V30 30913 H 2905.58 2.78895 1.62535 0
M  V30 30914 H 2904.63 3.75761 -0.592289 0
M  V30 30915 H 2905.94 4.95656 -0.559163 0
M  V30 30916 H 2905.09 5.84613 1.62213 0
M  V30 30917 H 2903.83 4.58189 1.67077 0
M  V30 30918 H 2902.84 5.47937 -0.452181 0
M  V30 30919 H 2904.06 6.77373 -0.484044 0
M  V30 30920 H 2902.01 6.33159 1.71599 0
M  V30 30921 H 2901.93 7.54469 0.480962 0
M  V30 30922 H 2903.19 7.61443 1.66809 0
M  V30 30923 N 2907.42 0.445212 1.51181 0
M  V30 30924 C 2908.67 -0.118785 2.02452 0
M  V30 30925 C 2909 -1.41671 1.32827 0
M  V30 30926 O 2908.28 -1.89325 0.44567 0
M  V30 30927 C 2908.56 -0.329412 3.5859 0
M  V30 30928 C 2908.41 0.987715 4.38821 0
M  V30 30929 C 2909.73 -1.09567 4.26243 0
M  V30 30930 H 2906.85 -0.0416963 0.73582 0
M  V30 30931 H 2909.49 0.585749 1.80746 0
M  V30 30932 H 2907.64 -0.929534 3.77216 0
M  V30 30933 H 2909.31 1.62242 4.31828 0
M  V30 30934 H 2907.56 1.59048 4.03592 0
M  V30 30935 H 2908.23 0.794288 5.46255 0
M  V30 30936 H 2910.7 -0.587255 4.11935 0
M  V30 30937 H 2909.58 -1.21182 5.35356 0
M  V30 30938 H 2909.84 -2.12577 3.87638 0
M  V30 30939 N 2908.9 -1.56605 0.176849 0
M  V30 30940 C 2910.13 -2.01865 -0.475954 0
M  V30 30941 C 2910.55 -1.05626 -1.55643 0
M  V30 30942 O 2909.91 -0.0367048 -1.81263 0
M  V30 30943 C 2909.96 -3.45692 -1.02613 0
M  V30 30944 O 2909.06 -3.52537 -2.13989 0
M  V30 30945 H 2908.4 -0.654253 -0.113351 0
M  V30 30946 H 2910.93 -2.02642 0.282365 0
M  V30 30947 H 2910.94 -3.85111 -1.34735 0
M  V30 30948 H 2909.62 -4.15235 -0.235065 0
M  V30 30949 H 2908.19 -3.24981 -1.8287 0
M  V30 30950 N 2910.38 0.0968524 -1.57302 0
M  V30 30951 C 2911.34 1.10185 -2.00978 0
M  V30 30952 C 2912.34 1.33049 -0.903033 0
M  V30 30953 O 2913.53 1.29192 -1.16855 0
M  V30 30954 C 2910.66 2.45138 -2.36897 0
M  V30 30955 H 2911.86 0.725952 -2.90981 0
M  V30 30956 H 2909.41 0.341845 -1.52516 0
M  V30 30957 H 2910.14 2.87607 -1.49842 0
M  V30 30958 H 2909.93 2.29891 -3.17636 0
M  V30 30959 H 2911.42 3.17425 -2.71351 0
M  V30 30960 N 2911.86 1.53252 0.36763 0
M  V30 30961 C 2912.79 1.82523 1.45628 0
M  V30 30962 C 2913.77 0.678595 1.55978 0
M  V30 30963 O 2914.95 0.928247 1.70579 0
M  V30 30964 C 2912.08 2.01329 2.82991 0
M  V30 30965 C 2911.04 3.17091 2.87467 0
M  V30 30966 C 2910.36 3.21187 4.27485 0
M  V30 30967 C 2911.66 4.55723 2.55174 0
M  V30 30968 H 2913.36 2.73691 1.21382 0
M  V30 30969 H 2910.9 1.31693 0.582486 0
M  V30 30970 H 2912.86 2.20389 3.59175 0
M  V30 30971 H 2911.58 1.0687 3.0862 0
M  V30 30972 H 2910.24 2.97848 2.13734 0
M  V30 30973 H 2909.89 2.24369 4.50186 0
M  V30 30974 H 2909.59 3.98963 4.31396 0
M  V30 30975 H 2911.11 3.42428 5.05544 0
M  V30 30976 H 2912.52 4.74958 3.21072 0
M  V30 30977 H 2910.92 5.35725 2.70405 0
M  V30 30978 H 2911.99 4.60975 1.50431 0
M  V30 30979 N 2913.34 -0.627313 1.44577 0
M  V30 30980 C 2914.27 -1.7502 1.54565 0
M  V30 30981 C 2915.25 -1.65368 0.398407 0
M  V30 30982 O 2916.43 -1.8407 0.619022 0
M  V30 30983 C 2913.56 -3.13564 1.49315 0
M  V30 30984 C 2912.52 -3.38008 2.62555 0
M  V30 30985 C 2911.84 -4.76621 2.42356 0
M  V30 30986 C 2913.14 -3.30195 4.04684 0
M  V30 30987 H 2914.84 -1.66918 2.48553 0
M  V30 30988 H 2912.38 -0.801615 1.19625 0
M  V30 30989 H 2914.33 -3.91897 1.54902 0
M  V30 30990 H 2913.06 -3.22459 0.518449 0
M  V30 30991 H 2911.72 -2.62057 2.56363 0
M  V30 30992 H 2911.37 -4.82224 1.4307 0
M  V30 30993 H 2911.07 -4.93934 3.18282 0
M  V30 30994 H 2912.59 -5.57179 2.49768 0
M  V30 30995 H 2914 -3.98427 4.12224 0
M  V30 30996 H 2912.4 -3.59041 4.80842 0
M  V30 30997 H 2913.47 -2.27941 4.27984 0
M  V30 30998 N 2914.81 -1.31539 -0.868063 0
M  V30 30999 C 2916.04 -1.24301 -1.65399 0
M  V30 31000 C 2916.46 0.191356 -1.87828 0
M  V30 31001 O 2915.81 1.12402 -1.43778 0
M  V30 31002 C 2915.86 -1.98556 -3.02089 0
M  V30 31003 O 2915.59 -3.36393 -2.80662 0
M  V30 31004 C 2917.09 -1.9818 -3.96534 0
M  V30 31005 H 2914.31 -0.429426 -0.515591 0
M  V30 31006 H 2916.85 -1.73445 -1.08337 0
M  V30 31007 H 2915.01 -1.53167 -3.55835 0
M  V30 31008 H 2915.42 -3.74227 -3.67497 0
M  V30 31009 H 2916.89 -2.54644 -4.89756 0
M  V30 31010 H 2917.37 -0.964773 -4.28473 0
M  V30 31011 H 2917.98 -2.43456 -3.48725 0
M  V30 31012 N 2916.29 1.08262 -1.1453 0
M  V30 31013 C 2917.7 1.62158 -0.92529 0
M  V30 31014 C 2918.05 1.88749 0.535553 0
M  V30 31015 O 2917.18 1.64606 1.40477 0
M  V30 31016 C 2917.77 2.946 -1.67321 0
M  V30 31017 C 2916.33 3.45275 -1.49874 0
M  V30 31018 C 2915.48 2.19484 -1.69475 0
M  V30 31019 H 2918.43 0.914684 -1.29689 0
M  V30 31020 H 2918.45 3.63107 -1.13727 0
M  V30 31021 H 2917.96 2.75215 -2.73639 0
M  V30 31022 H 2916.06 3.69761 -0.459097 0
M  V30 31023 H 2916.18 4.21927 -2.26967 0
M  V30 31024 H 2914.54 2.28728 -1.12052 0
M  V30 31025 H 2915.32 2.02605 -2.77139 0
M  V30 31026 N 2917.77 0.940655 1.26449 0
M  V30 31027 C 2918.73 0.454417 2.2465 0
M  V30 31028 C 2919.73 -0.434195 1.54827 0
M  V30 31029 O 2920.92 -0.233447 1.72629 0
M  V30 31030 C 2918.05 -0.345133 3.39148 0
M  V30 31031 H 2919.25 1.32221 2.69179 0
M  V30 31032 H 2916.8 0.722571 1.38595 0
M  V30 31033 H 2917.54 -1.2312 3.0002 0
M  V30 31034 H 2917.32 0.292175 3.9101 0
M  V30 31035 H 2918.81 -0.675269 4.12104 0
M  V30 31036 N 2919.25 -1.40821 0.707617 0
M  V30 31037 C 2920.16 -2.34545 0.0507658 0
M  V30 31038 C 2921.17 -1.56877 -0.7527 0
M  V30 31039 O 2922.35 -1.89303 -0.687491 0
M  V30 31040 C 2919.41 -3.35719 -0.865672 0
M  V30 31041 C 2918.48 -4.29267 -0.0530559 0
M  V30 31042 C 2917.71 -5.25608 -0.925846 0
M  V30 31043 O 2917.93 -5.27707 -2.16521 0
M  V30 31044 O 2916.87 -6.00767 -0.369088 0
M  V30 31045 H 2920.69 -2.92318 0.823639 0
M  V30 31046 H 2918.28 -1.4188 0.468035 0
M  V30 31047 H 2920.16 -3.97786 -1.39084 0
M  V30 31048 H 2918.83 -2.80371 -1.61783 0
M  V30 31049 H 2917.74 -3.7051 0.516996 0
M  V30 31050 H 2919.07 -4.87745 0.660702 0
M  V30 31051 N 2920.73 -0.453223 -1.50943 0
M  V30 31052 C 2921.66 0.386191 -2.25923 0
M  V30 31053 C 2922.67 0.972629 -1.30552 0
M  V30 31054 O 2923.86 0.864069 -1.56192 0
M  V30 31055 C 2920.96 1.55384 -3.01179 0
M  V30 31056 C 2920.13 1.08343 -4.2377 0
M  V30 31057 C 2919.19 2.12304 -4.8147 0
M  V30 31058 O 2918.22 1.71091 -5.42878 0
M  V30 31059 N 2919.42 3.44948 -4.66895 0
M  V30 31060 H 2922.18 -0.256521 -2.986 0
M  V30 31061 H 2919.75 -0.282993 -1.59408 0
M  V30 31062 H 2921.74 2.24588 -3.36663 0
M  V30 31063 H 2920.31 2.10159 -2.31413 0
M  V30 31064 H 2919.53 0.217892 -3.93597 0
M  V30 31065 H 2920.82 0.746769 -5.0329 0
M  V30 31066 H 2920.21 3.81153 -4.18018 0
M  V30 31067 H 2918.77 4.10001 -5.06698 0
M  V30 31068 N 2922.2 1.56509 -0.185151 0
M  V30 31069 C 2923.43 2.01674 0.462104 0
M  V30 31070 C 2923.85 1.06534 1.55871 0
M  V30 31071 O 2923.2 0.0685126 1.82371 0
M  V30 31072 C 2923.25 3.46586 1.02764 0
M  V30 31073 O 2922.98 4.38093 -0.0252066 0
M  V30 31074 C 2924.48 4.0722 1.75176 0
M  V30 31075 H 2921.7 0.660723 0.116989 0
M  V30 31076 H 2924.24 2.0242 -0.290941 0
M  V30 31077 H 2922.4 3.46571 1.73111 0
M  V30 31078 H 2922.81 5.23016 0.394295 0
M  V30 31079 H 2924.28 5.10498 2.0999 0
M  V30 31080 H 2924.76 3.50106 2.65184 0
M  V30 31081 H 2925.37 4.10979 1.09438 0
M  V30 31082 N 2923.68 -0.0885089 1.57351 0
M  V30 31083 C 2924.93 -0.789229 1.86053 0
M  V30 31084 C 2925.25 -1.78947 0.774795 0
M  V30 31085 O 2924.52 -1.94894 -0.19829 0
M  V30 31086 H 2923.1 -0.294462 0.686514 0
M  V30 31087 H 2925.76 -0.0685712 1.94779 0
M  V30 31088 H 2924.86 -1.31576 2.83009 0
M  V30 31089 N 2925.16 -1.53445 -0.359498 0
M  V30 31090 C 2926.39 -1.73839 -1.12195 0
M  V30 31091 C 2926.8 -0.470139 -1.82853 0
M  V30 31092 O 2926.16 0.557318 -1.73782 0
M  V30 31093 C 2926.21 -2.9079 -2.14763 0
M  V30 31094 O 2925.93 -4.12708 -1.46982 0
M  V30 31095 C 2927.43 -3.23106 -3.03509 0
M  V30 31096 H 2924.65 -0.581259 -0.33523 0
M  V30 31097 H 2927.2 -2.00212 -0.416563 0
M  V30 31098 H 2925.35 -2.66793 -2.80891 0
M  V30 31099 H 2925.77 -4.78243 -2.1537 0
M  V30 31100 H 2927.24 -4.08329 -3.71446 0
M  V30 31101 H 2927.72 -2.38728 -3.68654 0
M  V30 31102 H 2928.32 -3.4905 -2.4299 0
M  V30 31103 N 2926.64 0.619637 -1.44908 0
M  V30 31104 C 2927.88 1.37911 -1.49506 0
M  V30 31105 C 2928.24 1.91959 -0.130192 0
M  V30 31106 O 2927.53 1.71404 0.856233 0
M  V30 31107 C 2927.73 2.55404 -2.50007 0
M  V30 31108 C 2927.55 2.12861 -3.96132 0
M  V30 31109 C 2926.32 1.99598 -4.64208 0
M  V30 31110 C 2928.52 1.71065 -4.85017 0
M  V30 31111 N 2926.5 1.50737 -5.95106 0
M  V30 31112 C 2927.88 1.33533 -6.05449 0
M  V30 31113 C 2929.93 1.58548 -4.71982 0
M  V30 31114 C 2928.63 0.847358 -7.14291 0
M  V30 31115 C 2930.66 1.11155 -5.8086 0
M  V30 31116 C 2930.02 0.745809 -7.00441 0
M  V30 31117 H 2926.12 0.499024 -0.602079 0
M  V30 31118 H 2928.7 0.709648 -1.81307 0
M  V30 31119 H 2926.88 3.19963 -2.20178 0
M  V30 31120 H 2928.61 3.22244 -2.44828 0
M  V30 31121 H 2925.36 2.2041 -4.19186 0
M  V30 31122 H 2925.79 1.28574 -6.64679 0
M  V30 31123 H 2930.43 1.85454 -3.79956 0
M  V30 31124 H 2928.15 0.565832 -8.06117 0
M  V30 31125 H 2931.73 1.01913 -5.72804 0
M  V30 31126 H 2930.61 0.38471 -7.83256 0
M  V30 31127 N 2928.12 1.31997 0.861075 0
M  V30 31128 C 2929.06 1.20395 1.9691 0
M  V30 31129 C 2930.03 0.087619 1.65869 0
M  V30 31130 O 2931.22 0.262044 1.88992 0
M  V30 31131 C 2928.36 0.926393 3.32433 0
M  V30 31132 C 2927.47 2.12691 3.76014 0
M  V30 31133 C 2926.61 1.78537 5.00298 0
M  V30 31134 C 2925.65 2.94946 5.36352 0
M  V30 31135 N 2924.78 2.60929 6.51813 0
M  V30 31136 H 2929.62 2.15174 2.06165 0
M  V30 31137 H 2927.16 1.07026 1.00915 0
M  V30 31138 H 2929.12 0.745989 4.10476 0
M  V30 31139 H 2927.75 0.0154145 3.22796 0
M  V30 31140 H 2926.8 2.41779 2.93678 0
M  V30 31141 H 2928.11 2.99788 3.98658 0
M  V30 31142 H 2927.27 1.57011 5.86031 0
M  V30 31143 H 2926 0.88644 4.79576 0
M  V30 31144 H 2925.01 3.17111 4.49133 0
M  V30 31145 H 2926.23 3.85562 5.59034 0
M  V30 31146 H 2924.18 1.73569 6.32621 0
M  V30 31147 H 2924.1 3.41556 6.74444 0
M  V30 31148 H 2925.37 2.42817 7.40716 0
M  V30 31149 N 2929.59 -1.07653 1.15103 0
M  V30 31150 C 2930.52 -2.16771 0.867902 0
M  V30 31151 C 2931.51 -1.69142 -0.180253 0
M  V30 31152 O 2932.69 -1.94168 -0.0352811 0
M  V30 31153 C 2929.82 -3.45501 0.35305 0
M  V30 31154 C 2928.77 -4.06564 1.33753 0
M  V30 31155 C 2928.1 -5.30337 0.681656 0
M  V30 31156 C 2929.4 -4.46949 2.70248 0
M  V30 31157 H 2931.09 -2.40713 1.78039 0
M  V30 31158 H 2928.64 -1.15688 0.857455 0
M  V30 31159 H 2930.59 -4.21159 0.142539 0
M  V30 31160 H 2929.32 -3.21136 -0.594888 0
M  V30 31161 H 2927.98 -3.32946 1.53435 0
M  V30 31162 H 2927.62 -5.02262 -0.272334 0
M  V30 31163 H 2927.32 -5.72149 1.33863 0
M  V30 31164 H 2928.85 -6.08704 0.480847 0
M  V30 31165 H 2930.26 -5.1375 2.54429 0
M  V30 31166 H 2928.66 -4.99703 3.32291 0
M  V30 31167 H 2929.73 -3.58465 3.26544 0
M  V30 31168 N 2931.07 -0.947348 -1.25949 0
M  V30 31169 C 2932.02 -0.460537 -2.26159 0
M  V30 31170 C 2932.99 0.483097 -1.58919 0
M  V30 31171 O 2934.17 0.397951 -1.86604 0
M  V30 31172 C 2931.31 0.262409 -3.44101 0
M  V30 31173 C 2930.43 -0.717614 -4.25998 0
M  V30 31174 C 2929.56 0.0271552 -5.31193 0
M  V30 31175 C 2928.6 -0.944283 -6.04772 0
M  V30 31176 N 2927.74 -0.230865 -7.0172 0
M  V30 31177 H 2932.58 -1.32 -2.67171 0
M  V30 31178 H 2930.12 -0.662111 -1.31356 0
M  V30 31179 H 2932.07 0.698065 -4.11318 0
M  V30 31180 H 2930.7 1.08596 -3.03985 0
M  V30 31181 H 2929.76 -1.27177 -3.58511 0
M  V30 31182 H 2931.07 -1.45922 -4.76978 0
M  V30 31183 H 2930.22 0.521796 -6.04452 0
M  V30 31184 H 2928.96 0.801598 -4.81067 0
M  V30 31185 H 2927.97 -1.44999 -5.30335 0
M  V30 31186 H 2929.19 -1.71883 -6.56988 0
M  V30 31187 H 2927.14 0.524973 -6.53896 0
M  V30 31188 H 2927.05 -0.911688 -7.50483 0
M  V30 31189 H 2928.32 0.242479 -7.79123 0
M  V30 31190 N 2932.55 1.40444 -0.715075 0
M  V30 31191 C 2933.78 2.05209 -0.263995 0
M  V30 31192 C 2934.19 1.53873 1.094 0
M  V30 31193 O 2933.55 0.695094 1.68744 0
M  V30 31194 C 2933.6 3.60738 -0.234608 0
M  V30 31195 O 2933.32 4.10179 -1.53898 0
M  V30 31196 C 2934.82 4.42676 0.235086 0
M  V30 31197 H 2932.04 0.660405 -0.118771 0
M  V30 31198 H 2934.59 1.79862 -0.973139 0
M  V30 31199 H 2932.74 3.85056 0.425496 0
M  V30 31200 H 2933.16 5.0437 -1.43912 0
M  V30 31201 H 2934.63 5.51621 0.204501 0
M  V30 31202 H 2935.11 4.2022 1.27716 0
M  V30 31203 H 2935.71 4.23464 -0.394723 0
M  V30 31204 N 2934.03 0.461222 1.507 0
M  V30 31205 C 2934.96 -0.374204 2.26125 0
M  V30 31206 C 2935.97 -0.965692 1.31066 0
M  V30 31207 O 2937.16 -0.855774 1.56649 0
M  V30 31208 C 2934.26 -1.53785 3.01999 0
M  V30 31209 C 2933.44 -1.06094 4.24338 0
M  V30 31210 C 2932.49 -2.09748 4.82589 0
M  V30 31211 O 2931.52 -1.6821 5.43778 0
M  V30 31212 N 2932.72 -3.42467 4.68718 0
M  V30 31213 H 2935.49 0.272352 2.9846 0
M  V30 31214 H 2933.05 0.291443 1.59255 0
M  V30 31215 H 2935.04 -2.228 3.3785 0
M  V30 31216 H 2933.61 -2.08929 2.32524 0
M  V30 31217 H 2932.83 -0.197016 3.93707 0
M  V30 31218 H 2934.12 -0.720067 5.03679 0
M  V30 31219 H 2933.52 -3.78931 4.20033 0
M  V30 31220 H 2932.07 -4.07308 5.08865 0
M  V30 31221 N 2935.51 -1.56408 0.193449 0
M  V30 31222 C 2936.75 -1.97533 -0.445754 0
M  V30 31223 C 2937.08 -1.08027 -1.61742 0
M  V30 31224 O 2936.34 -0.119016 -1.95338 0
M  V30 31225 C 2936.64 -3.44552 -0.949657 0
M  V30 31226 C 2936.3 -4.5077 0.108462 0
M  V30 31227 C 2934.96 -4.79541 0.39921 0
M  V30 31228 C 2937.32 -5.14621 0.825514 0
M  V30 31229 C 2934.64 -5.69455 1.41202 0
M  V30 31230 C 2937 -6.05629 1.82746 0
M  V30 31231 C 2935.66 -6.32758 2.12542 0
M  V30 31232 H 2934.93 -0.722824 -0.163113 0
M  V30 31233 H 2937.58 -1.8929 0.290068 0
M  V30 31234 H 2935.88 -3.49857 -1.76372 0
M  V30 31235 H 2937.58 -3.73726 -1.4536 0
M  V30 31236 H 2934.17 -4.28408 -0.128317 0
M  V30 31237 H 2938.35 -4.92486 0.614116 0
M  V30 31238 H 2933.61 -5.88748 1.6488 0
M  V30 31239 H 2937.78 -6.54166 2.38831 0
M  V30 31240 H 2935.41 -7.02229 2.91167 0
M  V30 31241 N 2936.98 0.0801629 -1.57396 0
M  V30 31242 C 2937.93 1.11491 -2.04138 0
M  V30 31243 C 2938.93 1.40581 -0.945162 0
M  V30 31244 O 2940.13 1.40086 -1.1303 0
M  V30 31245 H 2936.51 0.376838 -0.650766 0
M  V30 31246 H 2938.48 0.694475 -2.90206 0
M  V30 31247 C 2937.23 2.42267 -2.49403 0
M  V30 31248 H 2936.55 2.20732 -3.33343 0
M  V30 31249 H 2937.99 3.13137 -2.8587 0
M  V30 31250 C 2936.45 3.07632 -1.37347 0
M  V30 31251 O 2936.98 3.95359 -0.710899 0
M  V30 31252 N 2935.19 2.68121 -1.12069 0
M  V30 31253 H 2934.73 1.96872 -1.6613 0
M  V30 31254 H 2934.69 3.1218 -0.372971 0
M  V30 31255 N 2938.46 1.53634 0.351355 0
M  V30 31256 C 2939.41 1.81762 1.45139 0
M  V30 31257 C 2940.4 0.687598 1.54817 0
M  V30 31258 O 2941.61 0.8708 1.57534 0
M  V30 31259 H 2937.99 0.575728 0.483779 0
M  V30 31260 H 2939.96 2.73808 1.18625 0
M  V30 31261 C 2938.71 2.03711 2.81775 0
M  V30 31262 H 2938.03 2.90111 2.75092 0
M  V30 31263 H 2939.47 2.27362 3.57886 0
M  V30 31264 C 2937.93 0.820329 3.2676 0
M  V30 31265 O 2938.46 0.0159309 4.01697 0
M  V30 31266 N 2936.66 0.639749 2.83471 0
M  V30 31267 H 2936.21 1.2955 2.22653 0
M  V30 31268 H 2936.17 -0.17294 3.13924 0
M  V30 31269 N 2939.94 -0.611943 1.45234 0
M  V30 31270 C 2940.89 -1.74406 1.53901 0
M  V30 31271 C 2941.88 -1.64381 0.409283 0
M  V30 31272 O 2943.09 -1.70228 0.585018 0
M  V30 31273 H 2939.46 -0.576118 0.483313 0
M  V30 31274 H 2941.43 -1.64222 2.49146 0
M  V30 31275 C 2940.18 -3.12779 1.5187 0
M  V30 31276 H 2939.51 -3.21149 2.38124 0
M  V30 31277 H 2940.95 -3.91835 1.61993 0
M  V30 31278 C 2939.41 -3.36027 0.242433 0
M  V30 31279 O 2939.94 -3.95911 -0.679518 0
M  V30 31280 N 2938.14 -2.90265 0.139499 0
M  V30 31281 H 2937.69 -2.41714 0.890614 0
M  V30 31282 H 2937.65 -3.06194 -0.713632 0
M  V30 31283 N 2941.42 -1.32452 -0.854063 0
M  V30 31284 C 2942.33 -1.23437 -1.995 0
M  V30 31285 C 2943.34 -0.147858 -1.73371 0
M  V30 31286 O 2944.52 -0.368644 -1.97997 0
M  V30 31287 C 2941.59 -0.958387 -3.3319 0
M  V30 31288 C 2940.65 -2.1334 -3.72538 0
M  V30 31289 C 2939.88 -1.87049 -4.99848 0
M  V30 31290 O 2940.1 -0.813338 -5.64571 0
M  V30 31291 O 2939.04 -2.73171 -5.36341 0
M  V30 31292 H 2942.86 -2.19353 -2.10042 0
M  V30 31293 H 2940.45 -1.12348 -0.984804 0
M  V30 31294 H 2942.33 -0.820991 -4.13325 0
M  V30 31295 H 2941 -0.0293868 -3.23687 0
M  V30 31296 H 2939.91 -2.32627 -2.92977 0
M  V30 31297 H 2941.24 -3.04521 -3.86688 0
M  V30 31298 N 2942.9 1.07041 -1.15672 0
M  V30 31299 C 2944.13 1.83145 -0.956115 0
M  V30 31300 C 2944.54 1.82503 0.498937 0
M  V30 31301 O 2943.88 1.23722 1.35789 0
M  V30 31302 C 2943.94 3.31242 -1.39709 0
M  V30 31303 C 2943.6 3.55599 -2.87051 0
M  V30 31304 C 2944.6 3.49279 -3.85098 0
M  V30 31305 C 2942.29 3.83164 -3.24793 0
M  V30 31306 C 2944.28 3.70176 -5.18891 0
M  V30 31307 C 2941.97 4.03713 -4.58758 0
M  V30 31308 C 2942.97 3.97215 -5.55616 0
M  V30 31309 O 2942.65 4.17211 -6.87161 0
M  V30 31310 H 2942.39 0.584574 -0.339484 0
M  V30 31311 H 2944.94 1.36002 -1.53924 0
M  V30 31312 H 2943.17 3.7921 -0.757393 0
M  V30 31313 H 2944.86 3.88819 -1.16509 0
M  V30 31314 H 2945.62 3.27982 -3.57286 0
M  V30 31315 H 2941.5 3.87335 -2.49986 0
M  V30 31316 H 2945.05 3.6502 -5.9448 0
M  V30 31317 H 2940.94 4.24497 -4.86285 0
M  V30 31318 H 2941.71 4.34541 -6.93625 0
M  V30 31319 N 2944.38 0.954014 1.25445 0
M  V30 31320 C 2945.6 0.625164 1.97754 0
M  V30 31321 C 2946.03 -0.795757 1.70439 0
M  V30 31322 O 2945.38 -1.53801 0.959947 0
M  V30 31323 C 2945.43 0.889313 3.49462 0
M  V30 31324 O 2944.54 -0.0322032 4.12387 0
M  V30 31325 H 2943.88 0.237753 0.619975 0
M  V30 31326 H 2946.41 1.28044 1.5958 0
M  V30 31327 H 2946.42 0.815333 3.9977 0
M  V30 31328 H 2945.09 1.92493 3.68672 0
M  V30 31329 H 2943.67 0.093928 3.72782 0
M  V30 31330 N 2945.85 -1.40063 0.722513 0
M  V30 31331 C 2946.79 -2.29173 0.034946 0
M  V30 31332 C 2947.8 -1.46183 -0.716545 0
M  V30 31333 O 2948.99 -1.69396 -0.562776 0
M  V30 31334 C 2946.09 -3.24579 -0.974782 0
M  V30 31335 C 2945.26 -4.36455 -0.287394 0
M  V30 31336 C 2944.32 -5.12253 -1.20347 0
M  V30 31337 O 2943.35 -5.65055 -0.685654 0
M  V30 31338 N 2944.55 -5.22266 -2.53413 0
M  V30 31339 H 2947.31 -2.88822 0.800109 0
M  V30 31340 H 2944.87 -1.51508 0.570707 0
M  V30 31341 H 2946.87 -3.72159 -1.58995 0
M  V30 31342 H 2945.44 -2.66048 -1.64125 0
M  V30 31343 H 2944.66 -3.90912 0.508076 0
M  V30 31344 H 2945.94 -5.08447 0.189472 0
M  V30 31345 H 2945.34 -4.80862 -2.97973 0
M  V30 31346 H 2943.9 -5.7333 -3.10057 0
M  V30 31347 N 2947.33 -0.469207 -1.50453 0
M  V30 31348 C 2948.61 0.14792 -1.9504 0
M  V30 31349 C 2948.99 1.57151 -1.40949 0
M  V30 31350 O 2948.34 2.20216 -0.609702 0
M  V30 31351 C 2948.55 0.0931585 -3.48876 0
M  V30 31352 C 2949.89 0.282982 -4.23656 0
M  V30 31353 O 2950.92 0.169829 -3.55795 0
M  V30 31354 O 2949.78 0.511301 -5.44103 0
M  V30 31355 H 2946.87 0.112696 -0.819285 0
M  V30 31356 H 2949.42 -0.529474 -1.61229 0
M  V30 31357 H 2948.19 -0.900851 -3.80789 0
M  V30 31358 H 2947.81 0.812093 -3.89218 0
M  V30 31359 N 2948.81 1.56303 -0.201741 0
M  V30 31360 C 2949.74 2.22396 0.711511 0
M  V30 31361 C 2950.72 1.18919 1.21623 0
M  V30 31362 O 2951.91 1.47446 1.26386 0
M  V30 31363 C 2949.04 2.88848 1.92831 0
M  V30 31364 C 2947.99 3.98626 1.55824 0
M  V30 31365 C 2947.32 4.52276 2.8522 0
M  V30 31366 C 2948.62 5.16694 0.763158 0
M  V30 31367 H 2950.31 2.98969 0.160521 0
M  V30 31368 H 2947.86 1.43801 0.0757663 0
M  V30 31369 H 2949.81 3.33769 2.57247 0
M  V30 31370 H 2948.53 2.0969 2.50395 0
M  V30 31371 H 2947.19 3.54406 0.937638 0
M  V30 31372 H 2946.84 3.69872 3.40887 0
M  V30 31373 H 2946.54 5.26353 2.61201 0
M  V30 31374 H 2948.06 4.99903 3.50613 0
M  V30 31375 H 2949.48 5.58119 1.31057 0
M  V30 31376 H 2947.87 5.9688 0.62083 0
M  V30 31377 H 2948.94 4.84333 -0.234407 0
M  V30 31378 N 2950.29 -0.0718147 1.57436 0
M  V30 31379 C 2951.56 -0.803974 1.78313 0
M  V30 31380 C 2951.94 -1.95789 0.789308 0
M  V30 31381 O 2951.29 -2.27809 -0.177564 0
M  V30 31382 C 2951.5 -1.27694 3.248 0
M  V30 31383 C 2952.85 -1.71033 3.8863 0
M  V30 31384 O 2953.87 -1.3726 3.28691 0
M  V30 31385 O 2952.73 -2.33559 4.94078 0
M  V30 31386 H 2949.83 -0.38525 0.731787 0
M  V30 31387 H 2952.37 -0.0518921 1.69621 0
M  V30 31388 H 2951.15 -0.451272 3.88689 0
M  V30 31389 H 2950.77 -2.09034 3.38217 0
M  V30 31390 N 2951.77 -1.53818 -0.343203 0
M  V30 31391 C 2952.73 -1.81133 -1.40441 0
M  V30 31392 C 2953.73 -0.682392 -1.45602 0
M  V30 31393 O 2954.92 -0.950675 -1.45972 0
M  V30 31394 C 2952.05 -1.95366 -2.79365 0
M  V30 31395 H 2953.24 -2.7593 -1.17484 0
M  V30 31396 H 2950.8 -1.45236 -0.57761 0
M  V30 31397 H 2951.53 -1.02712 -3.07605 0
M  V30 31398 H 2951.32 -2.77498 -2.77015 0
M  V30 31399 H 2952.81 -2.18014 -3.56174 0
M  V30 31400 N 2953.24 0.604233 -1.45557 0
M  V30 31401 C 2954.47 1.38769 -1.53058 0
M  V30 31402 C 2954.88 1.88495 -0.163125 0
M  V30 31403 O 2954.22 1.63053 0.846128 0
M  V30 31404 C 2954.29 2.62472 -2.4566 0
M  V30 31405 C 2953.95 2.3436 -3.92332 0
M  V30 31406 C 2954.95 1.94516 -4.82141 0
M  V30 31407 C 2952.63 2.47169 -4.37279 0
M  V30 31408 C 2954.63 1.67846 -6.14904 0
M  V30 31409 C 2952.31 2.20112 -5.70082 0
M  V30 31410 C 2953.31 1.80512 -6.58714 0
M  V30 31411 O 2953 1.53774 -7.89056 0
M  V30 31412 H 2952.73 0.431066 -0.520729 0
M  V30 31413 H 2955.29 0.74366 -1.91465 0
M  V30 31414 H 2953.52 3.29605 -2.0223 0
M  V30 31415 H 2955.2 3.24519 -2.43808 0
M  V30 31416 H 2955.97 1.84154 -4.48678 0
M  V30 31417 H 2951.85 2.76958 -3.68532 0
M  V30 31418 H 2955.39 1.36862 -6.84043 0
M  V30 31419 H 2951.29 2.30092 -6.03099 0
M  V30 31420 H 2952.06 1.67798 -8.01115 0
M  V30 31421 N 2954.72 1.32903 0.847027 0
M  V30 31422 C 2955.67 1.22445 1.97763 0
M  V30 31423 C 2956.66 0.127576 1.68919 0
M  V30 31424 O 2957.87 0.291004 1.77632 0
M  V30 31425 H 2954.24 0.37976 0.649066 0
M  V30 31426 H 2956.22 2.18048 2.0371 0
M  V30 31427 C 2954.96 0.972184 3.33832 0
M  V30 31428 H 2954.29 1.80844 3.56561 0
M  V30 31429 H 2955.73 0.939282 4.13465 0
M  V30 31430 C 2954.19 -0.325 3.35329 0
M  V30 31431 O 2954.72 -1.33438 3.78889 0
M  V30 31432 N 2952.92 -0.349667 2.88489 0
M  V30 31433 H 2952.47 0.472281 2.53234 0
M  V30 31434 H 2952.43 -1.21743 2.89872 0
M  V30 31435 N 2956.2 -1.06426 1.16238 0
M  V30 31436 C 2957.43 -1.829 0.967216 0
M  V30 31437 C 2957.84 -1.82476 -0.484569 0
M  V30 31438 O 2957.2 -1.24297 -1.33628 0
M  V30 31439 C 2957.25 -3.29573 1.48539 0
M  V30 31440 O 2956.97 -3.30105 2.88032 0
M  V30 31441 C 2958.47 -4.22782 1.33305 0
M  V30 31442 H 2955.69 -0.576748 0.342933 0
M  V30 31443 H 2958.24 -1.34283 1.54234 0
M  V30 31444 H 2956.39 -3.75506 0.952579 0
M  V30 31445 H 2956.81 -4.21812 3.11729 0
M  V30 31446 H 2958.28 -5.23728 1.74394 0
M  V30 31447 H 2958.76 -4.38317 0.278433 0
M  V30 31448 H 2959.36 -3.82694 1.85541 0
M  V30 31449 N 2957.68 -0.960653 -1.24937 0
M  V30 31450 C 2958.63 -0.484498 -2.25657 0
M  V30 31451 C 2959.6 0.466214 -1.59423 0
M  V30 31452 O 2960.78 0.378136 -1.87015 0
M  V30 31453 C 2957.92 0.225898 -3.4436 0
M  V30 31454 C 2957.03 -0.762756 -4.25213 0
M  V30 31455 C 2956.17 -0.0291865 -5.31192 0
M  V30 31456 C 2955.21 -1.00837 -6.03737 0
M  V30 31457 N 2954.34 -0.305278 -7.01436 0
M  V30 31458 H 2959.18 -1.34826 -2.65756 0
M  V30 31459 H 2956.72 -0.676006 -1.30647 0
M  V30 31460 H 2958.68 0.6544 -4.12036 0
M  V30 31461 H 2957.31 1.05366 -3.05119 0
M  V30 31462 H 2956.36 -1.30972 -3.57142 0
M  V30 31463 H 2957.67 -1.50973 -4.75404 0
M  V30 31464 H 2956.83 0.457657 -6.04971 0
M  V30 31465 H 2955.57 0.750529 -4.8189 0
M  V30 31466 H 2954.57 -1.50616 -5.28767 0
M  V30 31467 H 2955.8 -1.78842 -6.55128 0
M  V30 31468 H 2953.74 0.455589 -6.54416 0
M  V30 31469 H 2953.66 -0.991236 -7.49473 0
M  V30 31470 H 2954.93 0.159829 -7.79336 0
M  V30 31471 N 2959.16 1.39677 -0.729931 0
M  V30 31472 C 2960.43 1.94552 -0.202184 0
M  V30 31473 C 2960.81 1.66709 1.29504 0
M  V30 31474 O 2960.16 0.992553 2.05817 0
M  V30 31475 C 2960.37 3.44947 -0.53034 0
M  V30 31476 C 2961.72 4.21913 -0.476882 0
M  V30 31477 O 2962.74 3.53122 -0.467234 0
M  V30 31478 O 2961.6 5.44501 -0.466965 0
M  V30 31479 H 2958.7 0.826251 -0.0351789 0
M  V30 31480 H 2961.24 1.49205 -0.808444 0
M  V30 31481 H 2960.01 3.58627 -1.56532 0
M  V30 31482 H 2959.64 3.97461 0.10515 0
M  V30 31483 N 2960.63 0.47718 1.50202 0
M  V30 31484 C 2961.58 -0.31382 2.28657 0
M  V30 31485 C 2962.55 -0.981778 1.33979 0
M  V30 31486 O 2963.74 -0.993043 1.62921 0
M  V30 31487 C 2960.88 -1.38633 3.1603 0
M  V30 31488 C 2959.99 -0.73254 4.25744 0
M  V30 31489 C 2959.12 -1.78346 5.00366 0
M  V30 31490 C 2958.16 -1.11025 6.01947 0
M  V30 31491 N 2957.3 -2.10429 6.69824 0
M  V30 31492 H 2962.14 0.361497 2.95799 0
M  V30 31493 H 2959.68 0.190119 1.45866 0
M  V30 31494 H 2961.64 -2.01988 3.65043 0
M  V30 31495 H 2960.27 -2.03073 2.50921 0
M  V30 31496 H 2959.32 0.0137214 3.80398 0
M  V30 31497 H 2960.63 -0.201425 4.98393 0
M  V30 31498 H 2959.78 -2.49266 5.53129 0
M  V30 31499 H 2958.52 -2.34839 4.27436 0
M  V30 31500 H 2957.53 -0.386701 5.48438 0
M  V30 31501 H 2958.75 -0.552129 6.76852 0
M  V30 31502 H 2956.7 -2.65928 5.99682 0
M  V30 31503 H 2956.62 -1.62319 7.38369 0
M  V30 31504 H 2957.88 -2.80711 7.27201 0
M  V30 31505 N 2962.11 -1.56194 0.210027 0
M  V30 31506 C 2963.36 -1.9717 -0.425072 0
M  V30 31507 C 2963.67 -1.10034 -1.61716 0
M  V30 31508 O 2964.88 -1.40857 -2.32102 0
M  V30 31509 C 2963.34 -3.50721 -0.807648 0
M  V30 31510 C 2962.94 -4.46543 0.36098 0
M  V30 31511 C 2964.69 -4.00434 -1.40899 0
M  V30 31512 C 2962.6 -5.91384 -0.043388 0
M  V30 31513 H 2961.53 -0.736262 -0.162585 0
M  V30 31514 H 2964.18 -1.80957 0.304414 0
M  V30 31515 H 2962.56 -3.62492 -1.59423 0
M  V30 31516 H 2963.73 -4.46513 1.13853 0
M  V30 31517 H 2962.05 -4.07107 0.8748 0
M  V30 31518 H 2964.64 -5.06136 -1.72424 0
M  V30 31519 H 2964.99 -3.45611 -2.32075 0
M  V30 31520 H 2965.52 -3.91839 -0.686085 0
M  V30 31521 H 2962.26 -6.50166 0.834563 0
M  V30 31522 H 2961.78 -5.94634 -0.785494 0
M  V30 31523 H 2963.46 -6.45261 -0.474062 0
M  V30 31524 N 2963.59 0.0634645 -1.57472 0
M  V30 31525 C 2964.84 0.75953 -1.87285 0
M  V30 31526 C 2965.16 1.77691 -0.803166 0
M  V30 31527 O 2964.43 1.95185 0.167259 0
M  V30 31528 H 2963.01 0.283503 -0.691111 0
M  V30 31529 H 2965.67 0.0375748 -1.94864 0
M  V30 31530 H 2964.77 1.27057 -2.85067 0
M  V30 31531 N 2965.07 1.53998 0.33504 0
M  V30 31532 C 2966.31 1.71907 1.07591 0
M  V30 31533 C 2966.65 0.485297 1.88039 0
M  V30 31534 O 2965.92 -0.51772 1.87483 0
M  V30 31535 C 2966.21 2.98775 2.01011 0
M  V30 31536 C 2966.06 4.32379 1.23969 0
M  V30 31537 C 2967.38 3.21348 3.00705 0
M  V30 31538 H 2964.5 0.625511 0.389749 0
M  V30 31539 H 2967.14 1.8668 0.353651 0
M  V30 31540 H 2965.29 2.86312 2.62598 0
M  V30 31541 H 2966.96 4.56708 0.649303 0
M  V30 31542 H 2965.2 4.30403 0.541803 0
M  V30 31543 H 2965.87 5.17346 1.92503 0
M  V30 31544 H 2968.35 3.33199 2.49235 0
M  V30 31545 H 2967.23 4.11497 3.63265 0
M  V30 31546 H 2967.49 2.3804 3.72545 0
M  V30 31547 N 2966.55 -0.596505 1.45875 0
M  V30 31548 C 2967.46 -1.73461 1.5795 0
M  V30 31549 C 2968.47 -1.67713 0.46349 0
M  V30 31550 O 2969.65 -1.8787 0.725718 0
M  V30 31551 C 2966.71 -3.09946 1.55353 0
M  V30 31552 C 2965.77 -3.27063 2.7808 0
M  V30 31553 C 2965.01 -4.57036 2.75597 0
M  V30 31554 O 2965.23 -5.40059 1.83554 0
M  V30 31555 O 2964.16 -4.77105 3.66953 0
M  V30 31556 H 2967.99 -1.66223 2.54172 0
M  V30 31557 H 2965.58 -0.761918 1.28511 0
M  V30 31558 H 2967.46 -3.91241 1.56552 0
M  V30 31559 H 2966.13 -3.17651 0.622867 0
M  V30 31560 H 2965.04 -2.45314 2.82439 0
M  V30 31561 H 2966.37 -3.24241 3.70309 0
M  V30 31562 N 2968.02 -1.3335 -0.839967 0
M  V30 31563 C 2968.95 -1.26139 -1.96498 0
M  V30 31564 C 2969.94 -0.142182 -1.69505 0
M  V30 31565 O 2971.12 -0.331777 -1.91345 0
M  V30 31566 C 2968.25 -0.998719 -3.3263 0
M  V30 31567 C 2967.2 -2.08075 -3.74017 0
M  V30 31568 C 2966.53 -1.67023 -5.07944 0
M  V30 31569 C 2967.83 -3.49738 -3.87918 0
M  V30 31570 H 2969.52 -2.20266 -2.02789 0
M  V30 31571 H 2967.07 -1.06037 -0.974278 0
M  V30 31572 H 2969.02 -0.934768 -4.10902 0
M  V30 31573 H 2967.75 -0.0218333 -3.26593 0
M  V30 31574 H 2966.41 -2.1351 -2.98008 0
M  V30 31575 H 2966.05 -0.680404 -4.98377 0
M  V30 31576 H 2965.75 -2.39431 -5.36606 0
M  V30 31577 H 2967.28 -1.62092 -5.88692 0
M  V30 31578 H 2968.69 -3.4681 -4.56504 0
M  V30 31579 H 2967.09 -4.20621 -4.28016 0
M  V30 31580 H 2968.16 -3.88324 -2.90401 0
M  V30 31581 N 2969.5 1.05808 -1.16801 0
M  V30 31582 C 2970.73 1.82385 -0.976903 0
M  V30 31583 C 2971.15 1.8273 0.474885 0
M  V30 31584 O 2970.5 1.25004 1.32967 0
M  V30 31585 C 2970.55 3.28781 -1.50285 0
M  V30 31586 O 2970.27 3.28573 -2.89778 0
M  V30 31587 C 2971.78 4.22069 -1.35545 0
M  V30 31588 H 2969 0.574921 -0.345987 0
M  V30 31589 H 2971.54 1.33464 -1.54944 0
M  V30 31590 H 2969.69 3.74995 -0.97248 0
M  V30 31591 H 2970.11 4.20153 -3.13961 0
M  V30 31592 H 2971.58 5.22795 -1.77169 0
M  V30 31593 H 2972.06 4.38163 -0.301675 0
M  V30 31594 H 2972.67 3.81704 -1.87568 0
M  V30 31595 N 2970.98 0.967265 1.24426 0
M  V30 31596 C 2972.23 0.627672 1.92106 0
M  V30 31597 C 2972.55 -0.839749 1.75992 0
M  V30 31598 O 2971.82 -1.59939 1.13121 0
M  V30 31599 H 2970.4 0.229157 0.710982 0
M  V30 31600 H 2973.06 1.22824 1.51328 0
M  V30 31601 H 2972.16 0.867897 2.9979 0
M  V30 31602 N 2972.46 -1.39288 0.737328 0
M  V30 31603 C 2973.88 -1.5416 0.413159 0
M  V30 31604 C 2974.08 -1.70384 -1.07571 0
M  V30 31605 O 2973.13 -1.70565 -1.86182 0
M  V30 31606 C 2974.44 -2.75796 1.19822 0
M  V30 31607 C 2975.99 -2.89633 1.18667 0
M  V30 31608 C 2976.47 -4.1421 1.95434 0
M  V30 31609 N 2977.96 -4.21254 1.92612 0
M  V30 31610 C 2978.69 -5.16602 2.48817 0
M  V30 31611 N 2978.19 -6.17724 3.13669 0
M  V30 31612 N 2979.98 -5.08835 2.38838 0
M  V30 31613 H 2972.13 -1.27005 1.70246 0
M  V30 31614 H 2974.4 -0.615737 0.720813 0
M  V30 31615 H 2974.1 -2.70157 2.25184 0
M  V30 31616 H 2973.98 -3.68527 0.804209 0
M  V30 31617 H 2976.36 -2.94762 0.141163 0
M  V30 31618 H 2976.44 -1.97958 1.62007 0
M  V30 31619 H 2976.09 -4.09842 2.99987 0
M  V30 31620 H 2976.02 -5.04933 1.49499 0
M  V30 31621 H 2978.51 -3.48822 1.45368 0
M  V30 31622 H 2978.82 -6.86943 3.54018 0
M  V30 31623 H 2977.17 -6.18105 3.1776 0
M  V30 31624 H 2980.36 -4.2877 1.87814 0
M  V30 31625 H 2980.53 -5.82966 2.82939 0
M  V30 31626 N 2973.94 -0.485139 -1.49947 0
M  V30 31627 C 2975.17 0.062246 -2.06806 0
M  V30 31628 C 2975.58 1.32253 -1.34739 0
M  V30 31629 O 2974.94 1.77581 -0.420867 0
M  V30 31630 C 2974.99 0.336033 -3.59935 0
M  V30 31631 O 2974.71 -0.874279 -4.29288 0
M  V30 31632 C 2976.21 0.928826 -4.3346 0
M  V30 31633 H 2973.43 -0.013359 -0.670867 0
M  V30 31634 H 2975.97 -0.677951 -1.92935 0
M  V30 31635 H 2974.13 1.02618 -3.73562 0
M  V30 31636 H 2974.54 -0.627424 -5.20734 0
M  V30 31637 H 2976.02 1.07008 -5.41529 0
M  V30 31638 H 2976.49 1.92258 -3.94884 0
M  V30 31639 H 2977.1 0.276631 -4.24399 0
M  V30 31640 N 2975.42 1.56081 -0.218307 0
M  V30 31641 C 2976.35 2.23138 0.687883 0
M  V30 31642 C 2977.33 1.20202 1.20355 0
M  V30 31643 O 2978.51 1.48778 1.24815 0
M  V30 31644 C 2975.64 2.90877 1.89757 0
M  V30 31645 C 2974.6 4.00256 1.51588 0
M  V30 31646 C 2973.92 4.55276 2.80407 0
M  V30 31647 C 2975.22 5.17475 0.708313 0
M  V30 31648 H 2976.92 2.99123 0.128802 0
M  V30 31649 H 2974.46 1.43873 0.0605101 0
M  V30 31650 H 2976.41 3.36479 2.53693 0
M  V30 31651 H 2975.14 2.12334 2.48157 0
M  V30 31652 H 2973.8 3.55381 0.899995 0
M  V30 31653 H 2973.45 3.73467 3.36944 0
M  V30 31654 H 2973.15 5.29094 2.55603 0
M  V30 31655 H 2974.67 5.03593 3.45291 0
M  V30 31656 H 2976.08 5.59478 1.2513 0
M  V30 31657 H 2974.48 5.97505 0.557488 0
M  V30 31658 H 2975.55 4.84057 -0.285764 0
M  V30 31659 N 2976.89 -0.0551124 1.57504 0
M  V30 31660 C 2977.86 -1.04817 2.03828 0
M  V30 31661 C 2978.86 -1.30608 0.937991 0
M  V30 31662 O 2980.05 -1.26048 1.2024 0
M  V30 31663 C 2977.18 -2.38771 2.43313 0
M  V30 31664 H 2978.37 -0.648548 2.92803 0
M  V30 31665 H 2975.92 -0.301288 1.53369 0
M  V30 31666 H 2976.66 -2.83533 1.57415 0
M  V30 31667 H 2976.44 -2.21389 3.23619 0
M  V30 31668 H 2977.93 -3.10119 2.79671 0
M  V30 31669 N 2978.37 -1.54173 -0.326869 0
M  V30 31670 C 2979.65 -1.62866 -1.08323 0
M  V30 31671 C 2980.03 -0.460427 -2.06018 0
M  V30 31672 O 2979.38 0.545646 -2.2189 0
M  V30 31673 C 2979.59 -2.99713 -1.78811 0
M  V30 31674 C 2980.93 -3.55645 -2.31952 0
M  V30 31675 O 2981.96 -3.01996 -1.88883 0
M  V30 31676 O 2980.82 -4.49522 -3.10793 0
M  V30 31677 H 2977.91 -0.659401 -0.499119 0
M  V30 31678 H 2980.46 -1.66519 -0.327025 0
M  V30 31679 H 2979.23 -3.76177 -1.07732 0
M  V30 31680 H 2978.85 -2.99724 -2.6125 0
M  V30 31681 N 2979.85 0.58876 -1.4619 0
M  V30 31682 C 2980.78 1.7086 -1.59151 0
M  V30 31683 C 2981.76 1.64254 -0.442112 0
M  V30 31684 O 2982.95 1.82364 -0.667608 0
M  V30 31685 C 2980.08 3.09495 -1.57576 0
M  V30 31686 C 2979.03 3.30928 -2.71424 0
M  V30 31687 C 2978.36 4.70028 -2.54908 0
M  V30 31688 C 2979.66 3.19349 -4.13296 0
M  V30 31689 H 2981.35 1.60269 -2.52892 0
M  V30 31690 H 2978.9 0.769617 -1.21708 0
M  V30 31691 H 2980.85 3.87652 -1.65238 0
M  V30 31692 H 2979.57 3.20971 -0.603761 0
M  V30 31693 H 2978.23 2.55167 -2.63221 0
M  V30 31694 H 2977.88 4.78261 -1.55805 0
M  V30 31695 H 2977.58 4.85321 -3.31266 0
M  V30 31696 H 2979.1 5.50361 -2.64452 0
M  V30 31697 H 2980.52 3.87358 -4.22643 0
M  V30 31698 H 2978.91 3.46166 -4.90193 0
M  V30 31699 H 2979.98 2.16514 -4.33877 0
M  V30 31700 N 2981.33 1.33794 0.832883 0
M  V30 31701 C 2982.56 1.28642 1.62046 0
M  V30 31702 C 2982.97 -0.141489 1.88269 0
M  V30 31703 O 2982.33 -1.0855 1.46708 0
M  V30 31704 C 2982.38 2.06495 2.96719 0
M  V30 31705 O 2982.1 3.43716 2.71644 0
M  V30 31706 C 2983.6 2.08624 3.91141 0
M  V30 31707 H 2980.82 0.442945 0.504024 0
M  V30 31708 H 2983.36 1.76257 1.037 0
M  V30 31709 H 2981.52 1.62547 3.51649 0
M  V30 31710 H 2981.93 3.83839 3.57446 0
M  V30 31711 H 2983.41 2.67539 4.82832 0
M  V30 31712 H 2983.88 1.07804 4.25764 0
M  V30 31713 H 2984.49 2.52617 3.42147 0
M  V30 31714 N 2982.81 -1.05187 1.1736 0
M  V30 31715 C 2983.74 -2.14881 0.913687 0
M  V30 31716 C 2984.72 -1.69487 -0.144335 0
M  V30 31717 O 2985.9 -1.94199 0.00591275 0
M  V30 31718 C 2983.03 -3.44674 0.426257 0
M  V30 31719 C 2981.99 -4.03635 1.42347 0
M  V30 31720 C 2981.31 -5.28772 0.793995 0
M  V30 31721 C 2982.61 -4.41116 2.79667 0
M  V30 31722 H 2984.31 -2.36882 1.83104 0
M  V30 31723 H 2981.85 -1.13843 0.881801 0
M  V30 31724 H 2983.8 -4.20762 0.231841 0
M  V30 31725 H 2982.53 -3.22326 -0.526637 0
M  V30 31726 H 2981.19 -3.29617 1.60463 0
M  V30 31727 H 2980.84 -5.02727 -0.165735 0
M  V30 31728 H 2980.54 -5.69181 1.45969 0
M  V30 31729 H 2982.06 -6.07547 0.609854 0
M  V30 31730 H 2983.47 -5.08237 2.65269 0
M  V30 31731 H 2981.87 -4.92542 3.42815 0
M  V30 31732 H 2982.94 -3.51458 3.34074 0
M  V30 31733 N 2984.28 -0.97385 -1.23911 0
M  V30 31734 C 2985.21 -0.528009 -2.27452 0
M  V30 31735 C 2986.19 0.435484 -1.64431 0
M  V30 31736 O 2987.38 0.330273 -1.91371 0
M  V30 31737 C 2984.51 0.176696 -3.4685 0
M  V30 31738 C 2983.46 -0.703426 -4.2218 0
M  V30 31739 C 2982.79 0.133121 -5.34534 0
M  V30 31740 C 2984.09 -1.99104 -4.82861 0
M  V30 31741 H 2985.78 -1.39345 -2.64997 0
M  V30 31742 H 2983.33 -0.671469 -1.27386 0
M  V30 31743 H 2985.28 0.499861 -4.18425 0
M  V30 31744 H 2984.01 1.07653 -3.08348 0
M  V30 31745 H 2982.67 -1.00995 -3.52414 0
M  V30 31746 H 2982.31 1.03329 -4.92272 0
M  V30 31747 H 2982.01 -0.452597 -5.85854 0
M  V30 31748 H 2983.54 0.450817 -6.08933 0
M  V30 31749 H 2984.95 -1.73307 -5.46478 0
M  V30 31750 H 2983.35 -2.52399 -5.4444 0
M  V30 31751 H 2984.42 -2.68206 -4.03972 0
M  V30 31752 N 2985.76 1.38895 -0.744705 0
M  V30 31753 C 2987.04 1.94327 -0.222807 0
M  V30 31754 C 2987.42 1.68073 1.27728 0
M  V30 31755 O 2986.77 1.01433 2.04753 0
M  V30 31756 C 2986.98 3.44365 -0.566896 0
M  V30 31757 C 2988.32 4.21384 -0.521605 0
M  V30 31758 O 2989.35 3.52607 -0.504661 0
M  V30 31759 O 2988.21 5.43975 -0.52469 0
M  V30 31760 H 2985.3 0.825832 -0.0439404 0
M  V30 31761 H 2987.85 1.4834 -0.824223 0
M  V30 31762 H 2986.62 3.56947 -1.60327 0
M  V30 31763 H 2986.24 3.9755 0.0629878 0
M  V30 31764 N 2987.24 0.493084 1.49688 0
M  V30 31765 C 2988.47 -0.053475 2.07331 0
M  V30 31766 C 2988.89 -1.30779 1.35198 0
M  V30 31767 O 2988.25 -1.76689 0.406277 0
M  V30 31768 C 2988.3 -0.298187 3.59365 0
M  V30 31769 O 2987.4 -1.37447 3.88821 0
M  V30 31770 H 2986.74 0.0227134 0.663611 0
M  V30 31771 H 2989.27 0.690436 1.92598 0
M  V30 31772 H 2989.28 -0.532088 4.04516 0
M  V30 31773 H 2987.96 0.618279 4.11279 0
M  V30 31774 H 2986.53 -1.12615 3.55489 0
M  V30 31775 N 2988.72 -1.55963 0.226582 0
M  V30 31776 C 2990.13 -1.84583 -0.280349 0
M  V30 31777 C 2990.48 -1.14807 -1.59103 0
M  V30 31778 O 2989.61 -0.419452 -2.12296 0
M  V30 31779 C 2990.2 -3.34856 -0.51544 0
M  V30 31780 C 2988.76 -3.63775 -0.966669 0
M  V30 31781 C 2987.91 -2.77281 -0.0325266 0
M  V30 31782 H 2990.86 -1.52197 0.449653 0
M  V30 31783 H 2990.88 -3.55335 -1.36079 0
M  V30 31784 H 2990.39 -3.85613 0.438661 0
M  V30 31785 H 2988.49 -3.18479 -1.93395 0
M  V30 31786 H 2988.6 -4.71721 -0.837596 0
M  V30 31787 H 2986.97 -2.48905 -0.540235 0
M  V30 31788 H 2987.75 -3.30838 0.916582 0
M  V30 31789 N 2990.2 0.0467589 -1.57531 0
M  V30 31790 C 2991.45 0.740036 -1.87634 0
M  V30 31791 C 2991.76 1.77456 -0.822722 0
M  V30 31792 O 2992.96 2.51918 -1.0124 0
M  V30 31793 C 2991.42 1.36721 -3.32919 0
M  V30 31794 C 2991.03 0.369956 -4.4647 0
M  V30 31795 C 2992.77 2.04139 -3.72193 0
M  V30 31796 C 2990.68 1.00447 -5.82807 0
M  V30 31797 H 2989.61 0.280146 -0.700025 0
M  V30 31798 H 2992.26 -0.00610376 -1.83499 0
M  V30 31799 H 2990.64 2.16246 -3.31743 0
M  V30 31800 H 2991.82 -0.397298 -4.59084 0
M  V30 31801 H 2990.13 -0.201152 -4.15914 0
M  V30 31802 H 2992.73 2.52433 -4.71362 0
M  V30 31803 H 2993.07 2.85187 -3.03273 0
M  V30 31804 H 2993.6 1.31413 -3.75467 0
M  V30 31805 H 2990.34 0.233791 -6.55083 0
M  V30 31806 H 2989.86 1.74198 -5.73947 0
M  V30 31807 H 2991.54 1.51702 -6.28964 0
M  V30 31808 N 2991.67 1.54344 0.318688 0
M  V30 31809 C 2992.62 1.84068 1.39239 0
M  V30 31810 C 2993.59 0.68816 1.51174 0
M  V30 31811 O 2994.78 0.935068 1.66316 0
M  V30 31812 C 2991.92 2.07799 2.75525 0
M  V30 31813 C 2991.03 3.35472 2.72182 0
M  V30 31814 C 2990.16 3.49137 4.00346 0
M  V30 31815 C 2989.2 4.70667 3.9133 0
M  V30 31816 N 2988.34 4.81233 5.11233 0
M  V30 31817 H 2993.18 2.75666 1.13191 0
M  V30 31818 H 2990.72 1.36518 0.547833 0
M  V30 31819 H 2992.68 2.1955 3.54759 0
M  V30 31820 H 2991.31 1.19487 2.99871 0
M  V30 31821 H 2990.36 3.32434 1.84911 0
M  V30 31822 H 2991.67 4.24817 2.61404 0
M  V30 31823 H 2990.82 3.60456 4.88012 0
M  V30 31824 H 2989.56 2.57893 4.13935 0
M  V30 31825 H 2988.57 4.59399 3.02047 0
M  V30 31826 H 2989.79 5.63301 3.793 0
M  V30 31827 H 2987.74 3.92906 5.2532 0
M  V30 31828 H 2987.66 5.64551 5.0281 0
M  V30 31829 H 2988.92 4.96889 6.00601 0
M  V30 31830 N 2993.15 -0.580999 1.465 0
M  V30 31831 C 2994.4 -1.34113 1.52123 0
M  V30 31832 C 2994.73 -1.93427 0.173065 0
M  V30 31833 O 2994.01 -1.76569 -0.815698 0
M  V30 31834 C 2994.29 -2.4692 2.62112 0
M  V30 31835 C 2994.14 -1.92629 4.06465 0
M  V30 31836 C 2995.46 -3.48957 2.68173 0
M  V30 31837 H 2992.58 -0.486277 0.553808 0
M  V30 31838 H 2995.22 -0.652507 1.78444 0
M  V30 31839 H 2993.37 -3.05661 2.39799 0
M  V30 31840 H 2995.04 -1.38332 4.4007 0
M  V30 31841 H 2993.29 -1.23448 4.15864 0
M  V30 31842 H 2993.96 -2.74068 4.79157 0
M  V30 31843 H 2996.43 -3.00099 2.88235 0
M  V30 31844 H 2995.31 -4.25344 3.46949 0
M  V30 31845 H 2995.57 -4.06294 1.74291 0
M  V30 31846 N 2994.63 -1.34234 -0.825776 0
M  V30 31847 C 2996.04 -1.23708 -1.39833 0
M  V30 31848 C 2996.39 0.138614 -1.9571 0
M  V30 31849 O 2995.52 1.03882 -1.89835 0
M  V30 31850 C 2996.11 -2.23983 -2.54199 0
M  V30 31851 C 2994.67 -2.17257 -3.0737 0
M  V30 31852 C 2993.82 -2.10744 -1.80228 0
M  V30 31853 H 2996.77 -1.45642 -0.630416 0
M  V30 31854 H 2996.79 -1.85516 -3.32211 0
M  V30 31855 H 2996.3 -3.24097 -2.13501 0
M  V30 31856 H 2994.4 -1.20489 -3.52581 0
M  V30 31857 H 2994.52 -3.08385 -3.66654 0
M  V30 31858 H 2992.88 -1.56421 -2.01009 0
M  V30 31859 H 2993.66 -3.12688 -1.41708 0
M  V30 31860 N 2996.11 1.04563 -1.17917 0
M  V30 31861 C 2997.04 2.14394 -0.92507 0
M  V30 31862 C 2998.02 1.69561 0.135345 0
M  V30 31863 O 2999.2 1.94193 -0.0162115 0
M  V30 31864 C 2996.33 3.44443 -0.44453 0
M  V30 31865 C 2995.29 4.02875 -1.44486 0
M  V30 31866 C 2994.61 5.28343 -0.822025 0
M  V30 31867 C 2995.91 4.39627 -2.82003 0
M  V30 31868 H 2997.61 2.35908 -1.84358 0
M  V30 31869 H 2995.15 1.13374 -0.887826 0
M  V30 31870 H 2997.11 4.20633 -0.254152 0
M  V30 31871 H 2995.83 3.22601 0.509536 0
M  V30 31872 H 2994.49 3.28761 -1.62208 0
M  V30 31873 H 2994.14 5.02808 0.139072 0
M  V30 31874 H 2993.84 5.68399 -1.48986 0
M  V30 31875 H 2995.36 6.07215 -0.642065 0
M  V30 31876 H 2996.78 5.06823 -2.67961 0
M  V30 31877 H 2995.17 4.90717 -3.45423 0
M  V30 31878 H 2996.24 3.49681 -3.35933 0
M  V30 31879 N 2997.59 0.980408 1.23393 0
M  V30 31880 C 2998.52 0.540064 2.27169 0
M  V30 31881 C 2999.5 -0.426758 1.6466 0
M  V30 31882 O 3000.68 -0.320119 1.91543 0
M  V30 31883 C 2997.81 -0.158299 3.46939 0
M  V30 31884 C 2996.77 0.725806 4.21801 0
M  V30 31885 C 2996.09 -0.104772 5.34597 0
M  V30 31886 C 2997.39 2.01662 4.81798 0
M  V30 31887 H 2999.09 1.40748 2.64254 0
M  V30 31888 H 2996.63 0.678215 1.27029 0
M  V30 31889 H 2998.59 -0.477664 4.18684 0
M  V30 31890 H 2997.31 -1.06017 3.08914 0
M  V30 31891 H 2995.97 1.02863 3.51873 0
M  V30 31892 H 2995.62 -1.00717 4.92813 0
M  V30 31893 H 2995.32 0.48366 5.85606 0
M  V30 31894 H 2996.84 -0.418517 6.09164 0
M  V30 31895 H 2998.25 1.76202 5.45551 0
M  V30 31896 H 2996.65 2.55283 5.43094 0
M  V30 31897 H 2997.72 2.70345 4.02544 0
M  V30 31898 N 2999.06 -1.38498 0.75206 0
M  V30 31899 C 2999.99 -2.33087 0.138759 0
M  V30 31900 C 3000.98 -1.54789 -0.705291 0
M  V30 31901 O 3002.16 -1.83113 -0.646789 0
M  V30 31902 C 2999.29 -3.38964 -0.75635 0
M  V30 31903 C 2998.24 -4.27997 -0.0151486 0
M  V30 31904 C 2997.57 -5.24717 -1.02841 0
M  V30 31905 C 2998.87 -5.09429 1.15235 0
M  V30 31906 H 3000.56 -2.84626 0.928902 0
M  V30 31907 H 2998.11 -1.36849 0.448135 0
M  V30 31908 H 3000.06 -4.04099 -1.19506 0
M  V30 31909 H 2998.79 -2.85905 -1.5788 0
M  V30 31910 H 2997.45 -3.64366 0.404126 0
M  V30 31911 H 2997.09 -4.67946 -1.84488 0
M  V30 31912 H 2996.79 -5.8514 -0.537135 0
M  V30 31913 H 2998.32 -5.92728 -1.46647 0
M  V30 31914 H 2999.73 -5.67813 0.791261 0
M  V30 31915 H 2998.13 -5.7908 1.57438 0
M  V30 31916 H 2999.2 -4.43257 1.96598 0
M  V30 31917 N 3000.54 -0.501015 -1.49424 0
M  V30 31918 C 3001.77 0.0424789 -2.07356 0
M  V30 31919 C 3002.19 1.3006 -1.35889 0
M  V30 31920 O 3001.55 1.76471 -0.415641 0
M  V30 31921 C 3001.6 0.279124 -3.59518 0
M  V30 31922 O 3000.7 1.35383 -3.89545 0
M  V30 31923 H 3000.04 -0.0262324 -0.663482 0
M  V30 31924 H 3002.57 -0.70064 -1.9223 0
M  V30 31925 H 3002.58 0.510628 -4.04792 0
M  V30 31926 H 3001.26 -0.640082 -4.10945 0
M  V30 31927 H 2999.84 1.10728 -3.56081 0
M  V30 31928 N 3002.02 1.5584 -0.234849 0
M  V30 31929 C 3002.93 2.24505 0.680789 0
M  V30 31930 C 3003.95 1.2571 1.20304 0
M  V30 31931 O 3005.12 1.58556 1.24185 0
M  V30 31932 C 3002.19 2.92181 1.86631 0
M  V30 31933 C 3001.25 4.06354 1.38473 0
M  V30 31934 C 3000.48 4.70794 2.51374 0
M  V30 31935 O 3000.71 4.34265 3.69824 0
M  V30 31936 O 2999.64 5.59536 2.21818 0
M  V30 31937 H 3003.47 3.03439 0.125777 0
M  V30 31938 H 3001.05 1.494 -0.00384443 0
M  V30 31939 H 3002.93 3.3485 2.55839 0
M  V30 31940 H 3001.61 2.16196 2.40917 0
M  V30 31941 H 3000.51 3.68227 0.660276 0
M  V30 31942 H 3001.85 4.84122 0.888092 0
M  V30 31943 N 3003.5 -0.038404 1.57553 0
M  V30 31944 C 3004.91 -0.58618 1.77259 0
M  V30 31945 C 3005.26 -1.76116 0.864737 0
M  V30 31946 O 3004.39 -2.16324 0.057179 0
M  V30 31947 C 3004.98 -1.07016 3.21455 0
M  V30 31948 C 3003.54 -1.56352 3.4239 0
M  V30 31949 C 3002.69 -0.49746 2.72801 0
M  V30 31950 H 3005.64 0.187824 1.57585 0
M  V30 31951 H 3005.66 -1.93788 3.27454 0
M  V30 31952 H 3005.17 -0.214783 3.87505 0
M  V30 31953 H 3003.27 -2.44106 2.81501 0
M  V30 31954 H 3003.39 -1.61746 4.50971 0
M  V30 31955 H 3001.75 -0.950339 2.36306 0
M  V30 31956 H 3002.53 0.348294 3.41529 0
M  V30 31957 N 3004.98 -1.54511 -0.310498 0
M  V30 31958 C 3006.23 -1.72551 -1.04447 0
M  V30 31959 C 3006.54 -0.513205 -1.88747 0
M  V30 31960 O 3007.75 -0.575212 -2.65337 0
M  V30 31961 C 3006.2 -3.05249 -1.9066 0
M  V30 31962 C 3005.81 -4.33927 -1.11407 0
M  V30 31963 C 3007.55 -3.32649 -2.63713 0
M  V30 31964 C 3005.46 -5.5768 -1.96842 0
M  V30 31965 H 3004.39 -0.643074 -0.393665 0
M  V30 31966 H 3007.04 -1.80998 -0.301972 0
M  V30 31967 H 3005.42 -2.90742 -2.68859 0
M  V30 31968 H 3006.6 -4.5924 -0.378875 0
M  V30 31969 H 3004.91 -4.1339 -0.49978 0
M  V30 31970 H 3007.51 -4.22306 -3.27966 0
M  V30 31971 H 3007.85 -2.51104 -3.32043 0
M  V30 31972 H 3008.39 -3.48084 -1.92568 0
M  V30 31973 H 3005.12 -6.41866 -1.32998 0
M  V30 31974 H 3004.64 -5.36567 -2.6806 0
M  V30 31975 H 3006.32 -5.94579 -2.55117 0
M  V30 31976 N 3006.46 0.573222 -1.46806 0
M  V30 31977 C 3007.4 1.70264 -1.58471 0
M  V30 31978 C 3008.4 1.63238 -0.452722 0
M  V30 31979 O 3009.6 1.68617 -0.629945 0
M  V30 31980 H 3005.98 0.563102 -0.498418 0
M  V30 31981 H 3007.95 1.57559 -2.53412 0
M  V30 31982 C 3006.7 3.08642 -1.6011 0
M  V30 31983 H 3006.02 3.14723 -2.46555 0
M  V30 31984 H 3007.46 3.87402 -1.72324 0
M  V30 31985 C 3005.92 3.35266 -0.331439 0
M  V30 31986 O 3006.45 3.97573 0.57431 0
M  V30 31987 N 3004.66 2.89793 -0.216409 0
M  V30 31988 H 3004.2 2.39268 -0.954387 0
M  V30 31989 H 3004.16 3.07978 0.632199 0
M  V30 31990 N 3007.93 1.3467 0.818645 0
M  V30 31991 C 3009.18 1.26607 1.57014 0
M  V30 31992 C 3009.5 -0.161002 1.94936 0
M  V30 31993 O 3010.7 -0.363812 2.69051 0
M  V30 31994 C 3009.16 2.21965 2.83301 0
M  V30 31995 C 3008.77 3.69952 2.52664 0
M  V30 31996 C 3010.51 2.22819 3.6132 0
M  V30 31997 C 3008.42 4.57167 3.7517 0
M  V30 31998 H 3007.35 0.470345 0.589315 0
M  V30 31999 H 3010 1.59861 0.900928 0
M  V30 32000 H 3008.38 1.81667 3.51871 0
M  V30 32001 H 3009.55 4.18813 1.92178 0
M  V30 32002 H 3007.87 3.71588 1.87914 0
M  V30 32003 H 3010.47 2.852 4.52289 0
M  V30 32004 H 3010.81 1.22864 3.97756 0
M  V30 32005 H 3011.34 2.61583 2.99698 0
M  V30 32006 H 3008.08 5.58074 3.43851 0
M  V30 32007 H 3007.6 4.13039 4.34924 0
M  V30 32008 H 3009.28 4.71988 4.42534 0
M  V30 32009 N 3009.41 -1.03936 1.1847 0
M  V30 32010 C 3010.66 -1.76557 0.975224 0
M  V30 32011 C 3010.97 -1.89208 -0.495944 0
M  V30 32012 O 3012.18 -2.58695 -0.823964 0
M  V30 32013 C 3010.64 -3.17441 1.69585 0
M  V30 32014 C 3010.24 -3.12879 3.20642 0
M  V30 32015 C 3011.99 -3.9443 1.56924 0
M  V30 32016 C 3009.89 -4.4863 3.85338 0
M  V30 32017 H 3008.82 -0.661823 0.361256 0
M  V30 32018 H 3011.48 -1.164 1.41857 0
M  V30 32019 H 3009.86 -3.78002 1.18029 0
M  V30 32020 H 3011.03 -2.61761 3.79233 0
M  V30 32021 H 3009.35 -2.49388 3.33458 0
M  V30 32022 H 3011.94 -4.94823 2.0262 0
M  V30 32023 H 3012.29 -4.13018 0.521711 0
M  V30 32024 H 3012.82 -3.40447 2.05768 0
M  V30 32025 H 3009.56 -4.35247 4.90143 0
M  V30 32026 H 3009.08 -4.99845 3.31535 0
M  V30 32027 H 3010.76 -5.17542 3.88278 0
M  V30 32028 N 3010.89 -0.986938 -1.22871 0
M  V30 32029 C 3012.17 -0.575622 -1.86938 0
M  V30 32030 C 3012.55 0.947172 -1.88658 0
M  V30 32031 O 3011.89 1.82662 -1.37283 0
M  V30 32032 C 3012.1 -1.18919 -3.28115 0
M  V30 32033 C 3013.45 -1.28601 -4.04657 0
M  V30 32034 O 3014.48 -1.14314 -3.37358 0
M  V30 32035 O 3013.34 -1.514 -5.2511 0
M  V30 32036 H 3010.43 -0.194738 -0.803745 0
M  V30 32037 H 3012.98 -1.08244 -1.30696 0
M  V30 32038 H 3011.75 -2.23106 -3.21465 0
M  V30 32039 H 3011.37 -0.667604 -3.91955 0
M  V30 32040 N 3012.37 1.38098 -0.759394 0
M  V30 32041 C 3013.33 2.28749 -0.14376 0
M  V30 32042 C 3014.33 1.47458 0.641312 0
M  V30 32043 O 3015.52 1.67831 0.466721 0
M  V30 32044 C 3012.65 3.31272 0.804486 0
M  V30 32045 H 3013.85 2.84698 -0.942713 0
M  V30 32046 H 3011.4 1.47155 -0.526783 0
M  V30 32047 H 3012.13 2.80423 1.6289 0
M  V30 32048 H 3011.92 3.91341 0.24387 0
M  V30 32049 H 3013.41 3.99043 1.23104 0
M  V30 32050 N 3013.85 0.508932 1.49156 0
M  V30 32051 C 3014.78 -0.254429 2.3211 0
M  V30 32052 C 3015.76 -0.955087 1.40755 0
M  V30 32053 O 3016.94 -0.944954 1.69659 0
M  V30 32054 C 3014.07 -1.31455 3.21461 0
M  V30 32055 C 3013.03 -0.733294 4.21671 0
M  V30 32056 C 3012.35 -1.89451 5.00012 0
M  V30 32057 C 3013.65 0.280967 5.21544 0
M  V30 32058 H 3015.35 0.438002 2.96179 0
M  V30 32059 H 3012.89 0.212087 1.4243 0
M  V30 32060 H 3014.84 -1.85636 3.78308 0
M  V30 32061 H 3013.57 -2.03627 2.5535 0
M  V30 32062 H 3012.23 -0.213167 3.6598 0
M  V30 32063 H 3011.88 -2.60411 4.30343 0
M  V30 32064 H 3011.58 -1.51163 5.67824 0
M  V30 32065 H 3013.1 -2.44051 5.59706 0
M  V30 32066 H 3014.51 -0.172995 5.73039 0
M  V30 32067 H 3012.91 0.580111 5.97289 0
M  V30 32068 H 3013.98 1.19412 4.69967 0
M  V30 32069 N 3015.32 -1.55714 0.243111 0
M  V30 32070 C 3016.23 -2.24863 -0.668873 0
M  V30 32071 C 3017.25 -1.26346 -1.19635 0
M  V30 32072 O 3018.43 -1.59213 -1.23342 0
M  V30 32073 C 3015.49 -2.93167 -1.85079 0
M  V30 32074 C 3014.55 -4.07083 -1.36316 0
M  V30 32075 C 3013.78 -4.7212 -2.48874 0
M  V30 32076 O 3014.01 -4.36221 -3.67516 0
M  V30 32077 O 3012.94 -5.60704 -2.18847 0
M  V30 32078 H 3016.77 -3.03502 -0.109683 0
M  V30 32079 H 3014.35 -1.49395 0.0117674 0
M  V30 32080 H 3016.23 -3.36202 -2.5406 0
M  V30 32081 H 3014.91 -2.1747 -2.39767 0
M  V30 32082 H 3013.82 -3.68572 -0.640739 0
M  V30 32083 H 3015.15 -4.84586 -0.862405 0
M  V30 32084 N 3016.8 0.030048 -1.57571 0
M  V30 32085 C 3017.74 1.06402 -2.01876 0
M  V30 32086 C 3018.71 1.35226 -0.902925 0
M  V30 32087 O 3019.9 1.47899 -1.16868 0
M  V30 32088 C 3017.02 2.39896 -2.39097 0
M  V30 32089 C 3016.07 2.26936 -3.61112 0
M  V30 32090 S 3016.9 1.62373 -5.10289 0
M  V30 32091 C 3018.06 2.97359 -5.50752 0
M  V30 32092 H 3018.29 0.686653 -2.89262 0
M  V30 32093 H 3015.83 0.239991 -1.52523 0
M  V30 32094 H 3017.78 3.16667 -2.61213 0
M  V30 32095 H 3016.44 2.74781 -1.52164 0
M  V30 32096 H 3015.64 3.25482 -3.84808 0
M  V30 32097 H 3015.24 1.58308 -3.38843 0
M  V30 32098 H 3017.53 3.93688 -5.51376 0
M  V30 32099 H 3018.47 2.78397 -6.51076 0
M  V30 32100 H 3018.88 2.99887 -4.78255 0
M  V30 32101 N 3018.28 1.54674 0.3023 0
M  V30 32102 C 3019.7 1.45858 0.647886 0
M  V30 32103 C 3019.9 0.648724 1.90772 0
M  V30 32104 O 3018.95 0.155909 2.52018 0
M  V30 32105 C 3020.27 2.89805 0.802093 0
M  V30 32106 C 3021.81 2.9984 0.898062 0
M  V30 32107 C 3022.29 4.4498 1.08428 0
M  V30 32108 N 3023.78 4.48684 1.15051 0
M  V30 32109 C 3024.51 5.58168 1.31287 0
M  V30 32110 N 3024.01 6.77578 1.44428 0
M  V30 32111 N 3025.8 5.45854 1.34164 0
M  V30 32112 H 3017.95 2.05798 -0.525464 0
M  V30 32113 H 3020.22 0.931999 -0.173439 0
M  V30 32114 H 3019.92 3.5166 -0.0527149 0
M  V30 32115 H 3019.8 3.37148 1.69149 0
M  V30 32116 H 3022.18 2.38099 1.74336 0
M  V30 32117 H 3022.27 2.55795 -0.0153202 0
M  V30 32118 H 3021.91 5.07315 0.243753 0
M  V30 32119 H 3021.84 4.86654 2.01186 0
M  V30 32120 H 3024.33 3.62655 1.06253 0
M  V30 32121 H 3024.64 7.56774 1.56568 0
M  V30 32122 H 3022.99 6.80446 1.41487 0
M  V30 32123 H 3026.18 4.51512 1.23508 0
M  V30 32124 H 3026.35 6.31228 1.46474 0
M  V30 32125 N 3019.76 -0.565428 1.47108 0
M  V30 32126 C 3021.04 -1.32605 1.43789 0
M  V30 32127 C 3021.42 -2.10696 0.130465 0
M  V30 32128 O 3020.76 -2.10537 -0.888049 0
M  V30 32129 C 3020.97 -2.2375 2.67837 0
M  V30 32130 C 3022.32 -2.85032 3.14709 0
M  V30 32131 O 3023.35 -2.34056 2.68507 0
M  V30 32132 O 3022.2 -3.77664 3.95009 0
M  V30 32133 H 3019.3 -0.596674 0.572634 0
M  V30 32134 H 3021.84 -0.585012 1.59298 0
M  V30 32135 H 3020.62 -1.65591 3.54535 0
M  V30 32136 H 3020.24 -3.05164 2.54874 0
M  V30 32137 N 3021.24 -1.35102 -0.811492 0
M  V30 32138 C 3022.2 -1.27499 -1.90465 0
M  V30 32139 C 3023.2 -0.187544 -1.59703 0
M  V30 32140 O 3024.39 -0.440925 -1.68527 0
M  V30 32141 C 3021.52 -0.971211 -3.26773 0
M  V30 32142 H 3022.71 -2.24694 -1.98627 0
M  V30 32143 H 3020.27 -1.19555 -1.00679 0
M  V30 32144 H 3021 -0.0029127 -3.243 0
M  V30 32145 H 3020.79 -1.75791 -3.50485 0
M  V30 32146 H 3022.28 -0.943486 -4.06802 0
M  V30 32147 N 3022.71 1.03306 -1.19019 0
M  V30 32148 C 3023.96 1.76898 -0.991712 0
M  V30 32149 C 3024.29 1.88256 0.47678 0
M  V30 32150 O 3023.57 1.39627 1.35405 0
M  V30 32151 C 3023.85 3.19746 -1.65633 0
M  V30 32152 C 3023.7 3.16285 -3.19819 0
M  V30 32153 C 3025.02 4.18041 -1.37586 0
M  V30 32154 H 3022.14 0.642147 -0.361685 0
M  V30 32155 H 3024.78 1.20626 -1.46797 0
M  V30 32156 H 3022.93 3.67794 -1.25139 0
M  V30 32157 H 3024.61 2.76167 -3.69499 0
M  V30 32158 H 3022.85 2.54111 -3.51582 0
M  V30 32159 H 3023.52 4.1719 -3.61465 0
M  V30 32160 H 3026 3.78575 -1.72686 0
M  V30 32161 H 3024.87 5.16193 -1.86645 0
M  V30 32162 H 3025.13 4.4108 -0.300196 0
M  V30 32163 N 3024.19 0.99344 1.22346 0
M  V30 32164 C 3025.1 0.553116 2.27986 0
M  V30 32165 C 3026.12 -0.398357 1.69379 0
M  V30 32166 O 3027.29 -0.265055 1.99648 0
M  V30 32167 C 3024.36 -0.124748 3.46475 0
M  V30 32168 C 3023.42 0.869756 4.20397 0
M  V30 32169 C 3022.65 0.224146 5.33229 0
M  V30 32170 O 3022.88 -0.981816 5.61887 0
M  V30 32171 O 3021.81 0.929278 5.94683 0
M  V30 32172 H 3025.64 1.432 2.6782 0
M  V30 32173 H 3023.22 0.761716 1.28523 0
M  V30 32174 H 3025.1 -0.504422 4.1837 0
M  V30 32175 H 3023.78 -0.978189 3.08566 0
M  V30 32176 H 3022.69 1.30037 3.50772 0
M  V30 32177 H 3024.02 1.69242 4.62188 0
M  V30 32178 N 3025.67 -1.37693 0.766707 0
M  V30 32179 C 3026.62 -2.30326 0.147766 0
M  V30 32180 C 3027.59 -1.50845 -0.695339 0
M  V30 32181 O 3028.77 -1.79432 -0.648749 0
M  V30 32182 C 3025.91 -3.37306 -0.729291 0
M  V30 32183 C 3025.03 -4.31805 0.12987 0
M  V30 32184 C 3024.16 -5.25858 -0.751419 0
M  V30 32185 C 3023.2 -6.12 0.110583 0
M  V30 32186 N 3022.34 -6.98311 -0.7284 0
M  V30 32187 H 3027.18 -2.82678 0.943254 0
M  V30 32188 H 3024.71 -1.3916 0.476761 0
M  V30 32189 H 3026.67 -3.97953 -1.25256 0
M  V30 32190 H 3025.3 -2.86332 -1.49043 0
M  V30 32191 H 3024.35 -3.72507 0.770895 0
M  V30 32192 H 3025.67 -4.92424 0.79501 0
M  V30 32193 H 3024.82 -5.91686 -1.34136 0
M  V30 32194 H 3023.56 -4.65638 -1.45025 0
M  V30 32195 H 3022.56 -5.45156 0.713094 0
M  V30 32196 H 3023.79 -6.74292 0.806676 0
M  V30 32197 H 3021.73 -6.40625 -1.41194 0
M  V30 32198 H 3021.65 -7.55904 -0.120447 0
M  V30 32199 H 3022.92 -7.68534 -1.30289 0
M  V30 32200 N 3027.15 -0.516835 -1.48884 0
M  V30 32201 C 3028.56 -0.0730249 -1.86557 0
M  V30 32202 C 3028.91 1.34579 -1.42769 0
M  V30 32203 O 3028.04 2.00566 -0.812549 0
M  V30 32204 C 3028.63 -0.125745 -3.38567 0
M  V30 32205 C 3027.19 0.262801 -3.75481 0
M  V30 32206 C 3026.34 -0.491329 -2.72913 0
M  V30 32207 H 3029.29 -0.728791 -1.40976 0
M  V30 32208 H 3029.31 0.665766 -3.7463 0
M  V30 32209 H 3028.82 -1.15849 -3.70406 0
M  V30 32210 H 3026.92 1.29818 -3.49253 0
M  V30 32211 H 3027.03 -0.0676632 -4.79052 0
M  V30 32212 H 3025.4 0.0608078 -2.54627 0
M  V30 32213 H 3026.18 -1.52445 -3.07596 0
M  V30 32214 N 3028.63 1.55583 -0.251365 0
M  V30 32215 C 3029.56 2.18907 0.679128 0
M  V30 32216 C 3030.57 1.16669 1.13543 0
M  V30 32217 O 3031.76 1.43512 1.06144 0
M  V30 32218 C 3028.86 2.78201 1.93539 0
M  V30 32219 C 3028.03 4.05902 1.6298 0
M  V30 32220 C 3027.09 4.49471 2.7361 0
M  V30 32221 O 3026.12 5.15753 2.40806 0
M  V30 32222 N 3027.32 4.17627 4.03197 0
M  V30 32223 H 3030.09 2.99385 0.137275 0
M  V30 32224 H 3027.65 1.61742 -0.0715038 0
M  V30 32225 H 3029.64 3.04304 2.66798 0
M  V30 32226 H 3028.21 2.01855 2.38691 0
M  V30 32227 H 3027.43 3.87341 0.732169 0
M  V30 32228 H 3028.72 4.89151 1.40033 0
M  V30 32229 H 3028.11 3.64424 4.3268 0
M  V30 32230 H 3026.67 4.48555 4.72908 0
M  V30 32231 N 3030.1 -0.0216912 1.57585 0
M  V30 32232 C 3031.01 -1.0368 2.10446 0
M  V30 32233 C 3032.03 -1.39145 1.04474 0
M  V30 32234 O 3033.21 -1.48315 1.36252 0
M  V30 32235 C 3030.27 -2.31659 2.57944 0
M  V30 32236 C 3029.33 -2.02708 3.78429 0
M  V30 32237 C 3028.57 -3.24585 4.23651 0
M  V30 32238 O 3028.79 -4.35518 3.68348 0
M  V30 32239 O 3027.72 -3.09853 5.16018 0
M  V30 32240 H 3031.55 -0.617531 2.97355 0
M  V30 32241 H 3029.13 -0.239148 1.47474 0
M  V30 32242 H 3031.02 -3.06884 2.88791 0
M  V30 32243 H 3029.69 -2.72867 1.74142 0
M  V30 32244 H 3028.6 -1.25027 3.52589 0
M  V30 32245 H 3029.93 -1.66351 4.63237 0
M  V30 32246 N 3031.58 -1.54832 -0.294093 0
M  V30 32247 C 3032.83 -1.74441 -1.02843 0
M  V30 32248 C 3033.16 -0.533938 -1.87028 0
M  V30 32249 O 3032.41 0.484001 -1.8962 0
M  V30 32250 C 3032.71 -2.99009 -1.95776 0
M  V30 32251 C 3032.38 -4.32494 -1.27513 0
M  V30 32252 C 3031.04 -4.68779 -1.08628 0
M  V30 32253 C 3033.39 -5.15214 -0.78767 0
M  V30 32254 C 3030.72 -5.85356 -0.396937 0
M  V30 32255 C 3033.07 -6.32501 -0.112012 0
M  V30 32256 C 3031.74 -6.67441 0.0887244 0
M  V30 32257 H 3031.01 -0.638323 -0.37633 0
M  V30 32258 H 3033.65 -1.89093 -0.302651 0
M  V30 32259 H 3031.96 -2.79167 -2.74906 0
M  V30 32260 H 3033.66 -3.11376 -2.52678 0
M  V30 32261 H 3030.25 -4.03963 -1.43218 0
M  V30 32262 H 3034.43 -4.87675 -0.921255 0
M  V30 32263 H 3029.69 -6.10965 -0.230489 0
M  V30 32264 H 3033.86 -6.95862 0.273562 0
M  V30 32265 H 3031.49 -7.57627 0.624881 0
M  V30 32266 N 3033.06 0.557619 -1.47405 0
M  V30 32267 C 3034.29 1.34023 -1.57624 0
M  V30 32268 C 3034.7 1.87439 -0.226289 0
M  V30 32269 O 3034.06 1.64973 0.780401 0
M  V30 32270 C 3034.11 2.51043 -2.60115 0
M  V30 32271 O 3033.83 1.99834 -3.89869 0
M  V30 32272 C 3035.33 3.43259 -2.80514 0
M  V30 32273 H 3032.55 0.40856 -0.532278 0
M  V30 32274 H 3035.1 0.675521 -1.93021 0
M  V30 32275 H 3033.25 3.13453 -2.27654 0
M  V30 32276 H 3033.67 2.76226 -4.45869 0
M  V30 32277 H 3035.14 4.21785 -3.56091 0
M  V30 32278 H 3035.62 3.96777 -1.88321 0
M  V30 32279 H 3036.22 2.86665 -3.14171 0
M  V30 32280 N 3034.54 1.35531 0.804316 0
M  V30 32281 C 3035.79 1.28265 1.55663 0
M  V30 32282 C 3036.1 -0.140317 1.95096 0
M  V30 32283 O 3037.31 -0.335255 2.69422 0
M  V30 32284 C 3035.76 2.24957 2.80931 0
M  V30 32285 C 3035.37 3.72611 2.48726 0
M  V30 32286 C 3037.12 2.26639 3.58936 0
M  V30 32287 C 3035.02 4.6112 3.703 0
M  V30 32288 H 3033.95 0.476569 0.584293 0
M  V30 32289 H 3036.6 1.60808 0.883922 0
M  V30 32290 H 3034.99 1.85389 3.49924 0
M  V30 32291 H 3036.16 4.20827 1.87726 0
M  V30 32292 H 3034.47 3.7356 1.83962 0
M  V30 32293 H 3037.07 2.89981 4.49238 0
M  V30 32294 H 3037.41 1.27076 3.96431 0
M  V30 32295 H 3037.95 2.64747 2.96907 0
M  V30 32296 H 3034.69 5.6169 3.37912 0
M  V30 32297 H 3034.21 4.17629 4.30519 0
M  V30 32298 H 3035.89 4.76655 4.37503 0
M  V30 32299 N 3036.02 -1.02674 1.19565 0
M  V30 32300 C 3037.26 -1.7637 1.00108 0
M  V30 32301 C 3037.6 -1.88507 -0.46679 0
M  V30 32302 O 3036.87 -1.40344 -1.34662 0
M  V30 32303 C 3037.15 -3.18863 1.67326 0
M  V30 32304 C 3037.01 -3.14584 3.21492 0
M  V30 32305 C 3038.33 -4.17305 1.39801 0
M  V30 32306 H 3035.45 -0.64022 0.365086 0
M  V30 32307 H 3038.09 -1.19845 1.47435 0
M  V30 32308 H 3036.24 -3.67125 1.27087 0
M  V30 32309 H 3037.91 -2.74204 3.70958 0
M  V30 32310 H 3036.15 -2.52243 3.52925 0
M  V30 32311 H 3036.82 -4.15267 3.63672 0
M  V30 32312 H 3039.3 -3.77654 1.74691 0
M  V30 32313 H 3038.18 -5.15195 1.8938 0
M  V30 32314 H 3038.44 -4.40914 0.323583 0
M  V30 32315 N 3037.5 -0.999914 -1.21817 0
M  V30 32316 C 3038.46 -0.561083 -2.22226 0
M  V30 32317 C 3039.46 0.35983 -1.56722 0
M  V30 32318 O 3040.65 0.150818 -1.73546 0
M  V30 32319 C 3037.78 0.182927 -3.40409 0
M  V30 32320 H 3038.97 -1.44914 -2.62564 0
M  V30 32321 H 3036.53 -0.787874 -1.3499 0
M  V30 32322 H 3037.26 1.08665 -3.05553 0
M  V30 32323 H 3037.05 -0.478399 -3.89171 0
M  V30 32324 H 3038.54 0.477879 -4.14857 0
M  V30 32325 N 3038.97 1.37284 -0.773999 0
M  V30 32326 C 3040.22 1.99636 -0.339341 0
M  V30 32327 C 3040.55 1.61441 1.08475 0
M  V30 32328 O 3039.8 0.853283 1.76118 0
M  V30 32329 C 3040.1 3.54771 -0.432714 0
M  V30 32330 C 3039.77 4.1274 -1.81539 0
M  V30 32331 C 3038.43 4.28286 -2.19374 0
M  V30 32332 C 3040.78 4.44507 -2.72145 0
M  V30 32333 C 3038.11 4.72902 -3.47247 0
M  V30 32334 C 3040.46 4.90549 -3.9943 0
M  V30 32335 C 3039.13 5.043 -4.37307 0
M  V30 32336 H 3038.4 0.730522 -0.124174 0
M  V30 32337 H 3041.04 1.64017 -0.988461 0
M  V30 32338 H 3039.35 3.9065 0.299941 0
M  V30 32339 H 3041.05 4.00925 -0.0776704 0
M  V30 32340 H 3037.64 4.01069 -1.51133 0
M  V30 32341 H 3041.82 4.3208 -2.44173 0
M  V30 32342 H 3037.08 4.81735 -3.76485 0
M  V30 32343 H 3041.25 5.14096 -4.69765 0
M  V30 32344 H 3038.88 5.38631 -5.36451 0
M  V30 32345 N 3040.45 0.524724 1.48608 0
M  V30 32346 C 3041.7 -0.0113025 2.02797 0
M  V30 32347 C 3042.03 -1.34431 1.4015 0
M  V30 32348 O 3041.31 -1.86697 0.545401 0
M  V30 32349 C 3041.59 -0.138868 3.59832 0
M  V30 32350 C 3041.44 1.21894 4.32969 0
M  V30 32351 C 3042.76 -0.868189 4.31452 0
M  V30 32352 H 3039.88 -0.0026335 0.736995 0
M  V30 32353 H 3042.52 0.680735 1.77387 0
M  V30 32354 H 3040.67 -0.728273 3.81613 0
M  V30 32355 H 3042.34 1.84905 4.2262 0
M  V30 32356 H 3040.59 1.80218 3.94593 0
M  V30 32357 H 3041.26 1.08273 5.41277 0
M  V30 32358 H 3043.73 -0.368072 4.14469 0
M  V30 32359 H 3042.61 -0.926333 5.41027 0
M  V30 32360 H 3042.87 -1.9173 3.98362 0
M  V30 32361 N 3041.93 -1.55447 0.259613 0
M  V30 32362 C 3042.88 -2.21906 -0.634539 0
M  V30 32363 C 3043.85 -1.18721 -1.16166 0
M  V30 32364 O 3045.03 -1.47212 -1.2138 0
M  V30 32365 C 3042.17 -2.93207 -1.82 0
M  V30 32366 C 3041.28 -4.11075 -1.3282 0
M  V30 32367 C 3040.42 -4.70059 -2.47423 0
M  V30 32368 C 3039.46 -5.80151 -1.95169 0
M  V30 32369 N 3038.6 -6.33264 -3.03185 0
M  V30 32370 H 3043.44 -2.97937 -0.0611362 0
M  V30 32371 H 3040.97 -1.47088 -0.0184119 0
M  V30 32372 H 3042.93 -3.32752 -2.51658 0
M  V30 32373 H 3041.56 -2.19626 -2.36567 0
M  V30 32374 H 3040.61 -3.76756 -0.525235 0
M  V30 32375 H 3041.92 -4.90515 -0.905348 0
M  V30 32376 H 3041.08 -5.12244 -3.25102 0
M  V30 32377 H 3039.82 -3.89863 -2.93016 0
M  V30 32378 H 3038.82 -5.37431 -1.15964 0
M  V30 32379 H 3040.05 -6.62207 -1.5053 0
M  V30 32380 H 3037.99 -5.55968 -3.4819 0
M  V30 32381 H 3037.91 -7.07932 -2.6527 0
M  V30 32382 H 3039.18 -6.80108 -3.80886 0
M  V30 32383 N 3043.41 0.0133338 -1.57594 0
M  V30 32384 C 3044.64 0.711261 -1.93971 0
M  V30 32385 C 3045.05 1.6857 -0.859113 0
M  V30 32386 O 3044.39 1.82895 0.17181 0
M  V30 32387 C 3044.45 1.50995 -3.26253 0
M  V30 32388 C 3044.11 0.698566 -4.51629 0
M  V30 32389 C 3045.11 -0.00800323 -5.19899 0
M  V30 32390 C 3042.8 0.648466 -4.98097 0
M  V30 32391 C 3044.79 -0.753802 -6.32927 0
M  V30 32392 C 3042.48 -0.101068 -6.11016 0
M  V30 32393 C 3043.48 -0.800947 -6.78287 0
M  V30 32394 O 3043.16 -1.53828 -7.89045 0
M  V30 32395 H 3042.9 0.20394 -0.644503 0
M  V30 32396 H 3045.45 -0.0298628 -2.05378 0
M  V30 32397 H 3043.68 2.29525 -3.11216 0
M  V30 32398 H 3045.37 2.09196 -3.47839 0
M  V30 32399 H 3046.13 0.0216339 -4.84995 0
M  V30 32400 H 3042.01 1.18274 -4.4557 0
M  V30 32401 H 3045.56 -1.30062 -6.85368 0
M  V30 32402 H 3041.45 -0.132572 -6.45364 0
M  V30 32403 H 3042.22 -1.45359 -8.05489 0
M  V30 32404 N 3044.89 1.54985 0.285878 0
M  V30 32405 C 3046.16 1.65681 1.03967 0
M  V30 32406 C 3046.54 0.514887 2.04725 0
M  V30 32407 O 3045.89 -0.486624 2.23258 0
M  V30 32408 C 3046.1 3.04348 1.70801 0
M  V30 32409 C 3047.45 3.6167 2.22441 0
M  V30 32410 O 3048.47 3.06898 1.80809 0
M  V30 32411 O 3047.33 4.57604 2.98765 0
M  V30 32412 H 3044.43 0.672402 0.481461 0
M  V30 32413 H 3046.97 1.67328 0.28276 0
M  V30 32414 H 3045.74 3.78902 0.977204 0
M  V30 32415 H 3045.37 3.06545 2.53211 0
M  V30 32416 N 3046.36 -0.549794 1.47699 0
M  V30 32417 C 3047.31 -1.65622 1.60742 0
M  V30 32418 C 3048.28 -1.59884 0.450158 0
M  V30 32419 O 3049.47 -1.78606 0.671154 0
M  V30 32420 C 3046.61 -3.03931 1.63462 0
M  V30 32421 C 3045.72 -3.20051 2.90158 0
M  V30 32422 C 3044.85 -4.48802 2.84165 0
M  V30 32423 C 3043.89 -4.5838 4.05652 0
M  V30 32424 N 3043.03 -5.78496 3.97853 0
M  V30 32425 H 3047.87 -1.53812 2.55237 0
M  V30 32426 H 3045.41 -0.749151 1.26594 0
M  V30 32427 H 3047.37 -3.84031 1.63022 0
M  V30 32428 H 3046 -3.14559 0.724744 0
M  V30 32429 H 3045.05 -2.33334 3.00432 0
M  V30 32430 H 3046.36 -3.22992 3.80103 0
M  V30 32431 H 3045.51 -5.37171 2.82015 0
M  V30 32432 H 3044.25 -4.48352 1.91916 0
M  V30 32433 H 3043.26 -3.68423 4.08099 0
M  V30 32434 H 3044.48 -4.60584 4.99038 0
M  V30 32435 H 3042.43 -5.78981 3.08411 0
M  V30 32436 H 3042.35 -5.82846 4.81483 0
M  V30 32437 H 3043.61 -6.69205 3.99731 0
M  V30 32438 N 3047.84 -1.35955 -0.797117 0
M  V30 32439 C 3048.79 -1.297 -1.93082 0
M  V30 32440 C 3049.78 -0.190181 -1.68329 0
M  V30 32441 O 3050.99 -0.356731 -1.7643 0
M  V30 32442 H 3047.37 -0.403588 -0.634524 0
M  V30 32443 H 3049.34 -2.25458 -1.95477 0
M  V30 32444 C 3048.09 -1.09541 -3.29994 0
M  V30 32445 H 3047.41 -1.93952 -3.49603 0
M  V30 32446 H 3048.85 -1.09209 -4.09694 0
M  V30 32447 C 3047.31 0.200321 -3.36304 0
M  V30 32448 O 3047.84 1.19284 -3.83581 0
M  V30 32449 N 3046.04 0.242356 -2.89588 0
M  V30 32450 H 3045.59 -0.565942 -2.51306 0
M  V30 32451 H 3045.55 1.10901 -2.94191 0
M  V30 32452 N 3049.32 1.02038 -1.20108 0
M  V30 32453 C 3050.25 2.10608 -0.904273 0
M  V30 32454 C 3051.27 1.62452 0.106459 0
M  V30 32455 O 3052.45 1.78068 -0.124066 0
M  V30 32456 C 3049.55 3.37255 -0.333483 0
M  V30 32457 C 3048.73 4.14564 -1.39484 0
M  V30 32458 C 3047.79 5.19516 -0.836052 0
M  V30 32459 O 3046.81 5.48645 -1.51583 0
M  V30 32460 N 3048.01 5.79405 0.356429 0
M  V30 32461 H 3050.78 2.36658 -1.83884 0
M  V30 32462 H 3048.34 1.18398 -1.10424 0
M  V30 32463 H 3050.33 4.04663 0.0543859 0
M  V30 32464 H 3048.9 3.08485 0.505554 0
M  V30 32465 H 3048.12 3.4218 -1.9572 0
M  V30 32466 H 3049.41 4.62998 -2.10975 0
M  V30 32467 H 3048.81 5.58069 0.926045 0
M  V30 32468 H 3047.37 6.4818 0.685979 0
M  V30 32469 N 3050.8 1.00636 1.21285 0
M  V30 32470 C 3052.08 0.605289 1.85999 0
M  V30 32471 C 3052.46 -0.917039 1.90141 0
M  V30 32472 O 3051.8 -1.80455 1.40172 0
M  V30 32473 C 3052.01 1.24124 3.26181 0
M  V30 32474 C 3053.36 1.35022 4.0256 0
M  V30 32475 O 3054.39 1.19667 3.35497 0
M  V30 32476 O 3053.24 1.59735 5.22635 0
M  V30 32477 H 3050.34 0.2075 0.800545 0
M  V30 32478 H 3052.88 1.10309 1.28957 0
M  V30 32479 H 3051.66 2.28192 3.17874 0
M  V30 32480 H 3051.28 0.729876 3.90843 0
M  V30 32481 N 3052.28 -1.36872 0.781268 0
M  V30 32482 C 3053.52 -1.99749 0.350442 0
M  V30 32483 C 3053.86 -1.61872 -1.0729 0
M  V30 32484 O 3053.13 -0.869521 -1.73982 0
M  V30 32485 C 3053.41 -3.56543 0.504897 0
M  V30 32486 C 3053.27 -4.043 1.97134 0
M  V30 32487 C 3054.59 -4.40018 -0.0850499 0
M  V30 32488 H 3051.7 -0.725657 0.128807 0
M  V30 32489 H 3054.35 -1.62408 0.986089 0
M  V30 32490 H 3052.5 -3.88483 -0.0362323 0
M  V30 32491 H 3054.17 -3.82883 2.57291 0
M  V30 32492 H 3052.41 -3.5614 2.47682 0
M  V30 32493 H 3053.08 -5.13301 2.03042 0
M  V30 32494 H 3055.56 -4.14391 0.376776 0
M  V30 32495 H 3054.43 -5.48874 0.0530979 0
M  V30 32496 H 3054.7 -4.26162 -1.17635 0
M  V30 32497 N 3053.75 -0.532597 -1.48328 0
M  V30 32498 C 3054.7 0.24864 -2.2664 0
M  V30 32499 C 3055.69 0.90754 -1.32863 0
M  V30 32500 O 3056.88 0.809914 -1.57383 0
M  V30 32501 C 3054.01 1.29333 -3.18006 0
M  V30 32502 C 3053.1 0.639092 -4.19257 0
M  V30 32503 N 3053.49 -0.276686 -5.05043 0
M  V30 32504 C 3051.78 0.895985 -4.36907 0
M  V30 32505 C 3052.49 -0.654362 -5.78008 0
M  V30 32506 N 3051.46 -0.0148402 -5.43598 0
M  V30 32507 H 3055.26 -0.455843 -2.90343 0
M  V30 32508 H 3052.78 -0.350806 -1.58566 0
M  V30 32509 H 3054.77 1.86675 -3.72771 0
M  V30 32510 H 3053.43 1.99917 -2.55858 0
M  V30 32511 H 3054.45 -0.649441 -5.13812 0
M  V30 32512 H 3051.12 1.59219 -3.85948 0
M  V30 32513 H 3052.51 -1.40544 -6.57037 0
M  V30 32514 N 3055.23 1.55307 -0.267853 0
M  V30 32515 C 3056.46 2.04296 0.357451 0
M  V30 32516 C 3056.88 1.14521 1.4922 0
M  V30 32517 O 3056.24 0.142324 1.80741 0
M  V30 32518 C 3056.29 3.51087 0.822837 0
M  V30 32519 O 3055.39 3.64413 1.93071 0
M  V30 32520 H 3054.73 0.659749 0.0750134 0
M  V30 32521 H 3057.26 2.00651 -0.400031 0
M  V30 32522 H 3057.27 3.92311 1.12052 0
M  V30 32523 H 3055.95 4.15899 -0.0074293 0
M  V30 32524 H 3054.53 3.3509 1.63612 0
M  V30 32525 N 3056.71 -0.00497598 1.57599 0
M  V30 32526 C 3057.96 -0.690028 1.8953 0
M  V30 32527 C 3058.27 -1.75212 0.869482 0
M  V30 32528 O 3059.48 -2.49145 1.07883 0
M  V30 32529 C 3057.93 -1.27846 3.36427 0
M  V30 32530 C 3057.54 -0.251453 4.47294 0
M  V30 32531 C 3059.29 -1.942 3.77474 0
M  V30 32532 C 3057.19 -0.849597 5.85266 0
M  V30 32533 H 3056.12 -0.261487 0.707206 0
M  V30 32534 H 3058.77 0.0547531 1.83418 0
M  V30 32535 H 3057.16 -2.07375 3.3736 0
M  V30 32536 H 3058.33 0.518876 4.57869 0
M  V30 32537 H 3056.65 0.311354 4.15234 0
M  V30 32538 H 3059.24 -2.39847 4.77889 0
M  V30 32539 H 3059.59 -2.77046 3.10727 0
M  V30 32540 H 3060.12 -1.21412 3.78819 0
M  V30 32541 H 3056.86 -0.0600256 6.55473 0
M  V30 32542 H 3056.38 -1.5892 5.78364 0
M  V30 32543 H 3058.06 -1.34973 6.32765 0
M  V30 32544 N 3058.19 -1.55135 -0.277654 0
M  V30 32545 C 3059.14 -1.8848 -1.36301 0
M  V30 32546 C 3060.13 -0.760681 -1.51361 0
M  V30 32547 O 3061.34 -0.94497 -1.532 0
M  V30 32548 H 3057.71 -0.598154 -0.455759 0
M  V30 32549 H 3059.68 -2.79156 -1.05426 0
M  V30 32550 C 3058.43 -2.16922 -2.71735 0
M  V30 32551 H 3057.75 -3.02906 -2.60937 0
M  V30 32552 H 3059.19 -2.44178 -3.46631 0
M  V30 32553 C 3057.65 -0.975296 -3.22474 0
M  V30 32554 O 3058.18 -0.207568 -4.01163 0
M  V30 32555 N 3056.39 -0.774268 -2.80095 0
M  V30 32556 H 3055.94 -1.40026 -2.16219 0
M  V30 32557 H 3055.89 0.0229658 -3.14392 0
M  V30 32558 N 3059.67 0.541953 -1.47989 0
M  V30 32559 C 3060.6 1.6571 -1.64506 0
M  V30 32560 C 3061.58 1.62764 -0.494144 0
M  V30 32561 O 3062.76 1.80148 -0.725287 0
M  V30 32562 C 3059.89 3.04325 -1.67343 0
M  V30 32563 C 3058.85 3.22125 -2.81815 0
M  V30 32564 C 3058.17 4.6168 -2.69733 0
M  V30 32565 C 3059.47 3.06039 -4.23247 0
M  V30 32566 H 3061.17 1.52142 -2.57862 0
M  V30 32567 H 3058.71 0.730507 -1.24095 0
M  V30 32568 H 3060.67 3.82199 -1.77487 0
M  V30 32569 H 3059.39 3.18888 -0.70557 0
M  V30 32570 H 3058.05 2.46664 -2.71205 0
M  V30 32571 H 3057.7 4.73062 -1.70942 0
M  V30 32572 H 3057.4 4.74537 -3.46538 0
M  V30 32573 H 3058.92 5.41669 -2.81828 0
M  V30 32574 H 3060.33 3.73716 -4.34752 0
M  V30 32575 H 3058.73 3.30396 -5.00958 0
M  V30 32576 H 3059.8 2.02601 -4.40546 0
M  V30 32577 N 3061.15 1.36376 0.789896 0
M  V30 32578 C 3062.56 1.27372 1.36503 0
M  V30 32579 C 3062.91 -0.0866766 1.96008 0
M  V30 32580 O 3062.03 -0.988125 1.92523 0
M  V30 32581 C 3062.63 2.30644 2.48171 0
M  V30 32582 C 3061.19 2.2533 3.01502 0
M  V30 32583 C 3060.33 2.15448 1.74577 0
M  V30 32584 H 3063.28 1.47262 0.59158 0
M  V30 32585 H 3063.31 1.94259 3.27175 0
M  V30 32586 H 3062.82 3.29644 2.04833 0
M  V30 32587 H 3060.92 1.29794 3.49262 0
M  V30 32588 H 3061.03 3.17998 3.58349 0
M  V30 32589 H 3059.4 1.61695 1.96791 0
M  V30 32590 H 3060.18 3.16335 1.33367 0
M  V30 32591 N 3062.62 -1.014 1.20647 0
M  V30 32592 C 3063.87 -1.75039 1.01822 0
M  V30 32593 C 3064.2 -1.89238 -0.449352 0
M  V30 32594 O 3063.45 -1.41697 -1.34983 0
M  V30 32595 C 3063.75 -3.17034 1.64997 0
M  V30 32596 C 3063.42 -3.22806 3.14813 0
M  V30 32597 C 3062.08 -3.24088 3.55697 0
M  V30 32598 C 3064.43 -3.20762 4.10805 0
M  V30 32599 C 3061.76 -3.21001 4.91096 0
M  V30 32600 C 3064.11 -3.19217 5.46153 0
M  V30 32601 C 3062.78 -3.18804 5.86447 0
M  V30 32602 H 3062.05 -0.640512 0.372594 0
M  V30 32603 H 3064.69 -1.18909 1.5011 0
M  V30 32604 H 3063 -3.76339 1.08978 0
M  V30 32605 H 3064.7 -3.72711 1.47943 0
M  V30 32606 H 3061.29 -3.22545 2.82246 0
M  V30 32607 H 3065.47 -3.1894 3.80252 0
M  V30 32608 H 3060.73 -3.19014 5.21574 0
M  V30 32609 H 3064.9 -3.16589 6.20278 0
M  V30 32610 H 3062.53 -3.16167 6.91334 0
M  V30 32611 N 3064.1 -1.01278 -1.2075 0
M  V30 32612 C 3065.35 -0.699921 -1.90019 0
M  V30 32613 C 3065.68 0.770082 -1.78606 0
M  V30 32614 O 3064.93 1.57469 -1.16198 0
M  V30 32615 C 3065.23 -1.07639 -3.40806 0
M  V30 32616 C 3064.9 -2.54195 -3.72418 0
M  V30 32617 C 3063.56 -2.94241 -3.80757 0
M  V30 32618 C 3065.91 -3.49092 -3.87019 0
M  V30 32619 C 3063.24 -4.2813 -4.0115 0
M  V30 32620 C 3065.59 -4.82665 -4.08922 0
M  V30 32621 C 3064.25 -5.22423 -4.15489 0
M  V30 32622 H 3063.52 -0.256119 -0.69533 0
M  V30 32623 H 3066.17 -1.27265 -1.43093 0
M  V30 32624 H 3064.48 -0.422013 -3.89521 0
M  V30 32625 H 3066.17 -0.812066 -3.92691 0
M  V30 32626 H 3062.76 -2.22165 -3.66525 0
M  V30 32627 H 3066.95 -3.19315 -3.79936 0
M  V30 32628 H 3062.2 -4.58493 -4.04468 0
M  V30 32629 H 3066.38 -5.56126 -4.19162 0
M  V30 32630 H 3064 -6.26183 -4.31044 0
M  V30 32631 N 3065.58 1.36456 -0.788516 0
M  V30 32632 C 3066.49 2.3385 -0.187426 0
M  V30 32633 C 3067.51 1.60999 0.659955 0
M  V30 32634 O 3068.68 1.92989 0.575952 0
M  V30 32635 C 3065.75 3.40195 0.668465 0
M  V30 32636 C 3064.81 4.28846 -0.197309 0
M  V30 32637 C 3064.04 5.30112 0.617827 0
M  V30 32638 O 3064.26 5.39433 1.85386 0
M  V30 32639 O 3063.2 6.01897 0.0181958 0
M  V30 32640 H 3067.02 2.87019 -0.992667 0
M  V30 32641 H 3064.61 1.38909 -0.549958 0
M  V30 32642 H 3066.49 4.05218 1.15655 0
M  V30 32643 H 3065.17 2.89327 1.45161 0
M  V30 32644 H 3064.07 3.66866 -0.732135 0
M  V30 32645 H 3065.41 4.83064 -0.943948 0
M  V30 32646 N 3067.06 0.540456 1.48043 0
M  V30 32647 C 3068.29 0.0145517 2.06895 0
M  V30 32648 C 3068.7 -1.27161 1.39554 0
M  V30 32649 O 3068.06 -1.75896 0.486485 0
M  V30 32650 C 3068.11 -0.202214 3.60934 0
M  V30 32651 O 3067.83 1.033 4.25747 0
M  V30 32652 C 3069.33 -0.76731 4.36609 0
M  V30 32653 H 3066.55 0.0382486 0.669909 0
M  V30 32654 H 3069.09 0.749091 1.90286 0
M  V30 32655 H 3067.25 -0.886831 3.77113 0
M  V30 32656 H 3067.66 0.820259 5.18046 0
M  V30 32657 H 3069.14 -0.868354 5.45127 0
M  V30 32658 H 3069.61 -1.77469 4.01748 0
M  V30 32659 H 3070.22 -0.118927 4.25134 0
M  V30 32660 N 3068.54 -1.55163 0.276085 0
M  V30 32661 C 3069.47 -2.25537 -0.604593 0
M  V30 32662 C 3070.45 -1.24587 -1.15811 0
M  V30 32663 O 3071.63 -1.53308 -1.19207 0
M  V30 32664 C 3068.76 -2.9772 -1.78831 0
M  V30 32665 C 3067.72 -4.05607 -1.36628 0
M  V30 32666 C 3067.04 -4.65369 -2.63317 0
M  V30 32667 C 3068.34 -5.19747 -0.515767 0
M  V30 32668 H 3070.04 -2.99395 -0.0176957 0
M  V30 32669 H 3067.58 -1.43998 -0.00707096 0
M  V30 32670 H 3069.53 -3.45663 -2.4103 0
M  V30 32671 H 3068.26 -2.21398 -2.40105 0
M  V30 32672 H 3066.92 -3.58476 -0.767478 0
M  V30 32673 H 3066.57 -3.85715 -3.22851 0
M  V30 32674 H 3066.27 -5.38216 -2.3579 0
M  V30 32675 H 3067.79 -5.16062 -3.26363 0
M  V30 32676 H 3069.2 -5.63736 -1.04279 0
M  V30 32677 H 3067.6 -5.99162 -0.335344 0
M  V30 32678 H 3068.67 -4.82663 0.465222 0
M  V30 32679 N 3070.01 -0.00338196 -1.576 0
M  V30 32680 C 3070.95 1.01517 -2.05492 0
M  V30 32681 C 3071.96 1.3049 -0.973464 0
M  V30 32682 O 3073.15 1.27406 -1.25019 0
M  V30 32683 C 3070.25 2.3491 -2.44276 0
M  V30 32684 C 3069.42 2.24828 -3.75195 0
M  V30 32685 C 3068.48 3.40937 -4.0081 0
M  V30 32686 O 3067.51 3.18973 -4.71429 0
M  V30 32687 N 3068.71 4.63898 -3.48969 0
M  V30 32688 H 3071.47 0.606728 -2.93494 0
M  V30 32689 H 3069.03 0.183932 -1.60852 0
M  V30 32690 H 3071.03 3.11364 -2.58524 0
M  V30 32691 H 3069.6 2.67484 -1.61775 0
M  V30 32692 H 3068.82 1.33263 -3.70991 0
M  V30 32693 H 3070.1 2.15269 -4.61017 0
M  V30 32694 H 3069.5 4.8464 -2.91789 0
M  V30 32695 H 3068.06 5.37607 -3.68541 0
M  V30 32696 N 3071.49 1.5528 0.269423 0
M  V30 32697 C 3072.4 1.91507 1.35507 0
M  V30 32698 C 3073.42 0.812739 1.53852 0
M  V30 32699 O 3074.59 1.11213 1.6791 0
M  V30 32700 C 3071.66 2.18272 2.69367 0
M  V30 32701 C 3070.72 3.41811 2.59737 0
M  V30 32702 C 3069.95 3.6729 3.87213 0
M  V30 32703 O 3070.18 2.95217 4.8806 0
M  V30 32704 O 3069.11 4.60824 3.87201 0
M  V30 32705 H 3072.94 2.83931 1.0778 0
M  V30 32706 H 3070.52 1.41872 0.468257 0
M  V30 32707 H 3072.4 2.36895 3.48509 0
M  V30 32708 H 3071.08 1.29029 2.96872 0
M  V30 32709 H 3069.98 3.28519 1.78958 0
M  V30 32710 H 3071.32 4.31284 2.37181 0
M  V30 32711 N 3072.97 -0.534097 1.48274 0
M  V30 32712 C 3074.2 -1.31308 1.59505 0
M  V30 32713 C 3074.61 -1.87503 0.252873 0
M  V30 32714 O 3073.95 -1.66905 -0.767369 0
M  V30 32715 C 3074.01 -2.50452 2.57903 0
M  V30 32716 C 3073.68 -2.15375 4.03067 0
M  V30 32717 C 3074.67 -1.71291 4.90872 0
M  V30 32718 C 3072.36 -2.26024 4.48574 0
M  V30 32719 C 3074.35 -1.38317 6.22212 0
M  V30 32720 C 3072.04 -1.92662 5.79935 0
M  V30 32721 C 3073.04 -1.48878 6.66576 0
M  V30 32722 O 3072.73 -1.15952 7.95494 0
M  V30 32723 H 3072.46 -0.40573 0.540703 0
M  V30 32724 H 3075.01 -0.651462 1.94795 0
M  V30 32725 H 3073.24 -3.19581 2.17726 0
M  V30 32726 H 3074.93 -3.12517 2.59013 0
M  V30 32727 H 3075.7 -1.62537 4.56954 0
M  V30 32728 H 3071.58 -2.59059 3.81326 0
M  V30 32729 H 3075.12 -1.0407 6.89794 0
M  V30 32730 H 3071.02 -2.01055 6.1339 0
M  V30 32731 H 3071.78 -1.29385 8.08209 0
M  V30 32732 N 3074.45 -1.36793 -0.782652 0
M  V30 32733 C 3075.69 -1.31398 -1.5408 0
M  V30 32734 C 3076.02 0.104763 -1.94218 0
M  V30 32735 O 3075.28 1.07557 -1.63493 0
M  V30 32736 C 3075.58 -2.18877 -2.82538 0
M  V30 32737 C 3075.24 -3.67322 -2.61506 0
M  V30 32738 C 3073.9 -4.0778 -2.55478 0
M  V30 32739 C 3076.26 -4.61412 -2.42381 0
M  V30 32740 C 3073.58 -5.40458 -2.28302 0
M  V30 32741 C 3075.94 -5.94315 -2.1673 0
M  V30 32742 C 3074.6 -6.3389 -2.0914 0
M  V30 32743 H 3073.87 -0.48082 -0.56382 0
M  V30 32744 H 3076.52 -1.68905 -0.902406 0
M  V30 32745 H 3074.82 -1.74329 -3.5088 0
M  V30 32746 H 3076.52 -2.12023 -3.40363 0
M  V30 32747 H 3073.11 -3.3523 -2.67056 0
M  V30 32748 H 3077.29 -4.31023 -2.46035 0
M  V30 32749 H 3072.55 -5.70095 -2.20912 0
M  V30 32750 H 3076.72 -6.66784 -2.00928 0
M  V30 32751 H 3074.35 -7.36626 -1.87845 0
M  V30 32752 N 3075.93 1.00759 -1.21184 0
M  V30 32753 C 3076.84 2.12933 -0.984729 0
M  V30 32754 C 3077.85 1.73888 0.0623351 0
M  V30 32755 O 3079.03 2.00998 -0.127135 0
M  V30 32756 C 3076.09 3.42318 -0.549507 0
M  V30 32757 C 3075.15 3.95551 -1.66848 0
M  V30 32758 C 3074.39 5.1876 -1.25393 0
M  V30 32759 O 3074.61 5.7026 -0.126433 0
M  V30 32760 O 3073.54 5.65374 -2.06485 0
M  V30 32761 H 3077.37 2.34967 -1.92417 0
M  V30 32762 H 3074.96 1.11312 -0.99649 0
M  V30 32763 H 3076.84 4.2021 -0.316458 0
M  V30 32764 H 3075.51 3.21678 0.361248 0
M  V30 32765 H 3074.42 3.18897 -1.95591 0
M  V30 32766 H 3075.75 4.20595 -2.55657 0
M  V30 32767 N 3077.4 1.01917 1.20211 0
M  V30 32768 C 3078.82 0.734484 1.41695 0
M  V30 32769 C 3079.02 -0.684833 1.89505 0
M  V30 32770 O 3078.08 -1.45223 2.06559 0
M  V30 32771 C 3079.39 1.76237 2.43641 0
M  V30 32772 C 3080.94 1.7808 2.57403 0
M  V30 32773 C 3081.41 2.79802 3.62595 0
M  V30 32774 N 3082.9 2.78558 3.70081 0
M  V30 32775 C 3083.64 3.53923 4.51139 0
M  V30 32776 N 3083.13 4.38972 5.35981 0
M  V30 32777 N 3084.93 3.42508 4.45696 0
M  V30 32778 H 3077.08 1.93542 0.874942 0
M  V30 32779 H 3079.34 0.836196 0.446632 0
M  V30 32780 H 3079.05 2.77932 2.15514 0
M  V30 32781 H 3078.92 1.57663 3.42669 0
M  V30 32782 H 3081.31 0.770684 2.84859 0
M  V30 32783 H 3081.39 2.00728 1.58562 0
M  V30 32784 H 3081.03 3.80979 3.35883 0
M  V30 32785 H 3080.96 2.54415 4.61064 0
M  V30 32786 H 3083.45 2.16866 3.0948 0
M  V30 32787 H 3083.77 4.9324 5.94923 0
M  V30 32788 H 3082.11 4.43049 5.35474 0
M  V30 32789 H 3085.3 2.75485 3.78452 0
M  V30 32790 H 3085.48 4.01496 5.0863 0
M  V30 32791 N 3078.88 -1.36036 0.795742 0
M  V30 32792 C 3079.83 -2.31851 0.186531 0
M  V30 32793 C 3080.82 -1.56112 -0.657677 0
M  V30 32794 O 3082.03 -1.71325 -0.552053 0
M  V30 32795 H 3078.41 -0.750851 0.0415495 0
M  V30 32796 H 3080.38 -2.80789 1.00997 0
M  V30 32797 C 3079.13 -3.41396 -0.65912 0
M  V30 32798 H 3078.45 -3.99796 -0.0188697 0
M  V30 32799 H 3079.89 -4.10743 -1.05195 0
M  V30 32800 C 3078.35 -2.83506 -1.82006 0
M  V30 32801 O 3078.88 -2.76179 -2.91698 0
M  V30 32802 N 3077.08 -2.40706 -1.62816 0
M  V30 32803 H 3076.63 -2.46864 -0.735921 0
M  V30 32804 H 3076.59 -2.0232 -2.40653 0
M  V30 32805 N 3080.36 -0.5483 -1.47755 0
M  V30 32806 C 3081.78 -0.207429 -1.58246 0
M  V30 32807 C 3081.98 1.28986 -1.54806 0
M  V30 32808 O 3081.03 2.06942 -1.44677 0
M  V30 32809 C 3082.35 -0.826193 -2.89127 0
M  V30 32810 C 3083.89 -0.796603 -3.02693 0
M  V30 32811 C 3084.37 -1.39427 -4.36261 0
M  V30 32812 N 3085.86 -1.35706 -4.42875 0
M  V30 32813 C 3086.59 -1.78922 -5.4477 0
M  V30 32814 N 3086.09 -2.29953 -6.53524 0
M  V30 32815 N 3087.88 -1.70047 -5.35762 0
M  V30 32816 H 3080.03 -1.5212 -1.48234 0
M  V30 32817 H 3082.3 -0.633841 -0.704946 0
M  V30 32818 H 3082 -1.87811 -2.97355 0
M  V30 32819 H 3081.88 -0.313982 -3.75891 0
M  V30 32820 H 3084.26 0.246603 -2.94068 0
M  V30 32821 H 3084.35 -1.34648 -2.17494 0
M  V30 32822 H 3083.99 -2.4365 -4.45642 0
M  V30 32823 H 3083.92 -0.819919 -5.20178 0
M  V30 32824 H 3086.41 -0.983687 -3.64873 0
M  V30 32825 H 3086.72 -2.60876 -7.27436 0
M  V30 32826 H 3085.07 -2.33958 -6.54438 0
M  V30 32827 H 3088.26 -1.29963 -4.49697 0
M  V30 32828 H 3088.43 -2.04046 -6.15036 0
M  V30 32829 N 3081.84 1.55014 -0.28431 0
M  V30 32830 C 3082.77 2.20299 0.632542 0
M  V30 32831 C 3083.78 1.19052 1.11043 0
M  V30 32832 O 3084.97 1.45732 1.03076 0
M  V30 32833 C 3082.07 2.82244 1.87594 0
M  V30 32834 C 3081.25 4.09268 1.54333 0
M  V30 32835 C 3080.3 4.55173 2.64015 0
M  V30 32836 O 3079.33 5.20745 2.29812 0
M  V30 32837 N 3080.53 4.26085 3.94248 0
M  V30 32838 H 3083.3 2.99609 0.0737402 0
M  V30 32839 H 3080.86 1.61554 -0.105796 0
M  V30 32840 H 3082.85 3.09894 2.60284 0
M  V30 32841 H 3081.42 2.06872 2.34356 0
M  V30 32842 H 3080.64 3.88807 0.649843 0
M  V30 32843 H 3081.93 4.92011 1.29626 0
M  V30 32844 H 3081.33 3.73519 4.24853 0
M  V30 32845 H 3079.88 4.58485 4.63287 0
M  V30 32846 N 3083.32 0.0117398 1.57596 0
M  V30 32847 C 3084.54 -0.6813 1.95361 0
M  V30 32848 C 3084.96 -1.66651 0.887285 0
M  V30 32849 O 3084.32 -1.82017 -0.13266 0
M  V30 32850 C 3084.37 -1.40292 3.33167 0
M  V30 32851 O 3084.09 -0.457203 4.35708 0
M  V30 32852 C 3085.59 -2.18939 3.85462 0
M  V30 32853 H 3082.81 -0.189011 0.643829 0
M  V30 32854 H 3085.35 0.0663469 2.04392 0
M  V30 32855 H 3083.51 -2.1021 3.25408 0
M  V30 32856 H 3083.92 -0.967639 5.15497 0
M  V30 32857 H 3085.4 -2.6491 4.8428 0
M  V30 32858 H 3085.87 -3.02113 3.18786 0
M  V30 32859 H 3086.48 -1.54013 3.96434 0
M  V30 32860 N 3084.79 -1.55421 -0.261185 0
M  V30 32861 C 3086.04 -1.75786 -0.989042 0
M  V30 32862 C 3086.36 -0.572994 -1.87019 0
M  V30 32863 O 3087.56 -0.659335 -2.63372 0
M  V30 32864 C 3086.02 -3.1116 -1.80852 0
M  V30 32865 C 3085.63 -4.37251 -0.975458 0
M  V30 32866 C 3087.37 -3.40871 -2.52997 0
M  V30 32867 C 3085.28 -5.6366 -1.79 0
M  V30 32868 H 3084.21 -0.655272 -0.373007 0
M  V30 32869 H 3086.86 -1.81867 -0.244235 0
M  V30 32870 H 3085.24 -2.99148 -2.59473 0
M  V30 32871 H 3086.41 -4.60213 -0.23258 0
M  V30 32872 H 3084.73 -4.14771 -0.36801 0
M  V30 32873 H 3087.33 -4.32526 -3.14365 0
M  V30 32874 H 3087.67 -2.6154 -3.23886 0
M  V30 32875 H 3088.2 -3.54034 -1.81396 0
M  V30 32876 H 3084.94 -6.45772 -1.1251 0
M  V30 32877 H 3084.46 -5.44823 -2.50854 0
M  V30 32878 H 3086.14 -6.02395 -2.36072 0
M  V30 32879 N 3086.27 0.526227 -1.48555 0
M  V30 32880 C 3087.52 1.27835 -1.56017 0
M  V30 32881 C 3087.83 1.94114 -0.240677 0
M  V30 32882 O 3089.04 2.70809 -0.193573 0
M  V30 32883 C 3087.5 2.31975 -2.75165 0
M  V30 32884 C 3087.1 1.71748 -4.13771 0
M  V30 32885 C 3088.85 3.08173 -2.91942 0
M  V30 32886 C 3086.76 2.7385 -5.24175 0
M  V30 32887 H 3085.69 0.480785 -0.580829 0
M  V30 32888 H 3088.34 0.555304 -1.74896 0
M  V30 32889 H 3086.72 3.07331 -2.49727 0
M  V30 32890 H 3087.89 1.02555 -4.49243 0
M  V30 32891 H 3086.21 1.08029 -4.02143 0
M  V30 32892 H 3088.8 3.84477 -3.71593 0
M  V30 32893 H 3089.15 3.64263 -2.0154 0
M  V30 32894 H 3089.68 2.39931 -3.17298 0
M  V30 32895 H 3086.42 2.22575 -6.16555 0
M  V30 32896 H 3085.94 3.4136 -4.93187 0
M  V30 32897 H 3087.62 3.36764 -5.52448 0
M  V30 32898 N 3087.75 1.37206 0.775387 0
M  V30 32899 C 3089 1.32409 1.53609 0
M  V30 32900 C 3089.33 -0.0923762 1.9398 0
M  V30 32901 O 3088.6 -1.04891 1.63793 0
M  V30 32902 C 3088.89 2.25984 2.80363 0
M  V30 32903 C 3088.74 3.76393 2.46269 0
M  V30 32904 C 3090.06 2.18071 3.82273 0
M  V30 32905 H 3087.18 0.482307 0.557269 0
M  V30 32906 H 3089.82 1.67877 0.889797 0
M  V30 32907 H 3087.97 1.95868 3.35512 0
M  V30 32908 H 3089.64 4.1709 1.97062 0
M  V30 32909 H 3087.89 3.9514 1.79016 0
M  V30 32910 H 3088.56 4.37297 3.3686 0
M  V30 32911 H 3091.03 2.4461 3.36609 0
M  V30 32912 H 3089.91 2.85692 4.68691 0
M  V30 32913 H 3090.17 1.17246 4.2627 0
M  V30 32914 N 3089.23 -1.00115 1.21716 0
M  V30 32915 C 3090.47 -1.74206 1.03827 0
M  V30 32916 C 3090.81 -1.89454 -0.4267 0
M  V30 32917 O 3090.08 -1.43168 -1.31655 0
M  V30 32918 C 3090.37 -3.15242 1.74052 0
M  V30 32919 C 3090.22 -3.07694 3.28092 0
M  V30 32920 C 3091.54 -4.14246 1.48621 0
M  V30 32921 H 3088.66 -0.632332 0.378584 0
M  V30 32922 H 3091.3 -1.16691 1.49944 0
M  V30 32923 H 3089.45 -3.64347 1.34846 0
M  V30 32924 H 3091.12 -2.66274 3.76691 0
M  V30 32925 H 3089.36 -2.447 3.58196 0
M  V30 32926 H 3090.03 -4.07459 3.72399 0
M  V30 32927 H 3092.51 -3.73863 1.82662 0
M  V30 32928 H 3091.39 -5.11062 2.00266 0
M  V30 32929 H 3091.65 -4.40129 0.417035 0
M  V30 32930 N 3090.71 -1.02553 -1.19669 0
M  V30 32931 C 3091.64 -0.624004 -2.25008 0
M  V30 32932 C 3092.62 0.365351 -1.6613 0
M  V30 32933 O 3093.8 0.248809 -1.926 0
M  V30 32934 C 3090.93 0.0294259 -3.47288 0
M  V30 32935 C 3089.89 -0.881854 -4.18817 0
M  V30 32936 C 3089.21 -0.0937128 -5.34618 0
M  V30 32937 C 3090.51 -2.19405 -4.73982 0
M  V30 32938 H 3092.21 -1.50459 -2.58849 0
M  V30 32939 H 3089.75 -0.724893 -1.24424 0
M  V30 32940 H 3091.71 0.321943 -4.20168 0
M  V30 32941 H 3090.43 0.944783 -3.12636 0
M  V30 32942 H 3089.09 -1.15851 -3.47813 0
M  V30 32943 H 3088.74 0.823574 -4.96212 0
M  V30 32944 H 3088.44 -0.70067 -5.83408 0
M  V30 32945 H 3089.96 0.192142 -6.10298 0
M  V30 32946 H 3091.38 -1.96329 -5.38635 0
M  V30 32947 H 3089.77 -2.75263 -5.33245 0
M  V30 32948 H 3090.84 -2.85099 -3.92233 0
M  V30 32949 N 3092.19 1.35612 -0.802945 0
M  V30 32950 C 3093.1 2.33638 -0.212218 0
M  V30 32951 C 3094.11 1.6169 0.642842 0
M  V30 32952 O 3095.29 1.93589 0.555451 0
M  V30 32953 C 3092.35 3.40885 0.632346 0
M  V30 32954 C 3091.41 4.28613 -0.242783 0
M  V30 32955 C 3090.65 5.30737 0.561567 0
M  V30 32956 O 3090.87 5.41369 1.79654 0
M  V30 32957 O 3089.8 6.01883 -0.0456445 0
M  V30 32958 H 3093.63 2.8595 -1.02305 0
M  V30 32959 H 3091.21 1.38318 -0.564661 0
M  V30 32960 H 3093.1 4.06422 1.11351 0
M  V30 32961 H 3091.77 2.9085 1.42084 0
M  V30 32962 H 3090.68 3.66069 -0.771005 0
M  V30 32963 H 3092.01 4.82035 -0.99513 0
M  V30 32964 N 3093.66 0.556128 1.47462 0
M  V30 32965 C 3094.61 -0.205258 2.31693 0
M  V30 32966 C 3095.61 -0.910369 1.42859 0
M  V30 32967 O 3096.81 -0.831778 1.59629 0
M  V30 32968 H 3093.19 -0.0850644 0.747173 0
M  V30 32969 H 3095.16 0.524356 2.93757 0
M  V30 32970 C 3093.91 -1.22278 3.2549 0
M  V30 32971 H 3093.23 -0.689628 3.93807 0
M  V30 32972 H 3094.67 -1.72643 3.8726 0
M  V30 32973 C 3093.13 -2.27008 2.48935 0
M  V30 32974 O 3093.66 -3.33915 2.23302 0
M  V30 32975 N 3091.86 -2.00907 2.09963 0
M  V30 32976 H 3091.41 -1.13982 2.3101 0
M  V30 32977 H 3091.37 -2.71197 1.59058 0
M  V30 32978 N 3095.14 -1.54861 0.292527 0
M  V30 32979 C 3096.39 -2.00264 -0.319701 0
M  V30 32980 C 3096.72 -1.18066 -1.54188 0
M  V30 32981 O 3096 -0.255016 -1.92821 0
M  V30 32982 C 3096.28 -3.53531 -0.684691 0
M  V30 32983 C 3096.13 -4.46473 0.546039 0
M  V30 32984 C 3097.45 -4.13221 -1.51448 0
M  V30 32985 H 3094.57 -0.728016 -0.114727 0
M  V30 32986 H 3097.21 -1.85678 0.402939 0
M  V30 32987 H 3095.36 -3.66091 -1.30037 0
M  V30 32988 H 3097.03 -4.45832 1.18456 0
M  V30 32989 H 3095.28 -4.17418 1.18088 0
M  V30 32990 H 3095.95 -5.51449 0.24664 0
M  V30 32991 H 3098.42 -4.04044 -0.99435 0
M  V30 32992 H 3097.3 -5.20636 -1.73866 0
M  V30 32993 H 3097.56 -3.64555 -2.50104 0
M  V30 32994 N 3096.62 -0.0200973 -1.57587 0
M  V30 32995 C 3097.55 0.993323 -2.06557 0
M  V30 32996 C 3098.56 1.2945 -0.98725 0
M  V30 32997 O 3099.75 1.26073 -1.26364 0
M  V30 32998 C 3096.85 2.32305 -2.46754 0
M  V30 32999 C 3096.03 2.20836 -3.77558 0
M  V30 33000 C 3095.09 3.36667 -4.04403 0
M  V30 33001 O 3094.11 3.13955 -4.74785 0
M  V30 33002 N 3095.31 4.6017 -3.5387 0
M  V30 33003 H 3098.08 0.575565 -2.94121 0
M  V30 33004 H 3095.64 0.166861 -1.61038 0
M  V30 33005 H 3097.63 3.08604 -2.61812 0
M  V30 33006 H 3096.2 2.65753 -1.64603 0
M  V30 33007 H 3095.42 1.29321 -3.72384 0
M  V30 33008 H 3096.71 2.10367 -4.63274 0
M  V30 33009 H 3096.11 4.81518 -2.96912 0
M  V30 33010 H 3094.66 5.33668 -3.74222 0
M  V30 33011 N 3098.1 1.55557 0.252939 0
M  V30 33012 C 3099.51 1.47846 0.601154 0
M  V30 33013 C 3099.71 0.709088 1.88611 0
M  V30 33014 O 3098.77 0.236008 2.51395 0
M  V30 33015 C 3100.08 2.9221 0.709488 0
M  V30 33016 C 3101.63 3.02545 0.802215 0
M  V30 33017 C 3102.11 4.48205 0.942161 0
M  V30 33018 N 3103.6 4.52117 1.00718 0
M  V30 33019 C 3104.33 5.62062 1.13462 0
M  V30 33020 N 3103.83 6.8183 1.22799 0
M  V30 33021 N 3105.62 5.49846 1.16731 0
M  V30 33022 H 3097.77 2.04022 -0.590671 0
M  V30 33023 H 3100.03 0.92601 -0.203002 0
M  V30 33024 H 3099.74 3.51315 -0.164566 0
M  V30 33025 H 3099.61 3.42358 1.58337 0
M  V30 33026 H 3102 2.43525 1.66673 0
M  V30 33027 H 3102.08 2.55617 -0.0966918 0
M  V30 33028 H 3101.73 5.07833 0.0822316 0
M  V30 33029 H 3101.66 4.92808 1.85602 0
M  V30 33030 H 3104.15 3.65852 0.94662 0
M  V30 33031 H 3104.46 7.61372 1.32413 0
M  V30 33032 H 3102.81 6.84603 1.19767 0
M  V30 33033 H 3106 4.55213 1.09081 0
M  V30 33034 H 3106.17 6.35569 1.26318 0
M  V30 33035 N 3099.58 -0.518341 1.48832 0
M  V30 33036 C 3100.52 -1.64265 1.64681 0
M  V30 33037 C 3101.52 -1.61446 0.512995 0
M  V30 33038 O 3102.72 -1.66163 0.692092 0
M  V30 33039 H 3099.1 -0.544215 0.518974 0
M  V30 33040 H 3101.07 -1.48045 2.59085 0
M  V30 33041 C 3099.82 -3.02487 1.71454 0
M  V30 33042 H 3099.14 -3.05356 2.58066 0
M  V30 33043 H 3100.58 -3.80739 1.86584 0
M  V30 33044 C 3099.04 -3.33805 0.455643 0
M  V30 33045 O 3099.57 -3.99431 -0.426357 0
M  V30 33046 N 3097.78 -2.8879 0.323814 0
M  V30 33047 H 3097.32 -2.35561 1.04253 0
M  V30 33048 H 3097.28 -3.10112 -0.517459 0
M  V30 33049 N 3101.05 -1.37615 -0.7681 0
M  V30 33050 C 3101.98 -1.36377 -1.89535 0
M  V30 33051 C 3102.96 -0.231833 -1.68513 0
M  V30 33052 O 3104.15 -0.432738 -1.89317 0
M  V30 33053 C 3101.28 -1.17363 -3.26869 0
M  V30 33054 C 3100.23 -2.27608 -3.62462 0
M  V30 33055 C 3099.56 -1.93714 -4.98377 0
M  V30 33056 C 3100.86 -3.69809 -3.68834 0
M  V30 33057 H 3102.55 -2.30705 -1.90828 0
M  V30 33058 H 3100.1 -1.11052 -0.916701 0
M  V30 33059 H 3102.05 -1.15126 -4.05369 0
M  V30 33060 H 3100.78 -0.194922 -3.26018 0
M  V30 33061 H 3099.44 -2.29007 -2.86272 0
M  V30 33062 H 3099.08 -0.943626 -4.9407 0
M  V30 33063 H 3098.78 -2.67539 -5.2316 0
M  V30 33064 H 3100.31 -1.9307 -5.79272 0
M  V30 33065 H 3101.72 -3.7052 -4.37479 0
M  V30 33066 H 3100.12 -4.42718 -4.05118 0
M  V30 33067 H 3101.19 -4.03172 -2.69408 0
M  V30 33068 N 3102.53 0.994677 -1.22245 0
M  V30 33069 C 3103.48 2.08444 -0.990942 0
M  V30 33070 C 3104.45 1.65874 0.0867078 0
M  V30 33071 O 3105.63 1.90698 -0.0625218 0
M  V30 33072 C 3102.77 3.40312 -0.572873 0
M  V30 33073 C 3101.89 3.96235 -1.7211 0
M  V30 33074 C 3101.02 5.16255 -1.25119 0
M  V30 33075 C 3100.06 5.64311 -2.37107 0
M  V30 33076 N 3099.2 6.75571 -1.91176 0
M  V30 33077 H 3104.04 2.27582 -1.92381 0
M  V30 33078 H 3101.57 1.11577 -0.958595 0
M  V30 33079 H 3103.53 4.16034 -0.311667 0
M  V30 33080 H 3102.16 3.2118 0.322988 0
M  V30 33081 H 3101.21 3.17401 -2.09668 0
M  V30 33082 H 3102.53 4.27883 -2.56354 0
M  V30 33083 H 3101.68 5.99259 -0.947257 0
M  V30 33084 H 3100.42 4.86226 -0.378922 0
M  V30 33085 H 3099.42 4.79896 -2.68291 0
M  V30 33086 H 3100.65 5.96365 -3.24847 0
M  V30 33087 H 3098.6 6.47329 -1.06309 0
M  V30 33088 H 3098.51 7.06528 -2.68988 0
M  V30 33089 H 3099.78 7.62086 -1.63847 0
M  V30 33090 N 3104.01 1.03186 1.19123 0
M  V30 33091 C 3104.96 0.58577 2.20347 0
M  V30 33092 C 3105.94 -0.367082 1.56657 0
M  V30 33093 O 3107.14 -0.187567 1.76003 0
M  V30 33094 C 3104.26 -0.0589403 3.43249 0
M  V30 33095 C 3103.35 0.91653 4.14078 0
M  V30 33096 N 3103.74 2.08013 4.61047 0
M  V30 33097 C 3102.04 0.740617 4.39808 0
M  V30 33098 C 3102.74 2.69561 5.15472 0
M  V30 33099 N 3101.72 1.97501 5.06452 0
M  V30 33100 H 3105.52 1.47263 2.54344 0
M  V30 33101 H 3103.03 0.899249 1.3523 0
M  V30 33102 H 3105.03 -0.396163 4.15013 0
M  V30 33103 H 3103.69 -0.941452 3.10752 0
M  V30 33104 H 3104.7 2.45942 4.55778 0
M  V30 33105 H 3101.38 -0.0925504 4.17397 0
M  V30 33106 H 3102.77 3.68122 5.62082 0
M  V30 33107 N 3105.49 -1.35184 0.810125 0
M  V30 33108 C 3106.74 -1.97921 0.388624 0
M  V30 33109 C 3107.05 -1.6498 -1.05076 0
M  V30 33110 O 3108.26 -2.21108 -1.57555 0
M  V30 33111 C 3106.71 -3.54093 0.643926 0
M  V30 33112 C 3106.32 -3.9594 2.09609 0
M  V30 33113 C 3108.06 -4.23522 0.287958 0
M  V30 33114 C 3105.97 -5.44972 2.29695 0
M  V30 33115 H 3104.9 -0.740589 0.141575 0
M  V30 33116 H 3107.55 -1.54202 0.99468 0
M  V30 33117 H 3105.93 -3.95987 -0.0321282 0
M  V30 33118 H 3107.11 -3.65187 2.81025 0
M  V30 33119 H 3105.42 -3.3941 2.41226 0
M  V30 33120 H 3108.02 -5.33079 0.416039 0
M  V30 33121 H 3108.36 -4.09188 -0.766233 0
M  V30 33122 H 3108.9 -3.87061 0.918072 0
M  V30 33123 H 3105.64 -5.64278 3.33573 0
M  V30 33124 H 3105.16 -5.77281 1.62808 0
M  V30 33125 H 3106.83 -6.11482 2.11422 0
M  V30 33126 N 3106.97 -0.56394 -1.47165 0
M  V30 33127 C 3107.91 0.192968 -2.31798 0
M  V30 33128 C 3108.91 0.90278 -1.4334 0
M  V30 33129 O 3110.11 0.8233 -1.60068 0
M  V30 33130 H 3106.49 0.0811008 -0.747614 0
M  V30 33131 H 3108.46 -0.539928 -2.93475 0
M  V30 33132 C 3107.21 1.2055 -3.26134 0
M  V30 33133 H 3106.53 0.668733 -3.94167 0
M  V30 33134 H 3107.97 1.70587 -3.8817 0
M  V30 33135 C 3106.43 2.25685 -2.50136 0
M  V30 33136 O 3106.96 3.32726 -2.2507 0
M  V30 33137 N 3105.17 1.99791 -2.11026 0
M  V30 33138 H 3104.71 1.12756 -2.31612 0
M  V30 33139 H 3104.67 2.7035 -1.60494 0
M  V30 33140 N 3108.44 1.54704 -0.300735 0
M  V30 33141 C 3109.69 1.99313 0.309393 0
M  V30 33142 C 3110.01 1.19275 1.55025 0
M  V30 33143 O 3111.21 1.5415 2.23495 0
M  V30 33144 C 3109.67 3.54833 0.601794 0
M  V30 33145 C 3109.28 4.43679 -0.620714 0
M  V30 33146 C 3111.02 4.07968 1.17313 0
M  V30 33147 C 3108.93 5.90631 -0.30148 0
M  V30 33148 H 3107.86 0.744489 0.119382 0
M  V30 33149 H 3110.51 1.78875 -0.409399 0
M  V30 33150 H 3108.89 3.7117 1.38017 0
M  V30 33151 H 3110.06 4.39116 -1.39693 0
M  V30 33152 H 3108.38 4.01314 -1.11067 0
M  V30 33153 H 3110.98 5.15328 1.42622 0
M  V30 33154 H 3111.32 3.58553 2.1153 0
M  V30 33155 H 3111.85 3.95172 0.456465 0
M  V30 33156 H 3108.59 6.44194 -1.21221 0
M  V30 33157 H 3108.11 5.98203 0.437469 0
M  V30 33158 H 3109.79 6.46927 0.0970503 0
M  V30 33159 N 3109.92 0.0284543 1.57574 0
M  V30 33160 C 3111.2 -0.688946 1.83065 0
M  V30 33161 C 3111.58 -1.90372 0.912224 0
M  V30 33162 O 3110.93 -2.28477 -0.032327 0
M  V30 33163 C 3111.14 -1.06779 3.32264 0
M  V30 33164 C 3112.49 -1.45971 3.9872 0
M  V30 33165 O 3113.51 -1.16079 3.36755 0
M  V30 33166 O 3112.37 -2.01664 5.07931 0
M  V30 33167 H 3109.46 -0.337931 0.754806 0
M  V30 33168 H 3112.01 0.0560853 1.69607 0
M  V30 33169 H 3110.78 -0.203167 3.90772 0
M  V30 33170 H 3110.4 -1.87101 3.50826 0
M  V30 33171 N 3111.4 -1.55689 -0.244686 0
M  V30 33172 C 3112.33 -1.86954 -1.32592 0
M  V30 33173 C 3113.35 -0.755973 -1.44184 0
M  V30 33174 O 3114.53 -1.03411 -1.45494 0
M  V30 33175 C 3111.63 -2.04263 -2.70426 0
M  V30 33176 C 3110.81 -3.35136 -2.81074 0
M  V30 33177 C 3109.87 -3.4216 -3.99767 0
M  V30 33178 O 3108.89 -4.15355 -3.8919 0
M  V30 33179 N 3110.09 -2.71614 -5.13036 0
M  V30 33180 H 3112.86 -2.80288 -1.06106 0
M  V30 33181 H 3110.42 -1.55953 -0.434783 0
M  V30 33182 H 3112.41 -2.06301 -3.4817 0
M  V30 33183 H 3110.98 -1.17663 -2.8961 0
M  V30 33184 H 3110.2 -3.45396 -1.89988 0
M  V30 33185 H 3111.49 -4.21394 -2.8514 0
M  V30 33186 H 3110.89 -2.11881 -5.24521 0
M  V30 33187 H 3109.45 -2.79341 -5.88907 0
M  V30 33188 N 3112.88 0.510441 -1.49105 0
M  V30 33189 C 3114.13 1.26515 -1.58114 0
M  V30 33190 C 3114.45 1.92705 -0.263637 0
M  V30 33191 O 3113.71 1.80853 0.747711 0
M  V30 33192 C 3114.01 2.36156 -2.68263 0
M  V30 33193 C 3113.67 1.87488 -4.10072 0
M  V30 33194 C 3112.34 1.73934 -4.48665 0
M  V30 33195 C 3114.69 1.50951 -4.98862 0
M  V30 33196 C 3112.02 1.22207 -5.73831 0
M  V30 33197 C 3114.37 1.0068 -6.24537 0
M  V30 33198 C 3113.03 0.857574 -6.61968 0
M  V30 33199 H 3112.3 0.462952 -0.578582 0
M  V30 33200 H 3114.95 0.567442 -1.829 0
M  V30 33201 H 3113.25 3.11677 -2.37413 0
M  V30 33202 H 3114.95 2.94236 -2.72445 0
M  V30 33203 H 3111.54 1.98994 -3.79604 0
M  V30 33204 H 3115.72 1.60274 -4.69708 0
M  V30 33205 H 3110.98 1.09357 -6.0154 0
M  V30 33206 H 3115.15 0.714858 -6.92721 0
M  V30 33207 H 3112.78 0.454569 -7.5884 0
M  V30 33208 N 3114.36 1.38021 0.760791 0
M  V30 33209 C 3115.6 1.34031 1.52196 0
M  V30 33210 C 3115.94 -0.0717968 1.94067 0
M  V30 33211 O 3115.21 -1.03147 1.64897 0
M  V30 33212 C 3115.49 2.28945 2.7795 0
M  V30 33213 C 3115.35 3.78984 2.42263 0
M  V30 33214 C 3116.67 2.22113 3.79939 0
M  V30 33215 H 3113.78 0.488191 0.552122 0
M  V30 33216 H 3116.43 1.68811 0.871941 0
M  V30 33217 H 3114.58 1.99416 3.33415 0
M  V30 33218 H 3116.25 4.19157 1.92628 0
M  V30 33219 H 3114.49 3.97017 1.74815 0
M  V30 33220 H 3115.16 4.40846 3.32203 0
M  V30 33221 H 3117.64 2.48166 3.33995 0
M  V30 33222 H 3116.51 2.90647 4.65634 0
M  V30 33223 H 3116.78 1.21761 4.25002 0
M  V30 33224 N 3115.83 -0.98818 1.22771 0
M  V30 33225 C 3117.25 -1.25288 0.988687 0
M  V30 33226 C 3117.45 -1.99024 -0.314903 0
M  V30 33227 O 3116.51 -2.30253 -1.03633 0
M  V30 33228 C 3117.82 -2.06005 2.19049 0
M  V30 33229 C 3119.37 -2.19172 2.23456 0
M  V30 33230 C 3119.84 -3.03277 3.43202 0
M  V30 33231 N 3121.33 -3.10863 3.43393 0
M  V30 33232 C 3122.07 -3.76242 4.327 0
M  V30 33233 N 3121.56 -4.43509 5.32232 0
M  V30 33234 N 3123.36 -3.73051 4.20463 0
M  V30 33235 H 3115.51 -0.493978 2.06576 0
M  V30 33236 H 3117.77 -0.280804 0.905457 0
M  V30 33237 H 3117.48 -1.59192 3.13609 0
M  V30 33238 H 3117.35 -3.06759 2.19497 0
M  V30 33239 H 3119.74 -2.65196 1.29441 0
M  V30 33240 H 3119.82 -1.17832 2.27044 0
M  V30 33241 H 3119.46 -2.57951 4.3752 0
M  V30 33242 H 3119.39 -4.04768 3.36854 0
M  V30 33243 H 3121.88 -2.62993 2.71372 0
M  V30 33244 H 3122.2 -4.91152 5.96649 0
M  V30 33245 H 3120.54 -4.42243 5.3614 0
M  V30 33246 H 3123.73 -3.19663 3.41955 0
M  V30 33247 H 3123.91 -4.23723 4.90268 0
M  V30 33248 N 3117.31 -1.03816 -1.18575 0
M  V30 33249 C 3118.26 -0.627027 -2.22119 0
M  V30 33250 C 3119.23 0.363884 -1.62065 0
M  V30 33251 O 3120.41 0.258436 -1.89042 0
M  V30 33252 C 3117.55 0.00644067 -3.45099 0
M  V30 33253 C 3116.67 -1.03163 -4.19501 0
M  V30 33254 C 3115.8 -0.366946 -5.29931 0
M  V30 33255 C 3114.84 -1.39029 -5.96102 0
M  V30 33256 N 3113.98 -0.750748 -6.98075 0
M  V30 33257 H 3118.82 -1.51454 -2.56643 0
M  V30 33258 H 3116.36 -0.757724 -1.26083 0
M  V30 33259 H 3118.31 0.391035 -4.15363 0
M  V30 33260 H 3116.94 0.857482 -3.11203 0
M  V30 33261 H 3116 -1.5342 -3.4809 0
M  V30 33262 H 3117.31 -1.80901 -4.6484 0
M  V30 33263 H 3116.46 0.0719913 -6.06657 0
M  V30 33264 H 3115.2 0.442545 -4.85688 0
M  V30 33265 H 3114.21 -1.83939 -5.18118 0
M  V30 33266 H 3115.43 -2.20144 -6.42428 0
M  V30 33267 H 3113.38 0.0384828 -6.55989 0
M  V30 33268 H 3113.29 -1.46587 -7.41652 0
M  V30 33269 H 3114.56 -0.336123 -7.78775 0
M  V30 33270 N 3118.79 1.34753 -0.817283 0
M  V30 33271 C 3120.02 2.02391 -0.414884 0
M  V30 33272 C 3120.43 1.61711 0.982157 0
M  V30 33273 O 3119.77 0.81551 1.64606 0
M  V30 33274 C 3119.83 3.56907 -0.431044 0
M  V30 33275 C 3119.5 4.20891 -1.78044 0
M  V30 33276 C 3120.49 4.41811 -2.74042 0
M  V30 33277 C 3118.18 4.57782 -2.06738 0
M  V30 33278 C 3120.17 4.9874 -3.9691 0
M  V30 33279 C 3117.86 5.14423 -3.29867 0
M  V30 33280 C 3118.86 5.34845 -4.2477 0
M  V30 33281 O 3118.55 5.90288 -5.45724 0
M  V30 33282 H 3118.28 0.655452 -0.165404 0
M  V30 33283 H 3120.83 1.73127 -1.10527 0
M  V30 33284 H 3119.06 3.85407 0.316006 0
M  V30 33285 H 3120.75 4.0587 -0.049478 0
M  V30 33286 H 3121.52 4.1368 -2.53168 0
M  V30 33287 H 3117.4 4.41194 -1.33674 0
M  V30 33288 H 3120.94 5.14596 -4.70996 0
M  V30 33289 H 3116.84 5.41983 -3.50606 0
M  V30 33290 H 3117.61 6.08728 -5.47167 0
M  V30 33291 N 3120.27 0.571737 1.46864 0
M  V30 33292 C 3121.69 0.232578 1.57896 0
M  V30 33293 C 3121.89 -1.26506 1.56839 0
M  V30 33294 O 3120.94 -2.04614 1.4795 0
M  V30 33295 C 3122.25 0.872086 2.87776 0
M  V30 33296 C 3123.8 0.844658 3.01388 0
M  V30 33297 C 3124.28 1.4635 4.33988 0
M  V30 33298 N 3125.77 1.42734 4.4066 0
M  V30 33299 C 3126.5 1.87566 5.41855 0
M  V30 33300 N 3126 2.40321 6.49783 0
M  V30 33301 N 3127.79 1.78549 5.32988 0
M  V30 33302 H 3119.94 1.54459 1.45795 0
M  V30 33303 H 3122.21 0.644976 0.694773 0
M  V30 33304 H 3121.91 1.92518 2.94329 0
M  V30 33305 H 3121.79 0.373743 3.75344 0
M  V30 33306 H 3124.17 -0.199788 2.94423 0
M  V30 33307 H 3124.25 1.38091 2.15324 0
M  V30 33308 H 3123.9 2.50709 4.4171 0
M  V30 33309 H 3123.83 0.902571 5.18807 0
M  V30 33310 H 3126.32 1.04161 3.63261 0
M  V30 33311 H 3126.63 2.72416 7.23194 0
M  V30 33312 H 3124.98 2.4434 6.50633 0
M  V30 33313 H 3128.17 1.37101 4.47572 0
M  V30 33314 H 3128.34 2.13805 6.11712 0
M  V30 33315 N 3121.75 -1.54542 0.308935 0
M  V30 33316 C 3122.71 -2.22483 -0.550818 0
M  V30 33317 C 3123.71 -1.21345 -1.05508 0
M  V30 33318 O 3124.9 -1.46026 -0.94984 0
M  V30 33319 C 3122.03 -2.91743 -1.76349 0
M  V30 33320 H 3123.23 -2.99869 0.0428922 0
M  V30 33321 H 3120.78 -1.56185 0.0598524 0
M  V30 33322 H 3121.51 -2.18456 -2.39682 0
M  V30 33323 H 3121.3 -3.65891 -1.40947 0
M  V30 33324 H 3122.79 -3.43549 -2.37411 0
M  V30 33325 N 3123.23 -0.0368104 -1.57557 0
M  V30 33326 C 3124.19 0.927552 -2.09593 0
M  V30 33327 C 3125.19 1.24917 -1.01254 0
M  V30 33328 O 3126.38 1.18823 -1.27384 0
M  V30 33329 C 3123.51 2.24179 -2.5682 0
M  V30 33330 H 3124.7 0.476732 -2.96087 0
M  V30 33331 H 3122.26 0.211357 -1.54864 0
M  V30 33332 H 3122.99 2.73873 -1.73678 0
M  V30 33333 H 3122.78 2.02144 -3.35976 0
M  V30 33334 H 3124.27 2.93286 -2.97276 0
M  V30 33335 N 3124.7 1.55817 0.236426 0
M  V30 33336 C 3125.63 1.94208 1.29636 0
M  V30 33337 C 3126.61 0.808346 1.49666 0
M  V30 33338 O 3127.8 1.06947 1.62098 0
M  V30 33339 C 3124.93 2.24589 2.6491 0
M  V30 33340 C 3123.88 3.40313 2.59559 0
M  V30 33341 C 3123.21 3.56261 3.98726 0
M  V30 33342 C 3124.51 4.7571 2.15633 0
M  V30 33343 H 3126.2 2.82993 0.977503 0
M  V30 33344 H 3123.75 1.36156 0.46878 0
M  V30 33345 H 3125.7 2.50037 3.39204 0
M  V30 33346 H 3124.43 1.32641 2.98453 0
M  V30 33347 H 3123.09 3.1489 1.87722 0
M  V30 33348 H 3122.73 2.61715 4.29551 0
M  V30 33349 H 3122.43 4.34089 3.96031 0
M  V30 33350 H 3123.96 3.84041 4.74705 0
M  V30 33351 H 3125.37 5.00461 2.79664 0
M  V30 33352 H 3123.77 5.56714 2.24029 0
M  V30 33353 H 3124.84 4.72066 1.10822 0
M  V30 33354 N 3126.18 -0.502526 1.49373 0
M  V30 33355 C 3127.43 -1.25427 1.5847 0
M  V30 33356 C 3127.75 -1.93085 0.272626 0
M  V30 33357 O 3127.02 -1.82662 -0.707915 0
M  V30 33358 H 3125.6 -0.46594 0.583874 0
M  V30 33359 H 3128.26 -0.582535 1.85991 0
M  V30 33360 H 3127.36 -2.01901 2.37996 0
M  V30 33361 N 3127.66 -1.38422 -0.75346 0
M  V30 33362 C 3128.61 -1.35662 -1.8672 0
M  V30 33363 C 3129.58 -0.21915 -1.64648 0
M  V30 33364 O 3130.76 -0.411398 -1.86312 0
M  V30 33365 C 3127.9 -1.18763 -3.24021 0
M  V30 33366 C 3127.01 -2.41898 -3.57924 0
M  V30 33367 C 3126.15 -2.17729 -4.84528 0
M  V30 33368 C 3125.19 -3.36635 -5.11218 0
M  V30 33369 N 3124.33 -3.119 -6.29017 0
M  V30 33370 H 3129.17 -2.30876 -1.88415 0
M  V30 33371 H 3126.7 -1.14707 -0.920913 0
M  V30 33372 H 3128.66 -1.06982 -4.0325 0
M  V30 33373 H 3127.29 -0.271876 -3.21653 0
M  V30 33374 H 3126.34 -2.64352 -2.73537 0
M  V30 33375 H 3127.65 -3.3052 -3.73575 0
M  V30 33376 H 3126.81 -2.03084 -5.71701 0
M  V30 33377 H 3125.55 -1.26473 -4.71016 0
M  V30 33378 H 3124.55 -3.51799 -4.22514 0
M  V30 33379 H 3125.78 -4.28766 -5.26627 0
M  V30 33380 H 3123.72 -2.23291 -6.16828 0
M  V30 33381 H 3123.64 -3.94071 -6.4517 0
M  V30 33382 H 3124.91 -3.00911 -7.19078 0
M  V30 33383 N 3129.14 0.981655 -1.23294 0
M  V30 33384 C 3130.07 2.09189 -1.03742 0
M  V30 33385 C 3131.05 1.7004 0.0452742 0
M  V30 33386 O 3132.23 1.93834 -0.119126 0
M  V30 33387 C 3129.36 3.41603 -0.626487 0
M  V30 33388 C 3128.32 3.94649 -1.65638 0
M  V30 33389 C 3127.64 5.23243 -1.10093 0
M  V30 33390 C 3128.94 4.2406 -3.0491 0
M  V30 33391 H 3130.64 2.25804 -1.96604 0
M  V30 33392 H 3128.18 1.08508 -0.946675 0
M  V30 33393 H 3130.14 4.18694 -0.476763 0
M  V30 33394 H 3128.86 3.24848 0.337816 0
M  V30 33395 H 3127.52 3.19701 -1.79407 0
M  V30 33396 H 3127.17 5.02838 -0.127651 0
M  V30 33397 H 3126.87 5.59702 -1.78906 0
M  V30 33398 H 3128.39 6.02958 -0.963034 0
M  V30 33399 H 3129.81 4.91907 -2.9445 0
M  V30 33400 H 3128.2 4.71717 -3.70949 0
M  V30 33401 H 3129.27 3.31383 -3.53996 0
M  V30 33402 N 3130.62 1.04444 1.18022 0
M  V30 33403 C 3132.03 0.777342 1.69748 0
M  V30 33404 C 3132.38 -0.701366 1.83236 0
M  V30 33405 O 3131.5 -1.54565 1.51455 0
M  V30 33406 C 3132.1 1.40446 3.08319 0
M  V30 33407 C 3130.66 1.18559 3.5724 0
M  V30 33408 C 3129.8 1.49275 2.33693 0
M  V30 33409 H 3132.75 1.21036 1.02645 0
M  V30 33410 H 3132.78 0.809694 3.71785 0
M  V30 33411 H 3132.29 2.48067 2.9847 0
M  V30 33412 H 3130.39 0.128287 3.72379 0
M  V30 33413 H 3130.5 1.88526 4.40448 0
M  V30 33414 H 3128.87 0.912568 2.3779 0
M  V30 33415 H 3129.65 2.58014 2.26459 0
M  V30 33416 N 3132.09 -1.34317 0.824418 0
M  V30 33417 C 3133.03 -2.28283 0.204845 0
M  V30 33418 C 3134.04 -1.51095 -0.606136 0
M  V30 33419 O 3135.23 -1.73104 -0.435572 0
M  V30 33420 C 3132.33 -3.30915 -0.731332 0
M  V30 33421 C 3131.5 -4.37384 0.0371491 0
M  V30 33422 C 3130.56 -5.19769 -0.82018 0
M  V30 33423 O 3129.59 -5.68585 -0.264621 0
M  V30 33424 N 3130.79 -5.39625 -2.13975 0
M  V30 33425 H 3133.55 -2.82092 1.01215 0
M  V30 33426 H 3131.11 -1.46857 0.681519 0
M  V30 33427 H 3133.11 -3.82928 -1.30951 0
M  V30 33428 H 3131.68 -2.7749 -1.43938 0
M  V30 33429 H 3130.9 -3.86066 0.796646 0
M  V30 33430 H 3132.18 -5.05641 0.566103 0
M  V30 33431 H 3131.58 -5.01641 -2.61483 0
M  V30 33432 H 3130.14 -5.9475 -2.66675 0
M  V30 33433 N 3133.57 -0.579517 -1.46558 0
M  V30 33434 C 3134.5 0.19333 -2.28383 0
M  V30 33435 C 3135.52 0.858487 -1.38325 0
M  V30 33436 O 3136.71 0.728586 -1.62954 0
M  V30 33437 C 3133.81 1.293 -3.13264 0
M  V30 33438 C 3132.98 0.720383 -4.31427 0
M  V30 33439 C 3132.04 1.70736 -4.97731 0
M  V30 33440 O 3131.06 1.24466 -5.55425 0
M  V30 33441 N 3132.27 3.04137 -4.9445 0
M  V30 33442 H 3135.03 -0.508663 -2.95352 0
M  V30 33443 H 3132.59 -0.417073 -1.56436 0
M  V30 33444 H 3134.58 1.95248 -3.54486 0
M  V30 33445 H 3133.15 1.8979 -2.48391 0
M  V30 33446 H 3132.37 -0.116468 -3.94028 0
M  V30 33447 H 3133.66 0.317541 -5.07808 0
M  V30 33448 H 3133.06 3.44355 -4.48817 0
M  V30 33449 H 3131.62 3.65583 -5.39623 0
M  V30 33450 N 3135.05 1.54376 -0.317127 0
M  V30 33451 C 3136.01 2.22772 0.539011 0
M  V30 33452 C 3137.01 1.21903 1.04863 0
M  V30 33453 O 3138.2 1.46528 0.942083 0
M  V30 33454 C 3135.34 2.92674 1.74799 0
M  V30 33455 H 3136.53 2.99842 -0.0587944 0
M  V30 33456 H 3134.08 1.56151 -0.0681345 0
M  V30 33457 H 3134.82 2.19724 2.3852 0
M  V30 33458 H 3134.6 3.66633 1.39005 0
M  V30 33459 H 3136.09 3.44803 2.35586 0
M  V30 33460 N 3136.53 0.0451655 1.57535 0
M  V30 33461 C 3137.48 -0.949168 2.12352 0
M  V30 33462 C 3138.47 -1.32626 1.05389 0
M  V30 33463 O 3139.68 -1.30661 1.23805 0
M  V30 33464 H 3136.05 -0.323934 0.678654 0
M  V30 33465 H 3138.02 -0.461666 2.94807 0
M  V30 33466 C 3136.77 -2.21683 2.67866 0
M  V30 33467 H 3136.09 -1.93544 3.49829 0
M  V30 33468 H 3137.53 -2.8943 3.09849 0
M  V30 33469 C 3135.99 -2.95745 1.61358 0
M  V30 33470 O 3136.52 -3.8846 1.02282 0
M  V30 33471 N 3134.73 -2.58367 1.33021 0
M  V30 33472 H 3134.28 -1.83048 1.81249 0
M  V30 33473 H 3134.23 -3.08229 0.619866 0
M  V30 33474 N 3138.01 -1.5594 -0.228159 0
M  V30 33475 C 3139.28 -1.69426 -0.977462 0
M  V30 33476 C 3139.66 -0.590514 -2.02672 0
M  V30 33477 O 3139.01 0.403428 -2.2491 0
M  V30 33478 C 3139.22 -3.10478 -1.59388 0
M  V30 33479 C 3140.57 -3.69676 -2.08865 0
M  V30 33480 O 3141.59 -3.13397 -1.69294 0
M  V30 33481 O 3140.45 -4.68377 -2.81576 0
M  V30 33482 H 3137.55 -0.689808 -0.456173 0
M  V30 33483 H 3140.09 -1.68262 -0.220463 0
M  V30 33484 H 3138.86 -3.82267 -0.835904 0
M  V30 33485 H 3138.49 -3.15732 -2.41659 0
M  V30 33486 N 3139.48 0.494597 -1.49638 0
M  V30 33487 C 3140.71 1.27033 -1.6293 0
M  V30 33488 C 3141.12 1.86766 -0.302497 0
M  V30 33489 O 3140.47 1.6888 0.722848 0
M  V30 33490 C 3140.53 2.43526 -2.64453 0
M  V30 33491 C 3140.19 2.04613 -4.08635 0
M  V30 33492 C 3141.19 1.58216 -4.95241 0
M  V30 33493 C 3138.87 2.14052 -4.54409 0
M  V30 33494 C 3140.87 1.21771 -6.2566 0
M  V30 33495 C 3138.55 1.77218 -5.84839 0
M  V30 33496 C 3139.55 1.31153 -6.70289 0
M  V30 33497 O 3139.24 0.948199 -7.98288 0
M  V30 33498 H 3138.97 0.391252 -0.55127 0
M  V30 33499 H 3141.53 0.599587 -1.96454 0
M  V30 33500 H 3139.76 3.13696 -2.26123 0
M  V30 33501 H 3141.45 3.0554 -2.67208 0
M  V30 33502 H 3142.21 1.50365 -4.61102 0
M  V30 33503 H 3138.09 2.48858 -3.8806 0
M  V30 33504 H 3141.63 0.857444 -6.9231 0
M  V30 33505 H 3137.53 1.84721 -6.18505 0
M  V30 33506 H 3138.3 1.07911 -8.11355 0
M  V30 33507 N 3140.96 1.3882 0.746109 0
M  V30 33508 C 3141.89 1.39375 1.87341 0
M  V30 33509 C 3142.87 0.258613 1.68123 0
M  V30 33510 O 3144.06 0.462802 1.88605 0
M  V30 33511 C 3141.19 1.22549 3.2496 0
M  V30 33512 C 3140.14 2.33346 3.58795 0
M  V30 33513 C 3139.47 2.01618 4.95232 0
M  V30 33514 C 3140.77 3.7563 3.62904 0
M  V30 33515 H 3142.46 2.33712 1.87134 0
M  V30 33516 H 3140.01 1.12497 0.898917 0
M  V30 33517 H 3141.96 1.21561 4.03486 0
M  V30 33518 H 3140.69 0.246764 3.25666 0
M  V30 33519 H 3139.34 2.33532 2.82592 0
M  V30 33520 H 3138.99 1.02211 4.92506 0
M  V30 33521 H 3138.69 2.75828 5.18838 0
M  V30 33522 H 3140.22 2.02261 5.76127 0
M  V30 33523 H 3141.63 3.77433 4.31529 0
M  V30 33524 H 3140.03 4.49107 3.98023 0
M  V30 33525 H 3141.1 4.07407 2.6296 0
M  V30 33526 N 3142.44 -0.975103 1.23812 0
M  V30 33527 C 3143.39 -2.08968 1.02153 0
M  V30 33528 C 3144.38 -1.6935 -0.0411874 0
M  V30 33529 O 3145.59 -1.79646 0.112757 0
M  V30 33530 H 3141.96 -0.683641 0.313271 0
M  V30 33531 H 3143.93 -2.24401 1.96689 0
M  V30 33532 C 3142.68 -3.41851 0.635084 0
M  V30 33533 H 3142.01 -3.7279 1.44456 0
M  V30 33534 H 3143.45 -4.20761 0.523084 0
M  V30 33535 C 3141.91 -3.30429 -0.657149 0
M  V30 33536 O 3142.44 -3.63726 -1.70488 0
M  V30 33537 N 3140.64 -2.83576 -0.635072 0
M  V30 33538 H 3140.19 -2.56677 0.217885 0
M  V30 33539 H 3140.15 -2.76316 -1.4999 0
M  V30 33540 N 3143.92 -1.05068 -1.17467 0
M  V30 33541 C 3145.14 -0.780332 -1.9216 0
M  V30 33542 C 3145.57 0.657801 -1.76223 0
M  V30 33543 O 3144.93 1.45686 -1.07913 0
M  V30 33544 C 3144.97 -1.1642 -3.4129 0
M  V30 33545 O 3144.08 -0.295603 -4.11339 0
M  V30 33546 H 3143.42 -0.286268 -0.599122 0
M  V30 33547 H 3145.95 -1.4032 -1.48901 0
M  V30 33548 H 3145.96 -1.13043 -3.92027 0
M  V30 33549 H 3144.63 -2.21181 -3.5221 0
M  V30 33550 H 3143.21 -0.389863 -3.70856 0
M  V30 33551 N 3145.4 1.33878 -0.831529 0
M  V30 33552 C 3146.64 1.98018 -0.423709 0
M  V30 33553 C 3146.97 1.65897 1.01531 0
M  V30 33554 O 3146.23 0.927213 1.72341 0
M  V30 33555 C 3146.53 3.52616 -0.582795 0
M  V30 33556 C 3146.19 4.04669 -1.98881 0
M  V30 33557 C 3144.85 4.18596 -2.37341 0
M  V30 33558 C 3147.21 4.32565 -2.90753 0
M  V30 33559 C 3144.53 4.57749 -3.66992 0
M  V30 33560 C 3146.89 4.73166 -4.19877 0
M  V30 33561 C 3145.55 4.85299 -4.58303 0
M  V30 33562 H 3144.82 0.724598 -0.155046 0
M  V30 33563 H 3147.47 1.59677 -1.05714 0
M  V30 33564 H 3145.77 3.91571 0.133983 0
M  V30 33565 H 3147.47 4.00235 -0.247646 0
M  V30 33566 H 3144.06 3.94298 -1.68008 0
M  V30 33567 H 3148.24 4.21335 -2.62279 0
M  V30 33568 H 3143.5 4.65334 -3.96579 0
M  V30 33569 H 3147.67 4.93709 -4.91146 0
M  V30 33570 H 3145.3 5.15394 -5.58814 0
M  V30 33571 N 3146.87 0.587281 1.46249 0
M  V30 33572 C 3147.82 -0.156067 2.32076 0
M  V30 33573 C 3148.82 -0.879861 1.44758 0
M  V30 33574 O 3150.02 -0.797731 1.61358 0
M  V30 33575 H 3146.4 -0.0691966 0.74881 0
M  V30 33576 H 3148.37 0.586549 2.92578 0
M  V30 33577 C 3147.12 -1.15346 3.2801 0
M  V30 33578 H 3146.44 -0.60594 3.95181 0
M  V30 33579 H 3147.88 -1.64389 3.90835 0
M  V30 33580 C 3146.34 -2.21677 2.53695 0
M  V30 33581 O 3146.87 -3.29103 2.30335 0
M  V30 33582 N 3145.08 -1.96408 2.14178 0
M  V30 33583 H 3144.62 -1.09057 2.33376 0
M  V30 33584 H 3144.58 -2.67762 1.64775 0
M  V30 33585 N 3148.35 -1.54206 0.325309 0
M  V30 33586 C 3149.6 -2.01601 -0.269908 0
M  V30 33587 C 3149.95 -1.20936 -1.49641 0
M  V30 33588 O 3149.25 -0.283871 -1.89485 0
M  V30 33589 C 3149.44 -3.51361 -0.654231 0
M  V30 33590 C 3149.27 -4.46525 0.533475 0
M  V30 33591 C 3148.04 -4.94626 1.03312 0
M  V30 33592 C 3150.24 -4.95266 1.38621 0
M  V30 33593 N 3148.22 -5.73697 2.18506 0
M  V30 33594 C 3149.59 -5.7228 2.38529 0
M  V30 33595 C 3151.65 -4.77406 1.41378 0
M  V30 33596 C 3150.35 -6.33334 3.41 0
M  V30 33597 C 3152.37 -5.39297 2.42719 0
M  V30 33598 C 3151.74 -6.16163 3.41354 0
M  V30 33599 H 3147.84 -0.779493 -0.0625641 0
M  V30 33600 H 3150.42 -1.8917 0.460744 0
M  V30 33601 H 3148.59 -3.64034 -1.35401 0
M  V30 33602 H 3150.32 -3.85521 -1.23107 0
M  V30 33603 H 3147.08 -4.69731 0.604127 0
M  V30 33604 H 3147.5 -6.1791 2.76616 0
M  V30 33605 H 3152.14 -4.1754 0.664869 0
M  V30 33606 H 3149.86 -6.9232 4.16796 0
M  V30 33607 H 3153.45 -5.27394 2.45656 0
M  V30 33608 H 3152.33 -6.63203 4.18487 0
M  V30 33609 N 3149.83 -0.0535194 -1.57509 0
M  V30 33610 C 3150.74 0.935212 -2.15153 0
M  V30 33611 C 3151.76 1.34001 -1.10994 0
M  V30 33612 O 3152.93 1.41645 -1.43173 0
M  V30 33613 C 3150 2.19088 -2.68703 0
M  V30 33614 C 3149.06 1.84421 -3.87669 0
M  V30 33615 C 3148.29 3.04002 -4.38655 0
M  V30 33616 O 3148.52 4.17448 -3.88707 0
M  V30 33617 O 3147.45 2.8488 -5.30214 0
M  V30 33618 H 3151.28 0.474956 -2.99963 0
M  V30 33619 H 3148.86 0.168514 -1.48447 0
M  V30 33620 H 3150.74 2.92756 -3.03104 0
M  V30 33621 H 3149.42 2.64247 -1.86963 0
M  V30 33622 H 3148.32 1.08062 -3.58153 0
M  V30 33623 H 3149.66 1.4406 -4.70646 0
M  V30 33624 N 3151.31 1.56059 0.219886 0
M  V30 33625 C 3152.73 1.49087 0.569658 0
M  V30 33626 C 3152.93 0.748936 1.87065 0
M  V30 33627 O 3151.98 0.289279 2.50837 0
M  V30 33628 C 3153.29 2.93649 0.647346 0
M  V30 33629 C 3154.84 3.04179 0.737861 0
M  V30 33630 C 3155.32 4.50102 0.846878 0
M  V30 33631 N 3156.81 4.54152 0.911056 0
M  V30 33632 C 3157.54 5.64342 1.01515 0
M  V30 33633 N 3157.04 6.84281 1.08308 0
M  V30 33634 N 3158.83 5.52198 1.05041 0
M  V30 33635 H 3150.98 2.02723 -0.633814 0
M  V30 33636 H 3153.25 0.921495 -0.222599 0
M  V30 33637 H 3152.95 3.50887 -0.239048 0
M  V30 33638 H 3152.83 3.4564 1.51039 0
M  V30 33639 H 3155.21 2.47005 1.6147 0
M  V30 33640 H 3155.29 2.55355 -0.15089 0
M  V30 33641 H 3154.94 5.07894 -0.0255059 0
M  V30 33642 H 3154.87 4.96634 1.75107 0
M  V30 33643 H 3157.36 3.67777 0.868804 0
M  V30 33644 H 3157.67 7.64009 1.16233 0
M  V30 33645 H 3156.02 6.86989 1.05219 0
M  V30 33646 H 3159.21 4.57424 0.994006 0
M  V30 33647 H 3159.38 6.38105 1.12808 0
M  V30 33648 N 3152.79 -0.486655 1.49898 0
M  V30 33649 C 3153.72 -1.60362 1.63758 0
M  V30 33650 C 3154.73 -1.54284 0.519641 0
M  V30 33651 O 3155.92 -1.59955 0.792247 0
M  V30 33652 C 3153.02 -2.99202 1.59158 0
M  V30 33653 C 3152.19 -3.30314 2.86726 0
M  V30 33654 C 3151.25 -4.48633 2.74982 0
M  V30 33655 O 3150.28 -4.49707 3.4893 0
M  V30 33656 N 3151.48 -5.49389 1.87489 0
M  V30 33657 H 3154.25 -1.48895 2.60097 0
M  V30 33658 H 3151.81 -0.674799 1.47167 0
M  V30 33659 H 3153.8 -3.76298 1.48936 0
M  V30 33660 H 3152.37 -3.04519 0.706187 0
M  V30 33661 H 3151.59 -2.41978 3.11192 0
M  V30 33662 H 3152.88 -3.47904 3.71268 0
M  V30 33663 H 3152.28 -5.5133 1.26693 0
M  V30 33664 H 3150.83 -6.2553 1.8318 0
M  V30 33665 N 3154.27 -1.39214 -0.738737 0
M  V30 33666 C 3155.51 -1.36435 -1.50044 0
M  V30 33667 C 3155.84 0.0409133 -1.94157 0
M  V30 33668 O 3155.12 1.00511 -1.66517 0
M  V30 33669 C 3155.4 -2.33338 -2.74272 0
M  V30 33670 C 3155.26 -3.8279 -2.36203 0
M  V30 33671 C 3156.57 -2.2813 -3.76357 0
M  V30 33672 H 3153.69 -0.496913 -0.544286 0
M  V30 33673 H 3156.34 -1.70177 -0.844975 0
M  V30 33674 H 3154.49 -2.04695 -3.302 0
M  V30 33675 H 3156.16 -4.22168 -1.85935 0
M  V30 33676 H 3154.4 -3.99748 -1.68476 0
M  V30 33677 H 3155.07 -4.46075 -3.25148 0
M  V30 33678 H 3157.55 -2.53448 -3.30005 0
M  V30 33679 H 3156.42 -2.98018 -4.60952 0
M  V30 33680 H 3156.68 -1.28507 -4.23011 0
M  V30 33681 N 3155.74 0.968523 -1.24328 0
M  V30 33682 C 3156.97 1.75169 -1.11043 0
M  V30 33683 C 3157.39 1.85128 0.333077 0
M  V30 33684 O 3156.75 1.32158 1.24112 0
M  V30 33685 C 3156.8 3.15065 -1.75403 0
M  V30 33686 O 3155.9 3.99479 -1.02424 0
M  V30 33687 H 3155.24 0.538485 -0.388498 0
M  V30 33688 H 3157.77 1.21497 -1.64619 0
M  V30 33689 H 3157.78 3.65592 -1.81126 0
M  V30 33690 H 3156.46 3.07133 -2.80432 0
M  V30 33691 H 3155.04 3.57964 -1.04481 0
M  V30 33692 N 3157.22 1.0569 1.16908 0
M  V30 33693 C 3158.17 0.632377 2.19055 0
M  V30 33694 C 3159.16 -0.33377 1.574 0
M  V30 33695 O 3160.35 -0.150192 1.76362 0
M  V30 33696 C 3157.48 0.0138812 3.43297 0
M  V30 33697 C 3156.56 1.00416 4.12041 0
M  V30 33698 N 3156.95 2.17745 4.56531 0
M  V30 33699 C 3155.25 0.83374 4.38138 0
M  V30 33700 C 3155.95 2.80434 5.09639 0
M  V30 33701 N 3154.93 2.082 5.02149 0
M  V30 33702 H 3158.73 1.52625 2.51163 0
M  V30 33703 H 3156.24 0.927731 1.33293 0
M  V30 33704 H 3158.24 -0.308044 4.1576 0
M  V30 33705 H 3156.9 -0.875325 3.12679 0
M  V30 33706 H 3157.91 2.55554 4.50458 0
M  V30 33707 H 3154.59 -0.00399345 4.175 0
M  V30 33708 H 3155.98 3.79962 5.54147 0
M  V30 33709 N 3158.7 -1.33435 0.838617 0
M  V30 33710 C 3159.66 -2.27521 0.276883 0
M  V30 33711 C 3160.66 -1.50946 -0.554249 0
M  V30 33712 O 3161.85 -1.70267 -0.368077 0
M  V30 33713 C 3158.98 -3.35398 -0.609977 0
M  V30 33714 H 3160.18 -2.78717 1.1071 0
M  V30 33715 H 3157.73 -1.43834 0.611682 0
M  V30 33716 H 3158.47 -2.89443 -1.46264 0
M  V30 33717 H 3158.25 -3.92097 -0.0152926 0
M  V30 33718 H 3159.74 -4.05541 -0.996297 0
M  V30 33719 N 3160.18 -0.595029 -1.45935 0
M  V30 33720 C 3161.12 0.131125 -2.30427 0
M  V30 33721 C 3162.09 0.872207 -1.41357 0
M  V30 33722 O 3163.28 0.860437 -1.70297 0
M  V30 33723 C 3160.42 1.13081 -3.26047 0
M  V30 33724 C 3159.53 0.391906 -4.30219 0
M  V30 33725 C 3158.67 1.38021 -5.12956 0
M  V30 33726 C 3157.71 0.628398 -6.08866 0
M  V30 33727 N 3156.84 1.56536 -6.84427 0
M  V30 33728 H 3161.68 -0.595411 -2.91991 0
M  V30 33729 H 3159.22 -0.30543 -1.43894 0
M  V30 33730 H 3161.18 1.72341 -3.7994 0
M  V30 33731 H 3159.81 1.82491 -2.66264 0
M  V30 33732 H 3158.86 -0.315962 -3.79086 0
M  V30 33733 H 3160.17 -0.195261 -4.98418 0
M  V30 33734 H 3159.33 2.04524 -5.71187 0
M  V30 33735 H 3158.07 2.0013 -4.44746 0
M  V30 33736 H 3157.07 -0.0503397 -5.49777 0
M  V30 33737 H 3158.3 0.0125217 -6.79099 0
M  V30 33738 H 3156.24 2.17434 -6.18917 0
M  V30 33739 H 3156.16 1.03131 -7.48933 0
M  V30 33740 H 3157.43 2.22036 -7.47208 0
M  V30 33741 N 3161.66 1.54031 -0.333483 0
M  V30 33742 C 3162.57 2.2838 0.536634 0
M  V30 33743 C 3163.58 1.33106 1.12066 0
M  V30 33744 O 3164.76 1.66133 1.1385 0
M  V30 33745 C 3161.82 3.03459 1.67672 0
M  V30 33746 C 3160.88 4.14338 1.1235 0
M  V30 33747 C 3160.12 4.85827 2.20924 0
M  V30 33748 O 3160.34 4.56906 3.41458 0
M  V30 33749 O 3159.27 5.7251 1.85785 0
M  V30 33750 H 3163.1 3.03625 -0.0674537 0
M  V30 33751 H 3160.68 1.49073 -0.0988492 0
M  V30 33752 H 3162.57 3.50442 2.34026 0
M  V30 33753 H 3161.24 2.3108 2.2668 0
M  V30 33754 H 3160.15 3.71681 0.424761 0
M  V30 33755 H 3161.48 4.8879 0.578411 0
M  V30 33756 N 3163.13 0.0618717 1.57479 0
M  V30 33757 C 3164.08 -0.908825 2.12153 0
M  V30 33758 C 3165.05 -1.30186 1.03154 0
M  V30 33759 O 3166.24 -1.38946 1.30762 0
M  V30 33760 C 3163.38 -2.17461 2.67964 0
M  V30 33761 C 3162.49 -1.8351 3.91086 0
M  V30 33762 C 3161.62 -3.04625 4.35174 0
M  V30 33763 C 3160.66 -2.66645 5.50969 0
M  V30 33764 N 3159.8 -3.80489 5.90062 0
M  V30 33765 H 3164.64 -0.435692 2.94798 0
M  V30 33766 H 3162.18 -0.20342 1.45687 0
M  V30 33767 H 3164.13 -2.91543 2.98427 0
M  V30 33768 H 3162.76 -2.62332 1.881 0
M  V30 33769 H 3161.82 -0.995316 3.67148 0
M  V30 33770 H 3163.13 -1.5156 4.75217 0
M  V30 33771 H 3162.28 -3.86997 4.67246 0
M  V30 33772 H 3161.02 -3.39761 3.49877 0
M  V30 33773 H 3160.03 -1.82693 5.18559 0
M  V30 33774 H 3161.25 -2.3269 6.37991 0
M  V30 33775 H 3159.2 -4.15405 5.07715 0
M  V30 33776 H 3159.11 -3.52274 6.68909 0
M  V30 33777 H 3160.38 -4.63468 6.26752 0
M  V30 33778 N 3164.61 -1.56173 -0.211607 0
M  V30 33779 C 3165.54 -1.96246 -1.26529 0
M  V30 33780 C 3166.52 -0.832054 -1.48361 0
M  V30 33781 O 3167.71 -1.09513 -1.60376 0
M  V30 33782 C 3164.84 -2.28775 -2.61303 0
M  V30 33783 C 3163.79 -3.44399 -2.54112 0
M  V30 33784 C 3163.12 -3.62559 -3.93007 0
M  V30 33785 C 3164.42 -4.7908 -2.08038 0
M  V30 33786 H 3166.11 -2.84513 -0.932357 0
M  V30 33787 H 3163.66 -1.36885 -0.44706 0
M  V30 33788 H 3165.61 -2.55402 -3.35184 0
M  V30 33789 H 3164.34 -1.37372 -2.96305 0
M  V30 33790 H 3162.99 -3.17837 -1.82689 0
M  V30 33791 H 3162.64 -2.68516 -4.25333 0
M  V30 33792 H 3162.34 -4.40334 -3.89075 0
M  V30 33793 H 3163.87 -3.91545 -4.68535 0
M  V30 33794 H 3165.28 -5.04846 -2.71667 0
M  V30 33795 H 3163.68 -5.60208 -2.15144 0
M  V30 33796 H 3164.75 -4.73769 -1.03298 0
M  V30 33797 N 3166.09 0.478699 -1.50154 0
M  V30 33798 C 3167.32 1.25479 -1.64507 0
M  V30 33799 C 3167.73 1.85976 -0.325328 0
M  V30 33800 O 3167.09 1.68878 0.691855 0
M  V30 33801 C 3167.14 2.36902 -2.73057 0
M  V30 33802 O 3166.86 1.78887 -3.99914 0
M  V30 33803 C 3168.36 3.27907 -2.98315 0
M  V30 33804 H 3165.58 0.379771 -0.553186 0
M  V30 33805 H 3168.13 0.572255 -1.9633 0
M  V30 33806 H 3166.28 3.00945 -2.43949 0
M  V30 33807 H 3166.7 2.52203 -4.59884 0
M  V30 33808 H 3168.17 4.02317 -3.77949 0
M  V30 33809 H 3168.65 3.86236 -2.09089 0
M  V30 33810 H 3169.25 2.69609 -3.28924 0
M  V30 33811 N 3167.57 1.39603 0.731343 0
M  V30 33812 C 3168.53 1.38386 1.82707 0
M  V30 33813 C 3169.53 0.280337 1.58337 0
M  V30 33814 O 3170.72 0.538432 1.6567 0
M  V30 33815 C 3167.85 1.16008 3.20554 0
M  V30 33816 H 3169.05 2.35892 1.85189 0
M  V30 33817 H 3166.6 1.25222 0.935374 0
M  V30 33818 H 3167.33 0.191984 3.23731 0
M  V30 33819 H 3167.12 1.95926 3.3964 0
M  V30 33820 H 3168.61 1.17906 4.0061 0
M  V30 33821 N 3169.05 -0.961916 1.2484 0
M  V30 33822 C 3169.98 -2.07512 1.07056 0
M  V30 33823 C 3170.96 -1.7009 -0.0182166 0
M  V30 33824 O 3172.14 -1.9362 0.149949 0
M  V30 33825 C 3169.27 -3.40563 0.680753 0
M  V30 33826 C 3168.23 -3.91964 1.71895 0
M  V30 33827 C 3167.55 -5.21426 1.18404 0
M  V30 33828 C 3168.85 -4.19156 3.11618 0
M  V30 33829 H 3170.55 -2.22647 2.00171 0
M  V30 33830 H 3168.09 -1.06989 0.963818 0
M  V30 33831 H 3170.05 -4.17883 0.543313 0
M  V30 33832 H 3168.77 -3.25345 -0.286092 0
M  V30 33833 H 3167.43 -3.16806 1.84471 0
M  V30 33834 H 3167.08 -5.02571 0.207632 0
M  V30 33835 H 3166.78 -5.56785 1.87788 0
M  V30 33836 H 3168.3 -6.01349 1.05884 0
M  V30 33837 H 3169.71 -4.8716 3.02238 0
M  V30 33838 H 3168.11 -4.65756 3.78406 0
M  V30 33839 H 3169.18 -3.25709 3.59224 0
M  V30 33840 N 3170.52 -1.06308 -1.16346 0
M  V30 33841 C 3171.75 -0.800647 -1.90781 0
M  V30 33842 C 3172.17 0.645002 -1.77441 0
M  V30 33843 O 3171.52 1.44158 -1.11914 0
M  V30 33844 C 3171.58 -1.18627 -3.41482 0
M  V30 33845 O 3171.3 -2.57519 -3.54423 0
M  V30 33846 C 3172.8 -0.951601 -4.32966 0
M  V30 33847 H 3170.02 -0.290258 -0.604972 0
M  V30 33848 H 3172.56 -1.41675 -1.47474 0
M  V30 33849 H 3170.72 -0.6147 -3.82492 0
M  V30 33850 H 3171.13 -2.72962 -4.47875 0
M  V30 33851 H 3172.6 -1.27105 -5.37167 0
M  V30 33852 H 3173.08 0.112657 -4.39055 0
M  V30 33853 H 3173.69 -1.50756 -3.97684 0
M  V30 33854 N 3172 1.32989 -0.845682 0
M  V30 33855 C 3172.95 2.29073 -0.281801 0
M  V30 33856 C 3173.92 1.54643 0.60621 0
M  V30 33857 O 3175.1 1.82909 0.543031 0
M  V30 33858 C 3172.24 3.40984 0.531391 0
M  V30 33859 C 3171.36 4.30313 -0.381404 0
M  V30 33860 C 3170.49 5.29345 0.44355 0
M  V30 33861 C 3169.53 6.10314 -0.467208 0
M  V30 33862 N 3168.67 7.0137 0.320025 0
M  V30 33863 H 3173.51 2.76697 -1.10646 0
M  V30 33864 H 3171.05 1.36143 -0.557084 0
M  V30 33865 H 3173 4.04579 1.01841 0
M  V30 33866 H 3171.63 2.94535 1.32096 0
M  V30 33867 H 3170.69 3.67379 -0.986766 0
M  V30 33868 H 3172 4.86951 -1.08075 0
M  V30 33869 H 3171.15 5.985 0.994107 0
M  V30 33870 H 3169.89 4.73301 1.17631 0
M  V30 33871 H 3168.9 5.40071 -1.02972 0
M  V30 33872 H 3170.12 6.68442 -1.19843 0
M  V30 33873 H 3168.07 6.47767 1.03604 0
M  V30 33874 H 3167.98 7.5532 -0.320471 0
M  V30 33875 H 3169.25 7.74823 0.852599 0
M  V30 33876 N 3173.48 0.60276 1.45618 0
M  V30 33877 C 3174.43 -0.118903 2.30494 0
M  V30 33878 C 3175.4 -0.864698 1.41817 0
M  V30 33879 O 3176.58 -0.851394 1.70751 0
M  V30 33880 C 3173.72 -1.11351 3.26642 0
M  V30 33881 C 3172.84 -0.369085 4.3042 0
M  V30 33882 C 3171.97 -1.35298 5.13681 0
M  V30 33883 C 3171.01 -0.5961 6.0919 0
M  V30 33884 N 3170.15 -1.52904 6.85248 0
M  V30 33885 H 3174.99 0.610887 2.91671 0
M  V30 33886 H 3172.52 0.313057 1.4373 0
M  V30 33887 H 3174.48 -1.70324 3.80849 0
M  V30 33888 H 3173.11 -1.81077 2.67228 0
M  V30 33889 H 3172.16 0.336061 3.78913 0
M  V30 33890 H 3173.48 0.22169 4.98307 0
M  V30 33891 H 3172.63 -2.01492 5.72264 0
M  V30 33892 H 3171.37 -1.97769 4.45801 0
M  V30 33893 H 3170.37 0.079495 5.49743 0
M  V30 33894 H 3171.6 0.0234928 6.79096 0
M  V30 33895 H 3169.54 -2.14148 6.20062 0
M  V30 33896 H 3169.46 -0.991582 7.49469 0
M  V30 33897 H 3170.73 -2.1807 7.48375 0
M  V30 33898 N 3174.96 -1.53852 0.341647 0
M  V30 33899 C 3176.19 -2.05001 -0.256521 0
M  V30 33900 C 3176.6 -1.21642 -1.44914 0
M  V30 33901 O 3175.94 -0.24417 -1.8207 0
M  V30 33902 C 3176 -3.51863 -0.737047 0
M  V30 33903 C 3175.67 -4.55766 0.335664 0
M  V30 33904 C 3176.66 -5.06385 1.17774 0
M  V30 33905 C 3174.35 -4.99914 0.489046 0
M  V30 33906 C 3176.34 -5.9973 2.15876 0
M  V30 33907 C 3174.03 -5.9307 1.47346 0
M  V30 33908 C 3175.03 -6.42866 2.30677 0
M  V30 33909 O 3174.71 -7.34191 3.27443 0
M  V30 33910 H 3174.45 -0.673866 -0.0536748 0
M  V30 33911 H 3177 -1.99439 0.491265 0
M  V30 33912 H 3175.23 -3.54884 -1.53604 0
M  V30 33913 H 3176.92 -3.85993 -1.25555 0
M  V30 33914 H 3177.69 -4.73042 1.07032 0
M  V30 33915 H 3173.56 -4.60757 -0.149726 0
M  V30 33916 H 3177.11 -6.38521 2.80956 0
M  V30 33917 H 3173.01 -6.25828 1.58145 0
M  V30 33918 H 3173.77 -7.52119 3.22892 0
M  V30 33919 N 3176.44 -0.0702223 -1.57443 0
M  V30 33920 C 3177.85 0.286403 -1.57009 0
M  V30 33921 C 3178.05 1.70145 -1.07949 0
M  V30 33922 O 3177.11 2.4127 -0.744665 0
M  V30 33923 C 3178.42 0.0974937 -3.00542 0
M  V30 33924 C 3179.97 0.16715 -3.12553 0
M  V30 33925 C 3180.44 0.00653997 -4.58 0
M  V30 33926 N 3181.94 0.0621964 -4.63158 0
M  V30 33927 C 3182.67 -0.0376839 -5.73388 0
M  V30 33928 N 3182.17 -0.190995 -6.92537 0
M  V30 33929 N 3183.96 0.0192684 -5.62097 0
M  V30 33930 H 3176.11 -0.995056 -1.8765 0
M  V30 33931 H 3178.37 -0.387917 -0.865 0
M  V30 33932 H 3178.08 -0.878882 -3.40542 0
M  V30 33933 H 3177.95 0.850482 -3.67487 0
M  V30 33934 H 3180.34 1.13401 -2.72441 0
M  V30 33935 H 3180.42 -0.616915 -2.48249 0
M  V30 33936 H 3180.07 -0.95708 -4.98801 0
M  V30 33937 H 3180 0.809989 -5.20333 0
M  V30 33938 H 3182.49 0.179163 -3.77475 0
M  V30 33939 H 3182.8 -0.259396 -7.72365 0
M  V30 33940 H 3181.14 -0.226336 -6.94631 0
M  V30 33941 H 3184.34 0.137732 -4.67897 0
M  V30 33942 H 3184.51 -0.062026 -6.4797 0
M  V30 33943 N 3177.91 1.56283 0.203321 0
M  V30 33944 C 3179.16 1.79336 0.923118 0
M  V30 33945 C 3179.48 0.64201 1.84764 0
M  V30 33946 O 3180.68 0.75663 2.60744 0
M  V30 33947 C 3179.14 3.17658 1.69179 0
M  V30 33948 C 3178.75 4.40571 0.812503 0
M  V30 33949 C 3180.49 3.50026 2.40171 0
M  V30 33950 C 3178.4 5.69915 1.57957 0
M  V30 33951 H 3177.33 0.668665 0.34843 0
M  V30 33952 H 3179.98 1.82649 0.176568 0
M  V30 33953 H 3178.36 3.08572 2.48192 0
M  V30 33954 H 3179.53 4.60759 0.0616146 0
M  V30 33955 H 3177.85 4.15851 0.213817 0
M  V30 33956 H 3180.45 4.43896 2.98095 0
M  V30 33957 H 3180.79 2.73381 3.13956 0
M  V30 33958 H 3181.32 3.60523 1.68132 0
M  V30 33959 H 3178.06 6.49503 0.884653 0
M  V30 33960 H 3177.58 5.53758 2.3046 0
M  V30 33961 H 3179.26 6.10741 2.13552 0
M  V30 33962 N 3179.39 -0.470729 1.50406 0
M  V30 33963 C 3180.62 -1.24605 1.6517 0
M  V30 33964 C 3181.04 -1.85801 0.335186 0
M  V30 33965 O 3180.39 -1.69242 -0.68289 0
M  V30 33966 C 3180.44 -2.3545 2.74309 0
M  V30 33967 O 3180.17 -1.76764 4.00857 0
M  V30 33968 C 3181.67 -3.26321 3.0005 0
M  V30 33969 H 3178.89 -0.376832 0.555192 0
M  V30 33970 H 3181.43 -0.561835 1.96631 0
M  V30 33971 H 3179.59 -2.99647 2.45542 0
M  V30 33972 H 3180 -2.49761 4.61215 0
M  V30 33973 H 3181.47 -4.00307 3.80077 0
M  V30 33974 H 3181.95 -3.85122 2.11134 0
M  V30 33975 H 3182.56 -2.6786 3.3035 0
M  V30 33976 N 3180.87 -1.39989 -0.72393 0
M  V30 33977 C 3181.78 -1.4189 -1.86827 0
M  V30 33978 C 3182.8 -0.312431 -1.71172 0
M  V30 33979 O 3183.97 -0.555685 -1.93582 0
M  V30 33980 C 3181.04 -1.2716 -3.22539 0
M  V30 33981 C 3180.1 -2.47877 -3.50508 0
M  V30 33982 C 3179.33 -2.3384 -4.79744 0
M  V30 33983 O 3179.56 -1.34775 -5.54249 0
M  V30 33984 O 3178.49 -3.23048 -5.07862 0
M  V30 33985 H 3182.32 -2.38375 -1.88179 0
M  V30 33986 H 3179.9 -1.21223 -0.873237 0
M  V30 33987 H 3181.78 -1.21121 -4.03618 0
M  V30 33988 H 3180.46 -0.337771 -3.21933 0
M  V30 33989 H 3179.36 -2.59493 -2.69471 0
M  V30 33990 H 3180.7 -3.39991 -3.55903 0
M  V30 33991 N 3182.35 0.955282 -1.25348 0
M  V30 33992 C 3183.3 2.07316 -1.05464 0
M  V30 33993 C 3184.29 1.69394 0.0142401 0
M  V30 33994 O 3185.5 1.79444 -0.141323 0
M  V30 33995 H 3181.87 0.678571 -0.324107 0
M  V30 33996 H 3183.84 2.21243 -2.00235 0
M  V30 33997 C 3182.59 3.40797 -0.689389 0
M  V30 33998 H 3181.92 3.70445 -1.50368 0
M  V30 33999 H 3183.36 4.19876 -0.589957 0
M  V30 34000 C 3181.81 3.31432 0.604497 0
M  V30 34001 O 3182.34 3.66393 1.6468 0
M  V30 34002 N 3180.55 2.8455 0.589877 0
M  V30 34003 H 3180.1 2.56298 -0.258693 0
M  V30 34004 H 3180.06 2.78667 1.45575 0
M  V30 34005 N 3183.83 1.06924 1.1578 0
M  V30 34006 C 3185.1 0.703032 1.82529 0
M  V30 34007 C 3185.48 -0.81496 1.94735 0
M  V30 34008 O 3184.83 -1.72771 1.4954 0
M  V30 34009 C 3185.04 1.4124 3.19143 0
M  V30 34010 C 3186.39 1.56171 3.94836 0
M  V30 34011 O 3187.41 1.37282 3.28682 0
M  V30 34012 O 3186.27 1.87214 5.13433 0
M  V30 34013 H 3183.37 0.249644 0.788421 0
M  V30 34014 H 3185.91 1.1699 1.22929 0
M  V30 34015 H 3184.69 2.44721 3.05332 0
M  V30 34016 H 3184.31 0.936027 3.86425 0
M  V30 34017 N 3185.31 -1.32538 0.852723 0
M  V30 34018 C 3186.55 -1.96584 0.451394 0
M  V30 34019 C 3186.87 -1.68239 -0.997743 0
M  V30 34020 O 3188.07 -2.26008 -1.50441 0
M  V30 34021 C 3186.53 -3.51865 0.756252 0
M  V30 34022 C 3186.14 -3.89071 2.22099 0
M  V30 34023 C 3187.88 -4.22392 0.422553 0
M  V30 34024 C 3185.79 -5.37388 2.46917 0
M  V30 34025 H 3184.72 -0.73571 0.165065 0
M  V30 34026 H 3187.37 -1.5096 1.04324 0
M  V30 34027 H 3185.75 -3.95889 0.0938683 0
M  V30 34028 H 3186.93 -3.56062 2.925 0
M  V30 34029 H 3185.24 -3.31563 2.51902 0
M  V30 34030 H 3187.84 -5.31486 0.585424 0
M  V30 34031 H 3188.18 -4.11418 -0.635665 0
M  V30 34032 H 3188.71 -3.83944 1.04075 0
M  V30 34033 H 3185.45 -5.5338 3.51356 0
M  V30 34034 H 3184.97 -5.71809 1.81092 0
M  V30 34035 H 3186.65 -6.04446 2.30769 0
M  V30 34036 N 3186.78 -0.610474 -1.45296 0
M  V30 34037 C 3187.72 0.144843 -2.28742 0
M  V30 34038 C 3188.73 0.828953 -1.40115 0
M  V30 34039 O 3189.92 0.693858 -1.64462 0
M  V30 34040 C 3187.02 1.22626 -3.15937 0
M  V30 34041 C 3186.19 0.628709 -4.32858 0
M  V30 34042 C 3185.25 1.6014 -5.0124 0
M  V30 34043 O 3184.28 1.12657 -5.5794 0
M  V30 34044 N 3185.48 2.93581 -5.0079 0
M  V30 34045 H 3188.24 -0.571197 -2.94206 0
M  V30 34046 H 3185.8 -0.450162 -1.55516 0
M  V30 34047 H 3187.8 1.87685 -3.58548 0
M  V30 34048 H 3186.37 1.84479 -2.52361 0
M  V30 34049 H 3185.59 -0.200021 -3.93692 0
M  V30 34050 H 3186.87 0.209756 -5.08367 0
M  V30 34051 H 3186.27 3.34757 -4.5602 0
M  V30 34052 H 3184.83 3.54054 -5.47256 0
M  V30 34053 N 3188.26 1.53669 -0.349801 0
M  V30 34054 C 3189.51 2.00196 0.245826 0
M  V30 34055 C 3189.82 1.24147 1.51152 0
M  V30 34056 O 3191.03 1.61182 2.18478 0
M  V30 34057 C 3189.49 3.56568 0.488602 0
M  V30 34058 C 3189.09 4.4148 -0.761553 0
M  V30 34059 C 3190.84 4.11494 1.04275 0
M  V30 34060 C 3188.74 5.89373 -0.489232 0
M  V30 34061 H 3187.67 0.74791 0.0956362 0
M  V30 34062 H 3190.33 1.77482 -0.466099 0
M  V30 34063 H 3188.71 3.75373 1.26139 0
M  V30 34064 H 3189.88 4.34449 -1.53592 0
M  V30 34065 H 3188.2 3.97578 -1.23778 0
M  V30 34066 H 3190.79 5.19605 1.26155 0
M  V30 34067 H 3191.14 3.65102 2.00016 0
M  V30 34068 H 3191.67 3.96425 0.330513 0
M  V30 34069 H 3188.41 6.40011 -1.41654 0
M  V30 34070 H 3187.93 5.99291 0.246934 0
M  V30 34071 H 3189.61 6.46908 -0.108814 0
M  V30 34072 N 3189.74 0.0785709 1.57404 0
M  V30 34073 C 3190.7 -0.871656 2.11978 0
M  V30 34074 C 3191.7 -1.22188 1.04531 0
M  V30 34075 O 3192.89 -1.15404 1.3049 0
M  V30 34076 C 3190.02 -2.17291 2.62674 0
M  V30 34077 H 3191.22 -0.398063 2.97246 0
M  V30 34078 H 3188.77 -0.170224 1.5537 0
M  V30 34079 H 3189.51 -2.69172 1.80878 0
M  V30 34080 H 3189.29 -1.93165 3.41218 0
M  V30 34081 H 3190.78 -2.85301 3.04948 0
M  V30 34082 N 3191.22 -1.56389 -0.19503 0
M  V30 34083 C 3192.15 -1.97577 -1.24441 0
M  V30 34084 C 3193.13 -0.847743 -1.4747 0
M  V30 34085 O 3194.31 -1.11208 -1.59206 0
M  V30 34086 C 3191.44 -2.31533 -2.58862 0
M  V30 34087 C 3190.4 -3.47075 -2.50445 0
M  V30 34088 C 3189.72 -3.66707 -3.8914 0
M  V30 34089 C 3191.02 -4.81259 -2.02945 0
M  V30 34090 H 3192.72 -2.85486 -0.902128 0
M  V30 34091 H 3190.26 -1.37351 -0.432516 0
M  V30 34092 H 3192.22 -2.58942 -3.32456 0
M  V30 34093 H 3190.94 -1.40507 -2.94831 0
M  V30 34094 H 3189.6 -3.19757 -1.79307 0
M  V30 34095 H 3189.25 -2.73012 -4.22461 0
M  V30 34096 H 3188.95 -4.44436 -3.84383 0
M  V30 34097 H 3190.47 -3.96492 -4.64356 0
M  V30 34098 H 3191.89 -5.07699 -2.66297 0
M  V30 34099 H 3190.28 -5.62458 -2.0919 0
M  V30 34100 H 3191.35 -4.74838 -0.982674 0
M  V30 34101 N 3192.7 0.462746 -1.50653 0
M  V30 34102 C 3193.97 1.22384 -1.52583 0
M  V30 34103 C 3194.35 2.09297 -0.275299 0
M  V30 34104 O 3193.7 2.16155 0.740905 0
M  V30 34105 C 3193.91 2.04768 -2.82615 0
M  V30 34106 C 3195.26 2.62675 -3.33597 0
M  V30 34107 O 3196.28 2.15003 -2.83993 0
M  V30 34108 O 3195.14 3.49556 -4.20087 0
M  V30 34109 H 3192.24 0.555809 -0.612377 0
M  V30 34110 H 3194.78 0.473886 -1.62949 0
M  V30 34111 H 3193.55 1.40775 -3.651 0
M  V30 34112 H 3193.18 2.86881 -2.75291 0
M  V30 34113 N 3194.17 1.40371 0.716495 0
M  V30 34114 C 3195.45 1.29099 1.46945 0
M  V30 34115 C 3195.83 -0.0910811 2.10903 0
M  V30 34116 O 3195.18 -1.10382 2.0007 0
M  V30 34117 C 3195.39 2.42911 2.5059 0
M  V30 34118 C 3196.74 2.83102 3.16446 0
M  V30 34119 O 3197.76 2.42497 2.60909 0
M  V30 34120 O 3196.62 3.53251 4.16984 0
M  V30 34121 H 3193.71 0.506944 0.653404 0
M  V30 34122 H 3196.26 1.52289 0.748747 0
M  V30 34123 H 3195.03 3.35227 2.01837 0
M  V30 34124 H 3194.66 2.21487 3.30196 0
M  V30 34125 N 3195.65 -0.948621 1.25853 0
M  V30 34126 C 3196.62 -2.02779 1.06834 0
M  V30 34127 C 3197.62 -1.60789 0.0191299 0
M  V30 34128 O 3198.81 -1.72221 0.261866 0
M  V30 34129 C 3195.94 -3.35152 0.623377 0
M  V30 34130 H 3197.13 -2.21083 2.02639 0
M  V30 34131 H 3194.68 -1.12655 1.08345 0
M  V30 34132 H 3195.42 -3.22544 -0.336997 0
M  V30 34133 H 3195.2 -3.66979 1.38089 0
M  V30 34134 H 3196.69 -4.1445 0.511927 0
M  V30 34135 N 3197.13 -1.07536 -1.15212 0
M  V30 34136 C 3198.08 -0.697375 -2.20012 0
M  V30 34137 C 3199.05 0.31214 -1.63141 0
M  V30 34138 O 3200.23 0.198163 -1.89768 0
M  V30 34139 C 3197.37 -0.103353 -3.44945 0
M  V30 34140 C 3196.49 -1.16457 -4.16007 0
M  V30 34141 C 3195.62 -0.535353 -5.28495 0
M  V30 34142 C 3194.66 -1.57923 -5.91377 0
M  V30 34143 N 3193.8 -0.972455 -6.95333 0
M  V30 34144 H 3198.64 -1.59542 -2.51695 0
M  V30 34145 H 3196.17 -0.797453 -1.23609 0
M  V30 34146 H 3198.13 0.258693 -4.16397 0
M  V30 34147 H 3196.76 0.758041 -3.13773 0
M  V30 34148 H 3195.81 -1.64417 -3.43033 0
M  V30 34149 H 3197.13 -1.95598 -4.5885 0
M  V30 34150 H 3196.28 -0.121049 -6.06579 0
M  V30 34151 H 3195.02 0.287804 -4.8685 0
M  V30 34152 H 3194.02 -2.00329 -5.12004 0
M  V30 34153 H 3195.25 -2.4047 -6.35099 0
M  V30 34154 H 3193.19 -0.170234 -6.55779 0
M  V30 34155 H 3193.11 -1.70108 -7.36613 0
M  V30 34156 H 3194.38 -0.583714 -7.77311 0
M  V30 34157 N 3198.61 1.32084 -0.85974 0
M  V30 34158 C 3199.86 1.96342 -0.461813 0
M  V30 34159 C 3200.17 1.68766 0.988807 0
M  V30 34160 O 3201.38 2.26803 1.4924 0
M  V30 34161 C 3199.83 3.51459 -0.774902 0
M  V30 34162 C 3199.44 3.87887 -2.24159 0
M  V30 34163 C 3201.18 4.22162 -0.444947 0
M  V30 34164 C 3199.09 5.36071 -2.49763 0
M  V30 34165 H 3198.02 0.734825 -0.168964 0
M  V30 34166 H 3200.67 1.50404 -1.05123 0
M  V30 34167 H 3199.05 3.95833 -0.114862 0
M  V30 34168 H 3200.23 3.54506 -2.94385 0
M  V30 34169 H 3198.54 3.30223 -2.53657 0
M  V30 34170 H 3201.14 5.31168 -0.613602 0
M  V30 34171 H 3201.48 4.1175 0.613838 0
M  V30 34172 H 3202.02 3.83387 -1.06109 0
M  V30 34173 H 3198.76 5.51509 -3.54286 0
M  V30 34174 H 3198.28 5.70841 -1.84122 0
M  V30 34175 H 3199.95 6.03214 -2.33971 0
M  V30 34176 N 3200.09 0.618171 1.4497 0
M  V30 34177 C 3201.03 -0.106805 2.32355 0
M  V30 34178 C 3202.03 -0.848958 1.46591 0
M  V30 34179 O 3203.23 -0.763325 1.63013 0
M  V30 34180 H 3199.61 -0.0532977 0.750109 0
M  V30 34181 H 3201.58 0.648477 2.91268 0
M  V30 34182 C 3200.33 -1.08362 3.30383 0
M  V30 34183 H 3199.65 -0.52198 3.96378 0
M  V30 34184 H 3201.09 -1.56062 3.94234 0
M  V30 34185 C 3199.55 -2.16246 2.5834 0
M  V30 34186 O 3200.08 -3.24143 2.37264 0
M  V30 34187 N 3198.29 -1.91821 2.18296 0
M  V30 34188 H 3197.83 -1.04082 2.35637 0
M  V30 34189 H 3197.79 -2.64207 1.70417 0
M  V30 34190 N 3201.56 -1.53481 0.357946 0
M  V30 34191 C 3202.81 -2.01142 -0.234128 0
M  V30 34192 C 3203.14 -1.24543 -1.49397 0
M  V30 34193 O 3202.39 -0.325145 -1.9298 0
M  V30 34194 C 3202.69 -3.5267 -0.579555 0
M  V30 34195 C 3202.36 -4.47088 0.585067 0
M  V30 34196 C 3201.02 -4.7262 0.904641 0
M  V30 34197 C 3203.37 -5.0299 1.36569 0
M  V30 34198 C 3200.7 -5.51306 2.00694 0
M  V30 34199 C 3203.05 -5.82879 2.45835 0
M  V30 34200 C 3201.72 -6.06701 2.78335 0
M  V30 34201 H 3200.99 -0.736031 -0.0856734 0
M  V30 34202 H 3203.63 -1.85156 0.488833 0
M  V30 34203 H 3201.94 -3.66563 -1.38343 0
M  V30 34204 H 3203.64 -3.87015 -1.04978 0
M  V30 34205 H 3200.23 -4.27359 0.325945 0
M  V30 34206 H 3204.41 -4.83217 1.13204 0
M  V30 34207 H 3199.67 -5.67984 2.26282 0
M  V30 34208 H 3203.84 -6.25205 3.06743 0
M  V30 34209 H 3201.47 -6.67458 3.63874 0
M  V30 34210 N 3203.04 -0.0869173 -1.5736 0
M  V30 34211 C 3203.99 0.892533 -2.14794 0
M  V30 34212 C 3204.98 1.29785 -1.08868 0
M  V30 34213 O 3206.19 1.27333 -1.27225 0
M  V30 34214 H 3202.57 0.305826 -0.687004 0
M  V30 34215 H 3204.54 0.383341 -2.95927 0
M  V30 34216 C 3203.29 2.14503 -2.73649 0
M  V30 34217 H 3202.61 1.84201 -3.54838 0
M  V30 34218 H 3204.05 2.81113 -3.17414 0
M  V30 34219 C 3202.51 2.91363 -1.69143 0
M  V30 34220 O 3203.04 3.85612 -1.12546 0
M  V30 34221 N 3201.24 2.5475 -1.39824 0
M  V30 34222 H 3200.79 1.78178 -1.86038 0
M  V30 34223 H 3200.75 3.06477 -0.70137 0
M  V30 34224 N 3204.52 1.5649 0.186734 0
M  V30 34225 C 3205.43 1.98421 1.25165 0
M  V30 34226 C 3206.45 0.89315 1.49328 0
M  V30 34227 O 3207.62 1.19957 1.61779 0
M  V30 34228 C 3204.69 2.32243 2.57418 0
M  V30 34229 C 3203.75 3.55099 2.41254 0
M  V30 34230 C 3202.98 3.87299 3.67199 0
M  V30 34231 O 3203.2 3.20673 4.71726 0
M  V30 34232 O 3202.14 4.80701 3.62229 0
M  V30 34233 H 3205.96 2.89245 0.925784 0
M  V30 34234 H 3203.55 1.44155 0.392395 0
M  V30 34235 H 3205.43 2.55036 3.35462 0
M  V30 34236 H 3204.11 1.44585 2.89615 0
M  V30 34237 H 3203.01 3.37543 1.61293 0
M  V30 34238 H 3204.35 4.4325 2.13986 0
M  V30 34239 N 3206 -0.45475 1.50897 0
M  V30 34240 C 3206.95 -1.55064 1.7095 0
M  V30 34241 C 3207.92 -1.56697 0.550926 0
M  V30 34242 O 3209.1 -1.73976 0.783382 0
M  V30 34243 C 3206.24 -2.9292 1.8246 0
M  V30 34244 C 3205.35 -3.0095 3.09924 0
M  V30 34245 C 3204.49 -4.29822 3.12132 0
M  V30 34246 C 3203.53 -4.31654 4.33983 0
M  V30 34247 N 3202.66 -5.52023 4.33838 0
M  V30 34248 H 3207.5 -1.37269 2.64502 0
M  V30 34249 H 3205.04 -0.667125 1.31102 0
M  V30 34250 H 3207 -3.72886 1.87115 0
M  V30 34251 H 3205.63 -3.09313 0.923325 0
M  V30 34252 H 3204.68 -2.13756 3.14663 0
M  V30 34253 H 3205.99 -2.98165 3.99874 0
M  V30 34254 H 3205.15 -5.18148 3.15607 0
M  V30 34255 H 3203.89 -4.35239 2.20041 0
M  V30 34256 H 3202.89 -3.41723 4.30703 0
M  V30 34257 H 3204.12 -4.27915 5.27319 0
M  V30 34258 H 3202.06 -5.58195 3.44608 0
M  V30 34259 H 3201.98 -5.51046 5.17576 0
M  V30 34260 H 3203.25 -6.42429 4.41481 0
M  V30 34261 N 3207.48 -1.40749 -0.709041 0
M  V30 34262 C 3208.41 -1.44293 -1.8358 0
M  V30 34263 C 3209.39 -0.303096 -1.67378 0
M  V30 34264 O 3210.57 -0.512645 -1.87311 0
M  V30 34265 C 3207.7 -1.31121 -3.21597 0
M  V30 34266 C 3206.66 -2.42776 -3.52482 0
M  V30 34267 C 3205.98 -2.14677 -4.89712 0
M  V30 34268 C 3207.28 -3.8512 -3.52817 0
M  V30 34269 H 3208.98 -2.38591 -1.80871 0
M  V30 34270 H 3206.52 -1.1484 -0.868775 0
M  V30 34271 H 3208.48 -1.32216 -4.00121 0
M  V30 34272 H 3207.2 -0.333022 -3.24898 0
M  V30 34273 H 3205.86 -2.40942 -2.76301 0
M  V30 34274 H 3205.51 -1.15233 -4.89623 0
M  V30 34275 H 3205.21 -2.89487 -5.11342 0
M  V30 34276 H 3206.73 -2.17465 -5.70562 0
M  V30 34277 H 3208.14 -3.88742 -4.2137 0
M  V30 34278 H 3206.54 -4.59502 -3.85976 0
M  V30 34279 H 3207.61 -4.14235 -2.52066 0
M  V30 34280 N 3208.96 0.941933 -1.26354 0
M  V30 34281 C 3210.18 1.72774 -1.14734 0
M  V30 34282 C 3210.61 1.85792 0.293733 0
M  V30 34283 O 3209.96 1.34761 1.21281 0
M  V30 34284 C 3210.01 3.11274 -1.82046 0
M  V30 34285 O 3209.12 3.97216 -1.10874 0
M  V30 34286 H 3208.46 0.530123 -0.399832 0
M  V30 34287 H 3210.99 1.17978 -1.6716 0
M  V30 34288 H 3211 3.61668 -1.8884 0
M  V30 34289 H 3209.67 3.01115 -2.86884 0
M  V30 34290 H 3208.25 3.55667 -1.12051 0
M  V30 34291 N 3210.43 1.08146 1.1464 0
M  V30 34292 C 3211.37 0.666938 2.19282 0
M  V30 34293 C 3212.38 -0.28464 1.60292 0
M  V30 34294 O 3213.57 -0.0727069 1.78352 0
M  V30 34295 C 3210.67 -0.0397976 3.38877 0
M  V30 34296 C 3209.84 0.930004 4.27399 0
M  V30 34297 C 3208.9 0.259083 5.25562 0
M  V30 34298 O 3207.93 0.902661 5.61997 0
M  V30 34299 N 3209.13 -0.992077 5.7196 0
M  V30 34300 H 3211.89 1.56715 2.55461 0
M  V30 34301 H 3209.45 0.967193 1.29834 0
M  V30 34302 H 3211.45 -0.499513 4.01605 0
M  V30 34303 H 3210.02 -0.842065 3.01045 0
M  V30 34304 H 3209.24 1.56863 3.61646 0
M  V30 34305 H 3210.52 1.58726 4.83408 0
M  V30 34306 H 3209.92 -1.53474 5.44483 0
M  V30 34307 H 3208.48 -1.39533 6.3669 0
M  V30 34308 N 3211.91 -1.31626 0.866732 0
M  V30 34309 C 3212.84 -2.31073 0.335802 0
M  V30 34310 C 3213.82 -1.6021 -0.571569 0
M  V30 34311 O 3215.01 -1.87936 -0.489273 0
M  V30 34312 C 3212.14 -3.44155 -0.466355 0
M  V30 34313 C 3211.09 -4.26586 0.347636 0
M  V30 34314 C 3210.42 -5.31545 -0.580007 0
M  V30 34315 C 3211.72 -4.9783 1.57995 0
M  V30 34316 H 3213.41 -2.75729 1.16678 0
M  V30 34317 H 3210.96 -1.32559 0.562503 0
M  V30 34318 H 3212.91 -4.12774 -0.848287 0
M  V30 34319 H 3211.63 -2.98257 -1.33081 0
M  V30 34320 H 3210.29 -3.5963 0.711473 0
M  V30 34321 H 3209.94 -4.81898 -1.44165 0
M  V30 34322 H 3209.64 -5.87587 -0.0392932 0
M  V30 34323 H 3211.17 -6.03024 -0.958852 0
M  V30 34324 H 3212.58 -5.59064 1.26964 0
M  V30 34325 H 3210.98 -5.63653 2.05949 0
M  V30 34326 H 3212.05 -4.25001 2.33457 0
M  V30 34327 N 3213.39 -0.62585 -1.4464 0
M  V30 34328 C 3214.32 0.120574 -2.28883 0
M  V30 34329 C 3215.33 0.814045 -1.40986 0
M  V30 34330 O 3216.52 0.676375 -1.65189 0
M  V30 34331 C 3213.62 1.19269 -3.17219 0
M  V30 34332 C 3212.8 0.582763 -4.335 0
M  V30 34333 C 3211.86 1.54814 -5.02911 0
M  V30 34334 O 3210.88 1.06733 -5.59103 0
M  V30 34335 N 3212.08 2.88253 -5.03875 0
M  V30 34336 H 3214.85 -0.602369 -2.93584 0
M  V30 34337 H 3212.41 -0.466631 -1.5503 0
M  V30 34338 H 3214.4 1.83871 -3.60518 0
M  V30 34339 H 3212.97 1.81792 -2.54304 0
M  V30 34340 H 3212.19 -0.241766 -3.93458 0
M  V30 34341 H 3213.48 0.155825 -5.08561 0
M  V30 34342 H 3212.88 3.29902 -4.59545 0
M  V30 34343 H 3211.43 3.4823 -5.5098 0
M  V30 34344 N 3214.87 1.53289 -0.36608 0
M  V30 34345 C 3216.1 2.05682 0.224199 0
M  V30 34346 C 3216.51 1.23955 1.4241 0
M  V30 34347 O 3215.87 0.280341 1.80334 0
M  V30 34348 C 3215.92 3.56192 0.617203 0
M  V30 34349 O 3215.64 4.34821 -0.535007 0
M  V30 34350 C 3217.14 4.24843 1.26582 0
M  V30 34351 H 3214.36 0.669849 0.039281 0
M  V30 34352 H 3216.9 1.97657 -0.524594 0
M  V30 34353 H 3215.06 3.64366 1.31591 0
M  V30 34354 H 3215.47 5.2405 -0.217215 0
M  V30 34355 H 3216.95 5.31472 1.49136 0
M  V30 34356 H 3217.42 3.78595 2.22627 0
M  V30 34357 H 3218.03 4.20924 0.608526 0
M  V30 34358 N 3216.35 0.0952613 1.57312 0
M  V30 34359 C 3217.58 -0.575949 1.9841 0
M  V30 34360 C 3217.98 -1.62251 0.973197 0
M  V30 34361 O 3217.33 -1.83644 -0.0454093 0
M  V30 34362 C 3217.39 -1.28161 3.35879 0
M  V30 34363 C 3217.05 -0.385788 4.55369 0
M  V30 34364 C 3218.05 0.366132 5.18609 0
M  V30 34365 C 3215.73 -0.303797 5.0138 0
M  V30 34366 C 3217.73 1.18802 6.26231 0
M  V30 34367 C 3215.42 0.521744 6.08869 0
M  V30 34368 C 3216.41 1.2663 6.71159 0
M  V30 34369 O 3216.1 2.07818 7.76574 0
M  V30 34370 H 3215.83 -0.159057 0.657021 0
M  V30 34371 H 3218.39 0.171273 2.04685 0
M  V30 34372 H 3216.62 -2.07541 3.26288 0
M  V30 34373 H 3218.31 -1.84737 3.61424 0
M  V30 34374 H 3219.07 0.31252 4.83992 0
M  V30 34375 H 3214.95 -0.872985 4.52659 0
M  V30 34376 H 3218.5 1.76967 6.7478 0
M  V30 34377 H 3214.39 0.576835 6.42917 0
M  V30 34378 H 3215.16 2.00502 7.93562 0
M  V30 34379 N 3217.82 -1.56587 -0.178432 0
M  V30 34380 C 3218.76 -1.90948 -1.24956 0
M  V30 34381 C 3219.73 -0.771449 -1.43134 0
M  V30 34382 O 3220.92 -1.02408 -1.58256 0
M  V30 34383 C 3218.05 -2.15421 -2.61364 0
M  V30 34384 C 3217.09 -3.38115 -2.59963 0
M  V30 34385 S 3217.92 -4.92713 -2.09747 0
M  V30 34386 C 3219.08 -5.20273 -3.47946 0
M  V30 34387 H 3219.31 -2.81502 -0.956238 0
M  V30 34388 H 3216.85 -1.49582 -0.382683 0
M  V30 34389 H 3218.8 -2.30203 -3.39878 0
M  V30 34390 H 3217.47 -1.25588 -2.879 0
M  V30 34391 H 3216.66 -3.52417 -3.60303 0
M  V30 34392 H 3216.26 -3.22413 -1.89541 0
M  V30 34393 H 3218.55 -5.11815 -4.43905 0
M  V30 34394 H 3219.5 -6.21938 -3.38525 0
M  V30 34395 H 3219.9 -4.47861 -3.43629 0
M  V30 34396 N 3219.3 0.446741 -1.51136 0
M  V30 34397 C 3220.55 1.19385 -1.62574 0
M  V30 34398 C 3220.86 1.92565 -0.343234 0
M  V30 34399 O 3222.07 2.69402 -0.336851 0
M  V30 34400 C 3220.53 2.17062 -2.87075 0
M  V30 34401 C 3220.13 1.49573 -4.22293 0
M  V30 34402 C 3221.88 2.92264 -3.07867 0
M  V30 34403 C 3219.78 2.4568 -5.37955 0
M  V30 34404 H 3218.71 0.44932 -0.605497 0
M  V30 34405 H 3221.37 0.461815 -1.77594 0
M  V30 34406 H 3219.75 2.93661 -2.65667 0
M  V30 34407 H 3220.92 0.785975 -4.54047 0
M  V30 34408 H 3219.24 0.865606 -4.07304 0
M  V30 34409 H 3221.83 3.6424 -3.91451 0
M  V30 34410 H 3222.18 3.53068 -2.20565 0
M  V30 34411 H 3222.71 2.22774 -3.2957 0
M  V30 34412 H 3219.45 1.8958 -6.27487 0
M  V30 34413 H 3218.97 3.14737 -5.10589 0
M  V30 34414 H 3220.65 3.07007 -5.69522 0
M  V30 34415 N 3220.78 1.41123 0.701567 0
M  V30 34416 C 3221.71 1.38425 1.82678 0
M  V30 34417 C 3222.72 0.28737 1.60244 0
M  V30 34418 O 3223.91 0.548688 1.69858 0
M  V30 34419 C 3221.01 1.13481 3.19336 0
M  V30 34420 C 3220.19 2.35094 3.68849 0
M  V30 34421 C 3219.25 2.06097 4.84159 0
M  V30 34422 O 3218.27 2.79085 4.96085 0
M  V30 34423 N 3219.47 1.04753 5.7097 0
M  V30 34424 H 3222.24 2.35404 1.85486 0
M  V30 34425 H 3219.8 1.35658 0.883658 0
M  V30 34426 H 3221.79 0.920447 3.94094 0
M  V30 34427 H 3220.36 0.251207 3.11589 0
M  V30 34428 H 3219.58 2.72271 2.85065 0
M  V30 34429 H 3220.87 3.16136 3.98667 0
M  V30 34430 H 3220.27 0.443321 5.6396 0
M  V30 34431 H 3218.82 0.893063 6.45653 0
M  V30 34432 N 3222.26 -0.935219 1.26852 0
M  V30 34433 C 3223.5 -1.68209 1.12748 0
M  V30 34434 C 3223.83 -1.91713 -0.328094 0
M  V30 34435 O 3223.09 -1.49995 -1.25698 0
M  V30 34436 C 3223.39 -3.05899 1.84825 0
M  V30 34437 C 3223.05 -3.02131 3.34705 0
M  V30 34438 C 3221.71 -3.00811 3.75588 0
M  V30 34439 C 3224.07 -2.93987 4.30373 0
M  V30 34440 C 3221.39 -2.8912 5.10516 0
M  V30 34441 C 3223.75 -2.83838 5.65348 0
M  V30 34442 C 3222.41 -2.80863 6.05535 0
M  V30 34443 H 3221.68 -0.615519 0.412573 0
M  V30 34444 H 3224.33 -1.09121 1.57368 0
M  V30 34445 H 3222.63 -3.68647 1.32691 0
M  V30 34446 H 3224.33 -3.62548 1.71347 0
M  V30 34447 H 3220.92 -3.03942 3.02187 0
M  V30 34448 H 3225.1 -2.94111 3.99765 0
M  V30 34449 H 3220.36 -2.85198 5.40807 0
M  V30 34450 H 3224.53 -2.76501 6.39156 0
M  V30 34451 H 3222.16 -2.71561 7.10041 0
M  V30 34452 N 3223.74 -1.08752 -1.14065 0
M  V30 34453 C 3225.01 -0.731982 -1.81387 0
M  V30 34454 C 3225.39 0.783876 -1.96007 0
M  V30 34455 O 3224.74 1.7037 -1.5227 0
M  V30 34456 C 3224.95 -1.46299 -3.16856 0
M  V30 34457 C 3226.3 -1.62433 -3.92302 0
M  V30 34458 O 3227.32 -1.42494 -3.26457 0
M  V30 34459 O 3226.18 -1.95359 -5.10389 0
M  V30 34460 H 3223.28 -0.262155 -0.784349 0
M  V30 34461 H 3225.82 -1.18931 -1.21052 0
M  V30 34462 H 3224.59 -2.49547 -3.014 0
M  V30 34463 H 3224.22 -0.997386 -3.84887 0
M  V30 34464 N 3225.21 1.31165 -0.873701 0
M  V30 34465 C 3226.15 2.27365 -0.289429 0
M  V30 34466 C 3227.16 1.53241 0.54964 0
M  V30 34467 O 3228.35 1.74601 0.371025 0
M  V30 34468 C 3225.45 3.33401 0.608011 0
M  V30 34469 C 3224.62 4.36945 -0.199456 0
M  V30 34470 C 3223.68 5.22455 0.626707 0
M  V30 34471 O 3222.71 5.69175 0.0534121 0
M  V30 34472 N 3223.91 5.47195 1.93799 0
M  V30 34473 H 3226.67 2.78141 -1.11615 0
M  V30 34474 H 3224.23 1.44226 -0.735555 0
M  V30 34475 H 3226.23 3.87524 1.16649 0
M  V30 34476 H 3224.8 2.82641 1.3354 0
M  V30 34477 H 3224.02 3.82844 -0.939383 0
M  V30 34478 H 3225.3 5.03191 -0.753379 0
M  V30 34479 H 3224.7 5.11 2.42684 0
M  V30 34480 H 3223.26 6.04238 2.44417 0
M  V30 34481 N 3226.69 0.633512 1.44307 0
M  V30 34482 C 3227.92 0.145888 2.06084 0
M  V30 34483 C 3228.33 -1.18574 1.47434 0
M  V30 34484 O 3227.67 -1.73879 0.592605 0
M  V30 34485 C 3227.74 -0.0407216 3.59477 0
M  V30 34486 C 3227.4 1.21311 4.40605 0
M  V30 34487 C 3228.4 2.13737 4.73933 0
M  V30 34488 C 3226.08 1.4492 4.8094 0
M  V30 34489 C 3228.08 3.28078 5.46483 0
M  V30 34490 C 3225.76 2.59557 5.53239 0
M  V30 34491 C 3226.76 3.50963 5.8593 0
M  V30 34492 O 3226.45 4.63602 6.56756 0
M  V30 34493 H 3226.18 0.0780203 0.671483 0
M  V30 34494 H 3228.73 0.868691 1.86126 0
M  V30 34495 H 3226.96 -0.818695 3.77934 0
M  V30 34496 H 3228.65 -0.483202 4.03014 0
M  V30 34497 H 3229.42 1.96733 4.43307 0
M  V30 34498 H 3225.3 0.746617 4.54914 0
M  V30 34499 H 3228.84 3.99445 5.71917 0
M  V30 34500 H 3224.74 2.76504 5.8328 0
M  V30 34501 H 3225.51 4.62614 6.75226 0
M  V30 34502 N 3228.17 -1.53093 0.374204 0
M  V30 34503 C 3229.42 -2.00562 -0.213946 0
M  V30 34504 C 3229.73 -1.26536 -1.49158 0
M  V30 34505 O 3230.94 -1.64638 -2.15886 0
M  V30 34506 C 3229.39 -3.573 -0.431813 0
M  V30 34507 C 3229 -4.40212 0.831692 0
M  V30 34508 C 3230.75 -4.13101 -0.977149 0
M  V30 34509 C 3228.65 -5.8852 0.582934 0
M  V30 34510 H 3227.58 -0.749337 -0.0837255 0
M  V30 34511 H 3230.23 -1.76718 0.494276 0
M  V30 34512 H 3228.62 -3.77332 -1.20151 0
M  V30 34513 H 3229.79 -4.31951 1.60484 0
M  V30 34514 H 3228.11 -3.95558 1.30087 0
M  V30 34515 H 3230.7 -5.21546 -1.17872 0
M  V30 34516 H 3231.05 -3.68238 -1.94182 0
M  V30 34517 H 3231.58 -3.969 -0.267403 0
M  V30 34518 H 3228.32 -6.37677 1.51818 0
M  V30 34519 H 3227.84 -5.99608 -0.15156 0
M  V30 34520 H 3229.52 -6.46654 0.211718 0
M  V30 34521 N 3229.65 -0.103603 -1.57259 0
M  V30 34522 C 3230.6 0.852257 -2.14488 0
M  V30 34523 C 3231.57 1.27405 -1.0657 0
M  V30 34524 O 3232.75 1.3543 -1.344 0
M  V30 34525 C 3229.89 2.1028 -2.73636 0
M  V30 34526 C 3229 1.73076 -3.95814 0
M  V30 34527 C 3228.14 2.92981 -4.43098 0
M  V30 34528 C 3227.18 2.51944 -5.57845 0
M  V30 34529 N 3226.31 3.6471 -5.99942 0
M  V30 34530 H 3231.15 0.357378 -2.95849 0
M  V30 34531 H 3228.69 0.164722 -1.46175 0
M  V30 34532 H 3230.65 2.83528 -3.06051 0
M  V30 34533 H 3229.28 2.57253 -1.94989 0
M  V30 34534 H 3228.33 0.897623 -3.69658 0
M  V30 34535 H 3229.64 1.38908 -4.79068 0
M  V30 34536 H 3228.8 3.74472 -4.77342 0
M  V30 34537 H 3227.54 3.30365 -3.58762 0
M  V30 34538 H 3226.54 1.68881 -5.2322 0
M  V30 34539 H 3227.77 2.15693 -6.43936 0
M  V30 34540 H 3225.71 4.01798 -5.18551 0
M  V30 34541 H 3225.63 3.34415 -6.78014 0
M  V30 34542 H 3226.9 4.46687 -6.3882 0
M  V30 34543 N 3231.13 1.56679 0.170126 0
M  V30 34544 C 3232.4 1.72937 0.913908 0
M  V30 34545 C 3232.78 0.665328 2.00341 0
M  V30 34546 O 3232.13 -0.319676 2.26253 0
M  V30 34547 C 3232.34 3.16179 1.47755 0
M  V30 34548 C 3233.69 3.77174 1.95001 0
M  V30 34549 O 3234.71 3.19465 1.57546 0
M  V30 34550 O 3233.57 4.78505 2.63998 0
M  V30 34551 H 3230.67 0.706263 0.430257 0
M  V30 34552 H 3233.21 1.68964 0.157861 0
M  V30 34553 H 3231.98 3.85106 0.693452 0
M  V30 34554 H 3231.61 3.24483 2.29775 0
M  V30 34555 N 3232.6 -0.43872 1.5137 0
M  V30 34556 C 3233.83 -1.21534 1.6806 0
M  V30 34557 C 3234.25 -1.84287 0.37682 0
M  V30 34558 O 3233.61 -1.68747 -0.662881 0
M  V30 34559 C 3233.66 -2.27612 2.79688 0
M  V30 34560 O 3232.76 -3.33062 2.43195 0
M  V30 34561 H 3232.11 -0.356134 0.560415 0
M  V30 34562 H 3234.64 -0.518276 1.97927 0
M  V30 34563 H 3234.65 -2.72418 3.03731 0
M  V30 34564 H 3233.32 -1.81315 3.74296 0
M  V30 34565 H 3231.9 -2.93742 2.29718 0
M  V30 34566 N 3234.08 -1.41493 -0.694073 0
M  V30 34567 C 3235.31 -1.44081 -1.48068 0
M  V30 34568 C 3235.72 -0.0449316 -1.89147 0
M  V30 34569 O 3235.06 0.946436 -1.57443 0
M  V30 34570 C 3235.13 -2.28766 -2.7732 0
M  V30 34571 C 3234.79 -3.76908 -2.58436 0
M  V30 34572 C 3235.79 -4.69033 -2.24286 0
M  V30 34573 C 3233.47 -4.20967 -2.7403 0
M  V30 34574 C 3235.47 -6.03204 -2.0597 0
M  V30 34575 C 3233.15 -5.55202 -2.55331 0
M  V30 34576 C 3234.15 -6.46137 -2.21351 0
M  V30 34577 O 3233.84 -7.77895 -2.02816 0
M  V30 34578 H 3233.57 -0.492753 -0.462785 0
M  V30 34579 H 3236.12 -1.8644 -0.861935 0
M  V30 34580 H 3234.35 -1.81223 -3.41607 0
M  V30 34581 H 3236.04 -2.23037 -3.3913 0
M  V30 34582 H 3236.81 -4.36284 -2.11851 0
M  V30 34583 H 3232.69 -3.50491 -2.99461 0
M  V30 34584 H 3236.23 -6.74145 -1.7937 0
M  V30 34585 H 3232.13 -5.8753 -2.67356 0
M  V30 34586 H 3232.9 -7.89054 -2.17567 0
M  V30 34587 N 3235.56 0.928479 -1.27346 0
M  V30 34588 C 3236.84 1.65431 -1.04365 0
M  V30 34589 C 3237.22 2.06842 0.421859 0
M  V30 34590 O 3236.57 1.80206 1.40493 0
M  V30 34591 C 3236.78 2.85695 -2.00447 0
M  V30 34592 C 3238.12 3.57057 -2.29773 0
M  V30 34593 O 3239.15 2.95821 -1.98415 0
M  V30 34594 O 3238.01 4.67382 -2.83225 0
M  V30 34595 H 3235.1 0.725043 -0.397796 0
M  V30 34596 H 3237.65 0.979084 -1.38607 0
M  V30 34597 H 3236.42 2.52079 -2.99285 0
M  V30 34598 H 3236.04 3.60938 -1.66762 0
M  V30 34599 N 3237.04 1.09355 1.13486 0
M  V30 34600 C 3237.97 0.754129 2.20987 0
M  V30 34601 C 3238.95 -0.267871 1.67978 0
M  V30 34602 O 3240.13 -0.136094 1.93723 0
M  V30 34603 C 3237.26 0.173103 3.46868 0
M  V30 34604 C 3236.22 1.12454 4.12963 0
M  V30 34605 C 3235.54 0.405251 5.33162 0
M  V30 34606 C 3236.84 2.46666 4.60384 0
M  V30 34607 H 3238.54 1.65294 2.49636 0
M  V30 34608 H 3236.08 0.796203 1.19986 0
M  V30 34609 H 3238.04 -0.0764247 4.21331 0
M  V30 34610 H 3236.76 -0.7609 3.17613 0
M  V30 34611 H 3235.42 1.35933 3.40467 0
M  V30 34612 H 3235.07 -0.532867 5.0017 0
M  V30 34613 H 3234.77 1.03962 5.7833 0
M  V30 34614 H 3236.29 0.164006 6.1038 0
M  V30 34615 H 3237.71 2.27399 5.26272 0
M  V30 34616 H 3236.1 3.05885 5.16289 0
M  V30 34617 H 3237.17 3.07482 3.74944 0
M  V30 34618 N 3238.52 -1.307 0.880644 0
M  V30 34619 C 3239.47 -2.25803 0.315718 0
M  V30 34620 C 3240.45 -1.51085 -0.553355 0
M  V30 34621 O 3241.64 -1.72456 -0.398487 0
M  V30 34622 C 3238.77 -3.40032 -0.472526 0
M  V30 34623 C 3237.86 -4.2211 0.410392 0
M  V30 34624 N 3238.25 -4.82771 1.50884 0
M  V30 34625 C 3236.55 -4.4553 0.204729 0
M  V30 34626 C 3237.25 -5.44223 2.05418 0
M  V30 34627 N 3236.22 -5.26577 1.34973 0
M  V30 34628 H 3240.03 -2.70249 1.1551 0
M  V30 34629 H 3237.54 -1.4509 0.729573 0
M  V30 34630 H 3239.54 -4.07205 -0.893846 0
M  V30 34631 H 3238.2 -2.97128 -1.3094 0
M  V30 34632 H 3239.21 -4.82115 1.89172 0
M  V30 34633 H 3235.89 -4.13234 -0.595325 0
M  V30 34634 H 3237.28 -6.0238 2.97638 0
M  V30 34635 N 3240 -0.641156 -1.43969 0
M  V30 34636 C 3241.27 -0.0801261 -1.95436 0
M  V30 34637 C 3241.65 1.39675 -1.58284 0
M  V30 34638 O 3241 2.11621 -0.861904 0
M  V30 34639 C 3241.21 -0.313592 -3.47588 0
M  V30 34640 C 3242.56 -0.212109 -4.2407 0
M  V30 34641 O 3243.58 -0.245497 -3.55353 0
M  V30 34642 O 3242.44 -0.125551 -5.46356 0
M  V30 34643 H 3239.54 0.016559 -0.826834 0
M  V30 34644 H 3242.08 -0.713557 -1.53969 0
M  V30 34645 H 3240.85 -1.33799 -3.67714 0
M  V30 34646 H 3240.48 0.353493 -3.96025 0
M  V30 34647 N 3241.47 1.52892 -0.382318 0
M  V30 34648 C 3242.4 2.29166 0.447789 0
M  V30 34649 C 3243.38 1.32269 1.06953 0
M  V30 34650 O 3244.57 1.61156 1.08363 0
M  V30 34651 C 3241.7 3.09332 1.57896 0
M  V30 34652 C 3240.65 4.14055 1.08362 0
M  V30 34653 C 3239.98 4.82403 2.30633 0
M  V30 34654 C 3241.28 5.22065 0.156499 0
M  V30 34655 H 3242.97 2.98805 -0.188593 0
M  V30 34656 H 3240.52 1.43705 -0.0921432 0
M  V30 34657 H 3242.47 3.61445 2.16645 0
M  V30 34658 H 3241.2 2.37413 2.24283 0
M  V30 34659 H 3239.86 3.62912 0.518708 0
M  V30 34660 H 3239.5 4.07039 2.95513 0
M  V30 34661 H 3239.2 5.53181 1.98154 0
M  V30 34662 H 3240.73 5.37318 2.90037 0
M  V30 34663 H 3242.14 5.69581 0.651965 0
M  V30 34664 H 3240.54 6.00049 -0.0782033 0
M  V30 34665 H 3241.61 4.78312 -0.796613 0
M  V30 34666 N 3242.95 0.111941 1.57202 0
M  V30 34667 C 3243.9 -0.84087 2.14937 0
M  V30 34668 C 3244.87 -1.26838 1.07244 0
M  V30 34669 O 3246.05 -1.34715 1.35116 0
M  V30 34670 C 3243.19 -2.08826 2.74747 0
M  V30 34671 C 3242.31 -1.70975 3.96726 0
M  V30 34672 C 3241.44 -2.90627 4.44646 0
M  V30 34673 C 3240.48 -2.48982 5.59173 0
M  V30 34674 N 3239.62 -3.61524 6.01868 0
M  V30 34675 H 3244.46 -0.341683 2.96035 0
M  V30 34676 H 3241.99 -0.156968 1.4626 0
M  V30 34677 H 3243.95 -2.81901 3.07551 0
M  V30 34678 H 3242.58 -2.56215 1.96351 0
M  V30 34679 H 3241.63 -0.878007 3.70129 0
M  V30 34680 H 3242.95 -1.36365 4.79798 0
M  V30 34681 H 3242.1 -3.71936 4.79321 0
M  V30 34682 H 3240.84 -3.28458 3.60509 0
M  V30 34683 H 3239.84 -1.66103 5.24108 0
M  V30 34684 H 3241.07 -2.12275 6.4507 0
M  V30 34685 H 3239.02 -3.99042 5.20674 0
M  V30 34686 H 3238.93 -3.30815 6.79778 0
M  V30 34687 H 3240.2 -4.43293 6.4118 0
M  V30 34688 N 3244.43 -1.56767 -0.161814 0
M  V30 34689 C 3245.68 -1.8172 -0.875246 0
M  V30 34690 C 3245.99 -0.690771 -1.82996 0
M  V30 34691 O 3247.2 -0.825496 -2.58646 0
M  V30 34692 C 3245.65 -3.22032 -1.60697 0
M  V30 34693 C 3245.26 -4.4257 -0.695408 0
M  V30 34694 C 3247.01 -3.56271 -2.30806 0
M  V30 34695 C 3244.91 -5.73903 -1.42791 0
M  V30 34696 H 3243.84 -0.677668 -0.330579 0
M  V30 34697 H 3246.49 -1.83052 -0.12808 0
M  V30 34698 H 3244.88 -3.15044 -2.39923 0
M  V30 34699 H 3246.05 -4.6076 0.0605692 0
M  V30 34700 H 3244.36 -4.16271 -0.103487 0
M  V30 34701 H 3246.96 -4.51643 -2.86221 0
M  V30 34702 H 3247.3 -2.81609 -3.06598 0
M  V30 34703 H 3247.84 -3.64854 -1.58514 0
M  V30 34704 H 3244.58 -6.5162 -0.712138 0
M  V30 34705 H 3244.1 -5.59674 -2.15697 0
M  V30 34706 H 3245.78 -6.16188 -1.97284 0
M  V30 34707 N 3245.91 0.430686 -1.51601 0
M  V30 34708 C 3246.87 1.50579 -1.72797 0
M  V30 34709 C 3247.87 1.4927 -0.597929 0
M  V30 34710 O 3249.06 1.51174 -0.865561 0
M  V30 34711 C 3246.19 2.9009 -1.79054 0
M  V30 34712 H 3247.39 1.33086 -2.68753 0
M  V30 34713 H 3244.94 0.659797 -1.41691 0
M  V30 34714 H 3245.67 3.1298 -0.849364 0
M  V30 34715 H 3245.46 2.92445 -2.61187 0
M  V30 34716 H 3246.95 3.68069 -1.97269 0
M  V30 34717 N 3247.39 1.4186 0.686559 0
M  V30 34718 C 3248.63 1.40996 1.44232 0
M  V30 34719 C 3248.95 0.0255323 1.95583 0
M  V30 34720 O 3250.15 -0.105712 2.71294 0
M  V30 34721 C 3248.61 2.47957 2.60855 0
M  V30 34722 C 3248.22 3.9235 2.16253 0
M  V30 34723 C 3249.96 2.56243 3.38437 0
M  V30 34724 C 3247.87 4.90844 3.29888 0
M  V30 34725 H 3246.8 0.524374 0.541801 0
M  V30 34726 H 3249.45 1.6772 0.744456 0
M  V30 34727 H 3247.83 2.14379 3.32953 0
M  V30 34728 H 3249.01 4.35223 1.51385 0
M  V30 34729 H 3247.32 3.87807 1.51641 0
M  V30 34730 H 3249.92 3.27011 4.23046 0
M  V30 34731 H 3250.26 1.60216 3.84235 0
M  V30 34732 H 3250.79 2.88958 2.73401 0
M  V30 34733 H 3247.53 5.88307 2.89093 0
M  V30 34734 H 3247.05 4.52613 3.93576 0
M  V30 34735 H 3248.73 5.12019 3.95532 0
M  V30 34736 N 3248.86 -0.921712 1.27837 0
M  V30 34737 C 3249.83 -2.00467 1.11111 0
M  V30 34738 C 3250.83 -1.60712 0.0532312 0
M  V30 34739 O 3252.02 -1.71626 0.298338 0
M  V30 34740 C 3249.15 -3.33754 0.694328 0
M  V30 34741 H 3250.34 -2.16735 2.07283 0
M  V30 34742 H 3247.89 -1.10331 1.1071 0
M  V30 34743 H 3248.63 -3.23187 -0.268504 0
M  V30 34744 H 3248.41 -3.63968 1.45842 0
M  V30 34745 H 3249.9 -4.13271 0.599723 0
M  V30 34746 N 3250.34 -1.09956 -1.12905 0
M  V30 34747 C 3251.29 -0.738669 -2.20559 0
M  V30 34748 C 3252.28 0.262915 -1.67347 0
M  V30 34749 O 3253.49 0.123803 -1.79574 0
M  V30 34750 H 3249.86 -0.220914 -0.718819 0
M  V30 34751 H 3251.84 -1.65563 -2.48257 0
M  V30 34752 C 3250.58 -0.1813 -3.47227 0
M  V30 34753 H 3249.91 -0.943213 -3.88515 0
M  V30 34754 H 3251.35 0.0332143 -4.23987 0
M  V30 34755 C 3249.81 1.08479 -3.18957 0
M  V30 34756 O 3250.34 2.16714 -3.38228 0
M  V30 34757 N 3248.54 1.00146 -2.72799 0
M  V30 34758 H 3248.09 0.120599 -2.57318 0
M  V30 34759 H 3248.05 1.84931 -2.5426 0
M  V30 34760 N 3251.82 1.30231 -0.887563 0
M  V30 34761 C 3253.07 1.95318 -0.503356 0
M  V30 34762 C 3253.38 1.70825 0.952787 0
M  V30 34763 O 3254.59 2.29918 1.44396 0
M  V30 34764 C 3253.04 3.49736 -0.849277 0
M  V30 34765 C 3252.65 3.83045 -2.32337 0
M  V30 34766 C 3254.4 4.21123 -0.534394 0
M  V30 34767 C 3252.3 5.30653 -2.61078 0
M  V30 34768 H 3251.23 0.731075 -0.184513 0
M  V30 34769 H 3253.88 1.48141 -1.08289 0
M  V30 34770 H 3252.27 3.95501 -0.198798 0
M  V30 34771 H 3253.44 3.48182 -3.01838 0
M  V30 34772 H 3251.75 3.24768 -2.60605 0
M  V30 34773 H 3254.35 5.29747 -0.726132 0
M  V30 34774 H 3254.69 4.12959 0.526361 0
M  V30 34775 H 3255.23 3.8105 -1.14218 0
M  V30 34776 H 3251.97 5.4387 -3.65904 0
M  V30 34777 H 3251.49 5.66807 -1.96189 0
M  V30 34778 H 3253.17 5.98115 -2.46713 0
M  V30 34779 N 3253.3 0.648782 1.43627 0
M  V30 34780 C 3254.55 0.157728 2.01082 0
M  V30 34781 C 3254.86 -1.23405 1.51758 0
M  V30 34782 O 3256.07 -1.82008 2.01458 0
M  V30 34783 C 3254.52 0.231181 3.59157 0
M  V30 34784 C 3254.13 1.62538 4.17475 0
M  V30 34785 C 3255.87 -0.202499 4.24017 0
M  V30 34786 C 3253.78 1.653 5.67829 0
M  V30 34787 H 3252.71 0.0552029 0.751976 0
M  V30 34788 H 3255.36 0.810168 1.64647 0
M  V30 34789 H 3253.74 -0.488686 3.92973 0
M  V30 34790 H 3254.92 2.37024 3.95166 0
M  V30 34791 H 3253.23 2.00465 3.64969 0
M  V30 34792 H 3255.83 -0.201646 5.3432 0
M  V30 34793 H 3256.17 -1.23312 3.97618 0
M  V30 34794 H 3256.71 0.465467 3.95067 0
M  V30 34795 H 3253.45 2.66257 5.98989 0
M  V30 34796 H 3252.97 0.951321 5.92208 0
M  V30 34797 H 3254.64 1.39476 6.31788 0
M  V30 34798 N 3254.78 -1.52688 0.390421 0
M  V30 34799 C 3256.05 -1.94008 -0.249034 0
M  V30 34800 C 3256.43 -1.32596 -1.64261 0
M  V30 34801 O 3255.78 -0.494488 -2.23085 0
M  V30 34802 C 3255.99 -3.47921 -0.274257 0
M  V30 34803 C 3257.34 -4.21614 -0.502669 0
M  V30 34804 O 3258.36 -3.54432 -0.354418 0
M  V30 34805 O 3257.22 -5.40712 -0.793245 0
M  V30 34806 H 3254.32 -0.812325 -0.155102 0
M  V30 34807 H 3256.86 -1.63761 0.445009 0
M  V30 34808 H 3255.63 -3.84955 0.701834 0
M  V30 34809 H 3255.26 -3.84474 -1.01318 0
M  V30 34810 N 3256.25 -0.120276 -1.5714 0
M  V30 34811 C 3257.16 0.843116 -2.18926 0
M  V30 34812 C 3258.18 1.29173 -1.16577 0
M  V30 34813 O 3259.36 1.35445 -1.49052 0
M  V30 34814 C 3256.42 2.07495 -2.77753 0
M  V30 34815 C 3255.48 1.67813 -3.95142 0
M  V30 34816 C 3254.72 2.85124 -4.51154 0
M  V30 34817 O 3254.94 4.00586 -4.06063 0
M  V30 34818 O 3253.87 2.62135 -5.4182 0
M  V30 34819 H 3257.7 0.347304 -3.01708 0
M  V30 34820 H 3255.28 0.105401 -1.49028 0
M  V30 34821 H 3257.17 2.79637 -3.15248 0
M  V30 34822 H 3255.84 2.5608 -1.98002 0
M  V30 34823 H 3254.75 0.927743 -3.62414 0
M  V30 34824 H 3256.08 1.23969 -4.76332 0
M  V30 34825 N 3257.73 1.56851 0.153498 0
M  V30 34826 C 3258.98 1.82182 0.865596 0
M  V30 34827 C 3259.29 0.700466 1.82628 0
M  V30 34828 O 3260.5 0.839201 2.58205 0
M  V30 34829 C 3258.96 3.22879 1.58987 0
M  V30 34830 C 3258.56 4.42932 0.671928 0
M  V30 34831 C 3260.31 3.5749 2.28914 0
M  V30 34832 C 3258.22 5.74652 1.39745 0
M  V30 34833 H 3257.15 0.679411 0.326981 0
M  V30 34834 H 3259.8 1.83118 0.118371 0
M  V30 34835 H 3258.18 3.16312 2.38249 0
M  V30 34836 H 3259.35 4.60722 -0.0850035 0
M  V30 34837 H 3257.67 4.1632 0.0814094 0
M  V30 34838 H 3260.26 4.53155 2.83822 0
M  V30 34839 H 3260.61 2.83231 3.051 0
M  V30 34840 H 3261.14 3.65689 1.56577 0
M  V30 34841 H 3257.88 6.51989 0.677571 0
M  V30 34842 H 3257.4 5.6081 2.12726 0
M  V30 34843 H 3259.08 6.17226 1.94013 0
M  V30 34844 N 3259.21 -0.42264 1.51827 0
M  V30 34845 C 3260.46 -1.16783 1.64452 0
M  V30 34846 C 3260.77 -1.91995 0.373826 0
M  V30 34847 O 3261.98 -2.68832 0.379668 0
M  V30 34848 C 3260.43 -2.12468 2.90492 0
M  V30 34849 C 3260.04 -1.42836 4.2462 0
M  V30 34850 C 3261.79 -2.87329 3.12477 0
M  V30 34851 C 3259.69 -2.3709 5.41795 0
M  V30 34852 H 3258.62 -0.439631 0.612569 0
M  V30 34853 H 3261.27 -0.433503 1.78306 0
M  V30 34854 H 3259.66 -2.89397 2.70306 0
M  V30 34855 H 3260.83 -0.71364 4.5524 0
M  V30 34856 H 3259.15 -0.800698 4.08629 0
M  V30 34857 H 3261.74 -3.57966 3.97196 0
M  V30 34858 H 3262.09 -3.49514 2.26154 0
M  V30 34859 H 3262.62 -2.17503 3.33072 0
M  V30 34860 H 3259.36 -1.79573 6.30424 0
M  V30 34861 H 3258.88 -3.06574 5.15531 0
M  V30 34862 H 3260.56 -2.97907 5.74335 0
M  V30 34863 N 3260.69 -1.42222 -0.679027 0
M  V30 34864 C 3261.6 -1.47762 -1.82218 0
M  V30 34865 C 3262.61 -0.36673 -1.70091 0
M  V30 34866 O 3263.79 -0.61699 -1.91716 0
M  V30 34867 C 3260.86 -1.37357 -3.1833 0
M  V30 34868 C 3259.92 -2.58902 -3.42444 0
M  V30 34869 C 3259.15 -2.48984 -4.72062 0
M  V30 34870 O 3259.37 -1.5234 -5.49681 0
M  V30 34871 O 3258.31 -3.39042 -4.97327 0
M  V30 34872 H 3262.13 -2.44241 -1.805 0
M  V30 34873 H 3259.72 -1.23939 -0.834229 0
M  V30 34874 H 3261.6 -1.339 -3.99561 0
M  V30 34875 H 3260.27 -0.440021 -3.20695 0
M  V30 34876 H 3259.18 -2.67934 -2.61079 0
M  V30 34877 H 3260.51 -3.51142 -3.44906 0
M  V30 34878 N 3262.17 0.91492 -1.28324 0
M  V30 34879 C 3263.11 2.0172 -1.1215 0
M  V30 34880 C 3264.08 1.66089 -0.0189571 0
M  V30 34881 O 3265.27 1.89914 -0.183672 0
M  V30 34882 C 3262.41 3.3598 -0.788139 0
M  V30 34883 C 3261.52 3.84487 -1.9696 0
M  V30 34884 C 3260.66 5.07252 -1.57697 0
M  V30 34885 C 3259.7 5.48089 -2.72516 0
M  V30 34886 N 3258.83 6.62045 -2.33753 0
M  V30 34887 H 3263.67 2.14887 -2.06465 0
M  V30 34888 H 3261.21 1.05255 -1.02761 0
M  V30 34889 H 3263.17 4.1321 -0.575618 0
M  V30 34890 H 3261.8 3.22584 0.118076 0
M  V30 34891 H 3260.85 3.03425 -2.29429 0
M  V30 34892 H 3262.16 4.10714 -2.83047 0
M  V30 34893 H 3261.32 5.92022 -1.32645 0
M  V30 34894 H 3260.05 4.82832 -0.687376 0
M  V30 34895 H 3259.06 4.61862 -2.98268 0
M  V30 34896 H 3260.28 5.74499 -3.62116 0
M  V30 34897 H 3258.23 6.39257 -1.47261 0
M  V30 34898 H 3258.15 6.87991 -3.13376 0
M  V30 34899 H 3259.42 7.50123 -2.11981 0
M  V30 34900 N 3263.64 1.10553 1.1232 0
M  V30 34901 C 3264.57 0.777525 2.20174 0
M  V30 34902 C 3265.56 -0.25004 1.68252 0
M  V30 34903 O 3266.74 -0.11554 1.93856 0
M  V30 34904 C 3263.87 0.209883 3.46665 0
M  V30 34905 C 3262.82 1.16827 4.11747 0
M  V30 34906 C 3262.15 0.461777 5.32702 0
M  V30 34907 C 3263.45 2.51535 4.57742 0
M  V30 34908 H 3265.14 1.67933 2.47869 0
M  V30 34909 H 3262.69 0.808884 1.19135 0
M  V30 34910 H 3264.64 -0.0317327 4.21388 0
M  V30 34911 H 3263.37 -0.72717 3.18402 0
M  V30 34912 H 3262.03 1.39536 3.39006 0
M  V30 34913 H 3261.67 -0.479787 5.00707 0
M  V30 34914 H 3261.37 1.1009 5.77195 0
M  V30 34915 H 3262.9 0.228736 6.10171 0
M  V30 34916 H 3264.31 2.32968 5.23831 0
M  V30 34917 H 3262.71 3.11344 5.13016 0
M  V30 34918 H 3263.78 3.11442 3.71661 0
M  V30 34919 N 3265.12 -1.29758 0.894457 0
M  V30 34920 C 3266.07 -2.27869 0.366626 0
M  V30 34921 C 3267.04 -1.56786 -0.548397 0
M  V30 34922 O 3268.22 -1.84799 -0.474771 0
M  V30 34923 C 3265.36 -3.42722 -0.404471 0
M  V30 34924 C 3264.48 -4.28601 0.540849 0
M  V30 34925 C 3263.61 -5.30626 -0.246781 0
M  V30 34926 C 3262.65 -6.0816 0.693401 0
M  V30 34927 N 3261.79 -7.02075 -0.0594956 0
M  V30 34928 H 3266.63 -2.724 1.20839 0
M  V30 34929 H 3264.17 -1.33982 0.607229 0
M  V30 34930 H 3266.12 -4.0808 -0.867549 0
M  V30 34931 H 3264.75 -2.99234 -1.21073 0
M  V30 34932 H 3263.81 -3.63463 1.12244 0
M  V30 34933 H 3265.12 -4.82604 1.26074 0
M  V30 34934 H 3264.27 -6.01777 -0.771292 0
M  V30 34935 H 3263.01 -4.77341 -0.999834 0
M  V30 34936 H 3262.02 -5.35877 1.22946 0
M  V30 34937 H 3263.24 -6.63533 1.4457 0
M  V30 34938 H 3261.19 -6.51166 -0.794911 0
M  V30 34939 H 3261.1 -7.53611 0.600583 0
M  V30 34940 H 3262.37 -7.77454 -0.564441 0
M  V30 34941 N 3266.6 -0.65639 -1.4328 0
M  V30 34942 C 3267.83 -0.177281 -2.06641 0
M  V30 34943 C 3268.25 1.14943 -1.48895 0
M  V30 34944 O 3267.61 1.71079 -0.60013 0
M  V30 34945 C 3267.66 -0.103054 -3.60453 0
M  V30 34946 O 3266.76 0.933825 -4.01688 0
M  V30 34947 H 3266.1 -0.0963255 -0.656976 0
M  V30 34948 H 3268.63 -0.90021 -1.83732 0
M  V30 34949 H 3268.64 0.0792193 -4.07923 0
M  V30 34950 H 3267.32 -1.07154 -4.01859 0
M  V30 34951 H 3265.89 0.724083 -3.65802 0
M  V30 34952 N 3268.08 1.52478 -0.398513 0
M  V30 34953 C 3269.01 2.29628 0.423458 0
M  V30 34954 C 3269.99 1.33395 1.05545 0
M  V30 34955 O 3271.18 1.62296 1.06647 0
M  V30 34956 C 3268.31 3.10989 1.54607 0
M  V30 34957 C 3267.26 4.15181 1.03964 0
M  V30 34958 C 3266.59 4.84822 2.25503 0
M  V30 34959 C 3267.89 5.22202 0.101118 0
M  V30 34960 H 3269.58 2.98589 -0.220275 0
M  V30 34961 H 3267.13 1.43599 -0.10738 0
M  V30 34962 H 3269.08 3.63723 2.128 0
M  V30 34963 H 3267.8 2.39778 2.21752 0
M  V30 34964 H 3266.46 3.63442 0.480187 0
M  V30 34965 H 3266.11 4.10151 2.91179 0
M  V30 34966 H 3265.81 5.55251 1.92275 0
M  V30 34967 H 3267.33 5.40364 2.84322 0
M  V30 34968 H 3268.75 5.7024 0.591516 0
M  V30 34969 H 3267.14 5.99932 -0.141842 0
M  V30 34970 H 3268.21 4.7744 -0.8473 0
M  V30 34971 N 3269.56 0.128608 1.57074 0
M  V30 34972 C 3270.83 -0.571129 1.87076 0
M  V30 34973 C 3271.21 -1.84186 1.03145 0
M  V30 34974 O 3270.56 -2.2822 0.113041 0
M  V30 34975 C 3270.77 -0.854324 3.38382 0
M  V30 34976 C 3272.12 -1.20318 4.07196 0
M  V30 34977 O 3273.14 -0.944277 3.43456 0
M  V30 34978 O 3272 -1.68954 5.19728 0
M  V30 34979 H 3269.1 -0.289244 0.774769 0
M  V30 34980 H 3271.64 0.163836 1.68907 0
M  V30 34981 H 3270.42 0.0457612 3.91273 0
M  V30 34982 H 3270.04 -1.64411 3.62015 0
M  V30 34983 N 3271.04 -1.5693 -0.145178 0
M  V30 34984 C 3271.95 -2.0167 -1.19861 0
M  V30 34985 C 3272.96 -0.932428 -1.46907 0
M  V30 34986 O 3274.14 -1.24204 -1.58541 0
M  V30 34987 C 3271.2 -2.38987 -2.5117 0
M  V30 34988 C 3270.26 -3.6137 -2.31754 0
M  V30 34989 C 3269.5 -3.96898 -3.56802 0
M  V30 34990 O 3269.72 -3.33067 -4.63058 0
M  V30 34991 O 3268.65 -4.90136 -3.49357 0
M  V30 34992 H 3272.48 -2.91598 -0.84877 0
M  V30 34993 H 3270.06 -1.45145 -0.354037 0
M  V30 34994 H 3271.95 -2.63841 -3.28582 0
M  V30 34995 H 3270.62 -1.52212 -2.8568 0
M  V30 34996 H 3269.53 -3.41701 -1.52287 0
M  V30 34997 H 3270.86 -4.48768 -2.02159 0
M  V30 34998 N 3272.51 0.414582 -1.52049 0
M  V30 34999 C 3273.46 1.50373 -1.71383 0
M  V30 35000 C 3274.45 1.50552 -0.567719 0
M  V30 35001 O 3275.64 1.5662 -0.824569 0
M  V30 35002 C 3272.77 2.88355 -1.86296 0
M  V30 35003 C 3271.85 2.92845 -3.06762 0
M  V30 35004 N 3272.25 2.6704 -4.29562 0
M  V30 35005 C 3270.54 3.24012 -3.06483 0
M  V30 35006 C 3271.24 2.77959 -5.10993 0
M  V30 35007 N 3270.22 3.10605 -4.46123 0
M  V30 35008 H 3274.02 1.29209 -2.63974 0
M  V30 35009 H 3271.54 0.622218 -1.50007 0
M  V30 35010 H 3273.53 3.66739 -1.98262 0
M  V30 35011 H 3272.19 3.10522 -0.949014 0
M  V30 35012 H 3273.2 2.41537 -4.58127 0
M  V30 35013 H 3269.88 3.51808 -2.24805 0
M  V30 35014 H 3271.27 2.61769 -6.18811 0
M  V30 35015 N 3273.99 1.4258 0.671475 0
M  V30 35016 C 3275.22 1.46418 1.45757 0
M  V30 35017 C 3275.63 0.0750175 1.89051 0
M  V30 35018 O 3274.97 -0.921268 1.58929 0
M  V30 35019 C 3275.03 2.33149 2.73645 0
M  V30 35020 C 3274.7 3.80972 2.52407 0
M  V30 35021 C 3275.7 4.72542 2.16795 0
M  V30 35022 C 3273.38 4.25273 2.67298 0
M  V30 35023 C 3275.37 6.06405 1.96347 0
M  V30 35024 C 3273.06 5.59194 2.46465 0
M  V30 35025 C 3274.06 6.49576 2.11044 0
M  V30 35026 O 3273.75 7.81023 1.90414 0
M  V30 35027 H 3273.48 0.500053 0.454887 0
M  V30 35028 H 3276.03 1.87788 0.832165 0
M  V30 35029 H 3274.26 1.86635 3.3868 0
M  V30 35030 H 3275.95 2.28404 3.35539 0
M  V30 35031 H 3276.72 4.39599 2.04884 0
M  V30 35032 H 3272.6 3.55211 2.93847 0
M  V30 35033 H 3276.14 6.76914 1.68623 0
M  V30 35034 H 3272.04 5.91709 2.57975 0
M  V30 35035 H 3272.81 7.92416 2.04986 0
M  V30 35036 N 3275.47 -0.908102 1.28807 0
M  V30 35037 C 3276.42 -1.99791 1.09852 0
M  V30 35038 C 3277.4 -1.60887 0.0204604 0
M  V30 35039 O 3278.6 -1.75348 0.241235 0
M  V30 35040 C 3275.72 -3.34592 0.768322 0
M  V30 35041 C 3274.81 -3.79881 1.88551 0
M  V30 35042 N 3275.2 -3.97486 3.12791 0
M  V30 35043 C 3273.5 -4.09086 1.77664 0
M  V30 35044 C 3274.2 -4.35511 3.85622 0
M  V30 35045 N 3273.18 -4.44087 3.13509 0
M  V30 35046 H 3276.98 -2.11461 2.04112 0
M  V30 35047 H 3274.49 -1.09634 1.19809 0
M  V30 35048 H 3276.49 -4.1236 0.613593 0
M  V30 35049 H 3275.15 -3.24273 -0.166444 0
M  V30 35050 H 3276.16 -3.83249 3.48339 0
M  V30 35051 H 3272.84 -4.07372 0.914028 0
M  V30 35052 H 3274.23 -4.57048 4.925 0
M  V30 35053 N 3276.95 -1.11147 -1.11732 0
M  V30 35054 C 3278.2 -0.853226 -1.82765 0
M  V30 35055 C 3278.51 0.623135 -1.85409 0
M  V30 35056 O 3279.72 0.997529 -2.52511 0
M  V30 35057 C 3278.17 -1.47664 -3.28213 0
M  V30 35058 C 3277.78 -2.98682 -3.33906 0
M  V30 35059 C 3279.52 -1.2981 -4.04165 0
M  V30 35060 C 3277.43 -3.54022 -4.73733 0
M  V30 35061 H 3276.36 -0.315535 -0.684802 0
M  V30 35062 H 3279.01 -1.33635 -1.25754 0
M  V30 35063 H 3277.39 -0.921184 -3.85137 0
M  V30 35064 H 3278.57 -3.60605 -2.86881 0
M  V30 35065 H 3276.88 -3.15776 -2.71431 0
M  V30 35066 H 3279.48 -1.68591 -5.07426 0
M  V30 35067 H 3279.82 -0.240375 -4.15605 0
M  V30 35068 H 3280.36 -1.82203 -3.5362 0
M  V30 35069 H 3277.09 -4.59493 -4.67489 0
M  V30 35070 H 3276.61 -2.96869 -5.2118 0
M  V30 35071 H 3278.29 -3.52281 -5.42685 0
M  V30 35072 N 3278.43 1.29282 -0.901326 0
M  V30 35073 C 3279.84 1.47987 -0.59766 0
M  V30 35074 C 3280.04 1.82207 0.860402 0
M  V30 35075 O 3279.1 1.91951 1.64046 0
M  V30 35076 C 3280.41 2.59168 -1.52488 0
M  V30 35077 C 3281.96 2.73042 -1.53026 0
M  V30 35078 C 3282.43 3.87353 -2.4438 0
M  V30 35079 N 3283.92 3.94688 -2.42436 0
M  V30 35080 C 3284.66 4.82489 -3.09825 0
M  V30 35081 N 3284.16 5.7497 -3.86499 0
M  V30 35082 N 3285.95 4.75994 -2.98975 0
M  V30 35083 H 3278.1 1.05347 -1.84434 0
M  V30 35084 H 3280.36 0.523459 -0.790376 0
M  V30 35085 H 3280.07 2.40751 -2.56382 0
M  V30 35086 H 3279.94 3.56004 -1.24663 0
M  V30 35087 H 3282.33 2.90855 -0.49876 0
M  V30 35088 H 3282.41 1.76775 -1.84889 0
M  V30 35089 H 3282.05 3.70296 -3.47625 0
M  V30 35090 H 3281.98 4.82992 -2.09825 0
M  V30 35091 H 3284.48 3.28543 -1.8673 0
M  V30 35092 H 3284.79 6.38765 -4.3497 0
M  V30 35093 H 3283.13 5.7485 -3.90606 0
M  V30 35094 H 3286.32 4.02732 -2.38588 0
M  V30 35095 H 3286.5 5.44209 -3.51768 0
M  V30 35096 N 3279.9 0.663979 1.4293 0
M  V30 35097 C 3281.15 0.182043 2.01981 0
M  V30 35098 C 3281.48 -1.20461 1.52325 0
M  V30 35099 O 3280.76 -1.80648 0.720866 0
M  V30 35100 C 3281.04 0.204734 3.59518 0
M  V30 35101 C 3280.89 1.62607 4.19379 0
M  V30 35102 C 3282.21 -0.453003 4.37762 0
M  V30 35103 H 3279.33 0.0676244 0.733891 0
M  V30 35104 H 3281.97 0.84671 1.70091 0
M  V30 35105 H 3280.12 -0.361227 3.86817 0
M  V30 35106 H 3281.8 2.24344 4.03072 0
M  V30 35107 H 3280.04 2.17008 3.7562 0
M  V30 35108 H 3280.71 1.59371 5.28493 0
M  V30 35109 H 3283.19 0.0286505 4.1609 0
M  V30 35110 H 3282.06 -0.406442 5.47393 0
M  V30 35111 H 3282.32 -1.52888 4.14823 0
M  V30 35112 N 3281.38 -1.52265 0.406593 0
M  V30 35113 C 3282.33 -2.28499 -0.434849 0
M  V30 35114 C 3283.32 -1.33088 -1.04804 0
M  V30 35115 O 3284.53 -1.50558 -0.986531 0
M  V30 35116 H 3280.9 -0.734996 -0.15901 0
M  V30 35117 H 3282.88 -2.97517 0.229368 0
M  V30 35118 C 3281.62 -3.11703 -1.54067 0
M  V30 35119 H 3280.95 -3.84988 -1.07817 0
M  V30 35120 H 3282.39 -3.68154 -2.10331 0
M  V30 35121 C 3280.85 -2.25104 -2.50658 0
M  V30 35122 O 3281.38 -1.88958 -3.54483 0
M  V30 35123 N 3279.58 -1.88924 -2.20808 0
M  V30 35124 H 3279.13 -2.18518 -1.36409 0
M  V30 35125 H 3279.09 -1.31275 -2.85682 0
M  V30 35126 N 3282.86 -0.136936 -1.57004 0
M  V30 35127 C 3283.79 0.802863 -2.19263 0
M  V30 35128 C 3284.77 1.26437 -1.13788 0
M  V30 35129 O 3285.96 1.32375 -1.42094 0
M  V30 35130 C 3283.09 2.0461 -2.80628 0
M  V30 35131 C 3282.04 1.72174 -3.91842 0
M  V30 35132 C 3281.37 3.03678 -4.40095 0
M  V30 35133 C 3282.67 0.976159 -5.13097 0
M  V30 35134 H 3284.36 0.284008 -2.9805 0
M  V30 35135 H 3281.91 0.135163 -1.43364 0
M  V30 35136 H 3283.86 2.70829 -3.22846 0
M  V30 35137 H 3282.58 2.58851 -1.99157 0
M  V30 35138 H 3281.24 1.08338 -3.50226 0
M  V30 35139 H 3280.89 3.55889 -3.5546 0
M  V30 35140 H 3280.59 2.82742 -5.15103 0
M  V30 35141 H 3282.11 3.70984 -4.84977 0
M  V30 35142 H 3283.53 1.54023 -5.52223 0
M  V30 35143 H 3281.93 0.86711 -5.93802 0
M  V30 35144 H 3283 -0.033934 -4.84888 0
M  V30 35145 N 3284.34 1.57005 0.136853 0
M  V30 35146 C 3285.58 1.84173 0.848999 0
M  V30 35147 C 3285.92 0.720059 1.80357 0
M  V30 35148 O 3285.19 -0.27555 1.92538 0
M  V30 35149 C 3285.48 3.21874 1.61459 0
M  V30 35150 C 3285.33 4.44618 0.680824 0
M  V30 35151 C 3286.65 3.56919 2.57482 0
M  V30 35152 H 3283.77 0.669925 0.307197 0
M  V30 35153 H 3286.41 1.89659 0.113828 0
M  V30 35154 H 3284.56 3.17329 2.24131 0
M  V30 35155 H 3286.23 4.61255 0.0643284 0
M  V30 35156 H 3284.47 4.33799 -0.00891254 0
M  V30 35157 H 3285.14 5.37596 1.25277 0
M  V30 35158 H 3287.62 3.6214 2.04924 0
M  V30 35159 H 3286.5 4.5428 3.08093 0
M  V30 35160 H 3286.76 2.83403 3.39316 0
M  V30 35161 N 3285.82 -0.406513 1.52267 0
M  V30 35162 C 3286.76 -1.49547 1.75797 0
M  V30 35163 C 3287.73 -1.54865 0.600499 0
M  V30 35164 O 3288.92 -1.71396 0.838335 0
M  V30 35165 C 3286.06 -2.86967 1.91687 0
M  V30 35166 C 3285.17 -2.90938 3.19342 0
M  V30 35167 C 3284.31 -4.19674 3.25649 0
M  V30 35168 C 3283.35 -4.17629 4.47496 0
M  V30 35169 N 3282.48 -5.37941 4.5118 0
M  V30 35170 H 3287.32 -1.28784 2.68735 0
M  V30 35171 H 3284.86 -0.625078 1.33158 0
M  V30 35172 H 3286.82 -3.66744 1.98883 0
M  V30 35173 H 3285.45 -3.06219 1.02126 0
M  V30 35174 H 3284.5 -2.03637 3.21304 0
M  V30 35175 H 3285.81 -2.85292 4.09158 0
M  V30 35176 H 3284.97 -5.07845 3.31931 0
M  V30 35177 H 3283.7 -4.28019 2.33776 0
M  V30 35178 H 3282.71 -3.27848 4.41357 0
M  V30 35179 H 3283.93 -4.10922 5.40666 0
M  V30 35180 H 3281.88 -5.46949 3.62192 0
M  V30 35181 H 3281.8 -5.34301 5.34845 0
M  V30 35182 H 3283.07 -6.28058 4.61696 0
M  V30 35183 N 3287.29 -1.42934 -0.663904 0
M  V30 35184 C 3288.52 -1.47403 -1.45189 0
M  V30 35185 C 3288.94 -0.0886345 -1.88592 0
M  V30 35186 O 3288.29 0.898934 -1.58825 0
M  V30 35187 C 3288.35 -2.41064 -2.69389 0
M  V30 35188 O 3288.07 -3.74214 -2.27805 0
M  V30 35189 C 3289.57 -2.54665 -3.62851 0
M  V30 35190 H 3286.79 -0.500981 -0.446385 0
M  V30 35191 H 3289.33 -1.87565 -0.814843 0
M  V30 35192 H 3287.49 -2.04126 -3.29259 0
M  V30 35193 H 3287.9 -4.24479 -3.08087 0
M  V30 35194 H 3289.37 -3.24299 -4.46693 0
M  V30 35195 H 3289.85 -1.58807 -4.09484 0
M  V30 35196 H 3290.46 -2.9237 -3.08869 0
M  V30 35197 N 3288.77 0.901258 -1.29287 0
M  V30 35198 C 3290.02 1.64624 -1.1654 0
M  V30 35199 C 3290.33 1.93548 0.282589 0
M  V30 35200 O 3291.54 2.6625 0.531349 0
M  V30 35201 C 3290 2.96627 -2.03814 0
M  V30 35202 C 3289.6 2.75305 -3.53428 0
M  V30 35203 C 3291.35 3.74546 -1.99788 0
M  V30 35204 C 3289.26 4.03024 -4.32811 0
M  V30 35205 H 3288.19 0.617574 -0.432572 0
M  V30 35206 H 3290.84 0.999132 -1.53914 0
M  V30 35207 H 3289.22 3.62542 -1.59308 0
M  V30 35208 H 3290.39 2.17992 -4.05975 0
M  V30 35209 H 3288.71 2.10783 -3.59109 0
M  V30 35210 H 3291.3 4.69238 -2.56358 0
M  V30 35211 H 3291.65 4.04661 -0.977501 0
M  V30 35212 H 3292.18 3.1547 -2.4233 0
M  V30 35213 H 3288.92 3.78077 -5.3548 0
M  V30 35214 H 3288.44 4.59902 -3.85033 0
M  V30 35215 H 3290.12 4.71183 -4.43391 0
M  V30 35216 N 3290.25 1.11738 1.11141 0
M  V30 35217 C 3291.2 0.747604 2.15395 0
M  V30 35218 C 3292.18 -0.249866 1.58948 0
M  V30 35219 O 3293.38 -0.0564956 1.7691 0
M  V30 35220 C 3290.51 0.195836 3.42741 0
M  V30 35221 C 3289.59 1.22116 4.06139 0
M  V30 35222 N 3289.98 2.41639 4.44347 0
M  V30 35223 C 3288.28 1.06482 4.33102 0
M  V30 35224 C 3288.98 3.07055 4.94057 0
M  V30 35225 N 3287.96 2.34525 4.90407 0
M  V30 35226 H 3291.76 1.65724 2.42719 0
M  V30 35227 H 3289.27 0.997082 1.28188 0
M  V30 35228 H 3291.27 -0.0872251 4.16809 0
M  V30 35229 H 3289.93 -0.70835 3.16879 0
M  V30 35230 H 3290.94 2.79073 4.36279 0
M  V30 35231 H 3287.62 0.21732 4.16934 0
M  V30 35232 H 3289.01 4.08802 5.33227 0
M  V30 35233 N 3291.73 -1.28802 0.90817 0
M  V30 35234 C 3293.01 -1.90172 0.457595 0
M  V30 35235 C 3293.39 -1.82366 -1.06329 0
M  V30 35236 O 3292.73 -1.25592 -1.9089 0
M  V30 35237 C 3292.94 -3.34909 0.981683 0
M  V30 35238 C 3294.29 -4.11907 1.03044 0
M  V30 35239 O 3295.32 -3.43847 0.929938 0
M  V30 35240 O 3294.17 -5.3355 1.18266 0
M  V30 35241 H 3291.27 -0.81435 0.144095 0
M  V30 35242 H 3293.81 -1.37209 0.998589 0
M  V30 35243 H 3292.59 -3.34787 2.02567 0
M  V30 35244 H 3292.21 -3.95363 0.421191 0
M  V30 35245 N 3293.21 -0.67155 -1.42576 0
M  V30 35246 C 3294.14 -0.00511088 -2.33499 0
M  V30 35247 C 3295.12 0.792736 -1.50498 0
M  V30 35248 O 3296.3 0.750543 -1.7911 0
M  V30 35249 C 3293.43 0.949135 -3.34079 0
M  V30 35250 C 3292.39 0.260111 -4.27209 0
M  V30 35251 C 3291.71 1.32707 -5.1797 0
M  V30 35252 C 3293.01 -0.858863 -5.1519 0
M  V30 35253 H 3294.71 -0.764457 -2.89476 0
M  V30 35254 H 3292.25 -0.369067 -1.3919 0
M  V30 35255 H 3294.21 1.42441 -3.96596 0
M  V30 35256 H 3292.93 1.73986 -2.76399 0
M  V30 35257 H 3291.59 -0.194898 -3.66082 0
M  V30 35258 H 3291.24 2.1097 -4.56619 0
M  V30 35259 H 3290.94 0.871191 -5.81106 0
M  V30 35260 H 3292.46 1.80334 -5.83363 0
M  V30 35261 H 3293.87 -0.464944 -5.71412 0
M  V30 35262 H 3292.27 -1.24034 -5.87142 0
M  V30 35263 H 3293.34 -1.70903 -4.53784 0
M  V30 35264 N 3294.68 1.52047 -0.414663 0
M  V30 35265 C 3295.63 2.23993 0.42557 0
M  V30 35266 C 3296.62 1.25338 1.00892 0
M  V30 35267 O 3297.81 1.50548 0.930816 0
M  V30 35268 C 3294.94 3.06887 1.53868 0
M  V30 35269 C 3294.03 4.12956 0.96584 0
M  V30 35270 N 3294.42 5.05657 0.120141 0
M  V30 35271 C 3292.71 4.28538 1.23578 0
M  V30 35272 C 3293.42 5.81359 -0.199165 0
M  V30 35273 N 3292.39 5.42041 0.41141 0
M  V30 35274 H 3296.19 2.93024 -0.226798 0
M  V30 35275 H 3293.71 1.60828 -0.225404 0
M  V30 35276 H 3295.7 3.56987 2.15328 0
M  V30 35277 H 3294.36 2.39396 2.19362 0
M  V30 35278 H 3295.38 5.17322 -0.244592 0
M  V30 35279 H 3292.05 3.72276 1.88989 0
M  V30 35280 H 3293.44 6.66033 -0.885967 0
M  V30 35281 N 3296.16 0.145261 1.56929 0
M  V30 35282 C 3297.09 -0.791224 2.19686 0
M  V30 35283 C 3298.07 -1.25831 1.14457 0
M  V30 35284 O 3299.26 -1.31619 1.42794 0
M  V30 35285 C 3296.39 -2.03119 2.81709 0
M  V30 35286 C 3295.34 -1.70094 3.92749 0
M  V30 35287 C 3294.67 -3.0134 4.417 0
M  V30 35288 C 3295.97 -0.948935 5.13607 0
M  V30 35289 H 3297.66 -0.268197 2.98196 0
M  V30 35290 H 3295.21 -0.127558 1.43434 0
M  V30 35291 H 3297.16 -2.69113 3.24278 0
M  V30 35292 H 3295.89 -2.57791 2.00527 0
M  V30 35293 H 3294.54 -1.06479 3.50796 0
M  V30 35294 H 3294.19 -3.53999 3.57342 0
M  V30 35295 H 3293.89 -2.80006 5.16595 0
M  V30 35296 H 3295.42 -3.68407 4.86938 0
M  V30 35297 H 3296.83 -1.51092 5.53032 0
M  V30 35298 H 3295.23 -0.835607 5.94254 0
M  V30 35299 H 3296.3 0.0596483 4.84863 0
M  V30 35300 N 3297.64 -1.57075 -0.128525 0
M  V30 35301 C 3298.89 -1.84348 -0.837978 0
M  V30 35302 C 3299.22 -0.728937 -1.80324 0
M  V30 35303 O 3298.47 0.280537 -1.93679 0
M  V30 35304 C 3298.77 -3.18055 -1.63021 0
M  V30 35305 C 3298.44 -4.43563 -0.810093 0
M  V30 35306 C 3297.1 -4.77644 -0.5839 0
M  V30 35307 C 3299.45 -5.20657 -0.237805 0
M  V30 35308 C 3296.78 -5.86268 0.22499 0
M  V30 35309 C 3299.13 -6.30132 0.558224 0
M  V30 35310 C 3297.79 -6.62751 0.794823 0
M  V30 35311 H 3297.06 -0.674577 -0.306638 0
M  V30 35312 H 3299.71 -1.91235 -0.100763 0
M  V30 35313 H 3298.02 -3.06701 -2.43806 0
M  V30 35314 H 3299.71 -3.36376 -2.18294 0
M  V30 35315 H 3296.3 -4.16855 -0.996474 0
M  V30 35316 H 3300.49 -4.94687 -0.399794 0
M  V30 35317 H 3295.74 -6.09972 0.417614 0
M  V30 35318 H 3299.92 -6.89056 1.00871 0
M  V30 35319 H 3297.54 -7.46754 1.42344 0
M  V30 35320 N 3299.12 0.398432 -1.5248 0
M  V30 35321 C 3300.37 1.14152 -1.66289 0
M  V30 35322 C 3300.68 1.91376 -0.404323 0
M  V30 35323 O 3301.89 2.68194 -0.422389 0
M  V30 35324 C 3300.34 2.0782 -2.93835 0
M  V30 35325 C 3299.95 1.36063 -4.26838 0
M  V30 35326 C 3301.7 2.82322 -3.17009 0
M  V30 35327 C 3299.6 2.28441 -5.45499 0
M  V30 35328 H 3298.53 0.42983 -0.619486 0
M  V30 35329 H 3301.18 0.405081 -1.78973 0
M  V30 35330 H 3299.57 2.85061 -2.74875 0
M  V30 35331 H 3300.74 0.641125 -4.56318 0
M  V30 35332 H 3299.05 0.735587 -4.09851 0
M  V30 35333 H 3301.65 3.51602 -4.02841 0
M  V30 35334 H 3301.99 3.45872 -2.31686 0
M  V30 35335 H 3302.53 2.12177 -3.36491 0
M  V30 35336 H 3299.27 1.69521 -6.33201 0
M  V30 35337 H 3298.79 2.98334 -5.20343 0
M  V30 35338 H 3300.47 2.88733 -5.79001 0
M  V30 35339 N 3300.6 1.43284 0.656314 0
M  V30 35340 C 3301.51 1.50642 1.79844 0
M  V30 35341 C 3302.52 0.393744 1.69486 0
M  V30 35342 O 3303.7 0.647413 1.90711 0
M  V30 35343 C 3300.76 1.42404 3.16104 0
M  V30 35344 C 3299.83 2.64318 3.38282 0
M  V30 35345 C 3299.06 2.56463 4.68041 0
M  V30 35346 O 3299.28 1.61066 5.47187 0
M  V30 35347 O 3298.22 3.46911 4.9187 0
M  V30 35348 H 3302.04 2.47081 1.76591 0
M  V30 35349 H 3299.63 1.25251 0.814406 0
M  V30 35350 H 3301.51 1.4024 3.9738 0
M  V30 35351 H 3300.18 0.490985 3.19955 0
M  V30 35352 H 3299.09 2.72054 2.56783 0
M  V30 35353 H 3300.42 3.56585 3.39276 0
M  V30 35354 N 3302.08 -0.894389 1.29763 0
M  V30 35355 C 3303.02 -2.02048 1.15236 0
M  V30 35356 C 3304.02 -1.69269 0.0665962 0
M  V30 35357 O 3305.22 -1.78566 0.226777 0
M  V30 35358 H 3301.6 -0.662335 0.356114 0
M  V30 35359 H 3303.57 -2.11438 2.10562 0
M  V30 35360 C 3302.32 -3.3712 0.851202 0
M  V30 35361 H 3301.64 -3.62849 1.67872 0
M  V30 35362 H 3303.08 -4.16583 0.789613 0
M  V30 35363 C 3301.54 -3.33939 -0.445678 0
M  V30 35364 O 3302.07 -3.73832 -1.47011 0
M  V30 35365 N 3300.28 -2.87041 -0.453443 0
M  V30 35366 H 3299.82 -2.54772 0.380681 0
M  V30 35367 H 3299.78 -2.85295 -1.32114 0
M  V30 35368 N 3303.55 -1.12326 -1.10547 0
M  V30 35369 C 3304.8 -0.872563 -1.81849 0
M  V30 35370 C 3305.12 0.603435 -1.86059 0
M  V30 35371 O 3306.32 0.970691 -2.53554 0
M  V30 35372 C 3304.78 -1.51136 -3.26628 0
M  V30 35373 C 3304.39 -3.02206 -3.30719 0
M  V30 35374 C 3306.13 -1.34089 -4.02766 0
M  V30 35375 C 3304.04 -3.59026 -4.69951 0
M  V30 35376 H 3302.97 -0.322781 -0.681417 0
M  V30 35377 H 3305.62 -1.34961 -1.24329 0
M  V30 35378 H 3304 -0.961981 -3.84138 0
M  V30 35379 H 3305.17 -3.63628 -2.8304 0
M  V30 35380 H 3303.49 -3.18637 -2.68066 0
M  V30 35381 H 3306.09 -1.73963 -5.05609 0
M  V30 35382 H 3306.43 -0.284442 -4.15327 0
M  V30 35383 H 3306.96 -1.85943 -3.51668 0
M  V30 35384 H 3303.7 -4.64426 -4.62589 0
M  V30 35385 H 3303.22 -3.0238 -5.18002 0
M  V30 35386 H 3304.9 -3.58017 -5.38918 0
M  V30 35387 N 3305.03 1.28319 -0.914988 0
M  V30 35388 C 3306.31 1.89927 -0.467674 0
M  V30 35389 C 3306.69 1.82927 1.05361 0
M  V30 35390 O 3306.04 1.26602 1.90221 0
M  V30 35391 C 3306.25 3.34384 -0.99943 0
M  V30 35392 C 3307.59 4.11354 -1.05227 0
M  V30 35393 O 3308.62 3.43349 -0.94816 0
M  V30 35394 O 3307.48 5.32915 -1.21094 0
M  V30 35395 H 3304.57 0.813574 -0.148412 0
M  V30 35396 H 3307.12 1.36677 -1.00585 0
M  V30 35397 H 3305.89 3.33708 -2.04339 0
M  V30 35398 H 3305.51 3.95134 -0.442152 0
M  V30 35399 N 3306.51 0.679102 1.42218 0
M  V30 35400 C 3307.76 0.203154 2.01478 0
M  V30 35401 C 3308.08 -1.19176 1.53712 0
M  V30 35402 O 3307.34 -1.815 0.731864 0
M  V30 35403 C 3307.64 0.19109 3.56889 0
M  V30 35404 C 3307.3 1.53126 4.24103 0
M  V30 35405 C 3305.97 1.89819 4.42179 0
M  V30 35406 C 3308.32 2.41369 4.61942 0
M  V30 35407 C 3305.65 3.14372 4.95365 0
M  V30 35408 C 3308 3.65238 5.16511 0
M  V30 35409 C 3306.66 4.02095 5.328 0
M  V30 35410 H 3305.93 0.0743394 0.737262 0
M  V30 35411 H 3308.58 0.874938 1.70344 0
M  V30 35412 H 3306.88 -0.564214 3.87716 0
M  V30 35413 H 3308.58 -0.19444 4.00528 0
M  V30 35414 H 3305.17 1.23582 4.10397 0
M  V30 35415 H 3309.36 2.14304 4.47646 0
M  V30 35416 H 3304.61 3.42944 5.06161 0
M  V30 35417 H 3308.79 4.33814 5.44774 0
M  V30 35418 H 3306.41 4.98683 5.73777 0
M  V30 35419 N 3307.99 -1.51825 0.42272 0
M  V30 35420 C 3308.94 -2.28947 -0.41059 0
M  V30 35421 C 3309.93 -1.34192 -1.03386 0
M  V30 35422 O 3311.14 -1.51595 -0.970506 0
M  V30 35423 H 3307.51 -0.736642 -0.151206 0
M  V30 35424 H 3309.48 -2.97257 0.260911 0
M  V30 35425 C 3308.23 -3.13319 -1.50753 0
M  V30 35426 H 3307.55 -3.8611 -1.03728 0
M  V30 35427 H 3308.99 -3.70364 -2.06414 0
M  V30 35428 C 3307.45 -2.2775 -2.48257 0
M  V30 35429 O 3307.98 -1.92707 -3.52459 0
M  V30 35430 N 3306.19 -1.91255 -2.18792 0
M  V30 35431 H 3305.74 -2.19953 -1.34084 0
M  V30 35432 H 3305.69 -1.34298 -2.84274 0
M  V30 35433 N 3309.47 -0.153581 -1.5685 0
M  V30 35434 C 3310.41 0.783588 -2.17091 0
M  V30 35435 C 3311.38 1.2395 -1.10569 0
M  V30 35436 O 3312.57 1.31086 -1.38641 0
M  V30 35437 C 3309.71 2.01468 -2.80187 0
M  V30 35438 C 3308.82 1.60396 -4.0112 0
M  V30 35439 C 3307.96 2.78735 -4.52195 0
M  V30 35440 C 3306.99 2.34069 -5.65578 0
M  V30 35441 N 3306.13 3.45439 -6.11242 0
M  V30 35442 H 3310.97 0.263075 -2.96837 0
M  V30 35443 H 3308.51 0.118134 -1.46625 0
M  V30 35444 H 3310.47 2.73648 -3.14917 0
M  V30 35445 H 3309.1 2.50919 -2.03075 0
M  V30 35446 H 3308.15 0.779565 -3.72326 0
M  V30 35447 H 3309.46 1.23596 -4.83245 0
M  V30 35448 H 3308.61 3.59097 -4.89014 0
M  V30 35449 H 3307.35 3.18784 -3.69091 0
M  V30 35450 H 3306.36 1.52149 -5.28328 0
M  V30 35451 H 3307.58 1.95098 -6.50472 0
M  V30 35452 H 3305.53 3.85097 -5.31071 0
M  V30 35453 H 3305.45 3.12675 -6.8831 0
M  V30 35454 H 3306.71 4.26138 -6.52707 0
M  V30 35455 N 3310.94 1.57141 0.120193 0
M  V30 35456 C 3312.17 1.89346 0.846337 0
M  V30 35457 C 3312.59 0.745395 1.72701 0
M  V30 35458 O 3311.95 -0.304123 1.78731 0
M  V30 35459 C 3312 3.20292 1.65666 0
M  V30 35460 O 3311.1 3.06114 2.76348 0
M  V30 35461 H 3310.44 0.621356 0.234121 0
M  V30 35462 H 3312.97 2.04341 0.10295 0
M  V30 35463 H 3312.98 3.52983 2.04615 0
M  V30 35464 H 3311.66 4.03446 1.01016 0
M  V30 35465 H 3310.24 2.84888 2.4061 0
M  V30 35466 N 3312.42 -0.39034 1.5269 0
M  V30 35467 C 3313.67 -1.13326 1.67337 0
M  V30 35468 C 3313.99 -1.90531 0.415101 0
M  V30 35469 O 3313.26 -1.8741 -0.570471 0
M  V30 35470 H 3311.84 -0.421346 0.616828 0
M  V30 35471 H 3314.5 -0.442967 1.89799 0
M  V30 35472 H 3313.6 -1.83691 2.52317 0
M  V30 35473 N 3313.9 -1.4363 -0.648706 0
M  V30 35474 C 3315.13 -1.49151 -1.44114 0
M  V30 35475 C 3315.55 -0.111985 -1.87766 0
M  V30 35476 O 3314.91 0.895221 -1.57656 0
M  V30 35477 C 3314.96 -2.44628 -2.64933 0
M  V30 35478 O 3314.06 -1.93566 -3.64151 0
M  V30 35479 H 3313.4 -0.504319 -0.431924 0
M  V30 35480 H 3315.93 -1.8859 -0.793406 0
M  V30 35481 H 3315.94 -2.62082 -3.12693 0
M  V30 35482 H 3314.62 -3.4484 -2.32504 0
M  V30 35483 H 3313.19 -1.85794 -3.23318 0
M  V30 35484 N 3315.38 0.887495 -1.30236 0
M  V30 35485 C 3316.6 1.67753 -1.21958 0
M  V30 35486 C 3317.03 1.86871 0.214668 0
M  V30 35487 O 3316.39 1.39784 1.15456 0
M  V30 35488 C 3316.43 3.03273 -1.95085 0
M  V30 35489 O 3315.54 3.92156 -1.27622 0
M  V30 35490 H 3314.88 0.512687 -0.421957 0
M  V30 35491 H 3317.41 1.10782 -1.72013 0
M  V30 35492 H 3317.42 3.53333 -2.0401 0
M  V30 35493 H 3316.09 2.88676 -2.99397 0
M  V30 35494 H 3314.67 3.50595 -1.27035 0
M  V30 35495 N 3316.86 1.12911 1.0995 0
M  V30 35496 C 3318.08 0.910516 1.85788 0
M  V30 35497 C 3318.5 -0.540452 1.80899 0
M  V30 35498 O 3317.86 -1.37387 1.20129 0
M  V30 35499 C 3317.91 1.38335 3.33985 0
M  V30 35500 O 3317.63 2.77745 3.38806 0
M  V30 35501 C 3319.13 1.20241 4.26681 0
M  V30 35502 H 3316.35 0.325036 0.58702 0
M  V30 35503 H 3318.89 1.50032 1.38963 0
M  V30 35504 H 3317.05 0.836658 3.78258 0
M  V30 35505 H 3317.46 2.9861 4.31199 0
M  V30 35506 H 3318.94 1.58207 5.28843 0
M  V30 35507 H 3319.41 0.143517 4.38965 0
M  V30 35508 H 3320.02 1.73686 3.88218 0
M  V30 35509 N 3318.33 -1.27832 0.92178 0
M  V30 35510 C 3319.3 -2.253 0.421017 0
M  V30 35511 C 3320.3 -1.54165 -0.457131 0
M  V30 35512 O 3321.49 -1.72263 -0.259048 0
M  V30 35513 C 3318.62 -3.38599 -0.395441 0
M  V30 35514 H 3319.81 -2.71112 1.28211 0
M  V30 35515 H 3317.37 -1.39652 0.701917 0
M  V30 35516 H 3318.1 -2.98159 -1.2756 0
M  V30 35517 H 3317.89 -3.91401 0.234097 0
M  V30 35518 H 3319.38 -4.11056 -0.736371 0
M  V30 35519 N 3319.81 -0.686634 -1.41856 0
M  V30 35520 C 3321.04 -0.221073 -2.06218 0
M  V30 35521 C 3321.46 1.11759 -1.51299 0
M  V30 35522 O 3320.82 1.69768 -0.636283 0
M  V30 35523 C 3320.87 -0.179488 -3.60153 0
M  V30 35524 O 3319.97 0.848411 -4.03579 0
M  V30 35525 H 3319.31 -0.110239 -0.654785 0
M  V30 35526 H 3321.84 -0.93898 -1.81781 0
M  V30 35527 H 3321.85 -0.00732504 -4.07999 0
M  V30 35528 H 3320.53 -1.15654 -3.99496 0
M  V30 35529 H 3319.11 0.646328 -3.67256 0
M  V30 35530 N 3321.29 1.51599 -0.430766 0
M  V30 35531 C 3322.54 2.02982 0.130388 0
M  V30 35532 C 3322.89 1.30957 1.40954 0
M  V30 35533 O 3322.18 0.413729 1.8708 0
M  V30 35534 C 3322.38 3.55033 0.410631 0
M  V30 35535 C 3322.21 4.41789 -0.839809 0
M  V30 35536 C 3320.98 4.86334 -1.37141 0
M  V30 35537 C 3323.18 4.8454 -1.7241 0
M  V30 35538 N 3321.16 5.57282 -2.57507 0
M  V30 35539 C 3322.53 5.54488 -2.77386 0
M  V30 35540 C 3324.58 4.66533 -1.73929 0
M  V30 35541 C 3323.29 6.08339 -3.83819 0
M  V30 35542 C 3325.31 5.21295 -2.79294 0
M  V30 35543 C 3324.67 5.91184 -3.8299 0
M  V30 35544 H 3320.77 0.781951 0.00871781 0
M  V30 35545 H 3323.36 1.85547 -0.589964 0
M  V30 35546 H 3321.53 3.72497 1.10002 0
M  V30 35547 H 3323.26 3.93086 0.962566 0
M  V30 35548 H 3320.02 4.64453 -0.92628 0
M  V30 35549 H 3320.44 5.97387 -3.18525 0
M  V30 35550 H 3325.08 4.11968 -0.950924 0
M  V30 35551 H 3322.8 6.61963 -4.63498 0
M  V30 35552 H 3326.39 5.09218 -2.81404 0
M  V30 35553 H 3325.27 6.32799 -4.6318 0
M  V30 35554 N 3322.77 0.161897 1.56766 0
M  V30 35555 C 3324.02 -0.485502 1.9577 0
M  V30 35556 C 3324.33 -1.65023 1.05009 0
M  V30 35557 O 3325.54 -2.36324 1.33653 0
M  V30 35558 C 3323.99 -0.915115 3.48071 0
M  V30 35559 C 3323.6 0.223495 4.47442 0
M  V30 35560 C 3325.34 -1.53146 3.95912 0
M  V30 35561 C 3323.25 -0.225222 5.90971 0
M  V30 35562 H 3322.18 -0.185148 0.730915 0
M  V30 35563 H 3324.83 0.248624 1.81808 0
M  V30 35564 H 3323.21 -1.70494 3.57418 0
M  V30 35565 H 3324.39 1.00069 4.49803 0
M  V30 35566 H 3322.7 0.749199 4.09605 0
M  V30 35567 H 3325.3 -1.87907 5.00595 0
M  V30 35568 H 3325.64 -2.42593 3.38311 0
M  V30 35569 H 3326.18 -0.806253 3.89544 0
M  V30 35570 H 3322.92 0.634238 6.52424 0
M  V30 35571 H 3322.44 -0.967976 5.91938 0
M  V30 35572 H 3324.11 -0.67226 6.43498 0
M  V30 35573 N 3324.25 -1.57203 -0.111858 0
M  V30 35574 C 3325.18 -1.97519 -1.16271 0
M  V30 35575 C 3326.19 -0.87545 -1.37258 0
M  V30 35576 O 3327.38 -1.15369 -1.36206 0
M  V30 35577 C 3324.48 -2.26446 -2.52141 0
M  V30 35578 C 3323.65 -3.57752 -2.51659 0
M  V30 35579 C 3322.71 -3.74809 -3.6933 0
M  V30 35580 O 3321.74 -4.46845 -3.52588 0
M  V30 35581 N 3322.94 -3.14116 -4.88171 0
M  V30 35582 H 3325.71 -2.88273 -0.819696 0
M  V30 35583 H 3323.27 -1.59076 -0.301048 0
M  V30 35584 H 3325.26 -2.35066 -3.29433 0
M  V30 35585 H 3323.83 -1.41784 -2.78596 0
M  V30 35586 H 3323.05 -3.60255 -1.60032 0
M  V30 35587 H 3324.34 -4.44044 -2.484 0
M  V30 35588 H 3323.73 -2.55573 -5.04677 0
M  V30 35589 H 3322.29 -3.28246 -5.63114 0
M  V30 35590 N 3325.72 0.382237 -1.52894 0
M  V30 35591 C 3326.67 1.48771 -1.78801 0
M  V30 35592 C 3327.67 1.56171 -0.656267 0
M  V30 35593 O 3328.87 1.59257 -0.838884 0
M  V30 35594 H 3325.25 0.49528 -0.565864 0
M  V30 35595 H 3327.22 1.24117 -2.71362 0
M  V30 35596 C 3325.97 2.85822 -1.97992 0
M  V30 35597 H 3325.29 2.80881 -2.8451 0
M  V30 35598 H 3326.73 3.62394 -2.20105 0
M  V30 35599 C 3325.19 3.28347 -0.754328 0
M  V30 35600 O 3325.72 4.01647 0.0650043 0
M  V30 35601 N 3323.93 2.84702 -0.582507 0
M  V30 35602 H 3323.47 2.25218 -1.25038 0
M  V30 35603 H 3323.43 3.13512 0.236153 0
M  V30 35604 N 3327.2 1.43972 0.64108 0
M  V30 35605 C 3328.45 1.46448 1.40289 0
M  V30 35606 C 3328.78 0.0929345 1.93978 0
M  V30 35607 O 3328.06 -0.888012 1.73045 0
M  V30 35608 C 3328.34 2.51678 2.57547 0
M  V30 35609 C 3328.19 3.98152 2.09272 0
M  V30 35610 C 3329.51 2.53514 3.59748 0
M  V30 35611 H 3326.63 0.533227 0.508761 0
M  V30 35612 H 3329.27 1.75593 0.725736 0
M  V30 35613 H 3327.42 2.26955 3.15315 0
M  V30 35614 H 3329.1 4.33974 1.56411 0
M  V30 35615 H 3327.34 4.10404 1.40538 0
M  V30 35616 H 3328.01 4.67414 2.93646 0
M  V30 35617 H 3330.49 2.7558 3.11761 0
M  V30 35618 H 3329.36 3.29064 4.39327 0
M  V30 35619 H 3329.62 1.57342 4.13154 0
M  V30 35620 N 3328.68 -0.880575 1.30704 0
M  V30 35621 C 3329.96 -1.61443 1.10433 0
M  V30 35622 C 3330.34 -2.08265 -0.344801 0
M  V30 35623 O 3329.69 -1.85296 -1.33708 0
M  V30 35624 C 3329.9 -2.78059 2.10913 0
M  V30 35625 C 3331.24 -3.48283 2.42867 0
M  V30 35626 O 3332.27 -2.88253 2.09257 0
M  V30 35627 O 3331.13 -4.56548 3.00377 0
M  V30 35628 H 3328.22 -0.70978 0.424431 0
M  V30 35629 H 3330.77 -0.926966 1.42146 0
M  V30 35630 H 3329.54 -2.40798 3.08435 0
M  V30 35631 H 3329.16 -3.545 1.80043 0
M  V30 35632 N 3330.16 -1.13492 -1.09349 0
M  V30 35633 C 3331.39 -0.920356 -1.85303 0
M  V30 35634 C 3331.8 0.530851 -1.81183 0
M  V30 35635 O 3331.16 1.36748 -1.20856 0
M  V30 35636 C 3331.21 -1.40104 -3.33246 0
M  V30 35637 O 3330.93 -2.79537 -3.37328 0
M  V30 35638 C 3332.43 -1.22502 -4.26038 0
M  V30 35639 H 3329.65 -0.328144 -0.585288 0
M  V30 35640 H 3332.2 -1.50767 -1.38165 0
M  V30 35641 H 3330.35 -0.856707 -3.77809 0
M  V30 35642 H 3330.77 -3.00893 -4.29609 0
M  V30 35643 H 3332.24 -1.61009 -5.27996 0
M  V30 35644 H 3332.72 -0.166794 -4.38883 0
M  V30 35645 H 3333.32 -1.75742 -3.87292 0
M  V30 35646 N 3331.64 1.27341 -0.928546 0
M  V30 35647 C 3332.58 2.26817 -0.426913 0
M  V30 35648 C 3333.55 1.58185 0.506635 0
M  V30 35649 O 3334.74 1.85993 0.425608 0
M  V30 35650 C 3331.88 3.43673 0.313462 0
M  V30 35651 C 3330.99 4.27016 -0.654295 0
M  V30 35652 C 3330.13 5.31094 0.106008 0
M  V30 35653 C 3329.17 6.06108 -0.8544 0
M  V30 35654 N 3328.3 7.01986 -0.126668 0
M  V30 35655 H 3333.14 2.69101 -1.28019 0
M  V30 35656 H 3330.68 1.32325 -0.642538 0
M  V30 35657 H 3332.64 4.10237 0.759048 0
M  V30 35658 H 3331.27 3.02339 1.13097 0
M  V30 35659 H 3330.32 3.6036 -1.21841 0
M  V30 35660 H 3331.63 4.79092 -1.38825 0
M  V30 35661 H 3330.79 6.03611 0.61147 0
M  V30 35662 H 3329.53 4.79824 0.872924 0
M  V30 35663 H 3328.53 5.32429 -1.3711 0
M  V30 35664 H 3329.76 6.59467 -1.62111 0
M  V30 35665 H 3327.7 6.53045 0.621987 0
M  V30 35666 H 3327.62 7.51753 -0.800178 0
M  V30 35667 H 3328.89 7.78677 0.358114 0
M  V30 35668 N 3333.12 0.694147 1.4149 0
M  V30 35669 C 3334.35 0.233164 2.0528 0
M  V30 35670 C 3334.75 -1.12214 1.52331 0
M  V30 35671 O 3334.1 -1.71209 0.66582 0
M  V30 35672 C 3334.16 0.111782 3.59326 0
M  V30 35673 C 3333.82 1.3989 4.35063 0
M  V30 35674 C 3334.82 2.33645 4.64441 0
M  V30 35675 C 3332.5 1.65188 4.74361 0
M  V30 35676 C 3334.5 3.50961 5.32076 0
M  V30 35677 C 3332.19 2.82789 5.41732 0
M  V30 35678 C 3333.18 3.75498 5.70517 0
M  V30 35679 O 3332.87 4.9104 6.36502 0
M  V30 35680 H 3332.6 0.10643 0.667569 0
M  V30 35681 H 3335.16 0.946852 1.82274 0
M  V30 35682 H 3333.39 -0.657663 3.81067 0
M  V30 35683 H 3335.08 -0.311835 4.047 0
M  V30 35684 H 3335.84 2.15358 4.34564 0
M  V30 35685 H 3331.72 0.93889 4.51338 0
M  V30 35686 H 3335.27 4.23343 5.54461 0
M  V30 35687 H 3331.16 3.00994 5.71028 0
M  V30 35688 H 3331.93 4.90836 6.54998 0
M  V30 35689 N 3334.59 -1.51368 0.438799 0
M  V30 35690 C 3335.53 -2.25544 -0.407731 0
M  V30 35691 C 3336.54 -1.29618 -0.985043 0
M  V30 35692 O 3337.73 -1.55361 -0.878934 0
M  V30 35693 C 3334.83 -2.99683 -1.58251 0
M  V30 35694 C 3334 -4.22716 -1.12382 0
M  V30 35695 C 3333.06 -4.79422 -2.16889 0
M  V30 35696 O 3332.09 -5.41221 -1.76264 0
M  V30 35697 N 3333.29 -4.63582 -3.49388 0
M  V30 35698 H 3336.05 -2.98831 0.228016 0
M  V30 35699 H 3333.61 -1.5967 0.267769 0
M  V30 35700 H 3335.61 -3.34505 -2.2779 0
M  V30 35701 H 3334.18 -2.29397 -2.12358 0
M  V30 35702 H 3333.4 -3.93372 -0.25544 0
M  V30 35703 H 3334.68 -5.02554 -0.79476 0
M  V30 35704 H 3334.08 -4.14361 -3.85125 0
M  V30 35705 H 3332.64 -5.02762 -4.14817 0
M  V30 35706 N 3336.07 -0.170208 -1.56678 0
M  V30 35707 C 3337.32 0.475113 -1.96024 0
M  V30 35708 C 3337.63 1.64464 -1.05882 0
M  V30 35709 O 3338.84 2.35612 -1.34905 0
M  V30 35710 C 3337.3 0.896643 -3.48552 0
M  V30 35711 C 3336.9 -0.247221 -4.47317 0
M  V30 35712 C 3338.65 1.51045 -3.96719 0
M  V30 35713 C 3336.55 0.193878 -5.91082 0
M  V30 35714 H 3335.48 0.18127 -0.731886 0
M  V30 35715 H 3338.14 -0.258262 -1.81673 0
M  V30 35716 H 3336.52 1.68596 -3.58317 0
M  V30 35717 H 3337.69 -1.02453 -4.49266 0
M  V30 35718 H 3336.01 -0.77091 -4.09202 0
M  V30 35719 H 3338.6 1.85249 -5.01584 0
M  V30 35720 H 3338.95 2.40796 -3.39593 0
M  V30 35721 H 3339.48 0.785584 -3.89966 0
M  V30 35722 H 3336.22 -0.668829 -6.52079 0
M  V30 35723 H 3335.74 0.936571 -5.92443 0
M  V30 35724 H 3337.42 0.638124 -6.43845 0
M  V30 35725 N 3337.55 1.5726 0.10352 0
M  V30 35726 C 3338.97 1.52902 0.4575 0
M  V30 35727 C 3339.17 0.885632 1.80994 0
M  V30 35728 O 3338.22 0.474547 2.48001 0
M  V30 35729 C 3339.53 2.97642 0.427741 0
M  V30 35730 C 3341.08 3.08814 0.510196 0
M  V30 35731 C 3341.56 4.55144 0.51067 0
M  V30 35732 N 3343.05 4.59659 0.571667 0
M  V30 35733 C 3343.78 5.70318 0.593735 0
M  V30 35734 N 3343.28 6.9043 0.572516 0
M  V30 35735 N 3345.07 5.58469 0.637912 0
M  V30 35736 H 3337.22 1.97463 -0.782443 0
M  V30 35737 H 3339.49 0.902445 -0.29034 0
M  V30 35738 H 3339.19 3.48147 -0.498669 0
M  V30 35739 H 3339.07 3.55891 1.24985 0
M  V30 35740 H 3341.45 2.58302 1.42702 0
M  V30 35741 H 3341.53 2.53532 -0.33989 0
M  V30 35742 H 3341.18 5.06305 -0.402179 0
M  V30 35743 H 3341.11 5.08255 1.37785 0
M  V30 35744 H 3343.6 3.73209 0.593602 0
M  V30 35745 H 3343.91 7.70526 0.592406 0
M  V30 35746 H 3342.26 6.92901 0.539696 0
M  V30 35747 H 3345.45 4.63538 0.651961 0
M  V30 35748 H 3345.62 6.44715 0.651643 0
M  V30 35749 N 3339.03 -0.374123 1.53095 0
M  V30 35750 C 3340.28 -1.11492 1.68084 0
M  V30 35751 C 3340.59 -1.90708 0.434718 0
M  V30 35752 O 3341.8 -2.67488 0.465003 0
M  V30 35753 C 3340.25 -2.03119 2.97104 0
M  V30 35754 C 3339.86 -1.29255 4.28949 0
M  V30 35755 C 3341.6 -2.77243 3.2146 0
M  V30 35756 C 3339.51 -2.19734 5.49064 0
M  V30 35757 H 3338.44 -0.41992 0.626246 0
M  V30 35758 H 3341.09 -0.376556 1.79595 0
M  V30 35759 H 3339.47 -2.80651 2.79376 0
M  V30 35760 H 3340.65 -0.568448 4.5728 0
M  V30 35761 H 3338.96 -0.67029 4.1097 0
M  V30 35762 H 3341.56 -3.45148 4.08383 0
M  V30 35763 H 3341.9 -3.42142 2.37159 0
M  V30 35764 H 3342.44 -2.06797 3.39824 0
M  V30 35765 H 3339.17 -1.59426 6.35817 0
M  V30 35766 H 3338.69 -2.90018 5.25024 0
M  V30 35767 H 3340.37 -2.79485 5.83521 0
M  V30 35768 N 3340.51 -1.4431 -0.633436 0
M  V30 35769 C 3341.44 -1.46983 -1.75865 0
M  V30 35770 C 3342.45 -0.363497 -1.5869 0
M  V30 35771 O 3343.64 -0.629104 -1.67046 0
M  V30 35772 C 3340.74 -1.28588 -3.13558 0
M  V30 35773 C 3339.91 -2.52425 -3.57212 0
M  V30 35774 C 3338.97 -2.28963 -4.73775 0
M  V30 35775 O 3338 -3.02436 -4.82204 0
M  V30 35776 N 3339.2 -1.31876 -5.65322 0
M  V30 35777 H 3341.96 -2.43986 -1.74043 0
M  V30 35778 H 3339.53 -1.3972 -0.817927 0
M  V30 35779 H 3341.52 -1.10743 -3.89253 0
M  V30 35780 H 3340.09 -0.399584 -3.10036 0
M  V30 35781 H 3339.31 -2.85562 -2.7175 0
M  V30 35782 H 3340.6 -3.34797 -3.8313 0
M  V30 35783 H 3339.99 -0.711888 -5.61203 0
M  V30 35784 H 3338.55 -1.20009 -6.40657 0
M  V30 35785 N 3341.98 0.873632 -1.3117 0
M  V30 35786 C 3343.23 1.62115 -1.20006 0
M  V30 35787 C 3343.55 1.94104 0.241471 0
M  V30 35788 O 3344.75 2.67317 0.474754 0
M  V30 35789 C 3343.21 2.92237 -2.1006 0
M  V30 35790 C 3342.82 2.67746 -3.59188 0
M  V30 35791 C 3344.56 3.70224 -2.07688 0
M  V30 35792 C 3342.47 3.93753 -4.41262 0
M  V30 35793 H 3341.4 0.608259 -0.445574 0
M  V30 35794 H 3344.05 0.96626 -1.55999 0
M  V30 35795 H 3342.43 3.59082 -1.66962 0
M  V30 35796 H 3343.6 2.09332 -4.10508 0
M  V30 35797 H 3341.92 2.03118 -3.635 0
M  V30 35798 H 3344.52 4.63695 -2.66254 0
M  V30 35799 H 3344.86 4.02497 -1.06312 0
M  V30 35800 H 3345.39 3.10259 -2.48967 0
M  V30 35801 H 3342.13 3.66633 -5.43379 0
M  V30 35802 H 3341.65 4.51631 -3.94701 0
M  V30 35803 H 3343.33 4.61672 -4.53286 0
M  V30 35804 N 3343.46 1.1407 1.08746 0
M  V30 35805 C 3344.39 0.782237 2.15438 0
M  V30 35806 C 3345.41 -0.199272 1.61576 0
M  V30 35807 O 3346.6 0.0219357 1.78487 0
M  V30 35808 C 3343.7 0.139889 3.38611 0
M  V30 35809 C 3342.87 1.15525 4.21868 0
M  V30 35810 C 3341.93 0.537308 5.2345 0
M  V30 35811 O 3340.95 1.19929 5.56422 0
M  V30 35812 N 3342.16 -0.687499 5.76415 0
M  V30 35813 H 3344.92 1.70036 2.46795 0
M  V30 35814 H 3342.48 1.03466 1.24525 0
M  V30 35815 H 3344.47 -0.285928 4.03689 0
M  V30 35816 H 3343.04 -0.681303 3.05085 0
M  V30 35817 H 3342.26 1.75812 3.52822 0
M  V30 35818 H 3343.55 1.84127 4.74315 0
M  V30 35819 H 3342.95 -1.24397 5.51853 0
M  V30 35820 H 3341.51 -1.05588 6.43191 0
M  V30 35821 N 3344.94 -1.26847 0.935286 0
M  V30 35822 C 3345.85 -2.30318 0.446162 0
M  V30 35823 C 3346.87 -1.67336 -0.476935 0
M  V30 35824 O 3348.04 -1.98194 -0.357899 0
M  V30 35825 C 3345.11 -3.45516 -0.286237 0
M  V30 35826 C 3344.17 -4.23997 0.672701 0
M  V30 35827 C 3343.4 -5.33694 -0.0248406 0
M  V30 35828 O 3343.62 -5.56695 -1.24286 0
M  V30 35829 O 3342.56 -5.98371 0.650857 0
M  V30 35830 H 3346.38 -2.74208 1.30551 0
M  V30 35831 H 3343.97 -1.31937 0.700933 0
M  V30 35832 H 3345.85 -4.15562 -0.699035 0
M  V30 35833 H 3344.53 -3.03667 -1.12106 0
M  V30 35834 H 3343.43 -3.56456 1.13533 0
M  V30 35835 H 3344.77 -4.6958 1.47497 0
M  V30 35836 N 3346.42 -0.701641 -1.4112 0
M  V30 35837 C 3347.37 -0.0401615 -2.30765 0
M  V30 35838 C 3348.34 0.764949 -1.47437 0
M  V30 35839 O 3349.52 0.731744 -1.76211 0
M  V30 35840 C 3346.66 0.885845 -3.33537 0
M  V30 35841 C 3345.77 0.0717005 -4.3194 0
M  V30 35842 C 3344.91 0.995905 -5.21781 0
M  V30 35843 C 3343.95 0.175025 -6.1185 0
M  V30 35844 N 3343.08 1.05336 -6.94153 0
M  V30 35845 H 3347.92 -0.810362 -2.8677 0
M  V30 35846 H 3345.46 -0.411326 -1.41232 0
M  V30 35847 H 3347.42 1.43683 -3.91677 0
M  V30 35848 H 3346.05 1.62238 -2.79068 0
M  V30 35849 H 3345.1 -0.596287 -3.75697 0
M  V30 35850 H 3346.41 -0.564437 -4.95596 0
M  V30 35851 H 3345.57 1.61591 -5.84785 0
M  V30 35852 H 3344.31 1.66589 -4.58366 0
M  V30 35853 H 3343.31 -0.458012 -5.47889 0
M  V30 35854 H 3344.54 -0.491252 -6.77321 0
M  V30 35855 H 3342.48 1.70925 -6.33341 0
M  V30 35856 H 3342.4 0.472933 -7.54519 0
M  V30 35857 H 3343.67 1.65998 -7.6162 0
M  V30 35858 N 3347.9 1.51133 -0.446821 0
M  V30 35859 C 3348.83 2.30859 0.350189 0
M  V30 35860 C 3349.81 1.36686 1.01247 0
M  V30 35861 O 3350.99 1.65607 1.0143 0
M  V30 35862 C 3348.12 3.1575 1.44635 0
M  V30 35863 C 3347.08 4.18279 0.907029 0
M  V30 35864 C 3346.4 4.91751 2.09965 0
M  V30 35865 C 3347.7 5.22259 -0.0650676 0
M  V30 35866 H 3349.4 2.97737 -0.315157 0
M  V30 35867 H 3346.94 1.43185 -0.15301 0
M  V30 35868 H 3348.9 3.70309 2.0112 0
M  V30 35869 H 3347.62 2.46712 2.14012 0
M  V30 35870 H 3346.28 3.64785 0.364318 0
M  V30 35871 H 3345.93 4.19207 2.77983 0
M  V30 35872 H 3345.63 5.61087 1.74513 0
M  V30 35873 H 3347.15 5.49136 2.66987 0
M  V30 35874 H 3348.56 5.71833 0.409799 0
M  V30 35875 H 3346.96 5.99177 -0.332634 0
M  V30 35876 H 3348.03 4.74503 -0.998764 0
M  V30 35877 N 3349.37 0.178515 1.56586 0
M  V30 35878 C 3350.31 -0.780505 2.15501 0
M  V30 35879 C 3351.32 -1.18862 1.11246 0
M  V30 35880 O 3352.51 -1.12723 1.38405 0
M  V30 35881 C 3349.61 -2.06306 2.6887 0
M  V30 35882 C 3348.78 -1.81737 3.97857 0
M  V30 35883 C 3347.84 -2.94279 4.36218 0
M  V30 35884 O 3346.87 -2.64603 5.03958 0
M  V30 35885 N 3348.07 -4.2224 3.98364 0
M  V30 35886 H 3350.83 -0.276784 2.98419 0
M  V30 35887 H 3348.39 -0.00402395 1.61899 0
M  V30 35888 H 3350.39 -2.80703 2.91527 0
M  V30 35889 H 3348.96 -2.47848 1.905 0
M  V30 35890 H 3348.18 -0.91206 3.83504 0
M  V30 35891 H 3349.46 -1.62698 4.82086 0
M  V30 35892 H 3348.86 -4.49209 3.43843 0
M  V30 35893 H 3347.42 -4.93317 4.26006 0
M  V30 35894 N 3350.85 -1.57312 -0.0951784 0
M  V30 35895 C 3351.78 -1.98741 -1.14169 0
M  V30 35896 C 3352.8 -0.889958 -1.36322 0
M  V30 35897 O 3353.99 -1.16807 -1.34975 0
M  V30 35898 C 3351.09 -2.29108 -2.49725 0
M  V30 35899 C 3350.26 -3.60401 -2.47851 0
M  V30 35900 C 3349.32 -3.78705 -3.65334 0
M  V30 35901 O 3348.34 -4.50559 -3.47829 0
M  V30 35902 N 3349.55 -3.19276 -4.84812 0
M  V30 35903 H 3352.31 -2.89126 -0.789075 0
M  V30 35904 H 3349.87 -1.59387 -0.284159 0
M  V30 35905 H 3351.86 -2.38547 -3.26921 0
M  V30 35906 H 3350.43 -1.44731 -2.77077 0
M  V30 35907 H 3349.65 -3.61932 -1.56202 0
M  V30 35908 H 3350.94 -4.46653 -2.43677 0
M  V30 35909 H 3350.34 -2.60911 -5.01938 0
M  V30 35910 H 3348.9 -3.34201 -5.59601 0
M  V30 35911 N 3352.33 0.365999 -1.53291 0
M  V30 35912 C 3353.26 1.45434 -1.82678 0
M  V30 35913 C 3354.24 1.55906 -0.680255 0
M  V30 35914 O 3355.43 1.7048 -0.930062 0
M  V30 35915 C 3352.56 2.82776 -2.01631 0
M  V30 35916 C 3351.51 2.8713 -3.17397 0
M  V30 35917 C 3350.84 4.27142 -3.21642 0
M  V30 35918 C 3352.14 2.54689 -4.55994 0
M  V30 35919 H 3353.83 1.21091 -2.7382 0
M  V30 35920 H 3351.38 0.581085 -1.31755 0
M  V30 35921 H 3353.33 3.5894 -2.20772 0
M  V30 35922 H 3352.05 3.08506 -1.07198 0
M  V30 35923 H 3350.71 2.13417 -2.98075 0
M  V30 35924 H 3350.36 4.49947 -2.24848 0
M  V30 35925 H 3350.06 4.30971 -3.99422 0
M  V30 35926 H 3351.58 5.0518 -3.42966 0
M  V30 35927 H 3353 3.20567 -4.753 0
M  V30 35928 H 3351.4 2.69835 -5.36012 0
M  V30 35929 H 3352.47 1.49941 -4.61135 0
M  V30 35930 N 3353.81 1.44644 0.625774 0
M  V30 35931 C 3354.76 1.51922 1.73748 0
M  V30 35932 C 3355.73 0.366498 1.62006 0
M  V30 35933 O 3356.91 0.577471 1.81851 0
M  V30 35934 C 3354.05 1.47454 3.12012 0
M  V30 35935 C 3353.16 2.73141 3.34691 0
M  V30 35936 C 3352.3 2.60469 4.62957 0
M  V30 35937 C 3351.34 3.81294 4.78833 0
M  V30 35938 N 3350.47 3.67266 5.98381 0
M  V30 35939 H 3355.31 2.46902 1.66863 0
M  V30 35940 H 3352.85 1.22532 0.813899 0
M  V30 35941 H 3354.81 1.42853 3.91981 0
M  V30 35942 H 3353.44 0.560368 3.17899 0
M  V30 35943 H 3352.49 2.87906 2.48625 0
M  V30 35944 H 3353.8 3.62812 3.423 0
M  V30 35945 H 3352.96 2.53731 5.51095 0
M  V30 35946 H 3351.7 1.68367 4.57716 0
M  V30 35947 H 3350.7 3.8841 3.89124 0
M  V30 35948 H 3351.93 4.74439 4.85885 0
M  V30 35949 H 3349.87 2.7792 5.94219 0
M  V30 35950 H 3349.79 4.50557 6.0707 0
M  V30 35951 H 3351.06 3.6443 6.89066 0
M  V30 35952 N 3355.29 -0.866663 1.31631 0
M  V30 35953 C 3356.7 -1.15294 1.1036 0
M  V30 35954 C 3356.9 -2.0112 -0.123772 0
M  V30 35955 O 3355.96 -2.39082 -0.812148 0
M  V30 35956 C 3357.27 -1.84188 2.37687 0
M  V30 35957 C 3358.82 -1.96876 2.43329 0
M  V30 35958 C 3359.29 -2.69184 3.70545 0
M  V30 35959 N 3360.79 -2.76718 3.71459 0
M  V30 35960 C 3361.52 -3.33287 4.66591 0
M  V30 35961 N 3361.02 -3.90761 5.72082 0
M  V30 35962 N 3362.81 -3.31276 4.54106 0
M  V30 35963 H 3354.96 -0.294833 2.10344 0
M  V30 35964 H 3357.22 -0.193223 0.9281 0
M  V30 35965 H 3356.93 -1.28576 3.27355 0
M  V30 35966 H 3356.8 -2.84441 2.47736 0
M  V30 35967 H 3359.19 -2.51652 1.54128 0
M  V30 35968 H 3359.27 -0.956554 2.37242 0
M  V30 35969 H 3358.92 -2.15075 4.60114 0
M  V30 35970 H 3358.85 -3.70818 3.739 0
M  V30 35971 H 3361.34 -2.3593 2.95204 0
M  V30 35972 H 3361.65 -4.32047 6.40746 0
M  V30 35973 H 3359.99 -3.89128 5.75851 0
M  V30 35974 H 3363.19 -2.85615 3.70866 0
M  V30 35975 H 3363.36 -3.75064 5.28423 0
M  V30 35976 N 3356.77 -1.14645 -1.0814 0
M  V30 35977 C 3357.72 -0.804449 -2.13337 0
M  V30 35978 C 3358.7 0.207636 -1.59555 0
M  V30 35979 O 3359.89 0.00957122 -1.76997 0
M  V30 35980 C 3357.02 -0.286639 -3.42101 0
M  V30 35981 C 3356.11 -1.32841 -4.02758 0
M  V30 35982 N 3356.5 -2.53335 -4.37784 0
M  V30 35983 C 3354.8 -1.17927 -4.30127 0
M  V30 35984 C 3355.5 -3.20046 -4.85742 0
M  V30 35985 N 3354.47 -2.47445 -4.84017 0
M  V30 35986 H 3358.27 -1.72101 -2.3824 0
M  V30 35987 H 3355.79 -1.03072 -1.25499 0
M  V30 35988 H 3357.79 -0.023315 -4.16893 0
M  V30 35989 H 3356.45 0.624086 -3.18646 0
M  V30 35990 H 3357.46 -2.90542 -4.28726 0
M  V30 35991 H 3354.13 -0.327786 -4.16211 0
M  V30 35992 H 3355.52 -4.22796 -5.22201 0
M  V30 35993 N 3358.24 1.26349 -0.942 0
M  V30 35994 C 3359.49 1.93008 -0.585745 0
M  V30 35995 C 3359.81 1.74713 0.879476 0
M  V30 35996 O 3361.01 2.35835 1.34514 0
M  V30 35997 C 3359.47 3.45819 -0.996848 0
M  V30 35998 C 3359.08 3.72846 -2.48374 0
M  V30 35999 C 3360.82 4.18477 -0.712525 0
M  V30 36000 C 3358.73 5.19102 -2.8335 0
M  V30 36001 H 3357.66 0.722592 -0.215354 0
M  V30 36002 H 3360.31 1.43415 -1.14475 0
M  V30 36003 H 3358.69 3.94302 -0.366365 0
M  V30 36004 H 3359.86 3.35066 -3.16334 0
M  V30 36005 H 3358.18 3.13423 -2.74145 0
M  V30 36006 H 3360.78 5.2619 -0.950162 0
M  V30 36007 H 3361.12 4.1482 0.350738 0
M  V30 36008 H 3361.65 3.75863 -1.30277 0
M  V30 36009 H 3358.39 5.27861 -3.88643 0
M  V30 36010 H 3357.91 5.57976 -2.20052 0
M  V30 36011 H 3359.59 5.87113 -2.71859 0
M  V30 36012 N 3359.72 0.709115 1.40746 0
M  V30 36013 C 3360.65 0.0130761 2.29196 0
M  V30 36014 C 3361.67 -0.730461 1.45493 0
M  V30 36015 O 3362.86 -0.578915 1.68851 0
M  V30 36016 C 3359.96 -1.00571 3.23634 0
M  V30 36017 C 3359.13 -0.329029 4.36161 0
M  V30 36018 C 3358.19 -1.2523 5.11081 0
M  V30 36019 O 3357.21 -0.739542 5.64375 0
M  V30 36020 N 3358.42 -2.58385 5.19824 0
M  V30 36021 H 3361.18 0.772513 2.89573 0
M  V30 36022 H 3358.74 0.556224 1.52045 0
M  V30 36023 H 3360.73 -1.62539 3.70625 0
M  V30 36024 H 3359.3 -1.66656 2.6447 0
M  V30 36025 H 3358.52 0.470752 3.91379 0
M  V30 36026 H 3359.81 0.140946 5.08605 0
M  V30 36027 H 3359.21 -3.02548 4.77997 0
M  V30 36028 H 3357.77 -3.15514 5.70346 0
M  V30 36029 N 3361.2 -1.50894 0.454829 0
M  V30 36030 C 3362.15 -2.29767 -0.361934 0
M  V30 36031 C 3363.14 -1.36355 -1.00517 0
M  V30 36032 O 3364.35 -1.5362 -0.938132 0
M  V30 36033 H 3360.72 -0.739683 -0.135546 0
M  V30 36034 H 3362.69 -2.96637 0.323905 0
M  V30 36035 C 3361.44 -3.16446 -1.44073 0
M  V30 36036 H 3360.77 -3.88223 -0.955144 0
M  V30 36037 H 3362.21 -3.74659 -1.98512 0
M  V30 36038 C 3360.66 -2.32965 -2.4337 0
M  V30 36039 O 3361.19 -2.0014 -3.48292 0
M  V30 36040 N 3359.4 -1.95853 -2.14686 0
M  V30 36041 H 3358.95 -2.22747 -1.29388 0
M  V30 36042 H 3358.91 -1.40297 -2.81361 0
M  V30 36043 N 3362.68 -0.186817 -1.56489 0
M  V30 36044 C 3363.93 0.454295 -1.96517 0
M  V30 36045 C 3364.24 1.63331 -1.07621 0
M  V30 36046 O 3365.45 2.34168 -1.37396 0
M  V30 36047 C 3363.9 0.859624 -3.49483 0
M  V30 36048 C 3363.51 -0.294651 -4.4703 0
M  V30 36049 C 3365.25 1.46828 -3.98298 0
M  V30 36050 C 3363.16 0.131175 -5.91255 0
M  V30 36051 H 3362.09 0.173497 -0.733768 0
M  V30 36052 H 3364.74 -0.277517 -1.81389 0
M  V30 36053 H 3363.12 1.64786 -3.60085 0
M  V30 36054 H 3364.3 -1.07212 -4.48154 0
M  V30 36055 H 3362.61 -0.814268 -4.08361 0
M  V30 36056 H 3365.21 1.79919 -5.03521 0
M  V30 36057 H 3365.55 2.3718 -3.42127 0
M  V30 36058 H 3366.09 0.744178 -3.90777 0
M  V30 36059 H 3362.82 -0.737953 -6.51333 0
M  V30 36060 H 3362.34 0.873681 -5.93403 0
M  V30 36061 H 3364.02 0.5698 -6.44486 0
M  V30 36062 N 3364.16 1.57361 0.0868344 0
M  V30 36063 C 3365.43 1.77538 0.820953 0
M  V30 36064 C 3365.81 0.770589 1.96533 0
M  V30 36065 O 3365.16 -0.199294 2.27629 0
M  V30 36066 C 3365.37 3.23567 1.30787 0
M  V30 36067 C 3366.72 3.8698 1.74733 0
M  V30 36068 O 3367.74 3.27367 1.40391 0
M  V30 36069 O 3366.6 4.91826 2.38263 0
M  V30 36070 H 3363.7 0.728077 0.392215 0
M  V30 36071 H 3366.24 1.69563 0.0680753 0
M  V30 36072 H 3365.01 3.88241 0.488341 0
M  V30 36073 H 3364.64 3.36207 2.12252 0
M  V30 36074 N 3365.63 -0.357865 1.53483 0
M  V30 36075 C 3366.88 -1.09703 1.69257 0
M  V30 36076 C 3367.2 -1.90236 0.454921 0
M  V30 36077 O 3368.4 -2.6698 0.493347 0
M  V30 36078 C 3366.86 -1.99956 2.99242 0
M  V30 36079 C 3366.47 -1.24698 4.30296 0
M  V30 36080 C 3368.21 -2.73818 3.24383 0
M  V30 36081 C 3366.12 -2.13898 5.51364 0
M  V30 36082 H 3365.05 -0.413254 0.630664 0
M  V30 36083 H 3367.7 -0.357487 1.79984 0
M  V30 36084 H 3366.08 -2.77672 2.82337 0
M  V30 36085 H 3367.25 -0.519915 4.57858 0
M  V30 36086 H 3365.57 -0.626664 4.11657 0
M  V30 36087 H 3368.17 -3.40797 4.12021 0
M  V30 36088 H 3368.51 -3.39608 2.40775 0
M  V30 36089 H 3369.04 -2.03181 3.41998 0
M  V30 36090 H 3365.78 -1.52673 6.37473 0
M  V30 36091 H 3365.3 -2.84433 5.2807 0
M  V30 36092 H 3366.98 -2.7328 5.86453 0
M  V30 36093 N 3367.11 -1.44974 -0.618094 0
M  V30 36094 C 3368.04 -1.4884 -1.74296 0
M  V30 36095 C 3369.06 -0.380308 -1.58296 0
M  V30 36096 O 3370.25 -0.646787 -1.6637 0
M  V30 36097 C 3367.35 -1.31906 -3.12176 0
M  V30 36098 C 3366.52 -2.56199 -3.54515 0
M  V30 36099 C 3365.58 -2.33975 -4.7132 0
M  V30 36100 O 3364.6 -3.07534 -4.78969 0
M  V30 36101 N 3365.81 -1.37864 -5.63892 0
M  V30 36102 H 3368.57 -2.45818 -1.71446 0
M  V30 36103 H 3366.13 -1.40579 -0.803062 0
M  V30 36104 H 3368.12 -1.14865 -3.88057 0
M  V30 36105 H 3366.69 -0.432445 -3.09594 0
M  V30 36106 H 3365.91 -2.88428 -2.68706 0
M  V30 36107 H 3367.2 -3.38842 -3.79557 0
M  V30 36108 H 3366.6 -0.771371 -5.60416 0
M  V30 36109 H 3365.16 -1.26798 -6.39348 0
M  V30 36110 N 3368.59 0.85967 -1.32089 0
M  V30 36111 C 3369.54 1.95576 -1.17192 0
M  V30 36112 C 3370.52 1.607 -0.0801585 0
M  V30 36113 O 3371.72 1.74332 -0.306148 0
M  V30 36114 C 3368.84 3.3151 -0.891974 0
M  V30 36115 C 3367.93 3.72621 -2.0252 0
M  V30 36116 N 3368.32 3.85603 -3.27328 0
M  V30 36117 C 3366.62 4.02211 -1.92724 0
M  V30 36118 C 3367.32 4.20899 -4.01521 0
M  V30 36119 N 3366.3 4.32145 -3.29775 0
M  V30 36120 H 3370.1 2.03739 -2.11819 0
M  V30 36121 H 3367.61 1.05112 -1.23795 0
M  V30 36122 H 3369.61 4.09798 -0.766215 0
M  V30 36123 H 3368.27 3.24667 0.0459778 0
M  V30 36124 H 3369.28 3.70057 -3.62324 0
M  V30 36125 H 3365.96 4.03699 -1.06459 0
M  V30 36126 H 3367.35 4.38454 -5.09124 0
M  V30 36127 N 3370.07 1.15217 1.0753 0
M  V30 36128 C 3371 0.870209 2.16679 0
M  V30 36129 C 3371.98 -0.178453 1.69161 0
M  V30 36130 O 3373.16 -0.0332148 1.94172 0
M  V30 36131 C 3370.29 0.356727 3.45463 0
M  V30 36132 C 3369.25 1.34186 4.06421 0
M  V30 36133 C 3368.57 0.687299 5.30264 0
M  V30 36134 C 3369.87 2.70723 4.46661 0
M  V30 36135 H 3371.57 1.78295 2.40523 0
M  V30 36136 H 3369.11 0.858686 1.15597 0
M  V30 36137 H 3371.07 0.147021 4.21143 0
M  V30 36138 H 3369.79 -0.591471 3.212 0
M  V30 36139 H 3368.45 1.53789 3.32783 0
M  V30 36140 H 3368.1 -0.266989 5.02291 0
M  V30 36141 H 3367.8 1.34472 5.72006 0
M  V30 36142 H 3369.32 0.487325 6.08652 0
M  V30 36143 H 3370.74 2.54976 5.13479 0
M  V30 36144 H 3369.13 3.32822 4.99349 0
M  V30 36145 H 3370.2 3.26925 3.58117 0
M  V30 36146 N 3371.55 -1.25848 0.948687 0
M  V30 36147 C 3372.51 -2.24356 0.468712 0
M  V30 36148 C 3373.51 -1.551 -0.424327 0
M  V30 36149 O 3374.7 -1.72774 -0.22245 0
M  V30 36150 C 3371.83 -3.39361 -0.323531 0
M  V30 36151 H 3373.02 -2.68332 1.33933 0
M  V30 36152 H 3370.58 -1.38132 0.731382 0
M  V30 36153 H 3371.31 -3.00798 -1.21207 0
M  V30 36154 H 3371.1 -3.90816 0.317067 0
M  V30 36155 H 3372.59 -4.12526 -0.649015 0
M  V30 36156 N 3373.02 -0.716569 -1.40368 0
M  V30 36157 C 3374.27 -0.255994 -2.00472 0
M  V30 36158 C 3374.59 1.15511 -1.57106 0
M  V30 36159 O 3373.86 1.78326 -0.810956 0
M  V30 36160 H 3372.44 -0.0916557 -0.741356 0
M  V30 36161 H 3375.11 -0.922419 -1.7169 0
M  V30 36162 H 3374.2 -0.289861 -3.10751 0
M  V30 36163 N 3374.5 1.50651 -0.462825 0
M  V30 36164 C 3375.45 2.28347 0.335624 0
M  V30 36165 C 3376.42 1.33036 0.994518 0
M  V30 36166 O 3377.6 1.61966 1.00854 0
M  V30 36167 C 3374.74 3.14693 1.41642 0
M  V30 36168 C 3373.86 4.25025 0.773133 0
M  V30 36169 C 3372.99 4.98641 1.83113 0
M  V30 36170 C 3372.03 6.0086 1.16764 0
M  V30 36171 N 3371.17 6.67785 2.16811 0
M  V30 36172 H 3376.01 2.96131 -0.333254 0
M  V30 36173 H 3373.55 1.46041 -0.176191 0
M  V30 36174 H 3375.5 3.63099 2.05462 0
M  V30 36175 H 3374.13 2.48972 2.05458 0
M  V30 36176 H 3373.19 3.80393 0.0225776 0
M  V30 36177 H 3374.5 4.98178 0.248974 0
M  V30 36178 H 3373.65 5.50725 2.54533 0
M  V30 36179 H 3372.39 4.25176 2.38907 0
M  V30 36180 H 3371.4 5.48044 0.439016 0
M  V30 36181 H 3372.62 6.76294 0.616691 0
M  V30 36182 H 3370.57 5.97117 2.71639 0
M  V30 36183 H 3370.48 7.36786 1.69358 0
M  V30 36184 H 3371.75 7.2449 2.87637 0
M  V30 36185 N 3375.98 0.195113 1.56388 0
M  V30 36186 C 3376.91 -0.720932 2.22092 0
M  V30 36187 C 3377.89 -1.22126 1.18403 0
M  V30 36188 O 3379.08 -1.2701 1.46909 0
M  V30 36189 C 3376.21 -1.94054 2.88028 0
M  V30 36190 C 3375.16 -1.57513 3.97962 0
M  V30 36191 C 3374.49 -2.87135 4.51063 0
M  V30 36192 C 3375.79 -0.785054 5.16366 0
M  V30 36193 H 3377.48 -0.173193 2.98899 0
M  V30 36194 H 3375.03 -0.0818615 1.43767 0
M  V30 36195 H 3376.98 -2.5866 3.32676 0
M  V30 36196 H 3375.7 -2.51281 2.08627 0
M  V30 36197 H 3374.36 -0.952653 3.54006 0
M  V30 36198 H 3374.01 -3.42451 3.68424 0
M  V30 36199 H 3373.71 -2.6343 5.25241 0
M  V30 36200 H 3375.23 -3.52729 4.98412 0
M  V30 36201 H 3376.65 -1.33421 5.57559 0
M  V30 36202 H 3375.05 -0.646126 5.96611 0
M  V30 36203 H 3376.12 0.213874 4.84428 0
M  V30 36204 N 3377.46 -1.57404 -0.0784879 0
M  V30 36205 C 3378.41 -2.03226 -1.09398 0
M  V30 36206 C 3379.38 -0.91162 -1.38848 0
M  V30 36207 O 3380.56 -1.17881 -1.50029 0
M  V30 36208 C 3377.7 -2.47553 -2.4044 0
M  V30 36209 C 3376.81 -3.73207 -2.17578 0
M  V30 36210 C 3375.95 -4.06345 -3.42136 0
M  V30 36211 C 3374.99 -5.25059 -3.14609 0
M  V30 36212 N 3374.12 -5.53868 -4.3148 0
M  V30 36213 H 3378.96 -2.89752 -0.696256 0
M  V30 36214 H 3376.5 -1.43299 -0.332236 0
M  V30 36215 H 3378.46 -2.71303 -3.16939 0
M  V30 36216 H 3377.09 -1.64014 -2.78028 0
M  V30 36217 H 3376.14 -3.56836 -1.31803 0
M  V30 36218 H 3377.45 -4.59847 -1.93241 0
M  V30 36219 H 3376.61 -4.3096 -4.27034 0
M  V30 36220 H 3375.35 -3.18259 -3.69543 0
M  V30 36221 H 3374.35 -5.00247 -2.28107 0
M  V30 36222 H 3375.58 -6.14757 -2.88532 0
M  V30 36223 H 3373.52 -4.68742 -4.58931 0
M  V30 36224 H 3373.44 -6.34913 -4.10392 0
M  V30 36225 H 3374.71 -5.8303 -5.17394 0
M  V30 36226 N 3378.94 0.34972 -1.53671 0
M  V30 36227 C 3379.87 1.44967 -1.77531 0
M  V30 36228 C 3380.88 1.48979 -0.656438 0
M  V30 36229 O 3382.07 1.52173 -0.933042 0
M  V30 36230 C 3379.17 2.83657 -1.8545 0
M  V30 36231 C 3378.34 3.03157 -3.153 0
M  V30 36232 C 3377.4 4.22053 -3.14257 0
M  V30 36233 O 3376.43 4.16466 -3.88001 0
M  V30 36234 N 3377.63 5.30277 -2.36191 0
M  V30 36235 H 3380.4 1.24873 -2.72446 0
M  V30 36236 H 3377.96 0.539559 -1.52645 0
M  V30 36237 H 3379.95 3.6136 -1.82211 0
M  V30 36238 H 3378.52 2.96924 -0.977488 0
M  V30 36239 H 3377.74 2.12977 -3.31714 0
M  V30 36240 H 3379.03 3.13065 -4.01084 0
M  V30 36241 H 3378.42 5.37685 -1.75817 0
M  V30 36242 H 3376.98 6.06498 -2.38755 0
M  V30 36243 N 3380.41 1.45299 0.610397 0
M  V30 36244 C 3381.36 1.50183 1.71549 0
M  V30 36245 C 3382.35 0.365384 1.56696 0
M  V30 36246 O 3383.54 0.612058 1.66081 0
M  V30 36247 C 3380.67 1.46873 3.10295 0
M  V30 36248 C 3379.76 2.65709 3.30544 0
M  V30 36249 N 3380.15 3.90833 3.21066 0
M  V30 36250 C 3378.44 2.61346 3.61406 0
M  V30 36251 C 3379.15 4.70129 3.42569 0
M  V30 36252 N 3378.12 4.01538 3.66426 0
M  V30 36253 H 3381.92 2.4475 1.6271 0
M  V30 36254 H 3379.44 1.40552 0.813562 0
M  V30 36255 H 3381.43 1.48456 3.89572 0
M  V30 36256 H 3380.09 0.533604 3.20285 0
M  V30 36257 H 3381.11 4.22495 2.9953 0
M  V30 36258 H 3377.78 1.76728 3.7825 0
M  V30 36259 H 3379.17 5.79138 3.40659 0
M  V30 36260 N 3381.89 -0.852653 1.32543 0
M  V30 36261 C 3383.14 -1.60186 1.2257 0
M  V30 36262 C 3383.45 -1.94463 -0.21056 0
M  V30 36263 O 3384.66 -2.68038 -0.432166 0
M  V30 36264 C 3383.12 -2.88858 2.14683 0
M  V30 36265 C 3382.72 -2.61998 3.63402 0
M  V30 36266 C 3384.47 -3.66873 2.13552 0
M  V30 36267 C 3382.38 -3.86683 4.47471 0
M  V30 36268 H 3381.31 -0.601094 0.455195 0
M  V30 36269 H 3383.96 -0.94132 1.57516 0
M  V30 36270 H 3382.34 -3.5638 1.72654 0
M  V30 36271 H 3383.51 -2.02775 4.13786 0
M  V30 36272 H 3381.83 -1.9731 3.66685 0
M  V30 36273 H 3384.42 -4.594 2.73597 0
M  V30 36274 H 3384.77 -4.00754 1.12701 0
M  V30 36275 H 3385.3 -3.06258 2.53871 0
M  V30 36276 H 3382.04 -3.57942 5.49143 0
M  V30 36277 H 3381.56 -4.45295 4.01837 0
M  V30 36278 H 3383.24 -4.54402 4.60573 0
M  V30 36279 N 3383.37 -1.15786 -1.06918 0
M  V30 36280 C 3384.28 -0.872791 -2.1776 0
M  V30 36281 C 3385.3 0.152577 -1.7333 0
M  V30 36282 O 3386.47 -0.0225544 -2.01387 0
M  V30 36283 C 3383.54 -0.370948 -3.4471 0
M  V30 36284 C 3382.6 -1.46076 -4.03683 0
M  V30 36285 C 3381.83 -0.982767 -5.24574 0
M  V30 36286 O 3382.05 0.16996 -5.70147 0
M  V30 36287 O 3380.99 -1.76838 -5.75336 0
M  V30 36288 H 3384.81 -1.79952 -2.44644 0
M  V30 36289 H 3382.4 -0.937323 -1.16338 0
M  V30 36290 H 3384.28 -0.097752 -4.21287 0
M  V30 36291 H 3382.96 0.527856 -3.19367 0
M  V30 36292 H 3381.86 -1.78762 -3.28626 0
M  V30 36293 H 3383.2 -2.33464 -4.33308 0
M  V30 36294 N 3384.85 1.25343 -0.955348 0
M  V30 36295 C 3385.81 2.24105 -0.480604 0
M  V30 36296 C 3386.81 1.55323 0.416096 0
M  V30 36297 O 3388 1.72889 0.213285 0
M  V30 36298 C 3385.13 3.39528 0.305529 0
M  V30 36299 H 3386.33 2.67618 -1.35354 0
M  V30 36300 H 3383.88 1.37742 -0.738697 0
M  V30 36301 H 3384.61 3.01436 1.1961 0
M  V30 36302 H 3384.4 3.90642 -0.337788 0
M  V30 36303 H 3385.89 4.12864 0.627128 0
M  V30 36304 N 3386.33 0.724003 1.39986 0
M  V30 36305 C 3387.58 0.264095 1.99964 0
M  V30 36306 C 3387.89 -1.15187 1.58086 0
M  V30 36307 O 3389.1 -1.71073 2.10822 0
M  V30 36308 C 3387.55 0.421237 3.57426 0
M  V30 36309 C 3387.16 1.84439 4.08272 0
M  V30 36310 C 3388.9 0.022548 4.24494 0
M  V30 36311 C 3386.81 1.95167 5.58269 0
M  V30 36312 H 3385.74 0.094986 0.747993 0
M  V30 36313 H 3388.39 0.896304 1.60121 0
M  V30 36314 H 3386.77 -0.279693 3.95011 0
M  V30 36315 H 3387.95 2.57638 3.82046 0
M  V30 36316 H 3386.26 2.19529 3.5383 0
M  V30 36317 H 3388.86 0.0818684 5.34637 0
M  V30 36318 H 3389.2 -1.02062 4.03595 0
M  V30 36319 H 3389.74 0.674229 3.92045 0
M  V30 36320 H 3386.47 2.97633 5.84033 0
M  V30 36321 H 3385.99 1.2639 5.86332 0
M  V30 36322 H 3387.67 1.7277 6.23506 0
M  V30 36323 N 3387.81 -1.50403 0.470808 0
M  V30 36324 C 3389.08 -1.95056 -0.145845 0
M  V30 36325 C 3389.46 -1.41116 -1.57001 0
M  V30 36326 O 3388.81 -0.612045 -2.20151 0
M  V30 36327 C 3389.02 -3.48885 -0.0894458 0
M  V30 36328 C 3390.37 -4.23686 -0.278473 0
M  V30 36329 O 3391.39 -3.55813 -0.166043 0
M  V30 36330 O 3390.25 -5.44157 -0.50551 0
M  V30 36331 H 3387.35 -0.819405 -0.111824 0
M  V30 36332 H 3389.89 -1.61172 0.53119 0
M  V30 36333 H 3388.66 -3.80693 0.904903 0
M  V30 36334 H 3388.29 -3.89304 -0.80795 0
M  V30 36335 N 3389.28 -0.203404 -1.56282 0
M  V30 36336 C 3390.53 0.433809 -1.98106 0
M  V30 36337 C 3390.86 1.60693 -1.09047 0
M  V30 36338 O 3390.14 1.93965 -0.144227 0
M  V30 36339 C 3390.42 0.885931 -3.49032 0
M  V30 36340 C 3390.27 -0.28958 -4.48867 0
M  V30 36341 C 3391.59 1.74853 -4.03874 0
M  V30 36342 H 3388.71 0.156211 -0.720255 0
M  V30 36343 H 3391.35 -0.295996 -1.8768 0
M  V30 36344 H 3389.5 1.50779 -3.58047 0
M  V30 36345 H 3391.18 -0.92742 -4.51881 0
M  V30 36346 H 3389.42 -0.940008 -4.23493 0
M  V30 36347 H 3390.09 0.0694158 -5.51956 0
M  V30 36348 H 3392.57 1.224 -3.9769 0
M  V30 36349 H 3391.44 2.03382 -5.0983 0
M  V30 36350 H 3391.7 2.70561 -3.49641 0
M  V30 36351 N 3390.76 1.57444 0.0701393 0
M  V30 36352 C 3392.18 1.53838 0.424964 0
M  V30 36353 C 3392.38 0.923825 1.79075 0
M  V30 36354 O 3391.43 0.527045 2.46938 0
M  V30 36355 C 3392.75 2.98483 0.36451 0
M  V30 36356 C 3394.29 3.09827 0.444577 0
M  V30 36357 C 3394.77 4.56125 0.414013 0
M  V30 36358 N 3396.26 4.60768 0.474038 0
M  V30 36359 C 3397 5.71449 0.472629 0
M  V30 36360 N 3396.49 6.91489 0.425937 0
M  V30 36361 N 3398.28 5.59696 0.51931 0
M  V30 36362 H 3390.44 1.95759 -0.824151 0
M  V30 36363 H 3392.7 0.896083 -0.309417 0
M  V30 36364 H 3392.4 3.47011 -0.572404 0
M  V30 36365 H 3392.28 3.58462 1.17408 0
M  V30 36366 H 3394.67 2.61271 1.37191 0
M  V30 36367 H 3394.75 2.52754 -0.393592 0
M  V30 36368 H 3394.39 5.05338 -0.509483 0
M  V30 36369 H 3394.32 5.11063 1.26974 0
M  V30 36370 H 3396.81 3.74384 0.514305 0
M  V30 36371 H 3397.12 7.71609 0.428833 0
M  V30 36372 H 3395.47 6.9389 0.3926 0
M  V30 36373 H 3398.66 4.64816 0.553491 0
M  V30 36374 H 3398.83 6.45952 0.514742 0
M  V30 36375 N 3392.24 -0.341566 1.53854 0
M  V30 36376 C 3393.49 -1.08319 1.71449 0
M  V30 36377 C 3393.82 -1.88243 0.477322 0
M  V30 36378 O 3393.09 -1.87262 -0.525662 0
M  V30 36379 C 3393.38 -2.02275 2.97921 0
M  V30 36380 C 3393.23 -1.25801 4.3185 0
M  V30 36381 C 3394.55 -3.02064 3.20071 0
M  V30 36382 H 3391.67 -0.392397 0.623854 0
M  V30 36383 H 3394.31 -0.361561 1.86528 0
M  V30 36384 H 3392.46 -2.6381 2.85196 0
M  V30 36385 H 3394.13 -0.668657 4.56428 0
M  V30 36386 H 3392.37 -0.560043 4.3017 0
M  V30 36387 H 3393.05 -1.94695 5.16525 0
M  V30 36388 H 3395.52 -2.50645 3.32139 0
M  V30 36389 H 3394.4 -3.65006 4.09954 0
M  V30 36390 H 3394.66 -3.7355 2.36458 0
M  V30 36391 N 3393.72 -1.45621 -0.602683 0
M  V30 36392 C 3394.65 -1.57513 -1.72371 0
M  V30 36393 C 3395.63 -0.426418 -1.64668 0
M  V30 36394 O 3396.81 -0.650176 -1.82993 0
M  V30 36395 C 3393.94 -1.54615 -3.10984 0
M  V30 36396 C 3392.9 -2.68254 -3.33502 0
M  V30 36397 C 3392.22 -2.50411 -4.72439 0
M  V30 36398 C 3393.52 -4.1023 -3.23278 0
M  V30 36399 H 3395.22 -2.51351 -1.62675 0
M  V30 36400 H 3392.76 -1.20968 -0.781196 0
M  V30 36401 H 3394.72 -1.61532 -3.89211 0
M  V30 36402 H 3393.44 -0.573106 -3.21532 0
M  V30 36403 H 3392.1 -2.60774 -2.57668 0
M  V30 36404 H 3391.75 -1.51234 -4.79726 0
M  V30 36405 H 3391.45 -3.2662 -4.8846 0
M  V30 36406 H 3392.97 -2.59189 -5.52859 0
M  V30 36407 H 3394.39 -4.18927 -3.91373 0
M  V30 36408 H 3392.78 -4.86867 -3.50828 0
M  V30 36409 H 3393.85 -4.31792 -2.20644 0
M  V30 36410 N 3395.2 0.845612 -1.32993 0
M  V30 36411 C 3396.13 1.9703 -1.25305 0
M  V30 36412 C 3397.11 1.69563 -0.134996 0
M  V30 36413 O 3398.29 1.91484 -0.323663 0
M  V30 36414 C 3395.42 3.33051 -0.984609 0
M  V30 36415 C 3394.38 3.74896 -2.06487 0
M  V30 36416 C 3393.7 5.08648 -1.64869 0
M  V30 36417 C 3395 3.89397 -3.4809 0
M  V30 36418 H 3396.7 2.03721 -2.19404 0
M  V30 36419 H 3394.24 0.978765 -1.05623 0
M  V30 36420 H 3396.19 4.11294 -0.917341 0
M  V30 36421 H 3394.92 3.26599 -0.00798856 0
M  V30 36422 H 3393.58 2.98911 -2.12245 0
M  V30 36423 H 3393.23 4.98661 -0.659271 0
M  V30 36424 H 3392.93 5.37617 -2.37154 0
M  V30 36425 H 3394.45 5.89374 -1.59595 0
M  V30 36426 H 3395.86 4.5797 -3.44871 0
M  V30 36427 H 3394.26 4.29795 -4.18803 0
M  V30 36428 H 3395.33 2.92044 -3.87089 0
M  V30 36429 N 3396.67 1.16351 1.06302 0
M  V30 36430 C 3397.95 0.855197 1.75914 0
M  V30 36431 C 3398.33 -0.646989 2.00941 0
M  V30 36432 O 3397.68 -1.59476 1.63645 0
M  V30 36433 C 3397.89 1.67779 3.06025 0
M  V30 36434 C 3399.24 1.89072 3.8018 0
M  V30 36435 O 3400.26 1.64644 3.15865 0
M  V30 36436 O 3399.12 2.30054 4.95719 0
M  V30 36437 H 3396.21 0.315565 0.764427 0
M  V30 36438 H 3398.76 1.26987 1.12571 0
M  V30 36439 H 3397.53 2.69717 2.83493 0
M  V30 36440 H 3397.15 1.26016 3.77102 0
M  V30 36441 N 3398.15 -1.24835 0.961982 0
M  V30 36442 C 3399.08 -2.24831 0.445369 0
M  V30 36443 C 3400.1 -1.56663 -0.44277 0
M  V30 36444 O 3401.29 -1.76743 -0.249865 0
M  V30 36445 C 3398.39 -3.36798 -0.376894 0
M  V30 36446 C 3397.56 -4.34533 0.499984 0
M  V30 36447 C 3396.62 -5.25531 -0.26531 0
M  V30 36448 O 3395.64 -5.68191 0.338807 0
M  V30 36449 N 3396.85 -5.59245 -1.55644 0
M  V30 36450 H 3399.61 -2.69791 1.3051 0
M  V30 36451 H 3397.17 -1.38817 0.833162 0
M  V30 36452 H 3399.16 -3.94639 -0.896762 0
M  V30 36453 H 3397.73 -2.91169 -1.13752 0
M  V30 36454 H 3396.95 -3.75463 1.20088 0
M  V30 36455 H 3398.24 -4.96806 1.09823 0
M  V30 36456 H 3397.64 -5.26504 -2.06906 0
M  V30 36457 H 3396.2 -6.1964 -2.02212 0
M  V30 36458 N 3399.63 -0.731417 -1.396 0
M  V30 36459 C 3400.56 -0.104141 -2.33268 0
M  V30 36460 C 3401.54 0.728191 -1.53725 0
M  V30 36461 O 3402.73 0.673901 -1.82132 0
M  V30 36462 C 3399.86 0.806586 -3.37804 0
M  V30 36463 C 3398.81 0.0786835 -4.27928 0
M  V30 36464 C 3398.14 1.10619 -5.23132 0
M  V30 36465 C 3399.44 -1.0766 -5.11084 0
M  V30 36466 H 3401.13 -0.886546 -2.85973 0
M  V30 36467 H 3398.68 -0.42777 -1.375 0
M  V30 36468 H 3400.63 1.25492 -4.02281 0
M  V30 36469 H 3399.35 1.62107 -2.83529 0
M  V30 36470 H 3398.01 -0.349991 -3.64926 0
M  V30 36471 H 3397.66 1.91414 -4.65156 0
M  V30 36472 H 3397.36 0.62394 -5.84278 0
M  V30 36473 H 3398.88 1.5543 -5.90486 0
M  V30 36474 H 3400.3 -0.706881 -5.68925 0
M  V30 36475 H 3398.69 -1.48825 -5.81353 0
M  V30 36476 H 3399.76 -1.89996 -4.46127 0
M  V30 36477 N 3401.11 1.50152 -0.478778 0
M  V30 36478 C 3402.36 2.01967 0.0734042 0
M  V30 36479 C 3402.68 1.36231 1.39521 0
M  V30 36480 O 3401.95 0.510183 1.8914 0
M  V30 36481 H 3400.53 0.746393 0.0301174 0
M  V30 36482 H 3403.19 1.84404 -0.630954 0
M  V30 36483 H 3402.29 3.11328 0.219315 0
M  V30 36484 N 3402.59 0.211689 1.56172 0
M  V30 36485 C 3403.81 -0.427807 2.02429 0
M  V30 36486 C 3404.23 -1.54041 1.09165 0
M  V30 36487 O 3403.59 -1.82229 0.0994569 0
M  V30 36488 C 3403.64 -0.968666 3.4828 0
M  V30 36489 O 3403.36 0.0995611 4.37987 0
M  V30 36490 C 3404.86 -1.68239 4.10135 0
M  V30 36491 H 3402.08 -0.105758 0.662613 0
M  V30 36492 H 3404.62 0.325256 2.01897 0
M  V30 36493 H 3402.78 -1.67204 3.49459 0
M  V30 36494 H 3403.19 -0.305466 5.2361 0
M  V30 36495 H 3404.67 -2.01295 5.13989 0
M  V30 36496 H 3405.14 -2.59204 3.54556 0
M  V30 36497 H 3405.75 -1.02446 4.12777 0
M  V30 36498 N 3404.06 -1.57479 -0.0617887 0
M  V30 36499 C 3405.29 -1.9197 -0.771691 0
M  V30 36500 C 3405.71 -0.808579 -1.70609 0
M  V30 36501 O 3405.06 0.217423 -1.812 0
M  V30 36502 C 3405.12 -3.2626 -1.55681 0
M  V30 36503 O 3404.84 -4.33101 -0.659956 0
M  V30 36504 C 3406.34 -3.74829 -2.36682 0
M  V30 36505 H 3403.56 -0.634311 -0.218839 0
M  V30 36506 H 3406.1 -2.04479 -0.0290709 0
M  V30 36507 H 3404.26 -3.15248 -2.25161 0
M  V30 36508 H 3404.67 -5.10422 -1.20706 0
M  V30 36509 H 3406.14 -4.71395 -2.87212 0
M  V30 36510 H 3406.62 -3.04346 -3.16655 0
M  V30 36511 H 3407.23 -3.88818 -1.72339 0
M  V30 36512 N 3405.54 0.333401 -1.54033 0
M  V30 36513 C 3406.79 1.06997 -1.70981 0
M  V30 36514 C 3407.1 1.89488 -0.485129 0
M  V30 36515 O 3408.31 2.66161 -0.535759 0
M  V30 36516 C 3406.77 1.9517 -3.02385 0
M  V30 36517 C 3406.37 1.17837 -4.32225 0
M  V30 36518 C 3408.12 2.68622 -3.28698 0
M  V30 36519 C 3406.03 2.05099 -5.54697 0
M  V30 36520 H 3404.96 0.403168 -0.637159 0
M  V30 36521 H 3407.61 0.328808 -1.8053 0
M  V30 36522 H 3405.99 2.73146 -2.86718 0
M  V30 36523 H 3407.16 0.447008 -4.58627 0
M  V30 36524 H 3405.48 0.561093 -4.12602 0
M  V30 36525 H 3408.07 3.34199 -4.17391 0
M  V30 36526 H 3408.42 3.35734 -2.46147 0
M  V30 36527 H 3408.95 1.97714 -3.45187 0
M  V30 36528 H 3405.69 1.42512 -6.39821 0
M  V30 36529 H 3405.21 2.75996 -5.32528 0
M  V30 36530 H 3406.89 2.63915 -5.90726 0
M  V30 36531 N 3407.02 1.45939 0.594952 0
M  V30 36532 C 3408.25 1.54396 1.38479 0
M  V30 36533 C 3408.67 0.181596 1.87221 0
M  V30 36534 O 3408.03 -0.836091 1.6087 0
M  V30 36535 C 3408.08 2.54292 2.55672 0
M  V30 36536 O 3407.18 2.06947 3.56716 0
M  V30 36537 H 3406.52 0.520002 0.412909 0
M  V30 36538 H 3409.05 1.91405 0.722865 0
M  V30 36539 H 3409.06 2.73507 3.02751 0
M  V30 36540 H 3407.74 3.53232 2.19546 0
M  V30 36541 H 3406.31 1.97666 3.162 0
M  V30 36542 N 3408.5 -0.838547 1.3344 0
M  V30 36543 C 3409.75 -1.59382 1.24915 0
M  V30 36544 C 3410.07 -1.93618 -0.184983 0
M  V30 36545 O 3409.33 -1.58906 -1.14226 0
M  V30 36546 C 3409.63 -2.91347 2.07007 0
M  V30 36547 C 3409.29 -2.76471 3.56194 0
M  V30 36548 C 3407.96 -2.72122 3.96867 0
M  V30 36549 C 3410.31 -2.61253 4.50995 0
M  V30 36550 C 3407.64 -2.50454 5.30556 0
M  V30 36551 C 3409.99 -2.4112 5.84845 0
M  V30 36552 C 3408.65 -2.35172 6.247 0
M  V30 36553 H 3407.92 -0.58322 0.457095 0
M  V30 36554 H 3410.57 -0.971477 1.65029 0
M  V30 36555 H 3408.87 -3.57788 1.59671 0
M  V30 36556 H 3410.57 -3.48839 1.97768 0
M  V30 36557 H 3407.16 -2.80689 3.23901 0
M  V30 36558 H 3411.34 -2.63648 4.2048 0
M  V30 36559 H 3406.6 -2.44297 5.60472 0
M  V30 36560 H 3410.77 -2.28328 6.57905 0
M  V30 36561 H 3408.4 -2.18144 7.28229 0
M  V30 36562 N 3409.98 -1.16914 -1.05683 0
M  V30 36563 C 3410.89 -0.895838 -2.16822 0
M  V30 36564 C 3411.9 0.134185 -1.73482 0
M  V30 36565 O 3413.08 -0.0439129 -2.01352 0
M  V30 36566 C 3410.14 -0.407488 -3.44297 0
M  V30 36567 C 3409.2 -1.50349 -4.02111 0
M  V30 36568 C 3408.44 -1.03835 -5.23502 0
M  V30 36569 O 3408.66 0.109478 -5.70295 0
M  V30 36570 O 3407.59 -1.8293 -5.73428 0
M  V30 36571 H 3411.42 -1.82537 -2.42722 0
M  V30 36572 H 3409.01 -0.94961 -1.15338 0
M  V30 36573 H 3410.89 -0.14243 -4.21159 0
M  V30 36574 H 3409.56 0.493953 -3.19909 0
M  V30 36575 H 3408.47 -1.82237 -3.26712 0
M  V30 36576 H 3409.8 -2.38046 -4.30807 0
M  V30 36577 N 3411.45 1.24323 -0.968589 0
M  V30 36578 C 3412.87 1.44611 -0.675265 0
M  V30 36579 C 3413.07 1.86511 0.762608 0
M  V30 36580 O 3412.13 2.00377 1.5364 0
M  V30 36581 C 3413.44 2.5072 -1.66012 0
M  V30 36582 C 3414.99 2.64547 -1.67284 0
M  V30 36583 C 3415.46 3.73854 -2.64569 0
M  V30 36584 N 3416.95 3.81283 -2.63017 0
M  V30 36585 C 3417.69 4.65388 -3.34965 0
M  V30 36586 N 3417.18 5.53674 -4.16434 0
M  V30 36587 N 3418.98 4.59477 -3.23786 0
M  V30 36588 H 3411.13 0.954224 -1.89759 0
M  V30 36589 H 3413.39 0.480827 -0.817013 0
M  V30 36590 H 3413.1 2.26823 -2.68783 0
M  V30 36591 H 3412.97 3.48895 -1.43359 0
M  V30 36592 H 3415.36 2.87802 -0.652235 0
M  V30 36593 H 3415.44 1.66726 -1.94 0
M  V30 36594 H 3415.08 3.51349 -3.66765 0
M  V30 36595 H 3415.01 4.7119 -2.35133 0
M  V30 36596 H 3417.5 3.18183 -2.03883 0
M  V30 36597 H 3417.82 6.1481 -4.68218 0
M  V30 36598 H 3416.16 5.53336 -4.20528 0
M  V30 36599 H 3419.35 3.89519 -2.596 0
M  V30 36600 H 3419.53 5.24797 -3.80121 0
M  V30 36601 N 3412.93 0.73881 1.3921 0
M  V30 36602 C 3414.18 0.285289 1.99672 0
M  V30 36603 C 3414.49 -1.13504 1.59299 0
M  V30 36604 O 3415.7 -1.68828 2.12625 0
M  V30 36605 C 3414.16 0.459123 3.56959 0
M  V30 36606 C 3413.76 1.88759 4.06293 0
M  V30 36607 C 3415.51 0.06757 4.24446 0
M  V30 36608 C 3413.42 2.01077 5.56167 0
M  V30 36609 H 3412.35 0.102914 0.746944 0
M  V30 36610 H 3415 0.913237 1.59161 0
M  V30 36611 H 3413.38 -0.237781 3.95285 0
M  V30 36612 H 3414.55 2.61675 3.79292 0
M  V30 36613 H 3412.87 2.2327 3.51482 0
M  V30 36614 H 3415.46 0.138569 5.3452 0
M  V30 36615 H 3415.81 -0.977751 4.04655 0
M  V30 36616 H 3416.34 0.715773 3.91307 0
M  V30 36617 H 3413.08 3.03811 5.80843 0
M  V30 36618 H 3412.6 1.32602 5.84959 0
M  V30 36619 H 3414.28 1.79373 6.21638 0
M  V30 36620 N 3414.41 -1.49895 0.486734 0
M  V30 36621 C 3415.36 -2.30483 -0.313116 0
M  V30 36622 C 3416.35 -1.38457 -0.976019 0
M  V30 36623 O 3417.56 -1.55575 -0.905336 0
M  V30 36624 H 3413.93 -0.742392 -0.119826 0
M  V30 36625 H 3415.9 -2.95883 0.386753 0
M  V30 36626 C 3414.65 -3.19431 -1.37328 0
M  V30 36627 H 3413.98 -3.90162 -0.872581 0
M  V30 36628 H 3415.42 -3.78785 -1.9052 0
M  V30 36629 C 3413.88 -2.38075 -2.38374 0
M  V30 36630 O 3414.41 -2.07482 -3.43968 0
M  V30 36631 N 3412.61 -2.00363 -2.10483 0
M  V30 36632 H 3412.16 -2.25442 -1.24635 0
M  V30 36633 H 3412.12 -1.46234 -2.78322 0
M  V30 36634 N 3415.89 -0.219968 -1.56057 0
M  V30 36635 C 3417.17 0.461087 -1.90088 0
M  V30 36636 C 3417.55 1.77859 -1.13708 0
M  V30 36637 O 3416.89 2.27173 -0.245908 0
M  V30 36638 C 3417.1 0.655584 -3.42787 0
M  V30 36639 C 3418.45 0.96373 -4.13518 0
M  V30 36640 O 3419.48 0.742427 -3.48377 0
M  V30 36641 O 3418.34 1.38365 -5.28694 0
M  V30 36642 H 3415.43 0.243581 -0.790315 0
M  V30 36643 H 3417.98 -0.262035 -1.67665 0
M  V30 36644 H 3416.75 -0.273807 -3.90341 0
M  V30 36645 H 3416.37 1.43025 -3.70985 0
M  V30 36646 N 3417.37 1.57509 0.0534363 0
M  V30 36647 C 3418.62 1.87318 0.747983 0
M  V30 36648 C 3418.93 0.815192 1.77803 0
M  V30 36649 O 3420.14 1.00171 2.52345 0
M  V30 36650 C 3418.59 3.32337 1.38131 0
M  V30 36651 C 3418.2 4.46309 0.388879 0
M  V30 36652 C 3419.94 3.71324 2.05715 0
M  V30 36653 C 3417.85 5.82376 1.02917 0
M  V30 36654 H 3416.78 0.698831 0.283111 0
M  V30 36655 H 3419.43 1.835 0.00167497 0
M  V30 36656 H 3417.81 3.30823 2.17651 0
M  V30 36657 H 3418.99 4.59248 -0.377833 0
M  V30 36658 H 3417.3 4.15995 -0.18352 0
M  V30 36659 H 3419.9 4.70287 2.54429 0
M  V30 36660 H 3420.24 3.02061 2.8647 0
M  V30 36661 H 3420.78 3.74907 1.33003 0
M  V30 36662 H 3417.51 6.54978 0.261559 0
M  V30 36663 H 3417.03 5.73203 1.7663 0
M  V30 36664 H 3418.71 6.28315 1.54367 0
M  V30 36665 N 3418.85 -0.325228 1.54208 0
M  V30 36666 C 3419.78 -1.4054 1.86469 0
M  V30 36667 C 3420.76 -1.54047 0.721351 0
M  V30 36668 O 3421.94 -1.67954 0.974935 0
M  V30 36669 C 3419.07 -2.77331 2.09057 0
M  V30 36670 C 3418.03 -2.78614 3.24898 0
M  V30 36671 C 3417.35 -4.18465 3.32854 0
M  V30 36672 C 3418.65 -2.4251 4.62587 0
M  V30 36673 H 3420.35 -1.13789 2.76934 0
M  V30 36674 H 3417.89 -0.545948 1.33249 0
M  V30 36675 H 3419.84 -3.5296 2.30211 0
M  V30 36676 H 3418.57 -3.05556 1.1534 0
M  V30 36677 H 3417.23 -2.05439 3.03629 0
M  V30 36678 H 3416.88 -4.43828 2.36698 0
M  V30 36679 H 3416.58 -4.20229 4.10708 0
M  V30 36680 H 3418.1 -4.95909 3.5624 0
M  V30 36681 H 3419.51 -3.07852 4.83632 0
M  V30 36682 H 3417.91 -2.55528 5.42978 0
M  V30 36683 H 3418.98 -1.37662 4.64949 0
M  V30 36684 N 3420.32 -1.46252 -0.587204 0
M  V30 36685 C 3421.23 -1.59052 -1.72452 0
M  V30 36686 C 3422.25 -0.47416 -1.67415 0
M  V30 36687 O 3423.43 -0.737666 -1.87405 0
M  V30 36688 C 3420.49 -1.57324 -3.0895 0
M  V30 36689 C 3419.55 -2.80156 -3.25286 0
M  V30 36690 C 3418.78 -2.78501 -4.55272 0
M  V30 36691 O 3419.01 -1.86989 -5.3888 0
M  V30 36692 O 3417.94 -3.69983 -4.74759 0
M  V30 36693 H 3421.77 -2.55225 -1.64602 0
M  V30 36694 H 3419.35 -1.28994 -0.75372 0
M  V30 36695 H 3421.23 -1.5904 -3.90236 0
M  V30 36696 H 3419.91 -0.643081 -3.17248 0
M  V30 36697 H 3418.82 -2.83996 -2.4351 0
M  V30 36698 H 3420.15 -3.72366 -3.21877 0
M  V30 36699 N 3421.8 0.831459 -1.33883 0
M  V30 36700 C 3422.75 1.93047 -1.21314 0
M  V30 36701 C 3423.74 1.60494 -0.114227 0
M  V30 36702 O 3424.93 1.73644 -0.343058 0
M  V30 36703 C 3422.06 3.29543 -0.962092 0
M  V30 36704 C 3421.14 3.68242 -2.10378 0
M  V30 36705 N 3421.53 3.78573 -3.35434 0
M  V30 36706 C 3419.83 3.98032 -2.01213 0
M  V30 36707 C 3420.53 4.12288 -4.10358 0
M  V30 36708 N 3419.51 4.25053 -3.38867 0
M  V30 36709 H 3423.31 1.99201 -2.16093 0
M  V30 36710 H 3420.82 1.02462 -1.25997 0
M  V30 36711 H 3422.82 4.08081 -0.852967 0
M  V30 36712 H 3421.48 3.24692 -0.0228993 0
M  V30 36713 H 3422.49 3.62288 -3.70091 0
M  V30 36714 H 3419.17 4.0135 -1.14998 0
M  V30 36715 H 3420.56 4.27557 -5.1831 0
M  V30 36716 N 3423.28 1.17472 1.05062 0
M  V30 36717 C 3424.53 0.965342 1.78351 0
M  V30 36718 C 3424.86 -0.504674 1.87528 0
M  V30 36719 O 3424.13 -1.37463 1.37602 0
M  V30 36720 C 3424.42 1.60868 3.2217 0
M  V30 36721 C 3424.27 3.15088 3.20997 0
M  V30 36722 C 3425.59 1.31365 4.20037 0
M  V30 36723 H 3422.71 0.352113 0.647445 0
M  V30 36724 H 3425.35 1.44991 1.22791 0
M  V30 36725 H 3423.5 1.19665 3.69611 0
M  V30 36726 H 3425.17 3.65358 2.81622 0
M  V30 36727 H 3423.41 3.47771 2.59303 0
M  V30 36728 H 3424.09 3.55232 4.2251 0
M  V30 36729 H 3426.56 1.67047 3.81096 0
M  V30 36730 H 3425.44 1.78962 5.18906 0
M  V30 36731 H 3425.7 0.234684 4.41477 0
M  V30 36732 N 3424.76 -1.23807 0.975168 0
M  V30 36733 C 3425.7 -2.25077 0.510801 0
M  V30 36734 C 3426.67 -1.59956 -0.447577 0
M  V30 36735 O 3427.86 -1.87444 -0.356285 0
M  V30 36736 C 3425 -3.446 -0.185694 0
M  V30 36737 C 3424.11 -4.24294 0.812329 0
M  V30 36738 C 3423.25 -5.31122 0.0911769 0
M  V30 36739 C 3422.29 -6.02519 1.07876 0
M  V30 36740 N 3421.42 -7.01032 0.387118 0
M  V30 36741 H 3426.26 -2.64164 1.37918 0
M  V30 36742 H 3423.8 -1.29849 0.691207 0
M  V30 36743 H 3425.76 -4.12771 -0.606269 0
M  V30 36744 H 3424.39 -3.06328 -1.01798 0
M  V30 36745 H 3423.44 -3.55589 1.35131 0
M  V30 36746 H 3424.75 -4.73609 1.5651 0
M  V30 36747 H 3423.91 -6.05464 -0.387023 0
M  V30 36748 H 3422.65 -4.82733 -0.694239 0
M  V30 36749 H 3421.65 -5.26974 1.56777 0
M  V30 36750 H 3422.88 -6.52996 1.86475 0
M  V30 36751 H 3420.82 -6.54903 -0.379185 0
M  V30 36752 H 3420.74 -7.48266 1.07864 0
M  V30 36753 H 3422.01 -7.7947 -0.0688666 0
M  V30 36754 N 3426.24 -0.746182 -1.38816 0
M  V30 36755 C 3427.19 -0.0894021 -2.27825 0
M  V30 36756 C 3428.17 0.700987 -1.44827 0
M  V30 36757 O 3429.36 0.568159 -1.67633 0
M  V30 36758 C 3426.49 0.808623 -3.33641 0
M  V30 36759 C 3425.58 0.0117836 -4.24098 0
M  V30 36760 N 3425.97 -1.02083 -4.95391 0
M  V30 36761 C 3424.27 0.239737 -4.45355 0
M  V30 36762 C 3424.97 -1.5023 -5.61966 0
M  V30 36763 N 3423.94 -0.818911 -5.37396 0
M  V30 36764 H 3427.74 -0.880379 -2.80404 0
M  V30 36765 H 3425.26 -0.581538 -1.51631 0
M  V30 36766 H 3427.26 1.29471 -3.96286 0
M  V30 36767 H 3425.92 1.59863 -2.82619 0
M  V30 36768 H 3426.93 -1.40246 -4.98549 0
M  V30 36769 H 3423.6 1.00367 -4.05256 0
M  V30 36770 H 3424.99 -2.36203 -6.29013 0
M  V30 36771 N 3427.71 1.49635 -0.494676 0
M  V30 36772 C 3428.96 2.02433 0.0520817 0
M  V30 36773 C 3429.29 1.37488 1.37577 0
M  V30 36774 O 3428.54 0.497571 1.89269 0
M  V30 36775 C 3428.84 3.56455 0.25968 0
M  V30 36776 C 3428.51 4.40005 -0.98522 0
M  V30 36777 C 3427.17 4.62556 -1.32648 0
M  V30 36778 C 3429.52 4.88651 -1.813 0
M  V30 36779 C 3426.85 5.30998 -2.49515 0
M  V30 36780 C 3429.2 5.58379 -2.97315 0
M  V30 36781 C 3427.87 5.79177 -3.31828 0
M  V30 36782 H 3427.14 0.740755 0.019058 0
M  V30 36783 H 3429.78 1.80003 -0.65355 0
M  V30 36784 H 3428.09 3.7753 1.04778 0
M  V30 36785 H 3429.79 3.94895 0.697077 0
M  V30 36786 H 3426.38 4.22689 -0.709387 0
M  V30 36787 H 3430.56 4.71062 -1.5625 0
M  V30 36788 H 3425.82 5.45305 -2.76501 0
M  V30 36789 H 3429.99 5.95049 -3.61787 0
M  V30 36790 H 3427.62 6.31986 -4.22489 0
M  V30 36791 N 3429.19 0.228241 1.55939 0
M  V30 36792 C 3430.44 -0.402237 1.98771 0
M  V30 36793 C 3430.77 -1.58938 1.1159 0
M  V30 36794 O 3430.05 -1.93711 0.175067 0
M  V30 36795 C 3430.33 -0.830291 3.50397 0
M  V30 36796 C 3430.18 0.360954 4.48349 0
M  V30 36797 C 3431.5 -1.68405 4.06605 0
M  V30 36798 H 3428.62 -0.144733 0.722649 0
M  V30 36799 H 3431.26 0.325817 1.87186 0
M  V30 36800 H 3429.41 -1.45064 3.60401 0
M  V30 36801 H 3431.08 0.999193 4.50349 0
M  V30 36802 H 3429.33 1.00726 4.21944 0
M  V30 36803 H 3430 0.0184045 5.51997 0
M  V30 36804 H 3432.47 -1.16057 3.99587 0
M  V30 36805 H 3431.35 -1.95245 5.13001 0
M  V30 36806 H 3431.61 -2.64964 3.53901 0
M  V30 36807 N 3430.67 -1.57536 -0.0450825 0
M  V30 36808 C 3431.92 -1.87712 -0.738039 0
M  V30 36809 C 3432.23 -0.82461 -1.77368 0
M  V30 36810 O 3433.44 -1.01508 -2.5181 0
M  V30 36811 C 3431.89 -3.33065 -1.36367 0
M  V30 36812 C 3431.5 -4.46509 -0.365205 0
M  V30 36813 C 3433.25 -3.7241 -2.03743 0
M  V30 36814 C 3431.15 -5.82914 -0.998268 0
M  V30 36815 H 3430.08 -0.700322 -0.279401 0
M  V30 36816 H 3432.73 -1.83498 0.0080565 0
M  V30 36817 H 3431.12 -3.31973 -2.15893 0
M  V30 36818 H 3432.29 -4.59042 0.402183 0
M  V30 36819 H 3430.61 -4.15892 0.205578 0
M  V30 36820 H 3433.2 -4.7163 -2.51931 0
M  V30 36821 H 3433.55 -3.03576 -2.84864 0
M  V30 36822 H 3434.08 -3.75607 -1.31013 0
M  V30 36823 H 3430.82 -6.55107 -0.22682 0
M  V30 36824 H 3430.34 -5.74132 -1.73588 0
M  V30 36825 H 3432.02 -6.29125 -1.51033 0
M  V30 36826 N 3432.15 0.317045 -1.54378 0
M  V30 36827 C 3433.1 1.41054 -1.8495 0
M  V30 36828 C 3434.09 1.53247 -0.721914 0
M  V30 36829 O 3435.3 1.55556 -0.905675 0
M  V30 36830 H 3431.67 0.470834 -0.586361 0
M  V30 36831 H 3433.64 1.12496 -2.76382 0
M  V30 36832 C 3432.39 2.77168 -2.09937 0
M  V30 36833 H 3431.71 2.68561 -2.96167 0
M  V30 36834 H 3433.15 3.52733 -2.35278 0
M  V30 36835 C 3431.61 3.24852 -0.892912 0
M  V30 36836 O 3432.14 4.01562 -0.105407 0
M  V30 36837 N 3430.35 2.81975 -0.702735 0
M  V30 36838 H 3429.9 2.19712 -1.34478 0
M  V30 36839 H 3429.85 3.14231 0.102969 0
M  V30 36840 N 3433.63 1.46561 0.57944 0
M  V30 36841 C 3434.56 1.60236 1.69843 0
M  V30 36842 C 3435.54 0.452562 1.63969 0
M  V30 36843 O 3436.72 0.679206 1.81935 0
M  V30 36844 C 3433.85 1.59543 3.08485 0
M  V30 36845 C 3432.81 2.73526 3.29193 0
M  V30 36846 C 3432.13 2.57896 4.68395 0
M  V30 36847 C 3433.43 4.15321 3.16711 0
M  V30 36848 H 3435.13 2.53907 1.58656 0
M  V30 36849 H 3432.67 1.22196 0.761852 0
M  V30 36850 H 3434.63 1.67703 3.86592 0
M  V30 36851 H 3433.35 0.624186 3.2058 0
M  V30 36852 H 3432.01 2.6484 2.53486 0
M  V30 36853 H 3431.66 1.58847 4.77259 0
M  V30 36854 H 3431.36 3.34349 4.83202 0
M  V30 36855 H 3432.88 2.67951 5.48666 0
M  V30 36856 H 3434.29 4.251 3.84659 0
M  V30 36857 H 3432.69 4.92387 3.43038 0
M  V30 36858 H 3433.76 4.35247 2.13747 0
M  V30 36859 N 3435.1 -0.824347 1.34322 0
M  V30 36860 C 3436.35 -1.5755 1.2594 0
M  V30 36861 C 3436.67 -1.94866 -0.169264 0
M  V30 36862 O 3437.87 -2.68895 -0.375214 0
M  V30 36863 C 3436.33 -2.8424 2.20762 0
M  V30 36864 C 3435.94 -2.5423 3.68878 0
M  V30 36865 C 3437.68 -3.62261 2.21285 0
M  V30 36866 C 3435.59 -3.77105 4.55572 0
M  V30 36867 H 3434.52 -0.591303 0.467843 0
M  V30 36868 H 3437.17 -0.907696 1.59478 0
M  V30 36869 H 3435.55 -3.52638 1.80174 0
M  V30 36870 H 3436.72 -1.93952 4.17994 0
M  V30 36871 H 3435.04 -1.89487 3.70788 0
M  V30 36872 H 3437.64 -4.53494 2.8328 0
M  V30 36873 H 3437.98 -3.98274 1.21177 0
M  V30 36874 H 3438.51 -3.00805 2.6031 0
M  V30 36875 H 3435.25 -3.46214 5.56612 0
M  V30 36876 H 3434.77 -4.36671 4.11192 0
M  V30 36877 H 3436.45 -4.4453 4.70108 0
M  V30 36878 N 3436.58 -1.18028 -1.04437 0
M  V30 36879 C 3437.83 -0.971423 -1.77222 0
M  V30 36880 C 3438.15 0.50053 -1.88467 0
M  V30 36881 O 3437.42 1.36315 -1.40695 0
M  V30 36882 H 3436 -0.356433 -0.656479 0
M  V30 36883 H 3438.66 -1.48642 -1.26062 0
M  V30 36884 H 3437.76 -1.40625 -2.78623 0
M  V30 36885 N 3438.06 1.23288 -0.98172 0
M  V30 36886 C 3439.34 1.87181 -0.567692 0
M  V30 36887 C 3439.72 1.88255 0.955161 0
M  V30 36888 O 3439.07 1.36508 1.83243 0
M  V30 36889 C 3439.28 3.28616 -1.17527 0
M  V30 36890 C 3440.62 4.05198 -1.26884 0
M  V30 36891 O 3441.65 3.3784 -1.12883 0
M  V30 36892 O 3440.51 5.25747 -1.49173 0
M  V30 36893 H 3437.6 0.804563 -0.191329 0
M  V30 36894 H 3440.15 1.31153 -1.07689 0
M  V30 36895 H 3438.92 3.22407 -2.21741 0
M  V30 36896 H 3438.54 3.92235 -0.650982 0
M  V30 36897 N 3439.54 0.753533 1.38418 0
M  V30 36898 C 3440.79 0.309668 2.00118 0
M  V30 36899 C 3441.11 -1.1086 1.59813 0
M  V30 36900 O 3440.37 -1.77365 0.827044 0
M  V30 36901 C 3440.67 0.38 3.55374 0
M  V30 36902 C 3440.33 1.75391 4.1539 0
M  V30 36903 C 3439 2.12992 4.31495 0
M  V30 36904 C 3441.35 2.65516 4.48498 0
M  V30 36905 C 3438.68 3.40189 4.78005 0
M  V30 36906 C 3441.03 3.92104 4.96425 0
M  V30 36907 C 3439.69 4.29773 5.10736 0
M  V30 36908 H 3438.96 0.113315 0.732285 0
M  V30 36909 H 3441.61 0.964004 1.65467 0
M  V30 36910 H 3439.91 -0.3579 3.90162 0
M  V30 36911 H 3441.61 0.0181442 4.00996 0
M  V30 36912 H 3438.2 1.45163 4.03269 0
M  V30 36913 H 3442.38 2.37732 4.35657 0
M  V30 36914 H 3437.64 3.69293 4.87271 0
M  V30 36915 H 3441.81 4.62081 5.21013 0
M  V30 36916 H 3439.44 5.28396 5.46536 0
M  V30 36917 N 3441.02 -1.49371 0.502605 0
M  V30 36918 C 3441.93 -2.32929 -0.279491 0
M  V30 36919 C 3442.94 -1.44737 -0.965781 0
M  V30 36920 O 3444.12 -1.77757 -0.946808 0
M  V30 36921 C 3441.18 -3.20213 -1.32907 0
M  V30 36922 C 3440.24 -4.24258 -0.656047 0
M  V30 36923 C 3439.48 -5.07371 -1.65562 0
M  V30 36924 O 3439.7 -4.92024 -2.88562 0
M  V30 36925 O 3438.63 -5.89611 -1.21006 0
M  V30 36926 H 3442.46 -3.00994 0.40448 0
M  V30 36927 H 3440.05 -1.47051 0.263914 0
M  V30 36928 H 3441.93 -3.74281 -1.93628 0
M  V30 36929 H 3440.6 -2.54841 -1.99594 0
M  V30 36930 H 3439.51 -3.74099 -0.00904913 0
M  V30 36931 H 3440.84 -4.9219 -0.0315937 0
M  V30 36932 N 3442.49 -0.236508 -1.55815 0
M  V30 36933 C 3443.74 0.39169 -1.98981 0
M  V30 36934 C 3444.07 1.58344 -1.12431 0
M  V30 36935 O 3443.35 1.93615 -0.185337 0
M  V30 36936 C 3443.63 0.811697 -3.50833 0
M  V30 36937 C 3443.48 -0.384726 -4.48152 0
M  V30 36938 C 3444.8 1.66247 -4.07492 0
M  V30 36939 H 3441.92 0.140899 -0.723406 0
M  V30 36940 H 3444.56 -0.335739 -1.8701 0
M  V30 36941 H 3442.71 1.43151 -3.61165 0
M  V30 36942 H 3444.39 -1.02306 -4.49812 0
M  V30 36943 H 3442.63 -1.02963 -4.21404 0
M  V30 36944 H 3443.3 -0.047678 -5.51979 0
M  V30 36945 H 3445.78 1.13936 -4.00197 0
M  V30 36946 H 3444.65 1.92522 -5.1403 0
M  V30 36947 H 3444.91 2.63084 -3.55302 0
M  V30 36948 N 3443.97 1.57557 0.0367273 0
M  V30 36949 C 3444.94 2.05038 1.02431 0
M  V30 36950 C 3445.94 0.953169 1.29504 0
M  V30 36951 O 3447.13 1.21702 1.24636 0
M  V30 36952 C 3444.26 2.46083 2.35915 0
M  V30 36953 H 3445.45 2.9354 0.614333 0
M  V30 36954 H 3443 1.5371 0.283369 0
M  V30 36955 H 3443.74 1.60713 2.81677 0
M  V30 36956 H 3443.52 3.26181 2.17597 0
M  V30 36957 H 3445.01 2.83271 3.06834 0
M  V30 36958 N 3445.45 -0.308854 1.54544 0
M  V30 36959 C 3446.36 -1.40337 1.87996 0
M  V30 36960 C 3447.38 -1.55871 0.773321 0
M  V30 36961 O 3448.55 -1.70686 1.06903 0
M  V30 36962 C 3445.62 -2.74834 2.11346 0
M  V30 36963 C 3444.68 -2.68352 3.3509 0
M  V30 36964 C 3443.91 -3.96435 3.57316 0
M  V30 36965 O 3444.14 -4.95416 2.82701 0
M  V30 36966 O 3443.07 -3.98803 4.50821 0
M  V30 36967 H 3446.9 -1.14971 2.81097 0
M  V30 36968 H 3444.48 -0.504211 1.40635 0
M  V30 36969 H 3446.36 -3.54425 2.27949 0
M  V30 36970 H 3445.04 -3.0006 1.21432 0
M  V30 36971 H 3443.94 -1.87261 3.23858 0
M  V30 36972 H 3445.28 -2.4808 4.25108 0
M  V30 36973 N 3446.93 -1.46867 -0.571659 0
M  V30 36974 C 3447.88 -1.58266 -1.6799 0
M  V30 36975 C 3448.85 -0.426373 -1.60534 0
M  V30 36976 O 3450.03 -0.644566 -1.79583 0
M  V30 36977 C 3447.17 -1.58932 -3.06324 0
M  V30 36978 C 3446.28 -2.85374 -3.24323 0
M  V30 36979 C 3445.42 -2.77472 -4.52971 0
M  V30 36980 C 3444.46 -3.98803 -4.64352 0
M  V30 36981 N 3443.6 -3.89221 -5.84338 0
M  V30 36982 H 3448.44 -2.52925 -1.57584 0
M  V30 36983 H 3445.97 -1.25468 -0.767861 0
M  V30 36984 H 3447.93 -1.57303 -3.86409 0
M  V30 36985 H 3446.56 -0.677968 -3.156 0
M  V30 36986 H 3445.61 -2.96935 -2.37768 0
M  V30 36987 H 3446.92 -3.75266 -3.28599 0
M  V30 36988 H 3446.08 -2.7401 -5.41298 0
M  V30 36989 H 3444.82 -1.85239 -4.51152 0
M  V30 36990 H 3443.82 -4.02585 -3.7444 0
M  V30 36991 H 3445.05 -4.92146 -4.67942 0
M  V30 36992 H 3442.99 -2.99782 -5.83495 0
M  V30 36993 H 3442.91 -4.72778 -5.8993 0
M  V30 36994 H 3444.18 -3.89753 -6.75065 0
M  V30 36995 N 3448.41 0.817212 -1.34757 0
M  V30 36996 C 3449.66 1.5688 -1.26774 0
M  V30 36997 C 3449.97 1.94953 0.158928 0
M  V30 36998 O 3451.18 2.6909 0.360949 0
M  V30 36999 C 3449.63 2.83065 -2.22266 0
M  V30 37000 C 3449.24 2.52271 -3.70221 0
M  V30 37001 C 3450.98 3.61082 -2.23203 0
M  V30 37002 C 3448.89 3.74683 -4.57566 0
M  V30 37003 H 3447.82 0.588814 -0.470972 0
M  V30 37004 H 3450.47 0.899226 -1.59957 0
M  V30 37005 H 3448.85 3.51677 -1.82042 0
M  V30 37006 H 3450.03 1.91733 -4.19017 0
M  V30 37007 H 3448.34 1.87518 -3.71787 0
M  V30 37008 H 3450.94 4.51985 -2.85681 0
M  V30 37009 H 3451.28 3.97625 -1.23287 0
M  V30 37010 H 3451.82 2.9942 -2.61902 0
M  V30 37011 H 3448.55 3.43257 -5.5844 0
M  V30 37012 H 3448.07 4.34484 -4.13502 0
M  V30 37013 H 3449.75 4.42031 -4.72459 0
M  V30 37014 N 3449.89 1.1858 1.0381 0
M  V30 37015 C 3450.83 0.911601 2.13992 0
M  V30 37016 C 3451.83 -0.129101 1.68907 0
M  V30 37017 O 3453.03 0.0192873 1.7999 0
M  V30 37018 H 3449.41 0.277336 0.698991 0
M  V30 37019 H 3451.38 1.84767 2.34315 0
M  V30 37020 C 3450.13 0.456651 3.44688 0
M  V30 37021 H 3449.45 1.24896 3.79791 0
M  V30 37022 H 3450.89 0.303813 4.2291 0
M  V30 37023 C 3449.35 -0.827903 3.26569 0
M  V30 37024 O 3449.88 -1.89151 3.54379 0
M  V30 37025 N 3448.09 -0.781518 2.79894 0
M  V30 37026 H 3447.63 0.0842598 2.57462 0
M  V30 37027 H 3447.59 -1.64141 2.68151 0
M  V30 37028 N 3451.36 -1.22766 0.988245 0
M  V30 37029 C 3452.33 -2.22752 0.539852 0
M  V30 37030 C 3453.33 -1.56372 -0.374769 0
M  V30 37031 O 3454.52 -1.73394 -0.167371 0
M  V30 37032 C 3451.65 -3.40219 -0.215402 0
M  V30 37033 H 3452.84 -2.63935 1.42402 0
M  V30 37034 H 3450.39 -1.35735 0.774957 0
M  V30 37035 H 3451.13 -3.04502 -1.11576 0
M  V30 37036 H 3450.91 -3.89609 0.441241 0
M  V30 37037 H 3452.4 -4.14382 -0.517444 0
M  V30 37038 N 3452.84 -0.760864 -1.38017 0
M  V30 37039 C 3454.09 -0.320276 -1.99951 0
M  V30 37040 C 3454.42 1.10011 -1.60399 0
M  V30 37041 O 3453.67 1.76924 -0.836439 0
M  V30 37042 C 3453.97 -0.398841 -3.55168 0
M  V30 37043 C 3453.64 -1.77592 -4.14454 0
M  V30 37044 C 3452.3 -2.15277 -4.3036 0
M  V30 37045 C 3454.65 -2.67891 -4.47084 0
M  V30 37046 C 3451.98 -3.42719 -4.76194 0
M  V30 37047 C 3454.33 -3.94731 -4.94338 0
M  V30 37048 C 3452.99 -4.32475 -5.0845 0
M  V30 37049 H 3452.26 -0.117197 -0.731673 0
M  V30 37050 H 3454.91 -0.972765 -1.64953 0
M  V30 37051 H 3453.22 0.337204 -3.90346 0
M  V30 37052 H 3454.91 -0.0394098 -4.00981 0
M  V30 37053 H 3451.5 -1.47299 -4.02493 0
M  V30 37054 H 3455.69 -2.40039 -4.3439 0
M  V30 37055 H 3450.94 -3.71871 -4.85306 0
M  V30 37056 H 3455.12 -4.64838 -5.18555 0
M  V30 37057 H 3452.74 -5.31287 -5.43726 0
M  V30 37058 N 3454.32 1.49102 -0.510519 0
M  V30 37059 C 3455.74 1.58723 -0.167089 0
M  V30 37060 C 3455.94 1.51473 1.32884 0
M  V30 37061 O 3454.99 1.39363 2.10557 0
M  V30 37062 C 3456.3 2.91136 -0.752344 0
M  V30 37063 C 3457.85 3.04623 -0.719311 0
M  V30 37064 C 3458.33 4.39668 -1.2828 0
M  V30 37065 N 3459.82 4.46185 -1.24391 0
M  V30 37066 C 3460.55 5.49147 -1.65 0
M  V30 37067 N 3460.05 6.59164 -2.13247 0
M  V30 37068 N 3461.84 5.39916 -1.56357 0
M  V30 37069 H 3453.99 1.52057 -1.48298 0
M  V30 37070 H 3456.26 0.720849 -0.615696 0
M  V30 37071 H 3455.96 3.02038 -1.80183 0
M  V30 37072 H 3455.84 3.76568 -0.218218 0
M  V30 37073 H 3458.22 2.93345 0.321362 0
M  V30 37074 H 3458.3 2.2085 -1.29069 0
M  V30 37075 H 3457.95 4.51699 -2.3223 0
M  V30 37076 H 3457.88 5.22096 -0.687271 0
M  V30 37077 H 3460.37 3.67258 -0.89051 0
M  V30 37078 H 3460.68 7.3384 -2.42278 0
M  V30 37079 H 3459.03 6.6018 -2.17228 0
M  V30 37080 H 3462.22 4.52859 -1.18477 0
M  V30 37081 H 3462.39 6.2003 -1.88328 0
M  V30 37082 N 3455.8 0.244768 1.55688 0
M  V30 37083 C 3456.76 -0.642344 2.20015 0
M  V30 37084 C 3457.76 -1.10435 1.16879 0
M  V30 37085 O 3458.95 -1.00941 1.41974 0
M  V30 37086 C 3456.08 -1.88262 2.84201 0
M  V30 37087 H 3457.28 -0.081141 2.9979 0
M  V30 37088 H 3454.83 -0.0047817 1.56299 0
M  V30 37089 H 3455.56 -2.4851 2.08358 0
M  V30 37090 H 3455.35 -1.55956 3.5975 0
M  V30 37091 H 3456.84 -2.51414 3.33438 0
M  V30 37092 N 3457.28 -1.57574 -0.0283712 0
M  V30 37093 C 3458.22 -2.06603 -1.02877 0
M  V30 37094 C 3459.19 -0.955332 -1.35877 0
M  V30 37095 O 3460.38 -1.22594 -1.46203 0
M  V30 37096 C 3457.52 -2.55077 -2.32443 0
M  V30 37097 C 3456.63 -3.7994 -2.05595 0
M  V30 37098 C 3455.77 -4.17024 -3.29036 0
M  V30 37099 C 3454.8 -5.34803 -2.97746 0
M  V30 37100 N 3453.94 -5.67315 -4.1364 0
M  V30 37101 H 3458.78 -2.91821 -0.603721 0
M  V30 37102 H 3456.32 -1.44283 -0.286478 0
M  V30 37103 H 3458.28 -2.81249 -3.08147 0
M  V30 37104 H 3456.91 -1.72776 -2.72669 0
M  V30 37105 H 3455.96 -3.60849 -1.20384 0
M  V30 37106 H 3457.27 -4.65762 -1.78514 0
M  V30 37107 H 3456.42 -4.44328 -4.13107 0
M  V30 37108 H 3455.16 -3.29855 -3.59231 0
M  V30 37109 H 3454.17 -5.07251 -2.12076 0
M  V30 37110 H 3455.39 -6.23625 -2.68828 0
M  V30 37111 H 3453.34 -4.83105 -4.43786 0
M  V30 37112 H 3453.26 -6.47648 -3.89985 0
M  V30 37113 H 3454.52 -5.99195 -4.98583 0
M  V30 37114 N 3458.75 0.300654 -1.54706 0
M  V30 37115 C 3460 1.03735 -1.74261 0
M  V30 37116 C 3460.33 1.86911 -0.527063 0
M  V30 37117 O 3459.61 1.8859 0.475828 0
M  V30 37118 C 3459.89 1.94305 -3.03179 0
M  V30 37119 C 3459.74 1.14307 -4.35033 0
M  V30 37120 C 3461.06 2.93472 -3.27967 0
M  V30 37121 H 3458.18 0.375719 -0.634038 0
M  V30 37122 H 3460.82 0.311979 -1.87421 0
M  V30 37123 H 3458.97 2.56155 -2.9209 0
M  V30 37124 H 3460.65 0.547408 -4.58041 0
M  V30 37125 H 3458.89 0.445794 -4.31503 0
M  V30 37126 H 3459.56 1.80931 -5.21505 0
M  V30 37127 H 3462.04 2.41751 -3.38668 0
M  V30 37128 H 3460.91 3.54008 -4.19487 0
M  V30 37129 H 3461.17 3.6715 -2.46279 0
M  V30 37130 N 3460.23 1.47168 0.563863 0
M  V30 37131 C 3461.18 1.55565 1.66684 0
M  V30 37132 C 3462.17 0.415051 1.55455 0
M  V30 37133 O 3463.36 0.664585 1.6405 0
M  V30 37134 C 3460.49 1.5667 3.05466 0
M  V30 37135 C 3459.57 2.76091 3.21924 0
M  V30 37136 N 3459.96 4.00849 3.0847 0
M  V30 37137 C 3458.26 2.72712 3.52908 0
M  V30 37138 C 3458.96 4.8079 3.27439 0
M  V30 37139 N 3457.94 4.12992 3.53466 0
M  V30 37140 H 3461.74 2.49803 1.54841 0
M  V30 37141 H 3459.26 1.43069 0.768435 0
M  V30 37142 H 3461.25 1.60775 3.84652 0
M  V30 37143 H 3459.91 0.63523 3.18426 0
M  V30 37144 H 3460.92 4.31811 2.85937 0
M  V30 37145 H 3457.6 1.88673 3.72436 0
M  V30 37146 H 3458.99 5.89683 3.22061 0
M  V30 37147 N 3461.71 -0.810054 1.35188 0
M  V30 37148 C 3462.62 -1.95334 1.2993 0
M  V30 37149 C 3463.64 -1.72791 0.204779 0
M  V30 37150 O 3464.81 -1.96678 0.433542 0
M  V30 37151 C 3461.88 -3.29859 1.06741 0
M  V30 37152 C 3460.94 -3.65322 2.25473 0
M  V30 37153 C 3460.17 -4.93428 2.03381 0
M  V30 37154 O 3460.39 -5.61592 0.998518 0
M  V30 37155 O 3459.33 -5.27069 2.90657 0
M  V30 37156 H 3463.15 -2.02717 2.2614 0
M  V30 37157 H 3460.74 -0.947334 1.15525 0
M  V30 37158 H 3462.62 -4.10402 0.956439 0
M  V30 37159 H 3461.3 -3.23415 0.135792 0
M  V30 37160 H 3460.2 -2.8517 2.42134 0
M  V30 37161 H 3461.54 -3.76467 3.1707 0
M  V30 37162 N 3463.19 -1.19129 -1.0318 0
M  V30 37163 C 3464.12 -0.950028 -2.133 0
M  V30 37164 C 3465.1 0.115547 -1.69707 0
M  V30 37165 O 3466.28 -0.0388736 -1.94161 0
M  V30 37166 C 3463.41 -0.484697 -3.43901 0
M  V30 37167 C 3462.37 -1.49177 -4.01161 0
M  V30 37168 C 3461.69 -0.883629 -5.27348 0
M  V30 37169 C 3462.99 -2.87114 -4.36306 0
M  V30 37170 H 3464.69 -1.87099 -2.3374 0
M  V30 37171 H 3462.23 -0.900997 -1.1233 0
M  V30 37172 H 3464.19 -0.303224 -4.20308 0
M  V30 37173 H 3462.91 0.471852 -3.23174 0
M  V30 37174 H 3461.57 -1.66034 -3.26846 0
M  V30 37175 H 3461.22 0.0803828 -5.02936 0
M  V30 37176 H 3460.92 -1.55609 -5.66621 0
M  V30 37177 H 3462.44 -0.712886 -6.06424 0
M  V30 37178 H 3463.86 -2.73857 -5.03662 0
M  V30 37179 H 3462.25 -3.51126 -4.86652 0
M  V30 37180 H 3463.32 -3.39991 -3.45737 0
M  V30 37181 N 3464.67 1.2224 -0.994741 0
M  V30 37182 C 3465.92 1.9035 -0.667079 0
M  V30 37183 C 3466.23 1.78286 0.804583 0
M  V30 37184 O 3467.43 2.41328 1.24391 0
M  V30 37185 C 3465.89 3.4128 -1.14262 0
M  V30 37186 C 3465.5 3.61977 -2.63964 0
M  V30 37187 C 3467.24 4.15079 -0.889375 0
M  V30 37188 C 3465.15 5.06617 -3.05112 0
M  V30 37189 H 3464.08 0.712807 -0.245808 0
M  V30 37190 H 3466.73 1.3843 -1.20455 0
M  V30 37191 H 3465.11 3.92393 -0.533272 0
M  V30 37192 H 3466.29 3.21348 -3.30261 0
M  V30 37193 H 3464.6 3.01513 -2.87191 0
M  V30 37194 H 3467.2 5.21687 -1.17248 0
M  V30 37195 H 3467.54 4.15934 0.174483 0
M  V30 37196 H 3468.07 3.69999 -1.46101 0
M  V30 37197 H 3464.81 5.10902 -4.10681 0
M  V30 37198 H 3464.33 5.48141 -2.4352 0
M  V30 37199 H 3466.01 5.75054 -2.96516 0
M  V30 37200 N 3466.14 0.768172 1.37611 0
M  V30 37201 C 3467.05 0.15269 2.34103 0
M  V30 37202 C 3468.07 -0.683783 1.60001 0
M  V30 37203 O 3469.25 -0.604538 1.92113 0
M  V30 37204 C 3466.31 -0.718894 3.39165 0
M  V30 37205 C 3465.37 0.133625 4.29092 0
M  V30 37206 C 3464.61 -0.696454 5.29136 0
M  V30 37207 O 3464.83 -1.93374 5.36622 0
M  V30 37208 O 3463.76 -0.107546 6.01804 0
M  V30 37209 H 3467.59 0.94995 2.88461 0
M  V30 37210 H 3465.17 0.529277 1.3971 0
M  V30 37211 H 3467.06 -1.21658 4.03457 0
M  V30 37212 H 3465.73 -1.4944 2.8714 0
M  V30 37213 H 3464.64 0.677592 3.67912 0
M  V30 37214 H 3465.97 0.872133 4.84412 0
M  V30 37215 N 3467.62 -1.48829 0.518419 0
M  V30 37216 C 3469.04 -1.58632 0.175504 0
M  V30 37217 C 3469.24 -1.52176 -1.32078 0
M  V30 37218 O 3468.29 -1.40478 -2.09815 0
M  V30 37219 C 3469.61 -2.90733 0.767773 0
M  V30 37220 C 3471.16 -3.04237 0.735456 0
M  V30 37221 C 3471.63 -4.38982 1.3061 0
M  V30 37222 N 3473.12 -4.45519 1.26755 0
M  V30 37223 C 3473.86 -5.48264 1.6791 0
M  V30 37224 N 3473.35 -6.58024 2.16739 0
M  V30 37225 N 3475.15 -5.39079 1.59218 0
M  V30 37226 H 3467.3 -1.51269 1.49103 0
M  V30 37227 H 3469.56 -0.717574 0.61951 0
M  V30 37228 H 3469.27 -3.01078 1.81782 0
M  V30 37229 H 3469.14 -3.76447 0.238185 0
M  V30 37230 H 3471.53 -2.93511 -0.3058 0
M  V30 37231 H 3471.61 -2.20163 1.30239 0
M  V30 37232 H 3471.25 -4.50461 2.34622 0
M  V30 37233 H 3471.18 -5.21724 0.714949 0
M  V30 37234 H 3473.67 -3.6678 0.909974 0
M  V30 37235 H 3473.99 -7.32545 2.46167 0
M  V30 37236 H 3472.33 -6.59018 2.20726 0
M  V30 37237 H 3475.52 -4.52224 1.20877 0
M  V30 37238 H 3475.69 -6.19022 1.91613 0
M  V30 37239 N 3469.1 -0.253021 -1.55556 0
M  V30 37240 C 3470.33 0.373444 -2.03197 0
M  V30 37241 C 3470.74 1.51639 -1.13147 0
M  V30 37242 O 3470.08 1.83169 -0.139551 0
M  V30 37243 C 3470.14 0.937247 -3.47068 0
M  V30 37244 C 3469.81 -0.0742316 -4.5694 0
M  V30 37245 C 3470.8 -0.885952 -5.12296 0
M  V30 37246 C 3468.49 -0.202091 -5.01893 0
M  V30 37247 C 3470.48 -1.81193 -6.11104 0
M  V30 37248 C 3468.17 -1.13157 -6.00532 0
M  V30 37249 C 3469.17 -1.93501 -6.55016 0
M  V30 37250 O 3468.86 -2.84881 -7.5173 0
M  V30 37251 H 3468.59 0.0921592 -0.669688 0
M  V30 37252 H 3471.14 -0.3763 -2.01924 0
M  V30 37253 H 3469.37 1.73666 -3.4551 0
M  V30 37254 H 3471.06 1.47444 -3.78173 0
M  V30 37255 H 3471.83 -0.797791 -4.78393 0
M  V30 37256 H 3467.71 0.41322 -4.59144 0
M  V30 37257 H 3471.25 -2.43946 -6.53556 0
M  V30 37258 H 3467.15 -1.22063 -6.33854 0
M  V30 37259 H 3467.92 -2.79311 -7.69368 0
M  V30 37260 N 3470.58 1.57587 0.0200142 0
M  V30 37261 C 3471.49 2.10556 1.03456 0
M  V30 37262 C 3472.5 1.04622 1.39033 0
M  V30 37263 O 3473.68 1.3641 1.4817 0
M  V30 37264 C 3470.75 2.5819 2.31384 0
M  V30 37265 C 3469.81 3.78644 2.02305 0
M  V30 37266 C 3469.04 4.23996 3.24134 0
M  V30 37267 O 3469.26 3.68811 4.35126 0
M  V30 37268 O 3468.2 5.16348 3.09303 0
M  V30 37269 H 3472.02 2.97421 0.614367 0
M  V30 37270 H 3469.61 1.47499 0.237579 0
M  V30 37271 H 3471.49 2.89117 3.06577 0
M  V30 37272 H 3470.16 1.74433 2.72681 0
M  V30 37273 H 3469.07 3.52722 1.24652 0
M  V30 37274 H 3470.4 4.63413 1.65858 0
M  V30 37275 N 3472.06 -0.292445 1.54863 0
M  V30 37276 C 3473.3 -1.0281 1.74809 0
M  V30 37277 C 3473.64 -1.86629 0.536968 0
M  V30 37278 O 3472.91 -1.8884 -0.46582 0
M  V30 37279 C 3473.19 -1.92695 3.04205 0
M  V30 37280 C 3473.05 -1.11998 4.35633 0
M  V30 37281 C 3474.37 -2.91728 3.29519 0
M  V30 37282 H 3471.48 -0.372351 0.636022 0
M  V30 37283 H 3474.13 -0.302036 1.87584 0
M  V30 37284 H 3472.28 -2.54603 2.93445 0
M  V30 37285 H 3473.95 -0.523109 4.58324 0
M  V30 37286 H 3472.19 -0.422904 4.31734 0
M  V30 37287 H 3472.86 -1.78163 5.22458 0
M  V30 37288 H 3475.34 -2.39951 3.39945 0
M  V30 37289 H 3474.21 -3.51779 4.21358 0
M  V30 37290 H 3474.48 -3.65839 2.48223 0
M  V30 37291 N 3473.53 -1.47465 -0.55605 0
M  V30 37292 C 3474.81 -1.44631 -1.31686 0
M  V30 37293 C 3475.19 -0.143878 -2.10609 0
M  V30 37294 O 3474.54 0.874625 -2.11098 0
M  V30 37295 C 3474.75 -2.69257 -2.2204 0
M  V30 37296 C 3476.1 -3.16518 -2.83022 0
M  V30 37297 O 3477.12 -2.69992 -2.32342 0
M  V30 37298 O 3475.98 -3.97406 -3.75141 0
M  V30 37299 H 3473.07 -0.576421 -0.593016 0
M  V30 37300 H 3475.62 -1.59667 -0.574857 0
M  V30 37301 H 3474.39 -3.55582 -1.6333 0
M  V30 37302 H 3474.02 -2.56812 -3.03535 0
M  V30 37303 N 3475.01 0.802873 -1.35616 0
M  V30 37304 C 3475.95 1.9231 -1.24698 0
M  V30 37305 C 3476.96 1.61916 -0.169437 0
M  V30 37306 O 3478.15 1.73415 -0.423026 0
M  V30 37307 C 3475.25 3.26778 -0.898287 0
M  V30 37308 C 3474.42 3.85051 -2.07496 0
M  V30 37309 C 3473.48 4.97933 -1.70146 0
M  V30 37310 O 3472.51 5.15163 -2.42066 0
M  V30 37311 N 3473.71 5.77101 -0.627255 0
M  V30 37312 H 3476.47 2.02202 -2.21212 0
M  V30 37313 H 3474.03 0.980481 -1.28834 0
M  V30 37314 H 3476.03 3.99769 -0.629836 0
M  V30 37315 H 3474.6 3.12592 -0.022712 0
M  V30 37316 H 3473.82 3.04209 -2.507 0
M  V30 37317 H 3475.1 4.20715 -2.86141 0
M  V30 37318 H 3474.5 5.65692 -0.0297873 0
M  V30 37319 H 3473.06 6.50454 -0.418595 0
M  V30 37320 N 3476.49 1.19674 1.02547 0
M  V30 37321 C 3477.42 0.895337 2.10989 0
M  V30 37322 C 3478.44 -0.113344 1.62405 0
M  V30 37323 O 3479.63 0.116517 1.78119 0
M  V30 37324 C 3476.73 0.319183 3.37394 0
M  V30 37325 C 3475.9 1.37725 4.15151 0
M  V30 37326 C 3474.96 0.814022 5.19865 0
M  V30 37327 O 3473.98 1.49256 5.49283 0
M  V30 37328 N 3475.19 -0.380987 5.79248 0
M  V30 37329 H 3477.95 1.82879 2.37435 0
M  V30 37330 H 3475.51 1.09921 1.18866 0
M  V30 37331 H 3477.5 -0.0715395 4.04637 0
M  V30 37332 H 3476.07 -0.518627 3.08268 0
M  V30 37333 H 3475.29 1.94268 3.43007 0
M  V30 37334 H 3476.58 2.09011 4.63888 0
M  V30 37335 H 3475.98 -0.949693 5.57671 0
M  V30 37336 H 3474.54 -0.713449 6.47884 0
M  V30 37337 N 3477.97 -1.21711 1.00121 0
M  V30 37338 C 3479.22 -1.89993 0.677164 0
M  V30 37339 C 3479.53 -1.7871 -0.795117 0
M  V30 37340 O 3480.74 -2.41984 -1.23109 0
M  V30 37341 C 3479.19 -3.40669 1.16071 0
M  V30 37342 C 3478.8 -3.60572 2.6588 0
M  V30 37343 C 3480.55 -4.14601 0.911375 0
M  V30 37344 C 3478.45 -5.04992 3.07794 0
M  V30 37345 H 3477.38 -0.711494 0.249585 0
M  V30 37346 H 3480.03 -1.37789 1.21187 0
M  V30 37347 H 3478.42 -3.92105 0.554074 0
M  V30 37348 H 3479.59 -3.19592 3.3196 0
M  V30 37349 H 3477.9 -2.99986 2.88786 0
M  V30 37350 H 3480.5 -5.21057 1.20013 0
M  V30 37351 H 3480.84 -4.16021 -0.152422 0
M  V30 37352 H 3481.38 -3.69219 1.48061 0
M  V30 37353 H 3478.12 -5.08717 4.13385 0
M  V30 37354 H 3477.64 -5.46841 2.46423 0
M  V30 37355 H 3479.32 -5.73473 2.99562 0
M  V30 37356 N 3479.45 -0.775459 -1.37202 0
M  V30 37357 C 3480.38 -0.122414 -2.28873 0
M  V30 37358 C 3481.39 0.660213 -1.48812 0
M  V30 37359 O 3482.58 0.497694 -1.71421 0
M  V30 37360 C 3479.68 0.850154 -3.28063 0
M  V30 37361 C 3478.85 0.120556 -4.37234 0
M  V30 37362 C 3477.91 1.00703 -5.16474 0
M  V30 37363 O 3476.94 0.469429 -5.67261 0
M  V30 37364 N 3478.14 2.33289 -5.3156 0
M  V30 37365 H 3480.91 -0.909792 -2.85557 0
M  V30 37366 H 3478.47 -0.628133 -1.49218 0
M  V30 37367 H 3480.46 1.44671 -3.77958 0
M  V30 37368 H 3479.03 1.53848 -2.7212 0
M  V30 37369 H 3478.25 -0.656947 -3.88687 0
M  V30 37370 H 3479.54 -0.383447 -5.07353 0
M  V30 37371 H 3478.94 2.79397 -4.91888 0
M  V30 37372 H 3477.49 2.87943 -5.8475 0
M  V30 37373 N 3480.93 1.48552 -0.526305 0
M  V30 37374 C 3482.17 2.02798 0.00914443 0
M  V30 37375 C 3482.5 1.40293 1.34282 0
M  V30 37376 O 3481.78 0.547387 1.86638 0
M  V30 37377 C 3482.06 3.59847 0.135039 0
M  V30 37378 C 3481.92 4.32839 -1.22354 0
M  V30 37379 C 3483.23 4.31544 0.863597 0
M  V30 37380 H 3480.35 0.736998 0.00184921 0
M  V30 37381 H 3483 1.77314 -0.682622 0
M  V30 37382 H 3481.15 3.8169 0.724212 0
M  V30 37383 H 3482.82 4.22423 -1.85354 0
M  V30 37384 H 3481.06 3.94401 -1.80638 0
M  V30 37385 H 3481.73 5.41162 -1.08849 0
M  V30 37386 H 3484.21 4.14508 0.363661 0
M  V30 37387 H 3483.08 5.41125 0.920575 0
M  V30 37388 H 3483.34 3.98565 1.91306 0
M  V30 37389 N 3482.4 0.261267 1.55419 0
M  V30 37390 C 3483.33 -0.626087 2.2495 0
M  V30 37391 C 3484.31 -1.16995 1.23476 0
M  V30 37392 O 3485.5 -1.20664 1.52164 0
M  V30 37393 C 3482.63 -1.81663 2.96 0
M  V30 37394 C 3481.58 -1.40492 4.04285 0
M  V30 37395 C 3480.91 -2.67745 4.62835 0
M  V30 37396 C 3482.21 -0.565339 5.19231 0
M  V30 37397 H 3483.9 -0.0462638 2.99364 0
M  V30 37398 H 3481.45 -0.0208113 1.43985 0
M  V30 37399 H 3483.4 -2.44317 3.43347 0
M  V30 37400 H 3482.13 -2.42207 2.19097 0
M  V30 37401 H 3480.79 -0.80165 3.57728 0
M  V30 37402 H 3480.43 -3.26517 3.82617 0
M  V30 37403 H 3480.13 -2.40915 5.35942 0
M  V30 37404 H 3481.66 -3.31272 5.12924 0
M  V30 37405 H 3483.07 -1.09653 5.62716 0
M  V30 37406 H 3481.47 -0.392502 5.98815 0
M  V30 37407 H 3482.54 0.419144 4.83085 0
M  V30 37408 N 3483.88 -1.57596 -0.0116567 0
M  V30 37409 C 3484.81 -2.03104 -1.04039 0
M  V30 37410 C 3485.79 -0.918645 -1.34163 0
M  V30 37411 O 3486.98 -1.18586 -1.46525 0
M  V30 37412 C 3484.1 -2.4188 -2.3709 0
M  V30 37413 C 3483.15 -3.63736 -2.22707 0
M  V30 37414 S 3483.98 -5.1215 -1.56407 0
M  V30 37415 C 3485.14 -5.54185 -2.90912 0
M  V30 37416 H 3485.37 -2.90043 -0.652848 0
M  V30 37417 H 3482.9 -1.52793 -0.222174 0
M  V30 37418 H 3484.86 -2.64891 -3.13597 0
M  V30 37419 H 3483.52 -1.55361 -2.72987 0
M  V30 37420 H 3482.72 -3.88581 -3.20969 0
M  V30 37421 H 3482.32 -3.40667 -1.54343 0
M  V30 37422 H 3484.61 -5.55933 -3.87227 0
M  V30 37423 H 3485.55 -6.54281 -2.7078 0
M  V30 37424 H 3485.96 -4.81723 -2.94285 0
M  V30 37425 N 3485.36 0.284228 -1.55016 0
M  V30 37426 C 3486.64 1.03791 -1.65792 0
M  V30 37427 C 3487.02 2.0467 -0.517065 0
M  V30 37428 O 3486.36 2.2331 0.484248 0
M  V30 37429 C 3486.57 1.70477 -3.0453 0
M  V30 37430 C 3487.92 2.22056 -3.61906 0
M  V30 37431 O 3488.95 1.80483 -3.0709 0
M  V30 37432 O 3487.81 2.98278 -4.57922 0
M  V30 37433 H 3484.9 0.480745 -0.672914 0
M  V30 37434 H 3487.45 0.280979 -1.67358 0
M  V30 37435 H 3486.22 0.973172 -3.79005 0
M  V30 37436 H 3485.84 2.52885 -3.06814 0
M  V30 37437 N 3486.84 1.47758 0.548222 0
M  V30 37438 C 3487.78 1.60918 1.65451 0
M  V30 37439 C 3488.75 0.451859 1.59836 0
M  V30 37440 O 3489.94 0.673054 1.78535 0
M  V30 37441 C 3487.08 1.63785 3.03757 0
M  V30 37442 C 3486.19 2.90498 3.19742 0
M  V30 37443 C 3485.33 2.84643 4.485 0
M  V30 37444 C 3484.37 4.0614 4.57948 0
M  V30 37445 N 3483.5 3.98468 5.78072 0
M  V30 37446 H 3488.34 2.554 1.53541 0
M  V30 37447 H 3485.88 1.26674 0.747803 0
M  V30 37448 H 3487.84 1.6343 3.83857 0
M  V30 37449 H 3486.47 0.728091 3.14482 0
M  V30 37450 H 3485.52 3.0068 2.33014 0
M  V30 37451 H 3486.83 3.80446 3.22587 0
M  V30 37452 H 3485.99 2.82587 5.3687 0
M  V30 37453 H 3484.73 1.92393 4.48148 0
M  V30 37454 H 3483.73 4.08491 3.67988 0
M  V30 37455 H 3484.96 4.99528 4.60053 0
M  V30 37456 H 3482.9 3.09027 5.78652 0
M  V30 37457 H 3482.82 4.82103 5.82333 0
M  V30 37458 H 3484.09 4.00443 6.68779 0
M  V30 37459 N 3488.32 -0.79567 1.3604 0
M  V30 37460 C 3489.25 -1.92244 1.32531 0
M  V30 37461 C 3490.23 -1.68946 0.197835 0
M  V30 37462 O 3491.41 -1.90151 0.394508 0
M  V30 37463 C 3488.54 -3.29167 1.10754 0
M  V30 37464 C 3487.5 -3.66974 2.20259 0
M  V30 37465 C 3486.82 -5.02178 1.83633 0
M  V30 37466 C 3488.12 -3.7621 3.62303 0
M  V30 37467 H 3489.82 -1.95438 2.26814 0
M  V30 37468 H 3487.36 -0.938889 1.09183 0
M  V30 37469 H 3489.31 -4.07606 1.06936 0
M  V30 37470 H 3488.04 -3.26344 0.129198 0
M  V30 37471 H 3486.7 -2.90828 2.23192 0
M  V30 37472 H 3486.35 -4.9587 0.843891 0
M  V30 37473 H 3486.05 -5.28444 2.56944 0
M  V30 37474 H 3487.57 -5.83045 1.8136 0
M  V30 37475 H 3488.98 -4.44855 3.61631 0
M  V30 37476 H 3487.38 -4.13955 4.34466 0
M  V30 37477 H 3488.45 -2.77476 3.97662 0
M  V30 37478 N 3489.79 -1.20217 -1.0191 0
M  V30 37479 C 3491.04 -1.01229 -1.75729 0
M  V30 37480 C 3491.37 0.454777 -1.888 0
M  V30 37481 O 3490.65 1.33766 -1.41198 0
M  V30 37482 C 3490.93 -1.69353 -3.17792 0
M  V30 37483 C 3490.78 -3.23488 -3.12531 0
M  V30 37484 C 3492.1 -1.42455 -4.16407 0
M  V30 37485 H 3489.22 -0.369155 -0.637882 0
M  V30 37486 H 3491.86 -1.48195 -1.18904 0
M  V30 37487 H 3490.01 -1.29422 -3.66309 0
M  V30 37488 H 3491.69 -3.72697 -2.71836 0
M  V30 37489 H 3489.93 -3.54524 -2.49991 0
M  V30 37490 H 3490.6 -3.66309 -4.12943 0
M  V30 37491 H 3493.08 -1.77092 -3.76534 0
M  V30 37492 H 3491.95 -1.92657 -5.13979 0
M  V30 37493 H 3492.21 -0.351651 -4.40699 0
M  V30 37494 N 3491.27 1.21178 -1.00765 0
M  V30 37495 C 3492.18 2.27325 -0.579686 0
M  V30 37496 C 3493.2 1.69832 0.378562 0
M  V30 37497 O 3494.37 1.99944 0.241737 0
M  V30 37498 C 3491.44 3.46597 0.0843039 0
M  V30 37499 C 3490.5 4.19353 -0.918759 0
M  V30 37500 C 3489.73 5.32931 -0.286361 0
M  V30 37501 O 3489.96 5.62994 0.916175 0
M  V30 37502 O 3488.89 5.93558 -0.998617 0
M  V30 37503 H 3492.72 2.6613 -1.46316 0
M  V30 37504 H 3490.3 1.27626 -0.776664 0
M  V30 37505 H 3492.18 4.1893 0.455562 0
M  V30 37506 H 3490.86 3.09687 0.942111 0
M  V30 37507 H 3489.77 3.49231 -1.34122 0
M  V30 37508 H 3491.1 4.60182 -1.74624 0
M  V30 37509 N 3492.75 0.782725 1.36789 0
M  V30 37510 C 3493.68 0.190645 2.3272 0
M  V30 37511 C 3494.66 -0.670636 1.56322 0
M  V30 37512 O 3495.85 -0.605839 1.84508 0
M  V30 37513 C 3492.98 -0.680657 3.40565 0
M  V30 37514 C 3491.93 0.0801932 4.27925 0
M  V30 37515 C 3491.26 -0.911269 5.26878 0
M  V30 37516 C 3492.56 1.26554 5.06736 0
M  V30 37517 H 3494.25 0.992073 2.82486 0
M  V30 37518 H 3491.8 0.478508 1.35817 0
M  V30 37519 H 3493.75 -1.10475 4.06661 0
M  V30 37520 H 3492.47 -1.51472 2.89351 0
M  V30 37521 H 3491.13 0.485189 3.63375 0
M  V30 37522 H 3490.78 -1.74018 4.71939 0
M  V30 37523 H 3490.48 -0.406659 5.86191 0
M  V30 37524 H 3492 -1.33407 5.95848 0
M  V30 37525 H 3493.42 0.917547 5.6591 0
M  V30 37526 H 3491.82 1.70299 5.75429 0
M  V30 37527 H 3492.89 2.06423 4.38768 0
M  V30 37528 N 3494.23 -1.48271 0.534176 0
M  V30 37529 C 3495.19 -2.28184 -0.215601 0
M  V30 37530 C 3496.19 -1.3562 -0.863942 0
M  V30 37531 O 3497.38 -1.58472 -0.723347 0
M  V30 37532 C 3494.51 -3.14623 -1.31246 0
M  V30 37533 H 3495.71 -2.95935 0.486066 0
M  V30 37534 H 3493.26 -1.53581 0.290264 0
M  V30 37535 H 3493.99 -2.51512 -2.04725 0
M  V30 37536 H 3493.78 -3.82717 -0.852639 0
M  V30 37537 H 3495.27 -3.74892 -1.83972 0
M  V30 37538 N 3495.71 -0.269505 -1.55279 0
M  V30 37539 C 3496.66 0.634799 -2.18985 0
M  V30 37540 C 3497.64 1.12256 -1.15271 0
M  V30 37541 O 3498.83 1.06857 -1.41105 0
M  V30 37542 C 3495.96 1.82109 -2.91018 0
M  V30 37543 C 3495.05 1.35077 -4.02014 0
M  V30 37544 N 3495.44 0.596211 -5.02274 0
M  V30 37545 C 3493.74 1.6342 -4.14982 0
M  V30 37546 C 3494.44 0.349679 -5.80648 0
M  V30 37547 N 3493.41 0.920476 -5.3575 0
M  V30 37548 H 3497.22 0.0503999 -2.93857 0
M  V30 37549 H 3494.73 -0.0728128 -1.62237 0
M  V30 37550 H 3496.73 2.48017 -3.35102 0
M  V30 37551 H 3495.39 2.40949 -2.17655 0
M  V30 37552 H 3496.4 0.244097 -5.17324 0
M  V30 37553 H 3493.07 2.23236 -3.52806 0
M  V30 37554 H 3494.46 -0.254257 -6.71419 0
M  V30 37555 N 3497.18 1.576 0.00329885 0
M  V30 37556 C 3498.12 2.0506 1.02388 0
M  V30 37557 C 3499.13 0.967924 1.30901 0
M  V30 37558 O 3500.32 1.24478 1.27935 0
M  V30 37559 C 3497.42 2.43278 2.35943 0
M  V30 37560 C 3496.59 3.74238 2.26417 0
M  V30 37561 C 3495.65 3.99361 3.42633 0
M  V30 37562 O 3494.68 4.70072 3.20968 0
M  V30 37563 N 3495.88 3.46999 4.65373 0
M  V30 37564 H 3498.64 2.93234 0.619164 0
M  V30 37565 H 3496.2 1.60772 0.190749 0
M  V30 37566 H 3498.2 2.57202 3.12457 0
M  V30 37567 H 3496.77 1.60639 2.68167 0
M  V30 37568 H 3495.99 3.70423 1.34834 0
M  V30 37569 H 3497.27 4.601 2.17221 0
M  V30 37570 H 3496.67 2.89732 4.85873 0
M  V30 37571 H 3495.23 3.66258 5.39164 0
M  V30 37572 N 3498.66 -0.276003 1.55164 0
M  V30 37573 C 3499.89 -1.02483 1.7939 0
M  V30 37574 C 3500.3 -1.80538 0.565915 0
M  V30 37575 O 3499.64 -1.77467 -0.474459 0
M  V30 37576 C 3499.71 -2.03297 2.96498 0
M  V30 37577 C 3499.37 -1.44207 4.33651 0
M  V30 37578 C 3500.37 -0.859265 5.1275 0
M  V30 37579 C 3498.05 -1.47017 4.80303 0
M  V30 37580 C 3500.05 -0.312436 6.36634 0
M  V30 37581 C 3497.73 -0.919481 6.04143 0
M  V30 37582 C 3498.73 -0.341609 6.82145 0
M  V30 37583 O 3498.42 0.200658 8.0365 0
M  V30 37584 H 3498.15 -0.308582 0.601459 0
M  V30 37585 H 3500.7 -0.313112 2.02999 0
M  V30 37586 H 3498.93 -2.78218 2.68573 0
M  V30 37587 H 3500.62 -2.64283 3.08074 0
M  V30 37588 H 3501.39 -0.830269 4.7784 0
M  V30 37589 H 3497.27 -1.90935 4.19601 0
M  V30 37590 H 3500.81 0.139254 6.97461 0
M  V30 37591 H 3496.71 -0.945707 6.38535 0
M  V30 37592 H 3497.48 0.0897315 8.18451 0
M  V30 37593 N 3500.14 -1.48046 -0.540378 0
M  V30 37594 C 3501.09 -1.61794 -1.64595 0
M  V30 37595 C 3502.06 -0.460329 -1.59594 0
M  V30 37596 O 3503.24 -0.682513 -1.78175 0
M  V30 37597 C 3500.38 -1.65394 -3.02884 0
M  V30 37598 C 3499.5 -2.9219 -3.18197 0
M  V30 37599 C 3498.63 -2.87017 -4.46984 0
M  V30 37600 C 3497.67 -4.08563 -4.55788 0
M  V30 37601 N 3496.81 -4.01528 -5.75951 0
M  V30 37602 H 3501.65 -2.56211 -1.52184 0
M  V30 37603 H 3499.18 -1.27069 -0.741075 0
M  V30 37604 H 3501.14 -1.65464 -3.82985 0
M  V30 37605 H 3499.77 -0.744759 -3.14091 0
M  V30 37606 H 3498.82 -3.01912 -2.31417 0
M  V30 37607 H 3500.14 -3.82151 -3.20565 0
M  V30 37608 H 3499.29 -2.8543 -5.35364 0
M  V30 37609 H 3498.03 -1.94767 -4.47121 0
M  V30 37610 H 3497.03 -4.10436 -3.65817 0
M  V30 37611 H 3498.26 -5.01961 -4.57397 0
M  V30 37612 H 3496.2 -3.12092 -5.77005 0
M  V30 37613 H 3496.12 -4.85185 -5.79769 0
M  V30 37614 H 3497.39 -4.03984 -6.66646 0
M  V30 37615 N 3501.62 0.788444 -1.3646 0
M  V30 37616 C 3502.55 1.91539 -1.33549 0
M  V30 37617 C 3503.53 1.68838 -0.206792 0
M  V30 37618 O 3504.71 1.89939 -0.404586 0
M  V30 37619 C 3501.84 3.28575 -1.12498 0
M  V30 37620 C 3500.8 3.65801 -2.22202 0
M  V30 37621 C 3500.12 5.01197 -1.86294 0
M  V30 37622 C 3501.42 3.74283 -3.64293 0
M  V30 37623 H 3503.12 1.94232 -2.27847 0
M  V30 37624 H 3500.66 0.933086 -1.09679 0
M  V30 37625 H 3502.62 4.07033 -1.09096 0
M  V30 37626 H 3501.34 3.26271 -0.146503 0
M  V30 37627 H 3500 2.8964 -2.24732 0
M  V30 37628 H 3499.65 4.95416 -0.870177 0
M  V30 37629 H 3499.35 5.27074 -2.59743 0
M  V30 37630 H 3500.87 5.82075 -1.84449 0
M  V30 37631 H 3502.29 4.42931 -3.63985 0
M  V30 37632 H 3500.68 4.11645 -4.36655 0
M  V30 37633 H 3501.75 2.75364 -3.99128 0
M  V30 37634 N 3503.1 1.20755 1.01271 0
M  V30 37635 C 3504.04 0.959889 2.09892 0
M  V30 37636 C 3505.01 -0.111322 1.65727 0
M  V30 37637 O 3506.2 0.0342057 1.90769 0
M  V30 37638 C 3503.34 0.52229 3.41125 0
M  V30 37639 C 3502.45 1.66209 3.98746 0
M  V30 37640 C 3501.59 1.17441 5.18055 0
M  V30 37641 C 3500.63 2.28704 5.67768 0
M  V30 37642 N 3499.76 1.81126 6.78335 0
M  V30 37643 H 3504.6 1.88981 2.30413 0
M  V30 37644 H 3502.14 0.941926 1.12987 0
M  V30 37645 H 3504.1 0.249872 4.16451 0
M  V30 37646 H 3502.73 -0.370632 3.20665 0
M  V30 37647 H 3501.78 2.04933 3.20479 0
M  V30 37648 H 3503.09 2.49974 4.31641 0
M  V30 37649 H 3502.25 0.858192 6.006 0
M  V30 37650 H 3500.98 0.3067 4.86735 0
M  V30 37651 H 3499.99 2.61138 4.83825 0
M  V30 37652 H 3501.21 3.15958 6.01122 0
M  V30 37653 H 3499.16 0.966875 6.48836 0
M  V30 37654 H 3499.08 2.5847 7.10443 0
M  V30 37655 H 3500.35 1.52515 7.64434 0
M  V30 37656 N 3504.58 -1.20642 1.01406 0
M  V30 37657 C 3505.49 -2.27015 0.591733 0
M  V30 37658 C 3506.5 -1.7003 -0.36955 0
M  V30 37659 O 3507.68 -2.00069 -0.23113 0
M  V30 37660 C 3504.74 -3.46637 -0.0659218 0
M  V30 37661 C 3503.8 -4.1886 0.940985 0
M  V30 37662 C 3503.04 -5.32772 0.314619 0
M  V30 37663 O 3503.26 -5.63472 -0.886305 0
M  V30 37664 O 3502.19 -5.9302 1.03008 0
M  V30 37665 H 3506.02 -2.65351 1.47725 0
M  V30 37666 H 3503.6 -1.27212 0.783421 0
M  V30 37667 H 3505.49 -4.19166 -0.433339 0
M  V30 37668 H 3504.16 -3.10182 -0.925675 0
M  V30 37669 H 3503.07 -3.48514 1.35972 0
M  V30 37670 H 3504.4 -4.59249 1.77062 0
M  V30 37671 N 3506.05 -0.789968 -1.36372 0
M  V30 37672 C 3507.28 -0.374566 -2.03481 0
M  V30 37673 C 3507.7 1.0092 -1.59563 0
M  V30 37674 O 3507.05 1.64739 -0.785318 0
M  V30 37675 C 3507.1 -0.429318 -3.58942 0
M  V30 37676 O 3506.83 -1.75852 -4.01258 0
M  V30 37677 C 3508.33 -0.00461521 -4.433 0
M  V30 37678 H 3505.55 -0.154306 -0.653017 0
M  V30 37679 H 3508.09 -1.06897 -1.74337 0
M  V30 37680 H 3506.25 0.216672 -3.86794 0
M  V30 37681 H 3506.66 -1.70973 -4.95851 0
M  V30 37682 H 3508.13 -0.0940623 -5.5192 0
M  V30 37683 H 3508.61 1.04808 -4.26511 0
M  V30 37684 H 3509.22 -0.623115 -4.20711 0
M  V30 37685 N 3507.53 1.47986 -0.542031 0
M  V30 37686 C 3508.78 2.01697 -0.0102815 0
M  V30 37687 C 3509.09 1.42329 1.34171 0
M  V30 37688 O 3510.3 1.87611 1.96251 0
M  V30 37689 C 3508.76 3.59886 0.0320399 0
M  V30 37690 C 3508.36 4.28242 -1.31579 0
M  V30 37691 C 3510.11 4.21401 0.511982 0
M  V30 37692 C 3508.01 5.78395 -1.2334 0
M  V30 37693 H 3506.94 0.754 -7.34631e-05 0
M  V30 37694 H 3509.6 1.7013 -0.687616 0
M  V30 37695 H 3507.98 3.88348 0.774705 0
M  V30 37696 H 3509.15 4.11439 -2.07497 0
M  V30 37697 H 3507.47 3.7865 -1.73243 0
M  V30 37698 H 3510.06 5.31415 0.591781 0
M  V30 37699 H 3510.41 3.87537 1.52054 0
M  V30 37700 H 3510.94 3.97413 -0.175363 0
M  V30 37701 H 3507.68 6.16853 -2.21748 0
M  V30 37702 H 3507.2 5.97578 -0.515775 0
M  V30 37703 H 3508.88 6.40294 -0.929087 0
M  V30 37704 N 3509.01 0.277736 1.55133 0
M  V30 37705 C 3509.94 -0.641875 2.20029 0
M  V30 37706 C 3510.95 -1.11547 1.1858 0
M  V30 37707 O 3512.14 -1.03692 1.45293 0
M  V30 37708 C 3509.24 -1.88789 2.81446 0
M  V30 37709 C 3508.42 -1.56067 4.0861 0
M  V30 37710 C 3507.48 -2.65942 4.5405 0
M  V30 37711 O 3506.5 -2.32017 5.19766 0
M  V30 37712 N 3507.7 -3.96051 4.2441 0
M  V30 37713 H 3510.47 -0.0864402 2.99575 0
M  V30 37714 H 3508.03 0.0989462 1.61597 0
M  V30 37715 H 3510.02 -2.61595 3.08788 0
M  V30 37716 H 3508.59 -2.35231 2.05877 0
M  V30 37717 H 3507.81 -0.666319 3.88528 0
M  V30 37718 H 3509.1 -1.3171 4.91457 0
M  V30 37719 H 3508.5 -4.26432 3.71715 0
M  V30 37720 H 3507.05 -4.65226 4.56517 0
M  V30 37721 N 3510.49 -1.57599 0.00505908 0
M  V30 37722 C 3511.43 -2.08739 -0.984717 0
M  V30 37723 C 3512.4 -0.983939 -1.3382 0
M  V30 37724 O 3513.59 -1.25668 -1.43569 0
M  V30 37725 C 3510.73 -2.5995 -2.2698 0
M  V30 37726 C 3509.84 -3.84216 -1.97489 0
M  V30 37727 C 3508.98 -4.23909 -3.20116 0
M  V30 37728 C 3508.02 -5.40998 -2.86335 0
M  V30 37729 N 3507.15 -5.75961 -4.01514 0
M  V30 37730 H 3511.99 -2.93035 -0.541686 0
M  V30 37731 H 3509.53 -1.44859 -0.255809 0
M  V30 37732 H 3511.49 -2.87722 -3.02112 0
M  V30 37733 H 3510.12 -1.78521 -2.68943 0
M  V30 37734 H 3509.17 -3.63321 -1.12703 0
M  V30 37735 H 3510.48 -4.69444 -1.68594 0
M  V30 37736 H 3509.64 -4.5299 -4.0359 0
M  V30 37737 H 3508.38 -3.37401 -3.52154 0
M  V30 37738 H 3507.38 -5.11635 -2.01269 0
M  V30 37739 H 3508.61 -6.29187 -2.55539 0
M  V30 37740 H 3506.55 -4.9241 -4.33438 0
M  V30 37741 H 3506.47 -6.55774 -3.7616 0
M  V30 37742 H 3507.74 -6.09636 -4.85761 0
M  V30 37743 N 3511.97 0.267771 -1.55309 0
M  V30 37744 C 3512.9 1.33522 -1.91557 0
M  V30 37745 C 3513.88 1.51264 -0.778028 0
M  V30 37746 O 3515.06 1.6422 -1.0366 0
M  V30 37747 C 3512.19 2.69381 -2.19206 0
M  V30 37748 C 3511.15 2.66363 -3.35014 0
M  V30 37749 C 3510.47 4.05823 -3.48155 0
M  V30 37750 C 3511.77 2.25174 -4.71268 0
M  V30 37751 H 3513.47 1.03432 -2.80966 0
M  V30 37752 H 3511.01 0.496117 -1.35184 0
M  V30 37753 H 3512.96 3.44173 -2.43152 0
M  V30 37754 H 3511.69 3.01064 -1.26601 0
M  V30 37755 H 3510.35 1.94028 -3.11044 0
M  V30 37756 H 3510 4.34737 -2.53007 0
M  V30 37757 H 3509.7 4.04697 -4.26021 0
M  V30 37758 H 3511.22 4.82346 -3.74399 0
M  V30 37759 H 3512.63 2.8969 -4.94724 0
M  V30 37760 H 3511.03 2.352 -5.52088 0
M  V30 37761 H 3512.1 1.20311 -4.69738 0
M  V30 37762 N 3513.44 1.48331 0.532519 0
M  V30 37763 C 3514.67 1.60131 1.31806 0
M  V30 37764 C 3515.09 0.26084 1.86283 0
M  V30 37765 O 3514.45 -0.767108 1.64272 0
M  V30 37766 C 3514.5 2.64907 2.44656 0
M  V30 37767 O 3513.6 2.21891 3.47618 0
M  V30 37768 H 3512.94 0.537047 0.390482 0
M  V30 37769 H 3515.47 1.94299 0.641034 0
M  V30 37770 H 3515.48 2.86101 2.90878 0
M  V30 37771 H 3514.16 3.62225 2.04366 0
M  V30 37772 H 3512.74 2.10899 3.07532 0
M  V30 37773 N 3514.92 -0.781196 1.36876 0
M  V30 37774 C 3515.87 -1.91555 1.31945 0
M  V30 37775 C 3516.86 -1.68096 0.209813 0
M  V30 37776 O 3518.07 -1.76001 0.377297 0
M  V30 37777 H 3514.44 -0.629771 0.410966 0
M  V30 37778 H 3516.42 -1.92832 2.27724 0
M  V30 37779 C 3515.16 -3.28693 1.13385 0
M  V30 37780 H 3514.49 -3.47316 1.98019 0
M  V30 37781 H 3515.93 -4.08392 1.13983 0
M  V30 37782 C 3514.39 -3.36515 -0.16106 0
M  V30 37783 O 3514.92 -3.84947 -1.14799 0
M  V30 37784 N 3513.12 -2.89851 -0.208543 0
M  V30 37785 H 3512.67 -2.50629 0.595232 0
M  V30 37786 H 3512.63 -2.95465 -1.0746 0
M  V30 37787 N 3516.4 -1.21291 -1.0063 0
M  V30 37788 C 3517.65 -1.03087 -1.74645 0
M  V30 37789 C 3517.98 0.434727 -1.89272 0
M  V30 37790 O 3517.25 1.32261 -1.42609 0
M  V30 37791 C 3517.54 -1.72714 -3.15977 0
M  V30 37792 C 3517.39 -3.26785 -3.09082 0
M  V30 37793 C 3518.71 -1.46864 -4.14872 0
M  V30 37794 H 3515.83 -0.3759 -0.633931 0
M  V30 37795 H 3518.47 -1.49448 -1.17326 0
M  V30 37796 H 3516.62 -1.333 -3.64915 0
M  V30 37797 H 3518.29 -3.75559 -2.67868 0
M  V30 37798 H 3516.53 -3.57155 -2.46217 0
M  V30 37799 H 3517.21 -3.70668 -4.09034 0
M  V30 37800 H 3519.68 -1.81076 -3.74634 0
M  V30 37801 H 3518.56 -1.98097 -5.11907 0
M  V30 37802 H 3518.82 -0.398373 -4.40301 0
M  V30 37803 N 3517.88 1.20103 -1.02045 0
M  V30 37804 C 3518.81 2.2527 -0.61446 0
M  V30 37805 C 3519.79 1.65974 0.37239 0
M  V30 37806 O 3520.97 1.92492 0.256971 0
M  V30 37807 C 3518.1 3.47272 0.0441474 0
M  V30 37808 C 3517.06 4.19187 -0.864092 0
M  V30 37809 C 3516.38 5.34653 -0.0710491 0
M  V30 37810 C 3517.68 4.74908 -2.17394 0
M  V30 37811 H 3519.38 2.59484 -1.4936 0
M  V30 37812 H 3516.92 1.2473 -0.719612 0
M  V30 37813 H 3518.88 4.20028 0.339751 0
M  V30 37814 H 3517.6 3.12233 0.958027 0
M  V30 37815 H 3516.26 3.48301 -1.14376 0
M  V30 37816 H 3515.91 4.95858 0.844601 0
M  V30 37817 H 3515.61 5.83699 -0.675933 0
M  V30 37818 H 3517.13 6.10211 0.218011 0
M  V30 37819 H 3518.55 5.39463 -1.94044 0
M  V30 37820 H 3516.94 5.34407 -2.73001 0
M  V30 37821 H 3518.01 3.93438 -2.83434 0
M  V30 37822 N 3519.36 0.797189 1.35951 0
M  V30 37823 C 3520.29 0.15881 2.28649 0
M  V30 37824 C 3521.3 -0.636455 1.49844 0
M  V30 37825 O 3522.49 -0.47036 1.72191 0
M  V30 37826 C 3519.59 -0.797855 3.29374 0
M  V30 37827 C 3518.76 -0.0509806 4.3737 0
M  V30 37828 C 3517.82 -0.924735 5.18011 0
M  V30 37829 O 3516.85 -0.379123 5.67936 0
M  V30 37830 N 3518.05 -2.24803 5.35204 0
M  V30 37831 H 3520.82 0.955106 2.84074 0
M  V30 37832 H 3518.38 0.651793 1.482 0
M  V30 37833 H 3520.37 -1.3864 3.80212 0
M  V30 37834 H 3518.94 -1.49499 2.74534 0
M  V30 37835 H 3518.16 0.718701 3.87593 0
M  V30 37836 H 3519.45 0.464114 5.06679 0
M  V30 37837 H 3518.84 -2.71536 4.96271 0
M  V30 37838 H 3517.4 -2.78603 5.89257 0
M  V30 37839 N 3520.83 -1.47696 0.549872 0
M  V30 37840 C 3521.77 -2.27947 -0.239305 0
M  V30 37841 C 3522.78 -1.36567 -0.886182 0
M  V30 37842 O 3523.97 -1.61453 -0.76127 0
M  V30 37843 C 3521.07 -3.10596 -1.35586 0
M  V30 37844 C 3520.24 -4.29888 -0.807159 0
M  V30 37845 C 3519.3 -4.9419 -1.80729 0
M  V30 37846 O 3518.33 -5.52804 -1.35632 0
M  V30 37847 N 3519.53 -4.88222 -3.14038 0
M  V30 37848 H 3522.29 -2.96317 0.449053 0
M  V30 37849 H 3519.85 -1.57244 0.385471 0
M  V30 37850 H 3521.85 -3.5048 -2.0235 0
M  V30 37851 H 3520.42 -2.44517 -1.94756 0
M  V30 37852 H 3519.64 -3.94183 0.037057 0
M  V30 37853 H 3520.92 -5.07065 -0.419788 0
M  V30 37854 H 3520.32 -4.41788 -3.53327 0
M  V30 37855 H 3518.88 -5.32147 -3.76381 0
M  V30 37856 N 3522.31 -0.285959 -1.54984 0
M  V30 37857 C 3523.56 0.328188 -2.00127 0
M  V30 37858 C 3523.89 1.54687 -1.17412 0
M  V30 37859 O 3523.17 1.92927 -0.24684 0
M  V30 37860 C 3523.45 0.699671 -3.53237 0
M  V30 37861 C 3523.3 -0.527108 -4.46701 0
M  V30 37862 C 3524.62 1.53199 -4.12575 0
M  V30 37863 H 3521.74 0.117813 -0.727523 0
M  V30 37864 H 3524.38 -0.395065 -1.85847 0
M  V30 37865 H 3522.53 1.31588 -3.65536 0
M  V30 37866 H 3524.2 -1.16565 -4.4633 0
M  V30 37867 H 3522.45 -1.16317 -4.17915 0
M  V30 37868 H 3523.12 -0.223262 -5.51548 0
M  V30 37869 H 3525.59 1.01147 -4.03619 0
M  V30 37870 H 3524.47 1.76071 -5.19894 0
M  V30 37871 H 3524.73 2.51647 -3.63492 0
M  V30 37872 N 3523.79 1.57594 -0.0134169 0
M  V30 37873 C 3524.74 2.09258 0.973634 0
M  V30 37874 C 3525.71 0.991022 1.33297 0
M  V30 37875 O 3526.89 1.26428 1.42901 0
M  V30 37876 C 3524.03 2.61151 2.25598 0
M  V30 37877 C 3523.15 3.85258 1.95449 0
M  V30 37878 C 3522.28 4.25601 3.17863 0
M  V30 37879 C 3521.32 5.42509 2.83462 0
M  V30 37880 N 3520.46 5.78082 3.98453 0
M  V30 37881 H 3525.3 2.93319 0.526138 0
M  V30 37882 H 3522.83 1.44992 0.248123 0
M  V30 37883 H 3524.79 2.8932 3.00582 0
M  V30 37884 H 3523.42 1.79944 2.67992 0
M  V30 37885 H 3522.47 3.63914 1.10775 0
M  V30 37886 H 3523.79 4.70331 1.66102 0
M  V30 37887 H 3522.94 4.55124 4.01182 0
M  V30 37888 H 3521.68 3.39263 3.50359 0
M  V30 37889 H 3520.68 5.12696 1.98553 0
M  V30 37890 H 3521.91 6.30533 2.52199 0
M  V30 37891 H 3519.85 4.94701 4.30821 0
M  V30 37892 H 3519.77 6.5776 3.72676 0
M  V30 37893 H 3521.04 6.12204 4.82521 0
M  V30 37894 N 3525.27 -0.259531 1.55448 0
M  V30 37895 C 3526.52 -0.98717 1.75892 0
M  V30 37896 C 3526.83 -1.86958 0.574983 0
M  V30 37897 O 3528.04 -2.63302 0.662138 0
M  V30 37898 C 3526.49 -1.80521 3.11352 0
M  V30 37899 C 3526.1 -0.970805 4.37355 0
M  V30 37900 C 3527.84 -2.52634 3.4114 0
M  V30 37901 C 3525.75 -1.784 5.6385 0
M  V30 37902 H 3524.68 -0.372309 0.655669 0
M  V30 37903 H 3527.33 -0.2423 1.81893 0
M  V30 37904 H 3525.71 -2.59155 2.99424 0
M  V30 37905 H 3526.89 -0.227682 4.60237 0
M  V30 37906 H 3525.2 -0.363596 4.1481 0
M  V30 37907 H 3527.8 -3.13904 4.3286 0
M  V30 37908 H 3528.14 -3.23608 2.61885 0
M  V30 37909 H 3528.68 -1.8102 3.54227 0
M  V30 37910 H 3525.42 -1.11823 6.45892 0
M  V30 37911 H 3524.94 -2.50274 5.4509 0
M  V30 37912 H 3526.61 -2.3543 6.02645 0
M  V30 37913 N 3526.75 -1.48611 -0.524645 0
M  V30 37914 C 3527.69 -1.6353 -1.6287 0
M  V30 37915 C 3528.66 -0.47723 -1.59097 0
M  V30 37916 O 3529.85 -0.701373 -1.77441 0
M  V30 37917 C 3526.99 -1.68597 -3.01113 0
M  V30 37918 C 3526.1 -2.95548 -3.1508 0
M  V30 37919 C 3525.24 -2.91742 -4.43914 0
M  V30 37920 C 3524.28 -4.13374 -4.51429 0
M  V30 37921 N 3523.41 -4.07615 -5.7166 0
M  V30 37922 H 3528.25 -2.57811 -1.49458 0
M  V30 37923 H 3525.79 -1.27848 -0.727556 0
M  V30 37924 H 3527.75 -1.69516 -3.81209 0
M  V30 37925 H 3526.38 -0.77803 -3.13283 0
M  V30 37926 H 3525.43 -3.04349 -2.28201 0
M  V30 37927 H 3526.74 -3.8553 -3.16493 0
M  V30 37928 H 3525.9 -2.91092 -5.32306 0
M  V30 37929 H 3524.63 -1.99498 -4.4503 0
M  V30 37930 H 3523.64 -4.14293 -3.61443 0
M  V30 37931 H 3524.86 -5.06784 -4.52048 0
M  V30 37932 H 3522.81 -3.18194 -5.73662 0
M  V30 37933 H 3522.73 -4.91307 -5.7459 0
M  V30 37934 H 3524 -4.11032 -6.62324 0
M  V30 37935 N 3528.22 0.773926 -1.37289 0
M  V30 37936 C 3529.5 1.52157 -1.22913 0
M  V30 37937 C 3529.88 2.10346 0.178212 0
M  V30 37938 O 3529.23 1.95335 1.1856 0
M  V30 37939 C 3529.44 2.6042 -2.32342 0
M  V30 37940 C 3530.79 3.27882 -2.69775 0
M  V30 37941 O 3531.81 2.70713 -2.31501 0
M  V30 37942 O 3530.67 4.31235 -3.35706 0
M  V30 37943 H 3527.76 0.673808 -0.479492 0
M  V30 37944 H 3530.31 0.811079 -1.49062 0
M  V30 37945 H 3529.08 2.15526 -3.26595 0
M  V30 37946 H 3528.71 3.39072 -2.07644 0
M  V30 37947 N 3529.7 1.21823 0.99985 0
M  V30 37948 C 3530.93 1.06315 1.77146 0
M  V30 37949 C 3531.34 -0.389714 1.85143 0
M  V30 37950 O 3530.68 -1.28205 1.31565 0
M  V30 37951 C 3530.75 1.59127 3.22364 0
M  V30 37952 C 3530.41 3.07655 3.37931 0
M  V30 37953 C 3531.41 4.05154 3.25801 0
M  V30 37954 C 3529.09 3.46967 3.63207 0
M  V30 37955 C 3531.09 5.39952 3.38719 0
M  V30 37956 C 3528.77 4.81916 3.75766 0
M  V30 37957 C 3529.77 5.78217 3.6353 0
M  V30 37958 O 3529.46 7.10717 3.75682 0
M  V30 37959 H 3529.19 0.373588 0.56339 0
M  V30 37960 H 3531.74 1.61726 1.26625 0
M  V30 37961 H 3529.97 0.981176 3.74045 0
M  V30 37962 H 3531.66 1.39386 3.81217 0
M  V30 37963 H 3532.43 3.76126 3.06193 0
M  V30 37964 H 3528.31 2.72539 3.71811 0
M  V30 37965 H 3531.85 6.15101 3.29085 0
M  V30 37966 H 3527.75 5.10627 3.9488 0
M  V30 37967 H 3528.52 7.18199 3.92598 0
M  V30 37968 N 3531.18 -1.1956 1.0268 0
M  V30 37969 C 3532.43 -1.8919 0.722049 0
M  V30 37970 C 3532.76 -1.79492 -0.749186 0
M  V30 37971 O 3532.01 -1.18028 -1.56102 0
M  V30 37972 C 3532.31 -3.39527 1.11609 0
M  V30 37973 C 3531.98 -3.69426 2.58524 0
M  V30 37974 C 3530.64 -3.77297 2.98664 0
M  V30 37975 C 3532.99 -3.82919 3.53585 0
M  V30 37976 C 3530.32 -3.96127 4.32782 0
M  V30 37977 C 3532.67 -4.03261 4.87405 0
M  V30 37978 C 3531.33 -4.09364 5.27236 0
M  V30 37979 H 3530.6 -0.692294 0.264217 0
M  V30 37980 H 3533.25 -1.41598 1.28927 0
M  V30 37981 H 3531.56 -3.89002 0.467443 0
M  V30 37982 H 3533.25 -3.91717 0.85784 0
M  V30 37983 H 3529.84 -3.63907 2.26427 0
M  V30 37984 H 3534.03 -3.76184 3.23728 0
M  V30 37985 H 3529.28 -3.9909 4.63182 0
M  V30 37986 H 3533.46 -4.12643 5.6098 0
M  V30 37987 H 3531.08 -4.23707 6.31171 0
M  V30 37988 N 3532.66 -0.804387 -1.35526 0
M  V30 37989 C 3533.57 -0.214705 -2.33615 0
M  V30 37990 C 3534.58 0.641121 -1.61758 0
M  V30 37991 O 3535.76 0.55339 -1.93648 0
M  V30 37992 C 3532.83 0.628718 -3.40952 0
M  V30 37993 C 3531.89 -0.247344 -4.28587 0
M  V30 37994 C 3531.12 0.555918 -5.30797 0
M  V30 37995 O 3531.34 1.79078 -5.4156 0
M  V30 37996 O 3530.28 -0.0520495 -6.01877 0
M  V30 37997 H 3534.1 -1.0261 -2.85841 0
M  V30 37998 H 3531.69 -0.566132 -1.38258 0
M  V30 37999 H 3533.57 1.10918 -4.0654 0
M  V30 38000 H 3532.24 1.41775 -2.91001 0
M  V30 38001 H 3531.15 -0.7749 -3.65986 0
M  V30 38002 H 3532.48 -1.00026 -4.81929 0
M  V30 38003 N 3534.14 1.47403 -0.557697 0
M  V30 38004 C 3535.08 2.30019 0.189725 0
M  V30 38005 C 3536.05 1.39091 0.907899 0
M  V30 38006 O 3537.24 1.68052 0.903498 0
M  V30 38007 C 3534.38 3.23063 1.21342 0
M  V30 38008 C 3533.49 4.29082 0.501267 0
M  V30 38009 C 3532.63 5.09277 1.5103 0
M  V30 38010 C 3531.67 6.07069 0.783147 0
M  V30 38011 N 3530.8 6.80222 1.73904 0
M  V30 38012 H 3535.64 2.93412 -0.520908 0
M  V30 38013 H 3533.18 1.44625 -0.268711 0
M  V30 38014 H 3535.14 3.75431 1.81954 0
M  V30 38015 H 3533.77 2.61534 1.89209 0
M  V30 38016 H 3532.82 3.79767 -0.219384 0
M  V30 38017 H 3534.13 4.98753 -0.0683532 0
M  V30 38018 H 3533.29 5.65797 2.18994 0
M  V30 38019 H 3532.03 4.39509 2.11384 0
M  V30 38020 H 3531.03 5.49727 0.0895916 0
M  V30 38021 H 3532.26 6.78847 0.185344 0
M  V30 38022 H 3530.2 6.13183 2.33114 0
M  V30 38023 H 3530.12 7.46065 1.22158 0
M  V30 38024 H 3531.39 7.41316 2.4098 0
M  V30 38025 N 3535.62 0.294175 1.5483 0
M  V30 38026 C 3536.55 -0.578231 2.26227 0
M  V30 38027 C 3537.53 -1.14349 1.2593 0
M  V30 38028 O 3538.71 -1.1741 1.54689 0
M  V30 38029 C 3535.84 -1.75344 2.99786 0
M  V30 38030 C 3534.8 -1.31885 4.07174 0
M  V30 38031 C 3534.12 -2.57868 4.6841 0
M  V30 38032 C 3535.42 -0.455075 5.20314 0
M  V30 38033 H 3537.12 0.0172462 2.99395 0
M  V30 38034 H 3534.66 0.00973475 1.43997 0
M  V30 38035 H 3536.61 -2.36979 3.48452 0
M  V30 38036 H 3535.34 -2.37505 2.24185 0
M  V30 38037 H 3534 -0.72559 3.59348 0
M  V30 38038 H 3533.65 -3.18328 3.89456 0
M  V30 38039 H 3533.35 -2.29493 5.40931 0
M  V30 38040 H 3534.87 -3.20318 5.19835 0
M  V30 38041 H 3536.28 -0.976926 5.64915 0
M  V30 38042 H 3534.68 -0.265396 5.99513 0
M  V30 38043 H 3535.75 0.521519 4.82087 0
M  V30 38044 N 3537.09 -1.57585 0.0217743 0
M  V30 38045 C 3538.34 -1.91779 -0.659429 0
M  V30 38046 C 3538.67 -0.897831 -1.72199 0
M  V30 38047 O 3537.95 0.0804748 -1.94333 0
M  V30 38048 C 3538.23 -3.36483 -1.28263 0
M  V30 38049 C 3538.08 -4.49211 -0.230122 0
M  V30 38050 C 3539.4 -3.81009 -2.20273 0
M  V30 38051 H 3536.52 -0.697428 -0.23825 0
M  V30 38052 H 3539.16 -1.89842 0.07753 0
M  V30 38053 H 3537.31 -3.38265 -1.91074 0
M  V30 38054 H 3538.99 -4.59563 0.399982 0
M  V30 38055 H 3537.23 -4.31509 0.445233 0
M  V30 38056 H 3537.9 -5.47471 -0.705636 0
M  V30 38057 H 3540.38 -3.80917 -1.67456 0
M  V30 38058 H 3539.25 -4.82967 -2.60833 0
M  V30 38059 H 3539.51 -3.16098 -3.09086 0
M  V30 38060 N 3538.57 0.251283 -1.55584 0
M  V30 38061 C 3539.82 0.978 -1.7686 0
M  V30 38062 C 3540.14 1.8602 -0.584957 0
M  V30 38063 O 3539.41 1.91785 0.399422 0
M  V30 38064 H 3537.99 0.364099 -0.652258 0
M  V30 38065 H 3540.65 0.270285 -1.93017 0
M  V30 38066 H 3539.75 1.60228 -2.67831 0
M  V30 38067 N 3540.05 1.48887 0.516757 0
M  V30 38068 C 3541.3 1.57577 1.27184 0
M  V30 38069 C 3541.62 0.255466 1.92815 0
M  V30 38070 O 3540.88 -0.755371 1.80534 0
M  V30 38071 C 3541.18 2.6726 2.37291 0
M  V30 38072 C 3540.84 4.09274 1.89225 0
M  V30 38073 C 3539.51 4.47924 1.75834 0
M  V30 38074 C 3541.86 4.98218 1.53064 0
M  V30 38075 C 3539.19 5.73308 1.24638 0
M  V30 38076 C 3541.54 6.24105 1.03326 0
M  V30 38077 C 3540.2 6.61599 0.885628 0
M  V30 38078 H 3539.47 0.576614 0.4654 0
M  V30 38079 H 3542.12 1.82658 0.575191 0
M  V30 38080 H 3540.42 2.36089 3.1268 0
M  V30 38081 H 3542.12 2.71196 2.95388 0
M  V30 38082 H 3538.71 3.78757 2.00602 0
M  V30 38083 H 3542.9 4.69025 1.62264 0
M  V30 38084 H 3538.15 6.01071 1.11906 0
M  V30 38085 H 3542.33 6.92412 0.744217 0
M  V30 38086 H 3539.95 7.5864 0.486732 0
M  V30 38087 N 3541.53 -0.766635 1.37697 0
M  V30 38088 C 3542.78 -1.52066 1.32509 0
M  V30 38089 C 3543.09 -1.95409 -0.0864624 0
M  V30 38090 O 3544.3 -2.70244 -0.260829 0
M  V30 38091 C 3542.75 -2.74621 2.32619 0
M  V30 38092 C 3542.36 -2.38356 3.79329 0
M  V30 38093 C 3544.1 -3.5255 2.36451 0
M  V30 38094 C 3542.01 -3.57443 4.71156 0
M  V30 38095 H 3540.94 -0.570928 0.492501 0
M  V30 38096 H 3543.59 -0.83924 1.63184 0
M  V30 38097 H 3541.97 -3.44678 1.94969 0
M  V30 38098 H 3543.15 -1.76049 4.25844 0
M  V30 38099 H 3541.46 -1.7359 3.78491 0
M  V30 38100 H 3544.06 -4.41071 3.02259 0
M  V30 38101 H 3544.4 -3.92776 1.3796 0
M  V30 38102 H 3544.94 -2.89493 2.72834 0
M  V30 38103 H 3541.67 -3.22294 5.70795 0
M  V30 38104 H 3541.19 -4.18838 4.29342 0
M  V30 38105 H 3542.87 -4.24192 4.88539 0
M  V30 38106 N 3543.01 -1.22351 -0.993375 0
M  V30 38107 C 3544.28 -0.956305 -1.70629 0
M  V30 38108 C 3544.66 0.528734 -2.04371 0
M  V30 38109 O 3544.01 1.49664 -1.72664 0
M  V30 38110 C 3544.22 -1.85336 -2.95722 0
M  V30 38111 C 3545.57 -2.10916 -3.6851 0
M  V30 38112 O 3546.59 -1.8278 -3.05728 0
M  V30 38113 O 3545.45 -2.58565 -4.81463 0
M  V30 38114 H 3542.55 -0.359596 -0.744728 0
M  V30 38115 H 3545.09 -1.33334 -1.04976 0
M  V30 38116 H 3543.86 -2.85787 -2.67285 0
M  V30 38117 H 3543.49 -1.47787 -3.69113 0
M  V30 38118 N 3544.48 1.19014 -1.03313 0
M  V30 38119 C 3545.76 1.84604 -0.646571 0
M  V30 38120 C 3546.14 1.92137 0.874456 0
M  V30 38121 O 3545.49 1.44157 1.77288 0
M  V30 38122 C 3545.7 3.23335 -1.31359 0
M  V30 38123 C 3547.05 3.99452 -1.43956 0
M  V30 38124 O 3548.07 3.32748 -1.2711 0
M  V30 38125 O 3546.93 5.18947 -1.71337 0
M  V30 38126 H 3544.02 0.795724 -0.225281 0
M  V30 38127 H 3546.57 1.26468 -1.13154 0
M  V30 38128 H 3545.34 3.12713 -2.35216 0
M  V30 38129 H 3544.96 3.89121 -0.816757 0
M  V30 38130 N 3545.96 0.811563 1.35098 0
M  V30 38131 C 3546.92 0.230987 2.28033 0
M  V30 38132 C 3547.92 -0.584548 1.49799 0
M  V30 38133 O 3549.11 -0.402307 1.69491 0
M  V30 38134 C 3546.25 -0.677428 3.34101 0
M  V30 38135 H 3547.44 1.05072 2.80891 0
M  V30 38136 H 3544.99 0.582579 1.45037 0
M  V30 38137 H 3545.73 -1.52065 2.86438 0
M  V30 38138 H 3545.51 -0.0942874 3.91987 0
M  V30 38139 H 3547 -1.0778 4.03452 0
M  V30 38140 N 3547.44 -1.47105 0.565506 0
M  V30 38141 C 3548.69 -2.02751 0.0446271 0
M  V30 38142 C 3549.02 -1.43804 -1.30515 0
M  V30 38143 O 3548.29 -0.596679 -1.85122 0
M  V30 38144 C 3548.58 -3.60078 -0.0395841 0
M  V30 38145 C 3548.43 -4.29443 1.33787 0
M  V30 38146 C 3549.75 -4.33682 -0.748877 0
M  V30 38147 H 3546.87 -0.736788 0.0176916 0
M  V30 38148 H 3549.51 -1.75442 0.729394 0
M  V30 38149 H 3547.66 -3.83476 -0.622759 0
M  V30 38150 H 3549.33 -4.17361 1.96489 0
M  V30 38151 H 3547.57 -3.89473 1.91031 0
M  V30 38152 H 3548.25 -5.38085 1.23159 0
M  V30 38153 H 3550.72 -4.15326 -0.253634 0
M  V30 38154 H 3549.6 -5.43376 -0.776782 0
M  V30 38155 H 3549.86 -4.03497 -1.80672 0
M  V30 38156 N 3548.92 -0.302382 -1.54672 0
M  V30 38157 C 3549.87 0.573102 -2.23571 0
M  V30 38158 C 3550.84 1.12847 -1.2188 0
M  V30 38159 O 3552.02 1.17274 -1.50504 0
M  V30 38160 C 3549.16 1.73845 -2.98114 0
M  V30 38161 C 3548.27 1.21434 -4.14582 0
M  V30 38162 C 3547.41 2.34366 -4.76703 0
M  V30 38163 C 3546.45 1.79096 -5.85313 0
M  V30 38164 N 3545.58 2.85607 -6.41384 0
M  V30 38165 H 3550.42 -0.0210492 -2.97993 0
M  V30 38166 H 3547.96 -0.0221577 -1.47083 0
M  V30 38167 H 3549.92 2.42386 -3.39565 0
M  V30 38168 H 3548.55 2.30421 -2.26067 0
M  V30 38169 H 3547.6 0.421137 -3.78062 0
M  V30 38170 H 3548.91 0.769735 -4.92825 0
M  V30 38171 H 3548.07 3.10852 -5.21014 0
M  V30 38172 H 3546.81 2.82154 -3.97795 0
M  V30 38173 H 3545.81 1.01099 -5.40425 0
M  V30 38174 H 3547.04 1.32211 -6.66106 0
M  V30 38175 H 3544.98 3.32725 -5.65358 0
M  V30 38176 H 3544.9 2.45646 -7.14978 0
M  V30 38177 H 3546.17 3.61986 -6.90353 0
M  V30 38178 N 3550.4 1.57571 -0.0301311 0
M  V30 38179 C 3551.34 2.10279 0.951384 0
M  V30 38180 C 3552.31 1.0051 1.32238 0
M  V30 38181 O 3553.5 1.27936 1.41552 0
M  V30 38182 C 3550.64 2.63529 2.22815 0
M  V30 38183 C 3549.75 3.87309 1.91352 0
M  V30 38184 C 3548.89 4.28949 3.13331 0
M  V30 38185 C 3547.93 5.45485 2.77692 0
M  V30 38186 N 3547.06 5.82276 3.923 0
M  V30 38187 H 3551.9 2.9386 0.494998 0
M  V30 38188 H 3549.44 1.45247 0.232731 0
M  V30 38189 H 3551.4 2.92492 2.97497 0
M  V30 38190 H 3550.03 1.82777 2.66069 0
M  V30 38191 H 3549.08 3.65068 1.06909 0
M  V30 38192 H 3550.39 4.72067 1.61104 0
M  V30 38193 H 3549.55 4.59354 3.96332 0
M  V30 38194 H 3548.28 3.4296 3.46741 0
M  V30 38195 H 3547.29 5.14773 1.93104 0
M  V30 38196 H 3548.51 6.33173 2.45497 0
M  V30 38197 H 3546.46 4.99243 4.2555 0
M  V30 38198 H 3546.38 6.61676 3.65679 0
M  V30 38199 H 3547.65 6.17287 4.76001 0
M  V30 38200 N 3551.87 -0.243029 1.55715 0
M  V30 38201 C 3552.8 -1.30458 1.93657 0
M  V30 38202 C 3553.79 -1.50007 0.801994 0
M  V30 38203 O 3554.97 -1.6255 1.06259 0
M  V30 38204 C 3552.1 -2.65859 2.23464 0
M  V30 38205 C 3551.05 -2.61 3.3921 0
M  V30 38206 C 3550.38 -4.00232 3.54568 0
M  V30 38207 C 3551.68 -2.17648 4.74791 0
M  V30 38208 H 3553.37 -0.98949 2.82576 0
M  V30 38209 H 3550.92 -0.474548 1.35956 0
M  V30 38210 H 3552.87 -3.40261 2.48597 0
M  V30 38211 H 3551.6 -2.99012 1.31375 0
M  V30 38212 H 3550.26 -1.89055 3.14092 0
M  V30 38213 H 3549.9 -4.30657 2.59892 0
M  V30 38214 H 3549.6 -3.97868 4.32406 0
M  V30 38215 H 3551.13 -4.76328 3.82026 0
M  V30 38216 H 3552.54 -2.81783 4.99271 0
M  V30 38217 H 3550.94 -2.26387 5.5576 0
M  V30 38218 H 3552.01 -1.12822 4.71592 0
M  V30 38219 N 3553.35 -1.49159 -0.508854 0
M  V30 38220 C 3554.3 -1.65723 -1.63213 0
M  V30 38221 C 3555.29 -0.523265 -1.61116 0
M  V30 38222 O 3556.5 -0.702658 -1.65719 0
M  V30 38223 H 3552.88 -0.522429 -0.5409 0
M  V30 38224 H 3554.85 -2.60023 -1.46392 0
M  V30 38225 C 3553.6 -1.73377 -3.0139 0
M  V30 38226 H 3552.92 -2.60005 -3.03706 0
M  V30 38227 H 3554.36 -1.89004 -3.79544 0
M  V30 38228 C 3552.82 -0.476888 -3.33508 0
M  V30 38229 O 3553.35 0.400915 -3.99694 0
M  V30 38230 N 3551.55 -0.342196 -2.88578 0
M  V30 38231 H 3551.1 -1.05751 -2.34892 0
M  V30 38232 H 3551.06 0.497703 -3.10436 0
M  V30 38233 N 3554.83 0.759322 -1.38102 0
M  V30 38234 C 3555.74 1.90377 -1.3709 0
M  V30 38235 C 3556.76 1.71912 -0.268768 0
M  V30 38236 O 3557.93 1.94934 -0.506239 0
M  V30 38237 C 3555 3.2567 -1.1891 0
M  V30 38238 C 3554.06 3.56702 -2.38876 0
M  V30 38239 C 3553.29 4.8554 -2.21555 0
M  V30 38240 O 3553.51 5.57499 -1.20626 0
M  V30 38241 O 3552.45 5.15919 -3.10019 0
M  V30 38242 H 3556.27 1.94184 -2.33508 0
M  V30 38243 H 3553.86 0.903805 -1.18961 0
M  V30 38244 H 3555.74 4.0657 -1.1081 0
M  V30 38245 H 3554.42 3.22688 -0.255732 0
M  V30 38246 H 3553.32 2.75987 -2.52551 0
M  V30 38247 H 3554.66 3.6444 -3.30824 0
M  V30 38248 N 3556.31 1.22876 0.986873 0
M  V30 38249 C 3557.24 1.02854 2.09627 0
M  V30 38250 C 3558.22 -0.0524819 1.70019 0
M  V30 38251 O 3559.4 0.110908 1.93883 0
M  V30 38252 C 3556.53 0.612 3.41865 0
M  V30 38253 C 3555.49 1.63963 3.95348 0
M  V30 38254 C 3554.81 1.07874 5.23705 0
M  V30 38255 C 3556.11 3.0311 4.25349 0
M  V30 38256 H 3557.81 1.95645 2.26635 0
M  V30 38257 H 3555.35 0.942067 1.08909 0
M  V30 38258 H 3557.31 0.45901 4.18893 0
M  V30 38259 H 3556.03 -0.351583 3.24702 0
M  V30 38260 H 3554.69 1.7805 3.20458 0
M  V30 38261 H 3554.34 0.106334 5.02888 0
M  V30 38262 H 3554.04 1.76532 5.60455 0
M  V30 38263 H 3555.56 0.937466 6.03361 0
M  V30 38264 H 3556.98 2.92362 4.93151 0
M  V30 38265 H 3555.37 3.68946 4.73285 0
M  V30 38266 H 3556.44 3.52589 3.3288 0
M  V30 38267 N 3557.79 -1.18464 1.03942 0
M  V30 38268 C 3559.01 -1.92896 0.76196 0
M  V30 38269 C 3559.44 -1.75587 -0.674587 0
M  V30 38270 O 3558.79 -1.06518 -1.46709 0
M  V30 38271 C 3558.84 -3.42385 1.13158 0
M  V30 38272 O 3557.95 -4.11603 0.256339 0
M  V30 38273 H 3557.29 -0.601826 0.280538 0
M  V30 38274 H 3559.82 -1.50233 1.38893 0
M  V30 38275 H 3559.83 -3.93088 1.09297 0
M  V30 38276 H 3558.5 -3.54304 2.1781 0
M  V30 38277 H 3557.08 -3.71212 0.354457 0
M  V30 38278 N 3559.26 -0.818716 -1.34665 0
M  V30 38279 C 3560.51 -0.404794 -1.98413 0
M  V30 38280 C 3560.84 1.03109 -1.64921 0
M  V30 38281 O 3560.09 1.73217 -0.910725 0
M  V30 38282 C 3560.39 -0.549121 -3.53156 0
M  V30 38283 C 3560.06 -1.9501 -4.06549 0
M  V30 38284 C 3558.72 -2.33336 -4.20842 0
M  V30 38285 C 3561.07 -2.86612 -4.35319 0
M  V30 38286 C 3558.4 -3.62607 -4.6123 0
M  V30 38287 C 3560.75 -4.15342 -4.77151 0
M  V30 38288 C 3559.42 -4.53651 -4.8965 0
M  V30 38289 H 3558.69 -0.148125 -0.726044 0
M  V30 38290 H 3561.33 -1.04185 -1.60679 0
M  V30 38291 H 3559.64 0.171341 -3.91425 0
M  V30 38292 H 3561.34 -0.209444 -4.00453 0
M  V30 38293 H 3557.93 -1.64238 -3.95884 0
M  V30 38294 H 3562.11 -2.58247 -4.23819 0
M  V30 38295 H 3557.37 -3.9212 -4.69097 0
M  V30 38296 H 3561.54 -4.86413 -4.98373 0
M  V30 38297 H 3559.17 -5.5387 -5.20703 0
M  V30 38298 N 3560.74 1.46803 -0.573299 0
M  V30 38299 C 3561.69 2.30207 0.165318 0
M  V30 38300 C 3562.66 1.40046 0.893095 0
M  V30 38301 O 3563.84 1.69001 0.885623 0
M  V30 38302 C 3560.98 3.24332 1.17909 0
M  V30 38303 C 3560.1 4.29589 0.455729 0
M  V30 38304 C 3559.23 5.1085 1.4562 0
M  V30 38305 C 3558.27 6.07866 0.718716 0
M  V30 38306 N 3557.41 6.82028 1.66679 0
M  V30 38307 H 3562.25 2.92843 -0.551999 0
M  V30 38308 H 3559.79 1.44332 -0.284035 0
M  V30 38309 H 3561.74 3.7734 1.77962 0
M  V30 38310 H 3560.37 2.63526 1.86424 0
M  V30 38311 H 3559.43 3.79513 -0.259651 0
M  V30 38312 H 3560.74 4.98653 -0.121249 0
M  V30 38313 H 3559.89 5.68088 2.1298 0
M  V30 38314 H 3558.63 4.41726 2.06711 0
M  V30 38315 H 3557.64 5.49791 0.0312807 0
M  V30 38316 H 3558.86 6.79005 0.113333 0
M  V30 38317 H 3556.81 6.15621 2.26597 0
M  V30 38318 H 3556.72 7.47319 1.14238 0
M  V30 38319 H 3557.99 7.4383 2.33104 0
M  V30 38320 N 3562.22 0.31058 1.54509 0
M  V30 38321 C 3563.45 -0.298204 2.0474 0
M  V30 38322 C 3563.86 -1.46786 1.1874 0
M  V30 38323 O 3563.22 -1.81227 0.215146 0
M  V30 38324 C 3563.27 -0.745212 3.53736 0
M  V30 38325 O 3562.99 0.377903 4.36467 0
M  V30 38326 C 3564.49 -1.41816 4.20004 0
M  V30 38327 H 3561.71 -0.0634041 0.667998 0
M  V30 38328 H 3564.26 0.452996 1.9942 0
M  V30 38329 H 3562.41 -1.44641 3.59385 0
M  V30 38330 H 3562.83 0.0281489 5.24492 0
M  V30 38331 H 3564.3 -1.682 5.2575 0
M  V30 38332 H 3564.78 -2.36131 3.70323 0
M  V30 38333 H 3565.38 -0.759878 4.18457 0
M  V30 38334 N 3563.7 -1.57553 0.0384871 0
M  V30 38335 C 3564.95 -1.92183 -0.638106 0
M  V30 38336 C 3565.27 -0.915744 -1.71594 0
M  V30 38337 O 3564.53 0.0739189 -1.9556 0
M  V30 38338 C 3564.83 -3.33526 -1.28434 0
M  V30 38339 C 3564.49 -4.49647 -0.335955 0
M  V30 38340 C 3563.16 -4.81142 -0.0749527 0
M  V30 38341 C 3565.51 -5.20249 0.314734 0
M  V30 38342 C 3562.84 -5.80592 0.844388 0
M  V30 38343 C 3565.19 -6.20681 1.22219 0
M  V30 38344 C 3563.85 -6.50612 1.49199 0
M  V30 38345 H 3563.12 -0.703249 -0.2335 0
M  V30 38346 H 3565.77 -1.91227 0.102257 0
M  V30 38347 H 3564.07 -3.30789 -2.09967 0
M  V30 38348 H 3565.77 -3.57596 -1.81456 0
M  V30 38349 H 3562.36 -4.25062 -0.549563 0
M  V30 38350 H 3566.55 -4.9614 0.126162 0
M  V30 38351 H 3561.8 -6.02123 1.06102 0
M  V30 38352 H 3565.98 -6.74505 1.73252 0
M  V30 38353 H 3563.6 -7.27488 2.20601 0
M  V30 38354 N 3565.18 0.234767 -1.55842 0
M  V30 38355 C 3566.43 0.959063 -1.7744 0
M  V30 38356 C 3566.74 1.8602 -0.604654 0
M  V30 38357 O 3567.95 2.62215 -0.703943 0
M  V30 38358 C 3566.4 1.75544 -3.14185 0
M  V30 38359 C 3566.01 0.901103 -4.38844 0
M  V30 38360 C 3567.75 2.47174 -3.45116 0
M  V30 38361 C 3565.66 1.69407 -5.66617 0
M  V30 38362 H 3564.59 0.361831 -0.661509 0
M  V30 38363 H 3567.24 0.213332 -1.82256 0
M  V30 38364 H 3565.62 2.54358 -3.03509 0
M  V30 38365 H 3566.8 0.154434 -4.60541 0
M  V30 38366 H 3565.11 0.297558 -4.15335 0
M  V30 38367 H 3567.71 3.06978 -4.378 0
M  V30 38368 H 3568.05 3.194 -2.67 0
M  V30 38369 H 3568.59 1.75361 -3.57062 0
M  V30 38370 H 3565.32 1.01533 -6.47589 0
M  V30 38371 H 3564.84 2.4157 -5.49003 0
M  V30 38372 H 3566.52 2.25813 -6.06315 0
M  V30 38373 N 3566.66 1.49427 0.500936 0
M  V30 38374 C 3567.57 1.68835 1.62886 0
M  V30 38375 C 3568.58 0.570961 1.64366 0
M  V30 38376 O 3569.76 0.845673 1.82785 0
M  V30 38377 C 3566.82 1.75069 2.99252 0
M  V30 38378 C 3565.88 2.98645 3.08399 0
M  V30 38379 C 3565.12 3.04571 4.3826 0
M  V30 38380 O 3565.34 2.18089 5.27061 0
M  V30 38381 O 3564.27 3.97034 4.5238 0
M  V30 38382 H 3568.1 2.64388 1.49441 0
M  V30 38383 H 3565.68 1.33169 0.67723 0
M  V30 38384 H 3567.57 1.81521 3.803 0
M  V30 38385 H 3566.24 0.826951 3.12959 0
M  V30 38386 H 3565.15 2.9771 2.26538 0
M  V30 38387 H 3566.48 3.90499 2.99619 0
M  V30 38388 N 3568.13 -0.751987 1.38502 0
M  V30 38389 C 3569.41 -1.50183 1.25318 0
M  V30 38390 C 3569.79 -2.10603 -0.144725 0
M  V30 38391 O 3569.14 -1.97196 -1.15438 0
M  V30 38392 C 3569.35 -2.5669 2.36455 0
M  V30 38393 C 3570.7 -3.23548 2.74957 0
M  V30 38394 O 3571.72 -2.66996 2.35779 0
M  V30 38395 O 3570.58 -4.25839 3.42524 0
M  V30 38396 H 3567.67 -0.666094 0.490151 0
M  V30 38397 H 3570.22 -0.787261 1.50334 0
M  V30 38398 H 3568.99 -2.10303 3.29982 0
M  V30 38399 H 3568.61 -3.35726 2.13012 0
M  V30 38400 N 3569.61 -1.23398 -0.980343 0
M  V30 38401 C 3570.86 -1.06768 -1.72419 0
M  V30 38402 C 3571.19 0.394482 -1.90151 0
M  V30 38403 O 3570.47 1.29206 -1.45382 0
M  V30 38404 C 3570.75 -1.79378 -3.12243 0
M  V30 38405 C 3570.6 -3.33268 -3.02081 0
M  V30 38406 C 3571.92 -1.55631 -4.11664 0
M  V30 38407 H 3569.04 -0.389262 -0.625815 0
M  V30 38408 H 3571.68 -1.51903 -1.14129 0
M  V30 38409 H 3569.83 -1.41011 -3.62006 0
M  V30 38410 H 3571.5 -3.81156 -2.59842 0
M  V30 38411 H 3569.75 -3.62297 -2.38585 0
M  V30 38412 H 3570.42 -3.79261 -4.0108 0
M  V30 38413 H 3572.89 -1.88982 -3.70709 0
M  V30 38414 H 3571.77 -2.08911 -5.0759 0
M  V30 38415 H 3572.03 -0.491678 -4.39357 0
M  V30 38416 N 3571.09 1.17911 -1.04569 0
M  V30 38417 C 3572.04 2.23765 -0.634978 0
M  V30 38418 C 3573.03 1.65939 0.340694 0
M  V30 38419 O 3574.24 1.78801 0.207436 0
M  V30 38420 H 3570.61 0.728342 -0.187141 0
M  V30 38421 H 3572.58 2.5571 -1.53802 0
M  V30 38422 C 3571.33 3.47695 -0.0191273 0
M  V30 38423 H 3570.66 3.92492 -0.76095 0
M  V30 38424 H 3572.1 4.2337 0.230961 0
M  V30 38425 C 3570.55 3.1355 1.2324 0
M  V30 38426 O 3571.08 3.2775 2.32256 0
M  V30 38427 N 3569.29 2.6783 1.12763 0
M  V30 38428 H 3568.84 2.56475 0.240502 0
M  V30 38429 H 3568.8 2.45356 1.9659 0
M  V30 38430 N 3572.57 0.825847 1.34229 0
M  V30 38431 C 3573.51 0.247764 2.29466 0
M  V30 38432 C 3574.48 -0.6291 1.53726 0
M  V30 38433 O 3575.67 -0.570124 1.82083 0
M  V30 38434 C 3572.81 -0.581952 3.40158 0
M  V30 38435 C 3571.92 0.317482 4.30832 0
M  V30 38436 C 3571.06 -0.522083 5.28628 0
M  V30 38437 C 3570.1 0.376555 6.10941 0
M  V30 38438 N 3569.23 -0.424109 7.00818 0
M  V30 38439 H 3574.07 1.06526 2.7831 0
M  V30 38440 H 3571.61 0.536812 1.36955 0
M  V30 38441 H 3573.57 -1.07836 4.03023 0
M  V30 38442 H 3572.2 -1.36453 2.92541 0
M  V30 38443 H 3571.25 0.932119 3.68803 0
M  V30 38444 H 3572.56 1.00835 4.88502 0
M  V30 38445 H 3571.72 -1.08284 5.96958 0
M  V30 38446 H 3570.46 -1.24644 4.71503 0
M  V30 38447 H 3569.46 0.949436 5.4154 0
M  V30 38448 H 3570.69 1.09907 6.70147 0
M  V30 38449 H 3568.63 -1.13209 6.46158 0
M  V30 38450 H 3568.55 0.208308 7.55713 0
M  V30 38451 H 3569.82 -0.967528 7.73472 0
M  V30 38452 N 3574.05 -1.46497 0.581077 0
M  V30 38453 C 3575.29 -2.02392 0.0660312 0
M  V30 38454 C 3575.62 -1.45275 -1.29327 0
M  V30 38455 O 3574.88 -0.607074 -1.86046 0
M  V30 38456 C 3575.17 -3.57363 -0.0514146 0
M  V30 38457 C 3574.84 -4.33512 1.24008 0
M  V30 38458 C 3573.5 -4.54035 1.59391 0
M  V30 38459 C 3575.85 -4.77249 2.09481 0
M  V30 38460 C 3573.18 -5.15547 2.8005 0
M  V30 38461 C 3575.53 -5.40094 3.29364 0
M  V30 38462 C 3574.2 -5.58845 3.65032 0
M  V30 38463 H 3573.47 -0.740606 0.0241625 0
M  V30 38464 H 3576.12 -1.75886 0.757385 0
M  V30 38465 H 3574.42 -3.82997 -0.825887 0
M  V30 38466 H 3576.12 -3.98287 -0.465656 0
M  V30 38467 H 3572.71 -4.17834 0.95462 0
M  V30 38468 H 3576.89 -4.61151 1.83449 0
M  V30 38469 H 3572.15 -5.28256 3.07823 0
M  V30 38470 H 3576.32 -5.72943 3.95865 0
M  V30 38471 H 3573.95 -6.06279 4.58617 0
M  V30 38472 N 3575.52 -0.31877 -1.54343 0
M  V30 38473 C 3576.45 0.542167 -2.27118 0
M  V30 38474 C 3577.43 1.12331 -1.27733 0
M  V30 38475 O 3578.62 1.14934 -1.56537 0
M  V30 38476 C 3575.75 1.70552 -3.02538 0
M  V30 38477 C 3574.7 1.2539 -4.0922 0
M  V30 38478 C 3574.03 2.50383 -4.72454 0
M  V30 38479 C 3575.33 0.37224 -5.20972 0
M  V30 38480 H 3577.02 -0.0648752 -2.9933 0
M  V30 38481 H 3574.57 -0.0326421 -1.43963 0
M  V30 38482 H 3576.52 2.31406 -3.52178 0
M  V30 38483 H 3575.25 2.33908 -2.27935 0
M  V30 38484 H 3573.91 0.668329 -3.60457 0
M  V30 38485 H 3573.55 3.12092 -3.94472 0
M  V30 38486 H 3573.25 2.20858 -5.44514 0
M  V30 38487 H 3574.78 3.12007 -5.24866 0
M  V30 38488 H 3576.19 0.88693 -5.66398 0
M  V30 38489 H 3574.59 0.169985 -5.99859 0
M  V30 38490 H 3575.66 -0.598149 -4.81197 0
M  V30 38491 N 3577 1.5753 -0.0468419 0
M  V30 38492 C 3578.28 1.83857 0.667535 0
M  V30 38493 C 3578.66 0.934379 1.89295 0
M  V30 38494 O 3578.01 -0.00566051 2.28499 0
M  V30 38495 C 3578.22 3.33487 1.02894 0
M  V30 38496 C 3579.56 4.00396 1.41308 0
M  V30 38497 O 3580.59 3.38087 1.12141 0
M  V30 38498 O 3579.45 5.1025 1.95723 0
M  V30 38499 H 3576.54 0.758698 0.329099 0
M  V30 38500 H 3579.09 1.6953 -0.0758754 0
M  V30 38501 H 3577.86 3.90983 0.157548 0
M  V30 38502 H 3577.48 3.52986 1.82994 0
M  V30 38503 N 3578.48 -0.226499 1.55964 0
M  V30 38504 C 3579.41 -1.30769 1.87015 0
M  V30 38505 C 3580.39 -1.45439 0.72707 0
M  V30 38506 O 3581.58 -1.6133 0.974927 0
M  V30 38507 C 3578.7 -2.67865 2.07282 0
M  V30 38508 C 3577.75 -2.70237 3.29961 0
M  V30 38509 S 3578.58 -2.24799 4.8603 0
M  V30 38510 C 3579.74 -3.63781 5.09328 0
M  V30 38511 H 3579.97 -1.04235 2.78428 0
M  V30 38512 H 3577.5 -0.428499 1.48335 0
M  V30 38513 H 3579.46 -3.46796 2.19642 0
M  V30 38514 H 3578.12 -2.91626 1.16675 0
M  V30 38515 H 3577.32 -3.70969 3.41171 0
M  V30 38516 H 3576.92 -1.99366 3.16432 0
M  V30 38517 H 3579.21 -4.59434 4.97922 0
M  V30 38518 H 3580.15 -3.5749 6.11234 0
M  V30 38519 H 3580.56 -3.57239 4.37082 0
M  V30 38520 N 3579.96 -1.4969 -0.493005 0
M  V30 38521 C 3580.89 -1.69866 -1.60212 0
M  V30 38522 C 3581.87 -0.547391 -1.61052 0
M  V30 38523 O 3583.05 -0.784124 -1.77666 0
M  V30 38524 C 3580.18 -1.77258 -2.98659 0
M  V30 38525 C 3579.14 -2.92253 -3.12685 0
M  V30 38526 C 3578.46 -2.84766 -4.52562 0
M  V30 38527 C 3579.76 -4.3308 -2.91958 0
M  V30 38528 H 3581.46 -2.62725 -1.43582 0
M  V30 38529 H 3579 -1.2643 -0.689312 0
M  V30 38530 H 3580.96 -1.89957 -3.76157 0
M  V30 38531 H 3579.68 -0.810032 -3.16395 0
M  V30 38532 H 3578.34 -2.79169 -2.37614 0
M  V30 38533 H 3577.99 -1.86403 -4.67186 0
M  V30 38534 H 3577.69 -3.61953 -4.62887 0
M  V30 38535 H 3579.21 -2.99484 -5.3211 0
M  V30 38536 H 3580.63 -4.46804 -3.5922 0
M  V30 38537 H 3579.02 -5.11549 -3.13747 0
M  V30 38538 H 3580.09 -4.46969 -1.88007 0
M  V30 38539 N 3581.44 0.744631 -1.38899 0
M  V30 38540 C 3582.69 1.49939 -1.34912 0
M  V30 38541 C 3583 1.95522 0.0553636 0
M  V30 38542 O 3584.2 2.70625 0.217803 0
M  V30 38543 C 3582.66 2.70885 -2.36958 0
M  V30 38544 C 3582.27 2.32291 -3.83073 0
M  V30 38545 C 3584.01 3.48743 -2.4203 0
M  V30 38546 C 3581.92 3.49902 -4.76783 0
M  V30 38547 H 3580.85 0.563021 -0.501521 0
M  V30 38548 H 3583.5 0.813172 -1.64499 0
M  V30 38549 H 3581.88 3.41533 -2.00428 0
M  V30 38550 H 3583.06 1.69252 -4.28591 0
M  V30 38551 H 3581.37 1.67547 -3.81205 0
M  V30 38552 H 3583.97 4.36206 -3.09238 0
M  V30 38553 H 3584.31 3.90531 -1.44191 0
M  V30 38554 H 3584.84 2.85116 -2.77405 0
M  V30 38555 H 3581.58 3.13173 -5.7585 0
M  V30 38556 H 3581.1 4.11955 -4.35951 0
M  V30 38557 H 3582.78 4.16366 -4.95226 0
M  V30 38558 N 3582.91 1.23916 0.973785 0
M  V30 38559 C 3583.86 1.02618 2.06732 0
M  V30 38560 C 3584.83 -0.0585413 1.65997 0
M  V30 38561 O 3586.02 0.0948801 1.90564 0
M  V30 38562 C 3583.16 0.630552 3.39291 0
M  V30 38563 C 3582.27 1.7881 3.93257 0
M  V30 38564 C 3581.4 1.33863 5.14056 0
M  V30 38565 C 3580.44 2.46651 5.60205 0
M  V30 38566 N 3579.58 2.02615 6.72229 0
M  V30 38567 H 3584.42 1.96216 2.24284 0
M  V30 38568 H 3581.96 0.977395 1.09934 0
M  V30 38569 H 3583.92 0.382236 4.15445 0
M  V30 38570 H 3582.55 -0.268427 3.21682 0
M  V30 38571 H 3581.6 2.15025 3.13797 0
M  V30 38572 H 3582.91 2.6358 4.2347 0
M  V30 38573 H 3582.06 1.04883 5.97565 0
M  V30 38574 H 3580.8 0.461395 4.85513 0
M  V30 38575 H 3579.81 2.76398 4.75273 0
M  V30 38576 H 3581.03 3.34922 5.90765 0
M  V30 38577 H 3578.98 1.17281 6.45431 0
M  V30 38578 H 3578.9 2.80941 7.01861 0
M  V30 38579 H 3580.16 1.76758 7.59195 0
M  V30 38580 N 3584.39 -1.17355 1.05193 0
M  V30 38581 C 3585.34 -2.21372 0.652907 0
M  V30 38582 C 3586.31 -1.62479 -0.344945 0
M  V30 38583 O 3587.49 -1.8933 -0.236357 0
M  V30 38584 C 3584.63 -3.45083 0.0338344 0
M  V30 38585 C 3583.75 -4.18269 1.08052 0
M  V30 38586 C 3582.88 -5.29467 0.428766 0
M  V30 38587 C 3581.92 -5.94439 1.45976 0
M  V30 38588 N 3581.06 -6.97151 0.832165 0
M  V30 38589 H 3585.9 -2.54858 1.54439 0
M  V30 38590 H 3583.44 -1.2519 0.772387 0
M  V30 38591 H 3585.39 -4.15791 -0.342534 0
M  V30 38592 H 3584.02 -3.12182 -0.821104 0
M  V30 38593 H 3583.08 -3.46276 1.57472 0
M  V30 38594 H 3584.39 -4.62697 1.86313 0
M  V30 38595 H 3583.54 -6.067 -0.00118679 0
M  V30 38596 H 3582.28 -4.86171 -0.385833 0
M  V30 38597 H 3581.29 -5.15936 1.89973 0
M  V30 38598 H 3582.51 -6.39815 2.27626 0
M  V30 38599 H 3580.46 -6.55989 0.0380766 0
M  V30 38600 H 3580.37 -7.39891 1.55232 0
M  V30 38601 H 3581.64 -7.7833 0.426986 0
M  V30 38602 N 3585.87 -0.832954 -1.3379 0
M  V30 38603 C 3586.8 -0.276887 -2.31853 0
M  V30 38604 C 3587.78 0.612156 -1.58703 0
M  V30 38605 O 3588.97 0.536943 -1.86629 0
M  V30 38606 C 3586.1 0.55379 -3.42856 0
M  V30 38607 C 3585.05 -0.23896 -4.27332 0
M  V30 38608 C 3584.38 0.715094 -5.29897 0
M  V30 38609 C 3585.68 -1.45274 -5.0169 0
M  V30 38610 H 3587.37 -1.09623 -2.78609 0
M  V30 38611 H 3584.92 -0.528586 -1.33948 0
M  V30 38612 H 3586.87 0.953061 -4.10481 0
M  V30 38613 H 3585.59 1.40629 -2.94773 0
M  V30 38614 H 3584.25 -0.619719 -3.61324 0
M  V30 38615 H 3583.9 1.56382 -4.78073 0
M  V30 38616 H 3583.6 0.188818 -5.87297 0
M  V30 38617 H 3585.12 1.11201 -6.00389 0
M  V30 38618 H 3586.54 -1.12695 -5.62115 0
M  V30 38619 H 3584.94 -1.91538 -5.68712 0
M  V30 38620 H 3586.01 -2.22565 -4.30805 0
M  V30 38621 N 3587.35 1.46186 -0.588837 0
M  V30 38622 C 3588.3 2.3037 0.140892 0
M  V30 38623 C 3589.27 1.40986 0.878191 0
M  V30 38624 O 3590.45 1.69931 0.867649 0
M  V30 38625 C 3587.59 3.25565 1.14462 0
M  V30 38626 C 3586.7 4.30049 0.41014 0
M  V30 38627 C 3585.84 5.12366 1.40194 0
M  V30 38628 C 3584.88 6.08594 0.654203 0
M  V30 38629 N 3584.01 6.83758 1.59436 0
M  V30 38630 H 3588.85 2.92241 -0.583028 0
M  V30 38631 H 3586.39 1.44022 -0.299328 0
M  V30 38632 H 3588.35 3.79206 1.7395 0
M  V30 38633 H 3586.98 2.65488 1.83618 0
M  V30 38634 H 3586.03 3.79216 -0.299889 0
M  V30 38635 H 3587.34 4.98496 -0.174131 0
M  V30 38636 H 3586.5 5.70315 2.06943 0
M  V30 38637 H 3585.24 4.43894 2.02014 0
M  V30 38638 H 3584.24 5.49793 -0.0270338 0
M  V30 38639 H 3585.47 6.79087 0.0413091 0
M  V30 38640 H 3583.41 6.1799 2.20055 0
M  V30 38641 H 3583.33 7.48489 1.06305 0
M  V30 38642 H 3584.6 7.4626 2.25202 0
M  V30 38643 N 3588.83 0.32695 1.54171 0
M  V30 38644 C 3590.05 -0.279195 2.05512 0
M  V30 38645 C 3590.48 -1.44739 1.20134 0
M  V30 38646 O 3589.83 -1.80065 0.211223 0
M  V30 38647 C 3589.88 -0.6882 3.53972 0
M  V30 38648 O 3588.99 -1.79018 3.71519 0
M  V30 38649 H 3588.33 -0.049771 0.662132 0
M  V30 38650 H 3590.86 0.476344 1.98978 0
M  V30 38651 H 3590.87 -0.969932 3.96303 0
M  V30 38652 H 3589.54 0.166205 4.15568 0
M  V30 38653 H 3588.12 -1.507 3.41092 0
M  V30 38654 N 3590.3 -1.57503 0.0551955 0
M  V30 38655 C 3591.55 -1.92849 -0.617686 0
M  V30 38656 C 3591.88 -0.933892 -1.70613 0
M  V30 38657 O 3591.13 0.0531729 -1.95628 0
M  V30 38658 C 3591.43 -3.34869 -1.24889 0
M  V30 38659 C 3591.1 -4.49978 -0.288245 0
M  V30 38660 C 3589.76 -4.81194 -0.023917 0
M  V30 38661 C 3592.11 -5.19886 0.369896 0
M  V30 38662 C 3589.44 -5.79664 0.90592 0
M  V30 38663 C 3591.79 -6.1935 1.28795 0
M  V30 38664 C 3590.46 -6.48993 1.56091 0
M  V30 38665 H 3589.73 -0.705686 -0.226027 0
M  V30 38666 H 3592.37 -1.91108 0.122533 0
M  V30 38667 H 3590.68 -3.32997 -2.06446 0
M  V30 38668 H 3592.38 -3.595 -1.77653 0
M  V30 38669 H 3588.97 -4.25621 -0.504449 0
M  V30 38670 H 3593.15 -4.95978 0.178777 0
M  V30 38671 H 3588.41 -6.00964 1.12483 0
M  V30 38672 H 3592.58 -6.72629 1.80396 0
M  V30 38673 H 3590.21 -7.25108 2.28304 0
M  V30 38674 N 3591.78 0.218225 -1.56082 0
M  V30 38675 C 3593.06 0.966655 -1.70045 0
M  V30 38676 C 3593.44 2.02292 -0.603407 0
M  V30 38677 O 3592.79 2.25163 0.389098 0
M  V30 38678 C 3593 1.57408 -3.11486 0
M  V30 38679 C 3594.35 2.06507 -3.70999 0
M  V30 38680 O 3595.37 1.67296 -3.14469 0
M  V30 38681 O 3594.23 2.78588 -4.70161 0
M  V30 38682 H 3591.32 0.451772 -0.692699 0
M  V30 38683 H 3593.87 0.209744 -1.68399 0
M  V30 38684 H 3592.64 0.811547 -3.82792 0
M  V30 38685 H 3592.26 2.39644 -3.17264 0
M  V30 38686 N 3593.26 1.4995 0.485059 0
M  V30 38687 C 3594.49 1.63736 1.25993 0
M  V30 38688 C 3594.9 0.314383 1.8657 0
M  V30 38689 O 3594.24 -0.71208 1.69337 0
M  V30 38690 C 3594.3 2.65998 2.41837 0
M  V30 38691 C 3593.97 4.0993 2.02007 0
M  V30 38692 C 3594.97 4.96238 1.5506 0
M  V30 38693 C 3592.65 4.55762 2.11154 0
M  V30 38694 C 3594.64 6.26423 1.17785 0
M  V30 38695 C 3592.33 5.85956 1.7349 0
M  V30 38696 C 3593.33 6.71111 1.26882 0
M  V30 38697 O 3593.02 7.98876 0.89735 0
M  V30 38698 H 3592.75 0.55375 0.387733 0
M  V30 38699 H 3595.3 1.96832 0.587066 0
M  V30 38700 H 3593.53 2.28115 3.1225 0
M  V30 38701 H 3595.22 2.69148 3.03832 0
M  V30 38702 H 3595.99 4.6205 1.47426 0
M  V30 38703 H 3591.87 3.89637 2.46382 0
M  V30 38704 H 3595.41 6.92842 0.813345 0
M  V30 38705 H 3591.31 6.19669 1.80779 0
M  V30 38706 H 3592.08 8.12026 1.02743 0
M  V30 38707 N 3594.74 -0.737255 1.39292 0
M  V30 38708 C 3595.69 -1.84231 1.34324 0
M  V30 38709 C 3596.67 -1.59326 0.224517 0
M  V30 38710 O 3597.87 -1.70868 0.461862 0
M  V30 38711 C 3594.99 -3.22133 1.18682 0
M  V30 38712 C 3594.08 -3.52874 2.35246 0
M  V30 38713 N 3594.47 -3.54567 3.60716 0
M  V30 38714 C 3592.77 -3.83225 2.28154 0
M  V30 38715 C 3593.47 -3.8304 4.37785 0
M  V30 38716 N 3592.45 -4.00699 3.67343 0
M  V30 38717 H 3596.25 -1.83841 2.29303 0
M  V30 38718 H 3593.76 -0.93539 1.32756 0
M  V30 38719 H 3595.76 -4.01236 1.13206 0
M  V30 38720 H 3594.42 -3.23763 0.246518 0
M  V30 38721 H 3595.43 -3.35933 3.9417 0
M  V30 38722 H 3592.11 -3.92474 1.42373 0
M  V30 38723 H 3593.5 -3.90836 5.46532 0
M  V30 38724 N 3596.22 -1.24431 -0.967199 0
M  V30 38725 C 3597.15 -0.994983 -2.06477 0
M  V30 38726 C 3598.16 0.0357296 -1.62761 0
M  V30 38727 O 3599.35 -0.201367 -1.77361 0
M  V30 38728 C 3596.45 -0.479795 -3.35486 0
M  V30 38729 C 3595.62 -1.57376 -4.08107 0
M  V30 38730 C 3594.68 -1.06113 -5.1539 0
M  V30 38731 O 3593.71 -1.75293 -5.41536 0
M  V30 38732 N 3594.91 0.104186 -5.80406 0
M  V30 38733 H 3597.68 -1.93999 -2.28439 0
M  V30 38734 H 3595.24 -1.15467 -1.13486 0
M  V30 38735 H 3597.23 -0.121599 -4.04517 0
M  V30 38736 H 3595.8 0.370957 -3.10391 0
M  V30 38737 H 3595.02 -2.10412 -3.33347 0
M  V30 38738 H 3596.31 -2.30905 -4.53387 0
M  V30 38739 H 3595.71 0.68254 -5.61567 0
M  V30 38740 H 3594.26 0.403523 -6.5055 0
M  V30 38741 N 3597.7 1.16795 -1.05814 0
M  V30 38742 C 3598.94 1.87209 -0.771956 0
M  V30 38743 C 3599.27 1.81415 0.701333 0
M  V30 38744 O 3598.53 1.22125 1.52918 0
M  V30 38745 C 3598.82 3.36448 -1.20571 0
M  V30 38746 C 3598.49 3.62442 -2.68228 0
M  V30 38747 C 3597.15 3.69246 -3.08563 0
M  V30 38748 C 3599.5 3.73409 -3.63614 0
M  V30 38749 C 3596.83 3.84513 -4.43133 0
M  V30 38750 C 3599.18 3.90197 -4.97925 0
M  V30 38751 C 3597.85 3.95241 -5.37904 0
M  V30 38752 H 3597.12 0.685045 -0.282479 0
M  V30 38753 H 3599.77 1.3813 -1.32636 0
M  V30 38754 H 3598.07 3.87625 -0.570415 0
M  V30 38755 H 3599.77 3.89305 -0.961395 0
M  V30 38756 H 3596.36 3.57776 -2.35996 0
M  V30 38757 H 3600.54 3.67468 -3.33588 0
M  V30 38758 H 3595.8 3.86669 -4.736 0
M  V30 38759 H 3599.97 3.97625 -5.71723 0
M  V30 38760 H 3597.6 4.06823 -6.42183 0
M  V30 38761 N 3599.17 0.840037 1.33346 0
M  V30 38762 C 3600.42 0.436955 1.98037 0
M  V30 38763 C 3600.75 -1.00151 1.66383 0
M  V30 38764 O 3600.03 -1.70037 0.944341 0
M  V30 38765 C 3600.31 0.659432 3.54011 0
M  V30 38766 C 3600.16 2.14525 3.95347 0
M  V30 38767 C 3601.48 0.106335 4.39972 0
M  V30 38768 H 3598.6 0.160234 0.719371 0
M  V30 38769 H 3601.24 1.05577 1.57967 0
M  V30 38770 H 3599.39 0.132701 3.88273 0
M  V30 38771 H 3601.07 2.73694 3.71335 0
M  V30 38772 H 3599.31 2.62932 3.45035 0
M  V30 38773 H 3599.98 2.25166 5.03988 0
M  V30 38774 H 3602.46 0.556583 4.12361 0
M  V30 38775 H 3601.33 0.29168 5.48124 0
M  V30 38776 H 3601.59 -0.989956 4.30874 0
M  V30 38777 N 3600.65 -1.45872 0.596582 0
M  V30 38778 C 3601.93 -1.9559 0.0199906 0
M  V30 38779 C 3602.31 -1.53915 -1.44477 0
M  V30 38780 O 3601.66 -0.796422 -2.14171 0
M  V30 38781 C 3601.87 -3.48388 0.206558 0
M  V30 38782 C 3603.21 -4.24522 0.0816044 0
M  V30 38783 O 3604.24 -3.5594 0.136108 0
M  V30 38784 O 3603.1 -5.46483 -0.0425156 0
M  V30 38785 H 3600.19 -0.825934 -0.0419768 0
M  V30 38786 H 3602.74 -1.5609 0.665873 0
M  V30 38787 H 3601.51 -3.71654 1.22429 0
M  V30 38788 H 3601.13 -3.94751 -0.475106 0
M  V30 38789 N 3602.13 -0.335122 -1.53996 0
M  V30 38790 C 3603.04 0.534203 -2.28437 0
M  V30 38791 C 3604.06 1.11924 -1.33226 0
M  V30 38792 O 3605.23 1.13673 -1.66254 0
M  V30 38793 C 3602.3 1.67349 -3.03637 0
M  V30 38794 C 3601.36 1.11909 -4.14457 0
M  V30 38795 C 3600.59 2.20407 -4.86062 0
M  V30 38796 O 3600.81 3.40971 -4.57269 0
M  V30 38797 O 3599.75 1.85175 -5.72707 0
M  V30 38798 H 3603.57 -0.0706848 -3.03618 0
M  V30 38799 H 3601.16 -0.100435 -1.49062 0
M  V30 38800 H 3603.04 2.33653 -3.50691 0
M  V30 38801 H 3601.72 2.26434 -2.31321 0
M  V30 38802 H 3600.62 0.420806 -3.71726 0
M  V30 38803 H 3601.96 0.573209 -4.88851 0
M  V30 38804 N 3603.61 1.57472 -0.0635475 0
M  V30 38805 C 3604.84 1.97495 0.616701 0
M  V30 38806 C 3605.25 0.941596 1.63644 0
M  V30 38807 O 3604.61 -0.0727448 1.82355 0
M  V30 38808 C 3604.66 3.376 1.29262 0
M  V30 38809 O 3604.38 4.36975 0.313705 0
M  V30 38810 C 3605.88 3.92452 2.06147 0
M  V30 38811 H 3603.1 0.649695 0.167741 0
M  V30 38812 H 3605.64 2.04064 -0.133511 0
M  V30 38813 H 3603.8 3.32143 1.99398 0
M  V30 38814 H 3604.21 5.184 0.797632 0
M  V30 38815 H 3605.69 4.92728 2.48844 0
M  V30 38816 H 3606.16 3.28547 2.91468 0
M  V30 38817 H 3606.77 4.01283 1.40896 0
M  V30 38818 N 3605.09 -0.209945 1.56195 0
M  V30 38819 C 3606.03 -1.27978 1.94228 0
M  V30 38820 C 3607.03 -1.4791 0.825768 0
M  V30 38821 O 3608.23 -1.48947 1.01068 0
M  V30 38822 H 3604.61 -0.429322 0.617403 0
M  V30 38823 H 3606.58 -0.931896 2.83475 0
M  V30 38824 C 3605.33 -2.62047 2.28531 0
M  V30 38825 H 3604.65 -2.47521 3.13964 0
M  V30 38826 H 3606.09 -3.35687 2.59018 0
M  V30 38827 C 3604.55 -3.17929 1.11457 0
M  V30 38828 O 3605.08 -3.99882 0.381783 0
M  V30 38829 N 3603.29 -2.76464 0.895312 0
M  V30 38830 H 3602.83 -2.09926 1.49294 0
M  V30 38831 H 3602.79 -3.14194 0.113743 0
M  V30 38832 N 3606.56 -1.50205 -0.4771 0
M  V30 38833 C 3607.84 -1.51408 -1.23835 0
M  V30 38834 C 3608.22 -0.255315 -2.0955 0
M  V30 38835 O 3607.57 0.761497 -2.15438 0
M  V30 38836 C 3607.78 -2.80648 -2.07455 0
M  V30 38837 C 3609.13 -3.31075 -2.65846 0
M  V30 38838 O 3610.15 -2.81928 -2.17703 0
M  V30 38839 O 3609.01 -4.16732 -3.53548 0
M  V30 38840 H 3606.1 -0.607045 -0.561627 0
M  V30 38841 H 3608.65 -1.6249 -0.489413 0
M  V30 38842 H 3607.42 -3.6374 -1.44252 0
M  V30 38843 H 3607.04 -2.72541 -2.89495 0
M  V30 38844 N 3608.04 0.729857 -1.39681 0
M  V30 38845 C 3608.99 1.84391 -1.38812 0
M  V30 38846 C 3609.96 1.64252 -0.247064 0
M  V30 38847 O 3611.14 1.85587 -0.442962 0
M  V30 38848 C 3608.28 3.21958 -1.24246 0
M  V30 38849 C 3607.4 3.53766 -2.47938 0
M  V30 38850 C 3606.53 4.80763 -2.25922 0
M  V30 38851 C 3605.57 5.0543 -3.45263 0
M  V30 38852 N 3604.71 6.23633 -3.22531 0
M  V30 38853 H 3609.55 1.84469 -2.34041 0
M  V30 38854 H 3607.09 0.901311 -1.16253 0
M  V30 38855 H 3609.04 4.01376 -1.13811 0
M  V30 38856 H 3607.67 3.21145 -0.326432 0
M  V30 38857 H 3606.73 2.6901 -2.68957 0
M  V30 38858 H 3608.04 3.67911 -3.36813 0
M  V30 38859 H 3607.19 5.68171 -2.12758 0
M  V30 38860 H 3605.93 4.68801 -1.3445 0
M  V30 38861 H 3604.94 4.16482 -3.58919 0
M  V30 38862 H 3606.16 5.19274 -4.37643 0
M  V30 38863 H 3604.11 6.12949 -2.33729 0
M  V30 38864 H 3604.02 6.38388 -4.04965 0
M  V30 38865 H 3605.29 7.13867 -3.13072 0
M  V30 38866 N 3609.52 1.24942 0.960587 0
M  V30 38867 C 3610.77 1.08734 1.69882 0
M  V30 38868 C 3611.08 -0.372568 1.92019 0
M  V30 38869 O 3612.29 -0.654972 2.63481 0
M  V30 38870 C 3610.74 1.89755 3.05812 0
M  V30 38871 C 3610.35 3.40201 2.91492 0
M  V30 38872 C 3612.1 1.82099 3.83458 0
M  V30 38873 C 3610 4.13539 4.22776 0
M  V30 38874 H 3608.93 0.403292 0.63708 0
M  V30 38875 H 3611.58 1.49086 1.06984 0
M  V30 38876 H 3609.97 1.42223 3.69579 0
M  V30 38877 H 3611.14 3.95364 2.36693 0
M  V30 38878 H 3609.46 3.48886 2.27305 0
M  V30 38879 H 3612.05 2.3419 4.80686 0
M  V30 38880 H 3612.4 0.787669 4.0878 0
M  V30 38881 H 3612.93 2.2735 3.26431 0
M  V30 38882 H 3609.67 5.1726 4.02644 0
M  V30 38883 H 3609.19 3.6316 4.77362 0
M  V30 38884 H 3610.87 4.20929 4.91353 0
M  V30 38885 N 3611 -1.16233 1.06432 0
M  V30 38886 C 3612.41 -1.38788 0.788045 0
M  V30 38887 C 3612.61 -1.91982 -0.611985 0
M  V30 38888 O 3611.67 -2.11952 -1.37231 0
M  V30 38889 C 3612.98 -2.36735 1.8541 0
M  V30 38890 C 3614.53 -2.50417 1.87777 0
M  V30 38891 C 3615.01 -3.51648 2.93441 0
M  V30 38892 N 3616.5 -3.59176 2.92484 0
M  V30 38893 C 3617.23 -4.37298 3.70888 0
M  V30 38894 N 3616.73 -5.18831 4.59115 0
M  V30 38895 N 3618.52 -4.32294 3.59274 0
M  V30 38896 H 3610.67 -0.800414 1.96741 0
M  V30 38897 H 3612.94 -0.414382 0.852638 0
M  V30 38898 H 3612.64 -2.04746 2.85958 0
M  V30 38899 H 3612.52 -3.364 1.70631 0
M  V30 38900 H 3614.9 -2.81709 0.878874 0
M  V30 38901 H 3614.98 -1.50783 2.06635 0
M  V30 38902 H 3614.63 -3.21093 3.93525 0
M  V30 38903 H 3614.56 -4.51015 2.71832 0
M  V30 38904 H 3617.05 -3.00975 2.28523 0
M  V30 38905 H 3617.36 -5.75659 5.15593 0
M  V30 38906 H 3615.71 -5.18169 4.63169 0
M  V30 38907 H 3618.9 -3.67658 2.89733 0
M  V30 38908 H 3619.07 -4.92931 4.20622 0
M  V30 38909 N 3612.48 -0.847097 -1.32899 0
M  V30 38910 C 3613.39 -0.288919 -2.32814 0
M  V30 38911 C 3614.4 0.589335 -1.63716 0
M  V30 38912 O 3615.58 0.491503 -1.95311 0
M  V30 38913 C 3612.64 0.519928 -3.42779 0
M  V30 38914 C 3611.7 -0.383571 -4.27583 0
M  V30 38915 C 3610.94 0.386768 -5.32297 0
M  V30 38916 O 3611.16 1.61758 -5.46983 0
M  V30 38917 O 3610.09 -0.243506 -6.01407 0
M  V30 38918 H 3613.92 -1.11651 -2.82432 0
M  V30 38919 H 3611.51 -0.609831 -1.36387 0
M  V30 38920 H 3613.39 0.979285 -4.09863 0
M  V30 38921 H 3612.06 1.32445 -2.95364 0
M  V30 38922 H 3610.97 -0.890943 -3.63336 0
M  V30 38923 H 3612.3 -1.15308 -4.78503 0
M  V30 38924 N 3613.95 1.45554 -0.604309 0
M  V30 38925 C 3615.2 2.02561 -0.0983672 0
M  V30 38926 C 3615.53 1.47214 1.26656 0
M  V30 38927 O 3614.81 0.645551 1.83475 0
M  V30 38928 C 3615.09 3.60057 -0.0558981 0
M  V30 38929 C 3614.94 4.25745 -1.45126 0
M  V30 38930 C 3616.26 4.35515 0.633631 0
M  V30 38931 H 3613.38 0.73606 -0.03722 0
M  V30 38932 H 3616.02 1.73446 -0.775653 0
M  V30 38933 H 3614.17 3.84992 0.520868 0
M  V30 38934 H 3615.85 4.12004 -2.07485 0
M  V30 38935 H 3614.09 3.84272 -2.0129 0
M  V30 38936 H 3614.76 5.34631 -1.37382 0
M  V30 38937 H 3617.24 4.15853 0.143428 0
M  V30 38938 H 3616.11 5.45244 0.632442 0
M  V30 38939 H 3616.37 4.08146 1.6991 0
M  V30 38940 N 3615.43 0.343284 1.53816 0
M  V30 38941 C 3616.66 -0.254708 2.05326 0
M  V30 38942 C 3617.08 -1.44235 1.21827 0
M  V30 38943 O 3616.43 -1.8073 0.253539 0
M  V30 38944 C 3616.48 -0.670012 3.55237 0
M  V30 38945 O 3616.2 0.470399 4.35567 0
M  V30 38946 C 3617.71 -1.32875 4.22917 0
M  V30 38947 H 3614.93 -0.0492206 0.669192 0
M  V30 38948 H 3617.47 0.495194 1.98414 0
M  V30 38949 H 3615.62 -1.36986 3.62372 0
M  V30 38950 H 3616.04 0.139395 5.24315 0
M  V30 38951 H 3617.51 -1.5701 5.29199 0
M  V30 38952 H 3617.99 -2.28222 3.75248 0
M  V30 38953 H 3618.6 -0.670946 4.19974 0
M  V30 38954 N 3616.91 -1.57436 0.0718977 0
M  V30 38955 C 3617.84 -2.09711 -0.924874 0
M  V30 38956 C 3618.86 -1.02928 -1.26134 0
M  V30 38957 O 3620.04 -1.3044 -1.21851 0
M  V30 38958 C 3617.14 -2.54258 -2.24067 0
M  V30 38959 C 3616.32 -3.84615 -2.08304 0
M  V30 38960 C 3615.38 -4.15254 -3.23189 0
M  V30 38961 O 3614.4 -4.84851 -2.98175 0
M  V30 38962 N 3615.6 -3.68808 -4.48287 0
M  V30 38963 H 3618.37 -2.95855 -0.478553 0
M  V30 38964 H 3615.93 -1.61499 -0.113825 0
M  V30 38965 H 3617.92 -2.71816 -2.9983 0
M  V30 38966 H 3616.49 -1.73251 -2.60198 0
M  V30 38967 H 3615.71 -3.76434 -1.17008 0
M  V30 38968 H 3617 -4.6994 -1.95022 0
M  V30 38969 H 3616.4 -3.12583 -4.71496 0
M  V30 38970 H 3614.96 -3.91566 -5.21076 0
M  V30 38971 N 3618.39 0.201658 -1.56305 0
M  V30 38972 C 3619.8 0.552221 -1.49742 0
M  V30 38973 C 3620 1.86178 -0.770716 0
M  V30 38974 O 3619.06 2.50483 -0.318533 0
M  V30 38975 C 3620.37 0.613032 -2.94385 0
M  V30 38976 C 3621.92 0.702311 -3.05019 0
M  V30 38977 C 3622.4 0.794292 -4.5106 0
M  V30 38978 N 3623.89 0.857992 -4.55184 0
M  V30 38979 C 3624.62 0.949217 -5.65489 0
M  V30 38980 N 3624.12 1.00315 -6.85499 0
M  V30 38981 N 3625.91 0.985898 -5.53386 0
M  V30 38982 H 3618.06 -0.657429 -2.01969 0
M  V30 38983 H 3620.33 -0.233338 -0.918835 0
M  V30 38984 H 3620.03 -0.279982 -3.50584 0
M  V30 38985 H 3619.91 1.46995 -3.47379 0
M  V30 38986 H 3622.29 1.58576 -2.48873 0
M  V30 38987 H 3622.37 -0.180681 -2.55161 0
M  V30 38988 H 3622.02 -0.0847776 -5.07829 0
M  V30 38989 H 3621.95 1.69299 -4.98644 0
M  V30 38990 H 3624.44 0.825824 -3.68766 0
M  V30 38991 H 3624.75 1.07309 -7.65313 0
M  V30 38992 H 3623.1 0.97194 -6.8817 0
M  V30 38993 H 3626.29 0.940554 -4.58553 0
M  V30 38994 H 3626.46 1.05353 -6.39378 0
M  V30 38995 N 3619.87 1.50456 0.469128 0
M  V30 38996 C 3620.8 1.72393 1.5749 0
M  V30 38997 C 3621.78 0.572943 1.6016 0
M  V30 38998 O 3622.96 0.81229 1.76396 0
M  V30 38999 C 3620.09 1.81987 2.95801 0
M  V30 39000 C 3619.05 2.97191 3.07996 0
M  V30 39001 C 3618.37 2.9193 4.47975 0
M  V30 39002 C 3619.67 4.3767 2.85031 0
M  V30 39003 H 3621.37 2.64976 1.39384 0
M  V30 39004 H 3618.91 1.2751 0.669111 0
M  V30 39005 H 3620.87 1.95918 3.73087 0
M  V30 39006 H 3619.59 0.860265 3.15067 0
M  V30 39007 H 3618.25 2.82913 2.33143 0
M  V30 39008 H 3617.9 1.93812 4.64162 0
M  V30 39009 H 3617.6 3.69271 4.5707 0
M  V30 39010 H 3619.12 3.07912 5.27279 0
M  V30 39011 H 3620.53 4.52462 3.52066 0
M  V30 39012 H 3618.93 5.16476 3.05569 0
M  V30 39013 H 3620 4.49903 1.80873 0
M  V30 39014 N 3621.34 -0.722439 1.40066 0
M  V30 39015 C 3622.29 -1.85786 1.39951 0
M  V30 39016 C 3623.29 -1.67054 0.280919 0
M  V30 39017 O 3624.49 -1.74243 0.451605 0
M  V30 39018 H 3620.87 -0.611774 0.437307 0
M  V30 39019 H 3622.84 -1.83 2.35698 0
M  V30 39020 C 3621.59 -3.23588 1.27224 0
M  V30 39021 H 3620.91 -3.38605 2.12572 0
M  V30 39022 H 3622.35 -4.0319 1.31202 0
M  V30 39023 C 3620.81 -3.36895 -0.0181873 0
M  V30 39024 O 3621.34 -3.89469 -0.983693 0
M  V30 39025 N 3619.55 -2.90474 -0.0854196 0
M  V30 39026 H 3619.09 -2.47879 0.700996 0
M  V30 39027 H 3619.05 -2.99757 -0.948315 0
M  V30 39028 N 3622.82 -1.2545 -0.953947 0
M  V30 39029 C 3624.07 -1.10021 -1.69528 0
M  V30 39030 C 3624.39 0.359352 -1.9166 0
M  V30 39031 O 3623.66 1.25503 -1.50419 0
M  V30 39032 H 3622.24 -0.404147 -0.628231 0
M  V30 39033 H 3624.9 -1.57583 -1.14689 0
M  V30 39034 H 3624 -1.60905 -2.67424 0
M  V30 39035 N 3624.3 1.15667 -1.07047 0
M  V30 39036 C 3625.21 2.23933 -0.699371 0
M  V30 39037 C 3626.23 1.716 0.288006 0
M  V30 39038 O 3627.4 2.00944 0.135411 0
M  V30 39039 C 3624.47 3.46557 -0.0995384 0
M  V30 39040 C 3623.53 4.13894 -1.13976 0
M  V30 39041 C 3622.76 5.30664 -0.568453 0
M  V30 39042 O 3622.99 5.67059 0.616456 0
M  V30 39043 O 3621.92 5.8743 -1.31185 0
M  V30 39044 H 3625.75 2.58 -1.60217 0
M  V30 39045 H 3623.33 1.23329 -0.843223 0
M  V30 39046 H 3625.21 4.20756 0.232856 0
M  V30 39047 H 3623.89 3.14245 0.776628 0
M  V30 39048 H 3622.79 3.4163 -1.52446 0
M  V30 39049 H 3624.13 4.50278 -1.98772 0
M  V30 39050 N 3625.78 0.854133 1.32447 0
M  V30 39051 C 3627.03 0.453486 1.96536 0
M  V30 39052 C 3627.34 -0.995952 1.68345 0
M  V30 39053 O 3628.55 -1.502 2.26168 0
M  V30 39054 C 3627 0.759996 3.51784 0
M  V30 39055 C 3626.61 2.22513 3.88834 0
M  V30 39056 C 3628.36 0.427047 4.22346 0
M  V30 39057 C 3626.26 2.47489 5.37125 0
M  V30 39058 H 3625.19 0.165848 0.735534 0
M  V30 39059 H 3627.84 1.04484 1.50849 0
M  V30 39060 H 3626.23 0.0980812 3.95879 0
M  V30 39061 H 3627.4 2.92879 3.55751 0
M  V30 39062 H 3625.71 2.52255 3.31295 0
M  V30 39063 H 3628.31 0.591079 5.31423 0
M  V30 39064 H 3628.65 -0.631287 4.11486 0
M  V30 39065 H 3629.19 1.04483 3.83833 0
M  V30 39066 H 3625.93 3.51945 5.53006 0
M  V30 39067 H 3625.45 1.817 5.71616 0
M  V30 39068 H 3627.13 2.31412 6.042 0
M  V30 39069 N 3627.26 -1.45231 0.61202 0
M  V30 39070 C 3628.19 -2.28757 -0.142409 0
M  V30 39071 C 3629.2 -1.40203 -0.827461 0
M  V30 39072 O 3630.39 -1.64536 -0.692107 0
M  V30 39073 C 3627.49 -3.16067 -1.2229 0
M  V30 39074 C 3626.66 -4.32925 -0.624102 0
M  V30 39075 C 3625.72 -5.0141 -1.59606 0
M  V30 39076 O 3624.75 -5.5806 -1.12063 0
M  V30 39077 N 3625.95 -5.01102 -2.93048 0
M  V30 39078 H 3628.72 -2.94145 0.574327 0
M  V30 39079 H 3626.28 -1.55468 0.451816 0
M  V30 39080 H 3628.27 -3.58747 -1.87303 0
M  V30 39081 H 3626.84 -2.52558 -1.8421 0
M  V30 39082 H 3626.06 -3.93671 0.20421 0
M  V30 39083 H 3627.35 -5.08389 -0.204346 0
M  V30 39084 H 3626.75 -4.56376 -3.34272 0
M  V30 39085 H 3625.3 -5.47632 -3.53472 0
M  V30 39086 N 3628.74 -0.351436 -1.53632 0
M  V30 39087 C 3629.7 0.489254 -2.23917 0
M  V30 39088 C 3630.7 1.02121 -1.24209 0
M  V30 39089 O 3631.89 0.909209 -1.4859 0
M  V30 39090 C 3629.02 1.68236 -2.96495 0
M  V30 39091 H 3630.21 -0.125571 -2.99637 0
M  V30 39092 H 3627.77 -0.102901 -1.55961 0
M  V30 39093 H 3628.5 2.33567 -2.24982 0
M  V30 39094 H 3628.29 1.30803 -3.69639 0
M  V30 39095 H 3629.78 2.27847 -3.49965 0
M  V30 39096 N 3630.21 1.57396 -0.0802459 0
M  V30 39097 C 3631.14 2.16226 0.881388 0
M  V30 39098 C 3632.12 1.09156 1.30457 0
M  V30 39099 O 3633.31 1.37229 1.37411 0
M  V30 39100 C 3630.44 2.73069 2.14594 0
M  V30 39101 C 3629.39 3.8538 1.86189 0
M  V30 39102 C 3628.72 4.28861 3.19346 0
M  V30 39103 C 3630.02 5.09244 1.1605 0
M  V30 39104 H 3631.71 2.96832 0.391273 0
M  V30 39105 H 3629.26 1.42784 0.18676 0
M  V30 39106 H 3631.21 3.12873 2.82292 0
M  V30 39107 H 3629.94 1.89696 2.65863 0
M  V30 39108 H 3628.6 3.46093 1.20894 0
M  V30 39109 H 3628.24 3.42399 3.68473 0
M  V30 39110 H 3627.94 5.04575 3.01128 0
M  V30 39111 H 3629.47 4.71288 3.88227 0
M  V30 39112 H 3630.88 5.46311 1.73831 0
M  V30 39113 H 3629.28 5.9029 1.08062 0
M  V30 39114 H 3630.35 4.84695 0.140895 0
M  V30 39115 N 3631.69 -0.193366 1.56409 0
M  V30 39116 C 3632.6 -1.26005 1.97888 0
M  V30 39117 C 3633.62 -1.49705 0.886812 0
M  V30 39118 O 3634.79 -1.62286 1.1927 0
M  V30 39119 C 3631.86 -2.584 2.3115 0
M  V30 39120 C 3630.92 -2.42757 3.54073 0
M  V30 39121 C 3630.15 -3.68838 3.85739 0
M  V30 39122 O 3630.38 -4.73081 3.1867 0
M  V30 39123 O 3629.31 -3.64264 4.79161 0
M  V30 39124 H 3633.14 -0.938037 2.8885 0
M  V30 39125 H 3630.72 -0.398503 1.43987 0
M  V30 39126 H 3632.6 -3.3654 2.53612 0
M  V30 39127 H 3631.28 -2.90226 1.43356 0
M  V30 39128 H 3630.18 -1.62722 3.36857 0
M  V30 39129 H 3631.52 -2.15863 4.42339 0
M  V30 39130 N 3633.17 -1.50702 -0.461142 0
M  V30 39131 C 3634.1 -1.73226 -1.56573 0
M  V30 39132 C 3635.08 -0.581429 -1.59854 0
M  V30 39133 O 3636.27 -0.821633 -1.75963 0
M  V30 39134 C 3633.4 -1.83553 -2.94832 0
M  V30 39135 C 3632.35 -2.9882 -3.06416 0
M  V30 39136 C 3631.68 -2.94301 -4.4642 0
M  V30 39137 C 3632.98 -4.39175 -2.82706 0
M  V30 39138 H 3634.67 -2.65712 -1.37977 0
M  V30 39139 H 3632.22 -1.27863 -0.662339 0
M  V30 39140 H 3634.17 -1.97893 -3.72043 0
M  V30 39141 H 3632.89 -0.876962 -3.14606 0
M  V30 39142 H 3631.55 -2.84146 -2.31639 0
M  V30 39143 H 3631.2 -1.9627 -4.63127 0
M  V30 39144 H 3630.9 -3.7169 -4.55105 0
M  V30 39145 H 3632.42 -3.10704 -5.25638 0
M  V30 39146 H 3633.84 -4.54323 -3.49662 0
M  V30 39147 H 3632.23 -5.18089 -3.02826 0
M  V30 39148 H 3633.3 -4.50856 -1.78484 0
M  V30 39149 N 3634.65 0.715001 -1.40447 0
M  V30 39150 C 3636.06 1.29417 -1.34567 0
M  V30 39151 C 3636.41 1.9619 -0.0194329 0
M  V30 39152 O 3635.53 1.97584 0.882582 0
M  V30 39153 C 3636.13 2.35337 -2.43725 0
M  V30 39154 C 3634.69 2.88877 -2.41303 0
M  V30 39155 C 3633.84 1.62673 -2.24573 0
M  V30 39156 H 3636.79 0.51109 -1.50245 0
M  V30 39157 H 3636.81 3.16193 -2.11665 0
M  V30 39158 H 3636.32 1.86709 -3.40237 0
M  V30 39159 H 3634.42 3.41733 -1.48489 0
M  V30 39160 H 3634.53 3.40631 -3.36909 0
M  V30 39161 H 3632.9 1.8776 -1.72099 0
M  V30 39162 H 3633.68 1.16068 -3.23084 0
M  V30 39163 N 3636.13 1.25954 0.947281 0
M  V30 39164 C 3637.06 1.02771 2.04868 0
M  V30 39165 C 3638.07 -0.00983122 1.62797 0
M  V30 39166 O 3639.26 0.229558 1.77018 0
M  V30 39167 C 3636.36 0.533107 3.34681 0
M  V30 39168 C 3635.53 1.63848 4.05552 0
M  V30 39169 C 3634.59 1.14299 5.13636 0
M  V30 39170 O 3633.62 1.83886 5.38679 0
M  V30 39171 N 3634.82 -0.0118356 5.80499 0
M  V30 39172 H 3637.58 1.97609 2.25324 0
M  V30 39173 H 3635.15 1.17258 1.11634 0
M  V30 39174 H 3637.14 0.185939 4.04273 0
M  V30 39175 H 3635.71 -0.32153 3.10942 0
M  V30 39176 H 3634.93 2.15688 3.29958 0
M  V30 39177 H 3636.22 2.38089 4.49657 0
M  V30 39178 H 3635.61 -0.593113 5.62582 0
M  V30 39179 H 3634.17 -0.299975 6.51109 0
M  V30 39180 N 3637.6 -1.15097 1.07659 0
M  V30 39181 C 3638.55 -2.19938 0.699716 0
M  V30 39182 C 3639.52 -1.63174 -0.310403 0
M  V30 39183 O 3640.71 -1.89789 -0.196144 0
M  V30 39184 C 3637.85 -3.44934 0.107024 0
M  V30 39185 C 3636.96 -4.15883 1.169 0
M  V30 39186 C 3636.09 -5.28438 0.540977 0
M  V30 39187 C 3635.13 -5.91209 1.58552 0
M  V30 39188 N 3634.27 -6.95229 0.979854 0
M  V30 39189 H 3639.11 -2.51525 1.5981 0
M  V30 39190 H 3636.65 -1.23524 0.798768 0
M  V30 39191 H 3638.61 -4.16424 -0.254262 0
M  V30 39192 H 3637.24 -3.13854 -0.754701 0
M  V30 39193 H 3636.29 -3.42857 1.64781 0
M  V30 39194 H 3637.6 -4.58641 1.96086 0
M  V30 39195 H 3636.75 -6.06566 0.127504 0
M  V30 39196 H 3635.49 -4.8688 -0.282622 0
M  V30 39197 H 3634.5 -5.11791 2.00874 0
M  V30 39198 H 3635.72 -6.34843 2.41146 0
M  V30 39199 H 3633.67 -6.55761 0.177213 0
M  V30 39200 H 3633.59 -7.36432 1.70891 0
M  V30 39201 H 3634.85 -7.77249 0.591986 0
M  V30 39202 N 3639.08 -0.861145 -1.31993 0
M  V30 39203 C 3640.05 -0.315461 -2.27019 0
M  V30 39204 C 3641.05 0.528549 -1.51865 0
M  V30 39205 O 3642.24 0.339124 -1.70867 0
M  V30 39206 C 3639.37 0.552961 -3.36385 0
M  V30 39207 H 3640.56 -1.15424 -2.76798 0
M  V30 39208 H 3638.11 -0.636007 -1.42775 0
M  V30 39209 H 3638.85 1.4133 -2.91884 0
M  V30 39210 H 3638.63 -0.0512608 -3.92066 0
M  V30 39211 H 3640.12 0.927321 -4.07174 0
M  V30 39212 N 3640.56 1.44905 -0.619713 0
M  V30 39213 C 3641.47 2.34414 0.09351 0
M  V30 39214 C 3642.49 1.51953 0.847712 0
M  V30 39215 O 3643.66 1.84719 0.802559 0
M  V30 39216 C 3640.73 3.29762 1.07041 0
M  V30 39217 C 3639.79 4.28129 0.316835 0
M  V30 39218 C 3639.02 5.18923 1.2472 0
M  V30 39219 O 3639.24 5.13399 2.48551 0
M  V30 39220 O 3638.18 5.97362 0.737694 0
M  V30 39221 H 3642 2.96828 -0.642387 0
M  V30 39222 H 3639.59 1.44488 -0.379933 0
M  V30 39223 H 3641.47 3.88484 1.63274 0
M  V30 39224 H 3640.15 2.69896 1.78712 0
M  V30 39225 H 3639.05 3.72988 -0.288258 0
M  V30 39226 H 3640.39 4.90884 -0.359626 0
M  V30 39227 N 3642.04 0.359579 1.53443 0
M  V30 39228 C 3643 -0.477372 2.24174 0
M  V30 39229 C 3644 -1.01461 1.24749 0
M  V30 39230 O 3645.19 -0.901316 1.4907 0
M  V30 39231 C 3642.32 -1.66662 2.97383 0
M  V30 39232 H 3643.52 0.14146 2.99566 0
M  V30 39233 H 3641.07 0.11117 1.55904 0
M  V30 39234 H 3641.8 -2.3237 2.26218 0
M  V30 39235 H 3641.59 -1.28841 3.70327 0
M  V30 39236 H 3643.08 -2.25988 3.51169 0
M  V30 39237 N 3643.52 -1.57351 0.0885919 0
M  V30 39238 C 3644.45 -2.16691 -0.869908 0
M  V30 39239 C 3645.43 -1.09846 -1.29876 0
M  V30 39240 O 3646.61 -1.37956 -1.36681 0
M  V30 39241 C 3643.74 -2.74203 -2.13143 0
M  V30 39242 C 3642.7 -3.86362 -1.84142 0
M  V30 39243 C 3642.02 -4.30549 -3.17068 0
M  V30 39244 C 3643.32 -5.09852 -1.13348 0
M  V30 39245 H 3645.02 -2.97036 -0.375526 0
M  V30 39246 H 3642.56 -1.42881 -0.179185 0
M  V30 39247 H 3644.52 -3.14365 -2.80628 0
M  V30 39248 H 3643.24 -1.91103 -2.64853 0
M  V30 39249 H 3641.9 -3.46729 -1.19057 0
M  V30 39250 H 3641.55 -3.44348 -3.66652 0
M  V30 39251 H 3641.25 -5.06164 -2.98448 0
M  V30 39252 H 3642.77 -4.7334 -3.85722 0
M  V30 39253 H 3644.18 -5.47225 -1.70931 0
M  V30 39254 H 3642.58 -5.90855 -1.0493 0
M  V30 39255 H 3643.65 -4.84763 -0.115188 0
M  V30 39256 N 3644.99 0.185069 -1.5651 0
M  V30 39257 C 3645.94 1.2293 -1.95338 0
M  V30 39258 C 3646.91 1.44711 -0.815346 0
M  V30 39259 O 3648.1 1.57679 -1.07434 0
M  V30 39260 C 3645.24 2.56677 -2.30675 0
M  V30 39261 C 3644.35 2.4239 -3.5759 0
M  V30 39262 C 3643.48 3.68909 -3.82203 0
M  V30 39263 C 3642.52 3.49498 -5.02511 0
M  V30 39264 N 3641.66 4.68053 -5.23327 0
M  V30 39265 H 3646.5 0.89118 -2.84362 0
M  V30 39266 H 3644.04 0.428665 -1.40716 0
M  V30 39267 H 3646 3.34611 -2.49182 0
M  V30 39268 H 3644.63 2.88512 -1.44778 0
M  V30 39269 H 3643.68 1.55703 -3.47075 0
M  V30 39270 H 3644.99 2.23986 -4.45681 0
M  V30 39271 H 3644.14 4.55281 -4.01004 0
M  V30 39272 H 3642.88 3.90279 -2.92462 0
M  V30 39273 H 3641.89 2.61511 -4.83624 0
M  V30 39274 H 3643.11 3.29564 -5.93771 0
M  V30 39275 H 3641.06 4.89667 -4.36535 0
M  V30 39276 H 3640.98 4.52511 -6.05616 0
M  V30 39277 H 3642.24 5.55747 -5.46594 0
M  V30 39278 N 3646.47 1.50945 0.453144 0
M  V30 39279 C 3647.4 1.74054 1.55652 0
M  V30 39280 C 3648.38 0.589898 1.59544 0
M  V30 39281 O 3649.57 0.830953 1.75524 0
M  V30 39282 C 3646.7 1.85114 2.93854 0
M  V30 39283 C 3645.65 3.00441 3.04827 0
M  V30 39284 C 3644.98 2.96665 4.44853 0
M  V30 39285 C 3646.28 4.40668 2.80373 0
M  V30 39286 H 3647.97 2.6644 1.36566 0
M  V30 39287 H 3645.52 1.28213 0.655549 0
M  V30 39288 H 3647.47 1.99864 3.70988 0
M  V30 39289 H 3646.2 0.893634 3.14137 0
M  V30 39290 H 3644.85 2.8537 2.30129 0
M  V30 39291 H 3644.5 1.98724 4.6208 0
M  V30 39292 H 3644.2 3.74098 4.53127 0
M  V30 39293 H 3645.73 3.13487 5.23983 0
M  V30 39294 H 3647.14 4.56171 3.47247 0
M  V30 39295 H 3645.54 5.19688 3.00074 0
M  V30 39296 H 3646.61 4.51797 1.76091 0
M  V30 39297 N 3647.95 -0.707543 1.40825 0
M  V30 39298 C 3649.2 -1.4675 1.39537 0
M  V30 39299 C 3649.53 -1.945 0.000404699 0
M  V30 39300 O 3648.78 -1.69069 -0.985598 0
M  V30 39301 C 3649.08 -2.7029 2.33834 0
M  V30 39302 C 3648.75 -2.41262 3.80924 0
M  V30 39303 C 3647.41 -2.33056 4.20997 0
M  V30 39304 C 3649.76 -2.17078 4.73842 0
M  V30 39305 C 3647.09 -1.98745 5.52012 0
M  V30 39306 C 3649.44 -1.84278 6.05165 0
M  V30 39307 C 3648.1 -1.74559 6.44271 0
M  V30 39308 H 3647.37 -0.536997 0.510603 0
M  V30 39309 H 3650.02 -0.809758 1.73537 0
M  V30 39310 H 3648.33 -3.40941 1.93046 0
M  V30 39311 H 3650.02 -3.28401 2.30117 0
M  V30 39312 H 3646.61 -2.48539 3.4918 0
M  V30 39313 H 3650.8 -2.2237 4.43695 0
M  V30 39314 H 3646.05 -1.89764 5.81205 0
M  V30 39315 H 3650.23 -1.64581 6.76673 0
M  V30 39316 H 3647.85 -1.4774 7.45706 0
M  V30 39317 N 3649.43 -1.26454 -0.940588 0
M  V30 39318 C 3650.36 -1.10563 -2.05665 0
M  V30 39319 C 3651.34 -0.0106557 -1.70097 0
M  V30 39320 O 3652.52 -0.18279 -1.93338 0
M  V30 39321 C 3649.65 -0.738459 -3.39358 0
M  V30 39322 C 3648.61 -1.78524 -3.8899 0
M  V30 39323 C 3647.93 -1.27237 -5.19341 0
M  V30 39324 C 3649.23 -3.18687 -4.13806 0
M  V30 39325 H 3650.93 -2.03921 -2.19218 0
M  V30 39326 H 3648.47 -0.981838 -1.05337 0
M  V30 39327 H 3650.43 -0.614163 -4.169 0
M  V30 39328 H 3649.15 0.23083 -3.25783 0
M  V30 39329 H 3647.81 -1.89821 -3.13629 0
M  V30 39330 H 3647.46 -0.292904 -5.02146 0
M  V30 39331 H 3647.16 -1.97211 -5.53517 0
M  V30 39332 H 3648.68 -1.16075 -5.99465 0
M  V30 39333 H 3650.1 -3.10463 -4.8196 0
M  V30 39334 H 3648.49 -3.86257 -4.59266 0
M  V30 39335 H 3649.56 -3.647 -3.19565 0
M  V30 39336 N 3650.91 1.14525 -1.08268 0
M  V30 39337 C 3651.82 2.23179 -0.723083 0
M  V30 39338 C 3652.83 1.71896 0.269789 0
M  V30 39339 O 3654.01 2.01077 0.114091 0
M  V30 39340 C 3651.07 3.46432 -0.13629 0
M  V30 39341 C 3650.13 4.12662 -1.18359 0
M  V30 39342 C 3649.37 5.30031 -0.624705 0
M  V30 39343 O 3649.59 5.67681 0.556277 0
M  V30 39344 O 3648.52 5.86006 -1.37408 0
M  V30 39345 H 3652.35 2.56287 -1.62944 0
M  V30 39346 H 3649.94 1.22428 -0.856257 0
M  V30 39347 H 3651.82 4.20979 0.188216 0
M  V30 39348 H 3650.49 3.15051 0.743255 0
M  V30 39349 H 3649.4 3.39994 -1.5606 0
M  V30 39350 H 3650.73 4.48145 -2.03536 0
M  V30 39351 N 3652.39 0.868133 1.31534 0
M  V30 39352 C 3653.3 0.325921 2.32325 0
M  V30 39353 C 3654.31 -0.563214 1.64633 0
M  V30 39354 O 3655.49 -0.460368 1.96068 0
M  V30 39355 C 3652.55 -0.465329 3.43563 0
M  V30 39356 C 3651.61 0.451547 4.26919 0
M  V30 39357 C 3650.85 -0.302035 5.32845 0
M  V30 39358 O 3651.07 -1.53036 5.49487 0
M  V30 39359 O 3650 0.339154 6.00944 0
M  V30 39360 H 3653.83 1.16131 2.8062 0
M  V30 39361 H 3651.41 0.631452 1.354 0
M  V30 39362 H 3653.3 -0.913956 4.11369 0
M  V30 39363 H 3651.97 -1.27729 2.97434 0
M  V30 39364 H 3650.88 0.948634 3.61873 0
M  V30 39365 H 3652.21 1.22905 4.76608 0
M  V30 39366 N 3653.86 -1.44574 0.627389 0
M  V30 39367 C 3655.09 -2.06444 0.13735 0
M  V30 39368 C 3655.51 -1.46857 -1.18652 0
M  V30 39369 O 3654.86 -0.590048 -1.72698 0
M  V30 39370 C 3654.91 -3.61498 0.0124116 0
M  V30 39371 O 3654.64 -4.18864 1.28393 0
M  V30 39372 C 3656.14 -4.40394 -0.506764 0
M  V30 39373 H 3653.36 -0.666457 0.0779504 0
M  V30 39374 H 3655.9 -1.85504 0.860733 0
M  V30 39375 H 3654.06 -3.81712 -0.661393 0
M  V30 39376 H 3654.47 -5.12263 1.12635 0
M  V30 39377 H 3655.94 -5.49321 -0.543207 0
M  V30 39378 H 3656.42 -4.11575 -1.53307 0
M  V30 39379 H 3657.03 -4.2509 0.133664 0
M  V30 39380 N 3655.34 -0.367711 -1.5325 0
M  V30 39381 C 3656.29 0.477762 -2.25801 0
M  V30 39382 C 3657.26 1.07576 -1.26556 0
M  V30 39383 O 3658.44 1.10785 -1.55342 0
M  V30 39384 C 3655.58 1.61044 -3.05219 0
M  V30 39385 C 3654.7 1.03741 -4.19359 0
M  V30 39386 C 3653.83 2.13936 -4.86215 0
M  V30 39387 C 3652.87 1.54109 -5.92382 0
M  V30 39388 N 3652.01 2.58146 -6.5292 0
M  V30 39389 H 3656.85 -0.147419 -2.97635 0
M  V30 39390 H 3654.38 -0.0845208 -1.46857 0
M  V30 39391 H 3656.34 2.27766 -3.4954 0
M  V30 39392 H 3654.97 2.20625 -2.35636 0
M  V30 39393 H 3654.02 0.260409 -3.79508 0
M  V30 39394 H 3655.34 0.560018 -4.95646 0
M  V30 39395 H 3654.49 2.88474 -5.3373 0
M  V30 39396 H 3653.23 2.65028 -4.09404 0
M  V30 39397 H 3652.23 0.780872 -5.44226 0
M  V30 39398 H 3653.46 1.0384 -6.71114 0
M  V30 39399 H 3651.41 3.08447 -5.78961 0
M  V30 39400 H 3651.32 2.151 -7.24754 0
M  V30 39401 H 3652.59 3.3238 -7.05084 0
M  V30 39402 N 3656.82 1.57302 -0.0969353 0
M  V30 39403 C 3657.78 2.12981 0.846858 0
M  V30 39404 C 3658.78 1.0595 1.2096 0
M  V30 39405 O 3659.97 1.31828 1.13873 0
M  V30 39406 C 3657.1 2.65192 2.14211 0
M  V30 39407 H 3658.3 2.97691 0.363346 0
M  V30 39408 H 3655.85 1.55558 0.15208 0
M  V30 39409 H 3656.59 1.84007 2.67043 0
M  V30 39410 H 3656.37 3.43449 1.8917 0
M  V30 39411 H 3657.86 3.08257 2.81723 0
M  V30 39412 N 3658.3 -0.176766 1.56606 0
M  V30 39413 C 3659.53 -0.909986 1.85814 0
M  V30 39414 C 3659.94 -1.76064 0.681671 0
M  V30 39415 O 3659.3 -1.79126 -0.349328 0
M  V30 39416 C 3659.35 -1.79119 3.14004 0
M  V30 39417 O 3659.07 -0.974856 4.27116 0
M  V30 39418 C 3660.57 -2.63454 3.5652 0
M  V30 39419 H 3657.79 -0.264632 0.616613 0
M  V30 39420 H 3660.33 -0.178501 2.03719 0
M  V30 39421 H 3658.49 -2.47608 2.97941 0
M  V30 39422 H 3658.9 -1.57703 5.0023 0
M  V30 39423 H 3660.38 -3.2091 4.49133 0
M  V30 39424 H 3660.85 -3.3806 2.80379 0
M  V30 39425 H 3661.46 -2.00306 3.75177 0
M  V30 39426 N 3659.78 -1.51183 -0.445132 0
M  V30 39427 C 3661.02 -1.63708 -1.19698 0
M  V30 39428 C 3661.35 -0.348545 -1.91047 0
M  V30 39429 O 3660.63 0.651465 -1.83265 0
M  V30 39430 C 3660.91 -2.83515 -2.22016 0
M  V30 39431 C 3660.77 -4.22323 -1.54802 0
M  V30 39432 C 3662.08 -2.98846 -3.23078 0
M  V30 39433 H 3659.2 -0.595802 -0.433807 0
M  V30 39434 H 3661.85 -1.83646 -0.487244 0
M  V30 39435 H 3660 -2.66646 -2.82546 0
M  V30 39436 H 3661.67 -4.50842 -0.976695 0
M  V30 39437 H 3659.91 -4.25381 -0.850521 0
M  V30 39438 H 3660.58 -5.0213 -2.2928 0
M  V30 39439 H 3663.06 -3.14374 -2.72595 0
M  V30 39440 H 3661.93 -3.84253 -3.91971 0
M  V30 39441 H 3662.19 -2.10577 -3.88728 0
M  V30 39442 N 3661.25 0.700065 -1.41198 0
M  V30 39443 C 3662.22 1.79579 -1.42422 0
M  V30 39444 C 3663.22 1.57674 -0.315537 0
M  V30 39445 O 3664.41 1.6443 -0.575202 0
M  V30 39446 C 3661.54 3.17891 -1.23119 0
M  V30 39447 H 3662.73 1.79888 -2.39959 0
M  V30 39448 H 3660.28 0.907248 -1.27274 0
M  V30 39449 H 3661.02 3.23223 -0.264049 0
M  V30 39450 H 3660.8 3.35191 -2.03443 0
M  V30 39451 H 3662.29 3.97884 -1.268 0
M  V30 39452 N 3662.73 1.26951 0.933869 0
M  V30 39453 C 3663.98 1.13094 1.68338 0
M  V30 39454 C 3664.31 -0.323637 1.91484 0
M  V30 39455 O 3663.59 -1.23721 1.50078 0
M  V30 39456 C 3663.87 1.90843 3.0537 0
M  V30 39457 C 3663.72 3.44249 2.89504 0
M  V30 39458 C 3665.04 1.70802 4.05604 0
M  V30 39459 H 3662.16 0.41222 0.610937 0
M  V30 39460 H 3664.8 1.56034 1.08413 0
M  V30 39461 H 3662.95 1.54349 3.56523 0
M  V30 39462 H 3664.62 3.90537 2.45516 0
M  V30 39463 H 3662.87 3.70903 2.24975 0
M  V30 39464 H 3663.54 3.93886 3.86728 0
M  V30 39465 H 3666.01 2.0261 3.6344 0
M  V30 39466 H 3664.89 2.27606 4.99486 0
M  V30 39467 H 3665.15 0.654404 4.3723 0
M  V30 39468 N 3664.21 -1.13949 1.08873 0
M  V30 39469 C 3665.44 -1.88676 0.841724 0
M  V30 39470 C 3665.85 -1.79091 -0.610182 0
M  V30 39471 O 3665.19 -1.1514 -1.43138 0
M  V30 39472 C 3665.25 -3.39204 1.19083 0
M  V30 39473 C 3664.92 -3.72572 2.64649 0
M  V30 39474 C 3665.91 -3.72291 3.62899 0
M  V30 39475 C 3663.6 -4.02405 3.00625 0
M  V30 39476 C 3665.59 -4.01373 4.95155 0
M  V30 39477 C 3663.28 -4.3115 4.33074 0
M  V30 39478 C 3664.28 -4.30618 5.30148 0
M  V30 39479 O 3663.97 -4.58663 6.60215 0
M  V30 39480 H 3663.7 -0.604337 0.302907 0
M  V30 39481 H 3666.25 -1.45207 1.45273 0
M  V30 39482 H 3664.48 -3.83149 0.522852 0
M  V30 39483 H 3666.17 -3.95246 0.923875 0
M  V30 39484 H 3666.94 -3.49325 3.36448 0
M  V30 39485 H 3662.82 -4.01969 2.25703 0
M  V30 39486 H 3666.36 -4.00874 5.70917 0
M  V30 39487 H 3662.26 -4.53587 4.5927 0
M  V30 39488 H 3663.02 -4.76358 6.65602 0
M  V30 39489 N 3665.69 -0.875096 -1.31072 0
M  V30 39490 C 3666.62 -0.350509 -2.30854 0
M  V30 39491 C 3667.6 0.561356 -1.6057 0
M  V30 39492 O 3668.78 0.477296 -1.88243 0
M  V30 39493 C 3665.91 0.444432 -3.44445 0
M  V30 39494 C 3664.87 -0.374791 -4.26356 0
M  V30 39495 C 3664.19 0.546149 -5.31903 0
M  V30 39496 C 3665.49 -1.61162 -4.96814 0
M  V30 39497 H 3667.19 -1.18431 -2.74981 0
M  V30 39498 H 3664.73 -0.570932 -1.32198 0
M  V30 39499 H 3666.69 0.821987 -4.13305 0
M  V30 39500 H 3665.41 1.31179 -2.99098 0
M  V30 39501 H 3664.07 -0.734358 -3.5917 0
M  V30 39502 H 3663.72 1.41094 -4.82806 0
M  V30 39503 H 3663.42 0.00187844 -5.876 0
M  V30 39504 H 3664.94 0.920436 -6.03623 0
M  V30 39505 H 3666.36 -1.30521 -5.58245 0
M  V30 39506 H 3664.75 -2.09534 -5.6233 0
M  V30 39507 H 3665.82 -2.36158 -4.23506 0
M  V30 39508 N 3667.17 1.44239 -0.635047 0
M  V30 39509 C 3668.08 2.345 0.068642 0
M  V30 39510 C 3669.09 1.52844 0.831547 0
M  V30 39511 O 3670.27 1.85559 0.782922 0
M  V30 39512 C 3667.33 3.30879 1.03537 0
M  V30 39513 C 3666.39 4.28441 0.271408 0
M  V30 39514 C 3665.63 5.20216 1.19209 0
M  V30 39515 O 3665.85 5.16006 2.43092 0
M  V30 39516 O 3664.78 5.98111 0.674295 0
M  V30 39517 H 3668.61 2.9613 -0.673833 0
M  V30 39518 H 3666.2 1.44077 -0.395237 0
M  V30 39519 H 3668.08 3.90194 1.59144 0
M  V30 39520 H 3666.75 2.71776 1.75839 0
M  V30 39521 H 3665.66 3.72661 -0.327802 0
M  V30 39522 H 3666.99 4.90475 -0.41167 0
M  V30 39523 N 3668.64 0.375833 1.53053 0
M  V30 39524 C 3669.87 -0.213672 2.06296 0
M  V30 39525 C 3670.29 -1.40844 1.24678 0
M  V30 39526 O 3669.65 -1.79302 0.268402 0
M  V30 39527 C 3669.7 -0.575238 3.55982 0
M  V30 39528 O 3668.8 -1.67108 3.77026 0
M  V30 39529 H 3668.15 -0.0286805 0.66338 0
M  V30 39530 H 3670.68 0.539406 1.97362 0
M  V30 39531 H 3670.69 -0.84336 3.99188 0
M  V30 39532 H 3669.36 0.298331 4.14829 0
M  V30 39533 H 3667.94 -1.39772 3.45714 0
M  V30 39534 N 3670.12 -1.57248 0.105276 0
M  V30 39535 C 3671.05 -2.17601 -0.846877 0
M  V30 39536 C 3672.03 -1.11218 -1.28704 0
M  V30 39537 O 3673.22 -1.39398 -1.3521 0
M  V30 39538 C 3670.35 -2.76448 -2.10223 0
M  V30 39539 C 3669.3 -3.88293 -1.80034 0
M  V30 39540 C 3668.63 -4.33888 -3.12483 0
M  V30 39541 C 3669.93 -5.11026 -1.07934 0
M  V30 39542 H 3671.62 -2.97417 -0.344 0
M  V30 39543 H 3669.17 -1.43063 -0.16402 0
M  V30 39544 H 3671.12 -3.17324 -2.77278 0
M  V30 39545 H 3669.85 -1.93901 -2.62811 0
M  V30 39546 H 3668.5 -3.47972 -1.15373 0
M  V30 39547 H 3668.15 -3.48218 -3.62979 0
M  V30 39548 H 3667.85 -5.09301 -2.93063 0
M  V30 39549 H 3669.38 -4.77404 -3.8068 0
M  V30 39550 H 3670.79 -5.49007 -1.65118 0
M  V30 39551 H 3669.19 -5.91935 -0.98657 0
M  V30 39552 H 3670.26 -4.84858 -0.0637659 0
M  V30 39553 N 3671.6 0.168458 -1.56697 0
M  V30 39554 C 3672.53 1.23316 -1.93199 0
M  V30 39555 C 3673.55 1.40325 -0.825398 0
M  V30 39556 O 3674.73 1.40277 -1.10384 0
M  V30 39557 C 3671.83 2.60141 -2.17209 0
M  V30 39558 C 3671.01 2.64393 -3.48447 0
M  V30 39559 C 3670.07 3.82602 -3.61251 0
M  V30 39560 O 3669.09 3.68468 -4.33843 0
M  V30 39561 N 3670.29 4.99178 -2.96313 0
M  V30 39562 H 3673.06 0.923088 -2.8513 0
M  V30 39563 H 3670.62 0.358201 -1.57888 0
M  V30 39564 H 3672.61 3.37693 -2.23037 0
M  V30 39565 H 3671.18 2.83527 -1.31648 0
M  V30 39566 H 3670.4 1.72915 -3.54251 0
M  V30 39567 H 3671.69 2.64247 -4.348 0
M  V30 39568 H 3671.09 5.13563 -2.37212 0
M  V30 39569 H 3669.65 5.74582 -3.07732 0
M  V30 39570 N 3673.08 1.51417 0.437109 0
M  V30 39571 C 3674.36 1.54638 1.19777 0
M  V30 39572 C 3674.74 0.310784 2.088 0
M  V30 39573 O 3674.08 -0.70411 2.17381 0
M  V30 39574 C 3674.29 2.8605 1.99942 0
M  V30 39575 C 3675.64 3.38007 2.56975 0
M  V30 39576 O 3676.67 2.87601 2.10152 0
M  V30 39577 O 3675.52 4.25959 3.42375 0
M  V30 39578 H 3672.62 0.621723 0.545335 0
M  V30 39579 H 3675.16 1.6373 0.44616 0
M  V30 39580 H 3673.94 3.67437 1.34557 0
M  V30 39581 H 3673.56 2.8012 2.82167 0
M  V30 39582 N 3674.56 -0.692567 1.41567 0
M  V30 39583 C 3675.78 -1.4813 1.44448 0
M  V30 39584 C 3676.2 -1.88732 0.0506199 0
M  V30 39585 O 3675.56 -1.56982 -0.930751 0
M  V30 39586 C 3675.61 -2.74191 2.35587 0
M  V30 39587 O 3675.33 -2.35298 3.69549 0
M  V30 39588 C 3676.83 -3.67908 2.47303 0
M  V30 39589 H 3674.05 -0.456388 0.491885 0
M  V30 39590 H 3676.59 -0.852467 1.85885 0
M  V30 39591 H 3674.75 -3.33305 1.97451 0
M  V30 39592 H 3675.16 -3.16577 4.18186 0
M  V30 39593 H 3676.64 -4.53136 3.15233 0
M  V30 39594 H 3677.11 -4.126 1.50524 0
M  V30 39595 H 3677.72 -3.14697 2.86088 0
M  V30 39596 N 3676.03 -1.27445 -0.927123 0
M  V30 39597 C 3676.98 -1.1022 -2.02781 0
M  V30 39598 C 3677.95 -0.00310762 -1.661 0
M  V30 39599 O 3679.14 -0.165541 -1.90081 0
M  V30 39600 C 3676.28 -0.756043 -3.36716 0
M  V30 39601 C 3675.39 -1.93283 -3.86349 0
M  V30 39602 C 3674.52 -1.5285 -5.08734 0
M  V30 39603 C 3673.56 -2.67273 -5.50665 0
M  V30 39604 N 3672.7 -2.27425 -6.64246 0
M  V30 39605 H 3677.54 -2.04405 -2.16847 0
M  V30 39606 H 3675.08 -1.01752 -1.0623 0
M  V30 39607 H 3677.04 -0.536163 -4.1374 0
M  V30 39608 H 3675.67 0.148852 -3.22457 0
M  V30 39609 H 3674.72 -2.26523 -3.056 0
M  V30 39610 H 3676.03 -2.79115 -4.13396 0
M  V30 39611 H 3675.18 -1.26989 -5.93261 0
M  V30 39612 H 3673.92 -0.641272 -4.83466 0
M  V30 39613 H 3672.93 -2.93847 -4.64687 0
M  V30 39614 H 3674.15 -3.56618 -5.77928 0
M  V30 39615 H 3672.1 -1.41155 -6.40634 0
M  V30 39616 H 3672.02 -3.06797 -6.9095 0
M  V30 39617 H 3673.28 -2.04813 -7.52112 0
M  V30 39618 N 3677.51 1.1337 -1.09476 0
M  V30 39619 C 3678.76 1.84011 -0.826001 0
M  V30 39620 C 3679.07 1.84463 0.650591 0
M  V30 39621 O 3680.28 2.51002 1.0349 0
M  V30 39622 C 3678.74 3.30368 -1.42775 0
M  V30 39623 C 3678.34 3.38303 -2.93692 0
M  V30 39624 C 3680.09 4.06048 -1.23796 0
M  V30 39625 C 3678 4.78936 -3.4695 0
M  V30 39626 H 3676.93 0.689411 -0.305334 0
M  V30 39627 H 3679.58 1.27724 -1.31753 0
M  V30 39628 H 3677.96 3.86462 -0.863908 0
M  V30 39629 H 3679.13 2.92202 -3.56307 0
M  V30 39630 H 3677.45 2.76089 -3.11711 0
M  V30 39631 H 3680.04 5.09873 -1.6104 0
M  V30 39632 H 3680.39 4.15916 -0.178651 0
M  V30 39633 H 3680.92 3.56286 -1.76933 0
M  V30 39634 H 3677.66 4.74259 -4.52503 0
M  V30 39635 H 3677.18 5.2553 -2.89099 0
M  V30 39636 H 3678.86 5.47855 -3.44186 0
M  V30 39637 N 3678.99 0.882035 1.30606 0
M  V30 39638 C 3680.22 0.51385 2.00418 0
M  V30 39639 C 3680.63 -0.896887 1.66137 0
M  V30 39640 O 3679.99 -1.58938 0.896938 0
M  V30 39641 C 3680.04 0.675565 3.55131 0
M  V30 39642 O 3679.76 2.03076 3.8819 0
M  V30 39643 C 3681.26 0.309984 4.42215 0
M  V30 39644 H 3678.48 0.198924 0.640835 0
M  V30 39645 H 3681.03 1.18652 1.66559 0
M  V30 39646 H 3679.18 0.050297 3.87367 0
M  V30 39647 H 3679.6 2.04725 4.82895 0
M  V30 39648 H 3681.07 0.474045 5.49961 0
M  V30 39649 H 3681.55 -0.751776 4.32718 0
M  V30 39650 H 3682.15 0.911453 4.15419 0
M  V30 39651 N 3680.47 -1.439 0.642688 0
M  V30 39652 C 3681.4 -2.33462 -0.0419345 0
M  V30 39653 C 3682.38 -1.4887 -0.822897 0
M  V30 39654 O 3683.56 -1.77562 -0.786477 0
M  V30 39655 C 3680.69 -3.32099 -1.01625 0
M  V30 39656 C 3679.65 -4.26598 -0.346131 0
M  V30 39657 C 3678.97 -5.15191 -1.43116 0
M  V30 39658 C 3680.27 -5.16816 0.75489 0
M  V30 39659 H 3681.97 -2.90958 0.70598 0
M  V30 39660 H 3679.51 -1.39905 0.340949 0
M  V30 39661 H 3681.47 -3.93646 -1.50403 0
M  V30 39662 H 3680.19 -2.72837 -1.7952 0
M  V30 39663 H 3678.85 -3.664 0.121102 0
M  V30 39664 H 3678.5 -4.52275 -2.20127 0
M  V30 39665 H 3678.2 -5.79233 -0.988092 0
M  V30 39666 H 3679.72 -5.79611 -1.92051 0
M  V30 39667 H 3681.14 -5.72232 0.349725 0
M  V30 39668 H 3679.53 -5.89522 1.12179 0
M  V30 39669 H 3680.6 -4.57135 1.61726 0
M  V30 39670 N 3681.95 -0.383945 -1.52852 0
M  V30 39671 C 3683.2 0.201171 -2.00694 0
M  V30 39672 C 3683.51 1.48349 -1.27483 0
M  V30 39673 O 3684.72 2.14833 -1.66009 0
M  V30 39674 C 3683.17 0.409054 -3.57568 0
M  V30 39675 C 3682.78 -0.859705 -4.39674 0
M  V30 39676 C 3684.52 0.950826 -4.13714 0
M  V30 39677 C 3682.43 -0.620396 -5.88137 0
M  V30 39678 H 3681.36 0.0789524 -0.749855 0
M  V30 39679 H 3684.01 -0.505519 -1.76399 0
M  V30 39680 H 3682.39 1.17746 -3.7809 0
M  V30 39681 H 3683.57 -1.63232 -4.3092 0
M  V30 39682 H 3681.88 -1.32603 -3.94722 0
M  V30 39683 H 3684.48 1.14549 -5.22286 0
M  V30 39684 H 3684.82 1.91834 -3.69467 0
M  V30 39685 H 3685.36 0.242125 -3.97062 0
M  V30 39686 H 3682.09 -1.55875 -6.36697 0
M  V30 39687 H 3681.61 0.113378 -5.99693 0
M  V30 39688 H 3683.29 -0.252888 -6.46506 0
M  V30 39689 N 3683.43 1.5719 -0.113614 0
M  V30 39690 C 3684.67 1.94184 0.545472 0
M  V30 39691 C 3684.99 0.998845 1.68174 0
M  V30 39692 O 3686.19 1.26323 2.40322 0
M  V30 39693 C 3684.65 3.45093 1.02172 0
M  V30 39694 C 3684.26 4.47918 -0.0857983 0
M  V30 39695 C 3686 3.91016 1.65248 0
M  V30 39696 C 3683.91 5.89999 0.406842 0
M  V30 39697 H 3682.84 0.724875 0.207537 0
M  V30 39698 H 3685.49 1.82486 -0.1926 0
M  V30 39699 H 3683.87 3.52006 1.81404 0
M  V30 39700 H 3685.05 4.52668 -0.861901 0
M  V30 39701 H 3683.36 4.11715 -0.622889 0
M  V30 39702 H 3685.96 4.9458 2.03211 0
M  V30 39703 H 3686.3 3.30691 2.52882 0
M  V30 39704 H 3686.83 3.8688 0.925659 0
M  V30 39705 H 3683.57 6.54066 -0.433314 0
M  V30 39706 H 3683.09 5.88681 1.14954 0
M  V30 39707 H 3684.77 6.41126 0.869821 0
M  V30 39708 N 3684.9 -0.160146 1.56784 0
M  V30 39709 C 3685.85 -1.21734 1.98201 0
M  V30 39710 C 3686.85 -1.45208 0.872406 0
M  V30 39711 O 3688.05 -1.45656 1.05756 0
M  V30 39712 H 3684.43 -0.409463 0.630749 0
M  V30 39713 H 3686.4 -0.841239 2.86297 0
M  V30 39714 C 3685.15 -2.54644 2.36753 0
M  V30 39715 H 3684.47 -2.37407 3.2168 0
M  V30 39716 H 3685.91 -3.27277 2.69566 0
M  V30 39717 C 3684.37 -3.14222 1.21516 0
M  V30 39718 O 3684.9 -3.98465 0.50881 0
M  V30 39719 N 3683.1 -2.73476 0.982814 0
M  V30 39720 H 3682.65 -2.0507 1.55897 0
M  V30 39721 H 3682.61 -3.13673 0.213644 0
M  V30 39722 N 3686.38 -1.51647 -0.429072 0
M  V30 39723 C 3687.63 -1.65928 -1.17641 0
M  V30 39724 C 3687.98 -0.37481 -1.88714 0
M  V30 39725 O 3687.28 0.62981 -1.80953 0
M  V30 39726 C 3687.47 -2.8064 -2.21305 0
M  V30 39727 C 3687.3 -4.20118 -1.60409 0
M  V30 39728 C 3686.07 -4.85936 -1.38542 0
M  V30 39729 C 3688.27 -5.02922 -1.0758 0
M  V30 39730 N 3686.25 -6.09505 -0.733297 0
M  V30 39731 C 3687.62 -6.17561 -0.549434 0
M  V30 39732 C 3689.67 -4.88393 -0.968352 0
M  V30 39733 C 3688.38 -7.19262 0.0738364 0
M  V30 39734 C 3690.4 -5.9031 -0.358965 0
M  V30 39735 C 3689.77 -7.04225 0.156823 0
M  V30 39736 H 3685.86 -0.660997 -0.417859 0
M  V30 39737 H 3688.45 -1.88898 -0.471756 0
M  V30 39738 H 3686.62 -2.59319 -2.89151 0
M  V30 39739 H 3688.35 -2.84059 -2.88258 0
M  V30 39740 H 3685.11 -4.43948 -1.64945 0
M  V30 39741 H 3685.53 -6.75668 -0.424436 0
M  V30 39742 H 3690.17 -4.00567 -1.35298 0
M  V30 39743 H 3687.89 -8.06729 0.470575 0
M  V30 39744 H 3691.48 -5.81137 -0.277615 0
M  V30 39745 H 3690.36 -7.81738 0.620947 0
M  V30 39746 N 3687.86 0.685049 -1.41932 0
M  V30 39747 C 3688.79 1.81105 -1.47389 0
M  V30 39748 C 3689.77 1.66839 -0.331462 0
M  V30 39749 O 3690.96 1.86414 -0.544364 0
M  V30 39750 C 3688.09 3.19325 -1.36561 0
M  V30 39751 C 3687.04 3.48311 -2.48724 0
M  V30 39752 C 3686.37 4.85998 -2.22958 0
M  V30 39753 C 3687.67 3.4623 -3.91053 0
M  V30 39754 H 3689.36 1.76796 -2.41627 0
M  V30 39755 H 3686.91 0.849158 -1.16298 0
M  V30 39756 H 3688.86 3.97819 -1.38988 0
M  V30 39757 H 3687.58 3.24286 -0.38812 0
M  V30 39758 H 3686.24 2.72172 -2.45597 0
M  V30 39759 H 3685.89 4.87596 -1.23527 0
M  V30 39760 H 3685.59 5.06355 -2.98124 0
M  V30 39761 H 3687.11 5.66789 -2.27118 0
M  V30 39762 H 3688.53 4.14711 -3.95838 0
M  V30 39763 H 3686.92 3.78121 -4.65987 0
M  V30 39764 H 3687.99 2.44999 -4.18454 0
M  V30 39765 N 3689.34 1.27935 0.920351 0
M  V30 39766 C 3690.27 1.07093 2.02642 0
M  V30 39767 C 3691.28 0.0247027 1.62781 0
M  V30 39768 O 3692.47 0.267055 1.76491 0
M  V30 39769 C 3689.57 0.603978 3.33475 0
M  V30 39770 C 3688.74 1.72414 4.01985 0
M  V30 39771 C 3687.8 1.25168 5.11096 0
M  V30 39772 O 3686.83 1.95271 5.34657 0
M  V30 39773 N 3688.03 0.111299 5.80393 0
M  V30 39774 H 3690.8 2.02344 2.21082 0
M  V30 39775 H 3688.36 1.19599 1.09122 0
M  V30 39776 H 3690.35 0.27165 4.03787 0
M  V30 39777 H 3688.92 -0.255502 3.11554 0
M  V30 39778 H 3688.14 2.22639 3.25309 0
M  V30 39779 H 3689.43 2.47573 4.44505 0
M  V30 39780 H 3688.83 -0.473647 5.63714 0
M  V30 39781 H 3687.38 -0.161798 6.51599 0
M  V30 39782 N 3690.82 -1.12788 1.10076 0
M  V30 39783 C 3691.73 -2.22 0.758497 0
M  V30 39784 C 3692.74 -1.72303 -0.242408 0
M  V30 39785 O 3693.92 -2.01233 -0.082087 0
M  V30 39786 C 3690.98 -3.46171 0.191387 0
M  V30 39787 C 3690.04 -4.10726 1.24909 0
M  V30 39788 C 3689.28 -5.2897 0.70895 0
M  V30 39789 O 3689.5 -5.68494 -0.465893 0
M  V30 39790 O 3688.43 -5.83746 1.46713 0
M  V30 39791 H 3692.26 -2.53662 1.67001 0
M  V30 39792 H 3689.84 -1.2105 0.875626 0
M  V30 39793 H 3691.73 -4.21226 -0.121218 0
M  V30 39794 H 3690.4 -3.16194 -0.693039 0
M  V30 39795 H 3689.31 -3.37468 1.6145 0
M  V30 39796 H 3690.64 -4.4485 2.1064 0
M  V30 39797 N 3692.29 -0.888949 -1.30136 0
M  V30 39798 C 3693.26 -0.363544 -2.26298 0
M  V30 39799 C 3694.26 0.496217 -1.52952 0
M  V30 39800 O 3695.45 0.302804 -1.71548 0
M  V30 39801 C 3692.58 0.481485 -3.37483 0
M  V30 39802 H 3693.77 -1.2127 -2.74288 0
M  V30 39803 H 3691.32 -0.666149 -1.41394 0
M  V30 39804 H 3692.06 1.35107 -2.94816 0
M  V30 39805 H 3691.84 -0.134412 -3.9187 0
M  V30 39806 H 3693.33 0.840744 -4.09049 0
M  V30 39807 N 3693.77 1.43557 -0.65031 0
M  V30 39808 C 3694.7 2.33481 0.0295529 0
M  V30 39809 C 3695.68 1.49305 0.814991 0
M  V30 39810 O 3696.87 1.77976 0.777049 0
M  V30 39811 C 3694 3.32633 0.998625 0
M  V30 39812 C 3692.95 4.26776 0.323502 0
M  V30 39813 C 3692.28 5.15943 1.40382 0
M  V30 39814 C 3693.58 5.16408 -0.782288 0
M  V30 39815 H 3695.27 2.90579 -0.7214 0
M  V30 39816 H 3692.82 1.39723 -0.348363 0
M  V30 39817 H 3694.77 3.94438 1.48313 0
M  V30 39818 H 3693.49 2.73786 1.7807 0
M  V30 39819 H 3692.15 3.66331 -0.140532 0
M  V30 39820 H 3691.8 4.53436 2.17726 0
M  V30 39821 H 3691.5 5.79749 0.95736 0
M  V30 39822 H 3693.03 5.80621 1.88975 0
M  V30 39823 H 3694.44 5.72039 -0.380067 0
M  V30 39824 H 3692.84 5.88919 -1.15304 0
M  V30 39825 H 3693.91 4.56271 -1.64148 0
M  V30 39826 N 3695.25 0.392045 1.52646 0
M  V30 39827 C 3696.47 -0.191779 2.06511 0
M  V30 39828 C 3696.9 -1.39514 1.26165 0
M  V30 39829 O 3696.26 -1.79007 0.287404 0
M  V30 39830 C 3696.31 -0.537449 3.56572 0
M  V30 39831 O 3695.41 -1.631 3.78777 0
M  V30 39832 H 3694.75 -0.0216429 0.663647 0
M  V30 39833 H 3697.28 0.560308 1.96778 0
M  V30 39834 H 3697.29 -0.800974 4.00061 0
M  V30 39835 H 3695.97 0.342312 4.14489 0
M  V30 39836 H 3694.54 -1.36097 3.47177 0
M  V30 39837 N 3696.73 -1.57127 0.121948 0
M  V30 39838 C 3697.95 -2.00076 -0.54629 0
M  V30 39839 C 3698.38 -1.00116 -1.59243 0
M  V30 39840 O 3697.74 0.0267369 -1.8128 0
M  V30 39841 C 3697.78 -3.4189 -1.14645 0
M  V30 39842 O 3696.89 -3.44834 -2.26193 0
M  V30 39843 H 3696.23 -0.649887 -0.136172 0
M  V30 39844 H 3698.76 -2.03506 0.211293 0
M  V30 39845 H 3698.77 -3.80161 -1.48126 0
M  V30 39846 H 3697.44 -4.14159 -0.380201 0
M  V30 39847 H 3696.02 -3.18384 -1.94129 0
M  V30 39848 N 3698.21 0.151829 -1.56867 0
M  V30 39849 C 3699.17 1.17149 -1.96999 0
M  V30 39850 C 3700.17 1.36127 -0.855929 0
M  V30 39851 O 3701.36 1.33201 -1.12264 0
M  V30 39852 C 3698.49 2.53276 -2.28175 0
M  V30 39853 H 3699.68 0.827314 -2.88263 0
M  V30 39854 H 3697.24 0.394997 -1.51227 0
M  V30 39855 H 3697.97 2.92674 -1.39688 0
M  V30 39856 H 3697.76 2.40864 -3.09398 0
M  V30 39857 H 3699.25 3.26724 -2.60079 0
M  V30 39858 N 3699.68 1.51872 0.421024 0
M  V30 39859 C 3700.91 1.69467 1.19565 0
M  V30 39860 C 3701.33 0.398301 1.83835 0
M  V30 39861 O 3700.69 -0.643142 1.69509 0
M  V30 39862 C 3700.74 2.82325 2.24332 0
M  V30 39863 O 3699.84 2.47065 3.30201 0
M  V30 39864 H 3699.19 0.564533 0.349569 0
M  V30 39865 H 3701.72 1.98518 0.495142 0
M  V30 39866 H 3701.73 3.0689 2.68855 0
M  V30 39867 H 3700.4 3.76387 1.76934 0
M  V30 39868 H 3698.98 2.3313 2.91041 0
M  V30 39869 N 3701.16 -0.677513 1.42294 0
M  V30 39870 C 3702.09 -1.8032 1.48347 0
M  V30 39871 C 3703.07 -1.66661 0.340305 0
M  V30 39872 O 3704.26 -1.86123 0.554242 0
M  V30 39873 C 3701.39 -3.18596 1.38253 0
M  V30 39874 C 3700.34 -3.46987 2.50568 0
M  V30 39875 C 3699.67 -4.84808 2.25532 0
M  V30 39876 C 3700.97 -3.44151 3.92883 0
M  V30 39877 H 3702.66 -1.75512 2.42561 0
M  V30 39878 H 3700.21 -0.842978 1.16747 0
M  V30 39879 H 3702.16 -3.97077 1.41096 0
M  V30 39880 H 3700.89 -3.24075 0.405312 0
M  V30 39881 H 3699.54 -2.70866 2.47037 0
M  V30 39882 H 3699.19 -4.86934 1.26111 0
M  V30 39883 H 3698.89 -5.04767 3.00806 0
M  V30 39884 H 3700.42 -5.65577 2.3012 0
M  V30 39885 H 3701.83 -4.12606 3.98032 0
M  V30 39886 H 3700.23 -3.75645 4.67986 0
M  V30 39887 H 3701.3 -2.42776 4.19747 0
M  V30 39888 N 3702.64 -1.28421 -0.913554 0
M  V30 39889 C 3703.6 -1.12385 -1.99755 0
M  V30 39890 C 3704.6 -0.0634633 -1.60675 0
M  V30 39891 O 3705.79 -0.30926 -1.71433 0
M  V30 39892 C 3702.93 -0.715565 -3.33305 0
M  V30 39893 H 3704.12 -2.08658 -2.1541 0
M  V30 39894 H 3701.67 -1.1141 -1.09624 0
M  V30 39895 H 3702.41 0.24792 -3.23351 0
M  V30 39896 H 3702.19 -1.48157 -3.63032 0
M  V30 39897 H 3703.68 -0.626025 -4.12881 0
M  V30 39898 N 3704.12 1.12202 -1.10672 0
M  V30 39899 C 3705.07 2.16098 -0.727017 0
M  V30 39900 C 3706.05 1.58702 0.265022 0
M  V30 39901 O 3707.24 1.76848 0.0733741 0
M  V30 39902 C 3704.37 3.42912 -0.163122 0
M  V30 39903 C 3703.46 4.07285 -1.18235 0
M  V30 39904 N 3703.85 4.46632 -2.37388 0
M  V30 39905 C 3702.15 4.34099 -1.02344 0
M  V30 39906 C 3702.85 4.96964 -3.02326 0
M  V30 39907 N 3701.83 4.92623 -2.29835 0
M  V30 39908 H 3705.63 2.4429 -1.63401 0
M  V30 39909 H 3703.14 1.29133 -0.984805 0
M  V30 39910 H 3705.14 4.16707 0.126994 0
M  V30 39911 H 3703.8 3.16189 0.738555 0
M  V30 39912 H 3704.81 4.38922 -2.74897 0
M  V30 39913 H 3701.49 4.17122 -0.177525 0
M  V30 39914 H 3702.88 5.37103 -4.03695 0
M  V30 39915 N 3705.6 0.895838 1.29663 0
M  V30 39916 C 3706.53 0.315251 2.26012 0
M  V30 39917 C 3707.51 -0.570377 1.52268 0
M  V30 39918 O 3708.69 -0.518049 1.81242 0
M  V30 39919 C 3705.82 -0.551009 3.34188 0
M  V30 39920 C 3704.86 0.266773 4.25665 0
M  V30 39921 S 3705.7 1.66207 5.09053 0
M  V30 39922 C 3706.85 0.802629 6.20732 0
M  V30 39923 H 3707.09 1.13192 2.74909 0
M  V30 39924 H 3704.62 0.695937 1.37826 0
M  V30 39925 H 3706.58 -1.04504 3.96975 0
M  V30 39926 H 3705.24 -1.34188 2.83994 0
M  V30 39927 H 3704.43 -0.394781 5.02451 0
M  V30 39928 H 3704.03 0.693805 3.67508 0
M  V30 39929 H 3706.33 0.024323 6.77496 0
M  V30 39930 H 3707.27 1.54245 6.91096 0
M  V30 39931 H 3707.68 0.358724 5.63359 0
M  V30 39932 N 3707.07 -1.43211 0.657914 0
M  V30 39933 C 3708.02 -2.30779 -0.0308191 0
M  V30 39934 C 3708.99 -1.45015 -0.809925 0
M  V30 39935 O 3710.18 -1.73877 -0.785584 0
M  V30 39936 C 3707.32 -3.30655 -0.98799 0
M  V30 39937 C 3706.43 -4.31516 -0.204491 0
M  V30 39938 C 3705.56 -5.18472 -1.15588 0
M  V30 39939 C 3704.6 -6.11022 -0.36309 0
M  V30 39940 N 3703.74 -6.90586 -1.26632 0
M  V30 39941 H 3708.58 -2.89126 0.721796 0
M  V30 39942 H 3706.12 -1.4243 0.367702 0
M  V30 39943 H 3708.08 -3.87074 -1.55659 0
M  V30 39944 H 3706.71 -2.73947 -1.70743 0
M  V30 39945 H 3705.76 -3.77353 0.480476 0
M  V30 39946 H 3707.07 -4.97097 0.411771 0
M  V30 39947 H 3706.22 -5.79539 -1.79497 0
M  V30 39948 H 3704.96 -4.53027 -1.80605 0
M  V30 39949 H 3703.97 -5.49038 0.289316 0
M  V30 39950 H 3705.19 -6.78511 0.282739 0
M  V30 39951 H 3703.14 -6.27785 -1.9032 0
M  V30 39952 H 3703.06 -7.52708 -0.704728 0
M  V30 39953 H 3704.32 -7.56155 -1.8934 0
M  V30 39954 N 3708.55 -0.400135 -1.52436 0
M  V30 39955 C 3709.52 0.417769 -2.2536 0
M  V30 39956 C 3710.52 0.981181 -1.27395 0
M  V30 39957 O 3711.71 0.861476 -1.51407 0
M  V30 39958 C 3708.84 1.58718 -3.01697 0
M  V30 39959 H 3710.03 -0.220835 -2.99086 0
M  V30 39960 H 3707.58 -0.152467 -1.55555 0
M  V30 39961 H 3708.32 2.26291 -2.32299 0
M  V30 39962 H 3708.1 1.18977 -3.73613 0
M  V30 39963 H 3709.59 2.16598 -3.57037 0
M  V30 39964 N 3710.03 1.57061 -0.13028 0
M  V30 39965 C 3710.98 2.15904 0.815729 0
M  V30 39966 C 3711.95 1.08717 1.25578 0
M  V30 39967 O 3713.13 1.36679 1.33129 0
M  V30 39968 C 3710.27 2.77165 2.05605 0
M  V30 39969 C 3709.39 3.98694 1.66333 0
M  V30 39970 C 3708.52 4.48007 2.85418 0
M  V30 39971 C 3707.56 5.62041 2.42439 0
M  V30 39972 N 3706.7 6.06046 3.54475 0
M  V30 39973 H 3711.54 2.96413 0.307112 0
M  V30 39974 H 3709.07 1.46433 0.139888 0
M  V30 39975 H 3711.03 3.1082 2.78293 0
M  V30 39976 H 3709.66 1.99328 2.53906 0
M  V30 39977 H 3708.71 3.71128 0.834751 0
M  V30 39978 H 3710.03 4.81357 1.30756 0
M  V30 39979 H 3709.18 4.83629 3.66316 0
M  V30 39980 H 3707.92 3.64318 3.24228 0
M  V30 39981 H 3706.92 5.26011 1.59975 0
M  V30 39982 H 3708.15 6.47504 2.04733 0
M  V30 39983 H 3706.09 5.25296 3.92938 0
M  V30 39984 H 3706.01 6.83592 3.22859 0
M  V30 39985 H 3707.28 6.46309 4.3578 0
M  V30 39986 N 3711.51 -0.143508 1.56945 0
M  V30 39987 C 3712.76 -0.855531 1.8354 0
M  V30 39988 C 3713.08 -1.81011 0.711697 0
M  V30 39989 O 3712.34 -1.93402 -0.299005 0
M  V30 39990 C 3712.64 -1.66049 3.16485 0
M  V30 39991 C 3712.3 -0.852382 4.4277 0
M  V30 39992 C 3710.97 -0.629451 4.77065 0
M  V30 39993 C 3713.32 -0.287476 5.20407 0
M  V30 39994 C 3710.65 0.169037 5.86456 0
M  V30 39995 C 3713 0.49807 6.30636 0
M  V30 39996 C 3711.66 0.731546 6.63479 0
M  V30 39997 H 3710.93 -0.313061 0.67162 0
M  V30 39998 H 3713.58 -0.119007 1.9113 0
M  V30 39999 H 3711.88 -2.46722 3.04361 0
M  V30 40000 H 3713.58 -2.21494 3.34278 0
M  V30 40001 H 3710.17 -1.03621 4.15885 0
M  V30 40002 H 3714.36 -0.44698 4.94283 0
M  V30 40003 H 3709.61 0.35939 6.10343 0
M  V30 40004 H 3713.79 0.942914 6.89987 0
M  V30 40005 H 3711.41 1.35212 7.48079 0
M  V30 40006 N 3712.99 -1.52093 -0.412964 0
M  V30 40007 C 3714.4 -1.40811 -0.7513 0
M  V30 40008 C 3714.6 -0.509577 -1.9495 0
M  V30 40009 O 3713.66 0.0260876 -2.52487 0
M  V30 40010 C 3714.97 -2.83272 -1.00883 0
M  V30 40011 C 3716.52 -2.92589 -1.11178 0
M  V30 40012 C 3717 -4.36011 -1.40209 0
M  V30 40013 N 3718.49 -4.39228 -1.47082 0
M  V30 40014 C 3719.22 -5.47257 -1.71164 0
M  V30 40015 N 3718.72 -6.6541 -1.92876 0
M  V30 40016 N 3720.51 -5.34768 -1.73147 0
M  V30 40017 H 3712.66 -2.09049 0.375811 0
M  V30 40018 H 3714.92 -0.942074 0.105833 0
M  V30 40019 H 3714.63 -3.51126 -0.200811 0
M  V30 40020 H 3714.5 -3.24083 -1.93002 0
M  V30 40021 H 3716.89 -2.24918 -1.91039 0
M  V30 40022 H 3716.97 -2.55241 -0.169033 0
M  V30 40023 H 3716.62 -5.0424 -0.608665 0
M  V30 40024 H 3716.55 -4.70892 -2.35729 0
M  V30 40025 H 3719.04 -3.54056 -1.32108 0
M  V30 40026 H 3719.35 -7.43525 -2.1069 0
M  V30 40027 H 3717.7 -6.68482 -1.90148 0
M  V30 40028 H 3720.89 -4.41439 -1.55721 0
M  V30 40029 H 3721.06 -6.19033 -1.91576 0
M  V30 40030 N 3714.47 0.669957 -1.42651 0
M  V30 40031 C 3715.38 1.81274 -1.4892 0
M  V30 40032 C 3716.39 1.69854 -0.377553 0
M  V30 40033 O 3717.57 1.9132 -0.629185 0
M  V30 40034 C 3714.63 3.17449 -1.39381 0
M  V30 40035 C 3713.69 3.40789 -2.61078 0
M  V30 40036 C 3712.93 4.70467 -2.51985 0
M  V30 40037 O 3713.15 5.48699 -1.55837 0
M  V30 40038 O 3712.08 4.95158 -3.42201 0
M  V30 40039 H 3715.91 1.78941 -2.45385 0
M  V30 40040 H 3713.49 0.826321 -1.24468 0
M  V30 40041 H 3715.38 3.987 -1.36442 0
M  V30 40042 H 3714.05 3.20409 -0.460432 0
M  V30 40043 H 3712.96 2.59367 -2.69591 0
M  V30 40044 H 3714.29 3.42663 -3.53331 0
M  V30 40045 N 3715.94 1.28904 0.90673 0
M  V30 40046 C 3717.17 1.19336 1.69017 0
M  V30 40047 C 3717.59 -0.247032 1.87177 0
M  V30 40048 O 3716.94 -1.16621 1.40378 0
M  V30 40049 C 3716.99 1.895 3.07851 0
M  V30 40050 O 3716.72 3.27913 2.90525 0
M  V30 40051 C 3718.22 1.86321 4.02243 0
M  V30 40052 H 3715.44 0.413931 0.528112 0
M  V30 40053 H 3717.98 1.70153 1.13438 0
M  V30 40054 H 3716.14 1.42536 3.60225 0
M  V30 40055 H 3716.55 3.63153 3.78445 0
M  V30 40056 H 3718.02 2.39992 4.97099 0
M  V30 40057 H 3718.5 0.837147 4.31148 0
M  V30 40058 H 3719.11 2.32997 3.55799 0
M  V30 40059 N 3717.42 -1.11614 1.11266 0
M  V30 40060 C 3718.35 -2.19675 0.791528 0
M  V30 40061 C 3719.33 -1.68408 -0.239321 0
M  V30 40062 O 3720.52 -1.93926 -0.103194 0
M  V30 40063 C 3717.65 -3.46525 0.231952 0
M  V30 40064 C 3716.6 -4.10995 1.19447 0
M  V30 40065 C 3715.93 -5.32397 0.495687 0
M  V30 40066 C 3717.23 -4.56131 2.54445 0
M  V30 40067 H 3718.92 -2.46795 1.69508 0
M  V30 40068 H 3716.47 -1.18617 0.816454 0
M  V30 40069 H 3718.42 -4.214 -0.00490061 0
M  V30 40070 H 3717.14 -3.18859 -0.706882 0
M  V30 40071 H 3715.8 -3.38111 1.41692 0
M  V30 40072 H 3715.45 -5.01002 -0.447896 0
M  V30 40073 H 3715.15 -5.76482 1.13763 0
M  V30 40074 H 3716.68 -6.10013 0.267583 0
M  V30 40075 H 3718.09 -5.22337 2.36298 0
M  V30 40076 H 3716.49 -5.11023 3.14604 0
M  V30 40077 H 3717.56 -3.69671 3.13802 0
M  V30 40078 N 3718.9 -0.902701 -1.29186 0
M  V30 40079 C 3719.81 -0.387403 -2.31379 0
M  V30 40080 C 3720.83 0.519367 -1.66068 0
M  V30 40081 O 3722 0.408222 -1.97219 0
M  V30 40082 C 3719.07 0.374076 -3.44676 0
M  V30 40083 C 3718.13 -0.564578 -4.25571 0
M  V30 40084 C 3717.36 0.160655 -5.33458 0
M  V30 40085 O 3717.58 1.38413 -5.53352 0
M  V30 40086 O 3716.52 -0.498364 -5.99833 0
M  V30 40087 H 3720.34 -1.2353 -2.77442 0
M  V30 40088 H 3717.93 -0.667129 -1.33678 0
M  V30 40089 H 3719.81 0.804567 -4.13648 0
M  V30 40090 H 3718.49 1.19798 -3.00716 0
M  V30 40091 H 3717.39 -1.04424 -3.5923 0
M  V30 40092 H 3718.73 -1.35499 -4.73182 0
M  V30 40093 N 3720.38 1.4286 -0.6655 0
M  V30 40094 C 3721.65 1.95272 -0.113286 0
M  V30 40095 C 3722.03 1.60632 1.36969 0
M  V30 40096 O 3721.38 0.897699 2.10128 0
M  V30 40097 C 3721.59 3.47006 -0.372543 0
M  V30 40098 C 3722.94 4.23649 -0.284056 0
M  V30 40099 O 3723.96 3.54885 -0.305776 0
M  V30 40100 O 3722.82 5.46064 -0.218267 0
M  V30 40101 H 3719.92 0.826996 0.00252258 0
M  V30 40102 H 3722.46 1.52736 -0.739587 0
M  V30 40103 H 3721.24 3.6539 -1.40021 0
M  V30 40104 H 3720.86 3.96568 0.286224 0
M  V30 40105 N 3721.86 0.408213 1.52221 0
M  V30 40106 C 3723.08 -0.167393 2.06222 0
M  V30 40107 C 3723.5 -1.38938 1.27835 0
M  V30 40108 O 3722.86 -1.79492 0.329965 0
M  V30 40109 C 3722.91 -0.518741 3.57759 0
M  V30 40110 O 3722.63 0.654715 4.3318 0
M  V30 40111 C 3724.13 -1.14818 4.28173 0
M  V30 40112 H 3721.35 -0.0207936 0.670678 0
M  V30 40113 H 3723.89 0.578903 1.96135 0
M  V30 40114 H 3722.05 -1.21493 3.67856 0
M  V30 40115 H 3722.46 0.36165 5.23252 0
M  V30 40116 H 3723.94 -1.34423 5.35382 0
M  V30 40117 H 3724.41 -2.12101 3.8459 0
M  V30 40118 H 3725.02 -0.492217 4.22442 0
M  V30 40119 N 3723.33 -1.56989 0.138607 0
M  V30 40120 C 3724.75 -1.58106 -0.21787 0
M  V30 40121 C 3724.95 -1.15244 -1.65291 0
M  V30 40122 O 3724.01 -0.848856 -2.37804 0
M  V30 40123 C 3725.32 -3.00682 0.0332639 0
M  V30 40124 C 3726.87 -3.12985 -0.0311043 0
M  V30 40125 C 3727.34 -4.57595 0.192589 0
M  V30 40126 N 3728.83 -4.62991 0.139228 0
M  V30 40127 C 3729.57 -5.72682 0.286938 0
M  V30 40128 N 3729.06 -6.91051 0.491906 0
M  V30 40129 N 3730.86 -5.61649 0.22513 0
M  V30 40130 H 3723.01 -1.83146 1.0757 0
M  V30 40131 H 3725.27 -0.847316 0.425158 0
M  V30 40132 H 3724.98 -3.36398 1.02611 0
M  V30 40133 H 3724.85 -3.70837 -0.689907 0
M  V30 40134 H 3727.24 -2.77114 -1.01449 0
M  V30 40135 H 3727.32 -2.45333 0.724262 0
M  V30 40136 H 3726.96 -4.94168 1.17304 0
M  V30 40137 H 3726.89 -5.23363 -0.583 0
M  V30 40138 H 3729.38 -3.77897 -0.0148803 0
M  V30 40139 H 3729.7 -7.70506 0.594949 0
M  V30 40140 H 3728.04 -6.92991 0.528124 0
M  V30 40141 H 3731.23 -4.68054 0.0658238 0
M  V30 40142 H 3731.41 -6.47088 0.343683 0
M  V30 40143 N 3724.81 0.135183 -1.57019 0
M  V30 40144 C 3726.09 0.875159 -1.7493 0
M  V30 40145 C 3726.47 1.98809 -0.70979 0
M  V30 40146 O 3725.82 2.26909 0.269198 0
M  V30 40147 C 3726.03 1.40675 -3.19392 0
M  V30 40148 C 3727.37 1.8655 -3.81424 0
M  V30 40149 O 3728.4 1.50391 -3.22895 0
M  V30 40150 O 3727.26 2.53274 -4.84267 0
M  V30 40151 H 3724.35 0.414418 -0.715672 0
M  V30 40152 H 3726.9 0.120185 -1.69274 0
M  V30 40153 H 3725.67 0.607496 -3.86556 0
M  V30 40154 H 3725.29 2.2249 -3.29521 0
M  V30 40155 N 3726.29 1.5231 0.404892 0
M  V30 40156 C 3727.71 1.41207 0.743821 0
M  V30 40157 C 3727.91 0.519909 1.94677 0
M  V30 40158 O 3726.96 -0.0126973 2.52497 0
M  V30 40159 C 3728.28 2.83803 0.99379 0
M  V30 40160 C 3729.82 2.93175 1.09624 0
M  V30 40161 C 3730.3 4.36748 1.37895 0
M  V30 40162 N 3731.79 4.40002 1.44751 0
M  V30 40163 C 3732.52 5.48157 1.68259 0
M  V30 40164 N 3732.02 6.66424 1.89344 0
M  V30 40165 N 3733.81 5.35678 1.70309 0
M  V30 40166 H 3725.96 2.08847 -0.386892 0
M  V30 40167 H 3728.23 0.941499 -0.110828 0
M  V30 40168 H 3727.93 3.51228 0.182187 0
M  V30 40169 H 3727.81 3.25102 1.91281 0
M  V30 40170 H 3730.19 2.25928 1.89843 0
M  V30 40171 H 3730.28 2.55327 0.155494 0
M  V30 40172 H 3729.92 5.04555 0.581915 0
M  V30 40173 H 3729.85 4.72136 2.33228 0
M  V30 40174 H 3732.34 3.54752 1.30229 0
M  V30 40175 H 3732.65 7.44632 2.06744 0
M  V30 40176 H 3731 6.69481 1.866 0
M  V30 40177 H 3734.19 4.42259 1.53377 0
M  V30 40178 H 3734.36 6.20041 1.88291 0
M  V30 40179 N 3727.77 -0.662382 1.43004 0
M  V30 40180 C 3728.7 -1.78722 1.41893 0
M  V30 40181 C 3729.68 -1.60144 0.281543 0
M  V30 40182 O 3730.86 -1.82451 0.473709 0
M  V30 40183 C 3727.99 -3.15898 1.22172 0
M  V30 40184 C 3727.04 -3.53199 2.39067 0
M  V30 40185 S 3727.87 -3.54214 4.01613 0
M  V30 40186 C 3729.03 -4.94062 3.84258 0
M  V30 40187 H 3729.26 -1.79393 2.37077 0
M  V30 40188 H 3726.79 -0.834191 1.29925 0
M  V30 40189 H 3728.75 -3.95072 1.11481 0
M  V30 40190 H 3727.41 -3.128 0.285523 0
M  V30 40191 H 3726.6 -4.52939 2.21049 0
M  V30 40192 H 3726.21 -2.81415 2.46336 0
M  V30 40193 H 3728.5 -5.82477 3.46016 0
M  V30 40194 H 3729.44 -5.17129 4.83718 0
M  V30 40195 H 3729.85 -4.67164 3.16887 0
M  V30 40196 N 3729.25 -1.29383 -0.899882 0
M  V30 40197 C 3730.48 -1.20056 -1.68137 0
M  V30 40198 C 3730.88 0.241358 -1.87654 0
M  V30 40199 O 3730.23 1.17345 -1.41336 0
M  V30 40200 C 3730.29 -1.84241 -3.087 0
M  V30 40201 C 3729.95 -3.33536 -3.12415 0
M  V30 40202 C 3730.95 -4.29762 -2.92575 0
M  V30 40203 C 3728.64 -3.74732 -3.34486 0
M  V30 40204 C 3730.63 -5.65161 -2.94741 0
M  V30 40205 C 3728.32 -5.10252 -3.36283 0
M  V30 40206 C 3729.31 -6.05277 -3.16432 0
M  V30 40207 O 3729 -7.38323 -3.18016 0
M  V30 40208 H 3728.73 -0.417177 -0.531921 0
M  V30 40209 H 3731.29 -1.71277 -1.13372 0
M  V30 40210 H 3729.52 -1.27531 -3.65065 0
M  V30 40211 H 3731.21 -1.69239 -3.68935 0
M  V30 40212 H 3731.97 -3.99268 -2.75336 0
M  V30 40213 H 3727.85 -3.01223 -3.48978 0
M  V30 40214 H 3731.4 -6.39306 -2.79165 0
M  V30 40215 H 3727.29 -5.40392 -3.53054 0
M  V30 40216 H 3728.06 -7.47125 -3.34284 0
M  V30 40217 N 3730.72 1.11022 -1.11856 0
M  V30 40218 C 3731.66 2.16971 -0.738673 0
M  V30 40219 C 3732.67 1.61142 0.231785 0
M  V30 40220 O 3733.86 1.78494 0.0140294 0
M  V30 40221 C 3730.96 3.38824 -0.0716393 0
M  V30 40222 C 3730.13 4.2411 -1.07002 0
M  V30 40223 C 3729.19 5.24426 -0.431737 0
M  V30 40224 O 3728.22 5.58725 -1.08695 0
M  V30 40225 N 3729.42 5.74912 0.803492 0
M  V30 40226 H 3732.18 2.50171 -1.65029 0
M  V30 40227 H 3729.74 1.26584 -1.00936 0
M  V30 40228 H 3731.74 4.03031 0.367203 0
M  V30 40229 H 3730.31 3.03651 0.742632 0
M  V30 40230 H 3729.53 3.56293 -1.68668 0
M  V30 40231 H 3730.81 4.77928 -1.74533 0
M  V30 40232 H 3730.21 5.49235 1.3549 0
M  V30 40233 H 3728.77 6.40933 1.18525 0
M  V30 40234 N 3732.2 0.90954 1.28706 0
M  V30 40235 C 3733.14 0.339205 2.25665 0
M  V30 40236 C 3734.11 -0.554195 1.52864 0
M  V30 40237 O 3735.3 -0.498797 1.81781 0
M  V30 40238 C 3732.42 -0.515533 3.34754 0
M  V30 40239 C 3731.47 0.311905 4.25358 0
M  V30 40240 S 3732.3 1.71597 5.07262 0
M  V30 40241 C 3733.46 0.868421 6.19846 0
M  V30 40242 H 3733.69 1.16102 2.73693 0
M  V30 40243 H 3731.23 0.710516 1.3708 0
M  V30 40244 H 3733.18 -1.00287 3.98061 0
M  V30 40245 H 3731.84 -1.31168 2.85401 0
M  V30 40246 H 3731.04 -0.341467 5.02842 0
M  V30 40247 H 3730.64 0.732745 3.66752 0
M  V30 40248 H 3732.93 0.0961791 6.77432 0
M  V30 40249 H 3733.87 1.61566 6.89421 0
M  V30 40250 H 3734.28 0.418456 5.62947 0
M  V30 40251 N 3733.68 -1.42505 0.673067 0
M  V30 40252 C 3734.96 -1.95209 0.12364 0
M  V30 40253 C 3735.34 -1.61357 -1.36115 0
M  V30 40254 O 3734.69 -0.90883 -2.09649 0
M  V30 40255 C 3734.9 -3.46803 0.390941 0
M  V30 40256 C 3736.24 -4.23492 0.306519 0
M  V30 40257 O 3737.27 -3.54718 0.324592 0
M  V30 40258 O 3736.13 -5.45941 0.247223 0
M  V30 40259 H 3733.22 -0.826998 0.00186322 0
M  V30 40260 H 3735.77 -1.52341 0.747677 0
M  V30 40261 H 3734.54 -3.64642 1.41957 0
M  V30 40262 H 3734.16 -3.96715 -0.265189 0
M  V30 40263 N 3735.16 -0.41628 -1.52003 0
M  V30 40264 C 3736.41 0.158555 -2.01076 0
M  V30 40265 C 3736.72 1.45612 -1.30601 0
M  V30 40266 O 3737.93 2.11264 -1.70528 0
M  V30 40267 C 3736.38 0.333116 -3.58355 0
M  V30 40268 C 3735.99 -0.952773 -4.37751 0
M  V30 40269 C 3737.73 0.862857 -4.15638 0
M  V30 40270 C 3735.64 -0.745009 -5.86689 0
M  V30 40271 H 3734.57 0.0630291 -0.751361 0
M  V30 40272 H 3737.22 -0.542822 -1.75287 0
M  V30 40273 H 3735.6 1.097 -3.80502 0
M  V30 40274 H 3736.78 -1.72335 -4.27361 0
M  V30 40275 H 3735.09 -1.40946 -3.9182 0
M  V30 40276 H 3737.69 1.03445 -5.24598 0
M  V30 40277 H 3738.03 1.83954 -3.73452 0
M  V30 40278 H 3738.57 0.157848 -3.97487 0
M  V30 40279 H 3735.31 -1.69346 -6.33247 0
M  V30 40280 H 3734.83 -0.0138512 -5.99798 0
M  V30 40281 H 3736.5 -0.389965 -6.45824 0
M  V30 40282 N 3736.64 1.56914 -0.146931 0
M  V30 40283 C 3737.57 2.13885 0.823765 0
M  V30 40284 C 3738.58 1.08828 1.21079 0
M  V30 40285 O 3739.77 1.36106 1.15488 0
M  V30 40286 C 3736.87 2.64659 2.11681 0
M  V30 40287 C 3736.04 3.94115 1.89716 0
M  V30 40288 C 3735.1 4.302 3.03008 0
M  V30 40289 O 3734.13 4.98525 2.74703 0
M  V30 40290 N 3735.33 3.89776 4.3018 0
M  V30 40291 H 3738.1 2.97801 0.336852 0
M  V30 40292 H 3735.66 1.61859 0.0366419 0
M  V30 40293 H 3737.65 2.85812 2.8652 0
M  V30 40294 H 3736.22 1.85468 2.51635 0
M  V30 40295 H 3735.44 3.81588 0.989141 0
M  V30 40296 H 3736.73 4.7871 1.72378 0
M  V30 40297 H 3736.12 3.34723 4.56045 0
M  V30 40298 H 3734.68 4.15981 5.018 0
M  V30 40299 N 3738.11 -0.126854 1.57089 0
M  V30 40300 C 3739.05 -1.1815 1.96401 0
M  V30 40301 C 3740.06 -1.38087 0.862312 0
M  V30 40302 O 3741.25 -1.37301 1.14064 0
M  V30 40303 C 3738.35 -2.54291 2.2403 0
M  V30 40304 C 3737.52 -2.55062 3.55334 0
M  V30 40305 C 3736.58 -3.7289 3.71268 0
M  V30 40306 O 3735.61 -3.56836 4.4346 0
M  V30 40307 N 3736.81 -4.91146 3.09444 0
M  V30 40308 H 3739.57 -0.847166 2.87477 0
M  V30 40309 H 3737.13 -0.316214 1.58782 0
M  V30 40310 H 3739.13 -3.31661 2.31912 0
M  V30 40311 H 3737.7 -2.79937 1.39119 0
M  V30 40312 H 3736.92 -1.63462 3.58711 0
M  V30 40313 H 3738.2 -2.52626 4.41653 0
M  V30 40314 H 3737.6 -5.07093 2.50745 0
M  V30 40315 H 3736.16 -5.66221 3.22858 0
M  V30 40316 N 3739.59 -1.52523 -0.396809 0
M  V30 40317 C 3740.5 -1.79655 -1.50868 0
M  V30 40318 C 3741.52 -0.682832 -1.60042 0
M  V30 40319 O 3742.69 -0.969581 -1.76525 0
M  V30 40320 C 3739.76 -1.95268 -2.86481 0
M  V30 40321 C 3738.82 -3.1918 -2.87093 0
M  V30 40322 C 3738.05 -3.34039 -4.16238 0
M  V30 40323 O 3738.28 -2.53879 -5.10785 0
M  V30 40324 O 3737.21 -4.27254 -4.23955 0
M  V30 40325 H 3741.04 -2.74055 -1.30873 0
M  V30 40326 H 3738.62 -1.37518 -0.583884 0
M  V30 40327 H 3740.5 -2.07288 -3.66892 0
M  V30 40328 H 3739.18 -1.04058 -3.06519 0
M  V30 40329 H 3738.09 -3.12608 -2.05492 0
M  V30 40330 H 3739.42 -4.10211 -2.72007 0
M  V30 40331 N 3741.07 0.654789 -1.43354 0
M  V30 40332 C 3742 1.77937 -1.51197 0
M  V30 40333 C 3742.98 1.66099 -0.366777 0
M  V30 40334 O 3744.17 1.85218 -0.583782 0
M  V30 40335 C 3741.3 3.16356 -1.43304 0
M  V30 40336 C 3740.25 3.42956 -2.56056 0
M  V30 40337 C 3739.58 4.81159 -2.33217 0
M  V30 40338 C 3740.88 3.37857 -3.98309 0
M  V30 40339 H 3742.57 1.71631 -2.45323 0
M  V30 40340 H 3740.12 0.824298 -1.18073 0
M  V30 40341 H 3742.07 3.94782 -1.47395 0
M  V30 40342 H 3740.79 3.23389 -0.456818 0
M  V30 40343 H 3739.45 2.66901 -2.51315 0
M  V30 40344 H 3739.1 4.84866 -1.33842 0
M  V30 40345 H 3738.8 4.99918 -3.08798 0
M  V30 40346 H 3740.33 5.61844 -2.39089 0
M  V30 40347 H 3741.74 4.06221 -4.04545 0
M  V30 40348 H 3740.14 3.68152 -4.73903 0
M  V30 40349 H 3741.21 2.36067 -4.23557 0
M  V30 40350 N 3742.55 1.29858 0.893007 0
M  V30 40351 C 3743.48 1.11367 2.00325 0
M  V30 40352 C 3744.49 0.0592254 1.62692 0
M  V30 40353 O 3745.68 0.304431 1.75885 0
M  V30 40354 C 3742.78 0.674577 3.32118 0
M  V30 40355 C 3741.96 1.80902 3.98238 0
M  V30 40356 C 3741.02 1.35981 5.08326 0
M  V30 40357 O 3740.04 2.06568 5.30395 0
M  V30 40358 N 3741.24 0.234384 5.80027 0
M  V30 40359 H 3744.01 2.06988 2.1674 0
M  V30 40360 H 3741.57 1.21887 1.06561 0
M  V30 40361 H 3743.56 0.357238 4.0312 0
M  V30 40362 H 3742.13 -0.189359 3.12026 0
M  V30 40363 H 3741.35 2.29489 3.20513 0
M  V30 40364 H 3742.64 2.56946 4.39154 0
M  V30 40365 H 3742.04 -0.353969 5.64591 0
M  V30 40366 H 3740.59 -0.0235477 6.51796 0
M  V30 40367 N 3744.03 -1.10427 1.12443 0
M  V30 40368 C 3745.44 -1.34415 0.860505 0
M  V30 40369 C 3745.64 -1.94956 -0.509359 0
M  V30 40370 O 3744.7 -2.18929 -1.25803 0
M  V30 40371 C 3746.01 -2.26574 1.97698 0
M  V30 40372 C 3747.56 -2.40111 2.00787 0
M  V30 40373 C 3748.04 -3.35599 3.11669 0
M  V30 40374 N 3749.53 -3.43167 3.11112 0
M  V30 40375 C 3750.26 -4.17023 3.93547 0
M  V30 40376 N 3749.76 -4.93765 4.85971 0
M  V30 40377 N 3751.55 -4.12642 3.81684 0
M  V30 40378 H 3743.7 -0.695 2.00708 0
M  V30 40379 H 3745.96 -0.368603 0.873405 0
M  V30 40380 H 3745.67 -1.89301 2.96409 0
M  V30 40381 H 3745.54 -3.26882 1.88223 0
M  V30 40382 H 3747.93 -2.76654 1.02697 0
M  V30 40383 H 3748.01 -1.39618 2.14338 0
M  V30 40384 H 3747.66 -2.99782 4.09992 0
M  V30 40385 H 3747.59 -4.35972 2.95357 0
M  V30 40386 H 3750.08 -2.88438 2.44155 0
M  V30 40387 H 3750.39 -5.47519 5.45383 0
M  V30 40388 H 3748.74 -4.92889 4.89985 0
M  V30 40389 H 3751.93 -3.51783 3.08814 0
M  V30 40390 H 3752.1 -4.69942 4.4616 0
M  V30 40391 N 3745.51 -0.916353 -1.28221 0
M  V30 40392 C 3746.74 -0.565985 -1.98696 0
M  V30 40393 C 3747.14 0.857704 -1.68642 0
M  V30 40394 O 3746.49 1.58004 -0.937046 0
M  V30 40395 C 3746.55 -0.698354 -3.52652 0
M  V30 40396 C 3746.21 -2.09207 -4.06302 0
M  V30 40397 C 3747.21 -3.06506 -4.1994 0
M  V30 40398 C 3744.89 -2.40595 -4.4093 0
M  V30 40399 C 3746.89 -4.33309 -4.67463 0
M  V30 40400 C 3744.58 -3.67636 -4.88146 0
M  V30 40401 C 3745.57 -4.63807 -5.0137 0
M  V30 40402 O 3745.26 -5.8859 -5.47555 0
M  V30 40403 H 3744.99 -0.21425 -0.64115 0
M  V30 40404 H 3747.55 -1.2324 -1.6432 0
M  V30 40405 H 3745.78 0.0251356 -3.86692 0
M  V30 40406 H 3747.47 -0.354709 -4.04347 0
M  V30 40407 H 3748.23 -2.83575 -3.93459 0
M  V30 40408 H 3744.11 -1.6649 -4.29886 0
M  V30 40409 H 3747.66 -5.08378 -4.777 0
M  V30 40410 H 3743.55 -3.90391 -5.14067 0
M  V30 40411 H 3744.32 -5.91416 -5.65835 0
M  V30 40412 N 3746.98 1.42146 -0.680615 0
M  V30 40413 C 3747.91 2.33491 -0.0199786 0
M  V30 40414 C 3748.89 1.51 0.783137 0
M  V30 40415 O 3750.08 1.79585 0.739123 0
M  V30 40416 C 3747.21 3.34676 0.927843 0
M  V30 40417 C 3746.16 4.27366 0.232904 0
M  V30 40418 C 3745.49 5.18804 1.29406 0
M  V30 40419 C 3746.79 5.14633 -0.891649 0
M  V30 40420 H 3748.48 2.88983 -0.782874 0
M  V30 40421 H 3746.03 1.38952 -0.377922 0
M  V30 40422 H 3747.98 3.97495 1.39913 0
M  V30 40423 H 3746.71 2.77501 1.72223 0
M  V30 40424 H 3745.37 3.6595 -0.218204 0
M  V30 40425 H 3745.01 4.57953 2.08059 0
M  V30 40426 H 3744.71 5.81649 0.834172 0
M  V30 40427 H 3746.24 5.84499 1.76616 0
M  V30 40428 H 3747.65 5.71104 -0.501319 0
M  V30 40429 H 3746.05 5.8634 -1.2777 0
M  V30 40430 H 3747.12 4.52687 -1.73789 0
M  V30 40431 N 3748.46 0.424336 1.5178 0
M  V30 40432 C 3749.69 -0.147932 2.06872 0
M  V30 40433 C 3750.11 -1.36806 1.29096 0
M  V30 40434 O 3749.47 -1.78358 0.32531 0
M  V30 40435 C 3749.52 -0.461694 3.57632 0
M  V30 40436 O 3748.62 -1.55029 3.82152 0
M  V30 40437 H 3747.96 -0.00756108 0.663957 0
M  V30 40438 H 3750.49 0.601922 1.95546 0
M  V30 40439 H 3750.5 -0.715935 4.01669 0
M  V30 40440 H 3749.18 0.430154 4.1367 0
M  V30 40441 H 3747.75 -1.28703 3.49986 0
M  V30 40442 N 3749.94 -1.56833 0.15525 0
M  V30 40443 C 3750.87 -2.20185 -0.77722 0
M  V30 40444 C 3751.85 -1.15256 -1.251 0
M  V30 40445 O 3753.04 -1.43629 -1.30707 0
M  V30 40446 C 3750.17 -2.82996 -2.01321 0
M  V30 40447 C 3749.12 -3.93825 -1.6759 0
M  V30 40448 C 3748.45 -4.43609 -2.98521 0
M  V30 40449 C 3749.75 -5.14201 -0.916212 0
M  V30 40450 H 3751.44 -2.98361 -0.249205 0
M  V30 40451 H 3748.99 -1.43512 -0.118423 0
M  V30 40452 H 3750.94 -3.25985 -2.67043 0
M  V30 40453 H 3749.66 -2.02164 -2.56509 0
M  V30 40454 H 3748.32 -3.51467 -1.04244 0
M  V30 40455 H 3747.97 -3.59589 -3.51717 0
M  V30 40456 H 3747.67 -5.18367 -2.76711 0
M  V30 40457 H 3749.19 -4.89274 -3.65299 0
M  V30 40458 H 3750.61 -5.53983 -1.47568 0
M  V30 40459 H 3749 -5.94774 -0.797751 0
M  V30 40460 H 3750.07 -4.84816 0.0905203 0
M  V30 40461 N 3751.42 0.118521 -1.57154 0
M  V30 40462 C 3752.66 0.827447 -1.85152 0
M  V30 40463 C 3753 1.79505 -0.741058 0
M  V30 40464 O 3752.27 1.92847 0.253061 0
M  V30 40465 C 3752.55 1.57692 -3.23736 0
M  V30 40466 C 3752.41 0.628889 -4.45382 0
M  V30 40467 C 3753.73 2.53299 -3.599 0
M  V30 40468 H 3750.85 0.299358 -0.673464 0
M  V30 40469 H 3753.49 0.0916864 -1.89779 0
M  V30 40470 H 3751.64 2.20412 -3.19923 0
M  V30 40471 H 3753.31 0.0104935 -4.61299 0
M  V30 40472 H 3751.55 -0.0595382 -4.33759 0
M  V30 40473 H 3752.22 1.18994 -5.39022 0
M  V30 40474 H 3754.7 2.00684 -3.64507 0
M  V30 40475 H 3753.58 3.0277 -4.57844 0
M  V30 40476 H 3753.84 3.35985 -2.87344 0
M  V30 40477 N 3752.9 1.52731 0.388715 0
M  V30 40478 C 3754.14 1.67457 1.13148 0
M  V30 40479 C 3754.46 0.417128 1.90486 0
M  V30 40480 O 3753.73 -0.568476 1.8747 0
M  V30 40481 H 3752.31 0.617276 0.420689 0
M  V30 40482 H 3754.98 1.89846 0.440947 0
M  V30 40483 H 3754.07 2.52513 1.83423 0
M  V30 40484 N 3754.37 -0.647178 1.43699 0
M  V30 40485 C 3755.31 -1.7726 1.45299 0
M  V30 40486 C 3756.32 -1.5903 0.348338 0
M  V30 40487 O 3757.51 -1.67639 0.613136 0
M  V30 40488 C 3754.61 -3.1477 1.2559 0
M  V30 40489 C 3753.78 -3.59605 2.49005 0
M  V30 40490 C 3752.84 -4.75938 2.24431 0
M  V30 40491 O 3751.87 -4.85068 2.97821 0
M  V30 40492 N 3753.07 -5.66555 1.26475 0
M  V30 40493 H 3755.83 -1.76364 2.42314 0
M  V30 40494 H 3753.39 -0.831222 1.38933 0
M  V30 40495 H 3755.39 -3.90292 1.07023 0
M  V30 40496 H 3753.96 -3.10403 0.369981 0
M  V30 40497 H 3753.18 -2.74462 2.82956 0
M  V30 40498 H 3754.46 -3.86307 3.31126 0
M  V30 40499 H 3753.86 -5.61857 0.658305 0
M  V30 40500 H 3752.42 -6.41773 1.13891 0
M  V30 40501 N 3755.85 -1.3033 -0.886108 0
M  V30 40502 C 3757.1 -1.19264 -1.64024 0
M  V30 40503 C 3757.43 0.252345 -1.92554 0
M  V30 40504 O 3756.71 1.18066 -1.54566 0
M  V30 40505 C 3756.99 -2.02045 -2.98077 0
M  V30 40506 C 3756.84 -3.54757 -2.76528 0
M  V30 40507 C 3758.16 -1.85738 -3.98985 0
M  V30 40508 H 3755.28 -0.434611 -0.595216 0
M  V30 40509 H 3757.92 -1.5995 -1.02547 0
M  V30 40510 H 3756.07 -1.67475 -3.50549 0
M  V30 40511 H 3757.74 -3.99381 -2.30853 0
M  V30 40512 H 3755.99 -3.78997 -2.11054 0
M  V30 40513 H 3756.66 -4.07967 -3.71842 0
M  V30 40514 H 3759.13 -2.15959 -3.55669 0
M  V30 40515 H 3758.01 -2.45987 -4.90695 0
M  V30 40516 H 3758.27 -0.816228 -4.345 0
M  V30 40517 N 3757.33 1.0983 -1.13028 0
M  V30 40518 C 3758.56 1.85422 -0.91117 0
M  V30 40519 C 3758.97 1.81232 0.543293 0
M  V30 40520 O 3758.31 1.20374 1.38766 0
M  V30 40521 C 3758.37 3.34551 -1.3159 0
M  V30 40522 C 3758.04 3.62493 -2.78294 0
M  V30 40523 C 3759.03 3.58566 -3.76466 0
M  V30 40524 C 3756.72 3.9097 -3.15353 0
M  V30 40525 C 3758.71 3.8272 -5.0971 0
M  V30 40526 C 3756.4 4.1478 -4.48777 0
M  V30 40527 C 3757.4 4.10646 -5.45765 0
M  V30 40528 O 3757.09 4.33844 -6.76783 0
M  V30 40529 H 3756.82 0.592679 -0.325127 0
M  V30 40530 H 3759.37 1.39715 -1.50562 0
M  V30 40531 H 3757.6 3.80944 -0.664695 0
M  V30 40532 H 3759.29 3.91545 -1.06993 0
M  V30 40533 H 3760.06 3.36597 -3.49181 0
M  V30 40534 H 3755.94 3.93315 -2.40466 0
M  V30 40535 H 3759.48 3.79408 -5.85402 0
M  V30 40536 H 3755.38 4.36229 -4.75788 0
M  V30 40537 H 3756.15 4.51326 -6.82823 0
M  V30 40538 N 3758.81 0.92314 1.27734 0
M  V30 40539 C 3760.03 0.576755 1.99219 0
M  V30 40540 C 3760.46 -0.837083 1.68447 0
M  V30 40541 O 3759.82 -1.56096 0.922157 0
M  V30 40542 C 3759.86 0.80383 3.51527 0
M  V30 40543 O 3758.97 -0.132757 4.12186 0
M  V30 40544 H 3758.31 0.222564 0.625589 0
M  V30 40545 H 3760.84 1.24115 1.62655 0
M  V30 40546 H 3760.85 0.717605 4.0164 0
M  V30 40547 H 3759.52 1.83446 3.73257 0
M  V30 40548 H 3758.1 0.00299512 3.729 0
M  V30 40549 N 3760.29 -1.41783 0.688143 0
M  V30 40550 C 3761.51 -2.05675 0.224786 0
M  V30 40551 C 3761.93 -1.51757 -1.12317 0
M  V30 40552 O 3761.29 -0.662765 -1.7004 0
M  V30 40553 C 3761.34 -3.6112 0.165724 0
M  V30 40554 O 3761.06 -4.13041 1.46043 0
M  V30 40555 C 3762.56 -4.42147 -0.319521 0
M  V30 40556 H 3759.78 -0.662551 0.106147 0
M  V30 40557 H 3762.32 -1.81686 0.938637 0
M  V30 40558 H 3760.48 -3.84174 -0.498901 0
M  V30 40559 H 3760.89 -5.07025 1.34261 0
M  V30 40560 H 3762.37 -5.5113 -0.309733 0
M  V30 40561 H 3762.84 -4.17707 -1.35712 0
M  V30 40562 H 3763.45 -4.2414 0.313839 0
M  V30 40563 N 3761.76 -0.432379 -1.51553 0
M  V30 40564 C 3762.69 0.372202 -2.30514 0
M  V30 40565 C 3763.68 1.02547 -1.35713 0
M  V30 40566 O 3764.86 1.03006 -1.64631 0
M  V30 40567 C 3761.99 1.47641 -3.14356 0
M  V30 40568 C 3760.94 0.9469 -4.17394 0
M  V30 40569 C 3760.27 2.14648 -4.89725 0
M  V30 40570 C 3761.57 -0.0152295 -5.22298 0
M  V30 40571 H 3763.26 -0.286732 -2.98024 0
M  V30 40572 H 3760.81 -0.13934 -1.43324 0
M  V30 40573 H 3762.76 2.04645 -3.68373 0
M  V30 40574 H 3761.49 2.16356 -2.44658 0
M  V30 40575 H 3760.15 0.39911 -3.64421 0
M  V30 40576 H 3759.79 2.81971 -4.16535 0
M  V30 40577 H 3759.49 1.79859 -5.59397 0
M  V30 40578 H 3761.02 2.72214 -5.46564 0
M  V30 40579 H 3762.43 0.464346 -5.71416 0
M  V30 40580 H 3760.83 -0.275444 -5.99468 0
M  V30 40581 H 3761.9 -0.953441 -4.75434 0
M  V30 40582 N 3763.24 1.56749 -0.163565 0
M  V30 40583 C 3764.49 1.96938 0.484085 0
M  V30 40584 C 3764.82 1.04922 1.63417 0
M  V30 40585 O 3764.1 0.0948171 1.94269 0
M  V30 40586 C 3764.38 3.46664 0.974471 0
M  V30 40587 C 3764.23 4.49458 -0.175252 0
M  V30 40588 C 3765.55 3.99294 1.85075 0
M  V30 40589 H 3762.67 0.716046 0.174491 0
M  V30 40590 H 3765.31 1.88373 -0.248136 0
M  V30 40591 H 3763.46 3.54094 1.59842 0
M  V30 40592 H 3765.13 4.54095 -0.812118 0
M  V30 40593 H 3763.38 4.25748 -0.831928 0
M  V30 40594 H 3764.05 5.51601 0.209863 0
M  V30 40595 H 3766.52 3.94446 1.32481 0
M  V30 40596 H 3765.4 5.04489 2.16291 0
M  V30 40597 H 3765.66 3.42642 2.79372 0
M  V30 40598 N 3764.72 -0.110185 1.57214 0
M  V30 40599 C 3765.95 -0.830358 1.89506 0
M  V30 40600 C 3766.36 -1.73015 0.755733 0
M  V30 40601 O 3765.72 -1.80446 -0.273041 0
M  V30 40602 C 3765.77 -1.6564 3.21319 0
M  V30 40603 O 3765.49 -0.792825 4.30866 0
M  V30 40604 C 3766.99 -2.48096 3.67374 0
M  V30 40605 H 3764.21 -0.238241 0.627282 0
M  V30 40606 H 3766.76 -0.0919357 2.04293 0
M  V30 40607 H 3764.91 -2.34749 3.08175 0
M  V30 40608 H 3765.33 -1.36344 5.06469 0
M  V30 40609 H 3766.8 -3.01572 4.6234 0
M  V30 40610 H 3767.28 -3.25864 2.94465 0
M  V30 40611 H 3767.88 -1.84214 3.83335 0
M  V30 40612 N 3766.2 -1.52935 -0.38061 0
M  V30 40613 C 3767.43 -1.72026 -1.14414 0
M  V30 40614 C 3767.84 -0.44216 -1.83961 0
M  V30 40615 O 3767.18 0.593735 -1.7384 0
M  V30 40616 C 3767.24 -2.82026 -2.22939 0
M  V30 40617 C 3766.91 -4.22872 -1.73287 0
M  V30 40618 C 3767.9 -5.05741 -1.20506 0
M  V30 40619 C 3765.59 -4.69226 -1.79256 0
M  V30 40620 C 3767.58 -6.33049 -0.743521 0
M  V30 40621 C 3765.27 -5.96515 -1.32713 0
M  V30 40622 C 3766.27 -6.78257 -0.803496 0
M  V30 40623 O 3765.95 -8.0316 -0.344889 0
M  V30 40624 H 3765.69 -0.579144 -0.348666 0
M  V30 40625 H 3768.24 -2.00408 -0.450078 0
M  V30 40626 H 3766.47 -2.49084 -2.95794 0
M  V30 40627 H 3768.16 -2.89439 -2.8457 0
M  V30 40628 H 3768.93 -4.71109 -1.15246 0
M  V30 40629 H 3764.8 -4.05684 -2.18955 0
M  V30 40630 H 3768.35 -6.96799 -0.334128 0
M  V30 40631 H 3764.25 -6.3065 -1.37662 0
M  V30 40632 H 3765.01 -8.17175 -0.465599 0
M  V30 40633 N 3767.68 0.639548 -1.4404 0
M  V30 40634 C 3768.93 1.39519 -1.45662 0
M  V30 40635 C 3769.24 1.95394 -0.0898221 0
M  V30 40636 O 3770.44 2.71495 0.0164596 0
M  V30 40637 C 3768.9 2.52562 -2.56399 0
M  V30 40638 C 3768.51 2.03236 -3.99248 0
M  V30 40639 C 3770.25 3.29829 -2.67232 0
M  V30 40640 C 3768.16 3.13572 -5.01425 0
M  V30 40641 H 3767.09 0.524268 -0.541903 0
M  V30 40642 H 3769.74 0.688911 -1.70077 0
M  V30 40643 H 3768.12 3.25725 -2.25209 0
M  V30 40644 H 3769.3 1.36994 -4.39965 0
M  V30 40645 H 3767.61 1.38809 -3.92583 0
M  V30 40646 H 3770.21 4.12066 -3.40743 0
M  V30 40647 H 3770.55 3.7876 -1.72762 0
M  V30 40648 H 3771.08 2.63753 -2.9779 0
M  V30 40649 H 3767.82 2.69595 -5.97494 0
M  V30 40650 H 3767.34 3.78482 -4.65308 0
M  V30 40651 H 3769.02 3.78484 -5.24747 0
M  V30 40652 N 3769.15 1.30798 0.879184 0
M  V30 40653 C 3770.38 1.23024 1.66973 0
M  V30 40654 C 3770.8 -0.202765 1.87004 0
M  V30 40655 O 3770.16 -1.14564 1.40516 0
M  V30 40656 C 3770.21 1.97012 3.02024 0
M  V30 40657 O 3769.31 1.30116 3.91336 0
M  V30 40658 H 3768.66 0.425213 0.50999 0
M  V30 40659 H 3771.19 1.72715 1.09685 0
M  V30 40660 H 3771.2 2.06255 3.52027 0
M  V30 40661 H 3769.87 3.01229 2.86764 0
M  V30 40662 H 3768.45 1.29265 3.49779 0
M  V30 40663 N 3770.63 -1.09229 1.13608 0
M  V30 40664 C 3771.91 -1.78033 0.810151 0
M  V30 40665 C 3772.29 -1.99229 -0.697918 0
M  V30 40666 O 3771.64 -1.59533 -1.63589 0
M  V30 40667 C 3771.85 -3.10195 1.59937 0
M  V30 40668 C 3773.2 -3.84869 1.79335 0
M  V30 40669 O 3774.22 -3.19953 1.56553 0
M  V30 40670 O 3773.08 -5.01413 2.17364 0
M  V30 40671 H 3770.17 -0.77221 0.296008 0
M  V30 40672 H 3772.72 -1.15767 1.24081 0
M  V30 40673 H 3771.49 -2.90265 2.62415 0
M  V30 40674 H 3771.11 -3.80187 1.16378 0
M  V30 40675 N 3772.11 -0.929901 -1.27242 0
M  V30 40676 C 3773.36 -0.581834 -1.94901 0
M  V30 40677 C 3773.71 0.867738 -1.71721 0
M  V30 40678 O 3773.01 1.61111 -1.037 0
M  V30 40679 C 3773.2 -0.846447 -3.47232 0
M  V30 40680 C 3773.03 -2.32019 -3.85224 0
M  V30 40681 C 3771.8 -2.9733 -4.08562 0
M  V30 40682 C 3774 -3.29787 -3.94645 0
M  V30 40683 N 3771.98 -4.34834 -4.33351 0
M  V30 40684 C 3773.35 -4.52509 -4.23835 0
M  V30 40685 C 3775.4 -3.24966 -3.77229 0
M  V30 40686 C 3774.11 -5.71013 -4.37421 0
M  V30 40687 C 3776.13 -4.42784 -3.92041 0
M  V30 40688 C 3775.5 -5.64285 -4.21619 0
M  V30 40689 H 3771.59 -0.263076 -0.73642 0
M  V30 40690 H 3774.18 -1.19698 -1.5356 0
M  V30 40691 H 3772.35 -0.260446 -3.87526 0
M  V30 40692 H 3774.08 -0.460787 -4.02068 0
M  V30 40693 H 3770.84 -2.47991 -4.03481 0
M  V30 40694 H 3771.26 -5.05975 -4.49798 0
M  V30 40695 H 3775.9 -2.32096 -3.534 0
M  V30 40696 H 3773.62 -6.64347 -4.60075 0
M  V30 40697 H 3777.21 -4.40573 -3.79982 0
M  V30 40698 H 3776.09 -6.53931 -4.32832 0
M  V30 40699 N 3773.59 1.41416 -0.695653 0
M  V30 40700 C 3774.84 2.02029 -0.235744 0
M  V30 40701 C 3775.19 1.54112 1.15184 0
M  V30 40702 O 3774.48 0.742522 1.76627 0
M  V30 40703 C 3774.68 3.56641 -0.232727 0
M  V30 40704 C 3774.51 4.19566 -1.61848 0
M  V30 40705 C 3773.28 4.53855 -2.22134 0
M  V30 40706 C 3775.47 4.45766 -2.5651 0
M  V30 40707 N 3773.46 5.02067 -3.53273 0
M  V30 40708 C 3774.83 4.95754 -3.72328 0
M  V30 40709 C 3776.88 4.27778 -2.54776 0
M  V30 40710 C 3775.59 5.29644 -4.86693 0
M  V30 40711 C 3777.61 4.62757 -3.68253 0
M  V30 40712 C 3776.97 5.12916 -4.82801 0
M  V30 40713 H 3773.07 0.770838 -0.131655 0
M  V30 40714 H 3775.66 1.71958 -0.913151 0
M  V30 40715 H 3773.83 3.86185 0.414167 0
M  V30 40716 H 3775.56 4.03976 0.242017 0
M  V30 40717 H 3772.31 4.40312 -1.74419 0
M  V30 40718 H 3772.74 5.30579 -4.20494 0
M  V30 40719 H 3777.38 3.88235 -1.67431 0
M  V30 40720 H 3775.1 5.6811 -5.74697 0
M  V30 40721 H 3778.68 4.50497 -3.68162 0
M  V30 40722 H 3777.56 5.39475 -5.69154 0
M  V30 40723 N 3775.07 0.44041 1.51321 0
M  V30 40724 C 3776.3 -0.123613 2.0653 0
M  V30 40725 C 3776.71 -1.36195 1.30753 0
M  V30 40726 O 3776.07 -1.78752 0.367963 0
M  V30 40727 C 3776.12 -0.442739 3.58779 0
M  V30 40728 O 3775.84 0.746451 4.31694 0
M  V30 40729 C 3777.34 -1.0571 4.30512 0
M  V30 40730 H 3774.56 -0.00656287 0.670968 0
M  V30 40731 H 3777.1 0.620376 1.94863 0
M  V30 40732 H 3775.26 -1.13663 3.7035 0
M  V30 40733 H 3775.67 0.472558 5.22367 0
M  V30 40734 H 3777.15 -1.23037 5.38113 0
M  V30 40735 H 3777.62 -2.03896 3.89003 0
M  V30 40736 H 3778.23 -0.4025 4.23391 0
M  V30 40737 N 3776.55 -1.5666 0.171876 0
M  V30 40738 C 3777.48 -2.20997 -0.753822 0
M  V30 40739 C 3778.46 -1.16576 -1.23871 0
M  V30 40740 O 3779.64 -1.45007 -1.29176 0
M  V30 40741 C 3776.77 -2.85116 -1.98309 0
M  V30 40742 C 3775.73 -3.9558 -1.63403 0
M  V30 40743 C 3775.05 -4.46751 -2.93799 0
M  V30 40744 C 3776.35 -5.15144 -0.861623 0
M  V30 40745 H 3778.05 -2.98609 -0.217545 0
M  V30 40746 H 3775.59 -1.4363 -0.103195 0
M  V30 40747 H 3777.54 -3.28799 -2.6357 0
M  V30 40748 H 3776.27 -2.04874 -2.54351 0
M  V30 40749 H 3774.93 -3.52553 -1.0051 0
M  V30 40750 H 3774.58 -3.63299 -3.47883 0
M  V30 40751 H 3774.28 -5.21273 -2.71198 0
M  V30 40752 H 3775.8 -4.93121 -3.60089 0
M  V30 40753 H 3777.21 -5.55517 -1.41684 0
M  V30 40754 H 3775.61 -5.95587 -0.734623 0
M  V30 40755 H 3776.68 -4.84692 0.141936 0
M  V30 40756 N 3778.02 0.101846 -1.57271 0
M  V30 40757 C 3778.99 1.10822 -2.00627 0
M  V30 40758 C 3779.99 1.33335 -0.898804 0
M  V30 40759 O 3781.18 1.29562 -1.16445 0
M  V30 40760 C 3778.31 2.45889 -2.36117 0
M  V30 40761 H 3779.5 0.735187 -2.90749 0
M  V30 40762 H 3777.05 0.346686 -1.52407 0
M  V30 40763 H 3777.79 2.88081 -1.48928 0
M  V30 40764 H 3777.57 2.30899 -3.16904 0
M  V30 40765 H 3779.06 3.18285 -2.70342 0
M  V30 40766 N 3779.5 1.53135 0.372494 0
M  V30 40767 C 3780.46 1.7842 1.43872 0
M  V30 40768 C 3781.46 0.654481 1.46878 0
M  V30 40769 O 3782.65 0.922645 1.4776 0
M  V30 40770 C 3779.79 1.89999 2.83043 0
M  V30 40771 H 3780.98 2.73638 1.22729 0
M  V30 40772 H 3778.53 1.44107 0.605221 0
M  V30 40773 H 3779.27 0.968233 3.09509 0
M  V30 40774 H 3779.05 2.72161 2.8226 0
M  V30 40775 H 3780.54 2.11177 3.60269 0
M  V30 40776 N 3780.98 -0.6319 1.44377 0
M  V30 40777 C 3781.93 -1.7439 1.51184 0
M  V30 40778 C 3782.9 -1.6216 0.359627 0
M  V30 40779 O 3784.08 -1.82095 0.569757 0
M  V30 40780 C 3781.22 -3.12634 1.4613 0
M  V30 40781 C 3780.33 -3.35846 2.71719 0
M  V30 40782 C 3779.47 -4.64057 2.58504 0
M  V30 40783 C 3778.51 -4.80445 3.79261 0
M  V30 40784 N 3777.65 -5.99933 3.64726 0
M  V30 40785 H 3782.49 -1.67908 2.46193 0
M  V30 40786 H 3780.02 -0.819086 1.22186 0
M  V30 40787 H 3781.98 -3.92583 1.4119 0
M  V30 40788 H 3780.61 -3.18134 0.546887 0
M  V30 40789 H 3779.66 -2.49843 2.86849 0
M  V30 40790 H 3780.97 -3.43835 3.61357 0
M  V30 40791 H 3780.13 -5.52165 2.51393 0
M  V30 40792 H 3778.87 -4.58426 1.66425 0
M  V30 40793 H 3777.87 -3.90767 3.86757 0
M  V30 40794 H 3779.1 -4.87892 4.72375 0
M  V30 40795 H 3777.04 -5.95392 2.75398 0
M  V30 40796 H 3776.96 -6.08975 4.4798 0
M  V30 40797 H 3778.23 -6.90604 3.61505 0
M  V30 40798 N 3782.46 -1.31262 -0.872235 0
M  V30 40799 C 3783.41 -1.18648 -2.00063 0
M  V30 40800 C 3784.4 -0.0953169 -1.69132 0
M  V30 40801 O 3785.61 -0.257053 -1.78155 0
M  V30 40802 H 3781.98 -0.367304 -0.656195 0
M  V30 40803 H 3783.95 -2.14121 -2.07834 0
M  V30 40804 C 3782.7 -0.9083 -3.35627 0
M  V30 40805 H 3782.02 -1.74006 -3.59947 0
M  V30 40806 H 3783.46 -0.860207 -4.15182 0
M  V30 40807 C 3781.92 0.388934 -3.34647 0
M  V30 40808 O 3782.45 1.40645 -3.76274 0
M  V30 40809 N 3780.66 0.404657 -2.87769 0
M  V30 40810 H 3780.21 -0.423869 -2.54089 0
M  V30 40811 H 3780.16 1.27253 -2.87496 0
M  V30 40812 N 3783.94 1.08625 -1.14186 0
M  V30 40813 C 3784.87 2.17499 -0.849493 0
M  V30 40814 C 3785.85 1.68983 0.194587 0
M  V30 40815 O 3787.03 1.94131 0.0517416 0
M  V30 40816 C 3784.16 3.45788 -0.323746 0
M  V30 40817 C 3783.12 4.07683 -1.30302 0
M  V30 40818 C 3782.44 5.30896 -0.636669 0
M  V30 40819 C 3783.74 4.49224 -2.66449 0
M  V30 40820 H 3785.44 2.42214 -1.75991 0
M  V30 40821 H 3782.98 1.16411 -0.847616 0
M  V30 40822 H 3784.93 4.21265 -0.106828 0
M  V30 40823 H 3783.66 3.20621 0.622093 0
M  V30 40824 H 3782.32 3.34235 -1.50607 0
M  V30 40825 H 3781.97 5.02013 0.314906 0
M  V30 40826 H 3781.67 5.73263 -1.29008 0
M  V30 40827 H 3783.19 6.0909 -0.429224 0
M  V30 40828 H 3784.6 5.15888 -2.50064 0
M  V30 40829 H 3783 5.02502 -3.28042 0
M  V30 40830 H 3784.07 3.61221 -3.23493 0
M  V30 40831 N 3785.41 0.936635 1.26747 0
M  V30 40832 C 3786.64 0.598392 1.98058 0
M  V30 40833 C 3787.06 -0.825616 1.69791 0
M  V30 40834 O 3786.41 -1.54991 0.963542 0
M  V30 40835 C 3786.47 0.825581 3.51947 0
M  V30 40836 O 3786.19 2.19358 3.79228 0
M  V30 40837 C 3787.69 0.497264 4.40502 0
M  V30 40838 H 3784.91 0.225925 0.631822 0
M  V30 40839 H 3787.45 1.2561 1.61376 0
M  V30 40840 H 3785.61 0.214547 3.86805 0
M  V30 40841 H 3786.02 2.25022 4.73778 0
M  V30 40842 H 3787.49 0.706875 5.47455 0
M  V30 40843 H 3787.97 -0.567569 4.35517 0
M  V30 40844 H 3788.58 1.08683 4.11179 0
M  V30 40845 N 3786.89 -1.41045 0.703143 0
M  V30 40846 C 3788.17 -1.94903 0.165019 0
M  V30 40847 C 3788.55 -1.64207 -1.32662 0
M  V30 40848 O 3787.9 -0.953095 -2.07674 0
M  V30 40849 C 3788.11 -3.45896 0.464415 0
M  V30 40850 C 3789.46 -4.22747 0.396279 0
M  V30 40851 O 3790.48 -3.5395 0.39976 0
M  V30 40852 O 3789.34 -5.45293 0.36297 0
M  V30 40853 H 3786.43 -0.826772 0.0194046 0
M  V30 40854 H 3788.98 -1.50721 0.779823 0
M  V30 40855 H 3787.75 -3.61549 1.4966 0
M  V30 40856 H 3787.37 -3.97188 -0.18098 0
M  V30 40857 N 3788.37 -0.448429 -1.51086 0
M  V30 40858 C 3789.62 0.114306 -2.02177 0
M  V30 40859 C 3789.95 1.4174 -1.33192 0
M  V30 40860 O 3789.2 1.90709 -0.439134 0
M  V30 40861 C 3789.5 0.369169 -3.55488 0
M  V30 40862 C 3789.17 -0.84945 -4.42826 0
M  V30 40863 C 3787.83 -1.18362 -4.66416 0
M  V30 40864 C 3790.18 -1.66188 -4.93995 0
M  V30 40865 C 3787.51 -2.33069 -5.3842 0
M  V30 40866 C 3789.86 -2.80004 -5.67257 0
M  V30 40867 C 3788.52 -3.13861 -5.89107 0
M  V30 40868 H 3787.79 0.0418277 -0.739819 0
M  V30 40869 H 3790.44 -0.597889 -1.81927 0
M  V30 40870 H 3788.75 1.16338 -3.74129 0
M  V30 40871 H 3790.44 0.818179 -3.92564 0
M  V30 40872 H 3787.03 -0.579073 -4.2467 0
M  V30 40873 H 3791.22 -1.41691 -4.75644 0
M  V30 40874 H 3786.47 -2.59602 -5.53549 0
M  V30 40875 H 3790.65 -3.43318 -6.05893 0
M  V30 40876 H 3788.27 -4.02856 -6.44679 0
M  V30 40877 N 3789.85 1.56567 -0.180181 0
M  V30 40878 C 3790.81 2.17171 0.732771 0
M  V30 40879 C 3791.81 1.12212 1.15174 0
M  V30 40880 O 3793 1.37678 1.06725 0
M  V30 40881 C 3790.13 2.76174 1.99852 0
M  V30 40882 H 3791.33 2.99198 0.205035 0
M  V30 40883 H 3788.88 1.56146 0.0694076 0
M  V30 40884 H 3789.61 1.97904 2.56914 0
M  V30 40885 H 3789.4 3.52993 1.70699 0
M  V30 40886 H 3790.89 3.22757 2.64987 0
M  V30 40887 N 3791.33 -0.0935042 1.57322 0
M  V30 40888 C 3792.24 -1.13165 2.05501 0
M  V30 40889 C 3793.25 -1.43762 0.980224 0
M  V30 40890 O 3794.43 -1.54372 1.29349 0
M  V30 40891 C 3791.49 -2.43177 2.47115 0
M  V30 40892 C 3790.55 -2.19748 3.68795 0
M  V30 40893 C 3789.79 -3.4356 4.08415 0
M  V30 40894 O 3790.01 -4.51857 3.48112 0
M  V30 40895 O 3788.94 -3.33053 5.01357 0
M  V30 40896 H 3792.77 -0.75244 2.94231 0
M  V30 40897 H 3790.36 -0.306126 1.4623 0
M  V30 40898 H 3792.24 -3.1973 2.74501 0
M  V30 40899 H 3790.91 -2.80521 1.61523 0
M  V30 40900 H 3789.82 -1.4097 3.46523 0
M  V30 40901 H 3791.15 -1.87295 4.55172 0
M  V30 40902 N 3792.8 -1.5333 -0.364368 0
M  V30 40903 C 3793.74 -1.76139 -1.46655 0
M  V30 40904 C 3794.75 -0.642192 -1.49599 0
M  V30 40905 O 3795.94 -0.918479 -1.53056 0
M  V30 40906 C 3793.04 -1.82735 -2.85414 0
M  V30 40907 C 3792.21 -3.12393 -3.06152 0
M  V30 40908 C 3791.27 -3.10215 -4.25033 0
M  V30 40909 O 3790.3 -3.8401 -4.20149 0
M  V30 40910 N 3791.5 -2.3112 -5.32507 0
M  V30 40911 H 3794.26 -2.71242 -1.27467 0
M  V30 40912 H 3791.82 -1.52123 -0.5541 0
M  V30 40913 H 3793.82 -1.78754 -3.63083 0
M  V30 40914 H 3792.39 -0.94911 -2.97843 0
M  V30 40915 H 3791.61 -3.29667 -2.16133 0
M  V30 40916 H 3792.89 -3.98078 -3.16878 0
M  V30 40917 H 3792.29 -1.70678 -5.39338 0
M  V30 40918 H 3790.85 -2.32956 -6.08748 0
M  V30 40919 N 3794.28 0.624234 -1.4471 0
M  V30 40920 C 3795.51 1.40865 -1.51131 0
M  V30 40921 C 3795.92 1.88702 -0.137133 0
M  V30 40922 O 3795.26 1.61872 0.868518 0
M  V30 40923 C 3795.33 2.65832 -2.4202 0
M  V30 40924 C 3794.99 2.39745 -3.89065 0
M  V30 40925 C 3795.99 2.01142 -4.79414 0
M  V30 40926 C 3793.67 2.53172 -4.33831 0
M  V30 40927 C 3795.67 1.76304 -6.12532 0
M  V30 40928 C 3793.35 2.27947 -5.66995 0
M  V30 40929 C 3794.35 1.89573 -6.56164 0
M  V30 40930 O 3794.04 1.64633 -7.86862 0
M  V30 40931 H 3793.77 0.438201 -0.514739 0
M  V30 40932 H 3796.32 0.769975 -1.90422 0
M  V30 40933 H 3794.55 3.32361 -1.97669 0
M  V30 40934 H 3796.24 3.27848 -2.39312 0
M  V30 40935 H 3797.01 1.9032 -4.46098 0
M  V30 40936 H 3792.89 2.8201 -3.6468 0
M  V30 40937 H 3796.43 1.46276 -6.82092 0
M  V30 40938 H 3792.33 2.38381 -5.99871 0
M  V30 40939 H 3793.1 1.78822 -7.98727 0
M  V30 40940 N 3795.76 1.31723 0.865262 0
M  V30 40941 C 3796.99 1.24788 1.65658 0
M  V30 40942 C 3797.41 -0.182919 1.87208 0
M  V30 40943 O 3796.77 -1.13067 1.41723 0
M  V30 40944 C 3796.82 2.00204 2.99918 0
M  V30 40945 O 3795.92 1.3426 3.89934 0
M  V30 40946 H 3795.26 0.430598 0.505452 0
M  V30 40947 H 3797.79 1.73868 1.07847 0
M  V30 40948 H 3797.8 2.09978 3.49819 0
M  V30 40949 H 3796.48 3.04254 2.83553 0
M  V30 40950 H 3795.05 1.32967 3.48388 0
M  V30 40951 N 3797.24 -1.08018 1.14761 0
M  V30 40952 C 3798.49 -1.79861 0.912854 0
M  V30 40953 C 3798.8 -1.87357 -0.56184 0
M  V30 40954 O 3800.01 -2.55654 -0.91397 0
M  V30 40955 C 3798.46 -3.2318 1.58375 0
M  V30 40956 C 3798.07 -3.23905 3.09498 0
M  V30 40957 C 3799.81 -3.99679 1.43028 0
M  V30 40958 C 3797.72 -4.61837 3.69406 0
M  V30 40959 H 3796.65 -0.674058 0.337879 0
M  V30 40960 H 3799.3 -1.21292 1.37697 0
M  V30 40961 H 3797.68 -3.819 1.04731 0
M  V30 40962 H 3798.86 -2.7487 3.69842 0
M  V30 40963 H 3797.17 -2.60902 3.24529 0
M  V30 40964 H 3799.77 -5.01609 1.85183 0
M  V30 40965 H 3800.11 -4.1459 0.376887 0
M  V30 40966 H 3800.65 -3.47438 1.9373 0
M  V30 40967 H 3797.39 -4.52129 4.74615 0
M  V30 40968 H 3796.91 -5.11138 3.13844 0
M  V30 40969 H 3798.58 -5.3081 3.69933 0
M  V30 40970 N 3798.72 -0.943344 -1.26249 0
M  V30 40971 C 3799.65 -0.411943 -2.25468 0
M  V30 40972 C 3800.66 0.465978 -1.55989 0
M  V30 40973 O 3801.85 0.276075 -1.76352 0
M  V30 40974 C 3798.95 0.42685 -3.36201 0
M  V30 40975 C 3798.12 -0.435422 -4.35227 0
M  V30 40976 C 3797.18 0.343296 -5.25079 0
M  V30 40977 O 3796.21 -0.254422 -5.68631 0
M  V30 40978 N 3797.41 1.63929 -5.56873 0
M  V30 40979 H 3800.18 -1.2649 -2.71699 0
M  V30 40980 H 3797.74 -0.812463 -1.40038 0
M  V30 40981 H 3799.73 0.955247 -3.93265 0
M  V30 40982 H 3798.3 1.18062 -2.89448 0
M  V30 40983 H 3797.52 -1.14501 -3.77204 0
M  V30 40984 H 3798.81 -1.02435 -4.98382 0
M  V30 40985 H 3798.2 2.14699 -5.23374 0
M  V30 40986 H 3796.76 2.11388 -6.1657 0
M  V30 40987 N 3800.2 1.4067 -0.710613 0
M  V30 40988 C 3801.47 1.94812 -0.175353 0
M  V30 40989 C 3801.85 1.64909 1.31789 0
M  V30 40990 O 3801.2 0.964095 2.07165 0
M  V30 40991 C 3801.41 3.45645 -0.482752 0
M  V30 40992 C 3802.76 4.22531 -0.418693 0
M  V30 40993 O 3803.78 3.53733 -0.418525 0
M  V30 40994 O 3802.64 5.45093 -0.391883 0
M  V30 40995 H 3799.74 0.826658 -0.023789 0
M  V30 40996 H 3802.28 1.50305 -0.787805 0
M  V30 40997 H 3801.05 3.6075 -1.51575 0
M  V30 40998 H 3800.68 3.97278 0.159914 0
M  V30 40999 N 3801.67 0.456435 1.50846 0
M  V30 41000 C 3802.92 -0.095917 2.03174 0
M  V30 41001 C 3803.27 -1.38711 1.3333 0
M  V30 41002 O 3802.57 -1.86351 0.445423 0
M  V30 41003 C 3802.76 -0.350312 3.55679 0
M  V30 41004 C 3802.59 0.914674 4.403 0
M  V30 41005 C 3801.36 1.45375 4.83936 0
M  V30 41006 C 3803.56 1.80609 4.81544 0
M  V30 41007 N 3801.54 2.66929 5.52831 0
M  V30 41008 C 3802.91 2.86757 5.497 0
M  V30 41009 C 3804.97 1.81823 4.63514 0
M  V30 41010 C 3803.67 3.94089 6.01736 0
M  V30 41011 C 3805.7 2.88102 5.1648 0
M  V30 41012 C 3805.06 3.92969 5.84598 0
M  V30 41013 H 3801.16 0.00455563 0.781987 0
M  V30 41014 H 3803.74 0.621373 1.84518 0
M  V30 41015 H 3801.91 -1.03664 3.74311 0
M  V30 41016 H 3803.64 -0.895708 3.94663 0
M  V30 41017 H 3800.4 1.00498 4.62814 0
M  V30 41018 H 3800.82 3.28619 5.91894 0
M  V30 41019 H 3805.46 1.02071 4.10294 0
M  V30 41020 H 3803.18 4.74667 6.54001 0
M  V30 41021 H 3806.77 2.90006 5.04369 0
M  V30 41022 H 3805.65 4.73854 6.24846 0
M  V30 41023 N 3803.15 -1.56469 0.188482 0
M  V30 41024 C 3804.11 -2.17556 -0.721243 0
M  V30 41025 C 3805.11 -1.12822 -1.14577 0
M  V30 41026 O 3806.3 -1.38242 -1.05994 0
M  V30 41027 C 3803.44 -2.7723 -1.98385 0
M  V30 41028 H 3804.63 -2.99303 -0.189165 0
M  V30 41029 H 3802.18 -1.5618 -0.0611259 0
M  V30 41030 H 3802.92 -1.99263 -2.5586 0
M  V30 41031 H 3802.7 -3.53894 -1.68824 0
M  V30 41032 H 3804.19 -3.24157 -2.63271 0
M  V30 41033 N 3804.63 0.0851597 -1.5737 0
M  V30 41034 C 3805.58 1.10259 -2.0276 0
M  V30 41035 C 3806.55 1.39233 -0.905726 0
M  V30 41036 O 3807.73 1.50527 -1.17244 0
M  V30 41037 C 3804.87 2.41487 -2.46532 0
M  V30 41038 C 3803.98 2.19158 -3.72282 0
M  V30 41039 C 3803.12 3.43856 -4.04891 0
M  V30 41040 C 3802.16 3.16832 -5.23721 0
M  V30 41041 N 3801.3 4.33824 -5.52034 0
M  V30 41042 H 3806.14 0.708532 -2.89454 0
M  V30 41043 H 3803.67 0.338307 -1.43157 0
M  V30 41044 H 3805.63 3.18086 -2.69957 0
M  V30 41045 H 3804.26 2.7872 -1.62834 0
M  V30 41046 H 3803.31 1.33315 -3.56274 0
M  V30 41047 H 3804.62 1.95189 -4.59024 0
M  V30 41048 H 3803.78 4.28857 -4.29146 0
M  V30 41049 H 3802.52 3.70889 -3.1669 0
M  V30 41050 H 3801.52 2.30225 -4.99276 0
M  V30 41051 H 3802.75 2.91135 -6.13528 0
M  V30 41052 H 3800.69 4.60914 -4.66792 0
M  V30 41053 H 3800.61 4.1308 -6.33168 0
M  V30 41054 H 3801.88 5.19861 -5.80831 0
M  V30 41055 N 3806.11 1.53521 0.356231 0
M  V30 41056 C 3807.52 1.43502 0.698521 0
M  V30 41057 C 3807.72 0.58158 1.92925 0
M  V30 41058 O 3806.78 0.0676391 2.52409 0
M  V30 41059 C 3808.09 2.86821 0.902997 0
M  V30 41060 C 3809.64 2.96514 1.00242 0
M  V30 41061 C 3810.12 4.40914 1.2393 0
M  V30 41062 N 3811.61 4.44384 1.30679 0
M  V30 41063 C 3812.34 5.53233 1.50735 0
M  V30 41064 N 3811.84 6.7211 1.68047 0
M  V30 41065 N 3813.63 5.40825 1.5318 0
M  V30 41066 H 3805.78 2.0751 -0.453139 0
M  V30 41067 H 3808.04 0.937497 -0.140725 0
M  V30 41068 H 3807.75 3.5163 0.0703542 0
M  V30 41069 H 3807.62 3.31023 1.80841 0
M  V30 41070 H 3810.01 2.31854 1.82559 0
M  V30 41071 H 3810.09 2.55692 0.0741853 0
M  V30 41072 H 3809.74 5.06151 0.4211 0
M  V30 41073 H 3809.67 4.79317 2.1809 0
M  V30 41074 H 3812.16 3.58715 1.18877 0
M  V30 41075 H 3812.47 7.50832 1.8295 0
M  V30 41076 H 3810.82 6.75079 1.65207 0
M  V30 41077 H 3814.01 4.46915 1.3923 0
M  V30 41078 H 3814.18 6.25717 1.68469 0
M  V30 41079 N 3807.59 -0.616551 1.45039 0
M  V30 41080 C 3808.52 -1.74118 1.47507 0
M  V30 41081 C 3809.5 -1.59167 0.332349 0
M  V30 41082 O 3810.68 -1.80851 0.531514 0
M  V30 41083 C 3807.81 -3.11851 1.3216 0
M  V30 41084 C 3806.85 -3.45414 2.50182 0
M  V30 41085 S 3807.69 -3.41257 4.12679 0
M  V30 41086 C 3808.84 -4.81587 3.99781 0
M  V30 41087 H 3809.08 -1.7176 2.42664 0
M  V30 41088 H 3806.61 -0.792434 1.32514 0
M  V30 41089 H 3808.57 -3.91326 1.23993 0
M  V30 41090 H 3807.23 -3.11733 0.384894 0
M  V30 41091 H 3806.42 -4.45677 2.35347 0
M  V30 41092 H 3806.02 -2.73436 2.55165 0
M  V30 41093 H 3808.31 -5.71174 3.64372 0
M  V30 41094 H 3809.26 -5.01478 4.99925 0
M  V30 41095 H 3809.67 -4.56846 3.3159 0
M  V30 41096 N 3809.06 -1.3218 -0.858264 0
M  V30 41097 C 3810.01 -1.20814 -1.96654 0
M  V30 41098 C 3810.98 -0.0911491 -1.6585 0
M  V30 41099 O 3812.17 -0.266066 -1.88936 0
M  V30 41100 C 3809.31 -0.933466 -3.32235 0
M  V30 41101 C 3808.42 -2.1349 -3.75561 0
M  V30 41102 C 3807.55 -1.79602 -4.99917 0
M  V30 41103 C 3806.59 -2.96087 -5.35723 0
M  V30 41104 N 3805.73 -2.62315 -6.51257 0
M  V30 41105 H 3810.57 -2.15612 -2.05707 0
M  V30 41106 H 3808.11 -1.0724 -1.00687 0
M  V30 41107 H 3810.06 -0.754724 -4.10317 0
M  V30 41108 H 3808.69 -0.0222847 -3.22792 0
M  V30 41109 H 3807.75 -2.42404 -2.93163 0
M  V30 41110 H 3809.06 -3.00636 -3.98019 0
M  V30 41111 H 3808.21 -1.58258 -5.85695 0
M  V30 41112 H 3806.95 -0.896645 -4.79387 0
M  V30 41113 H 3805.96 -3.18066 -4.48457 0
M  V30 41114 H 3807.18 -3.86751 -5.58212 0
M  V30 41115 H 3805.13 -1.74915 -6.32251 0
M  V30 41116 H 3805.04 -3.42991 -6.73716 0
M  V30 41117 H 3806.31 -2.44393 -7.40197 0
M  V30 41118 N 3810.54 1.07407 -1.15332 0
M  V30 41119 C 3811.5 2.12768 -0.852193 0
M  V30 41120 C 3812.5 1.60119 0.147792 0
M  V30 41121 O 3813.69 1.74008 -0.0817742 0
M  V30 41122 C 3810.83 3.39811 -0.272293 0
M  V30 41123 H 3812.02 2.40913 -1.78608 0
M  V30 41124 H 3809.57 1.23288 -0.96072 0
M  V30 41125 H 3810.31 3.17307 0.669818 0
M  V30 41126 H 3810.09 3.79326 -0.992696 0
M  V30 41127 H 3811.58 4.17525 -0.079172 0
M  V30 41128 N 3812.02 0.950026 1.25747 0
M  V30 41129 C 3812.95 0.484507 2.28418 0
M  V30 41130 C 3813.93 -0.466784 1.6357 0
M  V30 41131 O 3815.12 -0.366733 1.90706 0
M  V30 41132 C 3812.25 -0.242855 3.4645 0
M  V30 41133 C 3811.2 0.622731 4.23445 0
M  V30 41134 C 3810.53 -0.235105 5.34183 0
M  V30 41135 C 3811.83 1.89853 4.86573 0
M  V30 41136 H 3813.52 1.34262 2.67608 0
M  V30 41137 H 3811.07 0.647037 1.28645 0
M  V30 41138 H 3813.02 -0.57962 4.17395 0
M  V30 41139 H 3811.74 -1.13518 3.06237 0
M  V30 41140 H 3810.4 0.942515 3.54277 0
M  V30 41141 H 3810.05 -1.12705 4.90211 0
M  V30 41142 H 3809.75 0.340712 5.86611 0
M  V30 41143 H 3811.27 -0.566941 6.07962 0
M  V30 41144 H 3812.69 1.62846 5.49685 0
M  V30 41145 H 3811.08 2.41963 5.49157 0
M  V30 41146 H 3812.15 2.60448 4.09017 0
M  V30 41147 N 3813.5 -1.40291 0.718063 0
M  V30 41148 C 3814.74 -2.01139 0.259022 0
M  V30 41149 C 3815.08 -1.56813 -1.14557 0
M  V30 41150 O 3814.35 -0.789308 -1.77764 0
M  V30 41151 C 3814.63 -3.58474 0.341841 0
M  V30 41152 C 3814.49 -4.12866 1.78499 0
M  V30 41153 C 3815.81 -4.39173 -0.285545 0
M  V30 41154 H 3812.93 -0.730774 0.0955934 0
M  V30 41155 H 3815.57 -1.66734 0.91103 0
M  V30 41156 H 3813.72 -3.87914 -0.213286 0
M  V30 41157 H 3815.39 -3.94213 2.39569 0
M  V30 41158 H 3813.63 -3.67061 2.3119 0
M  V30 41159 H 3814.3 -5.22023 1.79432 0
M  V30 41160 H 3816.78 -4.15677 0.187484 0
M  V30 41161 H 3815.66 -5.48546 -0.197163 0
M  V30 41162 H 3815.92 -4.20357 -1.36939 0
M  V30 41163 N 3814.98 -0.464428 -1.50602 0
M  V30 41164 C 3815.89 0.33868 -2.32142 0
M  V30 41165 C 3816.9 1.0023 -1.42232 0
M  V30 41166 O 3818.08 0.991739 -1.7529 0
M  V30 41167 C 3815.14 1.41013 -3.16727 0
M  V30 41168 C 3814.2 0.763805 -4.22451 0
M  V30 41169 C 3813.44 1.7842 -5.02993 0
M  V30 41170 O 3813.66 3.00991 -4.84521 0
M  V30 41171 O 3812.59 1.35972 -5.86341 0
M  V30 41172 H 3816.42 -0.327748 -3.01926 0
M  V30 41173 H 3814.01 -0.226405 -1.47675 0
M  V30 41174 H 3815.89 2.03091 -3.69232 0
M  V30 41175 H 3814.56 2.06015 -2.49679 0
M  V30 41176 H 3813.47 0.104252 -3.73955 0
M  V30 41177 H 3814.8 0.156843 -4.9195 0
M  V30 41178 N 3816.45 1.56367 -0.196777 0
M  V30 41179 C 3817.39 2.16397 0.755302 0
M  V30 41180 C 3818.4 1.12625 1.17556 0
M  V30 41181 O 3819.59 1.39711 1.111 0
M  V30 41182 C 3816.69 2.71259 2.03154 0
M  V30 41183 C 3815.86 3.99951 1.77081 0
M  V30 41184 C 3814.92 4.39623 2.89168 0
M  V30 41185 O 3813.95 5.07012 2.58703 0
M  V30 41186 N 3815.15 4.03265 4.17562 0
M  V30 41187 H 3817.91 2.98722 0.241938 0
M  V30 41188 H 3815.47 1.61893 -0.0148707 0
M  V30 41189 H 3817.47 2.94783 2.77282 0
M  V30 41190 H 3816.04 1.9338 2.45607 0
M  V30 41191 H 3815.26 3.84542 0.867241 0
M  V30 41192 H 3816.54 4.83952 1.57061 0
M  V30 41193 H 3815.94 3.49062 4.45165 0
M  V30 41194 H 3814.5 4.31735 4.88312 0
M  V30 41195 N 3817.93 -0.0768128 1.57413 0
M  V30 41196 C 3819.18 -0.775381 1.86634 0
M  V30 41197 C 3819.5 -1.78366 0.788072 0
M  V30 41198 O 3818.77 -1.95036 -0.183801 0
M  V30 41199 H 3817.35 -0.289352 0.688683 0
M  V30 41200 H 3820.01 -0.0540942 1.94825 0
M  V30 41201 H 3819.11 -1.29469 2.83979 0
M  V30 41202 N 3819.41 -1.53708 -0.348084 0
M  V30 41203 C 3820.66 -1.70736 -1.08883 0
M  V30 41204 C 3820.99 -0.468175 -1.88781 0
M  V30 41205 O 3820.24 0.550048 -1.87811 0
M  V30 41206 C 3820.54 -2.91976 -2.06118 0
M  V30 41207 C 3820.21 -4.27768 -1.42566 0
M  V30 41208 C 3818.87 -4.64691 -1.24963 0
M  V30 41209 C 3821.22 -5.12142 -0.967448 0
M  V30 41210 C 3818.55 -5.83609 -0.601495 0
M  V30 41211 C 3820.9 -6.31722 -0.333239 0
M  V30 41212 C 3819.56 -6.67343 -0.14485 0
M  V30 41213 H 3818.83 -0.624766 -0.398433 0
M  V30 41214 H 3821.48 -1.87919 -0.368624 0
M  V30 41215 H 3819.79 -2.69378 -2.84505 0
M  V30 41216 H 3821.48 -3.02344 -2.63418 0
M  V30 41217 H 3818.07 -3.98705 -1.57264 0
M  V30 41218 H 3822.26 -4.84153 -1.09132 0
M  V30 41219 H 3817.51 -6.09785 -0.444109 0
M  V30 41220 H 3821.69 -6.96394 0.0299305 0
M  V30 41221 H 3819.31 -7.5935 0.359425 0
M  V30 41222 N 3820.89 0.608851 -1.45364 0
M  V30 41223 C 3822.12 1.39456 -1.52839 0
M  V30 41224 C 3822.53 1.88116 -0.16057 0
M  V30 41225 O 3821.89 1.62141 0.837643 0
M  V30 41226 C 3821.94 2.5999 -2.51172 0
M  V30 41227 O 3821.66 2.13352 -3.82639 0
M  V30 41228 C 3823.16 3.52864 -2.68332 0
M  V30 41229 H 3820.38 0.426933 -0.517657 0
M  V30 41230 H 3822.93 0.74264 -1.90539 0
M  V30 41231 H 3821.08 3.21226 -2.16547 0
M  V30 41232 H 3821.49 2.91657 -4.35932 0
M  V30 41233 H 3822.97 4.33986 -3.41116 0
M  V30 41234 H 3823.45 4.03123 -1.74324 0
M  V30 41235 H 3824.05 2.97482 -3.03949 0
M  V30 41236 N 3822.37 1.32633 0.851242 0
M  V30 41237 C 3823.61 1.23571 1.60805 0
M  V30 41238 C 3823.95 -0.201205 1.93155 0
M  V30 41239 O 3823.22 -1.13926 1.57642 0
M  V30 41240 C 3823.5 2.09877 2.92615 0
M  V30 41241 C 3823.36 3.61964 2.67025 0
M  V30 41242 C 3824.68 1.96251 3.93921 0
M  V30 41243 H 3821.79 0.450239 0.583484 0
M  V30 41244 H 3824.44 1.62613 0.982702 0
M  V30 41245 H 3822.59 1.7671 3.45985 0
M  V30 41246 H 3824.26 4.05361 2.20182 0
M  V30 41247 H 3822.5 3.8446 2.00931 0
M  V30 41248 H 3823.17 4.17683 3.60895 0
M  V30 41249 H 3825.65 2.25313 3.49819 0
M  V30 41250 H 3824.52 2.58911 4.84 0
M  V30 41251 H 3824.79 0.931141 4.32183 0
M  V30 41252 N 3823.84 -1.06794 1.159 0
M  V30 41253 C 3825.26 -1.60967 0.945865 0
M  V30 41254 C 3825.61 -1.89416 -0.511474 0
M  V30 41255 O 3824.73 -1.66382 -1.38369 0
M  V30 41256 C 3825.33 -2.92445 1.71059 0
M  V30 41257 C 3823.89 -3.43338 1.54258 0
M  V30 41258 C 3823.03 -2.17308 1.72257 0
M  V30 41259 H 3825.98 -0.898095 1.30843 0
M  V30 41260 H 3826 -3.61629 1.18342 0
M  V30 41261 H 3825.52 -2.71708 2.77122 0
M  V30 41262 H 3823.62 -3.69146 0.506147 0
M  V30 41263 H 3823.73 -4.19003 2.32322 0
M  V30 41264 H 3822.09 -2.27282 1.14956 0
M  V30 41265 H 3822.88 -1.99059 2.79697 0
M  V30 41266 N 3825.32 -0.956681 -1.25241 0
M  V30 41267 C 3826.23 -0.48519 -2.29528 0
M  V30 41268 C 3827.25 0.448464 -1.68121 0
M  V30 41269 O 3828.42 0.324208 -1.98773 0
M  V30 41270 C 3825.49 0.22755 -3.45952 0
M  V30 41271 C 3824.55 -0.744569 -4.22794 0
M  V30 41272 C 3823.78 -0.0657477 -5.3366 0
M  V30 41273 O 3824.01 1.14819 -5.58724 0
M  V30 41274 O 3822.94 -0.752325 -5.9718 0
M  V30 41275 H 3826.77 -1.35186 -2.71953 0
M  V30 41276 H 3824.35 -0.723226 -1.30728 0
M  V30 41277 H 3826.23 0.628401 -4.16688 0
M  V30 41278 H 3824.91 1.06936 -3.05526 0
M  V30 41279 H 3823.82 -1.19567 -3.54478 0
M  V30 41280 H 3825.15 -1.55446 -4.67009 0
M  V30 41281 N 3826.8 1.39908 -0.725493 0
M  V30 41282 C 3828.05 1.99935 -0.266223 0
M  V30 41283 C 3828.36 1.58209 1.15019 0
M  V30 41284 O 3829.57 2.11004 1.70849 0
M  V30 41285 C 3828.02 3.57381 -0.42504 0
M  V30 41286 C 3827.63 4.08076 -1.84873 0
M  V30 41287 C 3829.38 4.24491 -0.0270654 0
M  V30 41288 C 3827.28 5.58061 -1.95761 0
M  V30 41289 H 3826.21 0.747892 -0.0957819 0
M  V30 41290 H 3828.86 1.60025 -0.898008 0
M  V30 41291 H 3827.25 3.95041 0.275489 0
M  V30 41292 H 3828.42 3.81772 -2.58044 0
M  V30 41293 H 3826.74 3.53596 -2.19906 0
M  V30 41294 H 3829.33 5.34628 -0.0875578 0
M  V30 41295 H 3829.68 4.03704 1.01632 0
M  V30 41296 H 3830.21 3.91973 -0.678401 0
M  V30 41297 H 3826.95 5.83716 -2.98255 0
M  V30 41298 H 3826.47 5.86198 -1.27014 0
M  V30 41299 H 3828.15 6.23322 -1.73433 0
M  V30 41300 N 3828.28 0.472408 1.50353 0
M  V30 41301 C 3829.23 -0.321078 2.28556 0
M  V30 41302 C 3830.2 -0.986027 1.33666 0
M  V30 41303 O 3831.38 -0.998211 1.62605 0
M  V30 41304 C 3828.52 -1.39636 3.15588 0
M  V30 41305 C 3827.63 -0.746054 4.25509 0
M  V30 41306 C 3826.77 -1.79934 4.99797 0
M  V30 41307 C 3825.81 -1.12935 6.01591 0
M  V30 41308 N 3824.94 -2.12555 6.69152 0
M  V30 41309 H 3829.78 0.352103 2.95913 0
M  V30 41310 H 3827.32 0.185487 1.45926 0
M  V30 41311 H 3829.28 -2.03146 3.644 0
M  V30 41312 H 3827.91 -2.03869 2.50275 0
M  V30 41313 H 3826.96 0.00164405 3.804 0
M  V30 41314 H 3828.27 -0.217247 4.98327 0
M  V30 41315 H 3827.43 -2.51021 5.52334 0
M  V30 41316 H 3826.17 -2.36195 4.26689 0
M  V30 41317 H 3825.17 -0.404111 5.48313 0
M  V30 41318 H 3826.4 -0.573616 6.76673 0
M  V30 41319 H 3824.34 -2.67831 5.98834 0
M  V30 41320 H 3824.26 -1.64663 7.3785 0
M  V30 41321 H 3825.53 -2.83018 7.26306 0
M  V30 41322 N 3829.76 -1.5626 0.205067 0
M  V30 41323 C 3830.99 -2.02246 -0.436384 0
M  V30 41324 C 3831.4 -1.08511 -1.54502 0
M  V30 41325 O 3830.76 -0.0917312 -1.82269 0
M  V30 41326 C 3830.81 -3.47866 -0.983422 0
M  V30 41327 O 3830.53 -4.38025 0.0809936 0
M  V30 41328 C 3832.03 -4.09418 -1.69976 0
M  V30 41329 H 3829.25 -0.662159 -0.108566 0
M  V30 41330 H 3831.79 -2.02033 0.316694 0
M  V30 41331 H 3829.95 -3.48747 -1.68684 0
M  V30 41332 H 3830.36 -5.23476 -0.327659 0
M  V30 41333 H 3831.84 -5.13131 -2.03472 0
M  V30 41334 H 3832.31 -3.53454 -2.60704 0
M  V30 41335 H 3832.92 -4.12339 -1.04195 0
M  V30 41336 N 3831.24 0.0684638 -1.57451 0
M  V30 41337 C 3832.48 0.765823 -1.86596 0
M  V30 41338 C 3832.8 1.78573 -0.798189 0
M  V30 41339 O 3834 2.53289 -0.977586 0
M  V30 41340 C 3832.46 1.41296 -3.31004 0
M  V30 41341 C 3832.07 0.431449 -4.45918 0
M  V30 41342 C 3833.81 2.09249 -3.69344 0
M  V30 41343 C 3831.72 1.08469 -5.81368 0
M  V30 41344 H 3830.65 0.289766 -0.696097 0
M  V30 41345 H 3833.3 0.0191849 -1.8349 0
M  V30 41346 H 3831.68 2.20798 -3.28732 0
M  V30 41347 H 3832.86 -0.333993 -4.59588 0
M  V30 41348 H 3831.17 -0.143816 -4.16152 0
M  V30 41349 H 3833.77 2.58905 -4.67838 0
M  V30 41350 H 3834.11 2.89339 -2.99314 0
M  V30 41351 H 3834.64 1.36575 -3.7362 0
M  V30 41352 H 3831.38 0.324046 -6.54699 0
M  V30 41353 H 3830.9 1.82092 -5.71492 0
M  V30 41354 H 3832.58 1.60356 -6.26813 0
M  V30 41355 N 3832.71 1.5389 0.339928 0
M  V30 41356 C 3833.64 1.8512 1.42313 0
M  V30 41357 C 3834.62 0.706619 1.54729 0
M  V30 41358 O 3835.81 0.958864 1.68877 0
M  V30 41359 C 3832.94 2.06401 2.79313 0
M  V30 41360 C 3831.89 3.22224 2.81701 0
M  V30 41361 C 3831.22 3.28845 4.21622 0
M  V30 41362 C 3832.52 4.60251 2.46913 0
M  V30 41363 H 3834.21 2.75836 1.16426 0
M  V30 41364 H 3831.76 1.32722 0.558638 0
M  V30 41365 H 3833.71 2.26832 3.55141 0
M  V30 41366 H 3832.44 1.12419 3.06642 0
M  V30 41367 H 3831.1 3.01655 2.08327 0
M  V30 41368 H 3830.74 2.32452 4.46066 0
M  V30 41369 H 3830.44 4.06679 4.24129 0
M  V30 41370 H 3831.97 3.51491 4.99286 0
M  V30 41371 H 3833.38 4.80672 3.12453 0
M  V30 41372 H 3831.78 5.40515 2.60698 0
M  V30 41373 H 3832.85 4.63614 1.42092 0
M  V30 41374 N 3834.19 -0.601133 1.45685 0
M  V30 41375 C 3835.44 -1.35727 1.49742 0
M  V30 41376 C 3835.76 -1.94474 0.143106 0
M  V30 41377 O 3835.03 -1.77528 -0.828289 0
M  V30 41378 H 3833.61 -0.503882 0.551463 0
M  V30 41379 H 3836.27 -0.705411 1.81686 0
M  V30 41380 H 3835.37 -2.17341 2.23985 0
M  V30 41381 N 3835.67 -1.33083 -0.844196 0
M  V30 41382 C 3836.9 -1.27264 -1.6313 0
M  V30 41383 C 3837.31 0.157446 -1.88142 0
M  V30 41384 O 3836.67 1.0979 -1.45782 0
M  V30 41385 C 3836.72 -2.03972 -2.98459 0
M  V30 41386 O 3836.44 -3.41401 -2.74549 0
M  V30 41387 C 3837.94 -2.053 -3.92895 0
M  V30 41388 H 3835.16 -0.438656 -0.507761 0
M  V30 41389 H 3837.71 -1.75371 -1.05191 0
M  V30 41390 H 3835.86 -1.5956 -3.53015 0
M  V30 41391 H 3836.28 -3.80795 -3.60687 0
M  V30 41392 H 3837.75 -2.63436 -4.85083 0
M  V30 41393 H 3838.23 -1.0419 -4.26663 0
M  V30 41394 H 3838.83 -2.49707 -3.44277 0
M  V30 41395 N 3837.15 1.06178 -1.16464 0
M  V30 41396 C 3838.08 2.13121 -0.815766 0
M  V30 41397 C 3839.06 1.61198 0.213096 0
M  V30 41398 O 3840.24 1.88251 0.0969095 0
M  V30 41399 C 3837.37 3.38016 -0.215155 0
M  V30 41400 C 3836.42 4.08744 -1.21781 0
M  V30 41401 S 3837.25 4.58595 -2.76498 0
M  V30 41402 C 3838.4 5.8675 -2.17889 0
M  V30 41403 H 3838.64 2.42386 -1.72152 0
M  V30 41404 H 3836.17 1.1863 -0.988241 0
M  V30 41405 H 3838.13 4.1031 0.12491 0
M  V30 41406 H 3836.79 3.06906 0.668386 0
M  V30 41407 H 3835.98 4.98448 -0.746024 0
M  V30 41408 H 3835.58 3.42469 -1.50302 0
M  V30 41409 H 3837.88 6.59571 -1.54828 0
M  V30 41410 H 3838.82 6.3866 -3.05808 0
M  V30 41411 H 3839.23 5.40837 -1.61726 0
M  V30 41412 N 3838.63 0.96331 1.24732 0
M  V30 41413 C 3840.04 0.662277 1.74559 0
M  V30 41414 C 3840.39 -0.822138 1.78144 0
M  V30 41415 O 3839.51 -1.64332 1.40797 0
M  V30 41416 C 3840.11 1.19548 3.17007 0
M  V30 41417 C 3838.67 0.944435 3.64359 0
M  V30 41418 C 3837.81 1.33339 2.43138 0
M  V30 41419 H 3840.76 1.13913 1.10496 0
M  V30 41420 H 3840.79 0.559667 3.76362 0
M  V30 41421 H 3840.3 2.27587 3.14366 0
M  V30 41422 H 3838.4 -0.120616 3.72405 0
M  V30 41423 H 3838.51 1.58699 4.52052 0
M  V30 41424 H 3836.88 0.751772 2.43353 0
M  V30 41425 H 3837.66 2.42318 2.4318 0
M  V30 41426 N 3840.1 -1.39522 0.732902 0
M  V30 41427 C 3841.07 -2.28981 0.100081 0
M  V30 41428 C 3842.07 -1.46207 -0.669335 0
M  V30 41429 O 3843.26 -1.6691 -0.498664 0
M  V30 41430 C 3840.39 -3.29676 -0.867558 0
M  V30 41431 H 3841.58 -2.86445 0.888211 0
M  V30 41432 H 3839.13 -1.48134 0.498604 0
M  V30 41433 H 3839.87 -2.77264 -1.68212 0
M  V30 41434 H 3839.65 -3.90804 -0.318508 0
M  V30 41435 H 3841.14 -3.96621 -1.30697 0
M  V30 41436 N 3841.58 -0.480375 -1.501 0
M  V30 41437 C 3842.83 0.0713959 -2.02374 0
M  V30 41438 C 3843.16 1.38882 -1.36169 0
M  V30 41439 O 3842.41 1.89735 -0.479488 0
M  V30 41440 C 3842.71 0.293682 -3.56191 0
M  V30 41441 C 3842.38 -0.943189 -4.40925 0
M  V30 41442 C 3841.04 -1.28228 -4.638 0
M  V30 41443 C 3843.39 -1.76629 -4.90359 0
M  V30 41444 C 3840.72 -2.44437 -5.33355 0
M  V30 41445 C 3843.07 -2.91973 -5.6119 0
M  V30 41446 C 3841.73 -3.26287 -5.82317 0
M  V30 41447 H 3841 0.0261256 -0.740539 0
M  V30 41448 H 3843.65 -0.636344 -1.80618 0
M  V30 41449 H 3841.96 1.08376 -3.76513 0
M  V30 41450 H 3843.65 0.734727 -3.94212 0
M  V30 41451 H 3840.24 -0.669021 -4.23346 0
M  V30 41452 H 3844.43 -1.51748 -4.72532 0
M  V30 41453 H 3839.68 -2.71285 -5.47918 0
M  V30 41454 H 3843.86 -3.56092 -5.98474 0
M  V30 41455 H 3841.48 -4.1644 -6.35989 0
M  V30 41456 N 3843.06 1.56149 -0.213351 0
M  V30 41457 C 3843.97 2.23545 0.711663 0
M  V30 41458 C 3844.99 1.2404 1.22025 0
M  V30 41459 O 3846.16 1.5683 1.26358 0
M  V30 41460 C 3843.23 2.89581 1.9064 0
M  V30 41461 C 3842.29 4.04407 1.44059 0
M  V30 41462 C 3841.52 4.67285 2.57838 0
M  V30 41463 O 3841.74 4.29128 3.75773 0
M  V30 41464 O 3840.68 5.56426 2.29508 0
M  V30 41465 H 3844.5 3.03237 0.167582 0
M  V30 41466 H 3842.09 1.49391 0.0167447 0
M  V30 41467 H 3843.97 3.31292 2.60429 0
M  V30 41468 H 3842.65 2.12855 2.43874 0
M  V30 41469 H 3841.55 3.67282 0.710959 0
M  V30 41470 H 3842.89 4.82852 0.954724 0
M  V30 41471 N 3844.54 -0.0601128 1.57485 0
M  V30 41472 C 3845.78 -0.758159 1.88095 0
M  V30 41473 C 3846.12 -1.76631 0.807169 0
M  V30 41474 O 3845.39 -1.93653 -0.181313 0
M  V30 41475 C 3845.68 -1.45568 3.29366 0
M  V30 41476 C 3845.53 -0.463155 4.47409 0
M  V30 41477 C 3846.85 -2.39767 3.69053 0
M  V30 41478 H 3843.97 -0.274157 0.68411 0
M  V30 41479 H 3846.61 -0.0211882 1.89988 0
M  V30 41480 H 3844.76 -2.08387 3.27883 0
M  V30 41481 H 3846.43 0.160722 4.6102 0
M  V30 41482 H 3844.67 0.220484 4.33239 0
M  V30 41483 H 3845.34 -0.989068 5.43067 0
M  V30 41484 H 3847.82 -1.87017 3.71704 0
M  V30 41485 H 3846.7 -2.85569 4.68766 0
M  V30 41486 H 3846.96 -3.25089 2.99616 0
M  V30 41487 N 3846.02 -1.54068 -0.331762 0
M  V30 41488 C 3847.24 -1.7615 -1.09481 0
M  V30 41489 C 3847.67 -0.504804 -1.812 0
M  V30 41490 O 3847.02 0.54322 -1.72971 0
M  V30 41491 C 3847.07 -2.94924 -2.0749 0
M  V30 41492 O 3846.18 -2.65896 -3.15235 0
M  V30 41493 H 3845.52 -0.583953 -0.316061 0
M  V30 41494 H 3848.05 -2.01067 -0.378558 0
M  V30 41495 H 3848.06 -3.22043 -2.50505 0
M  V30 41496 H 3846.73 -3.86062 -1.54689 0
M  V30 41497 H 3845.31 -2.49702 -2.76953 0
M  V30 41498 N 3847.49 0.593399 -1.46002 0
M  V30 41499 C 3848.42 1.71365 -1.58608 0
M  V30 41500 C 3849.41 1.64394 -0.436895 0
M  V30 41501 O 3850.59 1.82575 -0.661814 0
M  V30 41502 C 3847.72 3.09994 -1.56593 0
M  V30 41503 C 3846.67 3.31788 -2.70372 0
M  V30 41504 C 3846 4.70835 -2.53414 0
M  V30 41505 C 3847.3 3.2066 -4.1228 0
M  V30 41506 H 3848.99 1.61071 -2.52381 0
M  V30 41507 H 3846.54 0.773477 -1.21463 0
M  V30 41508 H 3848.49 3.88175 -1.64007 0
M  V30 41509 H 3847.22 3.21161 -0.593568 0
M  V30 41510 H 3845.88 2.56002 -2.62409 0
M  V30 41511 H 3845.52 4.78753 -1.54286 0
M  V30 41512 H 3845.22 4.86371 -3.29723 0
M  V30 41513 H 3846.75 5.51198 -2.62704 0
M  V30 41514 H 3848.16 3.88698 -4.21411 0
M  V30 41515 H 3846.56 3.47721 -4.89091 0
M  V30 41516 H 3847.63 2.17891 -4.33188 0
M  V30 41517 N 3848.97 1.33529 0.837127 0
M  V30 41518 C 3849.9 1.19763 1.95421 0
M  V30 41519 C 3850.92 0.128175 1.62295 0
M  V30 41520 O 3852.11 0.378756 1.74435 0
M  V30 41521 C 3849.21 0.814832 3.28958 0
M  V30 41522 C 3848.38 1.9763 3.90207 0
M  V30 41523 C 3847.44 1.57419 5.02101 0
M  V30 41524 O 3846.46 2.28877 5.21156 0
M  V30 41525 N 3847.67 0.480183 5.78511 0
M  V30 41526 H 3850.43 2.15994 2.07766 0
M  V30 41527 H 3847.99 1.26297 1.01295 0
M  V30 41528 H 3849.98 0.527893 4.01242 0
M  V30 41529 H 3848.55 -0.0568481 3.12548 0
M  V30 41530 H 3847.77 2.42876 3.10491 0
M  V30 41531 H 3849.06 2.75341 4.27861 0
M  V30 41532 H 3848.46 -0.114188 5.65585 0
M  V30 41533 H 3847.02 0.252922 6.51309 0
M  V30 41534 N 3850.45 -1.05559 1.17026 0
M  V30 41535 C 3851.41 -2.11386 0.885934 0
M  V30 41536 C 3852.41 -1.60334 -0.122299 0
M  V30 41537 O 3853.6 -1.73856 0.109447 0
M  V30 41538 C 3850.74 -3.39335 0.32632 0
M  V30 41539 H 3851.93 -2.38041 1.82418 0
M  V30 41540 H 3849.48 -1.21744 0.980212 0
M  V30 41541 H 3850.22 -3.18333 -0.619252 0
M  V30 41542 H 3850 -3.77698 1.05292 0
M  V30 41543 H 3851.49 -4.17346 0.145587 0
M  V30 41544 N 3851.93 -0.969911 -1.2422 0
M  V30 41545 C 3852.86 -0.520785 -2.27618 0
M  V30 41546 C 3853.84 0.440702 -1.64292 0
M  V30 41547 O 3855.02 0.336347 -1.91265 0
M  V30 41548 C 3852.15 0.187707 -3.46792 0
M  V30 41549 C 3851.11 -0.690019 -4.22401 0
M  V30 41550 C 3850.43 0.150092 -5.34489 0
M  V30 41551 C 3851.73 -1.9757 -4.83491 0
M  V30 41552 H 3853.43 -1.38503 -2.65438 0
M  V30 41553 H 3850.97 -0.667421 -1.27599 0
M  V30 41554 H 3852.93 0.513143 -4.18264 0
M  V30 41555 H 3851.65 1.08632 -3.08004 0
M  V30 41556 H 3850.31 -0.998758 -3.52733 0
M  V30 41557 H 3849.96 1.04892 -4.91942 0
M  V30 41558 H 3849.66 -0.433994 -5.85995 0
M  V30 41559 H 3851.18 0.470148 -6.08787 0
M  V30 41560 H 3852.6 -1.71571 -5.47025 0
M  V30 41561 H 3850.99 -2.50669 -5.45238 0
M  V30 41562 H 3852.06 -2.66922 -4.04821 0
M  V30 41563 N 3853.41 1.39131 -0.740291 0
M  V30 41564 C 3854.34 2.2911 -0.0641273 0
M  V30 41565 C 3855.35 1.47084 0.697871 0
M  V30 41566 O 3856.54 1.70099 0.541159 0
M  V30 41567 C 3853.64 3.25794 0.933369 0
M  V30 41568 C 3852.81 4.36785 0.23179 0
M  V30 41569 C 3851.87 5.13744 1.13814 0
M  V30 41570 O 3850.9 5.65883 0.613641 0
M  V30 41571 N 3852.1 5.25451 2.46742 0
M  V30 41572 H 3854.87 2.8778 -0.836824 0
M  V30 41573 H 3852.43 1.50769 -0.589955 0
M  V30 41574 H 3854.42 3.74154 1.54243 0
M  V30 41575 H 3852.99 2.68117 1.60724 0
M  V30 41576 H 3852.21 3.90233 -0.557816 0
M  V30 41577 H 3853.5 5.08165 -0.254205 0
M  V30 41578 H 3852.89 4.84618 2.91825 0
M  V30 41579 H 3851.45 5.77232 3.02731 0
M  V30 41580 N 3854.88 0.488329 1.49844 0
M  V30 41581 C 3855.83 -0.296818 2.28883 0
M  V30 41582 C 3856.8 -0.971794 1.34705 0
M  V30 41583 O 3857.99 -0.980908 1.63655 0
M  V30 41584 C 3855.13 -1.36281 3.17051 0
M  V30 41585 C 3854.24 -0.700881 4.26277 0
M  V30 41586 C 3853.37 -1.74623 5.01678 0
M  V30 41587 C 3852.41 -1.06548 6.02755 0
M  V30 41588 N 3851.55 -2.05446 6.71369 0
M  V30 41589 H 3856.39 0.383469 2.95522 0
M  V30 41590 H 3853.93 0.200954 1.45721 0
M  V30 41591 H 3855.89 -1.99269 3.66534 0
M  V30 41592 H 3854.52 -2.01203 2.52423 0
M  V30 41593 H 3853.57 0.0419905 3.80377 0
M  V30 41594 H 3854.88 -0.164381 4.98529 0
M  V30 41595 H 3854.03 -2.45149 5.54966 0
M  V30 41596 H 3852.77 -2.31656 4.2917 0
M  V30 41597 H 3851.78 -0.345932 5.48711 0
M  V30 41598 H 3853 -0.501813 6.77243 0
M  V30 41599 H 3850.95 -2.61464 6.01641 0
M  V30 41600 H 3850.87 -1.56828 7.39555 0
M  V30 41601 H 3852.13 -2.75299 7.29267 0
M  V30 41602 N 3856.36 -1.56034 0.221629 0
M  V30 41603 C 3857.33 -2.19037 -0.674934 0
M  V30 41604 C 3858.33 -1.15227 -1.12158 0
M  V30 41605 O 3859.52 -1.4046 -1.03037 0
M  V30 41606 C 3856.65 -2.81375 -1.9246 0
M  V30 41607 H 3857.84 -2.99637 -0.125636 0
M  V30 41608 H 3855.39 -1.56275 -0.0279839 0
M  V30 41609 H 3856.13 -2.04646 -2.51576 0
M  V30 41610 H 3855.91 -3.57395 -1.6128 0
M  V30 41611 H 3857.4 -3.29669 -2.56336 0
M  V30 41612 N 3857.84 0.0517601 -1.57515 0
M  V30 41613 C 3859.07 0.759451 -1.92458 0
M  V30 41614 C 3859.48 1.70091 -0.819426 0
M  V30 41615 O 3858.84 1.81335 0.205881 0
M  V30 41616 C 3858.89 1.536 -3.27245 0
M  V30 41617 O 3858.61 0.632365 -4.33512 0
M  V30 41618 C 3860.11 2.3429 -3.76328 0
M  V30 41619 H 3857.33 0.214796 -0.635692 0
M  V30 41620 H 3859.88 0.0160503 -2.04494 0
M  V30 41621 H 3858.03 2.23149 -3.16675 0
M  V30 41622 H 3858.45 1.17453 -5.1118 0
M  V30 41623 H 3859.92 2.84205 -4.73214 0
M  V30 41624 H 3860.4 3.1471 -3.06356 0
M  V30 41625 H 3861 1.69859 -3.89907 0
M  V30 41626 N 3859.32 1.54242 0.323587 0
M  V30 41627 C 3860.57 1.72446 1.06153 0
M  V30 41628 C 3860.89 0.498149 1.88013 0
M  V30 41629 O 3860.15 -0.520099 1.88662 0
M  V30 41630 C 3860.45 2.95218 2.01447 0
M  V30 41631 C 3860.11 4.29982 1.35743 0
M  V30 41632 C 3858.78 4.6662 1.17555 0
M  V30 41633 C 3861.13 5.13617 0.885848 0
M  V30 41634 C 3858.46 5.84492 0.508571 0
M  V30 41635 C 3860.81 6.32172 0.232696 0
M  V30 41636 C 3859.47 6.67489 0.0386634 0
M  V30 41637 H 3858.74 0.631025 0.388443 0
M  V30 41638 H 3861.39 1.88481 0.338681 0
M  V30 41639 H 3859.69 2.7387 2.80183 0
M  V30 41640 H 3861.39 3.06497 2.58574 0
M  V30 41641 H 3857.98 4.01157 1.50901 0
M  V30 41642 H 3862.17 4.85828 1.01415 0
M  V30 41643 H 3857.42 6.10414 0.347041 0
M  V30 41644 H 3861.6 6.96258 -0.140717 0
M  V30 41645 H 3859.22 7.58682 -0.480185 0
M  V30 41646 N 3860.8 -0.585648 1.46314 0
M  V30 41647 C 3861.73 -1.70938 1.52686 0
M  V30 41648 C 3862.74 -1.57409 0.415475 0
M  V30 41649 O 3863.93 -1.64888 0.683686 0
M  V30 41650 C 3861.03 -3.0916 1.38827 0
M  V30 41651 C 3860.2 -3.4872 2.64033 0
M  V30 41652 C 3859.26 -4.65991 2.44415 0
M  V30 41653 O 3858.29 -4.72 3.18127 0
M  V30 41654 N 3859.49 -5.60681 1.50391 0
M  V30 41655 H 3862.26 -1.65928 2.49576 0
M  V30 41656 H 3859.82 -0.771548 1.42333 0
M  V30 41657 H 3861.81 -3.85402 1.2348 0
M  V30 41658 H 3860.38 -3.08554 0.501301 0
M  V30 41659 H 3859.6 -2.62214 2.94342 0
M  V30 41660 H 3860.89 -3.71915 3.47212 0
M  V30 41661 H 3860.29 -5.58559 0.896015 0
M  V30 41662 H 3858.84 -6.36365 1.41008 0
M  V30 41663 N 3862.28 -1.33971 -0.830033 0
M  V30 41664 C 3863.5 -1.28987 -1.61771 0
M  V30 41665 C 3863.92 0.137482 -1.88299 0
M  V30 41666 O 3863.28 1.08238 -1.46938 0
M  V30 41667 C 3863.33 -2.07126 -2.96279 0
M  V30 41668 O 3863.05 -3.44294 -2.70912 0
M  V30 41669 C 3864.55 -2.09456 -3.90696 0
M  V30 41670 H 3861.77 -0.444017 -0.50308 0
M  V30 41671 H 3864.31 -1.76477 -1.03325 0
M  V30 41672 H 3862.47 -1.63295 -3.51302 0
M  V30 41673 H 3862.88 -3.84599 -3.56628 0
M  V30 41674 H 3864.36 -2.68566 -4.82262 0
M  V30 41675 H 3864.83 -1.08709 -4.25534 0
M  V30 41676 H 3865.44 -2.53344 -3.41609 0
M  V30 41677 N 3863.75 1.04937 -1.17584 0
M  V30 41678 C 3865.16 1.59442 -0.971354 0
M  V30 41679 C 3865.52 1.90206 0.481275 0
M  V30 41680 O 3864.64 1.68562 1.35705 0
M  V30 41681 C 3865.24 2.89687 -1.7569 0
M  V30 41682 C 3863.79 3.40841 -1.59701 0
M  V30 41683 C 3862.94 2.1454 -1.75692 0
M  V30 41684 H 3865.89 0.877165 -1.32255 0
M  V30 41685 H 3865.91 3.597 -1.2408 0
M  V30 41686 H 3865.43 2.67264 -2.8141 0
M  V30 41687 H 3863.53 3.68294 -0.564811 0
M  V30 41688 H 3863.64 4.15254 -2.38958 0
M  V30 41689 H 3862 2.25425 -1.18557 0
M  V30 41690 H 3862.79 1.94584 -2.82828 0
M  V30 41691 N 3865.23 0.976485 1.23703 0
M  V30 41692 C 3866.51 0.559752 1.8742 0
M  V30 41693 C 3866.89 -0.963133 1.87848 0
M  V30 41694 O 3866.24 -1.8382 1.3573 0
M  V30 41695 C 3866.45 1.16133 3.29111 0
M  V30 41696 C 3867.79 1.25165 4.05732 0
M  V30 41697 O 3868.82 1.1145 3.38316 0
M  V30 41698 O 3867.68 1.46943 5.26375 0
M  V30 41699 H 3864.77 0.187917 0.805367 0
M  V30 41700 H 3867.32 1.07132 1.31609 0
M  V30 41701 H 3866.09 2.20372 3.23345 0
M  V30 41702 H 3865.71 0.634349 3.92507 0
M  V30 41703 N 3866.71 -1.38737 0.747659 0
M  V30 41704 C 3867.96 -2.00248 0.301182 0
M  V30 41705 C 3868.28 -1.59342 -1.11537 0
M  V30 41706 O 3867.54 -0.819518 -1.77714 0
M  V30 41707 C 3867.84 -3.55532 0.364932 0
M  V30 41708 C 3867.5 -4.1613 1.73629 0
M  V30 41709 C 3866.17 -4.32394 2.1116 0
M  V30 41710 C 3868.52 -4.4962 2.63612 0
M  V30 41711 C 3865.85 -4.79443 3.38159 0
M  V30 41712 C 3868.2 -4.98082 3.89996 0
M  V30 41713 C 3866.86 -5.12554 4.27604 0
M  V30 41714 H 3866.13 -0.732758 0.11021 0
M  V30 41715 H 3868.78 -1.65874 0.956981 0
M  V30 41716 H 3867.08 -3.90007 -0.374436 0
M  V30 41717 H 3868.78 -4.01 0.00114552 0
M  V30 41718 H 3865.37 -4.03881 1.43452 0
M  V30 41719 H 3869.56 -4.36661 2.35883 0
M  V30 41720 H 3864.81 -4.88832 3.67224 0
M  V30 41721 H 3868.99 -5.22967 4.59868 0
M  V30 41722 H 3866.61 -5.48771 5.26075 0
M  V30 41723 N 3868.19 -0.496268 -1.49583 0
M  V30 41724 C 3869.44 0.0517465 -2.01634 0
M  V30 41725 C 3869.75 1.38484 -1.38136 0
M  V30 41726 O 3870.96 2.01927 -1.81487 0
M  V30 41727 C 3869.41 0.142692 -3.59617 0
M  V30 41728 C 3869.02 -1.18348 -4.32085 0
M  V30 41729 C 3870.76 0.641323 -4.19628 0
M  V30 41730 C 3868.67 -1.05495 -5.81915 0
M  V30 41731 H 3867.6 0.0231125 -0.753646 0
M  V30 41732 H 3870.25 -0.634975 -1.72164 0
M  V30 41733 H 3868.63 0.893758 -3.85782 0
M  V30 41734 H 3869.81 -1.94747 -4.17625 0
M  V30 41735 H 3868.12 -1.61518 -3.83798 0
M  V30 41736 H 3870.72 0.754915 -5.29344 0
M  V30 41737 H 3871.06 1.63899 -3.82678 0
M  V30 41738 H 3871.6 -0.0530729 -3.97765 0
M  V30 41739 H 3868.33 -2.02675 -6.23381 0
M  V30 41740 H 3867.85 -0.331772 -5.98882 0
M  V30 41741 H 3869.53 -0.731754 -6.42849 0
M  V30 41742 N 3869.67 1.55914 -0.2299 0
M  V30 41743 C 3870.91 1.98814 0.400122 0
M  V30 41744 C 3871.24 1.11759 1.58819 0
M  V30 41745 O 3870.52 0.177128 1.93692 0
M  V30 41746 C 3870.8 3.50485 0.826562 0
M  V30 41747 C 3870.66 4.48311 -0.365725 0
M  V30 41748 C 3871.97 4.06784 1.67973 0
M  V30 41749 H 3869.09 0.722802 0.143964 0
M  V30 41750 H 3871.74 1.87151 -0.327808 0
M  V30 41751 H 3869.89 3.60555 1.4468 0
M  V30 41752 H 3871.56 4.50242 -1.00398 0
M  V30 41753 H 3869.8 4.21836 -1.01175 0
M  V30 41754 H 3870.47 5.51995 -0.0242786 0
M  V30 41755 H 3872.95 3.9971 1.15632 0
M  V30 41756 H 3871.82 5.13209 1.94699 0
M  V30 41757 H 3872.08 3.54183 2.64588 0
M  V30 41758 N 3871.14 -0.043406 1.5754 0
M  V30 41759 C 3872.55 -0.591805 1.77072 0
M  V30 41760 C 3872.91 -1.76389 0.859141 0
M  V30 41761 O 3872.03 -2.16342 0.0503106 0
M  V30 41762 C 3872.63 -1.08036 3.21113 0
M  V30 41763 C 3871.18 -1.57439 3.41892 0
M  V30 41764 C 3870.33 -0.506118 2.72642 0
M  V30 41765 H 3873.28 0.18282 1.57643 0
M  V30 41766 H 3873.3 -1.94827 3.26837 0
M  V30 41767 H 3872.82 -0.227085 3.87435 0
M  V30 41768 H 3870.92 -2.44998 2.80725 0
M  V30 41769 H 3871.03 -1.63177 4.50455 0
M  V30 41770 H 3869.39 -0.957836 2.36003 0
M  V30 41771 H 3870.18 0.337449 3.41637 0
M  V30 41772 N 3872.62 -1.54412 -0.315402 0
M  V30 41773 C 3873.55 -1.87361 -1.39349 0
M  V30 41774 C 3874.53 -0.731145 -1.53585 0
M  V30 41775 O 3875.72 -0.985609 -1.6733 0
M  V30 41776 C 3872.85 -2.10819 -2.75994 0
M  V30 41777 C 3871.8 -3.26665 -2.76539 0
M  V30 41778 C 3871.13 -3.35511 -4.16337 0
M  V30 41779 C 3872.43 -4.64121 -2.39559 0
M  V30 41780 H 3874.12 -2.77653 -1.12023 0
M  V30 41781 H 3871.67 -1.33594 -0.537452 0
M  V30 41782 H 3873.62 -2.32453 -3.51487 0
M  V30 41783 H 3872.34 -1.17283 -3.04815 0
M  V30 41784 H 3871 -3.04931 -2.03501 0
M  V30 41785 H 3870.65 -2.39519 -4.42312 0
M  V30 41786 H 3870.35 -4.13375 -4.17606 0
M  V30 41787 H 3871.88 -3.5939 -4.93631 0
M  V30 41788 H 3873.29 -4.85582 -3.04767 0
M  V30 41789 H 3871.69 -5.44594 -2.52066 0
M  V30 41790 H 3872.76 -4.65816 -1.34699 0
M  V30 41791 N 3874.1 0.57788 -1.46623 0
M  V30 41792 C 3875.33 1.36183 -1.55762 0
M  V30 41793 C 3875.74 1.87733 -0.200436 0
M  V30 41794 O 3875.1 1.63882 0.803062 0
M  V30 41795 C 3875.15 2.54603 -2.56631 0
M  V30 41796 O 3874.87 2.05188 -3.87078 0
M  V30 41797 C 3876.37 3.47092 -2.75757 0
M  V30 41798 H 3873.59 0.415857 -0.526597 0
M  V30 41799 H 3876.14 0.702057 -1.92071 0
M  V30 41800 H 3874.29 3.1656 -2.23312 0
M  V30 41801 H 3874.71 2.82345 -4.4202 0
M  V30 41802 H 3876.18 4.26653 -3.50245 0
M  V30 41803 H 3876.66 3.99334 -1.82836 0
M  V30 41804 H 3877.26 2.90967 -3.1019 0
M  V30 41805 N 3875.58 1.34409 0.822917 0
M  V30 41806 C 3876.86 1.17347 1.5649 0
M  V30 41807 C 3877.24 -0.253928 2.09567 0
M  V30 41808 O 3876.58 -1.25525 1.90934 0
M  V30 41809 C 3876.79 2.22802 2.68626 0
M  V30 41810 C 3878.14 2.57779 3.37394 0
M  V30 41811 O 3879.17 2.21591 2.78883 0
M  V30 41812 O 3878.02 3.19942 4.43057 0
M  V30 41813 H 3875.12 0.454888 0.690656 0
M  V30 41814 H 3877.66 1.46042 0.86429 0
M  V30 41815 H 3876.44 3.18612 2.2716 0
M  V30 41816 H 3876.06 1.95285 3.46337 0
M  V30 41817 N 3877.06 -1.04312 1.18139 0
M  V30 41818 C 3877.99 -2.14196 0.929631 0
M  V30 41819 C 3878.97 -1.69589 -0.131736 0
M  V30 41820 O 3880.15 -1.94189 0.0203446 0
M  V30 41821 C 3877.28 -3.44348 0.451859 0
M  V30 41822 C 3876.24 -4.02566 1.45343 0
M  V30 41823 C 3875.56 -5.28167 0.833269 0
M  V30 41824 C 3876.86 -4.39026 2.82938 0
M  V30 41825 H 3878.56 -2.35515 1.8486 0
M  V30 41826 H 3876.1 -1.13185 0.890237 0
M  V30 41827 H 3878.06 -4.20578 0.263104 0
M  V30 41828 H 3876.78 -3.22709 -0.502668 0
M  V30 41829 H 3875.44 -3.28415 1.62908 0
M  V30 41830 H 3875.09 -5.02836 -0.12837 0
M  V30 41831 H 3874.79 -5.6808 1.50195 0
M  V30 41832 H 3876.31 -6.07077 0.654987 0
M  V30 41833 H 3877.72 -5.06252 2.69039 0
M  V30 41834 H 3876.12 -4.89981 3.46466 0
M  V30 41835 H 3877.19 -3.48966 3.36676 0
M  V30 41836 N 3878.53 -0.983032 -1.23184 0
M  V30 41837 C 3879.95 -0.692095 -1.43813 0
M  V30 41838 C 3880.15 0.74079 -1.87389 0
M  V30 41839 O 3879.21 1.51291 -2.02156 0
M  V30 41840 C 3880.52 -1.68926 -2.48766 0
M  V30 41841 C 3882.07 -1.7036 -2.62576 0
M  V30 41842 C 3882.54 -2.68914 -3.70741 0
M  V30 41843 N 3884.03 -2.67449 -3.78187 0
M  V30 41844 C 3884.77 -3.40374 -4.61447 0
M  V30 41845 N 3884.26 -4.22867 -5.48776 0
M  V30 41846 N 3886.06 -3.29126 -4.55667 0
M  V30 41847 H 3878.21 -1.90859 -0.932013 0
M  V30 41848 H 3880.47 -0.822568 -0.471259 0
M  V30 41849 H 3880.18 -2.71412 -2.2367 0
M  V30 41850 H 3880.05 -1.47421 -3.47199 0
M  V30 41851 H 3882.44 -0.685778 -2.87021 0
M  V30 41852 H 3882.52 -1.95932 -1.64451 0
M  V30 41853 H 3882.16 -3.7084 -3.47045 0
M  V30 41854 H 3882.09 -2.40616 -4.68414 0
M  V30 41855 H 3884.58 -2.07582 -3.15781 0
M  V30 41856 H 3884.9 -4.75361 -6.09304 0
M  V30 41857 H 3883.24 -4.26957 -5.48391 0
M  V30 41858 H 3886.43 -2.64129 -3.86463 0
M  V30 41859 H 3886.61 -3.8622 -5.20325 0
M  V30 41860 N 3880.01 1.38338 -0.755006 0
M  V30 41861 C 3881.26 1.99326 -0.308572 0
M  V30 41862 C 3881.57 1.60613 1.11637 0
M  V30 41863 O 3882.78 2.14581 1.66335 0
M  V30 41864 C 3881.24 3.56399 -0.500751 0
M  V30 41865 C 3880.84 4.04063 -1.93487 0
M  V30 41866 C 3882.59 4.24338 -0.1171 0
M  V30 41867 C 3880.5 5.53783 -2.07554 0
M  V30 41868 H 3879.43 0.745692 -0.111624 0
M  V30 41869 H 3882.08 1.58084 -0.931749 0
M  V30 41870 H 3880.46 3.95536 0.191633 0
M  V30 41871 H 3881.63 3.76213 -2.66084 0
M  V30 41872 H 3879.95 3.48852 -2.27357 0
M  V30 41873 H 3882.54 5.34322 -0.200941 0
M  V30 41874 H 3882.89 4.05769 0.93046 0
M  V30 41875 H 3883.42 3.90445 -0.761392 0
M  V30 41876 H 3880.16 5.77258 -3.10569 0
M  V30 41877 H 3879.68 5.83371 -1.39419 0
M  V30 41878 H 3881.36 6.19503 -1.86616 0
M  V30 41879 N 3881.49 0.504194 1.49317 0
M  V30 41880 C 3882.9 0.0572057 1.86612 0
M  V30 41881 C 3883.25 -1.35784 1.41623 0
M  V30 41882 O 3882.38 -2.01247 0.795516 0
M  V30 41883 C 3882.97 0.0970369 3.38661 0
M  V30 41884 C 3881.53 -0.294626 3.75245 0
M  V30 41885 C 3880.68 0.468173 2.73319 0
M  V30 41886 H 3883.63 0.716813 1.41589 0
M  V30 41887 H 3883.65 -0.697503 3.74052 0
M  V30 41888 H 3883.16 1.12704 3.71375 0
M  V30 41889 H 3881.26 -1.32775 3.4814 0
M  V30 41890 H 3881.38 0.0270463 4.79092 0
M  V30 41891 H 3879.74 -0.0823931 2.54567 0
M  V30 41892 H 3880.52 1.49832 3.08877 0
M  V30 41893 N 3882.97 -1.5579 0.238166 0
M  V30 41894 C 3884.19 -2.03577 -0.396373 0
M  V30 41895 C 3884.62 -1.11652 -1.51378 0
M  V30 41896 O 3883.98 -0.107806 -1.80979 0
M  V30 41897 C 3884.02 -3.49452 -0.889687 0
M  V30 41898 O 3883.13 -3.60663 -1.99991 0
M  V30 41899 H 3882.47 -0.658198 -0.0875901 0
M  V30 41900 H 3885 -2.01378 0.361667 0
M  V30 41901 H 3885.01 -3.90102 -1.19519 0
M  V30 41902 H 3883.68 -4.15838 -0.0719405 0
M  V30 41903 H 3882.26 -3.31907 -1.69977 0
M  V30 41904 N 3884.45 0.0350506 -1.57561 0
M  V30 41905 C 3885.69 0.728139 -1.89278 0
M  V30 41906 C 3886.03 1.75324 -0.835168 0
M  V30 41907 O 3885.3 1.93917 0.150481 0
M  V30 41908 C 3885.58 1.4031 -3.3164 0
M  V30 41909 C 3885.44 0.391917 -4.48089 0
M  V30 41910 C 3886.76 2.33865 -3.7282 0
M  V30 41911 H 3883.87 0.263238 -0.688386 0
M  V30 41912 H 3886.52 -0.00904 -1.89998 0
M  V30 41913 H 3884.67 2.03144 -3.31157 0
M  V30 41914 H 3886.34 -0.234046 -4.60706 0
M  V30 41915 H 3884.58 -0.289381 -4.32834 0
M  V30 41916 H 3885.25 0.902546 -5.44571 0
M  V30 41917 H 3887.73 1.8108 -3.74632 0
M  V30 41918 H 3886.6 2.78075 -4.7325 0
M  V30 41919 H 3886.87 3.20281 -3.0475 0
M  V30 41920 N 3885.92 1.54577 0.307209 0
M  V30 41921 C 3886.86 1.81461 1.40016 0
M  V30 41922 C 3887.87 0.697272 1.47112 0
M  V30 41923 O 3889.06 0.974652 1.49542 0
M  V30 41924 C 3886.16 1.93202 2.78435 0
M  V30 41925 C 3885.33 3.23541 2.94347 0
M  V30 41926 C 3884.39 3.25776 4.13227 0
M  V30 41927 O 3883.42 3.99339 4.05607 0
M  V30 41928 N 3884.62 2.50724 5.23562 0
M  V30 41929 H 3887.38 2.75786 1.17312 0
M  V30 41930 H 3884.94 1.54074 0.497259 0
M  V30 41931 H 3886.94 1.92107 3.56198 0
M  V30 41932 H 3885.51 1.059 2.94116 0
M  V30 41933 H 3884.73 3.37461 2.03749 0
M  V30 41934 H 3886.01 4.09564 3.01885 0
M  V30 41935 H 3885.41 1.90578 5.32632 0
M  V30 41936 H 3883.97 2.55389 5.99683 0
M  V30 41937 N 3887.4 -0.570096 1.46927 0
M  V30 41938 C 3888.65 -1.3241 1.52153 0
M  V30 41939 C 3888.96 -1.94743 0.182945 0
M  V30 41940 O 3890.17 -2.71264 0.113093 0
M  V30 41941 C 3888.63 -2.40041 2.68157 0
M  V30 41942 C 3888.23 -1.83956 4.0849 0
M  V30 41943 C 3889.98 -3.16704 2.82664 0
M  V30 41944 C 3887.89 -2.89291 5.15815 0
M  V30 41945 H 3886.82 -0.497816 0.5663 0
M  V30 41946 H 3889.47 -0.60698 1.7317 0
M  V30 41947 H 3887.85 -3.14609 2.40494 0
M  V30 41948 H 3889.02 -1.15846 4.46 0
M  V30 41949 H 3887.34 -1.1992 3.98758 0
M  V30 41950 H 3889.93 -3.95339 3.60015 0
M  V30 41951 H 3890.28 -3.70086 1.90637 0
M  V30 41952 H 3890.81 -2.49245 3.10035 0
M  V30 41953 H 3887.55 -2.4078 6.09676 0
M  V30 41954 H 3887.07 -3.5585 4.82836 0
M  V30 41955 H 3888.75 -3.53017 5.42207 0
M  V30 41956 N 3888.88 -1.34844 -0.815777 0
M  V30 41957 C 3889.83 -1.27027 -1.94851 0
M  V30 41958 C 3890.82 -0.166966 -1.68575 0
M  V30 41959 O 3892.03 -0.332383 -1.76905 0
M  V30 41960 H 3888.4 -0.394805 -0.640026 0
M  V30 41961 H 3890.38 -2.22743 -1.98565 0
M  V30 41962 C 3889.12 -1.04983 -3.31472 0
M  V30 41963 H 3888.45 -1.89116 -3.52243 0
M  V30 41964 H 3889.89 -1.03553 -4.1116 0
M  V30 41965 C 3888.35 0.246649 -3.35996 0
M  V30 41966 O 3888.88 1.24559 -3.819 0
M  V30 41967 N 3887.08 0.282241 -2.89226 0
M  V30 41968 H 3886.63 -0.531255 -2.52062 0
M  V30 41969 H 3886.59 1.14944 -2.92635 0
M  V30 41970 N 3890.36 1.03684 -1.1869 0
M  V30 41971 C 3891.61 1.7695 -0.984632 0
M  V30 41972 C 3891.93 1.88346 0.485384 0
M  V30 41973 O 3891.19 1.39095 1.37662 0
M  V30 41974 C 3891.49 3.20125 -1.58917 0
M  V30 41975 C 3891.15 3.28755 -3.08596 0
M  V30 41976 C 3889.82 3.30817 -3.49448 0
M  V30 41977 C 3892.17 3.28544 -4.04609 0
M  V30 41978 C 3889.5 3.30315 -4.8488 0
M  V30 41979 C 3891.85 3.29582 -5.39962 0
M  V30 41980 C 3890.51 3.29938 -5.80256 0
M  V30 41981 H 3889.78 0.647505 -0.360302 0
M  V30 41982 H 3892.43 1.21752 -1.47813 0
M  V30 41983 H 3890.73 3.7835 -1.01776 0
M  V30 41984 H 3892.43 3.75467 -1.40804 0
M  V30 41985 H 3889.02 3.27872 -2.76039 0
M  V30 41986 H 3893.21 3.26138 -3.74096 0
M  V30 41987 H 3888.46 3.2891 -5.15392 0
M  V30 41988 H 3892.64 3.28368 -6.14123 0
M  V30 41989 H 3890.26 3.29303 -6.85174 0
M  V30 41990 N 3891.84 0.989551 1.22661 0
M  V30 41991 C 3892.78 0.537033 2.24465 0
M  V30 41992 C 3893.75 -0.428879 1.60468 0
M  V30 41993 O 3894.94 -0.334385 1.87847 0
M  V30 41994 C 3892.08 -0.145465 3.44793 0
M  V30 41995 C 3891.19 0.86179 4.23317 0
M  V30 41996 C 3890.33 0.153155 5.30979 0
M  V30 41997 C 3889.37 1.14901 6.01219 0
M  V30 41998 N 3888.5 0.468905 7.00532 0
M  V30 41999 H 3893.34 1.40992 2.62536 0
M  V30 42000 H 3890.88 0.706314 1.29033 0
M  V30 42001 H 3892.84 -0.558055 4.13451 0
M  V30 42002 H 3891.47 -0.982159 3.07495 0
M  V30 42003 H 3890.52 1.39272 3.53988 0
M  V30 42004 H 3891.83 1.62027 4.71751 0
M  V30 42005 H 3890.99 -0.316336 6.05875 0
M  V30 42006 H 3889.73 -0.637855 4.83511 0
M  V30 42007 H 3888.73 1.62916 5.25108 0
M  V30 42008 H 3889.96 1.94083 6.50775 0
M  V30 42009 H 3887.9 -0.302729 6.55301 0
M  V30 42010 H 3887.82 1.16589 7.46956 0
M  V30 42011 H 3889.09 0.0221056 7.79497 0
M  V30 42012 N 3893.32 -1.37936 0.762332 0
M  V30 42013 C 3894.59 -1.94027 0.247536 0
M  V30 42014 C 3894.97 -1.69686 -1.25578 0
M  V30 42015 O 3894.32 -1.04032 -2.03444 0
M  V30 42016 C 3894.53 -3.43615 0.610703 0
M  V30 42017 C 3895.88 -4.20686 0.575224 0
M  V30 42018 O 3896.9 -3.51936 0.549523 0
M  V30 42019 O 3895.76 -5.43263 0.593921 0
M  V30 42020 H 3892.86 -0.825205 0.0544534 0
M  V30 42021 H 3895.4 -1.47278 0.843047 0
M  V30 42022 H 3894.17 -3.54876 1.6486 0
M  V30 42023 H 3893.8 -3.97598 -0.0123566 0
M  V30 42024 N 3894.79 -0.512106 -1.49048 0
M  V30 42025 C 3895.72 0.249488 -2.32163 0
M  V30 42026 C 3896.7 0.952089 -1.40958 0
M  V30 42027 O 3897.89 0.941341 -1.6986 0
M  V30 42028 C 3895.02 1.3077 -3.2174 0
M  V30 42029 C 3893.97 0.724318 -4.21827 0
M  V30 42030 C 3893.3 1.88387 -5.00414 0
M  V30 42031 C 3894.6 -0.292067 -5.21483 0
M  V30 42032 H 3896.29 -0.444305 -2.96085 0
M  V30 42033 H 3893.84 -0.215118 -1.42384 0
M  V30 42034 H 3895.79 1.8483 -3.78703 0
M  V30 42035 H 3894.52 2.03083 -2.55783 0
M  V30 42036 H 3893.18 0.205377 -3.66024 0
M  V30 42037 H 3892.82 2.59495 -4.30896 0
M  V30 42038 H 3892.52 1.49954 -5.68144 0
M  V30 42039 H 3894.05 2.4286 -5.60225 0
M  V30 42040 H 3895.46 0.160798 -5.73074 0
M  V30 42041 H 3893.86 -0.592822 -5.97165 0
M  V30 42042 H 3894.93 -1.20412 -4.69712 0
M  V30 42043 N 3896.27 1.55662 -0.246424 0
M  V30 42044 C 3897.22 2.2136 0.653329 0
M  V30 42045 C 3898.19 1.17732 1.17168 0
M  V30 42046 O 3899.37 1.46178 1.22624 0
M  V30 42047 C 3896.51 2.91653 1.84479 0
M  V30 42048 C 3895.63 4.09934 1.36301 0
M  V30 42049 C 3894.76 4.67944 2.51399 0
M  V30 42050 C 3893.8 5.78476 2.0008 0
M  V30 42051 N 3892.94 6.30671 3.08543 0
M  V30 42052 H 3897.78 2.97875 0.0863934 0
M  V30 42053 H 3895.31 1.47068 0.0308816 0
M  V30 42054 H 3897.27 3.30607 2.5447 0
M  V30 42055 H 3895.9 2.17613 2.38421 0
M  V30 42056 H 3894.95 3.76298 0.557158 0
M  V30 42057 H 3896.27 4.8973 0.946902 0
M  V30 42058 H 3895.42 5.09469 3.29433 0
M  V30 42059 H 3894.16 3.87364 2.96311 0
M  V30 42060 H 3893.16 5.36429 1.20517 0
M  V30 42061 H 3894.39 6.60907 1.56138 0
M  V30 42062 H 3892.34 5.52996 3.52891 0
M  V30 42063 H 3892.25 7.05658 2.71262 0
M  V30 42064 H 3893.52 6.76854 3.86638 0
M  V30 42065 N 3897.75 -0.0266943 1.57577 0
M  V30 42066 C 3898.7 -1.04498 2.07805 0
M  V30 42067 C 3899.69 -1.37292 0.992332 0
M  V30 42068 O 3900.9 -1.36169 1.1772 0
M  V30 42069 H 3897.27 -0.354533 0.663182 0
M  V30 42070 H 3899.24 -0.595575 2.92396 0
M  V30 42071 C 3897.99 -2.33663 2.57482 0
M  V30 42072 H 3897.32 -2.0929 3.40643 0
M  V30 42073 H 3898.76 -3.03253 2.96333 0
M  V30 42074 C 3897.21 -3.02793 1.47709 0
M  V30 42075 O 3897.74 -3.92719 0.84468 0
M  V30 42076 N 3895.95 -2.64163 1.21105 0
M  V30 42077 H 3895.5 -1.9112 1.72716 0
M  V30 42078 H 3895.46 -3.10734 0.478715 0
M  V30 42079 N 3899.23 -1.54738 -0.299007 0
M  V30 42080 C 3900.48 -1.73322 -1.03161 0
M  V30 42081 C 3900.79 -0.527217 -1.88361 0
M  V30 42082 O 3902 -0.594914 -2.64902 0
M  V30 42083 C 3900.45 -3.06657 -1.88386 0
M  V30 42084 C 3900.06 -4.34743 -1.08179 0
M  V30 42085 C 3901.8 -3.346 -2.61234 0
M  V30 42086 C 3899.71 -5.59128 -1.92692 0
M  V30 42087 H 3898.64 -0.645981 -0.388875 0
M  V30 42088 H 3901.29 -1.81218 -0.288512 0
M  V30 42089 H 3899.67 -2.92732 -2.66691 0
M  V30 42090 H 3900.85 -4.59509 -0.344736 0
M  V30 42091 H 3899.16 -4.1375 -0.469045 0
M  V30 42092 H 3901.76 -4.24731 -3.24819 0
M  V30 42093 H 3902.1 -2.53565 -3.30168 0
M  V30 42094 H 3902.64 -3.49505 -1.89976 0
M  V30 42095 H 3899.37 -6.42837 -1.28224 0
M  V30 42096 H 3898.89 -5.38544 -2.64065 0
M  V30 42097 H 3900.57 -5.96459 -2.50691 0
M  V30 42098 N 3900.71 0.562296 -1.47228 0
M  V30 42099 C 3901.65 1.66979 -1.59332 0
M  V30 42100 C 3902.62 1.6026 -0.436586 0
M  V30 42101 O 3903.81 1.79169 -0.655988 0
M  V30 42102 C 3900.95 3.05306 -1.60879 0
M  V30 42103 C 3900.06 3.22499 -2.87434 0
M  V30 42104 C 3899.2 4.51195 -2.8035 0
M  V30 42105 C 3898.23 4.61803 -4.01752 0
M  V30 42106 N 3897.37 5.81848 -3.92934 0
M  V30 42107 H 3902.21 1.55971 -2.53924 0
M  V30 42108 H 3899.75 0.759857 -1.25955 0
M  V30 42109 H 3901.71 3.85399 -1.5976 0
M  V30 42110 H 3900.34 3.15162 -0.698049 0
M  V30 42111 H 3899.39 2.35873 -2.98443 0
M  V30 42112 H 3900.7 3.26202 -3.77351 0
M  V30 42113 H 3899.85 5.39542 -2.77451 0
M  V30 42114 H 3898.59 4.49963 -1.88108 0
M  V30 42115 H 3897.6 3.71869 -4.04961 0
M  V30 42116 H 3898.82 4.64799 -4.95115 0
M  V30 42117 H 3896.77 5.81575 -3.03492 0
M  V30 42118 H 3896.69 5.86907 -4.76525 0
M  V30 42119 H 3897.95 6.7257 -3.94043 0
M  V30 42120 N 3902.18 1.35274 0.808615 0
M  V30 42121 C 3903.43 1.2777 1.56069 0
M  V30 42122 C 3903.75 -0.146511 1.95051 0
M  V30 42123 O 3904.95 -0.343808 2.69314 0
M  V30 42124 C 3903.41 2.24064 2.81644 0
M  V30 42125 C 3903.02 3.7182 2.49908 0
M  V30 42126 C 3904.76 2.25498 3.59654 0
M  V30 42127 C 3902.67 4.59942 3.71762 0
M  V30 42128 H 3901.6 0.474712 0.585803 0
M  V30 42129 H 3904.25 1.60526 0.889023 0
M  V30 42130 H 3902.63 1.84277 3.50511 0
M  V30 42131 H 3903.8 4.20229 1.89061 0
M  V30 42132 H 3902.12 3.72974 1.85147 0
M  V30 42133 H 3904.72 2.88553 4.50157 0
M  V30 42134 H 3905.06 1.25816 3.96832 0
M  V30 42135 H 3905.59 2.63803 2.97746 0
M  V30 42136 H 3902.33 5.60614 3.39694 0
M  V30 42137 H 3901.85 4.1626 4.31842 0
M  V30 42138 H 3903.53 4.75264 4.39014 0
M  V30 42139 N 3903.66 -1.03053 1.19239 0
M  V30 42140 C 3905.07 -1.57876 0.996596 0
M  V30 42141 C 3905.42 -1.90947 -0.450954 0
M  V30 42142 O 3904.55 -1.707 -1.33006 0
M  V30 42143 C 3905.14 -2.86855 1.80277 0
M  V30 42144 C 3903.7 -3.38257 1.65103 0
M  V30 42145 C 3902.85 -2.11718 1.79083 0
M  V30 42146 H 3905.8 -0.856013 1.33634 0
M  V30 42147 H 3905.82 -3.57681 1.29787 0
M  V30 42148 H 3905.33 -2.62754 2.85626 0
M  V30 42149 H 3903.44 -3.67349 0.623332 0
M  V30 42150 H 3903.55 -4.114 2.45534 0
M  V30 42151 H 3901.91 -2.2351 1.22128 0
M  V30 42152 H 3902.7 -1.9006 2.85888 0
M  V30 42153 N 3905.14 -0.996042 -1.22134 0
M  V30 42154 C 3906.37 -0.691924 -1.95518 0
M  V30 42155 C 3906.79 0.737449 -1.73041 0
M  V30 42156 O 3906.15 1.50454 -1.0116 0
M  V30 42157 C 3906.2 -1.00741 -3.46242 0
M  V30 42158 O 3905.3 -0.107786 -4.12259 0
M  V30 42159 H 3904.64 -0.258659 -0.611549 0
M  V30 42160 H 3907.17 -1.33387 -1.55142 0
M  V30 42161 H 3907.18 -0.950551 -3.96773 0
M  V30 42162 H 3905.86 -2.04896 -3.61926 0
M  V30 42163 H 3904.43 -0.220401 -3.72248 0
M  V30 42164 N 3906.62 1.37529 -0.769636 0
M  V30 42165 C 3908.03 1.53153 -0.449027 0
M  V30 42166 C 3908.23 1.72849 1.03565 0
M  V30 42167 O 3907.29 1.74864 1.8215 0
M  V30 42168 C 3908.6 2.72924 -1.26226 0
M  V30 42169 C 3910.15 2.86784 -1.25395 0
M  V30 42170 C 3910.63 4.09535 -2.05048 0
M  V30 42171 N 3912.12 4.16644 -2.02391 0
M  V30 42172 C 3912.85 5.10654 -2.60807 0
M  V30 42173 N 3912.35 6.10235 -3.28001 0
M  V30 42174 N 3914.14 5.03122 -2.50648 0
M  V30 42175 H 3906.29 1.22997 -1.73163 0
M  V30 42176 H 3908.56 0.598746 -0.734988 0
M  V30 42177 H 3908.26 2.64828 -2.31428 0
M  V30 42178 H 3908.14 3.6655 -0.890001 0
M  V30 42179 H 3910.52 2.94352 -0.20992 0
M  V30 42180 H 3910.6 1.94123 -1.66583 0
M  V30 42181 H 3910.25 4.02729 -3.09471 0
M  V30 42182 H 3910.18 5.01306 -1.61243 0
M  V30 42183 H 3912.67 3.45334 -1.5347 0
M  V30 42184 H 3912.98 6.78494 -3.69954 0
M  V30 42185 H 3911.33 6.1052 -3.321 0
M  V30 42186 H 3914.52 4.2427 -1.9777 0
M  V30 42187 H 3914.69 5.76204 -2.96468 0
M  V30 42188 N 3908.1 0.520003 1.48774 0
M  V30 42189 C 3909.34 -0.0177149 2.02492 0
M  V30 42190 C 3909.67 -1.35223 1.39803 0
M  V30 42191 O 3908.93 -1.88397 0.529624 0
M  V30 42192 C 3909.23 -0.199141 3.56845 0
M  V30 42193 C 3908.89 1.05976 4.38269 0
M  V30 42194 C 3907.55 1.4048 4.60238 0
M  V30 42195 C 3909.91 1.89568 4.85503 0
M  V30 42196 C 3907.23 2.58492 5.26687 0
M  V30 42197 C 3909.59 3.06749 5.53252 0
M  V30 42198 C 3908.25 3.41611 5.73462 0
M  V30 42199 H 3907.52 -0.00648234 0.740972 0
M  V30 42200 H 3910.17 0.684008 1.78867 0
M  V30 42201 H 3908.47 -0.983551 3.79254 0
M  V30 42202 H 3910.17 -0.62995 3.96021 0
M  V30 42203 H 3906.76 0.781029 4.21424 0
M  V30 42204 H 3910.94 1.64223 4.68342 0
M  V30 42205 H 3906.2 2.85717 5.40533 0
M  V30 42206 H 3910.37 3.71835 5.88822 0
M  V30 42207 H 3908 4.33155 6.24724 0
M  V30 42208 N 3909.57 -1.55529 0.254676 0
M  V30 42209 C 3910.8 -2.03986 -0.374759 0
M  V30 42210 C 3911.22 -1.13251 -1.50186 0
M  V30 42211 O 3910.58 -0.126995 -1.80855 0
M  V30 42212 C 3910.63 -3.50376 -0.852573 0
M  V30 42213 O 3909.73 -3.62763 -1.96154 0
M  V30 42214 H 3909.08 -0.65909 -0.0806041 0
M  V30 42215 H 3911.61 -2.00983 0.383005 0
M  V30 42216 H 3911.62 -3.91347 -1.15375 0
M  V30 42217 H 3910.29 -4.15891 -0.0278313 0
M  V30 42218 H 3908.87 -3.33691 -1.66447 0
M  V30 42219 N 3911.05 0.0183372 -1.57589 0
M  V30 42220 C 3912.28 0.718457 -1.94025 0
M  V30 42221 C 3912.7 1.68314 -0.85532 0
M  V30 42222 O 3912.05 1.81731 0.167371 0
M  V30 42223 C 3912.1 1.46625 -3.30429 0
M  V30 42224 O 3911.82 0.540268 -4.34756 0
M  V30 42225 C 3913.33 2.26255 -3.81213 0
M  V30 42226 H 3910.55 0.201263 -0.640105 0
M  V30 42227 H 3913.09 -0.0273295 -2.04482 0
M  V30 42228 H 3911.24 2.16382 -3.21337 0
M  V30 42229 H 3911.66 1.06584 -5.13556 0
M  V30 42230 H 3913.13 2.74103 -4.79136 0
M  V30 42231 H 3913.61 3.08141 -3.12963 0
M  V30 42232 H 3914.22 1.61551 -3.93423 0
M  V30 42233 N 3912.53 1.54894 0.290797 0
M  V30 42234 C 3913.94 1.65552 0.863101 0
M  V30 42235 C 3914.29 0.570839 1.87712 0
M  V30 42236 O 3913.42 -0.290788 2.14437 0
M  V30 42237 C 3914.01 3.00109 1.57225 0
M  V30 42238 C 3912.57 3.12854 2.09283 0
M  V30 42239 C 3911.72 2.6128 0.928887 0
M  V30 42240 H 3914.67 1.58556 0.0675528 0
M  V30 42241 H 3914.69 2.92103 2.43836 0
M  V30 42242 H 3914.2 3.79033 0.833988 0
M  V30 42243 H 3912.3 2.3867 2.86125 0
M  V30 42244 H 3912.42 4.19162 2.32035 0
M  V30 42245 H 3910.78 2.17988 1.31732 0
M  V30 42246 H 3911.56 3.42691 0.204414 0
M  V30 42247 N 3914.01 -0.55448 1.47524 0
M  V30 42248 C 3914.92 -1.68867 1.62854 0
M  V30 42249 C 3915.93 -1.66317 0.511334 0
M  V30 42250 O 3917.11 -1.85715 0.779228 0
M  V30 42251 C 3914.18 -3.05369 1.64166 0
M  V30 42252 C 3913.24 -3.18965 2.87333 0
M  V30 42253 C 3912.47 -4.48955 2.88574 0
M  V30 42254 O 3912.69 -5.34581 1.98946 0
M  V30 42255 O 3911.63 -4.66399 3.80467 0
M  V30 42256 H 3915.45 -1.58875 2.58829 0
M  V30 42257 H 3913.04 -0.724799 1.30641 0
M  V30 42258 H 3914.92 -3.86597 1.67693 0
M  V30 42259 H 3913.59 -3.15737 0.713589 0
M  V30 42260 H 3912.5 -2.37124 2.89349 0
M  V30 42261 H 3913.83 -3.13502 3.79443 0
M  V30 42262 N 3915.49 -1.35701 -0.80143 0
M  V30 42263 C 3916.73 -1.29262 -1.55877 0
M  V30 42264 C 3917.06 0.131518 -1.94055 0
M  V30 42265 O 3916.32 1.098 -1.61995 0
M  V30 42266 C 3916.62 -2.14962 -2.85527 0
M  V30 42267 C 3916.28 -3.63683 -2.66543 0
M  V30 42268 C 3914.94 -4.0422 -2.61074 0
M  V30 42269 C 3917.3 -4.58028 -2.48717 0
M  V30 42270 C 3914.62 -5.37261 -2.35728 0
M  V30 42271 C 3916.98 -5.91272 -2.249 0
M  V30 42272 C 3915.64 -6.30948 -2.17856 0
M  V30 42273 H 3914.91 -0.473004 -0.570393 0
M  V30 42274 H 3917.56 -1.67645 -0.925597 0
M  V30 42275 H 3915.86 -1.69477 -3.53249 0
M  V30 42276 H 3917.56 -2.07313 -3.43253 0
M  V30 42277 H 3914.15 -3.31518 -2.7165 0
M  V30 42278 H 3918.33 -4.27591 -2.51952 0
M  V30 42279 H 3913.59 -5.66996 -2.28748 0
M  V30 42280 H 3917.76 -6.63952 -2.10098 0
M  V30 42281 H 3915.39 -7.33968 -1.97978 0
M  V30 42282 N 3916.96 1.02419 -1.19783 0
M  V30 42283 C 3918.19 1.79512 -1.02874 0
M  V30 42284 C 3918.61 1.84015 0.422355 0
M  V30 42285 O 3917.96 1.28761 1.29333 0
M  V30 42286 C 3918.02 3.24341 -1.5964 0
M  V30 42287 O 3917.74 3.20139 -2.9907 0
M  V30 42288 C 3919.24 4.18014 -1.47578 0
M  V30 42289 H 3916.46 0.564776 -0.362311 0
M  V30 42290 H 3919 1.28971 -1.58703 0
M  V30 42291 H 3917.16 3.72056 -1.07948 0
M  V30 42292 H 3917.57 4.10989 -3.25866 0
M  V30 42293 H 3919.04 5.17507 -1.9207 0
M  V30 42294 H 3919.52 4.37119 -0.427044 0
M  V30 42295 H 3920.13 3.76176 -1.98424 0
M  V30 42296 N 3918.44 1.0025 1.21604 0
M  V30 42297 C 3919.69 0.679185 1.89921 0
M  V30 42298 C 3920.01 -0.793215 1.78794 0
M  V30 42299 O 3921.21 -1.22852 2.42115 0
M  V30 42300 C 3919.67 1.16433 3.40546 0
M  V30 42301 C 3919.28 2.66263 3.60288 0
M  V30 42302 C 3921.02 0.915786 4.14504 0
M  V30 42303 C 3918.93 3.08332 5.04664 0
M  V30 42304 H 3917.86 0.250342 0.711228 0
M  V30 42305 H 3920.51 1.21334 1.3766 0
M  V30 42306 H 3918.89 0.558246 3.92045 0
M  V30 42307 H 3920.06 3.323 3.19239 0
M  V30 42308 H 3918.38 2.89105 2.99678 0
M  V30 42309 H 3920.98 1.20568 5.20929 0
M  V30 42310 H 3921.32 -0.147995 4.16037 0
M  V30 42311 H 3921.85 1.48454 3.69061 0
M  V30 42312 H 3918.59 4.13926 5.08277 0
M  V30 42313 H 3918.11 2.47005 5.46579 0
M  V30 42314 H 3919.79 3.00172 5.73154 0
M  V30 42315 N 3919.92 -1.37119 0.776919 0
M  V30 42316 C 3920.85 -2.32799 0.180778 0
M  V30 42317 C 3921.83 -1.56036 -0.677256 0
M  V30 42318 O 3923.02 -1.8425 -0.613655 0
M  V30 42319 C 3920.15 -3.40273 -0.695088 0
M  V30 42320 C 3919.1 -4.27955 0.0620524 0
M  V30 42321 C 3918.43 -5.26487 -0.933595 0
M  V30 42322 C 3919.73 -5.07268 1.24405 0
M  V30 42323 H 3921.42 -2.82904 0.980089 0
M  V30 42324 H 3918.97 -1.36019 0.472746 0
M  V30 42325 H 3920.92 -4.06189 -1.12198 0
M  V30 42326 H 3919.64 -2.88706 -1.52697 0
M  V30 42327 H 3918.3 -3.63578 0.469781 0
M  V30 42328 H 3917.95 -4.71197 -1.76017 0
M  V30 42329 H 3917.65 -5.86013 -0.431505 0
M  V30 42330 H 3919.18 -5.95277 -1.35932 0
M  V30 42331 H 3920.59 -5.66294 0.893549 0
M  V30 42332 H 3918.99 -5.76146 1.67858 0
M  V30 42333 H 3920.06 -4.39639 2.04561 0
M  V30 42334 N 3921.4 -0.527886 -1.48496 0
M  V30 42335 C 3922.35 0.249436 -2.31259 0
M  V30 42336 C 3923.34 0.937465 -1.41096 0
M  V30 42337 O 3924.55 0.862089 -1.58013 0
M  V30 42338 H 3920.92 0.0993077 -0.745414 0
M  V30 42339 H 3922.89 -0.468202 -2.94704 0
M  V30 42340 C 3921.64 1.28467 -3.23097 0
M  V30 42341 H 3920.97 0.764655 -3.9242 0
M  V30 42342 H 3922.41 1.80002 -3.83895 0
M  V30 42343 C 3920.86 2.31718 -2.44558 0
M  V30 42344 O 3921.39 3.38115 -2.16889 0
M  V30 42345 N 3919.6 2.04877 -2.06091 0
M  V30 42346 H 3919.15 1.1837 -2.28793 0
M  V30 42347 H 3919.11 2.74183 -1.53854 0
M  V30 42348 N 3922.88 1.55391 -0.26292 0
M  V30 42349 C 3924.11 2.03726 0.361021 0
M  V30 42350 C 3924.52 1.1417 1.50368 0
M  V30 42351 O 3923.88 0.159316 1.81803 0
M  V30 42352 C 3923.93 3.51277 0.853636 0
M  V30 42353 O 3923.65 4.37423 -0.243508 0
M  V30 42354 C 3925.15 4.15444 1.54664 0
M  V30 42355 H 3922.37 0.665732 0.0839155 0
M  V30 42356 H 3924.91 2.00718 -0.391459 0
M  V30 42357 H 3923.07 3.54767 1.55624 0
M  V30 42358 H 3923.48 5.24331 0.133149 0
M  V30 42359 H 3924.96 5.20329 1.84287 0
M  V30 42360 H 3925.43 3.62887 2.47407 0
M  V30 42361 H 3926.04 4.15922 0.888196 0
M  V30 42362 N 3924.36 -0.00997961 1.57597 0
M  V30 42363 C 3925.6 -0.696902 1.9013 0
M  V30 42364 C 3925.93 -1.74328 0.862545 0
M  V30 42365 O 3925.19 -1.95241 -0.13402 0
M  V30 42366 C 3925.48 -1.38629 3.29419 0
M  V30 42367 C 3925.15 -0.474066 4.48401 0
M  V30 42368 C 3923.81 -0.222871 4.80684 0
M  V30 42369 C 3926.16 0.154605 5.20971 0
M  V30 42370 C 3923.49 0.665453 5.82914 0
M  V30 42371 C 3925.84 1.03075 6.24146 0
M  V30 42372 C 3924.51 1.29122 6.54892 0
M  V30 42373 H 3923.78 -0.255014 0.695736 0
M  V30 42374 H 3926.43 0.043405 1.91451 0
M  V30 42375 H 3924.73 -2.20039 3.24176 0
M  V30 42376 H 3926.43 -1.92367 3.51847 0
M  V30 42377 H 3923.02 -0.680012 4.23171 0
M  V30 42378 H 3927.2 -0.026464 4.96293 0
M  V30 42379 H 3922.46 0.875366 6.05101 0
M  V30 42380 H 3926.63 1.52429 6.79513 0
M  V30 42381 H 3924.26 1.98126 7.33928 0
M  V30 42382 N 3925.83 -1.55046 -0.282578 0
M  V30 42383 C 3926.78 -1.83654 -1.35112 0
M  V30 42384 C 3927.77 -0.694814 -1.45125 0
M  V30 42385 O 3928.96 -0.955924 -1.48967 0
M  V30 42386 C 3926.09 -2.10353 -2.71305 0
M  V30 42387 C 3925.17 -3.30759 -2.65441 0
M  V30 42388 N 3925.57 -4.50892 -2.29194 0
M  V30 42389 C 3923.86 -3.33157 -2.96517 0
M  V30 42390 C 3924.56 -5.3296 -2.33085 0
M  V30 42391 N 3923.54 -4.71131 -2.71177 0
M  V30 42392 H 3927.34 -2.74088 -1.0608 0
M  V30 42393 H 3924.86 -1.54793 -0.4912 0
M  V30 42394 H 3926.85 -2.29001 -3.48374 0
M  V30 42395 H 3925.51 -1.21197 -3.01233 0
M  V30 42396 H 3926.52 -4.77163 -2.01334 0
M  V30 42397 H 3923.2 -2.54165 -3.31219 0
M  V30 42398 H 3924.59 -6.38991 -2.07703 0
M  V30 42399 N 3927.31 0.546649 -1.47816 0
M  V30 42400 C 3928.56 1.29973 -1.5424 0
M  V30 42401 C 3928.87 1.94427 -0.213903 0
M  V30 42402 O 3930.08 2.7105 -0.156234 0
M  V30 42403 C 3928.54 2.35745 -2.71942 0
M  V30 42404 C 3928.14 1.77434 -4.11365 0
M  V30 42405 C 3929.89 3.12167 -2.87667 0
M  V30 42406 C 3927.79 2.81048 -5.20352 0
M  V30 42407 H 3926.72 0.488744 -0.574148 0
M  V30 42408 H 3929.38 0.579354 -1.74114 0
M  V30 42409 H 3927.76 3.10743 -2.45468 0
M  V30 42410 H 3928.93 1.08736 -4.47787 0
M  V30 42411 H 3927.25 1.13561 -4.00616 0
M  V30 42412 H 3929.84 3.89562 -3.66259 0
M  V30 42413 H 3930.19 3.67006 -1.965 0
M  V30 42414 H 3930.72 2.44281 -3.13961 0
M  V30 42415 H 3927.46 2.3105 -6.1343 0
M  V30 42416 H 3926.98 3.48124 -4.88436 0
M  V30 42417 H 3928.66 3.44346 -5.47754 0
M  V30 42418 N 3928.79 1.36124 0.794222 0
M  V30 42419 C 3930.2 1.26938 1.36907 0
M  V30 42420 C 3930.55 -0.0928993 1.9598 0
M  V30 42421 O 3929.68 -0.994233 1.92208 0
M  V30 42422 C 3930.27 2.29854 2.48902 0
M  V30 42423 C 3928.83 2.24371 3.02216 0
M  V30 42424 C 3927.98 2.14893 1.7526 0
M  V30 42425 H 3930.93 1.47073 0.596253 0
M  V30 42426 H 3930.95 1.93219 3.2779 0
M  V30 42427 H 3930.46 3.28992 2.05878 0
M  V30 42428 H 3928.56 1.28685 3.49673 0
M  V30 42429 H 3928.68 3.16858 3.59357 0
M  V30 42430 H 3927.04 1.61069 1.97304 0
M  V30 42431 H 3927.82 3.1591 1.34371 0
M  V30 42432 N 3930.27 -1.01782 1.20325 0
M  V30 42433 C 3931.49 -1.795 1.03896 0
M  V30 42434 C 3931.92 -1.83635 -0.407388 0
M  V30 42435 O 3931.28 -1.27051 -1.29336 0
M  V30 42436 C 3931.32 -3.21876 1.62567 0
M  V30 42437 O 3930.43 -4.03281 0.862469 0
M  V30 42438 H 3929.77 -0.553699 0.366488 0
M  V30 42439 H 3932.3 -1.28031 1.59591 0
M  V30 42440 H 3932.31 -3.72592 1.66251 0
M  V30 42441 H 3930.98 -3.18181 2.67831 0
M  V30 42442 H 3929.56 -3.61882 0.89975 0
M  V30 42443 N 3931.75 -1.00894 -1.21071 0
M  V30 42444 C 3932.99 -0.693884 -1.90241 0
M  V30 42445 C 3933.32 0.775749 -1.7836 0
M  V30 42446 O 3932.58 1.57837 -1.15697 0
M  V30 42447 C 3932.87 -1.06556 -3.41146 0
M  V30 42448 C 3932.54 -2.53012 -3.73224 0
M  V30 42449 C 3931.2 -2.9303 -3.81689 0
M  V30 42450 C 3933.55 -3.47862 -3.88126 0
M  V30 42451 C 3930.88 -4.26854 -4.02508 0
M  V30 42452 C 3933.23 -4.81364 -4.10452 0
M  V30 42453 C 3931.9 -5.21101 -4.17145 0
M  V30 42454 H 3931.17 -0.25391 -0.69614 0
M  V30 42455 H 3933.82 -1.26811 -1.43497 0
M  V30 42456 H 3932.12 -0.409644 -3.89653 0
M  V30 42457 H 3933.82 -0.799594 -3.92947 0
M  V30 42458 H 3930.41 -2.21 -3.67229 0
M  V30 42459 H 3934.59 -3.18107 -3.80948 0
M  V30 42460 H 3929.85 -4.57206 -4.05922 0
M  V30 42461 H 3934.02 -5.54793 -4.20925 0
M  V30 42462 H 3931.65 -6.24811 -4.3303 0
M  V30 42463 N 3933.22 1.36705 -0.78418 0
M  V30 42464 C 3934.45 2.03638 -0.365937 0
M  V30 42465 C 3934.87 1.59134 1.01596 0
M  V30 42466 O 3934.22 0.778327 1.65071 0
M  V30 42467 C 3934.28 3.5912 -0.414098 0
M  V30 42468 O 3934 4.02 -1.74149 0
M  V30 42469 C 3935.5 4.43298 0.0141767 0
M  V30 42470 H 3932.72 0.653665 -0.151537 0
M  V30 42471 H 3935.26 1.74788 -1.06157 0
M  V30 42472 H 3933.42 3.86698 0.233066 0
M  V30 42473 H 3933.83 4.96572 -1.6887 0
M  V30 42474 H 3935.3 5.51955 -0.0706651 0
M  V30 42475 H 3935.78 4.26063 1.06615 0
M  V30 42476 H 3936.39 4.20971 -0.605275 0
M  V30 42477 N 3934.7 0.535753 1.48214 0
M  V30 42478 C 3935.95 0.00173126 2.017 0
M  V30 42479 C 3936.26 -1.34773 1.41759 0
M  V30 42480 O 3937.47 -1.97044 1.86777 0
M  V30 42481 C 3935.93 -0.0472955 3.59869 0
M  V30 42482 C 3935.53 1.29762 4.28796 0
M  V30 42483 C 3937.28 -0.529841 4.2118 0
M  V30 42484 C 3935.19 1.20887 5.78913 0
M  V30 42485 H 3934.12 -0.00312281 0.753994 0
M  V30 42486 H 3936.77 0.680398 1.7042 0
M  V30 42487 H 3935.15 -0.791161 3.88016 0
M  V30 42488 H 3936.32 2.05751 4.12315 0
M  V30 42489 H 3934.64 1.71637 3.79381 0
M  V30 42490 H 3937.23 -0.614303 5.31159 0
M  V30 42491 H 3937.58 -1.53695 3.86889 0
M  V30 42492 H 3938.11 0.158514 3.97484 0
M  V30 42493 H 3934.85 2.19131 6.17788 0
M  V30 42494 H 3934.37 0.490438 5.97792 0
M  V30 42495 H 3936.05 0.901936 6.40683 0
M  V30 42496 N 3936.18 -1.5525 0.271158 0
M  V30 42497 C 3937.46 -1.91501 -0.398341 0
M  V30 42498 C 3937.84 -1.19494 -1.74024 0
M  V30 42499 O 3937.19 -0.320465 -2.26242 0
M  V30 42500 C 3937.4 -3.44757 -0.542529 0
M  V30 42501 C 3938.74 -4.16463 -0.827253 0
M  V30 42502 O 3939.77 -3.5063 -0.627486 0
M  V30 42503 O 3938.63 -5.32957 -1.20907 0
M  V30 42504 H 3935.72 -0.797896 -0.217465 0
M  V30 42505 H 3938.27 -1.66713 0.317018 0
M  V30 42506 H 3937.04 -3.8923 0.401995 0
M  V30 42507 H 3936.66 -3.75486 -1.30751 0
M  V30 42508 N 3937.66 0.00162173 -1.576 0
M  V30 42509 C 3938.91 0.686809 -1.90497 0
M  V30 42510 C 3939.23 1.73869 -0.871778 0
M  V30 42511 O 3938.49 1.95309 0.123664 0
M  V30 42512 C 3938.79 1.3688 -3.30149 0
M  V30 42513 C 3938.45 0.450279 -4.48646 0
M  V30 42514 C 3937.12 0.197376 -4.80795 0
M  V30 42515 C 3939.47 -0.182232 -5.20881 0
M  V30 42516 C 3936.8 -0.696357 -5.82553 0
M  V30 42517 C 3939.15 -1.06383 -6.23591 0
M  V30 42518 C 3937.81 -1.32593 -6.54198 0
M  V30 42519 H 3937.08 0.251321 -0.697079 0
M  V30 42520 H 3939.73 -0.0535575 -1.91425 0
M  V30 42521 H 3938.03 2.18317 -3.25338 0
M  V30 42522 H 3939.73 1.90498 -3.52862 0
M  V30 42523 H 3936.32 0.657561 -4.23526 0
M  V30 42524 H 3940.5 0.000143997 -4.963 0
M  V30 42525 H 3935.76 -0.907444 -6.04628 0
M  V30 42526 H 3939.93 -1.5603 -6.78695 0
M  V30 42527 H 3937.56 -2.02015 -7.32867 0
M  V30 42528 N 3939.14 1.55194 0.274352 0
M  V30 42529 C 3940.38 1.75996 1.00762 0
M  V30 42530 C 3940.72 0.558712 1.85989 0
M  V30 42531 O 3939.99 -0.44375 1.8937 0
M  V30 42532 C 3940.27 3.06433 1.89131 0
M  V30 42533 C 3940.13 4.36911 1.06907 0
M  V30 42534 C 3941.45 3.32901 2.87863 0
M  V30 42535 H 3938.56 0.640324 0.364903 0
M  V30 42536 H 3941.21 1.87924 0.280123 0
M  V30 42537 H 3939.36 2.96396 2.51161 0
M  V30 42538 H 3941.03 4.58904 0.469585 0
M  V30 42539 H 3939.27 4.32198 0.37249 0
M  V30 42540 H 3939.94 5.24501 1.72054 0
M  V30 42541 H 3942.42 3.42722 2.35968 0
M  V30 42542 H 3941.29 4.25435 3.46837 0
M  V30 42543 H 3941.56 2.52475 3.62917 0
M  V30 42544 N 3940.61 -0.538802 1.48104 0
M  V30 42545 C 3941.52 -1.6713 1.64635 0
M  V30 42546 C 3942.54 -1.65765 0.528946 0
M  V30 42547 O 3943.72 -1.84878 0.798882 0
M  V30 42548 C 3940.78 -3.03611 1.67396 0
M  V30 42549 C 3939.84 -3.15899 2.907 0
M  V30 42550 C 3939.08 -4.45869 2.93319 0
M  V30 42551 O 3939.3 -5.3244 2.04605 0
M  V30 42552 O 3938.23 -4.62338 3.85393 0
M  V30 42553 H 3942.06 -1.56121 2.60499 0
M  V30 42554 H 3939.64 -0.710902 1.31402 0
M  V30 42555 H 3941.53 -3.84796 1.71784 0
M  V30 42556 H 3940.2 -3.14962 0.747037 0
M  V30 42557 H 3939.11 -2.34042 2.91848 0
M  V30 42558 H 3940.44 -3.0946 3.82747 0
M  V30 42559 N 3942.09 -1.36544 -0.786992 0
M  V30 42560 C 3943.03 -1.25428 -1.90638 0
M  V30 42561 C 3944 -0.13794 -1.62014 0
M  V30 42562 O 3945.19 -0.309497 -1.85942 0
M  V30 42563 C 3942.31 -0.935809 -3.25515 0
M  V30 42564 C 3941.36 -2.06693 -3.73069 0
M  V30 42565 S 3942.19 -3.68504 -3.88542 0
M  V30 42566 C 3943.35 -3.38775 -5.26291 0
M  V30 42567 H 3943.58 -2.20175 -1.99775 0
M  V30 42568 H 3941.12 -1.21988 -0.946482 0
M  V30 42569 H 3943.07 -0.758878 -4.03424 0
M  V30 42570 H 3941.73 -0.00608189 -3.14099 0
M  V30 42571 H 3940.93 -1.79872 -4.7081 0
M  V30 42572 H 3940.53 -2.20321 -3.02216 0
M  V30 42573 H 3942.82 -2.92819 -6.10953 0
M  V30 42574 H 3943.76 -4.35789 -5.58116 0
M  V30 42575 H 3944.17 -2.74065 -4.93506 0
M  V30 42576 N 3943.57 1.01143 -1.20863 0
M  V30 42577 C 3944.52 2.0979 -0.962122 0
M  V30 42578 C 3945.49 1.65738 0.109559 0
M  V30 42579 O 3946.67 1.90766 -0.0362357 0
M  V30 42580 C 3943.81 3.41069 -0.52592 0
M  V30 42581 C 3942.93 3.98569 -1.66633 0
M  V30 42582 C 3942.06 5.1793 -1.17992 0
M  V30 42583 C 3941.1 5.67525 -2.29308 0
M  V30 42584 N 3940.24 6.78141 -1.81848 0
M  V30 42585 H 3945.08 2.30212 -1.89226 0
M  V30 42586 H 3942.61 1.12887 -0.943128 0
M  V30 42587 H 3944.57 4.16424 -0.254303 0
M  V30 42588 H 3943.2 3.20704 0.367219 0
M  V30 42589 H 3942.25 3.20261 -2.05274 0
M  V30 42590 H 3943.57 4.31375 -2.50433 0
M  V30 42591 H 3942.72 6.00508 -0.864583 0
M  V30 42592 H 3941.46 4.86702 -0.311879 0
M  V30 42593 H 3940.46 4.83547 -2.61653 0
M  V30 42594 H 3941.69 6.00785 -3.16598 0
M  V30 42595 H 3939.63 6.48732 -0.973779 0
M  V30 42596 H 3939.55 7.10168 -2.59226 0
M  V30 42597 H 3940.82 7.64271 -1.53329 0
M  V30 42598 N 3945.05 1.01535 1.20534 0
M  V30 42599 C 3946.29 0.705006 1.90151 0
M  V30 42600 C 3946.63 -0.763312 1.7857 0
M  V30 42601 O 3945.9 -1.55443 1.16909 0
M  V30 42602 C 3946.19 1.13976 3.41587 0
M  V30 42603 C 3946.04 2.66829 3.62108 0
M  V30 42604 C 3947.36 0.71006 4.34334 0
M  V30 42605 H 3944.48 0.257589 0.690519 0
M  V30 42606 H 3947.12 1.26287 1.41956 0
M  V30 42607 H 3945.27 0.665117 3.82764 0
M  V30 42608 H 3946.94 3.22135 3.30192 0
M  V30 42609 H 3945.18 3.07861 3.05621 0
M  V30 42610 H 3945.85 2.92302 4.68256 0
M  V30 42611 H 3948.33 1.11808 4.00797 0
M  V30 42612 H 3947.21 1.0423 5.38913 0
M  V30 42613 H 3947.47 -0.388331 4.40391 0
M  V30 42614 N 3946.53 -1.36288 0.791419 0
M  V30 42615 C 3947.47 -2.30022 0.189286 0
M  V30 42616 C 3948.44 -1.52075 -0.668018 0
M  V30 42617 O 3949.63 -1.80573 -0.616279 0
M  V30 42618 C 3946.77 -3.38567 -0.668332 0
M  V30 42619 C 3945.88 -4.315 0.207735 0
M  V30 42620 C 3945.02 -5.27128 -0.656446 0
M  V30 42621 C 3944.06 -6.11701 0.220952 0
M  V30 42622 N 3943.19 -6.99512 -0.602326 0
M  V30 42623 H 3948.03 -2.8093 0.994087 0
M  V30 42624 H 3945.57 -1.38277 0.501784 0
M  V30 42625 H 3947.53 -4.00148 -1.18057 0
M  V30 42626 H 3946.16 -2.88974 -1.43854 0
M  V30 42627 H 3945.21 -3.71056 0.837959 0
M  V30 42628 H 3946.52 -4.9091 0.8837 0
M  V30 42629 H 3945.68 -5.94009 -1.23442 0
M  V30 42630 H 3944.41 -4.68178 -1.36603 0
M  V30 42631 H 3943.42 -5.43781 0.811309 0
M  V30 42632 H 3944.64 -6.72727 0.928168 0
M  V30 42633 H 3942.59 -6.43067 -1.29616 0
M  V30 42634 H 3942.51 -7.55998 0.0159159 0
M  V30 42635 H 3943.78 -7.70759 -1.16406 0
M  V30 42636 N 3948.01 -0.543606 -1.47928 0
M  V30 42637 C 3949.25 -0.0124279 -2.01696 0
M  V30 42638 C 3949.57 1.34019 -1.42472 0
M  V30 42639 O 3950.77 1.96051 -1.8782 0
M  V30 42640 C 3949.23 0.0282101 -3.59889 0
M  V30 42641 C 3948.84 -1.32034 -4.28102 0
M  V30 42642 C 3950.58 0.507497 -4.21455 0
M  V30 42643 C 3948.49 -1.23955 -5.78264 0
M  V30 42644 H 3947.42 -0.000875846 -0.753999 0
M  V30 42645 H 3950.07 -0.689426 -1.70056 0
M  V30 42646 H 3948.45 0.770572 -3.8843 0
M  V30 42647 H 3949.63 -2.07934 -4.11218 0
M  V30 42648 H 3947.94 -1.73646 -3.78465 0
M  V30 42649 H 3950.54 0.586126 -5.31478 0
M  V30 42650 H 3950.88 1.51642 -3.87699 0
M  V30 42651 H 3951.41 -0.179592 -3.97394 0
M  V30 42652 H 3948.15 -2.22404 -6.16617 0
M  V30 42653 H 3947.67 -0.522134 -5.97523 0
M  V30 42654 H 3949.35 -0.935901 -6.40195 0
M  V30 42655 N 3949.48 1.55104 -0.279387 0
M  V30 42656 C 3950.73 1.98868 0.336831 0
M  V30 42657 C 3951.05 1.17127 1.56654 0
M  V30 42658 O 3952.25 1.51055 2.25598 0
M  V30 42659 C 3950.71 3.5397 0.650636 0
M  V30 42660 C 3950.32 4.44492 -0.559511 0
M  V30 42661 C 3952.06 4.06313 1.22924 0
M  V30 42662 C 3949.97 5.9099 -0.220056 0
M  V30 42663 H 3948.9 0.742773 0.12963 0
M  V30 42664 H 3951.55 1.79422 -0.384709 0
M  V30 42665 H 3949.93 3.69233 1.43119 0
M  V30 42666 H 3951.1 4.40999 -1.33628 0
M  V30 42667 H 3949.42 4.02807 -1.05526 0
M  V30 42668 H 3952.02 5.13314 1.4971 0
M  V30 42669 H 3952.36 3.55604 2.16452 0
M  V30 42670 H 3952.89 3.94506 0.51088 0
M  V30 42671 H 3949.63 6.45803 -1.12332 0
M  V30 42672 H 3949.15 5.97543 0.519866 0
M  V30 42673 H 3950.83 6.46732 0.186194 0
M  V30 42674 N 3950.96 0.0067362 1.57599 0
M  V30 42675 C 3952.38 -0.349425 1.55728 0
M  V30 42676 C 3952.58 -1.74356 1.01007 0
M  V30 42677 O 3951.63 -2.44074 0.64686 0
M  V30 42678 C 3952.95 -0.218494 2.99905 0
M  V30 42679 C 3954.49 -0.292932 3.11626 0
M  V30 42680 C 3954.97 -0.191048 4.57601 0
M  V30 42681 N 3956.46 -0.248738 4.62532 0
M  V30 42682 C 3957.2 -0.193347 5.73074 0
M  V30 42683 N 3956.69 -0.0881616 6.92744 0
M  V30 42684 N 3958.48 -0.245704 5.61563 0
M  V30 42685 H 3950.64 0.91865 1.91506 0
M  V30 42686 H 3952.9 0.352754 0.879925 0
M  V30 42687 H 3952.6 0.740974 3.43806 0
M  V30 42688 H 3952.48 -0.997841 3.63762 0
M  V30 42689 H 3954.87 -1.24285 2.67651 0
M  V30 42690 H 3954.95 0.516402 2.50533 0
M  V30 42691 H 3954.59 0.755351 5.02252 0
M  V30 42692 H 3954.52 -1.01896 5.16648 0
M  V30 42693 H 3957.01 -0.331091 3.76447 0
M  V30 42694 H 3957.32 -0.0519762 7.72783 0
M  V30 42695 H 3955.67 -0.0536934 6.94979 0
M  V30 42696 H 3958.86 -0.326122 4.66963 0
M  V30 42697 H 3959.03 -0.199072 6.47694 0
M  V30 42698 N 3952.44 -1.55337 -0.266118 0
M  V30 42699 C 3953.67 -1.80301 -1.01486 0
M  V30 42700 C 3954.08 -0.579774 -1.79678 0
M  V30 42701 O 3953.44 0.451288 -1.76832 0
M  V30 42702 C 3953.49 -3.03236 -1.96799 0
M  V30 42703 O 3953.21 -4.20836 -1.21774 0
M  V30 42704 C 3954.71 -3.40856 -2.8343 0
M  V30 42705 H 3951.93 -0.600454 -0.299493 0
M  V30 42706 H 3954.48 -2.02364 -0.294818 0
M  V30 42707 H 3952.63 -2.83279 -2.64257 0
M  V30 42708 H 3953.05 -4.90383 -1.86078 0
M  V30 42709 H 3954.52 -4.30028 -3.46092 0
M  V30 42710 H 3955 -2.60568 -3.53554 0
M  V30 42711 H 3955.6 -3.63096 -2.21453 0
M  V30 42712 N 3953.92 0.53094 -1.48387 0
M  V30 42713 C 3955.17 1.28329 -1.5561 0
M  V30 42714 C 3955.48 1.94189 -0.234513 0
M  V30 42715 O 3956.69 2.70869 -0.184974 0
M  V30 42716 C 3955.14 2.32847 -2.74427 0
M  V30 42717 C 3954.75 1.73061 -4.13224 0
M  V30 42718 C 3956.49 3.09098 -2.90962 0
M  V30 42719 C 3954.4 2.75513 -5.23303 0
M  V30 42720 H 3953.33 0.482627 -0.579299 0
M  V30 42721 H 3955.98 0.560854 -1.74719 0
M  V30 42722 H 3954.36 3.08122 -2.4875 0
M  V30 42723 H 3955.54 1.03981 -4.48915 0
M  V30 42724 H 3953.85 1.09305 -4.01798 0
M  V30 42725 H 3956.45 3.85655 -3.7037 0
M  V30 42726 H 3956.79 3.64901 -2.00382 0
M  V30 42727 H 3957.33 2.40937 -3.16534 0
M  V30 42728 H 3954.06 2.24531 -6.15846 0
M  V30 42729 H 3953.58 3.42924 -4.92101 0
M  V30 42730 H 3955.26 3.38517 -5.51376 0
M  V30 42731 N 3955.4 1.36959 0.779739 0
M  V30 42732 C 3956.67 1.22266 1.52677 0
M  V30 42733 C 3957.05 -0.187127 2.10269 0
M  V30 42734 O 3956.4 -1.19387 1.9483 0
M  V30 42735 C 3956.61 2.31236 2.61402 0
M  V30 42736 C 3957.96 2.68383 3.29023 0
M  V30 42737 O 3958.98 2.30352 2.71692 0
M  V30 42738 O 3957.84 3.33875 4.32654 0
M  V30 42739 H 3954.94 0.476631 0.675834 0
M  V30 42740 H 3957.48 1.48717 0.81739 0
M  V30 42741 H 3956.25 3.25678 2.16909 0
M  V30 42742 H 3955.88 2.06204 3.39949 0
M  V30 42743 N 3956.87 -1.00501 1.21398 0
M  V30 42744 C 3957.81 -2.09439 0.931019 0
M  V30 42745 C 3958.82 -1.62574 -0.0857626 0
M  V30 42746 O 3960.01 -1.77896 0.146732 0
M  V30 42747 C 3957.11 -3.36803 0.376404 0
M  V30 42748 C 3956.28 -4.12754 1.44752 0
M  V30 42749 C 3955.34 -5.18409 0.902142 0
M  V30 42750 O 3954.37 -5.4667 1.58557 0
M  V30 42751 N 3955.57 -5.79812 -0.282616 0
M  V30 42752 H 3958.33 -2.34297 1.86883 0
M  V30 42753 H 3955.89 -1.16983 1.11923 0
M  V30 42754 H 3957.89 -4.047 -0.00284954 0
M  V30 42755 H 3956.46 -3.09104 -0.466229 0
M  V30 42756 H 3955.68 -3.3966 2.00062 0
M  V30 42757 H 3956.96 -4.60274 2.16854 0
M  V30 42758 H 3956.36 -5.59203 -0.854902 0
M  V30 42759 H 3954.92 -6.49001 -0.60338 0
M  V30 42760 N 3958.35 -1.02172 -1.19994 0
M  V30 42761 C 3959.28 -0.541001 -2.21694 0
M  V30 42762 C 3960.26 0.414316 -1.57233 0
M  V30 42763 O 3961.45 0.333108 -1.85533 0
M  V30 42764 C 3958.57 0.212049 -3.38036 0
M  V30 42765 C 3957.62 -0.693603 -4.20822 0
M  V30 42766 S 3958.45 -2.16571 -4.89752 0
M  V30 42767 C 3959.61 -1.42296 -6.0951 0
M  V30 42768 H 3959.84 -1.40272 -2.62128 0
M  V30 42769 H 3957.37 -0.831049 -1.30127 0
M  V30 42770 H 3959.33 0.640413 -4.05474 0
M  V30 42771 H 3957.99 1.0494 -2.96051 0
M  V30 42772 H 3957.19 -0.112646 -5.03874 0
M  V30 42773 H 3956.79 -1.05997 -3.58665 0
M  V30 42774 H 3959.08 -0.705704 -6.73815 0
M  V30 42775 H 3960.02 -2.22981 -6.72075 0
M  V30 42776 H 3960.43 -0.923597 -5.56893 0
M  V30 42777 N 3959.83 1.35866 -0.798635 0
M  V30 42778 C 3960.76 2.32482 -0.217792 0
M  V30 42779 C 3961.74 1.57094 0.652347 0
M  V30 42780 O 3962.93 1.85203 0.584265 0
M  V30 42781 C 3960.06 3.41336 0.640865 0
M  V30 42782 C 3959.01 4.27802 -0.130129 0
M  V30 42783 C 3958.34 5.27905 0.849718 0
M  V30 42784 C 3959.64 5.05224 -1.3246 0
M  V30 42785 H 3961.33 2.81309 -1.02497 0
M  V30 42786 H 3958.88 1.35249 -0.494325 0
M  V30 42787 H 3960.83 4.07923 1.05722 0
M  V30 42788 H 3959.55 2.91099 1.48085 0
M  V30 42789 H 3958.21 3.62784 -0.527564 0
M  V30 42790 H 3957.86 4.73938 1.68498 0
M  V30 42791 H 3957.56 5.86626 0.33822 0
M  V30 42792 H 3959.08 5.97364 1.26444 0
M  V30 42793 H 3960.5 5.648 -0.983529 0
M  V30 42794 H 3958.89 5.73402 -1.77003 0
M  V30 42795 H 3959.96 4.36329 -2.1153 0
M  V30 42796 N 3961.31 0.551443 1.47638 0
M  V30 42797 C 3962.26 -0.212614 2.31626 0
M  V30 42798 C 3963.25 -0.9149 1.42569 0
M  V30 42799 O 3964.46 -0.836841 1.59364 0
M  V30 42800 H 3960.83 -0.0874362 0.7469 0
M  V30 42801 H 3962.8 0.515027 2.93922 0
M  V30 42802 C 3961.55 -1.2331 3.251 0
M  V30 42803 H 3960.87 -0.702127 3.93586 0
M  V30 42804 H 3962.31 -1.73871 3.8671 0
M  V30 42805 C 3960.77 -2.27798 2.48213 0
M  V30 42806 O 3961.3 -3.34622 2.22241 0
M  V30 42807 N 3959.51 -2.01573 2.09325 0
M  V30 42808 H 3959.06 -1.14715 2.30647 0
M  V30 42809 H 3959.01 -2.71701 1.58196 0
M  V30 42810 N 3962.79 -1.54953 0.287609 0
M  V30 42811 C 3964.01 -2.04735 -0.331406 0
M  V30 42812 C 3964.44 -1.16412 -1.4775 0
M  V30 42813 O 3963.79 -0.165329 -1.80545 0
M  V30 42814 C 3963.84 -3.52106 -0.778061 0
M  V30 42815 O 3962.95 -3.66843 -1.88415 0
M  V30 42816 H 3962.29 -0.660651 -0.0666057 0
M  V30 42817 H 3964.82 -2.00126 0.425551 0
M  V30 42818 H 3964.83 -3.93707 -1.07048 0
M  V30 42819 H 3963.5 -4.15856 0.0603915 0
M  V30 42820 H 3962.08 -3.37147 -1.59332 0
M  V30 42821 N 3964.26 -0.0150939 -1.57593 0
M  V30 42822 C 3965.17 0.9874 -2.12809 0
M  V30 42823 C 3966.19 1.36668 -1.07693 0
M  V30 42824 O 3967.37 1.45095 -1.39676 0
M  V30 42825 C 3964.43 2.25576 -2.6328 0
M  V30 42826 C 3963.49 1.9382 -3.83056 0
M  V30 42827 C 3962.73 3.14609 -4.31111 0
M  V30 42828 O 3962.95 4.26803 -3.78412 0
M  V30 42829 O 3961.88 2.97725 -5.23109 0
M  V30 42830 H 3965.71 0.547963 -2.98716 0
M  V30 42831 H 3963.29 0.204664 -1.47992 0
M  V30 42832 H 3965.18 3.0006 -2.95874 0
M  V30 42833 H 3963.85 2.68728 -1.80463 0
M  V30 42834 H 3962.76 1.16764 -3.55411 0
M  V30 42835 H 3964.09 1.55494 -4.66993 0
M  V30 42836 N 3965.74 1.55476 0.257876 0
M  V30 42837 C 3966.67 1.92403 1.323 0
M  V30 42838 C 3967.65 0.787643 1.50765 0
M  V30 42839 O 3968.84 1.04703 1.63557 0
M  V30 42840 C 3965.97 2.20917 2.6798 0
M  V30 42841 C 3964.92 3.36704 2.64225 0
M  V30 42842 C 3964.25 3.50732 4.03598 0
M  V30 42843 C 3965.55 4.72693 2.22169 0
M  V30 42844 H 3967.24 2.81619 1.01641 0
M  V30 42845 H 3964.79 1.35497 0.487499 0
M  V30 42846 H 3966.74 2.45338 3.42618 0
M  V30 42847 H 3965.47 1.28515 3.00252 0
M  V30 42848 H 3964.12 3.12273 1.92044 0
M  V30 42849 H 3963.77 2.5577 4.33117 0
M  V30 42850 H 3963.47 4.2859 4.01976 0
M  V30 42851 H 3965 3.77463 4.79952 0
M  V30 42852 H 3966.41 4.96559 2.86534 0
M  V30 42853 H 3964.81 5.53574 2.3168 0
M  V30 42854 H 3965.88 4.70494 1.17317 0
M  V30 42855 N 3967.22 -0.523064 1.48667 0
M  V30 42856 C 3968.15 -1.64308 1.59799 0
M  V30 42857 C 3969.17 -1.55505 0.481863 0
M  V30 42858 O 3970.35 -1.6184 0.753005 0
M  V30 42859 C 3967.45 -3.02994 1.51815 0
M  V30 42860 C 3966.63 -3.37208 2.78585 0
M  V30 42861 C 3965.69 -4.55205 2.6396 0
M  V30 42862 O 3964.71 -4.58082 3.3786 0
M  V30 42863 N 3965.91 -5.53798 1.74036 0
M  V30 42864 H 3968.68 -1.55193 2.56389 0
M  V30 42865 H 3966.24 -0.710486 1.45478 0
M  V30 42866 H 3968.23 -3.79818 1.39716 0
M  V30 42867 H 3966.8 -3.0615 0.631718 0
M  V30 42868 H 3966.02 -2.49494 3.05199 0
M  V30 42869 H 3967.31 -3.56854 3.62674 0
M  V30 42870 H 3966.71 -5.54256 1.13211 0
M  V30 42871 H 3965.27 -6.29811 1.67872 0
M  V30 42872 N 3968.7 -1.37371 -0.772465 0
M  V30 42873 C 3969.94 -1.33743 -1.53246 0
M  V30 42874 C 3970.3 0.0778184 -1.92243 0
M  V30 42875 O 3969.59 1.03628 -1.61157 0
M  V30 42876 C 3969.79 -2.20971 -2.80903 0
M  V30 42877 C 3969.62 -3.70835 -2.54385 0
M  V30 42878 C 3968.39 -4.39945 -2.4855 0
M  V30 42879 C 3970.58 -4.63713 -2.2243 0
M  V30 42880 N 3968.57 -5.75353 -2.14107 0
M  V30 42881 C 3969.94 -5.87493 -1.9812 0
M  V30 42882 C 3971.99 -4.52105 -2.08579 0
M  V30 42883 C 3970.69 -7.00968 -1.61359 0
M  V30 42884 C 3972.72 -5.65464 -1.73218 0
M  V30 42885 C 3972.08 -6.88294 -1.49768 0
M  V30 42886 H 3968.18 -0.544682 -0.561111 0
M  V30 42887 H 3970.77 -1.72585 -0.901248 0
M  V30 42888 H 3968.94 -1.84346 -3.41864 0
M  V30 42889 H 3970.67 -2.08606 -3.46793 0
M  V30 42890 H 3967.42 -3.92939 -2.64379 0
M  V30 42891 H 3967.85 -6.46912 -1.99584 0
M  V30 42892 H 3972.49 -3.57712 -2.25392 0
M  V30 42893 H 3970.21 -7.95296 -1.43285 0
M  V30 42894 H 3973.79 -5.58453 -1.63161 0
M  V30 42895 H 3972.67 -7.74524 -1.22811 0
M  V30 42896 N 3970.18 0.998553 -1.21929 0
M  V30 42897 C 3971.59 1.55178 -1.0381 0
M  V30 42898 C 3971.94 1.92076 0.400169 0
M  V30 42899 O 3971.06 1.74166 1.28433 0
M  V30 42900 C 3971.66 2.81974 -1.87819 0
M  V30 42901 C 3970.22 3.33761 -1.74014 0
M  V30 42902 C 3969.36 2.06896 -1.84633 0
M  V30 42903 H 3972.32 0.820282 -1.35857 0
M  V30 42904 H 3972.34 3.54114 -1.39225 0
M  V30 42905 H 3971.85 2.55088 -2.92492 0
M  V30 42906 H 3969.95 3.65567 -0.720509 0
M  V30 42907 H 3970.06 4.04745 -2.56355 0
M  V30 42908 H 3968.43 2.20194 -1.28011 0
M  V30 42909 H 3969.21 1.82414 -2.90827 0
M  V30 42910 N 3971.65 1.02807 1.1945 0
M  V30 42911 C 3972.9 0.725135 1.89393 0
M  V30 42912 C 3973.23 -0.744329 1.79369 0
M  V30 42913 O 3972.51 -1.54194 1.18551 0
M  V30 42914 C 3972.79 1.17592 3.40359 0
M  V30 42915 C 3972.64 2.70655 3.59258 0
M  V30 42916 C 3973.96 0.756087 4.33557 0
M  V30 42917 H 3971.08 0.264899 0.687748 0
M  V30 42918 H 3973.72 1.27785 1.40609 0
M  V30 42919 H 3971.87 0.705677 3.82037 0
M  V30 42920 H 3973.55 3.25619 3.26756 0
M  V30 42921 H 3971.79 3.11085 3.02339 0
M  V30 42922 H 3972.46 2.97252 4.65129 0
M  V30 42923 H 3974.94 1.16053 3.99588 0
M  V30 42924 H 3973.81 1.0994 5.37777 0
M  V30 42925 H 3974.07 -0.341599 4.40778 0
M  V30 42926 N 3973.13 -1.35441 0.805829 0
M  V30 42927 C 3974.54 -1.81273 0.446894 0
M  V30 42928 C 3974.89 -1.66927 -1.03101 0
M  V30 42929 O 3974.02 -1.19948 -1.80115 0
M  V30 42930 C 3974.61 -3.29113 0.804388 0
M  V30 42931 C 3973.17 -3.7309 0.498062 0
M  V30 42932 C 3972.32 -2.57445 1.0304 0
M  V30 42933 H 3975.27 -1.2343 0.997539 0
M  V30 42934 H 3975.29 -3.80364 0.101626 0
M  V30 42935 H 3974.8 -3.39521 1.88007 0
M  V30 42936 H 3972.91 -3.68231 -0.568918 0
M  V30 42937 H 3973.02 -4.67894 1.03016 0
M  V30 42938 H 3971.38 -2.50644 0.45276 0
M  V30 42939 H 3972.17 -2.70633 2.11218 0
M  V30 42940 N 3974.61 -0.559265 -1.47343 0
M  V30 42941 C 3975.89 0.0297924 -1.95577 0
M  V30 42942 C 3976.27 1.48347 -1.50188 0
M  V30 42943 O 3975.62 2.16129 -0.741658 0
M  V30 42944 C 3975.83 -0.117828 -3.48801 0
M  V30 42945 C 3977.17 0.0264603 -4.24592 0
M  V30 42946 O 3978.2 -0.0454789 -3.56171 0
M  V30 42947 O 3977.06 0.181579 -5.46198 0
M  V30 42948 H 3974.15 0.0629827 -0.824598 0
M  V30 42949 H 3976.7 -0.625933 -1.57734 0
M  V30 42950 H 3975.47 -1.12931 -3.7465 0
M  V30 42951 H 3975.09 0.575414 -3.93414 0
M  V30 42952 N 3976.09 1.54799 -0.295822 0
M  V30 42953 C 3977.34 1.99214 0.315719 0
M  V30 42954 C 3977.65 1.18782 1.55403 0
M  V30 42955 O 3978.86 1.5344 2.23983 0
M  V30 42956 C 3977.31 3.5464 0.613057 0
M  V30 42957 C 3976.92 4.43874 -0.606624 0
M  V30 42958 C 3978.66 4.07593 1.18608 0
M  V30 42959 C 3976.57 5.90724 -0.282726 0
M  V30 42960 H 3975.5 0.744106 0.121745 0
M  V30 42961 H 3978.15 1.79004 -0.403718 0
M  V30 42962 H 3976.53 3.7073 1.39195 0
M  V30 42963 H 3977.71 4.39557 -1.38298 0
M  V30 42964 H 3976.02 4.01665 -1.09792 0
M  V30 42965 H 3978.62 5.14873 1.44257 0
M  V30 42966 H 3978.96 3.5788 2.12668 0
M  V30 42967 H 3979.5 3.95026 0.469009 0
M  V30 42968 H 3976.24 6.44576 -1.19175 0
M  V30 42969 H 3975.76 5.98061 0.456459 0
M  V30 42970 H 3977.43 6.46893 0.117589 0
M  V30 42971 N 3977.57 0.0234513 1.57583 0
M  V30 42972 C 3978.8 -0.665796 1.95578 0
M  V30 42973 C 3979.21 -1.66519 0.898222 0
M  V30 42974 O 3978.55 -1.83246 -0.129077 0
M  V30 42975 C 3978.61 -1.43339 3.29688 0
M  V30 42976 C 3978.27 -0.592968 4.53137 0
M  V30 42977 C 3979.27 0.129342 5.19739 0
M  V30 42978 C 3976.96 -0.532037 4.99474 0
M  V30 42979 C 3978.95 0.901317 6.30995 0
M  V30 42980 C 3976.64 0.243647 6.10614 0
M  V30 42981 C 3977.64 0.959036 6.76233 0
M  V30 42982 O 3977.32 1.72202 7.8524 0
M  V30 42983 H 3977.06 -0.188842 0.649088 0
M  V30 42984 H 3979.61 0.0777885 2.05253 0
M  V30 42985 H 3977.84 -2.22199 3.16488 0
M  V30 42986 H 3979.53 -2.01021 3.52627 0
M  V30 42987 H 3980.29 0.0915664 4.84914 0
M  V30 42988 H 3976.17 -1.07842 4.48209 0
M  V30 42989 H 3979.72 1.46023 6.82146 0
M  V30 42990 H 3975.61 0.28316 6.44879 0
M  V30 42991 H 3976.38 1.64119 8.01877 0
M  V30 42992 N 3979.05 -1.5561 -0.249627 0
M  V30 42993 C 3979.98 -1.93102 -1.31277 0
M  V30 42994 C 3980.96 -0.795628 -1.50346 0
M  V30 42995 O 3982.14 -1.05569 -1.62999 0
M  V30 42996 C 3979.27 -2.22335 -2.66804 0
M  V30 42997 C 3978.23 -3.381 -2.62435 0
M  V30 42998 C 3977.55 -3.52868 -4.01732 0
M  V30 42999 C 3978.85 -4.73864 -2.19659 0
M  V30 43000 H 3980.55 -2.82154 -1.00146 0
M  V30 43001 H 3978.09 -1.35754 -0.480307 0
M  V30 43002 H 3980.04 -2.47152 -3.41312 0
M  V30 43003 H 3978.77 -1.30106 -2.99566 0
M  V30 43004 H 3977.43 -3.13287 -1.90385 0
M  V30 43005 H 3977.08 -2.58064 -4.31755 0
M  V30 43006 H 3976.78 -4.30715 -3.99697 0
M  V30 43007 H 3978.3 -3.80003 -4.77944 0
M  V30 43008 H 3979.71 -4.98072 -2.83897 0
M  V30 43009 H 3978.11 -5.54795 -2.28741 0
M  V30 43010 H 3979.18 -4.7111 -1.14821 0
M  V30 43011 N 3980.52 0.515172 -1.48942 0
M  V30 43012 C 3981.94 0.845076 -1.35391 0
M  V30 43013 C 3982.14 1.97957 -0.376176 0
M  V30 43014 O 3981.2 2.51728 0.19728 0
M  V30 43015 C 3982.51 1.19864 -2.75777 0
M  V30 43016 C 3984.06 1.30767 -2.84375 0
M  V30 43017 C 3984.53 1.69459 -4.25497 0
M  V30 43018 N 3986.02 1.76534 -4.2824 0
M  V30 43019 C 3986.76 2.07888 -5.34388 0
M  V30 43020 N 3986.25 2.37564 -6.50796 0
M  V30 43021 N 3988.05 2.0902 -5.21792 0
M  V30 43022 H 3980.2 -0.233155 -2.11116 0
M  V30 43023 H 3982.46 -0.0416923 -0.947083 0
M  V30 43024 H 3982.17 0.438504 -3.48956 0
M  V30 43025 H 3982.04 2.14539 -3.10246 0
M  V30 43026 H 3984.43 2.05854 -2.11443 0
M  V30 43027 H 3984.51 0.341764 -2.53507 0
M  V30 43028 H 3984.15 0.94927 -4.9895 0
M  V30 43029 H 3984.08 2.67125 -4.53819 0
M  V30 43030 H 3986.57 1.55818 -3.44281 0
M  V30 43031 H 3986.89 2.60636 -7.27522 0
M  V30 43032 H 3985.23 2.35051 -6.54046 0
M  V30 43033 H 3988.42 1.85303 -4.29861 0
M  V30 43034 H 3988.6 2.33122 -6.04614 0
M  V30 43035 N 3982 1.37779 0.765169 0
M  V30 43036 C 3983.28 1.23879 1.51372 0
M  V30 43037 C 3983.66 -0.164815 2.10456 0
M  V30 43038 O 3983.01 -1.17314 1.96086 0
M  V30 43039 C 3983.22 2.33995 2.58935 0
M  V30 43040 C 3984.56 2.71857 3.26157 0
M  V30 43041 O 3985.59 2.3322 2.69234 0
M  V30 43042 O 3984.45 3.38445 4.29089 0
M  V30 43043 H 3981.54 0.483772 0.670741 0
M  V30 43044 H 3984.09 1.49576 0.801571 0
M  V30 43045 H 3982.86 3.2796 2.13443 0
M  V30 43046 H 3982.48 2.09798 3.37743 0
M  V30 43047 N 3983.48 -0.992073 1.22457 0
M  V30 43048 C 3984.41 -2.10061 1.01964 0
M  V30 43049 C 3985.39 -1.69995 -0.0596887 0
M  V30 43050 O 3986.58 -1.93928 0.102689 0
M  V30 43051 C 3983.71 -3.42122 0.597503 0
M  V30 43052 C 3982.66 -3.96039 1.62286 0
M  V30 43053 C 3981.99 -5.24158 1.05653 0
M  V30 43054 C 3983.29 -4.2663 3.01304 0
M  V30 43055 H 3984.98 -2.27462 1.94682 0
M  V30 43056 H 3982.53 -1.09307 0.937441 0
M  V30 43057 H 3984.48 -4.19083 0.441248 0
M  V30 43058 H 3983.2 -3.2455 -0.365344 0
M  V30 43059 H 3981.86 -3.2121 1.7669 0
M  V30 43060 H 3981.51 -5.02928 0.0850151 0
M  V30 43061 H 3981.21 -5.61199 1.74154 0
M  V30 43062 H 3982.73 -6.03753 0.91188 0
M  V30 43063 H 3984.15 -4.94386 2.90269 0
M  V30 43064 H 3982.54 -4.74845 3.66936 0
M  V30 43065 H 3983.61 -3.34372 3.51174 0
M  V30 43066 N 3984.96 -1.03439 -1.18904 0
M  V30 43067 C 3985.9 -0.619972 -2.22317 0
M  V30 43068 C 3986.87 0.369027 -1.61949 0
M  V30 43069 O 3988.06 0.264437 -1.88959 0
M  V30 43070 C 3985.2 0.0173973 -3.45096 0
M  V30 43071 C 3984.31 -1.01831 -4.19827 0
M  V30 43072 C 3983.45 -0.350119 -5.30045 0
M  V30 43073 C 3982.49 -1.37135 -5.9654 0
M  V30 43074 N 3981.62 -0.72858 -6.98309 0
M  V30 43075 H 3986.46 -1.50638 -2.57123 0
M  V30 43076 H 3984 -0.753717 -1.26323 0
M  V30 43077 H 3985.96 0.404221 -4.15237 0
M  V30 43078 H 3984.59 0.867358 -3.10929 0
M  V30 43079 H 3983.64 -1.52314 -3.48575 0
M  V30 43080 H 3984.95 -1.79424 -4.65412 0
M  V30 43081 H 3984.11 0.0912518 -6.06631 0
M  V30 43082 H 3982.85 0.457963 -4.85545 0
M  V30 43083 H 3981.85 -1.82293 -5.187 0
M  V30 43084 H 3983.08 -2.18103 -6.43124 0
M  V30 43085 H 3981.02 0.0593098 -6.55973 0
M  V30 43086 H 3980.94 -1.44231 -7.42114 0
M  V30 43087 H 3982.21 -0.311396 -7.78878 0
M  V30 43088 N 3986.44 1.35011 -0.813001 0
M  V30 43089 C 3987.68 1.98877 -0.396967 0
M  V30 43090 C 3988.01 1.64332 1.03483 0
M  V30 43091 O 3987.29 0.909891 1.71905 0
M  V30 43092 C 3987.57 3.55267 -0.587974 0
M  V30 43093 C 3987.43 3.99589 -2.06516 0
M  V30 43094 C 3988.74 4.40096 -0.0176703 0
M  V30 43095 H 3985.86 0.722453 -0.145708 0
M  V30 43096 H 3988.51 1.60062 -1.02372 0
M  V30 43097 H 3986.66 3.88462 -0.0544468 0
M  V30 43098 H 3988.33 3.76774 -2.66157 0
M  V30 43099 H 3986.57 3.50263 -2.55927 0
M  V30 43100 H 3987.24 5.08422 -2.14967 0
M  V30 43101 H 3989.72 4.13398 -0.47339 0
M  V30 43102 H 3988.59 5.48601 -0.181187 0
M  V30 43103 H 3988.85 4.28792 1.07657 0
M  V30 43104 N 3987.91 0.567071 1.47044 0
M  V30 43105 C 3988.82 -0.177957 2.33924 0
M  V30 43106 C 3989.84 -0.901941 1.48799 0
M  V30 43107 O 3991.02 -0.86863 1.81705 0
M  V30 43108 C 3988.08 -1.18859 3.25689 0
M  V30 43109 C 3987.14 -0.470974 4.26709 0
M  V30 43110 C 3986.37 -1.43346 5.14089 0
M  V30 43111 O 3986.6 -2.66898 5.04105 0
M  V30 43112 O 3985.53 -0.952569 5.94315 0
M  V30 43113 H 3989.36 0.53496 2.98951 0
M  V30 43114 H 3986.94 0.327597 1.45764 0
M  V30 43115 H 3988.82 -1.77173 3.82345 0
M  V30 43116 H 3987.5 -1.88326 2.63278 0
M  V30 43117 H 3986.41 0.153605 3.73785 0
M  V30 43118 H 3987.74 0.182424 4.91862 0
M  V30 43119 N 3989.39 -1.5464 0.304027 0
M  V30 43120 C 3990.67 -1.92303 -0.357631 0
M  V30 43121 C 3991.05 -1.23158 -1.7145 0
M  V30 43122 O 3990.4 -0.368382 -2.25511 0
M  V30 43123 C 3990.61 -3.45831 -0.469278 0
M  V30 43124 C 3991.95 -4.18124 -0.738729 0
M  V30 43125 O 3992.98 -3.51882 -0.552971 0
M  V30 43126 O 3991.84 -5.35402 -1.09575 0
M  V30 43127 H 3988.93 -0.802329 -0.200492 0
M  V30 43128 H 3991.48 -1.66003 0.352309 0
M  V30 43129 H 3990.25 -3.88289 0.484465 0
M  V30 43130 H 3989.87 -3.78175 -1.22757 0
M  V30 43131 N 3990.87 -0.0318079 -1.57568 0
M  V30 43132 C 3992.12 0.645605 -1.91089 0
M  V30 43133 C 3992.43 1.73135 -0.910139 0
M  V30 43134 O 3993.64 2.4656 -1.13669 0
M  V30 43135 C 3992.09 1.1996 -3.39319 0
M  V30 43136 C 3991.7 0.146989 -4.47759 0
M  V30 43137 C 3993.45 1.85337 -3.81904 0
M  V30 43138 C 3991.35 0.712769 -5.87089 0
M  V30 43139 H 3990.28 0.24491 -0.713116 0
M  V30 43140 H 3992.93 -0.0975467 -1.83241 0
M  V30 43141 H 3991.32 1.99444 -3.42108 0
M  V30 43142 H 3992.49 -0.625598 -4.56534 0
M  V30 43143 H 3990.8 -0.408182 -4.14395 0
M  V30 43144 H 3993.4 2.28628 -4.83356 0
M  V30 43145 H 3993.74 2.69718 -3.17109 0
M  V30 43146 H 3994.28 1.12537 -3.8155 0
M  V30 43147 H 3991.02 -0.0929734 -6.55434 0
M  V30 43148 H 3990.54 1.45378 -5.81915 0
M  V30 43149 H 3992.22 1.20168 -6.35743 0
M  V30 43150 N 3992.35 1.55741 0.241371 0
M  V30 43151 C 3993.76 1.68214 0.809995 0
M  V30 43152 C 3994.11 0.630269 1.85801 0
M  V30 43153 O 3993.24 -0.222419 2.15254 0
M  V30 43154 C 3993.83 3.04959 1.47598 0
M  V30 43155 C 3992.39 3.19354 1.99224 0
M  V30 43156 C 3991.54 2.64102 0.845293 0
M  V30 43157 H 3994.49 1.58691 0.0170752 0
M  V30 43158 H 3994.51 2.99713 2.34419 0
M  V30 43159 H 3994.02 3.81495 0.712979 0
M  V30 43160 H 3992.12 2.47652 2.78387 0
M  V30 43161 H 3992.23 4.26332 2.18582 0
M  V30 43162 H 3990.6 2.22069 1.2473 0
M  V30 43163 H 3991.38 3.43168 0.0952865 0
M  V30 43164 N 3993.83 -0.507266 1.49213 0
M  V30 43165 C 3994.76 -1.61826 1.68329 0
M  V30 43166 C 3995.74 -1.61567 0.531998 0
M  V30 43167 O 3996.92 -1.78406 0.767135 0
M  V30 43168 C 3994.05 -3.00337 1.744 0
M  V30 43169 C 3993.01 -3.1546 2.89256 0
M  V30 43170 C 3992.33 -4.55259 2.80434 0
M  V30 43171 C 3993.63 -2.96077 4.30274 0
M  V30 43172 H 3995.33 -1.46083 2.61343 0
M  V30 43173 H 3992.87 -0.701345 1.25766 0
M  V30 43174 H 3994.83 -3.77953 1.86359 0
M  V30 43175 H 3993.55 -3.17154 0.779804 0
M  V30 43176 H 3992.21 -2.40267 2.76888 0
M  V30 43177 H 3991.86 -4.68944 1.81936 0
M  V30 43178 H 3991.56 -4.66319 3.57519 0
M  V30 43179 H 3993.08 -5.34944 2.94393 0
M  V30 43180 H 3994.49 -3.63467 4.43356 0
M  V30 43181 H 3992.89 -3.18614 5.08532 0
M  V30 43182 H 3993.96 -1.92264 4.45155 0
M  V30 43183 N 3995.3 -1.38182 -0.757851 0
M  V30 43184 C 3996.27 -1.34874 -1.85315 0
M  V30 43185 C 3997.27 -0.250069 -1.58844 0
M  V30 43186 O 3998.46 -0.506718 -1.66667 0
M  V30 43187 C 3995.59 -1.09869 -3.2271 0
M  V30 43188 H 3996.78 -2.32315 -1.89657 0
M  V30 43189 H 3994.34 -1.23414 -0.9591 0
M  V30 43190 H 3995.07 -0.130169 -3.24039 0
M  V30 43191 H 3994.86 -1.89409 -3.43317 0
M  V30 43192 H 3996.35 -1.10239 -4.02787 0
M  V30 43193 N 3996.78 0.985565 -1.22981 0
M  V30 43194 C 3998.2 1.25078 -0.991351 0
M  V30 43195 C 3998.4 1.99091 0.310666 0
M  V30 43196 O 3997.45 2.30473 1.03143 0
M  V30 43197 C 3998.77 2.05538 -2.19487 0
M  V30 43198 C 4000.32 2.18696 -2.23922 0
M  V30 43199 C 4000.79 3.02545 -3.43846 0
M  V30 43200 N 4002.28 3.10131 -3.44053 0
M  V30 43201 C 4003.02 3.7532 -4.335 0
M  V30 43202 N 4002.51 4.42376 -5.33175 0
M  V30 43203 N 4004.31 3.72155 -4.21256 0
M  V30 43204 H 3996.46 0.48958 -2.06681 0
M  V30 43205 H 3998.72 0.278876 -0.906053 0
M  V30 43206 H 3998.43 1.58524 -3.13947 0
M  V30 43207 H 3998.3 3.06291 -2.20149 0
M  V30 43208 H 4000.69 2.6492 -1.30005 0
M  V30 43209 H 4000.77 1.17349 -2.27295 0
M  V30 43210 H 4000.41 2.57019 -4.38068 0
M  V30 43211 H 4000.34 4.0405 -3.37714 0
M  V30 43212 H 4002.83 2.62415 -2.71931 0
M  V30 43213 H 4003.15 4.89881 -5.97693 0
M  V30 43214 H 4001.49 4.41101 -5.3708 0
M  V30 43215 H 4004.68 3.18935 -3.42634 0
M  V30 43216 H 4004.85 4.22678 -4.91169 0
M  V30 43217 N 3998.26 1.04068 1.18353 0
M  V30 43218 C 3999.51 0.739263 1.87664 0
M  V30 43219 C 3999.82 -0.735931 1.81228 0
M  V30 43220 O 4001.03 -1.15087 2.45901 0
M  V30 43221 C 3999.48 1.27208 3.36669 0
M  V30 43222 C 3999.09 2.77591 3.51635 0
M  V30 43223 C 4000.84 1.04719 4.11381 0
M  V30 43224 C 3998.74 3.24231 4.94599 0
M  V30 43225 H 3997.67 0.272842 0.702903 0
M  V30 43226 H 4000.32 1.25652 1.33731 0
M  V30 43227 H 3998.71 0.68269 3.90071 0
M  V30 43228 H 3999.88 3.42288 3.08505 0
M  V30 43229 H 3998.2 2.98493 2.90329 0
M  V30 43230 H 4000.79 1.3708 5.1683 0
M  V30 43231 H 4001.14 -0.0155612 4.16297 0
M  V30 43232 H 4001.67 1.6012 3.64152 0
M  V30 43233 H 3998.41 4.29887 4.94851 0
M  V30 43234 H 3997.93 2.64269 5.38444 0
M  V30 43235 H 3999.61 3.18254 5.63314 0
M  V30 43236 N 3999.74 -1.34578 0.820149 0
M  V30 43237 C 4000.97 -2.02596 0.4198 0
M  V30 43238 C 4001.38 -1.61772 -0.973411 0
M  V30 43239 O 4000.74 -0.821819 -1.62949 0
M  V30 43240 C 4000.79 -3.57896 0.509167 0
M  V30 43241 O 4000.51 -3.97241 1.84746 0
M  V30 43242 C 4002.01 -4.43179 0.103361 0
M  V30 43243 H 3999.23 -0.649417 0.168814 0
M  V30 43244 H 4001.78 -1.71912 1.10754 0
M  V30 43245 H 3999.93 -3.8718 -0.130458 0
M  V30 43246 H 4000.34 -4.9192 1.81976 0
M  V30 43247 H 4001.82 -5.51573 0.216981 0
M  V30 43248 H 4002.3 -4.2874 -0.952813 0
M  V30 43249 H 4002.9 -4.19218 0.716675 0
M  V30 43250 N 4001.22 -0.574861 -1.46742 0
M  V30 43251 C 4002.15 0.150795 -2.33013 0
M  V30 43252 C 4003.13 0.891447 -1.4487 0
M  V30 43253 O 4004.31 0.86845 -1.737 0
M  V30 43254 C 4001.44 1.17006 -3.26997 0
M  V30 43255 C 4000.4 0.544755 -4.24519 0
M  V30 43256 C 3999.72 1.66993 -5.07954 0
M  V30 43257 C 4001.02 -0.512983 -5.19775 0
M  V30 43258 H 4002.72 -0.569485 -2.93934 0
M  V30 43259 H 4000.26 -0.275314 -1.41344 0
M  V30 43260 H 4002.22 1.68602 -3.86201 0
M  V30 43261 H 4000.94 1.92052 -2.64166 0
M  V30 43262 H 3999.6 0.0499489 -3.66566 0
M  V30 43263 H 3999.25 2.40986 -4.41514 0
M  V30 43264 H 3998.95 1.25722 -5.73993 0
M  V30 43265 H 4000.47 2.1888 -5.70021 0
M  V30 43266 H 4001.88 -0.0824072 -5.73241 0
M  V30 43267 H 4000.28 -0.845566 -5.94113 0
M  V30 43268 H 4001.35 -1.40225 -4.64182 0
M  V30 43269 N 4002.69 1.54476 -0.312224 0
M  V30 43270 C 4004.11 1.85848 0.178156 0
M  V30 43271 C 4004.46 1.23404 1.52532 0
M  V30 43272 O 4003.58 0.535859 2.0966 0
M  V30 43273 C 4004.18 3.37189 0.33004 0
M  V30 43274 C 4002.74 3.68552 0.764638 0
M  V30 43275 C 4001.88 2.77039 -0.120396 0
M  V30 43276 H 4004.83 1.49486 -0.53288 0
M  V30 43277 H 4004.85 3.62297 1.16281 0
M  V30 43278 H 4004.37 3.82608 -0.650594 0
M  V30 43279 H 4002.47 3.28657 1.75542 0
M  V30 43280 H 4002.58 4.75622 0.576248 0
M  V30 43281 H 4000.94 2.51505 0.402185 0
M  V30 43282 H 4001.73 3.25281 -1.09759 0
M  V30 43283 N 4004.17 0.0401637 1.57549 0
M  V30 43284 C 4005.45 -0.675323 1.83572 0
M  V30 43285 C 4005.83 -1.89689 0.926346 0
M  V30 43286 O 4005.18 -2.28495 -0.0153467 0
M  V30 43287 C 4005.39 -1.04307 3.33048 0
M  V30 43288 C 4006.74 -1.43004 3.99794 0
M  V30 43289 O 4007.76 -1.13573 3.37609 0
M  V30 43290 O 4006.62 -1.97884 5.09416 0
M  V30 43291 H 4003.71 -0.332312 0.757296 0
M  V30 43292 H 4006.26 0.0686882 1.69561 0
M  V30 43293 H 4005.03 -0.174121 3.90912 0
M  V30 43294 H 4004.65 -1.84489 3.52207 0
M  V30 43295 N 4005.65 -1.55866 -0.233109 0
M  V30 43296 C 4006.9 -1.78342 -0.959187 0
M  V30 43297 C 4007.23 -0.606919 -1.84788 0
M  V30 43298 O 4006.48 0.409219 -1.91374 0
M  V30 43299 C 4006.78 -3.06461 -1.83892 0
M  V30 43300 C 4006.45 -4.37165 -1.10443 0
M  V30 43301 C 4005.11 -4.7268 -0.901494 0
M  V30 43302 C 4007.46 -5.17908 -0.584888 0
M  V30 43303 C 4004.79 -5.86462 -0.166931 0
M  V30 43304 C 4007.14 -6.32453 0.136275 0
M  V30 43305 C 4005.8 -6.66579 0.350568 0
M  V30 43306 H 4005.07 -0.652599 -0.350991 0
M  V30 43307 H 4007.72 -1.90135 -0.228215 0
M  V30 43308 H 4006.03 -2.89739 -2.63739 0
M  V30 43309 H 4007.72 -3.21051 -2.40265 0
M  V30 43310 H 4004.31 -4.09272 -1.27256 0
M  V30 43311 H 4008.5 -4.90914 -0.729177 0
M  V30 43312 H 4003.75 -6.11399 0.00943789 0
M  V30 43313 H 4007.93 -6.94253 0.546416 0
M  V30 43314 H 4005.55 -7.54592 0.921702 0
M  V30 43315 N 4007.13 0.499346 -1.4948 0
M  V30 43316 C 4008.55 0.830668 -1.36279 0
M  V30 43317 C 4008.75 1.97547 -0.397151 0
M  V30 43318 O 4007.8 2.51923 0.170569 0
M  V30 43319 C 4009.11 1.16932 -2.77033 0
M  V30 43320 C 4010.66 1.27743 -2.85746 0
M  V30 43321 C 4011.14 1.64936 -4.2727 0
M  V30 43322 N 4012.63 1.71982 -4.30089 0
M  V30 43323 C 4013.36 2.02209 -5.36562 0
M  V30 43324 N 4012.86 2.30648 -6.53279 0
M  V30 43325 N 4014.65 2.03474 -5.2398 0
M  V30 43326 H 4006.8 -0.255534 -2.10857 0
M  V30 43327 H 4009.07 -0.0517351 -0.946587 0
M  V30 43328 H 4008.77 0.401468 -3.49401 0
M  V30 43329 H 4008.65 2.11236 -3.12504 0
M  V30 43330 H 4011.03 2.036 -2.13614 0
M  V30 43331 H 4011.11 0.314857 -2.53855 0
M  V30 43332 H 4010.76 0.896296 -4.99929 0
M  V30 43333 H 4010.69 2.62297 -4.56627 0
M  V30 43334 H 4013.18 1.52158 -3.45914 0
M  V30 43335 H 4013.49 2.52905 -7.30246 0
M  V30 43336 H 4011.84 2.28101 -6.56502 0
M  V30 43337 H 4015.03 1.80733 -4.31802 0
M  V30 43338 H 4015.2 2.26696 -6.07053 0
M  V30 43339 N 4008.61 1.38582 0.750513 0
M  V30 43340 C 4009.54 1.3878 1.87783 0
M  V30 43341 C 4010.52 0.253274 1.68204 0
M  V30 43342 O 4011.7 0.456812 1.88751 0
M  V30 43343 C 4008.83 1.21516 3.25348 0
M  V30 43344 C 4007.79 2.32205 3.59534 0
M  V30 43345 C 4007.11 2.00044 4.95869 0
M  V30 43346 C 4008.41 3.74476 3.64095 0
M  V30 43347 H 4010.11 2.33117 1.87875 0
M  V30 43348 H 4007.65 1.12211 0.902484 0
M  V30 43349 H 4009.61 1.20279 4.0387 0
M  V30 43350 H 4008.33 0.236423 3.25743 0
M  V30 43351 H 4006.99 2.32634 2.83332 0
M  V30 43352 H 4006.64 1.00647 4.92828 0
M  V30 43353 H 4006.34 2.74179 5.19711 0
M  V30 43354 H 4007.86 2.00431 5.76767 0
M  V30 43355 H 4009.28 3.76061 4.32725 0
M  V30 43356 H 4007.67 4.47841 3.99447 0
M  V30 43357 H 4008.74 4.0657 2.64252 0
M  V30 43358 N 4010.09 -0.979029 1.23502 0
M  V30 43359 C 4011.5 -1.53507 1.06266 0
M  V30 43360 C 4011.85 -1.92688 -0.36956 0
M  V30 43361 O 4010.97 -1.76187 -1.25646 0
M  V30 43362 C 4011.57 -2.78951 1.92281 0
M  V30 43363 C 4010.13 -3.3095 1.79302 0
M  V30 43364 C 4009.27 -2.03932 1.87901 0
M  V30 43365 H 4012.22 -0.798564 1.37145 0
M  V30 43366 H 4012.25 -3.51854 1.44841 0
M  V30 43367 H 4011.76 -2.50403 2.96513 0
M  V30 43368 H 4009.86 -3.64375 0.778576 0
M  V30 43369 H 4009.97 -4.00616 2.62762 0
M  V30 43370 H 4008.34 -2.18129 1.31498 0
M  V30 43371 H 4009.12 -1.77764 2.93692 0
M  V30 43372 N 4011.56 -1.04695 -1.178 0
M  V30 43373 C 4012.47 -0.654112 -2.25297 0
M  V30 43374 C 4013.49 0.32252 -1.70985 0
M  V30 43375 O 4014.67 0.175869 -2.00631 0
M  V30 43376 C 4011.73 -0.0296955 -3.46687 0
M  V30 43377 C 4010.79 -1.05614 -4.16106 0
M  V30 43378 C 4010.02 -0.461422 -5.31702 0
M  V30 43379 O 4010.25 0.730579 -5.65702 0
M  V30 43380 O 4009.18 -1.19323 -5.89954 0
M  V30 43381 H 4013.01 -1.54986 -2.61176 0
M  V30 43382 H 4010.59 -0.818204 -1.25003 0
M  V30 43383 H 4012.47 0.31758 -4.20202 0
M  V30 43384 H 4011.15 0.839784 -3.12617 0
M  V30 43385 H 4010.06 -1.45532 -3.44632 0
M  V30 43386 H 4011.39 -1.89659 -4.54192 0
M  V30 43387 N 4013.04 1.34141 -0.827275 0
M  V30 43388 C 4014.29 1.9741 -0.413797 0
M  V30 43389 C 4014.6 1.66305 1.02967 0
M  V30 43390 O 4015.81 2.23096 1.54727 0
M  V30 43391 C 4014.27 3.53244 -0.688966 0
M  V30 43392 C 4013.87 3.93238 -2.14634 0
M  V30 43393 C 4015.62 4.23121 -0.341868 0
M  V30 43394 C 4013.52 5.42002 -2.36617 0
M  V30 43395 H 4012.45 0.738726 -0.150995 0
M  V30 43396 H 4015.11 1.52923 -1.01424 0
M  V30 43397 H 4013.49 3.95996 -0.0183015 0
M  V30 43398 H 4014.66 3.61579 -2.85652 0
M  V30 43399 H 4012.98 3.3631 -2.45529 0
M  V30 43400 H 4015.57 5.32506 -0.483891 0
M  V30 43401 H 4015.92 4.1013 0.714063 0
M  V30 43402 H 4016.45 3.85861 -0.967288 0
M  V30 43403 H 4013.19 5.59984 -3.40732 0
M  V30 43404 H 4012.71 5.75161 -1.70147 0
M  V30 43405 H 4014.39 6.0874 -2.19192 0
M  V30 43406 N 4014.52 0.582635 1.46435 0
M  V30 43407 C 4015.48 -0.140462 2.28769 0
M  V30 43408 C 4016.48 -0.818886 1.38387 0
M  V30 43409 O 4017.67 -0.670854 1.60764 0
M  V30 43410 C 4014.8 -1.20831 3.18768 0
M  V30 43411 H 4016 0.5831 2.94177 0
M  V30 43412 H 4013.55 0.340602 1.52544 0
M  V30 43413 H 4014.29 -1.96345 2.58107 0
M  V30 43414 H 4014.07 -0.726349 3.85314 0
M  V30 43415 H 4015.56 -1.71547 3.80738 0
M  V30 43416 N 4016 -1.54309 0.320412 0
M  V30 43417 C 4017.25 -1.99691 -0.283986 0
M  V30 43418 C 4017.56 -1.21239 -1.53494 0
M  V30 43419 O 4018.77 -1.56983 -2.21514 0
M  V30 43420 C 4017.22 -3.55571 -0.556559 0
M  V30 43421 C 4016.83 -4.42853 0.677164 0
M  V30 43422 C 4018.57 -4.09429 -1.12108 0
M  V30 43423 C 4016.48 -5.90199 0.376669 0
M  V30 43424 H 4015.41 -0.745949 -0.109892 0
M  V30 43425 H 4018.06 -1.78339 0.432145 0
M  V30 43426 H 4016.44 -3.72898 -1.33279 0
M  V30 43427 H 4017.62 -4.37301 1.45273 0
M  V30 43428 H 4015.93 -3.99867 1.16168 0
M  V30 43429 H 4018.53 -5.17103 -1.36048 0
M  V30 43430 H 4018.87 -3.61218 -2.06947 0
M  V30 43431 H 4019.41 -3.95722 -0.406104 0
M  V30 43432 H 4016.14 -6.42598 1.29414 0
M  V30 43433 H 4015.66 -5.98711 -0.361255 0
M  V30 43434 H 4017.34 -6.46998 -0.0146593 0
M  V30 43435 N 4017.48 -0.0485183 -1.57525 0
M  V30 43436 C 4018.89 0.48756 -1.80221 0
M  V30 43437 C 4019.24 1.7108 -0.96052 0
M  V30 43438 O 4018.36 2.1568 -0.176358 0
M  V30 43439 C 4018.96 0.891302 -3.26866 0
M  V30 43440 C 4017.52 1.37238 -3.50489 0
M  V30 43441 C 4016.66 0.346299 -2.75129 0
M  V30 43442 H 4019.61 -0.274419 -1.56309 0
M  V30 43443 H 4019.64 1.7544 -3.3764 0
M  V30 43444 H 4019.15 0.000812706 -3.881 0
M  V30 43445 H 4017.25 2.28215 -2.94532 0
M  V30 43446 H 4017.36 1.36637 -4.59203 0
M  V30 43447 H 4015.73 0.81861 -2.41186 0
M  V30 43448 H 4016.51 -0.536059 -3.39089 0
M  V30 43449 N 4018.95 1.55988 0.224839 0
M  V30 43450 C 4019.86 1.95309 1.29967 0
M  V30 43451 C 4020.88 0.85647 1.51461 0
M  V30 43452 O 4022.06 1.15976 1.64656 0
M  V30 43453 C 4019.12 2.25897 2.63005 0
M  V30 43454 C 4018.18 3.4911 2.49841 0
M  V30 43455 C 4017.41 3.78229 3.76535 0
M  V30 43456 O 4017.64 3.09074 4.79405 0
M  V30 43457 O 4016.57 4.71725 3.73844 0
M  V30 43458 H 4020.4 2.86902 0.996042 0
M  V30 43459 H 4017.98 1.43155 0.427432 0
M  V30 43460 H 4019.86 2.4678 3.41581 0
M  V30 43461 H 4018.54 1.37479 2.93055 0
M  V30 43462 H 4017.45 3.3351 1.69476 0
M  V30 43463 H 4018.78 4.379 2.24731 0
M  V30 43464 N 4020.43 -0.491412 1.49743 0
M  V30 43465 C 4021.68 -1.24491 1.59713 0
M  V30 43466 C 4022.01 -1.92354 0.288156 0
M  V30 43467 O 4021.26 -1.8179 -0.72462 0
M  V30 43468 C 4021.56 -2.3272 2.71249 0
M  V30 43469 C 4021.23 -1.82251 4.12426 0
M  V30 43470 C 4019.89 -1.68206 4.50844 0
M  V30 43471 C 4022.24 -1.44586 5.00744 0
M  V30 43472 C 4019.57 -1.14889 5.75341 0
M  V30 43473 C 4021.92 -0.927182 6.25768 0
M  V30 43474 C 4020.58 -0.773206 6.63007 0
M  V30 43475 H 4019.85 -0.455546 0.58443 0
M  V30 43476 H 4022.5 -0.544105 1.83608 0
M  V30 43477 H 4020.81 -3.08628 2.41363 0
M  V30 43478 H 4022.5 -2.90742 2.7617 0
M  V30 43479 H 4019.09 -1.94144 3.82107 0
M  V30 43480 H 4023.28 -1.54279 4.71711 0
M  V30 43481 H 4018.53 -1.01688 6.02884 0
M  V30 43482 H 4022.71 -0.626585 6.93575 0
M  V30 43483 H 4020.33 -0.357897 7.59357 0
M  V30 43484 N 4021.91 -1.38978 -0.743153 0
M  V30 43485 C 4023.16 -1.35071 -1.49795 0
M  V30 43486 C 4023.47 0.0532829 -1.95527 0
M  V30 43487 O 4024.68 0.214923 -2.70648 0
M  V30 43488 C 4023.13 -2.37246 -2.70633 0
M  V30 43489 C 4022.74 -3.8332 -2.31884 0
M  V30 43490 C 4024.49 -2.42401 -3.48485 0
M  V30 43491 C 4022.39 -4.77156 -3.49395 0
M  V30 43492 H 4021.32 -0.50212 -0.562487 0
M  V30 43493 H 4023.97 -1.64585 -0.811421 0
M  V30 43494 H 4022.36 -2.00791 -3.4132 0
M  V30 43495 H 4023.53 -4.28771 -1.68796 0
M  V30 43496 H 4021.85 -3.81383 -1.67141 0
M  V30 43497 H 4024.44 -3.09702 -4.35877 0
M  V30 43498 H 4024.79 -1.44607 -3.90378 0
M  V30 43499 H 4025.32 -2.77709 -2.84821 0
M  V30 43500 H 4022.06 -5.76183 -3.1256 0
M  V30 43501 H 4021.58 -4.36389 -4.1149 0
M  V30 43502 H 4023.26 -4.95669 -4.15838 0
M  V30 43503 N 4023.39 0.972465 -1.2402 0
M  V30 43504 C 4024.64 1.70911 -1.07108 0
M  V30 43505 C 4024.95 1.91655 0.390874 0
M  V30 43506 O 4026.16 2.62844 0.680084 0
M  V30 43507 C 4024.61 3.07609 -1.86829 0
M  V30 43508 C 4024.22 2.94725 -3.37404 0
M  V30 43509 C 4025.96 3.85179 -1.78431 0
M  V30 43510 C 4023.87 4.26702 -4.09486 0
M  V30 43511 H 4022.8 0.6409 -0.397195 0
M  V30 43512 H 4025.45 1.08402 -1.48058 0
M  V30 43513 H 4023.83 3.70919 -1.38689 0
M  V30 43514 H 4025.01 2.40455 -3.93088 0
M  V30 43515 H 4023.32 2.30624 -3.46701 0
M  V30 43516 H 4025.92 4.82899 -2.29592 0
M  V30 43517 H 4026.26 4.09513 -0.748627 0
M  V30 43518 H 4026.8 3.28585 -2.24225 0
M  V30 43519 H 4023.54 4.07562 -5.13394 0
M  V30 43520 H 4023.06 4.80806 -3.58588 0
M  V30 43521 H 4024.73 4.95348 -4.16221 0
M  V30 43522 N 4024.87 1.05318 1.17243 0
M  V30 43523 C 4026.28 0.789936 1.69165 0
M  V30 43524 C 4026.63 -0.68773 1.83752 0
M  V30 43525 O 4025.75 -1.53436 1.52599 0
M  V30 43526 C 4026.35 1.42733 3.07266 0
M  V30 43527 C 4024.91 1.21211 3.5635 0
M  V30 43528 C 4024.05 1.51007 2.32577 0
M  V30 43529 H 4027.01 1.21796 1.01742 0
M  V30 43530 H 4027.03 0.837301 3.71173 0
M  V30 43531 H 4026.54 2.50279 2.96618 0
M  V30 43532 H 4024.64 0.155957 3.72273 0
M  V30 43533 H 4024.75 1.91794 4.39035 0
M  V30 43534 H 4023.12 0.930214 2.37106 0
M  V30 43535 H 4023.9 2.59689 2.24536 0
M  V30 43536 N 4026.34 -1.33701 0.834377 0
M  V30 43537 C 4027.57 -2.0214 0.441264 0
M  V30 43538 C 4027.99 -1.62795 -0.956198 0
M  V30 43539 O 4027.34 -0.839056 -1.62068 0
M  V30 43540 C 4027.4 -3.57336 0.547098 0
M  V30 43541 O 4027.12 -3.95259 1.88949 0
M  V30 43542 C 4028.62 -4.43045 0.15036 0
M  V30 43543 H 4025.84 -0.64759 0.175692 0
M  V30 43544 H 4028.38 -1.70728 1.12571 0
M  V30 43545 H 4026.54 -3.87297 -0.0893851 0
M  V30 43546 H 4026.95 -4.89962 1.87183 0
M  V30 43547 H 4028.42 -5.51312 0.275471 0
M  V30 43548 H 4028.9 -4.29727 -0.907286 0
M  V30 43549 H 4029.51 -4.18434 0.761098 0
M  V30 43550 N 4027.82 -0.590393 -1.46124 0
M  V30 43551 C 4028.75 0.126073 -2.33159 0
M  V30 43552 C 4029.73 0.876031 -1.45807 0
M  V30 43553 O 4030.92 0.849978 -1.74611 0
M  V30 43554 C 4028.05 1.13531 -3.28219 0
M  V30 43555 C 4027 0.499698 -4.25073 0
M  V30 43556 C 4026.33 1.61596 -5.09697 0
M  V30 43557 C 4027.63 -0.568083 -5.19201 0
M  V30 43558 H 4029.32 -0.600628 -2.93314 0
M  V30 43559 H 4026.87 -0.29029 -1.41044 0
M  V30 43560 H 4028.82 1.64496 -3.87968 0
M  V30 43561 H 4027.55 1.89239 -2.66188 0
M  V30 43562 H 4026.2 0.0110669 -3.66598 0
M  V30 43563 H 4025.85 2.36289 -4.44045 0
M  V30 43564 H 4025.55 1.19627 -5.75294 0
M  V30 43565 H 4027.08 2.12822 -5.7231 0
M  V30 43566 H 4028.49 -0.143202 -5.73121 0
M  V30 43567 H 4026.89 -0.908532 -5.93183 0
M  V30 43568 H 4027.96 -1.45141 -4.62668 0
M  V30 43569 N 4029.3 1.54136 -0.328591 0
M  V30 43570 C 4030.25 2.2599 0.550552 0
M  V30 43571 C 4031.24 1.27583 1.1144 0
M  V30 43572 O 4032.45 1.45343 1.06186 0
M  V30 43573 H 4028.82 0.725954 0.196203 0
M  V30 43574 H 4030.79 2.98299 -0.0776872 0
M  V30 43575 C 4029.54 3.0346 1.69728 0
M  V30 43576 H 4028.87 3.79003 1.27266 0
M  V30 43577 H 4030.31 3.56975 2.28791 0
M  V30 43578 C 4028.77 2.12059 2.61788 0
M  V30 43579 O 4029.3 1.70676 3.63638 0
M  V30 43580 N 4027.5 1.77444 2.30135 0
M  V30 43581 H 4027.05 2.11294 1.47352 0
M  V30 43582 H 4027.01 1.16569 2.91992 0
M  V30 43583 N 4030.78 0.0568716 1.57497 0
M  V30 43584 C 4031.71 -0.91339 2.14894 0
M  V30 43585 C 4032.69 -1.32063 1.07208 0
M  V30 43586 O 4033.87 -1.39433 1.35174 0
M  V30 43587 C 4031 -2.18624 2.69853 0
M  V30 43588 C 4029.96 -1.91889 3.82574 0
M  V30 43589 C 4029.28 -3.25678 4.24073 0
M  V30 43590 C 4030.58 -1.23597 5.07465 0
M  V30 43591 H 4032.28 -0.435295 2.96219 0
M  V30 43592 H 4029.82 -0.207935 1.42491 0
M  V30 43593 H 4031.78 -2.86905 3.08648 0
M  V30 43594 H 4030.5 -2.6865 1.85728 0
M  V30 43595 H 4029.16 -1.26018 3.4426 0
M  V30 43596 H 4028.81 -3.73515 3.36891 0
M  V30 43597 H 4028.51 -3.08586 5.00049 0
M  V30 43598 H 4030.03 -3.95181 4.65473 0
M  V30 43599 H 4031.45 -1.81922 5.4367 0
M  V30 43600 H 4029.84 -1.16813 5.88621 0
M  V30 43601 H 4030.91 -0.212832 4.84433 0
M  V30 43602 N 4032.26 -1.56105 -0.216564 0
M  V30 43603 C 4033.2 -1.93684 -1.288 0
M  V30 43604 C 4034.2 -0.819491 -1.48259 0
M  V30 43605 O 4035.4 -1.00436 -1.49374 0
M  V30 43606 H 4031.78 -0.615577 -0.431936 0
M  V30 43607 H 4033.75 -2.83078 -0.943905 0
M  V30 43608 C 4032.5 -2.27419 -2.63013 0
M  V30 43609 H 4031.82 -3.12912 -2.48849 0
M  V30 43610 H 4033.26 -2.57592 -3.36782 0
M  V30 43611 C 4031.72 -1.10109 -3.18399 0
M  V30 43612 O 4032.25 -0.364829 -4.0004 0
M  V30 43613 N 4030.46 -0.883584 -2.76841 0
M  V30 43614 H 4030 -1.48403 -2.10557 0
M  V30 43615 H 4029.96 -0.100423 -3.1424 0
M  V30 43616 N 4033.73 0.483463 -1.50001 0
M  V30 43617 C 4035.01 1.24476 -1.50881 0
M  V30 43618 C 4035.39 2.09657 -0.24643 0
M  V30 43619 O 4034.74 2.15113 0.770623 0
M  V30 43620 C 4034.95 2.08643 -2.79766 0
M  V30 43621 C 4036.3 2.67247 -3.29945 0
M  V30 43622 O 4037.32 2.18897 -2.81003 0
M  V30 43623 O 4036.18 3.55312 -4.1523 0
M  V30 43624 H 4033.27 0.564195 -0.604659 0
M  V30 43625 H 4035.82 0.496297 -1.62281 0
M  V30 43626 H 4034.59 1.45793 -3.63126 0
M  V30 43627 H 4034.22 2.90648 -2.71311 0
M  V30 43628 N 4035.21 1.39371 0.735772 0
M  V30 43629 C 4036.46 1.36552 1.49532 0
M  V30 43630 C 4036.79 -0.0387823 1.94461 0
M  V30 43631 O 4036.04 -1.01946 1.67049 0
M  V30 43632 C 4036.34 2.28341 2.74946 0
M  V30 43633 C 4036.01 3.75986 2.48888 0
M  V30 43634 C 4034.67 4.16216 2.41491 0
M  V30 43635 C 4037.02 4.69373 2.26581 0
M  V30 43636 C 4034.35 5.47896 2.09826 0
M  V30 43637 C 4036.7 6.01329 1.96433 0
M  V30 43638 C 4035.37 6.40623 1.87504 0
M  V30 43639 H 4034.64 0.49968 0.547176 0
M  V30 43640 H 4037.28 1.71871 0.844557 0
M  V30 43641 H 4035.59 1.86138 3.44761 0
M  V30 43642 H 4037.28 2.23454 3.32971 0
M  V30 43643 H 4033.87 3.44101 2.55524 0
M  V30 43644 H 4038.06 4.39125 2.31264 0
M  V30 43645 H 4033.31 5.77264 2.01435 0
M  V30 43646 H 4037.49 6.7322 1.78181 0
M  V30 43647 H 4035.12 7.42578 1.62734 0
M  V30 43648 N 4036.69 -0.965875 1.24534 0
M  V30 43649 C 4037.62 -2.06371 0.997179 0
M  V30 43650 C 4038.64 -1.62764 -0.0339975 0
M  V30 43651 O 4039.83 -1.77339 0.203254 0
M  V30 43652 C 4036.93 -3.35435 0.483364 0
M  V30 43653 C 4036.1 -4.0794 1.5781 0
M  V30 43654 C 4035.16 -5.15276 1.06661 0
M  V30 43655 O 4034.18 -5.41349 1.75869 0
M  V30 43656 N 4035.39 -5.80417 -0.0980099 0
M  V30 43657 H 4038.15 -2.28233 1.94242 0
M  V30 43658 H 4035.71 -1.13363 1.15588 0
M  V30 43659 H 4037.7 -4.04504 0.125904 0
M  V30 43660 H 4036.27 -3.1043 -0.367654 0
M  V30 43661 H 4035.49 -3.33123 2.10766 0
M  V30 43662 H 4036.78 -4.53141 2.31388 0
M  V30 43663 H 4036.18 -5.6164 -0.676563 0
M  V30 43664 H 4034.74 -6.50592 -0.3966 0
M  V30 43665 N 4038.17 -1.05938 -1.16683 0
M  V30 43666 C 4039.42 -0.775094 -1.87404 0
M  V30 43667 C 4039.75 0.696511 -1.8128 0
M  V30 43668 O 4039.02 1.50997 -1.22598 0
M  V30 43669 C 4039.31 -1.26575 -3.37121 0
M  V30 43670 C 4039.16 -2.80085 -3.51956 0
M  V30 43671 C 4040.48 -0.870771 -4.314 0
M  V30 43672 H 4037.6 -0.28304 -0.680483 0
M  V30 43673 H 4040.24 -1.31468 -1.37172 0
M  V30 43674 H 4038.39 -0.80672 -3.80032 0
M  V30 43675 H 4040.06 -3.34168 -3.18008 0
M  V30 43676 H 4038.3 -3.18992 -2.93984 0
M  V30 43677 H 4038.98 -3.09479 -4.57085 0
M  V30 43678 H 4041.45 -1.26607 -3.96371 0
M  V30 43679 H 4040.33 -1.2416 -5.34673 0
M  V30 43680 H 4040.59 0.224615 -4.41529 0
M  V30 43681 N 4039.65 1.33256 -0.841456 0
M  V30 43682 C 4041.06 1.80024 -0.494799 0
M  V30 43683 C 4041.41 1.69602 0.986387 0
M  V30 43684 O 4040.53 1.24681 1.76871 0
M  V30 43685 C 4041.13 3.26864 -0.891364 0
M  V30 43686 C 4039.69 3.71639 -0.596805 0
M  V30 43687 C 4038.84 2.54623 -1.09829 0
M  V30 43688 H 4041.79 1.20741 -1.02991 0
M  V30 43689 H 4041.81 3.79961 -0.202437 0
M  V30 43690 H 4041.32 3.34417 -1.96943 0
M  V30 43691 H 4039.42 3.6961 0.471088 0
M  V30 43692 H 4039.53 4.64998 -1.15385 0
M  V30 43693 H 4037.9 2.49355 -0.519054 0
M  V30 43694 H 4038.68 2.64937 -2.18319 0
M  V30 43695 N 4041.13 0.598134 1.45809 0
M  V30 43696 C 4042.4 0.022072 1.95588 0
M  V30 43697 C 4042.78 -1.44313 1.54068 0
M  V30 43698 O 4042.13 -2.14086 0.7987 0
M  V30 43699 C 4042.34 0.210265 3.48366 0
M  V30 43700 C 4043.69 0.086122 4.24513 0
M  V30 43701 O 4044.71 0.139895 3.55925 0
M  V30 43702 O 4043.57 -0.0367001 5.46488 0
M  V30 43703 H 4040.67 -0.0410978 0.825978 0
M  V30 43704 H 4043.21 0.667534 1.56019 0
M  V30 43705 H 4041.98 1.22824 3.71524 0
M  V30 43706 H 4041.61 -0.470905 3.94802 0
M  V30 43707 N 4042.6 -1.5396 0.33676 0
M  V30 43708 C 4043.53 -2.27736 -0.515624 0
M  V30 43709 C 4044.51 -1.29035 -1.10833 0
M  V30 43710 O 4045.7 -1.57868 -1.13099 0
M  V30 43711 C 4042.83 -3.04508 -1.6701 0
M  V30 43712 C 4041.78 -4.10656 -1.20606 0
M  V30 43713 C 4041.11 -4.75344 -2.44852 0
M  V30 43714 C 4042.41 -5.21371 -0.311415 0
M  V30 43715 H 4044.1 -2.99234 0.0998039 0
M  V30 43716 H 4041.65 -1.43915 0.049441 0
M  V30 43717 H 4043.6 -3.54855 -2.2728 0
M  V30 43718 H 4042.33 -2.3065 -2.31232 0
M  V30 43719 H 4040.99 -3.61212 -0.626217 0
M  V30 43720 H 4040.63 -3.98087 -3.07467 0
M  V30 43721 H 4040.33 -5.47054 -2.14488 0
M  V30 43722 H 4041.86 -5.28471 -3.05861 0
M  V30 43723 H 4043.27 -5.67394 -0.820768 0
M  V30 43724 H 4041.67 -6.00017 -0.0999672 0
M  V30 43725 H 4042.74 -4.80466 0.654266 0
M  V30 43726 N 4044.08 -0.0652232 -1.57465 0
M  V30 43727 C 4045.03 0.914269 -2.08866 0
M  V30 43728 C 4046.02 1.26297 -0.996886 0
M  V30 43729 O 4047.21 1.24305 -1.26005 0
M  V30 43730 C 4044.34 2.18418 -2.64856 0
M  V30 43731 C 4043.42 1.86225 -3.81026 0
M  V30 43732 N 4043.81 1.24452 -4.9025 0
M  V30 43733 C 4042.11 2.16013 -3.90198 0
M  V30 43734 C 4042.81 1.10204 -5.71166 0
M  V30 43735 N 4041.79 1.60958 -5.19224 0
M  V30 43736 H 4045.59 0.432231 -2.90704 0
M  V30 43737 H 4043.1 0.138849 -1.61805 0
M  V30 43738 H 4045.1 2.895 -2.99992 0
M  V30 43739 H 4043.76 2.67215 -1.84462 0
M  V30 43740 H 4044.77 0.914977 -5.09753 0
M  V30 43741 H 4041.45 2.67234 -3.20769 0
M  V30 43742 H 4042.84 0.62131 -6.69021 0
M  V30 43743 N 4045.56 1.56218 0.208282 0
M  V30 43744 C 4046.81 1.79042 0.928807 0
M  V30 43745 C 4047.12 0.63614 1.84967 0
M  V30 43746 O 4048.33 0.748348 2.60983 0
M  V30 43747 C 4046.78 3.17119 1.70186 0
M  V30 43748 C 4046.39 4.4031 0.826487 0
M  V30 43749 C 4048.14 3.49262 2.41281 0
M  V30 43750 C 4046.04 5.69411 1.59765 0
M  V30 43751 H 4044.97 0.667555 0.350551 0
M  V30 43752 H 4047.62 1.82592 0.182366 0
M  V30 43753 H 4046.01 3.07783 2.4917 0
M  V30 43754 H 4047.18 4.60737 0.076243 0
M  V30 43755 H 4045.49 4.15781 0.227019 0
M  V30 43756 H 4048.09 4.42947 2.99503 0
M  V30 43757 H 4048.43 2.72383 3.14823 0
M  V30 43758 H 4048.97 3.59987 1.69275 0
M  V30 43759 H 4045.71 6.49219 0.90527 0
M  V30 43760 H 4045.23 5.53024 2.32217 0
M  V30 43761 H 4046.91 6.1006 2.1549 0
M  V30 43762 N 4047.04 -0.475502 1.50256 0
M  V30 43763 C 4048.45 -1.05648 1.53933 0
M  V30 43764 C 4048.8 -1.93227 0.340259 0
M  V30 43765 O 4047.92 -2.09364 -0.547312 0
M  V30 43766 C 4048.52 -1.92276 2.78954 0
M  V30 43767 C 4047.08 -2.4549 2.85327 0
M  V30 43768 C 4046.23 -1.23725 2.48168 0
M  V30 43769 H 4049.18 -0.258305 1.56584 0
M  V30 43770 H 4049.2 -2.77288 2.6056 0
M  V30 43771 H 4048.71 -1.28508 3.66207 0
M  V30 43772 H 4046.81 -3.12824 2.02416 0
M  V30 43773 H 4046.92 -2.80899 3.88114 0
M  V30 43774 H 4045.29 -1.57063 2.00508 0
M  V30 43775 H 4046.07 -0.616264 3.37723 0
M  V30 43776 N 4048.52 -1.39759 -0.72837 0
M  V30 43777 C 4049.43 -1.41296 -1.87276 0
M  V30 43778 C 4050.44 -0.306995 -1.7127 0
M  V30 43779 O 4051.62 -0.549536 -1.93758 0
M  V30 43780 C 4048.68 -1.26135 -3.22941 0
M  V30 43781 C 4047.74 -2.46763 -3.51293 0
M  V30 43782 C 4046.98 -2.32315 -4.80484 0
M  V30 43783 O 4047.2 -1.33015 -5.54674 0
M  V30 43784 O 4046.13 -3.21434 -5.08885 0
M  V30 43785 H 4049.96 -2.37776 -1.88935 0
M  V30 43786 H 4047.54 -1.20945 -0.877082 0
M  V30 43787 H 4049.43 -1.19839 -4.04001 0
M  V30 43788 H 4048.1 -0.327549 -3.22039 0
M  V30 43789 H 4047.01 -2.58636 -2.70293 0
M  V30 43790 H 4048.34 -3.3886 -3.5698 0
M  V30 43791 N 4049.99 0.959257 -1.25044 0
M  V30 43792 C 4051.24 1.7033 -1.09517 0
M  V30 43793 C 4051.57 1.91052 0.36462 0
M  V30 43794 O 4050.82 1.47569 1.28538 0
M  V30 43795 C 4051.12 3.09371 -1.78954 0
M  V30 43796 C 4050.79 3.08463 -3.28879 0
M  V30 43797 C 4049.45 3.07923 -3.69779 0
M  V30 43798 C 4051.8 3.02147 -4.24684 0
M  V30 43799 C 4049.13 2.9881 -5.04906 0
M  V30 43800 C 4051.48 2.94575 -5.59829 0
M  V30 43801 C 4050.15 2.92368 -6.00064 0
M  V30 43802 H 4049.42 0.623281 -0.400752 0
M  V30 43803 H 4052.06 1.12105 -1.55257 0
M  V30 43804 H 4050.37 3.71112 -1.25632 0
M  V30 43805 H 4052.07 3.65752 -1.64397 0
M  V30 43806 H 4048.66 3.09653 -2.96332 0
M  V30 43807 H 4052.84 3.01687 -3.9408 0
M  V30 43808 H 4048.1 2.95467 -5.35266 0
M  V30 43809 H 4052.27 2.88648 -6.33763 0
M  V30 43810 H 4049.9 2.85061 -7.0473 0
M  V30 43811 N 4051.47 1.06556 1.16119 0
M  V30 43812 C 4052.4 0.636656 2.2018 0
M  V30 43813 C 4053.42 -0.306703 1.59885 0
M  V30 43814 O 4054.61 -0.0972787 1.78235 0
M  V30 43815 C 4051.71 -0.0864945 3.3879 0
M  V30 43816 C 4050.88 0.871016 4.2864 0
M  V30 43817 C 4049.94 0.186631 5.25869 0
M  V30 43818 O 4048.96 0.825127 5.63188 0
M  V30 43819 N 4050.17 -1.0708 5.70538 0
M  V30 43820 H 4052.93 1.5318 2.57597 0
M  V30 43821 H 4050.49 0.949208 1.31155 0
M  V30 43822 H 4052.48 -0.554811 4.00879 0
M  V30 43823 H 4051.05 -0.883472 2.99856 0
M  V30 43824 H 4050.27 1.51864 3.63773 0
M  V30 43825 H 4051.56 1.52049 4.8555 0
M  V30 43826 H 4050.96 -1.60963 5.42317 0
M  V30 43827 H 4049.52 -1.48294 6.34706 0
M  V30 43828 N 4052.95 -1.32808 0.848511 0
M  V30 43829 C 4053.88 -2.31514 0.303926 0
M  V30 43830 C 4054.86 -1.59407 -0.593593 0
M  V30 43831 O 4056.05 -1.87243 -0.515126 0
M  V30 43832 C 4053.18 -3.43479 -0.513739 0
M  V30 43833 C 4052.13 -4.27024 0.288815 0
M  V30 43834 C 4051.46 -5.30695 -0.653204 0
M  V30 43835 C 4052.76 -4.9996 1.51119 0
M  V30 43836 H 4054.45 -2.77311 1.12867 0
M  V30 43837 H 4052 -1.33322 0.544182 0
M  V30 43838 H 4053.95 -4.11565 -0.905091 0
M  V30 43839 H 4052.67 -2.96394 -1.37179 0
M  V30 43840 H 4051.33 -3.60576 0.661845 0
M  V30 43841 H 4050.98 -4.79865 -1.50792 0
M  V30 43842 H 4050.68 -5.87477 -0.120265 0
M  V30 43843 H 4052.2 -6.01646 -1.04186 0
M  V30 43844 H 4053.62 -5.60761 1.19247 0
M  V30 43845 H 4052.02 -5.66438 1.98162 0
M  V30 43846 H 4053.09 -4.28178 2.27578 0
M  V30 43847 N 4054.43 -0.605858 -1.45489 0
M  V30 43848 C 4055.84 -0.185623 -1.85775 0
M  V30 43849 C 4056.19 1.25706 -1.5064 0
M  V30 43850 O 4055.32 1.95289 -0.932261 0
M  V30 43851 C 4055.91 -0.330103 -3.37188 0
M  V30 43852 C 4054.47 0.0354272 -3.76383 0
M  V30 43853 C 4053.62 -0.655345 -2.69445 0
M  V30 43854 H 4056.57 -0.812648 -1.36315 0
M  V30 43855 H 4056.59 0.438169 -3.77969 0
M  V30 43856 H 4056.1 -1.3802 -3.62729 0
M  V30 43857 H 4054.2 1.08477 -3.5646 0
M  V30 43858 H 4054.31 -0.357019 -4.77768 0
M  V30 43859 H 4052.68 -0.0931682 -2.5453 0
M  V30 43860 H 4053.46 -1.70754 -2.97822 0
M  V30 43861 N 4055.91 1.53779 -0.34492 0
M  V30 43862 C 4056.86 2.2182 0.527236 0
M  V30 43863 C 4057.84 1.20609 1.065 0
M  V30 43864 O 4059.03 1.46149 0.998476 0
M  V30 43865 C 4056.16 2.99554 1.67698 0
M  V30 43866 C 4055.25 4.08124 1.15308 0
M  V30 43867 N 4055.64 5.04584 0.350521 0
M  V30 43868 C 4053.94 4.22459 1.42985 0
M  V30 43869 C 4054.64 5.81662 0.066056 0
M  V30 43870 N 4053.61 5.39602 0.658073 0
M  V30 43871 H 4057.42 2.93753 -0.0929864 0
M  V30 43872 H 4054.93 1.61688 -0.151856 0
M  V30 43873 H 4056.93 3.468 2.31377 0
M  V30 43874 H 4055.59 2.29148 2.30047 0
M  V30 43875 H 4056.6 5.17899 -0.00851464 0
M  V30 43876 H 4053.27 3.63274 2.05763 0
M  V30 43877 H 4054.66 6.6938 -0.581433 0
M  V30 43878 N 4057.38 0.0735731 1.57428 0
M  V30 43879 C 4058.63 -0.594715 1.92733 0
M  V30 43880 C 4058.95 -1.70661 0.955723 0
M  V30 43881 O 4060.15 -2.43459 1.20166 0
M  V30 43882 C 4058.61 -1.10921 3.42381 0
M  V30 43883 C 4058.22 -0.028222 4.47991 0
M  V30 43884 C 4059.96 -1.75146 3.86683 0
M  V30 43885 C 4057.87 -0.556862 5.88772 0
M  V30 43886 H 4056.8 -0.225917 0.719359 0
M  V30 43887 H 4059.45 0.146095 1.82917 0
M  V30 43888 H 4057.83 -1.90304 3.47276 0
M  V30 43889 H 4059 0.74642 4.54714 0
M  V30 43890 H 4057.32 0.517908 4.13167 0
M  V30 43891 H 4059.92 -2.15732 4.89248 0
M  V30 43892 H 4060.26 -2.61216 3.24148 0
M  V30 43893 H 4060.79 -1.02382 3.84399 0
M  V30 43894 H 4057.53 0.266717 6.54957 0
M  V30 43895 H 4057.05 -1.29899 5.85565 0
M  V30 43896 H 4058.73 -1.0327 6.38705 0
M  V30 43897 N 4058.86 -1.56326 -0.199995 0
M  V30 43898 C 4060.09 -1.84794 -0.941584 0
M  V30 43899 C 4060.51 -0.656556 -1.7627 0
M  V30 43900 O 4059.87 0.394672 -1.76952 0
M  V30 43901 C 4059.92 -3.11448 -1.81748 0
M  V30 43902 O 4059.02 -2.91656 -2.91566 0
M  V30 43903 H 4058.36 -0.608639 -0.265434 0
M  V30 43904 H 4060.89 -2.03552 -0.20679 0
M  V30 43905 H 4060.9 -3.42114 -2.2231 0
M  V30 43906 H 4059.58 -3.97783 -1.21413 0
M  V30 43907 H 4058.16 -2.72276 -2.54795 0
M  V30 43908 N 4060.34 0.467527 -1.50506 0
M  V30 43909 C 4061.29 1.56277 -1.66017 0
M  V30 43910 C 4062.27 1.52446 -0.514697 0
M  V30 43911 O 4063.47 1.59409 -0.769266 0
M  V30 43912 C 4060.6 2.94697 -1.76093 0
M  V30 43913 C 4059.68 3.03398 -2.96328 0
M  V30 43914 N 4060.07 2.81906 -4.19955 0
M  V30 43915 C 4058.37 3.34537 -2.94959 0
M  V30 43916 C 4059.07 2.95667 -5.00955 0
M  V30 43917 N 4058.05 3.26023 -4.34982 0
M  V30 43918 H 4061.85 1.38365 -2.59292 0
M  V30 43919 H 4059.36 0.674321 -1.47739 0
M  V30 43920 H 4061.36 3.73451 -1.8531 0
M  V30 43921 H 4060.02 3.13652 -0.839789 0
M  V30 43922 H 4061.03 2.57418 -4.49395 0
M  V30 43923 H 4057.71 3.59458 -2.12359 0
M  V30 43924 H 4059.1 2.8326 -6.09273 0
M  V30 43925 N 4061.82 1.40143 0.720948 0
M  V30 43926 C 4063.05 1.41434 1.5101 0
M  V30 43927 C 4063.46 0.0125848 1.88796 0
M  V30 43928 O 4062.82 -0.96219 1.55075 0
M  V30 43929 C 4062.87 2.30015 2.78882 0
M  V30 43930 O 4062.59 3.64733 2.42696 0
M  V30 43931 C 4064.09 2.3984 3.72816 0
M  V30 43932 H 4061.31 0.48259 0.466205 0
M  V30 43933 H 4063.86 1.8413 0.889745 0
M  V30 43934 H 4062.01 1.90695 3.37215 0
M  V30 43935 H 4062.42 4.11723 3.24938 0
M  V30 43936 H 4063.9 3.0604 4.59395 0
M  V30 43937 H 4064.38 1.42181 4.15549 0
M  V30 43938 H 4064.98 2.79689 3.20397 0
M  V30 43939 N 4063.3 -0.952612 1.25551 0
M  V30 43940 C 4064.55 -1.69186 1.09814 0
M  V30 43941 C 4064.86 -1.92252 -0.360334 0
M  V30 43942 O 4066.06 -2.63893 -0.638182 0
M  V30 43943 C 4064.52 -3.04597 1.91699 0
M  V30 43944 C 4064.13 -2.8932 3.4205 0
M  V30 43945 C 4065.87 -3.82291 1.84537 0
M  V30 43946 C 4063.78 -4.20134 4.16223 0
M  V30 43947 H 4062.71 -0.634499 0.407341 0
M  V30 43948 H 4065.36 -1.06033 1.49764 0
M  V30 43949 H 4063.74 -3.68666 1.44573 0
M  V30 43950 H 4064.92 -2.34171 3.96863 0
M  V30 43951 H 4063.23 -2.25079 3.50326 0
M  V30 43952 H 4065.83 -4.79185 2.37246 0
M  V30 43953 H 4066.17 -4.08271 0.813682 0
M  V30 43954 H 4066.7 -3.24976 2.29424 0
M  V30 43955 H 4063.44 -3.99343 5.19813 0
M  V30 43956 H 4062.96 -4.7504 3.66192 0
M  V30 43957 H 4064.64 -4.88663 4.24049 0
M  V30 43958 N 4064.77 -1.0717 -1.15553 0
M  V30 43959 C 4065.68 -0.701754 -2.23858 0
M  V30 43960 C 4066.7 0.286179 -1.7163 0
M  V30 43961 O 4067.88 0.133273 -2.00959 0
M  V30 43962 C 4064.94 -0.103226 -3.46546 0
M  V30 43963 C 4064 -1.14416 -4.13772 0
M  V30 43964 C 4063.24 -0.5741 -5.30603 0
M  V30 43965 O 4063.46 0.610421 -5.67124 0
M  V30 43966 O 4062.39 -1.3181 -5.8729 0
M  V30 43967 H 4066.22 -1.60491 -2.5783 0
M  V30 43968 H 4063.8 -0.844535 -1.23239 0
M  V30 43969 H 4065.69 0.228378 -4.20781 0
M  V30 43970 H 4064.36 0.773284 -3.14328 0
M  V30 43971 H 4063.27 -1.52809 -3.41468 0
M  V30 43972 H 4064.6 -1.99251 -4.50067 0
M  V30 43973 N 4066.25 1.32356 -0.855542 0
M  V30 43974 C 4067.5 1.97513 -0.460037 0
M  V30 43975 C 4067.83 1.67541 0.982023 0
M  V30 43976 O 4067.11 0.96412 1.68923 0
M  V30 43977 C 4067.39 3.53217 -0.700702 0
M  V30 43978 C 4067.24 3.92816 -2.19125 0
M  V30 43979 C 4068.56 4.39817 -0.157675 0
M  V30 43980 H 4065.68 0.717452 -0.168618 0
M  V30 43981 H 4068.32 1.56724 -1.07413 0
M  V30 43982 H 4066.47 3.88092 -0.178005 0
M  V30 43983 H 4068.15 3.68115 -2.78009 0
M  V30 43984 H 4066.39 3.41943 -2.6694 0
M  V30 43985 H 4067.06 5.01326 -2.31033 0
M  V30 43986 H 4069.54 4.11683 -0.604669 0
M  V30 43987 H 4068.41 5.47747 -0.355628 0
M  V30 43988 H 4068.67 4.32 0.939603 0
M  V30 43989 N 4067.73 0.613565 1.45166 0
M  V30 43990 C 4069.14 0.195473 1.85674 0
M  V30 43991 C 4069.49 -1.24905 1.51305 0
M  V30 43992 O 4068.62 -1.94792 0.942605 0
M  V30 43993 C 4069.21 0.34798 3.37008 0
M  V30 43994 C 4067.77 -0.0154662 3.76397 0
M  V30 43995 C 4066.92 0.669625 2.69094 0
M  V30 43996 H 4069.87 0.819866 1.35882 0
M  V30 43997 H 4069.89 -0.418119 3.78196 0
M  V30 43998 H 4069.4 1.39942 3.61992 0
M  V30 43999 H 4067.5 -1.06585 3.5703 0
M  V30 44000 H 4067.62 0.382351 4.77572 0
M  V30 44001 H 4065.98 0.106665 2.54477 0
M  V30 44002 H 4066.76 1.72331 2.96912 0
M  V30 44003 N 4069.21 -1.53594 0.353071 0
M  V30 44004 C 4070.44 -2.05484 -0.241629 0
M  V30 44005 C 4070.85 -1.22743 -1.43456 0
M  V30 44006 O 4070.21 -0.265042 -1.80565 0
M  V30 44007 C 4070.26 -3.55656 -0.647379 0
M  V30 44008 O 4069.98 -4.35259 0.498124 0
M  V30 44009 C 4071.48 -4.23755 -1.30179 0
M  V30 44010 H 4068.7 -0.669492 -0.0449586 0
M  V30 44011 H 4071.25 -1.98095 0.507818 0
M  V30 44012 H 4069.4 -3.63237 -1.34676 0
M  V30 44013 H 4069.82 -5.24215 0.172778 0
M  V30 44014 H 4071.29 -5.30188 -1.53637 0
M  V30 44015 H 4071.77 -3.76694 -2.25828 0
M  V30 44016 H 4072.37 -4.20393 -0.644191 0
M  V30 44017 N 4070.69 -0.0819208 -1.57387 0
M  V30 44018 C 4071.93 0.584865 -1.9387 0
M  V30 44019 C 4072.26 1.69003 -0.962716 0
M  V30 44020 O 4071.52 1.9569 0.0199611 0
M  V30 44021 C 4071.82 1.19187 -3.36941 0
M  V30 44022 C 4071.48 0.211828 -4.50402 0
M  V30 44023 C 4070.14 -0.0577603 -4.81165 0
M  V30 44024 C 4072.5 -0.458083 -5.19183 0
M  V30 44025 C 4069.82 -1.00418 -5.78043 0
M  V30 44026 C 4072.18 -1.39289 -6.17075 0
M  V30 44027 C 4070.84 -1.67084 -6.4625 0
M  V30 44028 H 4070.11 0.214017 -0.709421 0
M  V30 44029 H 4072.76 -0.154952 -1.90872 0
M  V30 44030 H 4071.06 2.00765 -3.36453 0
M  V30 44031 H 4072.76 1.71526 -3.62464 0
M  V30 44032 H 4069.35 0.432135 -4.26416 0
M  V30 44033 H 4073.53 -0.262934 -4.95603 0
M  V30 44034 H 4068.79 -1.22667 -5.98968 0
M  V30 44035 H 4072.96 -1.91787 -6.6947 0
M  V30 44036 H 4070.59 -2.40579 -7.21128 0
M  V30 44037 N 4072.17 1.5643 0.191702 0
M  V30 44038 C 4073.41 1.80465 0.909765 0
M  V30 44039 C 4073.73 0.655548 1.83651 0
M  V30 44040 O 4073 -0.325912 1.9317 0
M  V30 44041 H 4071.58 0.665683 0.338932 0
M  V30 44042 H 4074.25 1.93908 0.196398 0
M  V30 44043 H 4073.34 2.73753 1.49886 0
M  V30 44044 N 4073.64 -0.459538 1.50751 0
M  V30 44045 C 4074.59 -1.55606 1.70457 0
M  V30 44046 C 4075.56 -1.56871 0.545949 0
M  V30 44047 O 4076.75 -1.74224 0.777855 0
M  V30 44048 C 4073.89 -2.93498 1.81529 0
M  V30 44049 C 4073 -3.01933 3.08967 0
M  V30 44050 C 4072.13 -4.30811 3.10766 0
M  V30 44051 C 4071.17 -4.3303 4.3261 0
M  V30 44052 N 4070.31 -5.53397 4.32083 0
M  V30 44053 H 4075.15 -1.38108 2.64065 0
M  V30 44054 H 4072.69 -0.671284 1.3089 0
M  V30 44055 H 4074.64 -3.73478 1.8593 0
M  V30 44056 H 4073.27 -3.09605 0.9135 0
M  V30 44057 H 4072.33 -2.14753 3.13983 0
M  V30 44058 H 4073.64 -2.99433 3.98925 0
M  V30 44059 H 4072.79 -5.19147 3.1396 0
M  V30 44060 H 4071.53 -4.35936 2.18658 0
M  V30 44061 H 4070.54 -3.43089 4.29616 0
M  V30 44062 H 4071.76 -4.29587 5.25958 0
M  V30 44063 H 4069.71 -5.59286 3.42834 0
M  V30 44064 H 4069.62 -5.52686 5.15824 0
M  V30 44065 H 4070.89 -6.43827 4.39439 0
M  V30 44066 N 4075.12 -1.40523 -0.713506 0
M  V30 44067 C 4076.05 -1.4371 -1.84037 0
M  V30 44068 C 4077.03 -0.297781 -1.67473 0
M  V30 44069 O 4078.22 -0.506695 -1.87473 0
M  V30 44070 C 4075.35 -1.301 -3.22011 0
M  V30 44071 C 4074.3 -2.41656 -3.53251 0
M  V30 44072 C 4073.63 -2.13121 -4.90391 0
M  V30 44073 C 4074.93 -3.83998 -3.54038 0
M  V30 44074 H 4076.62 -2.38016 -1.81628 0
M  V30 44075 H 4074.17 -1.14564 -0.872417 0
M  V30 44076 H 4076.12 -1.30945 -4.00539 0
M  V30 44077 H 4074.84 -0.322705 -3.25002 0
M  V30 44078 H 4073.5 -2.40064 -2.77065 0
M  V30 44079 H 4073.15 -1.13678 -4.89986 0
M  V30 44080 H 4072.85 -2.87862 -5.12259 0
M  V30 44081 H 4074.38 -2.15652 -5.7125 0
M  V30 44082 H 4075.79 -3.87402 -4.22602 0
M  V30 44083 H 4074.19 -4.58275 -3.87433 0
M  V30 44084 H 4075.26 -4.13433 -2.5338 0
M  V30 44085 N 4076.6 0.94594 -1.26054 0
M  V30 44086 C 4077.83 1.72356 -1.13916 0
M  V30 44087 C 4078.24 1.86662 0.308852 0
M  V30 44088 O 4077.58 1.37014 1.22364 0
M  V30 44089 C 4077.64 3.15141 -1.72992 0
M  V30 44090 C 4077.31 3.24236 -3.22056 0
M  V30 44091 C 4078.3 3.07878 -4.18935 0
M  V30 44092 C 4075.99 3.47778 -3.6243 0
M  V30 44093 C 4077.98 3.14924 -5.54168 0
M  V30 44094 C 4075.67 3.54459 -4.97797 0
M  V30 44095 C 4076.67 3.38047 -5.93475 0
M  V30 44096 O 4076.36 3.44427 -7.26378 0
M  V30 44097 H 4076.09 0.546615 -0.397729 0
M  V30 44098 H 4078.64 1.19473 -1.67079 0
M  V30 44099 H 4076.87 3.69426 -1.14287 0
M  V30 44100 H 4078.56 3.74796 -1.55828 0
M  V30 44101 H 4079.33 2.89551 -3.89083 0
M  V30 44102 H 4075.21 3.5961 -2.88447 0
M  V30 44103 H 4078.75 3.02031 -6.28827 0
M  V30 44104 H 4074.65 3.72306 -5.27313 0
M  V30 44105 H 4075.41 3.61001 -7.34588 0
M  V30 44106 N 4078.08 1.07781 1.14983 0
M  V30 44107 C 4079.3 0.824969 1.90287 0
M  V30 44108 C 4079.73 -0.616493 1.7771 0
M  V30 44109 O 4079.09 -1.43128 1.11284 0
M  V30 44110 C 4079.13 1.24354 3.3848 0
M  V30 44111 O 4078.24 0.391526 4.10537 0
M  V30 44112 H 4077.58 0.300173 0.592277 0
M  V30 44113 H 4080.11 1.43757 1.45585 0
M  V30 44114 H 4080.12 1.22162 3.89282 0
M  V30 44115 H 4078.79 2.29341 3.46952 0
M  V30 44116 H 4077.37 0.476312 3.69845 0
M  V30 44117 N 4079.56 -1.31901 0.862549 0
M  V30 44118 C 4080.8 -1.96243 0.465991 0
M  V30 44119 C 4081.12 -1.68976 -0.985213 0
M  V30 44120 O 4082.32 -2.2712 -1.48757 0
M  V30 44121 C 4080.78 -3.51293 0.78238 0
M  V30 44122 C 4080.39 -3.87409 2.24984 0
M  V30 44123 C 4082.13 -4.22066 0.453931 0
M  V30 44124 C 4080.04 -5.35538 2.50904 0
M  V30 44125 H 4078.97 -0.734463 0.170528 0
M  V30 44126 H 4081.62 -1.5018 1.05442 0
M  V30 44127 H 4080 -3.95808 0.123286 0
M  V30 44128 H 4081.18 -3.53878 2.95138 0
M  V30 44129 H 4079.49 -3.29682 2.54359 0
M  V30 44130 H 4082.09 -5.31036 0.624905 0
M  V30 44131 H 4082.43 -4.11879 -0.605073 0
M  V30 44132 H 4082.96 -3.8316 1.06925 0
M  V30 44133 H 4079.7 -5.50753 3.55459 0
M  V30 44134 H 4079.22 -5.70448 1.85336 0
M  V30 44135 H 4080.9 -6.02714 2.35254 0
M  V30 44136 N 4081.03 -0.621255 -1.44838 0
M  V30 44137 C 4081.96 0.0765876 -2.33374 0
M  V30 44138 C 4082.95 0.844906 -1.47632 0
M  V30 44139 O 4084.13 0.812749 -1.76375 0
M  V30 44140 C 4081.26 1.06544 -3.30554 0
M  V30 44141 C 4080.21 0.409421 -4.26037 0
M  V30 44142 C 4079.54 1.50748 -5.1301 0
M  V30 44143 C 4080.84 -0.678085 -5.1788 0
M  V30 44144 H 4082.53 -0.662709 -2.91973 0
M  V30 44145 H 4080.08 -0.320142 -1.40396 0
M  V30 44146 H 4082.03 1.5623 -3.9137 0
M  V30 44147 H 4080.76 1.8355 -2.70142 0
M  V30 44148 H 4079.42 -0.0666965 -3.66539 0
M  V30 44149 H 4079.06 2.26817 -4.48958 0
M  V30 44150 H 4078.76 1.07397 -5.77702 0
M  V30 44151 H 4080.29 2.00634 -5.76696 0
M  V30 44152 H 4081.7 -0.264738 -5.72688 0
M  V30 44153 H 4080.1 -1.03415 -5.91122 0
M  V30 44154 H 4081.17 -1.54922 -4.59486 0
M  V30 44155 N 4082.51 1.53405 -0.361211 0
M  V30 44156 C 4083.46 2.25596 0.48733 0
M  V30 44157 C 4084.43 1.26099 1.08112 0
M  V30 44158 O 4085.61 1.54871 1.11443 0
M  V30 44159 C 4082.75 3.04534 1.62337 0
M  V30 44160 C 4081.87 4.18915 1.05517 0
M  V30 44161 C 4081 4.85303 2.15996 0
M  V30 44162 C 4080.04 5.91724 1.56619 0
M  V30 44163 N 4079.18 6.5182 2.60912 0
M  V30 44164 H 4084.02 2.97695 -0.134801 0
M  V30 44165 H 4081.56 1.46891 -0.0782946 0
M  V30 44166 H 4083.51 3.48572 2.29246 0
M  V30 44167 H 4082.14 2.34699 2.21622 0
M  V30 44168 H 4081.2 3.79394 0.276495 0
M  V30 44169 H 4082.51 4.95404 0.581024 0
M  V30 44170 H 4081.66 5.32502 2.90734 0
M  V30 44171 H 4080.4 4.08277 2.66761 0
M  V30 44172 H 4079.41 5.43891 0.803935 0
M  V30 44173 H 4080.63 6.70668 1.06684 0
M  V30 44174 H 4078.58 5.77649 3.10899 0
M  V30 44175 H 4078.49 7.23835 2.18171 0
M  V30 44176 H 4079.76 7.03669 3.35366 0
M  V30 44177 N 4083.99 0.0902663 1.57341 0
M  V30 44178 C 4085.24 -0.574239 1.93353 0
M  V30 44179 C 4085.55 -1.69638 0.97377 0
M  V30 44180 O 4086.76 -2.42171 1.22742 0
M  V30 44181 C 4085.21 -1.07283 3.43538 0
M  V30 44182 C 4084.82 0.019295 4.47996 0
M  V30 44183 C 4086.57 -1.71035 3.88519 0
M  V30 44184 C 4084.47 -0.494383 5.8933 0
M  V30 44185 H 4083.4 -0.218275 0.721715 0
M  V30 44186 H 4086.05 0.165488 1.82752 0
M  V30 44187 H 4084.44 -1.8661 3.49275 0
M  V30 44188 H 4085.61 0.794607 4.53897 0
M  V30 44189 H 4083.93 0.5617 4.12594 0
M  V30 44190 H 4086.52 -2.10531 4.91509 0
M  V30 44191 H 4086.87 -2.57763 3.269 0
M  V30 44192 H 4087.4 -0.98299 3.85464 0
M  V30 44193 H 4084.14 0.336169 6.54637 0
M  V30 44194 H 4083.66 -1.23681 5.8691 0
M  V30 44195 H 4085.34 -0.964901 6.39765 0
M  V30 44196 N 4085.47 -1.56529 -0.183403 0
M  V30 44197 C 4086.4 -1.92014 -1.25154 0
M  V30 44198 C 4087.41 -0.81197 -1.41106 0
M  V30 44199 O 4088.6 -1.0904 -1.41324 0
M  V30 44200 C 4085.7 -2.14717 -2.62202 0
M  V30 44201 C 4084.88 -3.45908 -2.67706 0
M  V30 44202 C 4083.93 -3.57583 -3.86032 0
M  V30 44203 O 4082.96 -4.30307 -3.72591 0
M  V30 44204 N 4084.16 -2.91536 -5.01983 0
M  V30 44205 H 4086.93 -2.84236 -0.950254 0
M  V30 44206 H 4084.49 -1.57539 -0.373251 0
M  V30 44207 H 4086.48 -2.19804 -3.39806 0
M  V30 44208 H 4085.05 -1.28937 -2.8477 0
M  V30 44209 H 4084.27 -3.52585 -1.76288 0
M  V30 44210 H 4085.56 -4.32259 -2.68384 0
M  V30 44211 H 4084.96 -2.32301 -5.15803 0
M  V30 44212 H 4083.51 -3.02236 -5.77492 0
M  V30 44213 N 4086.95 0.451537 -1.50993 0
M  V30 44214 C 4088.17 1.22955 -1.67023 0
M  V30 44215 C 4088.6 1.846 -0.361182 0
M  V30 44216 O 4087.95 1.68179 0.677164 0
M  V30 44217 C 4088 2.29975 -2.77748 0
M  V30 44218 O 4087.11 3.35112 -2.40362 0
M  V30 44219 H 4086.45 0.360872 -0.557375 0
M  V30 44220 H 4088.98 0.535038 -1.9748 0
M  V30 44221 H 4088.99 2.74983 -3.01411 0
M  V30 44222 H 4087.66 1.84482 -3.72746 0
M  V30 44223 H 4086.24 2.95679 -2.27219 0
M  V30 44224 N 4088.42 1.409 0.706044 0
M  V30 44225 C 4089.84 1.35388 1.28557 0
M  V30 44226 C 4090.19 0.0319247 1.96174 0
M  V30 44227 O 4089.31 -0.869983 1.98142 0
M  V30 44228 C 4089.91 2.45218 2.33781 0
M  V30 44229 C 4088.47 2.43137 2.87335 0
M  V30 44230 C 4087.61 2.25604 1.61239 0
M  V30 44231 H 4090.56 1.50567 0.501512 0
M  V30 44232 H 4090.58 2.13674 3.14839 0
M  V30 44233 H 4090.1 3.41419 1.84539 0
M  V30 44234 H 4088.2 1.50662 3.40781 0
M  V30 44235 H 4088.31 3.39071 3.38479 0
M  V30 44236 H 4086.67 1.73291 1.86661 0
M  V30 44237 H 4087.46 3.23816 1.14008 0
M  V30 44238 N 4089.9 -0.939242 1.26554 0
M  V30 44239 C 4090.83 -2.05547 1.10782 0
M  V30 44240 C 4091.81 -1.70095 0.0124658 0
M  V30 44241 O 4093 -1.93318 0.184848 0
M  V30 44242 C 4090.13 -3.3928 0.74207 0
M  V30 44243 C 4089.08 -3.888 1.78937 0
M  V30 44244 C 4088.41 -5.19205 1.2779 0
M  V30 44245 C 4089.71 -4.13467 3.19128 0
M  V30 44246 H 4091.4 -2.19001 2.04155 0
M  V30 44247 H 4088.95 -1.05233 0.982959 0
M  V30 44248 H 4090.9 -4.16835 0.618599 0
M  V30 44249 H 4089.63 -3.25808 -0.227363 0
M  V30 44250 H 4088.28 -3.13427 1.90155 0
M  V30 44251 H 4087.93 -5.02115 0.298248 0
M  V30 44252 H 4087.63 -5.53307 1.978 0
M  V30 44253 H 4089.16 -5.99342 1.16713 0
M  V30 44254 H 4090.57 -4.81629 3.10976 0
M  V30 44255 H 4088.97 -4.58855 3.86746 0
M  V30 44256 H 4090.04 -3.19177 3.6504 0
M  V30 44257 N 4091.38 -1.08389 -1.14409 0
M  V30 44258 C 4092.63 -0.813466 -1.85443 0
M  V30 44259 C 4092.96 0.660748 -1.82933 0
M  V30 44260 O 4092.21 1.5016 -1.25501 0
M  V30 44261 C 4092.51 -1.28036 -3.33679 0
M  V30 44262 C 4092.18 -2.76235 -3.56377 0
M  V30 44263 C 4090.84 -3.16711 -3.62281 0
M  V30 44264 C 4093.19 -3.71841 -3.65217 0
M  V30 44265 C 4090.52 -4.51588 -3.74546 0
M  V30 44266 C 4092.87 -5.06493 -3.79008 0
M  V30 44267 C 4091.53 -5.46575 -3.83161 0
M  V30 44268 H 4090.8 -0.297668 -0.678583 0
M  V30 44269 H 4093.45 -1.3568 -1.35142 0
M  V30 44270 H 4091.76 -0.656619 -3.86259 0
M  V30 44271 H 4093.45 -1.04788 -3.87067 0
M  V30 44272 H 4090.04 -2.43907 -3.52431 0
M  V30 44273 H 4094.23 -3.4169 -3.59946 0
M  V30 44274 H 4089.48 -4.82096 -3.76023 0
M  V30 44275 H 4093.66 -5.80439 -3.8479 0
M  V30 44276 H 4091.28 -6.51086 -3.92417 0
M  V30 44277 N 4092.86 1.31442 -0.869532 0
M  V30 44278 C 4094.09 2.00899 -0.494703 0
M  V30 44279 C 4094.5 1.65273 0.912699 0
M  V30 44280 O 4093.86 0.881731 1.59787 0
M  V30 44281 C 4093.91 3.5576 -0.641647 0
M  V30 44282 O 4093.63 3.90111 -1.99362 0
M  V30 44283 C 4095.13 4.42491 -0.267773 0
M  V30 44284 H 4092.35 0.642704 -0.1928 0
M  V30 44285 H 4094.9 1.67683 -1.17058 0
M  V30 44286 H 4093.05 3.87398 -0.0133313 0
M  V30 44287 H 4093.46 4.84827 -2.00108 0
M  V30 44288 H 4094.94 5.50388 -0.421545 0
M  V30 44289 H 4095.42 4.31981 0.793032 0
M  V30 44290 H 4096.02 4.16269 -0.871771 0
M  V30 44291 N 4094.34 0.628927 1.44507 0
M  V30 44292 C 4095.27 -0.0642101 2.33412 0
M  V30 44293 C 4096.25 -0.837065 1.48078 0
M  V30 44294 O 4097.43 -0.803384 1.76803 0
M  V30 44295 C 4094.56 -1.04789 3.31114 0
M  V30 44296 C 4093.52 -0.386822 4.26248 0
M  V30 44297 C 4092.84 -1.48026 5.13802 0
M  V30 44298 C 4094.14 0.70554 5.17513 0
M  V30 44299 H 4095.84 0.678184 2.91618 0
M  V30 44300 H 4093.38 0.327583 1.40224 0
M  V30 44301 H 4095.34 -1.54152 3.92193 0
M  V30 44302 H 4094.06 -1.82115 2.71112 0
M  V30 44303 H 4092.72 0.0861341 3.66499 0
M  V30 44304 H 4092.37 -2.24433 4.50154 0
M  V30 44305 H 4092.07 -1.04332 5.78263 0
M  V30 44306 H 4093.59 -1.97573 5.77752 0
M  V30 44307 H 4095 0.295105 5.7254 0
M  V30 44308 H 4093.4 1.06548 5.90565 0
M  V30 44309 H 4094.47 1.57357 4.58658 0
M  V30 44310 N 4095.82 -1.53211 0.369342 0
M  V30 44311 C 4097.09 -1.93647 -0.275747 0
M  V30 44312 C 4097.47 -1.30319 -1.66073 0
M  V30 44313 O 4096.82 -0.463697 -2.23746 0
M  V30 44314 C 4097.03 -3.4751 -0.322178 0
M  V30 44315 C 4098.38 -4.20881 -0.560724 0
M  V30 44316 O 4099.4 -3.5391 -0.403229 0
M  V30 44317 O 4098.26 -5.39568 -0.867686 0
M  V30 44318 H 4095.36 -0.810111 -0.166282 0
M  V30 44319 H 4097.9 -1.64359 0.422399 0
M  V30 44320 H 4096.67 -3.85885 0.648716 0
M  V30 44321 H 4096.3 -3.83042 -1.06606 0
M  V30 44322 N 4097.29 -0.0986092 -1.57291 0
M  V30 44323 C 4098.26 0.844591 -2.13071 0
M  V30 44324 C 4099.26 1.20847 -1.06078 0
M  V30 44325 O 4100.45 1.13733 -1.31949 0
M  V30 44326 C 4097.58 2.13928 -2.65419 0
M  V30 44327 H 4098.77 0.360177 -2.97729 0
M  V30 44328 H 4096.32 0.150424 -1.55574 0
M  V30 44329 H 4097.06 2.66847 -1.84291 0
M  V30 44330 H 4096.84 1.88805 -3.4365 0
M  V30 44331 H 4098.33 2.81394 -3.08556 0
M  V30 44332 N 4098.77 1.56624 0.175099 0
M  V30 44333 C 4099.72 1.9703 1.2362 0
M  V30 44334 C 4100.71 0.858511 1.46034 0
M  V30 44335 O 4101.92 1.04361 1.46659 0
M  V30 44336 H 4098.29 0.626813 0.415463 0
M  V30 44337 H 4100.27 2.85481 0.86852 0
M  V30 44338 C 4099.01 2.34312 2.56891 0
M  V30 44339 H 4098.34 3.194 2.40466 0
M  V30 44340 H 4099.78 2.66431 3.29834 0
M  V30 44341 C 4098.24 1.18512 3.15367 0
M  V30 44342 O 4098.77 0.470764 3.98932 0
M  V30 44343 N 4096.97 0.956673 2.74401 0
M  V30 44344 H 4096.52 1.53933 2.06549 0
M  V30 44345 H 4096.48 0.183703 3.13863 0
M  V30 44346 N 4100.25 -0.443523 1.5123 0
M  V30 44347 C 4101.21 -1.52038 1.71514 0
M  V30 44348 C 4102.21 -1.49771 0.585252 0
M  V30 44349 O 4103.4 -1.51903 0.852713 0
M  V30 44350 C 4100.53 -2.91598 1.76589 0
M  V30 44351 H 4101.73 -1.3536 2.67615 0
M  V30 44352 H 4099.28 -0.671786 1.41127 0
M  V30 44353 H 4100.02 -3.13689 0.822798 0
M  V30 44354 H 4099.8 -2.94649 2.58698 0
M  V30 44355 H 4101.29 -3.69728 1.94141 0
M  V30 44356 N 4101.73 -1.41272 -0.698562 0
M  V30 44357 C 4103 -1.3096 -1.45289 0
M  V30 44358 C 4103.38 0.0642162 -2.11002 0
M  V30 44359 O 4102.73 1.07825 -2.0146 0
M  V30 44360 C 4102.94 -2.46083 -2.47476 0
M  V30 44361 C 4104.29 -2.87109 -3.12815 0
M  V30 44362 O 4105.31 -2.458 -2.578 0
M  V30 44363 O 4104.17 -3.58532 -4.12452 0
M  V30 44364 H 4101.27 -0.515223 -0.646896 0
M  V30 44365 H 4103.81 -1.5323 -0.729293 0
M  V30 44366 H 4102.59 -3.3777 -1.97552 0
M  V30 44367 H 4102.21 -2.25674 -3.27349 0
M  V30 44368 N 4103.21 0.932517 -1.27051 0
M  V30 44369 C 4104.45 1.67417 -1.12491 0
M  V30 44370 C 4104.77 1.92801 0.329703 0
M  V30 44371 O 4105.97 2.64875 0.596118 0
M  V30 44372 C 4104.43 3.01509 -1.9652 0
M  V30 44373 C 4104.04 2.83841 -3.46609 0
M  V30 44374 C 4105.78 3.79307 -1.90595 0
M  V30 44375 C 4103.69 4.13459 -4.22854 0
M  V30 44376 H 4102.62 0.627939 -0.417384 0
M  V30 44377 H 4105.27 1.03637 -1.51432 0
M  V30 44378 H 4103.65 3.66319 -1.5042 0
M  V30 44379 H 4104.83 2.27828 -4.00539 0
M  V30 44380 H 4103.14 2.19477 -3.53862 0
M  V30 44381 H 4105.74 4.7535 -2.44839 0
M  V30 44382 H 4106.08 4.06924 -0.878531 0
M  V30 44383 H 4106.61 3.21285 -2.34565 0
M  V30 44384 H 4103.35 3.91022 -5.26101 0
M  V30 44385 H 4102.87 4.69154 -3.73703 0
M  V30 44386 H 4104.55 4.81855 -4.31769 0
M  V30 44387 N 4104.68 1.08995 1.13833 0
M  V30 44388 C 4105.93 0.821662 1.84643 0
M  V30 44389 C 4106.25 -0.654548 1.83686 0
M  V30 44390 O 4105.52 -1.47474 1.2895 0
M  V30 44391 H 4104.1 0.30097 0.683686 0
M  V30 44392 H 4106.76 1.37717 1.37913 0
M  V30 44393 H 4105.86 1.17122 2.8929 0
M  V30 44394 N 4106.16 -1.30979 0.87649 0
M  V30 44395 C 4107.11 -2.303 0.326292 0
M  V30 44396 C 4108.1 -1.59801 -0.56214 0
M  V30 44397 O 4109.31 -1.74348 -0.447516 0
M  V30 44398 H 4105.68 -0.746968 0.0868456 0
M  V30 44399 H 4107.66 -2.74173 1.17779 0
M  V30 44400 C 4106.4 -3.44755 -0.451619 0
M  V30 44401 H 4105.73 -3.99179 0.222751 0
M  V30 44402 H 4107.17 -4.16349 -0.801826 0
M  V30 44403 C 4105.63 -2.93986 -1.64542 0
M  V30 44404 O 4106.16 -2.93301 -2.74477 0
M  V30 44405 N 4104.36 -2.50104 -1.47974 0
M  V30 44406 H 4103.91 -2.5086 -0.585403 0
M  V30 44407 H 4103.87 -2.16492 -2.27988 0
M  V30 44408 N 4107.64 -0.636582 -1.44171 0
M  V30 44409 C 4108.89 -0.142969 -2.01594 0
M  V30 44410 C 4109.21 1.24155 -1.50368 0
M  V30 44411 O 4108.48 1.82601 -0.709495 0
M  V30 44412 H 4107.06 -0.0498631 -0.745334 0
M  V30 44413 H 4109.72 -0.82451 -1.76601 0
M  V30 44414 H 4108.82 -0.114829 -3.11889 0
M  V30 44415 N 4109.12 1.53013 -0.377462 0
M  V30 44416 C 4110.35 2.05843 0.208908 0
M  V30 44417 C 4110.76 1.2501 1.41485 0
M  V30 44418 O 4110.12 0.293734 1.80121 0
M  V30 44419 C 4110.17 3.56641 0.590715 0
M  V30 44420 O 4109.89 4.34411 -0.567307 0
M  V30 44421 C 4111.39 4.25772 1.23421 0
M  V30 44422 H 4108.61 0.670123 0.0343019 0
M  V30 44423 H 4111.15 1.97262 -0.539269 0
M  V30 44424 H 4109.31 3.65334 1.2888 0
M  V30 44425 H 4109.72 5.23874 -0.256154 0
M  V30 44426 H 4111.2 5.32565 1.45183 0
M  V30 44427 H 4111.67 3.80239 2.19807 0
M  V30 44428 H 4112.28 4.21365 0.577229 0
M  V30 44429 N 4110.6 0.106949 1.57237 0
M  V30 44430 C 4111.82 -0.562003 1.99121 0
M  V30 44431 C 4112.24 -1.60985 0.986366 0
M  V30 44432 O 4111.6 -1.82486 -0.0224291 0
M  V30 44433 C 4111.65 -1.19903 3.41036 0
M  V30 44434 O 4111.37 -0.193081 4.37674 0
M  V30 44435 C 4112.87 -1.95246 3.97987 0
M  V30 44436 H 4110.09 -0.149761 0.654074 0
M  V30 44437 H 4112.63 0.189735 2.03618 0
M  V30 44438 H 4110.79 -1.90163 3.37516 0
M  V30 44439 H 4111.2 -0.654369 5.20402 0
M  V30 44440 H 4112.68 -2.35162 4.99403 0
M  V30 44441 H 4113.15 -2.82297 3.36459 0
M  V30 44442 H 4113.76 -1.29776 4.05016 0
M  V30 44443 N 4112.07 -1.56715 -0.166791 0
M  V30 44444 C 4113.3 -1.8675 -0.902175 0
M  V30 44445 C 4113.72 -0.693797 -1.74837 0
M  V30 44446 O 4113.08 0.357049 -1.77749 0
M  V30 44447 C 4113.13 -3.15233 -1.75101 0
M  V30 44448 O 4112.23 -2.97775 -2.85314 0
M  V30 44449 H 4111.58 -0.614132 -0.252464 0
M  V30 44450 H 4114.11 -2.03945 -0.163567 0
M  V30 44451 H 4114.12 -3.46753 -2.15003 0
M  V30 44452 H 4112.79 -4.00269 -1.12948 0
M  V30 44453 H 4111.37 -2.77619 -2.48962 0
M  V30 44454 N 4113.55 0.435497 -1.51463 0
M  V30 44455 C 4114.52 1.51126 -1.72318 0
M  V30 44456 C 4115.52 1.49459 -0.593187 0
M  V30 44457 O 4116.71 1.51448 -0.860757 0
M  V30 44458 C 4113.84 2.90657 -1.78132 0
M  V30 44459 H 4115.03 1.33939 -2.68329 0
M  V30 44460 H 4112.58 0.664292 -1.41481 0
M  V30 44461 H 4113.32 3.13248 -0.839422 0
M  V30 44462 H 4113.1 2.93273 -2.60257 0
M  V30 44463 H 4114.59 3.68693 -1.96099 0
M  V30 44464 N 4115.03 1.41641 0.69106 0
M  V30 44465 C 4115.98 1.44054 1.82623 0
M  V30 44466 C 4116.97 0.318062 1.66387 0
M  V30 44467 O 4118.18 0.490307 1.73194 0
M  V30 44468 H 4114.55 0.450826 0.601881 0
M  V30 44469 H 4116.52 2.39716 1.77704 0
M  V30 44470 C 4115.27 1.34401 3.20674 0
M  V30 44471 H 4114.6 2.20062 3.33786 0
M  V30 44472 H 4116.04 1.4015 4.00167 0
M  V30 44473 C 4114.5 0.0568619 3.36852 0
M  V30 44474 O 4115.03 -0.896693 3.91564 0
M  V30 44475 N 4113.23 -0.0206941 2.90593 0
M  V30 44476 H 4112.78 0.756038 2.46256 0
M  V30 44477 H 4112.74 -0.881307 3.01795 0
M  V30 44478 N 4116.51 -0.925766 1.27543 0
M  V30 44479 C 4117.42 -2.06001 1.12254 0
M  V30 44480 C 4118.43 -1.73922 0.0520793 0
M  V30 44481 O 4119.61 -1.99728 0.258956 0
M  V30 44482 C 4116.68 -3.37966 0.77329 0
M  V30 44483 C 4115.74 -3.8373 1.92483 0
M  V30 44484 C 4114.97 -5.09398 1.59215 0
M  V30 44485 O 4115.19 -5.68196 0.500936 0
M  V30 44486 O 4114.13 -5.50581 2.43195 0
M  V30 44487 H 4117.95 -2.21813 2.07443 0
M  V30 44488 H 4115.54 -1.04523 1.06749 0
M  V30 44489 H 4117.42 -4.17222 0.591936 0
M  V30 44490 H 4116.09 -3.23357 -0.149059 0
M  V30 44491 H 4115 -3.05353 2.16126 0
M  V30 44492 H 4116.33 -4.02884 2.82746 0
M  V30 44493 N 4117.99 -1.09597 -1.13253 0
M  V30 44494 C 4118.95 -0.740519 -2.16908 0
M  V30 44495 C 4119.95 0.230766 -1.59136 0
M  V30 44496 O 4121.14 0.00872489 -1.74198 0
M  V30 44497 C 4118.27 -0.0954103 -3.40766 0
M  V30 44498 H 4119.46 -1.65852 -2.49866 0
M  V30 44499 H 4117.02 -0.895381 -1.28112 0
M  V30 44500 H 4117.75 0.833739 -3.134 0
M  V30 44501 H 4117.54 -0.794315 -3.8397 0
M  V30 44502 H 4119.03 0.137819 -4.17373 0
M  V30 44503 N 4119.46 1.30512 -0.883424 0
M  V30 44504 C 4120.71 1.95815 -0.500097 0
M  V30 44505 C 4121.03 1.70094 0.953566 0
M  V30 44506 O 4120.3 1.02368 1.67026 0
M  V30 44507 H 4118.88 0.724502 -0.181949 0
M  V30 44508 H 4121.55 1.59071 -1.12616 0
M  V30 44509 H 4120.64 3.04844 -0.669052 0
M  V30 44510 N 4120.94 0.644219 1.43832 0
M  V30 44511 C 4122.19 0.151343 2.01131 0
M  V30 44512 C 4122.5 -1.23887 1.51365 0
M  V30 44513 O 4123.71 -1.82647 2.00879 0
M  V30 44514 C 4122.17 0.219777 3.59228 0
M  V30 44515 C 4121.77 1.61212 4.17989 0
M  V30 44516 C 4123.52 -0.21596 4.2395 0
M  V30 44517 C 4121.43 1.63496 5.68351 0
M  V30 44518 H 4120.36 0.0528152 0.752148 0
M  V30 44519 H 4123.01 0.804936 1.64903 0
M  V30 44520 H 4121.39 -0.50116 3.92816 0
M  V30 44521 H 4122.56 2.35768 3.95917 0
M  V30 44522 H 4120.88 1.99305 3.65604 0
M  V30 44523 H 4123.47 -0.21861 5.34253 0
M  V30 44524 H 4123.82 -1.24574 3.97224 0
M  V30 44525 H 4124.35 0.452922 3.95213 0
M  V30 44526 H 4121.09 2.64353 5.99831 0
M  V30 44527 H 4120.61 0.932514 5.92507 0
M  V30 44528 H 4122.29 1.37469 6.32227 0
M  V30 44529 N 4122.42 -1.52811 0.385571 0
M  V30 44530 C 4123.38 -2.24952 -0.439254 0
M  V30 44531 C 4124.38 -1.26453 -0.993293 0
M  V30 44532 O 4125.57 -1.50579 -0.875885 0
M  V30 44533 C 4122.71 -3.00169 -1.6159 0
M  V30 44534 H 4123.9 -2.99283 0.192285 0
M  V30 44535 H 4121.45 -1.55693 0.137616 0
M  V30 44536 H 4122.19 -2.30129 -2.28497 0
M  V30 44537 H 4121.97 -3.72461 -1.22537 0
M  V30 44538 H 4123.46 -3.54954 -2.19995 0
M  V30 44539 N 4123.9 -0.115287 -1.57178 0
M  V30 44540 C 4124.86 0.821944 -2.13955 0
M  V30 44541 C 4125.86 1.19715 -1.07354 0
M  V30 44542 O 4127.05 1.12327 -1.33148 0
M  V30 44543 C 4124.18 2.11101 -2.67673 0
M  V30 44544 H 4125.38 0.328579 -2.98095 0
M  V30 44545 H 4122.93 0.133915 -1.55725 0
M  V30 44546 H 4123.66 2.64877 -1.87111 0
M  V30 44547 H 4123.45 1.85149 -3.45633 0
M  V30 44548 H 4124.94 2.78106 -3.11523 0
M  V30 44549 N 4125.38 1.56801 0.158477 0
M  V30 44550 C 4126.6 1.87226 0.892258 0
M  V30 44551 C 4127.03 0.70306 1.74467 0
M  V30 44552 O 4126.39 -0.347617 1.77936 0
M  V30 44553 C 4126.43 3.16157 1.73427 0
M  V30 44554 O 4125.54 2.99284 2.8373 0
M  V30 44555 H 4124.88 0.615462 0.249203 0
M  V30 44556 H 4127.41 2.04029 0.152749 0
M  V30 44557 H 4127.42 3.47888 2.13161 0
M  V30 44558 H 4126.09 4.00863 1.10824 0
M  V30 44559 H 4124.67 2.78936 2.47486 0
M  V30 44560 N 4126.86 -0.427458 1.51692 0
M  V30 44561 C 4128.1 -1.17305 1.64081 0
M  V30 44562 C 4128.42 -1.92112 0.367729 0
M  V30 44563 O 4129.62 -2.68951 0.371131 0
M  V30 44564 C 4128.08 -2.13389 2.89816 0
M  V30 44565 C 4127.69 -1.44184 4.24164 0
M  V30 44566 C 4129.43 -2.8832 3.11564 0
M  V30 44567 C 4127.34 -2.38809 5.4104 0
M  V30 44568 H 4126.27 -0.441573 0.61117 0
M  V30 44569 H 4128.92 -0.439161 1.78167 0
M  V30 44570 H 4127.3 -2.90254 2.69385 0
M  V30 44571 H 4128.48 -0.72809 4.55012 0
M  V30 44572 H 4126.79 -0.813667 4.08373 0
M  V30 44573 H 4129.39 -3.59225 3.96057 0
M  V30 44574 H 4129.73 -3.5023 2.25043 0
M  V30 44575 H 4130.26 -2.1856 3.3238 0
M  V30 44576 H 4127 -1.81574 6.2985 0
M  V30 44577 H 4126.52 -3.08209 5.14555 0
M  V30 44578 H 4128.2 -2.99729 5.73386 0
M  V30 44579 N 4128.33 -1.42005 -0.683539 0
M  V30 44580 C 4129.56 -1.45388 -1.47207 0
M  V30 44581 C 4129.98 -0.0626362 -1.88696 0
M  V30 44582 O 4129.33 0.920736 -1.57571 0
M  V30 44583 C 4129.38 -2.37328 -2.72686 0
M  V30 44584 O 4129.11 -3.71039 -2.32941 0
M  V30 44585 C 4130.61 -2.4964 -3.66326 0
M  V30 44586 H 4127.83 -0.494781 -0.453246 0
M  V30 44587 H 4130.37 -1.86424 -0.840613 0
M  V30 44588 H 4128.53 -1.99569 -3.32041 0
M  V30 44589 H 4128.94 -4.20193 -3.13908 0
M  V30 44590 H 4130.41 -3.18112 -4.51119 0
M  V30 44591 H 4130.89 -1.53148 -4.11634 0
M  V30 44592 H 4131.5 -2.88086 -3.12869 0
M  V30 44593 N 4129.81 0.918989 -1.28033 0
M  V30 44594 C 4130.77 2.0023 -1.11538 0
M  V30 44595 C 4131.77 1.607 -0.0566516 0
M  V30 44596 O 4132.96 1.71562 -0.30199 0
M  V30 44597 C 4130.1 3.33606 -0.70143 0
M  V30 44598 H 4131.29 2.16293 -2.07743 0
M  V30 44599 H 4128.84 1.10096 -1.10944 0
M  V30 44600 H 4129.58 3.23243 0.261625 0
M  V30 44601 H 4129.36 3.63657 -1.46616 0
M  V30 44602 H 4130.85 4.13143 -0.608517 0
M  V30 44603 N 4131.29 1.10196 1.12671 0
M  V30 44604 C 4132.24 0.748535 2.18325 0
M  V30 44605 C 4133.21 -0.273979 1.63825 0
M  V30 44606 O 4134.39 -0.153819 1.90179 0
M  V30 44607 C 4131.53 0.183833 3.4461 0
M  V30 44608 C 4130.64 1.26135 4.13176 0
M  V30 44609 C 4129.78 0.658555 5.27102 0
M  V30 44610 C 4128.82 1.71682 5.8753 0
M  V30 44611 N 4127.96 1.13448 6.92874 0
M  V30 44612 H 4132.8 1.65373 2.47903 0
M  V30 44613 H 4130.33 0.826085 1.21714 0
M  V30 44614 H 4132.29 -0.161438 4.16888 0
M  V30 44615 H 4130.92 -0.684602 3.15457 0
M  V30 44616 H 4129.97 1.72378 3.39102 0
M  V30 44617 H 4131.28 2.06254 4.54159 0
M  V30 44618 H 4130.44 0.262587 6.06131 0
M  V30 44619 H 4129.18 -0.174098 4.87389 0
M  V30 44620 H 4128.18 2.12224 5.07189 0
M  V30 44621 H 4129.41 2.55228 6.29314 0
M  V30 44622 H 4127.35 0.323242 6.55203 0
M  V30 44623 H 4127.27 1.87253 7.32443 0
M  V30 44624 H 4128.54 0.764974 7.75737 0
M  V30 44625 N 4132.77 -1.30042 0.890333 0
M  V30 44626 C 4134.02 -1.95547 0.510474 0
M  V30 44627 C 4134.34 -1.70598 -0.944532 0
M  V30 44628 O 4133.61 -1.03253 -1.6648 0
M  V30 44629 H 4132.19 -0.723527 0.185788 0
M  V30 44630 H 4134.85 -1.58472 1.13458 0
M  V30 44631 H 4133.94 -3.04485 0.685209 0
M  V30 44632 N 4134.25 -0.651838 -1.43488 0
M  V30 44633 C 4135.16 0.0412702 -2.34564 0
M  V30 44634 C 4136.17 0.813653 -1.53804 0
M  V30 44635 O 4137.35 0.761213 -1.8646 0
M  V30 44636 C 4134.41 0.996686 -3.32065 0
M  V30 44637 C 4133.47 0.221389 -4.28729 0
M  V30 44638 C 4132.71 1.1313 -5.21572 0
M  V30 44639 O 4132.93 2.37053 -5.18808 0
M  V30 44640 O 4131.86 0.604447 -5.98857 0
M  V30 44641 H 4135.69 -0.708347 -2.95324 0
M  V30 44642 H 4133.27 -0.412024 -1.43606 0
M  V30 44643 H 4135.16 1.5458 -3.92024 0
M  V30 44644 H 4133.83 1.72655 -2.7381 0
M  V30 44645 H 4132.74 -0.371271 -3.72253 0
M  V30 44646 H 4134.07 -0.468883 -4.89962 0
M  V30 44647 N 4135.72 1.52604 -0.39367 0
M  V30 44648 C 4136.95 2.06532 0.189581 0
M  V30 44649 C 4137.37 1.26313 1.39379 0
M  V30 44650 O 4136.73 0.289309 1.78977 0
M  V30 44651 C 4136.78 3.56629 0.533655 0
M  V30 44652 O 4135.88 3.78951 1.62697 0
M  V30 44653 H 4135.22 0.66367 0.0209366 0
M  V30 44654 H 4137.75 1.96719 -0.562402 0
M  V30 44655 H 4137.76 4.00146 0.796716 0
M  V30 44656 H 4136.44 4.14452 -0.346723 0
M  V30 44657 H 4135.02 3.47322 1.35728 0
M  V30 44658 N 4137.2 0.12362 1.57114 0
M  V30 44659 C 4138.15 -0.824874 2.15556 0
M  V30 44660 C 4139.12 -1.26038 1.08183 0
M  V30 44661 O 4140.3 -1.33707 1.36114 0
M  V30 44662 C 4137.44 -2.06778 2.76291 0
M  V30 44663 C 4136.56 -1.68022 3.97986 0
M  V30 44664 C 4135.69 -2.87314 4.46793 0
M  V30 44665 C 4134.73 -2.44819 5.61008 0
M  V30 44666 N 4133.87 -3.57041 6.04538 0
M  V30 44667 H 4138.71 -0.319674 2.9628 0
M  V30 44668 H 4136.24 -0.146094 1.46373 0
M  V30 44669 H 4138.2 -2.79608 3.09637 0
M  V30 44670 H 4136.83 -2.54749 1.9825 0
M  V30 44671 H 4135.88 -0.850476 3.70771 0
M  V30 44672 H 4137.2 -1.32796 4.80798 0
M  V30 44673 H 4136.35 -3.68363 4.82072 0
M  V30 44674 H 4135.09 -3.2577 3.6294 0
M  V30 44675 H 4134.09 -1.62204 5.25328 0
M  V30 44676 H 4135.32 -2.07476 6.4663 0
M  V30 44677 H 4133.27 -3.95162 5.23625 0
M  V30 44678 H 4133.18 -3.25754 6.82217 0
M  V30 44679 H 4134.45 -4.38516 6.44456 0
M  V30 44680 N 4138.68 -1.56883 -0.15016 0
M  V30 44681 C 4139.61 -2.0106 -1.18731 0
M  V30 44682 C 4140.59 -0.889631 -1.44981 0
M  V30 44683 O 4141.78 -1.15722 -1.55956 0
M  V30 44684 C 4138.91 -2.38852 -2.52125 0
M  V30 44685 C 4137.86 -3.54106 -2.40402 0
M  V30 44686 C 4137.19 -3.77702 -3.78478 0
M  V30 44687 C 4138.49 -4.86875 -1.89078 0
M  V30 44688 H 4140.18 -2.87952 -0.819993 0
M  V30 44689 H 4137.73 -1.38533 -0.393 0
M  V30 44690 H 4139.68 -2.68358 -3.24903 0
M  V30 44691 H 4138.4 -1.48894 -2.90686 0
M  V30 44692 H 4137.06 -3.24761 -1.70076 0
M  V30 44693 H 4136.71 -2.84999 -4.14469 0
M  V30 44694 H 4136.41 -4.55263 -3.71496 0
M  V30 44695 H 4137.93 -4.09629 -4.52809 0
M  V30 44696 H 4139.35 -5.15118 -2.51647 0
M  V30 44697 H 4137.74 -5.68219 -1.92995 0
M  V30 44698 H 4138.81 -4.77458 -0.846273 0
M  V30 44699 N 4140.16 0.419408 -1.51917 0
M  V30 44700 C 4141.07 1.53518 -1.77396 0
M  V30 44701 C 4142.08 1.61038 -0.658999 0
M  V30 44702 O 4143.26 1.77945 -0.943269 0
M  V30 44703 C 4140.33 2.89348 -1.90993 0
M  V30 44704 C 4139.39 2.918 -3.14883 0
M  V30 44705 C 4138.62 4.21151 -3.27823 0
M  V30 44706 O 4138.84 5.14498 -2.46269 0
M  V30 44707 O 4137.78 4.3025 -4.20913 0
M  V30 44708 H 4141.6 1.34927 -2.72082 0
M  V30 44709 H 4139.19 0.604235 -1.36636 0
M  V30 44710 H 4141.07 3.69929 -2.01819 0
M  V30 44711 H 4139.74 3.0803 -0.99496 0
M  V30 44712 H 4138.65 2.1011 -3.09523 0
M  V30 44713 H 4139.98 2.78066 -4.06128 0
M  V30 44714 N 4141.64 1.42366 0.675998 0
M  V30 44715 C 4142.88 1.42983 1.43818 0
M  V30 44716 C 4143.22 0.0456043 1.94146 0
M  V30 44717 O 4142.49 -0.929946 1.70828 0
M  V30 44718 C 4142.77 2.45322 2.63607 0
M  V30 44719 C 4142.63 3.92931 2.18919 0
M  V30 44720 C 4143.95 2.44666 3.65823 0
M  V30 44721 H 4141.06 0.520662 0.521613 0
M  V30 44722 H 4143.71 1.73772 0.76834 0
M  V30 44723 H 4141.86 2.19199 3.20756 0
M  V30 44724 H 4143.53 4.30031 1.66947 0
M  V30 44725 H 4141.77 4.06855 1.50504 0
M  V30 44726 H 4142.44 4.60114 3.04957 0
M  V30 44727 H 4144.92 2.67895 3.18389 0
M  V30 44728 H 4143.79 3.18253 4.4722 0
M  V30 44729 H 4144.06 1.4722 4.16868 0
M  V30 44730 N 4143.11 -0.912187 1.28518 0
M  V30 44731 C 4144.04 -2.03151 1.15117 0
M  V30 44732 C 4145.03 -1.70031 0.0485427 0
M  V30 44733 O 4146.21 -1.92883 0.225812 0
M  V30 44734 C 4143.34 -3.37629 0.81387 0
M  V30 44735 C 4142.29 -3.84917 1.87144 0
M  V30 44736 C 4141.62 -5.16378 1.38774 0
M  V30 44737 C 4142.92 -4.06605 3.27826 0
M  V30 44738 H 4144.61 -2.14621 2.08754 0
M  V30 44739 H 4142.16 -1.03124 1.00506 0
M  V30 44740 H 4144.11 -4.15429 0.706877 0
M  V30 44741 H 4142.84 -3.26217 -0.158203 0
M  V30 44742 H 4141.5 -3.09323 1.96761 0
M  V30 44743 H 4141.14 -5.01369 0.404687 0
M  V30 44744 H 4140.84 -5.48987 2.09492 0
M  V30 44745 H 4142.37 -5.96731 1.294 0
M  V30 44746 H 4143.78 -4.74925 3.21122 0
M  V30 44747 H 4142.18 -4.50548 3.96392 0
M  V30 44748 H 4143.25 -3.11362 3.71728 0
M  V30 44749 N 4144.59 -1.10792 -1.12085 0
M  V30 44750 C 4145.54 -0.75504 -2.20004 0
M  V30 44751 C 4146.53 0.250471 -1.67538 0
M  V30 44752 O 4147.74 0.110454 -1.79661 0
M  V30 44753 H 4144.12 -0.226249 -0.717158 0
M  V30 44754 H 4146.09 -1.67404 -2.47019 0
M  V30 44755 C 4144.84 -0.207099 -3.47083 0
M  V30 44756 H 4144.16 -0.972059 -3.87803 0
M  V30 44757 H 4145.6 0.00170462 -4.24 0
M  V30 44758 C 4144.06 1.06106 -3.19755 0
M  V30 44759 O 4144.59 2.14194 -3.39829 0
M  V30 44760 N 4142.79 0.981164 -2.73535 0
M  V30 44761 H 4142.34 0.101473 -2.574 0
M  V30 44762 H 4142.3 1.83036 -2.55627 0
M  V30 44763 N 4146.07 1.29568 -0.897217 0
M  V30 44764 C 4147.32 1.9566 -0.521868 0
M  V30 44765 C 4147.65 1.70751 0.931366 0
M  V30 44766 O 4146.9 1.01195 1.67505 0
M  V30 44767 C 4147.2 3.49274 -0.757804 0
M  V30 44768 C 4146.87 3.94255 -2.18801 0
M  V30 44769 C 4145.53 4.06247 -2.57908 0
M  V30 44770 C 4147.88 4.17537 -3.11949 0
M  V30 44771 C 4145.21 4.3889 -3.89349 0
M  V30 44772 C 4147.56 4.51653 -4.42936 0
M  V30 44773 C 4146.22 4.61855 -4.81919 0
M  V30 44774 H 4145.49 0.71597 -0.190965 0
M  V30 44775 H 4148.14 1.5421 -1.1354 0
M  V30 44776 H 4146.45 3.91752 -0.061331 0
M  V30 44777 H 4148.14 3.98503 -0.446804 0
M  V30 44778 H 4144.73 3.85435 -1.8745 0
M  V30 44779 H 4148.92 4.0774 -2.82952 0
M  V30 44780 H 4144.17 4.44991 -4.19277 0
M  V30 44781 H 4148.35 4.68618 -5.15141 0
M  V30 44782 H 4145.97 4.86904 -5.83805 0
M  V30 44783 N 4147.55 0.659438 1.4314 0
M  V30 44784 C 4148.83 0.105007 1.95318 0
M  V30 44785 C 4149.21 -1.37648 1.6005 0
M  V30 44786 O 4148.55 -2.10506 0.888783 0
M  V30 44787 C 4148.76 0.35783 3.47161 0
M  V30 44788 C 4150.11 0.266095 4.23765 0
M  V30 44789 O 4151.14 0.290729 3.55012 0
M  V30 44790 O 4149.99 0.195117 5.46152 0
M  V30 44791 H 4147.09 -0.00602826 0.826978 0
M  V30 44792 H 4149.63 0.733106 1.53048 0
M  V30 44793 H 4148.41 1.38471 3.6598 0
M  V30 44794 H 4148.03 -0.303032 3.96444 0
M  V30 44795 N 4149.03 -1.52393 0.401757 0
M  V30 44796 C 4150.27 -2.0173 -0.176423 0
M  V30 44797 C 4150.6 -1.28771 -1.45768 0
M  V30 44798 O 4149.86 -0.380282 -1.9197 0
M  V30 44799 C 4150.16 -3.54185 -0.47831 0
M  V30 44800 C 4149.82 -4.45229 0.712876 0
M  V30 44801 C 4148.48 -4.69835 1.03963 0
M  V30 44802 C 4150.84 -4.98872 1.50919 0
M  V30 44803 C 4148.16 -5.45332 2.16402 0
M  V30 44804 C 4150.52 -5.75599 2.62428 0
M  V30 44805 C 4149.18 -5.9848 2.95598 0
M  V30 44806 H 4148.45 -0.738182 -0.0645577 0
M  V30 44807 H 4151.1 -1.8368 0.541663 0
M  V30 44808 H 4149.4 -3.70375 -1.27787 0
M  V30 44809 H 4151.1 -3.89863 -0.938508 0
M  V30 44810 H 4147.69 -4.2625 0.44821 0
M  V30 44811 H 4151.87 -4.79776 1.26998 0
M  V30 44812 H 4147.13 -5.6127 2.42457 0
M  V30 44813 H 4151.3 -6.16163 3.24524 0
M  V30 44814 H 4148.93 -6.56762 3.82841 0
M  V30 44815 N 4150.5 -0.131951 -1.57047 0
M  V30 44816 C 4151.44 0.844137 -2.13089 0
M  V30 44817 C 4152.45 1.22112 -1.07668 0
M  V30 44818 O 4153.64 1.16782 -1.34997 0
M  V30 44819 C 4150.74 2.14197 -2.62627 0
M  V30 44820 C 4149.91 1.93468 -3.92287 0
M  V30 44821 C 4148.97 3.071 -4.27289 0
M  V30 44822 O 4148 2.79447 -4.95881 0
M  V30 44823 N 4149.2 4.3388 -3.85653 0
M  V30 44824 H 4151.96 0.365253 -2.97466 0
M  V30 44825 H 4149.52 0.0520851 -1.61816 0
M  V30 44826 H 4151.52 2.89234 -2.83065 0
M  V30 44827 H 4150.09 2.53394 -1.83058 0
M  V30 44828 H 4149.31 1.02551 -3.80627 0
M  V30 44829 H 4150.59 1.76938 -4.77043 0
M  V30 44830 H 4149.99 4.59218 -3.30356 0
M  V30 44831 H 4148.55 5.05747 -4.11174 0
M  V30 44832 N 4151.98 1.5696 0.141838 0
M  V30 44833 C 4152.95 1.97741 1.15892 0
M  V30 44834 C 4153.95 0.86458 1.35579 0
M  V30 44835 O 4155.14 1.1311 1.32483 0
M  V30 44836 C 4152.27 2.29783 2.51818 0
M  V30 44837 H 4153.46 2.88784 0.808943 0
M  V30 44838 H 4151.01 1.51475 0.38536 0
M  V30 44839 H 4151.75 1.41549 2.91778 0
M  V30 44840 H 4151.53 3.10925 2.38889 0
M  V30 44841 H 4153.02 2.62154 3.25062 0
M  V30 44842 N 4153.46 -0.411345 1.52137 0
M  V30 44843 C 4154.41 -1.52156 1.7593 0
M  V30 44844 C 4155.4 -1.57395 0.626344 0
M  V30 44845 O 4156.61 -1.60829 0.808339 0
M  V30 44846 H 4152.98 -0.505988 0.556309 0
M  V30 44847 H 4154.95 -1.29273 2.68944 0
M  V30 44848 C 4153.7 -2.89549 1.92502 0
M  V30 44849 H 4153.03 -2.86259 2.79098 0
M  V30 44850 H 4154.47 -3.66529 2.1315 0
M  V30 44851 C 4152.93 -3.29726 0.69153 0
M  V30 44852 O 4153.46 -4.0145 -0.141641 0
M  V30 44853 N 4151.66 -2.85762 0.52807 0
M  V30 44854 H 4151.21 -2.27563 1.20717 0
M  V30 44855 H 4151.17 -3.13004 -0.295939 0
M  V30 44856 N 4154.94 -1.42722 -0.668439 0
M  V30 44857 C 4155.9 -1.46387 -1.76362 0
M  V30 44858 C 4156.9 -0.350581 -1.56932 0
M  V30 44859 O 4158.09 -0.611686 -1.63107 0
M  V30 44860 C 4155.22 -1.3017 -3.15069 0
M  V30 44861 H 4156.42 -2.43906 -1.74498 0
M  V30 44862 H 4153.97 -1.29263 -0.878672 0
M  V30 44863 H 4154.71 -0.335982 -3.22555 0
M  V30 44864 H 4154.49 -2.10859 -3.30576 0
M  V30 44865 H 4155.98 -1.35632 -3.9496 0
M  V30 44866 N 4156.42 0.905358 -1.29 0
M  V30 44867 C 4157.35 2.01378 -1.09451 0
M  V30 44868 C 4158.36 1.62741 -0.0436983 0
M  V30 44869 O 4159.55 1.76167 -0.287634 0
M  V30 44870 C 4156.65 3.32747 -0.642854 0
M  V30 44871 C 4155.82 3.99946 -1.77093 0
M  V30 44872 C 4154.88 5.09601 -1.31124 0
M  V30 44873 O 4153.91 5.32342 -2.01497 0
M  V30 44874 N 4155.11 5.80224 -0.179026 0
M  V30 44875 H 4157.88 2.18705 -2.0491 0
M  V30 44876 H 4155.44 1.07719 -1.20865 0
M  V30 44877 H 4157.43 4.03443 -0.318755 0
M  V30 44878 H 4156 3.11831 0.219125 0
M  V30 44879 H 4155.22 3.22688 -2.2642 0
M  V30 44880 H 4156.51 4.41586 -2.52744 0
M  V30 44881 H 4155.91 5.64228 0.407827 0
M  V30 44882 H 4154.46 6.51744 0.0857424 0
M  V30 44883 N 4157.9 1.11385 1.11495 0
M  V30 44884 C 4158.83 0.793866 2.19591 0
M  V30 44885 C 4159.81 -0.237529 1.68433 0
M  V30 44886 O 4160.99 -0.10113 1.93937 0
M  V30 44887 C 4158.12 0.23564 3.465 0
M  V30 44888 C 4157.08 1.19884 4.10867 0
M  V30 44889 C 4156.4 0.501352 5.32344 0
M  V30 44890 C 4157.7 2.5493 4.5586 0
M  V30 44891 H 4159.4 1.6977 2.46614 0
M  V30 44892 H 4156.94 0.817716 1.1853 0
M  V30 44893 H 4158.89 -0.000416201 4.214 0
M  V30 44894 H 4157.62 -0.703488 3.18934 0
M  V30 44895 H 4156.28 1.42052 3.3796 0
M  V30 44896 H 4155.93 -0.442564 5.01049 0
M  V30 44897 H 4155.63 1.14377 5.76361 0
M  V30 44898 H 4157.15 0.274075 6.09985 0
M  V30 44899 H 4158.56 2.36854 5.22085 0
M  V30 44900 H 4156.96 3.15148 5.10688 0
M  V30 44901 H 4158.03 3.14195 3.69336 0
M  V30 44902 N 4159.37 -1.2909 0.904076 0
M  V30 44903 C 4160.6 -2.00053 0.547117 0
M  V30 44904 C 4161.02 -1.67186 -0.861997 0
M  V30 44905 O 4160.38 -0.898882 -1.57448 0
M  V30 44906 C 4160.43 -3.52681 0.751557 0
M  V30 44907 O 4159.53 -4.11944 -0.193931 0
M  V30 44908 H 4158.87 -0.628824 0.213252 0
M  V30 44909 H 4161.4 -1.6448 1.21686 0
M  V30 44910 H 4161.41 -4.02661 0.657902 0
M  V30 44911 H 4160.09 -3.75939 1.77884 0
M  V30 44912 H 4158.67 -3.72863 -0.0523625 0
M  V30 44913 N 4160.85 -0.66702 -1.42789 0
M  V30 44914 C 4161.8 0.027879 -2.32583 0
M  V30 44915 C 4162.79 0.798714 -1.49388 0
M  V30 44916 O 4164 0.707556 -1.6551 0
M  V30 44917 H 4160.37 0.0278072 -0.751486 0
M  V30 44918 H 4162.35 -0.746964 -2.889 0
M  V30 44919 C 4161.09 0.970863 -3.33871 0
M  V30 44920 H 4160.42 0.387143 -3.97921 0
M  V30 44921 H 4161.86 1.42592 -3.99304 0
M  V30 44922 C 4160.32 2.07353 -2.6553 0
M  V30 44923 O 4160.85 3.15904 -2.48129 0
M  V30 44924 N 4159.05 1.84301 -2.24681 0
M  V30 44925 H 4158.6 0.96024 -2.39034 0
M  V30 44926 H 4158.56 2.58271 -1.79287 0
M  V30 44927 N 4162.33 1.52178 -0.409833 0
M  V30 44928 C 4163.74 1.86605 0.0596028 0
M  V30 44929 C 4164.09 1.32855 1.44375 0
M  V30 44930 O 4163.22 0.66811 2.05828 0
M  V30 44931 C 4163.81 3.38605 0.114932 0
M  V30 44932 C 4162.37 3.72668 0.528706 0
M  V30 44933 C 4161.52 2.75712 -0.296339 0
M  V30 44934 H 4164.47 1.45795 -0.626868 0
M  V30 44935 H 4164.49 3.68958 0.930049 0
M  V30 44936 H 4164 3.77696 -0.892602 0
M  V30 44937 H 4162.1 3.39156 1.54286 0
M  V30 44938 H 4162.22 4.78324 0.272603 0
M  V30 44939 H 4160.58 2.53553 0.241423 0
M  V30 44940 H 4161.36 3.17642 -1.30223 0
M  V30 44941 N 4163.81 0.140278 1.56974 0
M  V30 44942 C 4164.75 -0.801965 2.16419 0
M  V30 44943 C 4165.72 -1.24883 1.09514 0
M  V30 44944 O 4166.91 -1.32256 1.37524 0
M  V30 44945 C 4164.05 -2.03836 2.78469 0
M  V30 44946 C 4163.16 -1.63791 3.99745 0
M  V30 44947 C 4162.3 -2.82559 4.49815 0
M  V30 44948 C 4161.34 -2.38855 5.63573 0
M  V30 44949 N 4160.47 -3.50609 6.08291 0
M  V30 44950 H 4165.31 -0.288232 2.96603 0
M  V30 44951 H 4162.85 -0.130561 1.46519 0
M  V30 44952 H 4164.81 -2.76308 3.12585 0
M  V30 44953 H 4163.44 -2.52632 2.0094 0
M  V30 44954 H 4162.49 -0.811103 3.71652 0
M  V30 44955 H 4163.8 -1.27689 4.82179 0
M  V30 44956 H 4162.96 -3.6323 4.85952 0
M  V30 44957 H 4161.7 -3.21902 3.66375 0
M  V30 44958 H 4160.7 -1.56623 5.27019 0
M  V30 44959 H 4161.93 -2.00606 6.48794 0
M  V30 44960 H 4159.87 -3.89586 5.27787 0
M  V30 44961 H 4159.79 -3.185 6.85634 0
M  V30 44962 H 4161.06 -4.31656 6.49071 0
M  V30 44963 N 4165.29 -1.57033 -0.133512 0
M  V30 44964 C 4166.53 -1.8327 -0.842326 0
M  V30 44965 C 4166.85 -0.723666 -1.81721 0
M  V30 44966 O 4168.05 -0.872014 -2.57115 0
M  V30 44967 C 4166.51 -3.24878 -1.54862 0
M  V30 44968 C 4166.12 -4.43752 -0.615468 0
M  V30 44969 C 4167.86 -3.60376 -2.24343 0
M  V30 44970 C 4165.77 -5.76385 -1.32416 0
M  V30 44971 H 4164.7 -0.68352 -0.318302 0
M  V30 44972 H 4167.35 -1.83254 -0.0950419 0
M  V30 44973 H 4165.73 -3.1932 -2.34202 0
M  V30 44974 H 4166.91 -4.60576 0.143667 0
M  V30 44975 H 4165.22 -4.1639 -0.0283863 0
M  V30 44976 H 4167.82 -4.56732 -2.78029 0
M  V30 44977 H 4168.16 -2.87093 -3.01468 0
M  V30 44978 H 4168.69 -3.67653 -1.51907 0
M  V30 44979 H 4165.43 -6.52799 -0.594488 0
M  V30 44980 H 4164.95 -5.63473 -2.05567 0
M  V30 44981 H 4166.63 -6.19647 -1.86137 0
M  V30 44982 N 4166.76 0.403271 -1.52353 0
M  V30 44983 C 4167.71 1.51221 -1.76734 0
M  V30 44984 C 4168.71 1.57061 -0.634683 0
M  V30 44985 O 4169.91 1.60398 -0.816857 0
M  V30 44986 H 4166.29 0.503031 -0.558985 0
M  V30 44987 H 4168.26 1.27845 -2.69626 0
M  V30 44988 C 4167.01 2.88524 -1.94034 0
M  V30 44989 H 4166.33 2.84775 -2.80612 0
M  V30 44990 H 4167.77 3.65393 -2.1509 0
M  V30 44991 C 4166.23 3.29355 -0.709007 0
M  V30 44992 O 4166.76 4.0152 0.120349 0
M  V30 44993 N 4164.96 2.85478 -0.543217 0
M  V30 44994 H 4164.51 2.2692 -1.21923 0
M  V30 44995 H 4164.47 3.13157 0.279336 0
M  V30 44996 N 4168.24 1.43075 0.66086 0
M  V30 44997 C 4169.65 1.39409 1.24185 0
M  V30 44998 C 4170 0.0943198 1.95973 0
M  V30 44999 O 4169.13 -0.806505 2.00809 0
M  V30 45000 C 4169.72 2.52532 2.25861 0
M  V30 45001 C 4168.28 2.52155 2.79454 0
M  V30 45002 C 4167.43 2.3062 1.5398 0
M  V30 45003 H 4170.38 1.52087 0.453357 0
M  V30 45004 H 4170.4 2.23583 3.07882 0
M  V30 45005 H 4169.91 3.47117 1.73583 0
M  V30 45006 H 4168.01 1.61428 3.35815 0
M  V30 45007 H 4168.13 3.49668 3.2752 0
M  V30 45008 H 4166.49 1.79142 1.81053 0
M  V30 45009 H 4167.27 3.27279 1.03649 0
M  V30 45010 N 4169.72 -0.898504 1.29478 0
M  V30 45011 C 4170.65 -2.01919 1.17265 0
M  V30 45012 C 4171.63 -1.6997 0.066574 0
M  V30 45013 O 4172.82 -1.92632 0.246257 0
M  V30 45014 C 4169.95 -3.36747 0.849634 0
M  V30 45015 C 4168.9 -3.8291 1.91216 0
M  V30 45016 C 4168.23 -5.14877 1.44243 0
M  V30 45017 C 4169.53 -4.03105 3.3212 0
M  V30 45018 H 4171.22 -2.12395 2.11019 0
M  V30 45019 H 4168.77 -1.02052 1.01594 0
M  V30 45020 H 4170.72 -4.14656 0.750899 0
M  V30 45021 H 4169.44 -3.26366 -0.123595 0
M  V30 45022 H 4168.1 -3.07219 2.0003 0
M  V30 45023 H 4167.75 -5.00912 0.457841 0
M  V30 45024 H 4167.45 -5.46734 2.15303 0
M  V30 45025 H 4168.97 -5.95325 1.35722 0
M  V30 45026 H 4170.39 -4.71492 3.26141 0
M  V30 45027 H 4168.79 -4.46318 4.01148 0
M  V30 45028 H 4169.86 -3.07402 3.7501 0
M  V30 45029 N 4171.2 -1.11974 -1.10903 0
M  V30 45030 C 4172.16 -0.786362 -2.15288 0
M  V30 45031 C 4173.16 0.196959 -1.59589 0
M  V30 45032 O 4174.35 -0.028227 -1.74177 0
M  V30 45033 C 4171.48 -0.16767 -3.40487 0
M  V30 45034 H 4172.68 -1.71115 -2.46292 0
M  V30 45035 H 4170.23 -0.922354 -1.26184 0
M  V30 45036 H 4170.96 0.767075 -3.15098 0
M  V30 45037 H 4170.75 -0.875582 -3.82199 0
M  V30 45038 H 4172.24 0.0492569 -4.17571 0
M  V30 45039 N 4172.68 1.28609 -0.910909 0
M  V30 45040 C 4173.61 2.298 -0.414038 0
M  V30 45041 C 4174.59 1.62057 0.516862 0
M  V30 45042 O 4175.77 1.89488 0.425203 0
M  V30 45043 C 4172.9 3.45539 0.349276 0
M  V30 45044 C 4171.86 4.2516 -0.492225 0
M  V30 45045 C 4171.18 5.33207 0.399258 0
M  V30 45046 C 4172.48 4.92181 -1.74801 0
M  V30 45047 H 4174.18 2.7161 -1.2597 0
M  V30 45048 H 4171.72 1.30573 -0.607172 0
M  V30 45049 H 4173.68 4.15415 0.707697 0
M  V30 45050 H 4172.4 3.02602 1.22881 0
M  V30 45051 H 4171.06 3.57008 -0.833127 0
M  V30 45052 H 4170.71 4.86513 1.27726 0
M  V30 45053 H 4170.41 5.87382 -0.160165 0
M  V30 45054 H 4171.93 6.05931 0.753625 0
M  V30 45055 H 4173.34 5.54433 -1.45866 0
M  V30 45056 H 4171.74 5.56338 -2.24962 0
M  V30 45057 H 4172.81 4.16832 -2.47748 0
M  V30 45058 N 4174.15 0.674583 1.42433 0
M  V30 45059 C 4175.1 -0.003884 2.308 0
M  V30 45060 C 4176.07 -0.792946 1.45951 0
M  V30 45061 O 4177.26 -0.765238 1.74782 0
M  V30 45062 C 4174.4 -0.949334 3.31786 0
M  V30 45063 C 4173.51 -0.154117 4.31725 0
M  V30 45064 C 4172.64 -1.0953 5.19785 0
M  V30 45065 C 4171.68 -0.291756 6.11404 0
M  V30 45066 N 4170.82 -1.18563 6.92017 0
M  V30 45067 H 4175.66 0.755489 2.88264 0
M  V30 45068 H 4173.2 0.384299 1.41991 0
M  V30 45069 H 4175.16 -1.51132 3.88864 0
M  V30 45070 H 4173.79 -1.67534 2.75921 0
M  V30 45071 H 4172.84 0.524482 3.76767 0
M  V30 45072 H 4174.15 0.469757 4.96583 0
M  V30 45073 H 4173.3 -1.72721 5.81595 0
M  V30 45074 H 4172.04 -1.75306 4.55103 0
M  V30 45075 H 4171.05 0.353372 5.48663 0
M  V30 45076 H 4172.27 0.361905 6.78135 0
M  V30 45077 H 4170.22 -1.8298 6.29964 0
M  V30 45078 H 4170.14 -0.616836 7.53479 0
M  V30 45079 H 4171.4 -1.80502 7.58313 0
M  V30 45080 N 4175.63 -1.51958 0.417898 0
M  V30 45081 C 4176.54 -2.30991 -0.409905 0
M  V30 45082 C 4177.56 -1.39082 -1.04557 0
M  V30 45083 O 4178.73 -1.72157 -1.04517 0
M  V30 45084 C 4175.8 -3.12241 -1.50686 0
M  V30 45085 C 4174.86 -4.19902 -0.89335 0
M  V30 45086 C 4174.09 -4.97269 -1.93803 0
M  V30 45087 O 4174.32 -4.75036 -3.15748 0
M  V30 45088 O 4173.25 -5.81882 -1.53938 0
M  V30 45089 H 4177.08 -3.02791 0.234749 0
M  V30 45090 H 4174.66 -1.48301 0.180887 0
M  V30 45091 H 4176.54 -3.62812 -2.14349 0
M  V30 45092 H 4175.22 -2.43226 -2.13595 0
M  V30 45093 H 4174.13 -3.73457 -0.219196 0
M  V30 45094 H 4175.46 -4.91235 -0.308046 0
M  V30 45095 N 4177.11 -0.1486 -1.56898 0
M  V30 45096 C 4178.34 0.512252 -2.00974 0
M  V30 45097 C 4178.76 1.57521 -1.02804 0
M  V30 45098 O 4178.12 1.813 -0.00403598 0
M  V30 45099 C 4178.17 1.08826 -3.43787 0
M  V30 45100 O 4177.27 2.20307 -3.48624 0
M  V30 45101 H 4176.61 0.125122 -0.652105 0
M  V30 45102 H 4179.14 -0.245804 -2.03118 0
M  V30 45103 H 4179.15 1.41652 -3.82621 0
M  V30 45104 H 4177.83 0.30985 -4.14744 0
M  V30 45105 H 4176.4 1.88697 -3.21633 0
M  V30 45106 N 4178.59 1.57102 0.125182 0
M  V30 45107 C 4179.83 1.84799 0.835288 0
M  V30 45108 C 4180.17 0.733442 1.79817 0
M  V30 45109 O 4179.44 -0.261234 1.92738 0
M  V30 45110 C 4179.73 3.23065 1.59063 0
M  V30 45111 C 4179.58 4.45111 0.647763 0
M  V30 45112 C 4180.9 3.58823 2.54822 0
M  V30 45113 H 4178.02 0.672189 0.30221 0
M  V30 45114 H 4180.66 1.89738 0.0997305 0
M  V30 45115 H 4178.81 3.18986 2.21767 0
M  V30 45116 H 4180.48 4.6129 0.0300482 0
M  V30 45117 H 4178.72 4.3378 -0.0411502 0
M  V30 45118 H 4179.39 5.38512 1.21278 0
M  V30 45119 H 4181.87 3.63653 2.02227 0
M  V30 45120 H 4180.75 4.56557 3.04708 0
M  V30 45121 H 4181.01 2.85917 3.372 0
M  V30 45122 N 4180.07 -0.395186 1.52565 0
M  V30 45123 C 4181.01 -1.48236 1.76903 0
M  V30 45124 C 4181.98 -1.54415 0.611992 0
M  V30 45125 O 4183.17 -1.70768 0.851049 0
M  V30 45126 C 4180.31 -2.85535 1.93814 0
M  V30 45127 C 4179.42 -2.88557 3.21495 0
M  V30 45128 C 4178.56 -4.17242 3.28759 0
M  V30 45129 C 4177.6 -4.14292 4.50587 0
M  V30 45130 N 4176.73 -5.34573 4.55166 0
M  V30 45131 H 4181.57 -1.26784 2.69685 0
M  V30 45132 H 4179.11 -0.615165 1.33619 0
M  V30 45133 H 4181.07 -3.65256 2.01603 0
M  V30 45134 H 4179.7 -3.05452 1.04399 0
M  V30 45135 H 4178.75 -2.01243 3.22809 0
M  V30 45136 H 4180.06 -2.82243 4.11266 0
M  V30 45137 H 4179.22 -5.05364 3.35696 0
M  V30 45138 H 4177.95 -4.2627 2.3695 0
M  V30 45139 H 4176.96 -3.24559 4.43781 0
M  V30 45140 H 4178.18 -4.06893 5.43705 0
M  V30 45141 H 4176.13 -5.44242 3.66247 0
M  V30 45142 H 4176.05 -5.30311 5.38801 0
M  V30 45143 H 4177.32 -6.2461 4.6635 0
M  V30 45144 N 4181.54 -1.43423 -0.653263 0
M  V30 45145 C 4182.79 -1.45038 -1.41316 0
M  V30 45146 C 4183.12 -0.0746602 -1.94357 0
M  V30 45147 O 4182.37 0.920333 -1.72709 0
M  V30 45148 C 4182.67 -2.43982 -2.61165 0
M  V30 45149 C 4182.34 -3.89858 -2.26543 0
M  V30 45150 C 4181 -4.29588 -2.16813 0
M  V30 45151 C 4183.35 -4.81784 -1.98829 0
M  V30 45152 C 4180.68 -5.59197 -1.77525 0
M  V30 45153 C 4183.03 -6.11759 -1.6104 0
M  V30 45154 C 4181.7 -6.50466 -1.49835 0
M  V30 45155 H 4180.97 -0.530732 -0.517112 0
M  V30 45156 H 4183.61 -1.76502 -0.742915 0
M  V30 45157 H 4181.92 -2.05922 -3.33322 0
M  V30 45158 H 4183.62 -2.42487 -3.19376 0
M  V30 45159 H 4180.21 -3.58414 -2.35027 0
M  V30 45160 H 4184.39 -4.51861 -2.05268 0
M  V30 45161 H 4179.65 -5.88026 -1.67436 0
M  V30 45162 H 4183.82 -6.82463 -1.38627 0
M  V30 45163 H 4181.45 -7.50802 -1.19163 0
M  V30 45164 N 4183.02 0.891625 -1.29953 0
M  V30 45165 C 4184.25 1.68139 -1.21425 0
M  V30 45166 C 4184.67 1.86802 0.2206 0
M  V30 45167 O 4184.03 1.39417 1.159 0
M  V30 45168 C 4184.08 3.0389 -1.94121 0
M  V30 45169 O 4183.18 3.92559 -1.26376 0
M  V30 45170 H 4182.52 0.514025 -0.420327 0
M  V30 45171 H 4185.05 1.11328 -1.7166 0
M  V30 45172 H 4185.06 3.53979 -2.02887 0
M  V30 45173 H 4183.74 2.89626 -2.98479 0
M  V30 45174 H 4182.32 3.50996 -1.25921 0
M  V30 45175 N 4184.5 1.12561 1.10308 0
M  V30 45176 C 4185.73 0.904933 1.86616 0
M  V30 45177 C 4186.15 -0.540565 1.80165 0
M  V30 45178 O 4185.51 -1.38279 1.17254 0
M  V30 45179 C 4185.56 1.38598 3.32901 0
M  V30 45180 O 4184.66 0.565297 4.08507 0
M  V30 45181 H 4184 0.325023 0.579013 0
M  V30 45182 H 4186.53 1.49803 1.39357 0
M  V30 45183 H 4186.54 1.38563 3.8375 0
M  V30 45184 H 4185.22 2.4385 3.36912 0
M  V30 45185 H 4183.79 0.632747 3.67492 0
M  V30 45186 N 4185.98 -1.28124 0.917717 0
M  V30 45187 C 4186.93 -2.27171 0.407668 0
M  V30 45188 C 4187.9 -1.5775 -0.520028 0
M  V30 45189 O 4189.08 -1.85625 -0.441362 0
M  V30 45190 C 4186.22 -3.43395 -0.342588 0
M  V30 45191 C 4185.33 -4.27556 0.618069 0
M  V30 45192 C 4184.47 -5.30985 -0.151031 0
M  V30 45193 C 4183.51 -6.0681 0.802983 0
M  V30 45194 N 4182.65 -7.02068 0.0671485 0
M  V30 45195 H 4187.49 -2.70176 1.25733 0
M  V30 45196 H 4185.02 -1.32865 0.631296 0
M  V30 45197 H 4186.98 -4.09579 -0.793801 0
M  V30 45198 H 4185.61 -3.01369 -1.15656 0
M  V30 45199 H 4184.66 -3.6138 1.18781 0
M  V30 45200 H 4185.97 -4.80252 1.34758 0
M  V30 45201 H 4185.13 -6.03071 -0.662623 0
M  V30 45202 H 4183.87 -4.79067 -0.913573 0
M  V30 45203 H 4182.87 -5.33572 1.32591 0
M  V30 45204 H 4184.1 -6.60818 1.56514 0
M  V30 45205 H 4182.04 -6.52494 -0.67733 0
M  V30 45206 H 4181.96 -7.52405 0.736415 0
M  V30 45207 H 4183.23 -7.78345 -0.424118 0
M  V30 45208 N 4187.46 -0.682127 -1.42073 0
M  V30 45209 C 4188.69 -0.215752 -2.0547 0
M  V30 45210 C 4189.1 1.13502 -1.51374 0
M  V30 45211 O 4188.44 1.71767 -0.651281 0
M  V30 45212 C 4188.5 -0.0813135 -3.59408 0
M  V30 45213 C 4188.16 -1.36196 -4.36233 0
M  V30 45214 C 4189.16 -2.29699 -4.66406 0
M  V30 45215 C 4186.85 -1.6116 -4.75744 0
M  V30 45216 C 4188.84 -3.46437 -5.35033 0
M  V30 45217 C 4186.53 -2.78186 -5.4411 0
M  V30 45218 C 4187.53 -3.70648 -5.7368 0
M  V30 45219 O 4187.21 -4.85626 -6.40642 0
M  V30 45220 H 4186.95 -0.100766 -0.668448 0
M  V30 45221 H 4189.5 -0.931364 -1.8307 0
M  V30 45222 H 4187.73 0.689947 -3.80495 0
M  V30 45223 H 4189.42 0.346135 -4.04421 0
M  V30 45224 H 4190.18 -2.11666 -4.36374 0
M  V30 45225 H 4186.06 -0.900591 -4.52118 0
M  V30 45226 H 4189.61 -4.18627 -5.5803 0
M  V30 45227 H 4185.5 -2.96142 -5.73559 0
M  V30 45228 H 4186.27 -4.85266 -6.59135 0
M  V30 45229 N 4188.94 1.51735 -0.425951 0
M  V30 45230 C 4189.87 2.30355 0.38197 0
M  V30 45231 C 4190.85 1.35278 1.03121 0
M  V30 45232 O 4192.03 1.64193 1.03703 0
M  V30 45233 C 4189.16 3.13727 1.48972 0
M  V30 45234 C 4188.12 4.16989 0.964586 0
M  V30 45235 C 4187.44 4.88811 2.16722 0
M  V30 45236 C 4188.74 5.223 0.00691133 0
M  V30 45237 H 4190.44 2.98143 -0.274096 0
M  V30 45238 H 4187.98 1.43382 -0.133264 0
M  V30 45239 H 4189.93 3.67502 2.06204 0
M  V30 45240 H 4188.66 2.43739 2.17391 0
M  V30 45241 H 4187.32 3.64249 0.414554 0
M  V30 45242 H 4186.97 4.15336 2.83734 0
M  V30 45243 H 4186.67 5.58629 1.82229 0
M  V30 45244 H 4188.19 5.45405 2.74529 0
M  V30 45245 H 4189.6 5.71214 0.488565 0
M  V30 45246 H 4188 5.99579 -0.25003 0
M  V30 45247 H 4189.07 4.75834 -0.933278 0
M  V30 45248 N 4190.41 0.156919 1.56817 0
M  V30 45249 C 4191.83 -0.199404 1.58349 0
M  V30 45250 C 4192.03 -1.63935 1.17165 0
M  V30 45251 O 4191.09 -2.36797 0.876551 0
M  V30 45252 C 4192.4 0.0683525 3.00622 0
M  V30 45253 C 4193.95 0.00542453 3.13 0
M  V30 45254 C 4194.42 0.245979 4.57339 0
M  V30 45255 N 4195.91 0.193252 4.62797 0
M  V30 45256 C 4196.65 0.353753 5.72308 0
M  V30 45257 N 4196.14 0.572521 6.9043 0
M  V30 45258 N 4197.94 0.290662 5.61348 0
M  V30 45259 H 4190.09 1.097 1.81878 0
M  V30 45260 H 4192.35 0.435017 0.842297 0
M  V30 45261 H 4192.06 1.0653 3.35178 0
M  V30 45262 H 4191.93 -0.646582 3.71617 0
M  V30 45263 H 4194.32 -0.982081 2.78279 0
M  V30 45264 H 4194.4 0.752844 2.44471 0
M  V30 45265 H 4194.04 1.23063 4.92766 0
M  V30 45266 H 4193.97 -0.521882 5.24008 0
M  V30 45267 H 4196.46 0.029223 3.77889 0
M  V30 45268 H 4196.78 0.68483 7.6976 0
M  V30 45269 H 4195.12 0.608963 6.92327 0
M  V30 45270 H 4198.31 0.120443 4.67945 0
M  V30 45271 H 4198.49 0.419177 6.46643 0
M  V30 45272 N 4191.89 -1.57166 -0.116849 0
M  V30 45273 C 4193.12 -1.89153 -0.838383 0
M  V30 45274 C 4193.53 -0.748392 -1.73334 0
M  V30 45275 O 4192.89 0.280687 -1.80329 0
M  V30 45276 C 4192.94 -3.20614 -1.67001 0
M  V30 45277 O 4192.66 -4.30526 -0.811082 0
M  V30 45278 C 4194.16 -3.66319 -2.49651 0
M  V30 45279 H 4191.38 -0.626266 -0.240898 0
M  V30 45280 H 4193.93 -2.04252 -0.100595 0
M  V30 45281 H 4192.08 -3.07177 -2.36053 0
M  V30 45282 H 4192.5 -5.05886 -1.3849 0
M  V30 45283 H 4193.97 -4.61058 -3.03529 0
M  V30 45284 H 4194.45 -2.93081 -3.27109 0
M  V30 45285 H 4195.05 -3.8255 -1.85837 0
M  V30 45286 N 4193.37 0.38709 -1.52772 0
M  V30 45287 C 4194.28 1.49721 -1.80612 0
M  V30 45288 C 4195.3 1.59604 -0.693009 0
M  V30 45289 O 4196.47 1.75904 -0.980801 0
M  V30 45290 C 4193.54 2.85232 -1.97088 0
M  V30 45291 C 4192.6 2.85055 -3.21002 0
M  V30 45292 C 4191.83 4.14102 -3.36682 0
M  V30 45293 O 4192.05 5.09158 -2.57126 0
M  V30 45294 O 4190.99 4.21225 -4.29945 0
M  V30 45295 H 4194.81 1.29125 -2.74882 0
M  V30 45296 H 4192.4 0.575116 -1.37887 0
M  V30 45297 H 4194.28 3.65564 -2.0962 0
M  V30 45298 H 4192.96 3.0585 -1.06007 0
M  V30 45299 H 4191.86 2.03497 -3.1391 0
M  V30 45300 H 4193.2 2.69389 -4.11935 0
M  V30 45301 N 4194.85 1.43768 0.645648 0
M  V30 45302 C 4195.8 1.45955 1.7516 0
M  V30 45303 C 4196.78 0.327064 1.57541 0
M  V30 45304 O 4197.97 0.571376 1.67524 0
M  V30 45305 C 4195.1 1.39262 3.13785 0
M  V30 45306 C 4194.19 2.5757 3.36925 0
M  V30 45307 N 4194.58 3.82887 3.30502 0
M  V30 45308 C 4192.88 2.52455 3.67671 0
M  V30 45309 C 4193.58 4.61635 3.53932 0
M  V30 45310 N 4192.55 3.92483 3.76109 0
M  V30 45311 H 4196.36 2.4071 1.6863 0
M  V30 45312 H 4193.87 1.38526 0.847595 0
M  V30 45313 H 4195.87 1.38912 3.93076 0
M  V30 45314 H 4194.53 0.455342 3.21491 0
M  V30 45315 H 4195.54 4.15066 3.09743 0
M  V30 45316 H 4192.22 1.67452 3.82447 0
M  V30 45317 H 4193.61 5.70659 3.5468 0
M  V30 45318 N 4196.33 -0.884721 1.30424 0
M  V30 45319 C 4197.57 -1.63332 1.19026 0
M  V30 45320 C 4197.89 -1.93323 -0.255194 0
M  V30 45321 O 4197.16 -1.56985 -1.17186 0
M  V30 45322 H 4195.74 -0.605459 0.437525 0
M  V30 45323 H 4198.41 -1.06 1.63554 0
M  V30 45324 H 4197.5 -2.58333 1.7513 0
M  V30 45325 N 4197.8 -1.13144 -1.09709 0
M  V30 45326 C 4199.03 -0.914817 -1.86134 0
M  V30 45327 C 4199.45 0.531003 -1.80449 0
M  V30 45328 O 4198.81 1.37655 -1.17986 0
M  V30 45329 C 4198.86 -1.40361 -3.32161 0
M  V30 45330 O 4197.96 -0.586953 -4.08202 0
M  V30 45331 H 4197.3 -0.328089 -0.577281 0
M  V30 45332 H 4199.83 -1.5054 -1.3856 0
M  V30 45333 H 4199.84 -1.40596 -3.8301 0
M  V30 45334 H 4198.52 -2.45634 -3.35614 0
M  V30 45335 H 4197.1 -0.652227 -3.67152 0
M  V30 45336 N 4199.28 1.27635 -0.924498 0
M  V30 45337 C 4200.19 2.30688 -0.42662 0
M  V30 45338 C 4201.21 1.66926 0.491105 0
M  V30 45339 O 4202.38 1.97884 0.374689 0
M  V30 45340 C 4199.45 3.45261 0.31552 0
M  V30 45341 C 4198.51 4.24552 -0.63673 0
M  V30 45342 C 4197.74 5.33654 0.0700869 0
M  V30 45343 O 4197.97 5.55621 1.29001 0
M  V30 45344 O 4196.9 5.98901 -0.600103 0
M  V30 45345 H 4200.73 2.75305 -1.28221 0
M  V30 45346 H 4198.31 1.32526 -0.689722 0
M  V30 45347 H 4200.19 4.14954 0.734242 0
M  V30 45348 H 4198.87 3.02706 1.14677 0
M  V30 45349 H 4197.78 3.57406 -1.10507 0
M  V30 45350 H 4199.11 4.70814 -1.43511 0
M  V30 45351 N 4200.76 0.689652 1.41709 0
M  V30 45352 C 4201.69 -0.0298393 2.2818 0
M  V30 45353 C 4202.67 -0.793884 1.41902 0
M  V30 45354 O 4203.86 -0.785932 1.71334 0
M  V30 45355 C 4200.98 -1.04959 3.22027 0
M  V30 45356 C 4200.03 -0.379408 4.24809 0
M  V30 45357 S 4200.86 0.873885 5.28321 0
M  V30 45358 C 4202.02 -0.144422 6.25733 0
M  V30 45359 H 4202.25 0.703581 2.88855 0
M  V30 45360 H 4199.78 0.479712 1.46759 0
M  V30 45361 H 4201.74 -1.63281 3.76629 0
M  V30 45362 H 4200.4 -1.75555 2.6046 0
M  V30 45363 H 4199.6 -1.14938 4.90719 0
M  V30 45364 H 4199.2 0.130588 3.73772 0
M  V30 45365 H 4201.49 -0.999555 6.70086 0
M  V30 45366 H 4202.43 0.480598 7.06467 0
M  V30 45367 H 4202.84 -0.496548 5.62312 0
M  V30 45368 N 4202.24 -1.51507 0.433991 0
M  V30 45369 C 4203.17 -2.30554 -0.369749 0
M  V30 45370 C 4204.15 -1.35822 -1.02402 0
M  V30 45371 O 4205.33 -1.64741 -1.0283 0
M  V30 45372 C 4202.46 -3.14513 -1.47306 0
M  V30 45373 C 4201.42 -4.17495 -0.942458 0
M  V30 45374 C 4200.74 -4.89953 -2.14127 0
M  V30 45375 C 4202.04 -5.22296 0.0207876 0
M  V30 45376 H 4203.74 -2.97993 0.289903 0
M  V30 45377 H 4201.28 -1.43309 0.140866 0
M  V30 45378 H 4203.24 -3.6859 -2.04253 0
M  V30 45379 H 4201.96 -2.44888 -2.16096 0
M  V30 45380 H 4200.62 -3.64463 -0.395232 0
M  V30 45381 H 4200.27 -4.16835 -2.81528 0
M  V30 45382 H 4199.97 -5.59588 -1.79264 0
M  V30 45383 H 4201.49 -5.46853 -2.71633 0
M  V30 45384 H 4202.91 -5.71466 -0.458265 0
M  V30 45385 H 4201.3 -5.99438 0.281823 0
M  V30 45386 H 4202.37 -4.75332 0.9585 0
M  V30 45387 N 4203.72 -0.165233 -1.56731 0
M  V30 45388 C 4204.96 0.481276 -1.96698 0
M  V30 45389 C 4205.29 1.63662 -1.05095 0
M  V30 45390 O 4204.55 1.95521 -0.0837979 0
M  V30 45391 C 4204.85 1.01159 -3.42785 0
M  V30 45392 C 4204.51 -0.0272177 -4.50892 0
M  V30 45393 C 4203.17 -0.312734 -4.80183 0
M  V30 45394 C 4205.53 -0.732647 -5.16025 0
M  V30 45395 C 4202.85 -1.30917 -5.71907 0
M  V30 45396 C 4205.21 -1.71803 -6.08824 0
M  V30 45397 C 4203.87 -2.01105 -6.36485 0
M  V30 45398 H 4203.14 0.176111 -0.719768 0
M  V30 45399 H 4205.79 -0.255912 -1.89782 0
M  V30 45400 H 4204.09 1.82648 -3.46622 0
M  V30 45401 H 4205.79 1.52071 -3.71046 0
M  V30 45402 H 4202.38 0.205493 -4.28107 0
M  V30 45403 H 4206.56 -0.525273 -4.93512 0
M  V30 45404 H 4201.82 -1.54244 -5.91624 0
M  V30 45405 H 4205.99 -2.27005 -6.58363 0
M  V30 45406 H 4203.62 -2.78466 -7.07362 0
M  V30 45407 N 4205.19 1.57226 0.108512 0
M  V30 45408 C 4206.44 1.854 0.814434 0
M  V30 45409 C 4206.77 0.751842 1.79381 0
M  V30 45410 O 4206.02 -0.25585 1.9402 0
M  V30 45411 C 4206.32 3.20105 1.58958 0
M  V30 45412 C 4205.99 4.44559 0.753542 0
M  V30 45413 C 4204.65 4.78349 0.523027 0
M  V30 45414 C 4207 5.20918 0.171482 0
M  V30 45415 C 4204.33 5.85934 -0.29963 0
M  V30 45416 C 4206.68 6.2937 -0.638424 0
M  V30 45417 C 4205.35 6.61685 -0.879157 0
M  V30 45418 H 4204.62 0.678427 0.298023 0
M  V30 45419 H 4207.26 1.91348 0.0764023 0
M  V30 45420 H 4205.57 3.09781 2.39881 0
M  V30 45421 H 4207.27 3.39129 2.13993 0
M  V30 45422 H 4203.86 4.1809 0.943308 0
M  V30 45423 H 4208.04 4.95156 0.336765 0
M  V30 45424 H 4203.3 6.09391 -0.495257 0
M  V30 45425 H 4207.47 6.87715 -1.09638 0
M  V30 45426 H 4205.1 7.44881 -1.51842 0
M  V30 45427 N 4206.67 -0.378982 1.52975 0
M  V30 45428 C 4207.92 -1.12079 1.68174 0
M  V30 45429 C 4208.24 -1.90217 0.429249 0
M  V30 45430 O 4207.51 -1.87829 -0.556528 0
M  V30 45431 H 4206.09 -0.41675 0.619942 0
M  V30 45432 H 4208.75 -0.428849 1.90123 0
M  V30 45433 H 4207.85 -1.81811 2.53675 0
M  V30 45434 N 4208.15 -1.44108 -0.638015 0
M  V30 45435 C 4209.1 -1.50733 -1.77151 0
M  V30 45436 C 4210.09 -0.379596 -1.65092 0
M  V30 45437 O 4211.3 -0.554248 -1.71254 0
M  V30 45438 H 4207.67 -0.472853 -0.584734 0
M  V30 45439 H 4209.64 -2.46146 -1.68685 0
M  V30 45440 C 4208.39 -1.4621 -3.15465 0
M  V30 45441 H 4207.72 -2.32298 -3.25388 0
M  V30 45442 H 4209.16 -1.54906 -3.9469 0
M  V30 45443 C 4207.62 -0.181843 -3.36409 0
M  V30 45444 O 4208.15 0.750749 -3.94622 0
M  V30 45445 N 4206.35 -0.0871717 -2.90469 0
M  V30 45446 H 4205.9 -0.846913 -2.4328 0
M  V30 45447 H 4205.86 0.768691 -3.04858 0
M  V30 45448 N 4209.63 0.877792 -1.30891 0
M  V30 45449 C 4210.59 1.9658 -1.17851 0
M  V30 45450 C 4211.59 1.60439 -0.107748 0
M  V30 45451 O 4212.78 1.70515 -0.356418 0
M  V30 45452 C 4209.91 3.31205 -0.807209 0
M  V30 45453 H 4211.11 2.09574 -2.14519 0
M  V30 45454 H 4208.66 1.0651 -1.14391 0
M  V30 45455 H 4209.39 3.23912 0.158656 0
M  V30 45456 H 4209.18 3.58808 -1.58112 0
M  V30 45457 H 4210.67 4.10998 -0.739647 0
M  V30 45458 N 4211.11 1.13725 1.09108 0
M  V30 45459 C 4212.36 0.89565 1.80724 0
M  V30 45460 C 4212.67 -0.579692 1.86813 0
M  V30 45461 O 4213.87 -0.938323 2.5477 0
M  V30 45462 C 4212.33 1.55284 3.24677 0
M  V30 45463 C 4211.94 3.06394 3.26844 0
M  V30 45464 C 4213.68 1.39207 4.01026 0
M  V30 45465 C 4211.59 3.64982 4.65341 0
M  V30 45466 H 4210.52 0.331432 0.677251 0
M  V30 45467 H 4213.17 1.36533 1.226 0
M  V30 45468 H 4211.55 1.01082 3.82882 0
M  V30 45469 H 4212.73 3.67203 2.78386 0
M  V30 45470 H 4211.04 3.22025 2.63987 0
M  V30 45471 H 4213.64 1.80388 5.03353 0
M  V30 45472 H 4213.98 0.337309 4.14931 0
M  V30 45473 H 4214.51 1.90406 3.49271 0
M  V30 45474 H 4211.25 4.70279 4.56637 0
M  V30 45475 H 4210.77 3.08952 5.1411 0
M  V30 45476 H 4212.45 3.64851 5.34315 0
M  V30 45477 N 4212.58 -1.27143 0.931254 0
M  V30 45478 C 4213.49 -2.30459 0.438848 0
M  V30 45479 C 4214.51 -1.67184 -0.482246 0
M  V30 45480 O 4215.69 -1.9808 -0.36419 0
M  V30 45481 C 4212.75 -3.45424 -0.297205 0
M  V30 45482 C 4211.81 -4.24208 0.659236 0
M  V30 45483 C 4211.05 -5.33684 -0.0417849 0
M  V30 45484 O 4211.27 -5.56297 -1.26053 0
M  V30 45485 O 4210.2 -5.98574 0.631856 0
M  V30 45486 H 4214.03 -2.74621 1.29679 0
M  V30 45487 H 4211.61 -1.32159 0.696741 0
M  V30 45488 H 4213.5 -4.15338 -0.712226 0
M  V30 45489 H 4212.17 -3.0331 -1.1307 0
M  V30 45490 H 4211.08 -3.56815 1.12401 0
M  V30 45491 H 4212.41 -4.70046 1.46005 0
M  V30 45492 N 4214.06 -0.697157 -1.41342 0
M  V30 45493 C 4215.31 -0.228343 -2.00806 0
M  V30 45494 C 4215.63 1.17665 -1.55499 0
M  V30 45495 O 4214.9 1.79427 -0.786304 0
M  V30 45496 H 4213.48 -0.0814304 -0.742548 0
M  V30 45497 H 4216.14 -0.898671 -1.72945 0
M  V30 45498 H 4215.24 -0.247009 -3.11121 0
M  V30 45499 N 4215.54 1.51274 -0.44202 0
M  V30 45500 C 4216.49 2.27862 0.367061 0
M  V30 45501 C 4217.46 1.31653 1.01276 0
M  V30 45502 O 4218.64 1.60561 1.03077 0
M  V30 45503 C 4215.78 3.12711 1.45966 0
M  V30 45504 C 4214.9 4.2392 0.831632 0
M  V30 45505 C 4214.03 4.96071 1.89967 0
M  V30 45506 C 4213.07 5.99194 1.25033 0
M  V30 45507 N 4212.21 6.64734 2.25993 0
M  V30 45508 H 4217.05 2.96562 -0.292413 0
M  V30 45509 H 4214.58 1.4627 -0.156049 0
M  V30 45510 H 4216.54 3.60233 2.10446 0
M  V30 45511 H 4215.17 2.46116 2.0887 0
M  V30 45512 H 4214.22 3.80326 0.0749975 0
M  V30 45513 H 4215.54 4.97788 0.317604 0
M  V30 45514 H 4214.69 5.47165 2.62099 0
M  V30 45515 H 4213.43 4.21843 2.44744 0
M  V30 45516 H 4212.43 5.47387 0.514501 0
M  V30 45517 H 4213.66 6.7538 0.709832 0
M  V30 45518 H 4211.61 5.93317 2.79842 0
M  V30 45519 H 4211.52 7.34382 1.79495 0
M  V30 45520 H 4212.79 7.20457 2.97594 0
M  V30 45521 N 4217.02 0.173543 1.56642 0
M  V30 45522 C 4218.24 -0.480214 2.01764 0
M  V30 45523 C 4218.67 -1.55866 1.05297 0
M  V30 45524 O 4218.03 -1.8127 0.0328787 0
M  V30 45525 C 4218.08 -1.03343 3.45475 0
M  V30 45526 O 4217.18 -2.14733 3.52084 0
M  V30 45527 H 4216.52 -0.114732 0.654013 0
M  V30 45528 H 4219.05 0.278087 2.02701 0
M  V30 45529 H 4219.06 -1.35547 3.84826 0
M  V30 45530 H 4217.74 -0.243829 4.15185 0
M  V30 45531 H 4216.31 -1.83556 3.24595 0
M  V30 45532 N 4218.5 -1.57281 -0.100172 0
M  V30 45533 C 4219.45 -2.02704 -1.14078 0
M  V30 45534 C 4220.44 -0.927208 -1.41772 0
M  V30 45535 O 4221.65 -1.11239 -1.41512 0
M  V30 45536 H 4218.02 -0.645921 -0.385084 0
M  V30 45537 H 4219.99 -2.893 -0.731324 0
M  V30 45538 C 4218.74 -2.46302 -2.4542 0
M  V30 45539 H 4218.06 -3.30509 -2.24953 0
M  V30 45540 H 4219.5 -2.81864 -3.16747 0
M  V30 45541 C 4217.96 -1.33423 -3.09354 0
M  V30 45542 O 4218.49 -0.660563 -3.96232 0
M  V30 45543 N 4216.7 -1.0865 -2.69524 0
M  V30 45544 H 4216.25 -1.63613 -1.98969 0
M  V30 45545 H 4216.2 -0.333241 -3.12629 0
M  V30 45546 N 4219.98 0.370864 -1.53174 0
M  V30 45547 C 4221.2 1.13481 -1.73002 0
M  V30 45548 C 4221.62 1.83196 -0.45657 0
M  V30 45549 O 4220.98 1.73364 0.570187 0
M  V30 45550 C 4221.03 2.16913 -2.8919 0
M  V30 45551 O 4220.75 1.50037 -4.11607 0
M  V30 45552 C 4222.25 3.05896 -3.20847 0
M  V30 45553 H 4219.47 0.33953 -0.578758 0
M  V30 45554 H 4222.01 0.431395 -1.99898 0
M  V30 45555 H 4220.17 2.82862 -2.64704 0
M  V30 45556 H 4220.58 2.1891 -4.76633 0
M  V30 45557 H 4222.06 3.74463 -4.05563 0
M  V30 45558 H 4222.53 3.70414 -2.35988 0
M  V30 45559 H 4223.14 2.45571 -3.47239 0
M  V30 45560 N 4221.45 1.44444 0.630363 0
M  V30 45561 C 4222.7 1.47486 1.39197 0
M  V30 45562 C 4223.03 0.107347 1.93903 0
M  V30 45563 O 4222.31 -0.875128 1.737 0
M  V30 45564 C 4222.59 2.53585 2.55669 0
M  V30 45565 C 4222.44 3.99697 2.06307 0
M  V30 45566 C 4223.76 2.56181 3.57854 0
M  V30 45567 H 4220.88 0.536993 0.504785 0
M  V30 45568 H 4223.52 1.76128 0.712667 0
M  V30 45569 H 4221.67 2.29292 3.1362 0
M  V30 45570 H 4223.35 4.35124 1.53181 0
M  V30 45571 H 4221.59 4.11437 1.37484 0
M  V30 45572 H 4222.26 4.69583 2.90165 0
M  V30 45573 H 4224.74 2.77889 3.09705 0
M  V30 45574 H 4223.61 3.3232 4.36869 0
M  V30 45575 H 4223.87 1.60408 4.11973 0
M  V30 45576 N 4222.93 -0.870838 1.31355 0
M  V30 45577 C 4223.89 -1.95952 1.18892 0
M  V30 45578 C 4224.89 -1.60379 0.116255 0
M  V30 45579 O 4226.08 -1.70323 0.365456 0
M  V30 45580 C 4223.22 -3.30773 0.824762 0
M  V30 45581 H 4224.41 -2.08434 2.15628 0
M  V30 45582 H 4221.96 -1.05902 1.14954 0
M  V30 45583 H 4222.7 -3.23991 -0.141476 0
M  V30 45584 H 4222.48 -3.57964 1.60012 0
M  V30 45585 H 4223.97 -4.106 0.761433 0
M  V30 45586 N 4224.41 -1.14302 -1.08503 0
M  V30 45587 C 4225.63 -0.934508 -1.85153 0
M  V30 45588 C 4226.06 0.511834 -1.81002 0
M  V30 45589 O 4225.42 1.36396 -1.19439 0
M  V30 45590 C 4225.47 -1.43877 -3.30654 0
M  V30 45591 O 4224.57 -0.630215 -4.07556 0
M  V30 45592 H 4223.91 -0.334194 -0.573769 0
M  V30 45593 H 4226.44 -1.52001 -1.36956 0
M  V30 45594 H 4226.45 -1.44651 -3.81497 0
M  V30 45595 H 4225.13 -2.49179 -3.3299 0
M  V30 45596 H 4223.7 -0.691132 -3.66439 0
M  V30 45597 N 4225.89 1.26648 -0.937984 0
M  V30 45598 C 4226.82 2.2887 -0.462689 0
M  V30 45599 C 4227.8 1.63117 0.482371 0
M  V30 45600 O 4228.98 1.90347 0.384914 0
M  V30 45601 C 4226.11 3.46202 0.275903 0
M  V30 45602 C 4225.07 4.2402 -0.582297 0
M  V30 45603 C 4224.39 5.33934 0.286067 0
M  V30 45604 C 4225.69 4.88362 -1.85202 0
M  V30 45605 H 4227.39 2.68877 -1.31702 0
M  V30 45606 H 4224.93 1.29256 -0.634732 0
M  V30 45607 H 4226.89 4.16823 0.619422 0
M  V30 45608 H 4225.61 3.0514 1.16435 0
M  V30 45609 H 4224.27 3.5516 -0.908666 0
M  V30 45610 H 4223.92 4.89113 1.17377 0
M  V30 45611 H 4223.62 5.8691 -0.284721 0
M  V30 45612 H 4225.14 6.07394 0.624928 0
M  V30 45613 H 4226.56 5.51214 -1.57594 0
M  V30 45614 H 4224.95 5.51441 -2.36712 0
M  V30 45615 H 4226.02 4.11483 -2.56534 0
M  V30 45616 N 4227.37 0.704643 1.4097 0
M  V30 45617 C 4228.32 0.0217286 2.2799 0
M  V30 45618 C 4229.3 -0.743673 1.42683 0
M  V30 45619 O 4230.49 -0.617674 1.65873 0
M  V30 45620 C 4227.62 -0.907315 3.31093 0
M  V30 45621 C 4226.71 -0.13768 4.23876 0
M  V30 45622 N 4227.1 0.873317 4.98204 0
M  V30 45623 C 4225.4 -0.371843 4.44447 0
M  V30 45624 C 4226.1 1.33481 5.66178 0
M  V30 45625 N 4225.07 0.659013 5.39591 0
M  V30 45626 H 4228.87 0.796748 2.82894 0
M  V30 45627 H 4226.39 0.536267 1.5329 0
M  V30 45628 H 4228.39 -1.41178 3.92268 0
M  V30 45629 H 4227.05 -1.68183 2.77749 0
M  V30 45630 H 4228.06 1.25384 5.02493 0
M  V30 45631 H 4224.73 -1.12354 4.02098 0
M  V30 45632 H 4226.12 2.17426 6.35748 0
M  V30 45633 N 4228.84 -1.51038 0.450036 0
M  V30 45634 C 4230.07 -2.06605 -0.11046 0
M  V30 45635 C 4230.49 -1.31618 -1.3536 0
M  V30 45636 O 4229.84 -0.379338 -1.78514 0
M  V30 45637 C 4229.9 -3.59053 -0.419885 0
M  V30 45638 O 4229.62 -4.3121 0.773924 0
M  V30 45639 C 4231.12 -4.31176 -1.02966 0
M  V30 45640 H 4228.34 -0.670996 -0.00229042 0
M  V30 45641 H 4230.88 -1.94464 0.632771 0
M  V30 45642 H 4229.04 -3.71067 -1.11302 0
M  V30 45643 H 4229.45 -5.22055 0.505809 0
M  V30 45644 H 4230.92 -5.38886 -1.19608 0
M  V30 45645 H 4231.4 -3.90293 -2.01415 0
M  V30 45646 H 4232.01 -4.23639 -0.375533 0
M  V30 45647 N 4230.32 -0.181847 -1.56547 0
M  V30 45648 C 4231.23 0.756558 -2.22066 0
M  V30 45649 C 4232.25 1.24499 -1.21556 0
M  V30 45650 O 4233.42 1.29492 -1.54252 0
M  V30 45651 C 4230.49 1.96435 -2.85682 0
M  V30 45652 C 4229.55 1.52178 -4.01423 0
M  V30 45653 C 4228.78 2.672 -4.61995 0
M  V30 45654 O 4229.01 3.84343 -4.2147 0
M  V30 45655 O 4227.94 2.40672 -5.51689 0
M  V30 45656 H 4231.77 0.228643 -3.02838 0
M  V30 45657 H 4229.35 0.0468399 -1.49327 0
M  V30 45658 H 4231.23 2.67051 -3.25978 0
M  V30 45659 H 4229.91 2.48113 -2.07899 0
M  V30 45660 H 4228.82 0.784813 -3.65775 0
M  V30 45661 H 4230.15 1.05181 -4.8083 0
M  V30 45662 N 4231.8 1.57332 0.09183 0
M  V30 45663 C 4232.75 2.02291 1.11117 0
M  V30 45664 C 4233.72 0.899816 1.39616 0
M  V30 45665 O 4234.9 1.16605 1.51023 0
M  V30 45666 C 4232.04 2.45506 2.4253 0
M  V30 45667 C 4231.16 3.71349 2.20735 0
M  V30 45668 C 4230.29 4.0343 3.45569 0
M  V30 45669 C 4229.33 5.22373 3.1905 0
M  V30 45670 N 4228.47 5.5019 4.3616 0
M  V30 45671 H 4233.31 2.89151 0.720796 0
M  V30 45672 H 4230.84 1.43012 0.344373 0
M  V30 45673 H 4232.8 2.68607 3.19228 0
M  V30 45674 H 4231.43 1.61651 2.79408 0
M  V30 45675 H 4230.48 3.55706 1.34824 0
M  V30 45676 H 4231.8 4.58192 1.97133 0
M  V30 45677 H 4230.95 4.27324 4.30673 0
M  V30 45678 H 4229.69 3.15115 3.72228 0
M  V30 45679 H 4228.69 4.98295 2.3234 0
M  V30 45680 H 4229.92 6.12289 2.93733 0
M  V30 45681 H 4227.86 4.64834 4.62888 0
M  V30 45682 H 4227.78 6.31411 4.1576 0
M  V30 45683 H 4229.05 5.78622 5.22318 0
M  V30 45684 N 4233.28 -0.362736 1.53369 0
M  V30 45685 C 4234.23 -1.46482 1.80681 0
M  V30 45686 C 4235.22 -1.55323 0.676101 0
M  V30 45687 O 4236.43 -1.58176 0.859096 0
M  V30 45688 H 4232.8 -0.488034 0.572125 0
M  V30 45689 H 4234.77 -1.20652 2.72921 0
M  V30 45690 C 4233.52 -2.83278 2.01616 0
M  V30 45691 H 4232.84 -2.77235 2.88064 0
M  V30 45692 H 4234.28 -3.59562 2.24702 0
M  V30 45693 C 4232.74 -3.27359 0.79608 0
M  V30 45694 O 4233.27 -4.01698 -0.0138511 0
M  V30 45695 N 4231.48 -2.83937 0.618715 0
M  V30 45696 H 4231.03 -2.23608 1.27896 0
M  V30 45697 H 4230.98 -3.13787 -0.196209 0
M  V30 45698 N 4234.76 -1.44777 -0.622694 0
M  V30 45699 C 4235.98 -1.51501 -1.40908 0
M  V30 45700 C 4236.4 -0.142612 -1.88261 0
M  V30 45701 O 4235.76 0.853077 -1.61335 0
M  V30 45702 C 4235.81 -2.4868 -2.62375 0
M  V30 45703 O 4235.53 -3.80585 -2.16994 0
M  V30 45704 C 4237.03 -2.64953 -3.55408 0
M  V30 45705 H 4234.25 -0.51356 -0.431853 0
M  V30 45706 H 4236.79 -1.89822 -0.760788 0
M  V30 45707 H 4234.95 -2.13472 -3.23277 0
M  V30 45708 H 4235.36 -4.33129 -2.95803 0
M  V30 45709 H 4236.84 -3.36959 -4.37221 0
M  V30 45710 H 4237.31 -1.70469 -4.04768 0
M  V30 45711 H 4237.92 -3.01096 -3.00368 0
M  V30 45712 N 4236.23 0.863859 -1.31815 0
M  V30 45713 C 4237.16 1.98739 -1.22577 0
M  V30 45714 C 4238.15 1.69733 -0.111615 0
M  V30 45715 O 4239.33 1.91912 -0.297243 0
M  V30 45716 C 4236.46 3.34376 -0.938618 0
M  V30 45717 C 4235.41 3.77706 -2.01301 0
M  V30 45718 C 4234.74 5.10871 -1.57843 0
M  V30 45719 C 4236.04 3.94158 -3.42691 0
M  V30 45720 H 4237.73 2.06725 -2.16576 0
M  V30 45721 H 4235.28 0.993228 -1.04264 0
M  V30 45722 H 4237.23 4.12519 -0.860573 0
M  V30 45723 H 4235.96 3.26579 0.0370209 0
M  V30 45724 H 4234.62 3.01807 -2.08105 0
M  V30 45725 H 4234.26 4.99522 -0.590488 0
M  V30 45726 H 4233.96 5.40834 -2.29723 0
M  V30 45727 H 4235.49 5.91517 -1.51458 0
M  V30 45728 H 4236.9 4.62679 -3.38527 0
M  V30 45729 H 4235.3 4.35526 -4.1284 0
M  V30 45730 H 4236.37 2.97351 -3.83028 0
M  V30 45731 N 4237.71 1.14875 1.07895 0
M  V30 45732 C 4238.62 0.854298 2.18492 0
M  V30 45733 C 4239.64 -0.167267 1.73194 0
M  V30 45734 O 4240.81 0.00547977 2.01399 0
M  V30 45735 C 4237.88 0.341709 3.45012 0
M  V30 45736 C 4236.94 1.42648 4.04907 0
M  V30 45737 C 4236.17 0.938258 5.25388 0
M  V30 45738 O 4236.4 -0.218291 5.69982 0
M  V30 45739 O 4235.33 1.71954 5.76815 0
M  V30 45740 H 4239.16 1.77872 2.46161 0
M  V30 45741 H 4236.74 0.927426 1.17129 0
M  V30 45742 H 4238.62 0.0620314 4.21354 0
M  V30 45743 H 4237.3 -0.554913 3.18908 0
M  V30 45744 H 4236.21 1.75969 3.3013 0
M  V30 45745 H 4237.54 2.29782 4.35271 0
M  V30 45746 N 4239.19 -1.26148 0.944687 0
M  V30 45747 C 4240.12 -2.28621 0.47482 0
M  V30 45748 C 4241.1 -1.63371 -0.473714 0
M  V30 45749 O 4242.29 -1.90549 -0.374814 0
M  V30 45750 C 4239.42 -3.46344 -0.257539 0
M  V30 45751 C 4238.37 -4.23706 0.604775 0
M  V30 45752 C 4237.7 -5.34078 -0.257748 0
M  V30 45753 C 4239 -4.87373 1.87789 0
M  V30 45754 H 4240.69 -2.68175 1.33127 0
M  V30 45755 H 4238.24 -1.28918 0.641577 0
M  V30 45756 H 4240.19 -4.17145 -0.597309 0
M  V30 45757 H 4238.91 -3.05753 -1.14815 0
M  V30 45758 H 4237.57 -3.54673 0.927488 0
M  V30 45759 H 4237.22 -4.89729 -1.14782 0
M  V30 45760 H 4236.92 -5.86751 0.315842 0
M  V30 45761 H 4238.44 -6.07716 -0.592708 0
M  V30 45762 H 4239.86 -5.50371 1.60515 0
M  V30 45763 H 4238.26 -5.50178 2.39633 0
M  V30 45764 H 4239.33 -4.10117 2.58712 0
M  V30 45765 N 4240.67 -0.712109 -1.40594 0
M  V30 45766 C 4241.89 -0.258233 -2.05786 0
M  V30 45767 C 4242.32 1.09012 -1.53291 0
M  V30 45768 O 4241.68 1.68593 -0.666801 0
M  V30 45769 C 4241.72 -0.24442 -3.59771 0
M  V30 45770 O 4240.83 0.775478 -4.05043 0
M  V30 45771 H 4240.17 -0.122032 -0.65269 0
M  V30 45772 H 4242.7 -0.971615 -1.80058 0
M  V30 45773 H 4242.71 -0.0809154 -4.0792 0
M  V30 45774 H 4241.38 -1.22841 -3.97345 0
M  V30 45775 H 4239.96 0.579981 -3.68362 0
M  V30 45776 N 4242.15 1.50797 -0.45804 0
M  V30 45777 C 4243.09 2.29843 0.357043 0
M  V30 45778 C 4244.09 1.36569 1.00226 0
M  V30 45779 O 4245.29 1.53819 0.934861 0
M  V30 45780 H 4241.67 0.73997 0.133972 0
M  V30 45781 H 4243.64 2.96567 -0.330218 0
M  V30 45782 C 4242.39 3.16752 1.43399 0
M  V30 45783 H 4241.71 3.88425 0.946879 0
M  V30 45784 H 4243.15 3.7508 1.97714 0
M  V30 45785 C 4241.61 2.33482 2.42874 0
M  V30 45786 O 4242.14 2.0088 3.47865 0
M  V30 45787 N 4240.35 1.9631 2.14268 0
M  V30 45788 H 4239.89 2.23022 1.28914 0
M  V30 45789 H 4239.85 1.40896 2.81062 0
M  V30 45790 N 4243.63 0.190147 1.56449 0
M  V30 45791 C 4244.87 -0.449034 1.97048 0
M  V30 45792 C 4245.19 -1.62494 1.078 0
M  V30 45793 O 4244.46 -1.95338 0.148238 0
M  V30 45794 H 4243.04 -0.168883 0.727659 0
M  V30 45795 H 4245.71 0.275725 1.9294 0
M  V30 45796 H 4244.8 -0.796477 3.01766 0
M  V30 45797 N 4245.1 -1.57379 -0.083485 0
M  V30 45798 C 4246.35 -1.86949 -0.785998 0
M  V30 45799 C 4246.68 -0.78086 -1.7781 0
M  V30 45800 O 4245.96 0.210041 -1.93363 0
M  V30 45801 C 4246.24 -3.27169 -1.50442 0
M  V30 45802 C 4246.09 -4.46672 -0.529522 0
M  V30 45803 C 4247.41 -3.65453 -2.45219 0
M  V30 45804 H 4244.53 -0.679965 -0.284282 0
M  V30 45805 H 4247.17 -1.89936 -0.0493897 0
M  V30 45806 H 4245.32 -3.24753 -2.13231 0
M  V30 45807 H 4247 -4.61208 0.0922653 0
M  V30 45808 H 4245.24 -4.33519 0.156145 0
M  V30 45809 H 4245.91 -5.41539 -1.06958 0
M  V30 45810 H 4248.39 -3.68887 -1.92514 0
M  V30 45811 H 4247.26 -4.64475 -2.92496 0
M  V30 45812 H 4247.52 -2.94757 -3.29501 0
M  V30 45813 N 4246.58 0.354597 -1.53559 0
M  V30 45814 C 4247.83 1.09343 -1.69491 0
M  V30 45815 C 4248.14 1.90139 -0.458969 0
M  V30 45816 O 4249.35 2.66874 -0.499028 0
M  V30 45817 C 4247.81 1.99319 -2.99667 0
M  V30 45818 C 4247.41 1.23782 -4.3056 0
M  V30 45819 C 4249.16 2.73126 -3.24965 0
M  V30 45820 C 4247.06 2.12724 -5.51818 0
M  V30 45821 H 4245.99 0.411911 -0.631542 0
M  V30 45822 H 4248.65 0.353655 -1.8006 0
M  V30 45823 H 4247.03 2.77071 -2.82927 0
M  V30 45824 H 4248.2 0.510169 -4.57967 0
M  V30 45825 H 4246.52 0.617901 -4.1179 0
M  V30 45826 H 4249.11 3.3992 -4.12745 0
M  V30 45827 H 4249.46 3.39094 -2.41497 0
M  V30 45828 H 4249.99 2.02452 -3.42429 0
M  V30 45829 H 4246.73 1.51316 -6.37796 0
M  V30 45830 H 4246.25 2.83308 -5.28674 0
M  V30 45831 H 4247.93 2.72031 -5.87033 0
M  V30 45832 N 4248.06 1.45105 0.615008 0
M  V30 45833 C 4249.31 1.48954 1.37625 0
M  V30 45834 C 4249.64 0.127907 1.93778 0
M  V30 45835 O 4248.91 -0.856656 1.74619 0
M  V30 45836 C 4249.2 2.56282 2.52965 0
M  V30 45837 C 4249.05 4.01862 2.02056 0
M  V30 45838 C 4250.37 2.59962 3.55117 0
M  V30 45839 H 4247.49 0.542317 0.499061 0
M  V30 45840 H 4250.13 1.76874 0.693946 0
M  V30 45841 H 4248.28 2.32606 3.1117 0
M  V30 45842 H 4249.95 4.36725 1.48558 0
M  V30 45843 H 4248.19 4.12872 1.33113 0
M  V30 45844 H 4248.87 4.72634 2.85168 0
M  V30 45845 H 4251.34 2.81158 3.0674 0
M  V30 45846 H 4250.22 3.36935 4.3332 0
M  V30 45847 H 4250.48 1.64768 4.10248 0
M  V30 45848 N 4249.54 -0.856857 1.32271 0
M  V30 45849 C 4250.48 -1.96525 1.21023 0
M  V30 45850 C 4251.45 -1.6584 0.092914 0
M  V30 45851 O 4252.64 -1.88907 0.268077 0
M  V30 45852 C 4249.78 -3.32136 0.937001 0
M  V30 45853 C 4248.89 -3.75333 2.1389 0
M  V30 45854 C 4248.03 -4.99725 1.80134 0
M  V30 45855 C 4247.07 -5.35407 2.96657 0
M  V30 45856 N 4246.2 -6.50977 2.63008 0
M  V30 45857 H 4251.04 -2.05477 2.15831 0
M  V30 45858 H 4248.58 -1.00573 1.07347 0
M  V30 45859 H 4250.54 -4.10236 0.75909 0
M  V30 45860 H 4249.17 -3.2279 0.0257197 0
M  V30 45861 H 4248.22 -2.92905 2.42716 0
M  V30 45862 H 4249.53 -3.97699 3.01059 0
M  V30 45863 H 4248.69 -5.85527 1.58881 0
M  V30 45864 H 4247.43 -4.79291 0.901746 0
M  V30 45865 H 4246.43 -4.48119 3.18543 0
M  V30 45866 H 4247.66 -5.578 3.87345 0
M  V30 45867 H 4245.6 -6.32064 1.75588 0
M  V30 45868 H 4245.52 -6.73351 3.43708 0
M  V30 45869 H 4246.79 -7.39937 2.45181 0
M  V30 45870 N 4251.02 -1.15446 -1.07285 0
M  V30 45871 C 4252.26 -0.924288 -1.79276 0
M  V30 45872 C 4252.58 0.549899 -1.87711 0
M  V30 45873 O 4253.78 0.897673 -2.56231 0
M  V30 45874 C 4252.24 -1.60429 -3.22165 0
M  V30 45875 C 4251.85 -3.11555 -3.21928 0
M  V30 45876 C 4253.59 -1.4557 -3.9876 0
M  V30 45877 C 4251.5 -3.72339 -4.59475 0
M  V30 45878 H 4250.43 -0.342165 -0.671892 0
M  V30 45879 H 4253.08 -1.38467 -1.20413 0
M  V30 45880 H 4251.46 -1.07161 -3.81225 0
M  V30 45881 H 4252.64 -3.71585 -2.72509 0
M  V30 45882 H 4250.95 -3.26184 -2.58831 0
M  V30 45883 H 4253.55 -1.88373 -5.00419 0
M  V30 45884 H 4253.89 -0.403278 -4.14342 0
M  V30 45885 H 4254.42 -1.95939 -3.46198 0
M  V30 45886 H 4251.16 -4.77484 -4.49098 0
M  V30 45887 H 4250.68 -3.17092 -5.09129 0
M  V30 45888 H 4252.36 -3.73305 -5.28443 0
M  V30 45889 N 4252.49 1.25646 -0.951364 0
M  V30 45890 C 4253.44 2.28006 -0.460008 0
M  V30 45891 C 4254.44 1.62807 0.468016 0
M  V30 45892 O 4255.64 1.76661 0.345105 0
M  V30 45893 H 4252.02 0.740634 -0.130248 0
M  V30 45894 H 4253.99 2.66839 -1.33564 0
M  V30 45895 C 4252.74 3.46801 0.249849 0
M  V30 45896 H 4252.06 3.97201 -0.455105 0
M  V30 45897 H 4253.5 4.20316 0.557718 0
M  V30 45898 C 4251.96 3.03079 1.47122 0
M  V30 45899 O 4252.49 3.08805 2.56909 0
M  V30 45900 N 4250.69 2.58306 1.3314 0
M  V30 45901 H 4250.24 2.53846 0.438148 0
M  V30 45902 H 4250.2 2.29416 2.14978 0
M  V30 45903 N 4253.97 0.719555 1.40215 0
M  V30 45904 C 4254.92 0.058462 2.32527 0
M  V30 45905 C 4255.91 -0.742719 1.5225 0
M  V30 45906 O 4257.12 -0.645641 1.68022 0
M  V30 45907 H 4253.49 0.000102846 0.752 0
M  V30 45908 H 4255.47 0.853672 2.85928 0
M  V30 45909 C 4254.21 -0.84628 3.37244 0
M  V30 45910 H 4253.54 -0.23919 3.99084 0
M  V30 45911 H 4254.98 -1.27673 4.04321 0
M  V30 45912 C 4253.44 -1.97355 2.73043 0
M  V30 45913 O 4253.97 -3.06477 2.59682 0
M  V30 45914 N 4252.17 -1.75836 2.31366 0
M  V30 45915 H 4251.72 -0.870863 2.42433 0
M  V30 45916 H 4251.68 -2.51438 1.88749 0
M  V30 45917 N 4255.45 -1.50552 0.466031 0
M  V30 45918 C 4256.38 -2.26243 -0.366983 0
M  V30 45919 C 4257.39 -1.31373 -0.961503 0
M  V30 45920 O 4258.58 -1.56921 -0.850768 0
M  V30 45921 C 4255.68 -3.02488 -1.5282 0
M  V30 45922 C 4254.86 -4.24675 -1.04739 0
M  V30 45923 C 4253.92 -4.83256 -2.08206 0
M  V30 45924 O 4252.94 -5.44312 -1.66473 0
M  V30 45925 N 4254.14 -4.69809 -3.40969 0
M  V30 45926 H 4256.91 -2.98371 0.281879 0
M  V30 45927 H 4254.47 -1.59161 0.296525 0
M  V30 45928 H 4256.46 -3.38559 -2.2172 0
M  V30 45929 H 4255.03 -2.3319 -2.08185 0
M  V30 45930 H 4254.25 -3.93768 -0.184445 0
M  V30 45931 H 4255.54 -5.03906 -0.703984 0
M  V30 45932 H 4254.94 -4.21241 -3.77588 0
M  V30 45933 H 4253.49 -5.10163 -4.05681 0
M  V30 45934 N 4256.93 -0.198441 -1.56346 0
M  V30 45935 C 4257.86 0.716204 -2.22245 0
M  V30 45936 C 4258.84 1.21874 -1.18662 0
M  V30 45937 O 4260.02 1.26697 -1.47179 0
M  V30 45938 C 4257.15 1.93441 -2.88441 0
M  V30 45939 C 4256.11 1.56665 -3.98296 0
M  V30 45940 C 4255.43 2.86174 -4.51673 0
M  V30 45941 C 4256.73 0.774062 -5.16532 0
M  V30 45942 H 4258.43 0.166831 -2.98935 0
M  V30 45943 H 4255.97 0.0788015 -1.43784 0
M  V30 45944 H 4257.93 2.57951 -3.33225 0
M  V30 45945 H 4256.65 2.50837 -2.09161 0
M  V30 45946 H 4255.31 0.945116 -3.54208 0
M  V30 45947 H 4254.96 3.41667 -3.69152 0
M  V30 45948 H 4254.66 2.62311 -5.25801 0
M  V30 45949 H 4256.18 3.51667 -4.99162 0
M  V30 45950 H 4257.6 1.32234 -5.57841 0
M  V30 45951 H 4255.99 0.633427 -5.96748 0
M  V30 45952 H 4257.06 -0.224183 -4.84381 0
M  V30 45953 N 4258.41 1.57421 0.0751377 0
M  V30 45954 C 4259.63 1.91309 0.787938 0
M  V30 45955 C 4260.05 0.794085 1.71288 0
M  V30 45956 O 4259.41 -0.232778 1.81009 0
M  V30 45957 C 4259.46 3.24929 1.58441 0
M  V30 45958 O 4259.18 4.32526 0.696651 0
M  V30 45959 C 4260.68 3.72809 2.39851 0
M  V30 45960 H 4257.9 0.632433 0.224209 0
M  V30 45961 H 4260.44 2.04447 0.0464058 0
M  V30 45962 H 4258.6 3.13328 2.27826 0
M  V30 45963 H 4259.01 5.0938 1.25029 0
M  V30 45964 H 4260.49 4.68943 2.91198 0
M  V30 45965 H 4260.96 3.0165 3.19223 0
M  V30 45966 H 4261.57 3.87343 1.75629 0
M  V30 45967 N 4259.88 -0.346449 1.53745 0
M  V30 45968 C 4260.81 -1.43096 1.84515 0
M  V30 45969 C 4261.8 -1.55027 0.700053 0
M  V30 45970 O 4262.98 -1.69282 0.951696 0
M  V30 45971 C 4260.11 -2.80186 2.05215 0
M  V30 45972 C 4259.06 -2.83064 3.21027 0
M  V30 45973 C 4258.39 -4.23012 3.27055 0
M  V30 45974 C 4259.69 -2.48862 4.59201 0
M  V30 45975 H 4261.38 -1.17594 2.7534 0
M  V30 45976 H 4258.93 -0.564259 1.32484 0
M  V30 45977 H 4260.88 -3.56099 2.25325 0
M  V30 45978 H 4259.61 -3.07116 1.11118 0
M  V30 45979 H 4258.27 -2.09604 3.00769 0
M  V30 45980 H 4257.91 -4.47047 2.30559 0
M  V30 45981 H 4257.61 -4.2585 4.04878 0
M  V30 45982 H 4259.14 -5.00771 3.49372 0
M  V30 45983 H 4260.55 -3.14488 4.79344 0
M  V30 45984 H 4258.95 -2.62987 5.39405 0
M  V30 45985 H 4260.02 -1.44056 4.63007 0
M  V30 45986 N 4261.36 -1.45429 -0.607304 0
M  V30 45987 C 4262.64 -1.39935 -1.36666 0
M  V30 45988 C 4263.02 -0.0701034 -2.10984 0
M  V30 45989 O 4262.37 0.947947 -2.07909 0
M  V30 45990 C 4262.58 -2.61323 -2.31325 0
M  V30 45991 C 4263.93 -3.06422 -2.93923 0
M  V30 45992 O 4264.95 -2.61698 -2.41646 0
M  V30 45993 O 4263.81 -3.84037 -3.88816 0
M  V30 45994 H 4260.9 -0.55532 -0.61282 0
M  V30 45995 H 4263.45 -1.57558 -0.630369 0
M  V30 45996 H 4262.22 -3.4965 -1.75671 0
M  V30 45997 H 4261.84 -2.46035 -3.12334 0
M  V30 45998 N 4262.84 0.84983 -1.32724 0
M  V30 45999 C 4264.07 1.64191 -1.26713 0
M  V30 46000 C 4264.49 1.87409 0.161059 0
M  V30 46001 O 4263.85 1.43033 1.11406 0
M  V30 46002 C 4263.9 2.97561 -2.03691 0
M  V30 46003 O 4263 3.8834 -1.38801 0
M  V30 46004 H 4262.34 0.500392 -0.436468 0
M  V30 46005 H 4264.87 1.0581 -1.75115 0
M  V30 46006 H 4264.88 3.47345 -2.14046 0
M  V30 46007 H 4263.56 2.79983 -3.07542 0
M  V30 46008 H 4262.13 3.46812 -1.37024 0
M  V30 46009 N 4264.32 1.16013 1.06671 0
M  V30 46010 C 4265.27 0.859147 2.16151 0
M  V30 46011 C 4266.26 -0.170251 1.68542 0
M  V30 46012 O 4267.47 -0.02461 1.79983 0
M  V30 46013 H 4263.84 0.260208 0.705546 0
M  V30 46014 H 4265.81 1.78999 2.38751 0
M  V30 46015 C 4264.56 0.372461 3.45699 0
M  V30 46016 H 4263.88 1.15598 3.82723 0
M  V30 46017 H 4265.32 0.200593 4.23525 0
M  V30 46018 C 4263.78 -0.907293 3.24453 0
M  V30 46019 O 4264.31 -1.97737 3.49661 0
M  V30 46020 N 4262.52 -0.849539 2.77905 0
M  V30 46021 H 4262.07 0.0214511 2.57591 0
M  V30 46022 H 4262.02 -1.70631 2.64069 0
M  V30 46023 N 4265.8 -1.25139 0.958014 0
M  V30 46024 C 4267.02 -1.97014 0.631922 0
M  V30 46025 C 4267.44 -1.71168 -0.796678 0
M  V30 46026 O 4266.8 -0.98971 -1.53333 0
M  V30 46027 C 4266.85 -3.50495 0.885198 0
M  V30 46028 O 4266.57 -3.7545 2.25763 0
M  V30 46029 C 4268.07 -4.39595 0.571959 0
M  V30 46030 H 4265.29 -0.627896 0.236617 0
M  V30 46031 H 4267.83 -1.59221 1.28331 0
M  V30 46032 H 4265.99 -3.86386 0.28017 0
M  V30 46033 H 4266.4 -4.6989 2.33031 0
M  V30 46034 H 4267.88 -5.46177 0.799694 0
M  V30 46035 H 4268.35 -4.36418 -0.493566 0
M  V30 46036 H 4268.96 -4.09275 1.15646 0
M  V30 46037 N 4267.27 -0.726981 -1.39831 0
M  V30 46038 C 4268.22 -0.0817785 -2.30655 0
M  V30 46039 C 4269.19 0.738231 -1.48793 0
M  V30 46040 O 4270.38 0.699842 -1.77502 0
M  V30 46041 C 4267.52 0.82554 -3.3508 0
M  V30 46042 C 4266.63 -0.00622093 -4.32 0
M  V30 46043 C 4265.76 0.901628 -5.23492 0
M  V30 46044 C 4264.8 0.0646364 -6.12066 0
M  V30 46045 N 4263.94 0.92798 -6.9594 0
M  V30 46046 H 4268.78 -0.861956 -2.85262 0
M  V30 46047 H 4266.32 -0.436733 -1.40467 0
M  V30 46048 H 4268.28 1.36595 -3.94205 0
M  V30 46049 H 4266.91 1.57178 -2.81949 0
M  V30 46050 H 4265.96 -0.663956 -3.74561 0
M  V30 46051 H 4267.27 -0.653737 -4.94497 0
M  V30 46052 H 4266.42 1.51017 -5.87604 0
M  V30 46053 H 4265.16 1.58294 -4.61296 0
M  V30 46054 H 4264.17 -0.556761 -5.46974 0
M  V30 46055 H 4265.39 -0.613341 -6.76325 0
M  V30 46056 H 4263.34 1.59473 -6.36321 0
M  V30 46057 H 4263.26 0.336762 -7.5525 0
M  V30 46058 H 4264.52 1.52234 -7.6449 0
M  V30 46059 N 4268.75 1.50303 -0.474008 0
M  V30 46060 C 4269.98 2.06455 0.0774644 0
M  V30 46061 C 4270.39 1.3377 1.33799 0
M  V30 46062 O 4269.73 0.401413 1.79261 0
M  V30 46063 C 4269.8 3.56936 0.428594 0
M  V30 46064 C 4269.46 4.51127 -0.730323 0
M  V30 46065 C 4270.46 4.94239 -1.61319 0
M  V30 46066 C 4268.14 4.93775 -0.921477 0
M  V30 46067 C 4270.14 5.7871 -2.67159 0
M  V30 46068 C 4267.82 5.78028 -1.9831 0
M  V30 46069 C 4268.82 6.20397 -2.85651 0
M  V30 46070 O 4268.51 7.0297 -3.89985 0
M  V30 46071 H 4268.24 0.675981 -0.00506749 0
M  V30 46072 H 4270.79 1.94417 -0.662662 0
M  V30 46073 H 4269.02 3.66886 1.22195 0
M  V30 46074 H 4270.71 3.95441 0.915492 0
M  V30 46075 H 4271.48 4.61956 -1.47721 0
M  V30 46076 H 4267.36 4.60316 -0.251104 0
M  V30 46077 H 4270.9 6.117 -3.35363 0
M  V30 46078 H 4266.8 6.09724 -2.11913 0
M  V30 46079 H 4267.57 7.21226 -3.87009 0
M  V30 46080 N 4270.23 0.20673 1.56238 0
M  V30 46081 C 4271.48 -0.428956 1.97905 0
M  V30 46082 C 4271.81 -1.60818 1.09397 0
M  V30 46083 O 4271.06 -1.9523 0.135607 0
M  V30 46084 C 4271.36 -0.920351 3.45347 0
M  V30 46085 C 4271.03 0.146754 4.50661 0
M  V30 46086 C 4269.69 0.439936 4.79185 0
M  V30 46087 C 4272.04 0.869204 5.13901 0
M  V30 46088 C 4269.37 1.46034 5.68235 0
M  V30 46089 C 4271.72 1.87884 6.04055 0
M  V30 46090 C 4270.38 2.1791 6.30929 0
M  V30 46091 H 4269.65 -0.156966 0.724184 0
M  V30 46092 H 4272.3 0.306139 1.89037 0
M  V30 46093 H 4270.61 -1.73394 3.51343 0
M  V30 46094 H 4272.3 -1.4218 3.74948 0
M  V30 46095 H 4268.89 -0.0919161 4.28501 0
M  V30 46096 H 4273.08 0.655934 4.91946 0
M  V30 46097 H 4268.33 1.69876 5.87326 0
M  V30 46098 H 4272.51 2.4438 6.52113 0
M  V30 46099 H 4270.13 2.97123 6.9973 0
M  V30 46100 N 4271.71 -1.57458 -0.0667882 0
M  V30 46101 C 4272.66 -2.00482 -1.08586 0
M  V30 46102 C 4273.64 -0.887691 -1.34197 0
M  V30 46103 O 4274.83 -1.1516 -1.34414 0
M  V30 46104 C 4271.96 -2.45647 -2.39818 0
M  V30 46105 C 4271.05 -3.64105 -2.1746 0
M  V30 46106 N 4271.44 -4.78115 -1.65045 0
M  V30 46107 C 4269.74 -3.70751 -2.47911 0
M  V30 46108 C 4270.44 -5.59939 -1.57618 0
M  V30 46109 N 4269.42 -5.03932 -2.03847 0
M  V30 46110 H 4273.22 -2.86067 -0.674006 0
M  V30 46111 H 4270.73 -1.60076 -0.273777 0
M  V30 46112 H 4272.73 -2.74711 -3.13591 0
M  V30 46113 H 4271.39 -1.61451 -2.81715 0
M  V30 46114 H 4272.4 -5.00308 -1.33838 0
M  V30 46115 H 4269.08 -2.97278 -2.93141 0
M  V30 46116 H 4270.47 -6.61474 -1.17903 0
M  V30 46117 N 4273.19 0.33829 -1.53926 0
M  V30 46118 C 4274.13 1.41568 -1.82283 0
M  V30 46119 C 4275.1 1.52037 -0.66888 0
M  V30 46120 O 4276.29 1.67492 -0.913842 0
M  V30 46121 C 4273.43 2.78145 -2.04278 0
M  V30 46122 C 4272.54 2.76426 -3.31983 0
M  V30 46123 C 4271.68 4.04753 -3.44018 0
M  V30 46124 C 4270.72 3.97283 -4.65653 0
M  V30 46125 N 4269.85 5.17312 -4.74692 0
M  V30 46126 H 4274.69 1.16687 -2.74204 0
M  V30 46127 H 4272.23 0.565149 -1.3581 0
M  V30 46128 H 4274.19 3.57522 -2.1502 0
M  V30 46129 H 4272.82 3.01366 -1.15664 0
M  V30 46130 H 4271.87 1.89124 -3.30055 0
M  V30 46131 H 4273.18 2.66785 -4.21458 0
M  V30 46132 H 4272.34 4.92557 -3.54221 0
M  V30 46133 H 4271.08 4.17182 -2.52608 0
M  V30 46134 H 4270.08 3.07865 -4.55521 0
M  V30 46135 H 4271.31 3.86433 -5.58432 0
M  V30 46136 H 4269.25 5.30274 -3.86194 0
M  V30 46137 H 4269.17 5.09948 -5.58112 0
M  V30 46138 H 4270.44 6.06871 -4.89211 0
M  V30 46139 N 4274.67 1.45749 0.599583 0
M  V30 46140 C 4275.6 1.5788 1.72035 0
M  V30 46141 C 4276.58 0.429922 1.64577 0
M  V30 46142 O 4277.76 0.654069 1.82854 0
M  V30 46143 C 4274.89 1.55277 3.10655 0
M  V30 46144 C 4273.85 2.68963 3.32931 0
M  V30 46145 C 4273.17 2.51416 4.71905 0
M  V30 46146 C 4274.47 4.10917 3.22404 0
M  V30 46147 H 4276.17 2.51696 1.6214 0
M  V30 46148 H 4273.71 1.21134 0.778619 0
M  V30 46149 H 4275.66 1.6236 3.88867 0
M  V30 46150 H 4274.39 0.579948 3.2141 0
M  V30 46151 H 4273.05 2.61322 2.57112 0
M  V30 46152 H 4272.7 1.52255 4.79403 0
M  V30 46153 H 4272.4 3.27659 4.87764 0
M  V30 46154 H 4273.92 2.60365 5.52307 0
M  V30 46155 H 4275.33 4.19759 3.90481 0
M  V30 46156 H 4273.73 4.87613 3.49791 0
M  V30 46157 H 4274.8 4.3226 2.19725 0
M  V30 46158 N 4276.14 -0.84278 1.33173 0
M  V30 46159 C 4277.09 -1.97371 1.23076 0
M  V30 46160 C 4278.09 -1.68877 0.132968 0
M  V30 46161 O 4279.29 -1.77538 0.296674 0
M  V30 46162 H 4275.67 -0.64785 0.38183 0
M  V30 46163 H 4277.64 -2.03012 2.18697 0
M  V30 46164 C 4276.39 -3.3352 0.982836 0
M  V30 46165 H 4275.71 -3.55982 1.81981 0
M  V30 46166 H 4277.15 -4.13163 0.952477 0
M  V30 46167 C 4275.61 -3.35431 -0.314293 0
M  V30 46168 O 4276.14 -3.79313 -1.32228 0
M  V30 46169 N 4274.34 -2.88599 -0.340455 0
M  V30 46170 H 4273.89 -2.53082 0.480363 0
M  V30 46171 H 4273.85 -2.9026 -1.20817 0
M  V30 46172 N 4277.62 -1.16577 -1.06054 0
M  V30 46173 C 4278.87 -0.943251 -1.78285 0
M  V30 46174 C 4279.18 0.529959 -1.88284 0
M  V30 46175 O 4280.39 0.870446 -2.57168 0
M  V30 46176 C 4278.85 -1.63837 -3.20446 0
M  V30 46177 C 4278.45 -3.14952 -3.18606 0
M  V30 46178 C 4280.2 -1.49791 -3.97194 0
M  V30 46179 C 4278.1 -3.77191 -4.555 0
M  V30 46180 H 4277.03 -0.349272 -0.668226 0
M  V30 46181 H 4279.69 -1.39736 -1.18937 0
M  V30 46182 H 4278.07 -1.11198 -3.80067 0
M  V30 46183 H 4279.24 -3.74454 -2.68553 0
M  V30 46184 H 4277.56 -3.2891 -2.55356 0
M  V30 46185 H 4280.15 -1.9367 -4.98393 0
M  V30 46186 H 4280.5 -0.447202 -4.13891 0
M  V30 46187 H 4281.03 -1.996 -3.441 0
M  V30 46188 H 4277.77 -4.82221 -4.44008 0
M  V30 46189 H 4277.29 -3.22474 -5.05738 0
M  V30 46190 H 4278.97 -3.78889 -5.24454 0
M  V30 46191 N 4279.1 1.2463 -0.964637 0
M  V30 46192 C 4280.51 1.74488 -0.664134 0
M  V30 46193 C 4280.86 1.78232 0.820241 0
M  V30 46194 O 4279.99 1.40972 1.64182 0
M  V30 46195 C 4280.58 3.1688 -1.19885 0
M  V30 46196 C 4279.14 3.64258 -0.948312 0
M  V30 46197 C 4278.29 2.42996 -1.33598 0
M  V30 46198 H 4281.24 1.10375 -1.14031 0
M  V30 46199 H 4281.26 3.76302 -0.563672 0
M  V30 46200 H 4280.77 3.14124 -2.27921 0
M  V30 46201 H 4278.87 3.72417 0.116653 0
M  V30 46202 H 4278.99 4.51883 -1.5918 0
M  V30 46203 H 4277.35 2.43272 -0.754361 0
M  V30 46204 H 4278.13 2.42922 -2.42577 0
M  V30 46205 N 4280.58 0.734386 1.39444 0
M  V30 46206 C 4281.52 0.0940095 2.30608 0
M  V30 46207 C 4282.49 -0.73033 1.49182 0
M  V30 46208 O 4283.68 -0.690419 1.7787 0
M  V30 46209 C 4280.82 -0.807758 3.35513 0
M  V30 46210 C 4279.93 0.0291308 4.3199 0
M  V30 46211 C 4279.07 -0.873853 5.23963 0
M  V30 46212 C 4278.11 -0.0321761 6.12092 0
M  V30 46213 N 4277.24 -0.89106 6.96423 0
M  V30 46214 H 4282.08 0.877072 2.84801 0
M  V30 46215 H 4279.62 0.444177 1.40234 0
M  V30 46216 H 4281.58 -1.34502 3.94924 0
M  V30 46217 H 4280.21 -1.5568 2.82778 0
M  V30 46218 H 4279.26 0.68381 3.74203 0
M  V30 46219 H 4280.57 0.679952 4.94144 0
M  V30 46220 H 4279.73 -1.47898 5.88397 0
M  V30 46221 H 4278.47 -1.55846 4.62129 0
M  V30 46222 H 4277.47 0.585761 5.46671 0
M  V30 46223 H 4278.7 0.6492 6.7599 0
M  V30 46224 H 4276.64 -1.56096 6.37158 0
M  V30 46225 H 4276.56 -0.296704 7.55418 0
M  V30 46226 H 4277.83 -1.48177 7.65287 0
M  V30 46227 N 4282.06 -1.50049 0.481972 0
M  V30 46228 C 4282.99 -2.31614 -0.296213 0
M  V30 46229 C 4283.97 -1.39012 -0.980295 0
M  V30 46230 O 4285.15 -1.67929 -0.975372 0
M  V30 46231 C 4282.28 -3.1904 -1.37226 0
M  V30 46232 C 4281.24 -4.20282 -0.809158 0
M  V30 46233 C 4280.56 -4.96517 -1.98431 0
M  V30 46234 C 4281.86 -5.21965 0.186942 0
M  V30 46235 H 4283.56 -2.9692 0.384561 0
M  V30 46236 H 4281.1 -1.42789 0.186387 0
M  V30 46237 H 4283.05 -3.74902 -1.92423 0
M  V30 46238 H 4281.78 -2.51639 -2.08195 0
M  V30 46239 H 4280.44 -3.65536 -0.27908 0
M  V30 46240 H 4280.09 -4.2558 -2.68124 0
M  V30 46241 H 4279.79 -5.65007 -1.6137 0
M  V30 46242 H 4281.31 -5.55218 -2.54097 0
M  V30 46243 H 4282.72 -5.72634 -0.276226 0
M  V30 46244 H 4281.12 -5.98238 0.472387 0
M  V30 46245 H 4282.19 -4.72042 1.10924 0
M  V30 46246 N 4283.53 -0.215012 -1.56126 0
M  V30 46247 C 4284.81 0.46712 -1.8994 0
M  V30 46248 C 4285.19 1.78219 -1.13143 0
M  V30 46249 O 4284.54 2.2725 -0.238694 0
M  V30 46250 C 4284.75 0.666464 -3.42577 0
M  V30 46251 C 4286.1 0.976854 -4.1321 0
M  V30 46252 O 4287.12 0.753484 -3.48139 0
M  V30 46253 O 4285.98 1.40042 -5.28252 0
M  V30 46254 H 4283.07 0.246089 -0.789537 0
M  V30 46255 H 4285.62 -0.25671 -1.67747 0
M  V30 46256 H 4284.39 -0.261413 -3.90426 0
M  V30 46257 H 4284.01 1.44202 -3.70529 0
M  V30 46258 N 4285.01 1.57492 0.0584368 0
M  V30 46259 C 4286.26 1.87897 0.755038 0
M  V30 46260 C 4286.59 0.80853 1.76898 0
M  V30 46261 O 4285.84 -0.193994 1.94736 0
M  V30 46262 C 4286.14 3.25 1.48693 0
M  V30 46263 C 4285.81 4.46731 0.611727 0
M  V30 46264 C 4284.47 4.79771 0.370579 0
M  V30 46265 C 4286.82 5.212 0.0056692 0
M  V30 46266 C 4284.15 5.84685 -0.485889 0
M  V30 46267 C 4286.5 6.27021 -0.83833 0
M  V30 46268 C 4285.16 6.58553 -1.08922 0
M  V30 46269 H 4284.43 0.687565 0.276288 0
M  V30 46270 H 4287.08 1.91494 0.0154878 0
M  V30 46271 H 4285.39 3.17256 2.29904 0
M  V30 46272 H 4287.08 3.45765 2.03095 0
M  V30 46273 H 4283.67 4.2088 0.809818 0
M  V30 46274 H 4287.86 4.95977 0.179064 0
M  V30 46275 H 4283.11 6.07507 -0.68888 0
M  V30 46276 H 4287.29 6.83879 -1.31461 0
M  V30 46277 H 4284.91 7.39673 -1.75463 0
M  V30 46278 N 4286.49 -0.330122 1.54104 0
M  V30 46279 C 4287.71 -1.09294 1.76266 0
M  V30 46280 C 4288.14 -1.81146 0.506732 0
M  V30 46281 O 4287.5 -1.73028 -0.541379 0
M  V30 46282 C 4287.55 -2.07176 2.95145 0
M  V30 46283 O 4286.65 -3.14952 2.66232 0
M  V30 46284 H 4285.99 -0.315439 0.584289 0
M  V30 46285 H 4288.52 -0.376418 2.01108 0
M  V30 46286 H 4288.53 -2.50162 3.22309 0
M  V30 46287 H 4287.21 -1.54278 3.86227 0
M  V30 46288 H 4285.78 -2.76687 2.49997 0
M  V30 46289 N 4287.97 -1.46065 -0.591845 0
M  V30 46290 C 4289.19 -1.54691 -1.3815 0
M  V30 46291 C 4289.62 -0.18558 -1.87182 0
M  V30 46292 O 4288.98 0.832665 -1.61048 0
M  V30 46293 C 4289.02 -2.54836 -2.5513 0
M  V30 46294 O 4288.13 -2.07706 -3.56275 0
M  V30 46295 H 4287.47 -0.52088 -0.411801 0
M  V30 46296 H 4290 -1.91558 -0.71879 0
M  V30 46297 H 4290.01 -2.7415 -3.02168 0
M  V30 46298 H 4288.68 -3.53698 -2.18793 0
M  V30 46299 H 4287.26 -1.98339 -3.15779 0
M  V30 46300 N 4289.45 0.835705 -1.33618 0
M  V30 46301 C 4290.38 1.95293 -1.19971 0
M  V30 46302 C 4291.39 1.62281 -0.129902 0
M  V30 46303 O 4292.58 1.74395 -0.380612 0
M  V30 46304 C 4289.68 3.28872 -0.818333 0
M  V30 46305 C 4288.85 3.89996 -1.98045 0
M  V30 46306 C 4287.91 5.01934 -1.57953 0
M  V30 46307 O 4286.94 5.20912 -2.29432 0
M  V30 46308 N 4288.14 5.78459 -0.486339 0
M  V30 46309 H 4290.91 2.07536 -2.16215 0
M  V30 46310 H 4288.47 1.01161 -1.26405 0
M  V30 46311 H 4290.46 4.01186 -0.532163 0
M  V30 46312 H 4289.03 3.12554 0.053522 0
M  V30 46313 H 4288.25 3.10232 -2.43207 0
M  V30 46314 H 4289.54 4.27567 -2.75796 0
M  V30 46315 H 4288.93 5.65597 0.108169 0
M  V30 46316 H 4287.49 6.51282 -0.259853 0
M  V30 46317 N 4290.92 1.17138 1.05434 0
M  V30 46318 C 4291.89 0.888183 2.11291 0
M  V30 46319 C 4292.89 -0.120593 1.60347 0
M  V30 46320 O 4294.08 0.111297 1.73844 0
M  V30 46321 C 4291.21 0.32993 3.393 0
M  V30 46322 H 4292.4 1.82671 2.37847 0
M  V30 46323 H 4289.96 0.981507 1.21639 0
M  V30 46324 H 4290.69 -0.615864 3.18398 0
M  V30 46325 H 4290.48 1.05694 3.77586 0
M  V30 46326 H 4291.97 0.150028 4.1733 0
M  V30 46327 N 4292.4 -1.24116 0.971232 0
M  V30 46328 C 4293.68 -1.87655 0.551802 0
M  V30 46329 C 4294.06 -1.87438 -0.971087 0
M  V30 46330 O 4293.41 -1.34949 -1.84393 0
M  V30 46331 C 4293.62 -3.296 1.14737 0
M  V30 46332 C 4294.97 -4.06259 1.23444 0
M  V30 46333 O 4295.99 -3.38785 1.10015 0
M  V30 46334 O 4294.85 -5.26993 1.4471 0
M  V30 46335 H 4291.94 -0.806157 0.184501 0
M  V30 46336 H 4294.49 -1.32062 1.06573 0
M  V30 46337 H 4293.26 -3.24276 2.19 0
M  V30 46338 H 4292.88 -3.92772 0.617705 0
M  V30 46339 N 4293.88 -0.741771 -1.39052 0
M  V30 46340 C 4294.81 -0.121474 -2.33184 0
M  V30 46341 C 4295.79 0.716747 -1.54262 0
M  V30 46342 O 4296.98 0.660347 -1.82628 0
M  V30 46343 C 4294.11 0.78146 -3.38394 0
M  V30 46344 C 4293.06 0.0468798 -4.27974 0
M  V30 46345 C 4292.39 1.06728 -5.2394 0
M  V30 46346 C 4293.69 -1.11455 -5.1027 0
M  V30 46347 H 4295.38 -0.907774 -2.85307 0
M  V30 46348 H 4292.93 -0.437977 -1.37178 0
M  V30 46349 H 4294.88 1.22499 -4.03202 0
M  V30 46350 H 4293.6 1.59995 -2.84726 0
M  V30 46351 H 4292.26 -0.377101 -3.64655 0
M  V30 46352 H 4291.91 1.87952 -4.66565 0
M  V30 46353 H 4291.61 0.580502 -5.84726 0
M  V30 46354 H 4293.13 1.51037 -5.91625 0
M  V30 46355 H 4294.55 -0.749141 -5.68384 0
M  V30 46356 H 4292.95 -1.53141 -5.80231 0
M  V30 46357 H 4294.02 -1.93306 -4.44703 0
M  V30 46358 N 4295.36 1.49792 -0.489923 0
M  V30 46359 C 4296.77 1.58938 -0.145199 0
M  V30 46360 C 4296.97 1.49628 1.34958 0
M  V30 46361 O 4296.03 1.36448 2.12457 0
M  V30 46362 C 4297.34 2.92145 -0.712151 0
M  V30 46363 C 4298.89 3.05585 -0.677263 0
M  V30 46364 C 4299.37 4.41394 -1.22208 0
M  V30 46365 N 4300.86 4.47857 -1.1823 0
M  V30 46366 C 4301.59 5.51369 -1.57417 0
M  V30 46367 N 4301.09 6.62041 -2.04143 0
M  V30 46368 N 4302.88 5.42019 -1.48902 0
M  V30 46369 H 4295.03 1.54086 -1.46189 0
M  V30 46370 H 4297.3 0.729265 -0.605703 0
M  V30 46371 H 4297 3.04492 -1.76004 0
M  V30 46372 H 4296.88 3.76833 -0.166302 0
M  V30 46373 H 4299.26 2.92874 0.361757 0
M  V30 46374 H 4299.34 2.22608 -1.26013 0
M  V30 46375 H 4298.99 4.54856 -2.25983 0
M  V30 46376 H 4298.92 5.22993 -0.615255 0
M  V30 46377 H 4301.41 3.6845 -0.839814 0
M  V30 46378 H 4301.72 7.37109 -2.32142 0
M  V30 46379 H 4300.07 6.63111 -2.08109 0
M  V30 46380 H 4303.26 4.54448 -1.12225 0
M  V30 46381 H 4303.43 6.22566 -1.79765 0
M  V30 46382 N 4296.84 0.223289 1.5601 0
M  V30 46383 C 4297.78 -0.702565 2.21736 0
M  V30 46384 C 4298.78 -1.19837 1.19731 0
M  V30 46385 O 4299.98 -1.158 1.37806 0
M  V30 46386 H 4296.36 -0.24499 0.710974 0
M  V30 46387 H 4298.33 -0.124816 2.98139 0
M  V30 46388 C 4297.08 -1.89919 2.91249 0
M  V30 46389 H 4296.4 -1.5268 3.69498 0
M  V30 46390 H 4297.84 -2.52476 3.40635 0
M  V30 46391 C 4296.3 -2.75568 1.93814 0
M  V30 46392 O 4296.83 -3.74377 1.45619 0
M  V30 46393 N 4295.04 -2.4164 1.61426 0
M  V30 46394 H 4294.58 -1.61343 2.00813 0
M  V30 46395 H 4294.54 -2.99226 0.964958 0
M  V30 46396 N 4298.31 -1.5752 -0.0500839 0
M  V30 46397 C 4299.22 -2.08544 -1.07455 0
M  V30 46398 C 4300.24 -1.0195 -1.41004 0
M  V30 46399 O 4301.42 -1.33557 -1.50746 0
M  V30 46400 C 4298.48 -2.53727 -2.36269 0
M  V30 46401 C 4297.54 -3.74714 -2.09494 0
M  V30 46402 C 4296.78 -4.17734 -3.32166 0
M  V30 46403 O 4297 -3.6044 -4.42085 0
M  V30 46404 O 4295.93 -5.10351 -3.19101 0
M  V30 46405 H 4299.76 -2.96194 -0.671013 0
M  V30 46406 H 4297.34 -1.47019 -0.265683 0
M  V30 46407 H 4299.23 -2.83214 -3.12038 0
M  V30 46408 H 4297.9 -1.69197 -2.7596 0
M  V30 46409 H 4296.81 -3.50279 -1.3136 0
M  V30 46410 H 4298.14 -4.60164 -1.74671 0
M  V30 46411 N 4299.79 0.321945 -1.54277 0
M  V30 46412 C 4301.04 1.05723 -1.71772 0
M  V30 46413 C 4301.35 1.89123 -0.499197 0
M  V30 46414 O 4302.56 2.65756 -0.555524 0
M  V30 46415 C 4301.02 1.92917 -3.03827 0
M  V30 46416 C 4300.62 1.14621 -4.33089 0
M  V30 46417 C 4302.37 2.66172 -3.30685 0
M  V30 46418 C 4300.28 2.00971 -5.56206 0
M  V30 46419 H 4299.21 0.398422 -0.640137 0
M  V30 46420 H 4301.86 0.315382 -1.80769 0
M  V30 46421 H 4300.24 2.71007 -2.8874 0
M  V30 46422 H 4301.41 0.412913 -4.58946 0
M  V30 46423 H 4299.73 0.530415 -4.13008 0
M  V30 46424 H 4302.32 3.31088 -4.19863 0
M  V30 46425 H 4302.67 3.33896 -2.48635 0
M  V30 46426 H 4303.2 1.95143 -3.46647 0
M  V30 46427 H 4299.94 1.37753 -6.40862 0
M  V30 46428 H 4299.46 2.7203 -5.34565 0
M  V30 46429 H 4301.14 2.59518 -5.92671 0
M  V30 46430 N 4301.27 1.46377 0.58409 0
M  V30 46431 C 4302.22 1.56836 1.69325 0
M  V30 46432 C 4303.19 0.412747 1.6089 0
M  V30 46433 O 4304.37 0.629318 1.80123 0
M  V30 46434 C 4301.51 1.56329 3.07661 0
M  V30 46435 C 4300.63 2.82614 3.26731 0
M  V30 46436 C 4299.76 2.73621 4.55307 0
M  V30 46437 C 4298.8 3.94852 4.67716 0
M  V30 46438 N 4297.94 3.84253 5.87617 0
M  V30 46439 H 4302.78 2.5158 1.59723 0
M  V30 46440 H 4300.31 1.24813 0.778471 0
M  V30 46441 H 4302.27 1.54021 3.87728 0
M  V30 46442 H 4300.9 0.651186 3.16164 0
M  V30 46443 H 4299.95 2.94908 2.40277 0
M  V30 46444 H 4301.27 3.72466 3.31768 0
M  V30 46445 H 4300.42 2.69411 5.43602 0
M  V30 46446 H 4299.16 1.81407 4.52706 0
M  V30 46447 H 4298.16 3.99396 3.7784 0
M  V30 46448 H 4299.39 4.88161 4.72097 0
M  V30 46449 H 4297.33 2.94825 5.86016 0
M  V30 46450 H 4297.25 4.6776 5.93917 0
M  V30 46451 H 4298.52 3.84015 6.78345 0
M  V30 46452 N 4302.75 -0.828607 1.34059 0
M  V30 46453 C 4303.98 -1.61634 1.29159 0
M  V30 46454 C 4304.39 -1.88313 -0.135478 0
M  V30 46455 O 4303.75 -1.47053 -1.08081 0
M  V30 46456 C 4303.8 -2.96058 2.07441 0
M  V30 46457 O 4303.52 -2.70546 3.44582 0
M  V30 46458 C 4305.02 -3.90473 2.09872 0
M  V30 46459 H 4302.24 -0.502607 0.444552 0
M  V30 46460 H 4304.79 -1.03137 1.76587 0
M  V30 46461 H 4302.94 -3.51128 1.63669 0
M  V30 46462 H 4303.36 -3.56219 3.84979 0
M  V30 46463 H 4304.83 -4.81976 2.69079 0
M  V30 46464 H 4305.31 -4.25418 1.09162 0
M  V30 46465 H 4305.91 -3.41339 2.53708 0
M  V30 46466 N 4304.23 -1.17696 -1.04812 0
M  V30 46467 C 4305.16 -0.920543 -2.14589 0
M  V30 46468 C 4306.14 0.138924 -1.69532 0
M  V30 46469 O 4307.32 -0.0121125 -1.94196 0
M  V30 46470 C 4304.45 -0.437258 -3.44536 0
M  V30 46471 C 4303.41 -1.43635 -4.03179 0
M  V30 46472 C 4302.73 -0.810872 -5.28516 0
M  V30 46473 C 4304.03 -2.81074 -4.40221 0
M  V30 46474 H 4305.73 -1.8386 -2.36296 0
M  V30 46475 H 4303.27 -0.885431 -1.13561 0
M  V30 46476 H 4305.23 -0.245273 -4.20686 0
M  V30 46477 H 4303.95 0.516344 -3.22493 0
M  V30 46478 H 4302.61 -1.61514 -3.29103 0
M  V30 46479 H 4302.26 0.149685 -5.02777 0
M  V30 46480 H 4301.96 -1.47786 -5.68712 0
M  V30 46481 H 4303.48 -0.629247 -6.07349 0
M  V30 46482 H 4304.9 -2.6689 -5.07388 0
M  V30 46483 H 4303.29 -3.44386 -4.91445 0
M  V30 46484 H 4304.36 -3.35194 -3.5039 0
M  V30 46485 N 4305.71 1.23599 -0.977801 0
M  V30 46486 C 4306.64 2.27282 -0.535268 0
M  V30 46487 C 4307.62 1.64569 0.430232 0
M  V30 46488 O 4308.8 1.91475 0.324161 0
M  V30 46489 C 4305.93 3.46905 0.165622 0
M  V30 46490 C 4304.89 4.21953 -0.716901 0
M  V30 46491 C 4304.21 5.34574 0.116055 0
M  V30 46492 C 4305.51 4.82223 -2.00645 0
M  V30 46493 H 4307.21 2.64551 -1.4019 0
M  V30 46494 H 4304.75 1.27171 -0.675532 0
M  V30 46495 H 4306.7 4.18582 0.4865 0
M  V30 46496 H 4305.43 3.0869 1.06668 0
M  V30 46497 H 4304.09 3.5209 -1.0212 0
M  V30 46498 H 4303.74 4.926 1.01757 0
M  V30 46499 H 4303.44 5.85707 -0.471298 0
M  V30 46500 H 4304.96 6.09074 0.431374 0
M  V30 46501 H 4306.37 5.45921 -1.7505 0
M  V30 46502 H 4304.77 5.43631 -2.54136 0
M  V30 46503 H 4305.84 4.03114 -2.69495 0
M  V30 46504 N 4307.18 0.749135 1.38657 0
M  V30 46505 C 4308.13 0.118463 2.30496 0
M  V30 46506 C 4309.1 -0.714466 1.49949 0
M  V30 46507 O 4310.29 -0.671514 1.78593 0
M  V30 46508 C 4307.43 -0.772127 3.36351 0
M  V30 46509 C 4306.54 0.0749475 4.31935 0
M  V30 46510 C 4305.67 -0.818231 5.2486 0
M  V30 46511 C 4304.71 0.0327462 6.12091 0
M  V30 46512 N 4303.85 -0.817145 6.97329 0
M  V30 46513 H 4308.69 0.907229 2.83854 0
M  V30 46514 H 4306.23 0.459025 1.39755 0
M  V30 46515 H 4308.18 -1.30306 3.96328 0
M  V30 46516 H 4306.81 -1.52672 2.84413 0
M  V30 46517 H 4305.87 0.723461 3.73457 0
M  V30 46518 H 4307.18 0.732324 4.93395 0
M  V30 46519 H 4306.33 -1.41649 5.89932 0
M  V30 46520 H 4305.07 -1.50935 4.63756 0
M  V30 46521 H 4304.08 0.64371 5.46019 0
M  V30 46522 H 4305.3 0.720861 6.75263 0
M  V30 46523 H 4303.25 -1.4933 6.38777 0
M  V30 46524 H 4303.16 -0.216566 7.5569 0
M  V30 46525 H 4304.43 -1.40052 7.66815 0
M  V30 46526 N 4308.66 -1.4953 0.49786 0
M  V30 46527 C 4309.62 -2.2759 -0.27118 0
M  V30 46528 C 4310.62 -1.33473 -0.896757 0
M  V30 46529 O 4311.81 -1.56661 -0.761776 0
M  V30 46530 C 4308.95 -3.11328 -1.38879 0
M  V30 46531 H 4310.14 -2.97032 0.413756 0
M  V30 46532 H 4307.69 -1.54243 0.252726 0
M  V30 46533 H 4308.43 -2.46445 -2.10797 0
M  V30 46534 H 4308.21 -3.80524 -0.945714 0
M  V30 46535 H 4309.7 -3.70294 -1.93059 0
M  V30 46536 N 4310.14 -0.23156 -1.5589 0
M  V30 46537 C 4311.39 0.396632 -1.9817 0
M  V30 46538 C 4311.71 1.59579 -1.1207 0
M  V30 46539 O 4310.98 1.94877 -0.199976 0
M  V30 46540 H 4309.56 0.149531 -0.731881 0
M  V30 46541 H 4312.22 -0.326783 -1.92141 0
M  V30 46542 H 4311.32 0.716189 -3.03772 0
M  V30 46543 N 4311.62 1.57545 0.0417295 0
M  V30 46544 C 4312.57 2.02184 1.05383 0
M  V30 46545 C 4313.55 0.908928 1.32768 0
M  V30 46546 O 4314.74 1.17284 1.32565 0
M  V30 46547 C 4311.87 2.49431 2.35879 0
M  V30 46548 C 4310.96 3.67518 2.11639 0
M  V30 46549 N 4311.35 4.8068 1.57417 0
M  V30 46550 C 4309.65 3.74648 2.41982 0
M  V30 46551 C 4310.35 5.62376 1.4869 0
M  V30 46552 N 4309.32 5.07111 1.95804 0
M  V30 46553 H 4313.13 2.87103 0.62841 0
M  V30 46554 H 4310.64 1.60491 0.248276 0
M  V30 46555 H 4312.64 2.79665 3.09181 0
M  V30 46556 H 4311.3 1.65913 2.79111 0
M  V30 46557 H 4312.31 5.02374 1.25862 0
M  V30 46558 H 4308.99 3.01904 2.88375 0
M  V30 46559 H 4310.38 6.63266 1.07365 0
M  V30 46560 N 4313.1 -0.313759 1.54445 0
M  V30 46561 C 4314.34 -1.04811 1.7233 0
M  V30 46562 C 4314.66 -1.88855 0.50922 0
M  V30 46563 O 4315.86 -2.65458 0.56961 0
M  V30 46564 C 4314.32 -1.91303 3.04846 0
M  V30 46565 C 4313.93 -1.12323 4.33691 0
M  V30 46566 C 4315.67 -2.64415 3.32092 0
M  V30 46567 C 4313.58 -1.98018 5.57264 0
M  V30 46568 H 4312.51 -0.395022 0.642241 0
M  V30 46569 H 4315.16 -0.305791 1.80934 0
M  V30 46570 H 4313.54 -2.69472 2.90174 0
M  V30 46571 H 4314.72 -0.388568 4.59159 0
M  V30 46572 H 4313.03 -0.508505 4.13283 0
M  V30 46573 H 4315.63 -3.28857 4.21613 0
M  V30 46574 H 4315.97 -3.32572 2.50402 0
M  V30 46575 H 4316.5 -1.93302 3.47677 0
M  V30 46576 H 4313.24 -1.34353 6.41584 0
M  V30 46577 H 4312.76 -2.69192 5.36 0
M  V30 46578 H 4314.44 -2.56371 5.94039 0
M  V30 46579 N 4314.57 -1.46684 -0.576319 0
M  V30 46580 C 4315.54 -1.57306 -1.66695 0
M  V30 46581 C 4316.54 -0.449674 -1.54384 0
M  V30 46582 O 4317.73 -0.714178 -1.58887 0
M  V30 46583 C 4314.86 -1.49944 -3.06153 0
M  V30 46584 H 4316.05 -2.5451 -1.58634 0
M  V30 46585 H 4313.6 -1.3459 -0.794687 0
M  V30 46586 H 4314.34 -0.540435 -3.19765 0
M  V30 46587 H 4314.12 -2.31456 -3.16497 0
M  V30 46588 H 4315.61 -1.60475 -3.85535 0
M  V30 46589 N 4316.05 0.821486 -1.34497 0
M  V30 46590 C 4317.3 1.57968 -1.28131 0
M  V30 46591 C 4317.65 1.91837 0.147073 0
M  V30 46592 O 4316.95 1.57317 1.09371 0
M  V30 46593 C 4317.14 2.88687 -2.107 0
M  V30 46594 C 4316.97 2.67588 -3.61423 0
M  V30 46595 C 4315.74 2.64248 -4.30698 0
M  V30 46596 C 4317.94 2.39003 -4.55392 0
M  V30 46597 N 4315.92 2.3471 -5.6726 0
M  V30 46598 C 4317.29 2.19171 -5.79969 0
M  V30 46599 C 4319.34 2.24743 -4.44292 0
M  V30 46600 C 4318.05 1.86525 -6.94695 0
M  V30 46601 C 4320.07 1.93491 -5.58852 0
M  V30 46602 C 4319.44 1.74484 -6.82447 0
M  V30 46603 H 4315.53 0.580382 -0.5241 0
M  V30 46604 H 4318.12 0.962881 -1.69224 0
M  V30 46605 H 4316.29 3.48288 -1.71902 0
M  V30 46606 H 4318.02 3.54088 -1.95968 0
M  V30 46607 H 4314.78 2.78373 -3.83152 0
M  V30 46608 H 4315.2 2.22776 -6.39296 0
M  V30 46609 H 4319.84 2.38142 -3.49354 0
M  V30 46610 H 4317.56 1.71863 -7.89613 0
M  V30 46611 H 4321.15 1.83187 -5.52208 0
M  V30 46612 H 4320.03 1.50653 -7.69593 0
M  V30 46613 N 4317.53 1.1825 1.04186 0
M  V30 46614 C 4318.76 1.00198 1.81019 0
M  V30 46615 C 4319.17 -0.449625 1.83368 0
M  V30 46616 O 4318.53 -1.3123 1.26827 0
M  V30 46617 C 4318.58 1.54808 3.26676 0
M  V30 46618 O 4318.3 2.94285 3.24543 0
M  V30 46619 C 4319.8 1.41357 4.20159 0
M  V30 46620 H 4317.02 0.353887 0.570092 0
M  V30 46621 H 4319.57 1.56771 1.31313 0
M  V30 46622 H 4317.72 1.02413 3.73618 0
M  V30 46623 H 4318.14 3.19729 4.15781 0
M  V30 46624 H 4319.61 1.84366 5.20301 0
M  V30 46625 H 4320.09 0.362106 4.37705 0
M  V30 46626 H 4320.69 1.92817 3.7908 0
M  V30 46627 N 4319.01 -1.23079 0.984342 0
M  V30 46628 C 4320.23 -1.96169 0.673236 0
M  V30 46629 C 4320.66 -1.7233 -0.753928 0
M  V30 46630 O 4320.02 -0.997194 -1.51412 0
M  V30 46631 C 4320.06 -3.47188 0.974327 0
M  V30 46632 O 4319.17 -4.12343 0.068442 0
M  V30 46633 H 4318.51 -0.613989 0.252812 0
M  V30 46634 H 4321.04 -1.56408 1.319 0
M  V30 46635 H 4321.05 -3.97662 0.912647 0
M  V30 46636 H 4319.72 -3.63865 2.01433 0
M  V30 46637 H 4318.3 -3.72441 0.184871 0
M  V30 46638 N 4320.49 -0.756478 -1.38258 0
M  V30 46639 C 4321.71 -0.323571 -2.0486 0
M  V30 46640 C 4322.14 1.0408 -1.56681 0
M  V30 46641 O 4321.49 1.66386 -0.7201 0
M  V30 46642 C 4321.54 -0.358755 -3.58811 0
M  V30 46643 O 4320.65 0.646224 -4.07305 0
M  V30 46644 H 4319.99 -0.142735 -0.648477 0
M  V30 46645 H 4322.52 -1.02841 -1.76876 0
M  V30 46646 H 4322.53 -0.210651 -4.07456 0
M  V30 46647 H 4321.2 -1.3542 -3.93236 0
M  V30 46648 H 4319.78 0.462496 -3.70021 0
M  V30 46649 N 4321.96 1.49264 -0.505783 0
M  V30 46650 C 4323.21 2.02066 0.0369632 0
M  V30 46651 C 4323.53 1.38725 1.37041 0
M  V30 46652 O 4322.8 0.544215 1.88189 0
M  V30 46653 H 4321.38 0.746814 0.0166497 0
M  V30 46654 H 4324.05 1.83236 -0.664112 0
M  V30 46655 H 4323.14 3.11673 0.163125 0
M  V30 46656 N 4323.44 0.239823 1.55765 0
M  V30 46657 C 4324.39 -0.662707 2.21081 0
M  V30 46658 C 4325.36 -1.17666 1.17235 0
M  V30 46659 O 4326.54 -1.23242 1.45657 0
M  V30 46660 C 4323.68 -1.85714 2.90868 0
M  V30 46661 C 4322.8 -1.38037 4.09353 0
M  V30 46662 C 4321.93 -2.53381 4.66874 0
M  V30 46663 C 4320.97 -2.02531 5.77622 0
M  V30 46664 N 4320.11 -3.11214 6.29357 0
M  V30 46665 H 4324.95 -0.0990198 2.97835 0
M  V30 46666 H 4322.49 -0.0371156 1.47053 0
M  V30 46667 H 4324.44 -2.5587 3.29525 0
M  V30 46668 H 4323.07 -2.39341 2.166 0
M  V30 46669 H 4322.13 -0.573105 3.76058 0
M  V30 46670 H 4323.44 -0.967654 4.89324 0
M  V30 46671 H 4322.59 -3.3159 5.08068 0
M  V30 46672 H 4321.33 -2.9795 3.86105 0
M  V30 46673 H 4320.34 -1.22789 5.35913 0
M  V30 46674 H 4321.56 -1.58939 6.60239 0
M  V30 46675 H 4319.51 -3.55232 5.51495 0
M  V30 46676 H 4319.42 -2.74251 7.04502 0
M  V30 46677 H 4320.69 -3.89504 6.75209 0
M  V30 46678 N 4324.92 -1.57565 -0.0333739 0
M  V30 46679 C 4326.17 -1.88701 -0.723618 0
M  V30 46680 C 4326.49 -0.83696 -1.76125 0
M  V30 46681 O 4325.76 0.129946 -1.95469 0
M  V30 46682 H 4324.34 -0.6964 -0.270251 0
M  V30 46683 H 4327 -1.949 -0.00034676 0
M  V30 46684 H 4326.1 -2.87442 -1.21589 0
M  V30 46685 N 4326.4 0.305564 -1.54609 0
M  V30 46686 C 4327.62 1.06476 -1.77982 0
M  V30 46687 C 4328.05 1.80317 -0.535487 0
M  V30 46688 O 4327.41 1.73868 0.513783 0
M  V30 46689 C 4327.45 2.02454 -2.98403 0
M  V30 46690 O 4326.56 3.10676 -2.71209 0
M  V30 46691 H 4325.9 0.306104 -0.589234 0
M  V30 46692 H 4328.43 0.344376 -2.01681 0
M  V30 46693 H 4328.44 2.45002 -3.26248 0
M  V30 46694 H 4327.11 1.48114 -3.88632 0
M  V30 46695 H 4325.69 2.72675 -2.54367 0
M  V30 46696 N 4327.88 1.46988 0.568532 0
M  V30 46697 C 4329.12 1.54242 1.32593 0
M  V30 46698 C 4329.48 0.197307 1.91386 0
M  V30 46699 O 4328.77 -0.795708 1.74296 0
M  V30 46700 C 4328.96 2.58794 2.46496 0
M  V30 46701 C 4328.79 4.0334 1.98863 0
M  V30 46702 C 4327.56 4.7091 1.83226 0
M  V30 46703 C 4329.76 4.90708 1.53982 0
M  V30 46704 N 4327.74 6.00018 1.29813 0
M  V30 46705 C 4329.11 6.09753 1.12258 0
M  V30 46706 C 4331.17 4.77243 1.4193 0
M  V30 46707 C 4329.87 7.1682 0.596802 0
M  V30 46708 C 4331.9 5.84395 0.907542 0
M  V30 46709 C 4331.26 7.02622 0.500162 0
M  V30 46710 H 4327.36 0.619178 0.477642 0
M  V30 46711 H 4329.94 1.8368 0.645747 0
M  V30 46712 H 4328.11 2.31243 3.12059 0
M  V30 46713 H 4329.85 2.55958 3.13476 0
M  V30 46714 H 4326.6 4.26644 2.05601 0
M  V30 46715 H 4327.03 6.68772 1.05228 0
M  V30 46716 H 4331.67 3.86215 1.7204 0
M  V30 46717 H 4329.39 8.07603 0.283304 0
M  V30 46718 H 4332.97 5.76021 0.817998 0
M  V30 46719 H 4331.85 7.84122 0.110296 0
M  V30 46720 N 4329.35 -0.814342 1.3493 0
M  V30 46721 C 4330.3 -1.92575 1.27214 0
M  V30 46722 C 4331.27 -1.6546 0.145628 0
M  V30 46723 O 4332.46 -1.87959 0.32804 0
M  V30 46724 C 4329.6 -3.28987 1.04219 0
M  V30 46725 C 4328.71 -3.68339 2.25723 0
M  V30 46726 C 4327.84 -4.93741 1.95941 0
M  V30 46727 C 4326.88 -5.25699 3.1354 0
M  V30 46728 N 4326.02 -6.4228 2.83585 0
M  V30 46729 H 4330.86 -1.98507 2.22259 0
M  V30 46730 H 4328.4 -0.97107 1.10493 0
M  V30 46731 H 4330.36 -4.07613 0.889219 0
M  V30 46732 H 4328.99 -3.22545 0.1284 0
M  V30 46733 H 4328.04 -2.85035 2.51911 0
M  V30 46734 H 4329.35 -3.8792 3.13559 0
M  V30 46735 H 4328.5 -5.80176 1.77429 0
M  V30 46736 H 4327.24 -4.7618 1.05377 0
M  V30 46737 H 4326.25 -4.37758 3.32638 0
M  V30 46738 H 4327.47 -5.45195 4.04895 0
M  V30 46739 H 4325.42 -6.26158 1.95607 0
M  V30 46740 H 4325.34 -6.62075 3.64956 0
M  V30 46741 H 4326.6 -7.31762 2.68597 0
M  V30 46742 N 4330.83 -1.18801 -1.03557 0
M  V30 46743 C 4332.08 -0.997997 -1.77233 0
M  V30 46744 C 4332.43 0.46697 -1.86647 0
M  V30 46745 O 4331.73 1.34224 -1.36728 0
M  V30 46746 C 4331.92 -1.59257 -3.19956 0
M  V30 46747 C 4331.75 -3.11383 -3.24454 0
M  V30 46748 C 4330.52 -3.80236 -3.32789 0
M  V30 46749 C 4332.72 -4.08817 -3.12046 0
M  V30 46750 N 4330.7 -5.19819 -3.26591 0
M  V30 46751 C 4332.07 -5.34955 -3.13405 0
M  V30 46752 C 4334.13 -4.00268 -2.96125 0
M  V30 46753 C 4332.83 -6.53533 -3.00478 0
M  V30 46754 C 4334.85 -5.18448 -2.84545 0
M  V30 46755 C 4334.22 -6.4348 -2.86553 0
M  V30 46756 H 4330.32 -0.419252 -0.660115 0
M  V30 46757 H 4332.9 -1.50662 -1.23325 0
M  V30 46758 H 4331.07 -1.11006 -3.72199 0
M  V30 46759 H 4332.8 -1.33757 -3.81957 0
M  V30 46760 H 4329.56 -3.30994 -3.38733 0
M  V30 46761 H 4329.98 -5.92836 -3.26917 0
M  V30 46762 H 4334.62 -3.04428 -2.934 0
M  V30 46763 H 4332.34 -7.49566 -3.01955 0
M  V30 46764 H 4335.93 -5.13628 -2.73272 0
M  V30 46765 H 4334.81 -7.33389 -2.77686 0
M  V30 46766 N 4332.31 1.22555 -0.990855 0
M  V30 46767 C 4333.27 2.22636 -0.544592 0
M  V30 46768 C 4334.27 1.56451 0.37144 0
M  V30 46769 O 4335.46 1.73429 0.16368 0
M  V30 46770 C 4332.6 3.40264 0.20816 0
M  V30 46771 H 4333.79 2.63631 -1.42963 0
M  V30 46772 H 4331.34 1.3557 -0.777844 0
M  V30 46773 H 4332.08 3.04739 1.10928 0
M  V30 46774 H 4331.86 3.89515 -0.449532 0
M  V30 46775 H 4333.35 4.14491 0.508623 0
M  V30 46776 N 4333.79 0.763799 1.37855 0
M  V30 46777 C 4335.03 0.329594 2.01725 0
M  V30 46778 C 4335.39 -1.07147 1.59322 0
M  V30 46779 O 4336.59 -1.60536 2.15596 0
M  V30 46780 C 4334.87 0.459614 3.54432 0
M  V30 46781 S 4336.42 0.109497 4.38663 0
M  V30 46782 H 4333.24 0.12726 0.699518 0
M  V30 46783 H 4335.84 0.996666 1.68187 0
M  V30 46784 H 4334.55 1.48008 3.82782 0
M  V30 46785 H 4334.08 -0.224288 3.9276 0
M  V30 46786 H 4336.09 -1.09759 4.83908 0
M  V30 46787 N 4335.27 -1.48993 0.513692 0
M  V30 46788 C 4336.68 -1.86572 0.0690869 0
M  V30 46789 C 4337.03 -1.42485 -1.3488 0
M  V30 46790 O 4336.15 -0.808314 -2.00737 0
M  V30 46791 C 4336.75 -3.38592 0.118599 0
M  V30 46792 C 4335.31 -3.75425 -0.270726 0
M  V30 46793 C 4334.46 -2.73016 0.485567 0
M  V30 46794 H 4337.41 -1.4113 0.725814 0
M  V30 46795 H 4337.43 -3.74489 -0.673672 0
M  V30 46796 H 4336.94 -3.7065 1.15067 0
M  V30 46797 H 4335.04 -3.48979 -1.30555 0
M  V30 46798 H 4335.15 -4.79065 0.0575514 0
M  V30 46799 H 4333.52 -2.54614 -0.0661822 0
M  V30 46800 H 4334.3 -3.07917 1.51796 0
M  V30 46801 N 4336.75 -0.248081 -1.55635 0
M  V30 46802 C 4338.16 0.106742 -1.59243 0
M  V30 46803 C 4338.36 1.56825 -1.26524 0
M  V30 46804 O 4337.42 2.31284 -1.01312 0
M  V30 46805 C 4338.73 -0.243508 -2.99712 0
M  V30 46806 C 4340.28 -0.187903 -3.12435 0
M  V30 46807 C 4340.75 -0.512202 -4.55127 0
M  V30 46808 N 4342.24 -0.462747 -4.60883 0
M  V30 46809 C 4342.98 -0.686823 -5.69272 0
M  V30 46810 N 4342.48 -0.974088 -6.85918 0
M  V30 46811 N 4344.27 -0.617449 -5.58698 0
M  V30 46812 H 4336.42 -1.20117 -1.75173 0
M  V30 46813 H 4338.68 -0.483386 -0.815501 0
M  V30 46814 H 4338.39 -1.2589 -3.28397 0
M  V30 46815 H 4338.26 0.428819 -3.74755 0
M  V30 46816 H 4340.65 0.818165 -2.83531 0
M  V30 46817 H 4340.73 -0.894097 -2.39665 0
M  V30 46818 H 4340.37 -1.51583 -4.84752 0
M  V30 46819 H 4340.3 0.215482 -5.26159 0
M  V30 46820 H 4342.8 -0.249493 -3.77076 0
M  V30 46821 H 4343.11 -1.13246 -7.64457 0
M  V30 46822 H 4341.45 -1.01157 -6.87599 0
M  V30 46823 H 4344.64 -0.393064 -4.66447 0
M  V30 46824 H 4344.82 -0.795476 -6.43099 0
M  V30 46825 N 4338.22 1.5758 0.0250174 0
M  V30 46826 C 4339.47 1.89457 0.715013 0
M  V30 46827 C 4339.8 0.845871 1.75144 0
M  V30 46828 O 4339.05 -0.152644 1.95104 0
M  V30 46829 C 4339.35 3.28081 1.41766 0
M  V30 46830 C 4339.02 4.47928 0.516831 0
M  V30 46831 C 4337.68 4.80449 0.268729 0
M  V30 46832 C 4340.03 5.21094 -0.104886 0
M  V30 46833 C 4337.36 5.83522 -0.6098 0
M  V30 46834 C 4339.71 6.25101 -0.971141 0
M  V30 46835 C 4338.38 6.56095 -1.22867 0
M  V30 46836 H 4337.65 0.693271 0.261642 0
M  V30 46837 H 4340.29 1.91484 -0.0251343 0
M  V30 46838 H 4338.6 3.22061 2.23123 0
M  V30 46839 H 4340.3 3.49995 1.95715 0
M  V30 46840 H 4336.89 4.22503 0.720361 0
M  V30 46841 H 4341.07 4.96245 0.0738202 0
M  V30 46842 H 4336.33 6.05909 -0.817586 0
M  V30 46843 H 4340.5 6.80937 -1.45938 0
M  V30 46844 H 4338.13 7.35785 -1.91113 0
M  V30 46845 N 4339.7 -0.29736 1.54769 0
M  V30 46846 C 4340.93 -1.0553 1.78545 0
M  V30 46847 C 4341.35 -1.8003 0.545042 0
M  V30 46848 O 4340.71 -1.74138 -0.504555 0
M  V30 46849 C 4340.76 -2.00869 2.99473 0
M  V30 46850 O 4339.86 -3.09233 2.72852 0
M  V30 46851 H 4339.2 -0.302975 0.590849 0
M  V30 46852 H 4341.73 -0.333675 2.01861 0
M  V30 46853 H 4341.74 -2.43269 3.27543 0
M  V30 46854 H 4340.42 -1.46051 3.89412 0
M  V30 46855 H 4338.99 -2.71322 2.5581 0
M  V30 46856 N 4341.18 -1.47287 -0.560729 0
M  V30 46857 C 4342.46 -1.44212 -1.32145 0
M  V30 46858 C 4342.84 -0.137191 -2.10654 0
M  V30 46859 O 4342.18 0.881323 -2.1082 0
M  V30 46860 C 4342.39 -2.6855 -2.22894 0
M  V30 46861 C 4343.74 -3.15618 -2.84026 0
M  V30 46862 O 4344.77 -2.69253 -2.33198 0
M  V30 46863 O 4343.63 -3.96212 -3.76401 0
M  V30 46864 H 4340.72 -0.574536 -0.594843 0
M  V30 46865 H 4343.27 -1.59483 -0.579924 0
M  V30 46866 H 4342.04 -3.55062 -1.64458 0
M  V30 46867 H 4341.66 -2.55847 -3.04348 0
M  V30 46868 N 4342.66 0.807175 -1.3536 0
M  V30 46869 C 4343.57 1.95057 -1.30345 0
M  V30 46870 C 4344.58 1.72747 -0.208456 0
M  V30 46871 O 4345.76 1.96586 -0.437727 0
M  V30 46872 C 4342.82 3.29631 -1.07443 0
M  V30 46873 C 4341.89 3.64842 -2.2625 0
M  V30 46874 C 4341.12 4.92994 -2.04431 0
M  V30 46875 O 4341.34 5.61378 -1.01047 0
M  V30 46876 O 4340.28 5.2645 -2.91778 0
M  V30 46877 H 4344.1 2.02235 -2.26571 0
M  V30 46878 H 4341.69 0.944873 -1.15726 0
M  V30 46879 H 4343.57 4.10198 -0.965172 0
M  V30 46880 H 4342.24 3.23385 -0.142675 0
M  V30 46881 H 4341.15 2.84654 -2.4274 0
M  V30 46882 H 4342.48 3.75792 -3.1787 0
M  V30 46883 N 4344.14 1.19348 1.02926 0
M  V30 46884 C 4345.38 0.993912 1.75971 0
M  V30 46885 C 4345.7 -0.476489 1.89089 0
M  V30 46886 O 4344.97 -1.34512 1.42419 0
M  V30 46887 H 4343.55 0.364764 0.651887 0
M  V30 46888 H 4346.22 1.50235 1.24159 0
M  V30 46889 H 4345.31 1.44162 2.7681 0
M  V30 46890 N 4345.61 -1.22028 0.997341 0
M  V30 46891 C 4346.84 -1.94903 0.694281 0
M  V30 46892 C 4347.26 -1.73616 -0.741819 0
M  V30 46893 O 4346.61 -1.03799 -1.50107 0
M  V30 46894 C 4346.66 -3.47501 0.996257 0
M  V30 46895 O 4346.39 -3.68078 2.37593 0
M  V30 46896 C 4347.89 -4.37553 0.711523 0
M  V30 46897 H 4345.11 -0.62005 0.256473 0
M  V30 46898 H 4347.65 -1.55058 1.33332 0
M  V30 46899 H 4345.81 -3.85299 0.402953 0
M  V30 46900 H 4346.22 -4.62239 2.47862 0
M  V30 46901 H 4347.69 -5.43356 0.973051 0
M  V30 46902 H 4348.17 -4.37767 -0.354473 0
M  V30 46903 H 4348.78 -4.05389 1.28608 0
M  V30 46904 N 4347.09 -0.771099 -1.37448 0
M  V30 46905 C 4348.04 -0.130481 -2.27626 0
M  V30 46906 C 4349.03 0.67475 -1.46068 0
M  V30 46907 O 4350.22 0.53783 -1.68631 0
M  V30 46908 C 4347.35 0.748312 -3.35045 0
M  V30 46909 C 4346.43 -0.0647136 -4.24051 0
M  V30 46910 N 4346.82 -1.11002 -4.93469 0
M  V30 46911 C 4345.12 0.159368 -4.45715 0
M  V30 46912 C 4345.82 -1.60342 -5.59165 0
M  V30 46913 N 4344.8 -0.915708 -5.35832 0
M  V30 46914 H 4348.6 -0.930813 -2.78771 0
M  V30 46915 H 4346.12 -0.608794 -1.50557 0
M  V30 46916 H 4348.11 1.22302 -3.98557 0
M  V30 46917 H 4346.77 1.5474 -2.85457 0
M  V30 46918 H 4347.78 -1.49216 -4.95939 0
M  V30 46919 H 4344.46 0.930412 -4.07001 0
M  V30 46920 H 4345.85 -2.47511 -6.2465 0
M  V30 46921 N 4348.57 1.48719 -0.521586 0
M  V30 46922 C 4349.48 2.33266 0.249806 0
M  V30 46923 C 4350.5 1.45955 0.947271 0
M  V30 46924 O 4351.67 1.78948 0.924094 0
M  V30 46925 C 4348.74 3.2188 1.28818 0
M  V30 46926 C 4347.8 4.25059 0.601966 0
M  V30 46927 C 4347.03 5.09438 1.59087 0
M  V30 46928 O 4347.25 4.95659 2.82273 0
M  V30 46929 O 4346.19 5.91104 1.13487 0
M  V30 46930 H 4350.01 3.00455 -0.442778 0
M  V30 46931 H 4347.6 1.46703 -0.282619 0
M  V30 46932 H 4349.48 3.76716 1.88846 0
M  V30 46933 H 4348.16 2.57362 1.96333 0
M  V30 46934 H 4347.06 3.7408 -0.0385913 0
M  V30 46935 H 4348.4 4.9219 -0.031087 0
M  V30 46936 N 4350.05 0.256331 1.55501 0
M  V30 46937 C 4351.27 -0.372588 2.04026 0
M  V30 46938 C 4351.7 -1.50065 1.13411 0
M  V30 46939 O 4351.06 -1.80841 0.12892 0
M  V30 46940 C 4351.1 -0.848844 3.50467 0
M  V30 46941 O 4350.21 -1.95768 3.62972 0
M  V30 46942 H 4349.55 -0.0799027 0.659175 0
M  V30 46943 H 4352.08 0.385144 2.00942 0
M  V30 46944 H 4352.09 -1.14958 3.9147 0
M  V30 46945 H 4350.76 -0.0234055 4.15893 0
M  V30 46946 H 4349.34 -1.66092 3.33868 0
M  V30 46947 N 4351.53 -1.57591 -0.0166602 0
M  V30 46948 C 4352.46 -2.04184 -1.04123 0
M  V30 46949 C 4353.47 -0.956791 -1.31717 0
M  V30 46950 O 4354.66 -1.23389 -1.28986 0
M  V30 46951 C 4351.76 -2.41269 -2.37997 0
M  V30 46952 C 4350.93 -3.72305 -2.29581 0
M  V30 46953 C 4349.99 -3.96442 -3.46006 0
M  V30 46954 O 4349.02 -4.67334 -3.24942 0
M  V30 46955 N 4350.22 -3.43041 -4.68298 0
M  V30 46956 H 4352.99 -2.92699 -0.644002 0
M  V30 46957 H 4350.55 -1.60605 -0.204372 0
M  V30 46958 H 4352.54 -2.54543 -3.14626 0
M  V30 46959 H 4351.11 -1.5836 -2.6952 0
M  V30 46960 H 4350.33 -3.69267 -1.3797 0
M  V30 46961 H 4351.62 -4.58242 -2.21114 0
M  V30 46962 H 4351.01 -2.85602 -4.88311 0
M  V30 46963 H 4349.57 -3.61674 -5.4225 0
M  V30 46964 N 4353 0.289148 -1.54925 0
M  V30 46965 C 4354.25 1.02056 -1.73976 0
M  V30 46966 C 4354.57 1.88021 -0.5392 0
M  V30 46967 O 4355.77 2.64518 -0.61177 0
M  V30 46968 C 4354.23 1.86429 -3.07851 0
M  V30 46969 C 4353.84 1.05409 -4.35423 0
M  V30 46970 C 4355.58 2.59098 -3.36257 0
M  V30 46971 C 4353.49 1.89128 -5.60343 0
M  V30 46972 H 4352.42 0.384754 -0.648444 0
M  V30 46973 H 4355.07 0.276968 -1.81398 0
M  V30 46974 H 4353.45 2.64822 -2.94424 0
M  V30 46975 H 4354.62 0.31547 -4.59719 0
M  V30 46976 H 4352.94 0.44269 -4.1404 0
M  V30 46977 H 4355.54 3.22108 -4.26791 0
M  V30 46978 H 4355.88 3.28546 -2.55662 0
M  V30 46979 H 4356.41 1.87747 -3.50708 0
M  V30 46980 H 4353.15 1.24129 -6.4364 0
M  V30 46981 H 4352.67 2.6063 -5.40215 0
M  V30 46982 H 4354.35 2.46888 -5.98043 0
M  V30 46983 N 4354.48 1.47583 0.55291 0
M  V30 46984 C 4355.71 1.58299 1.34 0
M  V30 46985 C 4356.13 0.235143 1.86624 0
M  V30 46986 O 4355.49 -0.789674 1.63199 0
M  V30 46987 C 4355.54 2.6151 2.48284 0
M  V30 46988 O 4354.64 2.17079 3.50643 0
M  V30 46989 H 4353.98 0.531615 0.397846 0
M  V30 46990 H 4356.51 1.93397 0.667749 0
M  V30 46991 H 4356.52 2.82065 2.94793 0
M  V30 46992 H 4355.2 3.59375 2.09339 0
M  V30 46993 H 4353.78 2.06641 3.10409 0
M  V30 46994 N 4355.96 -0.799985 1.35787 0
M  V30 46995 C 4357.21 -1.55739 1.29428 0
M  V30 46996 C 4357.54 -1.94069 -0.129453 0
M  V30 46997 O 4356.79 -1.62112 -1.09628 0
M  V30 46998 C 4357.09 -2.85298 2.15266 0
M  V30 46999 C 4356.76 -2.66156 3.63967 0
M  V30 47000 C 4355.42 -2.60643 4.04498 0
M  V30 47001 C 4357.77 -2.48229 4.58292 0
M  V30 47002 C 4355.1 -2.35156 5.37511 0
M  V30 47003 C 4357.45 -2.2427 5.91511 0
M  V30 47004 C 4356.11 -2.17184 6.31179 0
M  V30 47005 H 4355.38 -0.569889 0.473611 0
M  V30 47006 H 4358.03 -0.923813 1.67744 0
M  V30 47007 H 4356.34 -3.53068 1.69853 0
M  V30 47008 H 4358.03 -3.43032 2.07678 0
M  V30 47009 H 4354.62 -2.71297 3.31807 0
M  V30 47010 H 4358.81 -2.51496 4.27859 0
M  V30 47011 H 4354.06 -2.28144 5.67239 0
M  V30 47012 H 4358.24 -2.09391 6.64175 0
M  V30 47013 H 4355.86 -1.97197 7.34178 0
M  V30 47014 N 4357.44 -1.19892 -1.02292 0
M  V30 47015 C 4358.67 -1.03065 -1.79403 0
M  V30 47016 C 4359.08 0.420396 -1.8406 0
M  V30 47017 O 4358.44 1.29196 -1.28898 0
M  V30 47018 C 4358.49 -1.59985 -3.24171 0
M  V30 47019 O 4358.21 -2.9941 -3.1982 0
M  V30 47020 C 4359.71 -1.48023 -4.17857 0
M  V30 47021 H 4356.93 -0.362912 -0.56439 0
M  V30 47022 H 4359.48 -1.5884 -1.28802 0
M  V30 47023 H 4357.63 -1.08344 -3.71941 0
M  V30 47024 H 4358.04 -3.26303 -4.10642 0
M  V30 47025 H 4359.52 -1.9262 -5.17302 0
M  V30 47026 H 4360 -0.431695 -4.37073 0
M  V30 47027 H 4360.6 -1.98824 -3.75964 0
M  V30 47028 N 4358.92 1.21498 -1.0038 0
M  V30 47029 C 4360.17 1.89849 -0.681206 0
M  V30 47030 C 4360.48 1.78879 0.791312 0
M  V30 47031 O 4361.68 2.42246 1.22594 0
M  V30 47032 C 4360.14 3.40422 -1.16796 0
M  V30 47033 C 4359.75 3.60005 -2.66647 0
M  V30 47034 C 4361.49 4.14406 -0.920197 0
M  V30 47035 C 4359.4 5.04335 -3.08868 0
M  V30 47036 H 4358.33 0.710961 -0.251098 0
M  V30 47037 H 4360.98 1.37531 -1.2148 0
M  V30 47038 H 4359.36 3.91986 -0.562418 0
M  V30 47039 H 4360.54 3.18885 -3.3264 0
M  V30 47040 H 4358.85 2.99371 -2.89424 0
M  V30 47041 H 4361.45 5.20801 -1.21122 0
M  V30 47042 H 4361.79 4.16052 0.143568 0
M  V30 47043 H 4362.32 3.68903 -1.48847 0
M  V30 47044 H 4359.06 5.07836 -4.14467 0
M  V30 47045 H 4358.58 5.46316 -2.47587 0
M  V30 47046 H 4360.26 5.72835 -3.00782 0
M  V30 47047 N 4360.39 0.778378 1.37037 0
M  V30 47048 C 4361.3 0.170083 2.33983 0
M  V30 47049 C 4362.32 -0.671874 1.60505 0
M  V30 47050 O 4363.5 -0.590245 1.92557 0
M  V30 47051 C 4360.56 -0.693669 3.3969 0
M  V30 47052 C 4359.62 0.16551 4.28981 0
M  V30 47053 C 4358.86 -0.657112 5.29639 0
M  V30 47054 O 4359.08 -1.8938 5.38044 0
M  V30 47055 O 4358.01 -0.0628197 6.01867 0
M  V30 47056 H 4361.84 0.971361 2.87747 0
M  V30 47057 H 4359.42 0.539645 1.39313 0
M  V30 47058 H 4361.31 -1.18656 4.0435 0
M  V30 47059 H 4359.98 -1.47302 2.88243 0
M  V30 47060 H 4358.89 0.704915 3.67399 0
M  V30 47061 H 4360.22 0.908108 4.8375 0
M  V30 47062 N 4361.87 -1.4844 0.529465 0
M  V30 47063 C 4363.12 -2.02099 -0.00481152 0
M  V30 47064 C 4363.44 -1.40888 -1.34817 0
M  V30 47065 O 4362.71 -0.574085 -1.87299 0
M  V30 47066 H 4361.29 -0.746985 -0.0047664 0
M  V30 47067 H 4363.95 -1.82157 0.69318 0
M  V30 47068 H 4363.05 -3.11893 -0.113519 0
M  V30 47069 N 4363.35 -0.264574 -1.55363 0
M  V30 47070 C 4364.76 0.235221 -1.85212 0
M  V30 47071 C 4365.11 1.56254 -1.18655 0
M  V30 47072 O 4364.24 2.11209 -0.471134 0
M  V30 47073 C 4364.83 0.433571 -3.36014 0
M  V30 47074 C 4363.39 0.877609 -3.66026 0
M  V30 47075 C 4362.54 -0.0351484 -2.77278 0
M  V30 47076 H 4365.49 -0.48666 -1.51054 0
M  V30 47077 H 4365.51 1.27367 -3.5855 0
M  V30 47078 H 4365.02 -0.532632 -3.84428 0
M  V30 47079 H 4363.12 1.85566 -3.23104 0
M  V30 47080 H 4363.24 0.722232 -4.73625 0
M  V30 47081 H 4361.6 0.479334 -2.50149 0
M  V30 47082 H 4362.38 -0.997044 -3.28503 0
M  V30 47083 N 4364.83 1.57598 0.00830251 0
M  V30 47084 C 4365.76 2.10933 1.00147 0
M  V30 47085 C 4366.74 1.01655 1.36383 0
M  V30 47086 O 4367.93 1.29293 1.44903 0
M  V30 47087 C 4365.06 2.60582 2.29596 0
M  V30 47088 C 4364.01 3.74312 2.07544 0
M  V30 47089 C 4363.34 4.10244 3.42935 0
M  V30 47090 C 4364.64 5.01921 1.44475 0
M  V30 47091 H 4366.33 2.94165 0.557409 0
M  V30 47092 H 4363.88 1.41509 0.266678 0
M  V30 47093 H 4365.83 2.9652 2.99422 0
M  V30 47094 H 4364.55 1.74461 2.761 0
M  V30 47095 H 4363.21 3.38755 1.40146 0
M  V30 47096 H 4362.86 3.21158 3.87126 0
M  V30 47097 H 4362.56 4.86861 3.28999 0
M  V30 47098 H 4364.08 4.48734 4.1409 0
M  V30 47099 H 4365.5 5.35683 2.04247 0
M  V30 47100 H 4363.89 5.83287 1.41052 0
M  V30 47101 H 4364.96 4.83138 0.412964 0
M  V30 47102 N 4366.31 -0.280928 1.55076 0
M  V30 47103 C 4367.54 -1.03201 1.79324 0
M  V30 47104 C 4367.95 -1.80223 0.562602 0
M  V30 47105 O 4367.31 -1.76394 -0.468141 0
M  V30 47106 C 4367.36 -1.99684 3.01345 0
M  V30 47107 O 4367.08 -1.25784 4.19655 0
M  V30 47108 C 4368.58 -2.86669 3.38136 0
M  V30 47109 H 4365.8 -0.305209 0.597569 0
M  V30 47110 H 4368.34 -0.314115 2.02073 0
M  V30 47111 H 4366.5 -2.66948 2.80745 0
M  V30 47112 H 4366.91 -1.90748 4.88585 0
M  V30 47113 H 4368.39 -3.5018 4.26706 0
M  V30 47114 H 4368.86 -3.56025 2.57183 0
M  V30 47115 H 4369.47 -2.24908 3.60966 0
M  V30 47116 N 4367.79 -1.47874 -0.545076 0
M  V30 47117 C 4369.01 -1.59008 -1.33159 0
M  V30 47118 C 4369.44 -0.245037 -1.86497 0
M  V30 47119 O 4368.79 0.781008 -1.63615 0
M  V30 47120 C 4368.84 -2.62823 -2.46893 0
M  V30 47121 O 4367.95 -2.18936 -3.49487 0
M  V30 47122 H 4367.29 -0.533717 -0.395021 0
M  V30 47123 H 4369.82 -1.93748 -0.657483 0
M  V30 47124 H 4369.83 -2.83625 -2.93293 0
M  V30 47125 H 4368.5 -3.6048 -2.0743 0
M  V30 47126 H 4367.08 -2.08285 -3.09309 0
M  V30 47127 N 4369.26 0.792773 -1.36209 0
M  V30 47128 C 4370.51 1.5505 -1.30252 0
M  V30 47129 C 4370.84 1.94135 0.119159 0
M  V30 47130 O 4370.09 1.62691 1.08766 0
M  V30 47131 C 4370.39 2.84153 -2.16776 0
M  V30 47132 C 4370.06 2.64222 -3.65373 0
M  V30 47133 C 4368.72 2.58495 -4.05874 0
M  V30 47134 C 4371.07 2.45796 -4.59602 0
M  V30 47135 C 4368.4 2.32302 -5.38751 0
M  V30 47136 C 4370.75 2.2113 -5.92692 0
M  V30 47137 C 4369.42 2.13834 -6.32322 0
M  V30 47138 H 4368.69 0.567369 -0.476627 0
M  V30 47139 H 4371.33 0.914904 -1.68231 0
M  V30 47140 H 4369.64 3.52163 -1.71723 0
M  V30 47141 H 4371.34 3.41926 -2.09494 0
M  V30 47142 H 4367.93 2.69534 -3.33241 0
M  V30 47143 H 4372.11 2.49224 -4.29187 0
M  V30 47144 H 4367.37 2.25133 -5.68441 0
M  V30 47145 H 4371.54 2.05866 -6.65276 0
M  V30 47146 H 4369.17 1.93301 -7.35213 0
M  V30 47147 N 4370.74 1.20433 1.01654 0
M  V30 47148 C 4371.99 1.01252 1.74907 0
M  V30 47149 C 4372.31 -0.456407 1.89584 0
M  V30 47150 O 4371.58 -1.32994 1.43838 0
M  V30 47151 H 4370.16 0.371658 0.647981 0
M  V30 47152 H 4372.82 1.51544 1.22558 0
M  V30 47153 H 4371.92 1.4709 2.75265 0
M  V30 47154 N 4372.22 -1.20963 1.01023 0
M  V30 47155 C 4373.15 -2.25783 0.59534 0
M  V30 47156 C 4374.13 -1.65652 -0.386448 0
M  V30 47157 O 4375.32 -1.92268 -0.273281 0
M  V30 47158 C 4372.45 -3.47222 -0.0735879 0
M  V30 47159 C 4371.4 -4.19904 0.828522 0
M  V30 47160 C 4370.73 -5.34694 0.0257182 0
M  V30 47161 C 4372.03 -4.76734 2.13359 0
M  V30 47162 H 4373.72 -2.60741 1.47155 0
M  V30 47163 H 4371.27 -1.25336 0.709012 0
M  V30 47164 H 4373.22 -4.19725 -0.375349 0
M  V30 47165 H 4371.94 -3.11409 -0.984464 0
M  V30 47166 H 4370.6 -3.49258 1.11419 0
M  V30 47167 H 4370.25 -4.95124 -0.88661 0
M  V30 47168 H 4369.95 -5.84251 0.626422 0
M  V30 47169 H 4371.47 -6.10004 -0.269737 0
M  V30 47170 H 4372.89 -5.41088 1.89463 0
M  V30 47171 H 4371.28 -5.36702 2.6846 0
M  V30 47172 H 4372.35 -3.95827 2.80088 0
M  V30 47173 N 4373.7 -0.785634 -1.36622 0
M  V30 47174 C 4374.92 -0.366952 -2.04128 0
M  V30 47175 C 4375.35 1.00733 -1.58854 0
M  V30 47176 O 4374.71 1.64821 -0.755231 0
M  V30 47177 C 4374.75 -0.434783 -3.57969 0
M  V30 47178 O 4373.86 0.559683 -4.08585 0
M  V30 47179 H 4373.2 -0.156458 -0.645304 0
M  V30 47180 H 4375.73 -1.06569 -1.74654 0
M  V30 47181 H 4375.74 -0.297031 -4.06917 0
M  V30 47182 H 4374.41 -1.4373 -3.90275 0
M  V30 47183 H 4372.99 0.383905 -3.70919 0
M  V30 47184 N 4375.18 1.48157 -0.53733 0
M  V30 47185 C 4376.12 2.31413 0.234706 0
M  V30 47186 C 4377.12 1.4169 0.928462 0
M  V30 47187 O 4378.32 1.58558 0.85201 0
M  V30 47188 H 4374.7 0.746031 0.0945593 0
M  V30 47189 H 4376.67 2.944 -0.486957 0
M  V30 47190 C 4375.42 3.23908 1.26407 0
M  V30 47191 H 4374.74 3.92898 0.739652 0
M  V30 47192 H 4376.18 3.85033 1.77554 0
M  V30 47193 C 4374.64 2.46028 2.30156 0
M  V30 47194 O 4375.17 2.19038 3.36728 0
M  V30 47195 N 4373.38 2.07392 2.03561 0
M  V30 47196 H 4372.92 2.29542 1.16911 0
M  V30 47197 H 4372.88 1.55596 2.73198 0
M  V30 47198 N 4376.65 0.272809 1.55221 0
M  V30 47199 C 4377.6 -0.615663 2.22437 0
M  V30 47200 C 4378.57 -1.15153 1.19704 0
M  V30 47201 O 4379.76 -1.20125 1.48238 0
M  V30 47202 C 4376.9 -1.79502 2.94742 0
M  V30 47203 C 4376.01 -1.29323 4.12189 0
M  V30 47204 C 4375.14 -2.4342 4.72144 0
M  V30 47205 C 4374.18 -1.90233 5.81789 0
M  V30 47206 N 4373.32 -2.97795 6.35817 0
M  V30 47207 H 4378.16 -0.0358222 2.97978 0
M  V30 47208 H 4375.7 -0.00591513 1.47099 0
M  V30 47209 H 4377.66 -2.48822 3.34878 0
M  V30 47210 H 4376.29 -2.34693 2.21628 0
M  V30 47211 H 4375.34 -0.493208 3.77189 0
M  V30 47212 H 4376.65 -0.863643 4.91266 0
M  V30 47213 H 4375.8 -3.20738 5.14987 0
M  V30 47214 H 4374.54 -2.89693 3.92338 0
M  V30 47215 H 4373.55 -1.11394 5.38397 0
M  V30 47216 H 4374.77 -1.44898 6.63462 0
M  V30 47217 H 4372.72 -3.43454 5.58906 0
M  V30 47218 H 4372.64 -2.59246 7.1016 0
M  V30 47219 H 4373.9 -3.75094 6.83319 0
M  V30 47220 N 4378.13 -1.576 5.54043e-05 0
M  V30 47221 C 4379.38 -1.89749 -0.683974 0
M  V30 47222 C 4379.69 -0.875071 -1.74934 0
M  V30 47223 O 4380.9 -1.08678 -2.488 0
M  V30 47224 C 4379.36 -3.36834 -1.26772 0
M  V30 47225 C 4378.96 -4.47372 -0.237172 0
M  V30 47226 C 4380.71 -3.78092 -1.92993 0
M  V30 47227 C 4378.62 -5.85534 -0.830908 0
M  V30 47228 H 4377.55 -0.708037 -0.259228 0
M  V30 47229 H 4380.2 -1.834 0.0606085 0
M  V30 47230 H 4378.58 -3.3802 -2.06297 0
M  V30 47231 H 4379.75 -4.57701 0.533491 0
M  V30 47232 H 4378.07 -4.15133 0.324609 0
M  V30 47233 H 4380.66 -4.78652 -2.3832 0
M  V30 47234 H 4381.01 -3.1161 -2.76052 0
M  V30 47235 H 4381.54 -3.79205 -1.20202 0
M  V30 47236 H 4378.28 -6.55488 -0.0390993 0
M  V30 47237 H 4377.8 -5.78868 -1.57073 0
M  V30 47238 H 4379.48 -6.33192 -1.32952 0
M  V30 47239 N 4379.61 0.2727 -1.55223 0
M  V30 47240 C 4380.56 1.35699 -1.88914 0
M  V30 47241 C 4381.55 1.51117 -0.765509 0
M  V30 47242 O 4382.76 1.52898 -0.949856 0
M  V30 47243 H 4379.13 0.453847 -0.599606 0
M  V30 47244 H 4381.1 1.04534 -2.79491 0
M  V30 47245 C 4379.85 2.71041 -2.17789 0
M  V30 47246 H 4379.18 2.59968 -3.03737 0
M  V30 47247 H 4380.62 3.4585 -2.45284 0
M  V30 47248 C 4379.08 3.22161 -0.985586 0
M  V30 47249 O 4379.61 4.01095 -0.220374 0
M  V30 47250 N 4377.81 2.79847 -0.783206 0
M  V30 47251 H 4377.36 2.1577 -1.40716 0
M  V30 47252 H 4377.32 3.14397 0.0129287 0
M  V30 47253 N 4381.09 1.48161 0.537226 0
M  V30 47254 C 4382.31 1.59712 1.32314 0
M  V30 47255 C 4382.74 0.254924 1.86365 0
M  V30 47256 O 4382.1 -0.77232 1.64027 0
M  V30 47257 C 4382.14 2.64129 2.45496 0
M  V30 47258 O 4381.25 2.20786 3.48321 0
M  V30 47259 H 4380.59 0.535805 0.392185 0
M  V30 47260 H 4383.12 1.94094 0.647199 0
M  V30 47261 H 4383.13 2.85176 2.91785 0
M  V30 47262 H 4381.8 3.61575 2.05515 0
M  V30 47263 H 4380.38 2.09922 3.082 0
M  V30 47264 N 4382.57 -0.785538 1.36627 0
M  V30 47265 C 4383.51 -1.89833 1.3127 0
M  V30 47266 C 4384.48 -1.65114 0.180691 0
M  V30 47267 O 4385.67 -1.87221 0.367835 0
M  V30 47268 C 4382.81 -3.26702 1.11174 0
M  V30 47269 C 4381.92 -3.63468 2.33485 0
M  V30 47270 C 4381.06 -4.89474 2.0637 0
M  V30 47271 C 4380.1 -5.1893 3.24621 0
M  V30 47272 N 4379.23 -6.3612 2.97145 0
M  V30 47273 H 4384.07 -1.93748 2.26419 0
M  V30 47274 H 4381.61 -0.947415 1.12528 0
M  V30 47275 H 4383.57 -4.05636 0.97548 0
M  V30 47276 H 4382.2 -3.222 0.196787 0
M  V30 47277 H 4381.25 -2.79627 2.57901 0
M  V30 47278 H 4382.56 -3.81182 3.21717 0
M  V30 47279 H 4381.72 -5.76282 1.89696 0
M  V30 47280 H 4380.45 -4.73837 1.15454 0
M  V30 47281 H 4379.46 -4.30603 3.41849 0
M  V30 47282 H 4380.68 -5.36484 4.16368 0
M  V30 47283 H 4378.63 -6.21868 2.08845 0
M  V30 47284 H 4378.55 -6.54185 3.78917 0
M  V30 47285 H 4379.82 -7.259 2.84059 0
M  V30 47286 N 4384.04 -1.20971 -1.01014 0
M  V30 47287 C 4384.99 -0.931893 -2.08086 0
M  V30 47288 C 4385.98 0.110842 -1.60518 0
M  V30 47289 O 4387.17 -0.0974013 -1.76732 0
M  V30 47290 C 4384.3 -0.492838 -3.39744 0
M  V30 47291 C 4383.39 -1.56936 -3.93995 0
M  V30 47292 N 4383.78 -2.79326 -4.21676 0
M  V30 47293 C 4382.07 -1.43703 -4.22215 0
M  V30 47294 C 4382.78 -3.48813 -4.65515 0
M  V30 47295 N 4381.75 -2.7624 -4.6818 0
M  V30 47296 H 4385.55 -1.86183 -2.27405 0
M  V30 47297 H 4383.07 -1.10467 -1.19041 0
M  V30 47298 H 4385.06 -0.275191 -4.15991 0
M  V30 47299 H 4383.72 0.430396 -3.21835 0
M  V30 47300 H 4384.74 -3.15917 -4.10386 0
M  V30 47301 H 4381.41 -0.578693 -4.1347 0
M  V30 47302 H 4382.8 -4.53578 -4.95698 0
M  V30 47303 N 4385.52 1.20426 -1.01663 0
M  V30 47304 C 4386.45 2.25464 -0.607305 0
M  V30 47305 C 4387.43 1.65855 0.377658 0
M  V30 47306 O 4388.62 1.9241 0.263081 0
M  V30 47307 C 4385.75 3.47256 0.0551728 0
M  V30 47308 C 4384.7 4.19459 -0.850779 0
M  V30 47309 C 4384.03 5.34673 -0.0540739 0
M  V30 47310 C 4385.33 4.75596 -2.15885 0
M  V30 47311 H 4387.02 2.59957 -1.48535 0
M  V30 47312 H 4384.57 1.24958 -0.715649 0
M  V30 47313 H 4386.52 4.19918 0.353085 0
M  V30 47314 H 4385.25 3.11927 0.967936 0
M  V30 47315 H 4383.9 3.48663 -1.1327 0
M  V30 47316 H 4383.55 4.95588 0.86034 0
M  V30 47317 H 4383.25 5.83911 -0.657397 0
M  V30 47318 H 4384.78 6.10138 0.237383 0
M  V30 47319 H 4386.19 5.40076 -1.9233 0
M  V30 47320 H 4384.59 5.35271 -2.71302 0
M  V30 47321 H 4385.66 3.94336 -2.82183 0
M  V30 47322 N 4387 0.792868 1.36203 0
M  V30 47323 C 4388.42 0.474957 1.52369 0
M  V30 47324 C 4388.62 -1.00616 1.74581 0
M  V30 47325 O 4387.67 -1.79156 1.77931 0
M  V30 47326 C 4388.99 1.3084 2.70742 0
M  V30 47327 C 4390.53 1.30244 2.84615 0
M  V30 47328 C 4391.01 2.1197 4.05996 0
M  V30 47329 N 4392.5 2.09434 4.13149 0
M  V30 47330 C 4393.23 2.69437 5.06154 0
M  V30 47331 N 4392.73 3.38312 6.0458 0
M  V30 47332 N 4394.52 2.59152 4.98795 0
M  V30 47333 H 4386.67 1.75226 1.2004 0
M  V30 47334 H 4388.94 0.745044 0.586185 0
M  V30 47335 H 4388.64 2.3589 2.60862 0
M  V30 47336 H 4388.52 0.952088 3.64986 0
M  V30 47337 H 4390.9 0.259851 2.93954 0
M  V30 47338 H 4390.99 1.69854 1.91268 0
M  V30 47339 H 4390.63 3.16262 3.97418 0
M  V30 47340 H 4390.56 1.69729 4.98497 0
M  V30 47341 H 4393.05 1.59309 3.42679 0
M  V30 47342 H 4393.36 3.81417 6.72117 0
M  V30 47343 H 4391.71 3.42414 6.04795 0
M  V30 47344 H 4394.9 2.04942 4.20852 0
M  V30 47345 H 4395.07 3.06205 5.71089 0
M  V30 47346 N 4388.48 -1.4787 0.54518 0
M  V30 47347 C 4389.72 -2.02793 0.0166817 0
M  V30 47348 C 4390.06 -1.41991 -1.32484 0
M  V30 47349 O 4389.33 -0.57111 -1.85926 0
M  V30 47350 C 4389.62 -3.59989 -0.0892029 0
M  V30 47351 C 4389.47 -4.31246 1.27856 0
M  V30 47352 C 4390.79 -4.32609 -0.808572 0
M  V30 47353 H 4387.91 -0.736961 0.00753626 0
M  V30 47354 H 4390.55 -1.7643 0.705147 0
M  V30 47355 H 4388.7 -3.82582 -0.675546 0
M  V30 47356 H 4390.37 -4.20029 1.90719 0
M  V30 47357 H 4388.61 -3.92069 1.85646 0
M  V30 47358 H 4389.28 -5.39732 1.15732 0
M  V30 47359 H 4391.76 -4.14937 -0.310846 0
M  V30 47360 H 4390.64 -5.42254 -0.851591 0
M  V30 47361 H 4390.9 -4.00969 -1.86215 0
M  V30 47362 N 4389.96 -0.281037 -1.55074 0
M  V30 47363 C 4390.9 0.619785 -2.24191 0
M  V30 47364 C 4391.9 1.15311 -1.24096 0
M  V30 47365 O 4393.1 1.10605 -1.42009 0
M  V30 47366 H 4389.48 0.218433 -0.719577 0
M  V30 47367 H 4391.45 0.0140782 -2.98397 0
M  V30 47368 C 4390.2 1.78979 -2.98097 0
M  V30 47369 H 4389.52 1.38861 -3.7491 0
M  V30 47370 H 4390.96 2.3966 -3.4977 0
M  V30 47371 C 4389.42 2.68185 -2.03908 0
M  V30 47372 O 4389.95 3.68714 -1.59413 0
M  V30 47373 N 4388.16 2.35482 -1.70283 0
M  V30 47374 H 4387.7 1.53779 -2.06663 0
M  V30 47375 H 4387.66 2.95438 -1.07535 0
M  V30 47376 N 4391.44 1.57598 -0.00841331 0
M  V30 47377 C 4392.37 2.05815 1.00861 0
M  V30 47378 C 4393.38 0.977625 1.30178 0
M  V30 47379 O 4394.57 1.25426 1.27007 0
M  V30 47380 C 4391.67 2.45025 2.34128 0
M  V30 47381 C 4390.84 3.7591 2.23629 0
M  V30 47382 C 4389.9 4.01896 3.39656 0
M  V30 47383 O 4388.93 4.72445 3.17466 0
M  V30 47384 N 4390.13 3.50448 4.62781 0
M  V30 47385 H 4392.89 2.93686 0.597355 0
M  V30 47386 H 4390.46 1.6091 0.178796 0
M  V30 47387 H 4392.45 2.59517 3.10537 0
M  V30 47388 H 4391.02 1.62628 2.66966 0
M  V30 47389 H 4390.24 3.71415 1.32078 0
M  V30 47390 H 4391.53 4.61702 2.13796 0
M  V30 47391 H 4390.92 2.93334 4.83706 0
M  V30 47392 H 4389.48 3.70255 5.36427 0
M  V30 47393 N 4392.91 -0.264465 1.55365 0
M  V30 47394 C 4393.86 -1.34695 1.89631 0
M  V30 47395 C 4394.86 -1.50709 0.773512 0
M  V30 47396 O 4396.06 -1.52392 0.957951 0
M  V30 47397 H 4392.44 -0.450661 0.602004 0
M  V30 47398 H 4394.41 -1.03051 2.80041 0
M  V30 47399 C 4393.16 -2.69882 2.19223 0
M  V30 47400 H 4392.48 -2.58354 3.05112 0
M  V30 47401 H 4393.92 -3.44544 2.47114 0
M  V30 47402 C 4392.38 -3.21634 1.00266 0
M  V30 47403 O 4392.91 -4.00973 0.241642 0
M  V30 47404 N 4391.11 -2.79428 0.798036 0
M  V30 47405 H 4390.66 -2.15021 1.41858 0
M  V30 47406 H 4390.62 -3.144 0.00374474 0
M  V30 47407 N 4394.39 -1.48444 -0.529361 0
M  V30 47408 C 4395.32 -1.65908 -1.64307 0
M  V30 47409 C 4396.3 -0.507954 -1.62339 0
M  V30 47410 O 4397.49 -0.740566 -1.79525 0
M  V30 47411 C 4394.62 -1.69922 -3.02892 0
M  V30 47412 C 4393.57 -2.84541 -3.19719 0
M  V30 47413 C 4392.9 -2.73645 -4.59372 0
M  V30 47414 C 4394.2 -4.25831 -3.02432 0
M  V30 47415 H 4395.89 -2.59146 -1.49946 0
M  V30 47416 H 4393.44 -1.24711 -0.719938 0
M  V30 47417 H 4395.39 -1.80728 -3.80677 0
M  V30 47418 H 4394.11 -0.732636 -3.18277 0
M  V30 47419 H 4392.77 -2.73291 -2.44351 0
M  V30 47420 H 4392.42 -1.74955 -4.71593 0
M  V30 47421 H 4392.12 -3.50557 -4.71575 0
M  V30 47422 H 4393.65 -2.8642 -5.39255 0
M  V30 47423 H 4395.06 -4.37911 -3.70009 0
M  V30 47424 H 4393.46 -5.03746 -3.26128 0
M  V30 47425 H 4394.53 -4.42251 -1.98851 0
M  V30 47426 N 4395.87 0.778281 -1.37042 0
M  V30 47427 C 4397.12 1.53888 -1.32085 0
M  V30 47428 C 4397.45 1.9396 0.0964704 0
M  V30 47429 O 4396.72 1.63571 1.05236 0
M  V30 47430 C 4397.01 2.80839 -2.25392 0
M  V30 47431 C 4396.86 2.47062 -3.75873 0
M  V30 47432 C 4398.18 3.82733 -2.17264 0
M  V30 47433 H 4395.3 0.558286 -0.48113 0
M  V30 47434 H 4397.94 0.893338 -1.67689 0
M  V30 47435 H 4396.09 3.35924 -1.95159 0
M  V30 47436 H 4397.76 1.97942 -4.16673 0
M  V30 47437 H 4396 1.79849 -3.94762 0
M  V30 47438 H 4396.68 3.37783 -4.36585 0
M  V30 47439 H 4399.15 3.37124 -2.43899 0
M  V30 47440 H 4398.03 4.69293 -2.84702 0
M  V30 47441 H 4398.29 4.26516 -1.16346 0
M  V30 47442 N 4397.35 1.21505 1.00371 0
M  V30 47443 C 4398.58 1.05752 1.77482 0
M  V30 47444 C 4398.99 -0.39559 1.85018 0
M  V30 47445 O 4398.33 -1.28622 1.31157 0
M  V30 47446 C 4398.39 1.58103 3.22868 0
M  V30 47447 C 4398.05 3.0658 3.38906 0
M  V30 47448 C 4399.05 4.04117 3.27086 0
M  V30 47449 C 4396.74 3.45812 3.64307 0
M  V30 47450 C 4398.73 5.38874 3.40432 0
M  V30 47451 C 4396.42 4.8072 3.77295 0
M  V30 47452 C 4397.42 5.7706 3.65364 0
M  V30 47453 O 4397.1 7.09521 3.77936 0
M  V30 47454 H 4396.84 0.371798 0.564573 0
M  V30 47455 H 4399.39 1.61323 1.27137 0
M  V30 47456 H 4397.62 0.969295 3.74355 0
M  V30 47457 H 4399.31 1.38175 3.81657 0
M  V30 47458 H 4400.07 3.75152 3.07386 0
M  V30 47459 H 4395.95 2.71357 3.72674 0
M  V30 47460 H 4399.5 6.14053 3.31036 0
M  V30 47461 H 4395.39 5.09371 3.96499 0
M  V30 47462 H 4396.16 7.16949 3.94876 0
M  V30 47463 N 4398.83 -1.19885 1.023 0
M  V30 47464 C 4399.74 -2.26569 0.608588 0
M  V30 47465 C 4400.75 -1.703 -0.356904 0
M  V30 47466 O 4401.93 -2.00236 -0.216256 0
M  V30 47467 C 4398.99 -3.46677 -0.0401595 0
M  V30 47468 C 4398.05 -4.18149 0.972087 0
M  V30 47469 C 4397.29 -5.32523 0.354204 0
M  V30 47470 O 4397.51 -5.64115 -0.844406 0
M  V30 47471 O 4396.44 -5.92238 1.07412 0
M  V30 47472 H 4400.27 -2.64246 1.49693 0
M  V30 47473 H 4397.85 -1.26626 0.792853 0
M  V30 47474 H 4399.74 -4.19476 -0.402176 0
M  V30 47475 H 4398.41 -3.10861 -0.902598 0
M  V30 47476 H 4397.32 -3.47494 1.38559 0
M  V30 47477 H 4398.65 -4.57921 1.8047 0
M  V30 47478 N 4400.3 -0.80008 -1.35781 0
M  V30 47479 C 4401.53 -0.388582 -2.03727 0
M  V30 47480 C 4401.95 0.990425 -1.59913 0
M  V30 47481 O 4401.31 1.64011 -0.77267 0
M  V30 47482 C 4401.36 -0.472726 -3.57488 0
M  V30 47483 O 4400.46 0.516316 -4.09155 0
M  V30 47484 H 4399.8 -0.163293 -0.643608 0
M  V30 47485 H 4402.33 -1.08416 -1.73514 0
M  V30 47486 H 4402.34 -0.340173 -4.06579 0
M  V30 47487 H 4401.02 -1.47862 -3.88728 0
M  V30 47488 H 4399.6 0.344542 -3.71305 0
M  V30 47489 N 4401.78 1.47579 -0.553014 0
M  V30 47490 C 4403.03 2.02082 -0.0273414 0
M  V30 47491 C 4403.35 1.43015 1.32558 0
M  V30 47492 O 4402.62 0.60381 1.86362 0
M  V30 47493 H 4401.2 0.746966 -0.00711808 0
M  V30 47494 H 4403.86 1.81031 -0.722071 0
M  V30 47495 H 4402.96 3.12035 0.0638854 0
M  V30 47496 N 4403.26 0.289257 1.54923 0
M  V30 47497 C 4404.48 -0.329227 2.0477 0
M  V30 47498 C 4404.91 -1.47626 1.16569 0
M  V30 47499 O 4404.27 -1.80527 0.16725 0
M  V30 47500 C 4404.32 -0.774314 3.52189 0
M  V30 47501 O 4403.42 -1.88025 3.67043 0
M  V30 47502 H 4402.76 -0.0659026 0.660721 0
M  V30 47503 H 4405.29 0.42768 2.0008 0
M  V30 47504 H 4405.3 -1.06628 3.9382 0
M  V30 47505 H 4403.98 0.0648169 4.15849 0
M  V30 47506 H 4402.55 -1.58973 3.37316 0
M  V30 47507 N 4404.74 -1.57591 0.016771 0
M  V30 47508 C 4405.67 -2.125 -0.967783 0
M  V30 47509 C 4406.65 -1.03812 -1.34748 0
M  V30 47510 O 4407.83 -1.31582 -1.42828 0
M  V30 47511 C 4404.96 -2.64202 -2.25421 0
M  V30 47512 C 4403.92 -3.77566 -2.01563 0
M  V30 47513 C 4403.24 -4.15648 -3.36365 0
M  V30 47514 C 4404.54 -5.04155 -1.36472 0
M  V30 47515 H 4406.24 -2.95015 -0.51054 0
M  V30 47516 H 4403.78 -1.41915 -0.244131 0
M  V30 47517 H 4405.74 -3.01246 -2.94667 0
M  V30 47518 H 4404.46 -1.78831 -2.73289 0
M  V30 47519 H 4403.12 -3.40941 -1.34739 0
M  V30 47520 H 4402.77 -3.27276 -3.81968 0
M  V30 47521 H 4402.47 -4.92033 -3.21212 0
M  V30 47522 H 4403.99 -4.55265 -4.06899 0
M  V30 47523 H 4405.41 -5.38864 -1.95699 0
M  V30 47524 H 4403.8 -5.85458 -1.31755 0
M  V30 47525 H 4404.87 -4.83734 -0.336049 0
M  V30 47526 N 4406.22 0.256222 -1.55503 0
M  V30 47527 C 4407.16 1.33687 -1.90343 0
M  V30 47528 C 4408.16 1.50296 -0.781494 0
M  V30 47529 O 4409.36 1.51882 -0.966019 0
M  V30 47530 H 4405.74 0.447462 -0.604385 0
M  V30 47531 H 4407.71 1.01564 -2.80584 0
M  V30 47532 C 4406.46 2.68716 -2.20651 0
M  V30 47533 H 4405.78 2.56732 -3.06478 0
M  V30 47534 H 4407.22 3.43228 -2.48938 0
M  V30 47535 C 4405.68 3.21098 -1.0197 0
M  V30 47536 O 4406.21 4.00839 -0.262903 0
M  V30 47537 N 4404.42 2.79 -0.812844 0
M  V30 47538 H 4403.96 2.14266 -1.42996 0
M  V30 47539 H 4403.92 3.14393 -0.0204181 0
M  V30 47540 N 4407.69 1.48722 0.521481 0
M  V30 47541 C 4408.94 1.57172 1.27684 0
M  V30 47542 C 4409.27 0.249343 1.92895 0
M  V30 47543 O 4408.52 -0.761099 1.80294 0
M  V30 47544 C 4408.82 2.66505 2.38138 0
M  V30 47545 C 4408.49 4.08671 1.90523 0
M  V30 47546 C 4407.15 4.47363 1.77255 0
M  V30 47547 C 4409.5 4.97729 1.54645 0
M  V30 47548 C 4406.83 5.7291 1.26458 0
M  V30 47549 C 4409.18 6.23773 1.05307 0
M  V30 47550 C 4407.85 6.61314 0.906629 0
M  V30 47551 H 4407.12 0.575134 0.467228 0
M  V30 47552 H 4409.76 1.82474 0.580987 0
M  V30 47553 H 4408.07 2.35096 3.13428 0
M  V30 47554 H 4409.77 2.70256 2.96247 0
M  V30 47555 H 4406.36 3.78118 2.01803 0
M  V30 47556 H 4410.54 4.68507 1.63752 0
M  V30 47557 H 4405.8 6.00713 1.13814 0
M  V30 47558 H 4409.97 6.92172 0.766196 0
M  V30 47559 H 4407.6 7.58482 0.510816 0
M  V30 47560 N 4409.17 -0.771003 1.37453 0
M  V30 47561 C 4410.4 -1.56524 1.3607 0
M  V30 47562 C 4410.82 -1.88029 -0.0515198 0
M  V30 47563 O 4410.18 -1.49285 -1.02877 0
M  V30 47564 C 4410.23 -2.85179 2.20693 0
M  V30 47565 O 4409.33 -3.79587 1.61206 0
M  V30 47566 H 4408.67 -0.474093 0.464899 0
M  V30 47567 H 4411.2 -0.954205 1.80986 0
M  V30 47568 H 4411.21 -3.34274 2.33933 0
M  V30 47569 H 4409.89 -2.61576 3.23343 0
M  V30 47570 H 4408.47 -3.38234 1.57011 0
M  V30 47571 N 4410.65 -1.22035 -0.997255 0
M  V30 47572 C 4411.6 -0.98654 -2.08653 0
M  V30 47573 C 4412.57 0.0902088 -1.65855 0
M  V30 47574 O 4413.75 -0.0584965 -1.9071 0
M  V30 47575 C 4410.89 -0.565689 -3.40432 0
M  V30 47576 C 4410.01 -1.71273 -3.96597 0
M  V30 47577 C 4409.14 -1.24029 -5.16517 0
M  V30 47578 C 4408.18 -2.35916 -5.6481 0
M  V30 47579 N 4407.32 -1.8975 -6.75973 0
M  V30 47580 H 4412.16 -1.919 -2.27988 0
M  V30 47581 H 4409.69 -0.956238 -1.11779 0
M  V30 47582 H 4411.65 -0.302885 -4.16099 0
M  V30 47583 H 4410.28 0.329766 -3.21111 0
M  V30 47584 H 4409.33 -2.08997 -3.17843 0
M  V30 47585 H 4410.65 -2.55451 -4.28423 0
M  V30 47586 H 4409.8 -0.934606 -5.99458 0
M  V30 47587 H 4408.54 -0.368658 -4.86305 0
M  V30 47588 H 4407.54 -2.67278 -4.80461 0
M  V30 47589 H 4408.77 -3.23588 -5.97049 0
M  V30 47590 H 4406.71 -1.04942 -6.47552 0
M  V30 47591 H 4406.63 -2.67496 -7.07094 0
M  V30 47592 H 4407.9 -1.62238 -7.6243 0
M  V30 47593 N 4412.13 1.19341 -1.02934 0
M  V30 47594 C 4413.06 2.24807 -0.631184 0
M  V30 47595 C 4414.04 1.66246 0.360046 0
M  V30 47596 O 4415.22 1.92678 0.242659 0
M  V30 47597 C 4412.35 3.47295 0.0183386 0
M  V30 47598 C 4411.31 4.18533 -0.895221 0
M  V30 47599 C 4410.63 5.34585 -0.11078 0
M  V30 47600 C 4411.93 4.73279 -2.20917 0
M  V30 47601 H 4413.63 2.58367 -1.51284 0
M  V30 47602 H 4411.17 1.24192 -0.728862 0
M  V30 47603 H 4413.13 4.20269 0.308527 0
M  V30 47604 H 4411.85 3.12936 0.934797 0
M  V30 47605 H 4410.51 3.47442 -1.16961 0
M  V30 47606 H 4410.16 4.96472 0.807728 0
M  V30 47607 H 4409.86 5.83181 -0.719292 0
M  V30 47608 H 4411.38 6.10356 0.172657 0
M  V30 47609 H 4412.8 5.38006 -1.98047 0
M  V30 47610 H 4411.19 5.32363 -2.76964 0
M  V30 47611 H 4412.26 3.91321 -2.8635 0
M  V30 47612 N 4413.61 0.80727 1.35355 0
M  V30 47613 C 4414.52 0.219676 2.33569 0
M  V30 47614 C 4415.53 -0.637677 1.61894 0
M  V30 47615 O 4416.71 -0.549268 1.93765 0
M  V30 47616 C 4413.77 -0.62146 3.41085 0
M  V30 47617 C 4412.83 0.256465 4.28533 0
M  V30 47618 C 4412.07 -0.54462 5.30914 0
M  V30 47619 O 4412.29 -1.77925 5.4194 0
M  V30 47620 O 4411.22 0.0648594 6.01865 0
M  V30 47621 H 4415.05 1.03218 2.85622 0
M  V30 47622 H 4412.64 0.569074 1.38137 0
M  V30 47623 H 4414.52 -1.10053 4.06776 0
M  V30 47624 H 4413.19 -1.41155 2.91302 0
M  V30 47625 H 4412.1 0.782687 3.65821 0
M  V30 47626 H 4413.43 1.01051 4.81715 0
M  V30 47627 N 4415.08 -1.47283 0.560833 0
M  V30 47628 C 4416.33 -2.01668 0.0359659 0
M  V30 47629 C 4416.65 -1.44026 -1.32348 0
M  V30 47630 O 4417.85 -1.90095 -1.93846 0
M  V30 47631 C 4416.31 -3.59897 0.0137924 0
M  V30 47632 C 4415.92 -4.26532 1.37021 0
M  V30 47633 C 4417.66 -4.22019 -0.458277 0
M  V30 47634 C 4415.57 -5.76778 1.30695 0
M  V30 47635 H 4414.5 -0.753938 0.00967529 0
M  V30 47636 H 4417.15 -1.6924 0.709225 0
M  V30 47637 H 4415.53 -3.89303 -0.725188 0
M  V30 47638 H 4416.7 -4.08763 2.12719 0
M  V30 47639 H 4415.02 -3.76413 1.78051 0
M  V30 47640 H 4417.62 -5.32126 -0.52406 0
M  V30 47641 H 4417.96 -3.89442 -1.47107 0
M  V30 47642 H 4418.49 -3.97158 0.225957 0
M  V30 47643 H 4415.23 -6.13979 2.29585 0
M  V30 47644 H 4414.75 -5.96873 0.591832 0
M  V30 47645 H 4416.43 -6.39059 1.01055 0
M  V30 47646 N 4416.56 -0.297469 -1.54767 0
M  V30 47647 C 4417.49 0.613803 -2.20828 0
M  V30 47648 C 4418.51 1.10028 -1.19991 0
M  V30 47649 O 4419.7 1.01834 -1.46602 0
M  V30 47650 C 4416.8 1.8519 -2.83827 0
M  V30 47651 C 4415.97 1.50851 -4.10564 0
M  V30 47652 C 4415.03 2.60138 -4.574 0
M  V30 47653 O 4414.05 2.2538 -5.22678 0
M  V30 47654 N 4415.26 3.90614 -4.29419 0
M  V30 47655 H 4418.02 0.0482837 -2.99661 0
M  V30 47656 H 4415.58 -0.119517 -1.61458 0
M  V30 47657 H 4417.57 2.57641 -3.12095 0
M  V30 47658 H 4416.14 2.3259 -2.08856 0
M  V30 47659 H 4415.36 0.616788 -3.89345 0
M  V30 47660 H 4416.65 1.25441 -4.93094 0
M  V30 47661 H 4416.05 4.21664 -3.77115 0
M  V30 47662 H 4414.61 4.59375 -4.62405 0
M  V30 47663 N 4418.04 1.5758 -0.0251282 0
M  V30 47664 C 4419.27 1.9634 0.668248 0
M  V30 47665 C 4419.69 0.901372 1.65097 0
M  V30 47666 O 4419.05 -0.138123 1.80773 0
M  V30 47667 C 4419.1 3.34196 1.35445 0
M  V30 47668 O 4418.2 3.30277 2.46963 0
M  V30 47669 H 4417.54 0.640287 0.175865 0
M  V30 47670 H 4420.07 2.0442 -0.0857942 0
M  V30 47671 H 4420.08 3.70337 1.71215 0
M  V30 47672 H 4418.76 4.11038 0.634074 0
M  V30 47673 H 4417.33 3.05848 2.13333 0
M  V30 47674 N 4419.52 -0.247971 1.55637 0
M  V30 47675 C 4420.45 -1.32986 1.86674 0
M  V30 47676 C 4421.46 -1.44343 0.752928 0
M  V30 47677 O 4422.65 -1.45712 1.03103 0
M  V30 47678 C 4419.75 -2.70856 2.03691 0
M  V30 47679 C 4418.93 -2.8178 3.34542 0
M  V30 47680 C 4417.98 -4.00488 3.41315 0
M  V30 47681 O 4417.01 -3.90066 4.14533 0
M  V30 47682 N 4418.21 -5.13609 2.7053 0
M  V30 47683 H 4420.98 -1.06697 2.80064 0
M  V30 47684 H 4418.54 -0.438074 1.55861 0
M  V30 47685 H 4420.53 -3.48604 2.05565 0
M  V30 47686 H 4419.1 -2.89858 1.17051 0
M  V30 47687 H 4418.32 -1.90716 3.44994 0
M  V30 47688 H 4419.61 -2.86028 4.20791 0
M  V30 47689 H 4419.01 -5.24968 2.10774 0
M  V30 47690 H 4417.56 -5.89496 2.78098 0
M  V30 47691 N 4421 -1.48997 -0.513587 0
M  V30 47692 C 4422.24 -1.58081 -1.27036 0
M  V30 47693 C 4422.58 -0.261093 -1.92437 0
M  V30 47694 O 4421.85 0.734329 -1.80105 0
M  V30 47695 C 4422.13 -2.731 -2.3471 0
M  V30 47696 C 4421.99 -4.14827 -1.73893 0
M  V30 47697 C 4423.31 -2.83808 -3.36365 0
M  V30 47698 H 4420.43 -0.575408 -0.460516 0
M  V30 47699 H 4423.07 -1.81234 -0.570453 0
M  V30 47700 H 4421.22 -2.53489 -2.94407 0
M  V30 47701 H 4422.89 -4.45921 -1.1812 0
M  V30 47702 H 4421.13 -4.21061 -1.04355 0
M  V30 47703 H 4421.8 -4.91156 -2.51932 0
M  V30 47704 H 4424.28 -3.01621 -2.86643 0
M  V30 47705 H 4423.16 -3.65985 -4.0908 0
M  V30 47706 H 4423.42 -1.92638 -3.97923 0
M  V30 47707 N 4422.48 0.763702 -1.3786 0
M  V30 47708 C 4423.75 1.5124 -1.2404 0
M  V30 47709 C 4424.13 2.10473 0.162575 0
M  V30 47710 O 4423.48 1.9621 1.17105 0
M  V30 47711 C 4423.69 2.58686 -2.3427 0
M  V30 47712 C 4425.04 3.25868 -2.72204 0
M  V30 47713 O 4426.06 2.68985 -2.33507 0
M  V30 47714 O 4424.92 4.28728 -3.38902 0
M  V30 47715 H 4422.02 0.670226 -0.484486 0
M  V30 47716 H 4424.56 0.799979 -1.49661 0
M  V30 47717 H 4423.33 2.13093 -3.28187 0
M  V30 47718 H 4422.96 3.3752 -2.10158 0
M  V30 47719 N 4423.95 1.22562 0.990769 0
M  V30 47720 C 4425.18 1.07868 1.77142 0
M  V30 47721 C 4425.6 -0.366382 1.84497 0
M  V30 47722 O 4424.96 -1.26474 1.299 0
M  V30 47723 C 4425.01 1.69697 3.18175 0
M  V30 47724 O 4424.11 0.952087 4.01259 0
M  V30 47725 H 4423.45 0.378731 0.545398 0
M  V30 47726 H 4425.98 1.62403 1.24444 0
M  V30 47727 H 4425.99 1.74509 3.68796 0
M  V30 47728 H 4424.67 2.74852 3.12136 0
M  V30 47729 H 4423.25 0.980138 3.59788 0
M  V30 47730 N 4425.43 -1.18793 1.03566 0
M  V30 47731 C 4426.36 -2.21729 0.580415 0
M  V30 47732 C 4427.38 -1.59053 -0.347293 0
M  V30 47733 O 4428.57 -1.77929 -0.142607 0
M  V30 47734 C 4425.67 -3.3846 -0.172687 0
M  V30 47735 C 4424.84 -4.30718 0.761648 0
M  V30 47736 C 4423.9 -5.26174 0.0527397 0
M  V30 47737 O 4422.92 -5.65105 0.681531 0
M  V30 47738 N 4424.13 -5.67628 -1.21566 0
M  V30 47739 H 4426.89 -2.61412 1.46574 0
M  V30 47740 H 4424.45 -1.33528 0.915523 0
M  V30 47741 H 4426.44 -3.99337 -0.656652 0
M  V30 47742 H 4425.01 -2.9751 -0.959497 0
M  V30 47743 H 4424.23 -3.6752 1.42557 0
M  V30 47744 H 4425.52 -4.89262 1.39643 0
M  V30 47745 H 4424.92 -5.38045 -1.74713 0
M  V30 47746 H 4423.48 -6.30727 -1.64399 0
M  V30 47747 N 4426.91 -0.814437 -1.34925 0
M  V30 47748 C 4427.86 -0.202832 -2.27096 0
M  V30 47749 C 4428.84 0.627938 -1.48141 0
M  V30 47750 O 4430.04 0.483909 -1.70257 0
M  V30 47751 C 4427.16 0.641342 -3.37256 0
M  V30 47752 C 4426.25 -0.199589 -4.2363 0
M  V30 47753 N 4426.64 -1.26645 -4.89688 0
M  V30 47754 C 4424.94 0.0174865 -4.45997 0
M  V30 47755 C 4425.64 -1.7805 -5.53781 0
M  V30 47756 N 4424.62 -1.08572 -5.32647 0
M  V30 47757 H 4428.42 -1.01903 -2.75668 0
M  V30 47758 H 4425.93 -0.656384 -1.48544 0
M  V30 47759 H 4427.93 1.0956 -4.02246 0
M  V30 47760 H 4426.59 1.4558 -2.90235 0
M  V30 47761 H 4427.6 -1.64918 -4.9094 0
M  V30 47762 H 4424.28 0.800457 -4.09755 0
M  V30 47763 H 4425.67 -2.67258 -6.1646 0
M  V30 47764 N 4428.39 1.46984 -0.568636 0
M  V30 47765 C 4429.63 2.02741 -0.0489422 0
M  V30 47766 C 4429.97 1.44081 1.30208 0
M  V30 47767 O 4429.24 0.600617 1.84994 0
M  V30 47768 C 4429.52 3.60086 0.0319204 0
M  V30 47769 C 4429.38 4.29157 -1.34701 0
M  V30 47770 C 4430.7 4.3384 0.739645 0
M  V30 47771 H 4427.82 0.736748 -0.0192597 0
M  V30 47772 H 4430.46 1.75286 -0.733127 0
M  V30 47773 H 4428.61 3.83608 0.614595 0
M  V30 47774 H 4430.28 4.16941 -1.97377 0
M  V30 47775 H 4428.52 3.89066 -1.9186 0
M  V30 47776 H 4429.19 5.37822 -1.24304 0
M  V30 47777 H 4431.67 4.15379 0.244793 0
M  V30 47778 H 4430.55 5.4354 0.765215 0
M  V30 47779 H 4430.81 4.03881 1.79812 0
M  V30 47780 N 4429.87 0.305673 1.54607 0
M  V30 47781 C 4431.11 -0.301631 1.99836 0
M  V30 47782 C 4431.43 -1.5405 1.19556 0
M  V30 47783 O 4430.7 -1.93701 0.292726 0
M  V30 47784 H 4429.28 -0.114442 0.738182 0
M  V30 47785 H 4431.95 0.418083 1.90363 0
M  V30 47786 H 4431.04 -0.57044 3.06843 0
M  V30 47787 N 4431.34 -1.57564 0.0334847 0
M  V30 47788 C 4432.29 -2.06982 -0.956165 0
M  V30 47789 C 4433.28 -0.971238 -1.2828 0
M  V30 47790 O 4434.47 -1.23475 -1.26818 0
M  V30 47791 C 4431.6 -2.60401 -2.2371 0
M  V30 47792 C 4430.68 -3.77197 -1.93864 0
M  V30 47793 N 4431.08 -4.87643 -1.34304 0
M  V30 47794 C 4429.37 -3.85766 -2.23831 0
M  V30 47795 C 4430.07 -5.68829 -1.21689 0
M  V30 47796 N 4429.05 -5.15876 -1.71386 0
M  V30 47797 H 4432.85 -2.89774 -0.490713 0
M  V30 47798 H 4430.37 -1.61493 -0.171421 0
M  V30 47799 H 4432.36 -2.94098 -2.95486 0
M  V30 47800 H 4431.02 -1.7904 -2.70878 0
M  V30 47801 H 4432.03 -5.07807 -1.01749 0
M  V30 47802 H 4428.71 -3.15319 -2.73642 0
M  V30 47803 H 4430.1 -6.67634 -0.755975 0
M  V30 47804 N 4432.82 0.239714 -1.55766 0
M  V30 47805 C 4434.05 0.988309 -1.82338 0
M  V30 47806 C 4434.47 1.77883 -0.611484 0
M  V30 47807 O 4433.83 1.7589 0.439577 0
M  V30 47808 C 4433.88 1.89616 -3.06722 0
M  V30 47809 O 4432.98 2.98894 -2.84141 0
M  V30 47810 H 4432.32 0.280837 -0.601686 0
M  V30 47811 H 4434.85 0.258526 -2.0296 0
M  V30 47812 H 4434.86 2.30945 -3.36346 0
M  V30 47813 H 4433.54 1.31497 -3.94565 0
M  V30 47814 H 4432.11 2.61641 -2.65703 0
M  V30 47815 N 4434.3 1.49267 0.505678 0
M  V30 47816 C 4435.55 1.58752 1.26196 0
M  V30 47817 C 4435.88 0.271295 1.92296 0
M  V30 47818 O 4435.15 -0.724768 1.80492 0
M  V30 47819 C 4435.44 2.74341 2.33258 0
M  V30 47820 C 4435.29 4.15743 1.7169 0
M  V30 47821 C 4436.61 2.85587 3.34855 0
M  V30 47822 H 4433.73 0.577842 0.457458 0
M  V30 47823 H 4436.37 1.81534 0.560833 0
M  V30 47824 H 4434.52 2.55047 2.93059 0
M  V30 47825 H 4436.19 4.46541 1.15753 0
M  V30 47826 H 4434.43 4.21609 1.0212 0
M  V30 47827 H 4435.11 4.92485 2.49323 0
M  V30 47828 H 4437.58 3.03137 2.85039 0
M  V30 47829 H 4436.46 3.68149 4.07133 0
M  V30 47830 H 4436.72 1.94746 3.96896 0
M  V30 47831 N 4435.78 -0.756381 1.38263 0
M  V30 47832 C 4436.71 -1.88369 1.37983 0
M  V30 47833 C 4437.69 -1.6831 0.246141 0
M  V30 47834 O 4438.87 -1.88943 0.448806 0
M  V30 47835 C 4436 -3.2586 1.20136 0
M  V30 47836 C 4434.96 -3.60515 2.30679 0
M  V30 47837 C 4434.28 -4.96713 1.97941 0
M  V30 47838 C 4435.58 -3.65679 3.72929 0
M  V30 47839 H 4437.28 -1.88861 2.32318 0
M  V30 47840 H 4434.82 -0.907233 1.11827 0
M  V30 47841 H 4436.78 -4.04376 1.18566 0
M  V30 47842 H 4435.5 -3.2584 0.222613 0
M  V30 47843 H 4434.16 -2.84316 2.3143 0
M  V30 47844 H 4433.81 -4.9325 0.985566 0
M  V30 47845 H 4433.51 -5.20869 2.71974 0
M  V30 47846 H 4435.03 -5.77611 1.97984 0
M  V30 47847 H 4436.45 -4.34315 3.74224 0
M  V30 47848 H 4434.84 -4.01342 4.46144 0
M  V30 47849 H 4435.91 -2.65973 4.05446 0
M  V30 47850 N 4437.26 -1.23086 -0.984255 0
M  V30 47851 C 4438.48 -1.0872 -1.76033 0
M  V30 47852 C 4438.9 0.361626 -1.85304 0
M  V30 47853 O 4438.26 1.25029 -1.32943 0
M  V30 47854 C 4438.31 -1.70217 -3.18917 0
M  V30 47855 O 4438.03 -3.09434 -3.10133 0
M  V30 47856 C 4439.53 -1.61242 -4.12936 0
M  V30 47857 H 4436.75 -0.380684 -0.552558 0
M  V30 47858 H 4439.29 -1.62858 -1.23684 0
M  V30 47859 H 4437.45 -1.20122 -3.68306 0
M  V30 47860 H 4437.86 -3.39202 -4.00053 0
M  V30 47861 H 4439.34 -2.0898 -5.10912 0
M  V30 47862 H 4439.81 -0.570528 -4.35479 0
M  V30 47863 H 4440.42 -2.10684 -3.69449 0
M  V30 47864 N 4438.73 1.18243 -1.04194 0
M  V30 47865 C 4439.7 2.20126 -0.638529 0
M  V30 47866 C 4440.7 1.57886 0.304749 0
M  V30 47867 O 4441.89 1.73967 0.0899757 0
M  V30 47868 C 4439.02 3.40841 0.0636553 0
M  V30 47869 H 4440.21 2.57331 -1.54016 0
M  V30 47870 H 4437.77 1.32149 -0.834644 0
M  V30 47871 H 4438.5 3.09169 0.979027 0
M  V30 47872 H 4438.29 3.87257 -0.614334 0
M  V30 47873 H 4439.78 4.16275 0.332366 0
M  V30 47874 N 4440.21 0.821581 1.34491 0
M  V30 47875 C 4441.16 0.240478 2.29544 0
M  V30 47876 C 4442.13 -0.633977 1.53525 0
M  V30 47877 O 4443.31 -0.575902 1.81901 0
M  V30 47878 C 4440.45 -0.592749 3.39971 0
M  V30 47879 C 4439.57 0.303801 4.3093 0
M  V30 47880 C 4438.7 -0.538864 5.2846 0
M  V30 47881 C 4437.74 0.357156 6.11057 0
M  V30 47882 N 4436.88 -0.446357 7.0068 0
M  V30 47883 H 4441.72 1.05642 2.78646 0
M  V30 47884 H 4439.26 0.532461 1.37125 0
M  V30 47885 H 4441.21 -1.09115 4.02678 0
M  V30 47886 H 4439.84 -1.37382 2.92106 0
M  V30 47887 H 4438.9 0.920405 3.69097 0
M  V30 47888 H 4440.21 0.992832 4.88819 0
M  V30 47889 H 4439.36 -1.10179 5.96612 0
M  V30 47890 H 4438.1 -1.2614 4.71105 0
M  V30 47891 H 4437.11 0.932237 5.41839 0
M  V30 47892 H 4438.33 1.07779 6.70493 0
M  V30 47893 H 4436.28 -1.1526 6.45795 0
M  V30 47894 H 4436.19 0.184314 7.55775 0
M  V30 47895 H 4437.46 -0.99208 7.73161 0
M  V30 47896 N 4441.69 -1.4668 0.576422 0
M  V30 47897 C 4442.94 -2.02012 0.0594873 0
M  V30 47898 C 4443.26 -1.45106 -1.30266 0
M  V30 47899 O 4442.53 -0.633383 -1.85378 0
M  V30 47900 H 4441.11 -0.746758 0.0190008 0
M  V30 47901 H 4443.77 -1.79859 0.750781 0
M  V30 47902 H 4442.87 -3.12097 -0.0142353 0
M  V30 47903 N 4443.17 -0.313868 -1.54443 0
M  V30 47904 C 4444.1 0.598789 -2.20204 0
M  V30 47905 C 4445.08 1.12313 -1.17577 0
M  V30 47906 O 4446.26 1.18894 -1.46275 0
M  V30 47907 C 4443.39 1.82061 -2.85607 0
M  V30 47908 C 4442.44 1.42837 -4.0187 0
M  V30 47909 S 4443.27 0.473325 -5.33404 0
M  V30 47910 C 4444.43 1.70265 -6.02296 0
M  V30 47911 H 4444.66 0.0401486 -2.97273 0
M  V30 47912 H 4442.19 -0.0979707 -1.54089 0
M  V30 47913 H 4444.15 2.52172 -3.23913 0
M  V30 47914 H 4442.81 2.35043 -2.08359 0
M  V30 47915 H 4442 2.33856 -4.46461 0
M  V30 47916 H 4441.61 0.807069 -3.65188 0
M  V30 47917 H 4443.9 2.64146 -6.23886 0
M  V30 47918 H 4444.84 1.29908 -6.96082 0
M  V30 47919 H 4445.25 1.88522 -5.3209 0
M  V30 47920 N 4444.65 1.57544 -0.0418402 0
M  V30 47921 C 4445.61 2.09888 0.920856 0
M  V30 47922 C 4446.61 1.01653 1.24593 0
M  V30 47923 O 4447.8 1.27763 1.18416 0
M  V30 47924 C 4444.93 2.57535 2.23358 0
M  V30 47925 H 4446.12 2.96237 0.467277 0
M  V30 47926 H 4443.68 1.54931 0.206412 0
M  V30 47927 H 4444.41 1.74551 2.73317 0
M  V30 47928 H 4444.2 3.3662 2.01071 0
M  V30 47929 H 4445.69 2.98211 2.92335 0
M  V30 47930 N 4446.12 -0.23145 1.55891 0
M  V30 47931 C 4447.05 -1.29015 1.94621 0
M  V30 47932 C 4448.04 -1.49407 0.81312 0
M  V30 47933 O 4449.22 -1.61756 1.07464 0
M  V30 47934 C 4446.35 -2.64191 2.25433 0
M  V30 47935 C 4445.3 -2.58472 3.4114 0
M  V30 47936 C 4444.63 -3.97586 3.57532 0
M  V30 47937 C 4445.93 -2.14114 4.76396 0
M  V30 47938 H 4447.62 -0.968463 2.83304 0
M  V30 47939 H 4445.17 -0.464431 1.36305 0
M  V30 47940 H 4447.12 -3.38404 2.51118 0
M  V30 47941 H 4445.85 -2.98028 1.33593 0
M  V30 47942 H 4444.51 -1.86716 3.15488 0
M  V30 47943 H 4444.15 -4.28714 2.63085 0
M  V30 47944 H 4443.85 -3.94643 4.35351 0
M  V30 47945 H 4445.38 -4.73476 3.85555 0
M  V30 47946 H 4446.79 -2.78065 5.01351 0
M  V30 47947 H 4445.19 -2.22251 5.57427 0
M  V30 47948 H 4446.26 -1.09315 4.72418 0
M  V30 47949 N 4447.6 -1.49533 -0.497755 0
M  V30 47950 C 4448.85 -1.59184 -1.25167 0
M  V30 47951 C 4449.18 -0.279999 -1.92474 0
M  V30 47952 O 4448.43 0.73232 -1.81482 0
M  V30 47953 C 4448.73 -2.7026 -2.33868 0
M  V30 47954 C 4448.4 -4.1165 -1.83997 0
M  V30 47955 C 4447.06 -4.50127 -1.70116 0
M  V30 47956 C 4449.41 -5.00126 -1.46707 0
M  V30 47957 C 4446.74 -5.74849 -1.17327 0
M  V30 47958 C 4449.09 -6.2537 -0.9537 0
M  V30 47959 C 4447.76 -6.62673 -0.801305 0
M  V30 47960 H 4447.03 -0.582494 -0.458019 0
M  V30 47961 H 4449.67 -1.83375 -0.551883 0
M  V30 47962 H 4447.98 -2.40052 -3.09649 0
M  V30 47963 H 4449.67 -2.74935 -2.9191 0
M  V30 47964 H 4446.26 -3.81281 -1.95762 0
M  V30 47965 H 4450.45 -4.71053 -1.56278 0
M  V30 47966 H 4445.7 -6.02448 -1.04243 0
M  V30 47967 H 4449.88 -6.93304 -0.655981 0
M  V30 47968 H 4447.51 -7.59199 -0.390084 0
M  V30 47969 N 4449.08 0.749038 -1.38662 0
M  V30 47970 C 4450.33 1.5053 -1.34852 0
M  V30 47971 C 4450.65 1.94909 0.059433 0
M  V30 47972 O 4449.92 1.67976 1.008 0
M  V30 47973 H 4448.5 0.558377 -0.49621 0
M  V30 47974 H 4451.16 0.890104 -1.73387 0
M  V30 47975 H 4450.26 2.39406 -2.00228 0
M  V30 47976 N 4450.56 1.23606 0.977714 0
M  V30 47977 C 4451.47 1.0364 2.10466 0
M  V30 47978 C 4452.49 -0.0198823 1.73989 0
M  V30 47979 O 4453.66 0.176147 2.00628 0
M  V30 47980 C 4450.73 0.632879 3.40875 0
M  V30 47981 C 4449.79 1.76451 3.91361 0
M  V30 47982 C 4449.02 1.38015 5.15546 0
M  V30 47983 O 4449.24 0.265557 5.69781 0
M  V30 47984 O 4448.18 2.2022 5.60167 0
M  V30 47985 H 4452 1.98094 2.30201 0
M  V30 47986 H 4449.59 1.02336 1.08847 0
M  V30 47987 H 4451.47 0.418908 4.19313 0
M  V30 47988 H 4450.15 -0.28264 3.22464 0
M  V30 47989 H 4449.05 2.03315 3.14029 0
M  V30 47990 H 4450.39 2.65844 4.14231 0
M  V30 47991 N 4452.04 -1.17688 1.0482 0
M  V30 47992 C 4453.29 -1.87485 0.754563 0
M  V30 47993 C 4453.61 -1.81207 -0.720343 0
M  V30 47994 O 4452.88 -1.2355 -1.52027 0
M  V30 47995 H 4451.46 -0.694092 0.276127 0
M  V30 47996 H 4454.12 -1.42788 1.32656 0
M  V30 47997 H 4453.21 -2.93325 1.06616 0
M  V30 47998 N 4453.52 -0.828702 -1.34053 0
M  V30 47999 C 4454.46 -0.252647 -2.29413 0
M  V30 48000 C 4455.43 0.625826 -1.53859 0
M  V30 48001 O 4456.62 0.566248 -1.82204 0
M  V30 48002 C 4453.76 0.574711 -3.40281 0
M  V30 48003 C 4452.87 -0.326651 -4.30763 0
M  V30 48004 C 4452.01 0.51083 -5.28738 0
M  V30 48005 C 4451.04 -0.389557 -6.10859 0
M  V30 48006 N 4450.18 0.409192 -7.00907 0
M  V30 48007 H 4455.02 -1.07118 -2.78082 0
M  V30 48008 H 4452.56 -0.539725 -1.36841 0
M  V30 48009 H 4454.52 1.06977 -4.03251 0
M  V30 48010 H 4453.15 1.3583 -2.92831 0
M  V30 48011 H 4452.2 -0.939966 -3.68604 0
M  V30 48012 H 4453.51 -1.01874 -4.88286 0
M  V30 48013 H 4452.66 1.07014 -5.97188 0
M  V30 48014 H 4451.4 1.2364 -4.71767 0
M  V30 48015 H 4450.41 -0.960959 -5.41337 0
M  V30 48016 H 4451.63 -1.11333 -6.69912 0
M  V30 48017 H 4449.58 1.11833 -6.46397 0
M  V30 48018 H 4449.5 -0.224392 -7.55667 0
M  V30 48019 H 4450.76 0.951064 -7.73676 0
M  V30 48020 N 4454.99 1.46373 -0.584193 0
M  V30 48021 C 4455.96 2.28784 0.138028 0
M  V30 48022 C 4456.96 1.38474 0.817413 0
M  V30 48023 O 4458.15 1.60836 0.669142 0
M  V30 48024 C 4455.28 3.18896 1.20492 0
M  V30 48025 H 4456.47 2.94115 -0.586231 0
M  V30 48026 H 4454.02 1.52507 -0.342225 0
M  V30 48027 H 4454.76 2.58316 1.9607 0
M  V30 48028 H 4454.54 3.85391 0.722248 0
M  V30 48029 H 4456.03 3.8092 1.71141 0
M  V30 48030 N 4456.47 0.322054 1.54274 0
M  V30 48031 C 4457.38 -0.553551 2.27976 0
M  V30 48032 C 4458.4 -1.13049 1.32272 0
M  V30 48033 O 4459.57 -1.15078 1.65284 0
M  V30 48034 C 4456.64 -1.69917 3.02207 0
M  V30 48035 C 4455.7 -1.15418 4.13494 0
M  V30 48036 C 4454.93 -2.2452 4.84176 0
M  V30 48037 O 4455.16 -3.44836 4.54362 0
M  V30 48038 O 4454.09 -1.90024 5.71117 0
M  V30 48039 H 4457.92 0.0449412 3.03667 0
M  V30 48040 H 4455.5 0.0877943 1.49142 0
M  V30 48041 H 4457.38 -2.36618 3.48698 0
M  V30 48042 H 4456.06 -2.28387 2.29393 0
M  V30 48043 H 4454.96 -0.452306 3.71356 0
M  V30 48044 H 4456.3 -0.614633 4.88347 0
M  V30 48045 N 4457.95 -1.5752 0.0501946 0
M  V30 48046 C 4459.2 -1.92652 -0.623806 0
M  V30 48047 C 4459.52 -0.928471 -1.70908 0
M  V30 48048 O 4458.78 0.0593837 -1.9561 0
M  V30 48049 C 4459.08 -3.34471 -1.25951 0
M  V30 48050 C 4458.74 -4.49884 -0.30253 0
M  V30 48051 C 4457.41 -4.81184 -0.0391944 0
M  V30 48052 C 4459.76 -5.20001 0.353388 0
M  V30 48053 C 4457.09 -5.79948 0.887512 0
M  V30 48054 C 4459.44 -6.19756 1.26828 0
M  V30 48055 C 4458.1 -6.49485 1.5403 0
M  V30 48056 H 4457.37 -0.704965 -0.228267 0
M  V30 48057 H 4460.02 -1.91146 0.116465 0
M  V30 48058 H 4458.32 -3.3234 -2.07503 0
M  V30 48059 H 4460.02 -3.58934 -1.78794 0
M  V30 48060 H 4456.61 -4.25459 -0.517959 0
M  V30 48061 H 4460.8 -4.96032 0.163029 0
M  V30 48062 H 4456.05 -6.01318 1.10574 0
M  V30 48063 H 4460.23 -6.73199 1.7826 0
M  V30 48064 H 4457.85 -7.25829 2.26001 0
M  V30 48065 N 4459.43 0.223179 -1.56012 0
M  V30 48066 C 4460.66 0.964748 -1.83031 0
M  V30 48067 C 4461.07 1.7801 -0.629103 0
M  V30 48068 O 4460.43 1.7801 0.402351 0
M  V30 48069 C 4460.48 1.88362 -3.08548 0
M  V30 48070 O 4460.2 1.10122 -4.24034 0
M  V30 48071 C 4461.7 2.73922 -3.48542 0
M  V30 48072 H 4458.92 0.28282 -0.608485 0
M  V30 48073 H 4461.46 0.2389 -2.031 0
M  V30 48074 H 4459.62 2.56344 -2.90459 0
M  V30 48075 H 4460.03 1.72483 -4.95328 0
M  V30 48076 H 4461.51 3.34102 -4.39409 0
M  V30 48077 H 4461.98 3.46234 -2.70219 0
M  V30 48078 H 4462.59 2.11356 -3.69065 0
M  V30 48079 N 4460.91 1.49795 0.489818 0
M  V30 48080 C 4462.15 1.59529 1.24076 0
M  V30 48081 C 4462.47 0.289021 1.92846 0
M  V30 48082 O 4461.74 -0.692371 1.83257 0
M  V30 48083 H 4460.32 0.587812 0.460962 0
M  V30 48084 H 4462.99 1.86479 0.566713 0
M  V30 48085 H 4462.08 2.39703 1.99872 0
M  V30 48086 N 4462.38 -0.741673 1.39057 0
M  V30 48087 C 4463.8 -1.04634 1.20515 0
M  V30 48088 C 4464 -2.01404 0.0620926 0
M  V30 48089 O 4463.06 -2.45549 -0.58837 0
M  V30 48090 C 4464.37 -1.61501 2.53649 0
M  V30 48091 C 4465.92 -1.73614 2.60436 0
M  V30 48092 C 4466.39 -2.33892 3.93775 0
M  V30 48093 N 4467.88 -2.41309 3.95379 0
M  V30 48094 C 4468.62 -2.88871 4.95319 0
M  V30 48095 N 4468.11 -3.36379 6.05657 0
M  V30 48096 N 4469.91 -2.8802 4.82702 0
M  V30 48097 H 4462.06 -0.0997409 2.12166 0
M  V30 48098 H 4464.32 -0.106874 0.941956 0
M  V30 48099 H 4464.03 -0.978621 3.3781 0
M  V30 48100 H 4463.9 -2.60401 2.72894 0
M  V30 48101 H 4466.29 -2.36377 1.76663 0
M  V30 48102 H 4466.37 -0.733858 2.45047 0
M  V30 48103 H 4466.01 -1.71759 4.77976 0
M  V30 48104 H 4465.94 -3.34785 4.06481 0
M  V30 48105 H 4468.43 -2.07723 3.15689 0
M  V30 48106 H 4468.75 -3.71162 6.77834 0
M  V30 48107 H 4467.09 -3.34405 6.0926 0
M  V30 48108 H 4470.28 -2.50223 3.95608 0
M  V30 48109 H 4470.46 -3.24773 5.60738 0
M  V30 48110 N 4463.86 -1.24123 -0.971145 0
M  V30 48111 C 4464.81 -0.997623 -2.05016 0
M  V30 48112 C 4465.8 0.0597182 -1.60789 0
M  V30 48113 O 4466.99 -0.153578 -1.76332 0
M  V30 48114 C 4464.12 -0.600676 -3.38004 0
M  V30 48115 C 4463.2 -1.69391 -3.88803 0
M  V30 48116 N 4463.59 -2.926 -4.12576 0
M  V30 48117 C 4461.89 -1.57063 -4.17429 0
M  V30 48118 C 4462.59 -3.63447 -4.54182 0
M  V30 48119 N 4461.57 -2.90995 -4.59154 0
M  V30 48120 H 4465.37 -1.93323 -2.21367 0
M  V30 48121 H 4462.88 -1.14198 -1.15466 0
M  V30 48122 H 4464.88 -0.407396 -4.14905 0
M  V30 48123 H 4463.54 0.327789 -3.23041 0
M  V30 48124 H 4464.55 -3.28814 -4.00127 0
M  V30 48125 H 4461.23 -0.709942 -4.1142 0
M  V30 48126 H 4462.62 -4.69119 -4.81017 0
M  V30 48127 N 4465.34 1.17131 -1.05443 0
M  V30 48128 C 4466.62 1.83408 -0.679763 0
M  V30 48129 C 4467 1.93683 0.839658 0
M  V30 48130 O 4466.35 1.47331 1.74659 0
M  V30 48131 C 4466.56 3.20913 -1.3717 0
M  V30 48132 C 4467.9 3.9679 -1.51137 0
M  V30 48133 O 4468.93 3.30401 -1.33091 0
M  V30 48134 O 4467.79 5.15772 -1.8067 0
M  V30 48135 H 4464.88 0.791532 -0.239597 0
M  V30 48136 H 4467.43 1.24406 -1.15417 0
M  V30 48137 H 4466.2 3.08419 -2.40818 0
M  V30 48138 H 4465.82 3.87584 -0.88681 0
M  V30 48139 N 4466.82 0.835799 1.33612 0
M  V30 48140 C 4467.78 0.27208 2.27579 0
M  V30 48141 C 4468.78 -0.557434 1.50829 0
M  V30 48142 O 4469.97 -0.37167 1.70189 0
M  V30 48143 C 4467.1 -0.617055 3.35269 0
M  V30 48144 H 4468.3 1.10121 2.7895 0
M  V30 48145 H 4465.85 0.608645 1.43962 0
M  V30 48146 H 4466.58 -1.46874 2.89134 0
M  V30 48147 H 4466.37 -0.0235688 3.92093 0
M  V30 48148 H 4467.86 -1.00485 4.0533 0
M  V30 48149 N 4468.3 -1.46061 0.591947 0
M  V30 48150 C 4469.25 -2.27458 -0.157092 0
M  V30 48151 C 4470.23 -1.36413 -0.853253 0
M  V30 48152 O 4471.42 -1.60519 -0.745824 0
M  V30 48153 C 4468.55 -3.2296 -1.16411 0
M  V30 48154 C 4467.64 -4.21492 -0.469594 0
M  V30 48155 N 4468.03 -5.03517 0.480016 0
M  V30 48156 C 4466.33 -4.40164 -0.719164 0
M  V30 48157 C 4467.03 -5.74901 0.886794 0
M  V30 48158 N 4466 -5.43096 0.233922 0
M  V30 48159 H 4469.81 -2.8827 0.572494 0
M  V30 48160 H 4467.32 -1.57023 0.41443 0
M  V30 48161 H 4469.32 -3.79992 -1.71499 0
M  V30 48162 H 4467.98 -2.63708 -1.89442 0
M  V30 48163 H 4468.99 -5.10777 0.856003 0
M  V30 48164 H 4465.66 -3.92051 -1.43534 0
M  V30 48165 H 4467.05 -6.50838 1.66911 0
M  V30 48166 N 4469.77 -0.330231 -1.54101 0
M  V30 48167 C 4470.7 0.525273 -2.27515 0
M  V30 48168 C 4471.69 1.11379 -1.28564 0
M  V30 48169 O 4472.87 1.13767 -1.57387 0
M  V30 48170 C 4470 1.68299 -3.03797 0
M  V30 48171 C 4468.95 1.22346 -4.10141 0
M  V30 48172 C 4468.28 2.46865 -4.74301 0
M  V30 48173 C 4469.58 0.333514 -5.21234 0
M  V30 48174 H 4471.27 -0.0871182 -2.99273 0
M  V30 48175 H 4468.82 -0.0433399 -1.43935 0
M  V30 48176 H 4470.77 2.28782 -3.53888 0
M  V30 48177 H 4469.5 2.32208 -2.29667 0
M  V30 48178 H 4468.16 0.641523 -3.60943 0
M  V30 48179 H 4467.8 3.09152 -3.9678 0
M  V30 48180 H 4467.5 2.16806 -5.4614 0
M  V30 48181 H 4469.03 3.08098 -5.2717 0
M  V30 48182 H 4470.44 0.844813 -5.67041 0
M  V30 48183 H 4468.84 0.125402 -5.99969 0
M  V30 48184 H 4469.91 -0.633893 -4.80739 0
M  V30 48185 N 4471.25 1.57491 -0.0585476 0
M  V30 48186 C 4472.2 2.13151 0.931093 0
M  V30 48187 C 4473.19 1.06512 1.31726 0
M  V30 48188 O 4474.4 1.2491 1.29605 0
M  V30 48189 H 4470.78 0.681381 0.318156 0
M  V30 48190 H 4472.75 2.95189 0.436603 0
M  V30 48191 C 4471.5 2.6974 2.19399 0
M  V30 48192 H 4470.82 3.51461 1.90565 0
M  V30 48193 H 4472.26 3.12297 2.86787 0
M  V30 48194 C 4470.72 1.63865 2.94363 0
M  V30 48195 O 4471.25 1.05579 3.87577 0
M  V30 48196 N 4469.45 1.35211 2.57228 0
M  V30 48197 H 4469 1.82797 1.81502 0
M  V30 48198 H 4468.96 0.64603 3.07691 0
M  V30 48199 N 4472.73 -0.214903 1.56128 0
M  V30 48200 C 4473.98 -0.936455 1.79095 0
M  V30 48201 C 4474.3 -1.84604 0.628213 0
M  V30 48202 O 4473.57 -1.92665 -0.354552 0
M  V30 48203 H 4472.15 -0.348777 0.660578 0
M  V30 48204 H 4474.81 -0.225162 1.93595 0
M  V30 48205 H 4473.91 -1.53933 2.71498 0
M  V30 48206 N 4474.21 -1.50053 -0.481867 0
M  V30 48207 C 4475.16 -1.68128 -1.58119 0
M  V30 48208 C 4476.13 -0.522601 -1.57665 0
M  V30 48209 O 4477.31 -0.751905 -1.7536 0
M  V30 48210 C 4474.45 -1.77152 -2.96161 0
M  V30 48211 C 4473.56 -3.04451 -3.06486 0
M  V30 48212 C 4472.7 -3.04336 -4.35377 0
M  V30 48213 C 4471.74 -4.26134 -4.39405 0
M  V30 48214 N 4470.87 -4.2382 -5.59751 0
M  V30 48215 H 4475.71 -2.61985 -1.42013 0
M  V30 48216 H 4473.25 -1.29879 -0.690641 0
M  V30 48217 H 4475.21 -1.80365 -3.76197 0
M  V30 48218 H 4473.84 -0.867438 -3.10927 0
M  V30 48219 H 4472.89 -3.1076 -2.19391 0
M  V30 48220 H 4474.2 -3.94436 -3.05322 0
M  V30 48221 H 4473.36 -3.06219 -5.23751 0
M  V30 48222 H 4472.1 -2.12162 -4.39134 0
M  V30 48223 H 4471.1 -4.24475 -3.49429 0
M  V30 48224 H 4472.33 -5.19523 -4.37348 0
M  V30 48225 H 4470.27 -3.34494 -5.64314 0
M  V30 48226 H 4470.19 -5.07562 -5.60283 0
M  V30 48227 H 4471.46 -4.29833 -6.5028 0
M  V30 48228 N 4475.69 0.734288 -1.39449 0
M  V30 48229 C 4476.93 1.49608 -1.36914 0
M  V30 48230 C 4477.27 1.94169 0.0347146 0
M  V30 48231 O 4476.54 1.66837 0.999789 0
M  V30 48232 C 4476.82 2.73526 -2.34212 0
M  V30 48233 C 4476.68 2.34979 -3.83542 0
M  V30 48234 C 4478 3.75627 -2.2933 0
M  V30 48235 H 4475.11 0.542697 -0.498648 0
M  V30 48236 H 4477.76 0.839537 -1.70446 0
M  V30 48237 H 4475.91 3.29545 -2.05748 0
M  V30 48238 H 4477.58 1.84586 -4.2276 0
M  V30 48239 H 4475.82 1.67199 -4.00283 0
M  V30 48240 H 4476.49 3.23722 -4.47111 0
M  V30 48241 H 4478.97 3.29194 -2.54501 0
M  V30 48242 H 4477.84 4.59998 -2.99488 0
M  V30 48243 H 4478.11 4.22599 -1.29857 0
M  V30 48244 N 4477.16 1.24636 0.964549 0
M  V30 48245 C 4478.41 1.08194 1.70226 0
M  V30 48246 C 4478.73 -0.378663 1.919 0
M  V30 48247 O 4479.93 -0.663334 2.63272 0
M  V30 48248 C 4478.39 1.88783 3.06413 0
M  V30 48249 C 4478 3.39274 2.9257 0
M  V30 48250 C 4479.74 1.8088 3.84035 0
M  V30 48251 C 4477.65 4.12195 4.24086 0
M  V30 48252 H 4476.58 0.401268 0.638357 0
M  V30 48253 H 4479.23 1.48745 1.07457 0
M  V30 48254 H 4477.61 1.41048 3.70029 0
M  V30 48255 H 4478.78 3.94611 2.37947 0
M  V30 48256 H 4477.1 3.48162 2.28412 0
M  V30 48257 H 4479.7 2.32663 4.81427 0
M  V30 48258 H 4480.04 0.774687 4.09028 0
M  V30 48259 H 4480.57 2.26312 3.27151 0
M  V30 48260 H 4477.31 5.15979 4.04284 0
M  V30 48261 H 4476.83 3.61643 4.78513 0
M  V30 48262 H 4478.51 4.19366 4.92687 0
M  V30 48263 N 4478.64 -1.1657 1.06062 0
M  V30 48264 C 4479.89 -1.86675 0.774406 0
M  V30 48265 C 4480.21 -1.81961 -0.701083 0
M  V30 48266 O 4479.48 -1.25155 -1.50708 0
M  V30 48267 H 4478.06 -0.691124 0.283473 0
M  V30 48268 H 4480.72 -1.41373 1.34163 0
M  V30 48269 H 4479.82 -2.92177 1.09722 0
M  V30 48270 N 4480.12 -0.842873 -1.33167 0
M  V30 48271 C 4481.35 -0.454126 -2.01855 0
M  V30 48272 C 4481.76 0.945813 -1.63401 0
M  V30 48273 O 4481.12 1.61531 -0.849358 0
M  V30 48274 C 4481.17 -0.56984 -3.5698 0
M  V30 48275 O 4480.89 -1.91462 -3.94048 0
M  V30 48276 C 4482.39 -0.178568 -4.4294 0
M  V30 48277 H 4479.61 -0.179812 -0.646458 0
M  V30 48278 H 4482.16 -1.13656 -1.70008 0
M  V30 48279 H 4480.31 0.0647225 -3.87346 0
M  V30 48280 H 4480.73 -1.90299 -4.8876 0
M  V30 48281 H 4482.2 -0.31057 -5.51126 0
M  V30 48282 H 4482.68 0.879905 -4.30296 0
M  V30 48283 H 4483.28 -0.787726 -4.17941 0
M  V30 48284 N 4481.6 1.45745 -0.599685 0
M  V30 48285 C 4482.53 2.33235 0.111224 0
M  V30 48286 C 4483.51 1.46362 0.866729 0
M  V30 48287 O 4484.7 1.75149 0.838843 0
M  V30 48288 C 4481.83 3.28936 1.11439 0
M  V30 48289 C 4480.78 4.25383 0.472622 0
M  V30 48290 C 4480.11 5.10715 1.58347 0
M  V30 48291 C 4481.41 5.18829 -0.601131 0
M  V30 48292 H 4483.1 2.92925 -0.619293 0
M  V30 48293 H 4480.65 1.40856 -0.299265 0
M  V30 48294 H 4482.6 3.89007 1.62023 0
M  V30 48295 H 4481.32 2.67388 1.8754 0
M  V30 48296 H 4479.98 3.66598 -0.0122761 0
M  V30 48297 H 4479.63 4.45541 2.33457 0
M  V30 48298 H 4479.33 5.76044 1.15961 0
M  V30 48299 H 4480.85 5.73654 2.09173 0
M  V30 48300 H 4482.27 5.73018 -0.179692 0
M  V30 48301 H 4480.66 5.92592 -0.946284 0
M  V30 48302 H 4481.73 4.61735 -1.48084 0
M  V30 48303 N 4483.08 0.338398 1.53924 0
M  V30 48304 C 4484.02 -0.520766 2.24848 0
M  V30 48305 C 4484.99 -1.09972 1.2448 0
M  V30 48306 O 4486.18 -1.1373 1.532 0
M  V30 48307 C 4483.32 -1.6684 3.0209 0
M  V30 48308 C 4482.43 -1.11725 4.17303 0
M  V30 48309 C 4481.57 -2.23176 4.82043 0
M  V30 48310 C 4480.61 -1.65386 5.89333 0
M  V30 48311 N 4479.74 -2.70559 6.47875 0
M  V30 48312 H 4484.58 0.0905929 2.97862 0
M  V30 48313 H 4482.12 0.0564798 1.46992 0
M  V30 48314 H 4484.08 -2.34395 3.4513 0
M  V30 48315 H 4482.71 -2.25082 2.31383 0
M  V30 48316 H 4481.76 -0.332786 3.78942 0
M  V30 48317 H 4483.07 -0.654503 4.94487 0
M  V30 48318 H 4482.23 -2.98607 5.28128 0
M  V30 48319 H 4480.97 -2.72792 4.04272 0
M  V30 48320 H 4479.97 -0.884588 5.42637 0
M  V30 48321 H 4481.2 -1.16628 6.6901 0
M  V30 48322 H 4479.14 -3.1944 5.7297 0
M  V30 48323 H 4479.06 -2.28892 7.20517 0
M  V30 48324 H 4480.33 -3.45775 6.98613 0
M  V30 48325 N 4484.56 -1.57458 0.0668989 0
M  V30 48326 C 4485.5 -2.13642 -0.919776 0
M  V30 48327 C 4486.5 -1.07209 -1.31159 0
M  V30 48328 O 4487.7 -1.25596 -1.28941 0
M  V30 48329 H 4484.08 -0.683059 -0.314538 0
M  V30 48330 H 4486.05 -2.95416 -0.420943 0
M  V30 48331 C 4484.8 -2.70899 -2.17965 0
M  V30 48332 H 4484.12 -3.52467 -1.88699 0
M  V30 48333 H 4485.56 -3.13813 -2.85127 0
M  V30 48334 C 4484.02 -1.65424 -2.9349 0
M  V30 48335 O 4484.55 -1.07633 -3.87012 0
M  V30 48336 N 4482.76 -1.36573 -2.56507 0
M  V30 48337 H 4482.3 -1.83757 -1.8053 0
M  V30 48338 H 4482.26 -0.662338 -3.07344 0
M  V30 48339 N 4486.03 0.20662 -1.5624 0
M  V30 48340 C 4487.26 0.94941 -1.84394 0
M  V30 48341 C 4487.68 1.76546 -0.649078 0
M  V30 48342 O 4487.04 1.76783 0.402169 0
M  V30 48343 C 4487.09 1.83067 -3.10675 0
M  V30 48344 O 4486.19 2.92799 -2.90417 0
M  V30 48345 H 4485.53 0.268011 -0.607508 0
M  V30 48346 H 4488.06 0.215417 -2.03463 0
M  V30 48347 H 4488.07 2.23758 -3.41169 0
M  V30 48348 H 4486.75 1.23098 -3.97265 0
M  V30 48349 H 4485.33 2.55946 -2.71193 0
M  V30 48350 N 4487.51 1.50306 0.473902 0
M  V30 48351 C 4488.44 1.71892 1.58036 0
M  V30 48352 C 4489.42 0.567855 1.60342 0
M  V30 48353 O 4490.61 0.806685 1.76653 0
M  V30 48354 C 4487.74 1.81047 2.96377 0
M  V30 48355 C 4486.69 2.96211 3.08938 0
M  V30 48356 C 4486.02 2.90506 4.48899 0
M  V30 48357 C 4487.32 4.36762 2.86419 0
M  V30 48358 H 4489.01 2.64532 1.40225 0
M  V30 48359 H 4486.56 1.27297 0.673156 0
M  V30 48360 H 4488.51 1.94732 3.73708 0
M  V30 48361 H 4487.23 0.850258 3.15338 0
M  V30 48362 H 4485.89 2.82172 2.3404 0
M  V30 48363 H 4485.54 1.92337 4.64775 0
M  V30 48364 H 4485.24 3.67818 4.5824 0
M  V30 48365 H 4486.77 3.06236 5.28253 0
M  V30 48366 H 4488.18 4.51342 3.53501 0
M  V30 48367 H 4486.58 5.15503 3.07207 0
M  V30 48368 H 4487.65 4.49327 1.823 0
M  V30 48369 N 4488.99 -0.726883 1.39836 0
M  V30 48370 C 4490.24 -1.48659 1.37502 0
M  V30 48371 C 4490.56 -1.94482 -0.0263994 0
M  V30 48372 O 4489.82 -1.67695 -1.0088 0
M  V30 48373 C 4490.12 -2.73487 2.30087 0
M  V30 48374 C 4489.78 -2.46489 3.77563 0
M  V30 48375 C 4488.45 -2.38835 4.17745 0
M  V30 48376 C 4490.8 -2.23587 4.70806 0
M  V30 48377 C 4488.13 -2.06333 5.49221 0
M  V30 48378 C 4490.48 -1.926 6.02568 0
M  V30 48379 C 4489.14 -1.83421 6.41804 0
M  V30 48380 H 4488.41 -0.543983 0.503154 0
M  V30 48381 H 4491.06 -0.833596 1.72405 0
M  V30 48382 H 4489.36 -3.43569 1.88329 0
M  V30 48383 H 4491.06 -3.31541 2.25569 0
M  V30 48384 H 4487.65 -2.53327 3.45721 0
M  V30 48385 H 4491.84 -2.28463 4.40589 0
M  V30 48386 H 4487.09 -1.97755 5.78535 0
M  V30 48387 H 4491.27 -1.73891 6.7434 0
M  V30 48388 H 4488.89 -1.58003 7.43599 0
M  V30 48389 N 4490.47 -1.25146 -0.957926 0
M  V30 48390 C 4491.71 -1.09698 -1.70213 0
M  V30 48391 C 4492.04 0.362587 -1.9109 0
M  V30 48392 O 4491.3 1.28381 -1.47705 0
M  V30 48393 C 4491.6 -1.79283 -3.0918 0
M  V30 48394 C 4491.26 -3.29207 -3.08113 0
M  V30 48395 C 4489.92 -3.70107 -3.0753 0
M  V30 48396 C 4492.28 -4.25006 -3.01695 0
M  V30 48397 C 4489.6 -5.05223 -2.98272 0
M  V30 48398 C 4491.96 -5.60142 -2.93979 0
M  V30 48399 C 4490.62 -6.00375 -2.91729 0
M  V30 48400 H 4489.89 -0.401415 -0.622854 0
M  V30 48401 H 4492.54 -1.55376 -1.11939 0
M  V30 48402 H 4490.84 -1.26027 -3.70978 0
M  V30 48403 H 4492.54 -1.64786 -3.65577 0
M  V30 48404 H 4489.13 -2.96661 -3.09338 0
M  V30 48405 H 4493.31 -3.944 -3.01267 0
M  V30 48406 H 4488.57 -5.3558 -2.94897 0
M  V30 48407 H 4492.74 -6.3407 -2.87973 0
M  V30 48408 H 4490.37 -7.05033 -2.84311 0
M  V30 48409 N 4491.95 1.16006 -1.06679 0
M  V30 48410 C 4493.17 1.91065 -0.806773 0
M  V30 48411 C 4493.6 1.77114 0.633422 0
M  V30 48412 O 4492.95 1.09913 1.44183 0
M  V30 48413 C 4493 3.39651 -1.21118 0
M  V30 48414 O 4492.11 4.10892 -0.352334 0
M  V30 48415 H 4491.45 0.595115 -0.294507 0
M  V30 48416 H 4493.98 1.4695 -1.42362 0
M  V30 48417 H 4493.99 3.9043 -1.18442 0
M  V30 48418 H 4492.66 3.49124 -2.2602 0
M  V30 48419 H 4491.24 3.70283 -0.440998 0
M  V30 48420 N 4493.42 0.849923 1.32718 0
M  V30 48421 C 4494.39 0.296202 2.27278 0
M  V30 48422 C 4495.39 -0.541405 1.51412 0
M  V30 48423 O 4496.58 -0.353598 1.70574 0
M  V30 48424 C 4493.71 -0.581461 3.35905 0
M  V30 48425 H 4494.9 1.13074 2.77767 0
M  V30 48426 H 4492.45 0.62388 1.43309 0
M  V30 48427 H 4493.19 -1.43799 2.90676 0
M  V30 48428 H 4492.97 0.0180192 3.92096 0
M  V30 48429 H 4494.46 -0.961808 4.06373 0
M  V30 48430 N 4494.9 -1.45425 0.607406 0
M  V30 48431 C 4495.83 -2.28711 -0.149671 0
M  V30 48432 C 4496.85 -1.3994 -0.831908 0
M  V30 48433 O 4498.04 -1.64316 -0.697327 0
M  V30 48434 C 4495.14 -3.15677 -1.23293 0
M  V30 48435 C 4494.31 -4.32724 -0.637844 0
M  V30 48436 C 4493.37 -5.00901 -1.61197 0
M  V30 48437 O 4492.39 -5.57701 -1.13835 0
M  V30 48438 N 4493.6 -5.00169 -2.94637 0
M  V30 48439 H 4496.36 -2.94326 0.564986 0
M  V30 48440 H 4493.92 -1.5561 0.446878 0
M  V30 48441 H 4495.91 -3.58151 -1.88441 0
M  V30 48442 H 4494.48 -2.51971 -1.85011 0
M  V30 48443 H 4493.7 -3.93734 0.19171 0
M  V30 48444 H 4494.99 -5.08322 -0.220486 0
M  V30 48445 H 4494.39 -4.55312 -3.35719 0
M  V30 48446 H 4492.95 -5.46507 -3.55209 0
M  V30 48447 N 4496.38 -0.346557 -1.53742 0
M  V30 48448 C 4497.79 0.136713 -1.86199 0
M  V30 48449 C 4498.14 1.49745 -1.26771 0
M  V30 48450 O 4497.27 2.08415 -0.582429 0
M  V30 48451 C 4497.86 0.254848 -3.3784 0
M  V30 48452 C 4496.42 0.682352 -3.70163 0
M  V30 48453 C 4495.57 -0.182078 -2.76702 0
M  V30 48454 H 4498.52 -0.566046 -1.48262 0
M  V30 48455 H 4498.54 1.08182 -3.64797 0
M  V30 48456 H 4498.05 -0.73566 -3.81064 0
M  V30 48457 H 4496.15 1.68178 -3.32486 0
M  V30 48458 H 4496.27 0.470158 -4.76788 0
M  V30 48459 H 4494.63 0.346061 -2.52338 0
M  V30 48460 H 4495.41 -1.16977 -3.22756 0
M  V30 48461 N 4497.86 1.5742 -0.0752483 0
M  V30 48462 C 4499.11 1.9362 0.593078 0
M  V30 48463 C 4499.43 0.955543 1.6941 0
M  V30 48464 O 4498.69 -0.0282563 1.9568 0
M  V30 48465 C 4498.99 3.36433 1.20614 0
M  V30 48466 C 4498.65 4.50308 0.23092 0
M  V30 48467 C 4497.32 4.81185 -0.0373627 0
M  V30 48468 C 4499.67 5.19373 -0.436071 0
M  V30 48469 C 4497 5.78463 -0.979664 0
M  V30 48470 C 4499.35 6.1766 -1.36672 0
M  V30 48471 C 4498.01 6.46953 -1.64343 0
M  V30 48472 H 4497.28 0.708507 0.217023 0
M  V30 48473 H 4499.93 1.90936 -0.14686 0
M  V30 48474 H 4498.23 3.35599 2.02189 0
M  V30 48475 H 4499.93 3.61733 1.73061 0
M  V30 48476 H 4496.52 4.26229 0.450207 0
M  V30 48477 H 4500.7 4.9571 -0.241923 0
M  V30 48478 H 4495.96 5.99483 -1.20127 0
M  V30 48479 H 4500.13 6.70277 -1.88947 0
M  V30 48480 H 4497.76 7.22142 -2.3752 0
M  V30 48481 N 4499.34 -0.198331 1.56347 0
M  V30 48482 C 4500.25 -1.26633 1.97487 0
M  V30 48483 C 4501.26 -1.49986 0.882055 0
M  V30 48484 O 4502.44 -1.62663 1.18754 0
M  V30 48485 C 4499.5 -2.59133 2.30328 0
M  V30 48486 C 4498.56 -2.4388 3.533 0
M  V30 48487 C 4497.8 -3.70061 3.84566 0
M  V30 48488 O 4498.02 -4.7409 3.17167 0
M  V30 48489 O 4496.95 -3.65783 4.78002 0
M  V30 48490 H 4500.78 -0.947203 2.88551 0
M  V30 48491 H 4498.37 -0.403072 1.4386 0
M  V30 48492 H 4500.25 -3.37343 2.52542 0
M  V30 48493 H 4498.92 -2.90679 1.42433 0
M  V30 48494 H 4497.83 -1.63791 3.36338 0
M  V30 48495 H 4499.16 -2.17266 4.41652 0
M  V30 48496 N 4500.81 -1.50555 -0.465925 0
M  V30 48497 C 4502.06 -1.61042 -1.21443 0
M  V30 48498 C 4502.38 -0.318718 -1.92986 0
M  V30 48499 O 4503.58 -0.302564 -2.69809 0
M  V30 48500 C 4502.04 -2.84291 -2.20696 0
M  V30 48501 C 4501.65 -4.20357 -1.54932 0
M  V30 48502 C 4503.39 -3.04125 -2.96156 0
M  V30 48503 C 4501.3 -5.34787 -2.52501 0
M  V30 48504 H 4500.23 -0.599734 -0.456984 0
M  V30 48505 H 4502.88 -1.76992 -0.484362 0
M  V30 48506 H 4501.26 -2.61911 -2.97016 0
M  V30 48507 H 4502.43 -4.53011 -0.843652 0
M  V30 48508 H 4500.75 -4.0617 -0.917332 0
M  V30 48509 H 4503.35 -3.86787 -3.69188 0
M  V30 48510 H 4503.69 -2.16057 -3.55844 0
M  V30 48511 H 4504.22 -3.2671 -2.26948 0
M  V30 48512 H 4500.96 -6.25025 -1.97544 0
M  V30 48513 H 4500.48 -5.06545 -3.21205 0
M  V30 48514 H 4502.16 -5.65572 -3.14225 0
M  V30 48515 N 4502.29 0.719457 -1.4022 0
M  V30 48516 C 4503.52 1.50859 -1.41595 0
M  V30 48517 C 4503.94 1.88794 -0.0145939 0
M  V30 48518 O 4503.29 1.55177 0.960539 0
M  V30 48519 C 4503.34 2.78637 -2.30312 0
M  V30 48520 O 4503.06 2.42308 -3.64991 0
M  V30 48521 C 4504.57 3.7256 -2.40237 0
M  V30 48522 H 4501.79 0.465692 -0.483086 0
M  V30 48523 H 4504.33 0.887785 -1.84224 0
M  V30 48524 H 4502.48 3.37012 -1.91054 0
M  V30 48525 H 4502.9 3.245 -4.12068 0
M  V30 48526 H 4504.37 4.59069 -3.06528 0
M  V30 48527 H 4504.85 4.15398 -1.42623 0
M  V30 48528 H 4505.46 3.20099 -2.8003 0
M  V30 48529 N 4503.77 1.25652 0.951275 0
M  V30 48530 C 4504.73 1.06406 2.03004 0
M  V30 48531 C 4505.73 0.015736 1.60792 0
M  V30 48532 O 4506.92 0.25823 1.72275 0
M  V30 48533 C 4504.06 0.616302 3.35283 0
M  V30 48534 H 4505.25 2.02172 2.2151 0
M  V30 48535 H 4502.8 1.08107 1.12883 0
M  V30 48536 H 4503.54 -0.343804 3.22472 0
M  V30 48537 H 4503.32 1.37314 3.6727 0
M  V30 48538 H 4504.81 0.503178 4.14557 0
M  V30 48539 N 4505.25 -1.15438 1.07293 0
M  V30 48540 C 4506.47 -1.90635 0.816895 0
M  V30 48541 C 4506.9 -1.77447 -0.624021 0
M  V30 48542 O 4506.26 -1.10676 -1.43598 0
M  V30 48543 C 4506.3 -3.39004 1.22918 0
M  V30 48544 O 4505.41 -4.107 0.37412 0
M  V30 48545 H 4504.75 -0.593544 0.297659 0
M  V30 48546 H 4507.28 -1.46193 1.43139 0
M  V30 48547 H 4507.29 -3.89796 1.20511 0
M  V30 48548 H 4505.96 -3.47921 2.27868 0
M  V30 48549 H 4504.54 -3.70044 0.460629 0
M  V30 48550 N 4506.73 -0.85695 -1.32265 0
M  V30 48551 C 4507.95 -0.47551 -2.01362 0
M  V30 48552 C 4508.37 0.928429 -1.64395 0
M  V30 48553 O 4507.73 1.60621 -0.866443 0
M  V30 48554 C 4507.78 -0.607671 -3.56356 0
M  V30 48555 O 4507.5 -1.95631 -3.91995 0
M  V30 48556 C 4509 -0.225537 -4.42726 0
M  V30 48557 H 4506.22 -0.186659 -0.644515 0
M  V30 48558 H 4508.76 -1.15452 -1.68793 0
M  V30 48559 H 4506.92 0.0236357 -3.87393 0
M  V30 48560 H 4507.33 -1.95472 -4.86714 0
M  V30 48561 H 4508.81 -0.369006 -5.50765 0
M  V30 48562 H 4509.28 0.834217 -4.31205 0
M  V30 48563 H 4509.89 -0.83201 -4.17082 0
M  V30 48564 N 4508.2 1.45101 -0.61511 0
M  V30 48565 C 4509.15 2.32332 0.111709 0
M  V30 48566 C 4510.15 1.46412 0.85205 0
M  V30 48567 O 4511.35 1.62852 0.766764 0
M  V30 48568 H 4507.73 0.749995 0.0548809 0
M  V30 48569 H 4509.7 2.91405 -0.642327 0
M  V30 48570 C 4508.45 3.30153 1.09059 0
M  V30 48571 H 4507.77 3.96267 0.530345 0
M  V30 48572 H 4509.21 3.93904 1.56894 0
M  V30 48573 C 4507.67 2.57883 2.16791 0
M  V30 48574 O 4508.2 2.36579 3.24643 0
M  V30 48575 N 4506.41 2.1789 1.92282 0
M  V30 48576 H 4505.95 2.35417 1.04579 0
M  V30 48577 H 4505.91 1.69859 2.64566 0
M  V30 48578 N 4509.68 0.354705 1.53557 0
M  V30 48579 C 4510.63 -0.512115 2.26892 0
M  V30 48580 C 4511.63 -1.09258 1.29456 0
M  V30 48581 O 4512.83 -1.03704 1.47124 0
M  V30 48582 H 4509.21 -0.183853 0.729179 0
M  V30 48583 H 4511.18 0.128307 2.98124 0
M  V30 48584 C 4509.93 -1.64553 3.06297 0
M  V30 48585 H 4509.25 -1.20815 3.81109 0
M  V30 48586 H 4510.69 -2.22699 3.60806 0
M  V30 48587 C 4509.15 -2.5815 2.16472 0
M  V30 48588 O 4509.68 -3.60689 1.76823 0
M  V30 48589 N 4507.88 -2.2709 1.81325 0
M  V30 48590 H 4507.43 -1.43744 2.13765 0
M  V30 48591 H 4507.39 -2.89971 1.21508 0
M  V30 48592 N 4511.16 -1.57378 0.0835957 0
M  V30 48593 C 4512.07 -2.169 -0.893944 0
M  V30 48594 C 4513.09 -1.13533 -1.31857 0
M  V30 48595 O 4514.26 -1.45853 -1.38885 0
M  V30 48596 C 4511.33 -2.72839 -2.13916 0
M  V30 48597 C 4510.39 -3.91121 -1.76983 0
M  V30 48598 C 4509.62 -4.44382 -2.95568 0
M  V30 48599 O 4509.85 -3.9661 -4.09947 0
M  V30 48600 O 4508.78 -5.35559 -2.747 0
M  V30 48601 H 4512.61 -3.00816 -0.417573 0
M  V30 48602 H 4510.19 -1.48741 -0.140128 0
M  V30 48603 H 4512.07 -3.0864 -2.86913 0
M  V30 48604 H 4510.75 -1.91976 -2.60628 0
M  V30 48605 H 4509.65 -3.60152 -1.01201 0
M  V30 48606 H 4510.99 -4.73312 -1.35044 0
M  V30 48607 N 4512.64 0.190037 -1.5645 0
M  V30 48608 C 4513.89 0.907844 -1.80562 0
M  V30 48609 C 4514.21 1.83581 -0.657502 0
M  V30 48610 O 4513.48 1.93205 0.323856 0
M  V30 48611 H 4512.06 0.338223 -0.666044 0
M  V30 48612 H 4514.72 0.194335 -1.93929 0
M  V30 48613 H 4513.82 1.49595 -2.73912 0
M  V30 48614 N 4514.12 1.508 0.457934 0
M  V30 48615 C 4515.07 1.71167 1.57494 0
M  V30 48616 C 4516.06 0.577648 1.59247 0
M  V30 48617 O 4517.27 0.758501 1.63238 0
M  V30 48618 H 4513.64 0.540486 0.522856 0
M  V30 48619 H 4515.61 2.64842 1.37482 0
M  V30 48620 C 4514.36 1.83507 2.95331 0
M  V30 48621 H 4513.68 2.70163 2.94706 0
M  V30 48622 H 4515.12 2.01778 3.7291 0
M  V30 48623 C 4513.58 0.589811 3.31697 0
M  V30 48624 O 4514.11 -0.265022 4.00825 0
M  V30 48625 N 4512.32 0.439946 2.8725 0
M  V30 48626 H 4511.87 1.13663 2.31168 0
M  V30 48627 H 4511.82 -0.39205 3.11946 0
M  V30 48628 N 4515.6 -0.71201 1.40599 0
M  V30 48629 C 4516.53 -1.83884 1.43906 0
M  V30 48630 C 4517.51 -1.67441 0.299563 0
M  V30 48631 O 4518.69 -1.87419 0.50869 0
M  V30 48632 C 4515.82 -3.21873 1.30442 0
M  V30 48633 C 4514.78 -3.52994 2.42032 0
M  V30 48634 C 4514.1 -4.90164 2.13643 0
M  V30 48635 C 4515.4 -3.5363 3.84374 0
M  V30 48636 H 4517.1 -1.81375 2.38209 0
M  V30 48637 H 4514.64 -0.871197 1.14657 0
M  V30 48638 H 4516.59 -4.00399 1.31371 0
M  V30 48639 H 4515.32 -3.24967 0.326164 0
M  V30 48640 H 4513.98 -2.76809 2.40359 0
M  V30 48641 H 4513.63 -4.89865 1.14199 0
M  V30 48642 H 4513.33 -5.11952 2.88407 0
M  V30 48643 H 4514.85 -5.7102 2.1626 0
M  V30 48644 H 4516.26 -4.2219 3.87852 0
M  V30 48645 H 4514.66 -3.86945 4.58687 0
M  V30 48646 H 4515.73 -2.5294 4.13702 0
M  V30 48647 N 4517.07 -1.26155 -0.944598 0
M  V30 48648 C 4518.02 -1.07415 -2.04281 0
M  V30 48649 C 4518.99 0.0197829 -1.66088 0
M  V30 48650 O 4520.18 -0.139331 -1.90291 0
M  V30 48651 C 4517.32 -0.709568 -3.37726 0
M  V30 48652 C 4516.43 -1.8794 -3.88976 0
M  V30 48653 C 4515.56 -1.45825 -5.10792 0
M  V30 48654 C 4514.6 -2.59659 -5.54296 0
M  V30 48655 N 4513.74 -2.18249 -6.67317 0
M  V30 48656 H 4518.58 -2.01397 -2.19643 0
M  V30 48657 H 4516.12 -1.00279 -1.07622 0
M  V30 48658 H 4518.07 -0.479094 -4.1444 0
M  V30 48659 H 4516.7 0.193276 -3.22221 0
M  V30 48660 H 4515.76 -2.2229 -3.08693 0
M  V30 48661 H 4517.07 -2.73392 -4.17203 0
M  V30 48662 H 4516.22 -1.18802 -5.94955 0
M  V30 48663 H 4514.96 -0.574585 -4.84303 0
M  V30 48664 H 4513.97 -2.87415 -4.68692 0
M  V30 48665 H 4515.19 -3.48619 -5.82788 0
M  V30 48666 H 4513.14 -1.32313 -6.42518 0
M  V30 48667 H 4513.05 -2.97245 -6.95112 0
M  V30 48668 H 4514.32 -1.94429 -7.54863 0
M  V30 48669 N 4518.55 1.14868 -1.07903 0
M  V30 48670 C 4519.8 1.86061 -0.806791 0
M  V30 48671 C 4520.13 1.82436 0.665642 0
M  V30 48672 O 4519.41 1.25143 1.48894 0
M  V30 48673 C 4519.69 3.34924 -1.32279 0
M  V30 48674 C 4519.54 3.47151 -2.86018 0
M  V30 48675 C 4520.86 4.29859 -0.943868 0
M  V30 48676 H 4517.98 0.675581 -0.294549 0
M  V30 48677 H 4520.62 1.3492 -1.33778 0
M  V30 48678 H 4518.77 3.78608 -0.871107 0
M  V30 48679 H 4520.44 3.12291 -3.39518 0
M  V30 48680 H 4518.69 2.88528 -3.23935 0
M  V30 48681 H 4519.36 4.51766 -3.17193 0
M  V30 48682 H 4521.83 3.94165 -1.33316 0
M  V30 48683 H 4520.71 5.32489 -1.33217 0
M  V30 48684 H 4520.97 4.41847 0.149641 0
M  V30 48685 N 4520.03 0.863952 1.31809 0
M  V30 48686 C 4521.45 0.555057 1.49637 0
M  V30 48687 C 4521.65 -0.912203 1.79669 0
M  V30 48688 O 4520.7 -1.69473 1.87177 0
M  V30 48689 C 4522.01 1.45008 2.63426 0
M  V30 48690 C 4523.56 1.45148 2.7731 0
M  V30 48691 C 4524.04 2.33193 3.94189 0
M  V30 48692 N 4525.53 2.3104 4.01466 0
M  V30 48693 C 4526.26 2.95888 4.9116 0
M  V30 48694 N 4525.76 3.69883 5.85797 0
M  V30 48695 N 4527.55 2.85228 4.84357 0
M  V30 48696 H 4519.7 1.81343 1.10583 0
M  V30 48697 H 4521.97 0.775069 0.545868 0
M  V30 48698 H 4521.67 2.49386 2.47991 0
M  V30 48699 H 4521.55 1.14422 3.59427 0
M  V30 48700 H 4523.93 0.415304 2.92163 0
M  V30 48701 H 4524.01 1.79754 1.81995 0
M  V30 48702 H 4523.66 3.36883 3.80095 0
M  V30 48703 H 4523.59 1.95914 4.888 0
M  V30 48704 H 4526.08 1.7725 3.33753 0
M  V30 48705 H 4526.39 4.16508 6.50954 0
M  V30 48706 H 4524.74 3.73992 5.85795 0
M  V30 48707 H 4527.93 2.26963 4.09397 0
M  V30 48708 H 4528.1 3.36047 5.54055 0
M  V30 48709 N 4521.51 -1.44772 0.622796 0
M  V30 48710 C 4522.75 -2.0212 0.123971 0
M  V30 48711 C 4523.08 -1.48919 -1.25113 0
M  V30 48712 O 4522.34 -0.66011 -1.84231 0
M  V30 48713 C 4522.64 -3.57364 0.050958 0
M  V30 48714 C 4522.3 -4.29783 1.36373 0
M  V30 48715 C 4520.96 -4.49284 1.7233 0
M  V30 48716 C 4523.32 -4.71054 2.23064 0
M  V30 48717 C 4520.64 -5.07315 2.947 0
M  V30 48718 C 4523 -5.3044 3.44698 0
M  V30 48719 C 4521.66 -5.48161 3.80888 0
M  V30 48720 H 4520.93 -0.73961 0.0453641 0
M  V30 48721 H 4523.58 -1.73645 0.80745 0
M  V30 48722 H 4521.88 -3.85205 -0.715855 0
M  V30 48723 H 4523.58 -3.99457 -0.351392 0
M  V30 48724 H 4520.17 -4.14928 1.0739 0
M  V30 48725 H 4524.35 -4.55708 1.96581 0
M  V30 48726 H 4519.61 -5.19223 3.22827 0
M  V30 48727 H 4523.78 -5.6137 4.12112 0
M  V30 48728 H 4521.41 -5.92895 4.75793 0
M  V30 48729 N 4522.99 -0.362844 -1.53366 0
M  V30 48730 C 4524.4 0.116957 -1.86333 0
M  V30 48731 C 4524.75 1.48392 -1.28352 0
M  V30 48732 O 4523.87 2.07785 -0.604501 0
M  V30 48733 C 4524.47 0.219001 -3.38091 0
M  V30 48734 C 4523.03 0.643053 -3.70866 0
M  V30 48735 C 4522.17 -0.211416 -2.76493 0
M  V30 48736 H 4525.12 -0.581739 -1.47653 0
M  V30 48737 H 4525.15 1.04307 -3.65924 0
M  V30 48738 H 4524.66 -0.776036 -3.80262 0
M  V30 48739 H 4522.76 1.64642 -3.34251 0
M  V30 48740 H 4522.87 0.419562 -4.77259 0
M  V30 48741 H 4521.24 0.319278 -2.52691 0
M  V30 48742 H 4522.02 -1.20394 -3.21497 0
M  V30 48743 N 4524.46 1.57332 -0.0919406 0
M  V30 48744 C 4525.39 2.16875 0.865295 0
M  V30 48745 C 4526.38 1.10123 1.29642 0
M  V30 48746 O 4527.56 1.38247 1.36387 0
M  V30 48747 C 4524.69 2.74656 2.12559 0
M  V30 48748 C 4523.64 3.86753 1.83319 0
M  V30 48749 C 4522.97 4.31223 3.1615 0
M  V30 48750 C 4524.27 5.10093 1.12262 0
M  V30 48751 H 4525.96 2.97115 0.369203 0
M  V30 48752 H 4523.51 1.42919 0.176143 0
M  V30 48753 H 4525.46 3.14962 2.79959 0
M  V30 48754 H 4524.19 1.91666 2.64446 0
M  V30 48755 H 4522.85 3.46982 1.18319 0
M  V30 48756 H 4522.49 3.45128 3.65918 0
M  V30 48757 H 4522.19 5.06799 2.9737 0
M  V30 48758 H 4523.72 4.7416 3.84714 0
M  V30 48759 H 4525.13 5.47588 1.69766 0
M  V30 48760 H 4523.53 5.91077 1.03672 0
M  V30 48761 H 4524.6 4.84787 0.10487 0
M  V30 48762 N 4525.94 -0.181737 1.56549 0
M  V30 48763 C 4527.36 -0.533107 1.50433 0
M  V30 48764 C 4527.56 -1.85181 0.794362 0
M  V30 48765 O 4526.61 -2.50057 0.350405 0
M  V30 48766 C 4527.93 -0.575493 2.95142 0
M  V30 48767 C 4529.48 -0.663412 3.05889 0
M  V30 48768 C 4529.95 -0.736787 4.52035 0
M  V30 48769 N 4531.44 -0.799957 4.5624 0
M  V30 48770 C 4532.18 -0.877128 5.66652 0
M  V30 48771 N 4531.67 -0.915775 6.86721 0
M  V30 48772 N 4533.47 -0.915347 5.54597 0
M  V30 48773 H 4525.62 0.683096 2.01116 0
M  V30 48774 H 4527.88 0.24502 0.915789 0
M  V30 48775 H 4527.59 0.324605 3.50199 0
M  V30 48776 H 4527.46 -1.4256 3.49223 0
M  V30 48777 H 4529.85 -1.55394 2.50872 0
M  V30 48778 H 4529.93 0.21316 2.5491 0
M  V30 48779 H 4529.57 0.14944 5.0768 0
M  V30 48780 H 4529.5 -1.62935 5.00759 0
M  V30 48781 H 4531.99 -0.778796 3.69788 0
M  V30 48782 H 4532.31 -0.975543 7.66618 0
M  V30 48783 H 4530.65 -0.884226 6.89352 0
M  V30 48784 H 4533.84 -0.882084 4.59714 0
M  V30 48785 H 4534.01 -0.972028 6.40668 0
M  V30 48786 N 4527.42 -1.51041 -0.44993 0
M  V30 48787 C 4528.35 -1.74384 -1.55281 0
M  V30 48788 C 4529.33 -0.593292 -1.59418 0
M  V30 48789 O 4530.52 -0.834687 -1.75347 0
M  V30 48790 C 4527.65 -1.85739 -2.93459 0
M  V30 48791 C 4526.6 -3.01089 -3.04187 0
M  V30 48792 C 4525.93 -2.97611 -4.44221 0
M  V30 48793 C 4527.23 -4.41264 -2.79434 0
M  V30 48794 H 4528.92 -2.6673 -1.35999 0
M  V30 48795 H 4526.47 -1.28352 -0.652819 0
M  V30 48796 H 4528.42 -2.00653 -3.70562 0
M  V30 48797 H 4527.14 -0.900318 -3.13946 0
M  V30 48798 H 4525.8 -2.85859 -2.29521 0
M  V30 48799 H 4525.45 -1.99707 -4.61656 0
M  V30 48800 H 4525.15 -3.75062 -4.5233 0
M  V30 48801 H 4526.67 -3.14602 -5.23315 0
M  V30 48802 H 4528.09 -4.56909 -3.46276 0
M  V30 48803 H 4526.49 -5.20326 -2.98967 0
M  V30 48804 H 4527.56 -4.5217 -1.75129 0
M  V30 48805 N 4528.9 0.704544 -1.40975 0
M  V30 48806 C 4530.13 1.49349 -1.43187 0
M  V30 48807 C 4530.54 1.88768 -0.0346172 0
M  V30 48808 O 4529.9 1.56187 0.944027 0
M  V30 48809 C 4529.95 2.76179 -2.33254 0
M  V30 48810 O 4529.67 2.38423 -3.67541 0
M  V30 48811 C 4531.17 3.69991 -2.44175 0
M  V30 48812 H 4528.39 0.460542 -0.487998 0
M  V30 48813 H 4530.94 0.868196 -1.85156 0
M  V30 48814 H 4529.09 3.34967 -1.94618 0
M  V30 48815 H 4529.5 3.20111 -4.15487 0
M  V30 48816 H 4530.98 4.55792 -3.1138 0
M  V30 48817 H 4531.46 4.13862 -1.47021 0
M  V30 48818 H 4532.06 3.17111 -2.83409 0
M  V30 48819 N 4530.38 1.26654 0.937895 0
M  V30 48820 C 4531.62 1.12171 1.68114 0
M  V30 48821 C 4531.95 -0.334915 1.92102 0
M  V30 48822 O 4531.22 -1.23577 1.52005 0
M  V30 48823 H 4529.8 0.412115 0.623033 0
M  V30 48824 H 4532.46 1.59031 1.12673 0
M  V30 48825 H 4531.55 1.64298 2.65354 0
M  V30 48826 N 4531.85 -1.14294 1.08511 0
M  V30 48827 C 4532.8 -2.19412 0.716042 0
M  V30 48828 C 4533.77 -1.634 -0.298268 0
M  V30 48829 O 4534.96 -1.8993 -0.182034 0
M  V30 48830 C 4532.1 -3.44845 0.132655 0
M  V30 48831 C 4531.21 -4.15003 1.19987 0
M  V30 48832 C 4530.34 -5.28022 0.580233 0
M  V30 48833 C 4529.38 -5.90014 1.62941 0
M  V30 48834 N 4528.52 -6.94482 1.03149 0
M  V30 48835 H 4533.36 -2.5033 1.61675 0
M  V30 48836 H 4530.9 -1.22927 0.807925 0
M  V30 48837 H 4532.86 -4.16602 -0.223308 0
M  V30 48838 H 4531.49 -3.14406 -0.731356 0
M  V30 48839 H 4530.54 -3.41623 1.67325 0
M  V30 48840 H 4531.85 -4.57171 1.99489 0
M  V30 48841 H 4531 -6.06455 0.172577 0
M  V30 48842 H 4529.74 -4.87077 -0.246432 0
M  V30 48843 H 4528.75 -5.10284 2.04672 0
M  V30 48844 H 4529.97 -6.33033 2.45857 0
M  V30 48845 H 4527.92 -6.55611 0.225941 0
M  V30 48846 H 4527.84 -7.35142 1.76359 0
M  V30 48847 H 4529.1 -7.76787 0.649731 0
M  V30 48848 N 4533.33 -0.87093 -1.31349 0
M  V30 48849 C 4534.58 -0.478477 -1.95943 0
M  V30 48850 C 4534.89 0.974433 -1.696 0
M  V30 48851 O 4536.1 1.47308 -2.28063 0
M  V30 48852 C 4534.56 -0.804733 -3.50788 0
M  V30 48853 C 4534.16 -2.27447 -3.85969 0
M  V30 48854 C 4535.91 -0.480796 -4.21768 0
M  V30 48855 C 4533.82 -2.54309 -5.3393 0
M  V30 48856 H 4532.75 -0.175201 -0.733363 0
M  V30 48857 H 4535.4 -1.06397 -1.49506 0
M  V30 48858 H 4533.78 -0.148487 -3.95722 0
M  V30 48859 H 4534.95 -2.97386 -3.51992 0
M  V30 48860 H 4533.27 -2.56453 -3.28056 0
M  V30 48861 H 4535.86 -0.658706 -5.30627 0
M  V30 48862 H 4536.21 0.578835 -4.12256 0
M  V30 48863 H 4536.74 -1.09363 -3.82472 0
M  V30 48864 H 4533.48 -3.58958 -5.48479 0
M  V30 48865 H 4533 -1.88965 -5.69256 0
M  V30 48866 H 4534.68 -2.39087 -6.01204 0
M  V30 48867 N 4534.81 1.4444 -0.630465 0
M  V30 48868 C 4536.09 1.9549 -0.0656344 0
M  V30 48869 C 4536.47 1.57245 1.40845 0
M  V30 48870 O 4535.82 0.846191 2.12254 0
M  V30 48871 C 4536.03 3.47811 -0.287813 0
M  V30 48872 C 4537.37 4.24215 -0.180662 0
M  V30 48873 O 4538.4 3.55525 -0.219144 0
M  V30 48874 O 4537.26 5.46434 -0.0850413 0
M  V30 48875 H 4534.35 0.826689 0.0226886 0
M  V30 48876 H 4536.9 1.54494 -0.702122 0
M  V30 48877 H 4535.67 3.68696 -1.31069 0
M  V30 48878 H 4535.29 3.95753 0.382845 0
M  V30 48879 N 4536.29 0.370972 1.53172 0
M  V30 48880 C 4537.54 -0.217031 2.01334 0
M  V30 48881 C 4537.86 -1.48333 1.25808 0
M  V30 48882 O 4537.12 -1.92697 0.341528 0
M  V30 48883 C 4537.42 -0.549572 3.53149 0
M  V30 48884 C 4537.08 0.623029 4.46575 0
M  V30 48885 C 4535.75 0.944761 4.71834 0
M  V30 48886 C 4538.1 1.40837 5.01811 0
M  V30 48887 C 4535.43 2.05371 5.49581 0
M  V30 48888 C 4537.78 2.50778 5.8077 0
M  V30 48889 C 4536.44 2.8348 6.04314 0
M  V30 48890 H 4535.71 -0.0794172 0.736732 0
M  V30 48891 H 4538.36 0.504546 1.84734 0
M  V30 48892 H 4536.66 -1.35224 3.67725 0
M  V30 48893 H 4538.36 -1.01687 3.87893 0
M  V30 48894 H 4534.95 0.36224 4.27066 0
M  V30 48895 H 4539.13 1.17305 4.82238 0
M  V30 48896 H 4534.39 2.311 5.66041 0
M  V30 48897 H 4538.56 3.12044 6.22577 0
M  V30 48898 H 4536.19 3.69531 6.64342 0
M  V30 48899 N 4537.77 -1.57281 0.100283 0
M  V30 48900 C 4538.7 -2.17331 -0.853781 0
M  V30 48901 C 4539.68 -1.10809 -1.29056 0
M  V30 48902 O 4540.86 -1.38968 -1.35652 0
M  V30 48903 C 4537.99 -2.75779 -2.111 0
M  V30 48904 C 4536.95 -3.8772 -1.81266 0
M  V30 48905 C 4536.27 -4.32893 -3.13859 0
M  V30 48906 C 4537.57 -5.10681 -1.09556 0
M  V30 48907 H 4539.27 -2.97307 -0.353441 0
M  V30 48908 H 4536.81 -1.4301 -0.168562 0
M  V30 48909 H 4538.77 -3.16442 -2.78284 0
M  V30 48910 H 4537.49 -1.93066 -2.63426 0
M  V30 48911 H 4536.15 -3.47604 -1.16477 0
M  V30 48912 H 4535.8 -3.47063 -3.64082 0
M  V30 48913 H 4535.5 -5.08368 -2.94678 0
M  V30 48914 H 4537.02 -4.76193 -3.82194 0
M  V30 48915 H 4538.43 -5.4848 -1.6686 0
M  V30 48916 H 4536.83 -5.91619 -1.00536 0
M  V30 48917 H 4537.9 -4.84835 -0.0791595 0
M  V30 48918 N 4539.25 0.173432 -1.56643 0
M  V30 48919 C 4540.19 1.2341 -1.97162 0
M  V30 48920 C 4541.19 1.45943 -0.860064 0
M  V30 48921 O 4542.39 1.46548 -1.04517 0
M  V30 48922 H 4538.77 0.414796 -0.627255 0
M  V30 48923 H 4540.74 0.865481 -2.85573 0
M  V30 48924 C 4539.49 2.56642 -2.34585 0
M  V30 48925 H 4538.81 2.40126 -3.19656 0
M  V30 48926 H 4540.25 3.2955 -2.66782 0
M  V30 48927 C 4538.71 3.15241 -1.18847 0
M  V30 48928 O 4539.24 3.98882 -0.475009 0
M  V30 48929 N 4537.45 2.74299 -0.959593 0
M  V30 48930 H 4536.99 2.06385 -1.54153 0
M  V30 48931 H 4536.95 3.13843 -0.187042 0
M  V30 48932 N 4540.72 1.51278 0.441914 0
M  V30 48933 C 4541.67 1.72828 1.5567 0
M  V30 48934 C 4542.67 0.594506 1.58625 0
M  V30 48935 O 4543.87 0.775772 1.62425 0
M  V30 48936 H 4540.25 0.546002 0.517094 0
M  V30 48937 H 4542.22 2.66285 1.34666 0
M  V30 48938 C 4540.97 1.86629 2.93368 0
M  V30 48939 H 4540.29 2.73274 2.91824 0
M  V30 48940 H 4541.73 2.05722 3.70749 0
M  V30 48941 C 4540.19 0.624958 3.31053 0
M  V30 48942 O 4540.72 -0.222495 4.01083 0
M  V30 48943 N 4538.92 0.470388 2.86768 0
M  V30 48944 H 4538.47 1.16108 2.29949 0
M  V30 48945 H 4538.43 -0.358942 3.12344 0
M  V30 48946 N 4542.2 -0.697058 1.41347 0
M  V30 48947 C 4543.43 -1.48372 1.43768 0
M  V30 48948 C 4543.84 -1.89156 0.0409391 0
M  V30 48949 O 4543.18 -1.57243 -0.949757 0
M  V30 48950 C 4543.24 -2.77802 2.2818 0
M  V30 48951 C 4542.91 -2.59231 3.76362 0
M  V30 48952 C 4543.91 -2.25275 4.68559 0
M  V30 48953 C 4541.59 -2.74918 4.20387 0
M  V30 48954 C 4543.58 -2.07242 6.02768 0
M  V30 48955 C 4541.27 -2.56502 5.54662 0
M  V30 48956 C 4542.27 -2.22714 6.45668 0
M  V30 48957 O 4541.96 -2.04457 7.77465 0
M  V30 48958 H 4541.69 -0.463824 0.491775 0
M  V30 48959 H 4544.24 -0.865869 1.86258 0
M  V30 48960 H 4542.47 -3.41988 1.80502 0
M  V30 48961 H 4544.16 -3.396 2.22321 0
M  V30 48962 H 4544.93 -2.12772 4.35836 0
M  V30 48963 H 4540.81 -3.002 3.49858 0
M  V30 48964 H 4544.35 -1.80793 6.73765 0
M  V30 48965 H 4540.25 -2.68595 5.86964 0
M  V30 48966 H 4541.02 -2.19232 7.88593 0
M  V30 48967 N 4543.68 -1.2715 -0.931165 0
M  V30 48968 C 4544.64 -1.09622 -2.01285 0
M  V30 48969 C 4545.64 -0.0413146 -1.60747 0
M  V30 48970 O 4546.83 -0.285605 -1.71843 0
M  V30 48971 C 4543.96 -0.669564 -3.3426 0
M  V30 48972 H 4545.16 -2.0567 -2.18266 0
M  V30 48973 H 4542.71 -1.09889 -1.11149 0
M  V30 48974 H 4543.45 0.292458 -3.22979 0
M  V30 48975 H 4543.23 -1.4314 -3.65039 0
M  V30 48976 H 4544.72 -0.569066 -4.13704 0
M  V30 48977 N 4545.16 1.13717 -1.09116 0
M  V30 48978 C 4546.09 2.21145 -0.749462 0
M  V30 48979 C 4547.07 1.67921 0.271416 0
M  V30 48980 O 4548.25 1.93693 0.140183 0
M  V30 48981 C 4545.38 3.46904 -0.165781 0
M  V30 48982 C 4544.34 4.13199 -1.11582 0
M  V30 48983 C 4543.66 5.33246 -0.393996 0
M  V30 48984 C 4544.96 4.60903 -2.45694 0
M  V30 48985 H 4546.66 2.49984 -1.64767 0
M  V30 48986 H 4544.2 1.20154 -0.793669 0
M  V30 48987 H 4546.16 4.21314 0.0853178 0
M  V30 48988 H 4544.88 3.17451 0.767602 0
M  V30 48989 H 4543.54 3.40753 -1.35214 0
M  V30 48990 H 4543.19 5.00056 0.543423 0
M  V30 48991 H 4542.89 5.78548 -1.02741 0
M  V30 48992 H 4544.41 6.10413 -0.151122 0
M  V30 48993 H 4545.83 5.26751 -2.26287 0
M  V30 48994 H 4544.22 5.16934 -3.04794 0
M  V30 48995 H 4545.29 3.75592 -3.0669 0
M  V30 48996 N 4546.64 0.877884 1.30885 0
M  V30 48997 C 4547.88 0.492765 1.96413 0
M  V30 48998 C 4548.21 -0.956611 1.69349 0
M  V30 48999 O 4547.47 -1.68989 0.986972 0
M  V30 49000 C 4547.76 0.705871 3.5036 0
M  V30 49001 C 4547.43 2.12924 3.97459 0
M  V30 49002 C 4546.09 2.51849 4.10031 0
M  V30 49003 C 4548.44 3.05717 4.22122 0
M  V30 49004 C 4545.77 3.82791 4.44622 0
M  V30 49005 C 4548.12 4.36182 4.58179 0
M  V30 49006 C 4546.79 4.7501 4.68958 0
M  V30 49007 H 4546.06 0.180315 0.718726 0
M  V30 49008 H 4548.71 1.11238 1.55879 0
M  V30 49009 H 4547.01 0.00316832 3.918 0
M  V30 49010 H 4548.71 0.387597 3.99122 0
M  V30 49011 H 4545.3 1.81707 3.88176 0
M  V30 49012 H 4549.48 2.76867 4.11896 0
M  V30 49013 H 4544.74 4.12625 4.51166 0
M  V30 49014 H 4548.91 5.08128 4.76213 0
M  V30 49015 H 4546.54 5.76513 4.95517 0
M  V30 49016 N 4548.11 -1.44104 0.638116 0
M  V30 49017 C 4549.04 -2.33448 -0.0493466 0
M  V30 49018 C 4550.02 -1.48608 -0.827619 0
M  V30 49019 O 4551.21 -1.77311 -0.79211 0
M  V30 49020 C 4548.34 -3.31775 -1.02679 0
M  V30 49021 C 4547.29 -4.26486 -0.359673 0
M  V30 49022 C 4546.62 -5.14734 -1.44751 0
M  V30 49023 C 4547.92 -5.17053 0.738478 0
M  V30 49024 H 4549.61 -2.9118 0.696739 0
M  V30 49025 H 4547.16 -1.40013 0.336505 0
M  V30 49026 H 4549.11 -3.93166 -1.51652 0
M  V30 49027 H 4547.84 -2.72266 -1.80385 0
M  V30 49028 H 4546.5 -3.66437 0.109469 0
M  V30 49029 H 4546.14 -4.51574 -2.21562 0
M  V30 49030 H 4545.84 -5.78916 -1.00648 0
M  V30 49031 H 4547.37 -5.78998 -1.9389 0
M  V30 49032 H 4548.78 -5.7234 0.331555 0
M  V30 49033 H 4547.18 -5.89875 1.10307 0
M  V30 49034 H 4548.25 -4.57646 1.60274 0
M  V30 49035 N 4549.59 -0.37909 -1.52973 0
M  V30 49036 C 4550.82 0.20928 -2.06341 0
M  V30 49037 C 4551.24 1.40578 -1.24977 0
M  V30 49038 O 4550.6 1.79245 -0.272218 0
M  V30 49039 C 4550.65 0.567661 -3.56104 0
M  V30 49040 O 4549.75 1.66305 -3.77381 0
M  V30 49041 H 4549.09 0.0272686 -0.66344 0
M  V30 49042 H 4551.62 -0.543605 -1.97246 0
M  V30 49043 H 4551.63 0.834862 -3.99367 0
M  V30 49044 H 4550.31 -0.307159 -4.14764 0
M  V30 49045 H 4548.88 1.39036 -3.46011 0
M  V30 49046 N 4551.07 1.57225 -0.108623 0
M  V30 49047 C 4552.48 1.81951 0.4184 0
M  V30 49048 C 4552.83 1.02513 1.67288 0
M  V30 49049 O 4551.96 0.258572 2.1485 0
M  V30 49050 C 4552.55 3.3003 0.765863 0
M  V30 49051 C 4551.11 3.55473 1.23757 0
M  V30 49052 C 4550.26 2.76251 0.241009 0
M  V30 49053 H 4553.21 1.55148 -0.333895 0
M  V30 49054 H 4553.23 3.44092 1.62422 0
M  V30 49055 H 4552.74 3.8782 -0.147356 0
M  V30 49056 H 4550.84 3.0303 2.16804 0
M  V30 49057 H 4550.96 4.64085 1.19006 0
M  V30 49058 H 4549.32 2.44136 0.725934 0
M  V30 49059 H 4550.1 3.36795 -0.665125 0
M  V30 49060 N 4552.55 -0.165123 1.56733 0
M  V30 49061 C 4553.77 -0.900187 1.86846 0
M  V30 49062 C 4554.2 -1.74763 0.695658 0
M  V30 49063 O 4553.56 -1.77787 -0.355157 0
M  V30 49064 C 4553.6 -1.74766 3.15419 0
M  V30 49065 O 4552.71 -2.84997 2.98078 0
M  V30 49066 H 4552.05 -0.25181 0.6144 0
M  V30 49067 H 4554.58 -0.161397 2.03962 0
M  V30 49068 H 4554.59 -2.14634 3.46981 0
M  V30 49069 H 4553.26 -1.12522 4.00389 0
M  V30 49070 H 4551.84 -2.48666 2.77884 0
M  V30 49071 N 4554.03 -1.5151 -0.433885 0
M  V30 49072 C 4554.99 -1.72479 -1.50943 0
M  V30 49073 C 4555.99 -0.594777 -1.49396 0
M  V30 49074 O 4557.18 -0.862368 -1.51357 0
M  V30 49075 C 4554.31 -1.78442 -2.90468 0
M  V30 49076 H 4555.5 -2.68471 -1.33653 0
M  V30 49077 H 4553.06 -1.41552 -0.662786 0
M  V30 49078 H 4553.79 -0.842755 -3.13158 0
M  V30 49079 H 4553.58 -2.60569 -2.92996 0
M  V30 49080 H 4555.07 -1.96492 -3.68484 0
M  V30 49081 N 4555.5 0.689552 -1.41714 0
M  V30 49082 C 4556.44 1.81495 -1.39972 0
M  V30 49083 C 4557.45 1.59994 -0.300974 0
M  V30 49084 O 4558.64 1.69386 -0.563099 0
M  V30 49085 C 4555.74 3.1836 -1.1619 0
M  V30 49086 C 4554.91 3.66838 -2.38219 0
M  V30 49087 C 4553.97 4.82391 -2.10203 0
M  V30 49088 O 4553 4.93696 -2.8329 0
M  V30 49089 N 4554.2 5.7006 -1.096 0
M  V30 49090 H 4556.96 1.8348 -2.36971 0
M  V30 49091 H 4554.52 0.872101 -1.36404 0
M  V30 49092 H 4556.52 3.93298 -0.953894 0
M  V30 49093 H 4555.09 3.11364 -0.277669 0
M  V30 49094 H 4554.31 2.82742 -2.74683 0
M  V30 49095 H 4555.59 3.95967 -3.19512 0
M  V30 49096 H 4554.99 5.63563 -0.491217 0
M  V30 49097 H 4553.55 6.44871 -0.947883 0
M  V30 49098 N 4556.98 1.27642 0.924409 0
M  V30 49099 C 4557.91 1.06449 2.02981 0
M  V30 49100 C 4558.93 0.0195343 1.62788 0
M  V30 49101 O 4560.12 0.26145 1.76575 0
M  V30 49102 C 4557.22 0.593387 3.33665 0
M  V30 49103 C 4556.39 1.71137 4.02531 0
M  V30 49104 C 4555.45 1.23545 5.11491 0
M  V30 49105 O 4554.47 1.93572 5.35274 0
M  V30 49106 N 4555.68 0.0928718 5.80426 0
M  V30 49107 H 4558.44 2.01641 2.21723 0
M  V30 49108 H 4556 1.19252 1.09501 0
M  V30 49109 H 4557.99 0.258828 4.03871 0
M  V30 49110 H 4556.56 -0.265392 3.11471 0
M  V30 49111 H 4555.78 2.21605 3.26014 0
M  V30 49112 H 4557.07 2.46161 4.45289 0
M  V30 49113 H 4556.47 -0.491542 5.6356 0
M  V30 49114 H 4555.03 -0.182485 6.51544 0
M  V30 49115 N 4558.46 -1.13137 1.09717 0
M  V30 49116 C 4559.42 -2.16829 0.742827 0
M  V30 49117 C 4560.42 -1.5916 -0.229073 0
M  V30 49118 O 4561.61 -1.74199 -0.00687113 0
M  V30 49119 C 4558.75 -3.40756 0.0990366 0
M  V30 49120 H 4559.94 -2.49689 1.66118 0
M  V30 49121 H 4557.49 -1.28016 0.896744 0
M  V30 49122 H 4558.23 -3.13488 -0.830404 0
M  V30 49123 H 4558.01 -3.83885 0.7984 0
M  V30 49124 H 4559.5 -4.17387 -0.133377 0
M  V30 49125 N 4559.94 -0.884812 -1.30418 0
M  V30 49126 C 4561.16 -0.517359 -2.00844 0
M  V30 49127 C 4561.59 0.886721 -1.65888 0
M  V30 49128 O 4560.95 1.58765 -0.87541 0
M  V30 49129 C 4560.99 -0.699118 -3.53758 0
M  V30 49130 O 4560.1 0.255064 -4.1161 0
M  V30 49131 H 4559.44 -0.203894 -0.63192 0
M  V30 49132 H 4561.97 -1.19231 -1.66268 0
M  V30 49133 H 4561.98 -0.598054 -4.03593 0
M  V30 49134 H 4560.65 -1.72284 -3.78538 0
M  V30 49135 H 4559.23 0.107709 -3.72744 0
M  V30 49136 N 4561.42 1.43763 -0.645749 0
M  V30 49137 C 4562.66 2.0273 -0.164915 0
M  V30 49138 C 4563.02 1.49988 1.20505 0
M  V30 49139 O 4562.31 0.68027 1.79117 0
M  V30 49140 C 4562.5 3.57237 -0.107805 0
M  V30 49141 C 4562.33 4.24971 -1.47069 0
M  V30 49142 C 4561.1 4.61349 -2.06119 0
M  V30 49143 C 4563.3 4.54467 -2.40757 0
M  V30 49144 N 4561.28 5.1412 -3.35491 0
M  V30 49145 C 4562.65 5.08477 -3.54755 0
M  V30 49146 C 4564.71 4.3643 -2.39653 0
M  V30 49147 C 4563.41 5.46348 -4.67864 0
M  V30 49148 C 4565.44 4.75358 -3.51837 0
M  V30 49149 C 4564.8 5.29494 -4.6456 0
M  V30 49150 H 4560.9 0.774972 -0.104605 0
M  V30 49151 H 4563.48 1.75048 -0.852428 0
M  V30 49152 H 4561.65 3.845 0.549029 0
M  V30 49153 H 4563.39 4.02882 0.383209 0
M  V30 49154 H 4560.14 4.46145 -1.58907 0
M  V30 49155 H 4560.57 5.44966 -4.01673 0
M  V30 49156 H 4565.21 3.93856 -1.53745 0
M  V30 49157 H 4562.93 5.87869 -5.54469 0
M  V30 49158 H 4566.51 4.63102 -3.52175 0
M  V30 49159 H 4565.39 5.59058 -5.49931 0
M  V30 49160 N 4562.89 0.387197 1.5277 0
M  V30 49161 C 4563.83 -0.48401 2.24031 0
M  V30 49162 C 4564.84 -1.02845 1.26201 0
M  V30 49163 O 4566.03 -0.931132 1.5229 0
M  V30 49164 C 4563.13 -1.68327 2.94142 0
M  V30 49165 C 4562.3 -1.26657 4.18661 0
M  V30 49166 C 4561.36 -2.33028 4.71789 0
M  V30 49167 O 4560.39 -1.94523 5.3493 0
M  V30 49168 N 4561.59 -3.64913 4.51463 0
M  V30 49169 H 4564.35 0.126509 2.99433 0
M  V30 49170 H 4561.91 0.213448 1.60487 0
M  V30 49171 H 4563.91 -2.39007 3.26585 0
M  V30 49172 H 4562.48 -2.20017 2.22061 0
M  V30 49173 H 4561.7 -0.38874 3.92279 0
M  V30 49174 H 4562.98 -0.964788 4.99569 0
M  V30 49175 H 4562.38 -3.9896 4.01058 0
M  V30 49176 H 4560.94 -4.31634 4.88401 0
M  V30 49177 N 4564.37 -1.57165 0.116959 0
M  V30 49178 C 4565.62 -1.95414 -0.542337 0
M  V30 49179 C 4565.95 -1.00025 -1.66459 0
M  V30 49180 O 4565.23 -0.037103 -1.94465 0
M  V30 49181 C 4565.51 -3.43619 -1.07696 0
M  V30 49182 C 4565.36 -4.49781 0.0417449 0
M  V30 49183 C 4566.68 -3.93623 -1.96847 0
M  V30 49184 H 4563.8 -0.71055 -0.195671 0
M  V30 49185 H 4566.44 -1.89026 0.192105 0
M  V30 49186 H 4564.59 -3.49193 -1.70284 0
M  V30 49187 H 4566.26 -4.56306 0.676953 0
M  V30 49188 H 4564.51 -4.2803 0.705169 0
M  V30 49189 H 4565.18 -5.50735 -0.373524 0
M  V30 49190 H 4567.65 -3.9034 -1.44132 0
M  V30 49191 H 4566.53 -4.97846 -2.31172 0
M  V30 49192 H 4566.79 -3.34198 -2.89421 0
M  V30 49193 N 4565.85 0.156809 -1.56818 0
M  V30 49194 C 4567.08 0.890266 -1.87321 0
M  V30 49195 C 4567.5 1.74392 -0.704916 0
M  V30 49196 O 4566.86 1.77973 0.345724 0
M  V30 49197 C 4566.91 1.73091 -3.16342 0
M  V30 49198 O 4566.01 2.83412 -2.99586 0
M  V30 49199 H 4565.35 0.248548 -0.615727 0
M  V30 49200 H 4567.88 0.150578 -2.04045 0
M  V30 49201 H 4567.89 2.12791 -3.48115 0
M  V30 49202 H 4566.57 1.10397 -4.0098 0
M  V30 49203 H 4565.14 2.47189 -2.79199 0
M  V30 49204 N 4567.33 1.51738 0.425844 0
M  V30 49205 C 4568.29 1.73277 1.50026 0
M  V30 49206 C 4569.29 0.602692 1.49078 0
M  V30 49207 O 4570.48 0.870383 1.50897 0
M  V30 49208 C 4567.61 1.7998 2.89517 0
M  V30 49209 H 4568.81 2.69176 1.32227 0
M  V30 49210 H 4566.36 1.41901 0.65527 0
M  V30 49211 H 4567.09 0.859351 3.12707 0
M  V30 49212 H 4566.88 2.62119 2.9161 0
M  V30 49213 H 4568.37 1.98443 3.67437 0
M  V30 49214 N 4568.81 -0.682027 1.42078 0
M  V30 49215 C 4570.22 -0.994281 1.24845 0
M  V30 49216 C 4570.42 -2.0096 0.147459 0
M  V30 49217 O 4569.48 -2.47824 -0.483695 0
M  V30 49218 C 4570.79 -1.50598 2.60271 0
M  V30 49219 C 4572.34 -1.62412 2.67566 0
M  V30 49220 C 4572.82 -2.1698 4.03341 0
M  V30 49221 N 4574.31 -2.24323 4.05257 0
M  V30 49222 C 4575.04 -2.67603 5.07125 0
M  V30 49223 N 4574.54 -3.10389 6.19379 0
M  V30 49224 N 4576.33 -2.67287 4.94483 0
M  V30 49225 H 4568.48 -0.00966441 2.12398 0
M  V30 49226 H 4570.74 -0.066826 0.945642 0
M  V30 49227 H 4570.45 -0.834463 3.41657 0
M  V30 49228 H 4570.32 -2.48592 2.83693 0
M  V30 49229 H 4572.71 -2.28672 1.86529 0
M  V30 49230 H 4572.79 -0.629265 2.47939 0
M  V30 49231 H 4572.44 -1.51332 4.84831 0
M  V30 49232 H 4572.37 -3.17243 4.20315 0
M  V30 49233 H 4574.86 -1.94146 3.24215 0
M  V30 49234 H 4575.17 -3.42079 6.92966 0
M  V30 49235 H 4573.52 -3.08264 6.22895 0
M  V30 49236 H 4576.71 -2.33219 4.05865 0
M  V30 49237 H 4576.88 -3.00698 5.74008 0
M  V30 49238 N 4570.29 -1.2813 -0.917626 0
M  V30 49239 C 4571.53 -1.15058 -1.66637 0
M  V30 49240 C 4571.86 0.30161 -1.92147 0
M  V30 49241 O 4571.12 1.23617 -1.51715 0
M  V30 49242 C 4571.41 -1.89028 -3.0332 0
M  V30 49243 C 4571.08 -3.38842 -2.97484 0
M  V30 49244 C 4569.74 -3.79703 -2.95599 0
M  V30 49245 C 4572.09 -4.34389 -2.88021 0
M  V30 49246 C 4569.42 -5.14457 -2.82048 0
M  V30 49247 C 4571.77 -5.69211 -2.7601 0
M  V30 49248 C 4570.44 -6.09352 -2.72481 0
M  V30 49249 H 4569.71 -0.421028 -0.609768 0
M  V30 49250 H 4572.36 -1.58859 -1.0694 0
M  V30 49251 H 4570.66 -1.37765 -3.66781 0
M  V30 49252 H 4572.36 -1.76333 -3.60149 0
M  V30 49253 H 4568.95 -3.06353 -2.99743 0
M  V30 49254 H 4573.13 -4.03785 -2.88567 0
M  V30 49255 H 4568.39 -5.44691 -2.77709 0
M  V30 49256 H 4572.56 -6.4291 -2.67655 0
M  V30 49257 H 4570.19 -7.13721 -2.61737 0
M  V30 49258 N 4571.76 1.12553 -1.10316 0
M  V30 49259 C 4572.71 2.20322 -0.745707 0
M  V30 49260 C 4573.71 1.6743 0.257571 0
M  V30 49261 O 4574.91 1.79612 0.118069 0
M  V30 49262 H 4571.29 0.71811 -0.223207 0
M  V30 49263 H 4573.26 2.47727 -1.66355 0
M  V30 49264 C 4572.01 3.47167 -0.192384 0
M  V30 49265 H 4571.33 3.88211 -0.955611 0
M  V30 49266 H 4572.77 4.23995 0.0196783 0
M  V30 49267 C 4571.23 3.19302 1.07461 0
M  V30 49268 O 4571.76 3.38918 2.15633 0
M  V30 49269 N 4569.96 2.73117 0.992751 0
M  V30 49270 H 4569.51 2.57355 0.112384 0
M  V30 49271 H 4569.47 2.54849 1.84118 0
M  V30 49272 N 4573.24 0.891716 1.29947 0
M  V30 49273 C 4574.17 0.320775 2.26944 0
M  V30 49274 C 4575.19 -0.528443 1.53985 0
M  V30 49275 O 4576.38 -0.346897 1.75097 0
M  V30 49276 C 4573.48 -0.561948 3.34209 0
M  V30 49277 C 4572.65 0.259729 4.36628 0
M  V30 49278 C 4571.71 -0.554556 5.2327 0
M  V30 49279 O 4570.73 0.0251312 5.69194 0
M  V30 49280 N 4571.94 -1.8623 5.49817 0
M  V30 49281 H 4574.7 1.15442 2.76574 0
M  V30 49282 H 4572.26 0.755386 1.43198 0
M  V30 49283 H 4574.25 -1.11291 3.89097 0
M  V30 49284 H 4572.82 -1.29627 2.84457 0
M  V30 49285 H 4572.04 0.99212 3.81511 0
M  V30 49286 H 4573.33 0.82274 5.02104 0
M  V30 49287 H 4572.73 -2.3561 5.143 0
M  V30 49288 H 4571.29 -2.36056 6.07553 0
M  V30 49289 N 4574.72 -1.43419 0.653364 0
M  V30 49290 C 4575.95 -2.05863 0.174311 0
M  V30 49291 C 4576.36 -1.49056 -1.16528 0
M  V30 49292 O 4575.7 -0.616542 -1.73045 0
M  V30 49293 C 4575.76 -3.59499 0.00888511 0
M  V30 49294 C 4575.43 -4.38889 1.2738 0
M  V30 49295 C 4576.42 -4.70939 2.20256 0
M  V30 49296 C 4574.11 -4.78895 1.51542 0
M  V30 49297 C 4576.1 -5.41904 3.35587 0
M  V30 49298 C 4573.79 -5.49605 2.67167 0
M  V30 49299 C 4574.79 -5.81031 3.59015 0
M  V30 49300 O 4574.48 -6.50296 4.7262 0
M  V30 49301 H 4574.21 -0.670342 0.0872784 0
M  V30 49302 H 4576.76 -1.8491 0.894291 0
M  V30 49303 H 4574.99 -3.79028 -0.766467 0
M  V30 49304 H 4576.68 -4.03642 -0.427546 0
M  V30 49305 H 4577.45 -4.4055 2.02831 0
M  V30 49306 H 4573.33 -4.5384 0.809318 0
M  V30 49307 H 4576.87 -5.66351 4.07299 0
M  V30 49308 H 4572.77 -5.79409 2.84526 0
M  V30 49309 H 4573.53 -6.68779 4.71887 0
M  V30 49310 N 4576.2 -0.395293 -1.52562 0
M  V30 49311 C 4577.14 0.436956 -2.26626 0
M  V30 49312 C 4578.11 1.05276 -1.28476 0
M  V30 49313 O 4579.3 1.07965 -1.57315 0
M  V30 49314 C 4576.44 1.55513 -3.08074 0
M  V30 49315 C 4575.55 0.961597 -4.21162 0
M  V30 49316 C 4574.69 2.05132 -4.89994 0
M  V30 49317 C 4573.73 1.43399 -5.95066 0
M  V30 49318 N 4572.86 2.46328 -6.5747 0
M  V30 49319 H 4577.7 -0.20108 -2.97321 0
M  V30 49320 H 4575.24 -0.110996 -1.46681 0
M  V30 49321 H 4577.2 2.21424 -3.53592 0
M  V30 49322 H 4575.83 2.16339 -2.39577 0
M  V30 49323 H 4574.88 0.191915 -3.79916 0
M  V30 49324 H 4576.19 0.470526 -4.96576 0
M  V30 49325 H 4575.35 2.788 -5.38846 0
M  V30 49326 H 4574.09 2.576 -4.14118 0
M  V30 49327 H 4573.09 0.682582 -5.45546 0
M  V30 49328 H 4574.32 0.91718 -6.72878 0
M  V30 49329 H 4572.26 2.97954 -5.84431 0
M  V30 49330 H 4572.18 2.01993 -7.28516 0
M  V30 49331 H 4573.45 3.19608 -7.10965 0
M  V30 49332 N 4577.68 1.57101 -0.125292 0
M  V30 49333 C 4578.91 1.99474 0.537945 0
M  V30 49334 C 4579.31 1.00401 1.60363 0
M  V30 49335 O 4578.66 -0.010323 1.83697 0
M  V30 49336 C 4578.72 3.38266 1.21722 0
M  V30 49337 C 4578.38 4.56023 0.298737 0
M  V30 49338 C 4579.38 5.17815 -0.465125 0
M  V30 49339 C 4577.06 5.01869 0.207972 0
M  V30 49340 C 4579.06 6.23847 -1.30742 0
M  V30 49341 C 4576.75 6.07761 -0.637949 0
M  V30 49342 C 4577.74 6.68617 -1.39427 0
M  V30 49343 O 4577.43 7.72463 -2.22614 0
M  V30 49344 H 4577.16 0.65994 0.146478 0
M  V30 49345 H 4579.72 2.0432 -0.210339 0
M  V30 49346 H 4577.95 3.30192 2.01271 0
M  V30 49347 H 4579.64 3.64886 1.778 0
M  V30 49348 H 4580.4 4.83307 -0.404911 0
M  V30 49349 H 4576.28 4.54244 0.786363 0
M  V30 49350 H 4579.83 6.71277 -1.89823 0
M  V30 49351 H 4575.72 6.41698 -0.699534 0
M  V30 49352 H 4576.49 7.89588 -2.15624 0
M  V30 49353 N 4579.15 -0.14849 1.56899 0
M  V30 49354 C 4580.1 -1.20258 1.991 0
M  V30 49355 C 4581.1 -1.44556 0.883174 0
M  V30 49356 O 4582.3 -1.44866 1.06835 0
M  V30 49357 H 4578.68 -0.404764 0.633774 0
M  V30 49358 H 4580.65 -0.81994 2.86914 0
M  V30 49359 C 4579.4 -2.52877 2.38638 0
M  V30 49360 H 4578.72 -2.3501 3.23435 0
M  V30 49361 H 4580.16 -3.25264 2.71991 0
M  V30 49362 C 4578.62 -3.1331 1.23848 0
M  V30 49363 O 4579.15 -3.98075 0.538408 0
M  V30 49364 N 4577.35 -2.72738 1.00311 0
M  V30 49365 H 4576.9 -2.03906 1.57417 0
M  V30 49366 H 4576.86 -3.13506 0.236949 0
M  V30 49367 N 4580.63 -1.51961 -0.417791 0
M  V30 49368 C 4581.56 -1.709 -1.52727 0
M  V30 49369 C 4582.58 -0.589458 -1.51754 0
M  V30 49370 O 4583.77 -0.864367 -1.56176 0
M  V30 49371 C 4580.87 -1.72637 -2.91633 0
M  V30 49372 C 4580.04 -3.01491 -3.16895 0
M  V30 49373 C 4579.1 -2.95155 -4.35626 0
M  V30 49374 O 4578.12 -3.69075 -4.33327 0
M  V30 49375 N 4579.33 -2.12347 -5.40267 0
M  V30 49376 H 4582.09 -2.66616 -1.36879 0
M  V30 49377 H 4579.65 -1.50091 -0.606985 0
M  V30 49378 H 4581.64 -1.65941 -3.69115 0
M  V30 49379 H 4580.21 -0.844321 -3.00982 0
M  V30 49380 H 4579.43 -3.21903 -2.27535 0
M  V30 49381 H 4580.72 -3.86748 -3.30611 0
M  V30 49382 H 4580.12 -1.51704 -5.44979 0
M  V30 49383 H 4578.68 -2.11515 -6.16526 0
M  V30 49384 N 4582.11 0.674483 -1.42438 0
M  V30 49385 C 4583.06 1.80929 -1.46176 0
M  V30 49386 C 4584.05 1.66005 -0.337458 0
M  V30 49387 O 4585.26 1.7261 -0.510486 0
M  V30 49388 H 4581.63 0.596578 -0.457819 0
M  V30 49389 H 4583.6 1.74895 -2.41774 0
M  V30 49390 C 4582.35 3.19084 -1.38134 0
M  V30 49391 H 4581.68 3.31195 -2.23942 0
M  V30 49392 H 4583.12 3.98505 -1.44811 0
M  V30 49393 C 4581.57 3.36763 -0.0961701 0
M  V30 49394 O 4582.1 3.92584 0.850935 0
M  V30 49395 N 4580.31 2.90597 -0.0132207 0
M  V30 49396 H 4579.86 2.45357 -0.784726 0
M  V30 49397 H 4579.82 3.02803 0.846026 0
M  V30 49398 N 4583.59 1.28615 0.910818 0
M  V30 49399 C 4584.84 1.1594 1.66024 0
M  V30 49400 C 4585.16 -0.291415 1.92305 0
M  V30 49401 O 4584.42 -1.2281 1.52368 0
M  V30 49402 C 4584.72 1.90634 3.02313 0
M  V30 49403 C 4584.38 3.40415 2.95683 0
M  V30 49404 C 4583.05 3.81265 2.93582 0
M  V30 49405 C 4585.4 4.3591 2.85713 0
M  V30 49406 C 4582.73 5.15945 2.79316 0
M  V30 49407 C 4585.08 5.70667 2.72987 0
M  V30 49408 C 4583.74 6.10789 2.69246 0
M  V30 49409 H 4583.01 0.424255 0.607526 0
M  V30 49410 H 4585.66 1.59424 1.06096 0
M  V30 49411 H 4583.96 1.39708 3.66045 0
M  V30 49412 H 4585.66 1.78241 3.59209 0
M  V30 49413 H 4582.25 3.07938 2.98114 0
M  V30 49414 H 4586.43 4.0531 2.86422 0
M  V30 49415 H 4581.69 5.46156 2.74816 0
M  V30 49416 H 4585.86 6.44321 2.64242 0
M  V30 49417 H 4583.49 7.15099 2.57949 0
M  V30 49418 N 4585.07 -1.11967 1.10911 0
M  V30 49419 C 4586.29 -1.87939 0.87713 0
M  V30 49420 C 4586.72 -1.79343 -0.567251 0
M  V30 49421 O 4586.07 -1.15189 -1.40005 0
M  V30 49422 C 4586.12 -3.34922 1.33641 0
M  V30 49423 O 4585.23 -4.09301 0.504591 0
M  V30 49424 H 4584.57 -0.583774 0.316392 0
M  V30 49425 H 4587.1 -1.41565 1.47717 0
M  V30 49426 H 4587.11 -3.85765 1.32851 0
M  V30 49427 H 4585.78 -3.40495 2.38822 0
M  V30 49428 H 4584.36 -3.68391 0.578123 0
M  V30 49429 N 4586.54 -0.898595 -1.29472 0
M  V30 49430 C 4587.51 -0.380351 -2.26022 0
M  V30 49431 C 4588.51 0.484837 -1.53317 0
M  V30 49432 O 4589.7 0.290047 -1.71768 0
M  V30 49433 C 4586.83 0.456391 -3.37831 0
M  V30 49434 H 4588.02 -1.23305 -2.73379 0
M  V30 49435 H 4585.58 -0.676638 -1.40895 0
M  V30 49436 H 4586.31 1.32912 -2.95812 0
M  V30 49437 H 4586.1 -0.163531 -3.91759 0
M  V30 49438 H 4587.59 0.810322 -4.09663 0
M  V30 49439 N 4588.02 1.4307 -0.660961 0
M  V30 49440 C 4589.27 2.01322 -0.177165 0
M  V30 49441 C 4589.59 1.52454 1.21585 0
M  V30 49442 O 4588.86 0.740386 1.8137 0
M  V30 49443 H 4587.44 0.74438 -0.0625066 0
M  V30 49444 H 4590.1 1.75176 -0.854366 0
M  V30 49445 H 4589.2 3.11649 -0.16775 0
M  V30 49446 N 4589.5 0.403378 1.5235 0
M  V30 49447 C 4590.45 -0.439672 2.28407 0
M  V30 49448 C 4591.44 -1.05085 1.32867 0
M  V30 49449 O 4592.65 -0.989706 1.50349 0
M  V30 49450 H 4589.02 -0.160561 0.734659 0
M  V30 49451 H 4590.99 0.223088 2.97565 0
M  V30 49452 C 4589.74 -1.54725 3.11377 0
M  V30 49453 H 4589.07 -1.08629 3.84759 0
M  V30 49454 H 4590.51 -2.11107 3.67709 0
M  V30 49455 C 4588.97 -2.51133 2.24575 0
M  V30 49456 O 4589.5 -3.54881 1.88209 0
M  V30 49457 N 4587.7 -2.21206 1.88457 0
M  V30 49458 H 4587.25 -1.3687 2.1823 0
M  V30 49459 H 4587.21 -2.85958 1.30672 0
M  V30 49460 N 4590.98 -1.57033 0.133622 0
M  V30 49461 C 4591.93 -2.17351 -0.828336 0
M  V30 49462 C 4592.92 -1.12675 -1.26494 0
M  V30 49463 O 4594.13 -1.30952 -1.23498 0
M  V30 49464 H 4590.5 -0.695785 -0.285284 0
M  V30 49465 H 4592.47 -2.96936 -0.295268 0
M  V30 49466 C 4591.22 -2.799 -2.06279 0
M  V30 49467 H 4590.54 -3.60153 -1.7358 0
M  V30 49468 H 4591.98 -3.25624 -2.7156 0
M  V30 49469 C 4590.44 -1.77723 -2.8621 0
M  V30 49470 O 4590.97 -1.2395 -3.82098 0
M  V30 49471 N 4589.18 -1.4733 -2.50484 0
M  V30 49472 H 4588.73 -1.91249 -1.72574 0
M  V30 49473 H 4588.68 -0.792097 -3.04258 0
M  V30 49474 N 4592.46 0.140167 -1.56975 0
M  V30 49475 C 4593.37 1.19216 -2.02051 0
M  V30 49476 C 4594.38 1.46609 -0.937113 0
M  V30 49477 O 4595.56 1.58144 -1.2471 0
M  V30 49478 C 4592.62 2.50406 -2.39787 0
M  V30 49479 C 4591.68 2.30599 -3.62108 0
M  V30 49480 C 4590.92 3.55533 -3.98035 0
M  V30 49481 O 4591.14 4.61992 -3.34544 0
M  V30 49482 O 4590.07 3.4779 -4.91249 0
M  V30 49483 H 4593.9 0.839456 -2.91868 0
M  V30 49484 H 4591.49 0.349402 -1.45257 0
M  V30 49485 H 4593.37 3.27738 -2.64888 0
M  V30 49486 H 4592.04 2.85193 -1.53124 0
M  V30 49487 H 4590.95 1.51195 -3.42186 0
M  V30 49488 H 4592.28 2.00725 -4.49411 0
M  V30 49489 N 4593.93 1.52181 0.409726 0
M  V30 49490 C 4594.88 1.76091 1.51969 0
M  V30 49491 C 4595.88 0.628019 1.57329 0
M  V30 49492 O 4597.08 0.81005 1.60743 0
M  V30 49493 H 4593.46 0.556847 0.505396 0
M  V30 49494 H 4595.43 2.69082 1.28987 0
M  V30 49495 C 4594.18 1.9281 2.89344 0
M  V30 49496 H 4593.5 2.79403 2.85962 0
M  V30 49497 H 4594.94 2.13539 3.66302 0
M  V30 49498 C 4593.4 0.695039 3.29653 0
M  V30 49499 O 4593.93 -0.137369 4.01465 0
M  V30 49500 N 4592.14 0.53111 2.85705 0
M  V30 49501 H 4591.68 1.2096 2.27435 0
M  V30 49502 H 4591.64 -0.292608 3.13035 0
M  V30 49503 N 4595.41 -0.666919 1.42793 0
M  V30 49504 C 4596.66 -1.42273 1.42973 0
M  V30 49505 C 4596.97 -1.95529 0.0525177 0
M  V30 49506 O 4598.18 -2.71414 -0.0682676 0
M  V30 49507 C 4596.64 -2.57409 2.51533 0
M  V30 49508 C 4596.24 -2.10818 3.95297 0
M  V30 49509 C 4597.99 -3.34869 2.60889 0
M  V30 49510 C 4595.9 -3.23083 4.95349 0
M  V30 49511 H 4594.83 -0.534514 0.5318 0
M  V30 49512 H 4597.48 -0.721242 1.68732 0
M  V30 49513 H 4595.86 -3.29963 2.18952 0
M  V30 49514 H 4597.03 -1.45365 4.37271 0
M  V30 49515 H 4595.35 -1.46275 3.89862 0
M  V30 49516 H 4597.94 -4.18494 3.32817 0
M  V30 49517 H 4598.29 -3.81988 1.65503 0
M  V30 49518 H 4598.82 -2.69388 2.92703 0
M  V30 49519 H 4595.56 -2.80948 5.9224 0
M  V30 49520 H 4595.08 -3.87293 4.58 0
M  V30 49521 H 4596.76 -3.88429 5.17428 0
M  V30 49522 N 4596.89 -1.29096 -0.903985 0
M  V30 49523 C 4597.82 -1.08183 -2.00927 0
M  V30 49524 C 4598.8 0.00502583 -1.62599 0
M  V30 49525 O 4599.99 -0.144831 -1.87943 0
M  V30 49526 C 4597.11 -0.646014 -3.32482 0
M  V30 49527 C 4596.16 -1.73095 -3.89795 0
M  V30 49528 S 4596.99 -3.32919 -4.19434 0
M  V30 49529 C 4598.15 -2.91196 -5.54036 0
M  V30 49530 H 4598.38 -2.0176 -2.18358 0
M  V30 49531 H 4595.91 -1.13195 -1.05006 0
M  V30 49532 H 4597.87 -0.401275 -4.08534 0
M  V30 49533 H 4596.53 0.270078 -3.12937 0
M  V30 49534 H 4595.73 -1.37785 -4.848 0
M  V30 49535 H 4595.33 -1.92899 -3.20415 0
M  V30 49536 H 4597.62 -2.37974 -6.3433 0
M  V30 49537 H 4598.56 -3.85035 -5.94267 0
M  V30 49538 H 4598.97 -2.29618 -5.1569 0
M  V30 49539 N 4598.37 1.11377 -1.11503 0
M  V30 49540 C 4599.28 2.21016 -0.786706 0
M  V30 49541 C 4600.3 1.72598 0.220446 0
M  V30 49542 O 4601.47 2.01321 0.0564543 0
M  V30 49543 C 4598.54 3.459 -0.235455 0
M  V30 49544 C 4597.6 4.09102 -1.3013 0
M  V30 49545 C 4596.83 5.28025 -0.776254 0
M  V30 49546 O 4597.05 5.69041 0.393461 0
M  V30 49547 O 4595.99 5.8183 -1.54135 0
M  V30 49548 H 4599.81 2.51515 -1.70218 0
M  V30 49549 H 4597.4 1.19925 -0.89097 0
M  V30 49550 H 4599.28 4.21346 0.0675669 0
M  V30 49551 H 4597.96 3.17051 0.652717 0
M  V30 49552 H 4596.86 3.35385 -1.65734 0
M  V30 49553 H 4598.2 4.42132 -2.16288 0
M  V30 49554 N 4599.85 0.905449 1.28994 0
M  V30 49555 C 4600.81 0.392332 2.25817 0
M  V30 49556 C 4601.81 -0.476699 1.53572 0
M  V30 49557 O 4603 -0.280934 1.7192 0
M  V30 49558 C 4600.13 -0.438469 3.38068 0
M  V30 49559 H 4601.33 1.24753 2.72721 0
M  V30 49560 H 4598.88 0.684101 1.40534 0
M  V30 49561 H 4599.61 -1.31341 2.96513 0
M  V30 49562 H 4599.4 0.184304 3.91667 0
M  V30 49563 H 4600.89 -0.788586 4.10087 0
M  V30 49564 N 4601.33 -1.42718 0.668539 0
M  V30 49565 C 4602.28 -2.27971 -0.0363005 0
M  V30 49566 C 4603.26 -1.40744 -0.779744 0
M  V30 49567 O 4604.45 -1.64247 -0.659687 0
M  V30 49568 C 4601.58 -3.28677 -0.991282 0
M  V30 49569 C 4600.67 -4.23389 -0.24551 0
M  V30 49570 N 4601.06 -5.00265 0.746245 0
M  V30 49571 C 4599.36 -4.43357 -0.484832 0
M  V30 49572 C 4600.06 -5.69392 1.19029 0
M  V30 49573 N 4599.03 -5.41093 0.521477 0
M  V30 49574 H 4602.83 -2.8483 0.724495 0
M  V30 49575 H 4600.35 -1.54605 0.497082 0
M  V30 49576 H 4602.35 -3.88548 -1.51116 0
M  V30 49577 H 4601.01 -2.73379 -1.75197 0
M  V30 49578 H 4602.02 -5.05521 1.12555 0
M  V30 49579 H 4598.69 -3.99109 -1.22551 0
M  V30 49580 H 4600.08 -6.41076 2.01176 0
M  V30 49581 N 4602.8 -0.411452 -1.52134 0
M  V30 49582 C 4604.05 0.163817 -2.02137 0
M  V30 49583 C 4604.38 1.44592 -1.29641 0
M  V30 49584 O 4603.66 1.9027 -0.40342 0
M  V30 49585 C 4603.94 0.409145 -3.57768 0
M  V30 49586 C 4603.79 -0.889798 -4.40911 0
M  V30 49587 C 4605.11 1.19027 -4.23699 0
M  V30 49588 H 4602.23 0.0580637 -0.734709 0
M  V30 49589 H 4604.87 -0.545374 -1.82005 0
M  V30 49590 H 4603.02 1.01326 -3.75054 0
M  V30 49591 H 4604.7 -1.52591 -4.35332 0
M  V30 49592 H 4602.94 -1.50026 -4.07032 0
M  V30 49593 H 4603.61 -0.672507 -5.47888 0
M  V30 49594 H 4606.09 0.678797 -4.10526 0
M  V30 49595 H 4604.96 1.33068 -5.32526 0
M  V30 49596 H 4605.22 2.21152 -3.82811 0
M  V30 49597 N 4604.28 1.56959 -0.141948 0
M  V30 49598 C 4605.53 1.95574 0.509415 0
M  V30 49599 C 4605.85 1.02752 1.65732 0
M  V30 49600 O 4605.12 0.0880999 1.95702 0
M  V30 49601 H 4603.7 0.722121 0.191179 0
M  V30 49602 H 4606.36 1.93696 -0.216264 0
M  V30 49603 H 4605.46 2.99174 0.888895 0
M  V30 49604 N 4605.76 -0.13184 1.57048 0
M  V30 49605 C 4607.01 -0.840375 1.83359 0
M  V30 49606 C 4607.32 -1.81644 0.725599 0
M  V30 49607 O 4608.53 -2.57022 0.87475 0
M  V30 49608 C 4606.98 -1.54517 3.25043 0
M  V30 49609 C 4606.59 -0.610745 4.43817 0
M  V30 49610 C 4608.34 -2.23959 3.60614 0
M  V30 49611 C 4606.24 -1.31803 5.76526 0
M  V30 49612 H 4605.17 -0.317575 0.683858 0
M  V30 49613 H 4607.82 -0.0930917 1.83264 0
M  V30 49614 H 4606.21 -2.33862 3.19569 0
M  V30 49615 H 4607.38 0.148569 4.6056 0
M  V30 49616 H 4605.69 -0.0239552 4.16393 0
M  V30 49617 H 4608.29 -2.77542 4.57028 0
M  V30 49618 H 4608.63 -3.01163 2.87414 0
M  V30 49619 H 4609.17 -1.51516 3.67815 0
M  V30 49620 H 4605.91 -0.587541 6.52862 0
M  V30 49621 H 4605.43 -2.04967 5.63692 0
M  V30 49622 H 4607.11 -1.85478 6.19844 0
M  V30 49623 N 4607.24 -1.52396 -0.40165 0
M  V30 49624 C 4608.19 -1.76895 -1.51033 0
M  V30 49625 C 4609.18 -0.636354 -1.56993 0
M  V30 49626 O 4610.39 -0.818563 -1.60311 0
M  V30 49627 H 4606.76 -0.55952 -0.502436 0
M  V30 49628 H 4608.73 -2.69762 -1.27558 0
M  V30 49629 C 4607.48 -1.94341 -2.88317 0
M  V30 49630 H 4606.8 -2.80915 -2.84476 0
M  V30 49631 H 4608.24 -2.15479 -3.65164 0
M  V30 49632 C 4606.7 -0.712511 -3.29279 0
M  V30 49633 O 4607.23 0.116076 -4.01532 0
M  V30 49634 N 4605.44 -0.546255 -2.8542 0
M  V30 49635 H 4604.99 -1.22164 -2.2679 0
M  V30 49636 H 4604.94 0.276003 -3.13186 0
M  V30 49637 N 4608.72 0.659337 -1.43145 0
M  V30 49638 C 4609.96 1.41649 -1.44152 0
M  V30 49639 C 4610.28 1.94893 -0.0646424 0
M  V30 49640 O 4609.55 1.74047 0.899137 0
M  V30 49641 H 4608.13 0.52569 -0.530716 0
M  V30 49642 H 4610.8 0.778034 -1.78697 0
M  V30 49643 H 4609.89 2.26188 -2.15048 0
M  V30 49644 N 4610.19 1.29574 0.897126 0
M  V30 49645 C 4611.1 1.16815 2.03449 0
M  V30 49646 C 4612.12 0.0908082 1.73763 0
M  V30 49647 O 4613.3 0.303382 1.99102 0
M  V30 49648 C 4610.36 0.848382 3.3616 0
M  V30 49649 C 4609.42 2.00983 3.79347 0
M  V30 49650 C 4608.65 1.70522 5.05725 0
M  V30 49651 O 4608.88 0.627379 5.66939 0
M  V30 49652 O 4607.81 2.55399 5.45027 0
M  V30 49653 H 4611.64 2.12333 2.17137 0
M  V30 49654 H 4609.22 1.09051 1.02119 0
M  V30 49655 H 4611.1 0.684727 4.158 0
M  V30 49656 H 4609.78 -0.0769934 3.23608 0
M  V30 49657 H 4608.69 2.22874 3.00463 0
M  V30 49658 H 4610.02 2.9165 3.96486 0
M  V30 49659 N 4611.67 -1.10784 1.12092 0
M  V30 49660 C 4612.63 -2.15204 0.788653 0
M  V30 49661 C 4613.63 -1.5961 -0.195261 0
M  V30 49662 O 4614.82 -1.74174 0.0300805 0
M  V30 49663 C 4611.96 -3.40469 0.171294 0
M  V30 49664 H 4613.15 -2.4611 1.71377 0
M  V30 49665 H 4610.7 -1.26085 0.923696 0
M  V30 49666 H 4611.44 -3.15179 -0.763721 0
M  V30 49667 H 4611.22 -3.82105 0.879648 0
M  V30 49668 H 4612.71 -4.17576 -0.0448132 0
M  V30 49669 N 4613.15 -0.912277 -1.28512 0
M  V30 49670 C 4614.1 -0.389678 -2.29313 0
M  V30 49671 C 4615.09 0.517858 -1.6129 0
M  V30 49672 O 4616.3 0.399266 -1.75516 0
M  V30 49673 H 4612.67 -0.107412 -0.744289 0
M  V30 49674 H 4614.64 -1.25295 -2.7082 0
M  V30 49675 C 4613.39 0.356374 -3.45869 0
M  V30 49676 H 4612.72 -0.332748 -3.98413 0
M  V30 49677 H 4614.16 0.686704 -4.18402 0
M  V30 49678 C 4612.62 1.56372 -2.98411 0
M  V30 49679 O 4613.15 2.66284 -3.00759 0
M  V30 49680 N 4611.35 1.4102 -2.5409 0
M  V30 49681 H 4610.9 0.516 -2.52379 0
M  V30 49682 H 4610.86 2.21931 -2.22697 0
M  V30 49683 N 4614.63 1.42361 -0.676098 0
M  V30 49684 C 4615.56 2.33497 -0.0125653 0
M  V30 49685 C 4616.54 1.5075 0.787928 0
M  V30 49686 O 4617.72 1.79349 0.744821 0
M  V30 49687 C 4614.85 3.3438 0.938465 0
M  V30 49688 C 4613.81 4.2729 0.246472 0
M  V30 49689 C 4613.13 5.18391 1.31053 0
M  V30 49690 C 4614.43 5.14913 -0.875306 0
M  V30 49691 H 4616.13 2.89231 -0.773695 0
M  V30 49692 H 4613.67 1.39072 -0.373509 0
M  V30 49693 H 4615.63 3.97049 1.41174 0
M  V30 49694 H 4614.35 2.76953 1.73103 0
M  V30 49695 H 4613.01 3.66017 -0.206584 0
M  V30 49696 H 4612.66 4.5729 2.09512 0
M  V30 49697 H 4612.36 5.81381 0.852635 0
M  V30 49698 H 4613.88 5.83935 1.78471 0
M  V30 49699 H 4615.3 5.7126 -0.483184 0
M  V30 49700 H 4613.69 5.86743 -1.25907 0
M  V30 49701 H 4614.76 4.53236 -1.72351 0
M  V30 49702 N 4616.11 0.419515 1.51914 0
M  V30 49703 C 4617.38 -0.211931 1.94448 0
M  V30 49704 C 4617.76 -1.61698 1.35709 0
M  V30 49705 O 4617.11 -2.221 0.537009 0
M  V30 49706 C 4617.32 -0.20775 3.48381 0
M  V30 49707 C 4618.67 -0.422044 4.22497 0
M  V30 49708 O 4619.69 -0.286653 3.55045 0
M  V30 49709 O 4618.55 -0.689818 5.42129 0
M  V30 49710 H 4615.65 -0.139557 0.81514 0
M  V30 49711 H 4618.19 0.476208 1.62881 0
M  V30 49712 H 4616.96 0.775236 3.83544 0
M  V30 49713 H 4616.59 -0.939552 3.86339 0
M  V30 49714 N 4617.58 -1.56882 0.15027 0
M  V30 49715 C 4618.83 -1.96229 -0.500024 0
M  V30 49716 C 4619.16 -1.03528 -1.64658 0
M  V30 49717 O 4618.41 -0.0651371 -1.95592 0
M  V30 49718 C 4618.71 -3.41804 -1.04425 0
M  V30 49719 C 4618.38 -4.50897 -0.0158086 0
M  V30 49720 C 4617.04 -4.80459 0.2669 0
M  V30 49721 C 4619.39 -5.16701 0.683373 0
M  V30 49722 C 4616.72 -5.7313 1.25454 0
M  V30 49723 C 4619.07 -6.10436 1.65985 0
M  V30 49724 C 4617.74 -6.38375 1.95023 0
M  V30 49725 H 4617.01 -0.718055 -0.182972 0
M  V30 49726 H 4619.65 -1.90018 0.237791 0
M  V30 49727 H 4617.96 -3.44864 -1.85947 0
M  V30 49728 H 4619.66 -3.69578 -1.55605 0
M  V30 49729 H 4616.25 -4.27892 -0.246335 0
M  V30 49730 H 4620.43 -4.93991 0.478157 0
M  V30 49731 H 4615.69 -5.93069 1.48592 0
M  V30 49732 H 4619.86 -6.60499 2.20712 0
M  V30 49733 H 4617.49 -7.09987 2.71704 0
M  V30 49734 N 4619.06 0.12351 -1.57115 0
M  V30 49735 C 4619.99 1.15301 -2.03046 0
M  V30 49736 C 4620.97 1.4345 -0.914111 0
M  V30 49737 O 4622.16 1.53969 -1.18352 0
M  V30 49738 C 4619.29 2.48034 -2.43097 0
M  V30 49739 C 4618.24 2.34357 -3.58135 0
M  V30 49740 C 4617.57 3.72012 -3.84072 0
M  V30 49741 C 4618.87 1.80787 -4.90014 0
M  V30 49742 H 4620.56 0.771 -2.89303 0
M  V30 49743 H 4618.11 0.36943 -1.39181 0
M  V30 49744 H 4620.06 3.20301 -2.73834 0
M  V30 49745 H 4618.79 2.88117 -1.53806 0
M  V30 49746 H 4617.44 1.64539 -3.27601 0
M  V30 49747 H 4617.09 4.09572 -2.91993 0
M  V30 49748 H 4616.79 3.63716 -4.61503 0
M  V30 49749 H 4618.32 4.45791 -4.17256 0
M  V30 49750 H 4619.73 2.42867 -5.19315 0
M  V30 49751 H 4618.13 1.83323 -5.71413 0
M  V30 49752 H 4619.2 0.765112 -4.78826 0
M  V30 49753 N 4620.54 1.52607 0.393562 0
M  V30 49754 C 4621.49 1.77693 1.50093 0
M  V30 49755 C 4622.48 0.64467 1.56654 0
M  V30 49756 O 4623.69 0.827053 1.59874 0
M  V30 49757 H 4620.06 0.562176 0.499462 0
M  V30 49758 H 4622.03 2.70435 1.26126 0
M  V30 49759 C 4620.78 1.95868 2.87282 0
M  V30 49760 H 4620.11 2.8242 2.82982 0
M  V30 49761 H 4621.55 2.17413 3.64016 0
M  V30 49762 C 4620.01 0.729964 3.28897 0
M  V30 49763 O 4620.54 -0.0947805 4.01588 0
M  V30 49764 N 4618.74 0.561383 2.85126 0
M  V30 49765 H 4618.29 1.23365 2.26139 0
M  V30 49766 H 4618.25 -0.25939 3.13328 0
M  V30 49767 N 4622.02 -0.651737 1.43493 0
M  V30 49768 C 4623.27 -1.40749 1.44474 0
M  V30 49769 C 4623.58 -1.95463 0.0732532 0
M  V30 49770 O 4624.79 -2.71471 -0.0394766 0
M  V30 49771 C 4623.24 -2.54727 2.54249 0
M  V30 49772 C 4622.85 -2.06614 3.97511 0
M  V30 49773 C 4624.59 -3.32083 2.64426 0
M  V30 49774 C 4622.5 -3.17811 4.98748 0
M  V30 49775 H 4621.43 -0.528843 0.537439 0
M  V30 49776 H 4624.08 -0.703306 1.69487 0
M  V30 49777 H 4622.46 -3.27623 2.2244 0
M  V30 49778 H 4623.64 -1.40719 4.38788 0
M  V30 49779 H 4621.95 -1.42132 3.91392 0
M  V30 49780 H 4624.55 -4.1494 3.37237 0
M  V30 49781 H 4624.89 -3.80211 1.69545 0
M  V30 49782 H 4625.43 -2.66268 2.95543 0
M  V30 49783 H 4622.17 -2.74651 5.95187 0
M  V30 49784 H 4621.69 -3.82413 4.62082 0
M  V30 49785 H 4623.36 -3.82919 5.21519 0
M  V30 49786 N 4623.5 -1.30048 -0.890242 0
M  V30 49787 C 4624.91 -1.16743 -1.45698 0
M  V30 49788 C 4625.26 0.233871 -1.94801 0
M  V30 49789 O 4624.38 1.13014 -1.84545 0
M  V30 49790 C 4624.98 -2.11322 -2.64817 0
M  V30 49791 C 4623.54 -2.02012 -3.17597 0
M  V30 49792 C 4622.68 -2.01706 -1.90289 0
M  V30 49793 H 4625.64 -1.42395 -0.700676 0
M  V30 49794 H 4625.66 -1.69098 -3.40861 0
M  V30 49795 H 4625.17 -3.13302 -2.29049 0
M  V30 49796 H 4623.27 -1.03155 -3.58036 0
M  V30 49797 H 4623.38 -2.90141 -3.81254 0
M  V30 49798 H 4621.75 -1.46434 -2.08397 0
M  V30 49799 H 4622.53 -3.05407 -1.56785 0
M  V30 49800 N 4624.97 1.10188 -1.12678 0
M  V30 49801 C 4625.9 2.18649 -0.819439 0
M  V30 49802 C 4626.89 1.68699 0.217856 0
M  V30 49803 O 4628.07 1.94041 0.0784899 0
M  V30 49804 C 4625.2 3.46201 -0.276062 0
M  V30 49805 C 4624.15 4.0944 -1.24671 0
M  V30 49806 C 4623.48 5.31723 -0.563445 0
M  V30 49807 C 4624.78 4.52853 -2.60233 0
M  V30 49808 H 4626.47 2.44616 -1.72637 0
M  V30 49809 H 4624.02 1.17568 -0.831493 0
M  V30 49810 H 4625.97 4.21372 -0.0487631 0
M  V30 49811 H 4624.7 3.19733 0.666219 0
M  V30 49812 H 4623.36 3.36279 -1.45986 0
M  V30 49813 H 4623 5.01532 0.384059 0
M  V30 49814 H 4622.7 5.74987 -1.21095 0
M  V30 49815 H 4624.23 6.09623 -0.345244 0
M  V30 49816 H 4625.64 5.19286 -2.42931 0
M  V30 49817 H 4624.04 5.06975 -3.21086 0
M  V30 49818 H 4625.11 3.65645 -3.18484 0
M  V30 49819 N 4626.45 0.919079 1.28026 0
M  V30 49820 C 4627.68 0.571041 1.98864 0
M  V30 49821 C 4628.1 -0.848936 1.68637 0
M  V30 49822 O 4627.45 -1.56304 0.942091 0
M  V30 49823 C 4627.5 0.777001 3.53051 0
M  V30 49824 O 4627.22 2.14111 3.82215 0
M  V30 49825 C 4628.73 0.436511 4.41146 0
M  V30 49826 H 4625.95 0.217197 0.634875 0
M  V30 49827 H 4628.49 1.23374 1.63092 0
M  V30 49828 H 4626.64 0.161221 3.87064 0
M  V30 49829 H 4627.06 2.18471 4.76834 0
M  V30 49830 H 4628.53 0.631363 5.48377 0
M  V30 49831 H 4629.01 -0.627534 4.34694 0
M  V30 49832 H 4629.62 1.03006 4.12638 0
M  V30 49833 N 4627.93 -1.42001 0.683638 0
M  V30 49834 C 4629.18 -2.00638 0.206751 0
M  V30 49835 C 4629.49 -1.54724 -1.19665 0
M  V30 49836 O 4630.7 -2.05839 -1.77038 0
M  V30 49837 C 4629.16 -3.58486 0.318758 0
M  V30 49838 C 4628.76 -4.13384 1.72677 0
M  V30 49839 C 4630.51 -4.24385 -0.0989649 0
M  V30 49840 C 4628.41 -5.63626 1.79107 0
M  V30 49841 H 4627.34 -0.750405 0.0735371 0
M  V30 49842 H 4630 -1.62621 0.850105 0
M  V30 49843 H 4628.38 -3.94049 -0.392643 0
M  V30 49844 H 4629.55 -3.89264 2.46597 0
M  V30 49845 H 4627.87 -3.59969 2.09312 0
M  V30 49846 H 4630.46 -5.34653 -0.0711954 0
M  V30 49847 H 4630.81 -4.00509 -1.13572 0
M  V30 49848 H 4631.34 -3.93814 0.561737 0
M  V30 49849 H 4628.08 -5.92313 2.80794 0
M  V30 49850 H 4627.6 -5.8971 1.09556 0
M  V30 49851 H 4629.28 -6.28196 1.54852 0
M  V30 49852 N 4629.41 -0.427565 -1.51689 0
M  V30 49853 C 4630.82 0.0378211 -1.86662 0
M  V30 49854 C 4631.17 1.42815 -1.3453 0
M  V30 49855 O 4630.3 2.05034 -0.692086 0
M  V30 49856 C 4630.89 0.0754075 -3.38716 0
M  V30 49857 C 4629.45 0.485177 -3.7326 0
M  V30 49858 C 4628.6 -0.328495 -2.75347 0
M  V30 49859 H 4631.55 -0.643841 -1.45053 0
M  V30 49860 H 4631.57 0.886926 -3.70019 0
M  V30 49861 H 4631.08 -0.93662 -3.76629 0
M  V30 49862 H 4629.18 1.50317 -3.40933 0
M  V30 49863 H 4629.3 0.216762 -4.78609 0
M  V30 49864 H 4627.66 0.211816 -2.53818 0
M  V30 49865 H 4628.44 -1.33922 -3.16101 0
M  V30 49866 N 4630.89 1.568 -0.158588 0
M  V30 49867 C 4631.8 2.20919 0.78944 0
M  V30 49868 C 4632.81 1.19695 1.2629 0
M  V30 49869 O 4633.99 1.52313 1.31768 0
M  V30 49870 C 4631.05 2.82734 2.00655 0
M  V30 49871 C 4630.12 3.9912 1.5812 0
M  V30 49872 C 4629.35 4.57978 2.74029 0
M  V30 49873 O 4629.57 4.15718 3.90557 0
M  V30 49874 O 4628.51 5.48055 2.48835 0
M  V30 49875 H 4632.33 3.02465 0.273574 0
M  V30 49876 H 4629.92 1.49241 0.0690024 0
M  V30 49877 H 4631.8 3.21978 2.71861 0
M  V30 49878 H 4630.47 2.04192 2.51172 0
M  V30 49879 H 4629.38 3.6457 0.839026 0
M  V30 49880 H 4630.71 4.79216 1.12308 0
M  V30 49881 N 4632.37 -0.115176 1.57179 0
M  V30 49882 C 4633.3 -1.17159 1.95829 0
M  V30 49883 C 4634.28 -1.39909 0.828512 0
M  V30 49884 O 4635.46 -1.54 1.08703 0
M  V30 49885 C 4632.59 -2.5247 2.2578 0
M  V30 49886 C 4631.63 -2.46124 3.48318 0
M  V30 49887 S 4632.47 -1.89718 5.00767 0
M  V30 49888 C 4633.62 -3.26694 5.33874 0
M  V30 49889 H 4633.86 -0.842003 2.85127 0
M  V30 49890 H 4631.39 -0.322083 1.51003 0
M  V30 49891 H 4633.35 -3.30324 2.43714 0
M  V30 49892 H 4632.01 -2.82605 1.37089 0
M  V30 49893 H 4631.2 -3.45806 3.66653 0
M  V30 49894 H 4630.8 -1.76392 3.2979 0
M  V30 49895 H 4633.09 -4.22916 5.2929 0
M  V30 49896 H 4634.04 -3.13183 6.35076 0
M  V30 49897 H 4634.45 -3.25299 4.61346 0
M  V30 49898 N 4633.84 -1.52813 -0.385464 0
M  V30 49899 C 4635.26 -1.42143 -0.725779 0
M  V30 49900 C 4635.46 -0.544658 -1.93999 0
M  V30 49901 O 4634.52 -0.019458 -2.52493 0
M  V30 49902 C 4635.83 -2.85046 -0.957568 0
M  V30 49903 C 4637.38 -2.94547 -1.05882 0
M  V30 49904 C 4637.85 -4.38469 -1.32322 0
M  V30 49905 N 4639.34 -4.41809 -1.39136 0
M  V30 49906 C 4640.08 -5.50255 -1.61265 0
M  V30 49907 N 4639.57 -6.68781 -1.80842 0
M  V30 49908 N 4641.37 -5.37804 -1.63473 0
M  V30 49909 H 4633.52 -2.08337 0.413456 0
M  V30 49910 H 4635.78 -0.940012 0.122808 0
M  V30 49911 H 4635.49 -3.51431 -0.137445 0
M  V30 49912 H 4635.36 -3.27512 -1.87125 0
M  V30 49913 H 4637.75 -2.28327 -1.86951 0
M  V30 49914 H 4637.83 -2.55504 -0.122967 0
M  V30 49915 H 4637.47 -5.05256 -0.517615 0
M  V30 49916 H 4637.4 -4.75067 -2.27197 0
M  V30 49917 H 4639.89 -3.56382 -1.25701 0
M  V30 49918 H 4640.21 -7.47204 -1.97245 0
M  V30 49919 H 4638.55 -6.71803 -1.7806 0
M  V30 49920 H 4641.74 -4.44176 -1.47733 0
M  V30 49921 H 4641.92 -6.22388 -1.8038 0
M  V30 49922 N 4635.32 0.644118 -1.43836 0
M  V30 49923 C 4636.25 1.76809 -1.52515 0
M  V30 49924 C 4637.23 1.65821 -0.37911 0
M  V30 49925 O 4638.42 1.84779 -0.597531 0
M  V30 49926 C 4635.55 3.15283 -1.45651 0
M  V30 49927 C 4634.5 3.41044 -2.58598 0
M  V30 49928 C 4633.83 4.79413 -2.36786 0
M  V30 49929 C 4635.13 3.34888 -4.00808 0
M  V30 49930 H 4636.82 1.69803 -2.46591 0
M  V30 49931 H 4634.37 0.815501 -1.18683 0
M  V30 49932 H 4636.32 3.93675 -1.50325 0
M  V30 49933 H 4635.04 3.23041 -0.480838 0
M  V30 49934 H 4633.7 2.65026 -2.53292 0
M  V30 49935 H 4633.35 4.83858 -1.37441 0
M  V30 49936 H 4633.05 4.97609 -3.12505 0
M  V30 49937 H 4634.58 5.60052 -2.43258 0
M  V30 49938 H 4635.99 4.03204 -4.07553 0
M  V30 49939 H 4634.39 3.6462 -4.76626 0
M  V30 49940 H 4635.46 2.32913 -4.25299 0
M  V30 49941 N 4636.8 1.30518 0.883332 0
M  V30 49942 C 4638.21 1.17514 1.45077 0
M  V30 49943 C 4638.56 -0.223537 1.94922 0
M  V30 49944 O 4637.69 -1.12034 1.85141 0
M  V30 49945 C 4638.28 2.12724 2.63693 0
M  V30 49946 C 4636.84 2.03694 3.16522 0
M  V30 49947 C 4635.99 2.02712 1.89217 0
M  V30 49948 H 4638.94 1.42764 0.693115 0
M  V30 49949 H 4638.96 1.70903 3.39959 0
M  V30 49950 H 4638.47 3.14513 2.27384 0
M  V30 49951 H 4636.57 1.05052 3.57484 0
M  V30 49952 H 4636.69 2.92159 3.7971 0
M  V30 49953 H 4635.05 1.47537 2.07617 0
M  V30 49954 H 4635.83 3.06234 1.55163 0
M  V30 49955 N 4638.28 -1.09589 1.13261 0
M  V30 49956 C 4639.51 -1.85227 0.915114 0
M  V30 49957 C 4639.92 -1.81347 -0.539435 0
M  V30 49958 O 4639.26 -1.20669 -1.38509 0
M  V30 49959 C 4639.32 -3.3427 1.32302 0
M  V30 49960 C 4638.98 -3.619 2.79065 0
M  V30 49961 C 4639.98 -3.57763 3.77228 0
M  V30 49962 C 4637.67 -3.90298 3.16184 0
M  V30 49963 C 4639.66 -3.81634 5.10524 0
M  V30 49964 C 4637.35 -4.13824 4.49659 0
M  V30 49965 C 4638.35 -4.09483 5.46638 0
M  V30 49966 O 4638.03 -4.32402 6.77705 0
M  V30 49967 H 4637.77 -0.591985 0.326388 0
M  V30 49968 H 4640.32 -1.39394 1.50859 0
M  V30 49969 H 4638.55 -3.80802 0.672801 0
M  V30 49970 H 4640.24 -3.91316 1.07826 0
M  V30 49971 H 4641 -3.35853 3.49897 0
M  V30 49972 H 4636.88 -3.92803 2.41303 0
M  V30 49973 H 4640.43 -3.78161 5.86208 0
M  V30 49974 H 4636.32 -4.35215 4.76716 0
M  V30 49975 H 4637.09 -4.49872 6.83782 0
M  V30 49976 N 4639.76 -0.925856 -1.27537 0
M  V30 49977 C 4640.98 -0.581579 -1.98558 0
M  V30 49978 C 4641.4 0.839981 -1.69085 0
M  V30 49979 O 4640.76 1.55802 -0.950367 0
M  V30 49980 C 4640.81 -0.795713 -3.52634 0
M  V30 49981 O 4640.53 -2.16135 -3.81074 0
M  V30 49982 C 4642.03 -0.459899 -4.40908 0
M  V30 49983 H 4639.25 -0.220561 -0.633714 0
M  V30 49984 H 4641.79 -1.24237 -1.62436 0
M  V30 49985 H 4639.95 -0.181746 -3.86973 0
M  V30 49986 H 4640.36 -2.20997 -4.75668 0
M  V30 49987 H 4641.84 -0.660436 -5.48035 0
M  V30 49988 H 4642.31 0.604472 -4.3502 0
M  V30 49989 H 4642.92 -1.05193 -4.12086 0
M  V30 49990 N 4641.23 1.41636 -0.691159 0
M  V30 49991 C 4642.48 2.00525 -0.217388 0
M  V30 49992 C 4642.8 1.55357 1.18843 0
M  V30 49993 O 4644 2.06775 1.75944 0
M  V30 49994 C 4642.46 3.58312 -0.337765 0
M  V30 49995 C 4642.07 4.12463 -1.74867 0
M  V30 49996 C 4643.81 4.24431 0.0764574 0
M  V30 49997 C 4641.72 5.62669 -1.82094 0
M  V30 49998 H 4640.65 0.750005 -0.0775156 0
M  V30 49999 H 4643.3 1.62167 -0.858718 0
M  V30 50000 H 4641.68 3.94251 0.37174 0
M  V30 50001 H 4642.85 3.87951 -2.48658 0
M  V30 50002 H 4641.17 3.58854 -2.11218 0
M  V30 50003 H 4643.77 5.34683 0.0428405 0
M  V30 50004 H 4644.11 4.01105 1.11446 0
M  V30 50005 H 4644.64 3.9351 -0.582614 0
M  V30 50006 H 4641.38 5.90816 -2.83932 0
M  V30 50007 H 4640.9 5.8912 -1.12681 0
M  V30 50008 H 4642.58 6.27366 -1.58181 0
M  V30 50009 N 4642.71 0.435603 1.5146 0
M  V30 50010 C 4643.96 -0.132936 2.01261 0
M  V30 50011 C 4644.27 -1.43937 1.32444 0
M  V30 50012 O 4645.48 -2.09075 1.73205 0
M  V30 50013 C 4643.94 -0.287454 3.5875 0
M  V30 50014 C 4643.54 1.00844 4.36503 0
M  V30 50015 C 4645.29 -0.809857 4.16703 0
M  V30 50016 C 4643.2 0.81966 5.85692 0
M  V30 50017 H 4642.13 -0.0534558 0.752103 0
M  V30 50018 H 4644.78 0.5651 1.74582 0
M  V30 50019 H 4643.16 -1.04845 3.81868 0
M  V30 50020 H 4644.33 1.77764 4.25131 0
M  V30 50021 H 4642.65 1.45925 3.89994 0
M  V30 50022 H 4645.24 -0.967558 5.25873 0
M  V30 50023 H 4645.59 -1.79183 3.75765 0
M  V30 50024 H 4646.12 -0.107217 3.97655 0
M  V30 50025 H 4642.86 1.77396 6.3104 0
M  V30 50026 H 4642.38 0.0902316 5.99732 0
M  V30 50027 H 4644.06 0.472176 6.45275 0
M  V30 50028 N 4644.19 -1.56714 0.166901 0
M  V30 50029 C 4645.42 -2.01121 -0.485573 0
M  V30 50030 C 4645.83 -1.04711 -1.57102 0
M  V30 50031 O 4645.19 -0.0472565 -1.82439 0
M  V30 50032 C 4645.24 -3.45365 -1.06796 0
M  V30 50033 O 4644.96 -4.38092 -0.0258455 0
M  V30 50034 C 4646.46 -4.05151 -1.7991 0
M  V30 50035 H 4643.68 -0.659315 -0.124681 0
M  V30 50036 H 4646.23 -2.02745 0.267333 0
M  V30 50037 H 4644.38 -3.4453 -1.77138 0
M  V30 50038 H 4644.8 -5.22521 -0.455214 0
M  V30 50039 H 4646.27 -5.08016 -2.15924 0
M  V30 50040 H 4646.75 -3.46992 -2.69246 0
M  V30 50041 H 4647.35 -4.09676 -1.14219 0
M  V30 50042 N 4645.67 0.106839 -1.57237 0
M  V30 50043 C 4646.9 0.826322 -1.89683 0
M  V30 50044 C 4647.31 1.72854 -0.759414 0
M  V30 50045 O 4646.67 1.80504 0.2692 0
M  V30 50046 C 4646.72 1.64956 -3.2167 0
M  V30 50047 O 4646.44 0.783653 -4.31034 0
M  V30 50048 C 4647.94 2.47313 -3.67901 0
M  V30 50049 H 4645.16 0.236905 -0.627787 0
M  V30 50050 H 4647.71 0.0875875 -2.04312 0
M  V30 50051 H 4645.86 2.34092 -3.08674 0
M  V30 50052 H 4646.27 1.35266 -5.06758 0
M  V30 50053 H 4647.75 3.00587 -4.62981 0
M  V30 50054 H 4648.23 3.25236 -2.95158 0
M  V30 50055 H 4648.83 1.83397 -3.83726 0
M  V30 50056 N 4647.15 1.53016 0.377354 0
M  V30 50057 C 4648.56 1.60442 0.954742 0
M  V30 50058 C 4648.91 0.464485 1.90623 0
M  V30 50059 O 4648.03 -0.410795 2.12465 0
M  V30 50060 C 4648.63 2.90803 1.73837 0
M  V30 50061 C 4647.19 3.00603 2.26528 0
M  V30 50062 C 4646.33 2.55649 1.0742 0
M  V30 50063 H 4649.29 1.57926 0.15652 0
M  V30 50064 H 4649.31 2.77944 2.59861 0
M  V30 50065 H 4648.82 3.7375 1.0456 0
M  V30 50066 H 4646.92 2.22219 2.99081 0
M  V30 50067 H 4647.03 4.05465 2.55216 0
M  V30 50068 H 4645.4 2.10244 1.4377 0
M  V30 50069 H 4646.18 3.41001 0.396609 0
M  V30 50070 N 4648.62 -0.636481 1.44176 0
M  V30 50071 C 4650.04 -1.21801 1.41497 0
M  V30 50072 C 4650.39 -1.95785 0.127569 0
M  V30 50073 O 4649.51 -2.02149 -0.772305 0
M  V30 50074 C 4650.11 -2.21542 2.56329 0
M  V30 50075 C 4648.67 -2.75134 2.56862 0
M  V30 50076 C 4647.81 -1.50044 2.332 0
M  V30 50077 H 4650.76 -0.427478 1.52834 0
M  V30 50078 H 4650.78 -3.04042 2.28776 0
M  V30 50079 H 4650.3 -1.67667 3.50014 0
M  V30 50080 H 4648.4 -3.33027 1.67104 0
M  V30 50081 H 4648.51 -3.21538 3.55176 0
M  V30 50082 H 4646.87 -1.77987 1.82189 0
M  V30 50083 H 4647.66 -0.980787 3.28992 0
M  V30 50084 N 4650.1 -1.30985 -0.876398 0
M  V30 50085 C 4651.03 -1.20675 -1.99899 0
M  V30 50086 C 4652.01 -0.0954137 -1.69832 0
M  V30 50087 O 4653.2 -0.278917 -1.92187 0
M  V30 50088 C 4650.33 -0.906668 -3.35256 0
M  V30 50089 C 4649.28 -1.97688 -3.7961 0
M  V30 50090 C 4648.61 -1.52961 -5.12354 0
M  V30 50091 C 4649.91 -3.38914 -3.9741 0
M  V30 50092 H 4651.6 -2.14593 -2.08782 0
M  V30 50093 H 4649.15 -1.03312 -1.00313 0
M  V30 50094 H 4651.1 -0.821171 -4.13322 0
M  V30 50095 H 4649.83 0.0681821 -3.26529 0
M  V30 50096 H 4648.48 -2.05216 -3.0378 0
M  V30 50097 H 4648.13 -0.542795 -5.00063 0
M  V30 50098 H 4647.83 -2.24552 -5.43001 0
M  V30 50099 H 4649.36 -1.45807 -5.92936 0
M  V30 50100 H 4650.77 -3.34097 -4.65889 0
M  V30 50101 H 4649.17 -4.08666 -4.39445 0
M  V30 50102 H 4650.24 -3.80173 -3.00992 0
M  V30 50103 N 4651.58 1.08987 -1.13841 0
M  V30 50104 C 4652.53 2.15745 -0.81991 0
M  V30 50105 C 4653.5 1.64637 0.219968 0
M  V30 50106 O 4654.68 1.90582 0.0912087 0
M  V30 50107 C 4651.82 3.43819 -0.297034 0
M  V30 50108 C 4650.94 4.08805 -1.39651 0
M  V30 50109 C 4650.07 5.24652 -0.831498 0
M  V30 50110 C 4649.11 5.81568 -1.90906 0
M  V30 50111 N 4648.25 6.88769 -1.36166 0
M  V30 50112 H 4653.09 2.42332 -1.73434 0
M  V30 50113 H 4650.62 1.18932 -0.865655 0
M  V30 50114 H 4652.58 4.17193 0.0242873 0
M  V30 50115 H 4651.21 3.17537 0.580516 0
M  V30 50116 H 4650.26 3.33251 -1.83434 0
M  V30 50117 H 4651.58 4.47133 -2.21074 0
M  V30 50118 H 4650.73 6.0494 -0.461728 0
M  V30 50119 H 4649.47 4.87698 0.0137606 0
M  V30 50120 H 4648.47 4.99937 -2.28785 0
M  V30 50121 H 4649.7 6.20582 -2.7578 0
M  V30 50122 H 4647.64 6.53786 -0.538484 0
M  V30 50123 H 4647.56 7.2589 -2.11233 0
M  V30 50124 H 4648.83 7.72803 -1.01961 0
M  V30 50125 N 4653.06 0.932607 1.27044 0
M  V30 50126 C 4654.34 0.493836 1.89263 0
M  V30 50127 C 4654.72 -1.02827 1.84363 0
M  V30 50128 O 4654.06 -1.88456 1.29215 0
M  V30 50129 C 4654.27 1.04548 3.32973 0
M  V30 50130 C 4655.62 1.10893 4.09863 0
M  V30 50131 O 4656.65 0.995447 3.42008 0
M  V30 50132 O 4655.5 1.28436 5.31193 0
M  V30 50133 H 4652.6 0.159624 0.811449 0
M  V30 50134 H 4655.14 1.02462 1.35276 0
M  V30 50135 H 4653.92 2.08925 3.30857 0
M  V30 50136 H 4653.54 0.496633 3.94486 0
M  V30 50137 N 4654.54 -1.41267 0.698661 0
M  V30 50138 C 4655.78 -2.01179 0.230936 0
M  V30 50139 C 4656.11 -1.55342 -1.17043 0
M  V30 50140 O 4655.37 -0.756839 -1.80473 0
M  V30 50141 C 4655.67 -3.56591 0.240317 0
M  V30 50142 C 4655.33 -4.2195 1.58963 0
M  V30 50143 C 4653.99 -4.39517 1.95903 0
M  V30 50144 C 4656.35 -4.58568 2.4772 0
M  V30 50145 C 4653.67 -4.9098 3.21178 0
M  V30 50146 C 4656.03 -5.11422 3.72331 0
M  V30 50147 C 4654.69 -5.27201 4.09409 0
M  V30 50148 H 4653.96 -0.736166 0.0845055 0
M  V30 50149 H 4656.61 -1.69121 0.89836 0
M  V30 50150 H 4654.91 -3.88458 -0.51066 0
M  V30 50151 H 4656.61 -4.00758 -0.139155 0
M  V30 50152 H 4653.2 -4.08652 1.29233 0
M  V30 50153 H 4657.38 -4.44647 2.20461 0
M  V30 50154 H 4652.64 -5.01381 3.49896 0
M  V30 50155 H 4656.81 -5.38736 4.41289 0
M  V30 50156 H 4654.44 -5.66841 5.06553 0
M  V30 50157 N 4656.01 -0.44363 -1.51227 0
M  V30 50158 C 4657.24 0.121576 -2.07043 0
M  V30 50159 C 4657.66 1.35151 -1.30827 0
M  V30 50160 O 4657.02 1.77929 -0.347997 0
M  V30 50161 C 4657.07 0.416114 -3.58191 0
M  V30 50162 O 4656.17 1.5015 -3.84095 0
M  V30 50163 H 4655.52 -0.00089471 -0.663999 0
M  V30 50164 H 4658.05 -0.626775 -1.94763 0
M  V30 50165 H 4658.06 0.664726 -4.02549 0
M  V30 50166 H 4656.73 -0.482798 -4.13088 0
M  V30 50167 H 4655.31 1.24235 -3.51596 0
M  V30 50168 N 4657.49 1.56623 -0.175209 0
M  V30 50169 C 4658.42 2.21157 0.749117 0
M  V30 50170 C 4659.4 1.1684 1.23622 0
M  V30 50171 O 4660.59 1.45282 1.28868 0
M  V30 50172 C 4657.72 2.85537 1.97701 0
M  V30 50173 C 4656.67 3.95927 1.62561 0
M  V30 50174 C 4656 4.47375 2.92848 0
M  V30 50175 C 4657.3 5.15326 0.850657 0
M  V30 50176 H 4658.99 2.98654 0.21119 0
M  V30 50177 H 4656.54 1.43651 0.100138 0
M  V30 50178 H 4658.49 3.29359 2.6287 0
M  V30 50179 H 4657.22 2.05415 2.53914 0
M  V30 50180 H 4655.88 3.52766 0.997595 0
M  V30 50181 H 4655.52 3.64039 3.47109 0
M  V30 50182 H 4655.22 5.21849 2.70088 0
M  V30 50183 H 4656.75 4.93886 3.59039 0
M  V30 50184 H 4658.16 5.55817 1.40501 0
M  V30 50185 H 4656.56 5.95742 0.721945 0
M  V30 50186 H 4657.63 4.84661 -0.152252 0
M  V30 50187 N 4658.97 -0.0984986 1.57292 0
M  V30 50188 C 4660.22 -0.798704 1.87062 0
M  V30 50189 C 4660.57 -1.76511 0.765612 0
M  V30 50190 O 4659.87 -1.90182 -0.232685 0
M  V30 50191 C 4660.06 -1.56916 3.21111 0
M  V30 50192 C 4659.89 -0.67887 4.44546 0
M  V30 50193 C 4658.66 -0.325894 5.04248 0
M  V30 50194 C 4660.86 0.0126523 5.14298 0
M  V30 50195 N 4658.84 0.572917 6.11221 0
M  V30 50196 C 4660.21 0.769662 6.15204 0
M  V30 50197 C 4662.26 0.0869295 4.97824 0
M  V30 50198 C 4660.97 1.594 7.01416 0
M  V30 50199 C 4662.99 0.89816 5.8454 0
M  V30 50200 C 4662.36 1.6433 6.84964 0
M  V30 50201 H 4658.45 -0.268543 0.734445 0
M  V30 50202 H 4661.04 -0.061398 1.94603 0
M  V30 50203 H 4659.21 -2.27737 3.14628 0
M  V30 50204 H 4660.94 -2.2163 3.38618 0
M  V30 50205 H 4657.7 -0.672785 4.68797 0
M  V30 50206 H 4658.12 1.01478 6.69351 0
M  V30 50207 H 4662.76 -0.474815 4.20125 0
M  V30 50208 H 4660.48 2.16683 7.78508 0
M  V30 50209 H 4664.07 0.958261 5.73854 0
M  V30 50210 H 4662.95 2.26092 7.50901 0
M  V30 50211 N 4660.45 -1.53214 -0.369234 0
M  V30 50212 C 4661.36 -1.82347 -1.47603 0
M  V30 50213 C 4662.38 -0.711588 -1.58784 0
M  V30 50214 O 4663.55 -1.00126 -1.74747 0
M  V30 50215 C 4660.62 -2.00403 -2.82913 0
M  V30 50216 C 4659.68 -3.24307 -2.81289 0
M  V30 50217 C 4658.91 -3.41492 -4.10145 0
M  V30 50218 O 4659.13 -2.63051 -5.06123 0
M  V30 50219 O 4658.07 -4.34832 -4.16179 0
M  V30 50220 H 4661.89 -2.76371 -1.25909 0
M  V30 50221 H 4659.48 -1.38549 -0.558985 0
M  V30 50222 H 4661.36 -2.13872 -3.63093 0
M  V30 50223 H 4660.04 -1.0957 -3.04592 0
M  V30 50224 H 4658.94 -3.16264 -1.9982 0
M  V30 50225 H 4660.28 -4.15051 -2.64563 0
M  V30 50226 N 4661.93 0.628826 -1.44511 0
M  V30 50227 C 4662.87 1.74068 -1.51555 0
M  V30 50228 C 4663.84 1.62083 -0.363078 0
M  V30 50229 O 4665.03 1.81973 -0.573631 0
M  V30 50230 C 4662.17 3.12322 -1.46795 0
M  V30 50231 C 4661.28 3.35267 -2.72434 0
M  V30 50232 C 4660.42 4.63506 -2.59491 0
M  V30 50233 C 4659.46 4.79637 -3.80283 0
M  V30 50234 N 4658.59 5.99155 -3.66002 0
M  V30 50235 H 4663.43 1.67384 -2.4655 0
M  V30 50236 H 4660.97 0.816484 -1.2236 0
M  V30 50237 H 4662.93 3.92281 -1.42025 0
M  V30 50238 H 4661.56 3.18016 -0.553656 0
M  V30 50239 H 4660.61 2.49232 -2.8738 0
M  V30 50240 H 4661.92 3.43065 -3.62088 0
M  V30 50241 H 4661.08 5.51629 -2.52568 0
M  V30 50242 H 4659.82 4.5807 -1.674 0
M  V30 50243 H 4658.82 3.89943 -3.87588 0
M  V30 50244 H 4660.05 4.86885 -4.73412 0
M  V30 50245 H 4657.99 5.94805 -2.76665 0
M  V30 50246 H 4657.91 6.0802 -4.49275 0
M  V30 50247 H 4659.18 6.89833 -3.62974 0
M  V30 50248 N 4663.41 1.31448 0.869439 0
M  V30 50249 C 4664.63 1.24127 1.65529 0
M  V30 50250 C 4665.05 -0.193321 1.87808 0
M  V30 50251 O 4664.41 -1.12552 1.4366 0
M  V30 50252 C 4664.46 1.98239 3.02297 0
M  V30 50253 O 4664.18 3.36099 2.81014 0
M  V30 50254 C 4665.68 1.97765 3.96742 0
M  V30 50255 H 4662.9 0.428887 0.51604 0
M  V30 50256 H 4665.44 1.73332 1.08519 0
M  V30 50257 H 4663.6 1.52794 3.55995 0
M  V30 50258 H 4664.01 3.73843 3.67888 0
M  V30 50259 H 4665.49 2.54131 4.90022 0
M  V30 50260 H 4665.96 0.960288 4.28573 0
M  V30 50261 H 4666.57 2.43091 3.4898 0
M  V30 50262 N 4664.88 -1.08381 1.14417 0
M  V30 50263 C 4666.13 -1.80416 0.910743 0
M  V30 50264 C 4666.45 -1.8666 -0.564178 0
M  V30 50265 O 4665.72 -1.3599 -1.41009 0
M  V30 50266 H 4664.3 -0.668193 0.333958 0
M  V30 50267 H 4666.96 -1.31032 1.4428 0
M  V30 50268 H 4666.06 -2.83233 1.31092 0
M  V30 50269 N 4666.36 -0.939331 -1.26548 0
M  V30 50270 C 4667.29 -0.465124 -2.28821 0
M  V30 50271 C 4668.27 0.480635 -1.63168 0
M  V30 50272 O 4669.46 0.382888 -1.90388 0
M  V30 50273 C 4666.59 0.272219 -3.46232 0
M  V30 50274 C 4665.54 -0.586809 -4.23958 0
M  V30 50275 C 4664.87 0.280385 -5.33964 0
M  V30 50276 C 4666.17 -1.85721 -4.88165 0
M  V30 50277 H 4667.86 -1.31989 -2.68737 0
M  V30 50278 H 4665.41 -0.636107 -1.29189 0
M  V30 50279 H 4667.36 0.614986 -4.16888 0
M  V30 50280 H 4666.08 1.1611 -3.05264 0
M  V30 50281 H 4664.74 -0.912445 -3.55063 0
M  V30 50282 H 4664.39 1.16857 -4.89238 0
M  V30 50283 H 4664.09 -0.290967 -5.86879 0
M  V30 50284 H 4665.62 0.618464 -6.0746 0
M  V30 50285 H 4667.03 -1.5818 -5.51046 0
M  V30 50286 H 4665.43 -2.37299 -5.51189 0
M  V30 50287 H 4666.5 -2.56971 -4.1121 0
M  V30 50288 N 4667.84 1.40895 -0.706143 0
M  V30 50289 C 4668.79 2.30751 -0.0475285 0
M  V30 50290 C 4669.76 1.47681 0.760238 0
M  V30 50291 O 4670.94 1.76443 0.726115 0
M  V30 50292 C 4668.08 3.33818 0.875192 0
M  V30 50293 C 4667.19 4.31961 0.0579105 0
M  V30 50294 C 4666.33 5.22096 0.979242 0
M  V30 50295 C 4665.37 6.11902 0.155491 0
M  V30 50296 N 4664.51 6.94486 1.03119 0
M  V30 50297 H 4669.35 2.8651 -0.819513 0
M  V30 50298 H 4666.88 1.411 -0.415833 0
M  V30 50299 H 4668.84 3.92134 1.42432 0
M  V30 50300 H 4667.47 2.79584 1.61346 0
M  V30 50301 H 4666.52 3.75505 -0.608279 0
M  V30 50302 H 4667.83 4.95413 -0.580256 0
M  V30 50303 H 4666.99 5.85298 1.59723 0
M  V30 50304 H 4665.73 4.58896 1.65125 0
M  V30 50305 H 4664.73 5.4774 -0.475501 0
M  V30 50306 H 4665.96 6.77161 -0.512873 0
M  V30 50307 H 4663.9 6.33883 1.68902 0
M  V30 50308 H 4663.82 7.54666 0.448842 0
M  V30 50309 H 4665.09 7.62146 1.63566 0
M  V30 50310 N 4669.32 0.451643 1.5099 0
M  V30 50311 C 4670.23 -0.358349 2.31847 0
M  V30 50312 C 4671.24 -1.01433 1.41377 0
M  V30 50313 O 4672.42 -1.00656 1.74443 0
M  V30 50314 C 4669.48 -1.43693 3.1552 0
M  V30 50315 C 4668.55 -0.799594 4.21788 0
M  V30 50316 C 4667.78 -1.82678 5.01462 0
M  V30 50317 O 4668 -3.05088 4.81952 0
M  V30 50318 O 4666.94 -1.40938 5.85167 0
M  V30 50319 H 4670.76 0.302139 3.02193 0
M  V30 50320 H 4668.35 0.213877 1.47861 0
M  V30 50321 H 4670.23 -2.06214 3.67497 0
M  V30 50322 H 4668.9 -2.08124 2.47923 0
M  V30 50323 H 4667.81 -0.135953 3.73853 0
M  V30 50324 H 4669.14 -0.198545 4.91799 0
M  V30 50325 N 4670.8 -1.56528 0.183513 0
M  V30 50326 C 4672.04 -1.97246 -0.458288 0
M  V30 50327 C 4672.37 -1.06998 -1.62425 0
M  V30 50328 O 4671.63 -0.10661 -1.95409 0
M  V30 50329 C 4671.92 -3.43942 -0.971516 0
M  V30 50330 C 4671.59 -4.50829 0.0798369 0
M  V30 50331 C 4670.25 -4.79785 0.368752 0
M  V30 50332 C 4672.6 -5.15135 0.792819 0
M  V30 50333 C 4669.93 -5.7034 1.37583 0
M  V30 50334 C 4672.28 -6.06777 1.78896 0
M  V30 50335 C 4670.95 -6.34094 2.0852 0
M  V30 50336 H 4670.22 -0.721774 -0.167699 0
M  V30 50337 H 4672.87 -1.89471 0.278043 0
M  V30 50338 H 4671.17 -3.4873 -1.7859 0
M  V30 50339 H 4672.87 -3.72796 -1.4773 0
M  V30 50340 H 4669.46 -4.28318 -0.155517 0
M  V30 50341 H 4673.64 -4.92866 0.582832 0
M  V30 50342 H 4668.9 -5.89783 1.61138 0
M  V30 50343 H 4673.07 -6.55669 2.34673 0
M  V30 50344 H 4670.7 -7.04064 2.86702 0
M  V30 50345 N 4672.27 0.0901557 -1.57342 0
M  V30 50346 C 4673.2 1.10969 -2.05446 0
M  V30 50347 C 4674.19 1.41479 -0.944333 0
M  V30 50348 O 4675.37 1.51424 -1.21591 0
M  V30 50349 C 4672.5 2.42822 -2.48304 0
M  V30 50350 C 4671.45 2.26708 -3.63026 0
M  V30 50351 C 4670.78 3.63782 -3.91876 0
M  V30 50352 C 4672.08 1.70352 -4.93738 0
M  V30 50353 H 4673.77 0.709461 -2.90873 0
M  V30 50354 H 4671.32 0.339825 -1.39933 0
M  V30 50355 H 4673.27 3.14421 -2.80566 0
M  V30 50356 H 4672 2.84789 -1.59883 0
M  V30 50357 H 4670.66 1.57553 -3.31017 0
M  V30 50358 H 4670.3 4.03286 -3.00615 0
M  V30 50359 H 4670 3.53845 -4.69114 0
M  V30 50360 H 4671.53 4.3684 -4.26618 0
M  V30 50361 H 4672.94 2.31797 -5.2435 0
M  V30 50362 H 4671.34 1.71161 -5.75173 0
M  V30 50363 H 4672.41 0.663373 -4.80341 0
M  V30 50364 N 4673.75 1.53407 0.361103 0
M  V30 50365 C 4674.7 1.80161 1.44259 0
M  V30 50366 C 4675.67 0.646236 1.53013 0
M  V30 50367 O 4676.85 0.888877 1.6883 0
M  V30 50368 C 4673.99 2.00126 2.81147 0
M  V30 50369 C 4673.11 3.27843 2.81324 0
M  V30 50370 C 4672.24 3.37971 4.09816 0
M  V30 50371 C 4671.28 4.59704 4.04152 0
M  V30 50372 N 4670.42 4.66961 5.24302 0
M  V30 50373 H 4675.26 2.72442 1.20745 0
M  V30 50374 H 4672.8 1.34956 0.585248 0
M  V30 50375 H 4674.75 2.09689 3.60675 0
M  V30 50376 H 4673.38 1.11177 3.0305 0
M  V30 50377 H 4672.44 3.27211 1.94003 0
M  V30 50378 H 4673.75 4.17451 2.73012 0
M  V30 50379 H 4672.9 3.4687 4.97761 0
M  V30 50380 H 4671.64 2.46387 4.20886 0
M  V30 50381 H 4670.65 4.50901 3.14593 0
M  V30 50382 H 4671.87 5.52634 3.94681 0
M  V30 50383 H 4669.82 3.78279 5.35949 0
M  V30 50384 H 4669.73 5.5048 5.18177 0
M  V30 50385 H 4671 4.80148 6.14067 0
M  V30 50386 N 4675.23 -0.621153 1.44843 0
M  V30 50387 C 4676.46 -1.40747 1.51651 0
M  V30 50388 C 4676.87 -1.88245 0.144616 0
M  V30 50389 O 4676.23 -1.61425 -0.851359 0
M  V30 50390 C 4676.28 -2.6211 2.48959 0
M  V30 50391 O 4676 -2.16589 3.80816 0
M  V30 50392 C 4677.5 -3.55126 2.65331 0
M  V30 50393 H 4674.72 -0.431307 0.514019 0
M  V30 50394 H 4677.27 -0.758768 1.89903 0
M  V30 50395 H 4675.42 -3.2305 2.13816 0
M  V30 50396 H 4675.84 -2.95342 4.33443 0
M  V30 50397 H 4677.31 -4.36862 3.37425 0
M  V30 50398 H 4677.79 -4.04586 1.709 0
M  V30 50399 H 4678.39 -3.00048 3.01416 0
M  V30 50400 N 4676.71 -1.31907 -0.862456 0
M  V30 50401 C 4677.94 -1.25004 -1.64869 0
M  V30 50402 C 4678.35 0.183359 -1.87908 0
M  V30 50403 O 4677.71 1.11789 -1.44255 0
M  V30 50404 C 4677.76 -1.9984 -3.01241 0
M  V30 50405 O 4677.48 -3.37585 -2.79228 0
M  V30 50406 C 4678.98 -1.99866 -3.95687 0
M  V30 50407 H 4676.2 -0.431617 -0.513758 0
M  V30 50408 H 4678.75 -1.73905 -1.07598 0
M  V30 50409 H 4676.9 -1.5468 -3.5518 0
M  V30 50410 H 4677.31 -3.75788 -3.65901 0
M  V30 50411 H 4678.79 -2.56726 -4.88667 0
M  V30 50412 H 4679.27 -0.983003 -4.28058 0
M  V30 50413 H 4679.87 -2.44939 -3.47685 0
M  V30 50414 N 4678.19 1.07773 -1.1499 0
M  V30 50415 C 4679.13 2.14864 -0.842747 0
M  V30 50416 C 4680.1 1.64861 0.202494 0
M  V30 50417 O 4681.29 1.90668 0.0709898 0
M  V30 50418 C 4678.43 3.43485 -0.333484 0
M  V30 50419 C 4677.54 4.07301 -1.43979 0
M  V30 50420 C 4676.68 5.2374 -0.887098 0
M  V30 50421 C 4675.72 5.7951 -1.97064 0
M  V30 50422 N 4674.85 6.87286 -1.43464 0
M  V30 50423 H 4679.69 2.40478 -1.75995 0
M  V30 50424 H 4677.23 1.18007 -0.878221 0
M  V30 50425 H 4679.19 4.17195 -0.019963 0
M  V30 50426 H 4677.82 3.18135 0.546805 0
M  V30 50427 H 4676.87 3.31287 -1.86958 0
M  V30 50428 H 4678.18 4.44763 -2.25804 0
M  V30 50429 H 4677.34 6.04417 -0.525864 0
M  V30 50430 H 4676.07 4.87685 -0.0379671 0
M  V30 50431 H 4675.08 4.97483 -2.34075 0
M  V30 50432 H 4676.3 6.17622 -2.82347 0
M  V30 50433 H 4674.25 6.53178 -0.607797 0
M  V30 50434 H 4674.17 7.23609 -2.1892 0
M  V30 50435 H 4675.44 7.71678 -1.10151 0
M  V30 50436 N 4679.66 0.946029 1.26048 0
M  V30 50437 C 4680.6 0.416741 2.25379 0
M  V30 50438 C 4681.61 -0.462657 1.56088 0
M  V30 50439 O 4682.8 -0.272321 1.76411 0
M  V30 50440 C 4679.9 -0.419693 3.36291 0
M  V30 50441 C 4679.07 0.444684 4.35134 0
M  V30 50442 C 4678.13 -0.33212 5.25151 0
M  V30 50443 O 4677.16 0.266523 5.68576 0
M  V30 50444 N 4678.36 -1.62743 5.57221 0
M  V30 50445 H 4681.12 1.27068 2.71429 0
M  V30 50446 H 4678.68 0.815441 1.39865 0
M  V30 50447 H 4680.68 -0.946875 3.93467 0
M  V30 50448 H 4679.25 -1.17446 2.89699 0
M  V30 50449 H 4678.47 1.15304 3.7696 0
M  V30 50450 H 4679.75 1.03496 4.98163 0
M  V30 50451 H 4679.15 -2.13585 5.2383 0
M  V30 50452 H 4677.71 -2.10075 6.17018 0
M  V30 50453 N 4681.14 -1.40518 0.713605 0
M  V30 50454 C 4682.37 -2.05759 0.260423 0
M  V30 50455 C 4682.79 -1.53407 -1.08849 0
M  V30 50456 O 4682.15 -0.668594 -1.68522 0
M  V30 50457 C 4682.2 -3.59744 0.248248 0
M  V30 50458 O 4681.3 -4.05126 -0.771168 0
M  V30 50459 H 4680.64 -0.65256 0.122726 0
M  V30 50460 H 4683.17 -1.79954 0.973531 0
M  V30 50461 H 4683.18 -4.07911 0.0852563 0
M  V30 50462 H 4681.86 -3.97214 1.23263 0
M  V30 50463 H 4680.44 -3.68424 -0.57606 0
M  V30 50464 N 4682.62 -0.459644 -1.50748 0
M  V30 50465 C 4683.87 0.0992784 -2.02256 0
M  V30 50466 C 4684.2 1.40746 -1.34242 0
M  V30 50467 O 4683.45 1.90378 -0.453295 0
M  V30 50468 C 4683.75 0.342741 -3.55753 0
M  V30 50469 C 4683.42 -0.882335 -4.42183 0
M  V30 50470 C 4682.08 -1.21825 -4.65524 0
M  V30 50471 C 4684.43 -1.69854 -4.92746 0
M  V30 50472 C 4681.76 -2.37064 -5.36673 0
M  V30 50473 C 4684.11 -2.84212 -5.65161 0
M  V30 50474 C 4682.77 -3.18231 -5.86758 0
M  V30 50475 H 4682.04 0.0363285 -0.740109 0
M  V30 50476 H 4684.69 -0.611393 -1.81478 0
M  V30 50477 H 4683 1.13554 -3.74984 0
M  V30 50478 H 4684.69 0.788983 -3.93162 0
M  V30 50479 H 4681.28 -0.610616 -4.24228 0
M  V30 50480 H 4685.47 -1.45222 -4.74578 0
M  V30 50481 H 4680.72 -2.63708 -5.51605 0
M  V30 50482 H 4684.9 -3.47811 -6.03324 0
M  V30 50483 H 4682.52 -4.07635 -6.41668 0
M  V30 50484 N 4684.1 1.56428 -0.191812 0
M  V30 50485 C 4685.38 1.89226 0.495265 0
M  V30 50486 C 4685.76 1.10484 1.79879 0
M  V30 50487 O 4685.1 0.204932 2.27579 0
M  V30 50488 C 4685.31 3.4155 0.717247 0
M  V30 50489 C 4686.66 4.11715 1.03809 0
M  V30 50490 O 4687.69 3.46983 0.805082 0
M  V30 50491 O 4686.54 5.26115 1.47869 0
M  V30 50492 H 4683.64 0.785797 0.257782 0
M  V30 50493 H 4686.18 1.6811 -0.23178 0
M  V30 50494 H 4684.96 3.90771 -0.203425 0
M  V30 50495 H 4684.58 3.68347 1.49687 0
M  V30 50496 N 4685.58 -0.0818102 1.57388 0
M  V30 50497 C 4686.51 -1.09877 2.06032 0
M  V30 50498 C 4687.49 -1.40976 0.951823 0
M  V30 50499 O 4688.67 -1.50777 1.22393 0
M  V30 50500 C 4685.8 -2.41502 2.49588 0
M  V30 50501 C 4684.76 -2.24779 3.64223 0
M  V30 50502 C 4684.08 -3.61698 3.938 0
M  V30 50503 C 4685.38 -1.67732 4.94635 0
M  V30 50504 H 4687.08 -0.694026 2.91245 0
M  V30 50505 H 4684.62 -0.332399 1.40111 0
M  V30 50506 H 4686.58 -3.12929 2.8223 0
M  V30 50507 H 4685.3 -2.83937 1.61391 0
M  V30 50508 H 4683.96 -1.55796 3.31848 0
M  V30 50509 H 4683.61 -4.01686 3.0275 0
M  V30 50510 H 4683.31 -3.51352 4.70984 0
M  V30 50511 H 4684.83 -4.34572 4.28929 0
M  V30 50512 H 4686.24 -2.29013 5.25572 0
M  V30 50513 H 4684.64 -1.68108 5.76073 0
M  V30 50514 H 4685.71 -0.637891 4.80686 0
M  V30 50515 N 4687.06 -1.53597 -0.352963 0
M  V30 50516 C 4688.28 -1.74624 -1.11898 0
M  V30 50517 C 4688.71 -0.479785 -1.81878 0
M  V30 50518 O 4688.06 0.567005 -1.72206 0
M  V30 50519 C 4688.11 -2.92037 -2.11535 0
M  V30 50520 O 4687.22 -2.61527 -3.18869 0
M  V30 50521 H 4686.56 -0.579542 -0.324078 0
M  V30 50522 H 4689.09 -2.00527 -0.406231 0
M  V30 50523 H 4689.1 -3.1856 -2.54919 0
M  V30 50524 H 4687.77 -3.83894 -1.59995 0
M  V30 50525 H 4686.35 -2.45862 -2.80368 0
M  V30 50526 N 4688.53 0.613463 -1.4517 0
M  V30 50527 C 4689.78 1.37466 -1.491 0
M  V30 50528 C 4690.11 1.93765 -0.129969 0
M  V30 50529 O 4689.39 1.7471 0.854797 0
M  V30 50530 C 4689.67 2.52692 -2.56551 0
M  V30 50531 C 4689.52 2.01628 -4.02077 0
M  V30 50532 C 4690.84 3.5484 -2.6034 0
M  V30 50533 H 4687.96 0.498483 -0.542847 0
M  V30 50534 H 4690.6 0.692063 -1.76948 0
M  V30 50535 H 4688.75 3.10922 -2.32937 0
M  V30 50536 H 4690.43 1.48093 -4.36882 0
M  V30 50537 H 4688.67 1.32673 -4.13014 0
M  V30 50538 H 4689.34 2.84665 -4.72938 0
M  V30 50539 H 4691.82 3.06441 -2.81484 0
M  V30 50540 H 4690.69 4.32961 -3.37396 0
M  V30 50541 H 4690.95 4.10073 -1.65205 0
M  V30 50542 N 4690.01 1.32363 0.855449 0
M  V30 50543 C 4690.96 1.21232 1.96396 0
M  V30 50544 C 4691.93 0.0946787 1.6583 0
M  V30 50545 O 4693.11 0.270087 1.88879 0
M  V30 50546 C 4690.25 0.940535 3.32036 0
M  V30 50547 C 4689.37 2.14289 3.75106 0
M  V30 50548 C 4688.5 1.80665 4.99533 0
M  V30 50549 C 4687.54 2.97226 5.35091 0
M  V30 50550 N 4686.68 2.63701 6.50697 0
M  V30 50551 H 4691.52 2.16049 2.05248 0
M  V30 50552 H 4689.05 1.07454 1.00459 0
M  V30 50553 H 4691.01 0.763455 4.10155 0
M  V30 50554 H 4689.64 0.0291547 3.22787 0
M  V30 50555 H 4688.69 2.43027 2.92646 0
M  V30 50556 H 4690.01 3.01482 3.97379 0
M  V30 50557 H 4689.16 1.59504 5.85357 0
M  V30 50558 H 4687.9 0.906846 4.79195 0
M  V30 50559 H 4686.9 3.1902 4.47779 0
M  V30 50560 H 4688.13 3.87938 5.57388 0
M  V30 50561 H 4686.08 1.7626 6.31877 0
M  V30 50562 H 4685.99 3.44424 6.72984 0
M  V30 50563 H 4687.26 2.45968 7.39676 0
M  V30 50564 N 4691.49 -1.07162 1.1556 0
M  V30 50565 C 4692.45 -2.12586 0.856719 0
M  V30 50566 C 4693.45 -1.6015 -0.144383 0
M  V30 50567 O 4694.64 -1.7399 0.0854774 0
M  V30 50568 C 4691.77 -3.39752 0.279525 0
M  V30 50569 H 4692.97 -2.40533 1.7912 0
M  V30 50570 H 4690.52 -1.23083 0.963342 0
M  V30 50571 H 4691.26 -3.17449 -0.663063 0
M  V30 50572 H 4691.04 -3.79114 1.00077 0
M  V30 50573 H 4692.53 -4.17507 0.0880581 0
M  V30 50574 N 4692.97 -0.9527 -1.25544 0
M  V30 50575 C 4693.9 -0.428688 -2.25155 0
M  V30 50576 C 4694.91 0.454373 -1.56331 0
M  V30 50577 O 4696.1 0.262961 -1.76552 0
M  V30 50578 C 4693.2 0.401853 -3.36509 0
M  V30 50579 C 4692.37 -0.467754 -4.34892 0
M  V30 50580 C 4691.43 0.304265 -5.2532 0
M  V30 50581 O 4690.46 -0.296673 -5.68426 0
M  V30 50582 N 4691.66 1.59786 -5.58076 0
M  V30 50583 H 4694.43 -1.28506 -2.70751 0
M  V30 50584 H 4691.99 -0.822847 -1.3943 0
M  V30 50585 H 4693.98 0.925995 -3.93964 0
M  V30 50586 H 4692.55 1.15908 -2.90317 0
M  V30 50587 H 4691.77 -1.17301 -3.76343 0
M  V30 50588 H 4693.06 -1.06136 -4.97607 0
M  V30 50589 H 4692.46 2.10804 -5.24955 0
M  V30 50590 H 4691.01 2.068 -6.18124 0
M  V30 50591 N 4694.45 1.40138 -0.721047 0
M  V30 50592 C 4695.68 2.04797 -0.272332 0
M  V30 50593 C 4696.08 1.54446 1.09284 0
M  V30 50594 O 4695.43 0.698401 1.69906 0
M  V30 50595 C 4695.49 3.59047 -0.180397 0
M  V30 50596 C 4695.15 4.32312 -1.48175 0
M  V30 50597 C 4696.15 4.59894 -2.42474 0
M  V30 50598 C 4693.83 4.71119 -1.74218 0
M  V30 50599 C 4695.83 5.25276 -3.6106 0
M  V30 50600 C 4693.52 5.36232 -2.93085 0
M  V30 50601 C 4694.51 5.63241 -3.86328 0
M  V30 50602 O 4694.2 6.27007 -5.03108 0
M  V30 50603 H 4693.93 0.665414 -0.119162 0
M  V30 50604 H 4696.49 1.80432 -0.981496 0
M  V30 50605 H 4694.72 3.82253 0.584755 0
M  V30 50606 H 4696.41 4.05222 0.234476 0
M  V30 50607 H 4697.17 4.30371 -2.23619 0
M  V30 50608 H 4693.05 4.49462 -1.02493 0
M  V30 50609 H 4696.6 5.46273 -4.33856 0
M  V30 50610 H 4692.49 5.65174 -3.11846 0
M  V30 50611 H 4693.26 6.45503 -5.03258 0
M  V30 50612 N 4695.92 0.467632 1.50502 0
M  V30 50613 C 4696.87 -0.328333 2.28453 0
M  V30 50614 C 4697.84 -0.990266 1.33353 0
M  V30 50615 O 4699.03 -1.00337 1.62287 0
M  V30 50616 C 4696.17 -1.40637 3.15143 0
M  V30 50617 C 4695.28 -0.75956 4.2527 0
M  V30 50618 C 4694.41 -1.8152 4.99223 0
M  V30 50619 C 4693.45 -1.14845 6.0123 0
M  V30 50620 N 4692.59 -2.14678 6.68474 0
M  V30 50621 H 4697.43 0.342707 2.96023 0
M  V30 50622 H 4694.97 0.180853 1.45984 0
M  V30 50623 H 4696.92 -2.04302 3.63754 0
M  V30 50624 H 4695.55 -2.04662 2.49626 0
M  V30 50625 H 4694.61 -0.0104334 3.80399 0
M  V30 50626 H 4695.92 -0.233068 4.98255 0
M  V30 50627 H 4695.07 -2.52774 5.51535 0
M  V30 50628 H 4693.81 -2.37549 4.25936 0
M  V30 50629 H 4692.82 -0.421518 5.48182 0
M  V30 50630 H 4694.04 -0.595097 6.76488 0
M  V30 50631 H 4691.99 -2.69731 5.97981 0
M  V30 50632 H 4691.9 -1.67005 7.37323 0
M  V30 50633 H 4693.17 -2.85323 7.25404 0
M  V30 50634 N 4697.4 -1.56324 0.200105 0
M  V30 50635 C 4698.35 -2.19323 -0.718756 0
M  V30 50636 C 4699.32 -1.14202 -1.20611 0
M  V30 50637 O 4700.5 -1.42473 -1.26909 0
M  V30 50638 C 4697.64 -2.86048 -1.93056 0
M  V30 50639 C 4696.76 -4.05707 -1.4841 0
M  V30 50640 C 4695.89 -4.60275 -2.6518 0
M  V30 50641 C 4694.93 -5.72281 -2.17165 0
M  V30 50642 N 4694.07 -6.21233 -3.2713 0
M  V30 50643 H 4698.91 -2.97487 -0.174785 0
M  V30 50644 H 4696.44 -1.46911 -0.0745278 0
M  V30 50645 H 4698.4 -3.22906 -2.64173 0
M  V30 50646 H 4697.03 -2.10439 -2.44776 0
M  V30 50647 H 4696.08 -3.74478 -0.668624 0
M  V30 50648 H 4697.4 -4.86703 -1.09187 0
M  V30 50649 H 4696.55 -4.99465 -3.44412 0
M  V30 50650 H 4695.29 -3.78397 -3.0768 0
M  V30 50651 H 4694.29 -5.32615 -1.36388 0
M  V30 50652 H 4695.52 -6.5598 -1.7569 0
M  V30 50653 H 4693.47 -5.42276 -3.69152 0
M  V30 50654 H 4693.38 -6.97294 -2.92091 0
M  V30 50655 H 4694.65 -6.65077 -4.06561 0
M  V30 50656 N 4698.88 0.0734624 -1.57429 0
M  V30 50657 C 4699.83 1.10621 -2.04611 0
M  V30 50658 C 4700.82 1.40178 -0.951137 0
M  V30 50659 O 4702.03 1.39604 -1.13625 0
M  V30 50660 H 4698.4 0.374065 -0.652364 0
M  V30 50661 H 4700.37 0.682115 -2.90499 0
M  V30 50662 C 4699.12 2.41204 -2.50432 0
M  V30 50663 H 4698.45 2.19311 -3.3428 0
M  V30 50664 H 4699.89 3.11917 -2.872 0
M  V30 50665 C 4698.34 3.07045 -1.38655 0
M  V30 50666 O 4698.87 3.95053 -0.727721 0
M  V30 50667 N 4697.08 2.67642 -1.13209 0
M  V30 50668 H 4696.63 1.96163 -1.66966 0
M  V30 50669 H 4696.59 3.12018 -0.386256 0
M  V30 50670 N 4700.36 1.53782 0.344812 0
M  V30 50671 C 4701.3 1.81681 1.4234 0
M  V30 50672 C 4702.27 0.662429 1.52319 0
M  V30 50673 O 4703.46 0.906734 1.67878 0
M  V30 50674 C 4700.6 2.03097 2.79008 0
M  V30 50675 C 4699.71 3.30808 2.77831 0
M  V30 50676 C 4698.85 3.42299 4.06208 0
M  V30 50677 C 4697.89 4.63964 3.99254 0
M  V30 50678 N 4697.02 4.72495 5.19319 0
M  V30 50679 H 4701.86 2.73707 1.17848 0
M  V30 50680 H 4699.4 1.3557 0.570901 0
M  V30 50681 H 4701.36 2.13503 3.5843 0
M  V30 50682 H 4699.99 1.14385 3.01854 0
M  V30 50683 H 4699.04 3.2925 1.90521 0
M  V30 50684 H 4700.35 4.20324 2.68569 0
M  V30 50685 H 4699.51 3.5213 4.94054 0
M  V30 50686 H 4698.25 2.50837 4.18249 0
M  V30 50687 H 4697.25 4.54212 3.09793 0
M  V30 50688 H 4698.48 5.56789 3.88797 0
M  V30 50689 H 4696.42 3.83942 5.31906 0
M  V30 50690 H 4696.34 5.55945 5.1231 0
M  V30 50691 H 4697.61 4.86634 6.0894 0
M  V30 50692 N 4701.84 -0.605756 1.45494 0
M  V30 50693 C 4702.79 -1.71069 1.5073 0
M  V30 50694 C 4703.77 -1.56579 0.370385 0
M  V30 50695 O 4704.96 -1.65885 0.617357 0
M  V30 50696 C 4702.09 -3.09825 1.47863 0
M  V30 50697 C 4701.18 -3.29694 2.66763 0
M  V30 50698 N 4701.57 -3.19817 3.91856 0
M  V30 50699 C 4699.87 -3.6057 2.62499 0
M  V30 50700 C 4700.57 -3.41067 4.7122 0
M  V30 50701 N 4699.54 -3.65143 4.02706 0
M  V30 50702 H 4703.35 -1.61928 2.45268 0
M  V30 50703 H 4700.86 -0.809071 1.40811 0
M  V30 50704 H 4702.86 -3.89096 1.49699 0
M  V30 50705 H 4701.52 -3.20113 0.543826 0
M  V30 50706 H 4702.53 -2.98179 4.2345 0
M  V30 50707 H 4699.2 -3.77684 1.77935 0
M  V30 50708 H 4700.59 -3.38808 5.80223 0
M  V30 50709 N 4703.31 -1.32814 -0.848417 0
M  V30 50710 C 4704.73 -1.11941 -1.13761 0
M  V30 50711 C 4704.93 0.0960082 -2.01271 0
M  V30 50712 O 4703.99 0.77908 -2.4018 0
M  V30 50713 C 4705.3 -2.40206 -1.80891 0
M  V30 50714 C 4706.85 -2.46022 -1.93499 0
M  V30 50715 C 4707.32 -3.74225 -2.64045 0
M  V30 50716 N 4708.81 -3.75242 -2.71566 0
M  V30 50717 C 4709.55 -4.71146 -3.26817 0
M  V30 50718 N 4709.04 -5.77419 -3.8283 0
M  V30 50719 N 4710.84 -4.58634 -3.24979 0
M  V30 50720 H 4702.99 -2.10731 -0.265781 0
M  V30 50721 H 4705.25 -0.930677 -0.180398 0
M  V30 50722 H 4704.96 -3.29098 -1.24047 0
M  V30 50723 H 4704.83 -2.51637 -2.80995 0
M  V30 50724 H 4707.22 -1.57586 -2.49501 0
M  V30 50725 H 4707.3 -2.38539 -0.923727 0
M  V30 50726 H 4706.94 -4.63038 -2.08705 0
M  V30 50727 H 4706.87 -3.78981 -3.65624 0
M  V30 50728 H 4709.36 -2.98431 -2.31834 0
M  V30 50729 H 4709.68 -6.46646 -4.23164 0
M  V30 50730 H 4708.02 -5.81166 -3.81145 0
M  V30 50731 H 4711.21 -3.74772 -2.8047 0
M  V30 50732 H 4711.39 -5.33548 -3.67737 0
M  V30 50733 N 4704.79 1.06547 -1.16127 0
M  V30 50734 C 4705.74 2.12207 -0.83381 0
M  V30 50735 C 4706.73 1.59826 0.1856 0
M  V30 50736 O 4707.92 1.76994 -0.0148529 0
M  V30 50737 C 4705.05 3.41673 -0.333817 0
M  V30 50738 C 4704.13 4.00887 -1.38386 0
M  V30 50739 N 4704.52 4.34247 -2.59352 0
M  V30 50740 C 4702.82 4.28459 -1.23851 0
M  V30 50741 C 4703.52 4.8128 -3.26718 0
M  V30 50742 N 4702.5 4.80556 -2.541 0
M  V30 50743 H 4706.3 2.35843 -1.75372 0
M  V30 50744 H 4703.82 1.24065 -1.04794 0
M  V30 50745 H 4705.81 4.16822 -0.0808383 0
M  V30 50746 H 4704.47 3.19477 0.580058 0
M  V30 50747 H 4705.48 4.24676 -2.9643 0
M  V30 50748 H 4702.16 4.15719 -0.385186 0
M  V30 50749 H 4703.55 5.16317 -4.29961 0
M  V30 50750 N 4706.27 0.959345 1.25037 0
M  V30 50751 C 4707.5 0.633576 1.97486 0
M  V30 50752 C 4707.92 -0.788495 1.70776 0
M  V30 50753 O 4707.28 -1.53391 0.966485 0
M  V30 50754 C 4707.33 0.90418 3.4908 0
M  V30 50755 O 4706.43 -0.0146489 4.12397 0
M  V30 50756 H 4705.77 0.24039 0.618958 0
M  V30 50757 H 4708.3 1.28722 1.59034 0
M  V30 50758 H 4708.31 0.832343 3.9942 0
M  V30 50759 H 4706.99 1.94061 3.67849 0
M  V30 50760 H 4705.56 0.109795 3.72738 0
M  V30 50761 N 4707.75 -1.39754 0.728469 0
M  V30 50762 C 4709 -1.99878 0.270478 0
M  V30 50763 C 4709.31 -1.58453 -1.14682 0
M  V30 50764 O 4710.52 -2.11368 -1.704 0
M  V30 50765 C 4708.97 -3.5729 0.432646 0
M  V30 50766 C 4708.58 -4.07681 1.85741 0
M  V30 50767 C 4710.32 -4.24485 0.0360999 0
M  V30 50768 C 4708.23 -5.57643 1.96948 0
M  V30 50769 H 4707.16 -0.747686 0.0973735 0
M  V30 50770 H 4709.81 -1.59834 0.901412 0
M  V30 50771 H 4708.19 -3.95098 -0.26708 0
M  V30 50772 H 4709.37 -3.81222 2.58856 0
M  V30 50773 H 4707.68 -3.53127 2.20658 0
M  V30 50774 H 4710.28 -5.34608 0.0989363 0
M  V30 50775 H 4710.62 -4.03919 -1.00773 0
M  V30 50776 H 4711.16 -3.91827 0.686742 0
M  V30 50777 H 4707.9 -5.8308 2.99496 0
M  V30 50778 H 4707.42 -5.85926 1.28261 0
M  V30 50779 H 4709.09 -6.22951 1.74759 0
M  V30 50780 N 4709.23 -0.475607 -1.50252 0
M  V30 50781 C 4710.45 0.0753766 -2.06763 0
M  V30 50782 C 4710.87 1.33106 -1.33896 0
M  V30 50783 O 4710.23 1.77845 -0.409583 0
M  V30 50784 C 4710.28 0.358882 -3.59714 0
M  V30 50785 O 4710 -0.847002 -4.29834 0
M  V30 50786 C 4711.5 0.956332 -4.32862 0
M  V30 50787 H 4708.72 -0.00909883 -0.670938 0
M  V30 50788 H 4711.26 -0.665686 -1.93362 0
M  V30 50789 H 4709.42 1.04988 -3.72902 0
M  V30 50790 H 4709.83 -0.594346 -5.21122 0
M  V30 50791 H 4711.31 1.10444 -5.40838 0
M  V30 50792 H 4711.78 1.94761 -3.93655 0
M  V30 50793 H 4712.39 0.303574 -4.24215 0
M  V30 50794 N 4710.7 1.56216 -0.208392 0
M  V30 50795 C 4711.65 2.21055 0.723691 0
M  V30 50796 C 4712.65 1.18582 1.20974 0
M  V30 50797 O 4713.85 1.36695 1.17109 0
M  V30 50798 H 4710.23 0.708604 0.251763 0
M  V30 50799 H 4712.2 2.98006 0.15326 0
M  V30 50800 C 4710.95 2.89423 1.9269 0
M  V30 50801 H 4710.27 3.68024 1.56199 0
M  V30 50802 H 4711.71 3.3821 2.55715 0
M  V30 50803 C 4710.17 1.91176 2.77405 0
M  V30 50804 O 4710.7 1.4204 3.75749 0
M  V30 50805 N 4708.91 1.59113 2.43169 0
M  V30 50806 H 4708.45 1.99265 1.63252 0
M  V30 50807 H 4708.41 0.936361 3.00133 0
M  V30 50808 N 4712.18 -0.0651125 1.57465 0
M  V30 50809 C 4713.59 -0.616151 1.7624 0
M  V30 50810 C 4713.94 -1.77557 0.834751 0
M  V30 50811 O 4713.07 -2.1639 0.0204917 0
M  V30 50812 C 4713.66 -1.12451 3.19594 0
M  V30 50813 C 4712.22 -1.62135 3.3969 0
M  V30 50814 C 4711.37 -0.543643 2.71919 0
M  V30 50815 H 4714.32 0.161077 1.5788 0
M  V30 50816 H 4714.34 -1.99313 3.24121 0
M  V30 50817 H 4713.85 -0.280456 3.87085 0
M  V30 50818 H 4711.96 -2.48844 2.77322 0
M  V30 50819 H 4712.07 -1.69369 4.48164 0
M  V30 50820 H 4710.43 -0.990269 2.34661 0
M  V30 50821 H 4711.22 0.290336 3.4207 0
M  V30 50822 N 4713.66 -1.53962 -0.336652 0
M  V30 50823 C 4714.59 -1.85422 -1.41918 0
M  V30 50824 C 4715.57 -0.70991 -1.54578 0
M  V30 50825 O 4716.76 -0.962456 -1.68673 0
M  V30 50826 C 4713.89 -2.06995 -2.78873 0
M  V30 50827 C 4712.84 -3.22823 -2.81015 0
M  V30 50828 C 4712.17 -3.29742 -4.20921 0
M  V30 50829 C 4713.47 -4.60776 -2.45933 0
M  V30 50830 H 4715.16 -2.76083 -1.15839 0
M  V30 50831 H 4712.71 -1.32841 -0.555812 0
M  V30 50832 H 4714.66 -2.27587 -3.54657 0
M  V30 50833 H 4713.38 -1.13071 -3.06402 0
M  V30 50834 H 4712.04 -3.02097 -2.07684 0
M  V30 50835 H 4711.69 -2.33401 -4.4557 0
M  V30 50836 H 4711.39 -4.07581 -4.23263 0
M  V30 50837 H 4712.91 -3.52553 -4.98537 0
M  V30 50838 H 4714.33 -4.81336 -3.11429 0
M  V30 50839 H 4712.73 -5.41069 -2.59547 0
M  V30 50840 H 4713.8 -4.63915 -1.41105 0
M  V30 50841 N 4715.14 0.598031 -1.45813 0
M  V30 50842 C 4716.1 1.69012 -1.54814 0
M  V30 50843 C 4717.1 1.55035 -0.426706 0
M  V30 50844 O 4718.29 1.5993 -0.690513 0
M  V30 50845 C 4715.42 3.08345 -1.45382 0
M  V30 50846 H 4716.62 1.62394 -2.52127 0
M  V30 50847 H 4714.17 0.814579 -1.33395 0
M  V30 50848 H 4714.9 3.20532 -0.492906 0
M  V30 50849 H 4714.69 3.19899 -2.26732 0
M  V30 50850 H 4716.18 3.87875 -1.54734 0
M  V30 50851 N 4716.62 1.33262 0.841362 0
M  V30 50852 C 4717.86 1.24762 1.59882 0
M  V30 50853 C 4718.2 -0.186845 1.93299 0
M  V30 50854 O 4717.47 -1.12752 1.58484 0
M  V30 50855 C 4717.75 2.12046 2.91047 0
M  V30 50856 C 4717.61 3.63938 2.64327 0
M  V30 50857 C 4718.93 1.99173 3.92451 0
M  V30 50858 H 4716.05 0.454563 0.580122 0
M  V30 50859 H 4718.69 1.63339 0.97059 0
M  V30 50860 H 4716.84 1.79277 3.44662 0
M  V30 50861 H 4718.51 4.06986 2.17164 0
M  V30 50862 H 4716.75 3.85942 1.98068 0
M  V30 50863 H 4717.42 4.20353 3.57781 0
M  V30 50864 H 4719.9 2.27907 3.48135 0
M  V30 50865 H 4718.78 2.62501 4.82063 0
M  V30 50866 H 4719.04 0.963233 4.31479 0
M  V30 50867 N 4718.1 -1.0593 1.1669 0
M  V30 50868 C 4719.03 -2.15457 0.900024 0
M  V30 50869 C 4720.01 -1.69391 -0.155094 0
M  V30 50870 O 4721.19 -1.94199 -0.00641866 0
M  V30 50871 C 4718.32 -3.44938 0.404362 0
M  V30 50872 C 4717.28 -4.04531 1.39781 0
M  V30 50873 C 4716.6 -5.29266 0.760403 0
M  V30 50874 C 4717.9 -4.42883 2.76861 0
M  V30 50875 H 4719.6 -2.3804 1.81597 0
M  V30 50876 H 4717.14 -1.14401 0.874554 0
M  V30 50877 H 4719.09 -4.209 0.205119 0
M  V30 50878 H 4717.82 -3.21985 -0.547093 0
M  V30 50879 H 4716.48 -3.30629 1.58366 0
M  V30 50880 H 4716.13 -5.02612 -0.197654 0
M  V30 50881 H 4715.83 -5.70096 1.42352 0
M  V30 50882 H 4717.35 -6.07922 0.571264 0
M  V30 50883 H 4718.76 -5.09912 2.62037 0
M  V30 50884 H 4717.16 -4.94709 3.39681 0
M  V30 50885 H 4718.23 -3.53572 3.31835 0
M  V30 50886 N 4719.57 -0.965962 -1.24527 0
M  V30 50887 C 4720.81 -0.634724 -1.94295 0
M  V30 50888 C 4721.18 0.814761 -1.73855 0
M  V30 50889 O 4722.38 1.25614 -2.37644 0
M  V30 50890 C 4720.65 -0.997141 -3.43208 0
M  V30 50891 S 4722.21 -0.78019 -4.31808 0
M  V30 50892 H 4719.03 -0.232916 -0.671767 0
M  V30 50893 H 4721.63 -1.24255 -1.50934 0
M  V30 50894 H 4720.33 -2.04899 -3.55591 0
M  V30 50895 H 4719.86 -0.380025 -3.9156 0
M  V30 50896 H 4721.88 0.343338 -4.95011 0
M  V30 50897 N 4721.05 1.39365 -0.73587 0
M  V30 50898 C 4721.96 2.34395 -0.0980518 0
M  V30 50899 C 4722.98 1.58363 0.720912 0
M  V30 50900 O 4724.15 1.90651 0.649178 0
M  V30 50901 C 4721.22 3.37396 0.797798 0
M  V30 50902 C 4720.28 4.29287 -0.0335171 0
M  V30 50903 C 4719.51 5.27368 0.819669 0
M  V30 50904 O 4719.74 5.31966 2.05836 0
M  V30 50905 O 4718.67 6.01389 0.247868 0
M  V30 50906 H 4722.5 2.90598 -0.882417 0
M  V30 50907 H 4720.08 1.40907 -0.49655 0
M  V30 50908 H 4721.96 4.0051 1.31034 0
M  V30 50909 H 4720.64 2.83577 1.56096 0
M  V30 50910 H 4719.54 3.69393 -0.591605 0
M  V30 50911 H 4720.88 4.86314 -0.758923 0
M  V30 50912 N 4722.53 0.483569 1.49998 0
M  V30 50913 C 4723.78 -0.0670885 2.02389 0
M  V30 50914 C 4724.1 -1.38592 1.36464 0
M  V30 50915 O 4723.36 -1.89633 0.483525 0
M  V30 50916 C 4723.66 -0.2861 3.56253 0
M  V30 50917 C 4723.32 0.952571 4.40723 0
M  V30 50918 C 4721.99 1.29215 4.63527 0
M  V30 50919 C 4724.34 1.77672 4.89982 0
M  V30 50920 C 4721.67 2.45572 5.32833 0
M  V30 50921 C 4724.02 2.93167 5.60568 0
M  V30 50922 C 4722.68 3.27525 5.81621 0
M  V30 50923 H 4721.95 -0.0245494 0.740593 0
M  V30 50924 H 4724.6 0.640187 1.80482 0
M  V30 50925 H 4722.9 -1.07574 3.76743 0
M  V30 50926 H 4724.6 -0.726335 3.94367 0
M  V30 50927 H 4721.19 0.67803 4.23203 0
M  V30 50928 H 4725.38 1.52754 4.72208 0
M  V30 50929 H 4720.63 2.7245 5.4734 0
M  V30 50930 H 4724.81 3.57365 5.97715 0
M  V30 50931 H 4722.43 4.17792 6.35101 0
M  V30 50932 N 4724.01 -1.56103 0.216674 0
M  V30 50933 C 4725.26 -1.97349 -0.416675 0
M  V30 50934 C 4725.57 -1.10721 -1.61246 0
M  V30 50935 O 4726.78 -1.41844 -2.31501 0
M  V30 50936 C 4725.23 -3.51061 -0.792712 0
M  V30 50937 C 4724.84 -4.46386 0.379985 0
M  V30 50938 C 4726.58 -4.0103 -1.39194 0
M  V30 50939 C 4724.49 -5.91397 -0.0182144 0
M  V30 50940 H 4723.42 -0.736948 -0.159449 0
M  V30 50941 H 4726.07 -1.80826 0.312114 0
M  V30 50942 H 4724.45 -3.63167 -1.57878 0
M  V30 50943 H 4725.63 -4.46025 1.15753 0
M  V30 50944 H 4723.94 -4.06731 0.892121 0
M  V30 50945 H 4726.54 -5.06866 -1.70268 0
M  V30 50946 H 4726.88 -3.46595 -2.30602 0
M  V30 50947 H 4727.42 -3.92127 -0.6694 0
M  V30 50948 H 4724.15 -6.49804 0.86223 0
M  V30 50949 H 4723.67 -5.94963 -0.760175 0
M  V30 50950 H 4725.35 -6.45457 -0.446591 0
M  V30 50951 N 4725.49 0.0567608 -1.57498 0
M  V30 50952 C 4726.71 0.769334 -1.92603 0
M  V30 50953 C 4727.14 1.69556 -0.814396 0
M  V30 50954 O 4726.49 1.79812 0.231839 0
M  V30 50955 C 4726.54 1.52622 -3.26709 0
M  V30 50956 O 4725.65 2.63786 -3.17003 0
M  V30 50957 H 4724.99 0.208887 -0.630287 0
M  V30 50958 H 4727.52 0.0205078 -2.0459 0
M  V30 50959 H 4727.53 1.90222 -3.60943 0
M  V30 50960 H 4726.2 0.846732 -4.07189 0
M  V30 50961 H 4724.78 2.28933 -2.94354 0
M  V30 50962 N 4726.96 1.54139 0.328482 0
M  V30 50963 C 4727.9 1.79514 1.42504 0
M  V30 50964 C 4728.91 0.676933 1.48059 0
M  V30 50965 O 4730.1 0.953951 1.50871 0
M  V30 50966 C 4727.2 1.89347 2.81071 0
M  V30 50967 C 4726.37 3.19454 2.98778 0
M  V30 50968 C 4725.43 3.20051 4.17677 0
M  V30 50969 O 4724.46 3.93711 4.11072 0
M  V30 50970 N 4725.66 2.43485 5.26968 0
M  V30 50971 H 4728.42 2.74143 1.21101 0
M  V30 50972 H 4725.98 1.53375 0.518445 0
M  V30 50973 H 4727.98 1.8718 3.58812 0
M  V30 50974 H 4726.55 1.01837 2.95547 0
M  V30 50975 H 4725.77 3.34621 2.0838 0
M  V30 50976 H 4727.05 4.05365 3.075 0
M  V30 50977 H 4726.45 1.8322 5.35207 0
M  V30 50978 H 4725.01 2.47101 6.03145 0
M  V30 50979 N 4728.44 -0.59029 1.46128 0
M  V30 50980 C 4729.67 -1.37986 1.54838 0
M  V30 50981 C 4730.09 -1.87162 0.187572 0
M  V30 50982 O 4729.45 -1.61136 -0.830951 0
M  V30 50983 C 4729.5 -2.54858 2.55107 0
M  V30 50984 O 4728.6 -3.56054 2.08085 0
M  V30 50985 H 4727.94 -0.411247 0.521318 0
M  V30 50986 H 4730.47 -0.716751 1.91635 0
M  V30 50987 H 4730.48 -3.01876 2.74472 0
M  V30 50988 H 4729.16 -2.18417 3.53931 0
M  V30 50989 H 4727.73 -3.15567 1.98675 0
M  V30 50990 N 4729.92 -1.33707 -0.834283 0
M  V30 50991 C 4731.17 -1.24769 -1.58479 0
M  V30 50992 C 4731.48 0.183707 -1.94735 0
M  V30 50993 O 4732.69 0.39514 -2.68609 0
M  V30 50994 C 4731.14 -2.18648 -2.85869 0
M  V30 50995 C 4730.75 -3.66983 -2.56958 0
M  V30 50996 C 4732.5 -2.18594 -3.63892 0
M  V30 50997 C 4730.4 -4.52764 -3.80472 0
M  V30 50998 H 4729.33 -0.463446 -0.594755 0
M  V30 50999 H 4731.98 -1.588 -0.919495 0
M  V30 51000 H 4730.37 -1.77555 -3.53964 0
M  V30 51001 H 4731.54 -4.16545 -1.97046 0
M  V30 51002 H 4729.85 -3.69373 -1.92231 0
M  V30 51003 H 4732.45 -2.7991 -4.55581 0
M  V30 51004 H 4732.79 -1.18221 -3.99161 0
M  V30 51005 H 4733.33 -2.58073 -3.02726 0
M  V30 51006 H 4730.07 -5.54029 -3.50331 0
M  V30 51007 H 4729.59 -4.07943 -4.39708 0
M  V30 51008 H 4731.27 -4.668 -4.48004 0
M  V30 51009 N 4731.4 1.0531 -1.1725 0
M  V30 51010 C 4732.35 2.13028 -0.888133 0
M  V30 51011 C 4733.32 1.65253 0.167479 0
M  V30 51012 O 4734.5 1.90776 0.0305304 0
M  V30 51013 C 4731.64 3.427 -0.406267 0
M  V30 51014 C 4730.75 4.04155 -1.52586 0
M  V30 51015 C 4729.89 5.21741 -0.997992 0
M  V30 51016 C 4728.93 5.752 -2.09312 0
M  V30 51017 N 4728.06 6.84089 -1.5801 0
M  V30 51018 H 4732.9 2.36691 -1.81056 0
M  V30 51019 H 4730.44 1.16118 -0.903054 0
M  V30 51020 H 4732.4 4.17059 -0.108452 0
M  V30 51021 H 4731.03 3.19223 0.4792 0
M  V30 51022 H 4730.08 3.27247 -1.93943 0
M  V30 51023 H 4731.39 4.39873 -2.35187 0
M  V30 51024 H 4730.55 6.03165 -0.653951 0
M  V30 51025 H 4729.29 4.87495 -0.141404 0
M  V30 51026 H 4728.29 4.92406 -2.44574 0
M  V30 51027 H 4729.52 6.11494 -2.95384 0
M  V30 51028 H 4727.46 6.51742 -0.746209 0
M  V30 51029 H 4727.38 7.18803 -2.3422 0
M  V30 51030 H 4728.65 7.69168 -1.26495 0
M  V30 51031 N 4732.88 0.972553 1.24013 0
M  V30 51032 C 4734.1 0.654487 1.96803 0
M  V30 51033 C 4734.53 -0.770338 1.71602 0
M  V30 51034 O 4733.88 -1.52357 0.9827 0
M  V30 51035 C 4733.93 0.941154 3.48102 0
M  V30 51036 O 4733.04 0.0290921 4.1239 0
M  V30 51037 H 4732.38 0.246941 0.616373 0
M  V30 51038 H 4734.91 1.30402 1.5766 0
M  V30 51039 H 4734.92 0.87466 3.98514 0
M  V30 51040 H 4733.59 1.97951 3.6577 0
M  V30 51041 H 4732.17 0.149323 3.72601 0
M  V30 51042 N 4734.35 -1.38973 0.74325 0
M  V30 51043 C 4735.6 -2.00342 0.294823 0
M  V30 51044 C 4735.93 -1.58987 -1.12042 0
M  V30 51045 O 4735.18 -0.813872 -1.77974 0
M  V30 51046 C 4735.48 -3.55646 0.353642 0
M  V30 51047 C 4735.15 -4.16679 1.72307 0
M  V30 51048 C 4733.81 -4.33062 2.09787 0
M  V30 51049 C 4736.16 -4.50454 2.62184 0
M  V30 51050 C 4733.49 -4.80514 3.36635 0
M  V30 51051 C 4735.84 -4.99318 3.88413 0
M  V30 51052 C 4734.51 -5.13909 4.25974 0
M  V30 51053 H 4733.78 -0.733104 0.107883 0
M  V30 51054 H 4736.42 -1.66177 0.951709 0
M  V30 51055 H 4734.73 -3.89886 -0.386817 0
M  V30 51056 H 4736.43 -4.00998 -0.0115859 0
M  V30 51057 H 4733.02 -4.04334 1.42169 0
M  V30 51058 H 4737.2 -4.37408 2.34495 0
M  V30 51059 H 4732.46 -4.89995 3.6567 0
M  V30 51060 H 4736.63 -5.24424 4.58206 0
M  V30 51061 H 4734.26 -5.50438 5.2433 0
M  V30 51062 N 4735.83 -0.491517 -1.49739 0
M  V30 51063 C 4737.11 0.118916 -1.95238 0
M  V30 51064 C 4737.49 1.55039 -1.43269 0
M  V30 51065 O 4736.84 2.19285 -0.642364 0
M  V30 51066 C 4737.05 0.041296 -3.48976 0
M  V30 51067 C 4738.4 0.219984 -4.2403 0
M  V30 51068 O 4739.42 0.11693 -3.56008 0
M  V30 51069 O 4738.28 0.430376 -5.44803 0
M  V30 51070 H 4735.37 0.100507 -0.82087 0
M  V30 51071 H 4737.92 -0.553379 -1.60424 0
M  V30 51072 H 4736.69 -0.957347 -3.79408 0
M  V30 51073 H 4736.31 0.754155 -3.90382 0
M  V30 51074 N 4737.31 1.55986 -0.224949 0
M  V30 51075 C 4738.73 1.59067 0.13037 0
M  V30 51076 C 4738.93 1.24182 1.58686 0
M  V30 51077 O 4737.98 0.978674 2.32762 0
M  V30 51078 C 4739.3 3.00041 -0.198988 0
M  V30 51079 C 4740.84 3.1268 -0.141501 0
M  V30 51080 C 4741.32 4.55837 -0.444582 0
M  V30 51081 N 4742.81 4.61519 -0.394277 0
M  V30 51082 C 4743.54 5.70229 -0.602238 0
M  V30 51083 N 4743.04 6.87288 -0.872155 0
M  V30 51084 N 4744.83 5.59554 -0.534442 0
M  V30 51085 H 4736.98 1.76937 -1.17504 0
M  V30 51086 H 4739.25 0.822587 -0.471226 0
M  V30 51087 H 4738.95 3.3023 -1.21001 0
M  V30 51088 H 4738.83 3.74077 0.484404 0
M  V30 51089 H 4741.21 2.82286 0.860166 0
M  V30 51090 H 4741.3 2.40966 -0.85842 0
M  V30 51091 H 4740.94 4.86949 -1.4437 0
M  V30 51092 H 4740.87 5.25781 0.293567 0
M  V30 51093 H 4743.36 3.77404 -0.193489 0
M  V30 51094 H 4743.67 7.66054 -1.01885 0
M  V30 51095 H 4742.02 6.89025 -0.909387 0
M  V30 51096 H 4745.21 4.66979 -0.323776 0
M  V30 51097 H 4745.38 6.44209 -0.699919 0
M  V30 51098 N 4738.79 -0.0484076 1.57526 0
M  V30 51099 C 4739.74 -1.06239 2.01736 0
M  V30 51100 C 4740.72 -1.33152 0.903292 0
M  V30 51101 O 4741.91 -1.33061 1.16721 0
M  V30 51102 C 4739.04 -2.36934 2.48429 0
M  V30 51103 C 4738.13 -2.13195 3.66618 0
M  V30 51104 N 4738.52 -1.59454 4.80009 0
M  V30 51105 C 4736.82 -2.43568 3.73619 0
M  V30 51106 C 4737.52 -1.51072 5.6174 0
M  V30 51107 N 4736.5 -1.97952 5.06277 0
M  V30 51108 H 4740.3 -0.640575 2.86834 0
M  V30 51109 H 4737.81 -0.255077 1.60384 0
M  V30 51110 H 4739.81 -3.10364 2.78352 0
M  V30 51111 H 4738.47 -2.79812 1.64728 0
M  V30 51112 H 4739.48 -1.2799 5.01836 0
M  V30 51113 H 4736.16 -2.89652 3.00679 0
M  V30 51114 H 4737.55 -1.10176 6.62805 0
M  V30 51115 N 4740.27 -1.54311 -0.320303 0
M  V30 51116 C 4741.51 -1.72672 -1.05786 0
M  V30 51117 C 4741.84 -0.50215 -1.87906 0
M  V30 51118 O 4741.1 0.516083 -1.88773 0
M  V30 51119 C 4741.4 -2.95647 -2.00818 0
M  V30 51120 C 4741.06 -4.3027 -1.34827 0
M  V30 51121 C 4739.72 -4.66869 -1.16561 0
M  V30 51122 C 4742.08 -5.13804 -0.874915 0
M  V30 51123 C 4739.4 -5.84599 -0.49613 0
M  V30 51124 C 4741.76 -6.3222 -0.21924 0
M  V30 51125 C 4740.42 -6.67496 -0.0244569 0
M  V30 51126 H 4739.69 -0.631851 -0.387099 0
M  V30 51127 H 4742.34 -1.88553 -0.334669 0
M  V30 51128 H 4740.64 -2.74466 -2.796 0
M  V30 51129 H 4742.34 -3.07047 -2.57921 0
M  V30 51130 H 4738.93 -4.01477 -1.50047 0
M  V30 51131 H 4743.11 -4.86043 -1.00381 0
M  V30 51132 H 4738.37 -6.10487 -0.334049 0
M  V30 51133 H 4742.54 -6.96226 0.155535 0
M  V30 51134 H 4740.17 -7.58578 0.496331 0
M  V30 51135 N 4741.74 0.582532 -1.46439 0
M  V30 51136 C 4742.65 1.71944 -1.59601 0
M  V30 51137 C 4743.67 1.67263 -0.479502 0
M  V30 51138 O 4744.85 1.87168 -0.743645 0
M  V30 51139 C 4741.91 3.08446 -1.58309 0
M  V30 51140 C 4740.97 3.2439 -2.81193 0
M  V30 51141 C 4740.21 4.54381 -2.79953 0
M  V30 51142 O 4740.43 5.3828 -1.88709 0
M  V30 51143 O 4739.36 4.73575 -3.71497 0
M  V30 51144 H 4743.19 1.63786 -2.5575 0
M  V30 51145 H 4740.77 0.749598 -1.29234 0
M  V30 51146 H 4742.66 3.89726 -1.60285 0
M  V30 51147 H 4741.33 3.17041 -0.653205 0
M  V30 51148 H 4740.24 2.42603 -2.84772 0
M  V30 51149 H 4741.57 3.20686 -3.73392 0
M  V30 51150 N 4743.22 1.34147 0.82718 0
M  V30 51151 C 4744.17 1.25371 1.9378 0
M  V30 51152 C 4745.14 0.129832 1.65592 0
M  V30 51153 O 4746.32 0.31009 1.88263 0
M  V30 51154 C 4743.46 1.01075 3.29966 0
M  V30 51155 C 4742.58 2.22198 3.70476 0
M  V30 51156 C 4741.71 1.91221 4.95589 0
M  V30 51157 C 4740.75 3.0851 5.28666 0
M  V30 51158 N 4739.89 2.77444 6.44957 0
M  V30 51159 H 4744.73 2.20354 2.00619 0
M  V30 51160 H 4742.27 1.09561 0.981569 0
M  V30 51161 H 4744.22 0.850283 4.08443 0
M  V30 51162 H 4742.85 0.0976161 3.22652 0
M  V30 51163 H 4741.91 2.4918 2.87426 0
M  V30 51164 H 4743.22 3.09844 3.90894 0
M  V30 51165 H 4742.37 1.71885 5.81842 0
M  V30 51166 H 4741.11 1.00829 4.77163 0
M  V30 51167 H 4740.12 3.28446 4.40912 0
M  V30 51168 H 4741.34 3.99674 5.49033 0
M  V30 51169 H 4739.29 1.89624 6.27996 0
M  V30 51170 H 4739.2 3.58622 6.65527 0
M  V30 51171 H 4740.47 2.61602 7.34292 0
M  V30 51172 N 4744.7 -1.04686 1.17807 0
M  V30 51173 C 4745.65 -2.14662 0.895711 0
M  V30 51174 C 4746.64 -1.68807 -0.14162 0
M  V30 51175 O 4747.85 -1.79999 0.00594242 0
M  V30 51176 H 4744.22 -0.701028 0.272146 0
M  V30 51177 H 4746.19 -2.35679 1.83025 0
M  V30 51178 C 4744.94 -3.45017 0.431084 0
M  V30 51179 H 4744.27 -3.80706 1.22077 0
M  V30 51180 H 4745.71 -4.23124 0.27245 0
M  V30 51181 C 4744.17 -3.25946 -0.852092 0
M  V30 51182 O 4744.7 -3.52967 -1.91773 0
M  V30 51183 N 4742.9 -2.79307 -0.802248 0
M  V30 51184 H 4742.45 -2.57518 0.0651693 0
M  V30 51185 H 4742.41 -2.66927 -1.66125 0
M  V30 51186 N 4746.18 -0.979116 -1.23495 0
M  V30 51187 C 4747.6 -0.687526 -1.44032 0
M  V30 51188 C 4747.8 0.746735 -1.87153 0
M  V30 51189 O 4746.85 1.51932 -2.01675 0
M  V30 51190 C 4748.16 -1.68136 -2.49301 0
M  V30 51191 C 4749.71 -1.69526 -2.63116 0
M  V30 51192 C 4750.19 -2.67736 -3.71593 0
M  V30 51193 N 4751.68 -2.66247 -3.79034 0
M  V30 51194 C 4752.41 -3.38907 -4.62525 0
M  V30 51195 N 4751.91 -4.21123 -5.50116 0
M  V30 51196 N 4753.7 -3.27678 -4.5671 0
M  V30 51197 H 4745.85 -1.90562 -0.938068 0
M  V30 51198 H 4748.12 -0.821068 -0.473869 0
M  V30 51199 H 4747.82 -2.707 -2.24531 0
M  V30 51200 H 4747.7 -1.46318 -3.47665 0
M  V30 51201 H 4750.08 -0.676662 -2.87237 0
M  V30 51202 H 4750.16 -1.95409 -1.65072 0
M  V30 51203 H 4749.81 -3.69736 -3.4822 0
M  V30 51204 H 4749.74 -2.39127 -4.69176 0
M  V30 51205 H 4752.23 -2.06579 -3.16439 0
M  V30 51206 H 4752.54 -4.73424 -6.1081 0
M  V30 51207 H 4750.89 -4.25214 -5.49744 0
M  V30 51208 H 4754.08 -2.629 -3.873 0
M  V30 51209 H 4754.25 -3.84566 -5.21549 0
M  V30 51210 N 4747.66 1.38577 -0.75061 0
M  V30 51211 C 4748.61 2.32339 -0.110244 0
M  V30 51212 C 4749.6 1.53867 0.70862 0
M  V30 51213 O 4750.81 1.69419 0.608053 0
M  V30 51214 H 4747.18 0.751811 -0.0168539 0
M  V30 51215 H 4749.15 2.83956 -0.917152 0
M  V30 51216 C 4747.9 3.39045 0.770947 0
M  V30 51217 H 4747.22 3.99518 0.150233 0
M  V30 51218 H 4748.66 4.07065 1.18635 0
M  V30 51219 C 4747.12 2.77372 1.91224 0
M  V30 51220 O 4747.65 2.66445 3.00616 0
M  V30 51221 N 4745.86 2.35225 1.70638 0
M  V30 51222 H 4745.41 2.44313 0.816644 0
M  V30 51223 H 4745.36 1.94303 2.47172 0
M  V30 51224 N 4749.14 0.499451 1.49477 0
M  V30 51225 C 4750.08 -0.293523 2.30741 0
M  V30 51226 C 4751.08 -0.964221 1.39281 0
M  V30 51227 O 4752.28 -0.892087 1.56339 0
M  V30 51228 H 4748.66 -0.113515 0.743383 0
M  V30 51229 H 4750.63 0.411876 2.95544 0
M  V30 51230 C 4749.38 -1.34609 3.20586 0
M  V30 51231 H 4748.7 -0.839403 3.90889 0
M  V30 51232 H 4750.14 -1.87295 3.8039 0
M  V30 51233 C 4748.6 -2.36342 2.40091 0
M  V30 51234 O 4749.13 -3.42193 2.10397 0
M  V30 51235 N 4747.34 -2.08773 2.02144 0
M  V30 51236 H 4746.88 -1.22715 2.26492 0
M  V30 51237 H 4746.84 -2.77069 1.48593 0
M  V30 51238 N 4750.61 -1.55865 0.233218 0
M  V30 51239 C 4751.58 -2.19533 -0.658638 0
M  V30 51240 C 4752.58 -1.16057 -1.11299 0
M  V30 51241 O 4753.77 -1.41222 -1.01991 0
M  V30 51242 C 4750.9 -2.82798 -1.90364 0
M  V30 51243 H 4752.09 -2.99722 -0.103365 0
M  V30 51244 H 4749.64 -1.56291 -0.0163695 0
M  V30 51245 H 4750.38 -2.0651 -2.50048 0
M  V30 51246 H 4750.16 -3.58584 -1.58619 0
M  V30 51247 H 4751.65 -3.31565 -2.53879 0
M  V30 51248 N 4752.09 0.0400529 -1.57549 0
M  V30 51249 C 4753.02 1.04376 -2.08873 0
M  V30 51250 C 4754 1.38403 -0.988866 0
M  V30 51251 O 4755.19 1.47479 -1.26347 0
M  V30 51252 C 4752.32 2.34799 -2.55903 0
M  V30 51253 C 4751.27 2.15044 -3.70054 0
M  V30 51254 C 4750.6 3.5113 -4.03251 0
M  V30 51255 C 4751.9 1.54558 -4.98908 0
M  V30 51256 H 4753.59 0.616563 -2.92983 0
M  V30 51257 H 4751.14 0.295134 -1.40943 0
M  V30 51258 H 4753.09 3.05336 -2.90427 0
M  V30 51259 H 4751.81 2.79559 -1.68862 0
M  V30 51260 H 4750.47 1.46942 -3.35862 0
M  V30 51261 H 4750.12 3.93518 -3.13293 0
M  V30 51262 H 4749.82 3.38741 -4.80134 0
M  V30 51263 H 4751.35 4.23047 -4.403 0
M  V30 51264 H 4752.76 2.14998 -5.31459 0
M  V30 51265 H 4751.16 1.52776 -5.80327 0
M  V30 51266 H 4752.23 0.510221 -4.82208 0
M  V30 51267 N 4753.57 1.54478 0.312115 0
M  V30 51268 C 4754.85 1.63894 1.06761 0
M  V30 51269 C 4755.23 0.4801 2.05568 0
M  V30 51270 O 4754.57 -0.524408 2.22401 0
M  V30 51271 C 4754.78 3.01408 1.75937 0
M  V30 51272 C 4756.13 3.57846 2.28541 0
M  V30 51273 O 4757.16 3.03788 1.85987 0
M  V30 51274 O 4756.02 4.52473 3.06481 0
M  V30 51275 H 4753.11 0.664142 0.492793 0
M  V30 51276 H 4755.66 1.66824 0.311091 0
M  V30 51277 H 4754.43 3.7719 1.04131 0
M  V30 51278 H 4754.05 3.02208 2.58372 0
M  V30 51279 N 4755.05 -0.574758 1.46746 0
M  V30 51280 C 4756.29 -1.33267 1.52467 0
M  V30 51281 C 4756.62 -1.93669 0.17964 0
M  V30 51282 O 4755.88 -1.77433 -0.825602 0
M  V30 51283 C 4756.18 -2.47591 2.57747 0
M  V30 51284 C 4755.84 -2.05132 4.01537 0
M  V30 51285 C 4754.5 -1.93268 4.40682 0
M  V30 51286 C 4756.86 -1.72488 4.9183 0
M  V30 51287 C 4754.18 -1.4703 5.67978 0
M  V30 51288 C 4756.54 -1.27726 6.19571 0
M  V30 51289 C 4755.2 -1.14445 6.57616 0
M  V30 51290 H 4754.47 -0.487659 0.557916 0
M  V30 51291 H 4757.12 -0.646393 1.80261 0
M  V30 51292 H 4755.42 -3.217 2.23643 0
M  V30 51293 H 4757.12 -3.05798 2.59401 0
M  V30 51294 H 4753.71 -2.15303 3.70597 0
M  V30 51295 H 4757.89 -1.80536 4.62299 0
M  V30 51296 H 4753.15 -1.35396 5.9622 0
M  V30 51297 H 4757.32 -1.01523 6.8896 0
M  V30 51298 H 4754.95 -0.783924 7.56147 0
M  V30 51299 N 4756.53 -1.34584 -0.820054 0
M  V30 51300 C 4757.77 -1.2729 -1.57877 0
M  V30 51301 C 4758.1 0.156069 -1.93572 0
M  V30 51302 O 4757.38 1.10216 -1.60258 0
M  V30 51303 C 4757.66 -2.16649 -2.87637 0
M  V30 51304 C 4757.52 -3.68097 -2.58504 0
M  V30 51305 C 4758.83 -2.05392 -3.89233 0
M  V30 51306 H 4755.95 -0.463735 -0.572817 0
M  V30 51307 H 4758.6 -1.64862 -0.944481 0
M  V30 51308 H 4756.75 -1.84737 -3.41767 0
M  V30 51309 H 4758.42 -4.10389 -2.10662 0
M  V30 51310 H 4756.66 -3.89044 -1.91903 0
M  V30 51311 H 4757.33 -4.25992 -3.51048 0
M  V30 51312 H 4759.81 -2.33417 -3.44465 0
M  V30 51313 H 4758.68 -2.70137 -4.77826 0
M  V30 51314 H 4758.94 -1.03176 -4.29892 0
M  V30 51315 N 4758 1.0406 -1.18361 0
M  V30 51316 C 4759.23 1.80913 -1.0039 0
M  V30 51317 C 4759.65 1.83416 0.447674 0
M  V30 51318 O 4759 1.26966 1.31095 0
M  V30 51319 C 4759.05 3.26511 -1.55155 0
M  V30 51320 O 4758.78 3.2423 -2.9463 0
M  V30 51321 C 4760.28 4.20008 -1.41804 0
M  V30 51322 H 4757.5 0.569715 -0.354494 0
M  V30 51323 H 4760.04 1.31146 -1.56911 0
M  V30 51324 H 4758.2 3.73509 -1.02811 0
M  V30 51325 H 4758.61 4.1544 -3.20171 0
M  V30 51326 H 4760.08 5.20105 -1.8492 0
M  V30 51327 H 4760.56 4.37666 -0.366764 0
M  V30 51328 H 4761.17 3.78874 -1.93221 0
M  V30 51329 N 4759.48 0.985651 1.22974 0
M  V30 51330 C 4760.43 0.529904 2.24634 0
M  V30 51331 C 4761.4 -0.433972 1.60331 0
M  V30 51332 O 4762.58 -0.340348 1.8774 0
M  V30 51333 C 4759.72 -0.156411 3.44745 0
M  V30 51334 C 4758.84 0.848346 4.23588 0
M  V30 51335 C 4757.97 0.136296 5.31025 0
M  V30 51336 C 4757.01 1.12991 6.01581 0
M  V30 51337 N 4756.15 0.446662 7.00678 0
M  V30 51338 H 4760.99 1.40157 2.62983 0
M  V30 51339 H 4758.52 0.702213 1.29257 0
M  V30 51340 H 4760.48 -0.571179 4.13272 0
M  V30 51341 H 4759.11 -0.991917 3.07182 0
M  V30 51342 H 4758.16 1.38147 3.54428 0
M  V30 51343 H 4759.48 1.60528 4.72263 0
M  V30 51344 H 4758.63 -0.335571 6.05771 0
M  V30 51345 H 4757.37 -0.653203 4.83306 0
M  V30 51346 H 4756.37 1.61248 5.25623 0
M  V30 51347 H 4757.6 1.92016 6.51388 0
M  V30 51348 H 4755.55 -0.323533 6.55202 0
M  V30 51349 H 4755.46 1.14217 7.47322 0
M  V30 51350 H 4756.73 -0.00264293 7.795 0
M  V30 51351 N 4760.96 -1.38177 0.757949 0
M  V30 51352 C 4762.19 -2.04826 0.325751 0
M  V30 51353 C 4762.61 -1.56792 -1.03913 0
M  V30 51354 O 4761.97 -0.72187 -1.66309 0
M  V30 51355 C 4762.02 -3.58773 0.362573 0
M  V30 51356 O 4761.12 -4.07374 -0.64189 0
M  V30 51357 H 4760.46 -0.648325 0.143425 0
M  V30 51358 H 4762.99 -1.76766 1.03029 0
M  V30 51359 H 4763 -4.07433 0.214987 0
M  V30 51360 H 4761.68 -3.93091 1.35838 0
M  V30 51361 H 4760.25 -3.7007 -0.458558 0
M  V30 51362 N 4762.44 -0.507371 -1.4921 0
M  V30 51363 C 4763.67 0.0314565 -2.06576 0
M  V30 51364 C 4764.08 1.30786 -1.36718 0
M  V30 51365 O 4763.42 1.78322 -0.441244 0
M  V30 51366 C 4763.48 0.348978 -3.57802 0
M  V30 51367 C 4763.15 -0.830633 -4.49388 0
M  V30 51368 C 4764.14 -1.72288 -4.90523 0
M  V30 51369 C 4761.83 -1.03124 -4.916 0
M  V30 51370 C 4763.82 -2.79984 -5.72615 0
M  V30 51371 C 4761.51 -2.11136 -5.73467 0
M  V30 51372 C 4762.51 -2.994 -6.1388 0
M  V30 51373 O 4762.19 -4.05547 -6.94108 0
M  V30 51374 H 4761.93 -0.020124 -0.6757 0
M  V30 51375 H 4764.48 -0.705805 -1.92893 0
M  V30 51376 H 4762.71 1.13992 -3.69517 0
M  V30 51377 H 4764.4 0.827179 -3.97382 0
M  V30 51378 H 4765.17 -1.57974 -4.58551 0
M  V30 51379 H 4761.04 -0.353579 -4.59642 0
M  V30 51380 H 4764.59 -3.48906 -6.04078 0
M  V30 51381 H 4760.49 -2.25443 -6.04852 0
M  V30 51382 H 4761.25 -4.02978 -7.12426 0
M  V30 51383 N 4763.92 1.55739 -0.241481 0
M  V30 51384 C 4764.86 2.22541 0.676639 0
M  V30 51385 C 4765.86 1.21121 1.18431 0
M  V30 51386 O 4767.06 1.39148 1.14183 0
M  V30 51387 H 4763.44 0.713785 0.236675 0
M  V30 51388 H 4765.41 2.98264 0.0900138 0
M  V30 51389 C 4764.16 2.93445 1.86508 0
M  V30 51390 H 4763.48 3.71255 1.48357 0
M  V30 51391 H 4764.92 3.43558 2.48483 0
M  V30 51392 C 4763.38 1.97017 2.73287 0
M  V30 51393 O 4763.91 1.49978 3.72652 0
M  V30 51394 N 4762.12 1.64235 2.3974 0
M  V30 51395 H 4761.66 2.02683 1.58989 0
M  V30 51396 H 4761.62 0.999813 2.98079 0
M  V30 51397 N 4765.39 -0.0316971 1.57568 0
M  V30 51398 C 4766.3 -1.05014 2.09784 0
M  V30 51399 C 4767.32 -1.39805 1.03588 0
M  V30 51400 O 4768.5 -1.49177 1.35307 0
M  V30 51401 C 4765.56 -2.33292 2.56468 0
M  V30 51402 C 4764.62 -2.05106 3.77134 0
M  V30 51403 C 4763.86 -3.27268 4.21582 0
M  V30 51404 O 4764.08 -4.37848 3.65575 0
M  V30 51405 O 4763.01 -3.13123 5.1404 0
M  V30 51406 H 4766.84 -0.6364 2.96957 0
M  V30 51407 H 4764.42 -0.248507 1.47319 0
M  V30 51408 H 4766.31 -3.08712 2.86836 0
M  V30 51409 H 4764.98 -2.73967 1.72406 0
M  V30 51410 H 4763.89 -1.27263 3.51788 0
M  V30 51411 H 4765.22 -1.69289 4.62171 0
M  V30 51412 N 4766.87 -1.54642 -0.303919 0
M  V30 51413 C 4768.1 -1.77772 -1.05852 0
M  V30 51414 C 4768.52 -0.535786 -1.81038 0
M  V30 51415 O 4767.87 0.494275 -1.75679 0
M  V30 51416 C 4767.92 -2.98347 -2.04135 0
M  V30 51417 O 4767.64 -4.17741 -1.32 0
M  V30 51418 C 4769.15 -3.33843 -2.91657 0
M  V30 51419 H 4766.37 -0.592972 -0.314046 0
M  V30 51420 H 4768.91 -2.01585 -0.344078 0
M  V30 51421 H 4767.06 -2.76751 -2.71086 0
M  V30 51422 H 4767.48 -4.85699 -1.9798 0
M  V30 51423 H 4768.95 -4.2146 -3.56476 0
M  V30 51424 H 4769.43 -2.51869 -3.59803 0
M  V30 51425 H 4770.04 -3.57588 -2.30242 0
M  V30 51426 N 4768.35 0.566968 -1.47048 0
M  V30 51427 C 4769.3 1.67484 -1.58801 0
M  V30 51428 C 4770.27 1.60397 -0.431496 0
M  V30 51429 O 4771.45 1.79376 -0.650296 0
M  V30 51430 C 4768.59 3.05815 -1.59909 0
M  V30 51431 C 4767.71 3.2341 -2.86408 0
M  V30 51432 C 4766.84 4.52083 -2.78916 0
M  V30 51433 C 4765.88 4.63076 -4.00283 0
M  V30 51434 N 4765.02 5.83093 -3.91085 0
M  V30 51435 H 4769.86 1.56776 -2.53427 0
M  V30 51436 H 4767.39 0.763852 -1.25713 0
M  V30 51437 H 4769.35 3.85905 -1.58536 0
M  V30 51438 H 4767.98 3.15382 -0.68804 0
M  V30 51439 H 4767.03 2.36819 -2.97692 0
M  V30 51440 H 4768.35 3.27399 -3.76313 0
M  V30 51441 H 4767.5 5.4042 -2.75737 0
M  V30 51442 H 4766.24 4.50558 -1.86678 0
M  V30 51443 H 4765.24 3.73153 -4.03778 0
M  V30 51444 H 4766.47 4.66368 -4.93637 0
M  V30 51445 H 4764.41 5.82535 -3.01644 0
M  V30 51446 H 4764.33 5.88417 -4.74659 0
M  V30 51447 H 4765.6 6.73818 -3.91906 0
M  V30 51448 N 4769.83 1.35017 0.812906 0
M  V30 51449 C 4771.08 1.27274 1.56474 0
M  V30 51450 C 4771.39 -0.152703 1.95003 0
M  V30 51451 O 4772.6 -0.352356 2.69204 0
M  V30 51452 C 4771.05 2.23169 2.82354 0
M  V30 51453 C 4770.66 3.71024 2.51087 0
M  V30 51454 C 4772.4 2.24355 3.60368 0
M  V30 51455 C 4770.31 4.58759 3.73221 0
M  V30 51456 H 4769.24 0.472849 0.587307 0
M  V30 51457 H 4771.89 1.60243 0.894115 0
M  V30 51458 H 4770.27 1.83164 3.51094 0
M  V30 51459 H 4771.45 4.19627 1.90394 0
M  V30 51460 H 4769.76 3.72384 1.8633 0
M  V30 51461 H 4772.36 2.87123 4.51071 0
M  V30 51462 H 4772.7 1.24556 3.9723 0
M  V30 51463 H 4773.24 2.62857 2.98582 0
M  V30 51464 H 4769.98 5.59533 3.41472 0
M  V30 51465 H 4769.5 4.14887 4.33162 0
M  V30 51466 H 4771.17 4.73868 4.4052 0
M  V30 51467 N 4771.31 -1.03431 1.18911 0
M  V30 51468 C 4772.25 -2.11588 0.921912 0
M  V30 51469 C 4773.22 -1.65499 -0.141167 0
M  V30 51470 O 4774.41 -1.908 -0.000175753 0
M  V30 51471 C 4771.55 -3.42011 0.460736 0
M  V30 51472 C 4770.66 -4.01677 1.58996 0
M  V30 51473 C 4769.8 -5.20087 1.08087 0
M  V30 51474 C 4768.84 -5.71797 2.18436 0
M  V30 51475 N 4767.97 -6.81488 1.68873 0
M  V30 51476 H 4772.81 -2.33781 1.84799 0
M  V30 51477 H 4770.35 -1.14666 0.921413 0
M  V30 51478 H 4772.31 -4.16834 0.174789 0
M  V30 51479 H 4770.94 -3.19945 -0.428354 0
M  V30 51480 H 4769.99 -3.2412 1.99125 0
M  V30 51481 H 4771.3 -4.36076 2.42156 0
M  V30 51482 H 4770.46 -6.02049 0.749827 0
M  V30 51483 H 4769.19 -4.87208 0.218942 0
M  V30 51484 H 4768.2 -4.88453 2.52377 0
M  V30 51485 H 4769.42 -6.06718 3.05075 0
M  V30 51486 H 4767.37 -6.50472 0.849801 0
M  V30 51487 H 4767.29 -7.14985 2.45626 0
M  V30 51488 H 4768.56 -7.67058 1.38716 0
M  V30 51489 N 4772.78 -0.992159 -1.2245 0
M  V30 51490 C 4774.03 -0.667601 -1.91179 0
M  V30 51491 C 4774.36 0.800255 -1.77274 0
M  V30 51492 O 4773.61 1.59417 -1.13511 0
M  V30 51493 C 4773.91 -1.01845 -3.42582 0
M  V30 51494 C 4773.58 -2.47844 -3.76675 0
M  V30 51495 C 4772.24 -2.87742 -3.85691 0
M  V30 51496 C 4774.59 -3.4248 -3.92883 0
M  V30 51497 C 4771.92 -4.21267 -4.08352 0
M  V30 51498 C 4774.27 -4.75662 -4.17047 0
M  V30 51499 C 4772.94 -5.15303 -4.24287 0
M  V30 51500 H 4772.21 -0.244293 -0.699573 0
M  V30 51501 H 4774.85 -1.24821 -1.45231 0
M  V30 51502 H 4773.16 -0.355906 -3.9018 0
M  V30 51503 H 4774.86 -0.745366 -3.94012 0
M  V30 51504 H 4771.45 -2.15918 -3.70239 0
M  V30 51505 H 4775.63 -3.12827 -3.85296 0
M  V30 51506 H 4770.89 -4.51569 -4.12184 0
M  V30 51507 H 4775.06 -5.48939 -4.28531 0
M  V30 51508 H 4772.69 -6.18785 -4.41599 0
M  V30 51509 N 4774.26 1.37773 -0.765266 0
M  V30 51510 C 4775.54 1.93974 -0.251665 0
M  V30 51511 C 4775.92 1.69953 1.25216 0
M  V30 51512 O 4775.27 1.04465 2.03223 0
M  V30 51513 C 4775.48 3.43484 -0.618015 0
M  V30 51514 C 4776.83 4.20562 -0.584176 0
M  V30 51515 O 4777.85 3.51818 -0.557012 0
M  V30 51516 O 4776.71 5.43135 -0.605482 0
M  V30 51517 H 4773.8 0.825088 -0.0562096 0
M  V30 51518 H 4776.35 1.47098 -0.846179 0
M  V30 51519 H 4775.12 3.54524 -1.65615 0
M  V30 51520 H 4774.74 3.976 0.00389433 0
M  V30 51521 N 4775.74 0.515277 1.48938 0
M  V30 51522 C 4776.69 -0.255486 2.29382 0
M  V30 51523 C 4777.66 -0.947339 1.36436 0
M  V30 51524 O 4778.84 -0.95123 1.65397 0
M  V30 51525 C 4775.98 -1.3054 3.19458 0
M  V30 51526 C 4775.1 -0.623879 4.27471 0
M  V30 51527 C 4774.23 -1.65546 5.04746 0
M  V30 51528 C 4773.27 -0.956589 6.04579 0
M  V30 51529 N 4772.41 -1.93303 6.74966 0
M  V30 51530 H 4777.25 0.436711 2.94783 0
M  V30 51531 H 4774.78 0.227205 1.45335 0
M  V30 51532 H 4776.74 -1.92626 3.70069 0
M  V30 51533 H 4775.37 -1.96617 2.56011 0
M  V30 51534 H 4774.42 0.110593 3.80239 0
M  V30 51535 H 4775.74 -0.0744338 4.98744 0
M  V30 51536 H 4774.89 -2.35099 5.59297 0
M  V30 51537 H 4773.63 -2.23878 4.33278 0
M  V30 51538 H 4772.63 -0.246904 5.49245 0
M  V30 51539 H 4773.86 -0.379576 6.78038 0
M  V30 51540 H 4771.81 -2.5057 6.0626 0
M  V30 51541 H 4771.72 -1.43463 7.42263 0
M  V30 51542 H 4772.99 -2.621 7.34114 0
M  V30 51543 N 4777.22 -1.55609 0.249737 0
M  V30 51544 C 4778.45 -2.03118 -0.377732 0
M  V30 51545 C 4778.86 -1.12827 -1.51877 0
M  V30 51546 O 4778.2 -0.135685 -1.83198 0
M  V30 51547 C 4778.26 -3.46869 -0.944571 0
M  V30 51548 C 4777.93 -4.56954 0.0645865 0
M  V30 51549 C 4778.92 -5.12482 0.875137 0
M  V30 51550 C 4776.61 -5.01935 0.191497 0
M  V30 51551 C 4778.6 -6.11485 1.79903 0
M  V30 51552 C 4776.29 -6.0077 1.11889 0
M  V30 51553 C 4777.29 -6.55423 1.92118 0
M  V30 51554 O 4776.98 -7.5233 2.83293 0
M  V30 51555 H 4776.71 -0.669492 -0.0935725 0
M  V30 51556 H 4779.26 -2.02003 0.372037 0
M  V30 51557 H 4777.49 -3.45142 -1.74395 0
M  V30 51558 H 4779.18 -3.77861 -1.48242 0
M  V30 51559 H 4779.95 -4.78561 0.787691 0
M  V30 51560 H 4775.83 -4.59056 -0.422911 0
M  V30 51561 H 4779.37 -6.5407 2.42566 0
M  V30 51562 H 4775.27 -6.3411 1.20725 0
M  V30 51563 H 4776.03 -7.69956 2.77687 0
M  V30 51564 N 4778.7 0.0233405 -1.57583 0
M  V30 51565 C 4779.64 1.02217 -2.06931 0
M  V30 51566 C 4780.61 1.35572 -0.959665 0
M  V30 51567 O 4781.8 1.45811 -1.23061 0
M  V30 51568 C 4778.94 2.31627 -2.55818 0
M  V30 51569 C 4778.05 2.04381 -3.80595 0
M  V30 51570 C 4777.19 3.27703 -4.18072 0
M  V30 51571 C 4776.23 2.96037 -5.3575 0
M  V30 51572 N 4775.36 4.11827 -5.68633 0
M  V30 51573 H 4780.2 0.594401 -2.92012 0
M  V30 51574 H 4777.74 0.28187 -1.44374 0
M  V30 51575 H 4779.7 3.07248 -2.82232 0
M  V30 51576 H 4778.33 2.72116 -1.73645 0
M  V30 51577 H 4777.38 1.19232 -3.61231 0
M  V30 51578 H 4778.69 1.77026 -4.6633 0
M  V30 51579 H 4777.85 4.11687 -4.45644 0
M  V30 51580 H 4776.59 3.58176 -3.31 0
M  V30 51581 H 4775.59 2.10456 -5.07926 0
M  V30 51582 H 4776.82 2.66835 -6.2448 0
M  V30 51583 H 4774.76 4.42241 -4.84519 0
M  V30 51584 H 4774.68 3.87915 -6.4889 0
M  V30 51585 H 4775.95 4.96668 -6.00784 0
M  V30 51586 N 4780.18 1.54801 0.295713 0
M  V30 51587 C 4781.14 1.85368 1.34801 0
M  V30 51588 C 4782.14 0.726868 1.43434 0
M  V30 51589 O 4783.33 0.995138 1.42978 0
M  V30 51590 C 4780.46 2.03869 2.73222 0
M  V30 51591 H 4781.65 2.79414 1.08939 0
M  V30 51592 H 4779.21 1.46944 0.53265 0
M  V30 51593 H 4779.94 1.12128 3.04299 0
M  V30 51594 H 4779.73 2.8589 2.68346 0
M  V30 51595 H 4781.22 2.2887 3.49297 0
M  V30 51596 N 4781.65 -0.559161 1.47347 0
M  V30 51597 C 4782.56 -1.69383 1.62317 0
M  V30 51598 C 4783.58 -1.66479 0.506051 0
M  V30 51599 O 4784.76 -1.85961 0.773328 0
M  V30 51600 C 4781.82 -3.05889 1.63196 0
M  V30 51601 C 4780.88 -3.19875 2.86319 0
M  V30 51602 C 4780.11 -4.49869 2.87147 0
M  V30 51603 O 4780.34 -5.3521 1.97248 0
M  V30 51604 O 4779.27 -4.67605 3.78984 0
M  V30 51605 H 4783.1 -1.59696 2.58323 0
M  V30 51606 H 4780.68 -0.728943 1.3041 0
M  V30 51607 H 4782.56 -3.87127 1.66465 0
M  V30 51608 H 4781.24 -3.15962 0.703561 0
M  V30 51609 H 4780.15 -2.38041 2.88595 0
M  V30 51610 H 4781.48 -3.14705 3.78446 0
M  V30 51611 N 4783.13 -1.35446 -0.805734 0
M  V30 51612 C 4784.08 -1.28438 -1.91761 0
M  V30 51613 C 4785.05 -0.15616 -1.65364 0
M  V30 51614 O 4786.23 -0.340002 -1.87746 0
M  V30 51615 C 4783.37 -1.06312 -3.28317 0
M  V30 51616 C 4782.49 -2.28063 -3.66894 0
M  V30 51617 C 4781.62 -1.99081 -4.92484 0
M  V30 51618 C 4780.66 -3.16881 -5.23691 0
M  V30 51619 N 4779.8 -2.87669 -6.40461 0
M  V30 51620 H 4784.64 -2.23518 -1.97088 0
M  V30 51621 H 4782.17 -1.11109 -0.964015 0
M  V30 51622 H 4784.13 -0.915155 -4.07039 0
M  V30 51623 H 4782.76 -0.148935 -3.22456 0
M  V30 51624 H 4781.81 -2.53721 -2.83425 0
M  V30 51625 H 4783.13 -3.16023 -3.85916 0
M  V30 51626 H 4782.28 -1.8112 -5.79034 0
M  V30 51627 H 4781.02 -1.08407 -4.75499 0
M  V30 51628 H 4780.02 -3.35419 -4.35631 0
M  V30 51629 H 4781.25 -4.08358 -5.42605 0
M  V30 51630 H 4779.2 -1.9959 -6.249 0
M  V30 51631 H 4779.11 -3.69164 -6.59738 0
M  V30 51632 H 4780.38 -2.73251 -7.30037 0
M  V30 51633 N 4784.61 1.02799 -1.19458 0
M  V30 51634 C 4785.83 1.80375 -1.0237 0
M  V30 51635 C 4786.26 1.83283 0.422942 0
M  V30 51636 O 4785.62 1.2595 1.30408 0
M  V30 51637 C 4785.67 3.23243 -1.59833 0
M  V30 51638 O 4784.77 4.03997 -0.828247 0
M  V30 51639 H 4784.11 0.556786 -0.361781 0
M  V30 51640 H 4786.64 1.29379 -1.585 0
M  V30 51641 H 4786.65 3.73988 -1.63086 0
M  V30 51642 H 4785.33 3.2044 -2.65124 0
M  V30 51643 H 4783.9 3.62632 -0.869037 0
M  V30 51644 N 4786.09 0.998639 1.21922 0
M  V30 51645 C 4787.04 0.524821 2.21878 0
M  V30 51646 C 4788.02 -0.410116 1.55586 0
M  V30 51647 O 4789.21 -0.236002 1.7542 0
M  V30 51648 C 4786.34 -0.153516 3.42957 0
M  V30 51649 C 4785.43 0.802065 4.16447 0
M  V30 51650 N 4785.82 1.95228 4.66605 0
M  V30 51651 C 4784.12 0.619127 4.41682 0
M  V30 51652 C 4784.82 2.55252 5.22706 0
M  V30 51653 N 4783.79 1.83469 5.11703 0
M  V30 51654 H 4787.6 1.40198 2.58306 0
M  V30 51655 H 4785.11 0.861638 1.37657 0
M  V30 51656 H 4787.11 -0.510388 4.13764 0
M  V30 51657 H 4785.77 -1.02674 3.08039 0
M  V30 51658 H 4786.78 2.33287 4.62382 0
M  V30 51659 H 4783.46 -0.207548 4.16984 0
M  V30 51660 H 4784.85 3.52491 5.72013 0
M  V30 51661 N 4787.57 -1.37365 0.772562 0
M  V30 51662 C 4788.84 -1.93838 0.261948 0
M  V30 51663 C 4789.22 -1.70615 -1.24313 0
M  V30 51664 O 4788.57 -1.05541 -2.02666 0
M  V30 51665 C 4788.78 -3.43152 0.636222 0
M  V30 51666 C 4790.13 -4.20246 0.606472 0
M  V30 51667 O 4791.15 -3.51518 0.575662 0
M  V30 51668 O 4790.01 -5.42807 0.634277 0
M  V30 51669 H 4787.11 -0.824778 0.0605845 0
M  V30 51670 H 4789.65 -1.46647 0.853969 0
M  V30 51671 H 4788.42 -3.53641 1.67492 0
M  V30 51672 H 4788.05 -3.97596 0.0171914 0
M  V30 51673 N 4789.04 -0.523168 -1.48663 0
M  V30 51674 C 4789.95 0.247324 -2.33293 0
M  V30 51675 C 4790.97 0.945717 -1.46055 0
M  V30 51676 O 4792.15 0.92219 -1.79046 0
M  V30 51677 C 4789.21 1.28476 -3.22017 0
M  V30 51678 C 4788.27 0.597443 -4.25122 0
M  V30 51679 C 4787.5 1.58545 -5.09607 0
M  V30 51680 O 4787.73 2.81746 -4.95959 0
M  V30 51681 O 4786.66 1.12858 -5.91225 0
M  V30 51682 H 4790.49 -0.445975 -3.00408 0
M  V30 51683 H 4788.07 -0.28418 -1.46672 0
M  V30 51684 H 4789.95 1.88445 -3.76917 0
M  V30 51685 H 4788.63 1.96059 -2.57571 0
M  V30 51686 H 4787.54 -0.0425722 -3.74076 0
M  V30 51687 H 4788.87 -0.0363247 -4.92187 0
M  V30 51688 N 4790.52 1.55474 -0.257986 0
M  V30 51689 C 4791.45 2.24817 0.630833 0
M  V30 51690 C 4792.43 1.23229 1.17255 0
M  V30 51691 O 4793.62 1.51909 1.20985 0
M  V30 51692 C 4790.75 2.95615 1.82288 0
M  V30 51693 C 4789.7 4.03987 1.41345 0
M  V30 51694 C 4789.03 4.62269 2.68722 0
M  V30 51695 C 4790.33 5.19111 0.576298 0
M  V30 51696 H 4792.02 2.99354 0.0525825 0
M  V30 51697 H 4789.57 1.4398 0.0238504 0
M  V30 51698 H 4791.52 3.4283 2.45041 0
M  V30 51699 H 4790.25 2.18585 2.42669 0
M  V30 51700 H 4788.9 3.57558 0.809199 0
M  V30 51701 H 4788.55 3.81927 3.27324 0
M  V30 51702 H 4788.25 5.35432 2.42046 0
M  V30 51703 H 4789.78 5.12224 3.32354 0
M  V30 51704 H 4791.19 5.62483 1.10841 0
M  V30 51705 H 4789.59 5.98731 0.40514 0
M  V30 51706 H 4790.66 4.83172 -0.408946 0
M  V30 51707 N 4792 -0.0149831 1.57593 0
M  V30 51708 C 4793.41 -0.55977 1.78111 0
M  V30 51709 C 4793.76 -1.74811 0.890817 0
M  V30 51710 O 4792.89 -2.16216 0.0893243 0
M  V30 51711 C 4793.48 -1.02226 3.2301 0
M  V30 51712 C 4792.04 -1.51246 3.44676 0
M  V30 51713 C 4791.19 -0.456859 2.73511 0
M  V30 51714 H 4794.14 0.211224 1.57288 0
M  V30 51715 H 4794.16 -1.889 3.30298 0
M  V30 51716 H 4793.67 -0.157166 3.87782 0
M  V30 51717 H 4791.77 -2.39895 2.85098 0
M  V30 51718 H 4791.89 -1.55026 4.53325 0
M  V30 51719 H 4790.25 -0.915112 2.37693 0
M  V30 51720 H 4791.03 0.399016 3.40973 0
M  V30 51721 N 4793.48 -1.54955 -0.2875 0
M  V30 51722 C 4794.89 -1.46471 -0.633912 0
M  V30 51723 C 4795.09 -0.666931 -1.90143 0
M  V30 51724 O 4794.15 -0.179994 -2.51858 0
M  V30 51725 C 4795.46 -2.90559 -0.774351 0
M  V30 51726 C 4797.01 -3.00685 -0.869357 0
M  V30 51727 C 4797.49 -4.45996 -1.04169 0
M  V30 51728 N 4798.98 -4.49764 -1.10757 0
M  V30 51729 C 4799.71 -5.59397 -1.25945 0
M  V30 51730 N 4799.21 -6.78928 -1.37944 0
M  V30 51731 N 4801 -5.47111 -1.2894 0
M  V30 51732 H 4793.15 -2.05286 0.545114 0
M  V30 51733 H 4795.42 -0.930299 0.182341 0
M  V30 51734 H 4795.12 -3.51594 0.0863306 0
M  V30 51735 H 4795 -3.38749 -1.65918 0
M  V30 51736 H 4797.38 -2.39755 -1.72052 0
M  V30 51737 H 4797.46 -2.55769 0.039773 0
M  V30 51738 H 4797.11 -5.07525 -0.195244 0
M  V30 51739 H 4797.04 -4.88555 -1.96525 0
M  V30 51740 H 4799.53 -3.63654 -1.02782 0
M  V30 51741 H 4799.84 -7.58236 -1.49326 0
M  V30 51742 H 4798.19 -6.81767 -1.34975 0
M  V30 51743 H 4801.38 -4.52672 -1.19186 0
M  V30 51744 H 4801.55 -6.326 -1.40433 0
M  V30 51745 N 4794.96 0.551339 -1.47641 0
M  V30 51746 C 4796.18 1.33351 -1.58193 0
M  V30 51747 C 4796.6 1.87341 -0.234265 0
M  V30 51748 O 4795.96 1.65303 0.773372 0
M  V30 51749 C 4796.01 2.49933 -2.61181 0
M  V30 51750 O 4795.73 1.98173 -3.90716 0
M  V30 51751 C 4797.23 3.42062 -2.81972 0
M  V30 51752 H 4794.45 0.406291 -0.534012 0
M  V30 51753 H 4796.99 0.667299 -1.93306 0
M  V30 51754 H 4795.15 3.12481 -2.28986 0
M  V30 51755 H 4795.56 2.74326 -4.47041 0
M  V30 51756 H 4797.04 4.20266 -3.57884 0
M  V30 51757 H 4797.51 3.95971 -1.90009 0
M  V30 51758 H 4798.12 2.85325 -3.15388 0
M  V30 51759 N 4796.43 1.35872 0.79854 0
M  V30 51760 C 4797.68 1.29594 1.55601 0
M  V30 51761 C 4798.01 -0.127388 1.94082 0
M  V30 51762 O 4797.26 -1.09455 1.62228 0
M  V30 51763 C 4797.56 2.1557 2.85069 0
M  V30 51764 C 4797.23 3.6425 2.65769 0
M  V30 51765 C 4795.89 4.04775 2.60213 0
M  V30 51766 C 4798.24 4.58556 2.47742 0
M  V30 51767 C 4795.57 5.37761 2.34584 0
M  V30 51768 C 4797.92 5.9175 2.23641 0
M  V30 51769 C 4796.59 6.3141 2.16512 0
M  V30 51770 H 4795.86 0.474217 0.569385 0
M  V30 51771 H 4798.5 1.67842 0.922027 0
M  V30 51772 H 4796.81 1.70228 3.52887 0
M  V30 51773 H 4798.51 2.08043 3.42811 0
M  V30 51774 H 4795.1 3.32095 2.70944 0
M  V30 51775 H 4799.28 4.28126 2.51041 0
M  V30 51776 H 4794.54 5.67482 2.2754 0
M  V30 51777 H 4798.71 6.64397 2.08685 0
M  V30 51778 H 4796.34 7.34387 1.96416 0
M  V30 51779 N 4797.91 -1.02164 1.20001 0
M  V30 51780 C 4798.84 -2.10702 0.902068 0
M  V30 51781 C 4799.86 -1.6244 -0.108159 0
M  V30 51782 O 4801.05 -1.78081 0.122203 0
M  V30 51783 C 4798.15 -3.3729 0.329953 0
M  V30 51784 C 4797.32 -4.14709 1.3905 0
M  V30 51785 C 4796.38 -5.19603 0.830614 0
M  V30 51786 O 4795.4 -5.48803 1.51008 0
M  V30 51787 N 4796.61 -5.79367 -0.362493 0
M  V30 51788 H 4799.37 -2.3685 1.83636 0
M  V30 51789 H 4796.93 -1.18514 1.103 0
M  V30 51790 H 4798.92 -4.04658 -0.0586211 0
M  V30 51791 H 4797.49 -3.08432 -0.508782 0
M  V30 51792 H 4796.71 -3.42385 1.95362 0
M  V30 51793 H 4798 -4.63218 2.10491 0
M  V30 51794 H 4797.4 -5.57972 -0.931885 0
M  V30 51795 H 4795.96 -6.48108 -0.692762 0
M  V30 51796 N 4799.39 -1.00509 -1.21391 0
M  V30 51797 C 4800.64 -0.683226 -1.89776 0
M  V30 51798 C 4800.95 0.789408 -1.78963 0
M  V30 51799 O 4802.16 1.22336 -2.42376 0
M  V30 51800 C 4800.61 -1.17158 -3.40297 0
M  V30 51801 C 4800.22 -2.6703 -3.59721 0
M  V30 51802 C 4801.97 -0.924606 -4.14308 0
M  V30 51803 C 4799.87 -3.09405 -5.04006 0
M  V30 51804 H 4798.8 -0.251855 -0.710693 0
M  V30 51805 H 4801.45 -1.21626 -1.37402 0
M  V30 51806 H 4799.84 -0.566589 -3.91926 0
M  V30 51807 H 4801.01 -3.32979 -3.18531 0
M  V30 51808 H 4799.33 -2.89742 -2.99062 0
M  V30 51809 H 4801.92 -1.21676 -5.20672 0
M  V30 51810 H 4802.27 0.13914 -4.16067 0
M  V30 51811 H 4802.8 -1.49239 -3.68745 0
M  V30 51812 H 4799.54 -4.15007 -5.07395 0
M  V30 51813 H 4799.06 -2.48168 -5.46052 0
M  V30 51814 H 4800.74 -3.01391 -5.72514 0
M  V30 51815 N 4800.87 1.36954 -0.779835 0
M  V30 51816 C 4802.28 1.82092 -0.41222 0
M  V30 51817 C 4802.63 1.64929 1.06267 0
M  V30 51818 O 4801.76 1.16489 1.82371 0
M  V30 51819 C 4802.35 3.30588 -0.741435 0
M  V30 51820 C 4800.91 3.73973 -0.426773 0
M  V30 51821 C 4800.06 2.59365 -0.981078 0
M  V30 51822 H 4803.01 1.25311 -0.973802 0
M  V30 51823 H 4803.03 3.80489 -0.0290207 0
M  V30 51824 H 4802.54 3.43047 -1.81494 0
M  V30 51825 H 4800.64 3.67078 0.639086 0
M  V30 51826 H 4800.75 4.69774 -0.94068 0
M  V30 51827 H 4799.12 2.51462 -0.404846 0
M  V30 51828 H 4799.9 2.74614 -2.06015 0
M  V30 51829 N 4802.35 0.531045 1.48384 0
M  V30 51830 C 4803.59 -0.00266084 2.021 0
M  V30 51831 C 4803.92 -1.34667 1.41031 0
M  V30 51832 O 4803.19 -1.87238 0.576078 0
M  V30 51833 H 4801.77 -0.00397148 0.746989 0
M  V30 51834 H 4804.43 0.695118 1.82083 0
M  V30 51835 H 4803.52 -0.1102 3.11905 0
M  V30 51836 N 4803.82 -1.55335 0.266227 0
M  V30 51837 C 4805.05 -2.03507 -0.356167 0
M  V30 51838 C 4805.46 -1.14431 -1.50672 0
M  V30 51839 O 4804.81 -0.155108 -1.83044 0
M  V30 51840 C 4804.87 -3.47851 -0.907728 0
M  V30 51841 C 4804.53 -4.5686 0.113049 0
M  V30 51842 C 4805.53 -5.11525 0.929443 0
M  V30 51843 C 4803.21 -5.01703 0.244723 0
M  V30 51844 C 4805.21 -6.09542 1.86378 0
M  V30 51845 C 4802.89 -5.99549 1.18255 0
M  V30 51846 C 4803.89 -6.53349 1.99059 0
M  V30 51847 O 4803.58 -7.49283 2.91257 0
M  V30 51848 H 4803.31 -0.670447 -0.0864664 0
M  V30 51849 H 4805.87 -2.01597 0.393441 0
M  V30 51850 H 4804.1 -3.46973 -1.70725 0
M  V30 51851 H 4805.79 -3.79412 -1.44226 0
M  V30 51852 H 4806.55 -4.77698 0.838405 0
M  V30 51853 H 4802.43 -4.59479 -0.374198 0
M  V30 51854 H 4805.97 -6.5146 2.4949 0
M  V30 51855 H 4801.87 -6.32794 1.27444 0
M  V30 51856 H 4802.64 -7.66968 2.85837 0
M  V30 51857 N 4805.3 0.0066254 -1.57599 0
M  V30 51858 C 4806.53 0.704018 -1.94554 0
M  V30 51859 C 4806.95 1.67674 -0.867805 0
M  V30 51860 O 4806.3 1.8185 0.153861 0
M  V30 51861 C 4806.35 1.44165 -3.3151 0
M  V30 51862 O 4806.08 0.507945 -4.35145 0
M  V30 51863 C 4807.58 2.23416 -3.82884 0
M  V30 51864 H 4804.8 0.196501 -0.641583 0
M  V30 51865 H 4807.34 -0.0425249 -2.04456 0
M  V30 51866 H 4805.5 2.13988 -3.22936 0
M  V30 51867 H 4805.91 1.02764 -5.14334 0
M  V30 51868 H 4807.38 2.70535 -4.8116 0
M  V30 51869 H 4807.86 3.05807 -3.15244 0
M  V30 51870 H 4808.47 1.58623 -3.94612 0
M  V30 51871 N 4806.78 1.55106 0.279278 0
M  V30 51872 C 4808.03 1.75676 1.01321 0
M  V30 51873 C 4808.36 0.552804 1.86166 0
M  V30 51874 O 4807.64 -0.44976 1.89228 0
M  V30 51875 C 4807.92 3.05831 1.90103 0
M  V30 51876 C 4807.77 4.36569 1.08293 0
M  V30 51877 C 4809.09 3.31985 2.88918 0
M  V30 51878 H 4806.21 0.639162 0.366934 0
M  V30 51879 H 4808.85 1.87834 0.286088 0
M  V30 51880 H 4807 2.95597 2.52101 0
M  V30 51881 H 4808.67 4.58752 0.484153 0
M  V30 51882 H 4806.92 4.32077 0.38621 0
M  V30 51883 H 4807.59 5.23952 1.73718 0
M  V30 51884 H 4810.06 3.41971 2.37055 0
M  V30 51885 H 4808.94 4.24332 3.48186 0
M  V30 51886 H 4809.2 2.51322 3.63716 0
M  V30 51887 N 4808.26 -0.543502 1.47932 0
M  V30 51888 C 4809.67 -1.12556 1.48957 0
M  V30 51889 C 4810.02 -1.94577 0.251823 0
M  V30 51890 O 4809.15 -2.06652 -0.642182 0
M  V30 51891 C 4809.74 -2.04792 2.69899 0
M  V30 51892 C 4808.3 -2.58242 2.7384 0
M  V30 51893 C 4807.45 -1.34909 2.4227 0
M  V30 51894 H 4810.4 -0.329415 1.55244 0
M  V30 51895 H 4810.42 -2.88878 2.47649 0
M  V30 51896 H 4809.93 -1.45068 3.59968 0
M  V30 51897 H 4808.03 -3.21726 1.87945 0
M  V30 51898 H 4808.15 -2.98299 3.74906 0
M  V30 51899 H 4806.51 -1.6604 1.9314 0
M  V30 51900 H 4807.29 -0.769576 3.34563 0
M  V30 51901 N 4809.74 -1.36293 -0.791323 0
M  V30 51902 C 4810.98 -1.3061 -1.55141 0
M  V30 51903 C 4811.32 0.114974 -1.93859 0
M  V30 51904 O 4810.59 1.06792 -1.6256 0
M  V30 51905 C 4810.87 -2.22702 -2.82977 0
M  V30 51906 C 4810.73 -3.73498 -2.50638 0
M  V30 51907 C 4812.05 -2.13602 -3.84789 0
M  V30 51908 H 4809.17 -0.475781 -0.562852 0
M  V30 51909 H 4811.81 -1.66829 -0.909299 0
M  V30 51910 H 4809.96 -1.91945 -3.37771 0
M  V30 51911 H 4811.63 -4.14765 -2.01909 0
M  V30 51912 H 4809.87 -3.93027 -1.83608 0
M  V30 51913 H 4810.54 -4.33342 -3.41933 0
M  V30 51914 H 4813.02 -2.40671 -3.39436 0
M  V30 51915 H 4811.9 -2.80211 -4.71988 0
M  V30 51916 H 4812.16 -1.12271 -4.27607 0
M  V30 51917 N 4811.22 1.01526 -1.20541 0
M  V30 51918 C 4812.46 1.75405 -1.01789 0
M  V30 51919 C 4812.79 1.88944 0.448747 0
M  V30 51920 O 4812.07 1.41625 1.33314 0
M  V30 51921 C 4812.35 3.17249 -1.70367 0
M  V30 51922 C 4812.21 3.11496 -3.24484 0
M  V30 51923 C 4813.52 4.1595 -1.43784 0
M  V30 51924 H 4810.64 0.6367 -0.371189 0
M  V30 51925 H 4813.29 1.1843 -1.48574 0
M  V30 51926 H 4811.44 3.65894 -1.30591 0
M  V30 51927 H 4813.11 2.70645 -3.73563 0
M  V30 51928 H 4811.35 2.48858 -3.5532 0
M  V30 51929 H 4812.02 4.11771 -3.67625 0
M  V30 51930 H 4814.5 3.75966 -1.78293 0
M  V30 51931 H 4813.37 5.13361 -1.94297 0
M  V30 51932 H 4813.63 4.40585 -0.365719 0
M  V30 51933 N 4812.69 1.01151 1.20856 0
M  V30 51934 C 4813.64 0.570669 2.25491 0
M  V30 51935 C 4814.64 -0.388051 1.64895 0
M  V30 51936 O 4815.84 -0.25853 1.78134 0
M  V30 51937 H 4812.22 0.166217 0.7334 0
M  V30 51938 H 4814.19 1.4642 2.60007 0
M  V30 51939 C 4812.94 -0.0804019 3.47607 0
M  V30 51940 H 4812.26 0.648295 3.94509 0
M  V30 51941 H 4813.7 -0.352048 4.22536 0
M  V30 51942 C 4812.16 -1.32164 3.09894 0
M  V30 51943 O 4812.69 -2.41542 3.20968 0
M  V30 51944 N 4810.89 -1.20383 2.64493 0
M  V30 51945 H 4810.44 -0.313815 2.55681 0
M  V30 51946 H 4810.4 -2.03532 2.39629 0
M  V30 51947 N 4814.17 -1.36538 0.787088 0
M  V30 51948 C 4815.42 -1.99598 0.358942 0
M  V30 51949 C 4815.75 -1.62327 -1.066 0
M  V30 51950 O 4815.03 -0.876919 -1.7361 0
M  V30 51951 C 4815.31 -3.56325 0.520069 0
M  V30 51952 C 4815.16 -4.03457 1.98853 0
M  V30 51953 C 4816.48 -4.4005 -0.066319 0
M  V30 51954 H 4813.6 -0.725102 0.131894 0
M  V30 51955 H 4816.24 -1.61987 0.992993 0
M  V30 51956 H 4814.39 -3.88495 -0.0196955 0
M  V30 51957 H 4816.06 -3.81784 2.58918 0
M  V30 51958 H 4814.31 -3.55083 2.49196 0
M  V30 51959 H 4814.98 -5.12432 2.05225 0
M  V30 51960 H 4817.45 -4.14227 0.394412 0
M  V30 51961 H 4816.33 -5.48847 0.0764612 0
M  V30 51962 H 4816.59 -4.26659 -1.1582 0
M  V30 51963 N 4815.65 -0.538906 -1.481 0
M  V30 51964 C 4816.56 0.222566 -2.33542 0
M  V30 51965 C 4817.58 0.930173 -1.4705 0
M  V30 51966 O 4818.75 0.903148 -1.80014 0
M  V30 51967 C 4815.82 1.25053 -3.23361 0
M  V30 51968 C 4814.88 0.552319 -4.25732 0
M  V30 51969 C 4814.11 1.53131 -5.1126 0
M  V30 51970 O 4814.33 2.76469 -4.9892 0
M  V30 51971 O 4813.27 1.06581 -5.92388 0
M  V30 51972 H 4817.09 -0.477812 -2.99918 0
M  V30 51973 H 4814.68 -0.29972 -1.46363 0
M  V30 51974 H 4816.56 1.84437 -3.78894 0
M  V30 51975 H 4815.24 1.93316 -2.59636 0
M  V30 51976 H 4814.14 -0.0822455 -3.7401 0
M  V30 51977 H 4815.48 -0.0885256 -4.9212 0
M  V30 51978 N 4817.13 1.55192 -0.274461 0
M  V30 51979 C 4818.37 1.99878 0.343016 0
M  V30 51980 C 4818.71 1.16262 1.55553 0
M  V30 51981 O 4817.98 0.23253 1.93105 0
M  V30 51982 C 4818.26 3.52709 0.725841 0
M  V30 51983 C 4818.12 4.47079 -0.493975 0
M  V30 51984 C 4819.44 4.11428 1.56253 0
M  V30 51985 H 4816.56 0.726629 0.123203 0
M  V30 51986 H 4819.2 1.86135 -0.381275 0
M  V30 51987 H 4817.35 3.64551 1.34294 0
M  V30 51988 H 4819.02 4.47182 -1.13253 0
M  V30 51989 H 4817.26 4.18766 -1.13216 0
M  V30 51990 H 4817.93 5.51699 -0.182364 0
M  V30 51991 H 4820.41 4.02858 1.04136 0
M  V30 51992 H 4819.29 5.18575 1.79921 0
M  V30 51993 H 4819.55 3.61616 2.54335 0
M  V30 51994 N 4818.61 0.00173253 1.576 0
M  V30 51995 C 4819.83 -0.697321 1.95326 0
M  V30 51996 C 4820.26 -1.66417 0.876764 0
M  V30 51997 O 4819.61 -1.80548 -0.164944 0
M  V30 51998 C 4819.66 -1.40391 3.32149 0
M  V30 51999 O 4818.77 -2.51838 3.26575 0
M  V30 52000 H 4818.11 -0.18535 0.637606 0
M  V30 52001 H 4820.64 0.0554384 2.04525 0
M  V30 52002 H 4820.65 -1.76694 3.67754 0
M  V30 52003 H 4819.32 -0.695023 4.10052 0
M  V30 52004 H 4817.9 -2.1785 3.02648 0
M  V30 52005 N 4820.08 -1.55252 -0.271048 0
M  V30 52006 C 4821.5 -1.66638 -0.841949 0
M  V30 52007 C 4821.85 -0.594697 -1.8697 0
M  V30 52008 O 4820.97 0.263457 -2.1479 0
M  V30 52009 C 4821.57 -3.02087 -1.53391 0
M  V30 52010 C 4820.13 -3.15494 -2.05282 0
M  V30 52011 C 4819.27 -2.62441 -0.895539 0
M  V30 52012 H 4822.22 -1.58629 -0.047356 0
M  V30 52013 H 4822.24 -2.95185 -2.40096 0
M  V30 52014 H 4821.76 -3.80065 -0.785652 0
M  V30 52015 H 4819.86 -2.42294 -2.83062 0
M  V30 52016 H 4819.97 -4.22083 -2.26678 0
M  V30 52017 H 4818.33 -2.19648 -1.28945 0
M  V30 52018 H 4819.12 -3.42923 -0.160758 0
M  V30 52019 N 4821.56 0.535649 -1.48218 0
M  V30 52020 C 4822.81 1.29178 -1.55947 0
M  V30 52021 C 4823.14 1.93124 -0.230925 0
M  V30 52022 O 4822.39 1.79559 0.778268 0
M  V30 52023 C 4822.69 2.4067 -2.64221 0
M  V30 52024 C 4822.36 1.94414 -4.06834 0
M  V30 52025 C 4821.02 1.81516 -4.45652 0
M  V30 52026 C 4823.37 1.59388 -4.96231 0
M  V30 52027 C 4820.7 1.31919 -5.71677 0
M  V30 52028 C 4823.05 1.11254 -6.2274 0
M  V30 52029 C 4821.72 0.969692 -6.60419 0
M  V30 52030 H 4820.99 0.472695 -0.570649 0
M  V30 52031 H 4823.63 0.598373 -1.81911 0
M  V30 52032 H 4821.94 3.15657 -2.32094 0
M  V30 52033 H 4823.63 2.98813 -2.67417 0
M  V30 52034 H 4820.22 2.05402 -3.76175 0
M  V30 52035 H 4824.41 1.68215 -4.66923 0
M  V30 52036 H 4819.66 1.19541 -5.996 0
M  V30 52037 H 4823.84 0.83221 -6.9141 0
M  V30 52038 H 4821.47 0.583169 -7.5796 0
M  V30 52039 N 4823.04 1.36711 0.784084 0
M  V30 52040 C 4824.27 1.34403 1.573 0
M  V30 52041 C 4824.68 -0.0734914 1.88657 0
M  V30 52042 O 4824.04 -1.03188 1.50527 0
M  V30 52043 C 4824.09 2.17063 2.89078 0
M  V30 52044 O 4823.81 3.5329 2.5907 0
M  V30 52045 C 4825.31 2.22596 3.83361 0
M  V30 52046 H 4822.53 0.460837 0.48772 0
M  V30 52047 H 4825.08 1.79882 0.972756 0
M  V30 52048 H 4823.23 1.75125 3.45558 0
M  V30 52049 H 4823.65 3.96482 3.43369 0
M  V30 52050 H 4825.12 2.8478 4.72868 0
M  V30 52051 H 4825.6 1.2309 4.21599 0
M  V30 52052 H 4826.2 2.64793 3.32813 0
M  V30 52053 N 4824.52 -1.00885 1.21078 0
M  V30 52054 C 4825.77 -1.74016 1.01987 0
M  V30 52055 C 4826.08 -1.9041 -0.447598 0
M  V30 52056 O 4827.29 -2.60709 -0.757815 0
M  V30 52057 C 4825.74 -3.13019 1.77614 0
M  V30 52058 C 4825.35 -3.04611 3.28506 0
M  V30 52059 C 4827.09 -3.90306 1.66918 0
M  V30 52060 C 4825 -4.38671 3.96638 0
M  V30 52061 H 4823.93 -0.652409 0.377994 0
M  V30 52062 H 4826.58 -1.1275 1.44775 0
M  V30 52063 H 4824.96 -3.74873 1.27617 0
M  V30 52064 H 4826.14 -2.52019 3.85776 0
M  V30 52065 H 4824.45 -2.40815 3.39701 0
M  V30 52066 H 4827.05 -4.89502 2.15155 0
M  V30 52067 H 4827.39 -4.11555 0.626725 0
M  V30 52068 H 4827.93 -3.35097 2.14371 0
M  V30 52069 H 4824.67 -4.22623 5.01069 0
M  V30 52070 H 4824.19 -4.91239 3.44157 0
M  V30 52071 H 4825.86 -5.07486 4.01332 0
M  V30 52072 N 4826 -1.01791 -1.20318 0
M  V30 52073 C 4826.91 -0.598978 -2.26825 0
M  V30 52074 C 4827.92 0.36412 -1.70147 0
M  V30 52075 O 4829.1 0.224742 -2.00142 0
M  V30 52076 C 4826.16 0.0548551 -3.46657 0
M  V30 52077 C 4825.22 -0.954352 -4.18558 0
M  V30 52078 C 4824.46 -0.331626 -5.32669 0
M  V30 52079 O 4824.68 0.868312 -5.63752 0
M  V30 52080 O 4823.61 -1.04901 -5.92688 0
M  V30 52081 H 4827.44 -1.48571 -2.64878 0
M  V30 52082 H 4825.03 -0.787478 -1.26961 0
M  V30 52083 H 4826.91 0.419955 -4.19302 0
M  V30 52084 H 4825.58 0.915767 -3.10476 0
M  V30 52085 H 4824.49 -1.37084 -3.48079 0
M  V30 52086 H 4825.82 -1.78527 -4.58682 0
M  V30 52087 N 4827.47 1.36119 -0.794317 0
M  V30 52088 C 4828.41 2.27758 -0.141925 0
M  V30 52089 C 4829.39 1.47473 0.684869 0
M  V30 52090 O 4830.57 1.76762 0.654795 0
M  V30 52091 C 4827.7 3.29011 0.80433 0
M  V30 52092 C 4826.74 4.2646 0.0587118 0
M  V30 52093 S 4827.58 5.20249 -1.26891 0
M  V30 52094 C 4828.73 6.25046 -0.326782 0
M  V30 52095 H 4828.96 2.82742 -0.918918 0
M  V30 52096 H 4826.5 1.42733 -0.588772 0
M  V30 52097 H 4828.46 3.87847 1.34481 0
M  V30 52098 H 4827.12 2.7293 1.55461 0
M  V30 52099 H 4826.31 4.97976 0.776912 0
M  V30 52100 H 4825.91 3.7173 -0.411439 0
M  V30 52101 H 4828.2 6.75707 0.492557 0
M  V30 52102 H 4829.15 7.00849 -1.01077 0
M  V30 52103 H 4829.55 5.64454 0.0720643 0
M  V30 52104 N 4828.95 0.546753 1.47812 0
M  V30 52105 C 4830.18 0.021341 2.07389 0
M  V30 52106 C 4830.6 -1.25818 1.39827 0
M  V30 52107 O 4829.96 -1.75109 0.469741 0
M  V30 52108 C 4830.01 -0.168375 3.60207 0
M  V30 52109 O 4829.11 -1.23333 3.93526 0
M  V30 52110 H 4828.45 0.0466341 0.66236 0
M  V30 52111 H 4830.98 0.759454 1.89983 0
M  V30 52112 H 4830.99 -0.38584 4.06171 0
M  V30 52113 H 4829.67 0.766219 4.08781 0
M  V30 52114 H 4828.25 -0.997193 3.59319 0
M  V30 52115 N 4830.43 -1.55044 0.282687 0
M  V30 52116 C 4831.39 -2.21517 -0.588462 0
M  V30 52117 C 4832.39 -1.19539 -1.0755 0
M  V30 52118 O 4833.58 -1.44395 -0.974463 0
M  V30 52119 C 4830.72 -2.88711 -1.8127 0
M  V30 52120 H 4831.91 -2.99899 -0.00795854 0
M  V30 52121 H 4829.46 -1.56264 0.0333617 0
M  V30 52122 H 4830.2 -2.1436 -2.43352 0
M  V30 52123 H 4829.98 -3.63449 -1.47131 0
M  V30 52124 H 4831.47 -3.39474 -2.43202 0
M  V30 52125 N 4831.91 -0.0100904 -1.57597 0
M  V30 52126 C 4833.16 0.672633 -1.91002 0
M  V30 52127 C 4833.48 1.73216 -0.884675 0
M  V30 52128 O 4832.74 1.95395 0.109146 0
M  V30 52129 C 4833.04 1.34423 -3.31158 0
M  V30 52130 C 4832.7 0.416925 -4.48968 0
M  V30 52131 C 4831.37 0.16164 -4.80928 0
M  V30 52132 C 4833.72 -0.220936 -5.20732 0
M  V30 52133 C 4831.05 -0.739631 -5.82019 0
M  V30 52134 C 4833.4 -1.11014 -6.22783 0
M  V30 52135 C 4832.06 -1.37451 -6.53195 0
M  V30 52136 H 4831.33 0.246134 -0.698927 0
M  V30 52137 H 4833.98 -0.0677818 -1.9138 0
M  V30 52138 H 4832.28 2.15893 -3.26952 0
M  V30 52139 H 4833.98 1.8787 -3.54268 0
M  V30 52140 H 4830.57 0.626068 -4.24003 0
M  V30 52141 H 4834.75 -0.0367387 -4.96286 0
M  V30 52142 H 4830.01 -0.952352 -6.03937 0
M  V30 52143 H 4834.18 -1.6107 -6.77517 0
M  V30 52144 H 4831.81 -2.07456 -7.31345 0
M  V30 52145 N 4833.39 1.55393 0.262811 0
M  V30 52146 C 4834.63 1.7613 0.991085 0
M  V30 52147 C 4834.96 0.571149 1.86448 0
M  V30 52148 O 4834.23 -0.41363 1.91483 0
M  V30 52149 H 4832.81 0.649541 0.368925 0
M  V30 52150 H 4835.47 1.92811 0.284587 0
M  V30 52151 H 4834.56 2.66636 1.62209 0
M  V30 52152 N 4834.87 -0.527781 1.485 0
M  V30 52153 C 4836.1 -1.30628 1.60062 0
M  V30 52154 C 4836.5 -1.87393 0.260852 0
M  V30 52155 O 4835.85 -1.6723 -0.760258 0
M  V30 52156 C 4835.91 -2.49352 2.58967 0
M  V30 52157 C 4835.57 -2.13657 4.0398 0
M  V30 52158 C 4836.57 -1.692 4.91597 0
M  V30 52159 C 4834.25 -2.24113 4.49532 0
M  V30 52160 C 4836.25 -1.35667 6.22795 0
M  V30 52161 C 4833.94 -1.90191 5.8075 0
M  V30 52162 C 4834.93 -1.4604 6.67204 0
M  V30 52163 O 4834.62 -1.12565 7.9598 0
M  V30 52164 H 4834.35 -0.403425 0.542425 0
M  V30 52165 H 4836.91 -0.643165 1.95071 0
M  V30 52166 H 4835.14 -3.18652 2.19084 0
M  V30 52167 H 4836.83 -3.11412 2.60341 0
M  V30 52168 H 4837.59 -1.60591 4.57641 0
M  V30 52169 H 4833.47 -2.57433 3.82425 0
M  V30 52170 H 4837.02 -1.01133 6.9023 0
M  V30 52171 H 4832.91 -1.98442 6.1424 0
M  V30 52172 H 4833.68 -1.25943 8.08752 0
M  V30 52173 N 4836.34 -1.37125 -0.776822 0
M  V30 52174 C 4837.59 -1.32248 -1.53747 0
M  V30 52175 C 4837.92 0.0944063 -1.9397 0
M  V30 52176 O 4837.2 1.05062 -1.63683 0
M  V30 52177 C 4837.48 -2.25691 -2.80599 0
M  V30 52178 C 4837.33 -3.76135 -2.46662 0
M  V30 52179 C 4838.65 -2.17671 -3.82501 0
M  V30 52180 H 4835.77 -0.481724 -0.557774 0
M  V30 52181 H 4838.41 -1.67784 -0.891553 0
M  V30 52182 H 4836.56 -1.95517 -3.35716 0
M  V30 52183 H 4838.24 -4.16884 -1.97499 0
M  V30 52184 H 4836.48 -3.94953 -1.79429 0
M  V30 52185 H 4837.15 -4.36945 -3.37318 0
M  V30 52186 H 4839.63 -2.44257 -3.36864 0
M  V30 52187 H 4838.5 -2.85201 -4.6899 0
M  V30 52188 H 4838.76 -1.168 -4.26392 0
M  V30 52189 N 4837.82 1.00242 -1.21611 0
M  V30 52190 C 4839.07 1.74057 -1.03491 0
M  V30 52191 C 4839.4 1.89659 0.431241 0
M  V30 52192 O 4838.65 1.42981 1.33622 0
M  V30 52193 C 4838.95 3.15443 -1.6802 0
M  V30 52194 C 4838.62 3.19781 -3.17885 0
M  V30 52195 C 4837.28 3.20672 -3.58779 0
M  V30 52196 C 4839.63 3.16821 -4.13853 0
M  V30 52197 C 4836.96 3.16292 -4.94142 0
M  V30 52198 C 4839.31 3.13982 -5.4918 0
M  V30 52199 C 4837.97 3.13184 -5.89468 0
M  V30 52200 H 4837.24 0.63692 -0.3787 0
M  V30 52201 H 4839.89 1.17468 -1.5124 0
M  V30 52202 H 4838.2 3.7528 -1.12571 0
M  V30 52203 H 4839.89 3.7128 -1.515 0
M  V30 52204 H 4836.48 3.19832 -2.85317 0
M  V30 52205 H 4840.67 3.1529 -3.83283 0
M  V30 52206 H 4835.92 3.14013 -5.246 0
M  V30 52207 H 4840.1 3.10645 -6.23276 0
M  V30 52208 H 4837.72 3.09544 -6.94325 0
M  V30 52209 N 4839.3 1.02428 1.19776 0
M  V30 52210 C 4840.71 0.748449 1.71041 0
M  V30 52211 C 4841.06 -0.732334 1.8202 0
M  V30 52212 O 4840.19 -1.57111 1.48812 0
M  V30 52213 C 4840.78 1.35198 3.10656 0
M  V30 52214 C 4839.34 1.12485 3.59199 0
M  V30 52215 C 4838.49 1.45291 2.3619 0
M  V30 52216 H 4841.44 1.19279 1.04682 0
M  V30 52217 H 4841.46 0.746539 3.73105 0
M  V30 52218 H 4840.97 2.42971 3.02633 0
M  V30 52219 H 4839.07 0.0651292 3.72543 0
M  V30 52220 H 4839.19 1.81031 4.43581 0
M  V30 52221 H 4837.55 0.872118 2.39304 0
M  V30 52222 H 4838.33 2.54137 2.30802 0
M  V30 52223 N 4840.78 -1.35696 0.801525 0
M  V30 52224 C 4841.72 -2.29875 0.206375 0
M  V30 52225 C 4842.69 -1.52567 -0.656698 0
M  V30 52226 O 4843.88 -1.81026 -0.602842 0
M  V30 52227 C 4841.02 -3.39054 -0.643153 0
M  V30 52228 C 4840.13 -4.31334 0.239796 0
M  V30 52229 C 4839.27 -5.27602 -0.617255 0
M  V30 52230 C 4838.31 -6.1152 0.266405 0
M  V30 52231 N 4837.44 -6.9994 -0.550324 0
M  V30 52232 H 4842.28 -2.80184 1.01494 0
M  V30 52233 H 4839.82 -1.379 0.512046 0
M  V30 52234 H 4841.78 -4.01014 -1.1508 0
M  V30 52235 H 4840.41 -2.90035 -1.41703 0
M  V30 52236 H 4839.46 -3.70423 0.865511 0
M  V30 52237 H 4840.77 -4.90239 0.920157 0
M  V30 52238 H 4839.93 -5.9491 -1.19024 0
M  V30 52239 H 4838.67 -4.69181 -1.3312 0
M  V30 52240 H 4837.67 -5.43163 0.851698 0
M  V30 52241 H 4838.9 -6.72019 0.978136 0
M  V30 52242 H 4836.84 -6.44013 -1.24834 0
M  V30 52243 H 4836.76 -7.55966 0.0720977 0
M  V30 52244 H 4838.03 -7.71603 -1.10675 0
M  V30 52245 N 4842.26 -0.554584 -1.4752 0
M  V30 52246 C 4843.22 0.184094 -2.28459 0
M  V30 52247 C 4844.22 0.845146 -1.36799 0
M  V30 52248 O 4845.41 0.701411 -1.59455 0
M  V30 52249 C 4842.54 1.26892 -3.16404 0
M  V30 52250 H 4843.73 -0.526855 -2.95236 0
M  V30 52251 H 4841.29 -0.311429 -1.53166 0
M  V30 52252 H 4842.02 2.01235 -2.54313 0
M  V30 52253 H 4841.81 0.799748 -3.83857 0
M  V30 52254 H 4843.3 1.78781 -3.77395 0
M  V30 52255 N 4843.73 1.54892 -0.290906 0
M  V30 52256 C 4844.98 2.00231 0.321797 0
M  V30 52257 C 4845.31 1.17905 1.54312 0
M  V30 52258 O 4844.59 0.252998 1.92848 0
M  V30 52259 C 4844.87 3.53459 0.688391 0
M  V30 52260 C 4844.72 4.4653 -0.541366 0
M  V30 52261 C 4846.04 4.13062 1.51881 0
M  V30 52262 H 4843.16 0.727895 0.115489 0
M  V30 52263 H 4845.8 1.8572 -0.400996 0
M  V30 52264 H 4843.95 3.65955 1.3042 0
M  V30 52265 H 4845.63 4.45955 -1.17989 0
M  V30 52266 H 4843.87 4.17541 -1.17651 0
M  V30 52267 H 4844.54 5.51474 -0.240869 0
M  V30 52268 H 4847.02 4.0394 0.998578 0
M  V30 52269 H 4845.89 5.20454 1.7441 0
M  V30 52270 H 4846.15 3.64293 2.50485 0
M  V30 52271 N 4845.21 0.018448 1.57589 0
M  V30 52272 C 4846.44 -0.676565 1.96054 0
M  V30 52273 C 4846.86 -1.65477 0.894366 0
M  V30 52274 O 4846.22 -1.80713 -0.145785 0
M  V30 52275 C 4846.27 -1.3686 3.33619 0
M  V30 52276 O 4845.37 -2.48361 3.29228 0
M  V30 52277 H 4844.71 -0.178577 0.639536 0
M  V30 52278 H 4847.24 0.0771279 2.04455 0
M  V30 52279 H 4847.25 -1.72784 3.69608 0
M  V30 52280 H 4845.93 -0.651492 4.10766 0
M  V30 52281 H 4844.5 -2.14628 3.04941 0
M  V30 52282 N 4846.69 -1.5553 -0.254567 0
M  V30 52283 C 4847.62 -1.84629 -1.34118 0
M  V30 52284 C 4848.6 -0.700744 -1.46725 0
M  V30 52285 O 4849.78 -0.945697 -1.63061 0
M  V30 52286 C 4846.91 -2.02422 -2.71557 0
M  V30 52287 C 4845.96 -3.25038 -2.76139 0
M  V30 52288 S 4846.79 -4.81901 -2.33521 0
M  V30 52289 C 4847.95 -5.0269 -3.72899 0
M  V30 52290 H 4848.18 -2.76505 -1.09235 0
M  V30 52291 H 4845.71 -1.47539 -0.455159 0
M  V30 52292 H 4847.67 -2.13357 -3.50698 0
M  V30 52293 H 4846.33 -1.11401 -2.93681 0
M  V30 52294 H 4845.52 -3.34431 -3.77057 0
M  V30 52295 H 4845.13 -3.12788 -2.05035 0
M  V30 52296 H 4847.42 -4.89563 -4.68332 0
M  V30 52297 H 4848.36 -6.04693 -3.68446 0
M  V30 52298 H 4848.77 -4.30574 -3.65057 0
M  V30 52299 N 4848.17 0.519898 -1.48778 0
M  V30 52300 C 4849.58 1.10171 -1.50729 0
M  V30 52301 C 4849.93 1.94152 -0.282746 0
M  V30 52302 O 4849.05 2.07647 0.609225 0
M  V30 52303 C 4849.65 2.00472 -2.73123 0
M  V30 52304 C 4848.21 2.53852 -2.77913 0
M  V30 52305 C 4847.36 1.31038 -2.44386 0
M  V30 52306 H 4850.31 0.304676 -1.55748 0
M  V30 52307 H 4850.33 2.84901 -2.52213 0
M  V30 52308 H 4849.84 1.39323 -3.6223 0
M  V30 52309 H 4847.94 3.18695 -1.9304 0
M  V30 52310 H 4848.05 2.92297 -3.79604 0
M  V30 52311 H 4846.42 1.62946 -1.95757 0
M  V30 52312 H 4847.2 0.716252 -3.35745 0
M  V30 52313 N 4849.65 1.37535 0.769539 0
M  V30 52314 C 4850.87 1.36237 1.56379 0
M  V30 52315 C 4851.3 -0.0495188 1.88035 0
M  V30 52316 O 4850.65 -1.02718 1.49395 0
M  V30 52317 C 4850.7 2.20996 2.84944 0
M  V30 52318 O 4849.81 1.6161 3.79415 0
M  V30 52319 H 4849.15 0.465404 0.473598 0
M  V30 52320 H 4851.68 1.81088 0.952278 0
M  V30 52321 H 4851.69 2.34288 3.34025 0
M  V30 52322 H 4850.36 3.23621 2.61232 0
M  V30 52323 H 4848.94 1.57371 3.38066 0
M  V30 52324 N 4851.12 -0.995956 1.22141 0
M  V30 52325 C 4852.37 -1.73506 1.04412 0
M  V30 52326 C 4852.7 -1.89885 -0.421177 0
M  V30 52327 O 4851.95 -1.43688 -1.32862 0
M  V30 52328 C 4852.25 -3.14547 1.69691 0
M  V30 52329 C 4851.92 -3.18091 3.19576 0
M  V30 52330 C 4850.58 -3.18765 3.60475 0
M  V30 52331 C 4852.93 -3.14621 4.15527 0
M  V30 52332 C 4850.26 -3.13667 4.95812 0
M  V30 52333 C 4852.61 -3.11065 5.50837 0
M  V30 52334 C 4851.28 -3.10053 5.9112 0
M  V30 52335 H 4850.55 -0.634903 0.382072 0
M  V30 52336 H 4853.19 -1.16664 1.51861 0
M  V30 52337 H 4851.5 -3.74678 1.14559 0
M  V30 52338 H 4853.2 -3.70471 1.53467 0
M  V30 52339 H 4849.79 -3.18314 2.87009 0
M  V30 52340 H 4853.97 -3.13253 3.8495 0
M  V30 52341 H 4849.23 -3.11227 5.26258 0
M  V30 52342 H 4853.4 -3.07335 6.24914 0
M  V30 52343 H 4851.03 -3.05857 6.95957 0
M  V30 52344 N 4852.6 -1.03061 -1.19231 0
M  V30 52345 C 4853.83 -0.747638 -1.93456 0
M  V30 52346 C 4854.25 0.687587 -1.75082 0
M  V30 52347 O 4853.61 1.47495 -1.05427 0
M  V30 52348 C 4853.66 -1.10617 -3.43215 0
M  V30 52349 O 4852.76 -0.225815 -4.11781 0
M  V30 52350 H 4852.1 -0.276068 -0.603889 0
M  V30 52351 H 4854.63 -1.37775 -1.51258 0
M  V30 52352 H 4854.64 -1.0638 -3.93887 0
M  V30 52353 H 4853.32 -2.15177 -3.55909 0
M  V30 52354 H 4851.9 -0.326926 -3.71464 0
M  V30 52355 N 4854.08 1.35269 -0.80871 0
M  V30 52356 C 4855.33 1.97961 -0.386552 0
M  V30 52357 C 4855.64 1.6487 1.05249 0
M  V30 52358 O 4856.85 2.20943 1.57786 0
M  V30 52359 C 4855.3 3.5416 -0.64022 0
M  V30 52360 C 4854.91 3.96159 -2.09194 0
M  V30 52361 C 4856.66 4.23552 -0.283525 0
M  V30 52362 C 4854.56 5.45212 -2.29125 0
M  V30 52363 H 4853.49 0.740737 -0.1408 0
M  V30 52364 H 4856.14 1.54306 -0.993066 0
M  V30 52365 H 4854.53 3.95983 0.0362725 0
M  V30 52366 H 4855.7 3.65481 -2.80642 0
M  V30 52367 H 4854.02 3.39662 -2.40871 0
M  V30 52368 H 4856.61 5.33122 -0.41046 0
M  V30 52369 H 4856.96 4.09107 0.770515 0
M  V30 52370 H 4857.49 3.87157 -0.91402 0
M  V30 52371 H 4854.23 5.64627 -3.32982 0
M  V30 52372 H 4853.75 5.77451 -1.62204 0
M  V30 52373 H 4855.43 6.11703 -2.10782 0
M  V30 52374 N 4855.56 0.5624 1.47224 0
M  V30 52375 C 4856.49 -0.170545 2.32876 0
M  V30 52376 C 4857.47 -0.903697 1.44109 0
M  V30 52377 O 4858.65 -0.883145 1.72957 0
M  V30 52378 C 4855.78 -1.19774 3.25993 0
M  V30 52379 C 4854.74 -0.580726 4.24042 0
M  V30 52380 C 4854.06 -1.71293 5.0652 0
M  V30 52381 C 4855.36 0.468897 5.20191 0
M  V30 52382 H 4857.06 0.544544 2.94406 0
M  V30 52383 H 4854.6 0.263321 1.41572 0
M  V30 52384 H 4856.56 -1.7187 3.84758 0
M  V30 52385 H 4855.28 -1.94284 2.62528 0
M  V30 52386 H 4853.94 -0.0810249 3.6651 0
M  V30 52387 H 4853.59 -2.4472 4.39455 0
M  V30 52388 H 4853.29 -1.30584 5.72906 0
M  V30 52389 H 4854.81 -2.23705 5.68145 0
M  V30 52390 H 4856.23 0.0338043 5.7329 0
M  V30 52391 H 4854.62 0.795166 5.94808 0
M  V30 52392 H 4855.69 1.36285 4.65354 0
M  V30 52393 N 4857.04 -1.54735 0.299116 0
M  V30 52394 C 4858.28 -1.99707 -0.3101 0
M  V30 52395 C 4858.61 -1.18902 -1.54555 0
M  V30 52396 O 4857.88 -0.284513 -1.93823 0
M  V30 52397 H 4856.46 -0.73769 -0.11757 0
M  V30 52398 H 4859.12 -1.90539 0.41001 0
M  V30 52399 H 4858.21 -3.06598 -0.583442 0
M  V30 52400 N 4858.51 -0.0268051 -1.57577 0
M  V30 52401 C 4859.74 0.666158 -1.96411 0
M  V30 52402 C 4860.16 1.65001 -0.903129 0
M  V30 52403 O 4859.52 1.80788 0.136199 0
M  V30 52404 C 4859.57 1.35089 -3.3434 0
M  V30 52405 O 4858.67 2.46611 -3.3054 0
M  V30 52406 H 4858.02 0.175183 -0.640474 0
M  V30 52407 H 4860.55 -0.0879695 -2.04411 0
M  V30 52408 H 4860.56 1.70821 -3.70519 0
M  V30 52409 H 4859.23 0.629699 -4.11105 0
M  V30 52410 H 4857.81 2.13008 -3.06075 0
M  V30 52411 N 4859.99 1.55663 0.246315 0
M  V30 52412 C 4861.27 1.68275 0.997139 0
M  V30 52413 C 4861.65 0.566857 2.03347 0
M  V30 52414 O 4861 -0.429609 2.24425 0
M  V30 52415 C 4861.21 3.08599 1.62995 0
M  V30 52416 C 4862.56 3.67217 2.13158 0
M  V30 52417 O 4863.58 3.11403 1.72935 0
M  V30 52418 O 4862.44 4.65064 2.87015 0
M  V30 52419 H 4859.53 0.684445 0.464181 0
M  V30 52420 H 4862.08 1.67994 0.240055 0
M  V30 52421 H 4860.85 3.81267 0.880393 0
M  V30 52422 H 4860.47 3.12894 2.45322 0
M  V30 52423 N 4861.47 -0.512001 1.49051 0
M  V30 52424 C 4862.72 -1.26868 1.58216 0
M  V30 52425 C 4863.05 -1.92409 0.263141 0
M  V30 52426 O 4862.32 -1.80183 -0.732412 0
M  V30 52427 C 4862.61 -2.34419 2.73349 0
M  V30 52428 C 4862.46 -1.73451 4.15012 0
M  V30 52429 C 4863.78 -3.36063 2.84165 0
M  V30 52430 H 4860.9 -0.459904 0.575897 0
M  V30 52431 H 4863.54 -0.568524 1.81295 0
M  V30 52432 H 4861.69 -2.94137 2.53802 0
M  V30 52433 H 4863.36 -1.17645 4.46046 0
M  V30 52434 H 4861.61 -1.03907 4.21172 0
M  V30 52435 H 4862.28 -2.51409 4.91424 0
M  V30 52436 H 4864.75 -2.86322 3.01926 0
M  V30 52437 H 4863.63 -4.0869 3.6642 0
M  V30 52438 H 4863.89 -3.97718 1.93061 0
M  V30 52439 N 4862.95 -1.37941 -0.762235 0
M  V30 52440 C 4864.36 -1.18949 -1.06411 0
M  V30 52441 C 4864.56 -0.0321871 -2.01474 0
M  V30 52442 O 4863.62 0.624758 -2.44649 0
M  V30 52443 C 4864.93 -2.51224 -1.65249 0
M  V30 52444 C 4866.48 -2.5783 -1.77461 0
M  V30 52445 C 4866.96 -3.90259 -2.39712 0
M  V30 52446 N 4868.45 -3.91753 -2.47152 0
M  V30 52447 C 4869.18 -4.90976 -2.96192 0
M  V30 52448 N 4868.68 -6.00597 -3.45333 0
M  V30 52449 N 4870.47 -4.78373 -2.95154 0
M  V30 52450 H 4862.62 -2.11994 -0.131226 0
M  V30 52451 H 4864.89 -0.940266 -0.120845 0
M  V30 52452 H 4864.59 -3.3632 -1.02866 0
M  V30 52453 H 4864.47 -2.68998 -2.64423 0
M  V30 52454 H 4866.85 -1.73134 -2.38974 0
M  V30 52455 H 4866.93 -2.43931 -0.770155 0
M  V30 52456 H 4866.58 -4.75374 -1.78835 0
M  V30 52457 H 4866.51 -4.01466 -3.40782 0
M  V30 52458 H 4869 -3.12571 -2.12386 0
M  V30 52459 H 4869.31 -6.72249 -3.81184 0
M  V30 52460 H 4867.66 -6.04229 -3.43413 0
M  V30 52461 H 4870.85 -3.9185 -2.56069 0
M  V30 52462 H 4871.02 -5.55855 -3.33061 0
M  V30 52463 N 4864.43 0.989464 -1.22668 0
M  V30 52464 C 4865.67 1.73206 -1.05487 0
M  V30 52465 C 4866.01 1.89854 0.408569 0
M  V30 52466 O 4865.28 1.4442 1.3028 0
M  V30 52467 C 4865.56 3.13564 -1.77058 0
M  V30 52468 C 4865.42 3.04543 -3.31019 0
M  V30 52469 C 4866.74 4.12806 -1.52574 0
M  V30 52470 H 4863.86 0.628684 -0.384611 0
M  V30 52471 H 4866.5 1.15252 -1.51053 0
M  V30 52472 H 4864.65 3.63041 -1.38323 0
M  V30 52473 H 4866.32 2.6266 -3.79219 0
M  V30 52474 H 4864.56 2.41265 -3.60519 0
M  V30 52475 H 4865.23 4.03881 -3.76277 0
M  V30 52476 H 4867.71 3.721 -1.86228 0
M  V30 52477 H 4866.59 5.09125 -2.05142 0
M  V30 52478 H 4866.85 4.3971 -0.459091 0
M  V30 52479 N 4865.91 1.03692 1.18683 0
M  V30 52480 C 4867.32 0.766548 1.70238 0
M  V30 52481 C 4867.67 -0.712987 1.82787 0
M  V30 52482 O 4866.79 -1.55524 1.5047 0
M  V30 52483 C 4867.39 1.38485 3.09204 0
M  V30 52484 C 4865.95 1.16288 3.57986 0
M  V30 52485 C 4865.09 1.47788 2.34636 0
M  V30 52486 H 4868.04 1.20382 1.03411 0
M  V30 52487 H 4868.07 0.78607 3.72292 0
M  V30 52488 H 4867.58 2.46167 3.00039 0
M  V30 52489 H 4865.68 0.104639 3.72453 0
M  V30 52490 H 4865.79 1.85726 4.41636 0
M  V30 52491 H 4864.16 0.89745 2.38365 0
M  V30 52492 H 4864.94 2.5657 2.28093 0
M  V30 52493 N 4867.38 -1.34838 0.815872 0
M  V30 52494 C 4868.61 -2.0326 0.412332 0
M  V30 52495 C 4869.03 -1.61058 -0.971695 0
M  V30 52496 O 4868.39 -0.791758 -1.63098 0
M  V30 52497 C 4868.44 -3.56912 0.514414 0
M  V30 52498 O 4867.54 -4.0973 -0.468531 0
M  V30 52499 H 4866.88 -0.641658 0.170794 0
M  V30 52500 H 4869.41 -1.72237 1.10433 0
M  V30 52501 H 4869.42 -4.06155 0.3876 0
M  V30 52502 H 4868.1 -3.86976 1.52388 0
M  V30 52503 H 4866.68 -3.71682 -0.301186 0
M  V30 52504 N 4868.86 -0.570199 -1.46923 0
M  V30 52505 C 4870.09 -0.0561877 -2.06524 0
M  V30 52506 C 4870.5 1.24869 -1.42142 0
M  V30 52507 O 4869.84 1.7629 -0.516479 0
M  V30 52508 C 4869.9 0.196908 -3.5896 0
M  V30 52509 C 4869.57 -1.02049 -4.45461 0
M  V30 52510 C 4870.57 -1.92938 -4.82774 0
M  V30 52511 C 4868.25 -1.23881 -4.86784 0
M  V30 52512 C 4870.24 -3.04018 -5.60225 0
M  V30 52513 C 4867.93 -2.35269 -5.63996 0
M  V30 52514 C 4868.93 -3.25167 -6.00629 0
M  V30 52515 O 4868.62 -4.34622 -6.76283 0
M  V30 52516 H 4868.35 -0.0487646 -0.674239 0
M  V30 52517 H 4870.9 -0.786982 -1.89725 0
M  V30 52518 H 4869.13 0.982168 -3.74019 0
M  V30 52519 H 4870.82 0.657891 -4.00533 0
M  V30 52520 H 4871.59 -1.77281 -4.51438 0
M  V30 52521 H 4867.47 -0.54821 -4.57729 0
M  V30 52522 H 4871.01 -3.74213 -5.88736 0
M  V30 52523 H 4866.91 -2.50894 -5.94746 0
M  V30 52524 H 4867.68 -4.32832 -6.94693 0
M  V30 52525 N 4870.34 1.54575 -0.307318 0
M  V30 52526 C 4871.57 2.04676 0.302525 0
M  V30 52527 C 4871.98 1.1843 1.47037 0
M  V30 52528 O 4871.34 0.211321 1.81272 0
M  V30 52529 C 4871.39 3.53577 0.752677 0
M  V30 52530 O 4871.11 4.36546 -0.368689 0
M  V30 52531 C 4872.61 4.19704 1.42702 0
M  V30 52532 H 4869.83 0.667862 0.064814 0
M  V30 52533 H 4872.38 1.99515 -0.448786 0
M  V30 52534 H 4870.53 3.59079 1.454 0
M  V30 52535 H 4870.95 5.24497 -0.0170781 0
M  V30 52536 H 4872.42 5.25394 1.69309 0
M  V30 52537 H 4872.9 3.69824 2.36912 0
M  V30 52538 H 4873.5 4.18295 0.768709 0
M  V30 52539 N 4871.82 0.0351614 1.57561 0
M  V30 52540 C 4872.75 -0.942918 2.13615 0
M  V30 52541 C 4873.73 -1.33528 1.05377 0
M  V30 52542 O 4874.91 -1.41283 1.3324 0
M  V30 52543 C 4872.04 -2.22323 2.66815 0
M  V30 52544 C 4871 -1.97143 3.79893 0
M  V30 52545 C 4870.32 -3.31491 4.19545 0
M  V30 52546 C 4871.62 -1.30579 5.05714 0
M  V30 52547 H 4873.32 -0.476075 2.95591 0
M  V30 52548 H 4870.86 -0.227552 1.42191 0
M  V30 52549 H 4872.82 -2.91131 3.04665 0
M  V30 52550 H 4871.54 -2.71184 1.82008 0
M  V30 52551 H 4870.2 -1.30751 3.42491 0
M  V30 52552 H 4869.85 -3.78122 3.31712 0
M  V30 52553 H 4869.55 -3.15447 4.95749 0
M  V30 52554 H 4871.07 -4.01558 4.59982 0
M  V30 52555 H 4872.49 -1.89397 5.41112 0
M  V30 52556 H 4870.88 -1.24913 5.86955 0
M  V30 52557 H 4871.95 -0.279572 4.84093 0
M  V30 52558 N 4873.3 -1.55792 -0.238056 0
M  V30 52559 C 4874.54 -1.77237 -0.962806 0
M  V30 52560 C 4874.86 -0.600726 -1.86147 0
M  V30 52561 O 4876.06 -0.698407 -2.62363 0
M  V30 52562 C 4874.52 -3.13814 -1.76207 0
M  V30 52563 C 4874.13 -4.38653 -0.910364 0
M  V30 52564 C 4875.87 -3.44593 -2.47902 0
M  V30 52565 C 4873.78 -5.66258 -1.70603 0
M  V30 52566 H 4872.71 -0.660744 -0.363227 0
M  V30 52567 H 4875.36 -1.8221 -0.217178 0
M  V30 52568 H 4873.74 -3.02972 -2.54999 0
M  V30 52569 H 4874.92 -4.60508 -0.164154 0
M  V30 52570 H 4873.23 -4.15272 -0.306324 0
M  V30 52571 H 4875.83 -4.37151 -3.07902 0
M  V30 52572 H 4876.17 -2.66325 -3.19963 0
M  V30 52573 H 4876.7 -3.56691 -1.76115 0
M  V30 52574 H 4873.44 -6.47373 -1.029 0
M  V30 52575 H 4872.96 -5.48492 -2.42728 0
M  V30 52576 H 4874.64 -6.05837 -2.27092 0
M  V30 52577 N 4874.77 0.504089 -1.49321 0
M  V30 52578 C 4875.7 1.61467 -1.68673 0
M  V30 52579 C 4876.68 1.61453 -0.535435 0
M  V30 52580 O 4877.87 1.78242 -0.77093 0
M  V30 52581 C 4875 2.99965 -1.75038 0
M  V30 52582 C 4873.95 3.14843 -2.89927 0
M  V30 52583 C 4873.28 4.54661 -2.81403 0
M  V30 52584 C 4874.58 2.95161 -4.30903 0
M  V30 52585 H 4876.27 1.45526 -2.61653 0
M  V30 52586 H 4873.82 0.698667 -1.25915 0
M  V30 52587 H 4875.77 3.77555 -1.87163 0
M  V30 52588 H 4874.5 3.16987 -0.786552 0
M  V30 52589 H 4873.16 2.39677 -2.77399 0
M  V30 52590 H 4872.8 4.68555 -1.82934 0
M  V30 52591 H 4872.5 4.65557 -3.58511 0
M  V30 52592 H 4874.03 5.34316 -2.95531 0
M  V30 52593 H 4875.44 3.62523 -4.44129 0
M  V30 52594 H 4873.84 3.17531 -5.09209 0
M  V30 52595 H 4874.91 1.91316 -4.45563 0
M  V30 52596 N 4876.25 1.38343 0.754909 0
M  V30 52597 C 4877.66 1.30807 1.33215 0
M  V30 52598 C 4878.01 -0.036731 1.96166 0
M  V30 52599 O 4877.14 -0.938775 1.94977 0
M  V30 52600 C 4877.73 2.36889 2.42217 0
M  V30 52601 C 4876.29 2.32935 2.95666 0
M  V30 52602 C 4875.44 2.19825 1.69034 0
M  V30 52603 H 4878.39 1.48721 0.553885 0
M  V30 52604 H 4878.41 2.02528 3.22122 0
M  V30 52605 H 4877.92 3.34754 1.96371 0
M  V30 52606 H 4876.02 1.38647 3.45844 0
M  V30 52607 H 4876.14 3.27021 3.50135 0
M  V30 52608 H 4874.5 1.66654 1.9261 0
M  V30 52609 H 4875.28 3.19629 1.25268 0
M  V30 52610 N 4877.73 -0.982945 1.23191 0
M  V30 52611 C 4878.95 -1.76451 1.08994 0
M  V30 52612 C 4879.38 -1.84727 -0.354627 0
M  V30 52613 O 4878.74 -1.30703 -1.25644 0
M  V30 52614 C 4878.79 -3.17088 1.7172 0
M  V30 52615 O 4877.89 -4.00645 0.977618 0
M  V30 52616 H 4877.23 -0.542975 0.382196 0
M  V30 52617 H 4879.76 -1.23407 1.63192 0
M  V30 52618 H 4879.77 -3.67678 1.76854 0
M  V30 52619 H 4878.45 -3.1038 2.76834 0
M  V30 52620 H 4877.02 -3.59157 1.00303 0
M  V30 52621 N 4879.21 -1.0432 -1.18132 0
M  V30 52622 C 4880.14 -0.657377 -2.24055 0
M  V30 52623 C 4881.12 0.34062 -1.66655 0
M  V30 52624 O 4882.3 0.220156 -1.92948 0
M  V30 52625 C 4879.43 -0.0221936 -3.47293 0
M  V30 52626 C 4878.39 -0.944004 -4.1746 0
M  V30 52627 C 4877.71 -0.173161 -5.3442 0
M  V30 52628 C 4879.01 -2.26425 -4.70669 0
M  V30 52629 H 4880.71 -1.54289 -2.56584 0
M  V30 52630 H 4878.25 -0.743306 -1.23333 0
M  V30 52631 H 4880.21 0.259459 -4.206 0
M  V30 52632 H 4878.93 0.898213 -3.14006 0
M  V30 52633 H 4877.59 -1.21008 -3.46053 0
M  V30 52634 H 4877.24 0.749732 -4.97381 0
M  V30 52635 H 4876.94 -0.787303 -5.82302 0
M  V30 52636 H 4878.46 0.101414 -6.10516 0
M  V30 52637 H 4879.88 -2.04313 -5.35658 0
M  V30 52638 H 4878.27 -2.83158 -5.29095 0
M  V30 52639 H 4879.34 -2.90897 -3.87952 0
M  V30 52640 N 4880.69 1.34403 -0.823012 0
M  V30 52641 C 4881.6 2.33297 -0.24692 0
M  V30 52642 C 4882.61 1.62627 0.61874 0
M  V30 52643 O 4883.79 1.94393 0.526617 0
M  V30 52644 C 4880.85 3.41787 0.581611 0
M  V30 52645 C 4879.91 4.28205 -0.30646 0
M  V30 52646 C 4879.15 5.31513 0.482623 0
M  V30 52647 O 4879.37 5.43979 1.71588 0
M  V30 52648 O 4878.3 6.01748 -0.135095 0
M  V30 52649 H 4882.13 2.84398 -1.06544 0
M  V30 52650 H 4879.72 1.37464 -0.585156 0
M  V30 52651 H 4881.6 4.08032 1.05298 0
M  V30 52652 H 4880.27 2.9293 1.37746 0
M  V30 52653 H 4879.18 3.64882 -0.825327 0
M  V30 52654 H 4880.51 4.80503 -1.06666 0
M  V30 52655 N 4882.16 0.577983 1.46619 0
M  V30 52656 C 4883.09 -0.145835 2.33044 0
M  V30 52657 C 4884.08 -0.888361 1.45059 0
M  V30 52658 O 4885.26 -0.864751 1.73884 0
M  V30 52659 C 4882.39 -1.1631 3.27245 0
M  V30 52660 C 4881.34 -0.535718 4.24634 0
M  V30 52661 C 4880.67 -1.65912 5.08308 0
M  V30 52662 C 4881.97 0.524044 5.19664 0
M  V30 52663 H 4883.66 0.575739 2.93812 0
M  V30 52664 H 4881.21 0.278322 1.41285 0
M  V30 52665 H 4883.16 -1.6778 3.86559 0
M  V30 52666 H 4881.89 -1.91489 2.64574 0
M  V30 52667 H 4880.55 -0.042147 3.66576 0
M  V30 52668 H 4880.19 -2.40045 4.42026 0
M  V30 52669 H 4879.89 -1.245 5.74259 0
M  V30 52670 H 4881.42 -2.17666 5.70486 0
M  V30 52671 H 4882.83 0.0946075 5.73222 0
M  V30 52672 H 4881.23 0.858209 5.93932 0
M  V30 52673 H 4882.3 1.41213 4.63882 0
M  V30 52674 N 4883.64 -1.54409 0.315511 0
M  V30 52675 C 4885.05 -1.85886 -0.1742 0
M  V30 52676 C 4885.4 -1.23728 -1.52269 0
M  V30 52677 O 4884.53 -0.54032 -2.09546 0
M  V30 52678 C 4885.12 -3.37258 -0.322862 0
M  V30 52679 C 4883.68 -3.68713 -0.756793 0
M  V30 52680 C 4882.83 -2.77012 0.126292 0
M  V30 52681 H 4885.78 -1.49372 0.53606 0
M  V30 52682 H 4885.8 -3.62543 -1.1551 0
M  V30 52683 H 4885.31 -3.82469 0.658736 0
M  V30 52684 H 4883.42 -3.2903 -1.74842 0
M  V30 52685 H 4883.53 -4.75743 -0.566123 0
M  V30 52686 H 4881.89 -2.5159 -0.396831 0
M  V30 52687 H 4882.68 -3.25047 1.10451 0
M  V30 52688 N 4885.12 -0.0435168 -1.5754 0
M  V30 52689 C 4886.37 0.632904 -1.92671 0
M  V30 52690 C 4886.7 1.70944 -0.921506 0
M  V30 52691 O 4885.97 1.94426 0.0536519 0
M  V30 52692 C 4886.26 1.23608 -3.38221 0
M  V30 52693 C 4886.11 0.168116 -4.49486 0
M  V30 52694 C 4887.43 2.14994 -3.84012 0
M  V30 52695 H 4884.55 0.228604 -0.700649 0
M  V30 52696 H 4887.19 -0.103718 -1.89717 0
M  V30 52697 H 4885.34 1.86388 -3.40869 0
M  V30 52698 H 4887.01 -0.463357 -4.58967 0
M  V30 52699 H 4885.26 -0.504733 -4.30854 0
M  V30 52700 H 4885.93 0.630026 -5.48393 0
M  V30 52701 H 4888.4 1.62184 -3.83191 0
M  V30 52702 H 4887.28 2.54144 -4.8652 0
M  V30 52703 H 4887.54 3.04695 -3.20333 0
M  V30 52704 N 4886.6 1.55916 0.229791 0
M  V30 52705 C 4887.53 1.94758 1.28808 0
M  V30 52706 C 4888.51 0.814709 1.4932 0
M  V30 52707 O 4889.69 1.07636 1.61642 0
M  V30 52708 C 4886.82 2.25714 2.63951 0
M  V30 52709 C 4885.78 3.41415 2.58108 0
M  V30 52710 C 4885.1 3.57955 3.97206 0
M  V30 52711 C 4886.4 4.76623 2.13606 0
M  V30 52712 H 4888.1 2.83407 0.965448 0
M  V30 52713 H 4885.64 1.36354 0.46298 0
M  V30 52714 H 4887.6 2.51478 3.38137 0
M  V30 52715 H 4886.32 1.3391 2.97885 0
M  V30 52716 H 4884.98 3.15687 1.8638 0
M  V30 52717 H 4884.63 2.63541 4.28433 0
M  V30 52718 H 4884.33 4.3577 3.9418 0
M  V30 52719 H 4885.85 3.86059 4.73066 0
M  V30 52720 H 4887.27 5.01647 2.77531 0
M  V30 52721 H 4885.66 5.57663 2.21657 0
M  V30 52722 H 4886.73 4.72534 1.08812 0
M  V30 52723 N 4888.08 -0.496163 1.49586 0
M  V30 52724 C 4889.03 -1.59417 1.63004 0
M  V30 52725 C 4890.01 -1.534 0.485511 0
M  V30 52726 O 4891.2 -1.60848 0.738705 0
M  V30 52727 C 4888.33 -2.98003 1.70437 0
M  V30 52728 C 4887.42 -3.08998 2.90484 0
M  V30 52729 N 4887.81 -2.89869 4.14499 0
M  V30 52730 C 4886.11 -3.40105 2.88522 0
M  V30 52731 C 4886.81 -3.05173 4.95222 0
M  V30 52732 N 4885.78 -3.34265 4.28682 0
M  V30 52733 H 4889.59 -1.43288 2.56604 0
M  V30 52734 H 4887.1 -0.702392 1.46425 0
M  V30 52735 H 4889.1 -3.7692 1.78149 0
M  V30 52736 H 4887.76 -3.15198 0.779781 0
M  V30 52737 H 4888.77 -2.65947 4.44401 0
M  V30 52738 H 4885.44 -3.63445 2.05461 0
M  V30 52739 H 4886.83 -2.94835 6.03756 0
M  V30 52740 N 4889.55 -1.38742 -0.747561 0
M  V30 52741 C 4890.8 -1.3548 -1.50907 0
M  V30 52742 C 4891.13 0.0532411 -1.94127 0
M  V30 52743 O 4890.41 1.01566 -1.65875 0
M  V30 52744 C 4890.69 -2.31592 -2.75749 0
M  V30 52745 C 4890.54 -3.81283 -2.38628 0
M  V30 52746 C 4891.86 -2.25735 -3.77798 0
M  V30 52747 H 4888.98 -0.493446 -0.54743 0
M  V30 52748 H 4891.62 -1.69637 -0.855763 0
M  V30 52749 H 4889.77 -2.02594 -3.31494 0
M  V30 52750 H 4891.45 -4.20979 -1.88612 0
M  V30 52751 H 4889.69 -3.9867 -1.71011 0
M  V30 52752 H 4890.36 -4.44001 -3.27974 0
M  V30 52753 H 4892.84 -2.51348 -3.31607 0
M  V30 52754 H 4891.71 -2.95085 -4.62835 0
M  V30 52755 H 4891.97 -1.25818 -4.23819 0
M  V30 52756 N 4891.03 0.976398 -1.2371 0
M  V30 52757 C 4892.44 1.53281 -1.06592 0
M  V30 52758 C 4892.79 1.92766 0.365459 0
M  V30 52759 O 4891.92 1.76454 1.25271 0
M  V30 52760 C 4892.51 2.78541 -1.92874 0
M  V30 52761 C 4891.07 3.30568 -1.80005 0
M  V30 52762 C 4890.22 2.03532 -1.88335 0
M  V30 52763 H 4893.17 0.795643 -1.37314 0
M  V30 52764 H 4893.19 3.51545 -1.45589 0
M  V30 52765 H 4892.7 2.49771 -2.97045 0
M  V30 52766 H 4890.81 3.64208 -0.78633 0
M  V30 52767 H 4890.92 4.00055 -2.63614 0
M  V30 52768 H 4889.28 2.17849 -1.31962 0
M  V30 52769 H 4890.07 1.77138 -2.9407 0
M  V30 52770 N 4892.51 1.04945 1.17577 0
M  V30 52771 C 4893.93 0.770331 1.39779 0
M  V30 52772 C 4894.13 -0.63635 1.91188 0
M  V30 52773 O 4893.18 -1.39915 2.1019 0
M  V30 52774 C 4894.5 1.82385 2.39074 0
M  V30 52775 C 4896.04 1.84578 2.52785 0
M  V30 52776 C 4896.52 2.88945 3.55351 0
M  V30 52777 N 4898.01 2.87892 3.62867 0
M  V30 52778 C 4898.74 3.65297 4.41979 0
M  V30 52779 N 4898.24 4.5248 5.24628 0
M  V30 52780 N 4900.03 3.53748 4.36828 0
M  V30 52781 H 4892.18 1.95707 0.825369 0
M  V30 52782 H 4894.45 0.847299 0.425192 0
M  V30 52783 H 4894.15 2.83331 2.08366 0
M  V30 52784 H 4894.03 1.66339 3.38543 0
M  V30 52785 H 4896.41 0.842979 2.82804 0
M  V30 52786 H 4896.5 2.04701 1.53398 0
M  V30 52787 H 4896.14 3.8941 3.26071 0
M  V30 52788 H 4896.07 2.66075 4.54436 0
M  V30 52789 H 4898.56 2.24677 3.03857 0
M  V30 52790 H 4898.87 5.08231 5.82169 0
M  V30 52791 H 4897.22 4.56542 5.24017 0
M  V30 52792 H 4900.41 2.85034 3.71313 0
M  V30 52793 H 4900.58 4.14319 4.9824 0
M  V30 52794 N 4893.99 -1.33965 0.830128 0
M  V30 52795 C 4894.94 -2.31301 0.245516 0
M  V30 52796 C 4895.93 -1.57736 -0.617706 0
M  V30 52797 O 4897.14 -1.72676 -0.508242 0
M  V30 52798 H 4893.51 -0.74955 0.060658 0
M  V30 52799 H 4895.48 -2.78125 1.08115 0
M  V30 52800 C 4894.23 -3.42963 -0.571963 0
M  V30 52801 H 4893.56 -3.99714 0.0829524 0
M  V30 52802 H 4895 -4.13289 -0.947004 0
M  V30 52803 C 4893.45 -2.88049 -1.74727 0
M  V30 52804 O 4893.98 -2.83518 -2.8457 0
M  V30 52805 N 4892.19 -2.44774 -1.56634 0
M  V30 52806 H 4891.74 -2.48658 -0.672814 0
M  V30 52807 H 4891.7 -2.08383 -2.35423 0
M  V30 52808 N 4895.47 -0.585751 -1.4631 0
M  V30 52809 C 4896.4 0.133475 -2.33118 0
M  V30 52810 C 4897.38 0.880656 -1.45528 0
M  V30 52811 O 4898.56 0.855518 -1.7434 0
M  V30 52812 C 4895.69 1.14573 -3.27857 0
M  V30 52813 C 4894.65 0.513191 -4.24912 0
M  V30 52814 C 4893.97 1.63213 -5.09181 0
M  V30 52815 C 4895.27 -0.551596 -5.19379 0
M  V30 52816 H 4896.97 -0.591313 -2.93503 0
M  V30 52817 H 4894.51 -0.28581 -1.41135 0
M  V30 52818 H 4896.47 1.65727 -3.87443 0
M  V30 52819 H 4895.19 1.90083 -2.65586 0
M  V30 52820 H 4893.85 0.022706 -3.66593 0
M  V30 52821 H 4893.5 2.37698 -4.43293 0
M  V30 52822 H 4893.2 1.21453 -5.74911 0
M  V30 52823 H 4894.72 2.14638 -5.71632 0
M  V30 52824 H 4896.14 -0.125005 -5.73164 0
M  V30 52825 H 4894.53 -0.889695 -5.93468 0
M  V30 52826 H 4895.6 -1.43671 -4.63127 0
M  V30 52827 N 4896.95 1.5424 -0.323695 0
M  V30 52828 C 4897.89 2.24341 0.542198 0
M  V30 52829 C 4898.86 1.23425 1.11155 0
M  V30 52830 O 4900.05 1.52108 1.15186 0
M  V30 52831 C 4897.19 3.00485 1.69715 0
M  V30 52832 C 4896.3 4.16218 1.15701 0
M  V30 52833 C 4895.44 4.79892 2.27766 0
M  V30 52834 C 4894.47 5.87728 1.71002 0
M  V30 52835 N 4893.61 6.45264 2.76729 0
M  V30 52836 H 4898.45 2.97935 -0.0621661 0
M  V30 52837 H 4895.99 1.47039 -0.042451 0
M  V30 52838 H 4897.95 3.42878 2.37678 0
M  V30 52839 H 4896.58 2.29225 2.27279 0
M  V30 52840 H 4895.63 3.78607 0.36893 0
M  V30 52841 H 4896.94 4.9384 0.701658 0
M  V30 52842 H 4896.09 5.25254 3.03633 0
M  V30 52843 H 4894.83 4.0165 2.76638 0
M  V30 52844 H 4893.84 5.41768 0.936327 0
M  V30 52845 H 4895.06 6.67867 1.23007 0
M  V30 52846 H 4893.01 5.69896 3.24892 0
M  V30 52847 H 4892.93 7.183 2.35757 0
M  V30 52848 H 4894.19 6.95282 3.52425 0
M  V30 52849 N 4898.42 0.0518709 1.57515 0
M  V30 52850 C 4899.35 -0.920208 2.14603 0
M  V30 52851 C 4900.33 -1.32402 1.06788 0
M  V30 52852 O 4901.52 -1.39862 1.34731 0
M  V30 52853 C 4898.65 -2.1948 2.69158 0
M  V30 52854 C 4897.6 -1.93103 3.81962 0
M  V30 52855 C 4896.93 -3.27022 4.23037 0
M  V30 52856 C 4898.23 -1.25208 5.0707 0
M  V30 52857 H 4899.92 -0.444697 2.96079 0
M  V30 52858 H 4897.47 -0.212458 1.42424 0
M  V30 52859 H 4899.42 -2.87884 3.07735 0
M  V30 52860 H 4898.15 -2.69238 1.84874 0
M  V30 52861 H 4896.81 -1.27111 3.43858 0
M  V30 52862 H 4896.45 -3.74583 3.35703 0
M  V30 52863 H 4896.15 -3.10172 4.99066 0
M  V30 52864 H 4897.68 -3.96656 4.64216 0
M  V30 52865 H 4899.09 -1.83647 5.4309 0
M  V30 52866 H 4897.49 -1.18681 5.88247 0
M  V30 52867 H 4898.56 -0.228212 4.84363 0
M  V30 52868 N 4899.9 -1.56035 -0.221519 0
M  V30 52869 C 4901.13 -1.83479 -0.966962 0
M  V30 52870 C 4901.55 -0.632202 -1.77158 0
M  V30 52871 O 4900.91 0.41902 -1.76391 0
M  V30 52872 C 4900.96 -3.08914 -1.86023 0
M  V30 52873 O 4900.06 -2.8761 -2.95557 0
M  V30 52874 H 4899.4 -0.604923 -0.273796 0
M  V30 52875 H 4901.93 -2.03248 -0.234822 0
M  V30 52876 H 4901.94 -3.39018 -2.27004 0
M  V30 52877 H 4900.62 -3.96072 -1.26884 0
M  V30 52878 H 4899.19 -2.68739 -2.58523 0
M  V30 52879 N 4901.38 0.488223 -1.49847 0
M  V30 52880 C 4902.31 1.59669 -1.70376 0
M  V30 52881 C 4903.29 1.60876 -0.552529 0
M  V30 52882 O 4904.48 1.77415 -0.789792 0
M  V30 52883 C 4901.61 2.98091 -1.7821 0
M  V30 52884 C 4900.56 3.11751 -2.9325 0
M  V30 52885 C 4899.89 4.51651 -2.86209 0
M  V30 52886 C 4901.19 2.90574 -4.34009 0
M  V30 52887 H 4902.88 1.42743 -2.63182 0
M  V30 52888 H 4900.43 0.685272 -1.26649 0
M  V30 52889 H 4902.38 3.75549 -1.91157 0
M  V30 52890 H 4901.1 3.16135 -0.820129 0
M  V30 52891 H 4899.76 2.36722 -2.79926 0
M  V30 52892 H 4899.41 4.66589 -1.87893 0
M  V30 52893 H 4899.11 4.61729 -3.63429 0
M  V30 52894 H 4900.63 5.31152 -3.01182 0
M  V30 52895 H 4902.05 3.57792 -4.47949 0
M  V30 52896 H 4900.44 3.12112 -5.12549 0
M  V30 52897 H 4901.51 1.86579 -4.47567 0
M  V30 52898 N 4902.86 1.39136 0.740193 0
M  V30 52899 C 4904.27 1.32213 1.31821 0
M  V30 52900 C 4904.62 -0.0159229 1.96194 0
M  V30 52901 O 4903.74 -0.918042 1.95962 0
M  V30 52902 C 4904.34 2.39445 2.39691 0
M  V30 52903 C 4902.9 2.36058 2.93178 0
M  V30 52904 C 4902.05 2.21605 1.66693 0
M  V30 52905 H 4905 1.493 0.53808 0
M  V30 52906 H 4905.02 2.05933 3.19956 0
M  V30 52907 H 4904.53 3.36818 1.9281 0
M  V30 52908 H 4902.63 1.42307 3.44354 0
M  V30 52909 H 4902.74 3.30716 3.46646 0
M  V30 52910 H 4901.11 1.68688 1.90831 0
M  V30 52911 H 4901.89 3.2094 1.21871 0
M  V30 52912 N 4904.34 -0.969824 1.24226 0
M  V30 52913 C 4905.61 -1.68771 0.988723 0
M  V30 52914 C 4905.99 -2.05344 -0.4896 0
M  V30 52915 O 4905.34 -1.75492 -1.46339 0
M  V30 52916 C 4905.55 -2.92128 1.90951 0
M  V30 52917 C 4906.9 -3.64414 2.17916 0
M  V30 52918 O 4907.92 -3.02181 1.88587 0
M  V30 52919 O 4906.78 -4.76436 2.67714 0
M  V30 52920 H 4903.88 -0.737723 0.373756 0
M  V30 52921 H 4906.42 -1.0241 1.35315 0
M  V30 52922 H 4905.19 -2.61778 2.9084 0
M  V30 52923 H 4904.82 -3.66223 1.54811 0
M  V30 52924 N 4905.81 -1.05567 -1.17018 0
M  V30 52925 C 4907.06 -0.768002 -1.87371 0
M  V30 52926 C 4907.39 0.705161 -1.81267 0
M  V30 52927 O 4906.64 1.53176 -1.21802 0
M  V30 52928 C 4906.94 -1.19861 -3.36702 0
M  V30 52929 C 4906.61 -2.67463 -3.63008 0
M  V30 52930 C 4905.27 -3.07783 -3.69896 0
M  V30 52931 C 4907.62 -3.62825 -3.74176 0
M  V30 52932 C 4904.95 -4.4232 -3.85447 0
M  V30 52933 C 4907.3 -4.971 -3.91247 0
M  V30 52934 C 4905.97 -5.37069 -3.96375 0
M  V30 52935 H 4905.24 -0.281032 -0.68564 0
M  V30 52936 H 4907.88 -1.32344 -1.3841 0
M  V30 52937 H 4906.19 -0.562232 -3.87745 0
M  V30 52938 H 4907.89 -0.953175 -3.89507 0
M  V30 52939 H 4904.48 -2.3524 -3.58274 0
M  V30 52940 H 4908.66 -3.32811 -3.68172 0
M  V30 52941 H 4903.92 -4.72783 -3.87668 0
M  V30 52942 H 4908.09 -5.70883 -3.9883 0
M  V30 52943 H 4905.72 -6.41323 -4.08178 0
M  V30 52944 N 4907.29 1.33523 -0.837221 0
M  V30 52945 C 4908.24 2.29247 -0.26725 0
M  V30 52946 C 4909.21 1.54254 0.616017 0
M  V30 52947 O 4910.39 1.82561 0.554634 0
M  V30 52948 C 4907.53 3.4064 0.553032 0
M  V30 52949 C 4906.65 4.30547 -0.354072 0
M  V30 52950 C 4905.78 5.29053 0.477153 0
M  V30 52951 C 4904.82 6.10599 -0.428445 0
M  V30 52952 N 4903.96 7.01153 0.364554 0
M  V30 52953 H 4908.8 2.77394 -1.08887 0
M  V30 52954 H 4906.33 1.36494 -0.548428 0
M  V30 52955 H 4908.29 4.03924 1.04408 0
M  V30 52956 H 4906.92 2.9369 1.33963 0
M  V30 52957 H 4905.97 3.67998 -0.963418 0
M  V30 52958 H 4907.29 4.87627 -1.04981 0
M  V30 52959 H 4906.44 5.97857 1.03209 0
M  V30 52960 H 4905.18 4.72545 1.20634 0
M  V30 52961 H 4904.18 5.40714 -0.995409 0
M  V30 52962 H 4905.41 6.69189 -1.15597 0
M  V30 52963 H 4903.36 6.47096 1.07715 0
M  V30 52964 H 4903.27 7.55509 -0.272503 0
M  V30 52965 H 4904.54 7.74266 0.901781 0
M  V30 52966 N 4908.77 0.593501 1.45998 0
M  V30 52967 C 4909.68 -0.135735 2.34207 0
M  V30 52968 C 4910.7 -0.874955 1.50401 0
M  V30 52969 O 4911.87 -0.835714 1.83242 0
M  V30 52970 C 4908.94 -1.12966 3.2778 0
M  V30 52971 C 4908 -0.393931 4.27489 0
M  V30 52972 C 4907.23 -1.3405 5.16591 0
M  V30 52973 O 4907.45 -2.57762 5.08837 0
M  V30 52974 O 4906.39 -0.845217 5.95936 0
M  V30 52975 H 4910.21 0.588795 2.97938 0
M  V30 52976 H 4907.8 0.353835 1.45149 0
M  V30 52977 H 4909.68 -1.70248 3.85479 0
M  V30 52978 H 4908.36 -1.83546 2.66632 0
M  V30 52979 H 4907.26 0.221 3.73447 0
M  V30 52980 H 4908.6 0.271112 4.91453 0
M  V30 52981 N 4910.25 -1.54066 0.33187 0
M  V30 52982 C 4911.18 -2.27571 -0.522852 0
M  V30 52983 C 4912.16 -1.28683 -1.11242 0
M  V30 52984 O 4913.34 -1.57508 -1.136 0
M  V30 52985 C 4910.47 -3.03976 -1.67976 0
M  V30 52986 C 4909.43 -4.10271 -1.21909 0
M  V30 52987 C 4908.75 -4.74564 -2.4636 0
M  V30 52988 C 4910.05 -5.21269 -0.327967 0
M  V30 52989 H 4911.75 -2.99264 0.0903029 0
M  V30 52990 H 4909.29 -1.4393 0.0448716 0
M  V30 52991 H 4911.25 -3.54131 -2.28406 0
M  V30 52992 H 4909.97 -2.29914 -2.31963 0
M  V30 52993 H 4908.63 -3.61011 -0.637682 0
M  V30 52994 H 4908.28 -3.97109 -3.08729 0
M  V30 52995 H 4907.98 -5.46371 -2.16224 0
M  V30 52996 H 4909.5 -5.27497 -3.07537 0
M  V30 52997 H 4910.92 -5.67131 -0.838778 0
M  V30 52998 H 4909.31 -5.99982 -0.119017 0
M  V30 52999 H 4910.38 -4.80671 0.639008 0
M  V30 53000 N 4911.73 -0.0602235 -1.57485 0
M  V30 53001 C 4912.97 0.615316 -1.94919 0
M  V30 53002 C 4913.33 1.67471 -0.939007 0
M  V30 53003 O 4914.53 2.40498 -1.2006 0
M  V30 53004 C 4912.8 1.18776 -3.37086 0
M  V30 53005 S 4914.36 1.88004 -3.96484 0
M  V30 53006 H 4911.18 0.201798 -0.681762 0
M  V30 53007 H 4913.78 -0.13132 -1.95058 0
M  V30 53008 H 4912.49 0.404725 -4.08399 0
M  V30 53009 H 4912.02 1.97102 -3.40462 0
M  V30 53010 H 4914.03 3.16147 -3.82446 0
M  V30 53011 N 4913.2 1.56151 0.213241 0
M  V30 53012 C 4914.43 1.83641 0.953074 0
M  V30 53013 C 4914.85 0.640425 1.77606 0
M  V30 53014 O 4914.2 -0.391008 1.78262 0
M  V30 53015 C 4914.26 3.09741 1.86394 0
M  V30 53016 O 4913.98 4.24726 1.0742 0
M  V30 53017 C 4915.48 3.50279 2.71697 0
M  V30 53018 H 4912.7 0.610273 0.27894 0
M  V30 53019 H 4915.24 2.03248 0.225963 0
M  V30 53020 H 4913.4 2.92085 2.54489 0
M  V30 53021 H 4913.81 4.96416 1.69326 0
M  V30 53022 H 4915.28 4.41527 3.31297 0
M  V30 53023 H 4915.76 2.72418 3.44507 0
M  V30 53024 H 4916.37 3.70403 2.09002 0
M  V30 53025 N 4914.68 -0.48027 1.50104 0
M  V30 53026 C 4915.93 -1.22974 1.59876 0
M  V30 53027 C 4916.24 -1.93281 0.300288 0
M  V30 53028 O 4917.45 -2.70085 0.276804 0
M  V30 53029 C 4915.91 -2.23398 2.82172 0
M  V30 53030 C 4915.51 -1.58936 4.1886 0
M  V30 53031 C 4917.26 -2.99044 3.01285 0
M  V30 53032 C 4915.17 -2.57593 5.32353 0
M  V30 53033 H 4914.1 -0.462686 0.595347 0
M  V30 53034 H 4916.75 -0.501229 1.76522 0
M  V30 53035 H 4915.13 -2.99502 2.59065 0
M  V30 53036 H 4916.3 -0.886841 4.52186 0
M  V30 53037 H 4914.62 -0.956048 4.05276 0
M  V30 53038 H 4917.21 -3.72862 3.83246 0
M  V30 53039 H 4917.56 -3.5789 2.12652 0
M  V30 53040 H 4918.09 -2.30055 3.2453 0
M  V30 53041 H 4914.83 -2.03499 6.23112 0
M  V30 53042 H 4914.35 -3.26024 5.03457 0
M  V30 53043 H 4916.03 -3.19607 5.62548 0
M  V30 53044 N 4916.16 -1.39527 -0.732804 0
M  V30 53045 C 4917.39 -1.40335 -1.52712 0
M  V30 53046 C 4917.81 -0.0003527 -1.881 0
M  V30 53047 O 4917.17 0.987208 -1.52065 0
M  V30 53048 C 4917.22 -2.28473 -2.78984 0
M  V30 53049 O 4916.32 -1.71613 -3.74997 0
M  V30 53050 H 4915.66 -0.477797 -0.461093 0
M  V30 53051 H 4918.19 -1.83549 -0.903931 0
M  V30 53052 H 4918.2 -2.43062 -3.27696 0
M  V30 53053 H 4916.88 -3.30433 -2.5256 0
M  V30 53054 H 4915.45 -1.66279 -3.33775 0
M  V30 53055 N 4917.64 0.963222 -1.24739 0
M  V30 53056 C 4918.59 2.04376 -1.01066 0
M  V30 53057 C 4919.57 1.60824 0.0494789 0
M  V30 53058 O 4920.76 1.76231 -0.164803 0
M  V30 53059 C 4917.89 3.37615 -0.622186 0
M  V30 53060 C 4916.98 3.87716 -1.71863 0
M  V30 53061 N 4917.37 4.10704 -2.95221 0
M  V30 53062 C 4915.67 4.16421 -1.59717 0
M  V30 53063 C 4916.37 4.51859 -3.66331 0
M  V30 53064 N 4915.35 4.57292 -2.93913 0
M  V30 53065 H 4919.15 2.20131 -1.94729 0
M  V30 53066 H 4916.66 1.14737 -1.14931 0
M  V30 53067 H 4918.66 4.14637 -0.433806 0
M  V30 53068 H 4917.32 3.23243 0.307213 0
M  V30 53069 H 4918.33 3.98026 -3.31355 0
M  V30 53070 H 4915.01 4.10959 -0.736125 0
M  V30 53071 H 4916.4 4.7802 -4.72172 0
M  V30 53072 N 4919.12 1.06186 1.16457 0
M  V30 53073 C 4920.37 0.772992 1.863 0
M  V30 53074 C 4920.68 -0.703123 1.82525 0
M  V30 53075 O 4921.88 -1.10633 2.47937 0
M  V30 53076 C 4920.34 1.3326 3.3432 0
M  V30 53077 C 4919.95 2.83888 3.46571 0
M  V30 53078 C 4921.69 1.12123 4.09425 0
M  V30 53079 C 4919.6 3.33099 4.8867 0
M  V30 53080 H 4918.53 0.285476 0.697868 0
M  V30 53081 H 4921.18 1.28043 1.31442 0
M  V30 53082 H 4919.56 0.752937 3.88776 0
M  V30 53083 H 4920.74 3.47797 3.02281 0
M  V30 53084 H 4919.05 3.03681 2.84898 0
M  V30 53085 H 4921.65 1.46379 5.14273 0
M  V30 53086 H 4921.99 0.0595295 4.16257 0
M  V30 53087 H 4922.52 1.66662 3.61204 0
M  V30 53088 H 4919.26 4.38743 4.87017 0
M  V30 53089 H 4918.78 2.73938 5.3359 0
M  V30 53090 H 4920.46 3.28363 5.57482 0
M  V30 53091 N 4920.59 -1.33077 0.84429 0
M  V30 53092 C 4921.84 -1.97603 0.442619 0
M  V30 53093 C 4922.17 -1.6686 -0.9994 0
M  V30 53094 O 4921.42 -0.943646 -1.71446 0
M  V30 53095 C 4921.72 -3.52043 0.616477 0
M  V30 53096 C 4921.39 -4.02749 2.0274 0
M  V30 53097 C 4920.05 -4.16308 2.41332 0
M  V30 53098 C 4922.4 -4.29765 2.94875 0
M  V30 53099 C 4919.73 -4.54219 3.71351 0
M  V30 53100 C 4922.08 -4.69131 4.24381 0
M  V30 53101 C 4920.75 -4.80895 4.62921 0
M  V30 53102 H 4920.02 -0.723082 0.161966 0
M  V30 53103 H 4922.66 -1.58659 1.07235 0
M  V30 53104 H 4920.97 -3.91681 -0.0965435 0
M  V30 53105 H 4922.67 -3.9998 0.285897 0
M  V30 53106 H 4919.26 -3.92674 1.7177 0
M  V30 53107 H 4923.44 -4.18808 2.66295 0
M  V30 53108 H 4918.7 -4.61521 4.01009 0
M  V30 53109 H 4922.87 -4.88991 4.95844 0
M  V30 53110 H 4920.5 -5.10028 5.63715 0
M  V30 53111 N 4922.07 -0.601236 -1.45681 0
M  V30 53112 C 4923.32 -0.0915662 -2.01492 0
M  V30 53113 C 4923.63 1.28325 -1.47621 0
M  V30 53114 O 4924.84 1.8853 -1.95368 0
M  V30 53115 C 4923.3 -0.113036 -3.59722 0
M  V30 53116 C 4922.9 -1.48732 -4.22591 0
M  V30 53117 C 4924.65 0.341722 -4.23122 0
M  V30 53118 C 4922.56 -1.46551 -5.72954 0
M  V30 53119 H 4921.49 -0.030463 -0.753384 0
M  V30 53120 H 4924.14 -0.755627 -1.6722 0
M  V30 53121 H 4922.52 0.617554 -3.91155 0
M  V30 53122 H 4923.69 -2.23911 -4.02741 0
M  V30 53123 H 4922.01 -1.88364 -3.7136 0
M  V30 53124 H 4924.6 0.377116 -5.33368 0
M  V30 53125 H 4924.95 1.36311 -3.93351 0
M  V30 53126 H 4925.48 -0.335396 -3.96384 0
M  V30 53127 H 4922.22 -2.4643 -6.07415 0
M  V30 53128 H 4921.74 -0.756206 -5.95014 0
M  V30 53129 H 4923.42 -1.1864 -6.3603 0
M  V30 53130 N 4923.55 1.53888 -0.340036 0
M  V30 53131 C 4924.96 1.86139 0.144605 0
M  V30 53132 C 4925.31 1.26135 1.50281 0
M  V30 53133 O 4924.44 0.573588 2.0866 0
M  V30 53134 C 4925.03 3.37729 0.269167 0
M  V30 53135 C 4923.59 3.69871 0.698038 0
M  V30 53136 C 4922.74 2.76776 -0.170347 0
M  V30 53137 H 4925.69 1.48501 -0.559756 0
M  V30 53138 H 4925.71 3.64335 1.09727 0
M  V30 53139 H 4925.22 3.81372 -0.7195 0
M  V30 53140 H 4923.32 3.3177 1.69586 0
M  V30 53141 H 4923.44 4.76584 0.490365 0
M  V30 53142 H 4921.8 2.52189 0.356755 0
M  V30 53143 H 4922.58 3.23249 -1.15608 0
M  V30 53144 N 4925.03 0.0685745 1.57451 0
M  V30 53145 C 4925.99 -0.885099 2.11421 0
M  V30 53146 C 4926.99 -1.2285 1.03753 0
M  V30 53147 O 4928.18 -1.1623 1.29754 0
M  V30 53148 C 4925.31 -2.18955 2.61288 0
M  V30 53149 H 4926.51 -0.416929 2.96988 0
M  V30 53150 H 4924.06 -0.180086 1.55259 0
M  V30 53151 H 4924.8 -2.70315 1.79165 0
M  V30 53152 H 4924.58 -1.95328 3.39984 0
M  V30 53153 H 4926.07 -2.87232 3.0313 0
M  V30 53154 N 4926.51 -1.56262 -0.204957 0
M  V30 53155 C 4927.44 -1.88802 -1.28176 0
M  V30 53156 C 4928.42 -0.747069 -1.44422 0
M  V30 53157 O 4929.6 -0.997095 -1.5997 0
M  V30 53158 C 4926.73 -2.10959 -2.64979 0
M  V30 53159 C 4925.78 -3.33659 -2.65658 0
M  V30 53160 S 4926.61 -4.89086 -2.18071 0
M  V30 53161 C 4927.76 -5.14299 -3.56718 0
M  V30 53162 H 4928 -2.7984 -1.00383 0
M  V30 53163 H 4925.53 -1.48912 -0.40799 0
M  V30 53164 H 4927.49 -2.24407 -3.43732 0
M  V30 53165 H 4926.15 -1.20688 -2.89988 0
M  V30 53166 H 4925.34 -3.46257 -3.66226 0
M  V30 53167 H 4924.94 -3.19153 -1.9498 0
M  V30 53168 H 4927.24 -5.04214 -4.5252 0
M  V30 53169 H 4928.18 -6.16108 -3.49022 0
M  V30 53170 H 4928.59 -4.4197 -3.51174 0
M  V30 53171 N 4927.99 0.472303 -1.50356 0
M  V30 53172 C 4929.23 1.22205 -1.60967 0
M  V30 53173 C 4929.55 1.92496 -0.311507 0
M  V30 53174 O 4928.82 1.84052 0.670937 0
M  V30 53175 H 4927.4 0.454071 -0.593151 0
M  V30 53176 H 4930.07 0.544911 -1.87128 0
M  V30 53177 H 4929.16 1.97061 -2.42019 0
M  V30 53178 N 4929.46 1.39914 0.725394 0
M  V30 53179 C 4930.41 1.39558 1.86081 0
M  V30 53180 C 4931.41 0.277393 1.67113 0
M  V30 53181 O 4932.61 0.447927 1.74338 0
M  V30 53182 H 4928.99 0.436014 0.612695 0
M  V30 53183 H 4930.96 2.35311 1.83497 0
M  V30 53184 C 4929.71 1.26541 3.23856 0
M  V30 53185 H 4929.03 2.11857 3.39053 0
M  V30 53186 H 4930.47 1.3035 4.03466 0
M  V30 53187 C 4928.93 -0.0252983 3.36891 0
M  V30 53188 O 4929.46 -0.991911 3.89261 0
M  V30 53189 N 4927.66 -0.0915507 2.90456 0
M  V30 53190 H 4927.21 0.695762 2.48026 0
M  V30 53191 H 4927.17 -0.95464 2.99556 0
M  V30 53192 N 4930.94 -0.956593 1.25248 0
M  V30 53193 C 4932.19 -1.69534 1.09276 0
M  V30 53194 C 4932.5 -1.92137 -0.366436 0
M  V30 53195 O 4933.71 -2.63689 -0.646557 0
M  V30 53196 C 4932.17 -3.05205 1.90731 0
M  V30 53197 C 4931.77 -2.90404 3.4113 0
M  V30 53198 C 4933.52 -3.82875 1.83322 0
M  V30 53199 C 4931.42 -4.21453 4.14887 0
M  V30 53200 H 4930.35 -0.635789 0.405324 0
M  V30 53201 H 4933.01 -1.06508 1.49427 0
M  V30 53202 H 4931.39 -3.69123 1.43402 0
M  V30 53203 H 4932.56 -2.3543 3.96118 0
M  V30 53204 H 4930.88 -2.2619 3.4961 0
M  V30 53205 H 4933.47 -4.79936 2.35723 0
M  V30 53206 H 4933.82 -4.08527 0.800715 0
M  V30 53207 H 4934.35 -3.25703 2.28391 0
M  V30 53208 H 4931.09 -4.00991 5.18543 0
M  V30 53209 H 4930.61 -4.762 3.64682 0
M  V30 53210 H 4932.29 -4.90007 4.22495 0
M  V30 53211 N 4932.42 -1.06802 -1.15892 0
M  V30 53212 C 4933.65 -0.808761 -1.90438 0
M  V30 53213 C 4934.06 0.637443 -1.77714 0
M  V30 53214 O 4933.42 1.4368 -1.12527 0
M  V30 53215 C 4933.47 -1.2008 -3.40974 0
M  V30 53216 O 4933.19 -2.59025 -3.53324 0
M  V30 53217 C 4934.69 -0.970022 -4.32557 0
M  V30 53218 H 4931.91 -0.29283 -0.603731 0
M  V30 53219 H 4934.46 -1.42301 -1.46869 0
M  V30 53220 H 4932.61 -0.630976 -3.82227 0
M  V30 53221 H 4933.03 -2.74866 -4.46709 0
M  V30 53222 H 4934.5 -1.2939 -5.36621 0
M  V30 53223 H 4934.98 0.0939666 -4.39099 0
M  V30 53224 H 4935.58 -1.52447 -3.97039 0
M  V30 53225 N 4933.9 1.32627 -0.851335 0
M  V30 53226 C 4935.13 2.01269 -0.466293 0
M  V30 53227 C 4935.54 1.64159 0.940656 0
M  V30 53228 O 4934.88 0.857166 1.62476 0
M  V30 53229 C 4934.94 3.55693 -0.521797 0
M  V30 53230 C 4934.6 4.1622 -1.88705 0
M  V30 53231 C 4935.6 4.34689 -2.85204 0
M  V30 53232 C 4933.29 4.52369 -2.18329 0
M  V30 53233 C 4935.28 4.8847 -4.09482 0
M  V30 53234 C 4932.97 5.05855 -3.42861 0
M  V30 53235 C 4933.97 5.23854 -4.38253 0
M  V30 53236 O 4933.65 5.76199 -5.6058 0
M  V30 53237 H 4933.39 0.651027 -0.182043 0
M  V30 53238 H 4935.94 1.70256 -1.149 0
M  V30 53239 H 4934.17 3.86086 0.217752 0
M  V30 53240 H 4935.86 4.05612 -0.152825 0
M  V30 53241 H 4936.62 4.07098 -2.63621 0
M  V30 53242 H 4932.5 4.37647 -1.44866 0
M  V30 53243 H 4936.05 5.02434 -4.83948 0
M  V30 53244 H 4931.94 5.32878 -3.64295 0
M  V30 53245 H 4932.71 5.94596 -5.62492 0
M  V30 53246 N 4935.38 0.608953 1.4536 0
M  V30 53247 C 4936.65 0.0366065 1.95566 0
M  V30 53248 C 4937.03 -1.43164 1.55136 0
M  V30 53249 O 4936.38 -2.13487 0.814588 0
M  V30 53250 C 4936.59 0.236149 3.482 0
M  V30 53251 C 4937.94 0.117667 4.24437 0
M  V30 53252 O 4938.96 0.166342 3.55811 0
M  V30 53253 O 4937.82 0.00391339 5.465 0
M  V30 53254 H 4934.92 -0.0349584 0.826261 0
M  V30 53255 H 4937.46 0.67911 1.55519 0
M  V30 53256 H 4936.23 1.25582 3.70601 0
M  V30 53257 H 4935.86 -0.441552 3.95141 0
M  V30 53258 N 4936.85 -1.53705 0.348193 0
M  V30 53259 C 4938.1 -2.00989 -0.246895 0
M  V30 53260 C 4938.43 -1.23592 -1.50184 0
M  V30 53261 O 4937.68 -0.312884 -1.93183 0
M  V30 53262 C 4937.98 -3.52295 -0.601937 0
M  V30 53263 C 4937.65 -4.47451 0.556666 0
M  V30 53264 C 4936.31 -4.73185 0.874612 0
M  V30 53265 C 4938.66 -5.03847 1.33372 0
M  V30 53266 C 4935.99 -5.5257 1.9719 0
M  V30 53267 C 4938.34 -5.84428 2.42128 0
M  V30 53268 C 4937.01 -6.08456 2.74477 0
M  V30 53269 H 4936.28 -0.735472 -0.0903453 0
M  V30 53270 H 4938.92 -1.85462 0.477066 0
M  V30 53271 H 4937.23 -3.65677 -1.40668 0
M  V30 53272 H 4938.93 -3.86341 -1.07434 0
M  V30 53273 H 4935.52 -4.27557 0.298802 0
M  V30 53274 H 4939.7 -4.83926 1.10134 0
M  V30 53275 H 4934.96 -5.6941 2.22671 0
M  V30 53276 H 4939.13 -6.2714 3.02767 0
M  V30 53277 H 4936.76 -6.69755 3.59628 0
M  V30 53278 N 4938.33 -0.0769235 -1.57412 0
M  V30 53279 C 4939.56 0.603334 -1.9843 0
M  V30 53280 C 4939.98 1.62044 -0.955165 0
M  V30 53281 O 4939.34 1.81129 0.0786141 0
M  V30 53282 C 4939.39 1.24384 -3.38469 0
M  V30 53283 O 4938.49 2.3597 -3.38219 0
M  V30 53284 H 4937.83 0.154718 -0.645723 0
M  V30 53285 H 4940.36 -0.152957 -2.04027 0
M  V30 53286 H 4940.37 1.58947 -3.75766 0
M  V30 53287 H 4939.05 0.49859 -4.12901 0
M  V30 53288 H 4937.63 2.03162 -3.12697 0
M  V30 53289 N 4939.81 1.56368 0.196667 0
M  V30 53290 C 4941.06 1.80532 0.917302 0
M  V30 53291 C 4941.39 0.649882 1.83322 0
M  V30 53292 O 4940.64 -0.364442 1.92277 0
M  V30 53293 C 4940.94 3.1067 1.76689 0
M  V30 53294 C 4940.61 4.39624 1.0021 0
M  V30 53295 C 4939.27 4.74655 0.790928 0
M  V30 53296 C 4941.62 5.19132 0.463853 0
M  V30 53297 C 4938.95 5.86692 0.0300092 0
M  V30 53298 C 4941.3 6.31963 -0.283848 0
M  V30 53299 C 4939.96 6.65579 -0.506047 0
M  V30 53300 H 4939.23 0.660614 0.335665 0
M  V30 53301 H 4941.88 1.90616 0.183777 0
M  V30 53302 H 4940.19 2.95816 2.56905 0
M  V30 53303 H 4941.88 3.26571 2.32706 0
M  V30 53304 H 4938.47 4.12131 1.17669 0
M  V30 53305 H 4942.66 4.92482 0.614402 0
M  V30 53306 H 4937.91 6.11211 -0.152132 0
M  V30 53307 H 4942.09 6.92789 -0.708301 0
M  V30 53308 H 4939.71 7.52235 -1.09757 0
M  V30 53309 N 4941.29 -0.464322 1.50605 0
M  V30 53310 C 4942.24 -1.56146 1.69962 0
M  V30 53311 C 4943.21 -1.57044 0.540965 0
M  V30 53312 O 4944.39 -1.7447 0.772319 0
M  V30 53313 C 4941.53 -2.94073 1.80596 0
M  V30 53314 C 4940.64 -3.02912 3.08007 0
M  V30 53315 C 4939.78 -4.31795 3.09397 0
M  V30 53316 C 4938.82 -4.34401 4.31233 0
M  V30 53317 N 4937.95 -5.54766 4.30324 0
M  V30 53318 H 4942.79 -1.38946 2.63625 0
M  V30 53319 H 4940.33 -0.675436 1.30676 0
M  V30 53320 H 4942.29 -3.74067 1.84743 0
M  V30 53321 H 4940.92 -3.09893 0.903665 0
M  V30 53322 H 4939.97 -2.15749 3.13299 0
M  V30 53323 H 4941.28 -3.00698 3.97973 0
M  V30 53324 H 4940.44 -5.20142 3.1231 0
M  V30 53325 H 4939.18 -4.36628 2.17273 0
M  V30 53326 H 4938.18 -3.44451 4.28524 0
M  V30 53327 H 4939.41 -4.31255 5.24591 0
M  V30 53328 H 4937.35 -5.60372 3.41057 0
M  V30 53329 H 4937.27 -5.54321 5.14066 0
M  V30 53330 H 4938.54 -6.45219 4.37393 0
M  V30 53331 N 4942.77 -1.40296 -0.717964 0
M  V30 53332 C 4943.99 -1.41947 -1.51215 0
M  V30 53333 C 4944.42 -0.0203032 -1.88089 0
M  V30 53334 O 4943.77 0.971024 -1.53104 0
M  V30 53335 C 4943.82 -2.31419 -2.76545 0
M  V30 53336 O 4942.93 -1.75581 -3.73156 0
M  V30 53337 H 4942.27 -0.48266 -0.455999 0
M  V30 53338 H 4944.8 -1.84497 -0.884413 0
M  V30 53339 H 4944.81 -2.46524 -3.251 0
M  V30 53340 H 4943.48 -3.33094 -2.49041 0
M  V30 53341 H 4942.06 -1.6981 -3.31993 0
M  V30 53342 N 4944.24 0.949938 -1.25754 0
M  V30 53343 C 4945.47 1.73499 -1.13634 0
M  V30 53344 C 4945.89 1.85602 0.305525 0
M  V30 53345 O 4945.25 1.33988 1.22135 0
M  V30 53346 C 4945.3 3.12424 -1.80066 0
M  V30 53347 O 4944.4 3.97912 -1.0835 0
M  V30 53348 H 4943.75 0.532651 -0.396458 0
M  V30 53349 H 4946.28 1.19037 -1.66407 0
M  V30 53350 H 4946.29 3.62859 -1.8654 0
M  V30 53351 H 4944.96 3.02931 -2.84966 0
M  V30 53352 H 4943.54 3.56371 -1.0979 0
M  V30 53353 N 4945.72 1.07416 1.15324 0
M  V30 53354 C 4946.97 0.798896 1.86401 0
M  V30 53355 C 4947.3 -0.673369 1.82152 0
M  V30 53356 O 4946.58 -1.49423 1.24511 0
M  V30 53357 C 4946.86 1.30858 3.35482 0
M  V30 53358 C 4946.71 2.84544 3.4836 0
M  V30 53359 C 4948.03 0.925637 4.30256 0
M  V30 53360 H 4945.15 0.291683 0.676824 0
M  V30 53361 H 4947.79 1.33205 1.35486 0
M  V30 53362 H 4945.94 0.85505 3.78974 0
M  V30 53363 H 4947.61 3.38191 3.13727 0
M  V30 53364 H 4945.86 3.22709 2.89898 0
M  V30 53365 H 4946.53 3.15275 4.53107 0
M  V30 53366 H 4949 1.31644 3.94727 0
M  V30 53367 H 4947.88 1.30958 5.33049 0
M  V30 53368 H 4948.14 -0.16837 4.41779 0
M  V30 53369 N 4947.2 -1.32174 0.858357 0
M  V30 53370 C 4948.45 -1.9639 0.459758 0
M  V30 53371 C 4948.76 -1.68662 -0.990573 0
M  V30 53372 O 4949.97 -2.26647 -1.49478 0
M  V30 53373 C 4948.42 -3.5154 0.771223 0
M  V30 53374 C 4948.03 -3.88122 2.23753 0
M  V30 53375 C 4949.78 -4.22208 0.440528 0
M  V30 53376 C 4947.68 -5.36332 2.49202 0
M  V30 53377 H 4946.61 -0.735001 0.168195 0
M  V30 53378 H 4949.26 -1.50514 1.04965 0
M  V30 53379 H 4947.65 -3.95845 0.110719 0
M  V30 53380 H 4948.82 -3.54814 2.94013 0
M  V30 53381 H 4947.14 -3.30488 2.53311 0
M  V30 53382 H 4949.73 -5.31232 0.608042 0
M  V30 53383 H 4950.08 -4.11685 -0.618147 0
M  V30 53384 H 4950.61 -3.83498 1.05708 0
M  V30 53385 H 4947.35 -5.51879 3.53708 0
M  V30 53386 H 4946.87 -5.71033 1.83524 0
M  V30 53387 H 4948.55 -6.03458 2.3334 0
M  V30 53388 N 4948.68 -0.616653 -1.45035 0
M  V30 53389 C 4949.91 -0.12204 -2.0654 0
M  V30 53390 C 4950.32 1.19738 -1.45973 0
M  V30 53391 O 4949.68 1.73131 -0.577228 0
M  V30 53392 C 4949.73 0.01439 -3.61497 0
M  V30 53393 O 4949.45 -1.25284 -4.19804 0
M  V30 53394 C 4950.95 0.5394 -4.40006 0
M  V30 53395 H 4948.17 -0.0730072 -0.667016 0
M  V30 53396 H 4950.72 -0.846956 -1.86137 0
M  V30 53397 H 4948.87 0.689675 -3.81212 0
M  V30 53398 H 4949.28 -1.08834 -5.13084 0
M  V30 53399 H 4950.76 0.583919 -5.48903 0
M  V30 53400 H 4951.24 1.56354 -4.10427 0
M  V30 53401 H 4951.84 -0.102144 -4.25177 0
M  V30 53402 N 4950.16 1.53519 -0.356339 0
M  V30 53403 C 4951.09 2.28374 0.486581 0
M  V30 53404 C 4952.07 1.30436 1.09181 0
M  V30 53405 O 4953.25 1.59295 1.1108 0
M  V30 53406 C 4950.38 3.0661 1.63119 0
M  V30 53407 C 4949.34 4.12158 1.15367 0
M  V30 53408 C 4948.66 4.78423 2.38779 0
M  V30 53409 C 4949.96 5.21725 0.244996 0
M  V30 53410 H 4951.66 2.99082 -0.137902 0
M  V30 53411 H 4949.2 1.4384 -0.0677639 0
M  V30 53412 H 4951.16 3.5772 2.22743 0
M  V30 53413 H 4949.88 2.33576 2.28276 0
M  V30 53414 H 4948.54 3.6198 0.580167 0
M  V30 53415 H 4948.19 4.0197 3.02372 0
M  V30 53416 H 4947.89 5.49741 2.07505 0
M  V30 53417 H 4949.41 5.32323 2.99106 0
M  V30 53418 H 4950.82 5.68393 0.748447 0
M  V30 53419 H 4949.22 6.00095 0.0235498 0
M  V30 53420 H 4950.29 4.79594 -0.715398 0
M  V30 53421 N 4951.63 0.0852704 1.57369 0
M  V30 53422 C 4952.58 -0.89478 2.14701 0
M  V30 53423 C 4953.58 -1.29899 1.08732 0
M  V30 53424 O 4954.78 -1.27466 1.27092 0
M  V30 53425 H 4951.16 -0.306545 0.686683 0
M  V30 53426 H 4953.13 -0.386438 2.95887 0
M  V30 53427 C 4951.88 -2.14789 2.73425 0
M  V30 53428 H 4951.2 -1.84573 3.54645 0
M  V30 53429 H 4952.64 -2.81445 3.1712 0
M  V30 53430 C 4951.1 -2.9154 1.68838 0
M  V30 53431 O 4951.63 -3.85729 1.12142 0
M  V30 53432 N 4949.84 -2.54896 1.39558 0
M  V30 53433 H 4949.38 -1.78373 1.85852 0
M  V30 53434 H 4949.34 -3.0655 0.698162 0
M  V30 53435 N 4953.11 -1.5647 -0.188372 0
M  V30 53436 C 4954.34 -1.85134 -0.923738 0
M  V30 53437 C 4954.76 -0.668599 -1.76565 0
M  V30 53438 O 4954.11 0.362599 -1.78862 0
M  V30 53439 C 4954.16 -3.12667 -1.81442 0
M  V30 53440 O 4953.89 -4.26382 -1.0065 0
M  V30 53441 C 4955.39 -3.54557 -2.6609 0
M  V30 53442 H 4952.61 -0.614634 -0.269196 0
M  V30 53443 H 4955.15 -2.03582 -0.1936 0
M  V30 53444 H 4953.31 -2.96097 -2.4981 0
M  V30 53445 H 4953.72 -4.99047 -1.61407 0
M  V30 53446 H 4955.19 -4.46742 -3.24231 0
M  V30 53447 H 4955.67 -2.77865 -3.40129 0
M  V30 53448 H 4956.28 -3.73681 -2.03082 0
M  V30 53449 N 4954.59 0.456329 -1.50849 0
M  V30 53450 C 4955.54 1.57312 -1.71335 0
M  V30 53451 C 4956.53 1.59185 -0.579343 0
M  V30 53452 O 4957.74 1.63158 -0.760238 0
M  V30 53453 H 4954.11 0.522281 -0.541043 0
M  V30 53454 H 4956.09 1.372 -2.64988 0
M  V30 53455 C 4954.83 2.95136 -1.83821 0
M  V30 53456 H 4954.16 2.94419 -2.70477 0
M  V30 53457 H 4955.6 3.72695 -2.02175 0
M  V30 53458 C 4954.06 3.31634 -0.59334 0
M  V30 53459 O 4954.59 4.00853 0.260757 0
M  V30 53460 N 4952.79 2.87203 -0.443003 0
M  V30 53461 H 4952.34 2.31047 -1.13909 0
M  V30 53462 H 4952.3 3.11988 0.38873 0
M  V30 53463 N 4956.07 1.40675 0.710514 0
M  V30 53464 C 4957.03 1.41087 1.8063 0
M  V30 53465 C 4958.03 0.303839 1.57903 0
M  V30 53466 O 4959.22 0.562995 1.64851 0
M  V30 53467 C 4956.35 1.20759 3.18795 0
M  V30 53468 H 4957.55 2.38619 1.81662 0
M  V30 53469 H 4955.1 1.26598 0.916659 0
M  V30 53470 H 4955.84 0.240078 3.2341 0
M  V30 53471 H 4955.62 2.00952 3.36691 0
M  V30 53472 H 4957.11 1.23847 3.98813 0
M  V30 53473 N 4957.55 -0.943255 1.26256 0
M  V30 53474 C 4958.46 -2.07528 1.09404 0
M  V30 53475 C 4959.47 -1.73977 0.0281061 0
M  V30 53476 O 4960.65 -2.00066 0.231407 0
M  V30 53477 C 4957.71 -3.39 0.726642 0
M  V30 53478 C 4956.78 -3.86346 1.87177 0
M  V30 53479 C 4956.01 -5.11544 1.5218 0
M  V30 53480 O 4956.23 -5.68832 0.422585 0
M  V30 53481 O 4955.17 -5.53881 2.35584 0
M  V30 53482 H 4958.99 -2.24651 2.04367 0
M  V30 53483 H 4956.58 -1.05984 1.05298 0
M  V30 53484 H 4958.46 -4.17998 0.534383 0
M  V30 53485 H 4957.13 -3.2312 -0.193607 0
M  V30 53486 H 4956.04 -3.08302 2.11897 0
M  V30 53487 H 4957.37 -4.06743 2.77167 0
M  V30 53488 N 4959.03 -1.08026 -1.14753 0
M  V30 53489 C 4959.96 -0.728326 -2.21851 0
M  V30 53490 C 4960.94 0.287427 -1.67654 0
M  V30 53491 O 4962.12 0.158659 -1.93551 0
M  V30 53492 C 4959.25 -0.132671 -3.47047 0
M  V30 53493 C 4958.21 -1.07634 -4.14245 0
M  V30 53494 C 4957.53 -0.343095 -5.33598 0
M  V30 53495 C 4958.83 -2.41285 -4.63227 0
M  V30 53496 H 4960.53 -1.62374 -2.51545 0
M  V30 53497 H 4958.07 -0.782167 -1.20906 0
M  V30 53498 H 4960.02 0.125517 -4.21213 0
M  V30 53499 H 4958.75 0.797859 -3.16705 0
M  V30 53500 H 4957.41 -1.31956 -3.42028 0
M  V30 53501 H 4957.06 0.591115 -4.99515 0
M  V30 53502 H 4956.76 -0.972159 -5.79502 0
M  V30 53503 H 4958.28 -0.0928685 -6.10529 0
M  V30 53504 H 4959.69 -2.21251 -5.28887 0
M  V30 53505 H 4958.09 -2.99848 -5.19818 0
M  V30 53506 H 4959.16 -3.03092 -3.78501 0
M  V30 53507 N 4960.5 1.31717 -0.865354 0
M  V30 53508 C 4961.75 1.96874 -0.474 0
M  V30 53509 C 4962.08 1.68429 0.972727 0
M  V30 53510 O 4961.33 0.970802 1.69923 0
M  V30 53511 C 4961.63 3.51018 -0.672406 0
M  V30 53512 C 4961.3 3.99473 -2.09122 0
M  V30 53513 C 4959.96 4.12416 -2.47925 0
M  V30 53514 C 4962.31 4.2502 -3.01675 0
M  V30 53515 C 4959.64 4.48254 -3.7853 0
M  V30 53516 C 4961.99 4.6232 -4.3179 0
M  V30 53517 C 4960.66 4.7347 -4.70513 0
M  V30 53518 H 4959.93 0.720414 -0.173449 0
M  V30 53519 H 4962.57 1.56933 -1.09746 0
M  V30 53520 H 4960.88 3.91785 0.0342182 0
M  V30 53521 H 4962.58 3.99474 -0.349494 0
M  V30 53522 H 4959.17 3.89892 -1.77995 0
M  V30 53523 H 4963.35 4.14519 -2.72924 0
M  V30 53524 H 4958.61 4.55083 -4.08301 0
M  V30 53525 H 4962.78 4.8104 -5.0356 0
M  V30 53526 H 4960.41 5.00996 -5.71758 0
M  V30 53527 N 4961.98 0.624336 1.44706 0
M  V30 53528 C 4962.93 -0.0969135 2.32398 0
M  V30 53529 C 4963.92 -0.842711 1.46952 0
M  V30 53530 O 4965.13 -0.756379 1.63337 0
M  V30 53531 H 4961.5 -0.0501042 0.750329 0
M  V30 53532 H 4963.48 0.660869 2.9099 0
M  V30 53533 C 4962.22 -1.06955 3.30841 0
M  V30 53534 H 4961.55 -0.505103 3.96596 0
M  V30 53535 H 4962.99 -1.54383 3.94895 0
M  V30 53536 C 4961.45 -2.15144 2.59258 0
M  V30 53537 O 4961.98 -3.2313 2.38641 0
M  V30 53538 N 4960.18 -1.9089 2.1911 0
M  V30 53539 H 4959.73 -1.03078 2.36078 0
M  V30 53540 H 4959.69 -2.63479 1.7154 0
M  V30 53541 N 4963.46 -1.53328 0.364476 0
M  V30 53542 C 4964.39 -2.23288 -0.517214 0
M  V30 53543 C 4965.4 -1.24661 -1.04707 0
M  V30 53544 O 4966.59 -1.50891 -0.953637 0
M  V30 53545 C 4963.69 -2.9161 -1.72675 0
M  V30 53546 C 4962.87 -4.16734 -1.32858 0
M  V30 53547 C 4961.93 -4.68277 -2.40006 0
M  V30 53548 O 4960.95 -5.31983 -2.02442 0
M  V30 53549 N 4962.15 -4.45996 -3.71575 0
M  V30 53550 H 4964.92 -2.99588 0.0820444 0
M  V30 53551 H 4962.48 -1.60786 0.1896 0
M  V30 53552 H 4964.47 -3.23001 -2.43829 0
M  V30 53553 H 4963.04 -2.1877 -2.2329 0
M  V30 53554 H 4962.26 -3.91658 -0.446931 0
M  V30 53555 H 4963.55 -4.98082 -1.03884 0
M  V30 53556 H 4962.95 -3.95091 -4.0487 0
M  V30 53557 H 4961.5 -4.81939 -4.38837 0
M  V30 53558 N 4964.94 -0.0936148 -1.57322 0
M  V30 53559 C 4966.16 0.582254 -1.99059 0
M  V30 53560 C 4966.59 1.61022 -0.972298 0
M  V30 53561 O 4965.95 1.81203 0.0593985 0
M  V30 53562 C 4965.99 1.20787 -3.39769 0
M  V30 53563 O 4965.1 2.3237 -3.40702 0
M  V30 53564 H 4964.44 0.147861 -0.647328 0
M  V30 53565 H 4966.97 -0.174588 -2.03854 0
M  V30 53566 H 4966.98 1.54953 -3.7743 0
M  V30 53567 H 4965.65 0.454769 -4.13406 0
M  V30 53568 H 4964.23 1.99834 -3.14834 0
M  V30 53569 N 4966.42 1.56568 0.180071 0
M  V30 53570 C 4967.69 1.72353 0.92487 0
M  V30 53571 C 4968.07 0.652593 2.0076 0
M  V30 53572 O 4967.42 -0.334036 2.26045 0
M  V30 53573 C 4967.63 3.15235 1.4976 0
M  V30 53574 C 4968.98 3.75928 1.97392 0
M  V30 53575 O 4970 3.18458 1.59572 0
M  V30 53576 O 4968.86 4.76819 2.67031 0
M  V30 53577 H 4965.96 0.703517 0.434733 0
M  V30 53578 H 4968.5 1.68861 0.168587 0
M  V30 53579 H 4967.27 3.84658 0.717892 0
M  V30 53580 H 4966.9 3.23018 2.31831 0
M  V30 53581 N 4967.89 -0.448323 1.51089 0
M  V30 53582 C 4969.14 -1.19555 1.62448 0
M  V30 53583 C 4969.46 -1.92601 0.341219 0
M  V30 53584 O 4970.66 -2.69437 0.334031 0
M  V30 53585 C 4969.12 -2.17363 2.86847 0
M  V30 53586 C 4968.73 -1.50015 4.22137 0
M  V30 53587 C 4970.47 -2.92586 3.07561 0
M  V30 53588 C 4968.38 -2.46243 5.37697 0
M  V30 53589 H 4967.31 -0.449954 0.605027 0
M  V30 53590 H 4969.96 -0.463673 1.77545 0
M  V30 53591 H 4968.34 -2.93939 2.6536 0
M  V30 53592 H 4969.51 -0.790726 4.53965 0
M  V30 53593 H 4967.83 -0.869868 4.07213 0
M  V30 53594 H 4970.43 -3.64649 3.91069 0
M  V30 53595 H 4970.77 -3.53298 2.20195 0
M  V30 53596 H 4971.3 -2.23119 3.29337 0
M  V30 53597 H 4968.04 -1.90236 6.27288 0
M  V30 53598 H 4967.56 -3.15271 5.10259 0
M  V30 53599 H 4969.24 -3.07603 5.69201 0
M  V30 53600 N 4969.37 -1.4105 -0.703043 0
M  V30 53601 C 4970.62 -1.40212 -1.46521 0
M  V30 53602 C 4970.95 -0.0085459 -1.94198 0
M  V30 53603 O 4970.23 0.962377 -1.69022 0
M  V30 53604 C 4970.51 -2.40247 -2.68241 0
M  V30 53605 C 4970.36 -3.88681 -2.26377 0
M  V30 53606 C 4971.68 -2.3764 -3.70425 0
M  V30 53607 H 4968.8 -0.510613 -0.531454 0
M  V30 53608 H 4971.44 -1.72274 -0.801362 0
M  V30 53609 H 4969.59 -2.13037 -3.2488 0
M  V30 53610 H 4971.26 -4.26766 -1.75123 0
M  V30 53611 H 4969.51 -4.03909 -1.58241 0
M  V30 53612 H 4970.18 -4.54211 -3.13682 0
M  V30 53613 H 4972.65 -2.6177 -3.23443 0
M  V30 53614 H 4971.53 -3.09661 -4.53212 0
M  V30 53615 H 4971.79 -1.39238 -4.19601 0
M  V30 53616 N 4970.85 0.936546 -1.26754 0
M  V30 53617 C 4971.81 2.01748 -1.08768 0
M  V30 53618 C 4972.81 1.60763 -0.0345001 0
M  V30 53619 O 4974 1.71962 -0.278318 0
M  V30 53620 C 4971.14 3.34541 -0.655389 0
M  V30 53621 H 4972.33 2.19135 -2.04743 0
M  V30 53622 H 4969.88 1.11614 -1.09417 0
M  V30 53623 H 4970.62 3.22852 0.306147 0
M  V30 53624 H 4970.4 3.65643 -1.41591 0
M  V30 53625 H 4971.89 4.13942 -0.551524 0
M  V30 53626 N 4972.33 1.08633 1.14178 0
M  V30 53627 C 4973.28 0.687959 2.17373 0
M  V30 53628 C 4974.26 -0.293576 1.58199 0
M  V30 53629 O 4975.45 -0.105229 1.76687 0
M  V30 53630 C 4972.58 0.101304 3.4315 0
M  V30 53631 C 4971.67 1.10876 4.0935 0
M  V30 53632 N 4972.06 2.29301 4.50838 0
M  V30 53633 C 4970.36 0.94505 4.35872 0
M  V30 53634 C 4971.06 2.93322 5.02332 0
M  V30 53635 N 4970.04 2.2092 4.96684 0
M  V30 53636 H 4973.84 1.58972 2.47194 0
M  V30 53637 H 4971.35 0.961375 1.30887 0
M  V30 53638 H 4973.35 -0.202062 4.1641 0
M  V30 53639 H 4972.01 -0.795411 3.14807 0
M  V30 53640 H 4973.02 2.66943 4.43804 0
M  V30 53641 H 4969.7 0.102332 4.17375 0
M  V30 53642 H 4971.09 3.93951 5.44291 0
M  V30 53643 N 4973.81 -1.31256 0.872327 0
M  V30 53644 C 4974.74 -2.30928 0.345635 0
M  V30 53645 C 4975.72 -1.60451 -0.564744 0
M  V30 53646 O 4976.9 -1.88142 -0.481268 0
M  V30 53647 C 4974.03 -3.4435 -0.451702 0
M  V30 53648 C 4972.99 -4.26434 0.365791 0
M  V30 53649 C 4972.31 -5.31787 -0.557375 0
M  V30 53650 C 4973.61 -4.97153 1.60113 0
M  V30 53651 H 4975.31 -2.7523 1.17851 0
M  V30 53652 H 4972.85 -1.32318 0.568141 0
M  V30 53653 H 4974.81 -4.13131 -0.830709 0
M  V30 53654 H 4973.53 -2.9882 -1.3181 0
M  V30 53655 H 4972.19 -3.59324 0.726775 0
M  V30 53656 H 4971.84 -4.82507 -1.42113 0
M  V30 53657 H 4971.54 -5.87598 -0.0142813 0
M  V30 53658 H 4973.06 -6.03427 -0.933175 0
M  V30 53659 H 4974.47 -5.58519 1.29342 0
M  V30 53660 H 4972.87 -5.62771 2.08347 0
M  V30 53661 H 4973.94 -4.24003 2.35264 0
M  V30 53662 N 4975.28 -0.632002 -1.44373 0
M  V30 53663 C 4976.21 0.0592422 -2.33425 0
M  V30 53664 C 4977.2 0.833912 -1.48256 0
M  V30 53665 O 4978.38 0.799619 -1.76974 0
M  V30 53666 C 4975.51 1.04084 -3.31336 0
M  V30 53667 C 4974.46 0.377749 -4.2633 0
M  V30 53668 C 4973.79 1.46932 -5.14116 0
M  V30 53669 C 4975.09 -0.716553 -5.17361 0
M  V30 53670 H 4976.78 -0.684389 -2.91473 0
M  V30 53671 H 4974.33 -0.330567 -1.40154 0
M  V30 53672 H 4976.28 1.53317 -3.9252 0
M  V30 53673 H 4975.01 1.81538 -2.71499 0
M  V30 53674 H 4973.67 -0.0939342 -3.6648 0
M  V30 53675 H 4973.31 2.23475 -4.50631 0
M  V30 53676 H 4973.01 1.03101 -5.78484 0
M  V30 53677 H 4974.54 1.96343 -5.78171 0
M  V30 53678 H 4975.95 -0.30729 -5.72476 0
M  V30 53679 H 4974.35 -1.07805 -5.90337 0
M  V30 53680 H 4975.42 -1.58333 -4.58322 0
M  V30 53681 N 4976.76 1.53132 -0.372602 0
M  V30 53682 C 4977.99 2.06251 0.218026 0
M  V30 53683 C 4978.41 1.2438 1.41107 0
M  V30 53684 O 4977.77 0.264617 1.79358 0
M  V30 53685 C 4977.82 3.5586 0.582751 0
M  V30 53686 O 4976.92 3.76673 1.67903 0
M  V30 53687 H 4976.26 0.663318 0.0300807 0
M  V30 53688 H 4978.79 1.97475 -0.535239 0
M  V30 53689 H 4978.8 3.9901 0.851784 0
M  V30 53690 H 4977.48 4.14891 -0.289574 0
M  V30 53691 H 4976.06 3.45418 1.40501 0
M  V30 53692 N 4978.24 0.101957 1.5727 0
M  V30 53693 C 4979.47 -0.571689 1.99365 0
M  V30 53694 C 4979.89 -1.60504 0.980824 0
M  V30 53695 O 4979.25 -1.81232 -0.049788 0
M  V30 53696 C 4979.3 -1.18984 3.40405 0
M  V30 53697 O 4978.4 -2.3056 3.4193 0
M  V30 53698 H 4977.74 -0.144426 0.648103 0
M  V30 53699 H 4980.27 0.185396 2.03758 0
M  V30 53700 H 4980.28 -1.52949 3.78247 0
M  V30 53701 H 4978.96 -0.432838 4.13642 0
M  V30 53702 H 4977.53 -1.98162 3.1589 0
M  V30 53703 N 4979.72 -1.56661 -0.171765 0
M  V30 53704 C 4980.94 -1.86463 -0.9081 0
M  V30 53705 C 4981.37 -0.688243 -1.75057 0
M  V30 53706 O 4980.73 0.36269 -1.77635 0
M  V30 53707 C 4980.77 -3.14676 -1.76101 0
M  V30 53708 O 4979.88 -2.96868 -2.86258 0
M  V30 53709 H 4979.22 -0.613327 -0.254412 0
M  V30 53710 H 4981.75 -2.03892 -0.170041 0
M  V30 53711 H 4981.76 -3.46069 -2.16103 0
M  V30 53712 H 4980.43 -3.99909 -1.14219 0
M  V30 53713 H 4979.01 -2.76827 -2.49842 0
M  V30 53714 N 4981.2 0.440304 -1.51324 0
M  V30 53715 C 4982.42 1.2171 -1.67933 0
M  V30 53716 C 4982.85 1.84326 -0.374891 0
M  V30 53717 O 4982.2 1.68678 0.664647 0
M  V30 53718 C 4982.25 2.27904 -2.7945 0
M  V30 53719 O 4981.36 3.33316 -2.42846 0
M  V30 53720 H 4980.7 0.35672 -0.560042 0
M  V30 53721 H 4983.23 0.520347 -1.97873 0
M  V30 53722 H 4983.24 2.72735 -3.03446 0
M  V30 53723 H 4981.91 1.81706 -3.74106 0
M  V30 53724 H 4980.49 2.93982 -2.2941 0
M  V30 53725 N 4982.68 1.41421 0.695553 0
M  V30 53726 C 4983.9 1.44334 1.48937 0
M  V30 53727 C 4984.33 0.050224 1.88033 0
M  V30 53728 O 4983.68 -0.946544 1.54629 0
M  V30 53729 C 4983.73 2.3579 2.72829 0
M  V30 53730 O 4982.84 1.81495 3.70315 0
M  V30 53731 H 4982.18 0.489854 0.448263 0
M  V30 53732 H 4984.71 1.85881 0.854949 0
M  V30 53733 H 4984.72 2.51665 3.21137 0
M  V30 53734 H 4983.39 3.37014 2.4371 0
M  V30 53735 H 4981.97 1.7507 3.29249 0
M  V30 53736 N 4984.15 -0.929811 1.27249 0
M  V30 53737 C 4985.4 -1.67976 1.13631 0
M  V30 53738 C 4985.73 -1.91587 -0.317522 0
M  V30 53739 O 4985.01 -1.50472 -1.23242 0
M  V30 53740 C 4985.29 -3.04759 1.91817 0
M  V30 53741 C 4985.14 -2.88403 3.45172 0
M  V30 53742 C 4986.46 -4.05057 1.72096 0
M  V30 53743 H 4983.58 -0.609617 0.414169 0
M  V30 53744 H 4986.22 -1.07914 1.56379 0
M  V30 53745 H 4984.37 -3.56028 1.55487 0
M  V30 53746 H 4986.05 -2.44268 3.91319 0
M  V30 53747 H 4984.29 -2.23789 3.71619 0
M  V30 53748 H 4984.96 -3.85468 3.95118 0
M  V30 53749 H 4987.44 -3.62791 2.03769 0
M  V30 53750 H 4986.31 -4.98757 2.292 0
M  V30 53751 H 4986.57 -4.37019 0.668359 0
M  V30 53752 N 4985.63 -1.09237 -1.13601 0
M  V30 53753 C 4986.88 -0.822115 -1.84185 0
M  V30 53754 C 4987.19 0.654483 -1.84325 0
M  V30 53755 O 4988.4 1.0402 -2.50783 0
M  V30 53756 C 4986.86 -1.42077 -3.30669 0
M  V30 53757 C 4986.46 -2.92977 -3.38922 0
M  V30 53758 C 4988.21 -1.22938 -4.06308 0
M  V30 53759 C 4986.11 -3.45939 -4.79667 0
M  V30 53760 H 4985.04 -0.303879 -0.690053 0
M  V30 53761 H 4987.7 -1.31483 -1.28001 0
M  V30 53762 H 4986.08 -0.855749 -3.86643 0
M  V30 53763 H 4987.25 -3.55689 -2.92954 0
M  V30 53764 H 4985.57 -3.11128 -2.76746 0
M  V30 53765 H 4988.16 -1.59963 -5.10212 0
M  V30 53766 H 4988.51 -0.169872 -4.15953 0
M  V30 53767 H 4989.04 -1.76181 -3.56658 0
M  V30 53768 H 4985.78 -4.51501 -4.75213 0
M  V30 53769 H 4985.3 -2.87989 -5.26139 0
M  V30 53770 H 4986.98 -3.43028 -5.4858 0
M  V30 53771 N 4987.11 1.30792 -0.879276 0
M  V30 53772 C 4988.39 1.91143 -0.415153 0
M  V30 53773 C 4988.77 1.79954 1.10362 0
M  V30 53774 O 4988.11 1.21312 1.93638 0
M  V30 53775 C 4988.32 3.37011 -0.906897 0
M  V30 53776 C 4989.67 4.14098 -0.938503 0
M  V30 53777 O 4990.7 3.45831 -0.853175 0
M  V30 53778 O 4989.56 5.3605 -1.06361 0
M  V30 53779 H 4986.65 0.817355 -0.125934 0
M  V30 53780 H 4989.2 1.39398 -0.967802 0
M  V30 53781 H 4987.97 3.39213 -1.95065 0
M  V30 53782 H 4987.59 3.96202 -0.333088 0
M  V30 53783 N 4988.59 0.639649 1.44036 0
M  V30 53784 C 4989.55 -0.0505823 2.29144 0
M  V30 53785 C 4990.55 -0.763951 1.41494 0
M  V30 53786 O 4991.74 -0.607251 1.63273 0
M  V30 53787 C 4988.87 -1.08229 3.23264 0
M  V30 53788 H 4990.07 0.698089 2.91662 0
M  V30 53789 H 4987.62 0.400199 1.5109 0
M  V30 53790 H 4988.35 -1.86065 2.65613 0
M  V30 53791 H 4988.14 -0.574588 3.87867 0
M  V30 53792 H 4989.63 -1.56474 3.87177 0
M  V30 53793 N 4990.07 -1.52932 0.380717 0
M  V30 53794 C 4991 -2.29119 -0.450187 0
M  V30 53795 C 4991.98 -1.32157 -1.07092 0
M  V30 53796 O 4993.16 -1.61042 -1.08531 0
M  V30 53797 C 4990.29 -3.09166 -1.5822 0
M  V30 53798 C 4989.25 -4.13942 -1.08795 0
M  V30 53799 C 4988.57 -4.82161 -2.31138 0
M  V30 53800 C 4989.87 -5.22049 -0.161963 0
M  V30 53801 H 4991.57 -2.98825 0.185466 0
M  V30 53802 H 4989.11 -1.43714 0.0906391 0
M  V30 53803 H 4991.06 -3.61218 -2.17023 0
M  V30 53804 H 4989.79 -2.37178 -2.24531 0
M  V30 53805 H 4988.45 -3.62857 -0.522506 0
M  V30 53806 H 4988.1 -4.0673 -2.95939 0
M  V30 53807 H 4987.8 -5.52973 -1.98732 0
M  V30 53808 H 4989.32 -5.37014 -2.90599 0
M  V30 53809 H 4990.73 -5.69512 -0.657925 0
M  V30 53810 H 4989.13 -6.00057 0.0719231 0
M  V30 53811 H 4990.2 -4.78395 0.791607 0
M  V30 53812 N 4991.54 -0.110296 -1.57214 0
M  V30 53813 C 4992.48 0.873423 -2.11906 0
M  V30 53814 C 4993.49 1.23585 -1.05975 0
M  V30 53815 O 4994.68 1.18631 -1.33375 0
M  V30 53816 C 4991.78 2.17796 -2.5965 0
M  V30 53817 C 4990.95 1.98856 -3.89583 0
M  V30 53818 C 4990.01 3.12959 -4.23017 0
M  V30 53819 O 4989.04 2.86254 -4.91983 0
M  V30 53820 N 4990.24 4.39153 -3.79637 0
M  V30 53821 H 4993 0.406213 -2.96934 0
M  V30 53822 H 4990.56 0.0743801 -1.61729 0
M  V30 53823 H 4992.56 2.93107 -2.79052 0
M  V30 53824 H 4991.13 2.55892 -1.79549 0
M  V30 53825 H 4990.35 1.07787 -3.79178 0
M  V30 53826 H 4991.63 1.83496 -4.7456 0
M  V30 53827 H 4991.03 4.63727 -3.23996 0
M  V30 53828 H 4989.59 5.11365 -4.04165 0
M  V30 53829 N 4993.02 1.5675 0.163455 0
M  V30 53830 C 4994.25 1.8631 0.892871 0
M  V30 53831 C 4994.66 0.694562 1.7599 0
M  V30 53832 O 4994 -0.34532 1.80425 0
M  V30 53833 C 4994.06 3.10379 1.81399 0
M  V30 53834 C 4993.73 4.42917 1.12577 0
M  V30 53835 C 4994.73 5.1761 0.487479 0
M  V30 53836 C 4992.41 4.8965 1.12018 0
M  V30 53837 C 4994.4 6.3723 -0.147214 0
M  V30 53838 C 4992.09 6.09199 0.481669 0
M  V30 53839 C 4993.09 6.82833 -0.150918 0
M  V30 53840 O 4992.78 8.00113 -0.779346 0
M  V30 53841 H 4992.51 0.622135 0.26443 0
M  V30 53842 H 4995.06 2.04728 0.165991 0
M  V30 53843 H 4993.29 2.87926 2.58138 0
M  V30 53844 H 4994.98 3.2632 2.41392 0
M  V30 53845 H 4995.75 4.82582 0.483718 0
M  V30 53846 H 4991.63 4.32271 1.60197 0
M  V30 53847 H 4995.17 6.94644 -0.641569 0
M  V30 53848 H 4991.07 6.4369 0.48304 0
M  V30 53849 H 4991.84 8.15676 -0.679376 0
M  V30 53850 N 4994.5 -0.432272 1.51556 0
M  V30 53851 C 4995.45 -1.52506 1.73236 0
M  V30 53852 C 4996.42 -1.55861 0.574155 0
M  V30 53853 O 4997.6 -1.72793 0.809153 0
M  V30 53854 C 4994.74 -2.90176 1.86793 0
M  V30 53855 C 4993.85 -2.96311 3.14363 0
M  V30 53856 C 4992.99 -4.25135 3.18486 0
M  V30 53857 C 4992.03 -4.25157 4.4035 0
M  V30 53858 N 4991.17 -5.45514 4.41994 0
M  V30 53859 H 4996.01 -1.33322 2.66513 0
M  V30 53860 H 4993.54 -0.647566 1.32079 0
M  V30 53861 H 4995.5 -3.70064 1.92636 0
M  V30 53862 H 4994.13 -3.07907 0.969195 0
M  V30 53863 H 4993.18 -2.09055 3.17805 0
M  V30 53864 H 4994.49 -2.92188 4.04261 0
M  V30 53865 H 4993.65 -5.134 3.23273 0
M  V30 53866 H 4992.39 -4.31921 2.26485 0
M  V30 53867 H 4991.39 -3.35284 4.35734 0
M  V30 53868 H 4992.62 -4.2003 5.33621 0
M  V30 53869 H 4990.56 -5.53011 3.52866 0
M  V30 53870 H 4990.48 -5.43292 5.25709 0
M  V30 53871 H 4991.75 -6.35796 4.5098 0
M  V30 53872 N 4995.98 -1.41788 -0.688044 0
M  V30 53873 C 4996.91 -1.47006 -1.81415 0
M  V30 53874 C 4997.89 -0.32794 -1.66909 0
M  V30 53875 O 4999.07 -0.540428 -1.86529 0
M  V30 53876 C 4996.2 -1.35887 -3.19612 0
M  V30 53877 C 4995.16 -2.47988 -3.48835 0
M  V30 53878 C 4994.48 -2.21932 -4.86467 0
M  V30 53879 C 4995.78 -3.90321 -3.47055 0
M  V30 53880 H 4997.48 -2.41253 -1.77305 0
M  V30 53881 H 4995.02 -1.16119 -0.851611 0
M  V30 53882 H 4996.98 -1.38148 -3.98112 0
M  V30 53883 H 4995.7 -0.381274 -3.24367 0
M  V30 53884 H 4994.36 -2.45022 -2.7269 0
M  V30 53885 H 4994.01 -1.22497 -4.87856 0
M  V30 53886 H 4993.71 -2.97055 -5.06983 0
M  V30 53887 H 4995.23 -2.25921 -5.67267 0
M  V30 53888 H 4996.65 -3.94962 -4.15546 0
M  V30 53889 H 4995.04 -4.65188 -3.79104 0
M  V30 53890 H 4996.11 -4.17936 -2.45881 0
M  V30 53891 N 4997.46 0.92305 -1.2774 0
M  V30 53892 C 4998.37 2.05761 -1.12692 0
M  V30 53893 C 4999.38 1.73911 -0.0557808 0
M  V30 53894 O 5000.56 1.99673 -0.263207 0
M  V30 53895 C 4997.62 3.37801 -0.780482 0
M  V30 53896 C 4996.68 3.8332 -1.93299 0
M  V30 53897 C 4995.92 5.09058 -1.60299 0
M  V30 53898 O 4996.14 5.68088 -0.513028 0
M  V30 53899 O 4995.07 5.50062 -2.44366 0
M  V30 53900 H 4998.9 2.21371 -2.07915 0
M  V30 53901 H 4996.49 1.04295 -1.06971 0
M  V30 53902 H 4998.37 4.17095 -0.600815 0
M  V30 53903 H 4997.04 3.23388 0.142177 0
M  V30 53904 H 4995.95 3.04892 -2.16775 0
M  V30 53905 H 4997.28 4.02282 -2.83602 0
M  V30 53906 N 4998.93 1.09838 1.1302 0
M  V30 53907 C 5000.18 0.835362 1.84028 0
M  V30 53908 C 5000.5 -0.640879 1.84168 0
M  V30 53909 O 4999.77 -1.46512 1.30043 0
M  V30 53910 H 4998.35 0.306042 0.68143 0
M  V30 53911 H 5001.02 1.38738 1.36886 0
M  V30 53912 H 5000.11 1.19268 2.88412 0
M  V30 53913 N 5000.41 -1.30324 0.8862 0
M  V30 53914 C 5001.64 -2.00252 0.520246 0
M  V30 53915 C 5002.06 -1.66422 -0.891579 0
M  V30 53916 O 5001.41 -0.902007 -1.58651 0
M  V30 53917 C 5001.46 -3.54914 0.6869 0
M  V30 53918 O 5001.18 -3.8754 2.04314 0
M  V30 53919 C 5002.69 -4.42114 0.3241 0
M  V30 53920 H 4999.91 -0.640197 0.200969 0
M  V30 53921 H 5002.45 -1.66179 1.19184 0
M  V30 53922 H 5000.6 -3.87349 0.0626635 0
M  V30 53923 H 5001.02 -4.82239 2.06266 0
M  V30 53924 H 5002.49 -5.49807 0.4916 0
M  V30 53925 H 5002.97 -4.32956 -0.737957 0
M  V30 53926 H 5003.58 -4.15126 0.924711 0
M  V30 53927 N 5001.89 -0.647279 -1.43694 0
M  V30 53928 C 5003.12 -0.165823 -2.06234 0
M  V30 53929 C 5003.53 1.16615 -1.4848 0
M  V30 53930 O 5002.89 1.71868 -0.613822 0
M  V30 53931 C 5002.94 -0.0622921 -3.61446 0
M  V30 53932 O 5002.66 -1.3416 -4.17052 0
M  V30 53933 C 5004.16 0.445947 -4.41051 0
M  V30 53934 H 5001.38 -0.0871391 -0.665318 0
M  V30 53935 H 5003.93 -0.886248 -1.84298 0
M  V30 53936 H 5002.08 0.608659 -3.82589 0
M  V30 53937 H 5002.5 -1.19693 -5.1066 0
M  V30 53938 H 5003.97 0.467357 -5.50018 0
M  V30 53939 H 5004.45 1.47613 -4.13651 0
M  V30 53940 H 5005.05 -0.192308 -4.24865 0
M  V30 53941 N 5003.37 1.52728 -0.388822 0
M  V30 53942 C 5004.78 1.59553 -0.038761 0
M  V30 53943 C 5004.98 1.40284 1.44647 0
M  V30 53944 O 5004.04 1.21959 2.21093 0
M  V30 53945 C 5005.35 2.96248 -0.515513 0
M  V30 53946 C 5006.9 3.09425 -0.471729 0
M  V30 53947 C 5007.38 4.48569 -0.924663 0
M  V30 53948 N 5008.87 4.54751 -0.880656 0
M  V30 53949 C 5009.6 5.60648 -1.20254 0
M  V30 53950 N 5009.1 6.74193 -1.59486 0
M  V30 53951 N 5010.89 5.50751 -1.12382 0
M  V30 53952 H 5003.04 1.63503 -1.35575 0
M  V30 53953 H 5005.31 0.768078 -0.555663 0
M  V30 53954 H 5005.01 3.15564 -1.55282 0
M  V30 53955 H 5004.89 3.77103 0.0856595 0
M  V30 53956 H 5007.27 2.89806 0.556486 0
M  V30 53957 H 5007.35 2.30524 -1.1087 0
M  V30 53958 H 5007 4.68929 -1.95111 0
M  V30 53959 H 5006.93 5.25934 -0.264709 0
M  V30 53960 H 5009.42 3.73235 -0.591946 0
M  V30 53961 H 5009.73 7.50963 -1.82412 0
M  V30 53962 H 5008.08 6.75525 -1.63372 0
M  V30 53963 H 5011.27 4.60927 -0.816331 0
M  V30 53964 H 5011.44 6.33179 -1.37799 0
M  V30 53965 N 5004.85 0.118632 1.57153 0
M  V30 53966 C 5005.78 -0.828359 2.18313 0
M  V30 53967 C 5006.76 -1.27754 1.12307 0
M  V30 53968 O 5007.94 -1.34021 1.40542 0
M  V30 53969 C 5005.07 -2.07867 2.78224 0
M  V30 53970 C 5004.03 -1.76729 3.89809 0
M  V30 53971 C 5003.35 -3.08786 4.36527 0
M  V30 53972 C 5004.65 -1.03588 5.11925 0
M  V30 53973 H 5006.35 -0.31872 2.97699 0
M  V30 53974 H 5003.89 -0.15186 1.43197 0
M  V30 53975 H 5005.85 -2.74572 3.19668 0
M  V30 53976 H 5004.57 -2.61154 1.96127 0
M  V30 53977 H 5003.23 -1.12412 3.4894 0
M  V30 53978 H 5002.88 -3.60007 3.51289 0
M  V30 53979 H 5002.58 -2.88725 5.11773 0
M  V30 53980 H 5004.1 -3.7661 4.80621 0
M  V30 53981 H 5005.51 -1.60447 5.5039 0
M  V30 53982 H 5003.91 -0.936246 5.92752 0
M  V30 53983 H 5004.98 -0.0225716 4.84895 0
M  V30 53984 N 5006.32 -1.56835 -0.15514 0
M  V30 53985 C 5007.55 -1.87052 -0.88426 0
M  V30 53986 C 5007.97 -0.705901 -1.75107 0
M  V30 53987 O 5007.32 0.324578 -1.7959 0
M  V30 53988 C 5007.38 -3.16446 -1.74769 0
M  V30 53989 O 5007.1 -4.28421 -0.915828 0
M  V30 53990 C 5008.6 -3.60122 -2.5851 0
M  V30 53991 H 5005.82 -0.620205 -0.256098 0
M  V30 53992 H 5008.36 -2.03946 -0.150373 0
M  V30 53993 H 5006.52 -3.01329 -2.43473 0
M  V30 53994 H 5006.93 -5.02359 -1.50785 0
M  V30 53995 H 5008.4 -4.53519 -3.14682 0
M  V30 53996 H 5008.88 -2.85017 -3.34159 0
M  V30 53997 H 5009.49 -3.77905 -1.9511 0
M  V30 53998 N 5007.8 0.424229 -1.51783 0
M  V30 53999 C 5009.22 0.761719 -1.4025 0
M  V30 54000 C 5009.42 1.95323 -0.49511 0
M  V30 54001 O 5008.47 2.5246 0.0448062 0
M  V30 54002 C 5009.79 1.0298 -2.82517 0
M  V30 54003 C 5011.34 1.13344 -2.91757 0
M  V30 54004 C 5011.81 1.43438 -4.34959 0
M  V30 54005 N 5013.3 1.50334 -4.38125 0
M  V30 54006 C 5014.04 1.75217 -5.45973 0
M  V30 54007 N 5013.53 1.97804 -6.63962 0
M  V30 54008 N 5015.33 1.77107 -5.33469 0
M  V30 54009 H 5007.48 -0.360301 -2.09322 0
M  V30 54010 H 5009.74 -0.0988459 -0.942833 0
M  V30 54011 H 5009.45 0.226838 -3.50968 0
M  V30 54012 H 5009.32 1.954 -3.22643 0
M  V30 54013 H 5011.71 1.92701 -2.23496 0
M  V30 54014 H 5011.79 0.187952 -2.55109 0
M  V30 54015 H 5011.43 0.646032 -5.03775 0
M  V30 54016 H 5011.36 2.39214 -4.69131 0
M  V30 54017 H 5013.85 1.3473 -3.53067 0
M  V30 54018 H 5014.17 2.16197 -7.41942 0
M  V30 54019 H 5012.51 1.95099 -6.67054 0
M  V30 54020 H 5015.7 1.58989 -4.40273 0
M  V30 54021 H 5015.87 1.96161 -6.17596 0
M  V30 54022 N 5009.28 1.4215 0.680515 0
M  V30 54023 C 5010.23 1.45181 1.79419 0
M  V30 54024 C 5011.2 0.304409 1.63287 0
M  V30 54025 O 5012.38 0.507655 1.83923 0
M  V30 54026 C 5009.52 1.3544 3.17412 0
M  V30 54027 C 5008.64 2.6017 3.4487 0
M  V30 54028 C 5007.77 2.42612 4.7256 0
M  V30 54029 C 5006.81 3.62744 4.93035 0
M  V30 54030 N 5005.95 3.44164 6.1196 0
M  V30 54031 H 5010.79 2.40355 1.76163 0
M  V30 54032 H 5008.32 1.19337 0.860065 0
M  V30 54033 H 5010.28 1.27791 3.97146 0
M  V30 54034 H 5008.91 0.438649 3.19806 0
M  V30 54035 H 5007.96 2.78208 2.59431 0
M  V30 54036 H 5009.28 3.49485 3.55896 0
M  V30 54037 H 5008.43 2.32517 5.60376 0
M  V30 54038 H 5007.17 1.50778 4.63807 0
M  V30 54039 H 5006.17 3.73278 4.03663 0
M  V30 54040 H 5007.4 4.55552 5.03636 0
M  V30 54041 H 5005.34 2.55042 6.04392 0
M  V30 54042 H 5005.26 4.27063 6.23821 0
M  V30 54043 H 5006.53 3.37869 7.0247 0
M  V30 54044 N 5010.76 -0.916262 1.28228 0
M  V30 54045 C 5012.17 -1.19422 1.0588 0
M  V30 54046 C 5012.37 -2.00501 -0.200429 0
M  V30 54047 O 5011.43 -2.35809 -0.902791 0
M  V30 54048 C 5012.74 -1.93124 2.30485 0
M  V30 54049 C 5014.29 -2.06018 2.35639 0
M  V30 54050 C 5014.77 -2.83128 3.60003 0
M  V30 54051 N 5016.26 -2.90691 3.60629 0
M  V30 54052 C 5016.99 -3.50849 4.53533 0
M  V30 54053 N 5016.49 -4.12307 5.56754 0
M  V30 54054 N 5018.28 -3.48364 4.41134 0
M  V30 54055 H 5010.43 -0.374886 2.09065 0
M  V30 54056 H 5012.7 -0.228499 0.92005 0
M  V30 54057 H 5012.4 -1.40974 3.2221 0
M  V30 54058 H 5012.28 -2.93687 2.36701 0
M  V30 54059 H 5014.66 -2.5735 1.44413 0
M  V30 54060 H 5014.74 -1.04639 2.33419 0
M  V30 54061 H 5014.39 -2.32476 4.51572 0
M  V30 54062 H 5014.32 -3.84816 3.59477 0
M  V30 54063 H 5016.81 -2.47024 2.85986 0
M  V30 54064 H 5017.12 -4.56183 6.23792 0
M  V30 54065 H 5015.47 -4.10819 5.60583 0
M  V30 54066 H 5018.66 -2.99559 3.59697 0
M  V30 54067 H 5018.83 -3.94956 5.13725 0
M  V30 54068 N 5012.24 -1.10435 -1.12436 0
M  V30 54069 C 5013.49 -0.845109 -1.83582 0
M  V30 54070 C 5013.81 0.631103 -1.84505 0
M  V30 54071 O 5013.08 1.4582 -1.30818 0
M  V30 54072 H 5011.66 -0.309652 -0.679798 0
M  V30 54073 H 5014.32 -1.39462 -1.36148 0
M  V30 54074 H 5013.41 -1.20796 -2.87775 0
M  V30 54075 N 5013.72 1.29852 -0.893099 0
M  V30 54076 C 5014.65 2.30349 -0.38233 0
M  V30 54077 C 5015.63 1.6133 0.539146 0
M  V30 54078 O 5016.81 1.88884 0.451276 0
M  V30 54079 C 5013.94 3.45025 0.396861 0
M  V30 54080 C 5012.9 4.25798 -0.433587 0
M  V30 54081 C 5012.22 5.32606 0.472702 0
M  V30 54082 C 5013.52 4.94543 -1.68002 0
M  V30 54083 H 5015.22 2.7332 -1.22215 0
M  V30 54084 H 5012.76 1.31398 -0.58912 0
M  V30 54085 H 5014.71 4.144 0.764879 0
M  V30 54086 H 5013.44 3.00879 1.2704 0
M  V30 54087 H 5012.1 3.58122 -0.783848 0
M  V30 54088 H 5011.75 4.84707 1.34418 0
M  V30 54089 H 5011.45 5.87547 -0.0792023 0
M  V30 54090 H 5012.97 6.04835 0.837057 0
M  V30 54091 H 5014.38 5.56391 -1.38212 0
M  V30 54092 H 5012.78 5.59386 -2.17274 0
M  V30 54093 H 5013.85 4.20207 -2.4198 0
M  V30 54094 N 5015.19 0.65489 1.43349 0
M  V30 54095 C 5016.14 -0.0356902 2.30772 0
M  V30 54096 C 5017.11 -0.812984 1.44844 0
M  V30 54097 O 5018.3 -0.789253 1.73711 0
M  V30 54098 C 5015.44 -0.994967 3.30446 0
M  V30 54099 C 5014.55 -0.213599 4.31472 0
M  V30 54100 C 5013.68 -1.16683 5.18226 0
M  V30 54101 C 5012.72 -0.375986 6.10944 0
M  V30 54102 N 5011.86 -1.28089 6.90317 0
M  V30 54103 H 5016.7 0.715691 2.89278 0
M  V30 54104 H 5014.24 0.364695 1.42508 0
M  V30 54105 H 5016.19 -1.56476 3.86744 0
M  V30 54106 H 5014.82 -1.7132 2.73586 0
M  V30 54107 H 5013.88 0.47251 3.77454 0
M  V30 54108 H 5015.19 0.401278 4.97183 0
M  V30 54109 H 5014.34 -1.8072 5.79159 0
M  V30 54110 H 5013.08 -1.81561 4.52644 0
M  V30 54111 H 5012.09 0.277727 5.49098 0
M  V30 54112 H 5013.31 0.268417 6.78569 0
M  V30 54113 H 5011.26 -1.91644 6.27382 0
M  V30 54114 H 5011.17 -0.720614 7.52558 0
M  V30 54115 H 5012.44 -1.90936 7.55754 0
M  V30 54116 N 5016.67 -1.5252 0.396917 0
M  V30 54117 C 5017.6 -2.29584 -0.425861 0
M  V30 54118 C 5018.58 -1.33285 -1.05684 0
M  V30 54119 O 5019.77 -1.62184 -1.06817 0
M  V30 54120 C 5016.9 -3.10827 -1.54932 0
M  V30 54121 C 5015.85 -4.15072 -1.04399 0
M  V30 54122 C 5015.18 -4.84586 -2.26011 0
M  V30 54123 C 5016.48 -5.22191 -0.106583 0
M  V30 54124 H 5018.17 -2.98611 0.21715 0
M  V30 54125 H 5015.72 -1.4361 0.105877 0
M  V30 54126 H 5017.67 -3.635 -2.1318 0
M  V30 54127 H 5016.39 -2.39546 -2.22003 0
M  V30 54128 H 5015.05 -3.63391 -0.483991 0
M  V30 54129 H 5014.7 -4.09846 -2.91609 0
M  V30 54130 H 5014.4 -5.5505 -1.92856 0
M  V30 54131 H 5015.93 -5.40066 -2.84887 0
M  V30 54132 H 5017.34 -5.70178 -0.597484 0
M  V30 54133 H 5015.74 -5.99947 0.135563 0
M  V30 54134 H 5016.81 -4.77528 0.842302 0
M  V30 54135 N 5018.15 -0.126964 -1.57088 0
M  V30 54136 C 5019.11 0.806022 -2.1456 0
M  V30 54137 C 5020.11 1.18914 -1.08241 0
M  V30 54138 O 5021.3 1.11334 -1.33979 0
M  V30 54139 C 5018.43 2.09106 -2.69235 0
M  V30 54140 H 5019.63 0.306417 -2.98331 0
M  V30 54141 H 5017.18 0.122338 -1.5582 0
M  V30 54142 H 5017.92 2.63479 -1.89074 0
M  V30 54143 H 5017.7 1.82575 -3.46999 0
M  V30 54144 H 5019.19 2.75783 -3.13582 0
M  V30 54145 N 5019.63 1.56915 0.14682 0
M  V30 54146 C 5020.86 1.87518 0.874328 0
M  V30 54147 C 5021.27 0.715177 1.7473 0
M  V30 54148 O 5020.63 -0.31505 1.7976 0
M  V30 54149 C 5020.68 3.17368 1.73089 0
M  V30 54150 O 5020.4 4.289 0.893094 0
M  V30 54151 C 5021.9 3.61488 2.56596 0
M  V30 54152 H 5019.12 0.621555 0.252806 0
M  V30 54153 H 5021.66 2.04023 0.139555 0
M  V30 54154 H 5019.82 3.02616 2.41872 0
M  V30 54155 H 5020.23 5.03151 1.48119 0
M  V30 54156 H 5021.71 4.55181 3.12273 0
M  V30 54157 H 5022.18 2.86785 3.32642 0
M  V30 54158 H 5022.79 3.78934 1.93104 0
M  V30 54159 N 5021.11 -0.416173 1.52006 0
M  V30 54160 C 5022.07 -1.4892 1.74228 0
M  V30 54161 C 5023.07 -1.48691 0.612172 0
M  V30 54162 O 5024.26 -1.5034 0.879974 0
M  V30 54163 C 5021.39 -2.88365 1.81819 0
M  V30 54164 H 5022.58 -1.30511 2.70013 0
M  V30 54165 H 5020.14 -0.646221 1.42315 0
M  V30 54166 H 5020.87 -3.12153 0.879245 0
M  V30 54167 H 5020.66 -2.89935 2.6397 0
M  V30 54168 H 5022.15 -3.66166 2.00779 0
M  V30 54169 N 5022.58 -1.42509 -0.672966 0
M  V30 54170 C 5023.51 -1.48922 -1.79846 0
M  V30 54171 C 5024.49 -0.345624 -1.66552 0
M  V30 54172 O 5025.68 -0.560181 -1.85945 0
M  V30 54173 C 5022.81 -1.39269 -3.18153 0
M  V30 54174 C 5021.76 -2.51674 -3.46185 0
M  V30 54175 C 5021.09 -2.27079 -4.84086 0
M  V30 54176 C 5022.39 -3.9398 -3.42895 0
M  V30 54177 H 5024.08 -2.4312 -1.74737 0
M  V30 54178 H 5021.63 -1.17016 -0.839247 0
M  V30 54179 H 5023.58 -1.42363 -3.96624 0
M  V30 54180 H 5022.31 -0.415656 -3.23944 0
M  V30 54181 H 5020.97 -2.47901 -2.70076 0
M  V30 54182 H 5020.61 -1.27665 -4.86529 0
M  V30 54183 H 5020.31 -3.02416 -5.03804 0
M  V30 54184 H 5021.84 -2.31925 -5.64839 0
M  V30 54185 H 5023.25 -3.99347 -4.11333 0
M  V30 54186 H 5021.65 -4.69183 -3.74149 0
M  V30 54187 H 5022.72 -4.2052 -2.41435 0
M  V30 54188 N 5024.06 0.909449 -1.28712 0
M  V30 54189 C 5025.29 1.69796 -1.19096 0
M  V30 54190 C 5025.71 1.8648 0.246322 0
M  V30 54191 O 5025.07 1.37806 1.1781 0
M  V30 54192 C 5025.12 3.06537 -1.89915 0
M  V30 54193 O 5024.22 3.94264 -1.20954 0
M  V30 54194 H 5023.56 0.519768 -0.413203 0
M  V30 54195 H 5026.09 1.13683 -1.7011 0
M  V30 54196 H 5026.1 3.56741 -1.97989 0
M  V30 54197 H 5024.78 2.93711 -2.94459 0
M  V30 54198 H 5023.35 3.52698 -1.21072 0
M  V30 54199 N 5025.54 1.1103 1.11848 0
M  V30 54200 C 5026.47 0.78689 2.19842 0
M  V30 54201 C 5027.45 -0.242876 1.68357 0
M  V30 54202 O 5028.64 -0.107287 1.93903 0
M  V30 54203 C 5025.77 0.224638 3.46573 0
M  V30 54204 C 5024.72 1.18579 4.11246 0
M  V30 54205 C 5024.05 0.484448 5.32501 0
M  V30 54206 C 5025.35 2.53481 4.56667 0
M  V30 54207 H 5027.04 1.68986 2.47152 0
M  V30 54208 H 5024.59 0.813948 1.18789 0
M  V30 54209 H 5026.54 -0.0137953 4.21398 0
M  V30 54210 H 5025.26 -0.71361 3.18709 0
M  V30 54211 H 5023.92 1.40978 3.38409 0
M  V30 54212 H 5023.57 -0.458469 5.00906 0
M  V30 54213 H 5023.27 1.12546 5.76721 0
M  V30 54214 H 5024.79 0.254707 6.10069 0
M  V30 54215 H 5026.21 2.35195 5.22835 0
M  V30 54216 H 5024.6 3.13525 5.11686 0
M  V30 54217 H 5025.67 3.13021 3.70332 0
M  V30 54218 N 5027.02 -1.29376 0.899973 0
M  V30 54219 C 5028.24 -2.00226 0.540763 0
M  V30 54220 C 5028.67 -1.66912 -0.867301 0
M  V30 54221 O 5028.03 -0.893879 -1.57732 0
M  V30 54222 C 5028.07 -3.52918 0.740356 0
M  V30 54223 O 5027.18 -4.1188 -0.207009 0
M  V30 54224 H 5026.52 -0.629498 0.211255 0
M  V30 54225 H 5029.05 -1.64865 1.21164 0
M  V30 54226 H 5029.06 -4.02868 0.645114 0
M  V30 54227 H 5027.73 -3.76502 1.7669 0
M  V30 54228 H 5026.31 -3.72845 -0.0642004 0
M  V30 54229 N 5028.5 -0.662483 -1.43 0
M  V30 54230 C 5029.44 0.0352632 -2.32573 0
M  V30 54231 C 5030.44 0.803453 -1.49134 0
M  V30 54232 O 5031.64 0.712807 -1.65285 0
M  V30 54233 H 5028.02 0.030193 -0.751394 0
M  V30 54234 H 5029.99 -0.737788 -2.89135 0
M  V30 54235 C 5028.74 0.981458 -3.33561 0
M  V30 54236 H 5028.06 0.399775 -3.97796 0
M  V30 54237 H 5029.5 1.43859 -3.98849 0
M  V30 54238 C 5027.96 2.08195 -2.64871 0
M  V30 54239 O 5028.49 3.1669 -2.47124 0
M  V30 54240 N 5026.7 1.85014 -2.24094 0
M  V30 54241 H 5026.24 0.967825 -2.38728 0
M  V30 54242 H 5026.2 2.58838 -1.78466 0
M  V30 54243 N 5029.97 1.52307 -0.404999 0
M  V30 54244 C 5030.92 2.269 0.422517 0
M  V30 54245 C 5031.89 1.29144 1.04456 0
M  V30 54246 O 5033.08 1.58 1.06962 0
M  V30 54247 C 5030.22 3.09058 1.53548 0
M  V30 54248 C 5029.33 4.21766 0.93476 0
M  V30 54249 C 5028.46 4.91291 2.02008 0
M  V30 54250 C 5027.5 5.95967 1.39607 0
M  V30 54251 N 5026.64 6.59025 2.42136 0
M  V30 54252 H 5031.48 2.97187 -0.220008 0
M  V30 54253 H 5029.02 1.46607 -0.120333 0
M  V30 54254 H 5030.98 3.54994 2.19168 0
M  V30 54255 H 5029.61 2.4095 2.14809 0
M  V30 54256 H 5028.66 3.8003 0.16772 0
M  V30 54257 H 5029.97 4.96865 0.438898 0
M  V30 54258 H 5029.12 5.40611 2.75363 0
M  V30 54259 H 5027.86 4.1575 2.54958 0
M  V30 54260 H 5026.87 5.4597 0.647831 0
M  V30 54261 H 5028.09 6.73448 0.874317 0
M  V30 54262 H 5026.04 5.86316 2.94227 0
M  V30 54263 H 5025.96 7.29787 1.9735 0
M  V30 54264 H 5027.22 7.12986 3.15074 0
M  V30 54265 N 5031.45 0.135293 1.57018 0
M  V30 54266 C 5032.7 -0.518726 1.95743 0
M  V30 54267 C 5033.03 -1.65638 1.01952 0
M  V30 54268 O 5032.28 -1.95645 0.0464703 0
M  V30 54269 C 5032.58 -1.07682 3.40792 0
M  V30 54270 C 5032.25 -0.0588335 4.50862 0
M  V30 54271 C 5030.91 0.221041 4.80692 0
M  V30 54272 C 5033.26 0.634037 5.17329 0
M  V30 54273 C 5030.59 1.19979 5.74301 0
M  V30 54274 C 5032.94 1.60153 6.11992 0
M  V30 54275 C 5031.61 1.88922 6.40207 0
M  V30 54276 H 5030.88 -0.189815 0.716276 0
M  V30 54277 H 5033.52 0.219648 1.90236 0
M  V30 54278 H 5031.83 -1.89229 3.43074 0
M  V30 54279 H 5033.52 -1.59124 3.68077 0
M  V30 54280 H 5030.11 -0.287154 4.27637 0
M  V30 54281 H 5034.3 0.430997 4.94425 0
M  V30 54282 H 5029.55 1.42926 5.9446 0
M  V30 54283 H 5033.73 2.14399 6.62575 0
M  V30 54284 H 5031.36 2.64916 7.12547 0
M  V30 54285 N 5032.93 -1.5699 -0.138497 0
M  V30 54286 C 5034.18 -1.84084 -0.850926 0
M  V30 54287 C 5034.51 -0.718171 -1.80433 0
M  V30 54288 O 5033.78 0.277565 -1.92509 0
M  V30 54289 C 5034.07 -3.21705 -1.61796 0
M  V30 54290 C 5033.92 -4.44546 -0.685477 0
M  V30 54291 C 5035.24 -3.56649 -2.57855 0
M  V30 54292 H 5032.36 -0.669603 -0.307898 0
M  V30 54293 H 5035 -1.89647 -0.115813 0
M  V30 54294 H 5033.15 -3.17094 -2.24463 0
M  V30 54295 H 5034.82 -4.61248 -0.0691558 0
M  V30 54296 H 5033.07 -4.338 0.00437243 0
M  V30 54297 H 5033.74 -5.37465 -1.25839 0
M  V30 54298 H 5036.21 -3.61925 -2.05303 0
M  V30 54299 H 5035.09 -4.53957 -3.08568 0
M  V30 54300 H 5035.35 -2.83048 -3.39612 0
M  V30 54301 N 5034.41 0.408106 -1.52224 0
M  V30 54302 C 5035.32 1.52196 -1.78532 0
M  V30 54303 C 5036.33 1.60544 -0.670948 0
M  V30 54304 O 5037.51 1.77239 -0.956467 0
M  V30 54305 C 5034.58 2.87921 -1.93138 0
M  V30 54306 C 5033.64 2.89451 -3.17043 0
M  V30 54307 C 5032.87 4.18703 -3.30943 0
M  V30 54308 O 5033.09 5.12653 -2.50085 0
M  V30 54309 O 5032.03 4.27111 -4.24099 0
M  V30 54310 H 5035.85 1.32901 -2.73077 0
M  V30 54311 H 5033.44 0.594064 -1.37081 0
M  V30 54312 H 5035.32 3.68419 -2.04562 0
M  V30 54313 H 5033.99 3.07282 -1.01782 0
M  V30 54314 H 5032.9 2.07804 -3.11076 0
M  V30 54315 H 5034.23 2.7504 -4.08183 0
M  V30 54316 N 5035.89 1.42864 0.665399 0
M  V30 54317 C 5037.13 1.43551 1.42259 0
M  V30 54318 C 5037.46 0.0563801 1.94918 0
M  V30 54319 O 5036.73 -0.906507 1.73664 0
M  V30 54320 H 5035.31 0.528483 0.527935 0
M  V30 54321 H 5037.97 1.78366 0.785602 0
M  V30 54322 H 5037.06 2.14087 2.27097 0
M  V30 54323 N 5037.36 -0.902611 1.29192 0
M  V30 54324 C 5038.59 -1.69162 1.19995 0
M  V30 54325 C 5039.01 -1.86608 -0.236429 0
M  V30 54326 O 5038.37 -1.38429 -1.17077 0
M  V30 54327 C 5038.42 -3.05525 1.91538 0
M  V30 54328 O 5037.52 -3.93617 1.23043 0
M  V30 54329 H 5036.87 -0.51757 0.415954 0
M  V30 54330 H 5039.4 -1.12779 1.7071 0
M  V30 54331 H 5039.41 -3.55686 1.99879 0
M  V30 54332 H 5038.08 -2.92146 2.96013 0
M  V30 54333 H 5036.66 -3.52051 1.22941 0
M  V30 54334 N 5038.84 -1.11622 -1.11258 0
M  V30 54335 C 5039.79 -0.745349 -2.15473 0
M  V30 54336 C 5040.78 0.25153 -1.58922 0
M  V30 54337 O 5041.97 0.0583471 -1.76904 0
M  V30 54338 C 5039.1 -0.192249 -3.42761 0
M  V30 54339 C 5038.18 -1.21691 -4.06266 0
M  V30 54340 N 5038.57 -2.41174 -4.446 0
M  V30 54341 C 5036.87 -1.06028 -4.33214 0
M  V30 54342 C 5037.57 -3.06538 -4.94378 0
M  V30 54343 N 5036.55 -2.34011 -4.90652 0
M  V30 54344 H 5040.35 -1.6547 -2.42893 0
M  V30 54345 H 5037.87 -0.99574 -1.28292 0
M  V30 54346 H 5039.86 0.0915873 -4.16799 0
M  V30 54347 H 5038.52 0.711666 -3.16805 0
M  V30 54348 H 5039.53 -2.78616 -4.3657 0
M  V30 54349 H 5036.21 -0.212956 -4.16957 0
M  V30 54350 H 5037.6 -4.08243 -5.33654 0
M  V30 54351 N 5040.32 1.28897 -0.906821 0
M  V30 54352 C 5041.27 2.29476 -0.379953 0
M  V30 54353 C 5042.26 1.61069 0.524691 0
M  V30 54354 O 5043.47 1.75345 0.406703 0
M  V30 54355 H 5039.84 0.744738 -0.104256 0
M  V30 54356 H 5041.81 2.71349 -1.24146 0
M  V30 54357 C 5040.56 3.45715 0.371033 0
M  V30 54358 H 5039.89 3.9855 -0.315856 0
M  V30 54359 H 5041.33 4.18107 0.704434 0
M  V30 54360 C 5039.79 2.97746 1.57636 0
M  V30 54361 O 5040.32 2.99627 2.67556 0
M  V30 54362 N 5038.52 2.5349 1.42096 0
M  V30 54363 H 5038.07 2.52158 0.526694 0
M  V30 54364 H 5038.03 2.21754 2.22873 0
M  V30 54365 N 5041.8 0.670057 1.42646 0
M  V30 54366 C 5043.02 0.197027 2.06462 0
M  V30 54367 C 5043.45 -1.13515 1.49987 0
M  V30 54368 O 5042.81 -1.70498 0.616457 0
M  V30 54369 C 5042.86 0.137508 3.60338 0
M  V30 54370 O 5041.96 -0.895381 4.02563 0
M  V30 54371 H 5041.3 0.102602 0.656025 0
M  V30 54372 H 5043.83 0.917733 1.82863 0
M  V30 54373 H 5043.84 -0.0402191 4.0798 0
M  V30 54374 H 5042.52 1.10991 4.00817 0
M  V30 54375 H 5041.09 -0.68908 3.66478 0
M  V30 54376 N 5043.28 -1.5209 0.413071 0
M  V30 54377 C 5044.51 -2.06274 -0.160809 0
M  V30 54378 C 5044.92 -1.28278 -1.38529 0
M  V30 54379 O 5044.28 -0.335693 -1.79386 0
M  V30 54380 C 5044.33 -3.57923 -0.507317 0
M  V30 54381 O 5044.05 -4.32969 0.668541 0
M  V30 54382 C 5045.55 -4.28537 -1.1345 0
M  V30 54383 H 5042.77 -0.670741 -0.0186524 0
M  V30 54384 H 5045.31 -1.95949 0.585161 0
M  V30 54385 H 5043.47 -3.68242 -1.20318 0
M  V30 54386 H 5043.88 -5.23134 0.378353 0
M  V30 54387 H 5045.36 -5.35809 -1.32713 0
M  V30 54388 H 5045.83 -3.85265 -2.10873 0
M  V30 54389 H 5046.44 -4.22597 -0.478728 0
M  V30 54390 N 5044.76 -0.143618 -1.56944 0
M  V30 54391 C 5046 0.509091 -1.96306 0
M  V30 54392 C 5046.33 1.64738 -1.02836 0
M  V30 54393 O 5045.61 1.94374 -0.0701044 0
M  V30 54394 C 5045.89 1.01848 -3.45397 0
M  V30 54395 C 5045.75 -0.118081 -4.49645 0
M  V30 54396 C 5047.06 1.90137 -3.96908 0
M  V30 54397 H 5044.18 0.183583 -0.713769 0
M  V30 54398 H 5046.83 -0.224161 -1.88673 0
M  V30 54399 H 5044.98 1.64333 -3.52033 0
M  V30 54400 H 5046.65 -0.754305 -4.55091 0
M  V30 54401 H 5044.89 -0.777718 -4.26772 0
M  V30 54402 H 5045.56 0.279993 -5.51289 0
M  V30 54403 H 5048.04 1.37486 -3.9273 0
M  V30 54404 H 5046.91 2.22689 -5.01698 0
M  V30 54405 H 5047.17 2.83707 -3.39062 0
M  V30 54406 N 5046.23 1.57062 0.130169 0
M  V30 54407 C 5047.46 1.88805 0.858343 0
M  V30 54408 C 5047.88 0.734414 1.7317 0
M  V30 54409 O 5047.24 -0.315466 1.78534 0
M  V30 54410 C 5047.29 3.19234 1.67696 0
M  V30 54411 O 5046.39 3.04353 2.78286 0
M  V30 54412 H 5045.73 0.619857 0.238061 0
M  V30 54413 H 5048.26 2.04271 0.115923 0
M  V30 54414 H 5048.27 3.51676 2.06852 0
M  V30 54415 H 5046.95 4.02796 1.03576 0
M  V30 54416 H 5045.53 2.83354 2.42415 0
M  V30 54417 N 5047.71 -0.400028 1.52439 0
M  V30 54418 C 5048.64 -1.49464 1.79395 0
M  V30 54419 C 5049.62 -1.57381 0.645385 0
M  V30 54420 O 5050.81 -1.72508 0.891886 0
M  V30 54421 C 5047.94 -2.87194 1.95287 0
M  V30 54422 C 5046.89 -2.94123 3.10927 0
M  V30 54423 C 5046.22 -4.34196 3.12055 0
M  V30 54424 C 5047.52 -2.64775 4.50212 0
M  V30 54425 H 5049.21 -1.27156 2.71057 0
M  V30 54426 H 5046.76 -0.610267 1.30429 0
M  V30 54427 H 5048.71 -3.63765 2.12728 0
M  V30 54428 H 5047.43 -3.10816 1.00305 0
M  V30 54429 H 5046.09 -2.19999 2.93251 0
M  V30 54430 H 5045.74 -4.5484 2.14777 0
M  V30 54431 H 5045.44 -4.39754 3.8973 0
M  V30 54432 H 5046.97 -5.12688 3.31637 0
M  V30 54433 H 5048.38 -3.31066 4.68047 0
M  V30 54434 H 5046.78 -2.81698 5.29874 0
M  V30 54435 H 5047.85 -1.60168 4.57684 0
M  V30 54436 N 5049.19 -1.43215 -0.657814 0
M  V30 54437 C 5050.42 -1.4802 -1.44561 0
M  V30 54438 C 5050.83 -0.0966614 -1.88552 0
M  V30 54439 O 5050.19 0.892165 -1.59206 0
M  V30 54440 C 5050.24 -2.42208 -2.68361 0
M  V30 54441 O 5049.96 -3.75181 -2.2621 0
M  V30 54442 C 5051.46 -2.56207 -3.61763 0
M  V30 54443 H 5048.68 -0.502876 -0.444248 0
M  V30 54444 H 5051.23 -1.8791 -0.806851 0
M  V30 54445 H 5049.38 -2.05526 -3.28387 0
M  V30 54446 H 5049.8 -4.25787 -3.06278 0
M  V30 54447 H 5051.27 -3.26197 -4.45308 0
M  V30 54448 H 5051.75 -1.60548 -4.08804 0
M  V30 54449 H 5052.35 -2.93682 -3.07621 0
M  V30 54450 N 5050.67 0.895746 -1.29669 0
M  V30 54451 C 5051.9 1.67997 -1.20767 0
M  V30 54452 C 5052.31 1.8738 0.231121 0
M  V30 54453 O 5051.67 1.41363 1.15424 0
M  V30 54454 C 5051.72 3.0623 -1.92108 0
M  V30 54455 O 5051.44 2.87728 -3.30369 0
M  V30 54456 C 5052.94 4.00646 -1.89732 0
M  V30 54457 H 5050.16 0.524576 -0.418403 0
M  V30 54458 H 5052.7 1.11989 -1.7111 0
M  V30 54459 H 5050.86 3.59001 -1.45591 0
M  V30 54460 H 5051.27 3.75346 -3.66355 0
M  V30 54461 H 5052.75 4.95043 -2.44207 0
M  V30 54462 H 5053.22 4.30421 -0.873746 0
M  V30 54463 H 5053.83 3.53806 -2.36011 0
M  V30 54464 N 5052.15 1.1221 1.10665 0
M  V30 54465 C 5053.09 0.787793 2.16939 0
M  V30 54466 C 5054.06 -0.244385 1.64292 0
M  V30 54467 O 5055.25 -0.119491 1.90425 0
M  V30 54468 C 5052.39 0.245961 3.44222 0
M  V30 54469 C 5051.5 1.33567 4.10833 0
M  V30 54470 C 5050.64 0.753522 5.25828 0
M  V30 54471 C 5049.67 1.82252 5.84338 0
M  V30 54472 N 5048.81 1.25927 6.90715 0
M  V30 54473 H 5053.65 1.69818 2.4488 0
M  V30 54474 H 5051.19 0.847904 1.20204 0
M  V30 54475 H 5053.15 -0.0862173 4.17111 0
M  V30 54476 H 5051.78 -0.627591 3.1664 0
M  V30 54477 H 5050.83 1.78466 3.35937 0
M  V30 54478 H 5052.14 2.14412 4.50365 0
M  V30 54479 H 5051.29 0.371873 6.05559 0
M  V30 54480 H 5050.03 -0.0861583 4.87624 0
M  V30 54481 H 5049.04 2.21338 5.03279 0
M  V30 54482 H 5050.26 2.66537 6.24608 0
M  V30 54483 H 5048.21 0.44137 6.54514 0
M  V30 54484 H 5048.13 2.00434 7.28946 0
M  V30 54485 H 5049.39 0.904771 7.74231 0
M  V30 54486 N 5053.62 -1.28415 0.913644 0
M  V30 54487 C 5054.57 -2.29271 0.392118 0
M  V30 54488 C 5055.57 -1.61345 -0.516141 0
M  V30 54489 O 5056.77 -1.75558 -0.397398 0
M  V30 54490 H 5053.15 -0.744175 0.108204 0
M  V30 54491 H 5055.12 -2.70687 1.25584 0
M  V30 54492 C 5053.87 -3.45907 -0.352693 0
M  V30 54493 H 5053.19 -3.98377 0.336988 0
M  V30 54494 H 5054.63 -4.18475 -0.682251 0
M  V30 54495 C 5053.09 -2.98578 -1.56055 0
M  V30 54496 O 5053.62 -3.01042 -2.65964 0
M  V30 54497 N 5051.82 -2.5424 -1.4075 0
M  V30 54498 H 5051.37 -2.52434 -0.513314 0
M  V30 54499 H 5051.33 -2.22933 -2.21694 0
M  V30 54500 N 5055.1 -0.677613 -1.42289 0
M  V30 54501 C 5056.03 0.0491836 -2.28147 0
M  V30 54502 C 5057.01 0.805887 -1.41224 0
M  V30 54503 O 5058.2 0.80043 -1.70662 0
M  V30 54504 C 5055.32 1.07686 -3.21125 0
M  V30 54505 C 5054.37 0.41541 -4.24472 0
M  V30 54506 S 5055.2 -0.829062 -5.29043 0
M  V30 54507 C 5056.36 0.197467 -6.25588 0
M  V30 54508 H 5056.59 -0.679067 -2.89441 0
M  V30 54509 H 5054.12 -0.467253 -1.4716 0
M  V30 54510 H 5056.08 1.66469 -3.75231 0
M  V30 54511 H 5054.74 1.77757 -2.58962 0
M  V30 54512 H 5053.94 1.19094 -4.89727 0
M  V30 54513 H 5053.54 -0.0988946 -3.73869 0
M  V30 54514 H 5055.83 1.05633 -6.69214 0
M  V30 54515 H 5056.77 -0.420686 -7.06849 0
M  V30 54516 H 5057.18 0.544204 -5.61871 0
M  V30 54517 N 5056.58 1.51869 -0.421131 0
M  V30 54518 C 5057.49 2.31078 0.404988 0
M  V30 54519 C 5058.51 1.39305 1.0426 0
M  V30 54520 O 5059.68 1.72379 1.04151 0
M  V30 54521 C 5056.75 3.12561 1.50021 0
M  V30 54522 C 5055.81 4.20091 0.884411 0
M  V30 54523 C 5055.04 4.9768 1.92744 0
M  V30 54524 O 5055.26 4.75707 3.14736 0
M  V30 54525 O 5054.2 5.82208 1.52699 0
M  V30 54526 H 5058.02 3.02741 -0.241193 0
M  V30 54527 H 5055.61 1.48262 -0.184043 0
M  V30 54528 H 5057.49 3.63267 2.13576 0
M  V30 54529 H 5056.17 2.4368 2.13077 0
M  V30 54530 H 5055.07 3.73503 0.211247 0
M  V30 54531 H 5056.41 4.913 0.29759 0
M  V30 54532 N 5058.06 0.151939 1.56866 0
M  V30 54533 C 5059.3 -0.498673 1.96573 0
M  V30 54534 C 5059.64 -1.6419 1.03708 0
M  V30 54535 O 5058.91 -1.94334 0.0804115 0
M  V30 54536 C 5059.2 -1.00015 3.45932 0
M  V30 54537 C 5059.05 0.141925 4.49576 0
M  V30 54538 C 5060.37 -1.8803 3.97911 0
M  V30 54539 H 5057.49 -0.179795 0.714733 0
M  V30 54540 H 5060.13 0.234164 1.88552 0
M  V30 54541 H 5058.28 -1.62463 3.52899 0
M  V30 54542 H 5059.95 0.778429 4.54685 0
M  V30 54543 H 5058.19 0.80034 4.26353 0
M  V30 54544 H 5058.86 -0.250753 5.5143 0
M  V30 54545 H 5061.34 -1.35402 3.93453 0
M  V30 54546 H 5060.22 -2.20025 5.02872 0
M  V30 54547 H 5060.48 -2.81904 3.40562 0
M  V30 54548 N 5059.54 -1.57128 -0.121838 0
M  V30 54549 C 5060.76 -1.89257 -0.848318 0
M  V30 54550 C 5061.19 -0.743588 -1.72778 0
M  V30 54551 O 5060.54 0.305994 -1.78699 0
M  V30 54552 C 5060.59 -3.20119 -1.66001 0
M  V30 54553 O 5059.7 -3.05824 -2.76668 0
M  V30 54554 H 5059.04 -0.621111 -0.234771 0
M  V30 54555 H 5061.57 -2.0433 -0.105089 0
M  V30 54556 H 5061.58 -3.52768 -2.04984 0
M  V30 54557 H 5060.25 -4.0334 -1.01438 0
M  V30 54558 H 5058.83 -2.84636 -2.40908 0
M  V30 54559 N 5061.01 0.391938 -1.52649 0
M  V30 54560 C 5062.26 1.13894 -1.67797 0
M  V30 54561 C 5062.59 1.89709 -0.415207 0
M  V30 54562 O 5061.87 1.85433 0.586913 0
M  V30 54563 C 5062.15 2.11956 -2.91113 0
M  V30 54564 C 5062 1.39924 -4.27483 0
M  V30 54565 C 5063.32 3.12419 -3.09972 0
M  V30 54566 H 5060.44 0.412685 -0.610622 0
M  V30 54567 H 5063.08 0.42266 -1.85239 0
M  V30 54568 H 5061.23 2.73039 -2.76373 0
M  V30 54569 H 5062.91 0.818279 -4.53984 0
M  V30 54570 H 5061.15 0.701096 -4.28097 0
M  V30 54571 H 5061.82 2.11563 -5.09848 0
M  V30 54572 H 5064.3 2.61424 -3.23723 0
M  V30 54573 H 5063.17 3.7828 -3.97738 0
M  V30 54574 H 5063.43 3.81119 -2.24056 0
M  V30 54575 N 5062.49 1.43562 0.650209 0
M  V30 54576 C 5063.46 1.48621 1.74484 0
M  V30 54577 C 5064.46 0.370538 1.56473 0
M  V30 54578 O 5065.65 0.632408 1.62315 0
M  V30 54579 C 5062.78 1.34172 3.13386 0
M  V30 54580 H 5063.97 2.46109 1.71378 0
M  V30 54581 H 5061.52 1.30372 0.86214 0
M  V30 54582 H 5062.26 0.377031 3.22101 0
M  V30 54583 H 5062.04 2.15052 3.27864 0
M  V30 54584 H 5063.53 1.40651 3.93201 0
M  V30 54585 N 5063.97 -0.888857 1.30143 0
M  V30 54586 C 5065.2 -1.67354 1.21656 0
M  V30 54587 C 5065.61 -1.875 -0.22118 0
M  V30 54588 O 5064.97 -1.41974 -1.14672 0
M  V30 54589 C 5065.02 -3.05207 1.9373 0
M  V30 54590 O 5064.74 -2.85972 3.31891 0
M  V30 54591 C 5066.24 -3.99634 1.91854 0
M  V30 54592 H 5063.46 -0.52235 0.421179 0
M  V30 54593 H 5066.01 -1.1108 1.71702 0
M  V30 54594 H 5064.16 -3.58224 1.47493 0
M  V30 54595 H 5064.58 -3.73398 3.6834 0
M  V30 54596 H 5066.05 -4.93741 2.46828 0
M  V30 54597 H 5066.53 -4.29952 0.89656 0
M  V30 54598 H 5067.13 -3.5255 2.37884 0
M  V30 54599 N 5065.45 -1.12795 -1.10068 0
M  V30 54600 C 5066.68 -0.908571 -1.85883 0
M  V30 54601 C 5067.09 0.542345 -1.80843 0
M  V30 54602 O 5066.45 1.37513 -1.19985 0
M  V30 54603 C 5066.5 -1.37985 -3.34129 0
M  V30 54604 O 5066.22 -2.7739 -3.39097 0
M  V30 54605 C 5067.72 -1.19795 -4.26807 0
M  V30 54606 H 5064.94 -0.324421 -0.58736 0
M  V30 54607 H 5067.49 -1.49887 -1.3912 0
M  V30 54608 H 5065.64 -0.832699 -3.78345 0
M  V30 54609 H 5066.05 -2.98159 -4.31511 0
M  V30 54610 H 5067.53 -1.57653 -5.29008 0
M  V30 54611 H 5068.01 -0.138923 -4.3898 0
M  V30 54612 H 5068.61 -1.73279 -3.884 0
M  V30 54613 N 5066.93 1.27928 -0.920441 0
M  V30 54614 C 5068.15 1.98803 -0.573157 0
M  V30 54615 C 5068.57 1.68727 0.847141 0
M  V30 54616 O 5067.93 0.943753 1.56204 0
M  V30 54617 C 5067.98 3.52968 -0.780757 0
M  V30 54618 O 5067.7 3.81987 -2.14517 0
M  V30 54619 C 5069.2 4.41099 -0.441205 0
M  V30 54620 H 5066.42 0.634644 -0.217872 0
M  V30 54621 H 5068.96 1.62961 -1.23548 0
M  V30 54622 H 5067.12 3.87047 -0.16534 0
M  V30 54623 H 5067.53 4.76601 -2.18979 0
M  V30 54624 H 5069.01 5.4831 -0.637199 0
M  V30 54625 H 5069.48 4.3476 0.622907 0
M  V30 54626 H 5070.09 4.12528 -1.03445 0
M  V30 54627 N 5068.4 0.685149 1.41928 0
M  V30 54628 C 5069.35 0.0132681 2.30796 0
M  V30 54629 C 5070.32 -0.782078 1.46536 0
M  V30 54630 O 5071.51 -0.752228 1.75346 0
M  V30 54631 C 5068.65 -0.924651 3.32482 0
M  V30 54632 C 5067.76 -0.122029 4.31828 0
M  V30 54633 C 5066.89 -1.05664 5.20585 0
M  V30 54634 C 5065.93 -0.246311 6.11604 0
M  V30 54635 N 5065.07 -1.13417 6.92879 0
M  V30 54636 H 5069.91 0.77689 2.87695 0
M  V30 54637 H 5067.45 0.394841 1.41702 0
M  V30 54638 H 5069.41 -1.48237 3.89976 0
M  V30 54639 H 5068.04 -1.65479 2.77158 0
M  V30 54640 H 5067.09 0.552467 3.76367 0
M  V30 54641 H 5068.4 0.506648 4.9622 0
M  V30 54642 H 5067.55 -1.68394 5.82862 0
M  V30 54643 H 5066.29 -1.71919 4.56394 0
M  V30 54644 H 5065.3 0.394136 5.48385 0
M  V30 54645 H 5066.52 0.412291 6.77847 0
M  V30 54646 H 5064.47 -1.78293 6.31306 0
M  V30 54647 H 5064.39 -0.560824 7.53917 0
M  V30 54648 H 5065.65 -1.74862 7.59634 0
M  V30 54649 N 5069.88 -1.51644 0.429179 0
M  V30 54650 C 5070.85 -2.26117 -0.374646 0
M  V30 54651 C 5071.85 -1.29246 -0.956669 0
M  V30 54652 O 5073.04 -1.53025 -0.832398 0
M  V30 54653 C 5070.17 -3.04674 -1.52927 0
M  V30 54654 H 5071.36 -2.98609 0.277923 0
M  V30 54655 H 5068.91 -1.55235 0.182151 0
M  V30 54656 H 5069.65 -2.36579 -2.21812 0
M  V30 54657 H 5069.43 -3.75818 -1.11819 0
M  V30 54658 H 5070.92 -3.61109 -2.09738 0
M  V30 54659 N 5071.36 -0.160256 -1.56783 0
M  V30 54660 C 5072.29 0.805564 -2.14577 0
M  V30 54661 C 5073.31 1.2015 -1.09853 0
M  V30 54662 O 5074.5 1.14328 -1.37082 0
M  V30 54663 C 5071.6 2.09425 -2.66448 0
M  V30 54664 C 5070.77 1.86361 -3.95713 0
M  V30 54665 C 5069.83 2.99343 -4.32759 0
M  V30 54666 O 5068.85 2.70457 -5.00841 0
M  V30 54667 N 5070.06 4.26853 -3.93417 0
M  V30 54668 H 5072.82 0.31154 -2.98076 0
M  V30 54669 H 5070.38 0.0228896 -1.61884 0
M  V30 54670 H 5072.37 2.84081 -2.88236 0
M  V30 54671 H 5070.94 2.50051 -1.87599 0
M  V30 54672 H 5070.16 0.956687 -3.82415 0
M  V30 54673 H 5071.45 1.68305 -4.80157 0
M  V30 54674 H 5070.85 4.53185 -3.38585 0
M  V30 54675 H 5069.41 4.98248 -4.20229 0
M  V30 54676 N 5072.84 1.57191 0.113503 0
M  V30 54677 C 5074.09 1.84327 0.818919 0
M  V30 54678 C 5074.4 0.746748 1.80784 0
M  V30 54679 O 5075.61 0.904686 2.55984 0
M  V30 54680 C 5074.06 3.26824 1.50713 0
M  V30 54681 C 5073.67 4.445 0.558908 0
M  V30 54682 C 5075.42 3.63203 2.19735 0
M  V30 54683 C 5073.32 5.78025 1.25065 0
M  V30 54684 H 5072.25 0.687518 0.309572 0
M  V30 54685 H 5074.9 1.8336 0.0716977 0
M  V30 54686 H 5073.29 3.22277 2.30116 0
M  V30 54687 H 5074.46 4.60356 -0.202308 0
M  V30 54688 H 5072.77 4.16393 -0.0246413 0
M  V30 54689 H 5075.37 4.60236 2.7219 0
M  V30 54690 H 5075.71 2.90909 2.97788 0
M  V30 54691 H 5076.25 3.69558 1.47213 0
M  V30 54692 H 5072.99 6.53503 0.511309 0
M  V30 54693 H 5072.51 5.66045 1.98375 0
M  V30 54694 H 5074.19 6.21967 1.78231 0
M  V30 54695 N 5074.32 -0.383837 1.52854 0
M  V30 54696 C 5075.73 -0.961534 1.60036 0
M  V30 54697 C 5076.08 -1.90818 0.4564 0
M  V30 54698 O 5075.2 -2.12289 -0.419798 0
M  V30 54699 C 5075.8 -1.75068 2.90063 0
M  V30 54700 C 5074.36 -2.278 2.9964 0
M  V30 54701 C 5073.51 -1.08503 2.55191 0
M  V30 54702 H 5076.46 -0.163213 1.57858 0
M  V30 54703 H 5076.48 -2.61036 2.7684 0
M  V30 54704 H 5075.99 -1.06144 3.73303 0
M  V30 54705 H 5074.09 -3.0002 2.20949 0
M  V30 54706 H 5074.2 -2.56933 4.04379 0
M  V30 54707 H 5072.57 -1.4466 2.09632 0
M  V30 54708 H 5073.35 -0.41106 3.4083 0
M  V30 54709 N 5075.8 -1.43905 -0.642587 0
M  V30 54710 C 5077.04 -1.45367 -1.39826 0
M  V30 54711 C 5077.36 -0.0856976 -1.95412 0
M  V30 54712 O 5078.56 0.0221902 -2.71491 0
M  V30 54713 C 5077.02 -2.55865 -2.53102 0
M  V30 54714 C 5076.63 -3.98818 -2.04078 0
M  V30 54715 C 5078.37 -2.66535 -3.30393 0
M  V30 54716 C 5076.28 -5.00762 -3.14629 0
M  V30 54717 H 5075.21 -0.540795 -0.525411 0
M  V30 54718 H 5077.86 -1.69931 -0.692499 0
M  V30 54719 H 5076.24 -2.24521 -3.262 0
M  V30 54720 H 5077.42 -4.39675 -1.37922 0
M  V30 54721 H 5075.73 -3.92289 -1.39637 0
M  V30 54722 H 5078.33 -3.39872 -4.12784 0
M  V30 54723 H 5078.67 -1.71963 -3.79123 0
M  V30 54724 H 5079.2 -2.97233 -2.64381 0
M  V30 54725 H 5075.94 -5.96924 -2.70855 0
M  V30 54726 H 5075.46 -4.64508 -3.79463 0
M  V30 54727 H 5077.14 -5.23947 -3.79591 0
M  V30 54728 N 5077.27 0.881943 -1.30612 0
M  V30 54729 C 5078.2 2.00409 -1.19827 0
M  V30 54730 C 5079.18 1.69871 -0.0882135 0
M  V30 54731 O 5080.37 1.92303 -0.270768 0
M  V30 54732 C 5077.5 3.35638 -0.892448 0
M  V30 54733 C 5076.45 3.80444 -1.96077 0
M  V30 54734 C 5075.78 5.12998 -1.50788 0
M  V30 54735 C 5077.08 3.98843 -3.37227 0
M  V30 54736 H 5078.77 2.0969 -2.13706 0
M  V30 54737 H 5076.32 1.0075 -1.02885 0
M  V30 54738 H 5078.27 4.13666 -0.803642 0
M  V30 54739 H 5077 3.26497 0.0820233 0
M  V30 54740 H 5075.66 3.04647 -2.03926 0
M  V30 54741 H 5075.3 5.00288 -0.521592 0
M  V30 54742 H 5075 5.43948 -2.22248 0
M  V30 54743 H 5076.53 5.93548 -1.43292 0
M  V30 54744 H 5077.94 4.67301 -3.32119 0
M  V30 54745 H 5076.34 4.41174 -4.06799 0
M  V30 54746 H 5077.41 3.02601 -3.78894 0
M  V30 54747 N 5078.75 1.13378 1.09468 0
M  V30 54748 C 5080.17 0.871893 1.33679 0
M  V30 54749 C 5080.37 -0.492778 1.95382 0
M  V30 54750 O 5079.42 -1.23939 2.1999 0
M  V30 54751 C 5080.74 1.99616 2.24886 0
M  V30 54752 C 5082.28 2.0282 2.38397 0
M  V30 54753 C 5082.76 3.14508 3.32939 0
M  V30 54754 N 5084.25 3.14016 3.40512 0
M  V30 54755 C 5084.99 3.97076 4.13665 0
M  V30 54756 N 5084.48 4.90149 4.89618 0
M  V30 54757 N 5086.27 3.85176 4.09385 0
M  V30 54758 H 5078.43 2.01291 0.677924 0
M  V30 54759 H 5080.69 0.876505 0.36117 0
M  V30 54760 H 5080.39 2.98006 1.86776 0
M  V30 54761 H 5080.27 1.90993 3.25272 0
M  V30 54762 H 5082.66 1.05043 2.75771 0
M  V30 54763 H 5082.74 2.15516 1.37792 0
M  V30 54764 H 5082.38 4.12524 2.96288 0
M  V30 54765 H 5082.31 2.99051 4.33447 0
M  V30 54766 H 5084.8 2.46597 2.86353 0
M  V30 54767 H 5085.11 5.50015 5.42866 0
M  V30 54768 H 5083.46 4.94155 4.88709 0
M  V30 54769 H 5086.65 3.11792 3.49147 0
M  V30 54770 H 5086.82 4.50136 4.66135 0
M  V30 54771 N 5080.23 -1.27438 0.927213 0
M  V30 54772 C 5081.16 -2.25175 0.370311 0
M  V30 54773 C 5082.14 -1.53614 -0.533049 0
M  V30 54774 O 5083.32 -1.82452 -0.473666 0
M  V30 54775 C 5080.45 -3.35433 -0.469293 0
M  V30 54776 C 5079.5 -4.24887 0.370569 0
M  V30 54777 S 5080.33 -5.04846 1.7858 0
M  V30 54778 C 5081.49 -6.18589 0.953869 0
M  V30 54779 H 5081.72 -2.72065 1.19867 0
M  V30 54780 H 5079.25 -1.36087 0.729364 0
M  V30 54781 H 5081.21 -3.99407 -0.947851 0
M  V30 54782 H 5079.87 -2.87184 -1.27218 0
M  V30 54783 H 5079.06 -5.03265 -0.272049 0
M  V30 54784 H 5078.67 -3.65706 0.783282 0
M  V30 54785 H 5080.96 -6.77235 0.189646 0
M  V30 54786 H 5081.9 -6.87126 1.71064 0
M  V30 54787 H 5082.31 -5.62316 0.496095 0
M  V30 54788 N 5081.71 -0.692666 -1.41562 0
M  V30 54789 C 5082.66 -0.0140769 -2.32596 0
M  V30 54790 C 5083.65 0.771638 -1.50805 0
M  V30 54791 O 5084.86 0.677588 -1.6676 0
M  V30 54792 H 5081.23 0.014248 -0.751865 0
M  V30 54793 H 5083.2 -0.798952 -2.87505 0
M  V30 54794 C 5081.95 0.910484 -3.35567 0
M  V30 54795 H 5081.27 0.315306 -3.98555 0
M  V30 54796 H 5082.71 1.35366 -4.01811 0
M  V30 54797 C 5081.17 2.0253 -2.69227 0
M  V30 54798 O 5081.7 3.11377 -2.53786 0
M  V30 54799 N 5079.91 1.80219 -2.27968 0
M  V30 54800 H 5079.46 0.916969 -2.40727 0
M  V30 54801 H 5079.41 2.54995 -1.83916 0
M  V30 54802 N 5083.19 1.51414 -0.437215 0
M  V30 54803 C 5084.43 2.02087 0.129293 0
M  V30 54804 C 5084.76 1.32138 1.42723 0
M  V30 54805 O 5084.02 0.424983 1.9103 0
M  V30 54806 C 5084.31 3.55205 0.395515 0
M  V30 54807 C 5083.98 4.43444 -0.816596 0
M  V30 54808 C 5082.64 4.67281 -1.149 0
M  V30 54809 C 5084.99 4.95214 -1.62521 0
M  V30 54810 C 5082.32 5.40133 -2.29071 0
M  V30 54811 C 5084.67 5.69318 -2.7579 0
M  V30 54812 C 5083.34 5.91418 -3.09485 0
M  V30 54813 H 5082.61 0.739488 0.0473115 0
M  V30 54814 H 5085.26 1.82366 -0.584385 0
M  V30 54815 H 5083.56 3.73257 1.19108 0
M  V30 54816 H 5085.26 3.91947 0.847261 0
M  V30 54817 H 5081.85 4.25088 -0.547572 0
M  V30 54818 H 5086.03 4.76682 -1.38161 0
M  V30 54819 H 5081.29 5.55459 -2.55491 0
M  V30 54820 H 5085.46 6.08421 -3.38816 0
M  V30 54821 H 5083.09 6.47648 -3.98065 0
M  V30 54822 N 5084.66 0.168568 1.56696 0
M  V30 54823 C 5085.61 -0.762798 2.1783 0
M  V30 54824 C 5086.58 -1.22888 1.11749 0
M  V30 54825 O 5087.77 -1.29754 1.39887 0
M  V30 54826 C 5084.91 -1.9878 2.821 0
M  V30 54827 C 5084.02 -1.56554 4.02635 0
M  V30 54828 C 5083.15 -2.744 4.54839 0
M  V30 54829 C 5082.19 -2.28651 5.6779 0
M  V30 54830 N 5081.33 -3.3958 6.14516 0
M  V30 54831 H 5086.17 -0.234686 2.97074 0
M  V30 54832 H 5083.71 -0.104112 1.46731 0
M  V30 54833 H 5085.66 -2.70625 3.17518 0
M  V30 54834 H 5084.29 -2.48966 2.05464 0
M  V30 54835 H 5083.35 -0.743936 3.73055 0
M  V30 54836 H 5084.66 -1.18971 4.84404 0
M  V30 54837 H 5083.81 -3.54405 4.92424 0
M  V30 54838 H 5082.55 -3.15241 3.72121 0
M  V30 54839 H 5081.56 -1.47092 5.29759 0
M  V30 54840 H 5082.78 -1.88871 6.52307 0
M  V30 54841 H 5080.73 -3.80002 5.34728 0
M  V30 54842 H 5080.64 -3.06081 6.91267 0
M  V30 54843 H 5081.91 -4.19879 6.56751 0
M  V30 54844 N 5086.14 -1.57249 -0.105165 0
M  V30 54845 C 5087.07 -1.98012 -1.15429 0
M  V30 54846 C 5088.09 -0.881284 -1.36884 0
M  V30 54847 O 5089.28 -1.15948 -1.35714 0
M  V30 54848 C 5086.38 -2.27518 -2.51175 0
M  V30 54849 C 5085.55 -3.5882 -2.50134 0
M  V30 54850 C 5084.61 -3.76378 -3.67731 0
M  V30 54851 O 5083.63 -4.48342 -3.50683 0
M  V30 54852 N 5084.84 -3.16192 -4.8683 0
M  V30 54853 H 5087.6 -2.88619 -0.807418 0
M  V30 54854 H 5085.16 -1.59203 -0.294274 0
M  V30 54855 H 5087.15 -2.36466 -3.28429 0
M  V30 54856 H 5085.72 -1.42969 -2.7799 0
M  V30 54857 H 5084.94 -3.60933 -1.58497 0
M  V30 54858 H 5086.23 -4.45097 -2.46508 0
M  V30 54859 H 5085.63 -2.57718 -5.03585 0
M  V30 54860 H 5084.19 -3.3064 -5.61712 0
M  V30 54861 N 5087.62 0.375726 -1.53056 0
M  V30 54862 C 5088.53 1.48375 -1.8172 0
M  V30 54863 C 5089.55 1.59084 -0.704851 0
M  V30 54864 O 5090.72 1.7517 -0.993846 0
M  V30 54865 C 5087.79 2.8376 -1.99202 0
M  V30 54866 C 5086.85 2.82661 -3.23112 0
M  V30 54867 C 5086.08 4.11589 -3.3975 0
M  V30 54868 O 5086.3 5.07233 -2.60903 0
M  V30 54869 O 5085.24 4.18019 -4.33064 0
M  V30 54870 H 5089.06 1.27079 -2.75834 0
M  V30 54871 H 5086.65 0.564853 -1.3831 0
M  V30 54872 H 5088.53 3.63997 -2.12331 0
M  V30 54873 H 5087.21 3.05054 -1.08277 0
M  V30 54874 H 5086.11 2.01159 -3.15414 0
M  V30 54875 H 5087.45 2.6632 -4.13925 0
M  V30 54876 N 5089.1 1.44244 0.634946 0
M  V30 54877 C 5090.03 1.53638 1.75834 0
M  V30 54878 C 5091.01 0.389661 1.65577 0
M  V30 54879 O 5092.19 0.609284 1.84395 0
M  V30 54880 C 5089.32 1.47655 3.14349 0
M  V30 54881 C 5088.28 2.60764 3.39391 0
M  V30 54882 C 5087.6 2.39834 4.77895 0
M  V30 54883 C 5088.9 4.02933 3.32329 0
M  V30 54884 H 5090.6 2.47668 1.68229 0
M  V30 54885 H 5088.14 1.192 0.807927 0
M  V30 54886 H 5090.1 1.52829 3.9271 0
M  V30 54887 H 5088.82 0.501398 3.22728 0
M  V30 54888 H 5087.48 2.54974 2.63408 0
M  V30 54889 H 5087.13 1.40519 4.82973 0
M  V30 54890 H 5086.83 3.15667 4.95609 0
M  V30 54891 H 5088.35 2.46819 5.58491 0
M  V30 54892 H 5089.77 4.10112 4.00601 0
M  V30 54893 H 5088.16 4.78938 3.61578 0
M  V30 54894 H 5089.23 4.26774 2.302 0
M  V30 54895 N 5090.58 -0.875004 1.31078 0
M  V30 54896 C 5091.52 -2.00313 1.18226 0
M  V30 54897 C 5092.52 -1.69151 0.0917467 0
M  V30 54898 O 5093.72 -1.78209 0.253292 0
M  V30 54899 H 5090.1 -0.656969 0.365918 0
M  V30 54900 H 5092.07 -2.08285 2.13682 0
M  V30 54901 C 5090.82 -3.35818 0.901213 0
M  V30 54902 H 5090.14 -3.60314 1.73246 0
M  V30 54903 H 5091.58 -4.15363 0.851441 0
M  V30 54904 C 5090.04 -3.34565 -0.395997 0
M  V30 54905 O 5090.57 -3.75976 -1.41439 0
M  V30 54906 N 5088.78 -2.87683 -0.410731 0
M  V30 54907 H 5088.32 -2.54178 0.418505 0
M  V30 54908 H 5088.28 -2.87227 -1.27859 0
M  V30 54909 N 5092.05 -1.13957 -1.08865 0
M  V30 54910 C 5093.3 -0.903087 -1.808 0
M  V30 54911 C 5093.62 0.572085 -1.86419 0
M  V30 54912 O 5092.89 1.41585 -1.35391 0
M  V30 54913 H 5091.47 -0.331122 -0.669602 0
M  V30 54914 H 5094.14 -1.43723 -1.31642 0
M  V30 54915 H 5093.23 -1.2989 -2.83787 0
M  V30 54916 N 5093.53 1.26945 -0.933958 0
M  V30 54917 C 5094.48 2.28618 -0.428543 0
M  V30 54918 C 5095.47 1.62146 0.490407 0
M  V30 54919 O 5096.68 1.76168 0.369418 0
M  V30 54920 H 5093.06 0.742359 -0.120029 0
M  V30 54921 H 5095.03 2.68655 -1.29874 0
M  V30 54922 C 5093.78 3.46424 0.297618 0
M  V30 54923 H 5093.1 3.97791 -0.400323 0
M  V30 54924 H 5094.54 4.19507 0.615589 0
M  V30 54925 C 5093 3.01023 1.51285 0
M  V30 54926 O 5093.53 3.05235 2.61141 0
M  V30 54927 N 5091.73 2.56447 1.36687 0
M  V30 54928 H 5091.28 2.53219 0.473089 0
M  V30 54929 H 5091.24 2.26432 2.18119 0
M  V30 54930 N 5095.01 0.700164 1.41193 0
M  V30 54931 C 5096.24 0.242251 2.05477 0
M  V30 54932 C 5096.65 -1.11024 1.52706 0
M  V30 54933 O 5096.01 -1.69471 0.677187 0
M  V30 54934 C 5096.06 0.196398 3.60966 0
M  V30 54935 O 5095.78 1.49546 4.11786 0
M  V30 54936 C 5097.28 -0.281947 4.42402 0
M  V30 54937 H 5094.5 0.111772 0.661625 0
M  V30 54938 H 5097.05 0.954039 1.80882 0
M  V30 54939 H 5095.2 -0.466245 3.84584 0
M  V30 54940 H 5095.62 1.38563 5.05866 0
M  V30 54941 H 5097.09 -0.262899 5.51374 0
M  V30 54942 H 5097.57 -1.32159 4.18844 0
M  V30 54943 H 5098.17 0.349861 4.23859 0
M  V30 54944 N 5096.49 -1.5118 0.445239 0
M  V30 54945 C 5097.44 -2.2794 -0.36221 0
M  V30 54946 C 5098.41 -1.31868 -1.00995 0
M  V30 54947 O 5099.59 -1.6078 -1.02735 0
M  V30 54948 C 5096.73 -3.13021 -1.453 0
M  V30 54949 C 5095.84 -4.24096 -0.822608 0
M  V30 54950 C 5094.98 -4.96474 -1.88911 0
M  V30 54951 C 5094.02 -5.99459 -1.23757 0
M  V30 54952 N 5093.15 -6.65214 -2.24578 0
M  V30 54953 H 5097.99 -2.96499 0.298724 0
M  V30 54954 H 5095.53 -1.46236 0.159161 0
M  V30 54955 H 5097.49 -3.60681 -2.09679 0
M  V30 54956 H 5096.12 -2.4656 -2.08345 0
M  V30 54957 H 5095.17 -3.80341 -0.0669027 0
M  V30 54958 H 5096.48 -4.97854 -0.307009 0
M  V30 54959 H 5095.64 -5.47721 -2.60933 0
M  V30 54960 H 5094.38 -4.22363 -2.43846 0
M  V30 54961 H 5093.38 -5.47496 -0.502849 0
M  V30 54962 H 5094.61 -6.7553 -0.695456 0
M  V30 54963 H 5092.55 -5.93911 -2.78578 0
M  V30 54964 H 5092.47 -7.34763 -1.77932 0
M  V30 54965 H 5093.74 -7.21089 -2.9606 0
M  V30 54966 N 5097.97 -0.176876 -1.56604 0
M  V30 54967 C 5099.19 0.475919 -2.01866 0
M  V30 54968 C 5099.62 1.55641 -1.05629 0
M  V30 54969 O 5098.97 1.81263 -0.0367366 0
M  V30 54970 C 5099.02 1.02607 -3.45694 0
M  V30 54971 O 5098.13 2.13983 -3.52541 0
M  V30 54972 H 5097.47 0.11334 -0.654255 0
M  V30 54973 H 5100 -0.282401 -2.02642 0
M  V30 54974 H 5100.01 1.34728 -3.85113 0
M  V30 54975 H 5098.68 0.234992 -4.15236 0
M  V30 54976 H 5097.26 1.82865 -3.24984 0
M  V30 54977 N 5099.44 1.57302 0.0968247 0
M  V30 54978 C 5100.39 2.01937 1.11759 0
M  V30 54979 C 5101.36 0.895379 1.39901 0
M  V30 54980 O 5102.55 1.16125 1.51392 0
M  V30 54981 C 5099.69 2.44735 2.43308 0
M  V30 54982 C 5098.8 3.70647 2.21912 0
M  V30 54983 C 5097.93 4.0233 3.46848 0
M  V30 54984 C 5096.97 5.21358 3.20707 0
M  V30 54985 N 5096.11 5.48802 4.37904 0
M  V30 54986 H 5100.95 2.88921 0.729973 0
M  V30 54987 H 5098.49 1.42902 0.348911 0
M  V30 54988 H 5100.45 2.67592 3.20079 0
M  V30 54989 H 5099.08 1.60763 2.7992 0
M  V30 54990 H 5098.13 3.55276 1.35953 0
M  V30 54991 H 5099.44 4.57564 1.98586 0
M  V30 54992 H 5098.59 4.25955 4.32027 0
M  V30 54993 H 5097.33 3.13931 3.73227 0
M  V30 54994 H 5096.34 4.97555 2.33921 0
M  V30 54995 H 5097.56 6.11353 2.95676 0
M  V30 54996 H 5095.51 4.63362 4.64362 0
M  V30 54997 H 5095.43 6.30088 4.17763 0
M  V30 54998 H 5096.69 5.76961 5.24153 0
M  V30 54999 N 5100.92 -0.367603 1.53253 0
M  V30 55000 C 5102.33 -0.944506 1.61046 0
M  V30 55001 C 5102.69 -1.90323 0.476613 0
M  V30 55002 O 5101.81 -2.12722 -0.397259 0
M  V30 55003 C 5102.41 -1.71981 2.91904 0
M  V30 55004 C 5100.96 -2.24609 3.02039 0
M  V30 55005 C 5100.11 -1.0579 2.56327 0
M  V30 55006 H 5103.06 -0.146461 1.58023 0
M  V30 55007 H 5103.08 -2.58086 2.79593 0
M  V30 55008 H 5102.6 -1.02179 3.74408 0
M  V30 55009 H 5100.7 -2.9766 2.24119 0
M  V30 55010 H 5100.81 -2.52629 4.07081 0
M  V30 55011 H 5099.17 -1.42428 2.11155 0
M  V30 55012 H 5099.96 -0.374888 3.41247 0
M  V30 55013 N 5102.4 -1.44578 -0.627288 0
M  V30 55014 C 5103.63 -1.51053 -1.41388 0
M  V30 55015 C 5104.04 -0.136634 -1.88305 0
M  V30 55016 O 5103.4 0.858195 -1.61063 0
M  V30 55017 C 5103.45 -2.47846 -2.63163 0
M  V30 55018 O 5103.17 -3.79895 -2.18201 0
M  V30 55019 C 5104.67 -2.63823 -3.56247 0
M  V30 55020 H 5101.89 -0.512186 -0.433482 0
M  V30 55021 H 5104.44 -1.89579 -0.766811 0
M  V30 55022 H 5102.59 -2.12445 -3.23954 0
M  V30 55023 H 5103.01 -4.32187 -2.97177 0
M  V30 55024 H 5104.48 -3.3557 -4.38289 0
M  V30 55025 H 5104.96 -1.69183 -4.05307 0
M  V30 55026 H 5105.56 -3.00141 -3.01323 0
M  V30 55027 N 5103.88 0.86804 -1.3154 0
M  V30 55028 C 5105.13 1.62363 -1.21516 0
M  V30 55029 C 5105.46 1.92883 0.225752 0
M  V30 55030 O 5104.73 1.5618 1.15922 0
M  V30 55031 C 5105.02 2.95261 -2.06139 0
M  V30 55032 C 5104.87 2.71606 -3.58539 0
M  V30 55033 C 5106.19 3.96384 -1.91226 0
M  V30 55034 H 5103.31 0.589163 -0.442783 0
M  V30 55035 H 5105.95 1.0033 -1.6135 0
M  V30 55036 H 5104.1 3.48204 -1.72296 0
M  V30 55037 H 5105.77 2.2532 -4.02528 0
M  V30 55038 H 5104.01 2.05804 -3.81873 0
M  V30 55039 H 5104.69 3.66177 -4.13059 0
M  V30 55040 H 5107.16 3.52656 -2.20847 0
M  V30 55041 H 5106.04 4.87254 -2.52735 0
M  V30 55042 H 5106.3 4.33332 -0.876105 0
M  V30 55043 N 5105.36 1.14532 1.0826 0
M  V30 55044 C 5106.58 0.938446 1.84954 0
M  V30 55045 C 5107.01 -0.507981 1.81111 0
M  V30 55046 O 5106.37 -1.36142 1.19729 0
M  V30 55047 C 5106.41 1.4458 3.30347 0
M  V30 55048 O 5105.52 0.638888 4.07421 0
M  V30 55049 H 5104.86 0.335414 0.573056 0
M  V30 55050 H 5107.39 1.52292 1.36632 0
M  V30 55051 H 5107.4 1.45462 3.81189 0
M  V30 55052 H 5106.07 2.49887 3.32459 0
M  V30 55053 H 5104.65 0.698929 3.66291 0
M  V30 55054 N 5106.84 -1.26448 0.940677 0
M  V30 55055 C 5108.06 -1.98404 0.604189 0
M  V30 55056 C 5108.49 -1.69586 -0.81376 0
M  V30 55057 O 5107.84 -0.943608 -1.54809 0
M  V30 55058 C 5107.89 -3.50384 0.852259 0
M  V30 55059 O 5107 -4.1233 -0.0758681 0
M  V30 55060 H 5106.34 -0.622458 0.231175 0
M  V30 55061 H 5108.87 -1.60927 1.26347 0
M  V30 55062 H 5108.88 -4.00611 0.772957 0
M  V30 55063 H 5107.55 -3.7069 1.88579 0
M  V30 55064 H 5106.13 -3.7286 0.0544498 0
M  V30 55065 N 5108.31 -0.707642 -1.4082 0
M  V30 55066 C 5109.54 -0.251698 -2.05867 0
M  V30 55067 C 5109.96 1.09498 -1.52944 0
M  V30 55068 O 5109.32 1.68803 -0.661445 0
M  V30 55069 C 5109.37 -0.232996 -3.59846 0
M  V30 55070 O 5108.47 0.788334 -4.04795 0
M  V30 55071 H 5107.81 -0.119959 -0.653074 0
M  V30 55072 H 5110.34 -0.965893 -1.80365 0
M  V30 55073 H 5110.35 -0.0679638 -4.07943 0
M  V30 55074 H 5109.03 -1.21579 -3.97733 0
M  V30 55075 H 5107.61 0.591673 -3.68176 0
M  V30 55076 N 5109.79 1.50942 -0.45325 0
M  V30 55077 C 5110.72 2.24743 0.395708 0
M  V30 55078 C 5111.7 1.2732 1.01136 0
M  V30 55079 O 5112.89 1.56497 1.05075 0
M  V30 55080 C 5110.01 3.01004 1.55287 0
M  V30 55081 C 5109.06 4.13211 1.05636 0
M  V30 55082 S 5109.89 5.35498 -0.0145382 0
M  V30 55083 C 5111.05 6.15302 1.14692 0
M  V30 55084 H 5111.28 2.96403 -0.230814 0
M  V30 55085 H 5108.81 1.52556 -0.237928 0
M  V30 55086 H 5110.77 3.45537 2.21617 0
M  V30 55087 H 5109.43 2.28904 2.15086 0
M  V30 55088 H 5108.63 4.65908 1.92214 0
M  V30 55089 H 5108.23 3.71022 0.471052 0
M  V30 55090 H 5110.52 6.45354 2.06216 0
M  V30 55091 H 5111.46 7.05021 0.659594 0
M  V30 55092 H 5111.87 5.47051 1.39268 0
M  V30 55093 N 5111.27 0.185179 1.56508 0
M  V30 55094 C 5112.18 -0.75183 2.22227 0
M  V30 55095 C 5113.2 -1.2424 1.21821 0
M  V30 55096 O 5114.37 -1.29164 1.54527 0
M  V30 55097 C 5111.44 -1.95827 2.86099 0
M  V30 55098 C 5110.5 -1.51323 4.01746 0
M  V30 55099 C 5109.73 -2.66217 4.62563 0
M  V30 55100 O 5109.95 -3.83445 4.22287 0
M  V30 55101 O 5108.89 -2.39497 5.522 0
M  V30 55102 H 5112.71 -0.222197 3.02886 0
M  V30 55103 H 5110.3 -0.0436616 1.49336 0
M  V30 55104 H 5112.18 -2.66357 3.26546 0
M  V30 55105 H 5110.86 -2.4767 2.08426 0
M  V30 55106 H 5109.76 -0.777027 3.65941 0
M  V30 55107 H 5111.1 -1.04158 4.81053 0
M  V30 55108 N 5112.75 -1.57351 -0.0884812 0
M  V30 55109 C 5113.99 -1.86422 -0.790758 0
M  V30 55110 C 5114.32 -0.774624 -1.78409 0
M  V30 55111 O 5113.58 0.231121 -1.9433 0
M  V30 55112 C 5113.88 -3.22103 -1.54868 0
M  V30 55113 C 5113.54 -4.45482 -0.696868 0
M  V30 55114 C 5112.2 -4.78976 -0.462069 0
M  V30 55115 C 5114.56 -5.21094 -0.105132 0
M  V30 55116 C 5111.88 -5.85505 0.374222 0
M  V30 55117 C 5114.24 -6.28506 0.718519 0
M  V30 55118 C 5112.9 -6.60512 0.963348 0
M  V30 55119 H 5112.17 -0.682167 -0.289359 0
M  V30 55120 H 5114.82 -1.91429 -0.0520288 0
M  V30 55121 H 5113.12 -3.12811 -2.35916 0
M  V30 55122 H 5114.82 -3.41826 -2.09657 0
M  V30 55123 H 5111.41 -4.19258 -0.88999 0
M  V30 55124 H 5115.59 -4.95545 -0.273682 0
M  V30 55125 H 5110.85 -6.08711 0.57282 0
M  V30 55126 H 5115.02 -6.86263 1.18387 0
M  V30 55127 H 5112.65 -7.42887 1.61316 0
M  V30 55128 N 5114.23 0.359471 -1.53446 0
M  V30 55129 C 5115.17 1.44067 -1.80315 0
M  V30 55130 C 5116.14 1.52944 -0.647864 0
M  V30 55131 O 5117.33 1.68735 -0.890673 0
M  V30 55132 C 5114.47 2.80934 -2.00425 0
M  V30 55133 C 5113.58 2.80975 -3.28142 0
M  V30 55134 C 5112.72 4.09456 -3.38407 0
M  V30 55135 C 5111.75 4.03663 -4.60133 0
M  V30 55136 N 5110.89 5.23804 -4.67518 0
M  V30 55137 H 5115.73 1.20455 -2.7257 0
M  V30 55138 H 5113.27 0.583812 -1.35019 0
M  V30 55139 H 5115.23 3.60451 -2.10073 0
M  V30 55140 H 5113.86 3.02932 -1.115 0
M  V30 55141 H 5112.91 1.93654 -3.27417 0
M  V30 55142 H 5114.22 2.72568 -4.17742 0
M  V30 55143 H 5113.37 4.97392 -3.474 0
M  V30 55144 H 5112.11 4.20623 -2.46835 0
M  V30 55145 H 5111.12 3.14113 -4.51235 0
M  V30 55146 H 5112.34 3.94092 -5.53053 0
M  V30 55147 H 5110.29 5.35546 -3.78849 0
M  V30 55148 H 5110.21 5.17591 -5.51031 0
M  V30 55149 H 5111.47 6.13555 -4.80801 0
M  V30 55150 N 5115.7 1.44909 0.619611 0
M  V30 55151 C 5116.93 1.5158 1.40381 0
M  V30 55152 C 5117.34 0.143157 1.88658 0
M  V30 55153 O 5116.69 -0.863346 1.62148 0
M  V30 55154 C 5116.75 2.42867 2.65058 0
M  V30 55155 C 5116.41 3.89828 2.38502 0
M  V30 55156 C 5117.41 4.80054 1.99611 0
M  V30 55157 C 5115.09 4.34637 2.51785 0
M  V30 55158 C 5117.09 6.13092 1.74347 0
M  V30 55159 C 5114.77 5.6772 2.26136 0
M  V30 55160 C 5115.77 6.56766 1.87477 0
M  V30 55161 O 5115.46 7.87383 1.6212 0
M  V30 55162 H 5115.19 0.516135 0.436555 0
M  V30 55163 H 5117.75 1.90667 0.763892 0
M  V30 55164 H 5115.98 1.98729 3.31728 0
M  V30 55165 H 5117.67 2.40358 3.27083 0
M  V30 55166 H 5118.43 4.46703 1.88895 0
M  V30 55167 H 5114.31 3.65578 2.80844 0
M  V30 55168 H 5117.85 6.82555 1.44098 0
M  V30 55169 H 5113.75 6.00629 2.36465 0
M  V30 55170 H 5114.52 7.99294 1.76272 0
M  V30 55171 N 5117.18 -0.861052 1.31999 0
M  V30 55172 C 5118.46 -1.59784 1.1282 0
M  V30 55173 C 5118.84 -2.08755 -0.313809 0
M  V30 55174 O 5118.19 -1.87262 -1.30939 0
M  V30 55175 C 5118.4 -2.74894 2.15022 0
M  V30 55176 C 5119.75 -3.44635 2.48016 0
M  V30 55177 O 5120.77 -2.85111 2.13518 0
M  V30 55178 O 5119.63 -4.52033 3.07129 0
M  V30 55179 H 5116.72 -0.703393 0.434933 0
M  V30 55180 H 5119.27 -0.905737 1.43508 0
M  V30 55181 H 5118.04 -2.36187 3.1198 0
M  V30 55182 H 5117.66 -3.51785 1.85292 0
M  V30 55183 N 5118.66 -1.15105 -1.07651 0
M  V30 55184 C 5119.91 -0.924037 -1.80188 0
M  V30 55185 C 5120.24 0.548999 -1.86591 0
M  V30 55186 O 5119.49 1.42302 -1.34345 0
M  V30 55187 C 5119.79 -1.47965 -3.25332 0
M  V30 55188 C 5119.46 -2.97265 -3.39034 0
M  V30 55189 C 5118.12 -3.38024 -3.42481 0
M  V30 55190 C 5120.47 -3.93231 -3.4208 0
M  V30 55191 C 5117.8 -4.73396 -3.46574 0
M  V30 55192 C 5120.15 -5.2847 -3.4771 0
M  V30 55193 C 5118.81 -5.68729 -3.49433 0
M  V30 55194 H 5118.08 -0.338129 -0.659355 0
M  V30 55195 H 5120.73 -1.43598 -1.26696 0
M  V30 55196 H 5119.04 -0.888825 -3.81585 0
M  V30 55197 H 5120.73 -1.27986 -3.80027 0
M  V30 55198 H 5117.32 -2.64758 -3.37048 0
M  V30 55199 H 5121.51 -3.62817 -3.38641 0
M  V30 55200 H 5116.76 -5.03937 -3.46204 0
M  V30 55201 H 5120.94 -6.0263 -3.49013 0
M  V30 55202 H 5118.56 -6.73609 -3.52357 0
M  V30 55203 N 5120.14 1.25947 -0.94737 0
M  V30 55204 C 5121.09 2.28151 -0.452767 0
M  V30 55205 C 5122.08 1.62657 0.473182 0
M  V30 55206 O 5123.29 1.7655 0.350712 0
M  V30 55207 H 5119.66 0.741044 -0.127896 0
M  V30 55208 H 5121.63 2.67262 -1.32716 0
M  V30 55209 C 5120.38 3.4672 0.260858 0
M  V30 55210 H 5119.7 3.97344 -0.442492 0
M  V30 55211 H 5121.14 4.20137 0.57106 0
M  V30 55212 C 5119.6 3.0261 1.48083 0
M  V30 55213 O 5120.13 3.07988 2.57888 0
M  V30 55214 N 5118.34 2.57882 1.3396 0
M  V30 55215 H 5117.89 2.53706 0.446205 0
M  V30 55216 H 5117.84 2.28733 2.15705 0
M  V30 55217 N 5121.62 0.7151 1.40442 0
M  V30 55218 C 5122.84 0.262612 2.05731 0
M  V30 55219 C 5123.27 -1.08685 1.53522 0
M  V30 55220 O 5122.62 -1.6845 0.670387 0
M  V30 55221 C 5122.67 0.252077 3.59718 0
M  V30 55222 O 5121.78 -0.766856 4.05207 0
M  V30 55223 H 5121.12 0.123421 0.652429 0
M  V30 55224 H 5123.65 0.975445 1.79851 0
M  V30 55225 H 5123.66 0.0895971 4.07902 0
M  V30 55226 H 5122.33 1.23686 3.97083 0
M  V30 55227 H 5120.91 -0.572139 3.68485 0
M  V30 55228 N 5123.09 -1.50699 0.461248 0
M  V30 55229 C 5124.32 -2.07171 -0.0974045 0
M  V30 55230 C 5124.74 -1.32396 -1.33615 0
M  V30 55231 O 5124.1 -0.368738 -1.77511 0
M  V30 55232 C 5124.15 -3.58652 -0.374283 0
M  V30 55233 O 5123.25 -3.85821 -1.45657 0
M  V30 55234 H 5122.6 -0.663944 0.00864381 0
M  V30 55235 H 5125.13 -1.94018 0.649462 0
M  V30 55236 H 5125.14 -4.03297 -0.617701 0
M  V30 55237 H 5123.81 -4.12497 0.530974 0
M  V30 55238 H 5122.39 -3.53022 -1.20123 0
M  V30 55239 N 5124.57 -0.193476 -1.56408 0
M  V30 55240 C 5125.51 0.767308 -2.14913 0
M  V30 55241 C 5126.48 1.21071 -1.08538 0
M  V30 55242 O 5127.67 1.29852 -1.36641 0
M  V30 55243 C 5124.79 2.03606 -2.7067 0
M  V30 55244 C 5123.84 1.73491 -3.89619 0
M  V30 55245 S 5124.67 0.88446 -5.28145 0
M  V30 55246 C 5125.83 2.16339 -5.87323 0
M  V30 55247 H 5126.06 0.269949 -2.96072 0
M  V30 55248 H 5123.6 0.0215003 -1.54385 0
M  V30 55249 H 5125.55 2.76469 -3.03439 0
M  V30 55250 H 5124.21 2.50454 -1.89556 0
M  V30 55251 H 5123.41 2.67686 -4.27037 0
M  V30 55252 H 5123.01 1.0871 -3.57852 0
M  V30 55253 H 5125.3 3.11608 -6.01587 0
M  V30 55254 H 5126.24 1.83356 -6.83949 0
M  V30 55255 H 5126.65 2.29111 -5.15915 0
M  V30 55256 N 5126.05 1.57396 0.0801353 0
M  V30 55257 C 5126.98 2.06149 1.09658 0
M  V30 55258 C 5127.96 0.953323 1.40875 0
M  V30 55259 O 5129.15 1.22553 1.50647 0
M  V30 55260 C 5126.28 2.49845 2.41236 0
M  V30 55261 C 5125.23 3.64462 2.24392 0
M  V30 55262 C 5124.56 3.94185 3.61279 0
M  V30 55263 C 5125.86 4.94813 1.67205 0
M  V30 55264 H 5127.55 2.91319 0.690926 0
M  V30 55265 H 5125.1 1.40146 0.330908 0
M  V30 55266 H 5127.05 2.82563 3.12628 0
M  V30 55267 H 5125.77 1.61693 2.83766 0
M  V30 55268 H 5124.43 3.32014 1.55442 0
M  V30 55269 H 5124.08 3.03177 4.01364 0
M  V30 55270 H 5123.78 4.71357 3.5085 0
M  V30 55271 H 5125.3 4.29391 4.34115 0
M  V30 55272 H 5126.72 5.25815 2.28454 0
M  V30 55273 H 5125.12 5.76251 1.67495 0
M  V30 55274 H 5126.19 4.80754 0.632775 0
M  V30 55275 N 5127.53 -0.351328 1.53634 0
M  V30 55276 C 5128.76 -1.11107 1.7418 0
M  V30 55277 C 5129.17 -1.83083 0.477218 0
M  V30 55278 O 5128.51 -1.74943 -0.560422 0
M  V30 55279 C 5128.57 -2.17511 2.86233 0
M  V30 55280 C 5128.24 -1.65179 4.26105 0
M  V30 55281 C 5129.23 -1.10824 5.07951 0
M  V30 55282 C 5126.92 -1.7026 4.72564 0
M  V30 55283 C 5128.91 -0.622465 6.34353 0
M  V30 55284 C 5126.6 -1.21295 5.98941 0
M  V30 55285 C 5127.6 -0.673794 6.79668 0
M  V30 55286 O 5127.28 -0.191413 8.03672 0
M  V30 55287 H 5127.02 -0.33754 0.585699 0
M  V30 55288 H 5129.57 -0.411716 2.01231 0
M  V30 55289 H 5127.8 -2.90982 2.54688 0
M  V30 55290 H 5129.49 -2.78989 2.94822 0
M  V30 55291 H 5130.26 -1.06226 4.73224 0
M  V30 55292 H 5126.13 -2.11166 4.09792 0
M  V30 55293 H 5129.68 -0.200971 6.9731 0
M  V30 55294 H 5125.58 -1.25591 6.33164 0
M  V30 55295 H 5126.34 -0.309425 8.17915 0
M  V30 55296 N 5129.01 -1.45235 -0.611918 0
M  V30 55297 C 5130.23 -1.52772 -1.40269 0
M  V30 55298 C 5130.66 -0.159767 -1.8742 0
M  V30 55299 O 5130.01 0.85478 -1.59885 0
M  V30 55300 C 5130.06 -2.51295 -2.58617 0
M  V30 55301 O 5129.17 -2.02777 -3.59104 0
M  V30 55302 H 5128.51 -0.515155 -0.41894 0
M  V30 55303 H 5131.04 -1.9055 -0.745121 0
M  V30 55304 H 5131.05 -2.6996 -3.05918 0
M  V30 55305 H 5129.72 -3.50649 -2.23647 0
M  V30 55306 H 5128.3 -1.93968 -3.18482 0
M  V30 55307 N 5130.49 0.85404 -1.32453 0
M  V30 55308 C 5131.71 1.6407 -1.26051 0
M  V30 55309 C 5132.13 1.8802 0.17139 0
M  V30 55310 O 5131.49 1.44964 1.10868 0
M  V30 55311 C 5131.54 2.99963 -2.01754 0
M  V30 55312 O 5131.26 2.77072 -3.39356 0
M  V30 55313 C 5132.76 3.94407 -2.02382 0
M  V30 55314 H 5129.98 0.511 -0.43488 0
M  V30 55315 H 5132.52 1.06488 -1.74587 0
M  V30 55316 H 5130.68 3.54188 -1.56939 0
M  V30 55317 H 5131.09 3.63501 -3.78111 0
M  V30 55318 H 5132.57 4.87023 -2.59832 0
M  V30 55319 H 5133.04 4.27423 -1.01024 0
M  V30 55320 H 5133.65 3.46119 -2.47148 0
M  V30 55321 N 5131.96 1.15674 1.07039 0
M  V30 55322 C 5132.93 0.858981 2.12495 0
M  V30 55323 C 5133.93 -0.142679 1.60166 0
M  V30 55324 O 5135.12 0.0873289 1.73981 0
M  V30 55325 C 5132.25 0.28314 3.39722 0
M  V30 55326 H 5133.44 1.79376 2.40342 0
M  V30 55327 H 5130.99 0.964651 1.2298 0
M  V30 55328 H 5131.73 -0.659684 3.1752 0
M  V30 55329 H 5131.51 1.0048 3.79007 0
M  V30 55330 H 5133 0.0925011 4.17498 0
M  V30 55331 N 5133.44 -1.25443 0.954036 0
M  V30 55332 C 5134.39 -2.2591 0.472564 0
M  V30 55333 C 5135.36 -1.59174 -0.474634 0
M  V30 55334 O 5136.54 -1.86813 -0.388016 0
M  V30 55335 C 5133.68 -3.44236 -0.244097 0
M  V30 55336 C 5132.8 -4.2561 0.74027 0
M  V30 55337 C 5131.93 -5.312 0.00110901 0
M  V30 55338 C 5130.97 -6.04261 0.976448 0
M  V30 55339 N 5130.11 -7.01588 0.268199 0
M  V30 55340 H 5134.95 -2.66464 1.33419 0
M  V30 55341 H 5132.48 -1.31002 0.669091 0
M  V30 55342 H 5134.44 -4.11684 -0.676169 0
M  V30 55343 H 5133.07 -3.04558 -1.06977 0
M  V30 55344 H 5132.12 -3.57829 1.29083 0
M  V30 55345 H 5133.44 -4.76195 1.48458 0
M  V30 55346 H 5132.59 -6.04721 -0.489627 0
M  V30 55347 H 5131.33 -4.81487 -0.77599 0
M  V30 55348 H 5130.33 -5.29556 1.47819 0
M  V30 55349 H 5131.56 -6.56064 1.75377 0
M  V30 55350 H 5129.51 -6.54166 -0.490173 0
M  V30 55351 H 5129.42 -7.49987 0.951607 0
M  V30 55352 H 5130.69 -7.79241 -0.20102 0
M  V30 55353 N 5134.92 -0.722538 -1.40061 0
M  V30 55354 C 5136.17 -0.264526 -2.00361 0
M  V30 55355 C 5136.49 1.14841 -1.57596 0
M  V30 55356 O 5135.76 1.7798 -0.818539 0
M  V30 55357 H 5134.34 -0.0948106 -0.740959 0
M  V30 55358 H 5137 -0.929719 -1.71296 0
M  V30 55359 H 5136.1 -0.303086 -3.10625 0
M  V30 55360 N 5136.4 1.50453 -0.469234 0
M  V30 55361 C 5137.36 2.27031 0.314563 0
M  V30 55362 C 5138.36 1.31737 0.922065 0
M  V30 55363 O 5139.55 1.55179 0.791534 0
M  V30 55364 C 5136.68 3.08621 1.44795 0
M  V30 55365 H 5137.88 2.97768 -0.356996 0
M  V30 55366 H 5135.43 1.54697 -0.223245 0
M  V30 55367 H 5136.16 2.42377 2.15462 0
M  V30 55368 H 5135.95 3.7865 1.01816 0
M  V30 55369 H 5137.44 3.66543 2.0009 0
M  V30 55370 N 5137.88 0.201768 1.56303 0
M  V30 55371 C 5139.12 -0.435882 1.9806 0
M  V30 55372 C 5139.45 -1.60807 1.08879 0
M  V30 55373 O 5138.73 -1.9398 0.142197 0
M  V30 55374 C 5139.01 -0.889584 3.48939 0
M  V30 55375 C 5138.87 0.284882 4.48897 0
M  V30 55376 C 5140.18 -1.75275 4.03691 0
M  V30 55377 H 5137.3 -0.156965 0.720091 0
M  V30 55378 H 5139.95 0.294031 1.87711 0
M  V30 55379 H 5138.1 -1.51154 3.57889 0
M  V30 55380 H 5139.77 0.92269 4.51978 0
M  V30 55381 H 5138.01 0.935576 4.23591 0
M  V30 55382 H 5138.68 -0.0751925 5.51949 0
M  V30 55383 H 5141.16 -1.22816 3.97562 0
M  V30 55384 H 5140.03 -2.03915 5.09617 0
M  V30 55385 H 5140.29 -2.70927 3.49358 0
M  V30 55386 N 5139.35 -1.57436 -0.071787 0
M  V30 55387 C 5140.63 -1.78315 -0.803943 0
M  V30 55388 C 5141.01 -0.789342 -1.95787 0
M  V30 55389 O 5140.36 0.177524 -2.27809 0
M  V30 55390 C 5140.57 -3.24803 -1.27688 0
M  V30 55391 C 5141.92 -3.88633 -1.71026 0
M  V30 55392 O 5142.94 -3.28694 -1.37255 0
M  V30 55393 O 5141.8 -4.94082 -2.3355 0
M  V30 55394 H 5138.89 -0.731793 -0.385237 0
M  V30 55395 H 5141.44 -1.69621 -0.0518623 0
M  V30 55396 H 5140.21 -3.8869 -0.451204 0
M  V30 55397 H 5139.83 -3.38221 -2.09028 0
M  V30 55398 N 5140.83 0.343176 -1.53818 0
M  V30 55399 C 5141.78 1.42211 -1.78213 0
M  V30 55400 C 5142.77 1.47738 -0.637356 0
M  V30 55401 O 5143.96 1.52602 -0.896758 0
M  V30 55402 C 5141.09 2.79347 -1.99549 0
M  V30 55403 C 5140.17 2.7821 -3.20093 0
M  V30 55404 N 5140.56 2.46704 -4.41555 0
M  V30 55405 C 5138.86 3.09357 -3.2127 0
M  V30 55406 C 5139.56 2.5381 -5.23408 0
M  V30 55407 N 5138.54 2.89448 -4.60131 0
M  V30 55408 H 5142.34 1.16749 -2.69716 0
M  V30 55409 H 5139.85 0.551538 -1.52748 0
M  V30 55410 H 5141.85 3.57088 -2.1516 0
M  V30 55411 H 5140.51 3.05755 -1.09289 0
M  V30 55412 H 5141.52 2.19895 -4.68899 0
M  V30 55413 H 5138.2 3.40934 -2.40978 0
M  V30 55414 H 5139.59 2.32607 -6.30352 0
M  V30 55415 N 5142.31 1.45558 0.604207 0
M  V30 55416 C 5143.26 1.54488 1.71471 0
M  V30 55417 C 5144.23 0.390536 1.61444 0
M  V30 55418 O 5145.41 0.604435 1.80973 0
M  V30 55419 C 5142.55 1.52075 3.09786 0
M  V30 55420 C 5141.66 2.78085 3.30595 0
M  V30 55421 C 5140.8 2.67321 4.59035 0
M  V30 55422 C 5139.84 3.88369 4.73113 0
M  V30 55423 N 5138.98 3.76119 5.92857 0
M  V30 55424 H 5143.82 2.49355 1.63175 0
M  V30 55425 H 5141.35 1.23728 0.795598 0
M  V30 55426 H 5143.31 1.48663 3.89814 0
M  V30 55427 H 5141.94 0.607554 3.17031 0
M  V30 55428 H 5140.99 2.91569 2.44319 0
M  V30 55429 H 5142.3 3.67859 3.3687 0
M  V30 55430 H 5141.46 2.61894 5.47263 0
M  V30 55431 H 5140.2 1.75151 4.55163 0
M  V30 55432 H 5139.2 3.94151 3.83308 0
M  V30 55433 H 5140.43 4.81608 4.7878 0
M  V30 55434 H 5138.37 2.86721 5.90023 0
M  V30 55435 H 5138.29 4.5953 6.00306 0
M  V30 55436 H 5139.56 3.74631 6.83573 0
M  V30 55437 N 5143.79 -0.847003 1.32905 0
M  V30 55438 C 5144.72 -1.97161 1.25098 0
M  V30 55439 C 5145.7 -1.69578 0.133221 0
M  V30 55440 O 5146.88 -1.91518 0.321658 0
M  V30 55441 C 5144.01 -3.33154 0.981123 0
M  V30 55442 C 5142.97 -3.75112 2.06095 0
M  V30 55443 C 5142.29 -5.0882 1.64336 0
M  V30 55444 C 5143.59 -3.89762 3.47683 0
M  V30 55445 H 5145.29 -2.0395 2.19191 0
M  V30 55446 H 5142.83 -0.97987 1.0552 0
M  V30 55447 H 5144.79 -4.1139 0.913036 0
M  V30 55448 H 5143.51 -3.266 0.0045704 0
M  V30 55449 H 5142.17 -2.99133 2.11932 0
M  V30 55450 H 5141.82 -4.9873 0.654052 0
M  V30 55451 H 5141.52 -5.37865 2.36591 0
M  V30 55452 H 5143.04 -5.89541 1.58978 0
M  V30 55453 H 5144.46 -4.58331 3.44392 0
M  V30 55454 H 5142.85 -4.30233 4.18353 0
M  V30 55455 H 5143.92 -2.92449 3.86784 0
M  V30 55456 N 5145.27 -1.1624 -1.06424 0
M  V30 55457 C 5146.49 -0.967752 -1.83438 0
M  V30 55458 C 5146.92 0.479103 -1.81896 0
M  V30 55459 O 5146.27 1.3422 -1.2188 0
M  V30 55460 C 5146.32 -1.49817 -3.28005 0
M  V30 55461 O 5145.43 -0.703624 -4.06353 0
M  V30 55462 H 5144.77 -0.344488 -0.567648 0
M  V30 55463 H 5147.3 -1.54446 -1.34192 0
M  V30 55464 H 5147.31 -1.51508 -3.78826 0
M  V30 55465 H 5145.98 -2.55145 -3.28442 0
M  V30 55466 H 5144.56 -0.757115 -3.65133 0
M  V30 55467 N 5146.74 1.24935 -0.960675 0
M  V30 55468 C 5147.67 2.27998 -0.503895 0
M  V30 55469 C 5148.66 1.63961 0.452871 0
M  V30 55470 O 5149.84 1.91011 0.350518 0
M  V30 55471 C 5146.97 3.46644 0.213413 0
M  V30 55472 C 5145.92 4.22901 -0.658683 0
M  V30 55473 C 5145.25 5.34363 0.189714 0
M  V30 55474 C 5146.55 4.84942 -1.9398 0
M  V30 55475 H 5148.24 2.66458 -1.36531 0
M  V30 55476 H 5145.79 1.2809 -0.657942 0
M  V30 55477 H 5147.74 4.17872 0.544139 0
M  V30 55478 H 5146.47 3.07191 1.10912 0
M  V30 55479 H 5145.13 3.53464 -0.972579 0
M  V30 55480 H 5144.77 4.91151 1.08536 0
M  V30 55481 H 5144.47 5.86301 -0.390537 0
M  V30 55482 H 5146 6.08422 0.51527 0
M  V30 55483 H 5147.41 5.48282 -1.6751 0
M  V30 55484 H 5145.81 5.47082 -2.4662 0
M  V30 55485 H 5146.88 4.06789 -2.63914 0
M  V30 55486 N 5148.22 0.729956 1.39676 0
M  V30 55487 C 5149.13 0.0881147 2.34434 0
M  V30 55488 C 5150.15 -0.727619 1.58056 0
M  V30 55489 O 5151.32 -0.657254 1.90374 0
M  V30 55490 C 5148.39 -0.812093 3.37055 0
M  V30 55491 C 5147.45 0.015319 4.29297 0
M  V30 55492 C 5146.68 -0.842017 5.27016 0
M  V30 55493 O 5146.91 -2.08089 5.31089 0
M  V30 55494 O 5145.84 -0.273359 6.01279 0
M  V30 55495 H 5149.67 0.870091 2.90969 0
M  V30 55496 H 5147.25 0.490572 1.41116 0
M  V30 55497 H 5149.13 -1.32731 3.99951 0
M  V30 55498 H 5147.81 -1.57297 2.82912 0
M  V30 55499 H 5146.72 0.575941 3.6964 0
M  V30 55500 H 5148.05 0.7383 4.86631 0
M  V30 55501 N 5149.7 -1.50202 0.477206 0
M  V30 55502 C 5150.93 -2.07263 -0.0754257 0
M  V30 55503 C 5151.35 -1.33805 -1.32203 0
M  V30 55504 O 5150.71 -0.387545 -1.7711 0
M  V30 55505 C 5150.76 -3.59029 -0.336222 0
M  V30 55506 O 5149.86 -3.87344 -1.41556 0
M  V30 55507 H 5149.2 -0.663815 0.0156853 0
M  V30 55508 H 5151.73 -1.93319 0.670004 0
M  V30 55509 H 5151.74 -4.03929 -0.574892 0
M  V30 55510 H 5150.42 -4.1191 0.574695 0
M  V30 55511 H 5148.99 -3.54277 -1.16372 0
M  V30 55512 N 5151.18 -0.210054 -1.56194 0
M  V30 55513 C 5152.11 0.699668 -2.22771 0
M  V30 55514 C 5153.09 1.20989 -1.19565 0
M  V30 55515 O 5154.27 1.25599 -1.48116 0
M  V30 55516 C 5151.4 1.91292 -2.8987 0
M  V30 55517 C 5150.36 1.53701 -3.9945 0
M  V30 55518 C 5149.68 2.8281 -4.53787 0
M  V30 55519 C 5150.98 0.735655 -5.17093 0
M  V30 55520 H 5152.68 0.144611 -2.99051 0
M  V30 55521 H 5150.22 0.0681139 -1.43839 0
M  V30 55522 H 5152.18 2.55468 -3.35133 0
M  V30 55523 H 5150.9 2.49275 -2.1102 0
M  V30 55524 H 5149.56 0.918767 -3.549 0
M  V30 55525 H 5149.21 3.38914 -3.71681 0
M  V30 55526 H 5148.91 2.58396 -5.27736 0
M  V30 55527 H 5150.43 3.47948 -5.01761 0
M  V30 55528 H 5151.85 1.28085 -5.58809 0
M  V30 55529 H 5150.24 0.589062 -5.97202 0
M  V30 55530 H 5151.31 -0.260174 -4.84202 0
M  V30 55531 N 5152.66 1.57472 0.0634368 0
M  V30 55532 C 5153.88 1.91889 0.773699 0
M  V30 55533 C 5154.3 0.806793 1.70694 0
M  V30 55534 O 5153.66 -0.21932 1.81177 0
M  V30 55535 C 5153.71 3.26097 1.56022 0
M  V30 55536 O 5153.43 4.33031 0.664488 0
M  V30 55537 C 5154.93 3.74581 2.37074 0
M  V30 55538 H 5152.15 0.634082 0.219503 0
M  V30 55539 H 5154.69 2.04476 0.0312109 0
M  V30 55540 H 5152.85 3.15012 2.25491 0
M  V30 55541 H 5153.26 5.10295 1.2124 0
M  V30 55542 H 5154.74 4.71094 2.87705 0
M  V30 55543 H 5155.21 3.04014 3.16973 0
M  V30 55544 H 5155.82 3.88637 1.72746 0
M  V30 55545 N 5154.13 -0.335013 1.53998 0
M  V30 55546 C 5155.36 -1.09853 1.75918 0
M  V30 55547 C 5155.78 -1.81306 0.500979 0
M  V30 55548 O 5155.14 -1.72856 -0.546869 0
M  V30 55549 C 5155.19 -2.08112 2.94486 0
M  V30 55550 O 5154.29 -3.15795 2.6523 0
M  V30 55551 H 5153.64 -0.317293 0.583285 0
M  V30 55552 H 5156.17 -0.382801 2.00987 0
M  V30 55553 H 5156.18 -2.51184 3.21513 0
M  V30 55554 H 5154.85 -1.55503 3.85735 0
M  V30 55555 H 5153.43 -2.7748 2.49117 0
M  V30 55556 N 5155.61 -1.45876 -0.596479 0
M  V30 55557 C 5156.84 -1.53794 -1.37952 0
M  V30 55558 C 5157.25 -0.173152 -1.88406 0
M  V30 55559 O 5156.59 0.83744 -1.63501 0
M  V30 55560 C 5156.66 -2.47053 -2.61161 0
M  V30 55561 C 5156.32 -3.93573 -2.3227 0
M  V30 55562 C 5157.32 -4.83169 -1.91948 0
M  V30 55563 C 5155 -4.38588 -2.44839 0
M  V30 55564 C 5157 -6.15788 -1.64571 0
M  V30 55565 C 5154.68 -5.71246 -2.17075 0
M  V30 55566 C 5155.68 -6.59665 -1.77005 0
M  V30 55567 O 5155.37 -7.89863 -1.49573 0
M  V30 55568 H 5155.1 -0.523015 -0.428289 0
M  V30 55569 H 5157.65 -1.91858 -0.733462 0
M  V30 55570 H 5155.88 -2.03981 -3.28525 0
M  V30 55571 H 5157.57 -2.45531 -3.23217 0
M  V30 55572 H 5158.34 -4.49652 -1.81764 0
M  V30 55573 H 5154.22 -3.7 -2.74993 0
M  V30 55574 H 5157.76 -6.84761 -1.33221 0
M  V30 55575 H 5153.66 -6.04314 -2.26879 0
M  V30 55576 H 5154.43 -8.01997 -1.63533 0
M  V30 55577 N 5157.09 0.839943 -1.33352 0
M  V30 55578 C 5158.34 1.59513 -1.24748 0
M  V30 55579 C 5158.67 1.93599 0.187009 0
M  V30 55580 O 5157.92 1.58786 1.14392 0
M  V30 55581 C 5158.22 2.91563 -2.06702 0
M  V30 55582 C 5157.89 2.76844 -3.55905 0
M  V30 55583 C 5156.55 2.72537 -3.96582 0
M  V30 55584 C 5158.9 2.61725 -4.50721 0
M  V30 55585 C 5156.23 2.51009 -5.30293 0
M  V30 55586 C 5158.58 2.41732 -5.84593 0
M  V30 55587 C 5157.24 2.35826 -6.24454 0
M  V30 55588 H 5156.51 0.583698 -0.456484 0
M  V30 55589 H 5159.16 0.973203 -1.64927 0
M  V30 55590 H 5157.47 3.57955 -1.59296 0
M  V30 55591 H 5159.16 3.49046 -1.97403 0
M  V30 55592 H 5155.75 2.81028 -3.23607 0
M  V30 55593 H 5159.94 2.64087 -4.20204 0
M  V30 55594 H 5155.19 2.44883 -5.60216 0
M  V30 55595 H 5159.37 2.29016 -6.57666 0
M  V30 55596 H 5156.99 2.18906 -7.28 0
M  V30 55597 N 5158.57 1.16803 1.05806 0
M  V30 55598 C 5159.79 0.977467 1.82922 0
M  V30 55599 C 5160.22 -0.46945 1.82148 0
M  V30 55600 O 5159.58 -1.33572 1.2259 0
M  V30 55601 C 5159.62 1.51555 3.27206 0
M  V30 55602 O 5158.73 0.725164 4.05974 0
M  V30 55603 H 5158.07 0.347494 0.565813 0
M  V30 55604 H 5160.6 1.55156 1.33371 0
M  V30 55605 H 5160.61 1.53515 3.78017 0
M  V30 55606 H 5159.28 2.56883 3.27084 0
M  V30 55607 H 5157.86 0.776468 3.64726 0
M  V30 55608 N 5160.05 -1.24424 0.967287 0
M  V30 55609 C 5161.3 -1.91787 0.624546 0
M  V30 55610 C 5161.61 -1.76451 -0.844067 0
M  V30 55611 O 5162.82 -2.385 -1.29731 0
M  V30 55612 C 5161.27 -3.43739 1.06638 0
M  V30 55613 C 5160.88 -3.67762 2.55842 0
M  V30 55614 C 5162.62 -4.16955 0.796767 0
M  V30 55615 C 5160.53 -5.13283 2.9376 0
M  V30 55616 H 5159.46 -0.718102 0.229882 0
M  V30 55617 H 5162.11 -1.41077 1.17344 0
M  V30 55618 H 5160.49 -3.93483 0.445802 0
M  V30 55619 H 5161.67 -3.28619 3.23026 0
M  V30 55620 H 5159.98 -3.07831 2.80409 0
M  V30 55621 H 5162.58 -5.24167 1.05608 0
M  V30 55622 H 5162.92 -4.15443 -0.267017 0
M  V30 55623 H 5163.46 -3.73159 1.37829 0
M  V30 55624 H 5160.19 -5.19917 3.99208 0
M  V30 55625 H 5159.71 -5.53425 2.31259 0
M  V30 55626 H 5161.39 -5.81511 2.83643 0
M  V30 55627 N 5161.53 -0.737353 -1.39287 0
M  V30 55628 C 5162.44 -0.100546 -2.34384 0
M  V30 55629 C 5163.45 0.719226 -1.5844 0
M  V30 55630 O 5164.63 0.647149 -1.9072 0
M  V30 55631 C 5161.69 0.794207 -3.37481 0
M  V30 55632 C 5160.75 -0.0380854 -4.29283 0
M  V30 55633 C 5159.99 0.814056 -5.27455 0
M  V30 55634 O 5160.21 2.0527 -5.32185 0
M  V30 55635 O 5159.14 0.241468 -6.01415 0
M  V30 55636 H 5162.97 -0.885509 -2.90504 0
M  V30 55637 H 5160.55 -0.498049 -1.40854 0
M  V30 55638 H 5162.44 1.30608 -4.00649 0
M  V30 55639 H 5161.11 1.55794 -2.83743 0
M  V30 55640 H 5160.02 -0.595535 -3.69329 0
M  V30 55641 H 5161.35 -0.764097 -4.86233 0
M  V30 55642 N 5163 1.49946 -0.485165 0
M  V30 55643 C 5164.23 2.073 0.064433 0
M  V30 55644 C 5164.65 1.34505 1.31492 0
M  V30 55645 O 5164.01 0.396932 1.76902 0
M  V30 55646 C 5164.06 3.59202 0.317177 0
M  V30 55647 O 5163.16 3.88089 1.395 0
M  V30 55648 H 5162.5 0.663722 -0.0192055 0
M  V30 55649 H 5165.03 1.92961 -0.680246 0
M  V30 55650 H 5165.04 4.04229 0.553462 0
M  V30 55651 H 5163.72 4.116 -0.596532 0
M  V30 55652 H 5162.3 3.54889 1.14492 0
M  V30 55653 N 5164.48 0.218335 1.5608 0
M  V30 55654 C 5165.71 -0.42223 2.03057 0
M  V30 55655 C 5166.13 -1.52786 1.09718 0
M  V30 55656 O 5165.49 -1.81102 0.0847823 0
M  V30 55657 C 5165.54 -0.934055 3.48293 0
M  V30 55658 O 5164.64 -2.04561 3.5809 0
M  V30 55659 H 5163.98 -0.0959533 0.65703 0
M  V30 55660 H 5166.51 0.336029 2.01822 0
M  V30 55661 H 5166.52 -1.2447 3.8855 0
M  V30 55662 H 5165.2 -0.124817 4.15713 0
M  V30 55663 H 5163.77 -1.74184 3.29719 0
M  V30 55664 N 5165.96 -1.57504 -0.0550848 0
M  V30 55665 C 5167.19 -1.92297 -0.763512 0
M  V30 55666 C 5167.6 -0.815833 -1.70263 0
M  V30 55667 O 5166.96 0.209708 -1.81291 0
M  V30 55668 C 5167.01 -3.2692 -1.54291 0
M  V30 55669 O 5166.73 -4.33378 -0.641514 0
M  V30 55670 C 5168.23 -3.75833 -2.35084 0
M  V30 55671 H 5165.45 -0.635237 -0.216137 0
M  V30 55672 H 5168 -2.0449 -0.0203666 0
M  V30 55673 H 5166.15 -3.16203 -2.23817 0
M  V30 55674 H 5166.57 -5.10931 -1.18532 0
M  V30 55675 H 5168.04 -4.72613 -2.85203 0
M  V30 55676 H 5168.52 -3.05691 -3.15356 0
M  V30 55677 H 5169.12 -3.89548 -1.70682 0
M  V30 55678 N 5167.44 0.326842 -1.54174 0
M  V30 55679 C 5168.38 1.4021 -1.8333 0
M  V30 55680 C 5169.35 1.51536 -0.68016 0
M  V30 55681 O 5170.54 1.66808 -0.926264 0
M  V30 55682 C 5167.68 2.76619 -2.06339 0
M  V30 55683 C 5166.79 2.73951 -3.34028 0
M  V30 55684 C 5165.93 4.02186 -3.47016 0
M  V30 55685 C 5164.97 3.93812 -4.68592 0
M  V30 55686 N 5164.1 5.1377 -4.78524 0
M  V30 55687 H 5168.94 1.14646 -2.75064 0
M  V30 55688 H 5166.48 0.555041 -1.36227 0
M  V30 55689 H 5168.44 3.55914 -2.17671 0
M  V30 55690 H 5167.07 3.00499 -1.179 0
M  V30 55691 H 5166.12 1.86666 -3.31452 0
M  V30 55692 H 5167.43 2.63646 -4.23429 0
M  V30 55693 H 5166.59 4.89911 -3.57872 0
M  V30 55694 H 5165.33 4.15293 -2.55701 0
M  V30 55695 H 5164.33 3.04471 -4.57796 0
M  V30 55696 H 5165.56 3.82273 -5.61288 0
M  V30 55697 H 5163.5 5.27389 -3.90124 0
M  V30 55698 H 5163.42 5.05787 -5.61886 0
M  V30 55699 H 5164.69 6.03219 -4.93708 0
M  V30 55700 N 5168.92 1.46191 0.588735 0
M  V30 55701 C 5170.16 1.5089 1.3445 0
M  V30 55702 C 5170.48 0.159623 1.94346 0
M  V30 55703 O 5169.75 -0.813177 1.78225 0
M  V30 55704 H 5168.33 0.555724 0.499179 0
M  V30 55705 H 5171 1.82279 0.68995 0
M  V30 55706 H 5170.09 2.25824 2.1543 0
M  V30 55707 N 5170.39 -0.832859 1.33795 0
M  V30 55708 C 5171.67 -1.57355 1.16184 0
M  V30 55709 C 5172.05 -2.09373 -0.269458 0
M  V30 55710 O 5171.4 -1.89998 -1.26937 0
M  V30 55711 C 5171.61 -2.70271 2.20804 0
M  V30 55712 C 5172.96 -3.39296 2.55271 0
M  V30 55713 O 5173.98 -2.80518 2.19518 0
M  V30 55714 O 5172.84 -4.45417 3.16648 0
M  V30 55715 H 5169.93 -0.694009 0.449755 0
M  V30 55716 H 5172.48 -0.875093 1.45397 0
M  V30 55717 H 5171.25 -2.29516 3.16919 0
M  V30 55718 H 5170.87 -3.47776 1.92712 0
M  V30 55719 N 5171.87 -1.17362 -1.05185 0
M  V30 55720 C 5173.12 -0.963475 -1.78452 0
M  V30 55721 C 5173.45 0.506637 -1.87475 0
M  V30 55722 O 5172.73 1.37606 -1.37458 0
M  V30 55723 C 5173.01 -1.60531 -3.22338 0
M  V30 55724 C 5172.86 -3.14752 -3.21327 0
M  V30 55725 C 5174.18 -1.30925 -4.20174 0
M  V30 55726 H 5171.3 -0.351435 -0.647814 0
M  V30 55727 H 5173.94 -1.44862 -1.22943 0
M  V30 55728 H 5172.09 -1.19278 -3.69736 0
M  V30 55729 H 5173.76 -3.65063 -2.82004 0
M  V30 55730 H 5172.01 -3.47499 -2.59666 0
M  V30 55731 H 5172.68 -3.54789 -4.22881 0
M  V30 55732 H 5175.15 -1.66648 -3.81271 0
M  V30 55733 H 5174.03 -1.78419 -5.19093 0
M  V30 55734 H 5174.29 -0.230063 -4.41501 0
M  V30 55735 N 5173.35 1.23909 -0.973872 0
M  V30 55736 C 5174.3 2.2513 -0.508445 0
M  V30 55737 C 5175.27 1.59909 0.449251 0
M  V30 55738 O 5176.45 1.87407 0.358247 0
M  V30 55739 C 5173.59 3.4458 0.189301 0
M  V30 55740 C 5172.7 4.24379 -0.807888 0
M  V30 55741 C 5171.84 5.31131 -0.0856182 0
M  V30 55742 C 5170.88 6.02632 -1.07246 0
M  V30 55743 N 5170.02 7.01072 -0.379781 0
M  V30 55744 H 5174.86 2.64308 -1.37642 0
M  V30 55745 H 5172.39 1.29921 -0.689848 0
M  V30 55746 H 5174.35 4.12708 0.610588 0
M  V30 55747 H 5172.98 3.06222 1.02118 0
M  V30 55748 H 5172.03 3.5573 -1.34759 0
M  V30 55749 H 5173.34 4.73773 -1.56015 0
M  V30 55750 H 5172.5 6.05423 0.393359 0
M  V30 55751 H 5171.24 4.82661 0.699291 0
M  V30 55752 H 5170.24 5.27137 -1.56225 0
M  V30 55753 H 5171.47 6.53191 -1.85792 0
M  V30 55754 H 5169.41 6.54863 0.386039 0
M  V30 55755 H 5169.33 7.48378 -1.0708 0
M  V30 55756 H 5170.6 7.79462 0.0770244 0
M  V30 55757 N 5174.83 0.744729 1.38894 0
M  V30 55758 C 5176.08 0.296368 1.99915 0
M  V30 55759 C 5176.4 -1.1232 1.59403 0
M  V30 55760 O 5175.67 -1.76655 0.846751 0
M  V30 55761 H 5174.25 0.106587 0.739357 0
M  V30 55762 H 5176.91 0.956853 1.69795 0
M  V30 55763 H 5176.01 0.352465 3.10103 0
M  V30 55764 N 5176.31 -1.49687 0.49311 0
M  V30 55765 C 5177.53 -2.07331 -0.0534385 0
M  V30 55766 C 5177.96 -1.352 -1.30777 0
M  V30 55767 O 5177.31 -0.406308 -1.76689 0
M  V30 55768 C 5177.36 -3.59366 -0.298124 0
M  V30 55769 O 5176.47 -3.88824 -1.3744 0
M  V30 55770 H 5175.81 -0.663611 0.0227251 0
M  V30 55771 H 5178.34 -1.92597 0.69047 0
M  V30 55772 H 5178.35 -4.04516 -0.532017 0
M  V30 55773 H 5177.02 -4.11278 0.618352 0
M  V30 55774 H 5175.6 -3.55491 -1.12608 0
M  V30 55775 N 5177.78 -0.226609 -1.55962 0
M  V30 55776 C 5179.03 0.404317 -1.98729 0
M  V30 55777 C 5179.36 1.59055 -1.11423 0
M  V30 55778 O 5178.64 1.93729 -0.173039 0
M  V30 55779 C 5178.92 0.833958 -3.5031 0
M  V30 55780 C 5178.77 -0.356262 -4.48387 0
M  V30 55781 C 5180.09 1.68831 -4.06429 0
M  V30 55782 H 5177.21 0.145489 -0.722497 0
M  V30 55783 H 5179.85 -0.323857 -1.8722 0
M  V30 55784 H 5178 1.45441 -3.60249 0
M  V30 55785 H 5179.68 -0.994479 -4.50453 0
M  V30 55786 H 5177.92 -1.00285 -4.22049 0
M  V30 55787 H 5178.59 -0.0126273 -5.51999 0
M  V30 55788 H 5181.07 1.16475 -3.99466 0
M  V30 55789 H 5179.94 1.95782 -5.12797 0
M  V30 55790 H 5180.2 2.65335 -3.53624 0
M  V30 55791 N 5179.26 1.57531 0.0467312 0
M  V30 55792 C 5180.19 2.08428 1.05261 0
M  V30 55793 C 5181.17 0.98299 1.38821 0
M  V30 55794 O 5182.36 1.25721 1.48013 0
M  V30 55795 C 5179.49 2.54906 2.35882 0
M  V30 55796 C 5178.44 3.69139 2.16611 0
M  V30 55797 C 5177.77 4.01759 3.52837 0
M  V30 55798 C 5179.07 4.98248 1.56672 0
M  V30 55799 H 5180.76 2.92719 0.628978 0
M  V30 55800 H 5178.31 1.40817 0.301106 0
M  V30 55801 H 5180.26 2.8913 3.06564 0
M  V30 55802 H 5178.99 1.67676 2.80272 0
M  V30 55803 H 5177.64 3.35236 1.48365 0
M  V30 55804 H 5177.29 3.11622 3.94843 0
M  V30 55805 H 5176.99 4.78693 3.40773 0
M  V30 55806 H 5178.52 4.38502 4.24909 0
M  V30 55807 H 5179.93 5.30543 2.17249 0
M  V30 55808 H 5178.33 5.79674 1.55234 0
M  V30 55809 H 5179.4 4.81988 0.530658 0
M  V30 55810 N 5180.74 -0.318661 1.54345 0
M  V30 55811 C 5181.97 -1.07981 1.77073 0
M  V30 55812 C 5182.39 -1.80764 0.52018 0
M  V30 55813 O 5181.75 -1.73426 -0.528505 0
M  V30 55814 C 5181.8 -2.04977 2.96676 0
M  V30 55815 O 5180.9 -3.12964 2.68565 0
M  V30 55816 H 5180.24 -0.311088 0.586617 0
M  V30 55817 H 5182.77 -0.361462 2.01382 0
M  V30 55818 H 5182.78 -2.4776 3.24159 0
M  V30 55819 H 5181.46 -1.51403 3.87363 0
M  V30 55820 H 5180.03 -2.74822 2.52046 0
M  V30 55821 N 5182.22 -1.46501 -0.580974 0
M  V30 55822 C 5183.63 -1.31494 -0.904517 0
M  V30 55823 C 5183.83 -0.287668 -1.99436 0
M  V30 55824 O 5182.89 0.309159 -2.506 0
M  V30 55825 C 5184.2 -2.70167 -1.32023 0
M  V30 55826 C 5185.75 -2.78271 -1.43298 0
M  V30 55827 C 5186.23 -4.1753 -1.88235 0
M  V30 55828 N 5187.72 -4.19956 -1.95426 0
M  V30 55829 C 5188.45 -5.24602 -2.31474 0
M  V30 55830 N 5187.95 -6.39574 -2.66303 0
M  V30 55831 N 5189.74 -5.11969 -2.32044 0
M  V30 55832 H 5181.89 -2.11945 0.13893 0
M  V30 55833 H 5184.16 -0.948 -0.000515201 0
M  V30 55834 H 5183.86 -3.46657 -0.593432 0
M  V30 55835 H 5183.74 -3.00387 -2.28139 0
M  V30 55836 H 5186.12 -2.02068 -2.15064 0
M  V30 55837 H 5186.2 -2.51734 -0.454292 0
M  V30 55838 H 5185.85 -4.94229 -1.17047 0
M  V30 55839 H 5185.78 -4.41476 -2.87065 0
M  V30 55840 H 5188.27 -3.37002 -1.70992 0
M  V30 55841 H 5188.58 -7.15197 -2.92768 0
M  V30 55842 H 5186.93 -6.42932 -2.63937 0
M  V30 55843 H 5190.12 -4.21185 -2.04258 0
M  V30 55844 H 5190.29 -5.93635 -2.5981 0
M  V30 55845 N 5183.7 0.825752 -1.34235 0
M  V30 55846 C 5184.61 1.96835 -1.27645 0
M  V30 55847 C 5185.62 1.73018 -0.18463 0
M  V30 55848 O 5186.8 1.9717 -0.410594 0
M  V30 55849 C 5183.86 3.31081 -1.0289 0
M  V30 55850 C 5182.92 3.67925 -2.212 0
M  V30 55851 C 5182.16 4.95765 -1.97618 0
M  V30 55852 O 5182.38 5.62718 -0.933008 0
M  V30 55853 O 5181.31 5.30421 -2.84495 0
M  V30 55854 H 5185.14 2.05338 -2.23763 0
M  V30 55855 H 5182.73 0.960731 -1.14413 0
M  V30 55856 H 5184.61 4.11489 -0.908551 0
M  V30 55857 H 5183.28 3.23551 -0.0980958 0
M  V30 55858 H 5182.19 2.87972 -2.38794 0
M  V30 55859 H 5183.52 3.80136 -3.12661 0
M  V30 55860 N 5185.17 1.17918 1.04561 0
M  V30 55861 C 5186.4 0.994779 1.81074 0
M  V30 55862 C 5186.81 -0.460081 1.83521 0
M  V30 55863 O 5186.16 -1.33132 1.26576 0
M  V30 55864 C 5186.22 1.4671 3.28202 0
M  V30 55865 C 5185.88 2.94535 3.49425 0
M  V30 55866 C 5186.88 3.92426 3.41025 0
M  V30 55867 C 5184.56 3.32854 3.76183 0
M  V30 55868 C 5186.56 5.26633 3.59077 0
M  V30 55869 C 5184.24 4.67225 3.93883 0
M  V30 55870 C 5185.24 5.63924 3.8533 0
M  V30 55871 O 5184.93 6.95863 4.02529 0
M  V30 55872 H 5184.66 0.351817 0.577235 0
M  V30 55873 H 5187.22 1.56776 1.32704 0
M  V30 55874 H 5185.45 0.837725 3.77517 0
M  V30 55875 H 5187.14 1.24737 3.86258 0
M  V30 55876 H 5187.9 3.64168 3.20323 0
M  V30 55877 H 5183.78 2.58152 3.8194 0
M  V30 55878 H 5187.32 6.02095 3.52317 0
M  V30 55879 H 5183.22 4.95187 4.14078 0
M  V30 55880 H 5183.99 7.02694 4.19718 0
M  V30 55881 N 5186.65 -1.23391 0.980429 0
M  V30 55882 C 5187.88 -1.96382 0.667004 0
M  V30 55883 C 5188.3 -1.7209 -0.759395 0
M  V30 55884 O 5187.66 -0.992381 -1.51728 0
M  V30 55885 C 5187.71 -3.47495 0.9633 0
M  V30 55886 O 5186.81 -4.12363 0.05535 0
M  V30 55887 H 5186.15 -0.614788 0.250861 0
M  V30 55888 H 5188.68 -1.56826 1.31403 0
M  V30 55889 H 5188.69 -3.97949 0.900017 0
M  V30 55890 H 5187.37 -3.64503 2.00276 0
M  V30 55891 H 5185.95 -3.72498 0.173045 0
M  V30 55892 N 5188.13 -0.752084 -1.38497 0
M  V30 55893 C 5189.38 -0.306966 -1.99755 0
M  V30 55894 C 5189.7 1.11473 -1.59996 0
M  V30 55895 O 5188.97 1.76203 -0.856107 0
M  V30 55896 H 5187.55 -0.110506 -0.738781 0
M  V30 55897 H 5190.21 -0.965844 -1.69285 0
M  V30 55898 H 5189.31 -0.368906 -3.09912 0
M  V30 55899 N 5189.61 1.49423 -0.501041 0
M  V30 55900 C 5190.84 2.06861 0.0402716 0
M  V30 55901 C 5191.25 1.36136 1.30814 0
M  V30 55902 O 5190.61 0.439709 1.77124 0
M  V30 55903 C 5190.66 3.60271 0.297775 0
M  V30 55904 O 5190.38 4.28335 -0.919837 0
M  V30 55905 C 5191.88 4.34422 0.882723 0
M  V30 55906 H 5189.1 0.670687 -0.0204855 0
M  V30 55907 H 5191.65 1.92204 -0.69841 0
M  V30 55908 H 5189.8 3.74631 0.986438 0
M  V30 55909 H 5190.22 5.20038 -0.682711 0
M  V30 55910 H 5191.69 5.42635 1.01248 0
M  V30 55911 H 5192.17 3.96904 1.88052 0
M  V30 55912 H 5192.77 4.24669 0.231527 0
M  V30 55913 N 5191.09 0.234877 1.5584 0
M  V30 55914 C 5192.34 -0.393615 1.97822 0
M  V30 55915 C 5192.65 -1.59943 1.12595 0
M  V30 55916 O 5193.86 -2.29829 1.44536 0
M  V30 55917 C 5192.31 -0.751687 3.51963 0
M  V30 55918 C 5191.92 0.432054 4.45912 0
M  V30 55919 C 5193.66 -1.34504 4.02628 0
M  V30 55920 C 5191.57 0.0508055 5.91378 0
M  V30 55921 H 5190.5 -0.150838 0.738758 0
M  V30 55922 H 5193.15 0.333196 1.8045 0
M  V30 55923 H 5191.53 -1.53629 3.64985 0
M  V30 55924 H 5192.71 1.20951 4.44643 0
M  V30 55925 H 5191.02 0.939528 4.05662 0
M  V30 55926 H 5193.62 -1.64341 5.08818 0
M  V30 55927 H 5193.96 -2.26541 3.49263 0
M  V30 55928 H 5194.5 -0.623591 3.92882 0
M  V30 55929 H 5191.23 0.938007 6.48754 0
M  V30 55930 H 5190.75 -0.690689 5.9581 0
M  V30 55931 H 5192.43 -0.371233 6.45934 0
M  V30 55932 N 5192.57 -1.57553 -0.0383763 0
M  V30 55933 C 5193.53 -2.0493 -1.02646 0
M  V30 55934 C 5194.53 -0.951813 -1.29604 0
M  V30 55935 O 5195.72 -1.21572 -1.24763 0
M  V30 55936 C 5192.85 -2.45836 -2.36173 0
M  V30 55937 H 5194.04 -2.93476 -0.617405 0
M  V30 55938 H 5191.6 -1.5368 -0.284977 0
M  V30 55939 H 5192.33 -1.60418 -2.81845 0
M  V30 55940 H 5192.12 -3.25953 -2.17938 0
M  V30 55941 H 5193.61 -2.8295 -3.0713 0
M  V30 55942 N 5194.04 0.310471 -1.54512 0
M  V30 55943 C 5195.27 1.0704 -1.77643 0
M  V30 55944 C 5195.69 1.80486 -0.529759 0
M  V30 55945 O 5195.05 1.73704 0.5193 0
M  V30 55946 C 5195.1 2.03401 -2.97759 0
M  V30 55947 O 5194.2 3.11536 -2.70221 0
M  V30 55948 H 5193.54 0.307973 -0.588259 0
M  V30 55949 H 5196.07 0.350777 -2.01571 0
M  V30 55950 H 5196.08 2.46037 -3.25469 0
M  V30 55951 H 5194.76 1.49347 -3.8816 0
M  V30 55952 H 5193.34 2.73481 -2.535 0
M  V30 55953 N 5195.52 1.46807 0.573196 0
M  V30 55954 C 5196.43 1.60693 1.70924 0
M  V30 55955 C 5197.45 0.490143 1.66954 0
M  V30 55956 O 5198.62 0.755548 1.86691 0
M  V30 55957 C 5195.69 1.6027 3.07432 0
M  V30 55958 C 5194.75 2.83253 3.22593 0
M  V30 55959 C 5193.98 2.82841 4.52589 0
M  V30 55960 O 5194.21 1.92132 5.37067 0
M  V30 55961 O 5193.14 3.74505 4.712 0
M  V30 55962 H 5196.97 2.56787 1.62154 0
M  V30 55963 H 5194.55 1.29709 0.741354 0
M  V30 55964 H 5196.43 1.62763 3.88698 0
M  V30 55965 H 5195.11 0.673379 3.16619 0
M  V30 55966 H 5194.01 2.8631 2.40784 0
M  V30 55967 H 5195.35 3.75426 3.18302 0
M  V30 55968 N 5197 -0.818622 1.34671 0
M  V30 55969 C 5197.96 -1.91136 1.2649 0
M  V30 55970 C 5198.96 -1.59799 0.1791 0
M  V30 55971 O 5200.15 -1.68758 0.432011 0
M  V30 55972 C 5197.28 -3.27281 0.953926 0
M  V30 55973 H 5198.48 -1.99812 2.23641 0
M  V30 55974 H 5196.03 -1.0131 1.19021 0
M  V30 55975 H 5196.77 -3.24297 -0.0142287 0
M  V30 55976 H 5196.55 -3.5141 1.73936 0
M  V30 55977 H 5198.04 -4.07295 0.92197 0
M  V30 55978 N 5198.48 -1.18471 -1.03934 0
M  V30 55979 C 5199.43 -0.909361 -2.14087 0
M  V30 55980 C 5200.42 0.130869 -1.68894 0
M  V30 55981 O 5201.63 -0.0174035 -1.79992 0
M  V30 55982 H 5198 -0.276604 -0.699281 0
M  V30 55983 H 5199.97 -1.84522 -2.34508 0
M  V30 55984 C 5198.72 -0.453044 -3.44736 0
M  V30 55985 H 5198.04 -1.24499 -3.79921 0
M  V30 55986 H 5199.48 -0.299386 -4.22942 0
M  V30 55987 C 5197.94 0.831321 -3.26482 0
M  V30 55988 O 5198.47 1.89522 -3.54181 0
M  V30 55989 N 5196.68 0.784447 -2.79812 0
M  V30 55990 H 5196.23 -0.0815652 -2.57471 0
M  V30 55991 H 5196.18 1.64422 -2.67979 0
M  V30 55992 N 5199.96 1.22869 -0.986959 0
M  V30 55993 C 5201.18 1.95485 -0.677732 0
M  V30 55994 C 5201.6 1.72981 0.756511 0
M  V30 55995 O 5200.96 1.02523 1.50981 0
M  V30 55996 C 5201.01 3.48333 -0.96676 0
M  V30 55997 O 5200.73 3.70079 -2.34464 0
M  V30 55998 C 5202.23 4.3814 -0.674402 0
M  V30 55999 H 5199.45 0.622203 -0.251207 0
M  V30 56000 H 5201.99 1.56183 -1.32012 0
M  V30 56001 H 5200.15 3.85626 -0.370273 0
M  V30 56002 H 5200.56 4.64323 -2.43935 0
M  V30 56003 H 5202.04 5.44161 -0.92695 0
M  V30 56004 H 5202.51 4.37451 0.391575 0
M  V30 56005 H 5203.12 4.06465 -1.25167 0
M  V30 56006 N 5201.43 0.759419 1.38096 0
M  V30 56007 C 5202.66 0.328706 2.03968 0
M  V30 56008 C 5203.07 -1.04983 1.57401 0
M  V30 56009 O 5202.41 -1.67915 0.744991 0
M  V30 56010 C 5202.48 0.279342 3.58413 0
M  V30 56011 C 5202.14 1.6004 4.28061 0
M  V30 56012 C 5203.14 2.55064 4.53032 0
M  V30 56013 C 5200.82 1.87144 4.66136 0
M  V30 56014 C 5202.82 3.75408 5.15119 0
M  V30 56015 C 5200.5 3.07761 5.27945 0
M  V30 56016 C 5201.5 4.01713 5.52373 0
M  V30 56017 O 5201.19 5.20208 6.12894 0
M  V30 56018 H 5200.92 0.137467 0.661875 0
M  V30 56019 H 5203.48 1.03088 1.77657 0
M  V30 56020 H 5201.71 -0.479119 3.8372 0
M  V30 56021 H 5203.39 -0.122638 4.05715 0
M  V30 56022 H 5204.16 2.35402 4.24041 0
M  V30 56023 H 5200.04 1.14849 4.46465 0
M  V30 56024 H 5203.58 4.48756 5.34101 0
M  V30 56025 H 5199.48 3.27313 5.5636 0
M  V30 56026 H 5200.25 5.20868 6.31379 0
M  V30 56027 N 5202.91 -1.49156 0.508959 0
M  V30 56028 C 5203.84 -2.3211 -0.254388 0
M  V30 56029 C 5204.82 -1.40757 -0.955062 0
M  V30 56030 O 5206.01 -1.69661 -0.944924 0
M  V30 56031 C 5203.14 -3.21463 -1.31449 0
M  V30 56032 C 5202.09 -4.21673 -0.73322 0
M  V30 56033 C 5201.42 -5.00016 -1.89443 0
M  V30 56034 C 5202.72 -5.21543 0.281059 0
M  V30 56035 H 5204.41 -2.96178 0.438054 0
M  V30 56036 H 5201.96 -1.42429 0.212112 0
M  V30 56037 H 5203.91 -3.78312 -1.85629 0
M  V30 56038 H 5202.63 -2.55354 -2.03623 0
M  V30 56039 H 5201.29 -3.6598 -0.213103 0
M  V30 56040 H 5200.94 -4.30347 -2.60404 0
M  V30 56041 H 5200.64 -5.67826 -1.51153 0
M  V30 56042 H 5202.17 -5.59711 -2.44042 0
M  V30 56043 H 5203.58 -5.73039 -0.172894 0
M  V30 56044 H 5201.98 -5.97288 0.580216 0
M  V30 56045 H 5203.05 -4.69965 1.1942 0
M  V30 56046 N 5204.39 -0.243138 -1.55713 0
M  V30 56047 C 5205.34 0.674271 -2.22613 0
M  V30 56048 C 5206.33 1.18302 -1.21247 0
M  V30 56049 O 5207.54 1.14035 -1.39269 0
M  V30 56050 H 5203.91 0.235916 -0.714036 0
M  V30 56051 H 5205.88 0.0868398 -2.98274 0
M  V30 56052 C 5204.63 1.86195 -2.93644 0
M  V30 56053 H 5203.96 1.47962 -3.71413 0
M  V30 56054 H 5205.4 2.48118 -3.43822 0
M  V30 56055 C 5203.86 2.73077 -1.97308 0
M  V30 56056 O 5204.39 3.72492 -1.50374 0
M  V30 56057 N 5202.59 2.39565 -1.6449 0
M  V30 56058 H 5202.14 1.58773 -2.02852 0
M  V30 56059 H 5202.1 2.97972 -1.00298 0
M  V30 56060 N 5205.87 1.57571 0.0300203 0
M  V30 56061 C 5207.09 1.93881 0.736533 0
M  V30 56062 C 5207.52 0.843057 1.68149 0
M  V30 56063 O 5206.88 -0.201286 1.80179 0
M  V30 56064 C 5206.92 3.29253 1.47055 0
M  V30 56065 O 5206.03 3.21435 2.58367 0
M  V30 56066 H 5205.37 0.633742 0.198159 0
M  V30 56067 H 5207.9 2.04595 -0.0142204 0
M  V30 56068 H 5207.91 3.6412 1.84068 0
M  V30 56069 H 5206.58 4.08568 0.777497 0
M  V30 56070 H 5205.16 2.98197 2.23904 0
M  V30 56071 N 5207.35 -0.302273 1.54674 0
M  V30 56072 C 5208.29 -1.37275 1.85537 0
M  V30 56073 C 5209.26 -1.50434 0.704182 0
M  V30 56074 O 5210.45 -1.65314 0.952685 0
M  V30 56075 C 5207.59 -2.73301 2.10714 0
M  V30 56076 C 5206.7 -2.68602 3.38344 0
M  V30 56077 C 5205.84 -3.96614 3.53371 0
M  V30 56078 C 5204.88 -3.86307 4.74798 0
M  V30 56079 N 5204.01 -5.06092 4.86637 0
M  V30 56080 H 5208.85 -1.10256 2.76853 0
M  V30 56081 H 5206.39 -0.533298 1.37092 0
M  V30 56082 H 5208.35 -3.52406 2.23306 0
M  V30 56083 H 5206.98 -2.98585 1.22666 0
M  V30 56084 H 5206.03 -1.81369 3.34379 0
M  V30 56085 H 5207.34 -2.56876 4.2757 0
M  V30 56086 H 5206.5 -4.84155 3.65621 0
M  V30 56087 H 5205.23 -4.11172 2.62276 0
M  V30 56088 H 5204.24 -2.97149 4.62582 0
M  V30 56089 H 5205.46 -3.73295 5.67299 0
M  V30 56090 H 5203.41 -5.21116 3.98465 0
M  V30 56091 H 5203.33 -4.96784 5.69861 0
M  V30 56092 H 5204.6 -5.95288 5.03242 0
M  V30 56093 N 5208.82 -1.47109 -0.565403 0
M  V30 56094 C 5210.05 -1.57158 -1.35338 0
M  V30 56095 C 5210.47 -0.219313 -1.86817 0
M  V30 56096 O 5209.83 0.803481 -1.62523 0
M  V30 56097 C 5209.88 -2.59396 -2.50492 0
M  V30 56098 O 5208.98 -2.14099 -3.52471 0
M  V30 56099 H 5208.33 -0.528223 -0.402339 0
M  V30 56100 H 5210.86 -1.92824 -0.684122 0
M  V30 56101 H 5210.87 -2.79556 -2.97174 0
M  V30 56102 H 5209.54 -3.57587 -2.12378 0
M  V30 56103 H 5208.12 -2.04002 -3.1215 0
M  V30 56104 N 5210.3 0.811468 -1.35103 0
M  V30 56105 C 5211.53 1.59976 -1.31207 0
M  V30 56106 C 5211.95 1.88471 0.111486 0
M  V30 56107 O 5211.3 1.48418 1.062 0
M  V30 56108 C 5211.35 2.93392 -2.11195 0
M  V30 56109 O 5211.07 2.66136 -3.47999 0
M  V30 56110 C 5212.58 3.87768 -2.14827 0
M  V30 56111 H 5209.8 0.496906 -0.450917 0
M  V30 56112 H 5212.34 1.0088 -1.77886 0
M  V30 56113 H 5210.49 3.49016 -1.68127 0
M  V30 56114 H 5210.91 3.51287 -3.89484 0
M  V30 56115 H 5212.38 4.7851 -2.75195 0
M  V30 56116 H 5212.86 4.23993 -1.14571 0
M  V30 56117 H 5213.47 3.38081 -2.58034 0
M  V30 56118 N 5211.78 1.19021 1.03304 0
M  V30 56119 C 5213.2 0.941528 1.2887 0
M  V30 56120 C 5213.4 -0.388518 1.97719 0
M  V30 56121 O 5212.45 -1.12103 2.2625 0
M  V30 56122 C 5213.77 2.11256 2.13989 0
M  V30 56123 C 5215.31 2.15172 2.2731 0
M  V30 56124 C 5215.79 3.31715 3.158 0
M  V30 56125 N 5217.28 3.31624 3.23388 0
M  V30 56126 C 5218.01 4.18445 3.92035 0
M  V30 56127 N 5217.51 5.15413 4.62948 0
M  V30 56128 N 5219.3 4.06335 3.88392 0
M  V30 56129 H 5211.45 2.04601 0.570271 0
M  V30 56130 H 5213.72 0.894417 0.3142 0
M  V30 56131 H 5213.42 3.07488 1.70716 0
M  V30 56132 H 5213.3 2.07966 3.1469 0
M  V30 56133 H 5215.68 1.19514 2.69816 0
M  V30 56134 H 5215.77 2.22517 1.26174 0
M  V30 56135 H 5215.41 4.2765 2.74004 0
M  V30 56136 H 5215.34 3.21606 4.16986 0
M  V30 56137 H 5217.83 2.61429 2.72879 0
M  V30 56138 H 5218.14 5.78018 5.12948 0
M  V30 56139 H 5216.49 5.19365 4.61827 0
M  V30 56140 H 5219.68 3.29861 3.32129 0
M  V30 56141 H 5219.85 4.74212 4.41619 0
M  V30 56142 N 5213.26 -1.22344 0.993461 0
M  V30 56143 C 5214.48 -1.95663 0.687796 0
M  V30 56144 C 5214.91 -1.72885 -0.7411 0
M  V30 56145 O 5214.27 -1.00842 -1.50667 0
M  V30 56146 C 5214.31 -3.46454 1.0001 0
M  V30 56147 O 5213.42 -4.12281 0.0990835 0
M  V30 56148 H 5212.76 -0.612093 0.257367 0
M  V30 56149 H 5215.29 -1.55423 1.33059 0
M  V30 56150 H 5215.3 -3.96972 0.942174 0
M  V30 56151 H 5213.97 -3.62358 2.04131 0
M  V30 56152 H 5212.55 -3.72294 0.212544 0
M  V30 56153 N 5214.74 -0.766732 -1.37692 0
M  V30 56154 C 5215.96 -0.338787 -2.04614 0
M  V30 56155 C 5216.39 1.02913 -1.5745 0
M  V30 56156 O 5215.74 1.65846 -0.732445 0
M  V30 56157 C 5215.79 -0.38541 -3.58534 0
M  V30 56158 O 5214.9 0.615937 -4.07774 0
M  V30 56159 H 5214.24 -0.14755 -0.647399 0
M  V30 56160 H 5216.77 -1.04152 -1.76106 0
M  V30 56161 H 5216.78 -0.240925 -4.07288 0
M  V30 56162 H 5215.45 -1.38338 -3.92218 0
M  V30 56163 H 5214.03 0.434985 -3.70354 0
M  V30 56164 N 5216.21 1.48884 -0.516862 0
M  V30 56165 C 5217.46 2.02788 0.0220215 0
M  V30 56166 C 5217.79 1.39437 1.3517 0
M  V30 56167 O 5217.07 0.535525 1.86982 0
M  V30 56168 C 5217.35 3.59754 0.157886 0
M  V30 56169 C 5217.2 4.33607 -1.19603 0
M  V30 56170 C 5218.52 4.30987 0.890982 0
M  V30 56171 H 5215.64 0.736971 0.00652897 0
M  V30 56172 H 5218.28 1.77744 -0.67135 0
M  V30 56173 H 5216.43 3.81223 0.748434 0
M  V30 56174 H 5218.11 4.23592 -1.82668 0
M  V30 56175 H 5216.35 3.9554 -1.7813 0
M  V30 56176 H 5217.02 5.41842 -1.0541 0
M  V30 56177 H 5219.5 4.14269 0.389974 0
M  V30 56178 H 5218.37 5.4053 0.954917 0
M  V30 56179 H 5218.63 3.97343 1.93833 0
M  V30 56180 N 5217.69 0.251393 1.55582 0
M  V30 56181 C 5218.64 -0.646259 2.21567 0
M  V30 56182 C 5219.61 -1.16791 1.18106 0
M  V30 56183 O 5220.79 -1.22157 1.46569 0
M  V30 56184 C 5217.93 -1.83547 2.92241 0
M  V30 56185 C 5217.05 -1.34991 4.10367 0
M  V30 56186 C 5216.18 -2.49904 4.68745 0
M  V30 56187 C 5215.22 -1.98232 5.79112 0
M  V30 56188 N 5214.36 -3.06528 6.31652 0
M  V30 56189 H 5219.2 -0.0768833 2.97901 0
M  V30 56190 H 5216.74 -0.0261863 1.47077 0
M  V30 56191 H 5218.69 -2.53414 3.31417 0
M  V30 56192 H 5217.32 -2.37725 2.18373 0
M  V30 56193 H 5216.38 -0.545142 3.76474 0
M  V30 56194 H 5217.69 -0.931263 4.9003 0
M  V30 56195 H 5216.84 -3.27805 5.10518 0
M  V30 56196 H 5215.58 -2.95073 3.88308 0
M  V30 56197 H 5214.59 -1.18803 5.36811 0
M  V30 56198 H 5215.81 -1.54028 6.61402 0
M  V30 56199 H 5213.76 -3.51123 5.54119 0
M  V30 56200 H 5213.67 -2.69008 7.0652 0
M  V30 56201 H 5214.94 -3.84475 6.78085 0
M  V30 56202 N 5219.17 -1.57585 -0.0216635 0
M  V30 56203 C 5220.1 -2.10077 -1.01931 0
M  V30 56204 C 5221.08 -1.00495 -1.3724 0
M  V30 56205 O 5222.27 -1.2806 -1.45994 0
M  V30 56206 C 5219.4 -2.58626 -2.31797 0
M  V30 56207 C 5218.35 -3.72539 -2.1071 0
M  V30 56208 C 5217.68 -4.07322 -3.464 0
M  V30 56209 C 5218.98 -5.00678 -1.48725 0
M  V30 56210 H 5220.67 -2.93682 -0.582329 0
M  V30 56211 H 5218.22 -1.41278 -0.278665 0
M  V30 56212 H 5220.17 -2.93971 -3.01926 0
M  V30 56213 H 5218.89 -1.72114 -2.77569 0
M  V30 56214 H 5217.55 -3.37554 -1.43013 0
M  V30 56215 H 5217.2 -3.17864 -3.89835 0
M  V30 56216 H 5216.9 -4.84054 -3.33115 0
M  V30 56217 H 5218.43 -4.45207 -4.17879 0
M  V30 56218 H 5219.84 -5.33932 -2.08781 0
M  V30 56219 H 5218.24 -5.82071 -1.45992 0
M  V30 56220 H 5219.31 -4.82771 -0.45391 0
M  V30 56221 N 5220.65 0.294066 -1.54832 0
M  V30 56222 C 5221.58 1.3847 -1.82644 0
M  V30 56223 C 5222.59 1.46514 -0.709745 0
M  V30 56224 O 5223.78 1.48708 -0.987322 0
M  V30 56225 C 5220.88 2.76784 -1.95561 0
M  V30 56226 C 5220.06 2.91588 -3.2603 0
M  V30 56227 C 5219.12 4.10444 -3.29275 0
M  V30 56228 O 5218.14 4.022 -4.0277 0
M  V30 56229 N 5219.34 5.21413 -2.55163 0
M  V30 56230 H 5222.11 1.14965 -2.76773 0
M  V30 56231 H 5219.67 0.484151 -1.54491 0
M  V30 56232 H 5221.66 3.54553 -1.95126 0
M  V30 56233 H 5220.23 2.93205 -1.08395 0
M  V30 56234 H 5219.45 2.00874 -3.3918 0
M  V30 56235 H 5220.74 2.98394 -4.12114 0
M  V30 56236 H 5220.14 5.30993 -1.95096 0
M  V30 56237 H 5218.69 5.97492 -2.60475 0
M  V30 56238 N 5222.13 1.47406 0.557593 0
M  V30 56239 C 5223.38 1.53708 1.31219 0
M  V30 56240 C 5223.7 0.200811 1.93963 0
M  V30 56241 O 5222.97 -0.77519 1.7991 0
M  V30 56242 H 5221.55 0.566188 0.487279 0
M  V30 56243 H 5224.21 1.83702 0.651131 0
M  V30 56244 H 5223.3 2.30343 2.10591 0
M  V30 56245 N 5223.61 -0.804292 1.35532 0
M  V30 56246 C 5224.83 -1.59278 1.32053 0
M  V30 56247 C 5225.25 -1.88527 -0.10149 0
M  V30 56248 O 5224.61 -1.48979 -1.05411 0
M  V30 56249 C 5224.66 -2.92268 2.12748 0
M  V30 56250 O 5224.38 -2.64286 3.49406 0
M  V30 56251 C 5225.88 -3.86624 2.1688 0
M  V30 56252 H 5223.1 -0.494507 0.453546 0
M  V30 56253 H 5225.64 -0.999353 1.78419 0
M  V30 56254 H 5223.8 -3.48119 1.69976 0
M  V30 56255 H 5224.21 -3.49217 3.91341 0
M  V30 56256 H 5225.69 -4.77044 2.77729 0
M  V30 56257 H 5226.16 -4.2338 1.16818 0
M  V30 56258 H 5226.77 -3.36708 2.59823 0
M  V30 56259 N 5225.08 -1.19567 -1.02672 0
M  V30 56260 C 5226.31 -1.02562 -1.80266 0
M  V30 56261 C 5226.73 0.420992 -1.83328 0
M  V30 56262 O 5226.09 1.30274 -1.26088 0
M  V30 56263 C 5226.14 -1.60177 -3.23072 0
M  V30 56264 O 5225.24 -0.832546 -4.03909 0
M  V30 56265 H 5224.58 -0.362373 -0.556401 0
M  V30 56266 H 5227.11 -1.58637 -1.2921 0
M  V30 56267 H 5227.12 -1.63484 -3.73814 0
M  V30 56268 H 5225.8 -2.65465 -3.20158 0
M  V30 56269 H 5224.38 -0.872896 -3.6254 0
M  V30 56270 N 5226.56 1.21816 -0.999936 0
M  V30 56271 C 5227.51 2.24001 -0.556084 0
M  V30 56272 C 5228.48 1.60826 0.415231 0
M  V30 56273 O 5229.66 1.88124 0.318414 0
M  V30 56274 C 5226.8 3.44904 0.116168 0
M  V30 56275 C 5225.92 4.22569 -0.897723 0
M  V30 56276 C 5225.05 5.3083 -0.19826 0
M  V30 56277 C 5224.09 6.00221 -1.20004 0
M  V30 56278 N 5223.23 7.00109 -0.528403 0
M  V30 56279 H 5228.07 2.61329 -1.43217 0
M  V30 56280 H 5225.6 1.28429 -0.717251 0
M  V30 56281 H 5227.56 4.1391 0.522909 0
M  V30 56282 H 5226.19 3.08319 0.956 0
M  V30 56283 H 5225.24 3.52792 -1.42274 0
M  V30 56284 H 5226.56 4.70357 -1.66029 0
M  V30 56285 H 5225.71 6.06122 0.264852 0
M  V30 56286 H 5224.45 4.84035 0.596754 0
M  V30 56287 H 5223.45 5.23705 -1.67371 0
M  V30 56288 H 5224.68 6.49103 -1.99605 0
M  V30 56289 H 5222.63 6.55535 0.247046 0
M  V30 56290 H 5222.54 7.45938 -1.2293 0
M  V30 56291 H 5223.81 7.7945 -0.0883283 0
M  V30 56292 N 5228.04 0.774023 1.37283 0
M  V30 56293 C 5229.29 0.336047 1.98881 0
M  V30 56294 C 5229.6 -1.09411 1.62138 0
M  V30 56295 O 5230.81 -1.63358 2.16856 0
M  V30 56296 C 5229.26 0.549881 3.55674 0
M  V30 56297 C 5228.87 1.99044 4.01354 0
M  V30 56298 C 5230.62 0.175642 4.24136 0
M  V30 56299 C 5228.52 2.15175 5.50866 0
M  V30 56300 H 5227.45 0.121903 0.74408 0
M  V30 56301 H 5230.1 0.953474 1.56784 0
M  V30 56302 H 5228.49 -0.137036 3.95763 0
M  V30 56303 H 5229.66 2.7125 3.72505 0
M  V30 56304 H 5227.97 2.32149 3.45682 0
M  V30 56305 H 5230.57 0.274651 5.33994 0
M  V30 56306 H 5230.91 -0.874381 4.07014 0
M  V30 56307 H 5231.45 0.815195 3.89358 0
M  V30 56308 H 5228.19 3.18505 5.72918 0
M  V30 56309 H 5227.71 1.47456 5.81392 0
M  V30 56310 H 5229.39 1.95146 6.16869 0
M  V30 56311 N 5229.52 -1.48607 0.52475 0
M  V30 56312 C 5230.79 -1.95455 -0.0753963 0
M  V30 56313 C 5231.17 -1.46687 -1.51809 0
M  V30 56314 O 5230.52 -0.691052 -2.178 0
M  V30 56315 C 5230.73 -3.48981 0.03645 0
M  V30 56316 C 5232.08 -4.24415 -0.125475 0
M  V30 56317 O 5233.1 -3.5618 -0.0375987 0
M  V30 56318 O 5231.96 -5.45626 -0.308912 0
M  V30 56319 H 5229.06 -0.822905 -0.0821966 0
M  V30 56320 H 5231.6 -1.59151 0.588977 0
M  V30 56321 H 5230.38 -3.77181 1.04162 0
M  V30 56322 H 5230 -3.91965 -0.667009 0
M  V30 56323 N 5231 -0.25964 -1.55447 0
M  V30 56324 C 5232.27 0.412528 -1.912 0
M  V30 56325 C 5232.65 1.74905 -1.182 0
M  V30 56326 O 5232 2.26473 -0.303682 0
M  V30 56327 C 5232.21 0.568074 -3.44346 0
M  V30 56328 C 5233.56 0.858107 -4.15839 0
M  V30 56329 O 5234.58 0.653465 -3.50155 0
M  V30 56330 O 5233.44 1.24855 -5.32046 0
M  V30 56331 H 5230.54 0.223375 -0.796262 0
M  V30 56332 H 5233.08 -0.304649 -1.66943 0
M  V30 56333 H 5231.85 -0.373126 -3.89517 0
M  V30 56334 H 5231.48 1.33531 -3.74507 0
M  V30 56335 N 5232.47 1.57594 0.0133061 0
M  V30 56336 C 5233.72 1.89162 0.700036 0
M  V30 56337 C 5234.04 0.860209 1.75669 0
M  V30 56338 O 5235.24 1.06565 2.49712 0
M  V30 56339 C 5233.7 3.35747 1.29623 0
M  V30 56340 C 5233.31 4.47155 0.275092 0
M  V30 56341 C 5235.05 3.76442 1.96192 0
M  V30 56342 C 5232.96 5.84808 0.88052 0
M  V30 56343 H 5231.89 0.705814 0.265222 0
M  V30 56344 H 5234.54 1.83445 -0.0450575 0
M  V30 56345 H 5232.92 3.36259 2.09155 0
M  V30 56346 H 5234.09 4.58137 -0.494667 0
M  V30 56347 H 5232.41 4.15393 -0.289402 0
M  V30 56348 H 5235.01 4.76614 2.42369 0
M  V30 56349 H 5235.35 3.09258 2.78684 0
M  V30 56350 H 5235.88 3.78172 1.23413 0
M  V30 56351 H 5232.62 6.55432 0.0946709 0
M  V30 56352 H 5232.14 5.77516 1.61975 0
M  V30 56353 H 5233.82 6.32043 1.38316 0
M  V30 56354 N 5233.95 -0.28585 1.54986 0
M  V30 56355 C 5235.2 -1.01663 1.76171 0
M  V30 56356 C 5235.55 -1.84399 0.549084 0
M  V30 56357 O 5234.85 -1.86036 -0.458398 0
M  V30 56358 C 5235.04 -1.94183 3.00046 0
M  V30 56359 C 5234.87 -1.2055 4.33241 0
M  V30 56360 C 5233.64 -0.926436 4.96735 0
M  V30 56361 C 5235.84 -0.602334 5.10761 0
M  V30 56362 N 5233.82 -0.161969 6.13686 0
M  V30 56363 C 5235.19 0.0286023 6.19993 0
M  V30 56364 C 5237.25 -0.508893 4.95293 0
M  V30 56365 C 5235.95 0.743958 7.15442 0
M  V30 56366 C 5237.97 0.192841 5.91086 0
M  V30 56367 C 5237.34 0.812567 6.99698 0
M  V30 56368 H 5233.44 -0.354427 0.697069 0
M  V30 56369 H 5236.02 -0.293625 1.92473 0
M  V30 56370 H 5234.19 -2.6372 2.85143 0
M  V30 56371 H 5235.92 -2.60525 3.09691 0
M  V30 56372 H 5232.68 -1.22845 4.5739 0
M  V30 56373 H 5233.1 0.20722 6.76683 0
M  V30 56374 H 5237.74 -0.973712 4.11435 0
M  V30 56375 H 5235.46 1.2205 7.9883 0
M  V30 56376 H 5239.05 0.265286 5.81195 0
M  V30 56377 H 5237.93 1.34692 7.72546 0
M  V30 56378 N 5235.43 -1.477 -0.549768 0
M  V30 56379 C 5236.38 -1.61162 -1.67718 0
M  V30 56380 C 5237.37 -0.478663 -1.62497 0
M  V30 56381 O 5238.58 -0.65672 -1.67592 0
M  V30 56382 H 5234.95 -0.507323 -0.555092 0
M  V30 56383 H 5236.92 -2.5589 -1.53503 0
M  V30 56384 C 5235.67 -1.65005 -3.06053 0
M  V30 56385 H 5235 -2.51536 -3.10756 0
M  V30 56386 H 5236.44 -1.78473 -3.84608 0
M  V30 56387 C 5234.9 -0.384794 -3.34695 0
M  V30 56388 O 5235.43 0.510917 -3.98438 0
M  V30 56389 N 5233.63 -0.262536 -2.89412 0
M  V30 56390 H 5233.18 -0.992374 -2.37718 0
M  V30 56391 H 5233.14 0.583068 -3.08946 0
M  V30 56392 N 5236.91 0.797093 -1.35957 0
M  V30 56393 C 5237.84 1.92383 -1.3233 0
M  V30 56394 C 5238.82 1.68966 -0.196067 0
M  V30 56395 O 5240 1.90192 -0.392517 0
M  V30 56396 C 5237.13 3.29283 -1.10409 0
M  V30 56397 C 5236.09 3.67204 -2.19875 0
M  V30 56398 C 5235.41 5.0237 -1.83107 0
M  V30 56399 C 5236.71 3.76589 -3.61909 0
M  V30 56400 H 5238.41 1.95675 -2.26609 0
M  V30 56401 H 5235.95 0.940031 -1.09084 0
M  V30 56402 H 5237.91 4.07718 -1.06509 0
M  V30 56403 H 5236.63 3.26358 -0.125783 0
M  V30 56404 H 5235.29 2.91061 -2.22888 0
M  V30 56405 H 5234.94 4.95958 -0.838701 0
M  V30 56406 H 5234.64 5.28713 -2.56391 0
M  V30 56407 H 5236.16 5.83234 -1.80749 0
M  V30 56408 H 5237.58 4.45233 -3.61165 0
M  V30 56409 H 5235.97 4.1441 -4.34033 0
M  V30 56410 H 5237.04 2.77892 -3.97371 0
M  V30 56411 N 5238.39 1.2011 1.02036 0
M  V30 56412 C 5239.3 0.962126 2.13963 0
M  V30 56413 C 5240.31 -0.0807442 1.73813 0
M  V30 56414 O 5241.49 0.105844 2.01122 0
M  V30 56415 C 5238.55 0.513229 3.4288 0
M  V30 56416 C 5237.61 1.6265 3.97295 0
M  V30 56417 C 5236.85 1.19893 5.20059 0
M  V30 56418 O 5237.07 0.0660428 5.70362 0
M  V30 56419 O 5236 2.00487 5.67529 0
M  V30 56420 H 5239.83 1.89918 2.36991 0
M  V30 56421 H 5237.42 0.984647 1.12361 0
M  V30 56422 H 5239.3 0.271945 4.20522 0
M  V30 56423 H 5237.97 -0.395289 3.21277 0
M  V30 56424 H 5236.88 1.92203 3.2095 0
M  V30 56425 H 5238.21 2.51189 4.23279 0
M  V30 56426 N 5239.86 -1.21284 1.00638 0
M  V30 56427 C 5241.11 -1.90669 0.690889 0
M  V30 56428 C 5241.44 -1.77999 -0.77653 0
M  V30 56429 O 5240.72 -1.15753 -1.56305 0
M  V30 56430 C 5241 -3.42422 1.1144 0
M  V30 56431 C 5240.85 -3.64076 2.64137 0
M  V30 56432 C 5242.17 -4.34849 0.677839 0
M  V30 56433 H 5239.29 -0.69241 0.252463 0
M  V30 56434 H 5241.93 -1.42889 1.25231 0
M  V30 56435 H 5240.08 -3.83247 0.636721 0
M  V30 56436 H 5241.76 -3.32571 3.19679 0
M  V30 56437 H 5240 -3.07895 3.05586 0
M  V30 56438 H 5240.67 -4.7041 2.88822 0
M  V30 56439 H 5243.15 -4.01615 1.08834 0
M  V30 56440 H 5242.02 -5.39671 1.00232 0
M  V30 56441 H 5242.28 -4.40091 -0.42097 0
M  V30 56442 N 5241.34 -0.781292 -1.36871 0
M  V30 56443 C 5242.29 -0.172227 -2.30157 0
M  V30 56444 C 5243.26 0.679274 -1.51575 0
M  V30 56445 O 5244.44 0.629649 -1.80111 0
M  V30 56446 C 5241.58 0.693415 -3.38062 0
M  V30 56447 C 5240.7 -0.175738 -4.31642 0
M  V30 56448 C 5239.83 0.695509 -5.26627 0
M  V30 56449 C 5238.87 -0.175595 -6.11848 0
M  V30 56450 N 5238.01 0.654171 -6.99046 0
M  V30 56451 H 5242.85 -0.973232 -2.8166 0
M  V30 56452 H 5240.39 -0.491518 -1.38645 0
M  V30 56453 H 5242.34 1.21021 -3.99262 0
M  V30 56454 H 5240.97 1.45993 -2.87899 0
M  V30 56455 H 5240.03 -0.810426 -3.71667 0
M  V30 56456 H 5241.34 -0.84728 -4.91551 0
M  V30 56457 H 5240.49 1.27842 -5.93078 0
M  V30 56458 H 5239.23 1.4007 -4.67153 0
M  V30 56459 H 5238.24 -0.770971 -5.44368 0
M  V30 56460 H 5239.46 -0.878266 -6.73397 0
M  V30 56461 H 5237.41 1.34381 -6.42089 0
M  V30 56462 H 5237.32 0.040134 -7.55989 0
M  V30 56463 H 5238.59 1.22117 -7.69875 0
M  V30 56464 N 5242.82 1.48327 -0.532624 0
M  V30 56465 C 5243.73 2.33445 0.232464 0
M  V30 56466 C 5244.75 1.46655 0.936398 0
M  V30 56467 O 5245.92 1.7963 0.91077 0
M  V30 56468 C 5242.99 3.22828 1.26423 0
M  V30 56469 C 5242.05 4.25494 0.570361 0
M  V30 56470 C 5241.28 5.10606 1.55297 0
M  V30 56471 O 5241.5 4.97743 2.78582 0
M  V30 56472 O 5240.44 5.91931 1.09091 0
M  V30 56473 H 5244.26 3.00118 -0.465094 0
M  V30 56474 H 5241.85 1.46488 -0.293513 0
M  V30 56475 H 5243.73 3.78109 1.86042 0
M  V30 56476 H 5242.41 2.58814 1.94415 0
M  V30 56477 H 5241.31 3.74041 -0.0663902 0
M  V30 56478 H 5242.65 4.92153 -0.0676634 0
M  V30 56479 N 5244.3 0.26788 1.55307 0
M  V30 56480 C 5245.25 -0.63877 2.23657 0
M  V30 56481 C 5246.24 -1.16359 1.23114 0
M  V30 56482 O 5247.45 -1.11805 1.41066 0
M  V30 56483 H 5243.82 -0.224526 0.717699 0
M  V30 56484 H 5245.79 -0.039376 2.98374 0
M  V30 56485 C 5244.54 -1.815 2.96569 0
M  V30 56486 H 5243.86 -1.42034 3.7372 0
M  V30 56487 H 5245.3 -2.42616 3.47726 0
M  V30 56488 C 5243.76 -2.69904 2.01627 0
M  V30 56489 O 5244.29 -3.70053 1.56281 0
M  V30 56490 N 5242.5 -2.36918 1.68281 0
M  V30 56491 H 5242.05 -1.55526 2.05352 0
M  V30 56492 H 5242 -2.96339 1.05026 0
M  V30 56493 N 5245.78 -1.57599 -0.00494828 0
M  V30 56494 C 5247.02 -1.90352 -0.690828 0
M  V30 56495 C 5247.35 -0.868106 -1.74052 0
M  V30 56496 O 5246.61 0.127786 -1.95282 0
M  V30 56497 C 5246.91 -3.2986 -1.37577 0
M  V30 56498 C 5246.57 -4.4855 -0.459748 0
M  V30 56499 C 5245.23 -4.80752 -0.207524 0
M  V30 56500 C 5247.59 -5.20919 0.171237 0
M  V30 56501 C 5244.91 -5.82698 0.68406 0
M  V30 56502 C 5247.27 -6.23814 1.05067 0
M  V30 56503 C 5245.93 -6.54477 1.31212 0
M  V30 56504 H 5245.2 -0.696547 -0.252792 0
M  V30 56505 H 5247.85 -1.91436 0.0495168 0
M  V30 56506 H 5246.15 -3.24877 -2.19003 0
M  V30 56507 H 5247.85 -3.52459 -1.91242 0
M  V30 56508 H 5244.44 -4.23386 -0.666499 0
M  V30 56509 H 5248.62 -4.96299 -0.0106197 0
M  V30 56510 H 5243.88 -6.04819 0.894679 0
M  V30 56511 H 5248.05 -6.79023 1.54597 0
M  V30 56512 H 5245.68 -7.33292 2.00468 0
M  V30 56513 N 5247.25 0.277627 -1.55135 0
M  V30 56514 C 5248.22 1.32629 -1.86929 0
M  V30 56515 C 5249.22 1.42576 -0.743557 0
M  V30 56516 O 5250.41 1.41807 -1.01176 0
M  V30 56517 C 5247.54 2.70824 -2.07044 0
M  V30 56518 H 5248.73 1.0567 -2.80667 0
M  V30 56519 H 5246.29 0.515465 -1.47556 0
M  V30 56520 H 5247.02 3.0297 -1.15672 0
M  V30 56521 H 5246.81 2.64991 -2.89002 0
M  V30 56522 H 5248.3 3.46602 -2.3293 0
M  V30 56523 N 5248.73 1.4799 0.541927 0
M  V30 56524 C 5249.98 1.55091 1.29581 0
M  V30 56525 C 5250.3 0.221372 1.93739 0
M  V30 56526 O 5249.57 -0.756064 1.80722 0
M  V30 56527 H 5248.15 0.571324 0.481246 0
M  V30 56528 H 5250.81 1.84382 0.63161 0
M  V30 56529 H 5249.91 2.32563 2.08136 0
M  V30 56530 N 5250.21 -0.789872 1.36377 0
M  V30 56531 C 5251.12 -1.93382 1.32818 0
M  V30 56532 C 5252.14 -1.72467 0.230437 0
M  V30 56533 O 5253.31 -1.96012 0.462726 0
M  V30 56534 C 5250.38 -3.28236 1.11632 0
M  V30 56535 C 5249.44 -3.61931 2.30878 0
M  V30 56536 C 5248.67 -4.90351 2.10693 0
M  V30 56537 O 5248.9 -5.60046 1.08187 0
M  V30 56538 O 5247.83 -5.22691 2.98458 0
M  V30 56539 H 5251.66 -1.99334 2.29128 0
M  V30 56540 H 5249.24 -0.930059 1.1692 0
M  V30 56541 H 5251.12 -4.08936 1.01733 0
M  V30 56542 H 5249.8 -3.23178 0.183845 0
M  V30 56543 H 5248.7 -2.8154 2.46345 0
M  V30 56544 H 5250.04 -3.71713 3.2263 0
M  V30 56545 N 5251.69 -1.20649 -1.01398 0
M  V30 56546 C 5252.65 -0.959387 -2.08155 0
M  V30 56547 C 5253.65 0.0660993 -1.60664 0
M  V30 56548 O 5254.84 -0.170238 -1.73366 0
M  V30 56549 C 5251.97 -0.444904 -3.37984 0
M  V30 56550 H 5253.17 -1.90639 -2.3151 0
M  V30 56551 H 5250.72 -1.02223 -1.18238 0
M  V30 56552 H 5251.46 0.50744 -3.20305 0
M  V30 56553 H 5251.24 -1.18449 -3.73781 0
M  V30 56554 H 5252.73 -0.291589 -4.16581 0
M  V30 56555 N 5253.17 1.20748 -1.0128 0
M  V30 56556 C 5254.4 1.94004 -0.719045 0
M  V30 56557 C 5254.81 1.74547 0.719649 0
M  V30 56558 O 5254.17 1.05702 1.48773 0
M  V30 56559 C 5254.22 3.46204 -1.04043 0
M  V30 56560 O 5253.94 3.65022 -2.42261 0
M  V30 56561 C 5255.44 4.36611 -0.767186 0
M  V30 56562 H 5252.66 0.616734 -0.264348 0
M  V30 56563 H 5255.2 1.53347 -1.35295 0
M  V30 56564 H 5253.36 3.84754 -0.451987 0
M  V30 56565 H 5253.77 4.59045 -2.53729 0
M  V30 56566 H 5255.25 5.42073 -1.04217 0
M  V30 56567 H 5255.72 4.38183 0.298697 0
M  V30 56568 H 5256.33 4.03718 -1.3376 0
M  V30 56569 N 5254.65 0.78854 1.36454 0
M  V30 56570 C 5255.58 0.20055 2.32637 0
M  V30 56571 C 5256.56 -0.663976 1.56606 0
M  V30 56572 O 5257.74 -0.59798 1.84764 0
M  V30 56573 C 5254.87 -0.666154 3.40851 0
M  V30 56574 C 5253.83 0.0984078 4.27887 0
M  V30 56575 C 5253.15 -0.888833 5.27261 0
M  V30 56576 C 5254.45 1.2871 5.06193 0
M  V30 56577 H 5256.15 1.00409 2.82061 0
M  V30 56578 H 5253.69 0.484285 1.35612 0
M  V30 56579 H 5255.64 -1.08743 4.07128 0
M  V30 56580 H 5254.37 -1.50239 2.89993 0
M  V30 56581 H 5253.03 0.500652 3.63165 0
M  V30 56582 H 5252.68 -1.72008 4.72676 0
M  V30 56583 H 5252.38 -0.381703 5.86359 0
M  V30 56584 H 5253.9 -1.3087 5.96411 0
M  V30 56585 H 5255.31 0.941628 5.65514 0
M  V30 56586 H 5253.71 1.72747 5.74699 0
M  V30 56587 H 5254.78 2.08289 4.37886 0
M  V30 56588 N 5256.12 -1.48042 0.540482 0
M  V30 56589 C 5257.06 -2.27791 -0.253774 0
M  V30 56590 C 5258.07 -1.36002 -0.894836 0
M  V30 56591 O 5259.26 -1.60966 -0.771506 0
M  V30 56592 C 5256.36 -3.09729 -1.37555 0
M  V30 56593 C 5255.53 -4.29367 -0.834439 0
M  V30 56594 C 5254.59 -4.93032 -1.83863 0
M  V30 56595 O 5253.62 -5.51932 -1.39139 0
M  V30 56596 N 5254.82 -4.86218 -3.17131 0
M  V30 56597 H 5257.58 -2.96596 0.430229 0
M  V30 56598 H 5255.14 -1.57486 0.375478 0
M  V30 56599 H 5257.14 -3.49188 -2.04572 0
M  V30 56600 H 5255.71 -2.43276 -1.96305 0
M  V30 56601 H 5254.93 -3.94198 0.0120264 0
M  V30 56602 H 5256.21 -5.06789 -0.451977 0
M  V30 56603 H 5255.61 -4.39535 -3.56126 0
M  V30 56604 H 5254.17 -5.29747 -3.79752 0
M  V30 56605 N 5257.6 -0.276112 -1.55162 0
M  V30 56606 C 5259.02 0.0780019 -1.59409 0
M  V30 56607 C 5259.22 1.54517 -1.29332 0
M  V30 56608 O 5258.27 2.29419 -1.05467 0
M  V30 56609 C 5259.59 -0.297528 -2.99224 0
M  V30 56610 C 5261.13 -0.244227 -3.12046 0
M  V30 56611 C 5261.61 -0.594211 -4.54129 0
M  V30 56612 N 5263.1 -0.545801 -4.59973 0
M  V30 56613 C 5263.84 -0.789391 -5.6794 0
M  V30 56614 N 5263.33 -1.09765 -6.84049 0
M  V30 56615 N 5265.12 -0.718122 -5.57494 0
M  V30 56616 H 5257.28 -1.23257 -1.72978 0
M  V30 56617 H 5259.54 -0.498016 -0.80665 0
M  V30 56618 H 5259.24 -1.31793 -3.26073 0
M  V30 56619 H 5259.12 0.361154 -3.75467 0
M  V30 56620 H 5261.51 0.766891 -2.84961 0
M  V30 56621 H 5261.59 -0.93718 -2.38014 0
M  V30 56622 H 5261.23 -1.60302 -4.81939 0
M  V30 56623 H 5261.16 0.120543 -5.26462 0
M  V30 56624 H 5263.65 -0.317466 -3.76564 0
M  V30 56625 H 5263.96 -1.27016 -7.6229 0
M  V30 56626 H 5262.31 -1.13543 -6.85662 0
M  V30 56627 H 5265.5 -0.477134 -4.65662 0
M  V30 56628 H 5265.67 -0.911343 -6.41559 0
M  V30 56629 N 5259.08 1.576 -0.00340966 0
M  V30 56630 C 5260.33 1.89894 0.679934 0
M  V30 56631 C 5260.64 0.878793 1.74747 0
M  V30 56632 O 5261.85 1.09208 2.48568 0
M  V30 56633 C 5260.3 3.37103 1.26054 0
M  V30 56634 C 5259.91 4.47421 0.227649 0
M  V30 56635 C 5261.66 3.78502 1.92188 0
M  V30 56636 C 5259.56 5.85709 0.818444 0
M  V30 56637 H 5258.49 0.708587 0.257721 0
M  V30 56638 H 5261.14 1.83387 -0.0645117 0
M  V30 56639 H 5259.53 3.38459 2.05577 0
M  V30 56640 H 5260.7 4.57587 -0.543231 0
M  V30 56641 H 5259.01 4.15063 -0.333443 0
M  V30 56642 H 5261.61 4.79158 2.37301 0
M  V30 56643 H 5261.95 3.12197 2.75388 0
M  V30 56644 H 5262.49 3.7946 1.19395 0
M  V30 56645 H 5259.23 6.55495 0.0251482 0
M  V30 56646 H 5258.75 5.79201 1.5584 0
M  V30 56647 H 5260.43 6.33474 1.31604 0
M  V30 56648 N 5260.56 -0.269396 1.5528 0
M  V30 56649 C 5261.79 -1.01718 1.79825 0
M  V30 56650 C 5262.2 -1.80296 0.573595 0
M  V30 56651 O 5261.54 -1.77667 -0.4669 0
M  V30 56652 C 5261.6 -2.02033 2.9736 0
M  V30 56653 C 5261.26 -1.42359 4.34261 0
M  V30 56654 C 5262.26 -0.837431 5.13111 0
M  V30 56655 C 5259.95 -1.44971 4.80925 0
M  V30 56656 C 5261.94 -0.285333 6.36761 0
M  V30 56657 C 5259.63 -0.893756 6.04529 0
M  V30 56658 C 5260.63 -0.312569 6.82284 0
M  V30 56659 O 5260.31 0.234865 8.03557 0
M  V30 56660 H 5260.05 -0.306019 0.602767 0
M  V30 56661 H 5262.6 -0.304468 2.03131 0
M  V30 56662 H 5260.83 -2.77073 2.69755 0
M  V30 56663 H 5262.52 -2.62969 3.09196 0
M  V30 56664 H 5263.28 -0.809921 4.7819 0
M  V30 56665 H 5259.16 -1.89147 4.2041 0
M  V30 56666 H 5262.71 0.168941 6.97395 0
M  V30 56667 H 5258.6 -0.918518 6.38932 0
M  V30 56668 H 5259.37 0.124569 8.18405 0
M  V30 56669 N 5262.04 -1.48275 -0.534071 0
M  V30 56670 C 5263.26 -1.59993 -1.31974 0
M  V30 56671 C 5263.69 -0.25889 -1.8631 0
M  V30 56672 O 5263.04 0.768827 -1.64191 0
M  V30 56673 C 5263.09 -2.64651 -2.44933 0
M  V30 56674 O 5262.2 -2.21527 -3.4785 0
M  V30 56675 H 5261.54 -0.536638 -0.391044 0
M  V30 56676 H 5264.07 -1.94231 -0.643067 0
M  V30 56677 H 5264.08 -2.85797 -2.91177 0
M  V30 56678 H 5262.75 -3.62011 -2.04745 0
M  V30 56679 H 5261.33 -2.10577 -3.07752 0
M  V30 56680 N 5263.51 0.782628 -1.36794 0
M  V30 56681 C 5264.44 1.90968 -1.34363 0
M  V30 56682 C 5265.43 1.68749 -0.213977 0
M  V30 56683 O 5266.61 1.89765 -0.412668 0
M  V30 56684 C 5263.74 3.28093 -1.13896 0
M  V30 56685 C 5262.69 3.64852 -2.23757 0
M  V30 56686 C 5262.02 5.004 -1.88425 0
M  V30 56687 C 5263.32 3.72729 -3.65883 0
M  V30 56688 H 5265.01 1.9326 -2.28672 0
M  V30 56689 H 5262.56 0.928408 -1.10075 0
M  V30 56690 H 5264.51 4.06565 -1.10828 0
M  V30 56691 H 5263.24 3.26206 -0.16039 0
M  V30 56692 H 5261.9 2.88681 -2.25962 0
M  V30 56693 H 5261.54 4.95041 -0.891257 0
M  V30 56694 H 5261.24 5.25964 -2.61984 0
M  V30 56695 H 5262.77 5.81284 -1.86925 0
M  V30 56696 H 5264.18 4.41377 -3.65867 0
M  V30 56697 H 5262.58 4.09783 -4.38404 0
M  V30 56698 H 5263.65 2.73662 -4.00296 0
M  V30 56699 N 5264.99 1.21185 1.00757 0
M  V30 56700 C 5266.24 1.03909 1.74856 0
M  V30 56701 C 5266.59 -0.423281 1.87686 0
M  V30 56702 O 5265.89 -1.30996 1.39823 0
M  V30 56703 C 5266.08 1.66681 3.16152 0
M  V30 56704 C 5265.91 3.18871 3.17098 0
M  V30 56705 C 5264.68 3.879 3.23824 0
M  V30 56706 C 5266.88 4.15989 3.0242 0
M  V30 56707 N 5264.86 5.273 3.14369 0
M  V30 56708 C 5266.23 5.42124 3.00834 0
M  V30 56709 C 5268.29 4.0707 2.86703 0
M  V30 56710 C 5266.99 6.60368 2.85143 0
M  V30 56711 C 5269.01 5.24948 2.72367 0
M  V30 56712 C 5268.38 6.49993 2.71456 0
M  V30 56713 H 5264.48 0.434545 0.65015 0
M  V30 56714 H 5267.06 1.53499 1.19775 0
M  V30 56715 H 5265.23 1.19662 3.69507 0
M  V30 56716 H 5266.96 1.42635 3.78731 0
M  V30 56717 H 5263.72 3.3881 3.30915 0
M  V30 56718 H 5264.14 6.00304 3.12991 0
M  V30 56719 H 5268.78 3.11193 2.86215 0
M  V30 56720 H 5266.5 7.56409 2.84379 0
M  V30 56721 H 5270.09 5.19866 2.6121 0
M  V30 56722 H 5268.97 7.39671 2.60494 0
M  V30 56723 N 5266.47 -1.20209 1.01919 0
M  V30 56724 C 5267.38 -2.26761 0.601391 0
M  V30 56725 C 5268.4 -1.70186 -0.362309 0
M  V30 56726 O 5269.57 -2.00166 -0.222612 0
M  V30 56727 C 5266.64 -3.46662 -0.051166 0
M  V30 56728 C 5265.7 -4.18456 0.958806 0
M  V30 56729 C 5264.93 -5.32633 0.337295 0
M  V30 56730 O 5265.15 -5.63844 -0.862312 0
M  V30 56731 O 5264.09 -5.92576 1.05531 0
M  V30 56732 H 5267.91 -2.6472 1.48853 0
M  V30 56733 H 5265.5 -1.26877 0.788829 0
M  V30 56734 H 5267.38 -4.19347 -0.415492 0
M  V30 56735 H 5266.06 -3.10573 -0.912463 0
M  V30 56736 H 5264.96 -3.47933 1.37455 0
M  V30 56737 H 5266.3 -4.58491 1.79015 0
M  V30 56738 N 5267.95 -0.795765 -1.36034 0
M  V30 56739 C 5268.9 -0.171517 -2.27354 0
M  V30 56740 C 5269.88 0.648294 -1.47262 0
M  V30 56741 O 5271.07 0.507326 -1.69574 0
M  V30 56742 C 5268.2 0.687758 -3.3634 0
M  V30 56743 C 5267.29 -0.14119 -4.23865 0
M  V30 56744 N 5267.68 -1.19885 -4.91387 0
M  V30 56745 C 5265.98 0.0789478 -4.4593 0
M  V30 56746 C 5266.68 -1.70402 -5.56182 0
M  V30 56747 N 5265.66 -1.01221 -5.34093 0
M  V30 56748 H 5269.46 -0.980944 -2.77046 0
M  V30 56749 H 5266.97 -0.635851 -1.49435 0
M  V30 56750 H 5268.97 1.15093 -4.00698 0
M  V30 56751 H 5267.63 1.49566 -2.88202 0
M  V30 56752 H 5268.64 -1.58137 -4.93166 0
M  V30 56753 H 5265.32 0.85685 -4.08613 0
M  V30 56754 H 5266.71 -2.58737 -6.20084 0
M  V30 56755 N 5269.43 1.47754 -0.548326 0
M  V30 56756 C 5270.65 2.07387 -0.0235479 0
M  V30 56757 C 5271.08 1.39961 1.25669 0
M  V30 56758 O 5270.43 0.471604 1.75059 0
M  V30 56759 C 5270.48 3.60224 0.164542 0
M  V30 56760 O 5269.59 3.93657 1.22915 0
M  V30 56761 H 5268.93 0.66231 -0.0473389 0
M  V30 56762 H 5271.46 1.89902 -0.761475 0
M  V30 56763 H 5271.47 4.06212 0.381517 0
M  V30 56764 H 5270.14 4.08699 -0.770569 0
M  V30 56765 H 5268.72 3.59425 0.993369 0
M  V30 56766 N 5270.9 0.284337 1.55014 0
M  V30 56767 C 5272.13 -0.332876 2.04205 0
M  V30 56768 C 5272.55 -1.48779 1.16234 0
M  V30 56769 O 5271.9 -1.81566 0.184387 0
M  V30 56770 C 5271.96 -0.805083 3.52421 0
M  V30 56771 O 5271.68 0.303843 4.37045 0
M  V30 56772 C 5273.18 -1.48917 4.17539 0
M  V30 56773 H 5270.4 -0.0747213 0.666827 0
M  V30 56774 H 5272.94 0.419118 2.00159 0
M  V30 56775 H 5271.1 -1.50714 3.56881 0
M  V30 56776 H 5271.51 -0.0607859 5.24465 0
M  V30 56777 H 5272.98 -1.7709 5.22822 0
M  V30 56778 H 5273.46 -2.42376 3.66266 0
M  V30 56779 H 5274.07 -0.83072 4.17108 0
M  V30 56780 N 5272.38 -1.57596 0.0117675 0
M  V30 56781 C 5273.33 -2.09156 -0.975823 0
M  V30 56782 C 5274.3 -0.989626 -1.334 0
M  V30 56783 O 5275.48 -1.26278 -1.43033 0
M  V30 56784 C 5272.62 -2.60914 -2.25871 0
M  V30 56785 C 5271.74 -3.85053 -1.95852 0
M  V30 56786 C 5270.87 -4.25268 -3.18309 0
M  V30 56787 C 5269.91 -5.42212 -2.84029 0
M  V30 56788 N 5269.05 -5.77665 -3.99058 0
M  V30 56789 H 5273.89 -2.93263 -0.529207 0
M  V30 56790 H 5271.43 -1.44966 -0.24964 0
M  V30 56791 H 5273.38 -2.89006 -3.00885 0
M  V30 56792 H 5272.01 -1.79664 -2.6818 0
M  V30 56793 H 5271.07 -3.63798 -1.11155 0
M  V30 56794 H 5272.38 -4.70157 -1.66594 0
M  V30 56795 H 5271.53 -4.54704 -4.01658 0
M  V30 56796 H 5270.27 -3.38897 -3.50714 0
M  V30 56797 H 5269.28 -5.12487 -1.99089 0
M  V30 56798 H 5270.5 -6.30269 -2.52859 0
M  V30 56799 H 5268.45 -4.9425 -4.31338 0
M  V30 56800 H 5268.36 -6.5737 -3.73365 0
M  V30 56801 H 5269.63 -6.11698 -4.83162 0
M  V30 56802 N 5273.86 0.261157 -1.55421 0
M  V30 56803 C 5274.81 1.34291 -1.89917 0
M  V30 56804 C 5275.8 1.50544 -0.776718 0
M  V30 56805 O 5277.01 1.52188 -0.961192 0
M  V30 56806 H 5273.38 0.449379 -0.602962 0
M  V30 56807 H 5275.35 1.02454 -2.8026 0
M  V30 56808 C 5274.1 2.69415 -2.19797 0
M  V30 56809 H 5273.43 2.57704 -3.05661 0
M  V30 56810 H 5274.87 3.44017 -2.47847 0
M  V30 56811 C 5273.33 3.2142 -1.0095 0
M  V30 56812 O 5273.86 4.0092 -0.250175 0
M  V30 56813 N 5272.06 2.79257 -0.803982 0
M  V30 56814 H 5271.61 2.14719 -1.42315 0
M  V30 56815 H 5271.57 3.14398 -0.0104362 0
M  V30 56816 N 5275.34 1.48556 0.526201 0
M  V30 56817 C 5276.29 1.59759 1.62668 0
M  V30 56818 C 5277.27 0.454506 1.54347 0
M  V30 56819 O 5278.46 0.706148 1.62304 0
M  V30 56820 C 5275.59 1.64399 3.01377 0
M  V30 56821 C 5274.68 2.842 3.14788 0
M  V30 56822 N 5275.07 4.08575 2.98161 0
M  V30 56823 C 5273.37 2.81611 3.45849 0
M  V30 56824 C 5274.07 4.88973 3.15088 0
M  V30 56825 N 5273.05 4.2186 3.42834 0
M  V30 56826 H 5276.85 2.53665 1.48429 0
M  V30 56827 H 5274.36 1.4498 0.73175 0
M  V30 56828 H 5276.36 1.70519 3.80433 0
M  V30 56829 H 5275.02 0.716118 3.16705 0
M  V30 56830 H 5276.03 4.38953 2.74847 0
M  V30 56831 H 5272.71 1.98096 3.67511 0
M  V30 56832 H 5274.1 5.97694 3.06939 0
M  V30 56833 N 5276.82 -0.775363 1.37207 0
M  V30 56834 C 5277.75 -1.90253 1.35374 0
M  V30 56835 C 5278.73 -1.68633 0.222923 0
M  V30 56836 O 5279.91 -1.89543 0.422726 0
M  V30 56837 C 5277.04 -3.27484 1.15634 0
M  V30 56838 C 5276 -3.6366 2.25689 0
M  V30 56839 C 5275.32 -4.99393 1.91077 0
M  V30 56840 C 5276.62 -3.70784 3.67854 0
M  V30 56841 H 5278.32 -1.92045 2.29693 0
M  V30 56842 H 5275.86 -0.922558 1.10566 0
M  V30 56843 H 5277.82 -4.05972 1.12982 0
M  V30 56844 H 5276.54 -3.26116 0.177687 0
M  V30 56845 H 5275.2 -2.87478 2.2749 0
M  V30 56846 H 5274.85 -4.94561 0.917498 0
M  V30 56847 H 5274.55 -5.24567 2.6477 0
M  V30 56848 H 5276.07 -5.80285 1.90005 0
M  V30 56849 H 5277.48 -4.39431 3.68203 0
M  V30 56850 H 5275.88 -4.07452 4.40571 0
M  V30 56851 H 5276.95 -2.71535 4.01742 0
M  V30 56852 N 5278.3 -1.21718 -1.00112 0
M  V30 56853 C 5279.23 -0.937701 -2.09141 0
M  V30 56854 C 5280.24 0.080572 -1.626 0
M  V30 56855 O 5281.43 -0.152411 -1.77848 0
M  V30 56856 C 5278.53 -0.387154 -3.36681 0
M  V30 56857 C 5277.7 -1.46069 -4.1229 0
M  V30 56858 C 5276.76 -0.918688 -5.18118 0
M  V30 56859 O 5275.79 -1.60302 -5.46161 0
M  V30 56860 N 5276.99 0.264104 -5.79899 0
M  V30 56861 H 5279.75 -1.8763 -2.33699 0
M  V30 56862 H 5277.32 -1.12295 -1.16625 0
M  V30 56863 H 5279.31 -0.0100705 -4.04699 0
M  V30 56864 H 5277.88 0.456359 -3.09251 0
M  V30 56865 H 5277.1 -2.01145 -3.3902 0
M  V30 56866 H 5278.39 -2.18323 -4.59579 0
M  V30 56867 H 5277.78 0.837045 -5.59473 0
M  V30 56868 H 5276.34 0.582658 -6.49191 0
M  V30 56869 N 5279.77 1.19667 -1.02555 0
M  V30 56870 C 5280.7 2.25007 -0.624044 0
M  V30 56871 C 5281.68 1.66131 0.365322 0
M  V30 56872 O 5282.87 1.926 0.248775 0
M  V30 56873 C 5280 3.47288 0.0293648 0
M  V30 56874 C 5278.95 4.18815 -0.881928 0
M  V30 56875 C 5278.28 5.34618 -0.0938068 0
M  V30 56876 C 5279.58 4.73978 -2.19413 0
M  V30 56877 H 5281.27 2.58846 -1.50463 0
M  V30 56878 H 5278.82 1.24423 -0.724915 0
M  V30 56879 H 5280.77 4.20169 0.321869 0
M  V30 56880 H 5279.5 3.12638 0.944728 0
M  V30 56881 H 5278.16 3.47811 -1.15858 0
M  V30 56882 H 5277.8 4.96213 0.823486 0
M  V30 56883 H 5277.5 5.83406 -0.700773 0
M  V30 56884 H 5279.03 6.10298 0.192034 0
M  V30 56885 H 5280.44 5.38632 -1.96338 0
M  V30 56886 H 5278.84 5.3324 -2.75273 0
M  V30 56887 H 5279.91 3.92228 -2.85106 0
M  V30 56888 N 5281.25 0.802969 1.3561 0
M  V30 56889 C 5282.16 0.212259 2.33638 0
M  V30 56890 C 5283.18 -0.642814 1.61691 0
M  V30 56891 O 5284.35 -0.555417 1.9359 0
M  V30 56892 C 5281.42 -0.632286 3.40886 0
M  V30 56893 C 5280.48 0.242859 4.28613 0
M  V30 56894 C 5279.71 -0.561473 5.30738 0
M  V30 56895 O 5279.94 -1.79645 5.41372 0
M  V30 56896 O 5278.87 0.0457503 6.01883 0
M  V30 56897 H 5282.7 1.0231 2.85948 0
M  V30 56898 H 5280.28 0.564685 1.38317 0
M  V30 56899 H 5282.16 -1.11344 4.06424 0
M  V30 56900 H 5280.84 -1.42079 2.90853 0
M  V30 56901 H 5279.74 0.771069 3.66067 0
M  V30 56902 H 5281.08 0.995215 4.82034 0
M  V30 56903 N 5282.73 -1.47461 0.556154 0
M  V30 56904 C 5283.98 -2.02075 0.0316423 0
M  V30 56905 C 5284.3 -1.43297 -1.32254 0
M  V30 56906 O 5283.57 -0.607775 -1.86233 0
M  V30 56907 H 5282.15 -0.746949 0.00870786 0
M  V30 56908 H 5284.81 -1.80877 0.725923 0
M  V30 56909 H 5283.91 -3.12047 -0.0572441 0
M  V30 56910 N 5284.21 -0.292554 -1.54861 0
M  V30 56911 C 5285.14 0.580598 -2.26167 0
M  V30 56912 C 5286.12 1.14481 -1.2581 0
M  V30 56913 O 5287.3 1.17571 -1.54566 0
M  V30 56914 C 5284.43 1.75658 -2.99603 0
M  V30 56915 C 5283.39 1.32311 -4.07035 0
M  V30 56916 C 5282.71 2.58358 -4.6814 0
M  V30 56917 C 5284.01 0.460521 -5.20266 0
M  V30 56918 H 5285.71 -0.0141128 -2.99397 0
M  V30 56919 H 5283.25 -0.00822769 -1.43998 0
M  V30 56920 H 5285.21 2.37344 -3.48204 0
M  V30 56921 H 5283.93 2.37739 -2.23937 0
M  V30 56922 H 5282.59 0.72935 -3.59272 0
M  V30 56923 H 5282.24 3.18735 -3.89123 0
M  V30 56924 H 5281.94 2.30059 -5.40691 0
M  V30 56925 H 5283.46 3.20862 -5.195 0
M  V30 56926 H 5284.88 0.982838 -5.64813 0
M  V30 56927 H 5283.27 0.27167 -5.99485 0
M  V30 56928 H 5284.34 -0.516473 -4.82142 0
M  V30 56929 N 5285.69 1.57587 -0.020125 0
M  V30 56930 C 5286.93 1.91427 0.660458 0
M  V30 56931 C 5287.26 0.895686 1.72649 0
M  V30 56932 O 5286.52 -0.0967022 1.95461 0
M  V30 56933 C 5286.81 3.32007 1.32311 0
M  V30 56934 C 5286.48 4.49225 0.388329 0
M  V30 56935 C 5285.14 4.81022 0.131014 0
M  V30 56936 C 5287.49 5.2058 -0.254089 0
M  V30 56937 C 5284.82 5.81536 -0.776675 0
M  V30 56938 C 5287.17 6.22063 -1.14978 0
M  V30 56939 C 5285.84 6.52306 -1.41607 0
M  V30 56940 H 5285.11 0.70048 0.241679 0
M  V30 56941 H 5287.76 1.91333 -0.0799663 0
M  V30 56942 H 5286.06 3.2832 2.13807 0
M  V30 56943 H 5287.76 3.55457 1.85611 0
M  V30 56944 H 5284.35 4.24393 0.599058 0
M  V30 56945 H 5288.53 4.96253 -0.0683385 0
M  V30 56946 H 5283.79 6.03319 -0.990787 0
M  V30 56947 H 5287.96 6.76478 -1.65381 0
M  V30 56948 H 5285.59 7.3001 -2.12109 0
M  V30 56949 N 5287.16 -0.252911 1.55557 0
M  V30 56950 C 5288.41 -0.981789 1.77108 0
M  V30 56951 C 5288.74 -1.85545 0.58337 0
M  V30 56952 O 5287.99 -1.90838 -0.433523 0
M  V30 56953 C 5288.29 -1.87774 3.04098 0
M  V30 56954 C 5287.96 -1.15993 4.35725 0
M  V30 56955 C 5286.62 -0.961531 4.71496 0
M  V30 56956 C 5288.97 -0.650703 5.17122 0
M  V30 56957 C 5286.3 -0.241498 5.86203 0
M  V30 56958 C 5288.65 0.0558348 6.32575 0
M  V30 56959 C 5287.32 0.265771 6.66971 0
M  V30 56960 H 5286.59 -0.359262 0.648083 0
M  V30 56961 H 5289.23 -0.252376 1.8983 0
M  V30 56962 H 5287.54 -2.67402 2.86362 0
M  V30 56963 H 5289.24 -2.44328 3.1797 0
M  V30 56964 H 5285.83 -1.32451 4.07621 0
M  V30 56965 H 5290.01 -0.791547 4.89947 0
M  V30 56966 H 5285.27 -0.0683142 6.11362 0
M  V30 56967 H 5289.44 0.458084 6.94892 0
M  V30 56968 H 5287.07 0.825666 7.55703 0
M  V30 56969 N 5288.64 -1.48833 -0.518315 0
M  V30 56970 C 5289.87 -1.61124 -1.29794 0
M  V30 56971 C 5290.28 -0.275938 -1.86773 0
M  V30 56972 O 5289.64 0.736358 -1.66985 0
M  V30 56973 C 5289.69 -2.66684 -2.44053 0
M  V30 56974 O 5289.41 -3.95034 -1.8942 0
M  V30 56975 C 5290.91 -2.89522 -3.35696 0
M  V30 56976 H 5288.13 -0.54293 -0.394295 0
M  V30 56977 H 5290.68 -1.94745 -0.624073 0
M  V30 56978 H 5288.83 -2.3589 -3.07303 0
M  V30 56979 H 5289.25 -4.53041 -2.643 0
M  V30 56980 H 5290.72 -3.67156 -4.1219 0
M  V30 56981 H 5291.2 -1.98782 -3.91641 0
M  V30 56982 H 5291.8 -3.21666 -2.78229 0
M  V30 56983 N 5290.12 0.768075 -1.37617 0
M  V30 56984 C 5291.07 1.90285 -1.3377 0
M  V30 56985 C 5292.06 1.67887 -0.225873 0
M  V30 56986 O 5293.27 1.75633 -0.394105 0
M  V30 56987 H 5289.64 0.625813 -0.416967 0
M  V30 56988 H 5291.61 1.90646 -2.29557 0
M  V30 56989 C 5290.36 3.27594 -1.16522 0
M  V30 56990 H 5289.69 3.45407 -2.01331 0
M  V30 56991 H 5291.13 4.07284 -1.17882 0
M  V30 56992 C 5289.58 3.36653 0.128882 0
M  V30 56993 O 5290.11 3.86027 1.11114 0
M  V30 56994 N 5288.32 2.90037 0.180824 0
M  V30 56995 H 5287.87 2.50048 -0.619164 0
M  V30 56996 H 5287.83 2.96479 1.0463 0
M  V30 56997 N 5291.6 1.22247 0.994655 0
M  V30 56998 C 5292.85 1.0439 1.73052 0
M  V30 56999 C 5293.17 -0.422138 1.90376 0
M  V30 57000 O 5292.44 -1.30378 1.46213 0
M  V30 57001 H 5291.02 0.383285 0.641172 0
M  V30 57002 H 5293.68 1.5373 1.19805 0
M  V30 57003 H 5292.77 1.52031 2.72567 0
M  V30 57004 N 5293.08 -1.19122 1.03188 0
M  V30 57005 C 5293.99 -2.2611 0.625408 0
M  V30 57006 C 5295 -1.70561 -0.344238 0
M  V30 57007 O 5296.18 -2.00391 -0.201369 0
M  V30 57008 C 5293.24 -3.46697 -0.014395 0
M  V30 57009 C 5292.3 -4.17415 1.00313 0
M  V30 57010 C 5291.54 -5.32245 0.393769 0
M  V30 57011 O 5291.76 -5.64727 -0.80246 0
M  V30 57012 O 5290.69 -5.91424 1.11811 0
M  V30 57013 H 5294.52 -2.63126 1.51652 0
M  V30 57014 H 5292.11 -1.26033 0.802242 0
M  V30 57015 H 5293.99 -4.19764 -0.370992 0
M  V30 57016 H 5292.66 -3.11524 -0.879471 0
M  V30 57017 H 5291.57 -3.46455 1.41137 0
M  V30 57018 H 5292.9 -4.56567 1.83868 0
M  V30 57019 N 5294.55 -0.810149 -1.35183 0
M  V30 57020 C 5295.5 -0.195621 -2.27159 0
M  V30 57021 C 5296.49 0.632639 -1.47941 0
M  V30 57022 O 5297.68 0.489312 -1.70102 0
M  V30 57023 C 5294.81 0.652046 -3.37051 0
M  V30 57024 C 5293.9 -0.186138 -4.23691 0
M  V30 57025 N 5294.29 -1.2509 -4.90088 0
M  V30 57026 C 5292.58 0.0316465 -4.45989 0
M  V30 57027 C 5293.29 -1.76291 -5.54343 0
M  V30 57028 N 5292.26 -1.0688 -5.32989 0
M  V30 57029 H 5296.06 -1.01027 -2.7599 0
M  V30 57030 H 5293.58 -0.651665 -1.48752 0
M  V30 57031 H 5295.57 1.10837 -4.01896 0
M  V30 57032 H 5294.23 1.46501 -2.89772 0
M  V30 57033 H 5295.25 -1.63359 -4.91461 0
M  V30 57034 H 5291.92 0.813463 -4.09499 0
M  V30 57035 H 5293.31 -2.653 -6.17305 0
M  V30 57036 N 5296.03 1.47164 -0.563966 0
M  V30 57037 C 5297.26 2.06845 -0.0475014 0
M  V30 57038 C 5297.68 1.41562 1.24923 0
M  V30 57039 O 5297.03 0.514438 1.75099 0
M  V30 57040 C 5297.08 3.6121 0.144704 0
M  V30 57041 O 5296.8 4.24048 -1.10068 0
M  V30 57042 C 5298.31 4.37775 0.697676 0
M  V30 57043 H 5295.53 0.669215 -0.0489132 0
M  V30 57044 H 5298.07 1.89069 -0.779302 0
M  V30 57045 H 5296.22 3.78477 0.826657 0
M  V30 57046 H 5296.64 5.16674 -0.902662 0
M  V30 57047 H 5298.11 5.46441 0.781423 0
M  V30 57048 H 5298.59 4.04523 1.71048 0
M  V30 57049 H 5299.2 4.25269 0.0512021 0
M  V30 57050 N 5297.51 0.300763 1.54704 0
M  V30 57051 C 5298.74 -0.314001 2.05009 0
M  V30 57052 C 5299.16 -1.46755 1.17663 0
M  V30 57053 O 5298.52 -1.80398 0.180661 0
M  V30 57054 C 5298.57 -0.748119 3.52754 0
M  V30 57055 O 5297.67 -1.85292 3.6843 0
M  V30 57056 H 5297.01 -0.0609906 0.661193 0
M  V30 57057 H 5299.54 0.442537 1.99757 0
M  V30 57058 H 5299.55 -1.03699 3.94602 0
M  V30 57059 H 5298.23 0.0957191 4.1579 0
M  V30 57060 H 5296.8 -1.56462 3.38488 0
M  V30 57061 N 5298.99 -1.57574 0.028482 0
M  V30 57062 C 5299.94 -2.10179 -0.953585 0
M  V30 57063 C 5300.91 -1.00372 -1.32343 0
M  V30 57064 O 5302.09 -1.27788 -1.41686 0
M  V30 57065 C 5299.23 -2.63295 -2.23091 0
M  V30 57066 C 5298.34 -3.87109 -1.91757 0
M  V30 57067 C 5297.48 -4.2862 -3.1378 0
M  V30 57068 C 5296.52 -5.45194 -2.78263 0
M  V30 57069 N 5295.65 -5.81865 -3.92909 0
M  V30 57070 H 5300.49 -2.93808 -0.498073 0
M  V30 57071 H 5298.03 -1.45223 -0.234251 0
M  V30 57072 H 5299.99 -2.92181 -2.97802 0
M  V30 57073 H 5298.62 -1.82498 -2.6626 0
M  V30 57074 H 5297.67 -3.64956 -1.07291 0
M  V30 57075 H 5298.98 -4.71898 -1.61598 0
M  V30 57076 H 5298.14 -4.58939 -3.96812 0
M  V30 57077 H 5296.88 -3.42597 -3.471 0
M  V30 57078 H 5295.88 -5.1457 -1.93643 0
M  V30 57079 H 5297.11 -6.32916 -2.4616 0
M  V30 57080 H 5295.05 -4.98797 -4.26072 0
M  V30 57081 H 5294.97 -6.61293 -3.66371 0
M  V30 57082 H 5296.24 -6.16788 -4.76647 0
M  V30 57083 N 5300.47 0.244658 -1.55689 0
M  V30 57084 C 5301.43 1.28634 -1.897 0
M  V30 57085 C 5302.43 1.40967 -0.773633 0
M  V30 57086 O 5303.62 1.39629 -1.04161 0
M  V30 57087 C 5300.75 2.66372 -2.12742 0
M  V30 57088 H 5301.94 0.996933 -2.82845 0
M  V30 57089 H 5299.5 0.484051 -1.48616 0
M  V30 57090 H 5300.23 3.00448 -1.22072 0
M  V30 57091 H 5300.02 2.58801 -2.94558 0
M  V30 57092 H 5301.51 3.41584 -2.4023 0
M  V30 57093 N 5301.94 1.49106 0.510415 0
M  V30 57094 C 5303.17 1.61811 1.28938 0
M  V30 57095 C 5303.59 0.285839 1.86624 0
M  V30 57096 O 5302.94 -0.727492 1.67373 0
M  V30 57097 C 5303 2.67974 2.42635 0
M  V30 57098 O 5302.72 3.96033 1.87323 0
M  V30 57099 C 5304.22 2.91298 3.34156 0
M  V30 57100 H 5301.44 0.545013 0.39141 0
M  V30 57101 H 5303.98 1.95073 0.613737 0
M  V30 57102 H 5302.14 2.37516 3.06047 0
M  V30 57103 H 5302.55 4.54436 2.61893 0
M  V30 57104 H 5304.02 3.69337 4.10237 0
M  V30 57105 H 5304.5 2.00856 3.90581 0
M  V30 57106 H 5305.11 3.23137 2.76519 0
M  V30 57107 N 5303.42 -0.760766 1.38022 0
M  V30 57108 C 5304.35 -1.88807 1.37384 0
M  V30 57109 C 5305.33 -1.68387 0.240796 0
M  V30 57110 O 5306.52 -1.89084 0.442805 0
M  V30 57111 C 5303.65 -3.2624 1.19101 0
M  V30 57112 C 5302.6 -3.61246 2.29533 0
M  V30 57113 C 5301.93 -4.97339 1.96363 0
M  V30 57114 C 5303.23 -3.66861 3.71766 0
M  V30 57115 H 5304.92 -1.89598 2.31717 0
M  V30 57116 H 5302.47 -0.910779 1.11538 0
M  V30 57117 H 5304.42 -4.04751 1.17282 0
M  V30 57118 H 5303.15 -3.25909 0.212266 0
M  V30 57119 H 5301.8 -2.85049 2.30527 0
M  V30 57120 H 5301.45 -4.9356 0.969901 0
M  V30 57121 H 5301.15 -5.21729 2.70319 0
M  V30 57122 H 5302.68 -5.78237 1.96149 0
M  V30 57123 H 5304.09 -4.35501 3.72843 0
M  V30 57124 H 5302.49 -4.02757 4.44868 0
M  V30 57125 H 5303.56 -2.67259 4.04599 0
M  V30 57126 N 5304.9 -1.22773 -0.988158 0
M  V30 57127 C 5305.81 -1.01852 -2.11337 0
M  V30 57128 C 5306.83 0.0346325 -1.73966 0
M  V30 57129 O 5308 -0.159131 -2.0077 0
M  V30 57130 C 5305.07 -0.603957 -3.41399 0
M  V30 57131 C 5304.13 -1.73127 -3.92843 0
M  V30 57132 C 5303.36 -1.33639 -5.16697 0
M  V30 57133 O 5303.58 -0.217241 -5.69986 0
M  V30 57134 O 5302.52 -2.15463 -5.62014 0
M  V30 57135 H 5306.34 -1.96135 -2.31872 0
M  V30 57136 H 5303.93 -1.01409 -1.09711 0
M  V30 57137 H 5305.81 -0.383343 -4.19653 0
M  V30 57138 H 5304.49 0.309969 -3.22212 0
M  V30 57139 H 5303.39 -2.00645 -3.15741 0
M  V30 57140 H 5304.73 -2.62323 -4.1647 0
M  V30 57141 N 5306.38 1.18573 -1.03818 0
M  V30 57142 C 5307.31 2.24332 -0.647874 0
M  V30 57143 C 5308.29 1.66509 0.347681 0
M  V30 57144 O 5309.47 1.92853 0.228333 0
M  V30 57145 C 5306.6 3.47299 -0.00747131 0
M  V30 57146 C 5305.56 4.17856 -0.926299 0
M  V30 57147 C 5304.89 5.34488 -0.150505 0
M  V30 57148 C 5306.18 4.71624 -2.24428 0
M  V30 57149 H 5307.88 2.57235 -1.532 0
M  V30 57150 H 5305.43 1.23647 -0.738071 0
M  V30 57151 H 5307.38 4.20487 0.277286 0
M  V30 57152 H 5306.1 3.13622 0.911516 0
M  V30 57153 H 5304.76 3.46563 -1.1954 0
M  V30 57154 H 5304.41 4.97059 0.77081 0
M  V30 57155 H 5304.11 5.8263 -0.762612 0
M  V30 57156 H 5305.63 6.10467 0.127293 0
M  V30 57157 H 5307.05 5.36519 -2.0204 0
M  V30 57158 H 5305.44 5.3029 -2.80913 0
M  V30 57159 H 5306.51 3.89182 -2.8925 0
M  V30 57160 N 5307.86 0.817307 1.34751 0
M  V30 57161 C 5309.08 0.414494 2.03216 0
M  V30 57162 C 5309.51 -0.96998 1.61161 0
M  V30 57163 O 5308.87 -1.63013 0.793493 0
M  V30 57164 C 5308.91 0.518212 3.56857 0
M  V30 57165 O 5308.02 -0.46417 4.09779 0
M  V30 57166 H 5307.36 0.171476 0.641476 0
M  V30 57167 H 5309.89 1.10617 1.72119 0
M  V30 57168 H 5309.9 0.391922 4.06113 0
M  V30 57169 H 5308.57 1.528 3.86814 0
M  V30 57170 H 5307.15 -0.29723 3.71714 0
M  V30 57171 N 5309.34 -1.46863 0.571763 0
M  V30 57172 C 5310.75 -1.86157 0.142247 0
M  V30 57173 C 5311.1 -1.47668 -1.29185 0
M  V30 57174 O 5310.22 -0.886463 -1.9741 0
M  V30 57175 C 5310.82 -3.37866 0.251375 0
M  V30 57176 C 5309.38 -3.76198 -0.123197 0
M  V30 57177 C 5308.52 -2.709 0.592327 0
M  V30 57178 H 5311.47 -1.38173 0.780636 0
M  V30 57179 H 5311.5 -3.76844 -0.526199 0
M  V30 57180 H 5311.01 -3.65849 1.29523 0
M  V30 57181 H 5309.11 -3.53833 -1.1676 0
M  V30 57182 H 5309.22 -4.78471 0.245498 0
M  V30 57183 H 5307.59 -2.54678 0.0337822 0
M  V30 57184 H 5308.37 -3.01723 1.63762 0
M  V30 57185 N 5310.81 -0.308963 -1.54542 0
M  V30 57186 C 5312.06 0.29124 -2.01304 0
M  V30 57187 C 5312.41 1.50913 -1.19344 0
M  V30 57188 O 5311.71 1.89775 -0.263791 0
M  V30 57189 C 5311.9 0.691399 -3.50649 0
M  V30 57190 C 5311.73 -0.486164 -4.47064 0
M  V30 57191 C 5310.5 -0.98069 -4.95692 0
M  V30 57192 C 5312.7 -1.33369 -4.96706 0
M  V30 57193 N 5310.68 -2.12419 -5.75979 0
M  V30 57194 C 5312.05 -2.32456 -5.74773 0
M  V30 57195 C 5314.11 -1.36315 -4.78877 0
M  V30 57196 C 5312.81 -3.34274 -6.36909 0
M  V30 57197 C 5314.84 -2.36995 -5.41837 0
M  V30 57198 C 5314.2 -3.34811 -6.19743 0
M  V30 57199 H 5310.3 0.0708144 -0.778787 0
M  V30 57200 H 5312.88 -0.440687 -1.89647 0
M  V30 57201 H 5311.05 1.39248 -3.6258 0
M  V30 57202 H 5312.78 1.27182 -3.84196 0
M  V30 57203 H 5309.54 -0.554355 -4.70344 0
M  V30 57204 H 5309.96 -2.70057 -6.20804 0
M  V30 57205 H 5314.6 -0.620619 -4.1822 0
M  V30 57206 H 5312.32 -4.09442 -6.96694 0
M  V30 57207 H 5315.91 -2.40058 -5.29965 0
M  V30 57208 H 5314.79 -4.11441 -6.67597 0
M  V30 57209 N 5312.29 1.57557 -0.0368381 0
M  V30 57210 C 5313.22 2.07601 0.971322 0
M  V30 57211 C 5314.24 1.00095 1.28394 0
M  V30 57212 O 5315.43 1.27696 1.24724 0
M  V30 57213 C 5312.53 2.49208 2.29671 0
M  V30 57214 C 5311.7 3.79883 2.16813 0
M  V30 57215 C 5310.76 4.07957 3.32351 0
M  V30 57216 O 5309.78 4.78094 3.08893 0
M  V30 57217 N 5310.99 3.58738 4.56385 0
M  V30 57218 H 5313.75 2.94716 0.544285 0
M  V30 57219 H 5311.31 1.61206 0.149743 0
M  V30 57220 H 5313.3 2.65076 3.05806 0
M  V30 57221 H 5311.87 1.67417 2.63989 0
M  V30 57222 H 5311.09 3.73737 1.25357 0
M  V30 57223 H 5312.38 4.65483 2.05433 0
M  V30 57224 H 5311.78 3.02011 4.78336 0
M  V30 57225 H 5310.34 3.79871 5.29662 0
M  V30 57226 N 5313.77 -0.236398 1.55817 0
M  V30 57227 C 5314.7 -1.31954 1.86181 0
M  V30 57228 C 5315.68 -1.45898 0.71782 0
M  V30 57229 O 5316.86 -1.61946 0.964663 0
M  V30 57230 C 5313.99 -2.69176 2.05577 0
M  V30 57231 C 5313.04 -2.72327 3.28238 0
M  V30 57232 S 5313.87 -2.27881 4.84593 0
M  V30 57233 C 5315.03 -3.67007 5.07007 0
M  V30 57234 H 5315.26 -1.06001 2.77761 0
M  V30 57235 H 5312.79 -0.437909 1.4806 0
M  V30 57236 H 5314.75 -3.48184 2.17436 0
M  V30 57237 H 5313.41 -2.92361 1.14821 0
M  V30 57238 H 5312.6 -3.73128 3.38809 0
M  V30 57239 H 5312.21 -2.01371 3.1516 0
M  V30 57240 H 5314.5 -4.62587 4.94995 0
M  V30 57241 H 5315.44 -3.61364 6.08951 0
M  V30 57242 H 5315.85 -3.60007 4.34805 0
M  V30 57243 N 5315.25 -1.49374 -0.5025 0
M  V30 57244 C 5316.47 -1.62756 -1.2855 0
M  V30 57245 C 5316.9 -0.298351 -1.85719 0
M  V30 57246 O 5316.26 0.733827 -1.65785 0
M  V30 57247 C 5316.3 -2.69787 -2.39264 0
M  V30 57248 O 5315.41 -2.28855 -3.43073 0
M  V30 57249 H 5314.75 -0.544812 -0.379573 0
M  V30 57250 H 5317.28 -1.95552 -0.601723 0
M  V30 57251 H 5317.29 -2.91909 -2.8505 0
M  V30 57252 H 5315.96 -3.66273 -1.9702 0
M  V30 57253 H 5314.54 -2.17058 -3.03216 0
M  V30 57254 N 5316.73 0.753436 -1.38424 0
M  V30 57255 C 5317.69 1.84883 -1.35465 0
M  V30 57256 C 5318.69 1.58763 -0.255139 0
M  V30 57257 O 5319.88 1.66505 -0.512036 0
M  V30 57258 C 5317.01 3.22357 -1.10899 0
M  V30 57259 H 5318.2 1.88914 -2.3292 0
M  V30 57260 H 5315.76 0.955155 -1.23719 0
M  V30 57261 H 5316.49 3.23995 -0.140514 0
M  V30 57262 H 5316.28 3.42711 -1.90504 0
M  V30 57263 H 5317.77 4.02433 -1.11525 0
M  V30 57264 N 5318.2 1.23295 0.981634 0
M  V30 57265 C 5319.13 1.03745 2.09187 0
M  V30 57266 C 5320.11 -0.0452443 1.7004 0
M  V30 57267 O 5321.3 0.11916 1.93834 0
M  V30 57268 C 5318.43 0.626547 3.41602 0
M  V30 57269 C 5317.38 1.65645 3.94646 0
M  V30 57270 C 5316.71 1.10103 5.23241 0
M  V30 57271 C 5318.01 3.04917 4.24055 0
M  V30 57272 H 5319.7 1.96608 2.258 0
M  V30 57273 H 5317.25 0.946694 1.08507 0
M  V30 57274 H 5319.2 0.476837 4.18693 0
M  V30 57275 H 5317.93 -0.337759 3.24849 0
M  V30 57276 H 5316.59 1.79413 3.19698 0
M  V30 57277 H 5316.23 0.127739 5.02838 0
M  V30 57278 H 5315.93 1.78916 5.59699 0
M  V30 57279 H 5317.46 0.96314 6.02956 0
M  V30 57280 H 5318.87 2.94458 4.91902 0
M  V30 57281 H 5317.27 3.70957 4.71711 0
M  V30 57282 H 5318.34 3.54002 3.31377 0
M  V30 57283 N 5319.68 -1.1802 1.04446 0
M  V30 57284 C 5320.93 -1.88374 0.751199 0
M  V30 57285 C 5321.26 -1.80379 -0.719508 0
M  V30 57286 O 5320.54 -1.20668 -1.52544 0
M  V30 57287 C 5320.82 -3.38704 1.22277 0
M  V30 57288 C 5320.67 -3.55489 2.75586 0
M  V30 57289 C 5321.99 -4.32472 0.81584 0
M  V30 57290 H 5319.11 -0.684027 0.274364 0
M  V30 57291 H 5321.75 -1.38832 1.29713 0
M  V30 57292 H 5319.9 -3.81027 0.758326 0
M  V30 57293 H 5321.57 -3.22232 3.30097 0
M  V30 57294 H 5319.82 -2.98017 3.15227 0
M  V30 57295 H 5320.49 -4.60983 3.03642 0
M  V30 57296 H 5322.96 -3.97949 1.21556 0
M  V30 57297 H 5321.84 -5.36209 1.1735 0
M  V30 57298 H 5322.1 -4.41208 -0.280746 0
M  V30 57299 N 5321.16 -0.824441 -1.34316 0
M  V30 57300 C 5322.09 -0.204885 -2.28282 0
M  V30 57301 C 5323.11 0.606109 -1.51097 0
M  V30 57302 O 5324.29 0.435541 -1.73105 0
M  V30 57303 C 5321.39 0.731274 -3.30916 0
M  V30 57304 C 5320.57 -0.037226 -4.37384 0
M  V30 57305 C 5319.63 0.820089 -5.1977 0
M  V30 57306 O 5318.65 0.264521 -5.68585 0
M  V30 57307 N 5319.85 2.13965 -5.39629 0
M  V30 57308 H 5322.62 -1.0122 -2.8209 0
M  V30 57309 H 5320.18 -0.681545 -1.46856 0
M  V30 57310 H 5322.17 1.30945 -3.8293 0
M  V30 57311 H 5320.74 1.43933 -2.77492 0
M  V30 57312 H 5319.96 -0.796714 -3.86065 0
M  V30 57313 H 5321.25 -0.566192 -5.0564 0
M  V30 57314 H 5320.65 2.61474 -5.01645 0
M  V30 57315 H 5319.21 2.66664 -5.94755 0
M  V30 57316 N 5322.64 1.46557 -0.579543 0
M  V30 57317 C 5323.88 2.02699 -0.0640076 0
M  V30 57318 C 5324.22 1.45045 1.29134 0
M  V30 57319 O 5323.49 0.614349 1.84543 0
M  V30 57320 C 5323.78 3.601 0.00515959 0
M  V30 57321 C 5323.63 4.28144 -1.37887 0
M  V30 57322 C 5324.95 4.34378 0.707384 0
M  V30 57323 H 5322.07 0.736585 -0.0247344 0
M  V30 57324 H 5324.71 1.74737 -0.746133 0
M  V30 57325 H 5322.86 3.84054 0.586071 0
M  V30 57326 H 5324.53 4.15463 -2.0047 0
M  V30 57327 H 5322.77 3.87629 -1.94746 0
M  V30 57328 H 5323.44 5.36883 -1.28297 0
M  V30 57329 H 5325.92 4.1555 0.213918 0
M  V30 57330 H 5324.8 5.44094 0.724801 0
M  V30 57331 H 5325.06 4.05206 1.76806 0
M  V30 57332 N 5324.12 0.317154 1.54376 0
M  V30 57333 C 5325.07 -0.567121 2.20834 0
M  V30 57334 C 5326.05 -1.08656 1.1867 0
M  V30 57335 O 5327.24 -1.02465 1.44326 0
M  V30 57336 C 5324.37 -1.73068 2.96483 0
M  V30 57337 C 5323.46 -1.22644 4.05979 0
M  V30 57338 N 5323.85 -0.441388 5.0387 0
M  V30 57339 C 5322.15 -1.50574 4.19814 0
M  V30 57340 C 5322.85 -0.170858 5.81449 0
M  V30 57341 N 5321.82 -0.7552 5.38329 0
M  V30 57342 H 5325.63 0.0400382 2.93873 0
M  V30 57343 H 5323.14 0.122696 1.61936 0
M  V30 57344 H 5325.14 -2.37589 3.42574 0
M  V30 57345 H 5323.8 -2.34138 2.24965 0
M  V30 57346 H 5324.81 -0.0848101 5.17831 0
M  V30 57347 H 5321.48 -2.12275 3.59507 0
M  V30 57348 H 5322.87 0.46072 6.70319 0
M  V30 57349 N 5325.59 -1.57535 0.0451932 0
M  V30 57350 C 5326.56 -2.10083 -0.916387 0
M  V30 57351 C 5327.56 -1.01918 -1.24376 0
M  V30 57352 O 5328.75 -1.28014 -1.18144 0
M  V30 57353 C 5325.88 -2.58009 -2.22809 0
M  V30 57354 H 5327.07 -2.96336 -0.460971 0
M  V30 57355 H 5324.63 -1.54975 -0.203114 0
M  V30 57356 H 5325.36 -1.75133 -2.72945 0
M  V30 57357 H 5325.15 -3.37047 -2.00354 0
M  V30 57358 H 5326.64 -2.98833 -2.917 0
M  V30 57359 N 5327.07 0.228132 -1.5594 0
M  V30 57360 C 5328.3 0.974731 -1.83068 0
M  V30 57361 C 5328.72 1.77424 -0.624686 0
M  V30 57362 O 5328.08 1.76212 0.426494 0
M  V30 57363 C 5328.13 1.87331 -3.08122 0
M  V30 57364 O 5327.23 2.96774 -2.86355 0
M  V30 57365 H 5326.57 0.276358 -0.603757 0
M  V30 57366 H 5329.1 0.243436 -2.03147 0
M  V30 57367 H 5329.11 2.28439 -3.38053 0
M  V30 57368 H 5327.79 1.28562 -3.95531 0
M  V30 57369 H 5326.37 2.59659 -2.6764 0
M  V30 57370 N 5328.55 1.49639 0.494571 0
M  V30 57371 C 5329.48 1.62908 1.61225 0
M  V30 57372 C 5330.5 0.511479 1.54557 0
M  V30 57373 O 5331.68 0.783781 1.60372 0
M  V30 57374 C 5328.78 1.57575 3.00039 0
M  V30 57375 C 5327.96 2.84976 3.31825 0
M  V30 57376 C 5327.02 2.72607 4.5008 0
M  V30 57377 O 5326.04 3.46548 4.51545 0
M  V30 57378 N 5327.24 1.84582 5.50372 0
M  V30 57379 H 5330.01 2.59306 1.50267 0
M  V30 57380 H 5327.57 1.46808 0.682568 0
M  V30 57381 H 5329.56 1.46945 3.7708 0
M  V30 57382 H 5328.13 0.690081 3.04888 0
M  V30 57383 H 5327.35 3.09909 2.43619 0
M  V30 57384 H 5328.64 3.69424 3.49862 0
M  V30 57385 H 5328.04 1.23778 5.51992 0
M  V30 57386 H 5326.6 1.79871 6.2649 0
M  V30 57387 N 5330.03 -0.746085 1.38821 0
M  V30 57388 C 5331.44 -1.3238 1.31653 0
M  V30 57389 C 5331.79 -1.96185 -0.0242396 0
M  V30 57390 O 5330.92 -1.95571 -0.926341 0
M  V30 57391 C 5331.51 -2.40704 2.38426 0
M  V30 57392 C 5330.07 -2.94177 2.34813 0
M  V30 57393 C 5329.22 -1.67631 2.20896 0
M  V30 57394 H 5332.17 -0.544404 1.4907 0
M  V30 57395 H 5332.19 -3.20826 2.04575 0
M  V30 57396 H 5331.7 -1.94236 3.35997 0
M  V30 57397 H 5329.8 -3.44954 1.40846 0
M  V30 57398 H 5329.91 -3.48045 3.29244 0
M  V30 57399 H 5328.28 -1.91545 1.67877 0
M  V30 57400 H 5329.06 -1.2323 3.2042 0
M  V30 57401 N 5331.51 -1.23814 -0.975081 0
M  V30 57402 C 5332.73 -1.10116 -1.75754 0
M  V30 57403 C 5333.16 0.342857 -1.84949 0
M  V30 57404 O 5332.51 1.24809 -1.315 0
M  V30 57405 C 5332.56 -1.73735 -3.15988 0
M  V30 57406 O 5331.67 -1.00311 -4.00014 0
M  V30 57407 H 5331.01 -0.385646 -0.54053 0
M  V30 57408 H 5333.54 -1.63975 -1.22366 0
M  V30 57409 H 5333.55 -1.79191 -3.66544 0
M  V30 57410 H 5332.22 -2.78805 -3.08611 0
M  V30 57411 H 5330.8 -1.02588 -3.58511 0
M  V30 57412 N 5332.98 1.17465 -1.0507 0
M  V30 57413 C 5334.21 1.92159 -0.780366 0
M  V30 57414 C 5334.63 1.76224 0.65777 0
M  V30 57415 O 5333.99 1.07916 1.45684 0
M  V30 57416 C 5334.04 3.41288 -1.16426 0
M  V30 57417 O 5333.14 4.11339 -0.295675 0
M  V30 57418 H 5332.49 0.599117 -0.286278 0
M  V30 57419 H 5335.02 1.48898 -1.40323 0
M  V30 57420 H 5335.03 3.92025 -1.1305 0
M  V30 57421 H 5333.7 3.52206 -2.21187 0
M  V30 57422 H 5332.28 3.70856 -0.389928 0
M  V30 57423 N 5334.46 0.831553 1.33877 0
M  V30 57424 C 5335.71 0.423744 1.98017 0
M  V30 57425 C 5336.04 -1.01528 1.65899 0
M  V30 57426 O 5335.29 -1.72339 0.927243 0
M  V30 57427 C 5335.59 0.582857 3.52615 0
M  V30 57428 C 5335.26 1.98888 4.04666 0
M  V30 57429 C 5333.92 2.37349 4.18592 0
M  V30 57430 C 5336.27 2.90761 4.3256 0
M  V30 57431 C 5333.6 3.67 4.57742 0
M  V30 57432 C 5335.95 4.19885 4.73159 0
M  V30 57433 C 5334.62 4.58311 4.85291 0
M  V30 57434 H 5333.89 0.155059 0.724595 0
M  V30 57435 H 5336.53 1.05717 1.59676 0
M  V30 57436 H 5334.84 -0.133914 3.91571 0
M  V30 57437 H 5336.53 0.247717 4.00234 0
M  V30 57438 H 5333.12 1.68015 3.94295 0
M  V30 57439 H 5337.31 2.62287 4.2133 0
M  V30 57440 H 5332.56 3.96587 4.65327 0
M  V30 57441 H 5336.74 4.91155 4.937 0
M  V30 57442 H 5334.37 5.58823 5.15384 0
M  V30 57443 N 5335.94 -1.46248 0.587307 0
M  V30 57444 C 5336.89 -2.27407 -0.164313 0
M  V30 57445 C 5337.88 -1.36141 -0.85758 0
M  V30 57446 O 5339.07 -1.60282 -0.750916 0
M  V30 57447 C 5336.2 -3.22589 -1.17436 0
M  V30 57448 C 5335.28 -4.21341 -0.482973 0
M  V30 57449 N 5335.67 -5.03667 0.464027 0
M  V30 57450 C 5333.97 -4.39933 -0.733135 0
M  V30 57451 C 5334.67 -5.75179 0.868536 0
M  V30 57452 N 5333.65 -5.43168 0.216678 0
M  V30 57453 H 5337.45 -2.88451 0.563338 0
M  V30 57454 H 5334.96 -1.57154 0.409443 0
M  V30 57455 H 5336.96 -3.79445 -1.72705 0
M  V30 57456 H 5335.62 -2.63105 -1.90278 0
M  V30 57457 H 5336.63 -5.11046 0.839782 0
M  V30 57458 H 5333.31 -3.91594 -1.44778 0
M  V30 57459 H 5334.7 -6.51365 1.64844 0
M  V30 57460 N 5337.42 -0.325336 -1.54205 0
M  V30 57461 C 5338.7 0.331062 -1.92778 0
M  V30 57462 C 5339.08 1.69735 -1.25512 0
M  V30 57463 O 5338.42 2.24981 -0.399464 0
M  V30 57464 C 5338.63 0.421514 -3.46445 0
M  V30 57465 C 5339.98 0.680963 -4.19104 0
M  V30 57466 O 5341.01 0.504364 -3.52611 0
M  V30 57467 O 5339.87 1.02177 -5.36863 0
M  V30 57468 H 5336.96 0.189401 -0.805019 0
M  V30 57469 H 5339.51 -0.375181 -1.65501 0
M  V30 57470 H 5338.28 -0.537998 -3.87584 0
M  V30 57471 H 5337.9 1.17527 -3.79833 0
M  V30 57472 N 5338.9 1.57509 -0.0535471 0
M  V30 57473 C 5340.14 1.92785 0.619704 0
M  V30 57474 C 5340.47 0.932106 1.7071 0
M  V30 57475 O 5339.73 -0.0552203 1.95622 0
M  V30 57476 C 5340.03 3.34739 1.25239 0
M  V30 57477 C 5339.69 4.49947 0.292955 0
M  V30 57478 C 5338.35 4.81191 0.0289531 0
M  V30 57479 C 5340.71 5.19924 -0.364454 0
M  V30 57480 C 5338.03 5.79758 -0.899853 0
M  V30 57481 C 5340.39 6.19485 -1.28147 0
M  V30 57482 C 5339.05 6.49156 -1.55412 0
M  V30 57483 H 5338.32 0.705449 0.226766 0
M  V30 57484 H 5340.97 1.9112 -0.120533 0
M  V30 57485 H 5339.27 3.32781 2.06795 0
M  V30 57486 H 5340.97 3.59314 1.78029 0
M  V30 57487 H 5337.56 4.25568 0.508903 0
M  V30 57488 H 5341.74 4.95996 -0.173586 0
M  V30 57489 H 5337 6.01081 -1.11854 0
M  V30 57490 H 5341.17 6.72818 -1.79692 0
M  V30 57491 H 5338.8 7.25346 -2.27545 0
M  V30 57492 N 5340.38 -0.219858 1.56059 0
M  V30 57493 C 5341.79 -0.786706 1.69316 0
M  V30 57494 C 5342.14 -1.84914 0.655847 0
M  V30 57495 O 5341.26 -2.1554 -0.192696 0
M  V30 57496 C 5341.86 -1.43376 3.06967 0
M  V30 57497 C 5340.42 -1.94798 3.22073 0
M  V30 57498 C 5339.56 -0.80877 2.65244 0
M  V30 57499 H 5342.51 0.00482356 1.58699 0
M  V30 57500 H 5342.54 -2.30261 3.02919 0
M  V30 57501 H 5342.05 -0.660271 3.82442 0
M  V30 57502 H 5340.15 -2.74943 2.5147 0
M  V30 57503 H 5340.26 -2.12679 4.29307 0
M  V30 57504 H 5338.63 -1.21654 2.23769 0
M  V30 57505 H 5339.41 -0.0479251 3.43267 0
M  V30 57506 N 5341.85 -1.49899 -0.486629 0
M  V30 57507 C 5343.13 -1.50618 -1.24794 0
M  V30 57508 C 5343.51 -0.242004 -2.09708 0
M  V30 57509 O 5342.86 0.775161 -2.1495 0
M  V30 57510 C 5343.07 -2.79325 -2.09233 0
M  V30 57511 C 5344.42 -3.29381 -2.67943 0
M  V30 57512 O 5345.44 -2.8054 -2.19489 0
M  V30 57513 O 5344.3 -4.14479 -3.56187 0
M  V30 57514 H 5341.39 -0.603467 -0.56547 0
M  V30 57515 H 5343.94 -1.62175 -0.499721 0
M  V30 57516 H 5342.71 -3.62817 -1.46559 0
M  V30 57517 H 5342.33 -2.70697 -2.9122 0
M  V30 57518 N 5343.33 0.738712 -1.39215 0
M  V30 57519 C 5344.26 1.86597 -1.4037 0
M  V30 57520 C 5345.24 1.67983 -0.267555 0
M  V30 57521 O 5346.43 1.88356 -0.472831 0
M  V30 57522 C 5343.56 3.24303 -1.24276 0
M  V30 57523 C 5342.51 3.57548 -2.35251 0
M  V30 57524 C 5341.84 4.94152 -2.0425 0
M  V30 57525 C 5343.14 3.609 -3.77556 0
M  V30 57526 H 5344.83 1.85888 -2.34704 0
M  V30 57527 H 5342.38 0.892919 -1.12973 0
M  V30 57528 H 5344.33 4.02833 -1.23706 0
M  V30 57529 H 5343.05 3.25531 -0.264089 0
M  V30 57530 H 5341.71 2.81346 -2.35032 0
M  V30 57531 H 5341.36 4.91955 -1.0483 0
M  V30 57532 H 5341.06 5.17363 -2.78585 0
M  V30 57533 H 5342.59 5.75043 -2.05324 0
M  V30 57534 H 5344 4.29514 -3.79724 0
M  V30 57535 H 5342.4 3.95628 -4.51219 0
M  V30 57536 H 5343.47 2.60788 -4.088 0
M  V30 57537 N 5344.81 1.24329 0.968501 0
M  V30 57538 C 5346.06 1.08038 1.70799 0
M  V30 57539 C 5346.38 -0.381661 1.91229 0
M  V30 57540 O 5345.65 -1.27247 1.48946 0
M  V30 57541 H 5344.23 0.396799 0.632898 0
M  V30 57542 H 5346.89 1.56236 1.16517 0
M  V30 57543 H 5345.99 1.57778 2.69281 0
M  V30 57544 N 5346.29 -1.16906 1.05692 0
M  V30 57545 C 5347.22 -2.20646 0.620314 0
M  V30 57546 C 5348.23 -1.59653 -0.318548 0
M  V30 57547 O 5349.42 -1.78158 -0.11049 0
M  V30 57548 C 5346.52 -3.38716 -0.11161 0
M  V30 57549 C 5345.69 -4.29274 0.839213 0
M  V30 57550 C 5344.75 -5.25993 0.147638 0
M  V30 57551 O 5343.78 -5.63784 0.783349 0
M  V30 57552 N 5344.98 -5.69729 -1.11307 0
M  V30 57553 H 5347.75 -2.58725 1.51265 0
M  V30 57554 H 5345.31 -1.31855 0.939458 0
M  V30 57555 H 5347.3 -4.00457 -0.584516 0
M  V30 57556 H 5345.87 -2.99193 -0.905679 0
M  V30 57557 H 5345.09 -3.64889 1.49163 0
M  V30 57558 H 5346.38 -4.86664 1.48445 0
M  V30 57559 H 5345.78 -5.41108 -1.6498 0
M  V30 57560 H 5344.33 -6.33589 -1.52996 0
M  V30 57561 N 5347.77 -0.838641 -1.33434 0
M  V30 57562 C 5348.68 -0.27413 -2.32993 0
M  V30 57563 C 5349.69 0.599718 -1.63338 0
M  V30 57564 O 5350.87 0.503895 -1.94995 0
M  V30 57565 C 5347.93 0.541684 -3.42442 0
M  V30 57566 C 5346.99 -0.356412 -4.27818 0
M  V30 57567 C 5346.23 0.42056 -5.3204 0
M  V30 57568 O 5346.45 1.65228 -5.45945 0
M  V30 57569 O 5345.38 -0.205313 -6.0155 0
M  V30 57570 H 5349.21 -1.09856 -2.83135 0
M  V30 57571 H 5346.79 -0.601159 -1.36771 0
M  V30 57572 H 5348.68 1.00529 -4.09233 0
M  V30 57573 H 5347.35 1.34318 -2.94517 0
M  V30 57574 H 5346.26 -0.867854 -3.63894 0
M  V30 57575 H 5347.59 -1.12267 -4.79225 0
M  V30 57576 N 5349.24 1.45934 -0.595055 0
M  V30 57577 C 5350.49 2.0262 -0.0855029 0
M  V30 57578 C 5350.82 1.46406 1.27588 0
M  V30 57579 O 5350.1 0.633887 1.83881 0
M  V30 57580 C 5350.38 3.60085 -0.0330341 0
M  V30 57581 C 5350.23 4.26658 -1.4242 0
M  V30 57582 C 5351.55 4.35104 0.661273 0
M  V30 57583 H 5348.67 0.736281 -0.0325454 0
M  V30 57584 H 5351.31 1.73935 -0.764624 0
M  V30 57585 H 5349.46 3.84654 0.545304 0
M  V30 57586 H 5351.14 4.13313 -2.04865 0
M  V30 57587 H 5349.38 3.85542 -1.98846 0
M  V30 57588 H 5350.05 5.35493 -1.33984 0
M  V30 57589 H 5352.53 4.15753 0.169831 0
M  V30 57590 H 5351.4 5.44832 0.667052 0
M  V30 57591 H 5351.66 4.07059 1.72498 0
M  V30 57592 N 5350.72 0.33351 1.54031 0
M  V30 57593 C 5351.69 -0.515313 2.23332 0
M  V30 57594 C 5352.69 -1.03562 1.2301 0
M  V30 57595 O 5353.88 -0.926462 1.47521 0
M  V30 57596 C 5351.01 -1.7168 2.94515 0
M  V30 57597 H 5352.2 0.0906461 2.99763 0
M  V30 57598 H 5349.75 0.08472 1.5607 0
M  V30 57599 H 5350.49 -2.36173 2.22245 0
M  V30 57600 H 5350.27 -1.35102 3.68089 0
M  V30 57601 H 5351.76 -2.31909 3.47286 0
M  V30 57602 N 5352.2 -1.57478 0.0618994 0
M  V30 57603 C 5353.13 -2.15185 -0.906525 0
M  V30 57604 C 5354.11 -1.07629 -1.3172 0
M  V30 57605 O 5355.3 -1.35619 -1.39001 0
M  V30 57606 C 5352.43 -2.7055 -2.17762 0
M  V30 57607 C 5351.38 -3.83184 -1.90667 0
M  V30 57608 C 5350.71 -4.25111 -3.24322 0
M  V30 57609 C 5352.01 -5.07857 -1.21976 0
M  V30 57610 H 5353.7 -2.96356 -0.425836 0
M  V30 57611 H 5351.25 -1.42556 -0.203385 0
M  V30 57612 H 5353.2 -3.09562 -2.85918 0
M  V30 57613 H 5351.92 -1.86585 -2.68055 0
M  V30 57614 H 5350.58 -3.44661 -1.24919 0
M  V30 57615 H 5350.23 -3.38082 -3.72438 0
M  V30 57616 H 5349.93 -5.01031 -3.06988 0
M  V30 57617 H 5351.45 -4.66732 -3.93692 0
M  V30 57618 H 5352.87 -5.44248 -1.80185 0
M  V30 57619 H 5351.27 -5.88991 -1.14933 0
M  V30 57620 H 5352.34 -4.84498 -0.197366 0
M  V30 57621 N 5353.68 0.211579 -1.56173 0
M  V30 57622 C 5354.63 1.28181 -1.94094 0
M  V30 57623 C 5355.62 1.47997 -0.82422 0
M  V30 57624 O 5356.83 1.49053 -1.00912 0
M  V30 57625 H 5353.2 0.429968 -0.616953 0
M  V30 57626 H 5355.17 0.934863 -2.83378 0
M  V30 57627 C 5353.92 2.62286 -2.28257 0
M  V30 57628 H 5353.24 2.47849 -3.13705 0
M  V30 57629 H 5354.68 3.35958 -2.58666 0
M  V30 57630 C 5353.14 3.18045 -1.11125 0
M  V30 57631 O 5353.67 3.99921 -0.377598 0
M  V30 57632 N 5351.88 2.76558 -0.892418 0
M  V30 57633 H 5351.43 2.10082 -1.49074 0
M  V30 57634 H 5351.38 3.14206 -0.110454 0
M  V30 57635 N 5355.16 1.50155 0.478672 0
M  V30 57636 C 5356.12 1.67921 1.55997 0
M  V30 57637 C 5357.12 0.550164 1.51095 0
M  V30 57638 O 5358.31 0.817055 1.5385 0
M  V30 57639 C 5355.44 1.6974 2.95637 0
M  V30 57640 H 5356.63 2.64385 1.41564 0
M  V30 57641 H 5354.19 1.39522 0.704516 0
M  V30 57642 H 5354.92 0.749417 3.15522 0
M  V30 57643 H 5354.71 2.51756 3.00602 0
M  V30 57644 H 5356.2 1.85466 3.74155 0
M  V30 57645 N 5356.63 -0.731319 1.39605 0
M  V30 57646 C 5357.58 -1.86671 1.38768 0
M  V30 57647 C 5358.58 -1.6723 0.270306 0
M  V30 57648 O 5359.78 -1.74526 0.440532 0
M  V30 57649 H 5356.16 -0.614538 0.433413 0
M  V30 57650 H 5358.13 -1.84493 2.34531 0
M  V30 57651 C 5356.88 -3.2439 1.25167 0
M  V30 57652 H 5356.2 -3.39948 2.10418 0
M  V30 57653 H 5357.64 -4.04015 1.28639 0
M  V30 57654 C 5356.1 -3.36877 -0.0395792 0
M  V30 57655 O 5356.63 -3.88837 -1.0084 0
M  V30 57656 N 5354.84 -2.90414 -0.103863 0
M  V30 57657 H 5354.38 -2.48319 0.685242 0
M  V30 57658 H 5354.34 -2.99149 -0.96733 0
M  V30 57659 N 5358.11 -1.24841 -0.961894 0
M  V30 57660 C 5359.34 -1.11878 -1.74043 0
M  V30 57661 C 5359.76 0.328144 -1.85926 0
M  V30 57662 O 5359.11 1.22611 -1.35177 0
M  V30 57663 C 5359.16 -1.75942 -3.15795 0
M  V30 57664 O 5358.88 -3.14977 -3.04501 0
M  V30 57665 C 5360.39 -1.68664 -4.0996 0
M  V30 57666 H 5357.61 -0.390589 -0.545602 0
M  V30 57667 H 5360.15 -1.65062 -1.20726 0
M  V30 57668 H 5358.3 -1.26746 -3.6608 0
M  V30 57669 H 5358.72 -3.46363 -3.93869 0
M  V30 57670 H 5360.19 -2.18162 -5.0706 0
M  V30 57671 H 5360.67 -0.648984 -4.34379 0
M  V30 57672 H 5361.28 -2.17314 -3.65588 0
M  V30 57673 N 5359.59 1.16344 -1.0631 0
M  V30 57674 C 5360.54 2.20738 -0.67404 0
M  V30 57675 C 5361.51 1.62801 0.329397 0
M  V30 57676 O 5362.69 1.89548 0.218246 0
M  V30 57677 C 5359.83 3.45035 -0.0668221 0
M  V30 57678 C 5358.95 4.17217 -1.12046 0
M  V30 57679 C 5358.08 5.29033 -0.479362 0
M  V30 57680 C 5357.12 5.93016 -1.51652 0
M  V30 57681 N 5356.26 6.96324 -0.898773 0
M  V30 57682 H 5361.1 2.5337 -1.56868 0
M  V30 57683 H 5358.63 1.24446 -0.784319 0
M  V30 57684 H 5360.59 4.161 0.30277 0
M  V30 57685 H 5359.22 3.12953 0.791223 0
M  V30 57686 H 5358.27 3.44754 -1.60775 0
M  V30 57687 H 5359.59 4.60895 -1.90728 0
M  V30 57688 H 5358.74 6.06673 -0.0568126 0
M  V30 57689 H 5357.48 4.86518 0.339339 0
M  V30 57690 H 5356.48 5.14097 -1.94896 0
M  V30 57691 H 5357.71 6.3761 -2.33732 0
M  V30 57692 H 5355.65 6.55923 -0.100786 0
M  V30 57693 H 5355.57 7.38373 -1.62298 0
M  V30 57694 H 5356.84 7.77886 -0.501374 0
M  V30 57695 N 5361.07 0.845705 1.32987 0
M  V30 57696 C 5362.02 0.272493 2.30998 0
M  V30 57697 C 5363.01 -0.599256 1.58446 0
M  V30 57698 O 5364.22 -0.488056 1.73257 0
M  V30 57699 H 5360.59 0.0694014 0.748791 0
M  V30 57700 H 5362.56 1.11353 2.76845 0
M  V30 57701 C 5361.31 -0.531899 3.43608 0
M  V30 57702 H 5360.63 0.129595 3.9959 0
M  V30 57703 H 5362.07 -0.898707 4.14366 0
M  V30 57704 C 5360.53 -1.71354 2.90068 0
M  V30 57705 O 5361.06 -2.81242 2.8682 0
M  V30 57706 N 5359.27 -1.53766 2.46585 0
M  V30 57707 H 5358.82 -0.643748 2.49427 0
M  V30 57708 H 5358.77 -2.32975 2.11116 0
M  V30 57709 N 5362.55 -1.45617 0.602786 0
M  V30 57710 C 5363.48 -2.28662 -0.156932 0
M  V30 57711 C 5364.49 -1.39675 -0.836347 0
M  V30 57712 O 5365.68 -1.64093 -0.702541 0
M  V30 57713 C 5362.78 -3.15284 -1.24295 0
M  V30 57714 C 5361.95 -4.3252 -0.651579 0
M  V30 57715 C 5361.01 -5.00387 -1.62787 0
M  V30 57716 O 5360.04 -5.57337 -1.15605 0
M  V30 57717 N 5361.24 -4.99231 -2.96224 0
M  V30 57718 H 5364.01 -2.94504 0.555638 0
M  V30 57719 H 5361.57 -1.55752 0.441935 0
M  V30 57720 H 5363.56 -3.57551 -1.89577 0
M  V30 57721 H 5362.13 -2.51383 -1.8581 0
M  V30 57722 H 5361.35 -3.93792 0.179208 0
M  V30 57723 H 5362.64 -5.08249 -0.236624 0
M  V30 57724 H 5362.03 -4.54244 -3.37163 0
M  V30 57725 H 5360.59 -5.45377 -3.56942 0
M  V30 57726 N 5364.02 -0.341674 -1.53852 0
M  V30 57727 C 5364.97 0.515979 -2.24958 0
M  V30 57728 C 5365.94 1.09707 -1.24714 0
M  V30 57729 O 5367.13 1.13403 -1.53442 0
M  V30 57730 C 5364.27 1.66196 -3.02445 0
M  V30 57731 C 5363.38 1.10836 -4.1754 0
M  V30 57732 C 5362.51 2.2215 -4.82517 0
M  V30 57733 C 5361.55 1.64131 -5.89684 0
M  V30 57734 N 5360.69 2.6918 -6.48449 0
M  V30 57735 H 5365.53 -0.0969322 -2.97842 0
M  V30 57736 H 5363.07 -0.0596082 -1.46979 0
M  V30 57737 H 5365.03 2.3366 -3.45628 0
M  V30 57738 H 5363.66 2.24589 -2.31861 0
M  V30 57739 H 5362.71 0.32472 -3.79012 0
M  V30 57740 H 5364.02 0.643977 -4.94625 0
M  V30 57741 H 5363.17 2.97482 -5.28762 0
M  V30 57742 H 5361.91 2.71931 -4.04851 0
M  V30 57743 H 5360.92 0.873037 -5.42824 0
M  V30 57744 H 5362.14 1.15204 -6.69257 0
M  V30 57745 H 5360.09 3.18219 -5.73648 0
M  V30 57746 H 5360.01 2.27358 -7.21002 0
M  V30 57747 H 5361.27 3.44287 -6.99347 0
M  V30 57748 N 5365.5 1.57443 -0.07025 0
M  V30 57749 C 5366.75 1.92607 0.598781 0
M  V30 57750 C 5367.07 0.952118 1.70863 0
M  V30 57751 O 5368.27 1.19652 2.43712 0
M  V30 57752 C 5366.73 3.42146 1.11643 0
M  V30 57753 C 5366.34 4.47984 0.037678 0
M  V30 57754 C 5368.08 3.86313 1.75962 0
M  V30 57755 C 5365.99 5.88654 0.569288 0
M  V30 57756 H 5364.92 0.718881 0.227435 0
M  V30 57757 H 5367.57 1.82948 -0.142234 0
M  V30 57758 H 5365.95 3.46873 1.91037 0
M  V30 57759 H 5367.12 4.54871 -0.736821 0
M  V30 57760 H 5365.44 4.13275 -0.509186 0
M  V30 57761 H 5368.04 4.88792 2.16764 0
M  V30 57762 H 5368.38 3.23596 2.61899 0
M  V30 57763 H 5368.91 3.84182 1.03193 0
M  V30 57764 H 5365.65 6.55012 -0.252892 0
M  V30 57765 H 5365.17 5.8529 1.31134 0
M  V30 57766 H 5366.85 6.38486 1.04618 0
M  V30 57767 N 5366.98 -0.203294 1.56283 0
M  V30 57768 C 5368.4 -0.553787 1.49684 0
M  V30 57769 C 5368.6 -1.86258 0.768767 0
M  V30 57770 O 5367.65 -2.50516 0.315912 0
M  V30 57771 C 5368.97 -0.616112 2.9432 0
M  V30 57772 C 5370.51 -0.705503 3.04945 0
M  V30 57773 C 5370.99 -0.799012 4.50976 0
M  V30 57774 N 5372.48 -0.862756 4.55094 0
M  V30 57775 C 5373.22 -0.955135 5.65389 0
M  V30 57776 N 5372.71 -1.01032 6.85394 0
M  V30 57777 N 5374.5 -0.991689 5.53283 0
M  V30 57778 H 5366.66 0.655315 2.02038 0
M  V30 57779 H 5368.92 0.232376 0.919079 0
M  V30 57780 H 5368.62 0.276313 3.50613 0
M  V30 57781 H 5368.5 -1.47359 3.47225 0
M  V30 57782 H 5370.89 -1.58836 2.48707 0
M  V30 57783 H 5370.97 0.17801 2.5518 0
M  V30 57784 H 5370.61 0.0794626 5.07838 0
M  V30 57785 H 5370.54 -1.69821 4.98466 0
M  V30 57786 H 5373.03 -0.829683 3.6868 0
M  V30 57787 H 5373.34 -1.0811 7.65201 0
M  V30 57788 H 5371.69 -0.979142 6.88068 0
M  V30 57789 H 5374.88 -0.945353 4.58455 0
M  V30 57790 H 5375.05 -1.06023 6.39268 0
M  V30 57791 N 5368.46 -1.50407 -0.470702 0
M  V30 57792 C 5369.71 -1.62623 -1.2217 0
M  V30 57793 C 5370.06 -0.322659 -1.89675 0
M  V30 57794 O 5369.35 0.679441 -1.79148 0
M  V30 57795 C 5369.55 -2.74434 -2.28955 0
M  V30 57796 C 5369.38 -4.15538 -1.71926 0
M  V30 57797 C 5368.15 -4.81934 -1.51882 0
M  V30 57798 C 5370.34 -4.99767 -1.214 0
M  V30 57799 N 5368.33 -6.07252 -0.900994 0
M  V30 57800 C 5369.7 -6.15812 -0.719422 0
M  V30 57801 C 5371.75 -4.85538 -1.10258 0
M  V30 57802 C 5370.46 -7.19192 -0.124416 0
M  V30 57803 C 5372.48 -5.89096 -0.521514 0
M  V30 57804 C 5371.84 -7.0439 -0.0373169 0
M  V30 57805 H 5367.94 -0.64923 -0.435917 0
M  V30 57806 H 5370.53 -1.87526 -0.523636 0
M  V30 57807 H 5368.7 -2.51252 -2.96187 0
M  V30 57808 H 5370.43 -2.76007 -2.95977 0
M  V30 57809 H 5367.18 -4.39234 -1.77117 0
M  V30 57810 H 5367.61 -6.74242 -0.610485 0
M  V30 57811 H 5372.25 -3.96687 -1.46286 0
M  V30 57812 H 5369.97 -8.07719 0.248066 0
M  V30 57813 H 5373.55 -5.80151 -0.437668 0
M  V30 57814 H 5372.43 -7.83152 0.405269 0
M  V30 57815 N 5369.94 0.723905 -1.39991 0
M  V30 57816 C 5370.88 1.83798 -1.39595 0
M  V30 57817 C 5371.85 1.64146 -0.254054 0
M  V30 57818 O 5373.04 1.85397 -0.450858 0
M  V30 57819 C 5370.18 3.21426 -1.25615 0
M  V30 57820 C 5369.29 3.52708 -2.49442 0
M  V30 57821 C 5368.43 4.79797 -2.27966 0
M  V30 57822 C 5367.47 5.03956 -3.47411 0
M  V30 57823 N 5366.6 6.22254 -3.25183 0
M  V30 57824 H 5371.44 1.83471 -2.34824 0
M  V30 57825 H 5368.98 0.896355 -1.16636 0
M  V30 57826 H 5370.94 4.00888 -1.15518 0
M  V30 57827 H 5369.57 3.21003 -0.340099 0
M  V30 57828 H 5368.62 2.67863 -2.70099 0
M  V30 57829 H 5369.93 3.66474 -3.38376 0
M  V30 57830 H 5369.09 5.67261 -2.15175 0
M  V30 57831 H 5367.83 4.68225 -1.36444 0
M  V30 57832 H 5366.83 4.1495 -3.60689 0
M  V30 57833 H 5368.06 5.17406 -4.3985 0
M  V30 57834 H 5366 6.11949 -2.36336 0
M  V30 57835 H 5365.92 6.36659 -4.07679 0
M  V30 57836 H 5367.19 7.12528 -3.16108 0
M  V30 57837 N 5371.42 1.2535 0.95526 0
M  V30 57838 C 5372.36 1.05468 2.07314 0
M  V30 57839 C 5373.36 -0.0142103 1.69394 0
M  V30 57840 O 5374.56 0.141355 1.79444 0
M  V30 57841 H 5370.94 0.324119 0.678565 0
M  V30 57842 H 5372.91 2.00238 2.2124 0
M  V30 57843 C 5371.66 0.689449 3.40796 0
M  V30 57844 H 5370.98 1.50375 3.70442 0
M  V30 57845 H 5372.42 0.590031 4.19875 0
M  V30 57846 C 5370.88 -0.604439 3.31433 0
M  V30 57847 O 5371.41 -1.64673 3.66396 0
M  V30 57848 N 5369.62 -0.589827 2.84551 0
M  V30 57849 H 5369.16 0.258738 2.56297 0
M  V30 57850 H 5369.12 -1.45571 2.78669 0
M  V30 57851 N 5372.89 -1.15778 1.06926 0
M  V30 57852 C 5373.8 -2.24006 0.697027 0
M  V30 57853 C 5374.82 -1.7157 -0.289802 0
M  V30 57854 O 5376 -2.0093 -0.137514 0
M  V30 57855 C 5373.06 -3.46567 0.0959113 0
M  V30 57856 C 5372.12 -4.14013 1.13542 0
M  V30 57857 C 5371.35 -5.30723 0.562899 0
M  V30 57858 O 5371.58 -5.66994 -0.62239 0
M  V30 57859 O 5370.51 -5.87567 1.3057 0
M  V30 57860 H 5374.34 -2.58168 1.59947 0
M  V30 57861 H 5371.92 -1.23417 0.841932 0
M  V30 57862 H 5373.8 -4.20732 -0.237259 0
M  V30 57863 H 5372.48 -3.14164 -0.779917 0
M  V30 57864 H 5371.39 -3.4179 1.52088 0
M  V30 57865 H 5372.72 -4.50486 1.983 0
M  V30 57866 N 5374.37 -0.852746 -1.32537 0
M  V30 57867 C 5375.62 -0.455867 -1.9761 0
M  V30 57868 C 5375.95 0.985557 -1.67333 0
M  V30 57869 O 5375.23 1.69126 -0.960553 0
M  V30 57870 C 5375.51 -0.693245 -3.53364 0
M  V30 57871 C 5375.36 -2.18295 -3.93278 0
M  V30 57872 C 5376.68 -0.148391 -4.3985 0
M  V30 57873 H 5373.8 -0.167104 -0.717806 0
M  V30 57874 H 5376.44 -1.07082 -1.56951 0
M  V30 57875 H 5374.59 -0.169813 -3.88129 0
M  V30 57876 H 5376.26 -2.77231 -3.68701 0
M  V30 57877 H 5374.51 -2.66218 -3.42506 0
M  V30 57878 H 5375.18 -2.29974 -5.01813 0
M  V30 57879 H 5377.65 -0.595978 -4.1181 0
M  V30 57880 H 5376.53 -0.344066 -5.47821 0
M  V30 57881 H 5376.79 0.94872 -4.31801 0
M  V30 57882 N 5375.85 1.45295 -0.6105 0
M  V30 57883 C 5377.27 1.57224 -0.274387 0
M  V30 57884 C 5377.47 1.6014 1.22301 0
M  V30 57885 O 5376.52 1.53327 2.00617 0
M  V30 57886 C 5377.83 2.85361 -0.948128 0
M  V30 57887 C 5379.38 2.99041 -0.924321 0
M  V30 57888 C 5379.86 4.29952 -1.57813 0
M  V30 57889 N 5381.35 4.36718 -1.54375 0
M  V30 57890 C 5382.08 5.36688 -2.01876 0
M  V30 57891 N 5381.58 6.43178 -2.57476 0
M  V30 57892 N 5383.37 5.28064 -1.92627 0
M  V30 57893 H 5375.52 1.41646 -1.58273 0
M  V30 57894 H 5377.79 0.677417 -0.663182 0
M  V30 57895 H 5377.49 2.89118 -2.00259 0
M  V30 57896 H 5377.37 3.7422 -0.473193 0
M  V30 57897 H 5379.75 2.94849 0.121605 0
M  V30 57898 H 5379.83 2.11585 -1.43755 0
M  V30 57899 H 5379.48 4.34903 -2.6234 0
M  V30 57900 H 5379.41 5.1623 -1.0399 0
M  V30 57901 H 5381.9 3.6037 -1.13762 0
M  V30 57902 H 5382.21 7.15712 -2.91507 0
M  V30 57903 H 5380.56 6.43921 -2.61516 0
M  V30 57904 H 5383.75 4.43777 -1.48927 0
M  V30 57905 H 5383.92 6.05824 -2.29959 0
M  V30 57906 N 5377.33 0.349828 1.53668 0
M  V30 57907 C 5378.58 -0.245791 2.00197 0
M  V30 57908 C 5378.89 -1.5115 1.24149 0
M  V30 57909 O 5380.1 -2.18475 1.61186 0
M  V30 57910 C 5378.55 -0.488539 3.56569 0
M  V30 57911 C 5378.16 0.761631 4.41478 0
M  V30 57912 C 5379.9 -1.04267 4.11496 0
M  V30 57913 C 5377.81 0.489335 5.89372 0
M  V30 57914 H 5376.74 -0.095623 0.747912 0
M  V30 57915 H 5379.39 0.466131 1.77481 0
M  V30 57916 H 5377.77 -1.26132 3.75375 0
M  V30 57917 H 5378.95 1.536 4.34446 0
M  V30 57918 H 5377.26 1.23785 3.97575 0
M  V30 57919 H 5379.86 -1.26146 5.19607 0
M  V30 57920 H 5380.2 -2.0001 3.65105 0
M  V30 57921 H 5380.74 -0.330443 3.96425 0
M  V30 57922 H 5377.47 1.41665 6.40009 0
M  V30 57923 H 5376.99 -0.246828 5.99292 0
M  V30 57924 H 5378.67 0.108928 6.46908 0
M  V30 57925 N 5378.81 -1.57404 0.0785986 0
M  V30 57926 C 5379.76 -2.09635 -0.896491 0
M  V30 57927 C 5380.74 -1.00758 -1.25446 0
M  V30 57928 O 5381.93 -1.27057 -1.2323 0
M  V30 57929 C 5379.06 -2.66702 -2.1616 0
M  V30 57930 C 5378.15 -3.82595 -1.82981 0
M  V30 57931 N 5378.54 -4.9129 -1.20283 0
M  V30 57932 C 5376.84 -3.92019 -2.12691 0
M  V30 57933 C 5377.54 -5.72081 -1.05347 0
M  V30 57934 N 5376.51 -5.20573 -1.56541 0
M  V30 57935 H 5380.31 -2.91061 -0.407518 0
M  V30 57936 H 5377.83 -1.61917 -0.125098 0
M  V30 57937 H 5379.83 -3.0244 -2.86941 0
M  V30 57938 H 5378.49 -1.86725 -2.65639 0
M  V30 57939 H 5379.5 -5.10512 -0.871637 0
M  V30 57940 H 5376.17 -3.23027 -2.64499 0
M  V30 57941 H 5377.56 -6.69525 -0.56445 0
M  V30 57942 N 5380.28 0.195003 -1.56389 0
M  V30 57943 C 5381.51 0.93568 -1.85094 0
M  V30 57944 C 5381.93 1.76059 -0.66218 0
M  V30 57945 O 5381.29 1.77077 0.389021 0
M  V30 57946 C 5381.34 1.80753 -3.12027 0
M  V30 57947 O 5380.44 2.90633 -2.92585 0
M  V30 57948 H 5379.79 0.263489 -0.609483 0
M  V30 57949 H 5382.32 0.200291 -2.03617 0
M  V30 57950 H 5382.33 2.21217 -3.42822 0
M  V30 57951 H 5381 1.20143 -3.98169 0
M  V30 57952 H 5379.58 2.53924 -2.73088 0
M  V30 57953 N 5381.76 1.50654 0.462719 0
M  V30 57954 C 5383.01 1.61741 1.21178 0
M  V30 57955 C 5383.33 0.323757 1.92294 0
M  V30 57956 O 5382.6 -0.659204 1.84476 0
M  V30 57957 H 5381.18 0.596031 0.450285 0
M  V30 57958 H 5383.84 1.87471 0.532985 0
M  V30 57959 H 5382.94 2.43269 1.95516 0
M  V30 57960 N 5383.24 -0.716471 1.40373 0
M  V30 57961 C 5384.47 -1.51064 1.42107 0
M  V30 57962 C 5384.89 -1.88087 0.0223048 0
M  V30 57963 O 5384.25 -1.53207 -0.969394 0
M  V30 57964 C 5384.3 -2.76299 2.31714 0
M  V30 57965 O 5383.4 -3.72969 1.75978 0
M  V30 57966 H 5382.74 -0.455485 0.483145 0
M  V30 57967 H 5385.27 -0.882449 1.84591 0
M  V30 57968 H 5385.28 -3.24837 2.4687 0
M  V30 57969 H 5383.96 -2.48686 3.33358 0
M  V30 57970 H 5382.53 -3.31812 1.70163 0
M  V30 57971 N 5384.72 -1.25855 -0.948599 0
M  V30 57972 C 5385.97 -1.1096 -1.69393 0
M  V30 57973 C 5386.29 0.348376 -1.91355 0
M  V30 57974 O 5385.55 1.27279 -1.48655 0
M  V30 57975 C 5385.85 -1.81576 -3.07839 0
M  V30 57976 C 5385.51 -3.31487 -3.05658 0
M  V30 57977 C 5384.18 -3.72382 -3.04771 0
M  V30 57978 C 5386.53 -4.27236 -2.98528 0
M  V30 57979 C 5383.86 -5.07426 -2.94509 0
M  V30 57980 C 5386.21 -5.62311 -2.89808 0
M  V30 57981 C 5384.87 -6.02527 -2.87259 0
M  V30 57982 H 5384.14 -0.406033 -0.619854 0
M  V30 57983 H 5386.79 -1.56204 -1.10782 0
M  V30 57984 H 5385.09 -1.2878 -3.70031 0
M  V30 57985 H 5386.79 -1.67498 -3.64342 0
M  V30 57986 H 5383.38 -2.98952 -3.07125 0
M  V30 57987 H 5387.56 -3.96628 -2.98328 0
M  V30 57988 H 5382.82 -5.37757 -2.90909 0
M  V30 57989 H 5386.99 -6.36192 -2.83253 0
M  V30 57990 H 5384.62 -7.07126 -2.79064 0
M  V30 57991 N 5386.2 1.1521 -1.07538 0
M  V30 57992 C 5387.13 2.19631 -0.655339 0
M  V30 57993 C 5388.14 1.6014 0.293108 0
M  V30 57994 O 5389.33 1.78311 0.082133 0
M  V30 57995 C 5386.43 3.38851 0.0577089 0
M  V30 57996 C 5385.6 4.27884 -0.907401 0
M  V30 57997 C 5384.66 5.25691 -0.2313 0
M  V30 57998 O 5383.69 5.62466 -0.872943 0
M  V30 57999 N 5384.89 5.71427 1.02229 0
M  V30 58000 H 5387.66 2.56286 -1.55362 0
M  V30 58001 H 5385.22 1.30344 -0.960316 0
M  V30 58002 H 5387.21 4.01336 0.520733 0
M  V30 58003 H 5385.78 3.00596 0.857965 0
M  V30 58004 H 5385 3.6247 -1.54949 0
M  V30 58005 H 5386.29 4.8424 -1.56169 0
M  V30 58006 H 5385.68 5.43665 1.5635 0
M  V30 58007 H 5384.24 6.35943 1.42897 0
M  V30 58008 N 5387.67 0.859763 1.32083 0
M  V30 58009 C 5388.9 0.478936 2.01794 0
M  V30 58010 C 5389.32 -0.918217 1.64166 0
M  V30 58011 O 5388.68 -1.60406 0.844953 0
M  V30 58012 C 5388.73 0.631481 3.55028 0
M  V30 58013 O 5387.83 -0.333567 4.11049 0
M  V30 58014 H 5387.18 0.191798 0.635696 0
M  V30 58015 H 5389.71 1.16037 1.68513 0
M  V30 58016 H 5389.72 0.520925 4.04661 0
M  V30 58017 H 5388.39 1.65029 3.81757 0
M  V30 58018 H 5386.97 -0.178822 3.72471 0
M  V30 58019 N 5389.15 -1.44969 0.618196 0
M  V30 58020 C 5390.08 -2.28816 -0.13267 0
M  V30 58021 C 5391.1 -1.40554 -0.821486 0
M  V30 58022 O 5392.29 -1.64829 -0.685097 0
M  V30 58023 C 5389.39 -3.16585 -1.20944 0
M  V30 58024 C 5388.56 -4.33186 -0.605668 0
M  V30 58025 C 5387.62 -5.02085 -1.5747 0
M  V30 58026 O 5386.64 -5.58532 -1.09687 0
M  V30 58027 N 5387.85 -5.02345 -2.90912 0
M  V30 58028 H 5390.61 -2.93898 0.586843 0
M  V30 58029 H 5388.17 -1.55274 0.45843 0
M  V30 58030 H 5390.16 -3.59541 -1.85774 0
M  V30 58031 H 5388.73 -2.53339 -1.83134 0
M  V30 58032 H 5387.95 -3.9358 0.220965 0
M  V30 58033 H 5389.24 -5.08472 -0.182704 0
M  V30 58034 H 5388.64 -4.57795 -3.32326 0
M  V30 58035 H 5387.2 -5.49132 -3.51137 0
M  V30 58036 N 5390.63 -0.357973 -1.53481 0
M  V30 58037 C 5391.88 0.234439 -2.0144 0
M  V30 58038 C 5392.21 1.4904 -1.24502 0
M  V30 58039 O 5391.48 1.91565 -0.336603 0
M  V30 58040 C 5391.77 0.534068 -3.56118 0
M  V30 58041 C 5391.62 -0.73499 -4.43754 0
M  V30 58042 C 5392.94 1.33778 -4.19275 0
M  V30 58043 H 5390.06 0.0837337 -0.732228 0
M  V30 58044 H 5392.7 -0.481362 -1.83801 0
M  V30 58045 H 5390.85 1.14386 -3.71279 0
M  V30 58046 H 5392.52 -1.37266 -4.40404 0
M  V30 58047 H 5390.77 -1.35693 -4.12031 0
M  V30 58048 H 5391.44 -0.480403 -5.49906 0
M  V30 58049 H 5393.91 0.822014 -4.079 0
M  V30 58050 H 5392.79 1.51618 -5.27545 0
M  V30 58051 H 5393.05 2.3441 -3.74839 0
M  V30 58052 N 5392.11 1.5736 -0.086945 0
M  V30 58053 C 5393.02 2.1709 0.889326 0
M  V30 58054 C 5394.03 1.13813 1.31615 0
M  V30 58055 O 5395.21 1.46148 1.38574 0
M  V30 58056 C 5392.28 2.73293 2.13335 0
M  V30 58057 C 5391.34 3.91497 1.7615 0
M  V30 58058 C 5390.57 4.4501 2.94622 0
M  V30 58059 O 5390.79 3.97482 4.09102 0
M  V30 58060 O 5389.73 5.36142 2.7356 0
M  V30 58061 H 5393.55 3.00904 0.41117 0
M  V30 58062 H 5391.14 1.48771 0.136962 0
M  V30 58063 H 5393.02 3.0925 2.86256 0
M  V30 58064 H 5391.69 1.9253 2.60219 0
M  V30 58065 H 5390.6 3.60366 1.00434 0
M  V30 58066 H 5391.93 4.73598 1.34036 0
M  V30 58067 N 5393.59 -0.186707 1.5649 0
M  V30 58068 C 5394.52 -1.23388 1.98236 0
M  V30 58069 C 5395.5 -1.47017 0.855577 0
M  V30 58070 O 5396.68 -1.58612 1.12053 0
M  V30 58071 C 5393.81 -2.57626 2.32907 0
M  V30 58072 C 5392.77 -2.48595 3.48403 0
M  V30 58073 C 5392.09 -3.87183 3.68773 0
M  V30 58074 C 5393.39 -2.00381 4.82332 0
M  V30 58075 H 5395.09 -0.886925 2.85962 0
M  V30 58076 H 5392.63 -0.425202 1.37579 0
M  V30 58077 H 5394.59 -3.31073 2.60708 0
M  V30 58078 H 5393.31 -2.94079 1.42074 0
M  V30 58079 H 5391.97 -1.77604 3.20706 0
M  V30 58080 H 5391.62 -4.21003 2.75256 0
M  V30 58081 H 5391.32 -3.82013 4.46475 0
M  V30 58082 H 5392.84 -4.62239 3.98958 0
M  V30 58083 H 5394.25 -2.63592 5.09109 0
M  V30 58084 H 5392.65 -2.06194 5.63564 0
M  V30 58085 H 5393.72 -0.957395 4.75355 0
M  V30 58086 N 5395.07 -1.50897 -0.454723 0
M  V30 58087 C 5396.29 -1.66764 -1.23307 0
M  V30 58088 C 5396.72 -0.357285 -1.84676 0
M  V30 58089 O 5396.07 0.680712 -1.68036 0
M  V30 58090 C 5396.12 -2.77262 -2.3056 0
M  V30 58091 O 5395.23 -2.39654 -3.35618 0
M  V30 58092 H 5394.57 -0.556612 -0.362048 0
M  V30 58093 H 5397.1 -1.97367 -0.539205 0
M  V30 58094 H 5397.11 -3.00829 -2.75619 0
M  V30 58095 H 5395.78 -3.72355 -1.85268 0
M  V30 58096 H 5394.36 -2.26595 -2.96157 0
M  V30 58097 N 5396.54 0.709016 -1.40751 0
M  V30 58098 C 5397.49 1.8444 -1.4172 0
M  V30 58099 C 5398.49 1.66778 -0.296876 0
M  V30 58100 O 5399.69 1.73803 -0.468242 0
M  V30 58101 H 5396.07 0.607565 -0.443135 0
M  V30 58102 H 5398.04 1.80738 -2.37437 0
M  V30 58103 C 5396.79 3.22357 -1.30312 0
M  V30 58104 H 5396.11 3.36557 -2.15799 0
M  V30 58105 H 5397.55 4.01917 -1.3505 0
M  V30 58106 C 5396.01 3.36897 -0.01402 0
M  V30 58107 O 5396.54 3.90392 0.946415 0
M  V30 58108 N 5394.74 2.90543 0.057647 0
M  V30 58109 H 5394.29 2.47197 -0.724661 0
M  V30 58110 H 5394.25 3.0065 0.919615 0
M  V30 58111 N 5398.02 1.26356 0.941911 0
M  V30 58112 C 5399.3 1.02607 1.66527 0
M  V30 58113 C 5399.68 -0.443738 2.06384 0
M  V30 58114 O 5399.03 -1.42393 1.78708 0
M  V30 58115 C 5399.24 1.97411 2.87802 0
M  V30 58116 C 5400.58 2.2598 3.5947 0
M  V30 58117 O 5401.61 1.95271 2.97905 0
M  V30 58118 O 5400.47 2.7826 4.70355 0
M  V30 58119 H 5397.56 0.390096 0.729215 0
M  V30 58120 H 5400.11 1.37563 0.993706 0
M  V30 58121 H 5398.88 2.96599 2.55234 0
M  V30 58122 H 5398.5 1.6293 3.62684 0
M  V30 58123 N 5399.5 -1.14638 1.08148 0
M  V30 58124 C 5400.43 -2.19281 0.666977 0
M  V30 58125 C 5401.44 -1.60293 -0.284612 0
M  V30 58126 O 5402.63 -1.78352 -0.0726756 0
M  V30 58127 C 5399.73 -3.38877 -0.0397381 0
M  V30 58128 C 5398.91 -4.27397 0.93008 0
M  V30 58129 C 5397.97 -5.25561 0.259176 0
M  V30 58130 O 5396.99 -5.61995 0.90276 0
M  V30 58131 N 5398.19 -5.71962 -0.991976 0
M  V30 58132 H 5400.96 -2.55459 1.56719 0
M  V30 58133 H 5398.52 -1.29833 0.967215 0
M  V30 58134 H 5400.51 -4.01606 -0.499442 0
M  V30 58135 H 5399.08 -3.01046 -0.842012 0
M  V30 58136 H 5398.3 -3.61643 1.56869 0
M  V30 58137 H 5399.59 -4.83405 1.58734 0
M  V30 58138 H 5398.99 -5.44486 -1.53465 0
M  V30 58139 H 5397.54 -6.36692 -1.39522 0
M  V30 58140 N 5400.98 -0.866756 -1.31625 0
M  V30 58141 C 5401.89 -0.323489 -2.32359 0
M  V30 58142 C 5402.9 0.564937 -1.64574 0
M  V30 58143 O 5404.08 0.46242 -1.96019 0
M  V30 58144 C 5401.14 0.468925 -3.43514 0
M  V30 58145 C 5400.21 -0.447079 -4.26966 0
M  V30 58146 C 5399.44 0.307612 -5.32813 0
M  V30 58147 O 5399.66 1.53611 -5.49327 0
M  V30 58148 O 5398.6 -0.332864 -6.00979 0
M  V30 58149 H 5402.42 -1.15837 -2.80741 0
M  V30 58150 H 5400.01 -0.630035 -1.35466 0
M  V30 58151 H 5401.89 0.918261 -4.11274 0
M  V30 58152 H 5400.56 1.2804 -2.973 0
M  V30 58153 H 5399.47 -0.944846 -3.61972 0
M  V30 58154 H 5400.8 -1.22407 -4.76736 0
M  V30 58155 N 5402.46 1.44639 -0.625876 0
M  V30 58156 C 5403.4 2.30654 0.0821779 0
M  V30 58157 C 5404.37 1.43177 0.842002 0
M  V30 58158 O 5405.56 1.72085 0.824091 0
M  V30 58159 C 5402.7 3.28374 1.06134 0
M  V30 58160 C 5401.81 4.30954 0.300486 0
M  V30 58161 C 5400.95 5.1577 1.271 0
M  V30 58162 C 5399.98 6.10063 0.499 0
M  V30 58163 N 5399.12 6.87596 1.41971 0
M  V30 58164 H 5403.96 2.90661 -0.657264 0
M  V30 58165 H 5401.5 1.43213 -0.335909 0
M  V30 58166 H 5403.46 3.83513 1.64236 0
M  V30 58167 H 5402.09 2.70079 1.76798 0
M  V30 58168 H 5401.14 3.78329 -0.396367 0
M  V30 58169 H 5402.45 4.97891 -0.301026 0
M  V30 58170 H 5401.6 5.754 1.92352 0
M  V30 58171 H 5400.34 4.48894 1.90644 0
M  V30 58172 H 5399.35 5.49546 -0.167041 0
M  V30 58173 H 5400.57 6.78972 -0.131647 0
M  V30 58174 H 5398.52 6.23394 2.04246 0
M  V30 58175 H 5398.44 7.50953 0.87209 0
M  V30 58176 H 5399.7 7.51754 2.06123 0
M  V30 58177 N 5403.93 0.366107 1.53289 0
M  V30 58178 C 5404.9 -0.467826 2.24375 0
M  V30 58179 C 5405.9 -1.00929 1.25179 0
M  V30 58180 O 5407.09 -0.894963 1.49453 0
M  V30 58181 C 5404.22 -1.65394 2.9809 0
M  V30 58182 H 5405.41 0.15421 2.99503 0
M  V30 58183 H 5402.96 0.117806 1.55855 0
M  V30 58184 H 5403.7 -2.31405 2.27205 0
M  V30 58185 H 5403.48 -1.27264 3.70872 0
M  V30 58186 H 5404.97 -2.24491 3.52127 0
M  V30 58187 N 5405.41 -1.57312 0.095289 0
M  V30 58188 C 5406.36 -2.10575 -0.874206 0
M  V30 58189 C 5407.35 -1.02083 -1.2437 0
M  V30 58190 O 5408.54 -1.28357 -1.21875 0
M  V30 58191 C 5405.67 -2.68979 -2.13319 0
M  V30 58192 C 5404.75 -3.84514 -1.78913 0
M  V30 58193 N 5405.14 -4.92538 -1.15065 0
M  V30 58194 C 5403.44 -3.94253 -2.08521 0
M  V30 58195 C 5404.14 -5.73166 -0.992736 0
M  V30 58196 N 5403.12 -5.22204 -1.51011 0
M  V30 58197 H 5406.92 -2.91477 -0.376625 0
M  V30 58198 H 5404.43 -1.62041 -0.107917 0
M  V30 58199 H 5406.43 -3.05467 -2.83717 0
M  V30 58200 H 5405.09 -1.89532 -2.63643 0
M  V30 58201 H 5406.1 -5.11408 -0.817442 0
M  V30 58202 H 5402.78 -3.25815 -2.61058 0
M  V30 58203 H 5404.17 -6.70086 -0.493406 0
M  V30 58204 N 5406.89 0.178405 -1.56587 0
M  V30 58205 C 5407.82 1.22335 -1.98888 0
M  V30 58206 C 5408.8 1.46561 -0.863362 0
M  V30 58207 O 5409.99 1.58015 -1.12893 0
M  V30 58208 C 5407.12 2.56388 -2.3427 0
M  V30 58209 C 5406.07 2.46744 -3.49716 0
M  V30 58210 C 5405.4 3.85222 -3.70821 0
M  V30 58211 C 5406.7 1.97821 -4.83388 0
M  V30 58212 H 5408.39 0.871748 -2.86428 0
M  V30 58213 H 5405.94 0.4179 -1.37803 0
M  V30 58214 H 5407.89 3.29686 -2.6246 0
M  V30 58215 H 5406.61 2.93321 -1.43632 0
M  V30 58216 H 5405.27 1.759 -3.21644 0
M  V30 58217 H 5404.92 4.19537 -2.77485 0
M  V30 58218 H 5404.62 3.7964 -4.48495 0
M  V30 58219 H 5406.14 4.60117 -4.01403 0
M  V30 58220 H 5407.56 2.60888 -5.105 0
M  V30 58221 H 5405.95 2.03203 -5.64649 0
M  V30 58222 H 5407.02 0.932172 -4.75856 0
M  V30 58223 N 5408.37 1.51136 0.446714 0
M  V30 58224 C 5409.64 1.53874 1.20756 0
M  V30 58225 C 5410.02 0.297519 2.08993 0
M  V30 58226 O 5409.37 -0.717899 2.1693 0
M  V30 58227 C 5409.58 2.84774 2.01754 0
M  V30 58228 C 5410.93 3.36369 2.59116 0
M  V30 58229 O 5411.95 2.86261 2.11974 0
M  V30 58230 O 5410.81 4.23777 3.45073 0
M  V30 58231 H 5407.91 0.618247 0.549272 0
M  V30 58232 H 5410.45 1.63443 0.456547 0
M  V30 58233 H 5409.23 3.66575 1.36888 0
M  V30 58234 H 5408.85 2.78323 2.8394 0
M  V30 58235 N 5409.85 -0.701542 1.41125 0
M  V30 58236 C 5411.1 -1.45717 1.39461 0
M  V30 58237 C 5411.41 -1.95599 0.00482104 0
M  V30 58238 O 5412.61 -2.71167 -0.134433 0
M  V30 58239 C 5411.07 -2.63466 2.45181 0
M  V30 58240 C 5410.68 -2.20395 3.90039 0
M  V30 58241 C 5412.42 -3.41131 2.52645 0
M  V30 58242 C 5410.33 -3.35067 4.87324 0
M  V30 58243 H 5409.26 -0.547323 0.518607 0
M  V30 58244 H 5411.91 -0.762174 1.66923 0
M  V30 58245 H 5410.29 -3.35205 2.10841 0
M  V30 58246 H 5411.47 -1.55985 4.33596 0
M  V30 58247 H 5409.78 -1.55739 3.86179 0
M  V30 58248 H 5412.38 -4.26485 3.22513 0
M  V30 58249 H 5412.72 -3.8591 1.56139 0
M  V30 58250 H 5413.25 -2.76446 2.86046 0
M  V30 58251 H 5409.99 -2.95306 5.85213 0
M  V30 58252 H 5409.51 -3.98346 4.4842 0
M  V30 58253 H 5411.19 -4.00931 5.07802 0
M  V30 58254 N 5411.32 -1.26854 -0.935197 0
M  V30 58255 C 5412.29 -1.08982 -2.01632 0
M  V30 58256 C 5413.29 -0.0362108 -1.60759 0
M  V30 58257 O 5414.48 -0.280148 -1.71933 0
M  V30 58258 C 5411.61 -0.658948 -3.34471 0
M  V30 58259 H 5412.8 -2.04976 -2.18917 0
M  V30 58260 H 5410.36 -1.09535 -1.11498 0
M  V30 58261 H 5411.09 0.302711 -3.22884 0
M  V30 58262 H 5410.88 -1.4198 -3.65492 0
M  V30 58263 H 5412.37 -0.555929 -4.13883 0
M  V30 58264 N 5412.8 1.14063 -1.08754 0
M  V30 58265 C 5414.05 1.84816 -0.817763 0
M  V30 58266 C 5414.37 1.83548 0.658424 0
M  V30 58267 O 5413.64 1.28639 1.47746 0
M  V30 58268 H 5412.22 0.68432 -0.299526 0
M  V30 58269 H 5414.88 1.38203 -1.37426 0
M  V30 58270 H 5413.98 2.89537 -1.16511 0
M  V30 58271 N 5414.28 0.873724 1.31163 0
M  V30 58272 C 5415.51 0.500312 2.01275 0
M  V30 58273 C 5415.93 -0.900753 1.6513 0
M  V30 58274 O 5415.29 -1.59501 0.861918 0
M  V30 58275 C 5415.34 0.669101 3.54338 0
M  V30 58276 O 5414.44 -0.289951 4.11379 0
M  V30 58277 H 5413.78 0.198529 0.633626 0
M  V30 58278 H 5416.31 1.17817 1.67273 0
M  V30 58279 H 5416.32 0.563816 4.04086 0
M  V30 58280 H 5415 1.69069 3.79985 0
M  V30 58281 H 5413.57 -0.139306 3.7264 0
M  V30 58282 N 5415.76 -1.44305 0.633538 0
M  V30 58283 C 5416.69 -2.33431 -0.0567581 0
M  V30 58284 C 5417.67 -1.48345 -0.832333 0
M  V30 58285 O 5418.85 -1.77059 -0.797736 0
M  V30 58286 C 5415.98 -3.31447 -1.03732 0
M  V30 58287 C 5414.94 -4.2637 -0.373212 0
M  V30 58288 C 5414.26 -5.14272 -1.46384 0
M  V30 58289 C 5415.56 -5.17285 0.722058 0
M  V30 58290 H 5417.26 -2.914 0.687491 0
M  V30 58291 H 5414.8 -1.40119 0.332058 0
M  V30 58292 H 5416.76 -3.92683 -1.52899 0
M  V30 58293 H 5415.48 -2.71692 -1.81249 0
M  V30 58294 H 5414.14 -3.66469 0.0978341 0
M  V30 58295 H 5413.79 -4.50868 -2.22995 0
M  V30 58296 H 5413.49 -5.78594 -1.02485 0
M  V30 58297 H 5415.01 -5.7838 -1.95728 0
M  V30 58298 H 5416.43 -5.72443 0.313382 0
M  V30 58299 H 5414.82 -5.90222 1.08433 0
M  V30 58300 H 5415.89 -4.58153 1.5882 0
M  V30 58301 N 5417.24 -0.374231 -1.53092 0
M  V30 58302 C 5418.15 0.475854 -2.29723 0
M  V30 58303 C 5419.16 1.08495 -1.36033 0
M  V30 58304 O 5420.34 1.09402 -1.69095 0
M  V30 58305 C 5417.4 1.59562 -3.078 0
M  V30 58306 C 5416.46 1.01317 -4.17173 0
M  V30 58307 C 5415.7 2.07957 -4.91518 0
M  V30 58308 O 5415.92 3.29215 -4.65804 0
M  V30 58309 O 5414.85 1.7053 -5.77238 0
M  V30 58310 H 5418.68 -0.147984 -3.03339 0
M  V30 58311 H 5416.27 -0.138365 -1.48758 0
M  V30 58312 H 5418.15 2.24646 -3.56528 0
M  V30 58313 H 5416.82 2.2047 -2.37012 0
M  V30 58314 H 5415.73 0.326002 -3.72677 0
M  V30 58315 H 5417.06 0.448527 -4.90152 0
M  V30 58316 N 5418.71 1.57259 -0.10363 0
M  V30 58317 C 5419.96 1.94274 0.556955 0
M  V30 58318 C 5420.28 0.986798 1.68188 0
M  V30 58319 O 5419.55 0.0403507 1.95858 0
M  V30 58320 H 5418.13 0.717245 0.208732 0
M  V30 58321 H 5420.8 1.94166 -0.168966 0
M  V30 58322 H 5419.89 2.96917 0.961586 0
M  V30 58323 N 5420.19 -0.170098 1.56679 0
M  V30 58324 C 5421.14 -1.21524 1.92914 0
M  V30 58325 C 5422.13 -1.39739 0.797602 0
M  V30 58326 O 5423.32 -1.4169 1.0608 0
M  V30 58327 C 5420.45 -2.55439 2.2936 0
M  V30 58328 C 5419.53 -2.40912 3.4903 0
M  V30 58329 N 5419.92 -1.96101 4.66238 0
M  V30 58330 C 5418.22 -2.71735 3.53661 0
M  V30 58331 C 5418.92 -1.94067 5.48373 0
M  V30 58332 N 5417.9 -2.36516 4.8945 0
M  V30 58333 H 5421.7 -0.860503 2.81021 0
M  V30 58334 H 5419.22 -0.37836 1.57931 0
M  V30 58335 H 5421.21 -3.30963 2.53514 0
M  V30 58336 H 5419.87 -2.91715 1.42593 0
M  V30 58337 H 5420.88 -1.6642 4.90433 0
M  V30 58338 H 5417.56 -3.1204 2.77376 0
M  V30 58339 H 5418.95 -1.61109 6.52299 0
M  V30 58340 N 5421.67 -1.51371 -0.438693 0
M  V30 58341 C 5422.6 -1.75534 -1.53981 0
M  V30 58342 C 5423.58 -0.605123 -1.58973 0
M  V30 58343 O 5424.77 -0.847695 -1.74722 0
M  V30 58344 C 5421.9 -1.87914 -2.92071 0
M  V30 58345 C 5420.85 -3.03341 -3.01941 0
M  V30 58346 C 5420.18 -3.00904 -4.41997 0
M  V30 58347 C 5421.48 -4.43328 -2.76147 0
M  V30 58348 H 5423.17 -2.67733 -1.34013 0
M  V30 58349 H 5420.72 -1.28834 -0.643262 0
M  V30 58350 H 5422.67 -2.03401 -3.69061 0
M  V30 58351 H 5421.39 -0.923624 -3.13268 0
M  V30 58352 H 5420.05 -2.87557 -2.2739 0
M  V30 58353 H 5419.7 -2.03132 -4.60159 0
M  V30 58354 H 5419.4 -3.78413 -4.4953 0
M  V30 58355 H 5420.92 -3.18482 -5.20962 0
M  V30 58356 H 5422.34 -4.5947 -3.42871 0
M  V30 58357 H 5420.74 -5.22533 -2.95092 0
M  V30 58358 H 5421.81 -4.53459 -1.71763 0
M  V30 58359 N 5423.15 0.694048 -1.41495 0
M  V30 58360 C 5424.56 1.00483 -1.23997 0
M  V30 58361 C 5424.76 2.01078 -0.130416 0
M  V30 58362 O 5423.82 2.47405 0.504688 0
M  V30 58363 C 5425.13 1.52799 -2.58985 0
M  V30 58364 C 5426.68 1.64675 -2.66179 0
M  V30 58365 C 5427.16 2.20392 -4.01487 0
M  V30 58366 N 5428.65 2.2775 -4.03341 0
M  V30 58367 C 5429.38 2.71893 -5.04838 0
M  V30 58368 N 5428.88 3.15629 -6.16726 0
M  V30 58369 N 5430.67 2.7147 -4.922 0
M  V30 58370 H 5422.82 0.0276713 -2.12382 0
M  V30 58371 H 5425.09 0.0748409 -0.945041 0
M  V30 58372 H 5424.79 0.863399 -3.40937 0
M  V30 58373 H 5424.67 2.50989 -2.81575 0
M  V30 58374 H 5427.05 2.30245 -1.84584 0
M  V30 58375 H 5427.13 0.650263 -2.47397 0
M  V30 58376 H 5426.78 1.55437 -4.83531 0
M  V30 58377 H 5426.71 3.20795 -4.1761 0
M  V30 58378 H 5429.2 1.96888 -3.22558 0
M  V30 58379 H 5429.51 3.47941 -6.90041 0
M  V30 58380 H 5427.86 3.13534 -6.20259 0
M  V30 58381 H 5431.05 2.36652 -4.03873 0
M  V30 58382 H 5431.22 3.05553 -5.71438 0
M  V30 58383 N 5424.63 1.27348 0.928456 0
M  V30 58384 C 5425.87 1.13641 1.67606 0
M  V30 58385 C 5426.2 -0.317889 1.91885 0
M  V30 58386 O 5425.46 -1.24898 1.50661 0
M  V30 58387 C 5425.76 1.8645 3.04912 0
M  V30 58388 C 5425.42 3.36308 3.00346 0
M  V30 58389 C 5424.08 3.77183 2.98808 0
M  V30 58390 C 5426.44 4.31931 2.91693 0
M  V30 58391 C 5423.76 5.12047 2.86399 0
M  V30 58392 C 5426.12 5.66851 2.80826 0
M  V30 58393 C 5424.78 6.0702 2.77637 0
M  V30 58394 H 5424.05 0.415843 0.613315 0
M  V30 58395 H 5426.7 1.57947 1.08283 0
M  V30 58396 H 5425 1.34651 3.67935 0
M  V30 58397 H 5426.7 1.73274 3.61631 0
M  V30 58398 H 5423.29 3.038 3.0233 0
M  V30 58399 H 5427.47 4.01324 2.9198 0
M  V30 58400 H 5422.73 5.42317 2.82317 0
M  V30 58401 H 5426.9 6.40618 2.73096 0
M  V30 58402 H 5424.53 7.11476 2.67779 0
M  V30 58403 N 5426.11 -1.13484 1.09357 0
M  V30 58404 C 5427.04 -2.20985 0.754167 0
M  V30 58405 C 5428.02 -1.67978 -0.267842 0
M  V30 58406 O 5429.2 -1.93723 -0.13606 0
M  V30 58407 C 5426.33 -3.46868 0.173164 0
M  V30 58408 C 5425.29 -4.12961 1.12461 0
M  V30 58409 C 5424.61 -5.33161 0.405345 0
M  V30 58410 C 5425.91 -4.60379 2.46674 0
M  V30 58411 H 5427.61 -2.49633 1.65299 0
M  V30 58412 H 5425.15 -1.19984 0.796224 0
M  V30 58413 H 5427.1 -4.21331 -0.0763507 0
M  V30 58414 H 5425.83 -3.17614 -0.760844 0
M  V30 58415 H 5424.49 -3.40465 1.35939 0
M  V30 58416 H 5424.14 -5.0017 -0.532779 0
M  V30 58417 H 5423.84 -5.78328 1.03972 0
M  V30 58418 H 5425.36 -6.10379 0.164114 0
M  V30 58419 H 5426.77 -5.26269 2.27408 0
M  V30 58420 H 5425.17 -5.16284 3.05894 0
M  V30 58421 H 5426.24 -3.74938 3.07489 0
M  V30 58422 N 5427.58 -0.880667 -1.30698 0
M  V30 58423 C 5428.53 -0.342477 -2.28245 0
M  V30 58424 C 5429.5 0.564968 -1.56196 0
M  V30 58425 O 5430.69 0.494313 -1.84286 0
M  V30 58426 C 5427.83 0.440738 -3.42274 0
M  V30 58427 C 5426.94 -0.495435 -4.2915 0
M  V30 58428 C 5426.07 0.302954 -5.30335 0
M  V30 58429 C 5425.11 -0.628965 -6.0886 0
M  V30 58430 N 5424.25 0.133833 -7.01972 0
M  V30 58431 H 5429.09 -1.17948 -2.73665 0
M  V30 58432 H 5426.63 -0.593008 -1.34617 0
M  V30 58433 H 5428.58 0.910711 -4.07139 0
M  V30 58434 H 5427.21 1.24235 -2.97935 0
M  V30 58435 H 5426.27 -1.08389 -3.64631 0
M  V30 58436 H 5427.58 -1.20957 -4.83912 0
M  V30 58437 H 5426.73 0.83497 -6.00927 0
M  V30 58438 H 5425.47 1.05032 -4.76256 0
M  V30 58439 H 5424.48 -1.17265 -5.37149 0
M  V30 58440 H 5425.7 -1.37536 -6.65027 0
M  V30 58441 H 5423.65 0.863817 -6.50288 0
M  V30 58442 H 5423.56 -0.520751 -7.54204 0
M  V30 58443 H 5424.83 0.646732 -7.76812 0
M  V30 58444 N 5429.06 1.43967 -0.641182 0
M  V30 58445 C 5430.01 2.32495 0.0697851 0
M  V30 58446 C 5431 1.47925 0.825503 0
M  V30 58447 O 5432.21 1.64208 0.737265 0
M  V30 58448 H 5428.58 0.750863 0.0413442 0
M  V30 58449 H 5430.56 2.90199 -0.694784 0
M  V30 58450 C 5429.3 3.32067 1.03087 0
M  V30 58451 H 5428.63 3.97159 0.458784 0
M  V30 58452 H 5430.07 3.9667 1.49764 0
M  V30 58453 C 5428.53 2.61751 2.12104 0
M  V30 58454 O 5429.06 2.42396 3.20323 0
M  V30 58455 N 5427.26 2.21323 1.8832 0
M  V30 58456 H 5426.81 2.37265 1.00316 0
M  V30 58457 H 5426.77 1.74604 2.61459 0
M  V30 58458 N 5430.54 0.382345 1.52892 0
M  V30 58459 C 5431.79 -0.203271 2.00673 0
M  V30 58460 C 5432.1 -1.48483 1.27327 0
M  V30 58461 O 5433.31 -2.15007 1.65784 0
M  V30 58462 C 5431.76 -0.412796 3.57525 0
M  V30 58463 C 5431.37 0.855103 4.39764 0
M  V30 58464 C 5433.12 -0.955155 4.13615 0
M  V30 58465 C 5431.02 0.61424 5.88202 0
M  V30 58466 H 5429.95 -0.0797372 0.749772 0
M  V30 58467 H 5432.6 0.503672 1.76452 0
M  V30 58468 H 5430.99 -1.18142 3.77966 0
M  V30 58469 H 5432.16 1.62781 4.31091 0
M  V30 58470 H 5430.47 1.3219 3.9486 0
M  V30 58471 H 5433.07 -1.15095 5.22166 0
M  V30 58472 H 5433.41 -1.9222 3.69266 0
M  V30 58473 H 5433.95 -0.246281 3.97037 0
M  V30 58474 H 5430.69 1.55209 6.3686 0
M  V30 58475 H 5430.21 -0.119654 5.99681 0
M  V30 58476 H 5431.89 0.246122 6.46532 0
M  V30 58477 N 5432.02 -1.57202 0.111969 0
M  V30 58478 C 5433.27 -1.94127 -0.547504 0
M  V30 58479 C 5433.58 -0.997085 -1.68278 0
M  V30 58480 O 5434.79 -1.26071 -2.40454 0
M  V30 58481 C 5433.24 -3.44986 -1.02533 0
M  V30 58482 C 5432.85 -4.47927 0.0811103 0
M  V30 58483 C 5434.59 -3.90842 -1.65658 0
M  V30 58484 C 5432.5 -5.89956 -0.413017 0
M  V30 58485 H 5431.43 -0.724658 -0.208295 0
M  V30 58486 H 5434.08 -1.82507 0.19069 0
M  V30 58487 H 5432.46 -3.51816 -1.81773 0
M  V30 58488 H 5433.64 -4.52758 0.857162 0
M  V30 58489 H 5431.95 -4.1178 0.618579 0
M  V30 58490 H 5434.55 -4.94367 -2.03729 0
M  V30 58491 H 5434.89 -3.30426 -2.53228 0
M  V30 58492 H 5435.43 -3.86783 -0.929708 0
M  V30 58493 H 5432.16 -6.54111 0.426468 0
M  V30 58494 H 5431.68 -5.88561 -1.1557 0
M  V30 58495 H 5433.36 -6.41035 -0.876531 0
M  V30 58496 N 5433.5 0.161787 -1.56767 0
M  V30 58497 C 5434.43 1.20218 -2.00174 0
M  V30 58498 C 5435.41 1.45637 -0.878858 0
M  V30 58499 O 5436.59 1.56809 -1.14562 0
M  V30 58500 C 5433.72 2.53888 -2.36977 0
M  V30 58501 C 5432.68 2.43021 -3.52314 0
M  V30 58502 C 5432 3.81267 -3.74886 0
M  V30 58503 C 5433.3 1.92683 -4.85459 0
M  V30 58504 H 5435 0.841319 -2.87336 0
M  V30 58505 H 5432.54 0.40326 -1.38238 0
M  V30 58506 H 5434.49 3.26884 -2.65942 0
M  V30 58507 H 5433.22 2.91782 -1.46735 0
M  V30 58508 H 5431.88 1.72479 -3.23491 0
M  V30 58509 H 5431.53 4.1657 -2.81919 0
M  V30 58510 H 5431.23 3.74861 -4.52496 0
M  V30 58511 H 5432.75 4.55834 -4.06261 0
M  V30 58512 H 5434.16 2.55459 -5.13238 0
M  V30 58513 H 5432.56 1.97202 -5.66773 0
M  V30 58514 H 5433.63 0.881649 -4.76818 0
M  V30 58515 N 5434.97 1.51602 0.430659 0
M  V30 58516 C 5436.38 1.57003 1.01029 0
M  V30 58517 C 5436.74 0.397506 1.92131 0
M  V30 58518 O 5435.86 -0.48488 2.10898 0
M  V30 58519 C 5436.46 2.84543 1.83905 0
M  V30 58520 C 5435.01 2.92493 2.36906 0
M  V30 58521 C 5434.16 2.51734 1.16299 0
M  V30 58522 H 5437.11 1.57282 0.211678 0
M  V30 58523 H 5437.13 2.68682 2.69426 0
M  V30 58524 H 5436.65 3.69862 1.17573 0
M  V30 58525 H 5434.75 2.11619 3.06673 0
M  V30 58526 H 5434.86 3.96287 2.69246 0
M  V30 58527 H 5433.22 2.05085 1.51037 0
M  V30 58528 H 5434.01 3.39405 0.515673 0
M  V30 58529 N 5436.45 -0.686534 1.41861 0
M  V30 58530 C 5437.7 -1.44874 1.41913 0
M  V30 58531 C 5438.03 -1.94175 0.0312091 0
M  V30 58532 O 5437.31 -1.70134 -0.942586 0
M  V30 58533 C 5437.59 -2.65419 2.43361 0
M  V30 58534 C 5437.44 -2.21826 3.91297 0
M  V30 58535 C 5438.76 -3.67627 2.41947 0
M  V30 58536 H 5435.88 -0.525459 0.51678 0
M  V30 58537 H 5438.52 -0.781202 1.73197 0
M  V30 58538 H 5436.67 -3.22372 2.16814 0
M  V30 58539 H 5438.34 -1.70131 4.28781 0
M  V30 58540 H 5436.59 -1.53517 4.05728 0
M  V30 58541 H 5437.26 -3.0836 4.57841 0
M  V30 58542 H 5439.73 -3.20366 2.65527 0
M  V30 58543 H 5438.61 -4.49568 3.14929 0
M  V30 58544 H 5438.87 -4.17948 1.44125 0
M  V30 58545 N 5437.93 -1.27838 -0.92169 0
M  V30 58546 C 5439.16 -1.17188 -1.70149 0
M  V30 58547 C 5439.57 0.273141 -1.87218 0
M  V30 58548 O 5438.91 1.19724 -1.39326 0
M  V30 58549 C 5438.97 -1.7898 -3.11779 0
M  V30 58550 C 5438.64 -3.28191 -3.18025 0
M  V30 58551 C 5439.63 -4.2474 -2.9982 0
M  V30 58552 C 5437.32 -3.69007 -3.40792 0
M  V30 58553 C 5439.31 -5.60082 -3.04281 0
M  V30 58554 C 5437 -5.04477 -3.44886 0
M  V30 58555 C 5438 -5.99824 -3.26649 0
M  V30 58556 O 5437.69 -7.32825 -3.30489 0
M  V30 58557 H 5437.42 -0.408098 -0.538918 0
M  V30 58558 H 5439.97 -1.6933 -1.1626 0
M  V30 58559 H 5438.2 -1.21323 -3.67175 0
M  V30 58560 H 5439.89 -1.62959 -3.71751 0
M  V30 58561 H 5440.66 -3.94543 -2.82066 0
M  V30 58562 H 5436.54 -2.95263 -3.54035 0
M  V30 58563 H 5440.08 -6.34481 -2.89965 0
M  V30 58564 H 5435.98 -5.34328 -3.62166 0
M  V30 58565 H 5436.74 -7.4135 -3.46904 0
M  V30 58566 N 5439.41 1.12903 -1.09958 0
M  V30 58567 C 5440.69 1.80599 -0.751211 0
M  V30 58568 C 5441.07 1.96828 0.763008 0
M  V30 58569 O 5440.41 1.54071 1.68743 0
M  V30 58570 C 5440.62 3.15283 -1.49657 0
M  V30 58571 C 5441.97 3.90554 -1.66591 0
M  V30 58572 O 5443 3.24924 -1.45954 0
M  V30 58573 O 5441.85 5.08285 -2.0077 0
M  V30 58574 H 5438.95 0.78152 -0.270473 0
M  V30 58575 H 5441.49 1.19782 -1.2021 0
M  V30 58576 H 5440.27 2.98732 -2.52735 0
M  V30 58577 H 5439.89 3.83806 -1.03822 0
M  V30 58578 N 5440.89 0.887586 1.30229 0
M  V30 58579 C 5441.83 0.354577 2.2806 0
M  V30 58580 C 5442.8 -0.556677 1.56494 0
M  V30 58581 O 5443.99 -0.484532 1.84545 0
M  V30 58582 C 5441.13 -0.422581 3.42503 0
M  V30 58583 C 5440.24 0.518187 4.28881 0
M  V30 58584 C 5439.38 -0.274825 5.30489 0
M  V30 58585 C 5438.42 0.661246 6.08518 0
M  V30 58586 N 5437.55 -0.0966041 7.02034 0
M  V30 58587 H 5442.39 1.19398 2.73035 0
M  V30 58588 H 5439.93 0.600138 1.34301 0
M  V30 58589 H 5441.89 -0.889106 4.07616 0
M  V30 58590 H 5440.52 -1.22653 2.9859 0
M  V30 58591 H 5439.57 1.10321 3.64051 0
M  V30 58592 H 5440.88 1.23521 4.83264 0
M  V30 58593 H 5440.04 -0.803089 6.01361 0
M  V30 58594 H 5438.77 -1.02505 4.76806 0
M  V30 58595 H 5437.78 1.20112 5.3652 0
M  V30 58596 H 5439 1.4106 6.64288 0
M  V30 58597 H 5436.95 -0.829319 6.50737 0
M  V30 58598 H 5436.87 0.560741 7.53918 0
M  V30 58599 H 5438.14 -0.605526 7.77145 0
M  V30 58600 N 5442.36 -1.43625 0.648807 0
M  V30 58601 C 5443.59 -2.06732 0.166356 0
M  V30 58602 C 5444.01 -1.48285 -1.15729 0
M  V30 58603 O 5443.37 -0.591078 -1.71394 0
M  V30 58604 C 5443.42 -3.60502 0.0839999 0
M  V30 58605 O 5442.52 -4.01189 -0.955043 0
M  V30 58606 H 5441.87 -0.657476 0.0928516 0
M  V30 58607 H 5444.4 -1.84205 0.890486 0
M  V30 58608 H 5444.41 -4.07876 -0.10078 0
M  V30 58609 H 5443.08 -4.0242 1.05028 0
M  V30 58610 H 5441.66 -3.65415 -0.743408 0
M  V30 58611 N 5443.84 -0.390448 -1.52687 0
M  V30 58612 C 5444.77 0.435589 -2.29401 0
M  V30 58613 C 5445.75 1.06248 -1.32836 0
M  V30 58614 O 5446.94 1.07504 -1.6173 0
M  V30 58615 C 5444.07 1.56248 -3.10167 0
M  V30 58616 C 5443.02 1.06157 -4.14626 0
M  V30 58617 C 5442.35 2.28063 -4.83623 0
M  V30 58618 C 5443.65 0.128719 -5.22141 0
M  V30 58619 H 5445.34 -0.204489 -2.98701 0
M  V30 58620 H 5442.89 -0.0997882 -1.43654 0
M  V30 58621 H 5444.84 2.14719 -3.62593 0
M  V30 58622 H 5443.57 2.23017 -2.38603 0
M  V30 58623 H 5442.22 0.499391 -3.63183 0
M  V30 58624 H 5441.87 2.93343 -4.08606 0
M  V30 58625 H 5441.57 1.95207 -5.54227 0
M  V30 58626 H 5443.1 2.87174 -5.38854 0
M  V30 58627 H 5444.51 0.621649 -5.6992 0
M  V30 58628 H 5442.91 -0.11013 -5.99999 0
M  V30 58629 H 5443.98 -0.822052 -4.77881 0
M  V30 58630 N 5445.32 1.5714 -0.120304 0
M  V30 58631 C 5446.57 1.96322 0.53192 0
M  V30 58632 C 5446.92 1.00271 1.64206 0
M  V30 58633 O 5446.21 0.0329642 1.91572 0
M  V30 58634 C 5446.41 3.39749 1.10929 0
M  V30 58635 C 5446.24 4.49664 0.0566191 0
M  V30 58636 C 5445.01 5.03902 -0.375643 0
M  V30 58637 C 5447.21 5.09166 -0.724846 0
M  V30 58638 N 5445.19 5.97395 -1.41395 0
M  V30 58639 C 5446.56 5.98615 -1.61432 0
M  V30 58640 C 5448.61 4.91822 -0.77559 0
M  V30 58641 C 5447.32 6.72578 -2.55012 0
M  V30 58642 C 5449.34 5.66467 -1.69911 0
M  V30 58643 C 5448.7 6.55602 -2.57615 0
M  V30 58644 H 5444.8 0.76456 0.164232 0
M  V30 58645 H 5447.39 1.93578 -0.208724 0
M  V30 58646 H 5445.56 3.43137 1.81965 0
M  V30 58647 H 5447.29 3.66051 1.72594 0
M  V30 58648 H 5444.05 4.73597 0.0170058 0
M  V30 58649 H 5444.47 6.48845 -1.93206 0
M  V30 58650 H 5449.11 4.22653 -0.111645 0
M  V30 58651 H 5446.83 7.40993 -3.22419 0
M  V30 58652 H 5450.42 5.55051 -1.74383 0
M  V30 58653 H 5449.3 7.1235 -3.27914 0
M  V30 58654 N 5446.8 -0.153471 1.56851 0
M  V30 58655 C 5448.08 -0.895483 1.73898 0
M  V30 58656 C 5448.46 -1.99623 0.686574 0
M  V30 58657 O 5447.8 -2.2658 -0.295621 0
M  V30 58658 C 5448.01 -1.44388 3.17731 0
M  V30 58659 C 5449.36 -1.90982 3.79224 0
M  V30 58660 O 5450.39 -1.54143 3.2112 0
M  V30 58661 O 5449.24 -2.589 4.81283 0
M  V30 58662 H 5446.34 -0.42273 0.710794 0
M  V30 58663 H 5448.88 -0.139902 1.69122 0
M  V30 58664 H 5447.66 -0.6525 3.85821 0
M  V30 58665 H 5447.28 -2.26315 3.26906 0
M  V30 58666 N 5448.28 -1.51828 -0.422613 0
M  V30 58667 C 5449.52 -1.65224 -1.17078 0
M  V30 58668 C 5449.85 -0.375575 -1.90839 0
M  V30 58669 O 5449.11 0.640964 -1.84906 0
M  V30 58670 C 5449.41 -2.81579 -2.20109 0
M  V30 58671 C 5449.07 -4.20308 -1.63253 0
M  V30 58672 C 5447.73 -4.58045 -1.47471 0
M  V30 58673 C 5450.09 -5.06816 -1.216 0
M  V30 58674 C 5447.41 -5.79982 -0.885327 0
M  V30 58675 C 5449.77 -6.29346 -0.640849 0
M  V30 58676 C 5448.43 -6.65843 -0.470052 0
M  V30 58677 H 5447.7 -0.604597 -0.42842 0
M  V30 58678 H 5450.35 -1.85898 -0.459809 0
M  V30 58679 H 5448.65 -2.55186 -2.973 0
M  V30 58680 H 5450.35 -2.89142 -2.77846 0
M  V30 58681 H 5446.94 -3.90563 -1.76517 0
M  V30 58682 H 5451.12 -4.78256 -1.32607 0
M  V30 58683 H 5446.38 -6.06894 -0.740892 0
M  V30 58684 H 5450.55 -6.95711 -0.309643 0
M  V30 58685 H 5448.18 -7.60199 -0.0112365 0
M  V30 58686 N 5449.75 0.679002 -1.42223 0
M  V30 58687 C 5450.68 1.80476 -1.48158 0
M  V30 58688 C 5451.67 1.66697 -0.338561 0
M  V30 58689 O 5452.85 1.86181 -0.552294 0
M  V30 58690 C 5449.98 3.18741 -1.37919 0
M  V30 58691 C 5448.93 3.47249 -2.50204 0
M  V30 58692 C 5448.26 4.85044 -2.25025 0
M  V30 58693 C 5449.56 3.44562 -3.92523 0
M  V30 58694 H 5451.25 1.75766 -2.42377 0
M  V30 58695 H 5448.8 0.8442 -1.16659 0
M  V30 58696 H 5450.75 3.97224 -1.4068 0
M  V30 58697 H 5449.48 3.24118 -0.40192 0
M  V30 58698 H 5448.14 2.71124 -2.46754 0
M  V30 58699 H 5447.78 4.87066 -1.25601 0
M  V30 58700 H 5447.48 5.05082 -3.00277 0
M  V30 58701 H 5449.01 5.65817 -2.29528 0
M  V30 58702 H 5450.42 4.13022 -3.976 0
M  V30 58703 H 5448.82 3.76134 -4.67593 0
M  V30 58704 H 5449.89 2.43215 -4.19493 0
M  V30 58705 N 5451.23 1.28325 0.914897 0
M  V30 58706 C 5452.18 1.12153 2.01718 0
M  V30 58707 C 5453.15 0.0189863 1.66089 0
M  V30 58708 O 5454.33 0.183705 1.89914 0
M  V30 58709 C 5451.47 0.788198 3.35978 0
M  V30 58710 C 5450.59 1.96967 3.84484 0
M  V30 58711 C 5449.72 1.57706 5.0725 0
M  V30 58712 C 5448.76 2.72525 5.48084 0
M  V30 58713 N 5447.9 2.33765 6.62041 0
M  V30 58714 H 5452.74 2.06469 2.14883 0
M  V30 58715 H 5450.28 1.02763 1.05253 0
M  V30 58716 H 5452.23 0.575691 4.13209 0
M  V30 58717 H 5450.86 -0.118019 3.22584 0
M  V30 58718 H 5449.92 2.29434 3.03421 0
M  V30 58719 H 5451.23 2.83054 4.10709 0
M  V30 58720 H 5450.38 1.32655 5.9202 0
M  V30 58721 H 5449.12 0.687461 4.8283 0
M  V30 58722 H 5448.13 2.98276 4.61857 0
M  V30 58723 H 5449.35 3.62126 5.74492 0
M  V30 58724 H 5447.3 1.47273 6.39255 0
M  V30 58725 H 5447.21 3.13388 6.87986 0
M  V30 58726 H 5448.48 2.11994 7.50119 0
M  V30 58727 N 5452.71 -1.12318 1.10555 0
M  V30 58728 C 5453.64 -2.20173 0.777563 0
M  V30 58729 C 5454.62 -1.68253 -0.25001 0
M  V30 58730 O 5455.81 -1.93856 -0.115506 0
M  V30 58731 C 5452.94 -3.46665 0.209944 0
M  V30 58732 C 5451.89 -4.11745 1.16835 0
M  V30 58733 C 5451.22 -5.32701 0.461871 0
M  V30 58734 C 5452.52 -4.57737 2.51543 0
M  V30 58735 H 5454.21 -2.47866 1.67937 0
M  V30 58736 H 5451.76 -1.19133 0.808905 0
M  V30 58737 H 5453.71 -4.21388 -0.0316586 0
M  V30 58738 H 5452.43 -3.18403 -0.727114 0
M  V30 58739 H 5451.09 -3.39004 1.39542 0
M  V30 58740 H 5450.74 -5.00707 -0.479699 0
M  V30 58741 H 5450.44 -5.77193 1.101 0
M  V30 58742 H 5451.96 -6.10171 0.228843 0
M  V30 58743 H 5453.38 -5.23827 2.32977 0
M  V30 58744 H 5451.78 -5.1301 3.11353 0
M  V30 58745 H 5452.85 -3.71656 3.11448 0
M  V30 58746 N 5454.19 -0.89448 -1.29757 0
M  V30 58747 C 5455.47 -0.437432 -1.90646 0
M  V30 58748 C 5455.85 1.08255 -1.8123 0
M  V30 58749 O 5455.19 1.92209 -1.23564 0
M  V30 58750 C 5455.4 -0.946165 -3.3593 0
M  V30 58751 C 5456.75 -0.986766 -4.12975 0
M  V30 58752 O 5457.78 -0.893477 -3.44812 0
M  V30 58753 O 5456.64 -1.1261 -5.34772 0
M  V30 58754 H 5453.73 -0.135464 -0.81583 0
M  V30 58755 H 5456.28 -0.984004 -1.38259 0
M  V30 58756 H 5455.05 -1.9901 -3.36913 0
M  V30 58757 H 5454.67 -0.379303 -3.95787 0
M  V30 58758 N 5455.67 1.43279 -0.656415 0
M  V30 58759 C 5456.91 2.02075 -0.171364 0
M  V30 58760 C 5457.25 1.51686 1.21264 0
M  V30 58761 O 5456.52 0.711307 1.81027 0
M  V30 58762 C 5456.8 3.59621 -0.185729 0
M  V30 58763 C 5456.66 4.20233 -1.60388 0
M  V30 58764 C 5457.98 4.37517 0.476135 0
M  V30 58765 H 5455.1 0.734238 -0.0637444 0
M  V30 58766 H 5457.74 1.70536 -0.837708 0
M  V30 58767 H 5455.89 3.86621 0.381668 0
M  V30 58768 H 5457.56 4.04252 -2.22211 0
M  V30 58769 H 5455.8 3.76761 -2.15019 0
M  V30 58770 H 5456.47 5.29328 -1.56576 0
M  V30 58771 H 5458.95 4.16099 -0.00665701 0
M  V30 58772 H 5457.83 5.47171 0.43537 0
M  V30 58773 H 5458.09 4.14009 1.55078 0
M  V30 58774 N 5457.15 0.398539 1.52478 0
M  V30 58775 C 5458.37 -0.180485 2.06111 0
M  V30 58776 C 5458.79 -1.39747 1.2695 0
M  V30 58777 O 5458.15 -1.79698 0.318561 0
M  V30 58778 C 5458.2 -0.541448 3.57422 0
M  V30 58779 O 5457.92 0.627195 4.33587 0
M  V30 58780 C 5459.42 -1.17534 4.27435 0
M  V30 58781 H 5456.64 -0.0250519 0.670532 0
M  V30 58782 H 5459.18 0.566437 1.96499 0
M  V30 58783 H 5457.34 -1.23826 3.67077 0
M  V30 58784 H 5457.75 0.328417 5.23471 0
M  V30 58785 H 5459.23 -1.3782 5.34518 0
M  V30 58786 H 5459.7 -2.14539 3.83236 0
M  V30 58787 H 5460.31 -0.519031 4.22121 0
M  V30 58788 N 5458.62 -1.57074 0.128636 0
M  V30 58789 C 5459.85 -1.99877 -0.534474 0
M  V30 58790 C 5460.27 -1.00849 -1.59609 0
M  V30 58791 O 5459.62 -0.00275363 -1.825 0
M  V30 58792 C 5459.67 -3.42658 -1.15186 0
M  V30 58793 O 5459.4 -4.37899 -0.132669 0
M  V30 58794 C 5460.9 -4.00643 -1.89736 0
M  V30 58795 H 5458.12 -0.656078 -0.140721 0
M  V30 58796 H 5460.66 -2.03337 0.217813 0
M  V30 58797 H 5458.82 -3.40108 -1.85487 0
M  V30 58798 H 5459.23 -5.21255 -0.582499 0
M  V30 58799 H 5460.7 -5.026 -2.28248 0
M  V30 58800 H 5461.18 -3.40323 -2.77628 0
M  V30 58801 H 5461.79 -4.06768 -1.24175 0
M  V30 58802 N 5460.1 0.14515 -1.5693 0
M  V30 58803 C 5461.33 0.87632 -1.87977 0
M  V30 58804 C 5461.75 1.73863 -0.717857 0
M  V30 58805 O 5461.11 1.78225 0.332488 0
M  V30 58806 C 5461.16 1.70735 -3.17619 0
M  V30 58807 O 5460.26 2.81178 -3.01684 0
M  V30 58808 H 5459.6 0.243965 -0.617557 0
M  V30 58809 H 5462.13 0.13541 -2.04151 0
M  V30 58810 H 5462.14 2.10198 -3.49687 0
M  V30 58811 H 5460.82 1.07415 -4.0179 0
M  V30 58812 H 5459.39 2.45107 -2.81028 0
M  V30 58813 N 5461.58 1.5205 0.414556 0
M  V30 58814 C 5462.83 1.65071 1.15907 0
M  V30 58815 C 5463.14 0.384036 1.91793 0
M  V30 58816 O 5464.35 0.393967 2.68626 0
M  V30 58817 C 5462.8 2.91618 2.10919 0
M  V30 58818 C 5462.41 4.25374 1.40575 0
M  V30 58819 C 5464.16 3.14002 2.85663 0
M  V30 58820 C 5462.06 5.43049 2.34204 0
M  V30 58821 H 5460.99 0.6149 0.436365 0
M  V30 58822 H 5463.64 1.78534 0.424009 0
M  V30 58823 H 5462.03 2.71842 2.87955 0
M  V30 58824 H 5463.2 4.55614 0.689407 0
M  V30 58825 H 5461.51 4.09049 0.778944 0
M  V30 58826 H 5464.11 3.99095 3.55847 0
M  V30 58827 H 5464.45 2.28011 3.48306 0
M  V30 58828 H 5464.99 3.34225 2.15728 0
M  V30 58829 H 5461.73 6.3137 1.76216 0
M  V30 58830 H 5461.25 5.17155 3.03827 0
M  V30 58831 H 5462.93 5.75911 2.94847 0
M  V30 58832 N 5463.06 -0.67145 1.42581 0
M  V30 58833 C 5464.31 -1.42866 1.42946 0
M  V30 58834 C 5464.63 -1.94941 0.0481169 0
M  V30 58835 O 5463.9 -1.73278 -0.91386 0
M  V30 58836 H 5462.48 -0.53017 0.52624 0
M  V30 58837 H 5465.14 -0.793156 1.78031 0
M  V30 58838 H 5464.23 -2.28003 2.13122 0
M  V30 58839 N 5464.54 -1.28809 -0.908079 0
M  V30 58840 C 5465.95 -1.06638 -1.18745 0
M  V30 58841 C 5466.15 0.187658 -2.00624 0
M  V30 58842 O 5465.21 0.887757 -2.36379 0
M  V30 58843 C 5466.52 -2.3171 -1.91653 0
M  V30 58844 C 5468.07 -2.36946 -2.04513 0
M  V30 58845 C 5468.54 -3.61799 -2.8083 0
M  V30 58846 N 5470.03 -3.62472 -2.88389 0
M  V30 58847 C 5470.77 -4.55758 -3.47954 0
M  V30 58848 N 5470.27 -5.59368 -4.08754 0
M  V30 58849 N 5472.06 -4.43343 -3.45548 0
M  V30 58850 H 5464.21 -2.093 -0.361567 0
M  V30 58851 H 5466.47 -0.921486 -0.222636 0
M  V30 58852 H 5466.18 -3.23101 -1.3892 0
M  V30 58853 H 5466.05 -2.38567 -2.92174 0
M  V30 58854 H 5468.44 -1.46049 -2.56425 0
M  V30 58855 H 5468.52 -2.3408 -1.03151 0
M  V30 58856 H 5468.16 -4.53043 -2.29596 0
M  V30 58857 H 5468.09 -3.6192 -3.8252 0
M  V30 58858 H 5470.59 -2.87553 -2.45198 0
M  V30 58859 H 5470.9 -6.26684 -4.52202 0
M  V30 58860 H 5469.24 -5.63187 -4.07241 0
M  V30 58861 H 5472.43 -3.61597 -2.97263 0
M  V30 58862 H 5472.61 -5.1623 -3.91677 0
M  V30 58863 N 5466.01 1.1173 -1.11149 0
M  V30 58864 C 5467.43 1.35409 -0.844783 0
M  V30 58865 C 5467.63 1.94349 0.532043 0
M  V30 58866 O 5466.69 2.17448 1.28346 0
M  V30 58867 C 5468 2.28862 -1.95045 0
M  V30 58868 C 5469.55 2.42435 -1.97976 0
M  V30 58869 C 5470.02 3.39208 -3.07737 0
M  V30 58870 N 5471.51 3.46769 -3.07092 0
M  V30 58871 C 5472.25 4.21581 -3.88661 0
M  V30 58872 N 5471.74 4.99394 -4.80185 0
M  V30 58873 N 5473.54 4.17062 -3.7685 0
M  V30 58874 H 5465.69 0.718341 -1.99884 0
M  V30 58875 H 5467.95 0.378756 -0.86905 0
M  V30 58876 H 5467.66 1.92742 -2.94183 0
M  V30 58877 H 5467.53 3.29054 -1.84401 0
M  V30 58878 H 5469.92 2.77832 -0.994659 0
M  V30 58879 H 5470 1.42106 -2.12696 0
M  V30 58880 H 5469.64 3.04539 -4.06471 0
M  V30 58881 H 5469.57 4.39384 -2.90257 0
M  V30 58882 H 5472.06 2.91264 -2.40778 0
M  V30 58883 H 5472.38 5.53837 -5.38966 0
M  V30 58884 H 5470.72 4.98565 -4.84208 0
M  V30 58885 H 5473.91 3.55358 -3.04694 0
M  V30 58886 H 5474.09 4.75109 -4.40653 0
M  V30 58887 N 5467.49 0.901349 1.29281 0
M  V30 58888 C 5468.42 0.337632 2.267 0
M  V30 58889 C 5469.44 -0.516985 1.54373 0
M  V30 58890 O 5470.63 -0.333875 1.7535 0
M  V30 58891 C 5467.73 -0.537096 3.34617 0
M  V30 58892 C 5466.9 0.29217 4.36423 0
M  V30 58893 C 5465.96 -0.515653 5.23667 0
M  V30 58894 O 5464.98 0.0674304 5.6916 0
M  V30 58895 N 5466.19 -1.82139 5.51186 0
M  V30 58896 H 5468.95 1.17494 2.75709 0
M  V30 58897 H 5466.51 0.766007 1.42632 0
M  V30 58898 H 5468.5 -1.08396 3.89913 0
M  V30 58899 H 5467.07 -1.2751 2.85412 0
M  V30 58900 H 5466.29 1.02045 3.80763 0
M  V30 58901 H 5467.58 0.860032 5.01479 0
M  V30 58902 H 5466.98 -2.31782 5.16037 0
M  V30 58903 H 5465.54 -2.31535 6.09291 0
M  V30 58904 N 5468.97 -1.42929 0.664004 0
M  V30 58905 C 5469.92 -2.27958 -0.0435382 0
M  V30 58906 C 5470.9 -1.40495 -0.784209 0
M  V30 58907 O 5472.1 -1.64037 -0.664899 0
M  V30 58908 C 5469.23 -3.2836 -1.00171 0
M  V30 58909 C 5468.31 -4.23309 -0.258951 0
M  V30 58910 N 5468.7 -5.00499 0.730358 0
M  V30 58911 C 5467 -4.43201 -0.498906 0
M  V30 58912 C 5467.7 -5.69767 1.17221 0
M  V30 58913 N 5466.68 -5.41256 0.504295 0
M  V30 58914 H 5470.48 -2.85059 0.715448 0
M  V30 58915 H 5467.99 -1.54763 0.492171 0
M  V30 58916 H 5469.99 -3.88066 -1.52349 0
M  V30 58917 H 5468.65 -2.72821 -1.76064 0
M  V30 58918 H 5469.66 -5.05876 1.1095 0
M  V30 58919 H 5466.34 -3.98717 -1.23817 0
M  V30 58920 H 5467.73 -6.41711 1.9914 0
M  V30 58921 N 5470.45 -0.40662 -1.52264 0
M  V30 58922 C 5471.38 0.411234 -2.2985 0
M  V30 58923 C 5472.36 1.04833 -1.33955 0
M  V30 58924 O 5473.54 1.05782 -1.62861 0
M  V30 58925 C 5470.67 1.5295 -3.11807 0
M  V30 58926 C 5469.63 1.01754 -4.15729 0
M  V30 58927 C 5468.95 2.22921 -4.86015 0
M  V30 58928 C 5470.25 0.0733314 -5.22249 0
M  V30 58929 H 5471.95 -0.236159 -2.98467 0
M  V30 58930 H 5469.49 -0.115019 -1.4354 0
M  V30 58931 H 5471.45 2.10861 -3.6485 0
M  V30 58932 H 5470.17 2.20473 -2.40955 0
M  V30 58933 H 5468.83 0.460842 -3.63692 0
M  V30 58934 H 5468.48 2.88993 -4.11694 0
M  V30 58935 H 5468.18 1.89318 -5.56267 0
M  V30 58936 H 5469.7 2.81443 -5.41869 0
M  V30 58937 H 5471.12 0.561166 -5.70547 0
M  V30 58938 H 5469.51 -0.173761 -5.99848 0
M  V30 58939 H 5470.58 -0.872691 -4.76982 0
M  V30 58940 N 5471.93 1.57004 -0.136964 0
M  V30 58941 C 5473.34 1.58083 0.219525 0
M  V30 58942 C 5473.54 1.15071 1.65411 0
M  V30 58943 O 5472.6 0.846367 2.37893 0
M  V30 58944 C 5473.91 3.00685 -0.0301169 0
M  V30 58945 C 5475.46 3.12981 0.0343799 0
M  V30 58946 C 5475.93 4.57615 -0.1878 0
M  V30 58947 N 5477.43 4.63005 -0.134382 0
M  V30 58948 C 5478.16 5.72711 -0.280944 0
M  V30 58949 N 5477.66 6.91103 -0.484673 0
M  V30 58950 N 5479.45 5.61672 -0.219252 0
M  V30 58951 H 5471.6 1.83259 -1.07378 0
M  V30 58952 H 5473.86 0.847761 -0.424271 0
M  V30 58953 H 5473.57 3.36506 -1.02259 0
M  V30 58954 H 5473.44 3.70765 0.693788 0
M  V30 58955 H 5475.83 2.77008 1.01739 0
M  V30 58956 H 5475.91 2.45408 -0.721694 0
M  V30 58957 H 5475.56 4.94291 -1.16786 0
M  V30 58958 H 5475.49 5.23302 0.588477 0
M  V30 58959 H 5477.98 3.77895 0.0188353 0
M  V30 58960 H 5478.29 7.70568 -0.586884 0
M  V30 58961 H 5476.63 6.93045 -0.520871 0
M  V30 58962 H 5479.83 4.6806 -0.0609251 0
M  V30 58963 H 5480 6.47124 -0.33691 0
M  V30 58964 N 5473.4 -0.136826 1.57005 0
M  V30 58965 C 5474.65 -0.848966 1.84175 0
M  V30 58966 C 5474.98 -1.80356 0.72009 0
M  V30 58967 O 5474.26 -1.92539 -0.275516 0
M  V30 58968 C 5474.54 -1.61454 3.21877 0
M  V30 58969 C 5474.39 -0.680746 4.44619 0
M  V30 58970 C 5475.71 -2.57476 3.56923 0
M  V30 58971 H 5472.83 -0.307185 0.66993 0
M  V30 58972 H 5475.47 -0.113795 1.89659 0
M  V30 58973 H 5473.62 -2.24126 3.17333 0
M  V30 58974 H 5475.3 -0.0642473 4.61255 0
M  V30 58975 H 5473.54 0.00898879 4.33799 0
M  V30 58976 H 5474.21 -1.25267 5.37598 0
M  V30 58977 H 5476.69 -2.04918 3.62144 0
M  V30 58978 H 5475.56 -3.08085 4.54285 0
M  V30 58979 H 5475.82 -3.39311 2.83409 0
M  V30 58980 N 5474.88 -1.52268 -0.406486 0
M  V30 58981 C 5476.11 -1.70602 -1.17939 0
M  V30 58982 C 5476.53 -0.415857 -1.83445 0
M  V30 58983 O 5475.89 0.626908 -1.70116 0
M  V30 58984 C 5475.94 -2.84457 -2.21623 0
M  V30 58985 O 5475.04 -2.5021 -3.27824 0
M  V30 58986 H 5474.38 -0.567849 -0.344157 0
M  V30 58987 H 5476.91 -1.98983 -0.476141 0
M  V30 58988 H 5476.92 -3.09446 -2.65908 0
M  V30 58989 H 5475.6 -3.78061 -1.73328 0
M  V30 58990 H 5474.18 -2.35902 -2.88799 0
M  V30 58991 N 5476.36 0.663879 -1.42935 0
M  V30 58992 C 5477.59 1.45187 -1.47406 0
M  V30 58993 C 5478 1.88592 -0.0886677 0
M  V30 58994 O 5477.36 1.58827 0.898906 0
M  V30 58995 C 5477.41 2.69385 -2.41068 0
M  V30 58996 O 5477.13 2.27799 -3.74218 0
M  V30 58997 C 5478.63 3.62846 -2.54671 0
M  V30 58998 H 5475.85 0.446376 -0.500988 0
M  V30 58999 H 5478.4 0.81481 -1.87566 0
M  V30 59000 H 5476.55 3.29255 -2.04132 0
M  V30 59001 H 5476.97 3.0808 -4.24485 0
M  V30 59002 H 5478.44 4.46687 -3.24307 0
M  V30 59003 H 5478.92 4.09481 -1.58814 0
M  V30 59004 H 5479.52 3.08864 -2.92375 0
M  V30 59005 N 5477.84 1.29288 0.901235 0
M  V30 59006 C 5478.8 1.1429 1.98672 0
M  V30 59007 C 5479.8 0.0788206 1.60607 0
M  V30 59008 O 5480.99 0.325634 1.71129 0
M  V30 59009 C 5478.12 0.747396 3.32606 0
M  V30 59010 H 5479.32 2.10708 2.13406 0
M  V30 59011 H 5476.87 1.12453 1.08554 0
M  V30 59012 H 5477.6 -0.216997 3.23573 0
M  V30 59013 H 5477.39 1.5162 3.61599 0
M  V30 59014 H 5478.88 0.665467 4.12264 0
M  V30 59015 N 5479.32 -1.11139 1.1174 0
M  V30 59016 C 5480.56 -1.82944 0.868191 0
M  V30 59017 C 5480.89 -1.84815 -0.606117 0
M  V30 59018 O 5480.15 -1.29906 -1.46366 0
M  V30 59019 C 5480.45 -3.29728 1.37891 0
M  V30 59020 C 5480.11 -3.48015 2.86699 0
M  V30 59021 C 5478.77 -3.52713 3.27333 0
M  V30 59022 C 5481.13 -3.54011 3.82526 0
M  V30 59023 C 5478.45 -3.60967 4.62515 0
M  V30 59024 C 5480.81 -3.63796 5.17528 0
M  V30 59025 C 5479.47 -3.66756 5.57715 0
M  V30 59026 H 5478.74 -0.669441 0.317694 0
M  V30 59027 H 5481.39 -1.31052 1.39634 0
M  V30 59028 H 5479.69 -3.84138 0.771065 0
M  V30 59029 H 5481.39 -3.83783 1.16239 0
M  V30 59030 H 5477.98 -3.4503 2.54268 0
M  V30 59031 H 5482.16 -3.49638 3.52232 0
M  V30 59032 H 5477.42 -3.61537 4.93053 0
M  V30 59033 H 5481.59 -3.67379 5.91613 0
M  V30 59034 H 5479.22 -3.72904 6.62455 0
M  V30 59035 N 5480.79 -0.908192 -1.28801 0
M  V30 59036 C 5482.04 -0.53927 -1.95499 0
M  V30 59037 C 5482.37 0.913698 -1.71363 0
M  V30 59038 O 5481.65 1.649 -1.03142 0
M  V30 59039 C 5481.93 -0.842495 -3.50106 0
M  V30 59040 C 5481.78 -2.34779 -3.83665 0
M  V30 59041 C 5483.1 -0.334813 -4.38825 0
M  V30 59042 H 5480.22 -0.197398 -0.710073 0
M  V30 59043 H 5482.86 -1.13642 -1.52268 0
M  V30 59044 H 5481.01 -0.334279 -3.87059 0
M  V30 59045 H 5482.69 -2.92619 -3.56611 0
M  V30 59046 H 5480.93 -2.80505 -3.30907 0
M  V30 59047 H 5481.6 -2.51051 -4.91607 0
M  V30 59048 H 5484.08 -0.770105 -4.08911 0
M  V30 59049 H 5482.95 -0.576106 -5.45868 0
M  V30 59050 H 5483.21 0.764725 -4.35436 0
M  V30 59051 N 5482.27 1.42575 -0.671575 0
M  V30 59052 C 5483.5 2.05625 -0.200512 0
M  V30 59053 C 5483.91 1.50528 1.14621 0
M  V30 59054 O 5483.25 0.638528 1.72245 0
M  V30 59055 C 5483.32 3.59458 -0.0546649 0
M  V30 59056 C 5482.98 4.37231 -1.32958 0
M  V30 59057 C 5483.98 4.68096 -2.26235 0
M  V30 59058 C 5481.66 4.76926 -1.57628 0
M  V30 59059 C 5483.66 5.37586 -3.42461 0
M  V30 59060 C 5481.34 5.46158 -2.74144 0
M  V30 59061 C 5482.34 5.76412 -3.66385 0
M  V30 59062 O 5482.03 6.44225 -4.80863 0
M  V30 59063 H 5481.76 0.669176 -0.0958078 0
M  V30 59064 H 5484.31 1.83756 -0.917766 0
M  V30 59065 H 5482.54 3.79973 0.718138 0
M  V30 59066 H 5484.23 4.04154 0.376109 0
M  V30 59067 H 5485 4.37932 -2.08425 0
M  V30 59068 H 5480.88 4.52773 -0.867047 0
M  V30 59069 H 5484.42 5.61118 -4.14478 0
M  V30 59070 H 5480.32 5.75739 -2.91881 0
M  V30 59071 H 5481.09 6.62715 -4.80365 0
M  V30 59072 N 5483.75 0.414689 1.52046 0
M  V30 59073 C 5484.98 -0.158614 2.06291 0
M  V30 59074 C 5485.39 -1.38392 1.28425 0
M  V30 59075 O 5484.75 -1.7935 0.337602 0
M  V30 59076 C 5484.8 -0.503508 3.57976 0
M  V30 59077 O 5484.52 0.673148 4.32898 0
M  V30 59078 C 5486.02 -1.12994 4.28657 0
M  V30 59079 H 5483.24 -0.0179386 0.67076 0
M  V30 59080 H 5485.79 0.587246 1.95887 0
M  V30 59081 H 5483.94 -1.19926 3.6837 0
M  V30 59082 H 5484.36 0.383919 5.23093 0
M  V30 59083 H 5485.83 -1.32143 5.3595 0
M  V30 59084 H 5486.31 -2.10462 3.8549 0
M  V30 59085 H 5486.91 -0.47423 4.22648 0
M  V30 59086 N 5485.23 -1.56929 0.145288 0
M  V30 59087 C 5486.18 -2.16674 -0.795051 0
M  V30 59088 C 5487.15 -1.09912 -1.24533 0
M  V30 59089 O 5488.33 -1.37946 -1.31817 0
M  V30 59090 C 5485.47 -2.79118 -2.02946 0
M  V30 59091 C 5484.58 -4.00266 -1.62514 0
M  V30 59092 C 5483.72 -4.50715 -2.81122 0
M  V30 59093 C 5482.76 -5.64333 -2.37055 0
M  V30 59094 N 5481.9 -6.09407 -3.48665 0
M  V30 59095 H 5486.74 -2.96693 -0.278761 0
M  V30 59096 H 5484.27 -1.4656 -0.125883 0
M  V30 59097 H 5486.23 -3.13466 -2.75309 0
M  V30 59098 H 5484.86 -2.01746 -2.51989 0
M  V30 59099 H 5483.91 -3.71909 -0.799234 0
M  V30 59100 H 5485.22 -4.82585 -1.26149 0
M  V30 59101 H 5484.38 -4.87109 -3.61676 0
M  V30 59102 H 5483.12 -3.674 -3.20731 0
M  V30 59103 H 5482.12 -5.27517 -1.5494 0
M  V30 59104 H 5483.35 -6.49432 -1.98533 0
M  V30 59105 H 5481.29 -5.29028 -3.87899 0
M  V30 59106 H 5481.21 -6.86647 -3.16309 0
M  V30 59107 H 5482.48 -6.50446 -4.29582 0
M  V30 59108 N 5486.71 0.128498 -1.57075 0
M  V30 59109 C 5487.66 1.17712 -2.00615 0
M  V30 59110 C 5488.65 1.43419 -0.90151 0
M  V30 59111 O 5489.86 1.43494 -1.08671 0
M  V30 59112 H 5486.23 0.39666 -0.638877 0
M  V30 59113 H 5488.2 0.783336 -2.87935 0
M  V30 59114 C 5486.95 2.49818 -2.41839 0
M  V30 59115 H 5486.27 2.30872 -3.26402 0
M  V30 59116 H 5487.71 3.21774 -2.76111 0
M  V30 59117 C 5486.17 3.11708 -1.27827 0
M  V30 59118 O 5486.7 3.97358 -0.589057 0
M  V30 59119 N 5484.91 2.71439 -1.03776 0
M  V30 59120 H 5484.46 2.01885 -1.60001 0
M  V30 59121 H 5484.41 3.13179 -0.276853 0
M  V30 59122 N 5488.19 1.52481 0.398405 0
M  V30 59123 C 5489.6 1.59111 0.976761 0
M  V30 59124 C 5489.95 0.438171 1.91245 0
M  V30 59125 O 5489.07 -0.440036 2.11879 0
M  V30 59126 C 5489.67 2.8838 1.77828 0
M  V30 59127 C 5488.23 2.97453 2.30649 0
M  V30 59128 C 5487.37 2.54144 1.10933 0
M  V30 59129 H 5490.32 1.57696 0.178269 0
M  V30 59130 H 5490.35 2.74336 2.63666 0
M  V30 59131 H 5489.86 3.72273 1.09701 0
M  V30 59132 H 5487.96 2.18076 3.02115 0
M  V30 59133 H 5488.07 4.01909 2.6078 0
M  V30 59134 H 5486.44 2.08242 1.46653 0
M  V30 59135 H 5487.22 3.40422 0.443564 0
M  V30 59136 N 5489.66 -0.656289 1.43285 0
M  V30 59137 C 5490.61 -1.79053 1.48468 0
M  V30 59138 C 5491.61 -1.65562 0.358571 0
M  V30 59139 O 5492.81 -1.71945 0.532425 0
M  V30 59140 H 5489.19 -0.5907 0.465379 0
M  V30 59141 H 5491.16 -1.71802 2.43981 0
M  V30 59142 C 5489.91 -3.17299 1.42186 0
M  V30 59143 H 5489.23 -3.28316 2.28142 0
M  V30 59144 H 5490.67 -3.96628 1.49874 0
M  V30 59145 C 5489.13 -3.36613 0.139047 0
M  V30 59146 O 5489.66 -3.93636 -0.800872 0
M  V30 59147 N 5487.86 -2.90557 0.0502258 0
M  V30 59148 H 5487.41 -2.44337 0.815907 0
M  V30 59149 H 5487.37 -3.03856 -0.807397 0
M  V30 59150 N 5491.14 -1.29765 -0.894366 0
M  V30 59151 C 5492.39 -1.17812 -1.6421 0
M  V30 59152 C 5492.71 0.26952 -1.93128 0
M  V30 59153 O 5491.98 1.18347 -1.56112 0
M  V30 59154 H 5490.56 -0.433024 -0.608687 0
M  V30 59155 H 5493.22 -1.62764 -1.0721 0
M  V30 59156 H 5492.32 -1.7321 -2.59624 0
M  V30 59157 N 5492.62 1.10545 -1.12328 0
M  V30 59158 C 5493.85 1.85997 -0.899377 0
M  V30 59159 C 5494.26 1.80883 0.55479 0
M  V30 59160 O 5493.6 1.1949 1.39527 0
M  V30 59161 C 5493.66 3.3538 -1.29463 0
M  V30 59162 C 5493.33 3.64253 -2.75987 0
M  V30 59163 C 5494.32 3.60949 -3.74182 0
M  V30 59164 C 5492.01 3.92965 -3.12864 0
M  V30 59165 C 5494 3.85948 -5.0727 0
M  V30 59166 C 5491.69 4.17621 -4.46134 0
M  V30 59167 C 5492.69 4.14103 -5.43146 0
M  V30 59168 O 5492.38 4.38132 -6.74014 0
M  V30 59169 H 5492.11 0.594731 -0.321358 0
M  V30 59170 H 5494.66 1.40668 -1.49671 0
M  V30 59171 H 5492.89 3.81359 -0.640492 0
M  V30 59172 H 5494.58 3.92216 -1.04505 0
M  V30 59173 H 5495.35 3.38807 -3.47037 0
M  V30 59174 H 5491.23 3.94834 -2.37964 0
M  V30 59175 H 5494.77 3.83118 -5.82981 0
M  V30 59176 H 5490.67 4.39241 -4.73009 0
M  V30 59177 H 5491.43 4.55653 -6.79943 0
M  V30 59178 N 5494.1 0.91501 1.28317 0
M  V30 59179 C 5495.32 0.564093 1.99581 0
M  V30 59180 C 5495.75 -0.847762 1.67912 0
M  V30 59181 O 5495.11 -1.56678 0.912226 0
M  V30 59182 C 5495.15 0.781492 3.5203 0
M  V30 59183 O 5494.26 -0.158927 4.12094 0
M  V30 59184 H 5493.6 0.218587 0.626989 0
M  V30 59185 H 5496.13 1.23079 1.6344 0
M  V30 59186 H 5496.14 0.692087 4.02087 0
M  V30 59187 H 5494.81 1.81072 3.74414 0
M  V30 59188 H 5493.39 -0.0206834 3.72894 0
M  V30 59189 N 5495.58 -1.42217 0.679127 0
M  V30 59190 C 5496.82 -2.01478 0.20319 0
M  V30 59191 C 5497.15 -1.53714 -1.19173 0
M  V30 59192 O 5496.41 -0.731896 -1.81499 0
M  V30 59193 C 5496.7 -3.56888 0.191152 0
M  V30 59194 C 5496.37 -4.241 1.53133 0
M  V30 59195 C 5495.03 -4.42175 1.89827 0
M  V30 59196 C 5497.38 -4.61938 2.41377 0
M  V30 59197 C 5494.71 -4.9536 3.14381 0
M  V30 59198 C 5497.06 -5.16505 3.65247 0
M  V30 59199 C 5495.73 -5.32793 4.02105 0
M  V30 59200 H 5495 -0.73726 0.0743523 0
M  V30 59201 H 5497.65 -1.70342 0.874968 0
M  V30 59202 H 5495.95 -3.87717 -0.564145 0
M  V30 59203 H 5497.65 -4.00529 -0.19437 0
M  V30 59204 H 5494.24 -4.10394 1.23589 0
M  V30 59205 H 5498.42 -4.47643 2.14312 0
M  V30 59206 H 5493.68 -5.06155 3.42953 0
M  V30 59207 H 5497.85 -5.44766 4.33823 0
M  V30 59208 H 5495.48 -5.73768 4.98693 0
M  V30 59209 N 5497.05 -0.422747 -1.51824 0
M  V30 59210 C 5498.28 0.150097 -2.06856 0
M  V30 59211 C 5498.7 1.36941 -1.28952 0
M  V30 59212 O 5498.06 1.78392 -0.323443 0
M  V30 59213 C 5498.11 0.465437 -3.57584 0
M  V30 59214 O 5497.21 1.55429 -3.81989 0
M  V30 59215 H 5496.55 0.00825597 -0.663949 0
M  V30 59216 H 5499.08 -0.599875 -1.95608 0
M  V30 59217 H 5499.09 0.720138 -4.01594 0
M  V30 59218 H 5497.77 -0.425824 -4.13714 0
M  V30 59219 H 5496.35 1.29069 -3.49851 0
M  V30 59220 N 5498.53 1.5685 -0.153609 0
M  V30 59221 C 5499.78 1.9551 0.495843 0
M  V30 59222 C 5500.09 1.04135 1.65576 0
M  V30 59223 O 5501.3 1.32402 2.37027 0
M  V30 59224 C 5499.76 3.47583 0.9335 0
M  V30 59225 C 5499.36 4.47554 -0.199842 0
M  V30 59226 C 5501.11 3.95097 1.55237 0
M  V30 59227 C 5499.02 5.90844 0.256455 0
M  V30 59228 H 5497.95 0.729926 0.189009 0
M  V30 59229 H 5500.6 1.81937 -0.239011 0
M  V30 59230 H 5498.98 3.56512 1.72381 0
M  V30 59231 H 5500.15 4.50326 -0.976902 0
M  V30 59232 H 5498.47 4.09995 -0.727538 0
M  V30 59233 H 5501.06 4.99595 1.9055 0
M  V30 59234 H 5501.41 3.37024 2.44378 0
M  V30 59235 H 5501.94 3.89112 0.826832 0
M  V30 59236 H 5498.68 6.52751 -0.599744 0
M  V30 59237 H 5498.2 5.91418 0.99925 0
M  V30 59238 H 5499.88 6.43134 0.706263 0
M  V30 59239 N 5500.01 -0.120166 1.57141 0
M  V30 59240 C 5501.42 -0.677435 1.73976 0
M  V30 59241 C 5501.77 -1.80368 0.772118 0
M  V30 59242 O 5500.9 -2.1633 -0.0552302 0
M  V30 59243 C 5501.49 -1.23564 3.15464 0
M  V30 59244 C 5500.05 -1.73921 3.33809 0
M  V30 59245 C 5499.2 -0.638448 2.6985 0
M  V30 59246 H 5502.15 0.105741 1.58347 0
M  V30 59247 H 5502.17 -2.10531 3.1695 0
M  V30 59248 H 5501.68 -0.415715 3.85867 0
M  V30 59249 H 5499.78 -2.58394 2.68446 0
M  V30 59250 H 5499.9 -1.84946 4.41964 0
M  V30 59251 H 5498.26 -1.07176 2.31053 0
M  V30 59252 H 5499.04 0.170477 3.42876 0
M  V30 59253 N 5501.49 -1.5269 -0.390313 0
M  V30 59254 C 5502.73 -1.67918 -1.13716 0
M  V30 59255 C 5503.07 -0.417226 -1.89665 0
M  V30 59256 O 5502.34 0.58494 -1.85496 0
M  V30 59257 C 5502.63 -2.91338 -2.11646 0
M  V30 59258 C 5502.48 -4.27631 -1.39469 0
M  V30 59259 C 5503.8 -3.10304 -3.12089 0
M  V30 59260 H 5500.92 -0.611061 -0.412035 0
M  V30 59261 H 5503.56 -1.85284 -0.420688 0
M  V30 59262 H 5501.71 -2.76664 -2.72744 0
M  V30 59263 H 5503.38 -4.54071 -0.813448 0
M  V30 59264 H 5501.62 -4.28171 -0.696539 0
M  V30 59265 H 5502.29 -5.10073 -2.1102 0
M  V30 59266 H 5504.77 -3.24001 -2.61079 0
M  V30 59267 H 5503.65 -3.9814 -3.77856 0
M  V30 59268 H 5503.91 -2.24461 -3.8088 0
M  V30 59269 N 5502.97 0.648681 -1.43631 0
M  V30 59270 C 5503.91 1.7614 -1.49142 0
M  V30 59271 C 5504.88 1.62568 -0.340706 0
M  V30 59272 O 5506.07 1.82746 -0.548499 0
M  V30 59273 C 5503.21 3.14316 -1.42477 0
M  V30 59274 C 5502.32 3.3899 -2.67787 0
M  V30 59275 C 5501.46 4.67038 -2.53079 0
M  V30 59276 C 5500.5 4.84832 -3.73637 0
M  V30 59277 N 5499.63 6.04142 -3.5771 0
M  V30 59278 H 5504.47 1.70765 -2.44219 0
M  V30 59279 H 5502.01 0.833269 -1.21223 0
M  V30 59280 H 5503.97 3.94201 -1.36606 0
M  V30 59281 H 5502.6 3.18749 -0.509778 0
M  V30 59282 H 5501.65 2.53169 -2.83918 0
M  V30 59283 H 5502.96 3.48022 -3.57326 0
M  V30 59284 H 5502.12 5.55057 -2.44942 0
M  V30 59285 H 5500.85 4.60334 -1.61072 0
M  V30 59286 H 5499.86 3.95247 -3.82177 0
M  V30 59287 H 5501.08 4.93363 -4.66658 0
M  V30 59288 H 5499.03 5.98561 -2.68441 0
M  V30 59289 H 5498.95 6.14153 -4.40853 0
M  V30 59290 H 5500.22 6.9477 -3.53433 0
M  V30 59291 N 5504.44 1.30237 0.887472 0
M  V30 59292 C 5505.69 1.19092 1.64149 0
M  V30 59293 C 5506.02 -0.254361 1.92527 0
M  V30 59294 O 5505.3 -1.18228 1.54442 0
M  V30 59295 C 5505.58 2.01733 2.98288 0
M  V30 59296 C 5505.43 3.54467 2.76899 0
M  V30 59297 C 5506.75 1.85321 3.9918 0
M  V30 59298 H 5503.87 0.433988 0.595671 0
M  V30 59299 H 5506.51 1.59843 1.02714 0
M  V30 59300 H 5504.66 1.67108 3.50724 0
M  V30 59301 H 5506.34 3.99139 2.3127 0
M  V30 59302 H 5504.58 3.78776 2.1145 0
M  V30 59303 H 5505.25 4.07578 3.72269 0
M  V30 59304 H 5507.73 2.15587 3.55895 0
M  V30 59305 H 5506.6 2.45474 4.90952 0
M  V30 59306 H 5506.86 0.81168 4.34585 0
M  V30 59307 N 5505.92 -1.09948 1.12913 0
M  V30 59308 C 5506.85 -2.18474 0.82409 0
M  V30 59309 C 5507.83 -1.68745 -0.214265 0
M  V30 59310 O 5509.02 -1.94058 -0.0743599 0
M  V30 59311 C 5506.15 -3.46142 0.28343 0
M  V30 59312 C 5505.1 -4.09174 1.25542 0
M  V30 59313 C 5504.43 -5.31602 0.574761 0
M  V30 59314 C 5505.73 -4.52299 2.61196 0
M  V30 59315 H 5507.42 -2.44248 1.73157 0
M  V30 59316 H 5504.97 -1.17391 0.833993 0
M  V30 59317 H 5506.92 -4.2136 0.0577312 0
M  V30 59318 H 5505.65 -3.19874 -0.659413 0
M  V30 59319 H 5504.3 -3.35968 1.46702 0
M  V30 59320 H 5503.95 -5.01612 -0.373384 0
M  V30 59321 H 5503.65 -5.74728 1.22319 0
M  V30 59322 H 5505.18 -6.09548 0.358218 0
M  V30 59323 H 5506.59 -5.18767 2.44036 0
M  V30 59324 H 5504.99 -5.06291 3.22164 0
M  V30 59325 H 5506.06 -3.64966 3.19262 0
M  V30 59326 N 5507.4 -0.921802 -1.2783 0
M  V30 59327 C 5508.36 -0.421057 -2.25299 0
M  V30 59328 C 5509.36 0.457104 -1.54166 0
M  V30 59329 O 5510.55 0.259018 -1.72264 0
M  V30 59330 C 5507.69 0.395382 -3.38599 0
M  V30 59331 H 5508.88 -1.28216 -2.7111 0
M  V30 59332 H 5506.43 -0.701942 -1.39651 0
M  V30 59333 H 5507.17 1.27555 -2.98162 0
M  V30 59334 H 5506.95 -0.234166 -3.914 0
M  V30 59335 H 5508.44 0.736299 -4.11058 0
M  V30 59336 N 5508.88 1.41855 -0.686659 0
M  V30 59337 C 5510.16 1.95082 -0.142296 0
M  V30 59338 C 5510.54 1.6265 1.34566 0
M  V30 59339 O 5509.88 0.92883 2.0877 0
M  V30 59340 C 5510.09 3.46414 -0.424077 0
M  V30 59341 C 5511.44 4.2318 -0.34699 0
M  V30 59342 O 5512.47 3.54391 -0.358488 0
M  V30 59343 O 5511.32 5.45679 -0.299403 0
M  V30 59344 H 5508.42 0.826942 -0.00976907 0
M  V30 59345 H 5510.96 1.5162 -0.762206 0
M  V30 59346 H 5509.74 3.63268 -1.45437 0
M  V30 59347 H 5509.36 3.9695 0.227252 0
M  V30 59348 N 5510.36 0.430792 1.51598 0
M  V30 59349 C 5511.3 -0.383944 2.27584 0
M  V30 59350 C 5512.27 -1.02249 1.30898 0
M  V30 59351 O 5513.46 -1.04264 1.59792 0
M  V30 59352 C 5510.6 -1.4828 3.1162 0
M  V30 59353 C 5509.71 -0.863038 4.23291 0
M  V30 59354 C 5508.85 -1.9364 4.94648 0
M  V30 59355 C 5507.89 -1.29472 5.9825 0
M  V30 59356 N 5507.02 -2.30916 6.6304 0
M  V30 59357 H 5511.86 0.270418 2.96771 0
M  V30 59358 H 5509.4 0.1452 1.46382 0
M  V30 59359 H 5511.36 -2.13111 3.58663 0
M  V30 59360 H 5509.99 -2.10689 2.44561 0
M  V30 59361 H 5509.04 -0.103193 3.8026 0
M  V30 59362 H 5510.35 -0.354501 4.97539 0
M  V30 59363 H 5509.51 -2.66148 5.45207 0
M  V30 59364 H 5508.24 -2.47865 4.20017 0
M  V30 59365 H 5507.25 -0.55507 5.46991 0
M  V30 59366 H 5508.47 -0.759885 6.74835 0
M  V30 59367 H 5506.42 -2.84233 5.91226 0
M  V30 59368 H 5506.34 -1.84935 7.33031 0
M  V30 59369 H 5507.61 -3.02927 7.18231 0
M  V30 59370 N 5511.83 -1.56766 0.161924 0
M  V30 59371 C 5513.08 -1.96596 -0.485427 0
M  V30 59372 C 5513.41 -1.04749 -1.63884 0
M  V30 59373 O 5512.66 -0.0796708 -1.95538 0
M  V30 59374 C 5512.96 -3.42571 -1.01882 0
M  V30 59375 C 5512.63 -4.50897 0.0177004 0
M  V30 59376 C 5511.29 -4.80248 0.302598 0
M  V30 59377 C 5513.64 -5.16178 0.721753 0
M  V30 59378 C 5510.97 -5.72182 1.2971 0
M  V30 59379 C 5513.32 -6.09185 1.70517 0
M  V30 59380 C 5511.99 -6.36908 1.99762 0
M  V30 59381 H 5511.26 -0.719395 -0.17763 0
M  V30 59382 H 5513.9 -1.89836 0.251905 0
M  V30 59383 H 5512.21 -3.46236 -1.83379 0
M  V30 59384 H 5513.91 -3.70725 -1.52854 0
M  V30 59385 H 5510.5 -4.28063 -0.214529 0
M  V30 59386 H 5514.68 -4.93622 0.514855 0
M  V30 59387 H 5509.94 -5.91948 1.52995 0
M  V30 59388 H 5514.11 -6.58841 2.25615 0
M  V30 59389 H 5511.74 -7.07948 2.76972 0
M  V30 59390 N 5513.31 0.11183 -1.57203 0
M  V30 59391 C 5514.56 0.816957 -1.84414 0
M  V30 59392 C 5514.88 1.80705 -0.748672 0
M  V30 59393 O 5516.08 2.55887 -0.907409 0
M  V30 59394 C 5514.54 1.50365 -3.26984 0
M  V30 59395 C 5514.15 0.554178 -4.44559 0
M  V30 59396 C 5515.89 2.19349 -3.63437 0
M  V30 59397 C 5513.8 1.2445 -5.78158 0
M  V30 59398 H 5512.73 0.30884 -0.687847 0
M  V30 59399 H 5515.38 0.0697464 -1.83367 0
M  V30 59400 H 5513.76 2.29773 -3.22522 0
M  V30 59401 H 5514.93 -0.207207 -4.60334 0
M  V30 59402 H 5513.25 -0.0290724 -4.1639 0
M  V30 59403 H 5515.85 2.717 -4.60525 0
M  V30 59404 H 5516.19 2.97478 -2.91226 0
M  V30 59405 H 5516.72 1.4682 -3.69715 0
M  V30 59406 H 5513.46 0.504355 -6.53557 0
M  V30 59407 H 5512.98 1.97772 -5.66256 0
M  V30 59408 H 5514.66 1.77569 -6.22156 0
M  V30 59409 N 5514.79 1.52895 0.38221 0
M  V30 59410 C 5516.04 1.67493 1.12379 0
M  V30 59411 C 5516.35 0.424632 1.90935 0
M  V30 59412 O 5517.56 0.450858 2.6773 0
M  V30 59413 C 5516.02 2.96026 2.04686 0
M  V30 59414 C 5515.62 4.2826 1.3152 0
M  V30 59415 C 5517.37 3.1999 2.78938 0
M  V30 59416 C 5515.27 5.47895 2.22633 0
M  V30 59417 H 5514.2 0.624017 0.423224 0
M  V30 59418 H 5516.86 1.79393 0.386044 0
M  V30 59419 H 5515.24 2.77888 2.82124 0
M  V30 59420 H 5516.41 4.56973 0.59261 0
M  V30 59421 H 5514.73 4.1061 0.692003 0
M  V30 59422 H 5517.32 4.06553 3.47302 0
M  V30 59423 H 5517.67 2.35347 3.43391 0
M  V30 59424 H 5518.2 3.38726 2.0859 0
M  V30 59425 H 5514.94 6.34966 1.62784 0
M  V30 59426 H 5514.46 5.23483 2.92789 0
M  V30 59427 H 5516.14 5.82036 2.82565 0
M  V30 59428 N 5516.27 -0.641055 1.43973 0
M  V30 59429 C 5517.68 -1.22249 1.4111 0
M  V30 59430 C 5518.03 -1.95824 0.121352 0
M  V30 59431 O 5517.16 -2.01903 -0.778719 0
M  V30 59432 C 5517.75 -2.22355 2.55624 0
M  V30 59433 C 5516.31 -2.75948 2.55987 0
M  V30 59434 C 5515.46 -1.50783 2.32722 0
M  V30 59435 H 5518.41 -0.432328 1.52698 0
M  V30 59436 H 5518.43 -3.04767 2.2781 0
M  V30 59437 H 5517.94 -1.68777 3.49479 0
M  V30 59438 H 5516.04 -3.33556 1.66046 0
M  V30 59439 H 5516.16 -3.22664 3.54154 0
M  V30 59440 H 5514.52 -1.78564 1.81623 0
M  V30 59441 H 5515.3 -0.991228 3.28679 0
M  V30 59442 N 5517.75 -1.30706 -0.880552 0
M  V30 59443 C 5519 -1.19547 -1.62951 0
M  V30 59444 C 5519.32 0.249021 -1.93403 0
M  V30 59445 O 5518.59 1.16684 -1.57358 0
M  V30 59446 H 5517.17 -0.439455 -0.60406 0
M  V30 59447 H 5519.83 -1.63892 -1.05478 0
M  V30 59448 H 5518.92 -1.75954 -2.57773 0
M  V30 59449 N 5519.23 1.09347 -1.13494 0
M  V30 59450 C 5520.16 2.18034 -0.835665 0
M  V30 59451 C 5521.14 1.68856 0.205313 0
M  V30 59452 O 5522.32 1.94094 0.0640675 0
M  V30 59453 C 5519.45 3.45986 -0.301782 0
M  V30 59454 C 5518.41 4.08502 -1.2771 0
M  V30 59455 C 5517.73 5.3129 -0.602945 0
M  V30 59456 C 5519.03 4.50907 -2.63591 0
M  V30 59457 H 5520.73 2.43326 -1.7445 0
M  V30 59458 H 5518.27 1.16947 -0.840207 0
M  V30 59459 H 5520.22 4.21324 -0.0800761 0
M  V30 59460 H 5518.95 3.20219 0.64244 0
M  V30 59461 H 5517.61 3.35185 -1.48481 0
M  V30 59462 H 5517.26 5.01803 0.346777 0
M  V30 59463 H 5516.96 5.74071 -1.25365 0
M  V30 59464 H 5518.48 6.0935 -0.390539 0
M  V30 59465 H 5519.89 5.17466 -2.46783 0
M  V30 59466 H 5518.29 5.04575 -3.24845 0
M  V30 59467 H 5519.36 3.63268 -3.21193 0
M  V30 59468 N 5520.7 0.928568 1.2734 0
M  V30 59469 C 5521.65 0.426953 2.26817 0
M  V30 59470 C 5522.62 -0.506608 1.58186 0
M  V30 59471 O 5523.81 -0.425576 1.85993 0
M  V30 59472 C 5520.95 -0.313402 3.43674 0
M  V30 59473 C 5520.06 0.65437 4.27015 0
M  V30 59474 C 5519.19 -0.105915 5.31094 0
M  V30 59475 C 5518.23 0.854506 6.06106 0
M  V30 59476 N 5517.37 0.126791 7.01986 0
M  V30 59477 H 5522.21 1.28024 2.69098 0
M  V30 59478 H 5519.75 0.642561 1.32324 0
M  V30 59479 H 5521.7 -0.758976 4.10238 0
M  V30 59480 H 5520.33 -1.13092 3.02341 0
M  V30 59481 H 5519.39 1.21847 3.60357 0
M  V30 59482 H 5520.7 1.38833 4.79089 0
M  V30 59483 H 5519.85 -0.611364 6.03612 0
M  V30 59484 H 5518.59 -0.87284 4.79826 0
M  V30 59485 H 5517.6 1.3712 5.32427 0
M  V30 59486 H 5518.82 1.62123 6.59464 0
M  V30 59487 H 5516.77 -0.621872 6.53046 0
M  V30 59488 H 5516.68 0.80031 7.51752 0
M  V30 59489 H 5517.95 -0.357977 7.78678 0
M  V30 59490 N 5522.18 -1.41489 0.694172 0
M  V30 59491 C 5523.11 -2.33462 0.042299 0
M  V30 59492 C 5524.09 -1.51742 -0.768666 0
M  V30 59493 O 5525.28 -1.80283 -0.721921 0
M  V30 59494 C 5522.41 -3.35548 -0.895807 0
M  V30 59495 C 5521.36 -4.27569 -0.192038 0
M  V30 59496 C 5520.69 -5.20018 -1.24441 0
M  V30 59497 C 5521.99 -5.13757 0.940807 0
M  V30 59498 H 5523.68 -2.88222 0.810465 0
M  V30 59499 H 5521.23 -1.38585 0.391189 0
M  V30 59500 H 5523.18 -3.98814 -1.36107 0
M  V30 59501 H 5521.9 -2.79135 -1.69562 0
M  V30 59502 H 5520.56 -3.65725 0.253178 0
M  V30 59503 H 5520.21 -4.59921 -2.03671 0
M  V30 59504 H 5519.91 -5.8242 -0.778529 0
M  V30 59505 H 5521.44 -5.86161 -1.71021 0
M  V30 59506 H 5522.85 -5.70599 0.555892 0
M  V30 59507 H 5521.25 -5.85092 1.33369 0
M  V30 59508 H 5522.32 -4.51005 1.78109 0
M  V30 59509 N 5523.66 -0.438826 -1.51367 0
M  V30 59510 C 5524.61 0.386243 -2.29371 0
M  V30 59511 C 5525.6 1.01955 -1.35283 0
M  V30 59512 O 5526.81 0.954346 -1.52618 0
M  V30 59513 H 5523.18 0.143371 -0.738206 0
M  V30 59514 H 5525.15 -0.292476 -2.96963 0
M  V30 59515 C 5523.9 1.47415 -3.14903 0
M  V30 59516 H 5523.23 0.996198 -3.8719 0
M  V30 59517 H 5524.67 2.02468 -3.72536 0
M  V30 59518 C 5523.12 2.45823 -2.30375 0
M  V30 59519 O 5523.65 3.50391 -1.9644 0
M  V30 59520 N 5521.86 2.16747 -1.93569 0
M  V30 59521 H 5521.41 1.3174 -2.21365 0
M  V30 59522 H 5521.37 2.82831 -1.3731 0
M  V30 59523 N 5525.14 1.56678 -0.170236 0
M  V30 59524 C 5526.41 1.88526 0.521295 0
M  V30 59525 C 5526.79 1.07995 1.81384 0
M  V30 59526 O 5526.14 0.17355 2.2784 0
M  V30 59527 C 5526.35 3.40529 0.764248 0
M  V30 59528 C 5527.7 4.10245 1.09473 0
M  V30 59529 O 5528.72 3.4584 0.852823 0
M  V30 59530 O 5527.58 5.24027 1.55105 0
M  V30 59531 H 5524.68 0.78217 0.268587 0
M  V30 59532 H 5527.22 1.68413 -0.208591 0
M  V30 59533 H 5526 3.91014 -0.149553 0
M  V30 59534 H 5525.62 3.66249 1.54749 0
M  V30 59535 N 5526.62 -0.103492 1.5726 0
M  V30 59536 C 5527.55 -1.12706 2.04498 0
M  V30 59537 C 5528.53 -1.42275 0.932305 0
M  V30 59538 O 5529.71 -1.52449 1.20303 0
M  V30 59539 C 5526.84 -2.44918 2.46236 0
M  V30 59540 C 5525.8 -2.29778 3.6109 0
M  V30 59541 C 5525.12 -3.67091 3.88778 0
M  V30 59542 C 5526.42 -1.74532 4.92276 0
M  V30 59543 H 5528.12 -0.734096 2.90261 0
M  V30 59544 H 5525.66 -0.351676 1.3964 0
M  V30 59545 H 5527.61 -3.16788 2.77891 0
M  V30 59546 H 5526.34 -2.86135 1.57463 0
M  V30 59547 H 5525 -1.60354 3.2967 0
M  V30 59548 H 5524.65 -4.0582 2.97185 0
M  V30 59549 H 5524.35 -3.57809 4.66097 0
M  V30 59550 H 5525.87 -4.40442 4.22899 0
M  V30 59551 H 5527.28 -2.36235 5.22366 0
M  V30 59552 H 5525.68 -1.76031 5.73701 0
M  V30 59553 H 5526.75 -0.704073 4.79761 0
M  V30 59554 N 5528.09 -1.53096 -0.374097 0
M  V30 59555 C 5529.04 -1.7959 -1.47818 0
M  V30 59556 C 5530.04 -0.664567 -1.5582 0
M  V30 59557 O 5531.24 -0.847345 -1.58808 0
M  V30 59558 H 5527.62 -0.568491 -0.492262 0
M  V30 59559 H 5529.59 -2.72019 -1.22672 0
M  V30 59560 C 5528.34 -1.9951 -2.84765 0
M  V30 59561 H 5527.66 -2.86001 -2.79363 0
M  V30 59562 H 5529.1 -2.22031 -3.61218 0
M  V30 59563 C 5527.56 -0.771788 -3.27941 0
M  V30 59564 O 5528.09 0.0436325 -4.01676 0
M  V30 59565 N 5526.3 -0.597647 -2.84388 0
M  V30 59566 H 5525.84 -1.26235 -2.2455 0
M  V30 59567 H 5525.8 0.219468 -3.13633 0
M  V30 59568 N 5529.57 0.633411 -1.44311 0
M  V30 59569 C 5530.8 1.42521 -1.50673 0
M  V30 59570 C 5531.22 1.87637 -0.131927 0
M  V30 59571 O 5530.58 1.58598 0.878421 0
M  V30 59572 C 5530.63 2.62319 -2.47429 0
M  V30 59573 O 5529.73 3.62074 -1.97423 0
M  V30 59574 H 5529.07 0.426542 -0.508879 0
M  V30 59575 H 5531.6 0.773326 -1.89422 0
M  V30 59576 H 5531.61 3.09891 -2.65389 0
M  V30 59577 H 5530.29 2.28828 -3.47291 0
M  V30 59578 H 5528.87 3.21326 -1.89219 0
M  V30 59579 N 5531.05 1.31171 0.873608 0
M  V30 59580 C 5532.3 1.20826 1.62877 0
M  V30 59581 C 5532.63 -0.233926 1.92786 0
M  V30 59582 O 5531.9 -1.16583 1.55688 0
M  V30 59583 C 5532.19 2.04885 2.96132 0
M  V30 59584 C 5532.04 3.57384 2.73124 0
M  V30 59585 C 5533.36 1.89544 3.97191 0
M  V30 59586 H 5530.48 0.440281 0.591034 0
M  V30 59587 H 5533.12 1.60923 1.01013 0
M  V30 59588 H 5531.27 1.70819 3.48932 0
M  V30 59589 H 5532.94 4.01569 2.27024 0
M  V30 59590 H 5531.19 3.80997 2.07421 0
M  V30 59591 H 5531.86 4.11503 3.67925 0
M  V30 59592 H 5534.33 2.1935 3.53589 0
M  V30 59593 H 5533.21 2.50667 4.88321 0
M  V30 59594 H 5533.47 0.857728 4.337 0
M  V30 59595 N 5532.53 -1.08744 1.14072 0
M  V30 59596 C 5533.46 -2.17588 0.847216 0
M  V30 59597 C 5534.44 -1.68963 -0.196355 0
M  V30 59598 O 5535.62 -1.94126 -0.0537733 0
M  V30 59599 C 5532.75 -3.45821 0.320127 0
M  V30 59600 C 5531.71 -4.07819 1.29875 0
M  V30 59601 C 5531.03 -5.30962 0.631112 0
M  V30 59602 C 5532.33 -4.49503 2.65978 0
M  V30 59603 H 5534.03 -2.42398 1.75738 0
M  V30 59604 H 5531.57 -1.16499 0.846397 0
M  V30 59605 H 5533.53 -4.21276 0.102419 0
M  V30 59606 H 5532.25 -3.20555 -0.625449 0
M  V30 59607 H 5530.91 -3.34393 1.50257 0
M  V30 59608 H 5530.56 -5.0198 -0.32016 0
M  V30 59609 H 5530.26 -5.73398 1.28408 0
M  V30 59610 H 5531.78 -6.09134 0.422849 0
M  V30 59611 H 5533.2 -5.1615 2.49524 0
M  V30 59612 H 5531.59 -5.02845 3.27516 0
M  V30 59613 H 5532.66 -3.61559 3.23115 0
M  V30 59614 N 5534.01 -0.935308 -1.26845 0
M  V30 59615 C 5535.25 -0.580617 -1.94311 0
M  V30 59616 C 5535.59 0.877144 -1.73262 0
M  V30 59617 O 5534.86 1.62675 -1.06617 0
M  V30 59618 C 5535.14 -0.916568 -3.4824 0
M  V30 59619 C 5535 -2.42864 -3.78599 0
M  V30 59620 C 5536.32 -0.427819 -4.38016 0
M  V30 59621 H 5533.43 -0.212415 -0.705726 0
M  V30 59622 H 5536.08 -1.16847 -1.49823 0
M  V30 59623 H 5534.23 -0.416305 -3.86263 0
M  V30 59624 H 5535.9 -3.00118 -3.50324 0
M  V30 59625 H 5534.14 -2.87461 -3.24882 0
M  V30 59626 H 5534.81 -2.61422 -4.86171 0
M  V30 59627 H 5537.29 -0.856668 -4.07186 0
M  V30 59628 H 5536.16 -0.691763 -5.44524 0
M  V30 59629 H 5536.43 0.67219 -4.3696 0
M  V30 59630 N 5535.48 1.41118 -0.701666 0
M  V30 59631 C 5536.42 2.28198 0.0104527 0
M  V30 59632 C 5537.4 1.42572 0.7818 0
M  V30 59633 O 5538.58 1.71996 0.771348 0
M  V30 59634 C 5535.71 3.22907 1.0222 0
M  V30 59635 C 5534.75 4.25116 0.343304 0
M  V30 59636 S 5535.59 5.2756 -0.918738 0
M  V30 59637 C 5536.74 6.25833 0.0912563 0
M  V30 59638 H 5536.97 2.88247 -0.728096 0
M  V30 59639 H 5534.51 1.46346 -0.492163 0
M  V30 59640 H 5536.47 3.78003 1.60076 0
M  V30 59641 H 5535.13 2.61942 1.73336 0
M  V30 59642 H 5534.32 4.91678 1.10765 0
M  V30 59643 H 5533.92 3.73648 -0.162338 0
M  V30 59644 H 5536.21 6.70911 0.94259 0
M  V30 59645 H 5537.16 7.06033 -0.5406 0
M  V30 59646 H 5537.56 5.62713 0.448758 0
M  V30 59647 N 5536.96 0.446847 1.51133 0
M  V30 59648 C 5538.37 -0.0140476 1.86695 0
M  V30 59649 C 5538.72 -1.4109 1.36338 0
M  V30 59650 O 5537.85 -2.04137 0.71814 0
M  V30 59651 C 5538.44 -0.0322675 3.38785 0
M  V30 59652 C 5537 -0.437605 3.73848 0
M  V30 59653 C 5536.15 0.363533 2.74907 0
M  V30 59654 H 5539.1 0.66226 1.44221 0
M  V30 59655 H 5539.12 -0.839734 3.71118 0
M  V30 59656 H 5538.63 0.984506 3.75405 0
M  V30 59657 H 5536.74 -1.45963 3.4282 0
M  V30 59658 H 5536.85 -0.155796 4.78847 0
M  V30 59659 H 5535.21 -0.179476 2.54067 0
M  V30 59660 H 5536 1.37936 3.1437 0
M  V30 59661 N 5538.44 -1.56585 0.178542 0
M  V30 59662 C 5539.67 -2.01477 -0.470613 0
M  V30 59663 C 5540.08 -1.05875 -1.5632 0
M  V30 59664 O 5539.44 -0.0608132 -1.82399 0
M  V30 59665 C 5539.49 -3.46149 -1.04226 0
M  V30 59666 O 5539.21 -4.38099 0.00671222 0
M  V30 59667 C 5540.71 -4.06477 -1.76894 0
M  V30 59668 H 5537.93 -0.660223 -0.119778 0
M  V30 59669 H 5540.48 -2.02541 0.282393 0
M  V30 59670 H 5538.63 -3.45837 -1.74573 0
M  V30 59671 H 5539.05 -5.22845 -0.41637 0
M  V30 59672 H 5540.52 -5.09607 -2.12143 0
M  V30 59673 H 5541 -3.48983 -2.6666 0
M  V30 59674 H 5541.6 -4.10513 -1.11172 0
M  V30 59675 N 5539.92 0.0951507 -1.57313 0
M  V30 59676 C 5541.17 0.798654 -1.86085 0
M  V30 59677 C 5541.49 1.78736 -0.767054 0
M  V30 59678 O 5540.75 1.94231 0.239357 0
M  V30 59679 C 5541.05 1.56232 -3.21444 0
M  V30 59680 C 5540.71 0.715746 -4.45183 0
M  V30 59681 C 5539.38 0.482369 -4.78776 0
M  V30 59682 C 5541.73 0.12722 -5.21045 0
M  V30 59683 C 5539.06 -0.349399 -5.85659 0
M  V30 59684 C 5541.41 -0.69187 -6.28805 0
M  V30 59685 C 5540.07 -0.93534 -6.60914 0
M  V30 59686 H 5539.34 0.292248 -0.680935 0
M  V30 59687 H 5541.99 0.0601432 -1.91406 0
M  V30 59688 H 5540.29 2.3724 -3.11808 0
M  V30 59689 H 5541.99 2.11104 -3.40934 0
M  V30 59690 H 5538.58 0.907755 -4.18877 0
M  V30 59691 H 5542.76 0.294686 -4.95424 0
M  V30 59692 H 5538.02 -0.547011 -6.08948 0
M  V30 59693 H 5542.19 -1.15476 -6.86759 0
M  V30 59694 H 5539.82 -1.58165 -7.43564 0
M  V30 59695 N 5541.4 1.53292 0.365972 0
M  V30 59696 C 5542.35 1.76083 1.44841 0
M  V30 59697 C 5543.33 0.615354 1.48668 0
M  V30 59698 O 5544.52 0.874006 1.53916 0
M  V30 59699 C 5541.65 1.95381 2.82279 0
M  V30 59700 C 5540.74 3.15928 2.82932 0
M  V30 59701 N 5541.13 4.37844 2.53231 0
M  V30 59702 C 5539.43 3.16642 3.14092 0
M  V30 59703 C 5540.13 5.19582 2.61552 0
M  V30 59704 N 5539.1 4.55784 2.96247 0
M  V30 59705 H 5542.91 2.67953 1.20741 0
M  V30 59706 H 5540.42 1.51912 0.574153 0
M  V30 59707 H 5542.42 2.09836 3.60242 0
M  V30 59708 H 5541.08 1.04738 3.07344 0
M  V30 59709 H 5542.09 4.65583 2.26832 0
M  V30 59710 H 5538.76 2.3589 3.44474 0
M  V30 59711 H 5540.15 6.2683 2.41939 0
M  V30 59712 N 5542.88 -0.625749 1.44645 0
M  V30 59713 C 5544.12 -1.38725 1.4793 0
M  V30 59714 C 5544.45 -1.93868 0.113537 0
M  V30 59715 O 5543.73 -1.73979 -0.869578 0
M  V30 59716 C 5544.01 -2.54858 2.544 0
M  V30 59717 C 5543.87 -2.0503 4.00353 0
M  V30 59718 C 5545.18 -3.57034 2.57322 0
M  V30 59719 H 5542.3 -0.503068 0.538602 0
M  V30 59720 H 5544.95 -0.70704 1.76355 0
M  V30 59721 H 5543.1 -3.12886 2.30292 0
M  V30 59722 H 5544.77 -1.51791 4.35611 0
M  V30 59723 H 5543.01 -1.3617 4.11874 0
M  V30 59724 H 5543.68 -2.88664 4.70507 0
M  V30 59725 H 5546.16 -3.08816 2.78876 0
M  V30 59726 H 5545.03 -4.35806 3.33713 0
M  V30 59727 H 5545.29 -4.11459 1.61722 0
M  V30 59728 N 5544.35 -1.31632 -0.86664 0
M  V30 59729 C 5545.76 -1.19352 -1.43568 0
M  V30 59730 C 5546.12 0.198696 -1.95191 0
M  V30 59731 O 5545.24 1.09667 -1.86553 0
M  V30 59732 C 5545.84 -2.16065 -2.60963 0
M  V30 59733 C 5544.39 -2.07708 -3.13902 0
M  V30 59734 C 5543.54 -2.05106 -1.8662 0
M  V30 59735 H 5546.49 -1.43635 -0.674878 0
M  V30 59736 H 5546.51 -1.75219 -3.37755 0
M  V30 59737 H 5546.03 -3.17383 -2.2336 0
M  V30 59738 H 5544.13 -1.09596 -3.56117 0
M  V30 59739 H 5544.24 -2.96971 -3.75959 0
M  V30 59740 H 5542.6 -1.50169 -2.05721 0
M  V30 59741 H 5543.39 -3.08185 -1.5125 0
M  V30 59742 N 5545.83 1.08138 -1.14647 0
M  V30 59743 C 5547.08 1.80578 -0.916391 0
M  V30 59744 C 5547.41 1.86357 0.556904 0
M  V30 59745 O 5546.66 1.33741 1.4287 0
M  V30 59746 C 5546.96 3.25956 -1.46585 0
M  V30 59747 C 5546.63 3.40291 -2.95826 0
M  V30 59748 C 5545.29 3.43911 -3.36569 0
M  V30 59749 C 5547.64 3.43744 -3.91777 0
M  V30 59750 C 5544.97 3.48577 -4.71922 0
M  V30 59751 C 5547.32 3.49947 -5.26992 0
M  V30 59752 C 5545.98 3.5184 -5.67243 0
M  V30 59753 H 5545.25 0.660783 -0.335331 0
M  V30 59754 H 5547.9 1.27304 -1.4306 0
M  V30 59755 H 5546.21 3.81958 -0.872641 0
M  V30 59756 H 5547.9 3.80566 -1.26373 0
M  V30 59757 H 5544.49 3.38167 -2.63327 0
M  V30 59758 H 5548.68 3.40176 -3.61378 0
M  V30 59759 H 5543.93 3.48337 -5.02465 0
M  V30 59760 H 5548.11 3.51564 -6.01145 0
M  V30 59761 H 5545.73 3.55209 -6.72109 0
M  V30 59762 N 5547.31 0.942022 1.26348 0
M  V30 59763 C 5548.54 0.606817 1.97801 0
M  V30 59764 C 5548.95 -0.818381 1.70141 0
M  V30 59765 O 5548.31 -1.54579 0.97013 0
M  V30 59766 C 5548.36 0.840555 3.51592 0
M  V30 59767 O 5548.08 2.2097 3.78291 0
M  V30 59768 C 5549.58 0.51601 4.40287 0
M  V30 59769 H 5546.8 0.228613 0.630854 0
M  V30 59770 H 5549.35 1.26296 1.6084 0
M  V30 59771 H 5547.5 0.231011 3.86711 0
M  V30 59772 H 5547.92 2.27037 4.72816 0
M  V30 59773 H 5549.39 0.730172 5.47149 0
M  V30 59774 H 5549.87 -0.549025 4.35755 0
M  V30 59775 H 5550.47 1.10432 4.10713 0
M  V30 59776 N 5548.79 -1.40744 0.70914 0
M  V30 59777 C 5550.06 -1.94831 0.173314 0
M  V30 59778 C 5550.44 -1.64771 -1.31962 0
M  V30 59779 O 5549.79 -0.961926 -2.07266 0
M  V30 59780 C 5550 -3.45695 0.479134 0
M  V30 59781 C 5551.35 -4.22574 0.414271 0
M  V30 59782 O 5552.37 -3.53776 0.414823 0
M  V30 59783 O 5551.23 -5.45134 0.386178 0
M  V30 59784 H 5548.33 -0.826682 0.0229238 0
M  V30 59785 H 5550.87 -1.50388 0.786231 0
M  V30 59786 H 5549.65 -3.60909 1.51197 0
M  V30 59787 H 5549.27 -3.97261 -0.164072 0
M  V30 59788 N 5550.27 -0.454856 -1.50893 0
M  V30 59789 C 5551.2 0.3379 -2.31042 0
M  V30 59790 C 5552.18 1.00519 -1.37223 0
M  V30 59791 O 5553.36 1.00547 -1.66144 0
M  V30 59792 C 5550.49 1.42952 -3.16515 0
M  V30 59793 C 5549.45 0.88476 -4.18755 0
M  V30 59794 C 5548.77 2.07345 -4.92861 0
M  V30 59795 C 5550.07 -0.0928551 -5.22217 0
M  V30 59796 H 5551.77 -0.330995 -2.97565 0
M  V30 59797 H 5549.31 -0.160627 -1.43101 0
M  V30 59798 H 5551.26 1.99147 -3.71374 0
M  V30 59799 H 5549.99 2.12696 -2.47847 0
M  V30 59800 H 5548.65 0.344903 -3.64974 0
M  V30 59801 H 5548.3 2.75749 -4.2068 0
M  V30 59802 H 5548 1.71525 -5.62008 0
M  V30 59803 H 5549.52 2.64061 -5.50549 0
M  V30 59804 H 5550.93 0.379367 -5.72043 0
M  V30 59805 H 5549.33 -0.364511 -5.98992 0
M  V30 59806 H 5550.4 -1.024 -4.73964 0
M  V30 59807 N 5551.74 1.56489 -0.186844 0
M  V30 59808 C 5552.68 2.15913 0.769028 0
M  V30 59809 C 5553.69 1.11877 1.18269 0
M  V30 59810 O 5554.88 1.39002 1.11985 0
M  V30 59811 C 5551.98 2.69964 2.04872 0
M  V30 59812 C 5551.15 3.98819 1.79617 0
M  V30 59813 C 5550.21 4.37778 2.91954 0
M  V30 59814 O 5549.24 5.05359 2.61918 0
M  V30 59815 N 5550.44 4.00605 4.20114 0
M  V30 59816 H 5553.2 2.98562 0.260902 0
M  V30 59817 H 5550.76 1.61899 -0.00459049 0
M  V30 59818 H 5552.76 2.93016 2.79148 0
M  V30 59819 H 5551.33 1.91816 2.4683 0
M  V30 59820 H 5550.55 3.83984 0.891641 0
M  V30 59821 H 5551.83 4.82945 1.60131 0
M  V30 59822 H 5551.23 3.46228 4.47373 0
M  V30 59823 H 5549.79 4.28625 4.91043 0
M  V30 59824 N 5553.22 -0.0868067 1.57361 0
M  V30 59825 C 5554.47 -0.789943 1.86783 0
M  V30 59826 C 5554.8 -1.77974 0.777105 0
M  V30 59827 O 5554.08 -1.93318 -0.214122 0
M  V30 59828 C 5554.36 -1.51132 3.2685 0
M  V30 59829 C 5554.21 -0.538949 4.46559 0
M  V30 59830 C 5555.53 -2.4599 3.64934 0
M  V30 59831 H 5552.65 -0.285717 0.679364 0
M  V30 59832 H 5555.29 -0.0533987 1.89925 0
M  V30 59833 H 5553.44 -2.13916 3.24302 0
M  V30 59834 H 5555.11 0.0825301 4.61226 0
M  V30 59835 H 5553.36 0.146994 4.33551 0
M  V30 59836 H 5554.03 -1.08101 5.41312 0
M  V30 59837 H 5556.5 -1.93293 3.6848 0
M  V30 59838 H 5555.38 -2.93476 4.63857 0
M  V30 59839 H 5555.64 -3.30122 2.94061 0
M  V30 59840 N 5554.7 -1.53484 -0.357838 0
M  V30 59841 C 5556.11 -1.61645 -0.934233 0
M  V30 59842 C 5556.46 -0.488722 -1.90016 0
M  V30 59843 O 5555.59 0.383706 -2.12971 0
M  V30 59844 C 5556.18 -2.92993 -1.70119 0
M  V30 59845 C 5554.74 -3.03463 -2.22681 0
M  V30 59846 C 5553.89 -2.56996 -1.04156 0
M  V30 59847 H 5556.84 -1.58113 -0.136396 0
M  V30 59848 H 5556.86 -2.8123 -2.563 0
M  V30 59849 H 5556.37 -3.75051 -0.997924 0
M  V30 59850 H 5554.47 -2.2601 -2.96227 0
M  V30 59851 H 5554.59 -4.08682 -2.50032 0
M  V30 59852 H 5552.95 -2.12057 -1.41081 0
M  V30 59853 H 5553.73 -3.41479 -0.353152 0
M  V30 59854 N 5556.18 0.618069 -1.44975 0
M  V30 59855 C 5557.4 1.40915 -1.52176 0
M  V30 59856 C 5557.83 1.87486 -0.151821 0
M  V30 59857 O 5557.19 1.59521 0.86155 0
M  V30 59858 C 5557.23 2.5968 -2.50197 0
M  V30 59859 O 5556.34 3.5996 -2.01253 0
M  V30 59860 H 5555.68 0.42112 -0.513375 0
M  V30 59861 H 5558.21 0.753191 -1.90232 0
M  V30 59862 H 5558.22 3.07059 -2.68661 0
M  V30 59863 H 5556.89 2.25131 -3.49698 0
M  V30 59864 H 5555.47 3.19301 -1.92616 0
M  V30 59865 N 5557.66 1.3209 0.859647 0
M  V30 59866 C 5558.9 1.23677 1.62737 0
M  V30 59867 C 5559.26 -0.199593 1.9096 0
M  V30 59868 O 5560.46 -0.407384 2.65695 0
M  V30 59869 C 5558.73 2.06747 2.91531 0
M  V30 59870 S 5560.29 2.15305 3.82347 0
M  V30 59871 H 5557.11 0.440326 0.558242 0
M  V30 59872 H 5559.71 1.66879 1.01842 0
M  V30 59873 H 5558.42 3.10175 2.68737 0
M  V30 59874 H 5557.95 1.64303 3.57446 0
M  V30 59875 H 5559.96 1.29891 4.78897 0
M  V30 59876 N 5559.13 -1.07528 1.15219 0
M  V30 59877 C 5560.08 -2.14684 0.847318 0
M  V30 59878 C 5561.05 -1.64904 -0.198985 0
M  V30 59879 O 5562.24 -1.90683 -0.0669316 0
M  V30 59880 C 5559.38 -3.43413 0.340794 0
M  V30 59881 C 5558.49 -4.06994 1.44845 0
M  V30 59882 C 5557.62 -5.2355 0.898243 0
M  V30 59883 C 5556.66 -5.7909 1.98297 0
M  V30 59884 N 5555.8 -6.86979 1.44927 0
M  V30 59885 H 5560.64 -2.40103 1.76506 0
M  V30 59886 H 5558.18 -1.1782 0.88073 0
M  V30 59887 H 5560.14 -4.1719 0.0288423 0
M  V30 59888 H 5558.77 -3.18251 -0.540032 0
M  V30 59889 H 5557.82 -3.30888 1.87663 0
M  V30 59890 H 5559.13 -4.44281 2.2675 0
M  V30 59891 H 5558.28 -6.04303 0.538727 0
M  V30 59892 H 5557.02 -4.87676 0.0483466 0
M  V30 59893 H 5556.03 -4.96983 2.35133 0
M  V30 59894 H 5557.25 -6.1702 2.83661 0
M  V30 59895 H 5555.2 -6.53047 0.621697 0
M  V30 59896 H 5555.12 -7.23141 2.2046 0
M  V30 59897 H 5556.38 -7.71442 1.11794 0
M  V30 59898 N 5560.61 -0.948709 -1.25846 0
M  V30 59899 C 5561.54 -0.482116 -2.28469 0
M  V30 59900 C 5562.52 0.468496 -1.63521 0
M  V30 59901 O 5563.71 0.368729 -1.90667 0
M  V30 59902 C 5560.84 0.246481 -3.46424 0
M  V30 59903 C 5559.79 -0.618299 -4.2351 0
M  V30 59904 C 5559.12 0.240696 -5.34158 0
M  V30 59905 C 5560.42 -1.89344 -4.86771 0
M  V30 59906 H 5562.11 -1.33982 -2.67748 0
M  V30 59907 H 5559.66 -0.64569 -1.28712 0
M  V30 59908 H 5561.61 0.583988 -4.17334 0
M  V30 59909 H 5560.34 1.13838 -3.06118 0
M  V30 59910 H 5558.99 -0.938807 -3.54375 0
M  V30 59911 H 5558.64 1.13218 -4.90093 0
M  V30 59912 H 5558.34 -0.334573 -5.86647 0
M  V30 59913 H 5559.87 0.573303 -6.07903 0
M  V30 59914 H 5561.28 -1.62271 -5.49855 0
M  V30 59915 H 5559.68 -2.41388 -5.4941 0
M  V30 59916 H 5560.75 -2.6002 -4.09289 0
M  V30 59917 N 5562.09 1.40366 -0.716594 0
M  V30 59918 C 5563.37 1.94736 -0.183644 0
M  V30 59919 C 5563.75 1.65468 1.31086 0
M  V30 59920 O 5563.1 0.972904 2.06753 0
M  V30 59921 C 5563.31 3.45436 -0.497461 0
M  V30 59922 C 5564.65 4.22349 -0.436675 0
M  V30 59923 O 5565.68 3.53551 -0.433579 0
M  V30 59924 O 5564.54 5.44921 -0.415082 0
M  V30 59925 H 5561.63 0.826549 -0.0273075 0
M  V30 59926 H 5564.18 1.49969 -0.794196 0
M  V30 59927 H 5562.95 3.60102 -1.53109 0
M  V30 59928 H 5562.57 3.97343 0.143002 0
M  V30 59929 N 5563.57 0.462852 1.5065 0
M  V30 59930 C 5564.82 -0.0949734 2.02277 0
M  V30 59931 C 5565.14 -1.4046 1.34541 0
M  V30 59932 O 5564.4 -1.90281 0.457346 0
M  V30 59933 C 5564.7 -0.335169 3.55825 0
M  V30 59934 C 5564.36 0.891744 4.41994 0
M  V30 59935 C 5563.03 1.22815 4.65263 0
M  V30 59936 C 5565.38 1.70903 4.92384 0
M  V30 59937 C 5562.71 2.38205 5.36167 0
M  V30 59938 C 5565.06 2.85414 5.64554 0
M  V30 59939 C 5563.72 3.19479 5.8608 0
M  V30 59940 H 5562.99 -0.0347532 0.740185 0
M  V30 59941 H 5565.64 0.615254 1.81347 0
M  V30 59942 H 5563.94 -1.12756 3.75224 0
M  V30 59943 H 5565.64 -0.780614 3.93329 0
M  V30 59944 H 5562.23 0.619644 4.24097 0
M  V30 59945 H 5566.41 1.46232 4.74268 0
M  V30 59946 H 5561.67 2.64882 5.51042 0
M  V30 59947 H 5565.84 3.49094 6.02583 0
M  V30 59948 H 5563.47 4.09 6.40799 0
M  V30 59949 N 5565.05 -1.56387 0.19514 0
M  V30 59950 C 5566.46 -1.58789 -0.160702 0
M  V30 59951 C 5566.66 -1.21131 -1.61026 0
M  V30 59952 O 5565.72 -0.934076 -2.34587 0
M  V30 59953 C 5567.03 -3.00366 0.141693 0
M  V30 59954 C 5568.58 -3.12893 0.0818047 0
M  V30 59955 C 5569.05 -4.56603 0.357511 0
M  V30 59956 N 5570.55 -4.62187 0.306131 0
M  V30 59957 C 5571.28 -5.71274 0.493308 0
M  V30 59958 N 5570.78 -6.88828 0.740837 0
M  V30 59959 N 5572.57 -5.60472 0.427562 0
M  V30 59960 H 5564.72 -1.79147 1.14106 0
M  V30 59961 H 5566.98 -0.83143 0.455442 0
M  V30 59962 H 5566.69 -3.32479 1.14677 0
M  V30 59963 H 5566.56 -3.73084 -0.555703 0
M  V30 59964 H 5568.95 -2.80593 -0.913879 0
M  V30 59965 H 5569.03 -2.42561 0.812278 0
M  V30 59966 H 5568.68 -4.89616 1.35051 0
M  V30 59967 H 5568.61 -5.25125 -0.393852 0
M  V30 59968 H 5571.1 -3.77705 0.121431 0
M  V30 59969 H 5571.41 -7.67859 0.872471 0
M  V30 59970 H 5569.75 -6.90635 0.777731 0
M  V30 59971 H 5572.95 -4.67512 0.234601 0
M  V30 59972 H 5573.12 -6.45427 0.576854 0
M  V30 59973 N 5566.52 0.0784603 -1.57405 0
M  V30 59974 C 5567.43 1.11196 -2.06574 0
M  V30 59975 C 5568.45 1.42819 -0.993923 0
M  V30 59976 O 5569.63 1.53128 -1.30819 0
M  V30 59977 C 5566.69 2.40803 -2.49429 0
M  V30 59978 C 5565.75 2.16212 -3.70879 0
M  V30 59979 C 5564.99 3.3964 -4.1168 0
M  V30 59980 O 5565.21 4.48508 -3.52415 0
M  V30 59981 O 5564.14 3.28245 -5.04518 0
M  V30 59982 H 5567.97 0.724277 -2.94937 0
M  V30 59983 H 5565.55 0.292132 -1.46516 0
M  V30 59984 H 5567.44 3.17091 -2.77545 0
M  V30 59985 H 5566.11 2.78964 -1.64197 0
M  V30 59986 H 5565.02 1.37651 -3.47855 0
M  V30 59987 H 5566.35 1.82935 -4.56942 0
M  V30 59988 N 5568 1.53671 0.349693 0
M  V30 59989 C 5569.25 1.69839 1.08801 0
M  V30 59990 C 5569.56 0.465037 1.89991 0
M  V30 59991 O 5570.77 0.507546 2.66714 0
M  V30 59992 C 5569.23 3.00301 1.98361 0
M  V30 59993 C 5568.83 4.30953 1.22407 0
M  V30 59994 C 5570.58 3.25835 2.72088 0
M  V30 59995 C 5568.49 5.52494 2.10961 0
M  V30 59996 H 5567.42 0.632854 0.409892 0
M  V30 59997 H 5570.07 1.80172 0.347905 0
M  V30 59998 H 5568.45 2.8381 2.76166 0
M  V30 59999 H 5569.62 4.58128 0.495546 0
M  V30 60000 H 5567.94 4.11985 0.604751 0
M  V30 60001 H 5570.53 4.13828 3.386 0
M  V30 60002 H 5570.88 2.42578 3.38322 0
M  V30 60003 H 5571.41 3.43074 2.01358 0
M  V30 60004 H 5568.15 6.38276 1.49279 0
M  V30 60005 H 5567.67 5.29576 2.81619 0
M  V30 60006 H 5569.35 5.87899 2.70156 0
M  V30 60007 N 5569.48 -0.610372 1.453 0
M  V30 60008 C 5570.41 -1.73502 1.49766 0
M  V30 60009 C 5571.43 -1.58091 0.388725 0
M  V30 60010 O 5572.61 -1.66023 0.65563 0
M  V30 60011 C 5569.71 -3.1147 1.33565 0
M  V30 60012 C 5568.89 -3.53147 2.58082 0
M  V30 60013 C 5567.95 -4.70068 2.36479 0
M  V30 60014 O 5566.97 -4.77326 3.10078 0
M  V30 60015 N 5568.17 -5.6315 1.40862 0
M  V30 60016 H 5570.94 -1.70136 2.46727 0
M  V30 60017 H 5568.5 -0.795571 1.41005 0
M  V30 60018 H 5570.49 -3.8744 1.16928 0
M  V30 60019 H 5569.06 -3.0936 0.448912 0
M  V30 60020 H 5568.28 -2.67167 2.89854 0
M  V30 60021 H 5569.57 -3.77749 3.40856 0
M  V30 60022 H 5568.97 -5.59998 0.801179 0
M  V30 60023 H 5567.53 -6.38664 1.30198 0
M  V30 60024 N 5570.96 -1.32544 -0.85263 0
M  V30 60025 C 5572.21 -1.22573 -1.60184 0
M  V30 60026 C 5572.52 0.210526 -1.94464 0
M  V30 60027 O 5573.73 0.432119 -2.68039 0
M  V30 60028 C 5572.18 -2.14688 -2.88855 0
M  V30 60029 C 5571.79 -3.63407 -2.61991 0
M  V30 60030 C 5573.53 -2.13558 -3.6687 0
M  V30 60031 C 5571.44 -4.47477 -3.86675 0
M  V30 60032 H 5570.37 -0.455205 -0.601086 0
M  V30 60033 H 5573.02 -1.57518 -0.941292 0
M  V30 60034 H 5571.4 -1.7266 -3.56377 0
M  V30 60035 H 5572.58 -4.1379 -2.02767 0
M  V30 60036 H 5570.89 -3.66688 -1.97303 0
M  V30 60037 H 5573.49 -2.73605 -4.59396 0
M  V30 60038 H 5573.83 -1.12709 -4.00752 0
M  V30 60039 H 5574.37 -2.53877 -3.06254 0
M  V30 60040 H 5571.11 -5.49149 -3.57933 0
M  V30 60041 H 5570.63 -4.01844 -4.45288 0
M  V30 60042 H 5572.3 -4.60581 -4.54394 0
M  V30 60043 N 5572.44 1.06915 -1.15788 0
M  V30 60044 C 5573.67 1.83041 -0.958095 0
M  V30 60045 C 5574.08 1.82557 0.496963 0
M  V30 60046 O 5573.42 1.23868 1.35655 0
M  V30 60047 C 5573.48 3.31091 -1.40068 0
M  V30 60048 C 5573.14 3.55288 -2.87435 0
M  V30 60049 C 5574.14 3.48862 -3.85476 0
M  V30 60050 C 5571.83 3.82812 -3.25208 0
M  V30 60051 C 5573.82 3.69615 -5.19292 0
M  V30 60052 C 5571.51 4.03216 -4.59195 0
M  V30 60053 C 5572.51 3.96613 -5.56046 0
M  V30 60054 O 5572.19 4.16467 -6.87612 0
M  V30 60055 H 5571.93 0.584207 -0.340116 0
M  V30 60056 H 5574.48 1.35836 -1.54071 0
M  V30 60057 H 5572.71 3.79128 -0.761494 0
M  V30 60058 H 5574.4 3.88693 -1.1693 0
M  V30 60059 H 5575.16 3.27595 -3.5764 0
M  V30 60060 H 5571.04 3.87064 -2.50405 0
M  V30 60061 H 5574.59 3.64377 -5.94874 0
M  V30 60062 H 5570.48 4.2397 -4.86744 0
M  V30 60063 H 5571.25 4.33791 -6.94095 0
M  V30 60064 N 5573.92 0.95537 1.25341 0
M  V30 60065 C 5574.86 0.474968 2.2586 0
M  V30 60066 C 5575.83 -0.47294 1.59225 0
M  V30 60067 O 5577.02 -0.386028 1.86854 0
M  V30 60068 C 5574.16 -0.240433 3.44261 0
M  V30 60069 C 5573.27 0.744799 4.25531 0
M  V30 60070 C 5572.41 0.00676187 5.312 0
M  V30 60071 C 5571.44 0.982878 6.04157 0
M  V30 60072 N 5570.58 0.275664 7.01559 0
M  V30 60073 H 5575.42 1.33703 2.66322 0
M  V30 60074 H 5572.96 0.670485 1.30931 0
M  V30 60075 H 5574.92 -0.671788 4.11756 0
M  V30 60076 H 5573.55 -1.06653 3.04672 0
M  V30 60077 H 5572.6 1.29463 3.57692 0
M  V30 60078 H 5573.91 1.48964 4.76037 0
M  V30 60079 H 5573.06 -0.483192 6.04773 0
M  V30 60080 H 5571.8 -0.770865 4.81569 0
M  V30 60081 H 5570.81 1.48382 5.29398 0
M  V30 60082 H 5572.03 1.76075 6.55877 0
M  V30 60083 H 5569.98 -0.483211 6.54218 0
M  V30 60084 H 5569.9 0.959588 7.49885 0
M  V30 60085 H 5571.16 -0.192728 7.79262 0
M  V30 60086 N 5575.39 -1.39984 0.724028 0
M  V30 60087 C 5576.34 -2.30672 0.0769097 0
M  V30 60088 C 5577.31 -1.48637 -0.74137 0
M  V30 60089 O 5578.5 -1.77354 -0.703587 0
M  V30 60090 C 5575.64 -3.34905 -0.832611 0
M  V30 60091 C 5574.75 -4.32 -0.00289755 0
M  V30 60092 C 5573.88 -5.23301 -0.912676 0
M  V30 60093 C 5572.92 -6.12051 -0.0775555 0
M  V30 60094 N 5572.06 -6.95743 -0.942668 0
M  V30 60095 H 5576.9 -2.85443 0.855933 0
M  V30 60096 H 5574.44 -1.40559 0.433768 0
M  V30 60097 H 5576.39 -3.93916 -1.37427 0
M  V30 60098 H 5575.02 -2.81616 -1.57773 0
M  V30 60099 H 5574.08 -3.747 0.656048 0
M  V30 60100 H 5575.39 -4.94634 0.643298 0
M  V30 60101 H 5574.54 -5.87284 -1.52257 0
M  V30 60102 H 5573.28 -4.60961 -1.59267 0
M  V30 60103 H 5572.29 -5.4709 0.545215 0
M  V30 60104 H 5573.51 -6.76453 0.599064 0
M  V30 60105 H 5571.46 -6.35983 -1.60816 0
M  V30 60106 H 5571.37 -7.55177 -0.352703 0
M  V30 60107 H 5572.64 -7.64167 -1.53847 0
M  V30 60108 N 5576.87 -0.470835 -1.50402 0
M  V30 60109 C 5577.8 0.313376 -2.31388 0
M  V30 60110 C 5578.78 0.990575 -1.38281 0
M  V30 60111 O 5579.97 0.987796 -1.67201 0
M  V30 60112 C 5577.1 1.39587 -3.18014 0
M  V30 60113 C 5576.05 0.840295 -4.1967 0
M  V30 60114 C 5575.38 2.02106 -4.95032 0
M  V30 60115 C 5576.68 -0.148238 -5.2209 0
M  V30 60116 H 5578.37 -0.362537 -2.97197 0
M  V30 60117 H 5575.92 -0.175796 -1.42923 0
M  V30 60118 H 5577.87 1.95197 -3.73465 0
M  V30 60119 H 5576.59 2.10055 -2.50089 0
M  V30 60120 H 5575.25 0.306173 -3.65319 0
M  V30 60121 H 5574.9 2.71272 -4.23581 0
M  V30 60122 H 5574.6 1.65555 -5.63796 0
M  V30 60123 H 5576.13 2.58207 -5.53319 0
M  V30 60124 H 5577.54 0.318673 -5.72414 0
M  V30 60125 H 5575.94 -0.428021 -5.98572 0
M  V30 60126 H 5577.01 -1.07421 -4.72852 0
M  V30 60127 N 5578.35 1.56282 -0.203431 0
M  V30 60128 C 5579.77 1.58872 0.152279 0
M  V30 60129 C 5579.97 1.21983 1.60382 0
M  V30 60130 O 5579.02 0.946504 2.34089 0
M  V30 60131 C 5580.33 3.00287 -0.157621 0
M  V30 60132 C 5581.88 3.12845 -0.098397 0
M  V30 60133 C 5582.36 4.56406 -0.381721 0
M  V30 60134 N 5583.85 4.62018 -0.330638 0
M  V30 60135 C 5584.58 5.71004 -0.523598 0
M  V30 60136 N 5584.08 6.88425 -0.777357 0
M  V30 60137 N 5585.87 5.60237 -0.457279 0
M  V30 60138 H 5578.02 1.78539 -1.15054 0
M  V30 60139 H 5580.29 0.829003 -0.459845 0
M  V30 60140 H 5579.99 3.31866 -1.16439 0
M  V30 60141 H 5579.87 3.73374 0.53591 0
M  V30 60142 H 5582.25 2.81073 0.898986 0
M  V30 60143 H 5582.33 2.42126 -0.825131 0
M  V30 60144 H 5581.98 4.88893 -1.37646 0
M  V30 60145 H 5581.91 5.25327 0.365998 0
M  V30 60146 H 5584.4 3.77635 -0.14146 0
M  V30 60147 H 5584.71 7.67386 -0.913181 0
M  V30 60148 H 5583.06 6.90213 -0.814346 0
M  V30 60149 H 5586.25 4.67381 -0.259391 0
M  V30 60150 H 5586.42 6.45112 -0.611074 0
M  V30 60151 N 5579.83 -0.0701116 1.57444 0
M  V30 60152 C 5581.06 -0.781827 1.9156 0
M  V30 60153 C 5581.47 -1.71034 0.799549 0
M  V30 60154 O 5580.83 -1.81083 -0.226998 0
M  V30 60155 C 5580.88 -1.57403 3.25433 0
M  V30 60156 O 5580.6 -0.682839 4.32746 0
M  V30 60157 C 5582.1 -2.38659 3.73573 0
M  V30 60158 H 5579.32 -0.222189 0.633145 0
M  V30 60159 H 5581.86 -0.0398785 2.04461 0
M  V30 60160 H 5580.02 -2.26824 3.14053 0
M  V30 60161 H 5580.43 -1.23402 5.09777 0
M  V30 60162 H 5581.91 -2.897 4.6987 0
M  V30 60163 H 5582.38 -3.18259 3.02668 0
M  V30 60164 H 5582.99 -1.74391 3.87902 0
M  V30 60165 N 5581.31 -1.53855 -0.341539 0
M  V30 60166 C 5582.53 -1.75451 -1.10597 0
M  V30 60167 C 5582.96 -0.493288 -1.81517 0
M  V30 60168 O 5582.31 0.554192 -1.72622 0
M  V30 60169 C 5582.36 -2.93601 -2.09358 0
M  V30 60170 O 5581.47 -2.63889 -3.16917 0
M  V30 60171 H 5580.81 -0.581935 -0.319763 0
M  V30 60172 H 5583.34 -2.00823 -0.391317 0
M  V30 60173 H 5583.35 -3.20445 -2.52545 0
M  V30 60174 H 5582.02 -3.85072 -1.57137 0
M  V30 60175 H 5580.6 -2.47939 -2.78533 0
M  V30 60176 N 5582.78 0.602658 -1.45622 0
M  V30 60177 C 5584.01 1.39293 -1.53662 0
M  V30 60178 C 5584.43 1.87315 -0.171698 0
M  V30 60179 O 5583.79 1.60426 0.844583 0
M  V30 60180 C 5583.84 2.57012 -2.52937 0
M  V30 60181 O 5582.94 3.57805 -2.05059 0
M  V30 60182 H 5582.28 0.415652 -0.517813 0
M  V30 60183 H 5584.81 0.732972 -1.9102 0
M  V30 60184 H 5584.82 3.04192 -2.71903 0
M  V30 60185 H 5583.5 2.2141 -3.52066 0
M  V30 60186 H 5582.08 3.1724 -1.95992 0
M  V30 60187 N 5584.26 1.32995 0.845589 0
M  V30 60188 C 5585.51 1.2407 1.6004 0
M  V30 60189 C 5585.84 -0.195214 1.93518 0
M  V30 60190 O 5585.09 -1.15064 1.583 0
M  V30 60191 C 5585.39 2.05464 2.92437 0
M  V30 60192 C 5585.06 3.54728 2.7835 0
M  V30 60193 C 5583.72 3.95423 2.74216 0
M  V30 60194 C 5586.07 4.49607 2.63634 0
M  V30 60195 C 5583.4 5.29225 2.53255 0
M  V30 60196 C 5585.75 5.83563 2.44208 0
M  V30 60197 C 5584.41 6.23448 2.38471 0
M  V30 60198 H 5583.68 0.454005 0.585628 0
M  V30 60199 H 5586.33 1.64513 0.980186 0
M  V30 60200 H 5584.64 1.57777 3.58627 0
M  V30 60201 H 5586.33 1.95921 3.4988 0
M  V30 60202 H 5582.92 3.22412 2.82397 0
M  V30 60203 H 5587.11 4.19081 2.65866 0
M  V30 60204 H 5582.36 5.59173 2.47256 0
M  V30 60205 H 5586.54 6.56689 2.31802 0
M  V30 60206 H 5584.16 7.27066 2.2199 0
M  V30 60207 N 5585.74 -1.063 1.16353 0
M  V30 60208 C 5586.7 -2.11944 0.872494 0
M  V30 60209 C 5587.7 -1.60253 -0.132478 0
M  V30 60210 O 5588.89 -1.73922 0.0984052 0
M  V30 60211 C 5586.02 -3.39535 0.304766 0
M  V30 60212 H 5587.22 -2.39195 1.80903 0
M  V30 60213 H 5584.77 -1.22364 0.972462 0
M  V30 60214 H 5585.51 -3.17933 -0.639453 0
M  V30 60215 H 5585.29 -3.78359 1.02891 0
M  V30 60216 H 5586.78 -4.1743 0.119083 0
M  V30 60217 N 5587.22 -0.962004 -1.24833 0
M  V30 60218 C 5588.15 -0.506321 -2.27944 0
M  V30 60219 C 5589.13 0.451126 -1.64009 0
M  V30 60220 O 5590.31 0.348485 -1.91048 0
M  V30 60221 C 5587.44 0.209724 -3.46666 0
M  V30 60222 C 5586.4 -0.663183 -4.22831 0
M  V30 60223 C 5585.72 0.184028 -5.34383 0
M  V30 60224 C 5587.02 -1.94496 -4.84736 0
M  V30 60225 H 5588.72 -1.36814 -2.66312 0
M  V30 60226 H 5586.26 -0.659305 -1.2802 0
M  V30 60227 H 5588.22 0.539691 -4.1793 0
M  V30 60228 H 5586.94 1.10585 -3.07308 0
M  V30 60229 H 5585.6 -0.97634 -3.5336 0
M  V30 60230 H 5585.25 1.08013 -4.91266 0
M  V30 60231 H 5584.95 -0.396776 -5.86259 0
M  V30 60232 H 5586.47 0.508795 -6.08476 0
M  V30 60233 H 5587.89 -1.68094 -5.48103 0
M  V30 60234 H 5586.28 -2.47202 -5.46819 0
M  V30 60235 H 5587.35 -2.64347 -4.06508 0
M  V30 60236 N 5588.7 1.39598 -0.731441 0
M  V30 60237 C 5589.64 2.32468 -0.0782145 0
M  V30 60238 C 5590.64 1.52875 0.729757 0
M  V30 60239 O 5591.84 1.68565 0.631343 0
M  V30 60240 H 5588.22 0.751972 -0.00649159 0
M  V30 60241 H 5590.19 2.85193 -0.877933 0
M  V30 60242 C 5588.94 3.37951 0.817598 0
M  V30 60243 H 5588.26 3.99273 0.205277 0
M  V30 60244 H 5589.7 4.05391 1.24234 0
M  V30 60245 C 5588.16 2.7471 1.95028 0
M  V30 60246 O 5588.69 2.62277 3.0426 0
M  V30 60247 N 5586.9 2.32851 1.73864 0
M  V30 60248 H 5586.44 2.43164 0.850235 0
M  V30 60249 H 5586.4 1.90878 2.49826 0
M  V30 60250 N 5590.17 0.478804 1.50151 0
M  V30 60251 C 5591.1 -0.301101 2.3155 0
M  V30 60252 C 5592.09 -0.983227 1.38804 0
M  V30 60253 O 5593.27 -0.978915 1.67723 0
M  V30 60254 C 5590.4 -1.37899 3.18749 0
M  V30 60255 C 5589.35 -0.818028 4.2011 0
M  V30 60256 C 5588.68 -1.99478 4.96097 0
M  V30 60257 C 5589.98 0.175924 5.22004 0
M  V30 60258 H 5591.67 0.378293 2.97001 0
M  V30 60259 H 5589.22 0.183373 1.42828 0
M  V30 60260 H 5591.17 -1.93214 3.74495 0
M  V30 60261 H 5589.9 -2.08726 2.51199 0
M  V30 60262 H 5588.56 -0.286795 3.65476 0
M  V30 60263 H 5588.2 -2.69021 4.25013 0
M  V30 60264 H 5587.9 -1.62562 5.64666 0
M  V30 60265 H 5589.43 -2.55269 5.5468 0
M  V30 60266 H 5590.84 -0.288312 5.72575 0
M  V30 60267 H 5589.24 0.459759 5.98336 0
M  V30 60268 H 5590.31 1.09927 4.72275 0
M  V30 60269 N 5591.65 -1.56171 0.211716 0
M  V30 60270 C 5593.06 -1.84308 -0.297917 0
M  V30 60271 C 5593.41 -1.13286 -1.6019 0
M  V30 60272 O 5592.54 -0.399212 -2.12686 0
M  V30 60273 C 5593.13 -3.3435 -0.54731 0
M  V30 60274 C 5591.69 -3.62838 -1.00127 0
M  V30 60275 C 5590.84 -2.77237 -0.0589351 0
M  V30 60276 H 5593.79 -1.52618 0.435136 0
M  V30 60277 H 5593.81 -3.54023 -1.39457 0
M  V30 60278 H 5593.32 -3.86013 0.401913 0
M  V30 60279 H 5591.43 -3.16623 -1.9642 0
M  V30 60280 H 5591.54 -4.70902 -0.882488 0
M  V30 60281 H 5589.9 -2.48379 -0.563918 0
M  V30 60282 H 5590.69 -3.31696 0.88503 0
M  V30 60283 N 5593.13 0.061761 -1.57479 0
M  V30 60284 C 5594.36 0.771657 -1.91972 0
M  V30 60285 C 5594.77 1.70608 -0.808609 0
M  V30 60286 O 5594.13 1.81201 0.217392 0
M  V30 60287 C 5594.18 1.55675 -3.26263 0
M  V30 60288 O 5593.9 0.65988 -4.33102 0
M  V30 60289 C 5595.4 2.36675 -3.74833 0
M  V30 60290 H 5592.62 0.218828 -0.634315 0
M  V30 60291 H 5595.17 0.0290349 -2.04479 0
M  V30 60292 H 5593.32 2.25156 -3.15252 0
M  V30 60293 H 5593.74 1.20697 -5.10424 0
M  V30 60294 H 5595.21 2.87204 -4.714 0
M  V30 60295 H 5595.69 3.16649 -3.04352 0
M  V30 60296 H 5596.29 1.72332 -3.88821 0
M  V30 60297 N 5594.61 1.54034 0.333374 0
M  V30 60298 C 5595.54 1.85724 1.41523 0
M  V30 60299 C 5596.52 0.713198 1.54426 0
M  V30 60300 O 5597.7 0.966044 1.68467 0
M  V30 60301 C 5594.83 2.07588 2.78432 0
M  V30 60302 C 5593.79 3.23421 2.80327 0
M  V30 60303 C 5593.11 3.30637 4.20218 0
M  V30 60304 C 5594.41 4.61298 2.44951 0
M  V30 60305 H 5596.11 2.76329 1.15251 0
M  V30 60306 H 5593.65 1.32959 0.552983 0
M  V30 60307 H 5595.61 2.28342 3.54172 0
M  V30 60308 H 5594.33 1.13723 3.06161 0
M  V30 60309 H 5592.99 3.02539 2.07041 0
M  V30 60310 H 5592.64 2.34349 4.45073 0
M  V30 60311 H 5592.34 4.08481 4.22394 0
M  V30 60312 H 5593.86 3.53613 4.97785 0
M  V30 60313 H 5595.28 4.81998 3.10404 0
M  V30 60314 H 5593.67 5.4162 2.58395 0
M  V30 60315 H 5594.74 4.64214 1.40118 0
M  V30 60316 N 5596.09 -0.594927 1.4594 0
M  V30 60317 C 5597.5 -1.17698 1.44928 0
M  V30 60318 C 5597.85 -1.95339 0.183591 0
M  V30 60319 O 5596.97 -2.04278 -0.714091 0
M  V30 60320 C 5597.57 -2.1411 2.62569 0
M  V30 60321 C 5596.13 -2.67664 2.64637 0
M  V30 60322 C 5595.27 -1.43303 2.37402 0
M  V30 60323 H 5598.23 -0.383529 1.53996 0
M  V30 60324 H 5598.25 -2.97365 2.3739 0
M  V30 60325 H 5597.76 -1.57573 3.54672 0
M  V30 60326 H 5595.86 -3.28104 1.76574 0
M  V30 60327 H 5595.97 -3.11233 3.6424 0
M  V30 60328 H 5594.34 -1.72695 1.87212 0
M  V30 60329 H 5595.12 -0.886159 3.31666 0
M  V30 60330 N 5597.56 -1.33441 -0.838524 0
M  V30 60331 C 5598.47 -1.2576 -1.98044 0
M  V30 60332 C 5599.49 -0.168112 -1.73186 0
M  V30 60333 O 5600.67 -0.391761 -1.97553 0
M  V30 60334 C 5597.73 -0.997265 -3.32047 0
M  V30 60335 C 5596.79 -2.1768 -3.70019 0
M  V30 60336 C 5596.03 -1.92878 -4.97628 0
M  V30 60337 O 5596.25 -0.87927 -5.63582 0
M  V30 60338 O 5595.18 -2.79421 -5.33111 0
M  V30 60339 H 5599.01 -2.21793 -2.07464 0
M  V30 60340 H 5596.59 -1.13491 -0.971605 0
M  V30 60341 H 5598.48 -0.869244 -4.12337 0
M  V30 60342 H 5597.15 -0.0672174 -3.2363 0
M  V30 60343 H 5596.06 -2.36035 -2.90238 0
M  V30 60344 H 5597.39 -3.0902 -3.83103 0
M  V30 60345 N 5599.04 1.05681 -1.16915 0
M  V30 60346 C 5600.29 1.78858 -0.955902 0
M  V30 60347 C 5600.62 1.87258 0.514579 0
M  V30 60348 O 5599.9 1.36873 1.38188 0
M  V30 60349 C 5600.18 3.23016 -1.59163 0
M  V30 60350 C 5600.03 3.22658 -3.13387 0
M  V30 60351 C 5601.35 4.20726 -1.29143 0
M  V30 60352 H 5598.47 0.649298 -0.348686 0
M  V30 60353 H 5601.11 1.23556 -1.44339 0
M  V30 60354 H 5599.26 3.70239 -1.1771 0
M  V30 60355 H 5600.93 2.83549 -3.63865 0
M  V30 60356 H 5599.18 2.61137 -3.46396 0
M  V30 60357 H 5599.85 4.24381 -3.52994 0
M  V30 60358 H 5602.32 3.81974 -1.6503 0
M  V30 60359 H 5601.2 5.19845 -1.76217 0
M  V30 60360 H 5601.46 4.41595 -0.211346 0
M  V30 60361 N 5600.52 0.96861 1.24321 0
M  V30 60362 C 5601.47 0.498897 2.25343 0
M  V30 60363 C 5602.44 -0.456026 1.59717 0
M  V30 60364 O 5603.62 -0.366188 1.87253 0
M  V30 60365 C 5600.76 -0.203906 3.44497 0
M  V30 60366 C 5599.88 0.78989 4.24717 0
M  V30 60367 C 5599.01 0.0631023 5.31163 0
M  V30 60368 C 5598.05 1.0469 6.03081 0
M  V30 60369 N 5597.19 0.350059 7.01227 0
M  V30 60370 H 5602.03 1.3652 2.64889 0
M  V30 60371 H 5599.56 0.684334 1.30212 0
M  V30 60372 H 5601.52 -0.628078 4.12445 0
M  V30 60373 H 5600.15 -1.03416 3.05786 0
M  V30 60374 H 5599.2 1.3325 3.56299 0
M  V30 60375 H 5600.52 1.54005 4.7443 0
M  V30 60376 H 5599.67 -0.41902 6.05251 0
M  V30 60377 H 5598.41 -0.719745 4.8236 0
M  V30 60378 H 5597.41 1.53989 5.27795 0
M  V30 60379 H 5598.64 1.83021 6.53973 0
M  V30 60380 H 5596.58 -0.413796 6.54694 0
M  V30 60381 H 5596.5 1.03907 7.48825 0
M  V30 60382 H 5597.77 -0.110066 7.79422 0
M  V30 60383 N 5602 -1.39208 0.738834 0
M  V30 60384 C 5603.25 -2.00435 0.28846 0
M  V30 60385 C 5603.57 -1.5863 -1.12546 0
M  V30 60386 O 5602.83 -0.808217 -1.78231 0
M  V30 60387 C 5603.13 -3.55757 0.342349 0
M  V30 60388 C 5602.79 -4.17224 1.70983 0
M  V30 60389 C 5601.46 -4.33726 2.08411 0
M  V30 60390 C 5603.81 -4.51285 2.60752 0
M  V30 60391 C 5601.14 -4.8158 3.35108 0
M  V30 60392 C 5603.49 -5.00549 3.86825 0
M  V30 60393 C 5602.15 -5.15259 4.2434 0
M  V30 60394 H 5601.42 -0.733443 0.105555 0
M  V30 60395 H 5604.07 -1.66478 0.946429 0
M  V30 60396 H 5602.37 -3.89761 -0.399194 0
M  V30 60397 H 5604.07 -4.00993 -0.0243173 0
M  V30 60398 H 5600.66 -4.04783 1.40884 0
M  V30 60399 H 5604.85 -4.3815 2.33105 0
M  V30 60400 H 5600.1 -4.91154 3.64112 0
M  V30 60401 H 5604.28 -5.25876 4.56538 0
M  V30 60402 H 5601.9 -5.521 5.2258 0
M  V30 60403 N 5603.48 -0.48676 -1.49895 0
M  V30 60404 C 5604.89 -0.0354562 -1.86666 0
M  V30 60405 C 5605.24 1.37425 -1.40031 0
M  V30 60406 O 5604.36 2.02161 -0.772011 0
M  V30 60407 C 5604.96 -0.0575666 -3.38751 0
M  V30 60408 C 5603.52 0.338332 -3.74876 0
M  V30 60409 C 5602.67 -0.436292 -2.73846 0
M  V30 60410 H 5605.62 -0.700265 -1.42415 0
M  V30 60411 H 5605.64 0.741044 -3.73214 0
M  V30 60412 H 5605.15 -1.08369 -3.72663 0
M  V30 60413 H 5603.25 1.36823 -3.46569 0
M  V30 60414 H 5603.36 0.0287835 -4.79091 0
M  V30 60415 H 5601.73 0.112052 -2.54453 0
M  V30 60416 H 5602.51 -1.46223 -3.10602 0
M  V30 60417 N 5604.96 1.56057 -0.219996 0
M  V30 60418 C 5605.87 2.23846 0.702141 0
M  V30 60419 C 5606.88 1.24558 1.21496 0
M  V30 60420 O 5608.06 1.57366 1.25689 0
M  V30 60421 C 5605.12 2.9039 1.89405 0
M  V30 60422 C 5604.18 4.05017 1.42337 0
M  V30 60423 C 5603.42 4.68378 2.55847 0
M  V30 60424 O 5603.64 4.30723 3.73943 0
M  V30 60425 O 5602.57 5.57398 2.27137 0
M  V30 60426 H 5606.4 3.03306 0.154673 0
M  V30 60427 H 5603.98 1.49396 0.0103855 0
M  V30 60428 H 5605.87 3.32398 2.59017 0
M  V30 60429 H 5604.54 2.13891 2.42965 0
M  V30 60430 H 5603.45 3.67581 0.695319 0
M  V30 60431 H 5604.78 4.83254 0.934162 0
M  V30 60432 N 5606.43 -0.0534086 1.57509 0
M  V30 60433 C 5607.68 -0.750146 1.88416 0
M  V30 60434 C 5608.01 -1.76286 0.814681 0
M  V30 60435 O 5607.29 -1.93728 -0.173068 0
M  V30 60436 C 5607.57 -1.44165 3.29983 0
M  V30 60437 C 5607.42 -0.444106 4.47602 0
M  V30 60438 C 5608.74 -2.38194 3.7007 0
M  V30 60439 H 5605.86 -0.271242 0.685271 0
M  V30 60440 H 5608.5 -0.0131008 1.89995 0
M  V30 60441 H 5606.65 -2.06989 3.28767 0
M  V30 60442 H 5608.33 0.180344 4.60947 0
M  V30 60443 H 5606.57 0.238924 4.33142 0
M  V30 60444 H 5607.24 -0.965943 5.43483 0
M  V30 60445 H 5609.72 -1.85433 3.72497 0
M  V30 60446 H 5608.59 -2.83571 4.69977 0
M  V30 60447 H 5608.85 -3.23811 3.00997 0
M  V30 60448 N 5607.91 -1.54208 -0.325201 0
M  V30 60449 C 5609.19 -1.62983 -1.08147 0
M  V30 60450 C 5609.57 -0.462655 -2.05968 0
M  V30 60451 O 5608.92 0.543245 -2.21948 0
M  V30 60452 C 5609.13 -2.99906 -1.78486 0
M  V30 60453 C 5610.47 -3.55896 -2.31567 0
M  V30 60454 O 5611.5 -3.022 -1.88556 0
M  V30 60455 O 5610.36 -4.49858 -3.10306 0
M  V30 60456 H 5607.45 -0.65994 -0.498406 0
M  V30 60457 H 5610 -1.66554 -0.325223 0
M  V30 60458 H 5608.77 -3.76294 -1.07325 0
M  V30 60459 H 5608.39 -3.00006 -2.60925 0
M  V30 60460 N 5609.39 0.587179 -1.46253 0
M  V30 60461 C 5610.64 1.34754 -1.51556 0
M  V30 60462 C 5610.97 1.93499 -0.164898 0
M  V30 60463 O 5610.24 1.76223 0.823145 0
M  V30 60464 C 5610.53 2.48024 -2.61067 0
M  V30 60465 C 5610.38 1.94343 -4.05648 0
M  V30 60466 C 5611.7 3.50086 -2.66698 0
M  V30 60467 H 5608.82 0.488611 -0.55175 0
M  V30 60468 H 5611.46 0.660034 -1.78167 0
M  V30 60469 H 5609.61 3.0667 -2.38507 0
M  V30 60470 H 5611.28 1.40189 -4.39482 0
M  V30 60471 H 5609.52 1.25202 -4.15339 0
M  V30 60472 H 5610.2 2.76088 -4.77995 0
M  V30 60473 H 5612.67 3.01314 -2.86966 0
M  V30 60474 H 5611.55 4.26805 -3.4515 0
M  V30 60475 H 5611.81 4.07026 -1.72575 0
M  V30 60476 N 5610.87 1.33884 0.831435 0
M  V30 60477 C 5611.8 1.27391 1.95688 0
M  V30 60478 C 5612.78 0.153002 1.6941 0
M  V30 60479 O 5613.96 0.343987 1.91129 0
M  V30 60480 C 5611.09 1.01994 3.31986 0
M  V30 60481 C 5610.05 2.10458 3.72681 0
M  V30 60482 C 5609.37 1.70263 5.06867 0
M  V30 60483 C 5610.67 3.52208 3.85677 0
M  V30 60484 H 5612.37 2.21556 2.01379 0
M  V30 60485 H 5609.91 1.06657 0.967488 0
M  V30 60486 H 5611.87 0.960985 4.10296 0
M  V30 60487 H 5610.59 0.0426857 3.26572 0
M  V30 60488 H 5609.25 2.15408 2.96639 0
M  V30 60489 H 5608.9 0.712211 4.97932 0
M  V30 60490 H 5608.6 2.42852 5.35067 0
M  V30 60491 H 5610.12 1.65848 5.87645 0
M  V30 60492 H 5611.54 3.49717 4.5428 0
M  V30 60493 H 5609.93 4.23346 4.25322 0
M  V30 60494 H 5611 3.9017 2.87915 0
M  V30 60495 N 5612.35 -1.0506 1.17474 0
M  V30 60496 C 5613.57 -1.81757 0.988528 0
M  V30 60497 C 5613.99 -1.8303 -0.463208 0
M  V30 60498 O 5613.35 -1.2585 -1.32167 0
M  V30 60499 C 5613.4 -3.27814 1.52381 0
M  V30 60500 O 5613.12 -3.26716 2.9187 0
M  V30 60501 C 5614.62 -4.21195 1.38238 0
M  V30 60502 H 5611.84 -0.5727 0.349651 0
M  V30 60503 H 5614.38 -1.32471 1.55793 0
M  V30 60504 H 5612.54 -3.74367 0.996403 0
M  V30 60505 H 5612.95 -4.1814 3.16637 0
M  V30 60506 H 5614.43 -5.21654 1.80504 0
M  V30 60507 H 5614.9 -4.37961 0.329645 0
M  V30 60508 H 5615.51 -3.80499 1.90002 0
M  V30 60509 N 5613.82 -0.97519 -1.23806 0
M  V30 60510 C 5614.77 -0.51084 -2.25076 0
M  V30 60511 C 5615.74 0.447549 -1.59957 0
M  V30 60512 O 5616.93 0.356252 -1.87445 0
M  V30 60513 C 5614.07 0.185634 -3.446 0
M  V30 60514 C 5613.18 -0.812403 -4.24292 0
M  V30 60515 C 5612.31 -0.0912703 -5.31122 0
M  V30 60516 C 5611.35 -1.07887 -6.02517 0
M  V30 60517 N 5610.49 -0.387241 -7.01031 0
M  V30 60518 H 5615.33 -1.37923 -2.64162 0
M  V30 60519 H 5612.87 -0.69123 -1.29848 0
M  V30 60520 H 5614.82 0.606196 -4.12772 0
M  V30 60521 H 5613.45 1.01792 -3.0633 0
M  V30 60522 H 5612.51 -1.35138 -3.55587 0
M  V30 60523 H 5613.82 -1.56519 -4.73607 0
M  V30 60524 H 5612.97 0.386917 -6.05465 0
M  V30 60525 H 5611.71 0.694154 -4.82735 0
M  V30 60526 H 5610.72 -1.56786 -5.26971 0
M  V30 60527 H 5611.94 -1.86487 -6.52993 0
M  V30 60528 H 5609.89 0.37907 -6.54904 0
M  V30 60529 H 5609.8 -1.07877 -7.48264 0
M  V30 60530 H 5611.07 0.0687296 -7.7947 0
M  V30 60531 N 5615.3 1.38815 -0.746207 0
M  V30 60532 C 5616.53 2.04273 -0.309228 0
M  V30 60533 C 5616.94 1.56392 1.0648 0
M  V30 60534 O 5616.28 0.728934 1.68619 0
M  V30 60535 C 5616.34 3.58663 -0.245129 0
M  V30 60536 C 5616.01 4.29569 -1.55948 0
M  V30 60537 C 5617.01 4.55445 -2.5073 0
M  V30 60538 C 5614.69 4.679 -1.82688 0
M  V30 60539 C 5616.68 5.18678 -3.70476 0
M  V30 60540 C 5614.37 5.30858 -3.02709 0
M  V30 60541 C 5615.37 5.56181 -3.96424 0
M  V30 60542 O 5615.06 6.1783 -5.14336 0
M  V30 60543 H 5614.79 0.663157 -0.131145 0
M  V30 60544 H 5617.34 1.78633 -1.01388 0
M  V30 60545 H 5615.57 3.83246 0.515712 0
M  V30 60546 H 5617.26 4.05579 0.161347 0
M  V30 60547 H 5618.03 4.26268 -2.31345 0
M  V30 60548 H 5613.91 4.4754 -1.10583 0
M  V30 60549 H 5617.45 5.38359 -4.43639 0
M  V30 60550 H 5613.35 5.59458 -3.2199 0
M  V30 60551 H 5614.12 6.3632 -5.14819 0
M  V30 60552 N 5616.78 0.494703 1.49634 0
M  V30 60553 C 5618.01 -0.0512321 2.07337 0
M  V30 60554 C 5618.43 -1.30633 1.35339 0
M  V30 60555 O 5617.79 -1.76645 0.408188 0
M  V30 60556 C 5617.84 -0.294299 3.59397 0
M  V30 60557 O 5616.94 -1.37026 3.8897 0
M  V30 60558 H 5616.28 0.0234313 0.663586 0
M  V30 60559 H 5618.81 0.692519 1.92524 0
M  V30 60560 H 5618.82 -0.527712 4.04573 0
M  V30 60561 H 5617.5 0.622728 4.11212 0
M  V30 60562 H 5616.07 -1.1223 3.55611 0
M  V30 60563 N 5618.26 -1.55938 0.228269 0
M  V30 60564 C 5619.19 -2.17876 -0.711512 0
M  V30 60565 C 5620.2 -1.14973 -1.15261 0
M  V30 60566 O 5621.39 -1.41923 -1.0826 0
M  V30 60567 C 5618.49 -2.75301 -1.97643 0
M  V30 60568 C 5617.67 -4.03441 -1.6898 0
M  V30 60569 C 5616.72 -4.45364 -2.80245 0
M  V30 60570 O 5615.75 -5.12126 -2.48427 0
M  V30 60571 N 5616.95 -4.11603 -4.09345 0
M  V30 60572 H 5619.72 -2.99149 -0.181651 0
M  V30 60573 H 5617.28 -1.6183 0.0475136 0
M  V30 60574 H 5619.27 -3.00314 -2.71281 0
M  V30 60575 H 5617.84 -1.98293 -2.41658 0
M  V30 60576 H 5617.06 -3.86213 -0.789521 0
M  V30 60577 H 5618.35 -4.8702 -1.4727 0
M  V30 60578 H 5617.75 -3.57968 -4.38036 0
M  V30 60579 H 5616.3 -4.41494 -4.79507 0
M  V30 60580 N 5619.74 0.0450548 -1.57536 0
M  V30 60581 C 5621.15 0.593658 -1.7701 0
M  V30 60582 C 5621.5 1.76479 -0.857295 0
M  V30 60583 O 5620.62 2.16347 -0.0480463 0
M  V30 60584 C 5621.22 1.08372 -3.21 0
M  V30 60585 C 5619.78 1.57796 -3.41727 0
M  V30 60586 C 5618.92 0.508971 -2.72589 0
M  V30 60587 H 5621.88 -0.18117 -1.57663 0
M  V30 60588 H 5621.9 1.95169 -3.26633 0
M  V30 60589 H 5621.41 0.231139 -3.87411 0
M  V30 60590 H 5619.51 2.45292 -2.80468 0
M  V30 60591 H 5619.62 1.63648 -4.50284 0
M  V30 60592 H 5617.99 0.960306 -2.35903 0
M  V30 60593 H 5618.77 -0.333873 -3.41673 0
M  V30 60594 N 5621.21 1.54379 0.317018 0
M  V30 60595 C 5622.12 1.87252 1.41329 0
M  V30 60596 C 5623.14 0.765072 1.56277 0
M  V30 60597 O 5624.32 1.06 1.71248 0
M  V30 60598 C 5621.38 2.0989 2.75948 0
M  V30 60599 C 5620.44 3.33667 2.7012 0
M  V30 60600 C 5619.68 3.55216 3.98318 0
M  V30 60601 O 5619.9 2.80078 4.96903 0
M  V30 60602 O 5618.83 4.48707 4.01181 0
M  V30 60603 H 5622.66 2.80485 1.16456 0
M  V30 60604 H 5620.24 1.40366 0.511638 0
M  V30 60605 H 5622.13 2.26073 3.55625 0
M  V30 60606 H 5620.8 1.19845 3.00697 0
M  V30 60607 H 5619.71 3.22864 1.8897 0
M  V30 60608 H 5621.04 4.23791 2.50323 0
M  V30 60609 N 5622.69 -0.579414 1.46562 0
M  V30 60610 C 5623.97 -1.33968 1.4252 0
M  V30 60611 C 5624.35 -2.10811 0.110391 0
M  V30 60612 O 5623.7 -2.09682 -0.908062 0
M  V30 60613 C 5623.91 -2.26291 2.65694 0
M  V30 60614 C 5625.26 -2.88016 3.1198 0
M  V30 60615 O 5626.28 -2.36603 2.66266 0
M  V30 60616 O 5625.14 -3.81409 3.91394 0
M  V30 60617 H 5622.23 -0.602101 0.566925 0
M  V30 60618 H 5624.78 -0.600158 1.58733 0
M  V30 60619 H 5623.55 -1.6896 3.52942 0
M  V30 60620 H 5623.17 -3.07577 2.51956 0
M  V30 60621 N 5624.17 -1.34323 -0.824323 0
M  V30 60622 C 5625.4 -1.29826 -1.6174 0
M  V30 60623 C 5625.82 0.125232 -1.87683 0
M  V30 60624 O 5625.18 1.08653 -1.45135 0
M  V30 60625 C 5625.23 -2.09337 -2.93616 0
M  V30 60626 O 5624.33 -1.46194 -3.85618 0
M  V30 60627 H 5623.67 -0.445946 -0.491964 0
M  V30 60628 H 5626.2 -1.77104 -1.02446 0
M  V30 60629 H 5626.21 -2.20641 -3.43193 0
M  V30 60630 H 5624.89 -3.12834 -2.74058 0
M  V30 60631 H 5623.46 -1.43623 -3.44132 0
M  V30 60632 N 5625.65 1.04435 -1.1803 0
M  V30 60633 C 5626.58 2.14294 -0.927389 0
M  V30 60634 C 5627.56 1.69575 0.133511 0
M  V30 60635 O 5628.74 1.94191 -0.0183122 0
M  V30 60636 C 5625.87 3.44395 -0.448255 0
M  V30 60637 C 5624.83 4.02718 -1.44921 0
M  V30 60638 C 5624.15 5.28254 -0.82774 0
M  V30 60639 C 5625.45 4.39321 -2.82478 0
M  V30 60640 H 5627.15 2.35708 -1.84613 0
M  V30 60641 H 5624.69 1.13278 -0.889052 0
M  V30 60642 H 5626.65 4.20605 -0.258702 0
M  V30 60643 H 5625.37 3.22656 0.506046 0
M  V30 60644 H 5624.03 3.28586 -1.62564 0
M  V30 60645 H 5623.68 5.02822 0.133633 0
M  V30 60646 H 5623.38 5.68237 -1.496 0
M  V30 60647 H 5624.9 6.07145 -0.648634 0
M  V30 60648 H 5626.32 5.06533 -2.68509 0
M  V30 60649 H 5624.71 4.90343 -3.45953 0
M  V30 60650 H 5625.78 3.49318 -3.36311 0
M  V30 60651 N 5627.13 0.981742 1.23287 0
M  V30 60652 C 5628.38 0.646885 1.91045 0
M  V30 60653 C 5628.69 -0.823417 1.77424 0
M  V30 60654 O 5629.89 -1.26939 2.39997 0
M  V30 60655 C 5628.35 1.10642 3.42471 0
M  V30 60656 C 5627.96 2.60116 3.64751 0
M  V30 60657 C 5629.7 0.845373 4.15997 0
M  V30 60658 C 5627.61 2.9973 5.09819 0
M  V30 60659 H 5626.54 0.238247 0.71537 0
M  V30 60660 H 5629.19 1.18982 1.39698 0
M  V30 60661 H 5627.57 0.491692 3.92936 0
M  V30 60662 H 5628.75 3.26839 3.24827 0
M  V30 60663 H 5627.06 2.83982 3.04537 0
M  V30 60664 H 5629.66 1.11718 5.22899 0
M  V30 60665 H 5630 -0.218515 4.15726 0
M  V30 60666 H 5630.53 1.42175 3.71525 0
M  V30 60667 H 5627.27 4.05248 5.15222 0
M  V30 60668 H 5626.79 2.37702 5.50688 0
M  V30 60669 H 5628.47 2.90411 5.78161 0
M  V30 60670 N 5628.6 -1.38417 0.753558 0
M  V30 60671 C 5630.02 -1.82846 0.377395 0
M  V30 60672 C 5630.37 -1.62871 -1.09396 0
M  V30 60673 O 5629.49 -1.12987 -1.84561 0
M  V30 60674 C 5630.09 -3.31942 0.678212 0
M  V30 60675 C 5628.65 -3.74719 0.355327 0
M  V30 60676 C 5627.79 -2.6119 0.931403 0
M  V30 60677 H 5630.74 -1.27146 0.949711 0
M  V30 60678 H 5630.76 -3.80475 -0.0435954 0
M  V30 60679 H 5630.28 -3.46449 1.74914 0
M  V30 60680 H 5628.38 -3.65792 -0.709021 0
M  V30 60681 H 5628.49 -4.71484 0.850859 0
M  V30 60682 H 5626.85 -2.52189 0.356784 0
M  V30 60683 H 5627.64 -2.78496 2.00736 0
M  V30 60684 N 5630.08 -0.502631 -1.4937 0
M  V30 60685 C 5631.33 0.0413098 -2.02458 0
M  V30 60686 C 5631.66 1.36843 -1.38218 0
M  V30 60687 O 5630.91 1.89001 -0.507635 0
M  V30 60688 C 5631.21 0.24071 -3.56588 0
M  V30 60689 C 5630.88 -1.00862 -4.39474 0
M  V30 60690 C 5629.54 -1.35108 -4.61843 0
M  V30 60691 C 5631.89 -1.83897 -4.87679 0
M  V30 60692 C 5629.22 -2.52337 -5.29663 0
M  V30 60693 C 5631.57 -3.00282 -5.56789 0
M  V30 60694 C 5630.24 -3.34905 -5.77403 0
M  V30 60695 H 5629.51 0.0151163 -0.740846 0
M  V30 60696 H 5632.15 -0.663119 -1.79652 0
M  V30 60697 H 5630.46 1.02768 -3.78082 0
M  V30 60698 H 5632.15 0.676055 -3.9526 0
M  V30 60699 H 5628.74 -0.731868 -4.22305 0
M  V30 60700 H 5632.93 -1.58754 -4.70224 0
M  V30 60701 H 5628.18 -2.79398 -5.43826 0
M  V30 60702 H 5632.36 -3.64948 -5.93115 0
M  V30 60703 H 5629.99 -4.25846 -6.29729 0
M  V30 60704 N 5631.56 1.55815 -0.236535 0
M  V30 60705 C 5632.81 1.98688 0.391076 0
M  V30 60706 C 5633.14 1.12449 1.58699 0
M  V30 60707 O 5632.39 0.172874 1.94935 0
M  V30 60708 C 5632.69 3.47042 0.854218 0
M  V30 60709 C 5632.36 4.50299 -0.232809 0
M  V30 60710 C 5631.02 4.78257 -0.531386 0
M  V30 60711 C 5633.37 5.12147 -0.967207 0
M  V30 60712 C 5630.7 5.65342 -1.56862 0
M  V30 60713 C 5633.05 6.00356 -1.99388 0
M  V30 60714 C 5631.71 6.26652 -2.29922 0
M  V30 60715 H 5630.98 0.72705 0.143105 0
M  V30 60716 H 5633.63 1.88418 -0.342192 0
M  V30 60717 H 5631.94 3.54591 1.66651 0
M  V30 60718 H 5633.63 3.77595 1.34992 0
M  V30 60719 H 5630.22 4.28599 0.0100507 0
M  V30 60720 H 5634.41 4.90604 -0.749782 0
M  V30 60721 H 5629.66 5.83974 -1.81064 0
M  V30 60722 H 5633.84 6.47326 -2.56792 0
M  V30 60723 H 5631.46 6.93927 -3.10434 0
M  V30 60724 N 5633.04 -0.0366996 1.57557 0
M  V30 60725 C 5633.95 -1.0568 2.09449 0
M  V30 60726 C 5634.97 -1.40133 1.03144 0
M  V30 60727 O 5636.14 -1.49606 1.34833 0
M  V30 60728 C 5633.21 -2.34105 2.55726 0
M  V30 60729 C 5632.27 -2.06303 3.76481 0
M  V30 60730 C 5631.5 -3.28605 4.2054 0
M  V30 60731 O 5631.72 -4.39007 3.64183 0
M  V30 60732 O 5630.66 -3.14754 5.13044 0
M  V30 60733 H 5634.48 -0.645825 2.96754 0
M  V30 60734 H 5632.07 -0.253183 1.47239 0
M  V30 60735 H 5633.95 -3.09621 2.85855 0
M  V30 60736 H 5632.63 -2.74513 1.71535 0
M  V30 60737 H 5631.53 -1.2838 3.51382 0
M  V30 60738 H 5632.87 -1.70756 4.61631 0
M  V30 60739 N 5634.52 -1.54545 -0.308827 0
M  V30 60740 C 5635.77 -1.72664 -1.0426 0
M  V30 60741 C 5636.08 -0.515246 -1.88692 0
M  V30 60742 O 5637.29 -0.578082 -2.65274 0
M  V30 60743 C 5635.74 -3.05455 -1.90329 0
M  V30 60744 C 5635.35 -4.34047 -1.10938 0
M  V30 60745 C 5637.09 -3.32935 -2.63353 0
M  V30 60746 C 5635 -5.57893 -1.96238 0
M  V30 60747 H 5633.93 -0.643499 -0.392969 0
M  V30 60748 H 5636.58 -1.81031 -0.300013 0
M  V30 60749 H 5634.96 -2.91032 -2.68544 0
M  V30 60750 H 5636.14 -4.5928 -0.373907 0
M  V30 60751 H 5634.45 -4.13444 -0.495308 0
M  V30 60752 H 5637.05 -4.2266 -3.27509 0
M  V30 60753 H 5637.39 -2.51463 -3.31771 0
M  V30 60754 H 5637.93 -3.48292 -1.92191 0
M  V30 60755 H 5634.66 -6.42009 -1.32304 0
M  V30 60756 H 5634.18 -5.36857 -2.67479 0
M  V30 60757 H 5635.86 -5.94855 -2.54474 0
M  V30 60758 N 5636 0.571634 -1.46868 0
M  V30 60759 C 5637.22 1.35518 -1.56341 0
M  V30 60760 C 5637.64 1.87646 -0.208425 0
M  V30 60761 O 5637 1.64222 0.796079 0
M  V30 60762 C 5637.05 2.53509 -2.57712 0
M  V30 60763 O 5636.77 2.03539 -3.87948 0
M  V30 60764 C 5638.27 3.45915 -2.77232 0
M  V30 60765 H 5635.49 0.413611 -0.528362 0
M  V30 60766 H 5638.03 0.693875 -1.92368 0
M  V30 60767 H 5636.19 3.15607 -2.24658 0
M  V30 60768 H 5636.6 2.8046 -4.43218 0
M  V30 60769 H 5638.08 4.25158 -3.52058 0
M  V30 60770 H 5638.55 3.98552 -1.84534 0
M  V30 60771 H 5639.16 2.89644 -3.11426 0
M  V30 60772 N 5637.47 1.34758 0.817188 0
M  V30 60773 C 5638.72 1.27626 1.57605 0
M  V30 60774 C 5639.05 -0.151949 1.93605 0
M  V30 60775 O 5638.33 -1.09875 1.60492 0
M  V30 60776 C 5638.61 2.17261 2.87175 0
M  V30 60777 C 5638.46 3.68647 2.5772 0
M  V30 60778 C 5639.78 2.0622 3.88795 0
M  V30 60779 H 5636.9 0.464953 0.571829 0
M  V30 60780 H 5639.54 1.65063 0.94097 0
M  V30 60781 H 5637.69 1.85464 3.41373 0
M  V30 60782 H 5639.37 4.10837 2.09788 0
M  V30 60783 H 5637.61 3.89452 1.91075 0
M  V30 60784 H 5638.28 4.26738 3.50141 0
M  V30 60785 H 5640.76 2.34149 3.43967 0
M  V30 60786 H 5639.63 2.71153 4.7725 0
M  V30 60787 H 5639.89 1.0409 4.29672 0
M  V30 60788 N 5638.95 -1.03808 1.18582 0
M  V30 60789 C 5640.36 -1.58506 0.986551 0
M  V30 60790 C 5640.71 -1.90657 -0.463069 0
M  V30 60791 O 5639.84 -1.69852 -1.34087 0
M  V30 60792 C 5640.43 -2.87994 1.78451 0
M  V30 60793 C 5638.99 -3.39299 1.62952 0
M  V30 60794 C 5638.14 -2.12851 1.77735 0
M  V30 60795 H 5641.09 -0.864482 1.33088 0
M  V30 60796 H 5641.11 -3.58498 1.27513 0
M  V30 60797 H 5640.62 -2.64562 2.83952 0
M  V30 60798 H 5638.72 -3.67737 0.599993 0
M  V30 60799 H 5638.84 -4.12951 2.42917 0
M  V30 60800 H 5637.2 -2.24281 1.20706 0
M  V30 60801 H 5637.98 -1.91872 2.84675 0
M  V30 60802 N 5640.43 -0.988266 -1.22764 0
M  V30 60803 C 5641.34 -0.543487 -2.28218 0
M  V30 60804 C 5642.36 0.405503 -1.69209 0
M  V30 60805 O 5643.53 0.273481 -1.99535 0
M  V30 60806 C 5640.6 0.139373 -3.4642 0
M  V30 60807 C 5639.66 -0.852001 -4.20761 0
M  V30 60808 C 5638.89 -0.201633 -5.33319 0
M  V30 60809 O 5639.11 1.00553 -5.61467 0
M  V30 60810 O 5638.05 -0.904165 -5.9507 0
M  V30 60811 H 5641.87 -1.42068 -2.68422 0
M  V30 60812 H 5639.46 -0.756284 -1.28844 0
M  V30 60813 H 5641.34 0.522079 -4.18153 0
M  V30 60814 H 5640.02 0.991206 -3.08151 0
M  V30 60815 H 5638.92 -1.28555 -3.51318 0
M  V30 60816 H 5640.26 -1.67289 -4.62899 0
M  V30 60817 N 5641.91 1.38015 -0.760888 0
M  V30 60818 C 5643.13 2.04756 -0.33011 0
M  V30 60819 C 5643.56 1.57013 1.03579 0
M  V30 60820 O 5642.92 0.725408 1.66155 0
M  V30 60821 C 5642.96 3.58695 -0.370208 0
M  V30 60822 O 5642.07 4.0751 0.633218 0
M  V30 60823 H 5641.41 0.648018 -0.144804 0
M  V30 60824 H 5643.94 1.76546 -1.03405 0
M  V30 60825 H 5643.95 4.07387 -0.223658 0
M  V30 60826 H 5642.62 3.92801 -1.36674 0
M  V30 60827 H 5641.2 3.70167 0.45068 0
M  V30 60828 N 5643.39 0.510546 1.49101 0
M  V30 60829 C 5644.32 -0.299617 2.27233 0
M  V30 60830 C 5645.33 -0.922055 1.34171 0
M  V30 60831 O 5646.52 -0.80378 1.59379 0
M  V30 60832 C 5643.62 -1.43767 3.06894 0
M  V30 60833 C 5642.79 -0.920777 4.27598 0
M  V30 60834 C 5641.85 -1.93759 4.89228 0
M  V30 60835 O 5640.88 -1.50231 5.49017 0
M  V30 60836 N 5642.08 -3.26863 4.7973 0
M  V30 60837 H 5644.84 0.370385 2.97402 0
M  V30 60838 H 5642.41 0.343672 1.5821 0
M  V30 60839 H 5644.4 -2.11565 3.44996 0
M  V30 60840 H 5642.97 -2.01167 2.39271 0
M  V30 60841 H 5642.19 -0.0673973 3.94142 0
M  V30 60842 H 5643.48 -0.55399 5.05775 0
M  V30 60843 H 5642.87 -3.64909 4.32271 0
M  V30 60844 H 5641.43 -3.90348 5.21988 0
M  V30 60845 N 5644.86 -1.55687 0.244795 0
M  V30 60846 C 5645.79 -2.24274 -0.649871 0
M  V30 60847 C 5646.77 -1.2223 -1.18296 0
M  V30 60848 O 5647.96 -1.50877 -1.22269 0
M  V30 60849 C 5645.09 -2.94059 -1.84787 0
M  V30 60850 C 5644.04 -4.02774 -1.44765 0
M  V30 60851 C 5643.37 -4.59974 -2.72631 0
M  V30 60852 C 5644.67 -5.18604 -0.620288 0
M  V30 60853 H 5646.36 -2.99298 -0.0779601 0
M  V30 60854 H 5643.91 -1.43955 -0.0360563 0
M  V30 60855 H 5645.86 -3.40741 -2.47939 0
M  V30 60856 H 5644.59 -2.1652 -2.44513 0
M  V30 60857 H 5643.25 -3.56859 -0.839484 0
M  V30 60858 H 5642.89 -3.79138 -3.3055 0
M  V30 60859 H 5642.59 -5.33361 -2.46577 0
M  V30 60860 H 5644.12 -5.09387 -3.36685 0
M  V30 60861 H 5645.53 -5.61523 -1.15606 0
M  V30 60862 H 5643.93 -5.98366 -0.455887 0
M  V30 60863 H 5645 -4.83502 0.367968 0
M  V30 60864 N 5646.34 0.0283435 -1.57575 0
M  V30 60865 C 5647.57 0.730763 -1.93565 0
M  V30 60866 C 5647.99 1.68854 -0.844615 0
M  V30 60867 O 5647.34 1.81621 0.178907 0
M  V30 60868 C 5647.39 1.4872 -3.29492 0
M  V30 60869 O 5647.11 0.567864 -4.34404 0
M  V30 60870 C 5648.62 2.28671 -3.79769 0
M  V30 60871 H 5645.84 0.205324 -0.638814 0
M  V30 60872 H 5648.38 -0.0143447 -2.04495 0
M  V30 60873 H 5646.53 2.18418 -3.19957 0
M  V30 60874 H 5646.95 1.09843 -5.12869 0
M  V30 60875 H 5648.42 2.7714 -4.77386 0
M  V30 60876 H 5648.9 3.10122 -3.11 0
M  V30 60877 H 5649.51 1.64046 -3.92389 0
M  V30 60878 N 5647.82 1.54706 0.300627 0
M  V30 60879 C 5649.07 1.74263 1.03732 0
M  V30 60880 C 5649.4 0.527096 1.8691 0
M  V30 60881 O 5648.67 -0.475795 1.88591 0
M  V30 60882 C 5648.96 3.03182 1.943 0
M  V30 60883 C 5648.81 4.35035 1.14299 0
M  V30 60884 C 5650.13 3.27972 2.93466 0
M  V30 60885 H 5647.25 0.634045 0.375708 0
M  V30 60886 H 5649.89 1.87422 0.311947 0
M  V30 60887 H 5648.04 2.92095 2.5615 0
M  V30 60888 H 5649.71 4.58042 0.547327 0
M  V30 60889 H 5647.96 4.31504 0.445718 0
M  V30 60890 H 5648.63 5.21509 1.80922 0
M  V30 60891 H 5651.1 3.38672 2.41745 0
M  V30 60892 H 5649.98 4.19493 3.54001 0
M  V30 60893 H 5650.24 2.46286 3.67145 0
M  V30 60894 N 5649.3 -0.563837 1.47169 0
M  V30 60895 C 5650.52 -1.3517 1.57301 0
M  V30 60896 C 5650.95 -1.86794 0.221301 0
M  V30 60897 O 5650.31 -1.62609 -0.801752 0
M  V30 60898 C 5650.35 -2.50216 2.59662 0
M  V30 60899 O 5649.46 -3.52243 2.14474 0
M  V30 60900 H 5648.8 -0.401777 0.528651 0
M  V30 60901 H 5651.33 -0.682069 1.92896 0
M  V30 60902 H 5651.34 -2.96876 2.79872 0
M  V30 60903 H 5650.01 -2.11997 3.57813 0
M  V30 60904 H 5648.59 -3.11933 2.04334 0
M  V30 60905 N 5650.78 -1.3519 -0.81003 0
M  V30 60906 C 5651.71 -1.2368 -1.92966 0
M  V30 60907 C 5652.72 -0.160876 -1.62003 0
M  V30 60908 O 5653.91 -0.413854 -1.73636 0
M  V30 60909 C 5651.01 -0.881002 -3.27248 0
M  V30 60910 C 5650.18 -2.05458 -3.86142 0
M  V30 60911 C 5649.24 -1.67512 -4.98825 0
M  V30 60912 O 5648.27 -2.3934 -5.16435 0
M  V30 60913 N 5649.47 -0.596742 -5.77425 0
M  V30 60914 H 5652.24 -2.2014 -2.03368 0
M  V30 60915 H 5649.8 -1.28314 -0.987277 0
M  V30 60916 H 5651.79 -0.608697 -4.00096 0
M  V30 60917 H 5650.36 -0.00618916 -3.12599 0
M  V30 60918 H 5649.58 -2.49088 -3.0553 0
M  V30 60919 H 5650.87 -2.83913 -4.22221 0
M  V30 60920 H 5650.26 0.000113719 -5.657 0
M  V30 60921 H 5648.82 -0.384208 -6.50667 0
M  V30 60922 N 5652.25 1.03178 -1.19131 0
M  V30 60923 C 5653.5 1.76529 -0.992156 0
M  V30 60924 C 5653.83 1.88551 0.477362 0
M  V30 60925 O 5653.08 1.3968 1.37069 0
M  V30 60926 C 5653.38 3.19446 -1.60278 0
M  V30 60927 C 5653.05 3.27438 -3.09992 0
M  V30 60928 C 5651.71 3.29326 -3.50853 0
M  V30 60929 C 5654.06 3.26818 -4.06004 0
M  V30 60930 C 5651.39 3.28248 -4.86282 0
M  V30 60931 C 5653.74 3.2728 -5.4136 0
M  V30 60932 C 5652.41 3.27465 -5.81655 0
M  V30 60933 H 5651.68 0.645966 -0.363055 0
M  V30 60934 H 5654.32 1.21121 -1.4833 0
M  V30 60935 H 5652.63 3.77914 -1.03386 0
M  V30 60936 H 5654.33 3.74864 -1.42401 0
M  V30 60937 H 5650.92 3.26694 -2.77433 0
M  V30 60938 H 5655.1 3.24543 -3.75481 0
M  V30 60939 H 5650.36 3.26713 -5.16787 0
M  V30 60940 H 5654.53 3.25751 -6.15515 0
M  V30 60941 H 5652.16 3.26383 -6.8657 0
M  V30 60942 N 5653.73 0.994763 1.22238 0
M  V30 60943 C 5654.96 0.690165 1.9505 0
M  V30 60944 C 5655.38 -0.745482 1.73459 0
M  V30 60945 O 5654.73 -1.50325 1.03482 0
M  V30 60946 C 5654.78 0.98892 3.47711 0
M  V30 60947 O 5654.5 2.36816 3.68578 0
M  V30 60948 C 5656.01 0.702286 4.37702 0
M  V30 60949 H 5653.23 0.255164 0.62059 0
M  V30 60950 H 5655.77 1.33004 1.55339 0
M  V30 60951 H 5653.92 0.39482 3.85383 0
M  V30 60952 H 5654.34 2.46886 4.62761 0
M  V30 60953 H 5655.81 0.96158 5.4356 0
M  V30 60954 H 5656.29 -0.363713 4.37691 0
M  V30 60955 H 5656.9 1.27752 4.05659 0
M  V30 60956 N 5655.21 -1.3761 0.768196 0
M  V30 60957 C 5656.14 -2.32909 0.165993 0
M  V30 60958 C 5657.12 -1.55603 -0.687151 0
M  V30 60959 O 5658.31 -1.83856 -0.625342 0
M  V30 60960 C 5655.44 -3.39825 -0.71668 0
M  V30 60961 C 5654.39 -4.27986 0.0348768 0
M  V30 60962 C 5653.72 -5.25883 -0.967008 0
M  V30 60963 C 5655.02 -5.08048 1.21182 0
M  V30 60964 H 5656.71 -2.83521 0.962105 0
M  V30 60965 H 5654.26 -1.36316 0.464099 0
M  V30 60966 H 5656.21 -4.05468 -1.14775 0
M  V30 60967 H 5654.93 -2.87731 -1.54527 0
M  V30 60968 H 5653.59 -3.63868 0.446685 0
M  V30 60969 H 5653.24 -4.7007 -1.79006 0
M  V30 60970 H 5652.94 -5.85728 -0.468707 0
M  V30 60971 H 5654.46 -5.94402 -1.39709 0
M  V30 60972 H 5655.88 -5.6685 0.857573 0
M  V30 60973 H 5654.28 -5.772 1.64196 0
M  V30 60974 H 5655.35 -4.40929 2.01765 0
M  V30 60975 N 5656.69 -0.518446 -1.48828 0
M  V30 60976 C 5658.1 -0.0750429 -1.86549 0
M  V30 60977 C 5658.45 1.34424 -1.42914 0
M  V30 60978 O 5657.58 2.00478 -0.814718 0
M  V30 60979 C 5658.17 -0.129408 -3.38553 0
M  V30 60980 C 5656.73 0.258739 -3.7551 0
M  V30 60981 C 5655.88 -0.49428 -2.72859 0
M  V30 60982 H 5658.83 -0.730316 -1.40897 0
M  V30 60983 H 5658.85 0.661713 -3.74702 0
M  V30 60984 H 5658.36 -1.1625 -3.70281 0
M  V30 60985 H 5656.46 1.2944 -3.49394 0
M  V30 60986 H 5656.57 -0.0728453 -4.79045 0
M  V30 60987 H 5654.94 0.0580533 -2.54634 0
M  V30 60988 H 5655.72 -1.52778 -3.07431 0
M  V30 60989 N 5658.17 1.55555 -0.253048 0
M  V30 60990 C 5659.11 2.21636 0.643901 0
M  V30 60991 C 5660.08 1.1823 1.16666 0
M  V30 60992 O 5661.27 1.46699 1.22001 0
M  V30 60993 C 5658.41 2.92436 1.83236 0
M  V30 60994 C 5657.52 4.10511 1.34555 0
M  V30 60995 C 5656.66 4.6901 2.49405 0
M  V30 60996 C 5655.7 5.79322 1.97616 0
M  V30 60997 N 5654.83 6.31978 3.05856 0
M  V30 60998 H 5659.67 2.97909 0.0737131 0
M  V30 60999 H 5657.21 1.47079 0.0246211 0
M  V30 61000 H 5659.17 3.31687 2.53061 0
M  V30 61001 H 5657.8 2.18626 2.37492 0
M  V30 61002 H 5656.85 3.76531 0.541135 0
M  V30 61003 H 5658.16 4.90128 0.926047 0
M  V30 61004 H 5657.32 5.10867 3.27261 0
M  V30 61005 H 5656.05 3.88622 2.94659 0
M  V30 61006 H 5655.06 5.36937 1.18232 0
M  V30 61007 H 5656.28 6.61565 1.53324 0
M  V30 61008 H 5654.23 5.54493 3.50534 0
M  V30 61009 H 5654.15 7.06806 2.68256 0
M  V30 61010 H 5655.42 6.78494 3.83753 0
M  V30 61011 N 5659.64 -0.0199865 1.57587 0
M  V30 61012 C 5660.87 -0.724173 1.94346 0
M  V30 61013 C 5661.29 -1.67609 0.853747 0
M  V30 61014 O 5660.65 -1.80304 -0.18981 0
M  V30 61015 C 5660.7 -1.44955 3.30182 0
M  V30 61016 O 5659.8 -2.56315 3.23073 0
M  V30 61017 H 5659.15 -0.19412 0.634991 0
M  V30 61018 H 5661.68 0.0272475 2.04582 0
M  V30 61019 H 5661.69 -1.81746 3.65284 0
M  V30 61020 H 5660.36 -0.751466 4.09055 0
M  V30 61021 H 5658.94 -2.22 2.99617 0
M  V30 61022 N 5661.12 -1.54863 -0.292418 0
M  V30 61023 C 5662.37 -1.7481 -1.02807 0
M  V30 61024 C 5662.7 -0.537001 -1.86628 0
M  V30 61025 O 5661.98 0.465787 -1.8884 0
M  V30 61026 C 5662.26 -3.04208 -1.92689 0
M  V30 61027 C 5662.11 -4.35635 -1.11991 0
M  V30 61028 C 5663.43 -3.29524 -2.91723 0
M  V30 61029 H 5660.55 -0.636028 -0.37234 0
M  V30 61030 H 5663.19 -1.87584 -0.302003 0
M  V30 61031 H 5661.34 -2.93449 -2.54598 0
M  V30 61032 H 5663.02 -4.58325 -0.523029 0
M  V30 61033 H 5661.26 -4.31734 -0.422828 0
M  V30 61034 H 5661.93 -5.22461 -1.78154 0
M  V30 61035 H 5664.41 -3.39949 -2.39945 0
M  V30 61036 H 5663.28 -4.21365 -3.51771 0
M  V30 61037 H 5663.54 -2.48229 -3.65834 0
M  V30 61038 N 5662.6 0.556024 -1.47466 0
M  V30 61039 C 5663.83 1.34334 -1.58016 0
M  V30 61040 C 5664.25 1.86674 -0.231204 0
M  V30 61041 O 5663.61 1.63032 0.793117 0
M  V30 61042 C 5663.66 2.48835 -2.60986 0
M  V30 61043 O 5662.76 3.511 -2.16339 0
M  V30 61044 H 5662.1 0.398967 -0.530774 0
M  V30 61045 H 5664.63 0.67183 -1.93255 0
M  V30 61046 H 5664.64 2.95388 -2.81443 0
M  V30 61047 H 5663.32 2.10097 -3.58932 0
M  V30 61048 H 5661.89 3.10845 -2.05986 0
M  V30 61049 N 5664.08 1.35617 0.802849 0
M  V30 61050 C 5665.36 1.1966 1.54728 0
M  V30 61051 C 5665.74 -0.222753 2.09921 0
M  V30 61052 O 5665.08 -1.22674 1.92778 0
M  V30 61053 C 5665.29 2.2677 2.65285 0
M  V30 61054 C 5666.64 2.62765 3.33526 0
M  V30 61055 O 5667.67 2.25712 2.75559 0
M  V30 61056 O 5666.53 3.26491 4.38253 0
M  V30 61057 H 5663.62 0.465103 0.683819 0
M  V30 61058 H 5666.17 1.4731 0.842489 0
M  V30 61059 H 5664.94 3.21953 2.224 0
M  V30 61060 H 5664.56 2.00411 3.43397 0
M  V30 61061 N 5665.56 -1.02544 1.19676 0
M  V30 61062 C 5666.81 -1.75653 0.999525 0
M  V30 61063 C 5667.13 -1.8924 -0.47045 0
M  V30 61064 O 5666.4 -1.42848 -1.34057 0
M  V30 61065 H 5664.98 -0.650719 0.366844 0
M  V30 61066 H 5667.64 -1.23678 1.50631 0
M  V30 61067 H 5666.73 -2.76348 1.45045 0
M  V30 61068 N 5667.04 -1.00123 -1.21709 0
M  V30 61069 C 5668.28 -0.677197 -1.89992 0
M  V30 61070 C 5668.6 0.795086 -1.78711 0
M  V30 61071 O 5669.8 1.23105 -2.41986 0
M  V30 61072 C 5668.26 -1.16077 -3.40667 0
M  V30 61073 C 5667.87 -2.65886 -3.60567 0
M  V30 61074 C 5669.61 -0.911448 -4.146 0
M  V30 61075 C 5667.52 -3.07803 -5.04986 0
M  V30 61076 H 5666.45 -0.249597 -0.711489 0
M  V30 61077 H 5669.1 -1.2119 -1.37787 0
M  V30 61078 H 5667.48 -0.554143 -3.92104 0
M  V30 61079 H 5668.66 -3.31966 -3.19586 0
M  V30 61080 H 5666.97 -2.88791 -2.99981 0
M  V30 61081 H 5669.57 -1.20022 -5.21055 0
M  V30 61082 H 5669.91 0.152349 -4.16021 0
M  V30 61083 H 5670.44 -1.48068 -3.69216 0
M  V30 61084 H 5667.18 -4.13394 -5.0871 0
M  V30 61085 H 5666.7 -2.46433 -5.46837 0
M  V30 61086 H 5668.38 -2.99572 -5.73468 0
M  V30 61087 N 5668.51 1.37201 -0.775483 0
M  V30 61088 C 5669.48 2.28565 -0.170487 0
M  V30 61089 C 5670.48 1.48197 0.624033 0
M  V30 61090 O 5671.67 1.68365 0.447073 0
M  V30 61091 C 5668.8 3.32189 0.765712 0
M  V30 61092 H 5669.99 2.83577 -0.975924 0
M  V30 61093 H 5667.54 1.4653 -0.543946 0
M  V30 61094 H 5668.28 2.82308 1.59601 0
M  V30 61095 H 5668.06 3.91599 0.198114 0
M  V30 61096 H 5669.55 4.00454 1.18432 0
M  V30 61097 N 5669.99 0.526331 1.48551 0
M  V30 61098 C 5670.95 -0.227659 2.28067 0
M  V30 61099 C 5671.95 -0.871099 1.35161 0
M  V30 61100 O 5673.14 -0.731713 1.58087 0
M  V30 61101 C 5670.28 -1.32907 3.13924 0
M  V30 61102 H 5671.47 0.470417 2.96188 0
M  V30 61103 H 5669.02 0.282143 1.53732 0
M  V30 61104 H 5669.76 -2.06051 2.50426 0
M  V30 61105 H 5669.54 -0.872856 3.82261 0
M  V30 61106 H 5671.03 -1.85951 3.73915 0
M  V30 61107 N 5671.47 -1.55419 0.261294 0
M  V30 61108 C 5672.4 -2.24951 -0.626047 0
M  V30 61109 C 5673.38 -1.23478 -1.16992 0
M  V30 61110 O 5674.57 -1.52166 -1.20662 0
M  V30 61111 C 5671.7 -2.96003 -1.81658 0
M  V30 61112 C 5670.65 -4.04287 -1.40485 0
M  V30 61113 C 5669.98 -4.6284 -2.67737 0
M  V30 61114 C 5671.28 -5.19232 -0.565248 0
M  V30 61115 H 5672.97 -2.99364 -0.0462112 0
M  V30 61116 H 5670.52 -1.43985 -0.020786 0
M  V30 61117 H 5672.47 -3.43351 -2.44311 0
M  V30 61118 H 5671.19 -2.19101 -2.42203 0
M  V30 61119 H 5669.85 -3.57729 -0.801587 0
M  V30 61120 H 5669.5 -3.82622 -3.2651 0
M  V30 61121 H 5669.2 -5.35946 -2.40906 0
M  V30 61122 H 5670.72 -5.1293 -3.31263 0
M  V30 61123 H 5672.14 -5.62718 -1.09643 0
M  V30 61124 H 5670.53 -5.98816 -0.392396 0
M  V30 61125 H 5671.6 -4.83084 0.419229 0
M  V30 61126 N 5672.95 0.011629 -1.57596 0
M  V30 61127 C 5674.22 0.73528 -1.81254 0
M  V30 61128 C 5674.6 1.92631 -0.863514 0
M  V30 61129 O 5673.95 2.28321 0.0904225 0
M  V30 61130 C 5674.16 1.15195 -3.29441 0
M  V30 61131 C 5675.51 1.56064 -3.94879 0
M  V30 61132 O 5676.53 1.24606 -3.33694 0
M  V30 61133 O 5675.39 2.14517 -5.02638 0
M  V30 61134 H 5672.49 0.357018 -0.745967 0
M  V30 61135 H 5675.03 -0.0129329 -1.69695 0
M  V30 61136 H 5673.81 0.302481 -3.90129 0
M  V30 61137 H 5673.43 1.95963 -3.45954 0
M  V30 61138 N 5674.43 1.55016 0.284201 0
M  V30 61139 C 5675.36 1.90132 1.35543 0
M  V30 61140 C 5676.34 0.761967 1.52079 0
M  V30 61141 O 5677.52 1.01915 1.65309 0
M  V30 61142 C 5674.65 2.16341 2.71687 0
M  V30 61143 C 5673.61 3.32175 2.69896 0
M  V30 61144 C 5672.93 3.43839 4.09486 0
M  V30 61145 C 5674.23 4.68858 2.30151 0
M  V30 61146 H 5675.93 2.79856 1.06401 0
M  V30 61147 H 5673.47 1.34651 0.510404 0
M  V30 61148 H 5675.42 2.39494 3.46728 0
M  V30 61149 H 5674.15 1.23406 3.02388 0
M  V30 61150 H 5672.81 3.08972 1.97311 0
M  V30 61151 H 5672.46 2.4839 4.37392 0
M  V30 61152 H 5672.16 4.21712 4.09185 0
M  V30 61153 H 5673.68 3.69271 4.86283 0
M  V30 61154 H 5675.09 4.91629 2.94913 0
M  V30 61155 H 5673.49 5.49566 2.41033 0
M  V30 61156 H 5674.56 4.68437 1.25278 0
M  V30 61157 N 5675.9 -0.548196 1.47758 0
M  V30 61158 C 5676.85 -1.67547 1.61341 0
M  V30 61159 C 5677.85 -1.62446 0.480392 0
M  V30 61160 O 5679.05 -1.67522 0.658503 0
M  V30 61161 H 5675.43 -0.554552 0.507914 0
M  V30 61162 H 5677.4 -1.5323 2.56053 0
M  V30 61163 C 5676.15 -3.05878 1.65331 0
M  V30 61164 H 5675.47 -3.10489 2.51867 0
M  V30 61165 H 5676.91 -3.84418 1.78882 0
M  V30 61166 C 5675.37 -3.34654 0.388356 0
M  V30 61167 O 5675.9 -3.98492 -0.506676 0
M  V30 61168 N 5674.11 -2.89384 0.265615 0
M  V30 61169 H 5673.65 -2.37612 0.994903 0
M  V30 61170 H 5673.61 -3.09008 -0.57978 0
M  V30 61171 N 5677.38 -1.36041 -0.795646 0
M  V30 61172 C 5678.35 -1.29716 -1.88961 0
M  V30 61173 C 5679.35 -0.206198 -1.59472 0
M  V30 61174 O 5680.54 -0.460593 -1.68001 0
M  V30 61175 C 5677.67 -1.00934 -3.25615 0
M  V30 61176 H 5678.86 -2.27 -1.95987 0
M  V30 61177 H 5676.41 -1.20724 -0.992748 0
M  V30 61178 H 5677.15 -0.0408167 -3.24274 0
M  V30 61179 H 5676.93 -1.79875 -3.48407 0
M  V30 61180 H 5678.42 -0.990969 -4.05672 0
M  V30 61181 N 5678.86 1.01908 -1.20218 0
M  V30 61182 C 5680.11 1.75727 -1.01232 0
M  V30 61183 C 5680.44 1.88801 0.454744 0
M  V30 61184 O 5679.71 1.41201 1.33763 0
M  V30 61185 C 5680 3.17789 -1.69359 0
M  V30 61186 C 5679.85 3.12525 -3.23494 0
M  V30 61187 C 5681.17 4.16404 -1.42463 0
M  V30 61188 H 5678.29 0.637876 -0.369166 0
M  V30 61189 H 5680.93 1.18902 -1.48197 0
M  V30 61190 H 5679.08 3.66306 -1.29429 0
M  V30 61191 H 5680.75 2.7183 -3.72701 0
M  V30 61192 H 5679 2.49985 -3.54528 0
M  V30 61193 H 5679.67 4.12936 -3.66316 0
M  V30 61194 H 5682.14 3.7653 -1.77099 0
M  V30 61195 H 5681.02 5.13976 -1.92666 0
M  V30 61196 H 5681.28 4.40699 -0.351729 0
M  V30 61197 N 5680.34 1.00767 1.21176 0
M  V30 61198 C 5681.3 0.575261 2.21863 0
M  V30 61199 C 5682.3 -0.349816 1.56949 0
M  V30 61200 O 5683.49 -0.139734 1.73639 0
M  V30 61201 C 5680.62 -0.161189 3.40519 0
M  V30 61202 H 5681.82 1.46587 2.61634 0
M  V30 61203 H 5679.37 0.796477 1.34484 0
M  V30 61204 H 5680.1 -1.06712 3.0624 0
M  V30 61205 H 5679.89 0.503237 3.88857 0
M  V30 61206 H 5681.38 -0.451381 4.15153 0
M  V30 61207 N 5681.82 -1.36787 0.782749 0
M  V30 61208 C 5682.76 -2.32018 0.16444 0
M  V30 61209 C 5683.76 -1.55479 -0.672516 0
M  V30 61210 O 5684.96 -1.70792 -0.568346 0
M  V30 61211 H 5681.34 -0.751213 0.0343961 0
M  V30 61212 H 5683.31 -2.81738 0.983176 0
M  V30 61213 C 5682.06 -3.40752 -0.691607 0
M  V30 61214 H 5681.38 -3.99759 -0.0569479 0
M  V30 61215 H 5682.82 -4.09723 -1.09102 0
M  V30 61216 C 5681.28 -2.81759 -1.84698 0
M  V30 61217 O 5681.81 -2.73388 -2.94316 0
M  V30 61218 N 5680.02 -2.39144 -1.65102 0
M  V30 61219 H 5679.56 -2.46152 -0.759401 0
M  V30 61220 H 5679.52 -2.00019 -2.42569 0
M  V30 61221 N 5683.29 -0.534202 -1.4827 0
M  V30 61222 C 5684.24 0.226255 -2.29688 0
M  V30 61223 C 5685.21 0.929888 -1.37631 0
M  V30 61224 O 5686.4 0.93009 -1.66595 0
M  V30 61225 C 5683.54 1.26461 -3.21094 0
M  V30 61226 C 5682.65 0.569392 -4.28231 0
M  V30 61227 C 5681.78 1.59104 -5.06813 0
M  V30 61228 C 5680.82 0.879521 -6.05748 0
M  V30 61229 N 5679.96 1.84692 -6.77372 0
M  V30 61230 H 5684.8 -0.474214 -2.94203 0
M  V30 61231 H 5682.34 -0.245694 -1.45034 0
M  V30 61232 H 5684.3 1.87898 -3.72492 0
M  V30 61233 H 5682.93 1.93341 -2.58494 0
M  V30 61234 H 5681.98 -0.159006 -3.80068 0
M  V30 61235 H 5683.29 0.010915 -4.98799 0
M  V30 61236 H 5682.44 2.27958 -5.62246 0
M  V30 61237 H 5681.18 2.18342 -4.36094 0
M  V30 61238 H 5680.19 0.17694 -5.49515 0
M  V30 61239 H 5681.41 0.2932 -6.78467 0
M  V30 61240 H 5679.36 2.42829 -6.09401 0
M  V30 61241 H 5679.28 1.33999 -7.4403 0
M  V30 61242 H 5680.54 2.5273 -7.37392 0
M  V30 61243 N 5684.77 1.55278 -0.269533 0
M  V30 61244 C 5686.02 1.9865 0.349452 0
M  V30 61245 C 5686.33 1.1613 1.57395 0
M  V30 61246 O 5687.54 1.4962 2.26553 0
M  V30 61247 C 5686 3.5355 0.6731 0
M  V30 61248 C 5685.6 4.44839 -0.531276 0
M  V30 61249 C 5687.35 4.05524 1.25502 0
M  V30 61250 C 5685.26 5.91118 -0.182525 0
M  V30 61251 H 5684.19 0.741935 0.134344 0
M  V30 61252 H 5686.84 1.79663 -0.373309 0
M  V30 61253 H 5685.22 3.68317 1.45461 0
M  V30 61254 H 5686.39 4.41839 -1.30825 0
M  V30 61255 H 5684.71 4.03469 -1.02966 0
M  V30 61256 H 5687.3 5.12353 1.52966 0
M  V30 61257 H 5687.65 3.54223 2.18705 0
M  V30 61258 H 5688.18 3.94173 0.53592 0
M  V30 61259 H 5684.92 6.46504 -1.08229 0
M  V30 61260 H 5684.44 5.97201 0.557798 0
M  V30 61261 H 5686.12 6.46601 0.227257 0
M  V30 61262 N 5686.25 -0.00327115 1.576 0
M  V30 61263 C 5687.21 -0.980555 2.07166 0
M  V30 61264 C 5688.21 -1.27451 0.980447 0
M  V30 61265 O 5689.4 -1.22024 1.24321 0
M  V30 61266 C 5686.54 -2.30638 2.51036 0
M  V30 61267 H 5687.73 -0.551879 2.94778 0
M  V30 61268 H 5685.28 -0.250674 1.54277 0
M  V30 61269 H 5686.02 -2.78201 1.66657 0
M  V30 61270 H 5685.8 -2.10623 3.30727 0
M  V30 61271 H 5687.29 -3.00751 2.89721 0
M  V30 61272 N 5687.73 -1.55165 -0.275976 0
M  V30 61273 C 5689.01 -1.66342 -1.02907 0
M  V30 61274 C 5689.39 -0.527948 -2.04392 0
M  V30 61275 O 5688.73 0.472359 -2.23564 0
M  V30 61276 C 5688.94 -3.05433 -1.68855 0
M  V30 61277 C 5690.29 -3.63083 -2.20127 0
M  V30 61278 O 5691.32 -3.08046 -1.78846 0
M  V30 61279 O 5690.17 -4.59502 -2.95837 0
M  V30 61280 H 5687.27 -0.675462 -0.477158 0
M  V30 61281 H 5689.81 -1.67505 -0.27207 0
M  V30 61282 H 5688.59 -3.79518 -0.952992 0
M  V30 61283 H 5688.21 -3.08156 -2.51249 0
M  V30 61284 N 5689.21 0.540352 -1.48047 0
M  V30 61285 C 5690.45 1.29672 -1.55536 0
M  V30 61286 C 5690.78 1.93197 -0.224792 0
M  V30 61287 O 5690.04 1.79311 0.783965 0
M  V30 61288 C 5690.34 2.41508 -2.63455 0
M  V30 61289 C 5690 1.95705 -4.06215 0
M  V30 61290 C 5688.66 1.8293 -4.45073 0
M  V30 61291 C 5691.02 1.60962 -4.95722 0
M  V30 61292 C 5688.34 1.33733 -5.71255 0
M  V30 61293 C 5690.7 1.13231 -6.22384 0
M  V30 61294 C 5689.36 0.990654 -6.60108 0
M  V30 61295 H 5688.63 0.474505 -0.569145 0
M  V30 61296 H 5691.28 0.604145 -1.8172 0
M  V30 61297 H 5689.58 3.16393 -2.31091 0
M  V30 61298 H 5691.28 2.9966 -2.66467 0
M  V30 61299 H 5687.87 2.06595 -3.75521 0
M  V30 61300 H 5692.05 1.69697 -4.66387 0
M  V30 61301 H 5687.31 1.21444 -5.99217 0
M  V30 61302 H 5691.48 0.854158 -6.91142 0
M  V30 61303 H 5689.11 0.607231 -7.57771 0
M  V30 61304 N 5690.69 1.36461 0.78842 0
M  V30 61305 C 5691.6 1.33024 1.9324 0
M  V30 61306 C 5692.61 0.232273 1.72443 0
M  V30 61307 O 5693.79 0.464811 1.95963 0
M  V30 61308 C 5690.85 1.11981 3.28117 0
M  V30 61309 C 5689.91 2.31263 3.61685 0
M  V30 61310 C 5689.15 2.11214 4.90127 0
M  V30 61311 O 5689.37 1.08783 5.59931 0
M  V30 61312 O 5688.3 2.99015 5.22373 0
M  V30 61313 H 5692.13 2.2934 1.9909 0
M  V30 61314 H 5689.71 1.17019 0.928814 0
M  V30 61315 H 5691.6 1.02168 4.08827 0
M  V30 61316 H 5690.27 0.187284 3.23158 0
M  V30 61317 H 5689.18 2.46645 2.81278 0
M  V30 61318 H 5690.51 3.23025 3.7137 0
M  V30 61319 N 5692.16 -1.01269 1.20757 0
M  V30 61320 C 5693.09 -2.11759 0.983879 0
M  V30 61321 C 5694.07 -1.6987 -0.0885038 0
M  V30 61322 O 5695.26 -1.94075 0.0697922 0
M  V30 61323 C 5692.39 -3.43086 0.539408 0
M  V30 61324 C 5691.34 -3.98734 1.55548 0
M  V30 61325 C 5690.67 -5.25874 0.967507 0
M  V30 61326 C 5691.97 -4.31678 2.94027 0
M  V30 61327 H 5693.66 -2.30731 1.90798 0
M  V30 61328 H 5691.21 -1.10881 0.918773 0
M  V30 61329 H 5693.16 -4.19771 0.370127 0
M  V30 61330 H 5691.89 -3.23884 -0.420321 0
M  V30 61331 H 5690.55 -3.2416 1.71219 0
M  V30 61332 H 5690.19 -5.03 -0.000271478 0
M  V30 61333 H 5689.89 -5.64071 1.64614 0
M  V30 61334 H 5691.42 -6.05212 0.809379 0
M  V30 61335 H 5692.83 -4.99236 2.81844 0
M  V30 61336 H 5691.23 -4.80998 3.58832 0
M  V30 61337 H 5692.3 -3.40278 3.45454 0
M  V30 61338 N 5693.64 -1.01408 -1.2064 0
M  V30 61339 C 5695.05 -0.733921 -1.7167 0
M  V30 61340 C 5695.4 0.74774 -1.81393 0
M  V30 61341 O 5694.53 1.58367 -1.47475 0
M  V30 61342 C 5695.12 -1.3256 -3.11791 0
M  V30 61343 C 5693.68 -1.09435 -3.6014 0
M  V30 61344 C 5692.83 -1.43283 -2.37414 0
M  V30 61345 H 5695.78 -1.18387 -1.0569 0
M  V30 61346 H 5695.8 -0.71488 -3.73724 0
M  V30 61347 H 5695.31 -2.40396 -3.04682 0
M  V30 61348 H 5693.41 -0.0335423 -3.72585 0
M  V30 61349 H 5693.53 -1.77264 -4.451 0
M  V30 61350 H 5691.89 -0.851798 -2.40034 0
M  V30 61351 H 5692.67 -2.52171 -2.32948 0
M  V30 61352 N 5695.12 1.3637 -0.789992 0
M  V30 61353 C 5696.35 2.03481 -0.374602 0
M  V30 61354 C 5696.76 1.59565 1.00918 0
M  V30 61355 O 5696.12 0.785347 1.64738 0
M  V30 61356 C 5696.17 3.58941 -0.429381 0
M  V30 61357 O 5695.89 4.01255 -1.75859 0
M  V30 61358 C 5697.39 4.433 -0.00469314 0
M  V30 61359 H 5694.61 0.653014 -0.154318 0
M  V30 61360 H 5697.16 1.74335 -1.069 0
M  V30 61361 H 5695.31 3.86794 0.216604 0
M  V30 61362 H 5695.73 4.95848 -1.70982 0
M  V30 61363 H 5697.2 5.5192 -0.0941594 0
M  V30 61364 H 5697.68 4.26513 1.04801 0
M  V30 61365 H 5698.28 4.20709 -0.623189 0
M  V30 61366 N 5696.6 0.542057 1.47985 0
M  V30 61367 C 5697.85 0.0103169 2.01697 0
M  V30 61368 C 5698.16 -1.34168 1.42331 0
M  V30 61369 O 5699.37 -1.96248 1.87614 0
M  V30 61370 C 5697.82 -0.0319767 3.59886 0
M  V30 61371 C 5697.43 1.31586 4.2824 0
M  V30 61372 C 5699.17 -0.511908 4.21402 0
M  V30 61373 C 5697.08 1.2335 5.78393 0
M  V30 61374 H 5696.01 8.67165e-05 0.754 0
M  V30 61375 H 5698.66 0.687646 1.70128 0
M  V30 61376 H 5697.04 -0.774637 3.8835 0
M  V30 61377 H 5698.22 2.07504 4.11435 0
M  V30 61378 H 5696.53 1.7325 3.78647 0
M  V30 61379 H 5699.13 -0.591688 5.31416 0
M  V30 61380 H 5699.47 -1.52047 3.8754 0
M  V30 61381 H 5700.01 0.175433 3.97413 0
M  V30 61382 H 5696.74 2.21759 6.16849 0
M  V30 61383 H 5696.26 0.51588 5.97577 0
M  V30 61384 H 5697.94 0.9292 6.40293 0
M  V30 61385 N 5698.08 -1.55133 0.277764 0
M  V30 61386 C 5699.32 -1.98832 -0.338912 0
M  V30 61387 C 5699.64 -1.16963 -1.56777 0
M  V30 61388 O 5700.84 -1.50819 -2.25756 0
M  V30 61389 C 5699.3 -3.53902 -0.654341 0
M  V30 61390 C 5698.91 -4.44551 0.554859 0
M  V30 61391 C 5700.65 -4.06184 -1.23349 0
M  V30 61392 C 5698.56 -5.91013 0.213871 0
M  V30 61393 H 5697.49 -0.742637 -0.130408 0
M  V30 61394 H 5700.14 -1.79462 0.382831 0
M  V30 61395 H 5698.52 -3.69083 -1.43506 0
M  V30 61396 H 5699.7 -4.41139 1.33166 0
M  V30 61397 H 5698.01 -4.02917 1.05104 0
M  V30 61398 H 5700.61 -5.13157 -1.50247 0
M  V30 61399 H 5700.95 -3.55378 -2.16824 0
M  V30 61400 H 5701.48 -3.94452 -0.515009 0
M  V30 61401 H 5698.22 -6.4592 1.11656 0
M  V30 61402 H 5697.74 -5.97488 -0.526119 0
M  V30 61403 H 5699.42 -6.46712 -0.192963 0
M  V30 61404 N 5699.55 -0.00508679 -1.57599 0
M  V30 61405 C 5700.8 0.679699 -1.9107 0
M  V30 61406 C 5701.13 1.7314 -0.879547 0
M  V30 61407 O 5700.41 1.94237 0.101048 0
M  V30 61408 C 5700.69 1.31818 -3.35106 0
M  V30 61409 C 5700.54 0.277675 -4.48942 0
M  V30 61410 C 5701.86 2.24295 -3.78655 0
M  V30 61411 H 5698.98 0.245622 -0.694866 0
M  V30 61412 H 5701.62 -0.0574238 -1.89913 0
M  V30 61413 H 5699.77 1.94645 -3.36223 0
M  V30 61414 H 5701.45 -0.351298 -4.5996 0
M  V30 61415 H 5699.69 -0.399517 -4.31956 0
M  V30 61416 H 5700.36 0.763567 -5.46693 0
M  V30 61417 H 5702.84 1.7148 -3.79122 0
M  V30 61418 H 5701.71 2.65933 -4.80178 0
M  V30 61419 H 5701.97 3.12416 -3.12807 0
M  V30 61420 N 5701.03 1.55309 0.267743 0
M  V30 61421 C 5702.44 1.66816 0.8384 0
M  V30 61422 C 5702.79 0.598675 1.86843 0
M  V30 61423 O 5701.92 -0.258885 2.14846 0
M  V30 61424 C 5702.51 3.02413 1.52748 0
M  V30 61425 C 5701.07 3.1593 2.0461 0
M  V30 61426 C 5700.22 2.62631 0.889951 0
M  V30 61427 H 5703.17 1.58639 0.0439797 0
M  V30 61428 H 5703.19 2.95695 2.39468 0
M  V30 61429 H 5702.7 3.80231 0.777562 0
M  V30 61430 H 5700.8 2.42896 2.82546 0
M  V30 61431 H 5700.92 4.22564 2.25779 0
M  V30 61432 H 5699.28 2.19922 1.28477 0
M  V30 61433 H 5700.06 3.42957 0.153459 0
M  V30 61434 N 5702.51 -0.532493 1.48332 0
M  V30 61435 C 5703.42 -1.66427 1.65345 0
M  V30 61436 C 5704.44 -1.65539 0.535997 0
M  V30 61437 O 5705.61 -1.84536 0.806744 0
M  V30 61438 C 5702.68 -3.02895 1.68687 0
M  V30 61439 C 5701.74 -3.14659 2.92042 0
M  V30 61440 C 5700.97 -4.44617 2.95214 0
M  V30 61441 O 5701.19 -5.31565 2.0687 0
M  V30 61442 O 5700.13 -4.60693 3.87357 0
M  V30 61443 H 5703.95 -1.55011 2.61161 0
M  V30 61444 H 5701.54 -0.705302 1.31704 0
M  V30 61445 H 5703.42 -3.84062 1.7342 0
M  V30 61446 H 5702.1 -3.14641 0.760437 0
M  V30 61447 H 5701 -2.32797 2.92842 0
M  V30 61448 H 5702.34 -3.07828 3.84061 0
M  V30 61449 N 5703.99 -1.36878 -0.781172 0
M  V30 61450 C 5704.92 -1.27745 -1.90299 0
M  V30 61451 C 5705.93 -0.195203 -1.61625 0
M  V30 61452 O 5707.12 -0.450591 -1.72719 0
M  V30 61453 C 5704.22 -0.950218 -3.25306 0
M  V30 61454 C 5703.39 -2.13602 -3.81697 0
M  V30 61455 C 5702.45 -1.78055 -4.9516 0
M  V30 61456 O 5701.48 -2.50241 -5.11242 0
M  V30 61457 N 5702.68 -0.719088 -5.76029 0
M  V30 61458 H 5705.45 -2.24404 -1.98653 0
M  V30 61459 H 5703.01 -1.30379 -0.959837 0
M  V30 61460 H 5705 -0.693426 -3.98715 0
M  V30 61461 H 5703.57 -0.0724947 -3.12516 0
M  V30 61462 H 5702.79 -2.55513 -3.00178 0
M  V30 61463 H 5704.08 -2.92805 -4.16104 0
M  V30 61464 H 5703.48 -0.11988 -5.65573 0
M  V30 61465 H 5702.03 -0.522138 -6.49705 0
M  V30 61466 N 5705.47 1.00628 -1.21292 0
M  V30 61467 C 5706.69 1.77963 -1.0553 0
M  V30 61468 C 5707.11 1.84623 0.394958 0
M  V30 61469 O 5706.47 1.30669 1.27405 0
M  V30 61470 C 5706.52 3.21933 -1.64443 0
M  V30 61471 O 5706.24 3.15658 -3.03795 0
M  V30 61472 C 5707.74 4.15774 -1.53775 0
M  V30 61473 H 5704.96 0.559328 -0.370665 0
M  V30 61474 H 5707.5 1.26598 -1.60603 0
M  V30 61475 H 5705.66 3.70411 -1.13466 0
M  V30 61476 H 5706.07 4.061 -3.31938 0
M  V30 61477 H 5707.55 5.14595 -1.9974 0
M  V30 61478 H 5708.02 4.36436 -0.491964 0
M  V30 61479 H 5708.63 3.73185 -2.03993 0
M  V30 61480 N 5706.94 1.02047 1.20101 0
M  V30 61481 C 5708.19 0.707338 1.88891 0
M  V30 61482 C 5708.51 -0.766554 1.79954 0
M  V30 61483 O 5709.71 -1.19239 2.43914 0
M  V30 61484 C 5708.17 1.21482 3.38777 0
M  V30 61485 C 5707.78 2.71589 3.56291 0
M  V30 61486 C 5709.52 0.977292 4.13097 0
M  V30 61487 C 5707.43 3.15798 5.00025 0
M  V30 61488 H 5706.36 0.260885 0.707429 0
M  V30 61489 H 5709.01 1.23366 1.35842 0
M  V30 61490 H 5707.39 0.616453 3.91172 0
M  V30 61491 H 5708.56 3.37008 3.14265 0
M  V30 61492 H 5706.88 2.93527 2.95348 0
M  V30 61493 H 5709.48 1.28297 5.1908 0
M  V30 61494 H 5709.82 -0.0861445 4.16211 0
M  V30 61495 H 5710.35 1.53923 3.66814 0
M  V30 61496 H 5707.09 4.21435 5.02069 0
M  V30 61497 H 5706.61 2.55102 5.42847 0
M  V30 61498 H 5708.29 3.08657 5.6863 0
M  V30 61499 N 5708.42 -1.3595 0.797213 0
M  V30 61500 C 5709.33 -2.33726 0.202353 0
M  V30 61501 C 5710.35 -1.61417 -0.649662 0
M  V30 61502 O 5711.52 -1.93353 -0.563618 0
M  V30 61503 C 5708.59 -3.40615 -0.64673 0
M  V30 61504 C 5707.65 -4.28712 0.224687 0
M  V30 61505 C 5706.88 -5.30496 -0.583967 0
M  V30 61506 O 5707.11 -5.40606 -1.81938 0
M  V30 61507 O 5706.04 -6.01897 0.0202355 0
M  V30 61508 H 5709.87 -2.86379 1.01097 0
M  V30 61509 H 5707.45 -1.38555 0.558816 0
M  V30 61510 H 5709.33 -4.05948 -1.13066 0
M  V30 61511 H 5708.01 -2.90248 -1.43311 0
M  V30 61512 H 5706.92 -3.66391 0.755544 0
M  V30 61513 H 5708.25 -4.82451 0.974772 0
M  V30 61514 N 5709.9 -0.549898 -1.47695 0
M  V30 61515 C 5711.15 -0.0210133 -2.01689 0
M  V30 61516 C 5711.46 1.33412 -1.43041 0
M  V30 61517 O 5712.67 1.9525 -1.88652 0
M  V30 61518 C 5711.12 0.0128906 -3.59898 0
M  V30 61519 C 5710.73 -1.33855 -4.27536 0
M  V30 61520 C 5712.48 0.489553 -4.21668 0
M  V30 61521 C 5710.38 -1.26415 -5.77731 0
M  V30 61522 H 5709.31 -0.00408536 -0.753989 0
M  V30 61523 H 5711.96 -0.696658 -1.69761 0
M  V30 61524 H 5710.35 0.754031 -3.88755 0
M  V30 61525 H 5711.52 -2.09683 -4.10329 0
M  V30 61526 H 5709.84 -1.75256 -3.77723 0
M  V30 61527 H 5712.43 0.563497 -5.31722 0
M  V30 61528 H 5712.78 1.4999 -3.88341 0
M  V30 61529 H 5713.31 -0.196506 -3.97314 0
M  V30 61530 H 5710.05 -2.25027 -6.15665 0
M  V30 61531 H 5709.57 -0.547563 -5.97295 0
M  V30 61532 H 5711.25 -0.963143 -6.39791 0
M  V30 61533 N 5711.38 1.54983 -0.285987 0
M  V30 61534 C 5712.79 1.85519 0.209642 0
M  V30 61535 C 5713.14 1.208 1.54602 0
M  V30 61536 O 5712.27 0.500233 2.10539 0
M  V30 61537 C 5712.86 3.36581 0.387164 0
M  V30 61538 C 5711.42 3.67202 0.827019 0
M  V30 61539 C 5710.57 2.77203 -0.0734055 0
M  V30 61540 H 5713.52 1.50368 -0.507457 0
M  V30 61541 H 5713.54 3.60273 1.22407 0
M  V30 61542 H 5713.05 3.83656 -0.585627 0
M  V30 61543 H 5711.15 3.25634 1.8109 0
M  V30 61544 H 5711.26 4.74576 0.656809 0
M  V30 61545 H 5709.63 2.50787 0.444771 0
M  V30 61546 H 5710.41 3.27095 -1.04228 0
M  V30 61547 N 5712.86 0.0134446 1.57594 0
M  V30 61548 C 5714.08 -0.682786 1.95839 0
M  V30 61549 C 5714.51 -1.6576 0.889107 0
M  V30 61550 O 5713.86 -1.80666 -0.151522 0
M  V30 61551 C 5713.91 -1.37919 3.33183 0
M  V30 61552 O 5713.02 -2.49405 3.28437 0
M  V30 61553 H 5712.36 -0.180607 0.638966 0
M  V30 61554 H 5714.89 0.0706362 2.04478 0
M  V30 61555 H 5714.9 -1.73956 3.69057 0
M  V30 61556 H 5713.57 -0.66453 4.10557 0
M  V30 61557 H 5712.15 -2.15595 3.04258 0
M  V30 61558 N 5714.33 -1.55449 -0.259503 0
M  V30 61559 C 5715.58 -1.75893 -0.987139 0
M  V30 61560 C 5715.9 -0.575016 -1.86957 0
M  V30 61561 O 5717.1 -0.662184 -2.63301 0
M  V30 61562 C 5715.56 -3.11356 -1.80515 0
M  V30 61563 C 5715.17 -4.37357 -0.970728 0
M  V30 61564 C 5716.91 -3.41144 -2.52628 0
M  V30 61565 C 5714.82 -5.63854 -1.7839 0
M  V30 61566 H 5713.75 -0.655675 -0.372298 0
M  V30 61567 H 5716.4 -1.81894 -0.242268 0
M  V30 61568 H 5714.78 -2.99429 -2.5915 0
M  V30 61569 H 5715.95 -4.60238 -0.227601 0
M  V30 61570 H 5714.27 -4.1481 -0.363523 0
M  V30 61571 H 5716.87 -4.32866 -3.13897 0
M  V30 61572 H 5717.21 -2.61891 -3.23603 0
M  V30 61573 H 5717.74 -3.5423 -1.81013 0
M  V30 61574 H 5714.48 -6.45893 -1.11812 0
M  V30 61575 H 5714 -5.45094 -2.50264 0
M  V30 61576 H 5715.68 -6.0265 -2.3542 0
M  V30 61577 N 5715.81 0.524619 -1.48612 0
M  V30 61578 C 5716.76 1.62867 -1.63533 0
M  V30 61579 C 5717.73 1.59096 -0.477258 0
M  V30 61580 O 5718.91 1.7744 -0.701404 0
M  V30 61581 C 5716.05 3.0111 -1.68602 0
M  V30 61582 C 5715.17 3.15075 -2.95554 0
M  V30 61583 C 5714.3 4.43909 -2.9175 0
M  V30 61584 C 5713.34 4.51422 -4.13382 0
M  V30 61585 N 5712.48 5.71652 -4.07625 0
M  V30 61586 H 5717.32 1.49453 -2.57813 0
M  V30 61587 H 5714.86 0.727533 -1.27849 0
M  V30 61588 H 5716.81 3.81206 -1.69523 0
M  V30 61589 H 5715.44 3.13282 -0.778085 0
M  V30 61590 H 5714.5 2.28196 -3.04353 0
M  V30 61591 H 5715.81 3.16487 -3.85536 0
M  V30 61592 H 5714.96 5.32301 -2.91102 0
M  V30 61593 H 5713.7 4.45027 -1.99506 0
M  V30 61594 H 5712.71 3.61436 -4.143 0
M  V30 61595 H 5713.93 4.52039 -5.06792 0
M  V30 61596 H 5711.88 5.73657 -3.18204 0
M  V30 61597 H 5711.79 5.74581 -4.91317 0
M  V30 61598 H 5713.06 6.62317 -4.11044 0
M  V30 61599 N 5717.29 1.3729 0.773902 0
M  V30 61600 C 5718.54 1.32379 1.53238 0
M  V30 61601 C 5718.87 -0.0923601 1.94281 0
M  V30 61602 O 5718.12 -1.06511 1.64176 0
M  V30 61603 C 5718.42 2.20676 2.81135 0
M  V30 61604 C 5718.09 3.68984 2.59155 0
M  V30 61605 C 5716.75 4.09403 2.5287 0
M  V30 61606 C 5719.1 4.6295 2.3943 0
M  V30 61607 C 5716.43 5.41905 2.24846 0
M  V30 61608 C 5718.78 5.95687 2.12931 0
M  V30 61609 C 5717.44 6.35213 2.05088 0
M  V30 61610 H 5716.71 0.48441 0.560739 0
M  V30 61611 H 5719.36 1.69478 0.891603 0
M  V30 61612 H 5717.67 1.76566 3.4976 0
M  V30 61613 H 5719.36 2.14192 3.39003 0
M  V30 61614 H 5715.95 3.36928 2.6491 0
M  V30 61615 H 5720.14 4.32585 2.43278 0
M  V30 61616 H 5715.39 5.71493 2.17268 0
M  V30 61617 H 5719.57 6.68053 1.96667 0
M  V30 61618 H 5717.19 7.37811 1.83137 0
M  V30 61619 N 5718.77 -0.999829 1.21824 0
M  V30 61620 C 5719.99 -1.77936 1.06552 0
M  V30 61621 C 5720.42 -1.84221 -0.38005 0
M  V30 61622 O 5719.78 -1.28959 -1.27433 0
M  V30 61623 C 5719.82 -3.19424 1.67333 0
M  V30 61624 O 5718.93 -4.01954 0.922312 0
M  V30 61625 H 5718.27 -0.548191 0.374677 0
M  V30 61626 H 5720.8 -1.25645 1.61476 0
M  V30 61627 H 5720.81 -3.7008 1.7177 0
M  V30 61628 H 5719.48 -3.14165 2.72531 0
M  V30 61629 H 5718.06 -3.60505 0.953436 0
M  V30 61630 N 5720.25 -1.02682 -1.19558 0
M  V30 61631 C 5721.49 -0.723152 -1.89469 0
M  V30 61632 C 5721.83 0.746206 -1.79291 0
M  V30 61633 O 5721.1 1.54318 -1.1839 0
M  V30 61634 C 5721.38 -1.17236 -3.40482 0
M  V30 61635 C 5721.24 -2.70278 -3.59541 0
M  V30 61636 C 5722.56 -0.751549 -4.33636 0
M  V30 61637 H 5719.68 -0.264179 -0.688025 0
M  V30 61638 H 5722.32 -1.27638 -1.40743 0
M  V30 61639 H 5720.47 -0.701679 -3.82111 0
M  V30 61640 H 5722.14 -3.25277 -3.27097 0
M  V30 61641 H 5720.38 -3.10768 -3.02664 0
M  V30 61642 H 5721.05 -2.96765 -4.6544 0
M  V30 61643 H 5723.53 -1.15635 -3.9971 0
M  V30 61644 H 5722.41 -1.09377 -5.37892 0
M  V30 61645 H 5722.67 0.346212 -4.40742 0
M  V30 61646 N 5721.73 1.35525 -0.804411 0
M  V30 61647 C 5723.14 1.81319 -0.444997 0
M  V30 61648 C 5723.49 1.66819 1.03275 0
M  V30 61649 O 5722.61 1.1976 1.8024 0
M  V30 61650 C 5723.21 3.29197 -0.800943 0
M  V30 61651 C 5721.77 3.73142 -0.494157 0
M  V30 61652 C 5720.91 2.57553 -1.0277 0
M  V30 61653 H 5723.86 1.23534 -0.996247 0
M  V30 61654 H 5723.89 3.80375 -0.0976454 0
M  V30 61655 H 5723.4 3.39718 -1.87652 0
M  V30 61656 H 5721.5 3.68171 0.572771 0
M  V30 61657 H 5721.61 4.68001 -1.02526 0
M  V30 61658 H 5719.98 2.50691 -0.450136 0
M  V30 61659 H 5720.76 2.70853 -2.10934 0
M  V30 61660 N 5723.2 0.557723 1.47402 0
M  V30 61661 C 5724.17 -0.179231 2.28498 0
M  V30 61662 C 5725.17 -0.842233 1.36978 0
M  V30 61663 O 5726.36 -0.698016 1.59604 0
M  V30 61664 C 5723.49 -1.26218 3.16673 0
M  V30 61665 H 5724.68 0.533137 2.95123 0
M  V30 61666 H 5722.23 0.314688 1.53099 0
M  V30 61667 H 5722.97 -2.00693 2.54741 0
M  V30 61668 H 5722.75 -0.791577 3.84027 0
M  V30 61669 H 5724.24 -1.77978 3.77775 0
M  V30 61670 N 5724.68 -1.5483 0.294202 0
M  V30 61671 C 5725.93 -1.99607 -0.316438 0
M  V30 61672 C 5726.25 -1.18411 -1.54932 0
M  V30 61673 O 5725.52 -0.278358 -1.93912 0
M  V30 61674 H 5724.1 -0.737313 -0.119912 0
M  V30 61675 H 5726.76 -1.90668 0.403958 0
M  V30 61676 H 5725.86 -3.06411 -0.593174 0
M  V30 61677 N 5726.16 -0.021802 -1.57585 0
M  V30 61678 C 5727.41 0.657726 -1.90675 0
M  V30 61679 C 5727.72 1.7371 -0.899127 0
M  V30 61680 O 5728.93 2.47276 -1.12101 0
M  V30 61681 C 5727.38 1.22112 -3.38551 0
M  V30 61682 C 5726.99 0.175418 -4.47656 0
M  V30 61683 C 5728.74 1.87758 -3.80719 0
M  V30 61684 C 5726.64 0.750033 -5.86625 0
M  V30 61685 H 5725.57 0.249434 -0.711547 0
M  V30 61686 H 5728.22 -0.0859093 -1.83299 0
M  V30 61687 H 5726.61 2.01613 -3.40835 0
M  V30 61688 H 5727.78 -0.596597 -4.56922 0
M  V30 61689 H 5726.09 -0.38186 -4.14645 0
M  V30 61690 H 5728.69 2.31693 -4.81895 0
M  V30 61691 H 5729.03 2.71726 -3.15389 0
M  V30 61692 H 5729.57 1.14958 -3.80827 0
M  V30 61693 H 5726.31 -0.0513526 -6.5548 0
M  V30 61694 H 5725.83 1.4907 -5.8098 0
M  V30 61695 H 5727.51 1.24203 -6.34967 0
M  V30 61696 N 5727.64 1.55584 0.251256 0
M  V30 61697 C 5728.88 1.77475 0.981356 0
M  V30 61698 C 5729.22 0.586293 1.85138 0
M  V30 61699 O 5728.49 -0.415556 1.90009 0
M  V30 61700 C 5728.77 3.0921 1.84556 0
M  V30 61701 C 5728.63 4.38451 1.00401 0
M  V30 61702 C 5729.95 3.37142 2.82883 0
M  V30 61703 H 5727.07 0.645677 0.355346 0
M  V30 61704 H 5729.71 1.88319 0.252162 0
M  V30 61705 H 5727.86 3.00096 2.46728 0
M  V30 61706 H 5729.53 4.59551 0.401328 0
M  V30 61707 H 5727.77 4.32704 0.308213 0
M  V30 61708 H 5728.44 5.27 1.64239 0
M  V30 61709 H 5730.92 3.46191 2.30848 0
M  V30 61710 H 5729.8 4.30543 3.40476 0
M  V30 61711 H 5730.06 2.57841 3.59124 0
M  V30 61712 N 5729.12 -0.516731 1.48888 0
M  V30 61713 C 5730.36 -1.26836 1.5683 0
M  V30 61714 C 5730.68 -1.93956 0.253066 0
M  V30 61715 O 5731.88 -2.7068 0.21086 0
M  V30 61716 C 5730.34 -2.30213 2.76641 0
M  V30 61717 C 5729.95 -1.69103 4.14859 0
M  V30 61718 C 5731.69 -3.06302 2.93903 0
M  V30 61719 C 5729.6 -2.70498 5.25913 0
M  V30 61720 H 5728.53 -0.477066 0.583887 0
M  V30 61721 H 5731.18 -0.544125 1.75247 0
M  V30 61722 H 5729.56 -3.0573 2.51685 0
M  V30 61723 H 5730.74 -0.996845 4.49888 0
M  V30 61724 H 5729.05 -1.05459 4.02824 0
M  V30 61725 H 5731.65 -3.82097 3.7404 0
M  V30 61726 H 5731.99 -3.62969 2.03861 0
M  V30 61727 H 5732.52 -2.379 3.18823 0
M  V30 61728 H 5729.26 -2.18634 6.17964 0
M  V30 61729 H 5728.78 -3.38204 4.95357 0
M  V30 61730 H 5730.46 -3.3323 5.54587 0
M  V30 61731 N 5730.59 -1.37698 -0.766611 0
M  V30 61732 C 5732 -1.29673 -1.3432 0
M  V30 61733 C 5732.36 0.0533608 -1.96127 0
M  V30 61734 O 5731.48 0.955272 -1.94174 0
M  V30 61735 C 5732.08 -2.34827 -2.44217 0
M  V30 61736 C 5730.63 -2.3042 -2.9763 0
M  V30 61737 C 5729.78 -2.18384 -1.70892 0
M  V30 61738 H 5732.73 -1.48246 -0.566474 0
M  V30 61739 H 5732.75 -1.9979 -3.23828 0
M  V30 61740 H 5732.27 -3.33077 -1.99202 0
M  V30 61741 H 5730.37 -1.3571 -3.47007 0
M  V30 61742 H 5730.48 -3.24041 -3.52895 0
M  V30 61743 H 5728.84 -1.65015 -1.94016 0
M  V30 61744 H 5729.63 -3.18556 -1.27973 0
M  V30 61745 N 5732.07 0.993354 -1.22353 0
M  V30 61746 C 5733.3 1.77369 -1.07494 0
M  V30 61747 C 5733.72 1.8442 0.370275 0
M  V30 61748 O 5733.08 1.29633 1.26748 0
M  V30 61749 C 5733.13 3.18532 -1.69025 0
M  V30 61750 O 5732.23 4.01459 -0.943615 0
M  V30 61751 H 5731.57 0.546196 -0.377579 0
M  V30 61752 H 5734.1 1.24787 -1.6214 0
M  V30 61753 H 5734.11 3.69164 -1.7373 0
M  V30 61754 H 5732.79 3.12716 -2.74193 0
M  V30 61755 H 5731.36 3.59995 -0.972541 0
M  V30 61756 N 5733.55 1.03315 1.19012 0
M  V30 61757 C 5734.8 0.732105 1.88803 0
M  V30 61758 C 5735.12 -0.739624 1.79888 0
M  V30 61759 O 5734.38 -1.55472 1.18857 0
M  V30 61760 C 5734.68 1.13414 3.38928 0
M  V30 61761 C 5734.34 2.60486 3.68046 0
M  V30 61762 C 5733.01 3.00668 3.75703 0
M  V30 61763 C 5735.36 3.55618 3.81032 0
M  V30 61764 C 5732.69 4.34884 3.93818 0
M  V30 61765 C 5735.04 4.89543 4.00662 0
M  V30 61766 C 5733.7 5.29407 4.06552 0
M  V30 61767 H 5732.97 0.267896 0.690878 0
M  V30 61768 H 5735.62 1.29678 1.4091 0
M  V30 61769 H 5733.92 0.488134 3.88747 0
M  V30 61770 H 5735.62 0.87867 3.91255 0
M  V30 61771 H 5732.21 2.2836 3.62698 0
M  V30 61772 H 5736.4 3.25725 3.74456 0
M  V30 61773 H 5731.65 4.65299 3.96619 0
M  V30 61774 H 5735.83 5.63168 4.09652 0
M  V30 61775 H 5733.45 6.33417 4.20342 0
M  V30 61776 N 5735.03 -1.35096 0.811587 0
M  V30 61777 C 5735.96 -2.28468 0.183092 0
M  V30 61778 C 5736.97 -1.50511 -0.6205 0
M  V30 61779 O 5738.16 -1.72681 -0.45204 0
M  V30 61780 C 5735.26 -3.30203 -0.762817 0
M  V30 61781 C 5734.44 -4.374 -0.00451184 0
M  V30 61782 C 5733.49 -5.18964 -0.869649 0
M  V30 61783 O 5732.52 -5.68307 -0.318765 0
M  V30 61784 N 5733.72 -5.37562 -2.19105 0
M  V30 61785 H 5736.49 -2.83043 0.985232 0
M  V30 61786 H 5734.05 -1.47499 0.667501 0
M  V30 61787 H 5736.04 -3.81663 -1.34593 0
M  V30 61788 H 5734.61 -2.76106 -1.46574 0
M  V30 61789 H 5733.83 -3.86808 0.759838 0
M  V30 61790 H 5735.12 -5.06157 0.517917 0
M  V30 61791 H 5734.52 -4.99127 -2.66249 0
M  V30 61792 H 5733.07 -5.92183 -2.72327 0
M  V30 61793 N 5736.51 -0.565532 -1.47104 0
M  V30 61794 C 5737.47 0.167111 -2.2859 0
M  V30 61795 C 5738.47 0.834957 -1.37423 0
M  V30 61796 O 5739.66 0.689542 -1.59972 0
M  V30 61797 C 5736.79 1.24537 -3.17338 0
M  V30 61798 H 5737.98 -0.548781 -2.94836 0
M  V30 61799 H 5735.54 -0.322803 -1.5293 0
M  V30 61800 H 5736.27 1.99339 -2.55801 0
M  V30 61801 H 5736.06 0.7712 -3.84441 0
M  V30 61802 H 5737.55 1.75972 -3.78713 0
M  V30 61803 N 5737.98 1.54671 -0.302409 0
M  V30 61804 C 5738.91 2.26532 0.566185 0
M  V30 61805 C 5739.9 1.26536 1.13678 0
M  V30 61806 O 5741.08 1.55311 1.16585 0
M  V30 61807 C 5738.21 3.00715 1.73746 0
M  V30 61808 C 5737.16 4.0787 1.29717 0
M  V30 61809 C 5736.49 4.69776 2.55372 0
M  V30 61810 C 5737.79 5.20548 0.427384 0
M  V30 61811 H 5739.48 2.99382 -0.0331763 0
M  V30 61812 H 5737.03 1.43989 -0.0173964 0
M  V30 61813 H 5738.98 3.49708 2.35122 0
M  V30 61814 H 5737.71 2.25446 2.36309 0
M  V30 61815 H 5736.37 3.59729 0.706459 0
M  V30 61816 H 5736.01 3.91145 3.16251 0
M  V30 61817 H 5735.71 5.42145 2.26612 0
M  V30 61818 H 5737.24 5.21532 3.17547 0
M  V30 61819 H 5738.65 5.65427 0.946854 0
M  V30 61820 H 5737.05 5.99646 0.233493 0
M  V30 61821 H 5738.12 4.81803 -0.547163 0
M  V30 61822 N 5739.46 0.0301588 1.57571 0
M  V30 61823 C 5740.69 -0.658419 1.96144 0
M  V30 61824 C 5741.11 -1.65603 0.906702 0
M  V30 61825 O 5740.46 -1.8216 -0.111377 0
M  V30 61826 C 5740.51 -1.36388 3.34784 0
M  V30 61827 O 5740.23 -0.406246 4.36212 0
M  V30 61828 C 5741.74 -2.14419 3.87994 0
M  V30 61829 H 5738.96 -0.181473 0.645994 0
M  V30 61830 H 5741.5 0.0902318 2.04301 0
M  V30 61831 H 5739.65 -2.06393 3.27843 0
M  V30 61832 H 5740.07 -0.907322 5.16593 0
M  V30 61833 H 5741.54 -2.59231 4.87343 0
M  V30 61834 H 5742.02 -2.98366 3.22295 0
M  V30 61835 H 5742.63 -1.49369 3.98207 0
M  V30 61836 N 5740.94 -1.55715 -0.243001 0
M  V30 61837 C 5741.9 -1.89837 -1.28432 0
M  V30 61838 C 5742.9 -0.775132 -1.40884 0
M  V30 61839 O 5744.09 -1.04309 -1.39518 0
M  V30 61840 C 5741.23 -2.13025 -2.66145 0
M  V30 61841 H 5742.42 -2.82951 -0.993923 0
M  V30 61842 H 5739.97 -1.48667 -0.482469 0
M  V30 61843 H 5740.71 -1.22392 -3.00318 0
M  V30 61844 H 5740.49 -2.94833 -2.58488 0
M  V30 61845 H 5741.98 -2.40593 -3.41328 0
M  V30 61846 N 5742.42 0.508828 -1.4916 0
M  V30 61847 C 5743.83 0.839305 -1.35749 0
M  V30 61848 C 5744.03 1.97796 -0.384599 0
M  V30 61849 O 5743.09 2.5181 0.186563 0
M  V30 61850 C 5744.4 1.18689 -2.76285 0
M  V30 61851 C 5745.95 1.29555 -2.84929 0
M  V30 61852 C 5746.43 1.67646 -4.26214 0
M  V30 61853 N 5747.92 1.7471 -4.28988 0
M  V30 61854 C 5748.65 2.05612 -5.35268 0
M  V30 61855 N 5748.15 2.34791 -6.51801 0
M  V30 61856 N 5749.94 2.06797 -5.22677 0
M  V30 61857 H 5742.09 -0.24214 -2.11015 0
M  V30 61858 H 5744.36 -0.0457234 -0.946897 0
M  V30 61859 H 5744.06 0.423646 -3.49139 0
M  V30 61860 H 5743.94 2.13217 -3.11157 0
M  V30 61861 H 5746.32 2.04952 -2.12317 0
M  V30 61862 H 5746.4 0.33097 -2.5365 0
M  V30 61863 H 5746.05 0.928023 -4.9935 0
M  V30 61864 H 5745.98 2.65191 -4.54952 0
M  V30 61865 H 5748.47 1.54351 -3.44941 0
M  V30 61866 H 5748.78 2.57537 -7.28625 0
M  V30 61867 H 5747.13 2.32265 -6.55041 0
M  V30 61868 H 5750.32 1.83472 -4.30646 0
M  V30 61869 H 5750.49 2.30546 -6.05601 0
M  V30 61870 N 5743.9 1.38103 0.759297 0
M  V30 61871 C 5745.14 1.33997 1.51826 0
M  V30 61872 C 5745.47 -0.0717488 1.94368 0
M  V30 61873 O 5744.73 -1.04764 1.65297 0
M  V30 61874 C 5745.03 2.23646 2.78778 0
M  V30 61875 C 5744.69 3.71712 2.55227 0
M  V30 61876 C 5743.35 4.12062 2.48513 0
M  V30 61877 C 5745.71 4.65463 2.34507 0
M  V30 61878 C 5743.03 5.44259 2.19086 0
M  V30 61879 C 5745.39 5.97912 2.06601 0
M  V30 61880 C 5744.05 6.37352 1.98339 0
M  V30 61881 H 5743.32 0.49033 0.555569 0
M  V30 61882 H 5745.97 1.70414 0.873578 0
M  V30 61883 H 5744.27 1.80265 3.47867 0
M  V30 61884 H 5745.97 2.17776 3.36712 0
M  V30 61885 H 5742.56 3.39719 2.61321 0
M  V30 61886 H 5746.74 4.35141 2.38676 0
M  V30 61887 H 5742 5.73766 2.11194 0
M  V30 61888 H 5746.17 6.70102 1.8957 0
M  V30 61889 H 5743.8 7.39712 1.75302 0
M  V30 61890 N 5745.37 -0.986851 1.22878 0
M  V30 61891 C 5746.28 -2.11229 1.02077 0
M  V30 61892 C 5747.3 -1.73969 -0.0327812 0
M  V30 61893 O 5748.48 -2.00753 0.161268 0
M  V30 61894 C 5745.54 -3.41334 0.60759 0
M  V30 61895 C 5744.6 -3.92659 1.73545 0
M  V30 61896 C 5743.84 -5.16555 1.34189 0
M  V30 61897 O 5744.06 -5.69963 0.223306 0
M  V30 61898 O 5742.99 -5.61784 2.16061 0
M  V30 61899 H 5746.82 -2.31663 1.96382 0
M  V30 61900 H 5744.4 -1.09603 1.01526 0
M  V30 61901 H 5746.29 -4.19612 0.387809 0
M  V30 61902 H 5744.96 -3.22245 -0.30654 0
M  V30 61903 H 5743.87 -3.15527 2.00981 0
M  V30 61904 H 5745.2 -4.16191 2.62766 0
M  V30 61905 N 5746.85 -1.03945 -1.18462 0
M  V30 61906 C 5748.1 -0.743207 -1.88691 0
M  V30 61907 C 5748.43 0.727148 -1.80073 0
M  V30 61908 O 5747.71 1.53054 -1.2002 0
M  V30 61909 C 5747.99 -1.20841 -3.39219 0
M  V30 61910 C 5747.84 -2.74077 -3.56654 0
M  V30 61911 C 5749.16 -0.7975 -4.32814 0
M  V30 61912 H 5746.28 -0.271461 -0.685184 0
M  V30 61913 H 5748.92 -1.29124 -1.39381 0
M  V30 61914 H 5747.07 -0.742167 -3.81345 0
M  V30 61915 H 5748.74 -3.28728 -3.23629 0
M  V30 61916 H 5746.99 -3.13961 -2.99351 0
M  V30 61917 H 5747.66 -3.01685 -4.62266 0
M  V30 61918 H 5750.13 -1.19868 -3.98461 0
M  V30 61919 H 5749.01 -1.15076 -5.36702 0
M  V30 61920 H 5749.27 0.299446 -4.41085 0
M  V30 61921 N 5748.33 1.34664 -0.81874 0
M  V30 61922 C 5749.61 1.92837 -0.327588 0
M  V30 61923 C 5749.99 1.74736 1.18451 0
M  V30 61924 O 5749.34 1.12359 1.98967 0
M  V30 61925 C 5749.55 3.40795 -0.752326 0
M  V30 61926 C 5750.89 4.17946 -0.74876 0
M  V30 61927 O 5751.92 3.49361 -0.69464 0
M  V30 61928 O 5750.78 5.40341 -0.818148 0
M  V30 61929 H 5747.87 0.822246 -0.0885437 0
M  V30 61930 H 5750.42 1.43664 -0.903251 0
M  V30 61931 H 5749.19 3.47752 -1.79399 0
M  V30 61932 H 5748.81 3.97309 -0.152131 0
M  V30 61933 N 5749.81 0.573325 1.46802 0
M  V30 61934 C 5751.03 0.0587446 2.07317 0
M  V30 61935 C 5751.46 -1.23275 1.42073 0
M  V30 61936 O 5750.82 -1.74233 0.50125 0
M  V30 61937 C 5750.87 -0.103377 3.60452 0
M  V30 61938 O 5749.97 -1.16215 3.95686 0
M  V30 61939 H 5749.31 0.0585736 0.661411 0
M  V30 61940 H 5751.84 0.793598 1.88582 0
M  V30 61941 H 5751.85 -0.312515 4.06801 0
M  V30 61942 H 5750.53 0.839827 4.07332 0
M  V30 61943 H 5749.1 -0.93222 3.6106 0
M  V30 61944 N 5751.29 -1.54509 0.310607 0
M  V30 61945 C 5752.7 -1.85829 -0.180101 0
M  V30 61946 C 5753.05 -1.23244 -1.52661 0
M  V30 61947 O 5752.17 -0.533664 -2.09716 0
M  V30 61948 C 5752.77 -3.37154 -0.333568 0
M  V30 61949 C 5751.33 -3.68471 -0.768495 0
M  V30 61950 C 5750.48 -2.77051 0.117497 0
M  V30 61951 H 5753.43 -1.49542 0.531315 0
M  V30 61952 H 5753.45 -3.62175 -1.1666 0
M  V30 61953 H 5752.96 -3.82676 0.64659 0
M  V30 61954 H 5751.06 -3.28473 -1.75886 0
M  V30 61955 H 5751.17 -4.75561 -0.581225 0
M  V30 61956 H 5749.54 -2.51462 -0.404817 0
M  V30 61957 H 5750.32 -3.25396 1.09418 0
M  V30 61958 N 5752.77 -0.0385148 -1.57553 0
M  V30 61959 C 5754.01 0.639017 -1.92469 0
M  V30 61960 C 5754.34 1.71236 -0.916074 0
M  V30 61961 O 5753.62 1.94408 0.0598245 0
M  V30 61962 C 5753.9 1.24681 -3.37826 0
M  V30 61963 C 5753.76 0.182386 -4.4943 0
M  V30 61964 C 5755.07 2.16213 -3.83328 0
M  V30 61965 H 5752.19 0.230827 -0.69992 0
M  V30 61966 H 5754.84 -0.0976943 -1.89749 0
M  V30 61967 H 5752.99 1.87469 -3.40276 0
M  V30 61968 H 5754.66 -0.448783 -4.59112 0
M  V30 61969 H 5752.9 -0.491051 -4.31012 0
M  V30 61970 H 5753.57 0.647433 -5.4819 0
M  V30 61971 H 5756.05 1.634 -3.82674 0
M  V30 61972 H 5754.92 2.55688 -4.85711 0
M  V30 61973 H 5755.18 3.05711 -3.19364 0
M  V30 61974 N 5754.24 1.55842 0.23474 0
M  V30 61975 C 5755.47 1.82046 0.976873 0
M  V30 61976 C 5755.88 0.613615 1.78973 0
M  V30 61977 O 5755.22 -0.427208 1.78663 0
M  V30 61978 C 5755.29 3.01787 1.95359 0
M  V30 61979 C 5754.95 4.37325 1.32651 0
M  V30 61980 C 5755.95 5.14849 0.722926 0
M  V30 61981 C 5753.63 4.84035 1.34223 0
M  V30 61982 C 5755.63 6.37239 0.143422 0
M  V30 61983 C 5753.31 6.0637 0.758873 0
M  V30 61984 C 5754.31 6.82811 0.16051 0
M  V30 61985 O 5754 8.02834 -0.413802 0
M  V30 61986 H 5753.73 0.609435 0.292516 0
M  V30 61987 H 5756.29 2.03759 0.259145 0
M  V30 61988 H 5754.52 2.7586 2.70995 0
M  V30 61989 H 5756.2 3.14977 2.56016 0
M  V30 61990 H 5756.97 4.79875 0.703202 0
M  V30 61991 H 5752.85 4.24519 1.79735 0
M  V30 61992 H 5756.39 6.96846 -0.324247 0
M  V30 61993 H 5752.29 6.40819 0.775965 0
M  V30 61994 H 5753.06 8.17925 -0.306842 0
M  V30 61995 N 5755.72 -0.50091 1.49428 0
M  V30 61996 C 5756.67 -1.62329 1.66589 0
M  V30 61997 C 5757.66 -1.60835 0.53183 0
M  V30 61998 O 5758.87 -1.65343 0.711466 0
M  V30 61999 H 5755.24 -0.538112 0.525299 0
M  V30 62000 H 5757.22 -1.45007 2.60798 0
M  V30 62001 C 5755.96 -3.00463 1.74978 0
M  V30 62002 H 5755.29 -3.02318 2.61617 0
M  V30 62003 H 5756.73 -3.78533 1.91021 0
M  V30 62004 C 5755.19 -3.33249 0.494627 0
M  V30 62005 O 5755.72 -3.99902 -0.379643 0
M  V30 62006 N 5753.92 -2.88392 0.357546 0
M  V30 62007 H 5753.47 -2.34326 1.06999 0
M  V30 62008 H 5753.43 -3.10696 -0.481178 0
M  V30 62009 N 5757.2 -1.38504 -0.751963 0
M  V30 62010 C 5758.16 -1.35662 -1.84739 0
M  V30 62011 C 5759.16 -0.256828 -1.58736 0
M  V30 62012 O 5760.35 -0.513808 -1.6645 0
M  V30 62013 C 5757.48 -1.11242 -3.22239 0
M  V30 62014 H 5758.68 -2.3312 -1.88666 0
M  V30 62015 H 5756.23 -1.23821 -0.953838 0
M  V30 62016 H 5756.97 -0.143961 -3.2398 0
M  V30 62017 H 5756.75 -1.90869 -3.42508 0
M  V30 62018 H 5758.24 -1.11953 -4.02314 0
M  V30 62019 N 5758.68 0.980321 -1.234 0
M  V30 62020 C 5759.91 1.75685 -1.09282 0
M  V30 62021 C 5760.32 1.85419 0.355708 0
M  V30 62022 O 5759.68 1.33342 1.24604 0
M  V30 62023 C 5759.73 3.18372 -1.71235 0
M  V30 62024 O 5759.45 3.09143 -3.10422 0
M  V30 62025 C 5760.95 4.12419 -1.62559 0
M  V30 62026 H 5758.17 0.55134 -0.382446 0
M  V30 62027 H 5760.71 1.23163 -1.63252 0
M  V30 62028 H 5758.87 3.67921 -1.21298 0
M  V30 62029 H 5759.28 3.98968 -3.40478 0
M  V30 62030 H 5760.76 5.10242 -2.1061 0
M  V30 62031 H 5761.23 4.35294 -0.584428 0
M  V30 62032 H 5761.84 3.68774 -2.11863 0
M  V30 62033 N 5760.16 1.04571 1.17909 0
M  V30 62034 C 5761.4 0.76298 1.88548 0
M  V30 62035 C 5761.76 -0.701989 1.79136 0
M  V30 62036 O 5761.05 -1.50618 1.18427 0
M  V30 62037 C 5761.24 1.17002 3.37706 0
M  V30 62038 C 5761.07 2.67301 3.61635 0
M  V30 62039 C 5759.84 3.34522 3.78713 0
M  V30 62040 C 5762.04 3.65522 3.61798 0
M  V30 62041 N 5760.02 4.7375 3.90428 0
M  V30 62042 C 5761.39 4.90449 3.79288 0
M  V30 62043 C 5763.45 3.59081 3.44914 0
M  V30 62044 C 5762.15 6.09706 3.81642 0
M  V30 62045 C 5764.18 4.77771 3.48553 0
M  V30 62046 C 5763.54 6.01518 3.66545 0
M  V30 62047 H 5759.64 0.331328 0.70834 0
M  V30 62048 H 5762.22 1.33641 1.41592 0
M  V30 62049 H 5760.39 0.624614 3.83345 0
M  V30 62050 H 5762.13 0.837773 3.95934 0
M  V30 62051 H 5758.88 2.84924 3.78306 0
M  V30 62052 H 5759.3 5.46125 4.00096 0
M  V30 62053 H 5763.95 2.64378 3.29946 0
M  V30 62054 H 5761.66 7.0476 3.95397 0
M  V30 62055 H 5765.25 4.74433 3.36756 0
M  V30 62056 H 5764.13 6.91823 3.69257 0
M  V30 62057 N 5761.63 -1.34228 0.82587 0
M  V30 62058 C 5762.86 -2.02948 0.427426 0
M  V30 62059 C 5763.28 -1.61776 -0.959699 0
M  V30 62060 O 5762.64 -0.803856 -1.62505 0
M  V30 62061 C 5762.69 -3.5652 0.540924 0
M  V30 62062 O 5761.79 -4.10067 -0.438069 0
M  V30 62063 H 5761.13 -0.640371 0.175557 0
M  V30 62064 H 5763.66 -1.71412 1.1171 0
M  V30 62065 H 5763.67 -4.05855 0.417773 0
M  V30 62066 H 5762.35 -3.85833 1.5526 0
M  V30 62067 H 5760.93 -3.71895 -0.273556 0
M  V30 62068 N 5763.11 -0.581102 -1.46496 0
M  V30 62069 C 5764.07 0.142856 -2.28754 0
M  V30 62070 C 5765.07 0.820334 -1.38301 0
M  V30 62071 O 5766.26 0.672536 -1.60694 0
M  V30 62072 C 5763.4 1.21164 -3.18641 0
M  V30 62073 H 5764.59 -0.580021 -2.94238 0
M  V30 62074 H 5762.14 -0.339005 -1.52579 0
M  V30 62075 H 5762.88 1.96615 -2.57901 0
M  V30 62076 H 5762.66 0.730381 -3.85237 0
M  V30 62077 H 5764.15 1.71945 -3.80558 0
M  V30 62078 N 5764.59 1.54342 -0.318797 0
M  V30 62079 C 5765.82 2.05362 0.290054 0
M  V30 62080 C 5766.24 1.19367 1.45372 0
M  V30 62081 O 5765.6 0.201702 1.80175 0
M  V30 62082 C 5765.65 3.53603 0.7069 0
M  V30 62083 O 5764.75 3.70567 1.80979 0
M  V30 62084 H 5764.09 0.66186 0.0532701 0
M  V30 62085 H 5766.62 1.99227 -0.46582 0
M  V30 62086 H 5766.63 3.95785 0.990866 0
M  V30 62087 H 5765.31 4.1565 -0.144237 0
M  V30 62088 H 5763.88 3.40291 1.52501 0
M  V30 62089 N 5766.07 0.0468696 1.5753 0
M  V30 62090 C 5767 -0.927017 2.1431 0
M  V30 62091 C 5767.98 -1.32741 1.06367 0
M  V30 62092 O 5769.16 -1.40289 1.34286 0
M  V30 62093 C 5766.29 -2.20334 2.68459 0
M  V30 62094 C 5765.25 -1.94314 3.81347 0
M  V30 62095 C 5764.57 -3.28364 4.21997 0
M  V30 62096 C 5765.87 -1.26817 5.0667 0
M  V30 62097 H 5767.57 -0.454095 2.95936 0
M  V30 62098 H 5765.11 -0.216979 1.42356 0
M  V30 62099 H 5767.07 -2.88859 3.0682 0
M  V30 62100 H 5765.79 -2.69824 1.84019 0
M  V30 62101 H 5764.45 -1.28202 3.43453 0
M  V30 62102 H 5764.1 -3.75647 3.34512 0
M  V30 62103 H 5763.8 -3.11755 4.98079 0
M  V30 62104 H 5765.32 -3.98128 4.62954 0
M  V30 62105 H 5766.74 -1.8537 5.42504 0
M  V30 62106 H 5765.13 -1.20548 5.87867 0
M  V30 62107 H 5766.2 -0.243589 4.84288 0
M  V30 62108 N 5767.55 -1.55964 -0.226472 0
M  V30 62109 C 5768.49 -1.92012 -1.28063 0
M  V30 62110 C 5769.46 -0.776717 -1.46821 0
M  V30 62111 O 5770.65 -1.03218 -1.6047 0
M  V30 62112 C 5767.79 -2.23793 -2.62699 0
M  V30 62113 C 5766.9 -3.51043 -2.5178 0
M  V30 62114 C 5766.04 -3.72295 -3.78907 0
M  V30 62115 C 5765.08 -4.93075 -3.62689 0
M  V30 62116 N 5764.21 -5.10742 -4.81754 0
M  V30 62117 H 5769.05 -2.81901 -0.966211 0
M  V30 62118 H 5766.59 -1.3953 -0.465798 0
M  V30 62119 H 5768.55 -2.40229 -3.41095 0
M  V30 62120 H 5767.18 -1.37083 -2.92246 0
M  V30 62121 H 5766.23 -3.42827 -1.64844 0
M  V30 62122 H 5767.54 -4.3959 -2.35716 0
M  V30 62123 H 5766.7 -3.888 -4.65746 0
M  V30 62124 H 5765.43 -2.82018 -3.97891 0
M  V30 62125 H 5764.44 -4.76525 -2.74234 0
M  V30 62126 H 5765.66 -5.84831 -3.45181 0
M  V30 62127 H 5763.61 -4.23407 -5.01061 0
M  V30 62128 H 5763.53 -5.93413 -4.68398 0
M  V30 62129 H 5764.8 -5.31678 -5.70034 0
M  V30 62130 N 5769.02 0.492978 -1.49691 0
M  V30 62131 C 5769.97 1.61443 -1.67448 0
M  V30 62132 C 5770.97 1.60551 -0.540352 0
M  V30 62133 O 5772.17 1.64963 -0.720225 0
M  V30 62134 H 5768.55 0.535319 -0.528146 0
M  V30 62135 H 5770.52 1.43622 -2.61563 0
M  V30 62136 C 5769.27 2.99531 -1.76569 0
M  V30 62137 H 5768.59 3.00927 -2.63217 0
M  V30 62138 H 5770.03 3.77514 -1.93026 0
M  V30 62139 C 5768.49 3.32982 -0.512293 0
M  V30 62140 O 5769.02 4.00098 0.35843 0
M  V30 62141 N 5767.23 2.88198 -0.372835 0
M  V30 62142 H 5766.77 2.33756 -1.08241 0
M  V30 62143 H 5766.73 3.10947 0.464694 0
M  V30 62144 N 5770.5 1.38901 0.744607 0
M  V30 62145 C 5771.45 1.36851 1.8585 0
M  V30 62146 C 5772.42 0.229658 1.64505 0
M  V30 62147 O 5773.6 0.423286 1.86046 0
M  V30 62148 C 5770.74 1.2083 3.23256 0
M  V30 62149 C 5769.86 2.44178 3.56372 0
M  V30 62150 C 5768.99 2.20818 4.83128 0
M  V30 62151 C 5768.03 3.39892 5.09058 0
M  V30 62152 N 5767.17 3.1591 6.27013 0
M  V30 62153 H 5772.01 2.32075 1.86937 0
M  V30 62154 H 5769.55 1.15292 0.913571 0
M  V30 62155 H 5771.5 1.09554 4.02559 0
M  V30 62156 H 5770.13 0.292408 3.21473 0
M  V30 62157 H 5769.19 2.66093 2.71843 0
M  V30 62158 H 5770.5 3.32898 3.71457 0
M  V30 62159 H 5769.65 2.0673 5.70392 0
M  V30 62160 H 5768.39 1.29478 4.70199 0
M  V30 62161 H 5767.4 3.54489 4.20259 0
M  V30 62162 H 5768.62 4.3212 5.23879 0
M  V30 62163 H 5766.57 2.27225 6.1539 0
M  V30 62164 H 5766.48 3.98182 6.42641 0
M  V30 62165 H 5767.75 3.05496 7.17142 0
M  V30 62166 N 5771.98 -0.973763 1.23918 0
M  V30 62167 C 5772.94 -2.04888 1.0273 0
M  V30 62168 C 5773.94 -1.60795 -0.0132407 0
M  V30 62169 O 5775.13 -1.72713 0.227145 0
M  V30 62170 C 5772.27 -3.36339 0.555785 0
M  V30 62171 H 5773.46 -2.25117 1.98147 0
M  V30 62172 H 5771.01 -1.14813 1.06055 0
M  V30 62173 H 5771.75 -3.21801 -0.401856 0
M  V30 62174 H 5771.53 -3.69685 1.30674 0
M  V30 62175 H 5773.02 -4.15397 0.428394 0
M  V30 62176 N 5773.46 -1.05195 -1.17353 0
M  V30 62177 C 5774.74 -0.675891 -1.83551 0
M  V30 62178 C 5775.12 0.843744 -1.93505 0
M  V30 62179 O 5774.46 1.7497 -1.46962 0
M  V30 62180 C 5774.67 -1.36492 -3.21202 0
M  V30 62181 C 5776.02 -1.50299 -3.97109 0
M  V30 62182 O 5777.05 -1.32394 -3.30682 0
M  V30 62183 O 5775.9 -1.7958 -5.16152 0
M  V30 62184 H 5773 -0.237926 -0.792036 0
M  V30 62185 H 5775.54 -1.15154 -1.2465 0
M  V30 62186 H 5774.32 -2.40167 -3.08927 0
M  V30 62187 H 5773.94 -0.878627 -3.8777 0
M  V30 62188 N 5774.94 1.33788 -0.832977 0
M  V30 62189 C 5776.17 2.01893 -0.438511 0
M  V30 62190 C 5776.57 1.62847 0.963189 0
M  V30 62191 O 5775.92 0.834694 1.63642 0
M  V30 62192 C 5775.98 3.56378 -0.472729 0
M  V30 62193 C 5775.64 4.18781 -1.82951 0
M  V30 62194 C 5776.64 4.38578 -2.79187 0
M  V30 62195 C 5774.33 4.55335 -2.12074 0
M  V30 62196 C 5776.32 4.94067 -4.02712 0
M  V30 62197 C 5774.01 5.10532 -3.35857 0
M  V30 62198 C 5775 5.29844 -4.30992 0
M  V30 62199 O 5774.69 5.83869 -5.52586 0
M  V30 62200 H 5774.42 0.653474 -0.173054 0
M  V30 62201 H 5776.98 1.71823 -1.12543 0
M  V30 62202 H 5775.21 3.8575 0.270938 0
M  V30 62203 H 5776.9 4.05784 -0.0969128 0
M  V30 62204 H 5777.66 4.10692 -2.57986 0
M  V30 62205 H 5773.54 4.39602 -1.38821 0
M  V30 62206 H 5777.09 5.09055 -4.76978 0
M  V30 62207 H 5772.98 5.37848 -3.56917 0
M  V30 62208 H 5773.75 6.02292 -5.54245 0
M  V30 62209 N 5776.41 0.588863 1.46185 0
M  V30 62210 C 5777.66 0.076913 2.02654 0
M  V30 62211 C 5777.99 -1.28208 1.45864 0
M  V30 62212 O 5777.27 -1.84148 0.626087 0
M  V30 62213 C 5777.55 0.0177695 3.60096 0
M  V30 62214 C 5777.4 1.4061 4.27257 0
M  V30 62215 C 5778.72 -0.679711 4.34819 0
M  V30 62216 H 5775.84 0.029424 0.736412 0
M  V30 62217 H 5778.48 0.757244 1.74258 0
M  V30 62218 H 5776.63 -0.561604 3.84419 0
M  V30 62219 H 5778.31 2.03111 4.14178 0
M  V30 62220 H 5776.55 1.9721 3.86382 0
M  V30 62221 H 5777.22 1.31713 5.36056 0
M  V30 62222 H 5779.7 -0.187454 4.15678 0
M  V30 62223 H 5778.57 -0.690141 5.44544 0
M  V30 62224 H 5778.83 -1.74222 4.06324 0
M  V30 62225 N 5777.89 -1.54171 0.326977 0
M  V30 62226 C 5778.8 -2.28151 -0.54627 0
M  V30 62227 C 5779.82 -1.32632 -1.12627 0
M  V30 62228 O 5780.99 -1.65651 -1.1455 0
M  V30 62229 C 5778.06 -3.02748 -1.68951 0
M  V30 62230 C 5777.12 -4.1386 -1.14098 0
M  V30 62231 C 5776.35 -4.8489 -2.22973 0
M  V30 62232 O 5776.58 -4.5546 -3.43383 0
M  V30 62233 O 5775.51 -5.71721 -1.882 0
M  V30 62234 H 5779.34 -3.03651 0.0546355 0
M  V30 62235 H 5776.92 -1.49113 0.0925552 0
M  V30 62236 H 5778.8 -3.49451 -2.35503 0
M  V30 62237 H 5777.48 -2.30121 -2.27654 0
M  V30 62238 H 5776.39 -3.71498 -0.440448 0
M  V30 62239 H 5777.72 -4.88541 -0.59904 0
M  V30 62240 N 5779.37 -0.0552232 -1.57503 0
M  V30 62241 C 5780.6 0.627131 -1.97167 0
M  V30 62242 C 5781.01 1.6414 -0.932933 0
M  V30 62243 O 5780.37 1.82314 0.0823824 0
M  V30 62244 C 5780.42 1.31045 -3.36912 0
M  V30 62245 O 5780.14 0.336797 -4.36803 0
M  V30 62246 C 5781.64 2.08219 -3.91356 0
M  V30 62247 H 5778.86 0.171173 -0.648799 0
M  V30 62248 H 5781.41 -0.122723 -2.04131 0
M  V30 62249 H 5779.56 2.01151 -3.31085 0
M  V30 62250 H 5779.98 0.825021 -5.17971 0
M  V30 62251 H 5781.45 2.51445 -4.91405 0
M  V30 62252 H 5781.93 2.93201 -3.27001 0
M  V30 62253 H 5782.53 1.43015 -4.00533 0
M  V30 62254 N 5780.85 1.56082 0.218198 0
M  V30 62255 C 5782.1 1.79516 0.94349 0
M  V30 62256 C 5782.43 0.625432 1.83853 0
M  V30 62257 O 5781.7 -0.375159 1.90848 0
M  V30 62258 C 5781.99 3.13055 1.77956 0
M  V30 62259 C 5781.84 4.40482 0.910784 0
M  V30 62260 C 5783.16 3.43067 2.75668 0
M  V30 62261 H 5780.28 0.653069 0.34157 0
M  V30 62262 H 5782.92 1.88812 0.21216 0
M  V30 62263 H 5781.07 3.05262 2.40307 0
M  V30 62264 H 5782.74 4.60299 0.30376 0
M  V30 62265 H 5780.98 4.3326 0.216361 0
M  V30 62266 H 5781.66 5.30366 1.53024 0
M  V30 62267 H 5784.13 3.5101 2.23453 0
M  V30 62268 H 5783.01 4.37668 3.31267 0
M  V30 62269 H 5783.27 2.65401 3.53574 0
M  V30 62270 N 5782.33 -0.485033 1.49951 0
M  V30 62271 C 5783.26 -1.59306 1.70716 0
M  V30 62272 C 5784.24 -1.60758 0.555952 0
M  V30 62273 O 5785.42 -1.77246 0.793566 0
M  V30 62274 C 5782.55 -2.97711 1.78844 0
M  V30 62275 C 5781.51 -3.11126 2.93913 0
M  V30 62276 C 5780.83 -4.51041 2.8717 0
M  V30 62277 C 5782.13 -2.89649 4.34627 0
M  V30 62278 H 5783.83 -1.42182 2.63485 0
M  V30 62279 H 5781.37 -0.682575 1.26795 0
M  V30 62280 H 5783.33 -3.75141 1.91956 0
M  V30 62281 H 5782.05 -3.1596 0.826855 0
M  V30 62282 H 5780.71 -2.36125 2.80429 0
M  V30 62283 H 5780.36 -4.66188 1.88886 0
M  V30 62284 H 5780.06 -4.60954 3.6441 0
M  V30 62285 H 5781.58 -5.30509 3.02311 0
M  V30 62286 H 5783 -3.56838 4.48709 0
M  V30 62287 H 5781.39 -3.11021 5.13212 0
M  V30 62288 H 5782.46 -1.85626 4.47963 0
M  V30 62289 N 5783.81 -1.39293 -0.73723 0
M  V30 62290 C 5785.08 -1.26906 -1.48843 0
M  V30 62291 C 5785.46 0.122343 -2.10745 0
M  V30 62292 O 5784.81 1.13336 -1.98412 0
M  V30 62293 C 5785.02 -2.39169 -2.54164 0
M  V30 62294 C 5786.37 -2.78379 -3.20609 0
M  V30 62295 O 5787.39 -2.38602 -2.64476 0
M  V30 62296 O 5786.25 -3.47029 -4.22176 0
M  V30 62297 H 5783.35 -0.497199 -0.660849 0
M  V30 62298 H 5785.89 -1.51162 -0.771246 0
M  V30 62299 H 5784.66 -3.32198 -2.06786 0
M  V30 62300 H 5784.29 -2.16566 -3.33444 0
M  V30 62301 N 5785.28 0.967178 -1.24432 0
M  V30 62302 C 5786.51 1.75049 -1.11232 0
M  V30 62303 C 5786.93 1.85163 0.331074 0
M  V30 62304 O 5786.29 1.32292 1.23969 0
M  V30 62305 C 5786.34 3.14875 -1.75744 0
M  V30 62306 O 5785.44 3.99368 -1.02856 0
M  V30 62307 H 5784.78 0.538064 -0.38908 0
M  V30 62308 H 5787.31 1.21319 -1.64751 0
M  V30 62309 H 5787.32 3.65396 -1.81522 0
M  V30 62310 H 5786 3.06829 -2.80764 0
M  V30 62311 H 5784.58 3.57851 -1.04868 0
M  V30 62312 N 5786.76 1.05816 1.16794 0
M  V30 62313 C 5787.99 0.792587 1.91117 0
M  V30 62314 C 5788.4 -0.652487 1.77167 0
M  V30 62315 O 5787.76 -1.44629 1.11305 0
M  V30 62316 C 5787.81 1.17184 3.4198 0
M  V30 62317 O 5787.53 2.5602 3.55507 0
M  V30 62318 C 5789.03 0.933315 4.33364 0
M  V30 62319 H 5786.25 0.287701 0.606192 0
M  V30 62320 H 5788.8 1.41051 1.4807 0
M  V30 62321 H 5786.95 0.598548 3.82748 0
M  V30 62322 H 5787.37 2.71069 4.49023 0
M  V30 62323 H 5788.84 1.24836 5.37699 0
M  V30 62324 H 5789.32 -0.13119 4.39004 0
M  V30 62325 H 5789.92 1.49076 3.98317 0
M  V30 62326 N 5788.24 -1.33344 0.84006 0
M  V30 62327 C 5789.48 -1.99554 0.442433 0
M  V30 62328 C 5789.84 -1.65091 -0.980246 0
M  V30 62329 O 5791.04 -2.24277 -1.48166 0
M  V30 62330 C 5789.32 -3.51289 0.658063 0
M  V30 62331 S 5790.87 -4.37355 0.355834 0
M  V30 62332 H 5787.69 -0.691262 0.166368 0
M  V30 62333 H 5790.29 -1.6232 1.0896 0
M  V30 62334 H 5789 -3.7386 1.69284 0
M  V30 62335 H 5788.53 -3.934 -0.00321975 0
M  V30 62336 H 5790.54 -4.89312 -0.823919 0
M  V30 62337 N 5789.72 -0.596607 -1.45871 0
M  V30 62338 C 5790.94 -0.0917194 -2.07197 0
M  V30 62339 C 5791.37 1.20999 -1.44017 0
M  V30 62340 O 5790.73 1.73414 -0.528905 0
M  V30 62341 C 5790.77 0.0460189 -3.60571 0
M  V30 62342 O 5789.88 1.09905 -3.97485 0
M  V30 62343 H 5789.22 -0.0690887 -0.660396 0
M  V30 62344 H 5791.75 -0.823499 -1.87296 0
M  V30 62345 H 5791.76 0.247757 -4.07247 0
M  V30 62346 H 5790.43 -0.904523 -4.05945 0
M  V30 62347 H 5789.01 0.87466 -3.62497 0
M  V30 62348 N 5791.2 1.53995 -0.335149 0
M  V30 62349 C 5792.42 2.05658 0.268256 0
M  V30 62350 C 5792.85 1.20902 1.44098 0
M  V30 62351 O 5792.2 0.220801 1.7995 0
M  V30 62352 C 5792.25 3.54333 0.669356 0
M  V30 62353 O 5791.36 3.72466 1.77039 0
M  V30 62354 H 5790.7 0.662387 0.0462472 0
M  V30 62355 H 5793.23 1.98721 -0.486924 0
M  V30 62356 H 5793.24 3.96814 0.948832 0
M  V30 62357 H 5791.91 4.15473 -0.188314 0
M  V30 62358 H 5790.49 3.41889 1.48883 0
M  V30 62359 N 5792.67 0.0635752 1.57472 0
M  V30 62360 C 5793.9 -0.616666 1.97496 0
M  V30 62361 C 5794.32 -1.63642 0.941625 0
M  V30 62362 O 5793.67 -1.82355 -0.0727127 0
M  V30 62363 C 5793.72 -1.29256 3.37602 0
M  V30 62364 O 5793.45 -0.313628 4.36976 0
M  V30 62365 C 5794.95 -2.0614 3.92455 0
M  V30 62366 H 5792.17 -0.16773 0.649698 0
M  V30 62367 H 5794.71 0.133547 2.04063 0
M  V30 62368 H 5792.87 -1.99392 3.32147 0
M  V30 62369 H 5793.28 -0.797541 5.18401 0
M  V30 62370 H 5794.75 -2.48836 4.92732 0
M  V30 62371 H 5795.23 -2.91463 3.28552 0
M  V30 62372 H 5795.84 -1.40889 4.01286 0
M  V30 62373 N 5794.15 -1.56196 -0.209917 0
M  V30 62374 C 5795.4 -1.80014 -0.933957 0
M  V30 62375 C 5795.73 -0.635173 -1.83519 0
M  V30 62376 O 5795.01 0.365032 -1.91044 0
M  V30 62377 C 5795.29 -3.13995 -1.76293 0
M  V30 62378 C 5795.14 -4.40959 -0.887412 0
M  V30 62379 C 5796.46 -3.44524 -2.73845 0
M  V30 62380 H 5793.58 -0.654871 -0.338102 0
M  V30 62381 H 5796.22 -1.88922 -0.202144 0
M  V30 62382 H 5794.37 -3.06532 -2.38685 0
M  V30 62383 H 5796.04 -4.60453 -0.279345 0
M  V30 62384 H 5794.29 -4.33369 -0.193381 0
M  V30 62385 H 5794.96 -5.3117 -1.50209 0
M  V30 62386 H 5797.43 -3.5219 -2.21588 0
M  V30 62387 H 5796.31 -4.39419 -3.28941 0
M  V30 62388 H 5796.57 -2.67272 -3.52162 0
M  V30 62389 N 5795.63 0.477074 -1.50206 0
M  V30 62390 C 5796.56 1.59313 -1.64778 0
M  V30 62391 C 5797.58 1.53949 -0.529481 0
M  V30 62392 O 5798.76 1.59446 -0.802444 0
M  V30 62393 C 5795.86 2.9818 -1.61066 0
M  V30 62394 C 5795.04 3.28476 -2.88829 0
M  V30 62395 C 5794.1 4.46868 -2.77841 0
M  V30 62396 O 5793.12 4.4747 -3.51794 0
M  V30 62397 N 5794.32 5.48181 -1.90993 0
M  V30 62398 H 5797.09 1.47231 -2.61042 0
M  V30 62399 H 5794.65 0.665388 -1.47595 0
M  V30 62400 H 5796.64 3.75339 -1.51336 0
M  V30 62401 H 5795.21 3.04062 -0.725616 0
M  V30 62402 H 5794.43 2.39986 -3.12731 0
M  V30 62403 H 5795.72 3.45526 -3.73482 0
M  V30 62404 H 5795.12 5.5051 -1.30211 0
M  V30 62405 H 5793.68 6.24348 -1.8717 0
M  V30 62406 N 5797.11 1.39683 0.729833 0
M  V30 62407 C 5798.36 1.37187 1.48949 0
M  V30 62408 C 5798.68 -0.0305044 1.94476 0
M  V30 62409 O 5797.94 -1.01234 1.67482 0
M  V30 62410 C 5798.24 2.29509 2.73972 0
M  V30 62411 C 5797.9 3.77042 2.47285 0
M  V30 62412 C 5796.57 4.1724 2.39717 0
M  V30 62413 C 5798.92 4.70333 2.24581 0
M  V30 62414 C 5796.25 5.48784 2.07492 0
M  V30 62415 C 5798.6 6.0216 1.93872 0
M  V30 62416 C 5797.26 6.41416 1.84776 0
M  V30 62417 H 5796.53 0.502004 0.545044 0
M  V30 62418 H 5799.18 1.72228 0.837234 0
M  V30 62419 H 5797.48 1.87604 3.43965 0
M  V30 62420 H 5799.18 2.24869 3.32017 0
M  V30 62421 H 5795.77 3.45186 2.54057 0
M  V30 62422 H 5799.95 4.40105 2.29392 0
M  V30 62423 H 5795.21 5.78116 1.98976 0
M  V30 62424 H 5799.38 6.73972 1.75314 0
M  V30 62425 H 5797.01 7.43264 1.59572 0
M  V30 62426 N 5798.59 -0.960565 1.24944 0
M  V30 62427 C 5799.52 -2.07396 1.07281 0
M  V30 62428 C 5800.5 -1.70092 -0.0163767 0
M  V30 62429 O 5801.68 -1.93604 0.152043 0
M  V30 62430 C 5798.81 -3.40489 0.684437 0
M  V30 62431 C 5797.77 -3.91778 1.72319 0
M  V30 62432 C 5797.09 -5.21297 1.18968 0
M  V30 62433 C 5798.39 -4.18818 3.12071 0
M  V30 62434 H 5800.09 -2.22431 2.00412 0
M  V30 62435 H 5797.63 -1.06884 0.964975 0
M  V30 62436 H 5799.59 -4.17824 0.547833 0
M  V30 62437 H 5798.31 -3.25375 -0.282573 0
M  V30 62438 H 5796.97 -3.16606 1.84813 0
M  V30 62439 H 5796.62 -5.02549 0.213068 0
M  V30 62440 H 5796.32 -5.56582 1.8839 0
M  V30 62441 H 5797.84 -6.01234 1.06534 0
M  V30 62442 H 5799.25 -4.86833 3.02765 0
M  V30 62443 H 5797.65 -4.65346 3.7891 0
M  V30 62444 H 5798.72 -3.2532 3.59576 0
M  V30 62445 N 5800.06 -1.06434 -1.16231 0
M  V30 62446 C 5800.97 -0.687525 -2.24299 0
M  V30 62447 C 5801.99 0.297072 -1.71445 0
M  V30 62448 O 5803.17 0.146031 -2.0087 0
M  V30 62449 C 5800.23 -0.0812192 -3.46605 0
M  V30 62450 C 5799.29 -1.11786 -4.1449 0
M  V30 62451 C 5798.53 -0.540396 -5.30957 0
M  V30 62452 O 5798.75 0.64642 -5.66725 0
M  V30 62453 O 5797.68 -1.28078 -5.88115 0
M  V30 62454 H 5801.51 -1.58851 -2.58844 0
M  V30 62455 H 5799.09 -0.836693 -1.23773 0
M  V30 62456 H 5800.98 0.255092 -4.20627 0
M  V30 62457 H 5799.65 0.793228 -3.13831 0
M  V30 62458 H 5798.56 -1.50638 -3.42431 0
M  V30 62459 H 5799.89 -1.96389 -4.51323 0
M  V30 62460 N 5801.54 1.32897 -0.84712 0
M  V30 62461 C 5802.77 2.01416 -0.4599 0
M  V30 62462 C 5803.18 1.6386 0.945863 0
M  V30 62463 O 5802.52 0.852003 1.62747 0
M  V30 62464 C 5802.59 3.55857 -0.510501 0
M  V30 62465 C 5802.25 4.16817 -1.87383 0
M  V30 62466 C 5803.25 4.35592 -2.83823 0
M  V30 62467 C 5800.93 4.5306 -2.16892 0
M  V30 62468 C 5802.93 4.89768 -4.07929 0
M  V30 62469 C 5800.61 5.06941 -3.41253 0
M  V30 62470 C 5801.61 5.25243 -4.36588 0
M  V30 62471 O 5801.3 5.77976 -5.58748 0
M  V30 62472 H 5801.03 0.651602 -0.179975 0
M  V30 62473 H 5803.58 1.7062 -1.14359 0
M  V30 62474 H 5801.81 3.86015 0.230009 0
M  V30 62475 H 5803.5 4.05659 -0.139946 0
M  V30 62476 H 5804.27 4.07933 -2.62328 0
M  V30 62477 H 5800.15 4.38105 -1.43476 0
M  V30 62478 H 5803.69 5.03968 -4.82351 0
M  V30 62479 H 5799.59 5.34032 -3.62602 0
M  V30 62480 H 5800.36 5.96379 -5.60602 0
M  V30 62481 N 5803.02 0.604335 1.45553 0
M  V30 62482 C 5803.93 -0.118326 2.34301 0
M  V30 62483 C 5804.95 -0.863754 1.51047 0
M  V30 62484 O 5806.12 -0.822073 1.83858 0
M  V30 62485 C 5803.19 -1.10527 3.2861 0
M  V30 62486 C 5802.25 -0.362151 4.2777 0
M  V30 62487 C 5801.48 -1.30208 5.17573 0
M  V30 62488 O 5801.7 -2.53973 5.10738 0
M  V30 62489 O 5800.64 -0.800906 5.96548 0
M  V30 62490 H 5804.46 0.61092 2.97492 0
M  V30 62491 H 5802.05 0.364612 1.44882 0
M  V30 62492 H 5803.93 -1.67378 3.86733 0
M  V30 62493 H 5802.61 -1.8156 2.67988 0
M  V30 62494 H 5801.51 0.248747 3.73272 0
M  V30 62495 H 5802.85 0.307627 4.91238 0
M  V30 62496 N 5804.5 -1.53815 0.343311 0
M  V30 62497 C 5805.43 -2.27953 -0.505925 0
M  V30 62498 C 5806.41 -1.29506 -1.10283 0
M  V30 62499 O 5807.59 -1.58348 -1.12426 0
M  V30 62500 C 5804.72 -3.05216 -1.65712 0
M  V30 62501 C 5803.68 -4.11165 -1.18857 0
M  V30 62502 C 5803 -4.76381 -2.42827 0
M  V30 62503 C 5804.3 -5.21499 -0.289219 0
M  V30 62504 H 5806 -2.99188 0.11254 0
M  V30 62505 H 5803.54 -1.43893 0.0555666 0
M  V30 62506 H 5805.5 -3.55819 -2.25767 0
M  V30 62507 H 5804.22 -2.31632 -2.30248 0
M  V30 62508 H 5802.88 -3.61475 -0.610835 0
M  V30 62509 H 5802.53 -3.99392 -3.05769 0
M  V30 62510 H 5802.23 -5.47962 -2.12158 0
M  V30 62511 H 5803.75 -5.29768 -3.03608 0
M  V30 62512 H 5805.17 -5.67739 -0.796609 0
M  V30 62513 H 5803.56 -6.00054 -0.0744256 0
M  V30 62514 H 5804.63 -4.80183 0.674712 0
M  V30 62515 N 5805.98 -0.0719254 -1.57436 0
M  V30 62516 C 5806.92 0.912951 -2.13934 0
M  V30 62517 C 5807.92 1.30816 -1.07627 0
M  V30 62518 O 5809.12 1.28539 -1.26007 0
M  V30 62519 H 5805.5 0.312356 -0.68406 0
M  V30 62520 H 5807.47 0.411509 -2.95549 0
M  V30 62521 C 5806.22 2.17099 -2.71594 0
M  V30 62522 H 5805.54 1.87573 -3.53067 0
M  V30 62523 H 5806.98 2.84123 -3.14722 0
M  V30 62524 C 5805.44 2.92961 -1.6636 0
M  V30 62525 O 5805.97 3.86666 -1.08868 0
M  V30 62526 N 5804.18 2.5607 -1.37392 0
M  V30 62527 H 5803.72 1.79942 -1.84333 0
M  V30 62528 H 5803.68 3.07131 -0.672147 0
M  V30 62529 N 5807.45 1.56305 0.201631 0
M  V30 62530 C 5808.7 1.80507 0.924397 0
M  V30 62531 C 5809.03 0.644897 1.83179 0
M  V30 62532 O 5808.31 -0.354896 1.91235 0
M  V30 62533 C 5808.59 3.14925 1.74625 0
M  V30 62534 C 5808.44 4.41424 0.864014 0
M  V30 62535 C 5809.76 3.45972 2.72014 0
M  V30 62536 H 5806.88 0.656655 0.334624 0
M  V30 62537 H 5809.52 1.89026 0.192122 0
M  V30 62538 H 5807.67 3.07794 2.37056 0
M  V30 62539 H 5809.35 4.60595 0.254922 0
M  V30 62540 H 5807.59 4.33465 0.170396 0
M  V30 62541 H 5808.26 5.31959 1.4739 0
M  V30 62542 H 5810.74 3.5336 2.19717 0
M  V30 62543 H 5809.61 4.41157 3.26606 0
M  V30 62544 H 5809.87 2.69136 3.50739 0
M  V30 62545 N 5808.93 -0.469102 1.50457 0
M  V30 62546 C 5809.86 -1.57486 1.72396 0
M  V30 62547 C 5810.84 -1.60159 0.572971 0
M  V30 62548 O 5812.03 -1.76394 0.812321 0
M  V30 62549 C 5809.16 -2.95798 1.81992 0
M  V30 62550 C 5808.11 -3.07991 2.97196 0
M  V30 62551 C 5807.44 -4.47969 2.91937 0
M  V30 62552 C 5808.74 -2.85023 4.37675 0
M  V30 62553 H 5810.43 -1.3938 2.64979 0
M  V30 62554 H 5807.98 -0.669089 1.27512 0
M  V30 62555 H 5809.93 -3.73084 1.95924 0
M  V30 62556 H 5808.66 -3.15065 0.860321 0
M  V30 62557 H 5807.32 -2.33138 2.82918 0
M  V30 62558 H 5806.96 -4.64158 1.9382 0
M  V30 62559 H 5806.66 -4.57063 3.69279 0
M  V30 62560 H 5808.19 -5.27273 3.07921 0
M  V30 62561 H 5809.6 -3.52058 4.52469 0
M  V30 62562 H 5808 -3.0556 5.16482 0
M  V30 62563 H 5809.07 -1.80865 4.49907 0
M  V30 62564 N 5810.41 -1.40068 -0.722415 0
M  V30 62565 C 5811.66 -1.37703 -1.47927 0
M  V30 62566 C 5811.98 0.0221923 -1.94987 0
M  V30 62567 O 5811.25 0.975735 -1.69871 0
M  V30 62568 H 5809.83 -0.506785 -0.548797 0
M  V30 62569 H 5812.49 -1.75056 -0.856822 0
M  V30 62570 H 5811.59 -2.04764 -2.35538 0
M  V30 62571 N 5811.89 0.953925 -1.25451 0
M  V30 62572 C 5813.12 1.73327 -1.12984 0
M  V30 62573 C 5813.53 1.86132 0.316298 0
M  V30 62574 O 5812.89 1.35955 1.21748 0
M  V30 62575 C 5812.94 3.14669 -1.77949 0
M  V30 62576 O 5812.66 3.02489 -3.1691 0
M  V30 62577 C 5814.16 4.08878 -1.71271 0
M  V30 62578 H 5811.38 0.543104 -0.394055 0
M  V30 62579 H 5813.93 1.19672 -1.65827 0
M  V30 62580 H 5812.08 3.65265 -1.29074 0
M  V30 62581 H 5812.5 3.91656 -3.48864 0
M  V30 62582 H 5813.97 5.0566 -2.21386 0
M  V30 62583 H 5814.45 4.33957 -0.676629 0
M  V30 62584 H 5815.05 3.64197 -2.19637 0
M  V30 62585 N 5813.37 1.07049 1.15665 0
M  V30 62586 C 5814.32 0.657937 2.18301 0
M  V30 62587 C 5815.3 -0.31535 1.57779 0
M  V30 62588 O 5816.49 -0.129569 1.76525 0
M  V30 62589 C 5813.62 0.0540049 3.43258 0
M  V30 62590 C 5812.71 1.05225 4.10839 0
M  V30 62591 N 5813.1 2.23067 4.53955 0
M  V30 62592 C 5811.4 0.884893 4.37133 0
M  V30 62593 C 5812.1 2.86372 5.06326 0
M  V30 62594 N 5811.07 2.14055 4.99681 0
M  V30 62595 H 5814.88 1.5555 2.49362 0
M  V30 62596 H 5812.39 0.943247 1.32199 0
M  V30 62597 H 5814.39 -0.259429 4.16092 0
M  V30 62598 H 5813.05 -0.838719 3.13681 0
M  V30 62599 H 5814.06 2.60801 4.4744 0
M  V30 62600 H 5810.74 0.0448043 4.17476 0
M  V30 62601 H 5812.13 3.86413 5.49668 0
M  V30 62602 N 5814.85 -1.32446 0.854156 0
M  V30 62603 C 5815.79 -2.28889 0.296422 0
M  V30 62604 C 5816.76 -1.55026 -0.596323 0
M  V30 62605 O 5817.95 -1.83252 -0.531341 0
M  V30 62606 C 5815.09 -3.41317 -0.509609 0
M  V30 62607 C 5814.2 -4.30061 0.408872 0
M  V30 62608 C 5813.34 -5.29617 -0.409742 0
M  V30 62609 C 5812.37 -6.10004 0.506167 0
M  V30 62610 N 5811.51 -7.0156 -0.275236 0
M  V30 62611 H 5816.35 -2.75985 1.1241 0
M  V30 62612 H 5813.89 -1.35785 0.565765 0
M  V30 62613 H 5815.85 -4.05221 -0.992554 0
M  V30 62614 H 5814.48 -2.95372 -1.30212 0
M  V30 62615 H 5813.53 -3.66741 1.0102 0
M  V30 62616 H 5814.84 -4.86251 1.11182 0
M  V30 62617 H 5813.99 -5.99123 -0.955872 0
M  V30 62618 H 5812.73 -4.74043 -1.14606 0
M  V30 62619 H 5811.74 -5.39403 1.06419 0
M  V30 62620 H 5812.96 -6.67663 1.24109 0
M  V30 62621 H 5810.91 -6.48415 -0.994659 0
M  V30 62622 H 5810.83 -7.551 0.368692 0
M  V30 62623 H 5812.09 -7.75352 -0.803109 0
M  V30 62624 N 5816.32 -0.612045 -1.4523 0
M  V30 62625 C 5817.57 -0.106538 -2.01418 0
M  V30 62626 C 5817.89 1.27225 -1.4857 0
M  V30 62627 O 5819.09 1.87073 -1.96764 0
M  V30 62628 C 5817.55 -0.139766 -3.59629 0
M  V30 62629 C 5817.16 -1.51868 -4.21474 0
M  V30 62630 C 5818.9 0.310269 -4.23365 0
M  V30 62631 C 5816.81 -1.50805 -5.71849 0
M  V30 62632 H 5815.74 -0.0360609 -0.753137 0
M  V30 62633 H 5818.39 -0.768033 -1.66654 0
M  V30 62634 H 5816.77 0.588468 -3.91603 0
M  V30 62635 H 5817.94 -2.26898 -4.01066 0
M  V30 62636 H 5816.26 -1.91118 -3.6995 0
M  V30 62637 H 5818.86 0.337468 -5.33634 0
M  V30 62638 H 5819.2 1.33384 -3.94353 0
M  V30 62639 H 5819.73 -0.364844 -3.96123 0
M  V30 62640 H 5816.47 -2.50937 -6.05567 0
M  V30 62641 H 5815.99 -0.800404 -5.94436 0
M  V30 62642 H 5817.67 -1.23363 -6.3513 0
M  V30 62643 N 5817.8 1.53631 -0.351463 0
M  V30 62644 C 5818.71 2.28992 0.509904 0
M  V30 62645 C 5819.73 1.34407 1.10502 0
M  V30 62646 O 5820.9 1.67452 1.119 0
M  V30 62647 C 5817.97 3.05398 1.64113 0
M  V30 62648 C 5817.03 4.15623 1.07499 0
M  V30 62649 C 5816.26 4.88376 2.15231 0
M  V30 62650 O 5816.49 4.60866 3.36094 0
M  V30 62651 O 5815.42 5.74642 1.7908 0
M  V30 62652 H 5819.25 3.03526 -0.102937 0
M  V30 62653 H 5816.83 1.48947 -0.116266 0
M  V30 62654 H 5818.71 3.53154 2.29914 0
M  V30 62655 H 5817.39 2.33713 2.23964 0
M  V30 62656 H 5816.29 3.72152 0.38129 0
M  V30 62657 H 5817.63 4.89432 0.521241 0
M  V30 62658 N 5819.28 0.0802736 1.57395 0
M  V30 62659 C 5820.56 -0.628353 1.85233 0
M  V30 62660 C 5820.94 -1.87269 0.974354 0
M  V30 62661 O 5820.28 -2.2846 0.042849 0
M  V30 62662 C 5820.49 -0.957915 3.35596 0
M  V30 62663 C 5821.84 -1.32776 4.03306 0
M  V30 62664 O 5822.87 -1.04939 3.40391 0
M  V30 62665 O 5821.73 -1.84847 5.1429 0
M  V30 62666 H 5818.82 -0.312918 0.765514 0
M  V30 62667 H 5821.37 0.111848 1.69331 0
M  V30 62668 H 5820.14 -0.0745105 3.91229 0
M  V30 62669 H 5819.76 -1.75459 3.56791 0
M  V30 62670 N 5820.76 -1.5641 -0.193339 0
M  V30 62671 C 5822.01 -1.8037 -0.911653 0
M  V30 62672 C 5822.33 -0.653626 -1.83719 0
M  V30 62673 O 5821.6 0.327934 -1.93136 0
M  V30 62674 H 5820.18 -0.665328 -0.339628 0
M  V30 62675 H 5822.84 -1.93887 -0.198427 0
M  V30 62676 H 5821.93 -2.73596 -1.50173 0
M  V30 62677 N 5822.24 0.461116 -1.50703 0
M  V30 62678 C 5823.46 1.23548 -1.65962 0
M  V30 62679 C 5823.88 1.85583 -0.347042 0
M  V30 62680 O 5823.24 1.69675 0.67207 0
M  V30 62681 C 5823.29 2.33694 -2.75807 0
M  V30 62682 O 5823.01 1.74201 -4.01977 0
M  V30 62683 C 5824.51 3.24398 -3.02127 0
M  V30 62684 H 5821.73 0.373279 -0.557587 0
M  V30 62685 H 5824.27 0.549269 -1.96985 0
M  V30 62686 H 5822.43 2.98073 -2.4745 0
M  V30 62687 H 5822.84 2.46811 -4.62801 0
M  V30 62688 H 5824.32 3.97872 -3.82625 0
M  V30 62689 H 5824.79 3.83766 -2.13589 0
M  V30 62690 H 5825.4 2.65746 -3.32053 0
M  V30 62691 N 5823.71 1.40449 0.714977 0
M  V30 62692 C 5824.64 1.43517 1.84188 0
M  V30 62693 C 5825.63 0.296028 1.67504 0
M  V30 62694 O 5826.81 0.504733 1.87526 0
M  V30 62695 C 5823.94 1.29763 3.22147 0
M  V30 62696 C 5822.89 2.41286 3.53504 0
M  V30 62697 C 5822.22 2.12608 4.90614 0
M  V30 62698 C 5823.52 3.83627 3.5444 0
M  V30 62699 H 5825.21 2.37826 1.81877 0
M  V30 62700 H 5822.76 1.14473 0.873615 0
M  V30 62701 H 5824.71 1.30526 4.00676 0
M  V30 62702 H 5823.44 0.319304 3.25035 0
M  V30 62703 H 5822.1 2.39774 2.77316 0
M  V30 62704 H 5821.74 1.13165 4.90105 0
M  V30 62705 H 5821.44 2.87326 5.1256 0
M  V30 62706 H 5822.97 2.15054 5.71475 0
M  V30 62707 H 5824.38 3.8696 4.23007 0
M  V30 62708 H 5822.78 4.57869 3.87913 0
M  V30 62709 H 5823.85 4.13167 2.53812 0
M  V30 62710 N 5825.19 -0.947259 1.25955 0
M  V30 62711 C 5826.16 -2.02663 1.07053 0
M  V30 62712 C 5827.16 -1.60786 0.0208692 0
M  V30 62713 O 5828.35 -1.72192 0.263729 0
M  V30 62714 C 5825.48 -3.35084 0.627002 0
M  V30 62715 H 5826.67 -2.20863 2.02878 0
M  V30 62716 H 5824.22 -1.12538 1.08466 0
M  V30 62717 H 5824.96 -3.22581 -0.333507 0
M  V30 62718 H 5824.74 -3.6683 1.38486 0
M  V30 62719 H 5826.23 -4.14395 0.51641 0
M  V30 62720 N 5826.67 -1.07661 -1.15095 0
M  V30 62721 C 5827.9 -0.822977 -1.90373 0
M  V30 62722 C 5828.32 0.618353 -1.77646 0
M  V30 62723 O 5827.68 1.43244 -1.11134 0
M  V30 62724 C 5827.73 -1.23999 -3.3861 0
M  V30 62725 O 5826.83 -0.387229 -4.10578 0
M  V30 62726 H 5826.17 -0.299553 -0.592591 0
M  V30 62727 H 5828.7 -1.43605 -1.45735 0
M  V30 62728 H 5828.71 -1.21755 -3.8941 0
M  V30 62729 H 5827.39 -2.28978 -3.47191 0
M  V30 62730 H 5825.96 -0.472441 -3.69895 0
M  V30 62731 N 5828.15 1.31991 -0.861168 0
M  V30 62732 C 5829.1 2.28728 -0.308556 0
M  V30 62733 C 5830.07 1.5534 0.588093 0
M  V30 62734 O 5831.25 1.83532 0.521615 0
M  V30 62735 C 5828.39 3.41582 0.491501 0
M  V30 62736 C 5827.5 4.29838 -0.431673 0
M  V30 62737 C 5826.64 5.29827 0.38165 0
M  V30 62738 C 5825.68 6.09727 -0.53851 0
M  V30 62739 N 5824.81 7.01696 0.238027 0
M  V30 62740 H 5829.65 2.75385 -1.13872 0
M  V30 62741 H 5827.19 1.35483 -0.572958 0
M  V30 62742 H 5829.15 4.05742 0.97105 0
M  V30 62743 H 5827.78 2.96058 1.28644 0
M  V30 62744 H 5826.83 3.662 -1.02964 0
M  V30 62745 H 5828.14 4.85654 -1.1376 0
M  V30 62746 H 5827.3 5.99621 0.924086 0
M  V30 62747 H 5826.04 4.74644 1.12091 0
M  V30 62748 H 5825.04 5.38831 -1.09278 0
M  V30 62749 H 5826.27 6.66995 -1.27648 0
M  V30 62750 H 5824.21 6.48934 0.960258 0
M  V30 62751 H 5824.13 7.54894 -0.408731 0
M  V30 62752 H 5825.4 7.75767 0.761979 0
M  V30 62753 N 5829.63 0.619739 1.44903 0
M  V30 62754 C 5830.85 0.126436 2.06513 0
M  V30 62755 C 5831.27 -1.19427 1.46228 0
M  V30 62756 O 5830.63 -1.73008 0.580912 0
M  V30 62757 C 5830.68 -0.0066961 3.61499 0
M  V30 62758 O 5830.4 1.26177 4.19537 0
M  V30 62759 C 5831.9 -0.530034 4.4012 0
M  V30 62760 H 5829.12 0.0744266 0.66686 0
M  V30 62761 H 5831.66 0.850916 1.85956 0
M  V30 62762 H 5829.82 -0.68156 3.81357 0
M  V30 62763 H 5830.23 1.09926 5.12851 0
M  V30 62764 H 5831.71 -0.572235 5.49026 0
M  V30 62765 H 5832.18 -1.5548 4.10759 0
M  V30 62766 H 5832.79 0.111193 4.25155 0
M  V30 62767 N 5831.1 -1.53442 0.359606 0
M  V30 62768 C 5832.05 -2.25545 -0.489691 0
M  V30 62769 C 5833.02 -1.25986 -1.08244 0
M  V30 62770 O 5834.21 -1.54755 -1.11605 0
M  V30 62771 C 5831.35 -3.04364 -1.62655 0
M  V30 62772 C 5830.46 -4.18805 -1.05956 0
M  V30 62773 C 5829.59 -4.85077 -2.16503 0
M  V30 62774 C 5828.63 -5.91559 -1.57238 0
M  V30 62775 N 5827.77 -6.51547 -2.61594 0
M  V30 62776 H 5832.61 -2.97709 0.131685 0
M  V30 62777 H 5830.15 -1.469 0.0767572 0
M  V30 62778 H 5832.11 -3.48332 -2.2961 0
M  V30 62779 H 5830.74 -2.34467 -2.21868 0
M  V30 62780 H 5829.79 -3.79365 -0.280465 0
M  V30 62781 H 5831.1 -4.95343 -0.586208 0
M  V30 62782 H 5830.25 -5.32198 -2.91291 0
M  V30 62783 H 5828.99 -4.07997 -2.67188 0
M  V30 62784 H 5828 -5.43806 -0.809627 0
M  V30 62785 H 5829.22 -6.70556 -1.07386 0
M  V30 62786 H 5827.17 -5.77323 -3.11503 0
M  V30 62787 H 5827.09 -7.23607 -2.18928 0
M  V30 62788 H 5828.35 -7.03318 -3.36102 0
M  V30 62789 N 5832.58 -0.0886195 -1.57351 0
M  V30 62790 C 5833.83 0.575468 -1.93734 0
M  V30 62791 C 5834.15 1.69122 -0.970704 0
M  V30 62792 O 5833.42 1.95888 -0.0216596 0
M  V30 62793 H 5832 0.215567 -0.71522 0
M  V30 62794 H 5834.66 -0.150431 -1.94319 0
M  V30 62795 H 5833.76 0.989875 -2.95986 0
M  V30 62796 N 5834.06 1.5651 0.185041 0
M  V30 62797 C 5835.29 1.8533 0.919795 0
M  V30 62798 C 5835.7 0.672356 1.76422 0
M  V30 62799 O 5835.06 -0.358791 1.78938 0
M  V30 62800 C 5835.11 3.13053 1.80776 0
M  V30 62801 O 5834.83 4.26595 0.997419 0
M  V30 62802 C 5836.33 3.55123 2.65335 0
M  V30 62803 H 5833.55 0.615205 0.267887 0
M  V30 62804 H 5836.1 2.03622 0.189266 0
M  V30 62805 H 5834.25 2.96628 2.4918 0
M  V30 62806 H 5834.67 4.9939 1.60345 0
M  V30 62807 H 5836.14 4.47431 3.2328 0
M  V30 62808 H 5836.62 2.78588 3.39537 0
M  V30 62809 H 5837.22 3.74113 2.02287 0
M  V30 62810 N 5835.54 -0.453117 1.50946 0
M  V30 62811 C 5836.79 -1.20384 1.62831 0
M  V30 62812 C 5837.11 -1.91557 0.337049 0
M  V30 62813 O 5836.37 -1.83577 -0.678088 0
M  V30 62814 C 5836.67 -2.25737 2.77088 0
M  V30 62815 C 5836.33 -1.71688 4.16934 0
M  V30 62816 C 5835 -1.5667 4.54981 0
M  V30 62817 C 5837.35 -1.31787 5.04264 0
M  V30 62818 C 5834.68 -1.002 5.7808 0
M  V30 62819 C 5837.03 -0.767517 6.27927 0
M  V30 62820 C 5835.69 -0.604108 6.64761 0
M  V30 62821 H 5834.96 -0.440515 0.595842 0
M  V30 62822 H 5837.61 -0.497169 1.84934 0
M  V30 62823 H 5835.91 -3.02381 2.49144 0
M  V30 62824 H 5837.61 -2.83615 2.83485 0
M  V30 62825 H 5834.2 -1.8435 3.86928 0
M  V30 62826 H 5838.38 -1.42216 4.75487 0
M  V30 62827 H 5833.64 -0.863016 6.05278 0
M  V30 62828 H 5837.81 -0.449749 6.94946 0
M  V30 62829 H 5835.44 -0.164396 7.60022 0
M  V30 62830 N 5837.02 -1.40826 -0.707518 0
M  V30 62831 C 5837.98 -1.41471 -1.80329 0
M  V30 62832 C 5838.98 -0.307199 -1.57838 0
M  V30 62833 O 5840.17 -0.566502 -1.64731 0
M  V30 62834 C 5837.3 -1.21437 -3.18537 0
M  V30 62835 H 5838.49 -2.39005 -1.81154 0
M  V30 62836 H 5836.05 -1.26793 -0.913963 0
M  V30 62837 H 5836.78 -0.24696 -3.23358 0
M  V30 62838 H 5836.57 -2.01669 -3.36262 0
M  V30 62839 H 5838.06 -1.24695 -3.98548 0
M  V30 62840 N 5838.5 0.940566 -1.26456 0
M  V30 62841 C 5839.45 2.0252 -1.04736 0
M  V30 62842 C 5840.43 1.60887 0.0204627 0
M  V30 62843 O 5841.62 1.75905 -0.196563 0
M  V30 62844 C 5838.75 3.36438 -0.682981 0
M  V30 62845 C 5837.84 3.84553 -1.78829 0
M  V30 62846 N 5838.23 4.05312 -3.02581 0
M  V30 62847 C 5836.53 4.13472 -1.67203 0
M  V30 62848 C 5837.23 4.45178 -3.74422 0
M  V30 62849 N 5836.2 4.51916 -3.02113 0
M  V30 62850 H 5840 2.16583 -1.98668 0
M  V30 62851 H 5837.52 1.12645 -1.16982 0
M  V30 62852 H 5839.52 4.13787 -0.508524 0
M  V30 62853 H 5838.18 3.23745 0.248859 0
M  V30 62854 H 5839.19 3.91984 -3.3848 0
M  V30 62855 H 5835.86 4.09565 -0.81013 0
M  V30 62856 H 5837.25 4.69426 -4.80717 0
M  V30 62857 N 5839.97 1.0827 1.14523 0
M  V30 62858 C 5841.39 0.810049 1.37515 0
M  V30 62859 C 5841.59 -0.581331 1.92932 0
M  V30 62860 O 5840.65 -1.33838 2.14111 0
M  V30 62861 C 5841.96 1.89157 2.33752 0
M  V30 62862 C 5843.51 1.91742 2.47394 0
M  V30 62863 C 5843.98 2.99004 3.4693 0
M  V30 62864 N 5845.47 2.98167 3.54472 0
M  V30 62865 C 5846.21 3.77806 4.31335 0
M  V30 62866 N 5845.7 4.6732 5.11453 0
M  V30 62867 N 5847.5 3.66114 4.26518 0
M  V30 62868 H 5839.65 1.97991 0.768978 0
M  V30 62869 H 5841.91 0.859129 0.40075 0
M  V30 62870 H 5841.62 2.89182 2.00166 0
M  V30 62871 H 5841.49 1.75967 3.3364 0
M  V30 62872 H 5843.88 0.92363 2.80273 0
M  V30 62873 H 5843.96 2.09011 1.47473 0
M  V30 62874 H 5843.6 3.98589 3.14785 0
M  V30 62875 H 5843.53 2.78981 4.46629 0
M  V30 62876 H 5846.02 2.33287 2.97297 0
M  V30 62877 H 5846.34 5.24696 5.67374 0
M  V30 62878 H 5844.68 4.71363 5.10727 0
M  V30 62879 H 5847.87 2.95551 3.62997 0
M  V30 62880 H 5848.05 4.28419 4.8617 0
M  V30 62881 N 5841.45 -1.31533 0.868156 0
M  V30 62882 C 5842.73 -1.91489 0.398933 0
M  V30 62883 C 5843.11 -1.79012 -1.11884 0
M  V30 62884 O 5842.46 -1.19666 -1.94659 0
M  V30 62885 C 5842.67 -3.37768 0.878292 0
M  V30 62886 C 5844.01 -4.14879 0.903362 0
M  V30 62887 O 5845.04 -3.46542 0.823824 0
M  V30 62888 O 5843.9 -5.36932 1.01813 0
M  V30 62889 H 5840.99 -0.818394 0.119 0
M  V30 62890 H 5843.54 -1.40213 0.955949 0
M  V30 62891 H 5842.31 -3.40855 1.92182 0
M  V30 62892 H 5841.93 -3.9647 0.299485 0
M  V30 62893 N 5842.93 -0.627415 -1.44573 0
M  V30 62894 C 5844.18 -0.130423 -2.0208 0
M  V30 62895 C 5844.5 1.24637 -1.49318 0
M  V30 62896 O 5843.76 1.84019 -0.665988 0
M  V30 62897 C 5844.06 -0.0623666 -3.57346 0
M  V30 62898 C 5843.72 -1.37745 -4.29345 0
M  V30 62899 C 5842.39 -1.73763 -4.48731 0
M  V30 62900 C 5844.74 -2.24567 -4.70339 0
M  V30 62901 C 5842.07 -2.96318 -5.06372 0
M  V30 62902 C 5844.42 -3.46389 -5.29337 0
M  V30 62903 C 5843.08 -3.82636 -5.46943 0
M  V30 62904 H 5842.35 -0.0477251 -0.739462 0
M  V30 62905 H 5845 -0.812989 -1.73386 0
M  V30 62906 H 5843.3 0.703554 -3.85431 0
M  V30 62907 H 5845 0.338638 -3.99568 0
M  V30 62908 H 5841.59 -1.08714 -4.14583 0
M  V30 62909 H 5845.78 -1.98035 -4.55078 0
M  V30 62910 H 5841.03 -3.24483 -5.1819 0
M  V30 62911 H 5845.21 -4.13902 -5.60052 0
M  V30 62912 H 5842.83 -4.77684 -5.91373 0
M  V30 62913 N 5844.41 1.5325 -0.367738 0
M  V30 62914 C 5845.63 2.06181 0.224573 0
M  V30 62915 C 5846.06 1.23932 1.41501 0
M  V30 62916 O 5845.42 0.258921 1.79442 0
M  V30 62917 C 5845.46 3.55673 0.594046 0
M  V30 62918 O 5844.57 3.76138 1.69099 0
M  V30 62919 H 5843.91 0.663219 0.0321865 0
M  V30 62920 H 5846.44 1.97644 -0.528966 0
M  V30 62921 H 5846.45 3.98737 0.864448 0
M  V30 62922 H 5845.12 4.14981 -0.2764 0
M  V30 62923 H 5843.7 3.4497 1.41597 0
M  V30 62924 N 5845.89 0.096963 1.57301 0
M  V30 62925 C 5846.85 -0.846821 2.12983 0
M  V30 62926 C 5847.85 -1.20958 1.05952 0
M  V30 62927 O 5849.04 -1.13871 1.3183 0
M  V30 62928 C 5846.17 -2.14206 2.65195 0
M  V30 62929 H 5847.36 -0.363293 2.97691 0
M  V30 62930 H 5844.92 -0.152052 1.55559 0
M  V30 62931 H 5845.65 -2.6704 1.84012 0
M  V30 62932 H 5845.44 -1.89164 3.43452 0
M  V30 62933 H 5846.93 -2.81717 3.08262 0
M  V30 62934 N 5847.36 -1.56606 -0.176738 0
M  V30 62935 C 5848.27 -1.99216 -1.23896 0
M  V30 62936 C 5849.29 -0.902667 -1.48755 0
M  V30 62937 O 5850.47 -1.20987 -1.61009 0
M  V30 62938 C 5847.53 -2.33882 -2.5593 0
M  V30 62939 C 5846.59 -3.56632 -2.38981 0
M  V30 62940 C 5845.82 -3.89635 -3.64719 0
M  V30 62941 O 5846.05 -3.23678 -4.69668 0
M  V30 62942 O 5844.98 -4.83004 -3.59153 0
M  V30 62943 H 5848.81 -2.89831 -0.907296 0
M  V30 62944 H 5846.39 -1.44402 -0.383183 0
M  V30 62945 H 5848.27 -2.57173 -3.33827 0
M  V30 62946 H 5846.95 -1.46431 -2.88686 0
M  V30 62947 H 5845.86 -3.38566 -1.59134 0
M  V30 62948 H 5847.19 -4.44608 -2.11151 0
M  V30 62949 N 5848.84 0.445106 -1.51184 0
M  V30 62950 C 5850.07 1.21604 -1.67021 0
M  V30 62951 C 5850.48 1.8567 -0.363771 0
M  V30 62952 O 5849.82 1.71167 0.666903 0
M  V30 62953 C 5849.88 2.34695 -2.72321 0
M  V30 62954 C 5849.55 1.9106 -4.15145 0
M  V30 62955 C 5850.55 1.41839 -5.00178 0
M  V30 62956 C 5848.23 1.98988 -4.61204 0
M  V30 62957 C 5850.22 1.01124 -6.29327 0
M  V30 62958 C 5847.91 1.57884 -5.90352 0
M  V30 62959 C 5848.91 1.09033 -6.74241 0
M  V30 62960 O 5848.6 0.685086 -8.00976 0
M  V30 62961 H 5848.33 0.372906 -0.563842 0
M  V30 62962 H 5850.88 0.534638 -1.9832 0
M  V30 62963 H 5849.11 3.06088 -2.36319 0
M  V30 62964 H 5850.8 2.96585 -2.77114 0
M  V30 62965 H 5851.57 1.35115 -4.65799 0
M  V30 62966 H 5847.45 2.35958 -3.96037 0
M  V30 62967 H 5850.99 0.629242 -6.94756 0
M  V30 62968 H 5846.89 1.64275 -6.24247 0
M  V30 62969 H 5847.66 0.811629 -8.14466 0
M  V30 62970 N 5850.32 1.41199 0.70004 0
M  V30 62971 C 5851.23 1.45044 1.84389 0
M  V30 62972 C 5852.25 0.34147 1.70616 0
M  V30 62973 O 5853.42 0.588496 1.9261 0
M  V30 62974 C 5850.49 1.32622 3.20332 0
M  V30 62975 C 5849.55 2.53796 3.46245 0
M  V30 62976 C 5848.78 2.41957 4.75702 0
M  V30 62977 O 5849 1.44173 5.51879 0
M  V30 62978 O 5847.94 3.3163 5.023 0
M  V30 62979 H 5851.76 2.41538 1.84101 0
M  V30 62980 H 5849.35 1.22689 0.852515 0
M  V30 62981 H 5851.23 1.27961 4.01502 0
M  V30 62982 H 5849.91 0.392421 3.21313 0
M  V30 62983 H 5848.81 2.64034 2.65023 0
M  V30 62984 H 5850.15 3.45989 3.50075 0
M  V30 62985 N 5851.8 -0.933846 1.26953 0
M  V30 62986 C 5852.71 -2.06709 1.10944 0
M  V30 62987 C 5853.72 -1.73952 0.0410345 0
M  V30 62988 O 5854.9 -1.99889 0.246269 0
M  V30 62989 C 5851.96 -3.3845 0.751815 0
M  V30 62990 C 5851.03 -3.84945 1.90043 0
M  V30 62991 C 5850.26 -5.10399 1.55977 0
M  V30 62992 O 5850.48 -5.68503 0.464846 0
M  V30 62993 O 5849.42 -5.52114 2.39694 0
M  V30 62994 H 5853.24 -2.23126 2.06031 0
M  V30 62995 H 5850.83 -1.05198 1.06083 0
M  V30 62996 H 5852.71 -4.17589 0.565432 0
M  V30 62997 H 5851.38 -3.23255 -0.169589 0
M  V30 62998 H 5850.29 -3.06719 2.14183 0
M  V30 62999 H 5851.62 -4.04672 2.80182 0
M  V30 63000 N 5853.28 -1.08875 -1.13947 0
M  V30 63001 C 5854.55 -0.733944 -1.81308 0
M  V30 63002 C 5854.93 0.781755 -1.96091 0
M  V30 63003 O 5854.28 1.70206 -1.52454 0
M  V30 63004 C 5854.49 -1.46642 -3.16697 0
M  V30 63005 C 5855.84 -1.62857 -3.92126 0
M  V30 63006 O 5856.86 -1.42847 -3.26302 0
M  V30 63007 O 5855.72 -1.95911 -5.10178 0
M  V30 63008 H 5852.82 -0.263004 -0.784065 0
M  V30 63009 H 5855.36 -1.19062 -1.20923 0
M  V30 63010 H 5854.13 -2.49873 -3.0113 0
M  V30 63011 H 5853.76 -1.00155 -3.84779 0
M  V30 63012 N 5854.75 1.3107 -0.875119 0
M  V30 63013 C 5856 1.96128 -0.487653 0
M  V30 63014 C 5856.32 1.69486 0.964347 0
M  V30 63015 O 5855.59 1.01306 1.67672 0
M  V30 63016 H 5854.17 0.725643 -0.177345 0
M  V30 63017 H 5856.84 1.59783 -1.11604 0
M  V30 63018 H 5855.93 3.05263 -0.649681 0
M  V30 63019 N 5856.23 0.635073 1.44238 0
M  V30 63020 C 5857.18 -0.0674896 2.30701 0
M  V30 63021 C 5858.15 -0.832868 1.4371 0
M  V30 63022 O 5859.33 -0.813117 1.72607 0
M  V30 63023 C 5856.47 -1.04041 3.29043 0
M  V30 63024 C 5855.59 -0.27304 4.31136 0
M  V30 63025 C 5854.72 -1.23813 5.16569 0
M  V30 63026 C 5853.76 -0.460145 6.10368 0
M  V30 63027 N 5852.9 -1.3759 6.88486 0
M  V30 63028 H 5857.74 0.675758 2.90237 0
M  V30 63029 H 5855.28 0.345021 1.42997 0
M  V30 63030 H 5857.23 -1.61791 3.84551 0
M  V30 63031 H 5855.86 -1.75074 2.71199 0
M  V30 63032 H 5854.92 0.420448 3.78069 0
M  V30 63033 H 5856.23 0.332723 4.97689 0
M  V30 63034 H 5855.38 -1.88684 5.76614 0
M  V30 63035 H 5854.12 -1.87782 4.50099 0
M  V30 63036 H 5853.13 0.202029 5.49429 0
M  V30 63037 H 5854.35 0.174878 6.78875 0
M  V30 63038 H 5852.3 -2.00272 6.24682 0
M  V30 63039 H 5852.21 -0.824256 7.51493 0
M  V30 63040 H 5853.48 -2.01333 7.53051 0
M  V30 63041 N 5857.71 -1.53052 0.37586 0
M  V30 63042 C 5858.94 -2.05522 -0.210756 0
M  V30 63043 C 5859.35 -1.24842 -1.42166 0
M  V30 63044 O 5858.69 -0.284698 -1.8148 0
M  V30 63045 C 5858.75 -3.53419 -0.658423 0
M  V30 63046 C 5858.42 -4.54904 0.437185 0
M  V30 63047 C 5859.41 -5.03633 1.29034 0
M  V30 63048 C 5857.1 -4.98699 0.60037 0
M  V30 63049 C 5859.09 -5.94769 2.29192 0
M  V30 63050 C 5856.78 -5.89638 1.60531 0
M  V30 63051 C 5857.78 -6.37564 2.44951 0
M  V30 63052 O 5857.47 -7.26709 3.43729 0
M  V30 63053 H 5857.2 -0.674895 -0.038639 0
M  V30 63054 H 5859.75 -1.98294 0.535603 0
M  V30 63055 H 5857.98 -3.5822 -1.45655 0
M  V30 63056 H 5859.67 -3.88696 -1.16919 0
M  V30 63057 H 5860.44 -4.70539 1.17551 0
M  V30 63058 H 5856.32 -4.60976 -0.0469725 0
M  V30 63059 H 5859.86 -6.32099 2.95121 0
M  V30 63060 H 5855.76 -6.22147 1.72057 0
M  V30 63061 H 5856.53 -7.44734 3.39579 0
M  V30 63062 N 5859.19 -0.105304 -1.57248 0
M  V30 63063 C 5860.1 0.86393 -2.18113 0
M  V30 63064 C 5861.11 1.30278 -1.15342 0
M  V30 63065 O 5862.29 1.36859 -1.47755 0
M  V30 63066 C 5859.36 2.10131 -2.75764 0
M  V30 63067 C 5858.42 1.71569 -3.93526 0
M  V30 63068 C 5857.65 2.89408 -4.48418 0
M  V30 63069 O 5857.87 4.04435 -4.02229 0
M  V30 63070 O 5856.81 2.67284 -5.39298 0
M  V30 63071 H 5860.63 0.376025 -3.01363 0
M  V30 63072 H 5858.22 0.119591 -1.48921 0
M  V30 63073 H 5860.1 2.82627 -3.1257 0
M  V30 63074 H 5858.77 2.57954 -1.95554 0
M  V30 63075 H 5857.68 0.96222 -3.61514 0
M  V30 63076 H 5859.01 1.285 -4.7513 0
M  V30 63077 N 5860.67 1.56697 0.168431 0
M  V30 63078 C 5861.91 1.81797 0.882843 0
M  V30 63079 C 5862.24 0.682771 1.82656 0
M  V30 63080 O 5861.51 -0.297166 1.93633 0
M  V30 63081 H 5860.09 0.670647 0.329001 0
M  V30 63082 H 5862.75 1.94178 0.167557 0
M  V30 63083 H 5861.84 2.7595 1.45801 0
M  V30 63084 N 5862.14 -0.437082 1.51418 0
M  V30 63085 C 5863.07 -1.53794 1.75697 0
M  V30 63086 C 5864.06 -1.58908 0.606815 0
M  V30 63087 O 5865.24 -1.74632 0.849554 0
M  V30 63088 C 5862.37 -2.91871 1.88225 0
M  V30 63089 C 5861.32 -3.01618 3.03662 0
M  V30 63090 C 5860.65 -4.41676 3.01374 0
M  V30 63091 C 5861.95 -2.75675 4.43622 0
M  V30 63092 H 5863.64 -1.33728 2.67875 0
M  V30 63093 H 5861.19 -0.641891 1.28902 0
M  V30 63094 H 5863.14 -3.68844 2.03794 0
M  V30 63095 H 5861.87 -3.13169 0.926957 0
M  V30 63096 H 5860.53 -2.27084 2.87799 0
M  V30 63097 H 5860.17 -4.59943 2.03622 0
M  V30 63098 H 5859.87 -4.49127 3.78891 0
M  V30 63099 H 5861.4 -5.20623 3.19036 0
M  V30 63100 H 5862.81 -3.42382 4.59834 0
M  V30 63101 H 5861.21 -2.94536 5.22847 0
M  V30 63102 H 5862.28 -1.71281 4.53642 0
M  V30 63103 N 5863.62 -1.41568 -0.692542 0
M  V30 63104 C 5864.55 -1.39589 -1.8179 0
M  V30 63105 C 5865.57 -0.297596 -1.60057 0
M  V30 63106 O 5866.76 -0.559522 -1.69504 0
M  V30 63107 C 5863.86 -1.15518 -3.18605 0
M  V30 63108 C 5863.03 -2.37445 -3.6734 0
M  V30 63109 C 5862.09 -2.09185 -4.82834 0
M  V30 63110 O 5861.11 -2.82247 -4.94293 0
M  V30 63111 N 5862.32 -1.08397 -5.7029 0
M  V30 63112 H 5865.08 -2.36583 -1.83979 0
M  V30 63113 H 5862.64 -1.36219 -0.874978 0
M  V30 63114 H 5864.63 -0.945591 -3.93498 0
M  V30 63115 H 5863.2 -0.271096 -3.11422 0
M  V30 63116 H 5862.42 -2.74086 -2.83321 0
M  V30 63117 H 5863.71 -3.18675 -3.9664 0
M  V30 63118 H 5863.11 -0.47932 -5.63666 0
M  V30 63119 H 5861.67 -0.934269 -6.45069 0
M  V30 63120 N 5865.1 0.927101 -1.27446 0
M  V30 63121 C 5866.01 2.06118 -1.12038 0
M  V30 63122 C 5867.03 1.73927 -0.050259 0
M  V30 63123 O 5868.2 1.99755 -0.256866 0
M  V30 63124 C 5865.27 3.38047 -0.769753 0
M  V30 63125 C 5864.33 3.83931 -1.92081 0
M  V30 63126 C 5863.56 5.09564 -1.58682 0
M  V30 63127 O 5863.78 5.68248 -0.494989 0
M  V30 63128 O 5862.72 5.50836 -2.42619 0
M  V30 63129 H 5866.54 2.2203 -2.07211 0
M  V30 63130 H 5864.13 1.04634 -1.0664 0
M  V30 63131 H 5866.01 4.17284 -0.587569 0
M  V30 63132 H 5864.69 3.23341 0.152443 0
M  V30 63133 H 5863.59 3.05579 -2.15806 0
M  V30 63134 H 5864.93 4.0318 -2.82324 0
M  V30 63135 N 5866.58 1.09478 1.13368 0
M  V30 63136 C 5867.82 0.842263 1.85142 0
M  V30 63137 C 5868.18 -0.625379 1.81953 0
M  V30 63138 O 5867.47 -1.45459 1.24708 0
M  V30 63139 C 5867.67 1.3122 3.3244 0
M  V30 63140 C 5867.5 2.82399 3.49973 0
M  V30 63141 C 5866.27 3.50283 3.64184 0
M  V30 63142 C 5868.46 3.80539 3.45969 0
M  V30 63143 N 5866.45 4.89883 3.69983 0
M  V30 63144 C 5867.82 5.06095 3.58145 0
M  V30 63145 C 5869.87 3.73386 3.29374 0
M  V30 63146 C 5868.57 6.25345 3.55439 0
M  V30 63147 C 5870.6 4.92124 3.27975 0
M  V30 63148 C 5869.96 6.16524 3.40702 0
M  V30 63149 H 5866.06 0.361073 0.69365 0
M  V30 63150 H 5868.65 1.39526 1.35796 0
M  V30 63151 H 5866.82 0.786642 3.80351 0
M  V30 63152 H 5868.55 1.00495 3.92024 0
M  V30 63153 H 5865.3 3.00713 3.65881 0
M  V30 63154 H 5865.73 5.62603 3.76573 0
M  V30 63155 H 5870.37 2.78134 3.18436 0
M  V30 63156 H 5868.09 7.20896 3.6515 0
M  V30 63157 H 5871.67 4.88289 3.16331 0
M  V30 63158 H 5870.55 7.06862 3.39582 0
M  V30 63159 N 5868.06 -1.30604 0.882058 0
M  V30 63160 C 5868.97 -2.31966 0.350585 0
M  V30 63161 C 5869.98 -1.65222 -0.545692 0
M  V30 63162 O 5871.16 -1.96546 -0.439512 0
M  V30 63163 C 5868.22 -3.44038 -0.428803 0
M  V30 63164 C 5867.29 -4.26415 0.496877 0
M  V30 63165 C 5866.52 -5.33135 -0.245409 0
M  V30 63166 O 5866.74 -5.51082 -1.47189 0
M  V30 63167 O 5865.68 -6.00549 0.402978 0
M  V30 63168 H 5869.5 -2.7937 1.19105 0
M  V30 63169 H 5867.09 -1.34721 0.645801 0
M  V30 63170 H 5868.97 -4.12317 -0.870201 0
M  V30 63171 H 5867.64 -2.98774 -1.24562 0
M  V30 63172 H 5866.55 -3.60844 0.987026 0
M  V30 63173 H 5867.88 -4.75275 1.27962 0
M  V30 63174 N 5869.54 -0.642713 -1.43899 0
M  V30 63175 C 5870.78 -0.151549 -2.01531 0
M  V30 63176 C 5871.1 1.23514 -1.50895 0
M  V30 63177 O 5870.37 1.82297 -0.717261 0
M  V30 63178 H 5868.95 -0.0530353 -0.745115 0
M  V30 63179 H 5871.62 -0.83202 -1.76248 0
M  V30 63180 H 5870.71 -0.128104 -3.11837 0
M  V30 63181 N 5871.01 1.52851 -0.383971 0
M  V30 63182 C 5871.96 2.26296 0.453746 0
M  V30 63183 C 5872.93 1.27692 1.06226 0
M  V30 63184 O 5874.12 1.5651 1.09129 0
M  V30 63185 C 5871.26 3.06913 1.57793 0
M  V30 63186 C 5870.37 4.20437 0.992795 0
M  V30 63187 C 5869.5 4.8846 2.08759 0
M  V30 63188 C 5868.54 5.93986 1.47807 0
M  V30 63189 N 5867.68 6.55626 2.51195 0
M  V30 63190 H 5872.52 2.97462 -0.179031 0
M  V30 63191 H 5870.06 1.46759 -0.100118 0
M  V30 63192 H 5872.01 3.5194 2.2404 0
M  V30 63193 H 5870.64 2.37967 2.18109 0
M  V30 63194 H 5869.7 3.79763 0.220076 0
M  V30 63195 H 5871.01 4.96213 0.507329 0
M  V30 63196 H 5870.16 5.36764 2.82788 0
M  V30 63197 H 5868.9 4.12196 2.60663 0
M  V30 63198 H 5867.91 5.45025 0.72301 0
M  V30 63199 H 5869.13 6.72179 0.967042 0
M  V30 63200 H 5867.08 5.82206 3.02279 0
M  V30 63201 H 5866.99 7.26998 2.07389 0
M  V30 63202 H 5868.26 7.08576 3.2487 0
M  V30 63203 N 5872.49 0.113641 1.5719 0
M  V30 63204 C 5873.45 -0.824183 2.13869 0
M  V30 63205 C 5874.45 -1.19828 1.07229 0
M  V30 63206 O 5875.64 -1.12466 1.3303 0
M  V30 63207 C 5872.78 -2.11381 2.67452 0
M  V30 63208 H 5873.97 -0.331699 2.9806 0
M  V30 63209 H 5871.52 -0.135545 1.55711 0
M  V30 63210 H 5872.26 -2.65073 1.86834 0
M  V30 63211 H 5872.04 -1.85511 3.45439 0
M  V30 63212 H 5873.53 -2.78432 3.11232 0
M  V30 63213 N 5873.97 -1.56785 -0.160118 0
M  V30 63214 C 5874.92 -1.93684 -1.20293 0
M  V30 63215 C 5875.9 -0.806483 -1.39229 0
M  V30 63216 O 5877.1 -1.0698 -1.41011 0
M  V30 63217 C 5874.22 -2.30981 -2.53973 0
M  V30 63218 C 5873.31 -3.50557 -2.38685 0
M  V30 63219 N 5873.7 -4.67477 -1.93129 0
M  V30 63220 C 5872 -3.55384 -2.69477 0
M  V30 63221 C 5872.7 -5.49598 -1.90571 0
M  V30 63222 N 5871.68 -4.90946 -2.33395 0
M  V30 63223 H 5875.48 -2.81563 -0.842592 0
M  V30 63224 H 5872.99 -1.58169 -0.368296 0
M  V30 63225 H 5874.99 -2.55616 -3.29342 0
M  V30 63226 H 5873.65 -1.44447 -2.90801 0
M  V30 63227 H 5874.66 -4.91483 -1.63294 0
M  V30 63228 H 5871.34 -2.79357 -3.10267 0
M  V30 63229 H 5872.73 -6.53311 -1.56953 0
M  V30 63230 N 5875.45 0.429046 -1.51647 0
M  V30 63231 C 5876.38 1.5286 -1.76511 0
M  V30 63232 C 5877.36 1.58584 -0.615233 0
M  V30 63233 O 5878.54 1.74179 -0.858803 0
M  V30 63234 C 5875.67 2.90869 -1.8977 0
M  V30 63235 C 5874.63 3.00003 -3.05257 0
M  V30 63236 C 5873.95 4.40072 -3.03712 0
M  V30 63237 C 5875.25 2.73319 -4.45078 0
M  V30 63238 H 5876.95 1.32305 -2.68581 0
M  V30 63239 H 5874.49 0.635046 -1.29241 0
M  V30 63240 H 5876.45 3.67758 -2.05747 0
M  V30 63241 H 5875.17 3.12673 -0.943552 0
M  V30 63242 H 5873.83 2.25555 -2.88999 0
M  V30 63243 H 5873.48 4.58856 -2.06058 0
M  V30 63244 H 5873.18 4.47112 -3.81267 0
M  V30 63245 H 5874.7 5.18924 -3.21793 0
M  V30 63246 H 5876.12 3.39938 -4.61644 0
M  V30 63247 H 5874.51 2.91759 -5.24401 0
M  V30 63248 H 5875.58 1.68873 -4.54544 0
M  V30 63249 N 5876.93 1.41934 0.685024 0
M  V30 63250 C 5877.87 1.4483 1.82008 0
M  V30 63251 C 5878.87 0.325141 1.6625 0
M  V30 63252 O 5880.07 0.497674 1.72983 0
M  V30 63253 H 5876.45 0.453383 0.599956 0
M  V30 63254 H 5878.42 2.4047 1.76682 0
M  V30 63255 C 5877.17 1.35764 3.20099 0
M  V30 63256 H 5876.49 2.21481 3.32846 0
M  V30 63257 H 5877.93 1.41852 3.99567 0
M  V30 63258 C 5876.39 0.0712 3.36825 0
M  V30 63259 O 5876.92 -0.880017 3.91942 0
M  V30 63260 N 5875.13 -0.00832436 2.90599 0
M  V30 63261 H 5874.67 0.766514 2.45932 0
M  V30 63262 H 5874.63 -0.868453 3.02168 0
M  V30 63263 N 5878.4 -0.920329 1.27936 0
M  V30 63264 C 5879.65 -1.66334 1.14087 0
M  V30 63265 C 5879.97 -1.93108 -0.311256 0
M  V30 63266 O 5881.17 -2.65433 -0.570769 0
M  V30 63267 C 5879.63 -2.99617 1.99394 0
M  V30 63268 C 5879.24 -2.80515 3.49307 0
M  V30 63269 C 5880.98 -3.77468 1.94213 0
M  V30 63270 C 5878.89 -4.09398 4.26787 0
M  V30 63271 H 5877.82 -0.62392 0.423367 0
M  V30 63272 H 5880.47 -1.02184 1.52416 0
M  V30 63273 H 5878.85 -3.64865 1.53915 0
M  V30 63274 H 5880.02 -2.23988 4.02698 0
M  V30 63275 H 5878.34 -2.16085 3.55944 0
M  V30 63276 H 5880.94 -4.72988 2.49372 0
M  V30 63277 H 5881.28 -4.06066 0.917392 0
M  V30 63278 H 5881.81 -3.19028 2.37626 0
M  V30 63279 H 5878.55 -3.85975 5.29815 0
M  V30 63280 H 5878.07 -4.6556 3.78171 0
M  V30 63281 H 5879.75 -4.77705 4.36356 0
M  V30 63282 N 5879.88 -1.10078 -1.12786 0
M  V30 63283 C 5880.83 -0.746249 -2.18403 0
M  V30 63284 C 5881.8 0.275693 -1.63796 0
M  V30 63285 O 5882.98 0.155809 -1.90163 0
M  V30 63286 C 5880.12 -0.180226 -3.44629 0
M  V30 63287 C 5879.24 -1.25702 -4.13307 0
M  V30 63288 C 5878.37 -0.653038 -5.27171 0
M  V30 63289 C 5877.41 -1.71067 -5.87709 0
M  V30 63290 N 5876.55 -1.12722 -6.92992 0
M  V30 63291 H 5881.39 -1.65114 -2.48076 0
M  V30 63292 H 5878.92 -0.824811 -1.218 0
M  V30 63293 H 5880.88 0.165801 -4.1687 0
M  V30 63294 H 5879.51 0.687903 -3.15385 0
M  V30 63295 H 5878.56 -1.72023 -3.39282 0
M  V30 63296 H 5879.88 -2.05778 -4.54375 0
M  V30 63297 H 5879.03 -0.256243 -6.06159 0
M  V30 63298 H 5877.77 0.179199 -4.87371 0
M  V30 63299 H 5876.77 -2.11693 -5.07411 0
M  V30 63300 H 5878 -2.54569 -6.2958 0
M  V30 63301 H 5875.95 -0.316385 -6.55237 0
M  V30 63302 H 5875.86 -1.86487 -7.32638 0
M  V30 63303 H 5877.13 -0.756855 -7.75817 0
M  V30 63304 N 5881.36 1.30135 -0.888972 0
M  V30 63305 C 5882.58 2.00677 -0.523768 0
M  V30 63306 C 5883.01 1.6617 0.88142 0
M  V30 63307 O 5882.37 0.880474 1.58485 0
M  V30 63308 C 5882.42 3.53533 -0.710408 0
M  V30 63309 O 5881.52 4.1169 0.241922 0
M  V30 63310 H 5880.86 0.631266 -0.20591 0
M  V30 63311 H 5883.39 1.65887 -1.19761 0
M  V30 63312 H 5883.4 4.034 -0.610936 0
M  V30 63313 H 5882.08 3.77986 -1.73492 0
M  V30 63314 H 5880.65 3.72777 0.0958082 0
M  V30 63315 N 5882.84 0.650335 1.43556 0
M  V30 63316 C 5884.25 0.242695 1.85116 0
M  V30 63317 C 5884.6 -1.21011 1.54437 0
M  V30 63318 O 5883.73 -1.92328 0.991906 0
M  V30 63319 C 5884.32 0.433693 3.36013 0
M  V30 63320 C 5882.88 0.0803958 3.76314 0
M  V30 63321 C 5882.03 0.737938 2.67301 0
M  V30 63322 H 5884.98 0.854205 1.3375 0
M  V30 63323 H 5885 -0.321668 3.79138 0
M  V30 63324 H 5884.51 1.49115 3.5831 0
M  V30 63325 H 5882.61 -0.974577 3.59629 0
M  V30 63326 H 5882.72 0.50385 4.76443 0
M  V30 63327 H 5881.09 0.171438 2.54122 0
M  V30 63328 H 5881.87 1.79837 2.92427 0
M  V30 63329 N 5884.32 -1.52645 0.392072 0
M  V30 63330 C 5885.28 -2.25136 -0.429675 0
M  V30 63331 C 5886.28 -1.26875 -0.987901 0
M  V30 63332 O 5887.47 -1.5095 -0.869467 0
M  V30 63333 C 5884.6 -3.00854 -1.60311 0
M  V30 63334 H 5885.79 -2.99198 0.205023 0
M  V30 63335 H 5883.35 -1.55633 0.144242 0
M  V30 63336 H 5884.08 -2.311 -2.27516 0
M  V30 63337 H 5883.87 -3.72979 -1.20951 0
M  V30 63338 H 5885.36 -3.55887 -2.18482 0
M  V30 63339 N 5885.79 -0.121976 -1.57127 0
M  V30 63340 C 5887.04 0.535302 -1.95297 0
M  V30 63341 C 5887.37 1.66496 -1.00544 0
M  V30 63342 O 5886.62 1.95677 -0.0298817 0
M  V30 63343 C 5886.92 1.10568 -3.39867 0
M  V30 63344 C 5886.59 0.0970559 -4.50796 0
M  V30 63345 C 5885.25 -0.18028 -4.80862 0
M  V30 63346 C 5887.6 -0.590155 -5.17848 0
M  V30 63347 C 5884.93 -1.15106 -5.75298 0
M  V30 63348 C 5887.28 -1.54959 -6.13327 0
M  V30 63349 C 5885.95 -1.83488 -6.41785 0
M  V30 63350 H 5885.22 0.195881 -0.714641 0
M  V30 63351 H 5887.86 -0.203512 -1.90416 0
M  V30 63352 H 5886.17 1.92131 -3.41457 0
M  V30 63353 H 5887.87 1.62239 -3.66714 0
M  V30 63354 H 5884.46 0.323399 -4.27378 0
M  V30 63355 H 5888.64 -0.389064 -4.94773 0
M  V30 63356 H 5883.9 -1.37881 -5.9565 0
M  V30 63357 H 5888.07 -2.08774 -6.64369 0
M  V30 63358 H 5885.7 -2.58866 -7.14767 0
M  V30 63359 N 5887.27 1.56867 0.151801 0
M  V30 63360 C 5888.5 1.8724 0.880277 0
M  V30 63361 C 5888.92 0.709626 1.74956 0
M  V30 63362 O 5888.27 -0.320755 1.79659 0
M  V30 63363 C 5888.32 3.16817 1.74095 0
M  V30 63364 O 5888.04 4.28615 0.906707 0
M  V30 63365 C 5889.55 3.60671 2.57743 0
M  V30 63366 H 5886.77 0.620749 0.254778 0
M  V30 63367 H 5889.31 2.03978 0.146032 0
M  V30 63368 H 5887.46 3.01847 2.42832 0
M  V30 63369 H 5887.88 5.02678 1.49716 0
M  V30 63370 H 5889.35 4.54187 3.13716 0
M  V30 63371 H 5889.83 2.85727 3.33551 0
M  V30 63372 H 5890.44 3.78319 1.94306 0
M  V30 63373 N 5888.75 -0.420997 1.51873 0
M  V30 63374 C 5890.03 -1.18127 1.55902 0
M  V30 63375 C 5890.41 -2.08458 0.332949 0
M  V30 63376 O 5889.76 -2.18117 -0.680975 0
M  V30 63377 C 5889.97 -1.96891 2.88158 0
M  V30 63378 C 5891.31 -2.5337 3.40718 0
M  V30 63379 O 5892.34 -2.07085 2.89818 0
M  V30 63380 O 5891.2 -3.37831 4.29573 0
M  V30 63381 H 5888.29 -0.538699 0.627481 0
M  V30 63382 H 5890.84 -0.42874 1.64195 0
M  V30 63383 H 5889.61 -1.30646 3.68846 0
M  V30 63384 H 5889.23 -2.79175 2.83102 0
M  V30 63385 N 5890.23 -1.42295 -0.677488 0
M  V30 63386 C 5891.16 -1.4835 -1.80318 0
M  V30 63387 C 5892.14 -0.340335 -1.66661 0
M  V30 63388 O 5893.32 -0.554275 -1.86122 0
M  V30 63389 C 5890.45 -1.38258 -3.18594 0
M  V30 63390 C 5889.41 -2.50574 -3.46982 0
M  V30 63391 C 5888.73 -2.25541 -4.84805 0
M  V30 63392 C 5890.03 -3.92889 -3.44144 0
M  V30 63393 H 5891.73 -2.42564 -1.75508 0
M  V30 63394 H 5889.27 -1.16749 -0.842958 0
M  V30 63395 H 5891.23 -1.41103 -3.97074 0
M  V30 63396 H 5889.95 -0.405369 -3.24075 0
M  V30 63397 H 5888.61 -2.47042 -2.70861 0
M  V30 63398 H 5888.26 -1.26119 -4.86932 0
M  V30 63399 H 5887.96 -3.00814 -5.04762 0
M  V30 63400 H 5889.48 -2.3013 -5.65573 0
M  V30 63401 H 5890.9 -3.98039 -4.12599 0
M  V30 63402 H 5889.29 -4.67993 -3.75637 0
M  V30 63403 H 5890.36 -4.19752 -2.42769 0
M  V30 63404 N 5891.71 0.913531 -1.28423 0
M  V30 63405 C 5892.66 2.00253 -1.09008 0
M  V30 63406 C 5893.64 1.60894 -0.0136684 0
M  V30 63407 O 5894.83 1.75449 -0.233831 0
M  V30 63408 C 5891.96 3.34913 -0.75419 0
M  V30 63409 C 5891.05 3.80673 -1.86945 0
M  V30 63410 N 5891.44 3.98803 -3.11111 0
M  V30 63411 C 5889.74 4.09833 -1.75935 0
M  V30 63412 C 5890.44 4.37135 -3.83781 0
M  V30 63413 N 5889.41 4.45406 -3.11631 0
M  V30 63414 H 5893.22 2.1232 -2.03217 0
M  V30 63415 H 5890.73 1.10139 -1.19345 0
M  V30 63416 H 5892.73 4.12615 -0.59618 0
M  V30 63417 H 5891.39 3.242 0.180132 0
M  V30 63418 H 5892.4 3.84716 -3.46719 0
M  V30 63419 H 5889.07 4.07754 -0.896823 0
M  V30 63420 H 5890.46 4.59123 -4.90566 0
M  V30 63421 N 5893.18 1.10674 1.122 0
M  V30 63422 C 5894.11 0.779906 2.2009 0
M  V30 63423 C 5895.1 -0.24822 1.68279 0
M  V30 63424 O 5896.28 -0.113443 1.93868 0
M  V30 63425 C 5893.41 0.213633 3.46642 0
M  V30 63426 C 5892.36 1.17273 4.1162 0
M  V30 63427 C 5891.69 0.467539 5.32652 0
M  V30 63428 C 5892.99 2.5203 4.57469 0
M  V30 63429 H 5894.68 1.68201 2.47687 0
M  V30 63430 H 5892.23 0.810173 1.19047 0
M  V30 63431 H 5894.18 -0.0271743 4.21391 0
M  V30 63432 H 5892.91 -0.723725 3.1848 0
M  V30 63433 H 5891.57 1.39903 3.38855 0
M  V30 63434 H 5891.21 -0.474371 5.00758 0
M  V30 63435 H 5890.91 1.10715 5.77075 0
M  V30 63436 H 5892.44 0.235336 6.10146 0
M  V30 63437 H 5893.85 2.33534 5.23579 0
M  V30 63438 H 5892.25 3.11898 5.12679 0
M  V30 63439 H 5893.32 3.11844 3.71324 0
M  V30 63440 N 5894.66 -1.29661 0.89586 0
M  V30 63441 C 5896.08 -1.48238 0.591408 0
M  V30 63442 C 5896.28 -1.81842 -0.868086 0
M  V30 63443 O 5895.33 -1.91257 -1.64854 0
M  V30 63444 C 5896.65 -2.59809 1.51393 0
M  V30 63445 C 5898.2 -2.73686 1.51872 0
M  V30 63446 C 5898.67 -3.88381 2.42743 0
M  V30 63447 N 5900.16 -3.95708 2.40768 0
M  V30 63448 C 5900.9 -4.83793 3.07786 0
M  V30 63449 N 5900.39 -5.76596 3.84069 0
M  V30 63450 N 5902.19 -4.77252 2.96962 0
M  V30 63451 H 5894.34 -1.06125 1.83987 0
M  V30 63452 H 5896.6 -0.526791 0.788159 0
M  V30 63453 H 5896.31 -2.41832 2.55363 0
M  V30 63454 H 5896.18 -3.56527 1.23159 0
M  V30 63455 H 5898.57 -2.91063 0.486478 0
M  V30 63456 H 5898.65 -1.77554 1.84141 0
M  V30 63457 H 5898.29 -3.71761 3.46059 0
M  V30 63458 H 5898.22 -4.83873 2.07784 0
M  V30 63459 H 5900.71 -3.29328 1.85342 0
M  V30 63460 H 5901.03 -6.40596 4.3227 0
M  V30 63461 H 5899.37 -5.76493 3.88176 0
M  V30 63462 H 5902.56 -4.03736 2.36886 0
M  V30 63463 H 5902.73 -5.45689 3.49468 0
M  V30 63464 N 5896.14 -0.657939 -1.43209 0
M  V30 63465 C 5897.37 -0.180882 -2.05807 0
M  V30 63466 C 5897.78 1.16052 -1.49428 0
M  V30 63467 O 5897.12 1.72847 -0.622063 0
M  V30 63468 C 5897.18 -0.0203621 -3.59494 0
M  V30 63469 C 5896.85 -1.2878 -4.3848 0
M  V30 63470 C 5897.84 -2.21758 -4.70233 0
M  V30 63471 C 5895.53 -1.5307 -4.78409 0
M  V30 63472 C 5897.52 -3.37316 -5.4083 0
M  V30 63473 C 5895.21 -2.6892 -5.48749 0
M  V30 63474 C 5896.21 -3.60868 -5.79882 0
M  V30 63475 O 5895.9 -4.74694 -6.48784 0
M  V30 63476 H 5895.63 -0.0894181 -0.67006 0
M  V30 63477 H 5898.18 -0.90019 -1.84623 0
M  V30 63478 H 5896.41 0.754363 -3.79271 0
M  V30 63479 H 5898.1 0.414657 -4.03776 0
M  V30 63480 H 5898.87 -2.04236 -4.39901 0
M  V30 63481 H 5894.75 -0.823802 -4.5358 0
M  V30 63482 H 5898.29 -4.09105 -5.65048 0
M  V30 63483 H 5894.19 -2.86374 -5.78498 0
M  V30 63484 H 5894.96 -4.7402 -6.67269 0
M  V30 63485 N 5897.62 1.52435 -0.400162 0
M  V30 63486 C 5898.55 2.24434 0.464959 0
M  V30 63487 C 5899.56 1.27071 1.01769 0
M  V30 63488 O 5900.75 1.53075 0.918161 0
M  V30 63489 C 5897.85 2.95561 1.65822 0
M  V30 63490 C 5897.03 4.19722 1.23096 0
M  V30 63491 C 5896.09 4.73751 2.29011 0
M  V30 63492 O 5895.11 5.36563 1.89971 0
M  V30 63493 N 5896.31 4.54547 3.61064 0
M  V30 63494 H 5899.08 2.99315 -0.151944 0
M  V30 63495 H 5896.64 1.603 -0.227075 0
M  V30 63496 H 5898.63 3.28604 2.36224 0
M  V30 63497 H 5897.2 2.23922 2.18123 0
M  V30 63498 H 5896.42 3.92595 0.355399 0
M  V30 63499 H 5897.71 5.00371 0.922312 0
M  V30 63500 H 5897.11 4.04433 3.95538 0
M  V30 63501 H 5895.66 4.9205 4.27469 0
M  V30 63502 N 5899.1 0.130307 1.5706 0
M  V30 63503 C 5900.04 -0.815691 2.15905 0
M  V30 63504 C 5901.01 -1.25576 1.08719 0
M  V30 63505 O 5902.2 -1.33127 1.36682 0
M  V30 63506 C 5899.34 -2.056 2.77169 0
M  V30 63507 C 5898.45 -1.66326 3.98697 0
M  V30 63508 C 5897.59 -2.8541 4.48012 0
M  V30 63509 C 5896.63 -2.42429 5.62045 0
M  V30 63510 N 5895.76 -3.54464 6.06052 0
M  V30 63511 H 5900.6 -0.30706 2.96414 0
M  V30 63512 H 5898.14 -0.139862 1.46434 0
M  V30 63513 H 5900.1 -2.78287 3.10825 0
M  V30 63514 H 5898.73 -2.53903 1.99332 0
M  V30 63515 H 5897.78 -0.834686 3.7113 0
M  V30 63516 H 5899.09 -1.30748 4.81359 0
M  V30 63517 H 5898.25 -3.66308 4.83636 0
M  V30 63518 H 5896.99 -3.24222 3.64323 0
M  V30 63519 H 5895.99 -1.59966 5.26014 0
M  V30 63520 H 5897.22 -2.04721 6.47508 0
M  V30 63521 H 5895.16 -3.92929 5.25303 0
M  V30 63522 H 5895.08 -3.22847 6.83598 0
M  V30 63523 H 5896.35 -4.35769 6.46317 0
M  V30 63524 N 5900.58 -1.56946 -0.14348 0
M  V30 63525 C 5901.85 -1.74464 -0.884393 0
M  V30 63526 C 5902.23 -0.699271 -1.99182 0
M  V30 63527 O 5901.58 0.281187 -2.26763 0
M  V30 63528 C 5901.79 -3.18644 -1.42362 0
M  V30 63529 C 5903.14 -3.80432 -1.88564 0
M  V30 63530 O 5904.16 -3.22095 -1.52096 0
M  V30 63531 O 5903.02 -4.82922 -2.5583 0
M  V30 63532 H 5900.12 -0.713472 -0.418195 0
M  V30 63533 H 5902.66 -1.69208 -0.12913 0
M  V30 63534 H 5901.43 -3.86229 -0.62792 0
M  V30 63535 H 5901.06 -3.2834 -2.24228 0
M  V30 63536 N 5902.05 0.412937 -1.52094 0
M  V30 63537 C 5903 1.50288 -1.75164 0
M  V30 63538 C 5903.97 1.55117 -0.593956 0
M  V30 63539 O 5905.16 1.71748 -0.831092 0
M  V30 63540 C 5902.3 2.87774 -1.90474 0
M  V30 63541 C 5901.41 2.92283 -3.18111 0
M  V30 63542 C 5900.54 4.21045 -3.23874 0
M  V30 63543 C 5899.58 4.19515 -4.45729 0
M  V30 63544 N 5898.72 5.39841 -4.48905 0
M  V30 63545 H 5903.56 1.29918 -2.68189 0
M  V30 63546 H 5901.1 0.630694 -1.32893 0
M  V30 63547 H 5903.05 3.67581 -1.97333 0
M  V30 63548 H 5901.68 3.06647 -1.00833 0
M  V30 63549 H 5900.74 2.04991 -3.20442 0
M  V30 63550 H 5902.05 2.87017 -4.0795 0
M  V30 63551 H 5901.2 5.09242 -3.29785 0
M  V30 63552 H 5899.94 4.29002 -2.31967 0
M  V30 63553 H 5898.95 3.29708 -4.39969 0
M  V30 63554 H 5900.17 4.13201 -5.38927 0
M  V30 63555 H 5898.12 5.48473 -3.5988 0
M  V30 63556 H 5898.03 5.36554 -5.32584 0
M  V30 63557 H 5899.3 6.30002 -4.5904 0
M  V30 63558 N 5903.53 1.42652 0.669932 0
M  V30 63559 C 5904.48 1.4651 1.78335 0
M  V30 63560 C 5905.45 0.316536 1.63056 0
M  V30 63561 O 5906.63 0.52131 1.8354 0
M  V30 63562 C 5903.77 1.37795 3.16396 0
M  V30 63563 C 5902.89 2.62726 3.42927 0
M  V30 63564 C 5902.02 2.46118 4.70744 0
M  V30 63565 C 5901.06 3.66398 4.90325 0
M  V30 63566 N 5900.2 3.48702 6.09386 0
M  V30 63567 H 5905.04 2.41658 1.74372 0
M  V30 63568 H 5902.57 1.19973 0.851172 0
M  V30 63569 H 5904.53 1.30739 3.96186 0
M  V30 63570 H 5903.16 0.462403 3.19471 0
M  V30 63571 H 5902.21 2.80129 2.57356 0
M  V30 63572 H 5903.53 3.5212 3.53289 0
M  V30 63573 H 5902.68 2.36675 5.58632 0
M  V30 63574 H 5901.42 1.5422 4.62674 0
M  V30 63575 H 5900.42 3.76268 4.00877 0
M  V30 63576 H 5901.65 4.59282 5.00237 0
M  V30 63577 H 5899.6 2.59526 6.0248 0
M  V30 63578 H 5899.51 4.31688 6.2063 0
M  V30 63579 H 5900.78 3.4308 6.9994 0
M  V30 63580 N 5905.01 -0.906708 1.28905 0
M  V30 63581 C 5906.26 -1.65326 1.1624 0
M  V30 63582 C 5906.58 -1.92862 -0.287937 0
M  V30 63583 O 5905.85 -1.54975 -1.19831 0
M  V30 63584 H 5904.43 -0.612791 0.427196 0
M  V30 63585 H 5907.09 -1.08758 1.61733 0
M  V30 63586 H 5906.19 -2.61265 1.70724 0
M  V30 63587 N 5906.49 -1.11268 -1.11612 0
M  V30 63588 C 5907.74 -0.855203 -1.82672 0
M  V30 63589 C 5908.05 0.621129 -1.85476 0
M  V30 63590 O 5909.26 0.994797 -2.52618 0
M  V30 63591 C 5907.71 -1.48019 -3.28053 0
M  V30 63592 C 5907.32 -2.99043 -3.33583 0
M  V30 63593 C 5909.06 -1.30247 -4.04025 0
M  V30 63594 C 5906.97 -3.54534 -4.73349 0
M  V30 63595 H 5905.9 -0.316276 -0.68446 0
M  V30 63596 H 5908.55 -1.33771 -1.25609 0
M  V30 63597 H 5906.93 -0.925349 -3.85037 0
M  V30 63598 H 5908.11 -3.60915 -2.8649 0
M  V30 63599 H 5906.42 -3.16069 -2.71089 0
M  V30 63600 H 5909.02 -1.6914 -5.07243 0
M  V30 63601 H 5909.36 -0.24487 -4.15579 0
M  V30 63602 H 5909.9 -1.82585 -3.53423 0
M  V30 63603 H 5906.63 -4.59999 -4.66992 0
M  V30 63604 H 5906.15 -2.97432 -5.20859 0
M  V30 63605 H 5907.83 -3.52867 -5.42304 0
M  V30 63606 N 5907.97 1.29185 -0.902724 0
M  V30 63607 C 5909.19 2.00111 -0.545023 0
M  V30 63608 C 5909.62 1.67096 0.863746 0
M  V30 63609 O 5908.97 0.897234 1.57542 0
M  V30 63610 C 5909.02 3.5276 -0.747865 0
M  V30 63611 O 5908.13 4.11923 0.198243 0
M  V30 63612 H 5907.47 0.629047 -0.212594 0
M  V30 63613 H 5910 1.64607 -1.21514 0
M  V30 63614 H 5910.01 4.02729 -0.653687 0
M  V30 63615 H 5908.68 3.76125 -1.77491 0
M  V30 63616 H 5907.26 3.72858 0.0562649 0
M  V30 63617 N 5909.44 0.665525 1.42858 0
M  V30 63618 C 5910.67 0.192072 2.06007 0
M  V30 63619 C 5911.09 -1.14714 1.49953 0
M  V30 63620 O 5910.44 -1.71072 0.635659 0
M  V30 63621 C 5910.49 0.108316 3.61338 0
M  V30 63622 O 5910.22 1.3946 4.1531 0
M  V30 63623 C 5911.72 -0.389745 4.41583 0
M  V30 63624 H 5908.94 0.0956046 0.664154 0
M  V30 63625 H 5911.48 0.909646 1.83155 0
M  V30 63626 H 5909.64 -0.559889 3.83333 0
M  V30 63627 H 5910.05 1.26186 5.09095 0
M  V30 63628 H 5911.52 -0.397277 5.50569 0
M  V30 63629 H 5912 -1.42333 4.15497 0
M  V30 63630 H 5912.61 0.246397 4.24586 0
M  V30 63631 N 5910.92 -1.52221 0.40824 0
M  V30 63632 C 5912.15 -2.06704 -0.169829 0
M  V30 63633 C 5912.57 -1.2764 -1.38165 0
M  V30 63634 O 5911.93 -0.306406 -1.78692 0
M  V30 63635 C 5911.98 -3.57123 -0.499537 0
M  V30 63636 O 5911.08 -3.80489 -1.59066 0
M  V30 63637 H 5910.42 -0.66384 -0.0145911 0
M  V30 63638 H 5912.95 -1.96172 0.581182 0
M  V30 63639 H 5912.96 -4.00889 -0.758426 0
M  V30 63640 H 5911.64 -4.14102 0.386328 0
M  V30 63641 H 5910.21 -3.48603 -1.32401 0
M  V30 63642 N 5912.4 -0.138635 -1.56989 0
M  V30 63643 C 5913.36 0.790054 -2.15153 0
M  V30 63644 C 5914.36 1.18107 -1.09121 0
M  V30 63645 O 5915.55 1.10336 -1.34802 0
M  V30 63646 C 5912.69 2.071 -2.70781 0
M  V30 63647 H 5913.88 0.284238 -2.9855 0
M  V30 63648 H 5911.43 0.110755 -1.55907 0
M  V30 63649 H 5912.17 2.62067 -1.91027 0
M  V30 63650 H 5911.95 1.79992 -3.48347 0
M  V30 63651 H 5913.44 2.73445 -3.15622 0
M  V30 63652 N 5913.88 1.57019 0.135155 0
M  V30 63653 C 5914.84 1.98233 1.15049 0
M  V30 63654 C 5915.84 0.870343 1.3521 0
M  V30 63655 O 5917.03 1.13673 1.32001 0
M  V30 63656 C 5914.16 2.30853 2.50838 0
M  V30 63657 H 5915.36 2.89126 0.796643 0
M  V30 63658 H 5912.91 1.51638 0.378909 0
M  V30 63659 H 5913.64 1.42789 2.91173 0
M  V30 63660 H 5913.43 3.11939 2.37563 0
M  V30 63661 H 5914.92 2.63535 3.23943 0
M  V30 63662 N 5915.36 -0.404866 1.52311 0
M  V30 63663 C 5916.58 -1.17758 1.70727 0
M  V30 63664 C 5917.01 -1.83401 0.417809 0
M  V30 63665 O 5916.36 -1.70183 -0.625097 0
M  V30 63666 C 5916.41 -2.2132 2.84693 0
M  V30 63667 O 5915.52 -3.27558 2.50559 0
M  V30 63668 H 5914.86 -0.343552 0.568215 0
M  V30 63669 H 5917.39 -0.474023 1.99033 0
M  V30 63670 H 5917.4 -2.65579 3.09729 0
M  V30 63671 H 5916.07 -1.72926 3.78245 0
M  V30 63672 H 5914.65 -2.88547 2.36209 0
M  V30 63673 N 5916.83 -1.43006 -0.662357 0
M  V30 63674 C 5918.25 -1.39279 -1.24331 0
M  V30 63675 C 5918.6 -0.0922687 -1.95983 0
M  V30 63676 O 5917.72 0.808606 -2.00725 0
M  V30 63677 C 5918.32 -2.52295 -2.26125 0
M  V30 63678 C 5916.88 -2.51863 -2.79718 0
M  V30 63679 C 5916.02 -2.30458 -1.54222 0
M  V30 63680 H 5918.97 -1.52039 -0.454948 0
M  V30 63681 H 5918.99 -2.2326 -3.08115 0
M  V30 63682 H 5918.51 -3.46935 -1.73947 0
M  V30 63683 H 5916.61 -1.61076 -3.35984 0
M  V30 63684 H 5916.72 -3.49325 -3.27886 0
M  V30 63685 H 5915.08 -1.78952 -1.81241 0
M  V30 63686 H 5915.87 -3.27171 -1.03991 0
M  V30 63687 N 5918.31 0.899859 -1.29384 0
M  V30 63688 C 5919.28 1.9855 -1.14501 0
M  V30 63689 C 5920.28 1.60598 -0.0805296 0
M  V30 63690 O 5921.47 1.71095 -0.327455 0
M  V30 63691 C 5918.6 3.32526 -0.750935 0
M  V30 63692 H 5919.79 2.13182 -2.10935 0
M  V30 63693 H 5917.34 1.08434 -1.12568 0
M  V30 63694 H 5918.08 3.23596 0.213554 0
M  V30 63695 H 5917.86 3.61437 -1.52005 0
M  V30 63696 H 5919.35 4.12193 -0.669854 0
M  V30 63697 N 5919.79 1.11858 1.1102 0
M  V30 63698 C 5921.04 0.871427 1.83123 0
M  V30 63699 C 5921.37 -0.601372 1.84654 0
M  V30 63700 O 5920.64 -1.44422 1.30278 0
M  V30 63701 C 5920.93 1.43922 3.30089 0
M  V30 63702 C 5920.78 2.97995 3.36926 0
M  V30 63703 C 5922.1 1.09376 4.26292 0
M  V30 63704 H 5919.22 0.318018 0.664856 0
M  V30 63705 H 5921.86 1.38419 1.30155 0
M  V30 63706 H 5920.01 1.0031 3.75327 0
M  V30 63707 H 5921.68 3.50241 3.00214 0
M  V30 63708 H 5919.93 3.33837 2.77012 0
M  V30 63709 H 5920.6 3.32813 4.40386 0
M  V30 63710 H 5923.07 1.47032 3.89257 0
M  V30 63711 H 5921.95 1.51775 5.27499 0
M  V30 63712 H 5922.21 0.00511912 4.421 0
M  V30 63713 N 5921.27 -1.28704 0.909562 0
M  V30 63714 C 5922.52 -1.94767 0.539482 0
M  V30 63715 C 5922.84 -1.71983 -0.919072 0
M  V30 63716 O 5922.11 -1.05716 -1.64927 0
M  V30 63717 H 5920.69 -0.720686 0.196521 0
M  V30 63718 H 5923.35 -1.56768 1.15801 0
M  V30 63719 H 5922.45 -3.03433 0.730388 0
M  V30 63720 N 5922.75 -0.673092 -1.42503 0
M  V30 63721 C 5923.97 -0.202995 -2.05902 0
M  V30 63722 C 5924.39 1.13918 -1.5056 0
M  V30 63723 O 5923.75 1.70732 -0.644722 0
M  V30 63724 C 5923.8 -0.127477 -3.61275 0
M  V30 63725 O 5923.52 -1.41661 -4.14565 0
M  V30 63726 C 5925.02 0.366321 -4.41784 0
M  V30 63727 H 5922.24 -0.0991254 -0.663638 0
M  V30 63728 H 5924.78 -0.919346 -1.8267 0
M  V30 63729 H 5922.94 0.539552 -3.83624 0
M  V30 63730 H 5923.35 -1.28884 -5.08418 0
M  V30 63731 H 5924.83 0.368073 -5.50771 0
M  V30 63732 H 5925.3 1.40128 -4.16246 0
M  V30 63733 H 5925.91 -0.26891 -4.24449 0
M  V30 63734 N 5924.22 1.52002 -0.416307 0
M  V30 63735 C 5925.47 2.02189 0.157363 0
M  V30 63736 C 5925.8 1.30102 1.44178 0
M  V30 63737 O 5925.08 0.409493 1.9014 0
M  V30 63738 C 5925.36 3.57897 0.397721 0
M  V30 63739 C 5925.21 4.40625 -0.90387 0
M  V30 63740 C 5926.53 4.24076 1.17674 0
M  V30 63741 H 5923.65 0.734891 0.0557179 0
M  V30 63742 H 5926.29 1.8183 -0.551182 0
M  V30 63743 H 5924.44 3.75375 1.00128 0
M  V30 63744 H 5926.12 4.34842 -1.5398 0
M  V30 63745 H 5924.36 4.06551 -1.51324 0
M  V30 63746 H 5925.03 5.47671 -0.689995 0
M  V30 63747 H 5927.51 4.10741 0.665688 0
M  V30 63748 H 5926.38 5.32948 1.31367 0
M  V30 63749 H 5926.64 3.83515 2.19929 0
M  V30 63750 N 5925.7 0.146958 1.56913 0
M  V30 63751 C 5926.95 -0.503169 1.95736 0
M  V30 63752 C 5927.27 -1.65403 1.0328 0
M  V30 63753 O 5926.54 -1.95673 0.0943472 0
M  V30 63754 H 5925.12 -0.188873 0.722728 0
M  V30 63755 H 5927.78 0.222447 1.93626 0
M  V30 63756 H 5926.88 -0.87934 2.99456 0
M  V30 63757 N 5927.18 -1.57089 -0.126826 0
M  V30 63758 C 5928.11 -1.94955 -1.18607 0
M  V30 63759 C 5929.09 -0.818116 -1.40519 0
M  V30 63760 O 5930.28 -1.07558 -1.54802 0
M  V30 63761 C 5927.4 -2.23902 -2.54137 0
M  V30 63762 C 5926.45 -3.46484 -2.48699 0
M  V30 63763 S 5927.28 -4.99346 -1.93426 0
M  V30 63764 C 5928.44 -5.31437 -3.30643 0
M  V30 63765 H 5928.67 -2.84495 -0.863119 0
M  V30 63766 H 5926.2 -1.5076 -0.33327 0
M  V30 63767 H 5928.16 -2.41258 -3.32121 0
M  V30 63768 H 5926.82 -1.3499 -2.83613 0
M  V30 63769 H 5926.02 -3.64079 -3.48515 0
M  V30 63770 H 5925.62 -3.28474 -1.78832 0
M  V30 63771 H 5927.91 -5.2614 -4.26829 0
M  V30 63772 H 5928.85 -6.32737 -3.17883 0
M  V30 63773 H 5929.26 -4.58922 -3.28711 0
M  V30 63774 N 5928.66 0.396782 -1.52523 0
M  V30 63775 C 5929.94 1.15632 -1.57761 0
M  V30 63776 C 5930.32 2.07902 -0.366071 0
M  V30 63777 O 5929.66 2.19173 0.646189 0
M  V30 63778 C 5929.87 1.92282 -2.91253 0
M  V30 63779 C 5931.22 2.47917 -3.44706 0
M  V30 63780 O 5932.25 2.02448 -2.93076 0
M  V30 63781 O 5931.11 3.30954 -4.34893 0
M  V30 63782 H 5928.2 0.528648 -0.635972 0
M  V30 63783 H 5930.75 0.402564 -1.64856 0
M  V30 63784 H 5929.52 1.24762 -3.70878 0
M  V30 63785 H 5929.14 2.74636 -2.87508 0
M  V30 63786 N 5930.14 1.43355 0.654764 0
M  V30 63787 C 5931.07 1.42842 1.77965 0
M  V30 63788 C 5932.05 0.29006 1.59992 0
M  V30 63789 O 5933.23 0.48341 1.82196 0
M  V30 63790 C 5930.36 1.23851 3.15244 0
M  V30 63791 C 5929.41 2.40943 3.51922 0
M  V30 63792 S 5930.24 4.03492 3.52072 0
M  V30 63793 C 5931.39 3.86881 4.9201 0
M  V30 63794 H 5931.63 2.38028 1.78129 0
M  V30 63795 H 5929.16 1.30367 0.827266 0
M  V30 63796 H 5931.12 1.13581 3.94474 0
M  V30 63797 H 5929.78 0.302163 3.12643 0
M  V30 63798 H 5928.97 2.23456 4.51756 0
M  V30 63799 H 5928.57 2.4783 2.801 0
M  V30 63800 H 5930.87 3.4911 5.80627 0
M  V30 63801 H 5931.81 4.86463 5.14548 0
M  V30 63802 H 5932.22 3.19369 4.65472 0
M  V30 63803 N 5931.62 -0.892985 1.2986 0
M  V30 63804 C 5932.89 -1.62488 1.0889 0
M  V30 63805 C 5933.27 -2.07927 -0.364622 0
M  V30 63806 O 5932.62 -1.84014 -1.35467 0
M  V30 63807 C 5932.83 -2.80055 2.08255 0
M  V30 63808 C 5934.18 -3.5058 2.39539 0
M  V30 63809 O 5935.2 -2.90233 2.06502 0
M  V30 63810 O 5934.06 -4.59388 2.96015 0
M  V30 63811 H 5931.16 -0.71379 0.417651 0
M  V30 63812 H 5933.7 -0.940463 1.41256 0
M  V30 63813 H 5932.47 -2.43725 3.06127 0
M  V30 63814 H 5932.1 -3.56199 1.76658 0
M  V30 63815 N 5933.09 -1.12445 -1.10425 0
M  V30 63816 C 5934 -0.805455 -2.2034 0
M  V30 63817 C 5935.02 0.205775 -1.72779 0
M  V30 63818 O 5936.2 0.0393487 -2.01362 0
M  V30 63819 C 5933.26 -0.264833 -3.45687 0
M  V30 63820 C 5932.32 -1.336 -4.07982 0
M  V30 63821 C 5931.55 -0.821085 -5.27346 0
M  V30 63822 O 5931.78 0.345103 -5.69355 0
M  V30 63823 O 5930.71 -1.59072 -5.80499 0
M  V30 63824 H 5934.54 -1.72348 -2.50059 0
M  V30 63825 H 5932.12 -0.901126 -1.19164 0
M  V30 63826 H 5934 0.0317683 -4.21388 0
M  V30 63827 H 5932.68 0.625758 -3.17594 0
M  V30 63828 H 5931.59 -1.68577 -3.33965 0
M  V30 63829 H 5932.92 -2.20036 -4.40278 0
M  V30 63830 N 5934.57 1.2822 -0.916375 0
M  V30 63831 C 5935.85 1.89876 -0.469728 0
M  V30 63832 C 5936.23 1.83041 1.05163 0
M  V30 63833 O 5935.58 1.26808 1.90084 0
M  V30 63834 C 5935.79 3.34275 -1.00305 0
M  V30 63835 C 5937.13 4.1124 -1.05672 0
M  V30 63836 O 5938.16 3.43246 -0.951874 0
M  V30 63837 O 5937.02 5.32784 -1.21671 0
M  V30 63838 H 5934.11 0.813413 -0.149292 0
M  V30 63839 H 5936.66 1.36569 -1.00733 0
M  V30 63840 H 5935.43 3.33487 -2.047 0
M  V30 63841 H 5935.05 3.95086 -0.446426 0
M  V30 63842 N 5936.05 0.68064 1.42144 0
M  V30 63843 C 5937.33 0.134025 1.9514 0
M  V30 63844 C 5937.71 -1.35254 1.62079 0
M  V30 63845 O 5937.05 -2.09162 0.919972 0
M  V30 63846 C 5937.26 0.409388 3.46591 0
M  V30 63847 C 5938.61 0.329048 4.23323 0
M  V30 63848 O 5939.64 0.343462 3.5454 0
M  V30 63849 O 5938.5 0.276268 5.45801 0
M  V30 63850 H 5935.59 0.0062635 0.826976 0
M  V30 63851 H 5938.14 0.755772 1.51941 0
M  V30 63852 H 5936.91 1.43895 3.63882 0
M  V30 63853 H 5936.53 -0.244077 3.9685 0
M  V30 63854 N 5937.53 -1.51779 0.424362 0
M  V30 63855 C 5938.8 -1.94515 -0.205722 0
M  V30 63856 C 5939.18 -1.36225 -1.61264 0
M  V30 63857 O 5938.53 -0.544097 -2.21928 0
M  V30 63858 C 5938.74 -3.48446 -0.196627 0
M  V30 63859 C 5940.09 -4.2263 -0.408553 0
M  V30 63860 O 5941.11 -3.55134 -0.275317 0
M  V30 63861 O 5939.97 -5.42346 -0.672507 0
M  V30 63862 H 5937.07 -0.815581 -0.136954 0
M  V30 63863 H 5939.61 -1.62729 0.481406 0
M  V30 63864 H 5938.39 -3.83294 0.787477 0
M  V30 63865 H 5938.01 -3.86637 -0.927214 0
M  V30 63866 N 5939.01 -0.155278 -1.56833 0
M  V30 63867 C 5940.25 0.493757 -1.96388 0
M  V30 63868 C 5940.58 1.64326 -1.04053 0
M  V30 63869 O 5939.84 1.9557 -0.071381 0
M  V30 63870 C 5940.13 1.03334 -3.42136 0
M  V30 63871 C 5939.8 0.00141364 -4.509 0
M  V30 63872 C 5938.46 -0.282237 -4.80372 0
M  V30 63873 C 5940.81 -0.699865 -5.1648 0
M  V30 63874 C 5938.14 -1.27283 -5.72727 0
M  V30 63875 C 5940.49 -1.67933 -6.09903 0
M  V30 63876 C 5939.16 -1.9706 -6.37749 0
M  V30 63877 H 5938.43 0.180678 -0.718635 0
M  V30 63878 H 5941.08 -0.243856 -1.89941 0
M  V30 63879 H 5939.38 1.84845 -3.45456 0
M  V30 63880 H 5941.08 1.54424 -3.70073 0
M  V30 63881 H 5937.67 0.232673 -4.27968 0
M  V30 63882 H 5941.85 -0.493925 -4.93836 0
M  V30 63883 H 5937.11 -1.50485 -5.92591 0
M  V30 63884 H 5941.28 -2.2282 -6.59791 0
M  V30 63885 H 5938.91 -2.73969 -7.09116 0
M  V30 63886 N 5940.48 1.57154 0.118493 0
M  V30 63887 C 5941.71 1.89437 0.844288 0
M  V30 63888 C 5942.13 0.747263 1.7262 0
M  V30 63889 O 5941.49 -0.30219 1.78764 0
M  V30 63890 C 5941.54 3.20471 1.65319 0
M  V30 63891 O 5940.64 3.06413 2.76017 0
M  V30 63892 H 5939.98 0.621609 0.233448 0
M  V30 63893 H 5942.51 2.04352 0.100739 0
M  V30 63894 H 5942.52 3.53204 2.04233 0
M  V30 63895 H 5941.2 4.03555 1.00579 0
M  V30 63896 H 5939.78 2.85148 2.40302 0
M  V30 63897 N 5941.96 -0.388688 1.52732 0
M  V30 63898 C 5942.91 -1.47482 1.77532 0
M  V30 63899 C 5943.88 -1.54153 0.618559 0
M  V30 63900 O 5945.06 -1.70404 0.858311 0
M  V30 63901 C 5942.2 -2.84707 1.95028 0
M  V30 63902 C 5941.32 -2.87185 3.2272 0
M  V30 63903 C 5940.45 -4.15839 3.30532 0
M  V30 63904 C 5939.49 -4.1237 4.52346 0
M  V30 63905 N 5938.63 -5.32631 4.57437 0
M  V30 63906 H 5943.47 -1.25635 2.70222 0
M  V30 63907 H 5941.01 -0.609472 1.3388 0
M  V30 63908 H 5942.96 -3.64395 2.03156 0
M  V30 63909 H 5941.59 -3.05004 1.05698 0
M  V30 63910 H 5940.65 -1.99867 3.23662 0
M  V30 63911 H 5941.96 -2.8049 4.12464 0
M  V30 63912 H 5941.11 -5.03931 3.37844 0
M  V30 63913 H 5939.85 -4.25257 2.38763 0
M  V30 63914 H 5938.86 -3.22667 4.45158 0
M  V30 63915 H 5940.08 -4.04575 5.45432 0
M  V30 63916 H 5938.03 -5.42678 3.6856 0
M  V30 63917 H 5937.94 -5.28013 5.41053 0
M  V30 63918 H 5939.21 -6.22619 4.69005 0
M  V30 63919 N 5943.44 -1.437 -0.647152 0
M  V30 63920 C 5944.69 -1.4685 -1.40736 0
M  V30 63921 C 5945.04 -0.0935691 -1.92172 0
M  V30 63922 O 5944.33 0.888757 -1.6974 0
M  V30 63923 C 5944.53 -2.45092 -2.60125 0
M  V30 63924 C 5944.36 -3.92002 -2.20374 0
M  V30 63925 C 5943.13 -4.60318 -2.08412 0
M  V30 63926 C 5945.33 -4.81667 -1.80281 0
M  V30 63927 N 5943.31 -5.92124 -1.62056 0
M  V30 63928 C 5944.68 -6.02793 -1.45053 0
M  V30 63929 C 5946.73 -4.68873 -1.67518 0
M  V30 63930 C 5945.44 -7.12546 -0.983391 0
M  V30 63931 C 5947.46 -5.78635 -1.2221 0
M  V30 63932 C 5946.82 -6.98891 -0.879219 0
M  V30 63933 H 5942.92 -0.592455 -0.510412 0
M  V30 63934 H 5945.51 -1.79921 -0.744087 0
M  V30 63935 H 5943.68 -2.14037 -3.24103 0
M  V30 63936 H 5945.41 -2.3864 -3.26853 0
M  V30 63937 H 5942.17 -4.14907 -2.28362 0
M  V30 63938 H 5942.59 -6.62107 -1.41223 0
M  V30 63939 H 5947.23 -3.76351 -1.92665 0
M  V30 63940 H 5944.95 -8.04891 -0.719423 0
M  V30 63941 H 5948.54 -5.70757 -1.12816 0
M  V30 63942 H 5947.42 -7.8238 -0.533976 0
M  V30 63943 N 5944.92 0.886085 -1.30331 0
M  V30 63944 C 5945.87 2.01308 -1.16523 0
M  V30 63945 C 5946.86 1.69223 -0.0774026 0
M  V30 63946 O 5948.07 1.78417 -0.238174 0
M  V30 63947 H 5944.44 0.660047 -0.360335 0
M  V30 63948 H 5946.41 2.10089 -2.11908 0
M  V30 63949 C 5945.16 3.3657 -0.87271 0
M  V30 63950 H 5944.48 3.61769 -1.70185 0
M  V30 63951 H 5945.92 4.1607 -0.816196 0
M  V30 63952 C 5944.38 3.34217 0.424347 0
M  V30 63953 O 5944.91 3.74763 1.44621 0
M  V30 63954 N 5943.12 2.87324 0.435106 0
M  V30 63955 H 5942.67 2.54523 -0.39694 0
M  V30 63956 H 5942.62 2.86133 1.3029 0
M  V30 63957 N 5946.4 1.13029 1.09828 0
M  V30 63958 C 5947.64 0.889483 1.81919 0
M  V30 63959 C 5947.97 -0.584507 1.85509 0
M  V30 63960 O 5947.23 -1.4484 1.31605 0
M  V30 63961 C 5947.53 1.4173 3.28097 0
M  V30 63962 C 5947.19 2.90741 3.44645 0
M  V30 63963 C 5945.85 3.31427 3.48869 0
M  V30 63964 C 5948.21 3.86631 3.49522 0
M  V30 63965 C 5945.53 4.66696 3.55545 0
M  V30 63966 C 5947.89 5.21738 3.57731 0
M  V30 63967 C 5946.55 5.61957 3.60222 0
M  V30 63968 H 5945.82 0.325485 0.665688 0
M  V30 63969 H 5948.47 1.41154 1.29413 0
M  V30 63970 H 5946.77 0.815843 3.83212 0
M  V30 63971 H 5948.47 1.2071 3.824 0
M  V30 63972 H 5945.06 2.58278 3.42039 0
M  V30 63973 H 5949.24 3.56288 3.45503 0
M  V30 63974 H 5944.5 4.97238 3.55758 0
M  V30 63975 H 5948.67 5.9586 3.6045 0
M  V30 63976 H 5946.3 6.66762 3.65148 0
M  V30 63977 N 5947.87 -1.27732 0.923162 0
M  V30 63978 C 5949.1 -1.98392 0.576549 0
M  V30 63979 C 5949.51 -1.69096 -0.848719 0
M  V30 63980 O 5948.86 -0.94544 -1.57503 0
M  V30 63981 C 5948.92 -3.52275 0.717108 0
M  V30 63982 C 5948.58 -4.05183 2.11366 0
M  V30 63983 C 5949.58 -4.18304 3.08736 0
M  V30 63984 C 5947.26 -4.39644 2.42938 0
M  V30 63985 C 5949.26 -4.65151 4.3579 0
M  V30 63986 C 5946.94 -4.86183 3.70229 0
M  V30 63987 C 5947.94 -4.98895 4.66468 0
M  V30 63988 O 5947.63 -5.44416 5.91495 0
M  V30 63989 H 5947.36 -0.64 0.217659 0
M  V30 63990 H 5949.92 -1.63662 1.24112 0
M  V30 63991 H 5948.15 -3.867 -0.00456007 0
M  V30 63992 H 5949.84 -4.04153 0.376219 0
M  V30 63993 H 5950.6 -3.91945 2.85665 0
M  V30 63994 H 5946.48 -4.28994 1.68775 0
M  V30 63995 H 5950.02 -4.74988 5.10913 0
M  V30 63996 H 5945.92 -5.11983 3.93121 0
M  V30 63997 H 5946.69 -5.6268 5.94419 0
M  V30 63998 N 5949.35 -0.688168 -1.41782 0
M  V30 63999 C 5950.58 -0.224496 -2.05377 0
M  V30 64000 C 5950.99 1.12856 -1.51856 0
M  V30 64001 O 5950.33 1.71489 -0.658587 0
M  V30 64002 C 5950.4 -0.0966115 -3.5937 0
M  V30 64003 C 5950.06 -1.38052 -4.3565 0
M  V30 64004 C 5951.06 -2.31683 -4.65424 0
M  V30 64005 C 5948.74 -1.63184 -4.75054 0
M  V30 64006 C 5950.74 -3.48712 -5.33553 0
M  V30 64007 C 5948.42 -2.80499 -5.42921 0
M  V30 64008 C 5949.42 -3.73087 -5.72097 0
M  V30 64009 O 5949.11 -4.88349 -6.38569 0
M  V30 64010 H 5948.84 -0.103611 -0.668013 0
M  V30 64011 H 5951.39 -0.939149 -1.82672 0
M  V30 64012 H 5949.62 0.673744 -3.80785 0
M  V30 64013 H 5951.31 0.328917 -4.04565 0
M  V30 64014 H 5952.08 -2.13521 -4.35469 0
M  V30 64015 H 5947.96 -0.919828 -4.5173 0
M  V30 64016 H 5951.5 -4.20998 -5.56243 0
M  V30 64017 H 5947.4 -2.98581 -5.72294 0
M  V30 64018 H 5948.17 -4.88067 -6.57064 0
M  V30 64019 N 5950.83 1.51552 -0.432405 0
M  V30 64020 C 5952.06 2.06948 0.136922 0
M  V30 64021 C 5952.48 1.29822 1.36117 0
M  V30 64022 O 5951.84 0.334795 1.78182 0
M  V30 64023 C 5951.89 3.57873 0.442659 0
M  V30 64024 O 5950.99 3.82971 1.52993 0
M  V30 64025 H 5950.33 0.663988 0.00402818 0
M  V30 64026 H 5952.86 1.95223 -0.612318 0
M  V30 64027 H 5952.87 4.02045 0.694552 0
M  V30 64028 H 5951.55 4.13435 -0.452159 0
M  V30 64029 H 5950.12 3.50666 1.26838 0
M  V30 64030 N 5952.31 0.163593 1.56749 0
M  V30 64031 C 5953.72 -0.354452 1.83304 0
M  V30 64032 C 5954.07 -1.63597 1.08307 0
M  V30 64033 O 5953.2 -2.13813 0.333621 0
M  V30 64034 C 5953.79 -0.649866 3.32509 0
M  V30 64035 C 5952.35 -1.11237 3.59588 0
M  V30 64036 C 5951.5 -0.144159 2.76925 0
M  V30 64037 H 5954.45 0.388 1.53884 0
M  V30 64038 H 5954.47 -1.50277 3.49567 0
M  V30 64039 H 5953.98 0.283022 3.87067 0
M  V30 64040 H 5952.08 -2.06063 3.10433 0
M  V30 64041 H 5952.19 -1.02688 4.67966 0
M  V30 64042 H 5950.56 -0.640029 2.46527 0
M  V30 64043 H 5951.34 0.782613 3.3426 0
M  V30 64044 N 5953.79 -1.57215 -0.110157 0
M  V30 64045 C 5954.72 -1.97645 -1.16057 0
M  V30 64046 C 5955.73 -0.876934 -1.37163 0
M  V30 64047 O 5956.92 -1.15517 -1.36081 0
M  V30 64048 C 5954.02 -2.26719 -2.51896 0
M  V30 64049 C 5953.19 -3.58024 -2.51272 0
M  V30 64050 C 5952.25 -3.75208 -3.68924 0
M  V30 64051 O 5951.28 -4.47226 -3.52105 0
M  V30 64052 N 5952.48 -3.14644 -4.87831 0
M  V30 64053 H 5955.25 -2.88361 -0.816577 0
M  V30 64054 H 5952.81 -1.59109 -0.299327 0
M  V30 64055 H 5954.8 -2.35422 -3.29178 0
M  V30 64056 H 5953.37 -1.42085 -2.78443 0
M  V30 64057 H 5952.59 -3.60428 -1.59642 0
M  V30 64058 H 5953.88 -4.44312 -2.4792 0
M  V30 64059 H 5953.27 -2.56118 -5.04401 0
M  V30 64060 H 5951.83 -3.28855 -5.62759 0
M  V30 64061 N 5955.26 0.380583 -1.52936 0
M  V30 64062 C 5956.49 1.15027 -1.72579 0
M  V30 64063 C 5956.91 1.82713 -0.446934 0
M  V30 64064 O 5956.27 1.71156 0.597944 0
M  V30 64065 C 5956.32 2.16763 -2.88178 0
M  V30 64066 O 5955.42 3.2353 -2.55738 0
M  V30 64067 H 5954.77 0.334469 -0.573608 0
M  V30 64068 H 5957.3 0.442299 -1.99762 0
M  V30 64069 H 5957.31 2.60618 -3.13915 0
M  V30 64070 H 5955.98 1.66886 -3.80949 0
M  V30 64071 H 5954.56 2.84753 -2.4077 0
M  V30 64072 N 5956.74 1.44041 0.639523 0
M  V30 64073 C 5957.97 1.50068 1.43159 0
M  V30 64074 C 5958.39 0.123972 1.87691 0
M  V30 64075 O 5957.75 -0.885136 1.58225 0
M  V30 64076 C 5957.8 2.46314 2.63366 0
M  V30 64077 O 5956.9 1.95887 3.62908 0
M  V30 64078 H 5956.24 0.507067 0.428695 0
M  V30 64079 H 5958.77 1.89093 0.781349 0
M  V30 64080 H 5958.78 2.64073 3.11014 0
M  V30 64081 H 5957.46 3.46317 2.30298 0
M  V30 64082 H 5956.04 1.87855 3.22126 0
M  V30 64083 N 5958.22 -0.879161 1.308 0
M  V30 64084 C 5959.63 -1.44701 1.17977 0
M  V30 64085 C 5959.98 -1.94993 -0.217313 0
M  V30 64086 O 5959.11 -1.85498 -1.11442 0
M  V30 64087 C 5959.7 -2.63013 2.13565 0
M  V30 64088 C 5958.26 -3.1587 2.04703 0
M  V30 64089 C 5957.41 -1.88569 2.03316 0
M  V30 64090 H 5960.36 -0.688553 1.42985 0
M  V30 64091 H 5960.38 -3.39412 1.71988 0
M  V30 64092 H 5959.89 -2.26379 3.15237 0
M  V30 64093 H 5957.99 -3.57147 1.06193 0
M  V30 64094 H 5958.11 -3.78775 2.9337 0
M  V30 64095 H 5956.47 -2.07145 1.48199 0
M  V30 64096 H 5957.25 -1.54184 3.06728 0
M  V30 64097 N 5959.7 -1.1361 -1.09227 0
M  V30 64098 C 5960.98 -0.810182 -1.78032 0
M  V30 64099 C 5961.36 0.697883 -1.99231 0
M  V30 64100 O 5960.7 1.63586 -1.59536 0
M  V30 64101 C 5960.91 -1.59942 -3.10193 0
M  V30 64102 C 5962.26 -1.79342 -3.84866 0
M  V30 64103 O 5963.29 -1.56558 -3.1995 0
M  V30 64104 O 5962.15 -2.17373 -5.01409 0
M  V30 64105 H 5959.24 -0.296022 -0.772205 0
M  V30 64106 H 5961.79 -1.24083 -1.15765 0
M  V30 64107 H 5960.56 -2.6242 -2.90261 0
M  V30 64108 H 5960.18 -1.16385 -3.80185 0
M  V30 64109 N 5961.18 1.27241 -0.929923 0
M  V30 64110 C 5962.12 2.26771 -0.429366 0
M  V30 64111 C 5963.09 1.58239 0.504924 0
M  V30 64112 O 5964.28 1.86038 0.423596 0
M  V30 64113 C 5961.42 3.43707 0.309745 0
M  V30 64114 C 5960.53 4.26945 -0.658914 0
M  V30 64115 C 5959.67 5.31105 0.100263 0
M  V30 64116 C 5958.71 6.06015 -0.860956 0
M  V30 64117 N 5957.84 7.01972 -0.134262 0
M  V30 64118 H 5962.68 2.68962 -1.2831 0
M  V30 64119 H 5960.22 1.32255 -0.643969 0
M  V30 64120 H 5962.18 4.10319 0.75461 0
M  V30 64121 H 5960.81 3.02461 1.1277 0
M  V30 64122 H 5959.86 3.60228 -1.2223 0
M  V30 64123 H 5961.17 4.78941 -1.39343 0
M  V30 64124 H 5960.33 6.03677 0.604941 0
M  V30 64125 H 5959.07 4.79918 0.867733 0
M  V30 64126 H 5958.07 5.32281 -1.37686 0
M  V30 64127 H 5959.3 6.59291 -1.62825 0
M  V30 64128 H 5957.24 6.53112 0.614922 0
M  V30 64129 H 5957.16 7.51666 -0.80831 0
M  V30 64130 H 5958.43 7.78715 0.349691 0
M  V30 64131 N 5962.66 0.695678 1.41415 0
M  V30 64132 C 5963.6 0.0304194 2.3078 0
M  V30 64133 C 5964.57 -0.771166 1.47113 0
M  V30 64134 O 5965.76 -0.739177 1.759 0
M  V30 64135 C 5962.9 -0.899917 3.3316 0
M  V30 64136 C 5962.01 -0.0899343 4.31906 0
M  V30 64137 C 5961.15 -1.01792 5.21356 0
M  V30 64138 C 5960.18 -0.200853 6.1177 0
M  V30 64139 N 5959.32 -1.08265 6.93702 0
M  V30 64140 H 5964.16 0.798249 2.8711 0
M  V30 64141 H 5961.7 0.40536 1.41405 0
M  V30 64142 H 5963.66 -1.45335 3.91067 0
M  V30 64143 H 5962.29 -1.63414 2.7838 0
M  V30 64144 H 5961.34 0.580422 3.75946 0
M  V30 64145 H 5962.65 0.54351 4.9583 0
M  V30 64146 H 5961.8 -1.64058 5.84097 0
M  V30 64147 H 5960.54 -1.68522 4.57659 0
M  V30 64148 H 5959.55 0.434879 5.48077 0
M  V30 64149 H 5960.77 0.462654 6.77522 0
M  V30 64150 H 5958.72 -1.73597 6.32614 0
M  V30 64151 H 5958.64 -0.504781 7.54313 0
M  V30 64152 H 5959.9 -1.69212 7.60912 0
M  V30 64153 N 5964.13 -1.51321 0.440437 0
M  V30 64154 C 5965.06 -2.30709 -0.359931 0
M  V30 64155 C 5966.04 -1.36257 -1.01823 0
M  V30 64156 O 5967.23 -1.65177 -1.02128 0
M  V30 64157 C 5964.36 -3.15137 -1.45966 0
M  V30 64158 C 5963.31 -4.17892 -0.924678 0
M  V30 64159 C 5962.64 -4.9086 -2.12039 0
M  V30 64160 C 5963.94 -5.22282 0.0430198 0
M  V30 64161 H 5965.63 -2.97867 0.302585 0
M  V30 64162 H 5963.18 -1.43248 0.146965 0
M  V30 64163 H 5965.13 -3.69456 -2.02682 0
M  V30 64164 H 5963.86 -2.45806 -2.15051 0
M  V30 64165 H 5962.52 -3.64628 -0.379714 0
M  V30 64166 H 5962.16 -4.18029 -2.79751 0
M  V30 64167 H 5961.86 -5.60346 -1.7688 0
M  V30 64168 H 5963.39 -5.48004 -2.69302 0
M  V30 64169 H 5964.8 -5.71655 -0.433936 0
M  V30 64170 H 5963.2 -5.99312 0.307337 0
M  V30 64171 H 5964.27 -4.7492 0.978724 0
M  V30 64172 N 5965.61 -0.171903 -1.5666 0
M  V30 64173 C 5966.84 0.47915 -2.01275 0
M  V30 64174 C 5967.25 1.56767 -1.05212 0
M  V30 64175 O 5966.61 1.82423 -0.0530806 0
M  V30 64176 C 5966.66 1.05693 -3.45704 0
M  V30 64177 O 5966.38 0.0118593 -4.38098 0
M  V30 64178 C 5967.88 1.78615 -4.05723 0
M  V30 64179 H 5965.1 0.122575 -0.659709 0
M  V30 64180 H 5967.65 -0.273805 -2.02659 0
M  V30 64181 H 5965.8 1.76037 -3.45094 0
M  V30 64182 H 5966.22 0.438531 -5.22664 0
M  V30 64183 H 5967.69 2.14301 -5.08703 0
M  V30 64184 H 5968.17 2.68137 -3.47849 0
M  V30 64185 H 5968.77 1.12911 -4.10038 0
M  V30 64186 N 5967.09 1.57271 0.101818 0
M  V30 64187 C 5968.34 1.84931 0.805198 0
M  V30 64188 C 5968.65 0.760163 1.80225 0
M  V30 64189 O 5969.86 0.923684 2.55304 0
M  V30 64190 C 5968.31 3.27935 1.4828 0
M  V30 64191 C 5967.92 4.44903 0.52586 0
M  V30 64192 C 5969.67 3.64826 2.1703 0
M  V30 64193 C 5967.57 5.78938 1.20766 0
M  V30 64194 H 5966.5 0.6898 0.304454 0
M  V30 64195 H 5969.15 1.83408 0.0580692 0
M  V30 64196 H 5967.54 3.23978 2.27715 0
M  V30 64197 H 5968.71 4.60193 -0.236514 0
M  V30 64198 H 5967.02 4.16363 -0.055585 0
M  V30 64199 H 5969.62 4.62246 2.68762 0
M  V30 64200 H 5969.96 2.93114 2.95618 0
M  V30 64201 H 5970.5 3.70642 1.44463 0
M  V30 64202 H 5967.24 6.53865 0.46273 0
M  V30 64203 H 5966.76 5.67504 1.94163 0
M  V30 64204 H 5968.44 6.23274 1.73604 0
M  V30 64205 N 5968.57 -0.372467 1.53135 0
M  V30 64206 C 5969.81 -1.11583 1.68984 0
M  V30 64207 C 5970.14 -1.89501 0.438116 0
M  V30 64208 O 5969.4 -1.86913 -0.579825 0
M  V30 64209 C 5969.7 -2.10732 2.88664 0
M  V30 64210 C 5969.36 -1.49346 4.25449 0
M  V30 64211 C 5968.02 -1.32332 4.62646 0
M  V30 64212 C 5970.38 -1.04871 5.1054 0
M  V30 64213 C 5967.7 -0.694163 5.82579 0
M  V30 64214 C 5970.06 -0.433587 6.31112 0
M  V30 64215 C 5968.72 -0.250883 6.67028 0
M  V30 64216 H 5967.99 -0.408311 0.618355 0
M  V30 64217 H 5970.64 -0.398441 1.87309 0
M  V30 64218 H 5968.94 -2.8875 2.64822 0
M  V30 64219 H 5970.64 -2.68189 2.9812 0
M  V30 64220 H 5967.23 -1.63581 3.96156 0
M  V30 64221 H 5971.41 -1.16812 4.82357 0
M  V30 64222 H 5966.67 -0.540957 6.09002 0
M  V30 64223 H 5970.84 -0.0807411 6.96353 0
M  V30 64224 H 5968.47 0.238707 7.59825 0
M  V30 64225 N 5970.05 -1.44378 -0.631875 0
M  V30 64226 C 5970.99 -1.51187 -1.74388 0
M  V30 64227 C 5971.96 -0.359656 -1.62159 0
M  V30 64228 O 5973.15 -0.569789 -1.82094 0
M  V30 64229 C 5970.29 -1.46135 -3.12632 0
M  V30 64230 C 5969.4 -2.71725 -3.35841 0
M  V30 64231 C 5968.54 -2.58512 -4.64053 0
M  V30 64232 C 5967.57 -3.79269 -4.80439 0
M  V30 64233 N 5966.71 -3.64737 -5.99926 0
M  V30 64234 H 5971.55 -2.46196 -1.67904 0
M  V30 64235 H 5969.09 -1.22187 -0.819065 0
M  V30 64236 H 5971.05 -1.41197 -3.9258 0
M  V30 64237 H 5969.68 -0.546942 -3.18133 0
M  V30 64238 H 5968.73 -2.86854 -2.49838 0
M  V30 64239 H 5970.04 -3.61363 -3.43828 0
M  V30 64240 H 5969.19 -2.51403 -5.52161 0
M  V30 64241 H 5967.93 -1.66433 -4.58423 0
M  V30 64242 H 5966.94 -3.86764 -3.9076 0
M  V30 64243 H 5968.16 -4.72384 -4.87884 0
M  V30 64244 H 5966.11 -2.75409 -5.95387 0
M  V30 64245 H 5966.03 -4.47991 -6.08967 0
M  V30 64246 H 5967.29 -3.61517 -6.90598 0
M  V30 64247 N 5971.52 0.872212 -1.31264 0
M  V30 64248 C 5972.75 1.65791 -1.23778 0
M  V30 64249 C 5973.17 1.87766 0.197285 0
M  V30 64250 O 5972.52 1.43422 1.12855 0
M  V30 64251 C 5972.58 3.02715 -1.97601 0
M  V30 64252 O 5972.3 2.81723 -3.35505 0
M  V30 64253 C 5973.8 3.97158 -1.96927 0
M  V30 64254 H 5971.02 0.516944 -0.427796 0
M  V30 64255 H 5973.56 1.08884 -1.73103 0
M  V30 64256 H 5971.72 3.56317 -1.52043 0
M  V30 64257 H 5972.13 3.68677 -3.73065 0
M  V30 64258 H 5973.6 4.90557 -2.53096 0
M  V30 64259 H 5974.08 4.28775 -0.95124 0
M  V30 64260 H 5974.69 3.49492 -2.42354 0
M  V30 64261 N 5973 1.14188 1.08623 0
M  V30 64262 C 5973.91 0.840407 2.1903 0
M  V30 64263 C 5974.93 -0.178261 1.73084 0
M  V30 64264 O 5976.1 -0.00730883 2.01399 0
M  V30 64265 C 5973.17 0.319795 3.45222 0
M  V30 64266 C 5972.23 1.40074 4.05805 0
M  V30 64267 C 5971.46 0.904878 5.25973 0
M  V30 64268 O 5971.69 -0.254479 5.69832 0
M  V30 64269 O 5970.62 1.68287 5.77895 0
M  V30 64270 H 5974.45 1.76305 2.47286 0
M  V30 64271 H 5972.03 0.91997 1.17715 0
M  V30 64272 H 5973.91 0.0352749 4.21385 0
M  V30 64273 H 5972.59 -0.575152 3.18549 0
M  V30 64274 H 5971.5 1.73869 3.31241 0
M  V30 64275 H 5972.83 2.27013 4.36722 0
M  V30 64276 N 5974.48 -1.26746 0.936658 0
M  V30 64277 C 5975.41 -2.28918 0.460293 0
M  V30 64278 C 5976.39 -1.63067 -0.484078 0
M  V30 64279 O 5977.58 -1.90307 -0.386906 0
M  V30 64280 C 5974.71 -3.46173 -0.279526 0
M  V30 64281 C 5973.66 -4.24081 0.577859 0
M  V30 64282 C 5972.99 -5.33904 -0.291655 0
M  V30 64283 C 5974.29 -4.88556 1.8469 0
M  V30 64284 H 5975.98 -2.69015 1.31421 0
M  V30 64285 H 5973.53 -1.29323 0.633378 0
M  V30 64286 H 5975.48 -4.16758 -0.623785 0
M  V30 64287 H 5974.2 -3.05018 -1.16754 0
M  V30 64288 H 5972.86 -3.55255 0.904949 0
M  V30 64289 H 5972.51 -4.8899 -1.17889 0
M  V30 64290 H 5972.21 -5.86939 0.278578 0
M  V30 64291 H 5973.73 -6.07328 -0.631285 0
M  V30 64292 H 5975.15 -5.51379 1.57017 0
M  V30 64293 H 5973.55 -5.51689 2.36135 0
M  V30 64294 H 5974.62 -4.11752 2.56103 0
M  V30 64295 N 5975.96 -0.703167 -1.41044 0
M  V30 64296 C 5977.37 -0.375471 -1.55121 0
M  V30 64297 C 5977.57 1.11691 -1.67712 0
M  V30 64298 O 5976.63 1.90283 -1.65978 0
M  V30 64299 C 5977.94 -1.13065 -2.78634 0
M  V30 64300 C 5979.49 -1.11574 -2.92438 0
M  V30 64301 C 5979.97 -1.85283 -4.18849 0
M  V30 64302 N 5981.46 -1.8229 -4.25822 0
M  V30 64303 C 5982.19 -2.36155 -5.22512 0
M  V30 64304 N 5981.69 -2.98524 -6.25184 0
M  V30 64305 N 5983.48 -2.26367 -5.14504 0
M  V30 64306 H 5975.63 -1.671 -1.31116 0
M  V30 64307 H 5977.9 -0.705595 -0.633119 0
M  V30 64308 H 5977.6 -2.18534 -2.75564 0
M  V30 64309 H 5977.48 -0.714167 -3.70378 0
M  V30 64310 H 5979.86 -0.0692938 -2.95019 0
M  V30 64311 H 5979.94 -1.57135 -2.01847 0
M  V30 64312 H 5979.59 -2.89911 -4.1703 0
M  V30 64313 H 5979.52 -1.37151 -5.08426 0
M  V30 64314 H 5982.01 -1.36825 -3.5226 0
M  V30 64315 H 5982.32 -3.37173 -6.95366 0
M  V30 64316 H 5980.67 -3.02604 -6.25664 0
M  V30 64317 H 5983.86 -1.77309 -4.33219 0
M  V30 64318 H 5984.03 -2.68649 -5.89688 0
M  V30 64319 N 5977.44 1.51085 -0.448455 0
M  V30 64320 C 5978.68 2.02477 0.11444 0
M  V30 64321 C 5979.02 1.33131 1.41386 0
M  V30 64322 O 5978.29 0.449732 1.89229 0
M  V30 64323 C 5978.57 3.5866 0.321716 0
M  V30 64324 C 5978.43 4.38608 -0.99713 0
M  V30 64325 C 5979.75 4.26477 1.08652 0
M  V30 64326 H 5976.86 0.735907 0.0401172 0
M  V30 64327 H 5979.51 1.8062 -0.589627 0
M  V30 64328 H 5977.66 3.77415 0.921437 0
M  V30 64329 H 5979.33 4.31478 -1.63169 0
M  V30 64330 H 5977.57 4.03249 -1.59914 0
M  V30 64331 H 5978.24 5.46084 -0.806009 0
M  V30 64332 H 5980.72 4.1206 0.578414 0
M  V30 64333 H 5979.59 5.35615 1.20033 0
M  V30 64334 H 5979.86 3.88094 2.11745 0
M  V30 64335 N 5978.91 0.180209 1.56566 0
M  V30 64336 C 5980.33 -0.175847 1.58628 0
M  V30 64337 C 5980.53 -1.62175 1.19589 0
M  V30 64338 O 5979.59 -2.35468 0.911649 0
M  V30 64339 C 5980.9 0.113025 3.00488 0
M  V30 64340 C 5982.45 0.051944 3.12957 0
M  V30 64341 C 5982.92 0.313925 4.56923 0
M  V30 64342 N 5984.41 0.262014 4.62458 0
M  V30 64343 C 5985.15 0.438774 5.71719 0
M  V30 64344 N 5984.64 0.675074 6.89503 0
M  V30 64345 N 5986.44 0.374061 5.60854 0
M  V30 64346 H 5978.59 1.12391 1.80228 0
M  V30 64347 H 5980.85 0.447488 0.835738 0
M  V30 64348 H 5980.56 1.11499 3.33558 0
M  V30 64349 H 5980.43 -0.591278 3.72537 0
M  V30 64350 H 5982.82 -0.940613 2.79708 0
M  V30 64351 H 5982.9 0.789096 2.43325 0
M  V30 64352 H 5982.54 1.30373 4.90882 0
M  V30 64353 H 5982.47 -0.443942 5.24725 0
M  V30 64354 H 5984.96 0.0853841 3.77804 0
M  V30 64355 H 5985.28 0.799161 7.68657 0
M  V30 64356 H 5983.62 0.711794 6.91345 0
M  V30 64357 H 5986.81 0.189979 4.67714 0
M  V30 64358 H 5986.99 0.515239 6.45948 0
M  V30 64359 N 5980.39 -1.57323 -0.0934766 0
M  V30 64360 C 5981.3 -2.05503 -1.13162 0
M  V30 64361 C 5982.32 -0.980249 -1.43761 0
M  V30 64362 O 5983.49 -1.29352 -1.5437 0
M  V30 64363 C 5980.56 -2.4712 -2.43172 0
M  V30 64364 C 5979.62 -3.68799 -2.19741 0
M  V30 64365 C 5978.85 -4.08421 -3.43553 0
M  V30 64366 O 5979.08 -3.4812 -4.51851 0
M  V30 64367 O 5978.01 -5.01363 -3.33045 0
M  V30 64368 H 5981.84 -2.94233 -0.752388 0
M  V30 64369 H 5979.42 -1.46231 -0.3061 0
M  V30 64370 H 5981.3 -2.74507 -3.19725 0
M  V30 64371 H 5979.98 -1.61528 -2.80518 0
M  V30 64372 H 5978.89 -3.46526 -1.40964 0
M  V30 64373 H 5980.22 -4.55175 -1.87287 0
M  V30 64374 N 5981.87 0.364341 -1.53331 0
M  V30 64375 C 5983.1 1.1319 -1.7379 0
M  V30 64376 C 5983.52 1.82229 -0.466288 0
M  V30 64377 O 5982.88 1.7178 0.579757 0
M  V30 64378 C 5982.93 2.13694 -2.9046 0
M  V30 64379 O 5982.03 3.20799 -2.59156 0
M  V30 64380 H 5981.37 0.328366 -0.577124 0
M  V30 64381 H 5983.9 0.421087 -2.0022 0
M  V30 64382 H 5983.91 2.57274 -3.16661 0
M  V30 64383 H 5982.59 1.62836 -3.82697 0
M  V30 64384 H 5981.16 2.82183 -2.43777 0
M  V30 64385 N 5983.35 1.44711 0.624209 0
M  V30 64386 C 5984.63 1.38333 1.38287 0
M  V30 64387 C 5985.01 0.045513 2.11051 0
M  V30 64388 O 5984.35 -0.972111 2.0679 0
M  V30 64389 C 5984.56 2.5861 2.34354 0
M  V30 64390 C 5985.91 3.02976 2.97474 0
M  V30 64391 O 5986.94 2.58864 2.44679 0
M  V30 64392 O 5985.79 3.7948 3.93265 0
M  V30 64393 H 5982.89 0.548142 0.619249 0
M  V30 64394 H 5985.43 1.56812 0.648686 0
M  V30 64395 H 5984.21 3.47579 1.79734 0
M  V30 64396 H 5983.83 2.42379 3.1518 0
M  V30 64397 N 5984.83 -0.865239 1.31725 0
M  V30 64398 C 5985.74 -2.00538 1.21745 0
M  V30 64399 C 5986.75 -1.7349 0.133185 0
M  V30 64400 O 5987.93 -1.98302 0.351879 0
M  V30 64401 C 5984.99 -3.33989 0.930163 0
M  V30 64402 C 5984.05 -3.7433 2.1018 0
M  V30 64403 C 5983.29 -5.01413 1.82813 0
M  V30 64404 O 5983.51 -5.65239 0.765544 0
M  V30 64405 O 5982.44 -5.38633 2.68623 0
M  V30 64406 H 5986.27 -2.11891 2.17568 0
M  V30 64407 H 5983.86 -0.994274 1.1151 0
M  V30 64408 H 5985.74 -4.14005 0.785992 0
M  V30 64409 H 5984.41 -3.237 0.00200022 0
M  V30 64410 H 5983.32 -2.94935 2.3014 0
M  V30 64411 H 5984.65 -3.89251 3.01238 0
M  V30 64412 N 5986.31 -1.14762 -1.08016 0
M  V30 64413 C 5987.22 -0.852011 -2.18582 0
M  V30 64414 C 5988.23 0.16908 -1.73177 0
M  V30 64415 O 5989.41 -0.00337194 -2.014 0
M  V30 64416 C 5986.47 -0.338098 -3.45048 0
M  V30 64417 C 5985.53 -1.42224 -4.05056 0
M  V30 64418 C 5984.77 -0.932758 -5.25486 0
M  V30 64419 O 5984.99 0.224256 -5.69959 0
M  V30 64420 O 5983.92 -1.7135 -5.76995 0
M  V30 64421 H 5987.75 -1.77614 -2.46347 0
M  V30 64422 H 5985.33 -0.9262 -1.17226 0
M  V30 64423 H 5987.22 -0.0576215 -4.21361 0
M  V30 64424 H 5985.89 0.55825 -3.1885 0
M  V30 64425 H 5984.8 -1.75623 -3.30314 0
M  V30 64426 H 5986.13 -2.29326 -4.35512 0
M  V30 64427 N 5987.78 1.26247 -0.943366 0
M  V30 64428 C 5989.01 1.97737 -0.608922 0
M  V30 64429 C 5989.43 1.70228 0.81657 0
M  V30 64430 O 5988.78 0.971775 1.54476 0
M  V30 64431 C 5988.83 3.51502 -0.844296 0
M  V30 64432 O 5988.56 3.78055 -2.21372 0
M  V30 64433 C 5990.06 4.40231 -0.520695 0
M  V30 64434 H 5987.28 0.630611 -0.229284 0
M  V30 64435 H 5989.82 1.60706 -1.26467 0
M  V30 64436 H 5987.98 3.86686 -0.235126 0
M  V30 64437 H 5988.39 4.72574 -2.2754 0
M  V30 64438 H 5989.86 5.47071 -0.735994 0
M  V30 64439 H 5990.34 4.35813 0.544388 0
M  V30 64440 H 5990.95 4.10595 -1.10869 0
M  V30 64441 N 5989.26 0.710637 1.40669 0
M  V30 64442 C 5990.19 0.0155555 2.29195 0
M  V30 64443 C 5991.21 -0.728887 1.45572 0
M  V30 64444 O 5992.4 -0.577088 1.68914 0
M  V30 64445 C 5989.5 -1.00221 3.23742 0
M  V30 64446 C 5988.67 -0.32431 4.36196 0
M  V30 64447 C 5987.73 -1.24677 5.11216 0
M  V30 64448 O 5986.75 -0.733436 5.64455 0
M  V30 64449 N 5987.96 -2.57823 5.20104 0
M  V30 64450 H 5990.72 0.775645 2.89489 0
M  V30 64451 H 5988.28 0.557868 1.51985 0
M  V30 64452 H 5990.27 -1.62138 3.70801 0
M  V30 64453 H 5988.84 -1.6637 2.6465 0
M  V30 64454 H 5988.06 0.474985 3.91328 0
M  V30 64455 H 5989.35 0.146448 5.08589 0
M  V30 64456 H 5988.75 -3.0203 4.78324 0
M  V30 64457 H 5987.31 -3.14897 5.70687 0
M  V30 64458 N 5990.74 -1.50845 0.456461 0
M  V30 64459 C 5991.99 -2.01426 -0.105153 0
M  V30 64460 C 5992.3 -1.34418 -1.42096 0
M  V30 64461 O 5993.51 -1.76073 -2.06665 0
M  V30 64462 C 5991.96 -3.59113 -0.237925 0
M  V30 64463 C 5991.57 -4.35069 1.06858 0
M  V30 64464 C 5993.32 -4.17781 -0.752281 0
M  V30 64465 C 5991.22 -5.84506 0.9004 0
M  V30 64466 H 5990.15 -0.752769 -0.0430727 0
M  V30 64467 H 5992.8 -1.73786 0.589136 0
M  V30 64468 H 5991.19 -3.83279 -0.99566 0
M  V30 64469 H 5992.36 -4.22638 1.83613 0
M  V30 64470 H 5990.67 -3.87943 1.51292 0
M  V30 64471 H 5993.27 -5.27158 -0.894903 0
M  V30 64472 H 5993.61 -3.78201 -1.73981 0
M  V30 64473 H 5994.15 -3.97766 -0.0523361 0
M  V30 64474 H 5990.89 -6.28532 1.86087 0
M  V30 64475 H 5990.41 -5.99551 0.172978 0
M  V30 64476 H 5992.09 -6.44562 0.56117 0
M  V30 64477 N 5992.22 -0.188509 -1.56469 0
M  V30 64478 C 5993.16 0.734997 -2.18784 0
M  V30 64479 C 5994.13 1.21455 -1.13305 0
M  V30 64480 O 5995.32 1.27962 -1.41528 0
M  V30 64481 C 5992.46 1.95171 -2.84609 0
M  V30 64482 C 5991.57 1.51414 -4.04596 0
M  V30 64483 C 5990.71 2.68585 -4.58296 0
M  V30 64484 C 5989.75 2.21402 -5.70655 0
M  V30 64485 N 5988.88 3.31727 -6.1879 0
M  V30 64486 H 5993.72 0.196836 -2.97349 0
M  V30 64487 H 5991.26 0.0854177 -1.46852 0
M  V30 64488 H 5993.22 2.6656 -3.20939 0
M  V30 64489 H 5991.85 2.4633 -2.08618 0
M  V30 64490 H 5990.9 0.696369 -3.73972 0
M  V30 64491 H 5992.21 1.12792 -4.8588 0
M  V30 64492 H 5991.37 3.48106 -4.96898 0
M  V30 64493 H 5990.11 3.10477 -3.76105 0
M  V30 64494 H 5989.11 1.40333 -5.31589 0
M  V30 64495 H 5990.34 1.80548 -6.54659 0
M  V30 64496 H 5988.28 3.73162 -5.39524 0
M  V30 64497 H 5988.2 2.97253 -6.95109 0
M  V30 64498 H 5989.47 4.11481 -6.62045 0
M  V30 64499 N 5993.7 1.5737 0.0851321 0
M  V30 64500 C 5994.94 1.86867 0.787955 0
M  V30 64501 C 5995.27 0.778998 1.77891 0
M  V30 64502 O 5994.55 -0.212065 1.9334 0
M  V30 64503 C 5994.83 3.27011 1.50784 0
M  V30 64504 C 5994.69 4.46617 0.534197 0
M  V30 64505 C 5996 3.65196 2.45602 0
M  V30 64506 H 5993.12 0.679667 0.284994 0
M  V30 64507 H 5995.77 1.89931 0.0513776 0
M  V30 64508 H 5993.92 3.2453 2.13571 0
M  V30 64509 H 5995.59 4.61217 -0.0874383 0
M  V30 64510 H 5993.83 4.33535 -0.151608 0
M  V30 64511 H 5994.5 5.41426 1.07524 0
M  V30 64512 H 5996.98 3.68685 1.929 0
M  V30 64513 H 5995.85 4.64169 2.92982 0
M  V30 64514 H 5996.11 2.94412 3.29809 0
M  V30 64515 N 5995.17 -0.356204 1.53522 0
M  V30 64516 C 5996.12 -1.45712 1.81303 0
M  V30 64517 C 5997.12 -1.55034 0.682707 0
M  V30 64518 O 5998.32 -1.57809 0.865821 0
M  V30 64519 H 5994.7 -0.485594 0.574197 0
M  V30 64520 H 5996.67 -1.19489 2.73432 0
M  V30 64521 C 5995.42 -2.82417 2.0282 0
M  V30 64522 H 5994.74 -2.76006 2.89241 0
M  V30 64523 H 5996.18 -3.58602 2.26231 0
M  V30 64524 C 5994.64 -3.27018 0.810008 0
M  V30 64525 O 5995.17 -4.017 0.00324789 0
M  V30 64526 N 5993.37 -2.83671 0.630796 0
M  V30 64527 H 5992.92 -2.23061 1.28847 0
M  V30 64528 H 5992.88 -3.13868 -0.182851 0
M  V30 64529 N 5996.65 -1.4504 -0.616526 0
M  V30 64530 C 5997.9 -1.49802 -1.3759 0
M  V30 64531 C 5998.25 -0.134311 -1.91931 0
M  V30 64532 O 5997.55 0.852553 -1.71587 0
M  V30 64533 C 5997.74 -2.50554 -2.54867 0
M  V30 64534 C 5997.57 -3.96588 -2.1201 0
M  V30 64535 C 5996.34 -4.64635 -1.98601 0
M  V30 64536 C 5998.54 -4.85383 -1.70024 0
M  V30 64537 N 5996.52 -5.95428 -1.4946 0
M  V30 64538 C 5997.89 -6.05734 -1.32234 0
M  V30 64539 C 5999.94 -4.72321 -1.57535 0
M  V30 64540 C 5998.65 -7.14472 -0.832028 0
M  V30 64541 C 6000.67 -5.81097 -1.09909 0
M  V30 64542 C 6000.04 -7.00599 -0.730776 0
M  V30 64543 H 5996.13 -0.603148 -0.497731 0
M  V30 64544 H 5998.72 -1.81458 -0.705756 0
M  V30 64545 H 5996.89 -2.20864 -3.1949 0
M  V30 64546 H 5998.62 -2.45519 -3.21718 0
M  V30 64547 H 5995.38 -4.19658 -2.1951 0
M  V30 64548 H 5995.8 -6.64953 -1.27147 0
M  V30 64549 H 6000.44 -3.80353 -1.84638 0
M  V30 64550 H 5998.16 -8.06236 -0.548532 0
M  V30 64551 H 6001.75 -5.73022 -1.00684 0
M  V30 64552 H 6000.63 -7.83337 -0.367901 0
M  V30 64553 N 5998.13 0.858241 -1.32182 0
M  V30 64554 C 5999.04 1.99889 -1.22807 0
M  V30 64555 C 6000.06 1.73416 -0.142383 0
M  V30 64556 O 6001.23 1.98113 -0.362391 0
M  V30 64557 C 5998.3 3.33491 -0.947862 0
M  V30 64558 C 5997.36 3.7321 -2.12163 0
M  V30 64559 C 5996.59 5.00437 -1.8547 0
M  V30 64560 O 5996.81 5.64825 -0.795509 0
M  V30 64561 O 5995.75 5.372 -2.71476 0
M  V30 64562 H 5999.57 2.10734 -2.18689 0
M  V30 64563 H 5997.16 0.988346 -1.12036 0
M  V30 64564 H 5999.04 4.13582 -0.807936 0
M  V30 64565 H 5997.72 3.23694 -0.0191668 0
M  V30 64566 H 5996.62 2.9371 -2.31701 0
M  V30 64567 H 5997.96 3.87648 -3.03298 0
M  V30 64568 N 5999.61 1.15334 1.07405 0
M  V30 64569 C 6000.52 0.863591 2.18127 0
M  V30 64570 C 6001.53 -0.159893 1.73264 0
M  V30 64571 O 6002.71 0.0140526 2.01395 0
M  V30 64572 C 5999.77 0.356392 3.44863 0
M  V30 64573 C 5998.84 1.4437 4.04297 0
M  V30 64574 C 5998.07 0.960613 5.24984 0
M  V30 64575 O 5998.29 -0.194027 5.7007 0
M  V30 64576 O 5997.23 1.74407 5.76078 0
M  V30 64577 H 6001.05 1.78918 2.45402 0
M  V30 64578 H 5998.64 0.932404 1.16733 0
M  V30 64579 H 6000.52 0.0799665 4.21324 0
M  V30 64580 H 5999.19 -0.541333 3.19141 0
M  V30 64581 H 5998.1 1.77373 3.29378 0
M  V30 64582 H 5999.43 2.31632 4.34289 0
M  V30 64583 N 6001.09 -1.25745 0.950048 0
M  V30 64584 C 6002 -2.29781 0.473052 0
M  V30 64585 C 6003.01 -1.67882 -0.457344 0
M  V30 64586 O 6004.19 -1.98599 -0.33471 0
M  V30 64587 C 6001.25 -3.45827 -0.245833 0
M  V30 64588 C 6000.31 -4.23182 0.722212 0
M  V30 64589 C 5999.55 -5.33687 0.0375393 0
M  V30 64590 O 5999.77 -5.5811 -1.17771 0
M  V30 64591 O 5998.7 -5.97569 0.72075 0
M  V30 64592 H 6002.53 -2.72664 1.33747 0
M  V30 64593 H 6000.12 -1.31108 0.716306 0
M  V30 64594 H 6002 -4.1635 -0.650417 0
M  V30 64595 H 6000.67 -3.04957 -1.0855 0
M  V30 64596 H 5999.58 -3.55105 1.17691 0
M  V30 64597 H 6000.91 -4.67824 1.52975 0
M  V30 64598 N 6002.56 -0.718087 -1.4029 0
M  V30 64599 C 6003.53 -0.0758288 -2.29075 0
M  V30 64600 C 6004.53 0.684779 -1.4549 0
M  V30 64601 O 6005.72 0.51631 -1.66373 0
M  V30 64602 C 6002.85 0.902418 -3.28739 0
M  V30 64603 H 6004.04 -0.85783 -2.8737 0
M  V30 64604 H 6001.6 -0.482891 -1.48653 0
M  V30 64605 H 6002.33 1.71138 -2.75467 0
M  V30 64606 H 6002.12 0.359871 -3.90445 0
M  V30 64607 H 6003.61 1.3489 -3.95215 0
M  V30 64608 N 6004.04 1.50601 -0.464455 0
M  V30 64609 C 6005.01 2.2693 0.32177 0
M  V30 64610 C 6006.01 1.31443 0.926243 0
M  V30 64611 O 6007.2 1.54926 0.796457 0
M  V30 64612 C 6004.33 3.0816 1.45774 0
M  V30 64613 H 6005.52 2.97879 -0.347541 0
M  V30 64614 H 6003.07 1.54768 -0.218333 0
M  V30 64615 H 6003.81 2.41692 2.1623 0
M  V30 64616 H 6003.59 3.78325 1.03018 0
M  V30 64617 H 6005.08 3.65906 2.01253 0
M  V30 64618 N 6005.52 0.196805 1.56366 0
M  V30 64619 C 6006.75 -0.450173 2.02455 0
M  V30 64620 C 6007.17 -1.54284 1.07602 0
M  V30 64621 O 6006.53 -1.81201 0.0598166 0
M  V30 64622 C 6006.58 -0.981965 3.46972 0
M  V30 64623 O 6005.68 -2.09476 3.55237 0
M  V30 64624 H 6005.02 -0.104999 0.655646 0
M  V30 64625 H 6007.55 0.308184 2.02266 0
M  V30 64626 H 6007.56 -1.29813 3.86798 0
M  V30 64627 H 6006.24 -0.182094 4.15501 0
M  V30 64628 H 6004.81 -1.78711 3.27287 0
M  V30 64629 N 6007 -1.57413 -0.0767852 0
M  V30 64630 C 6008.25 -1.86635 -0.775348 0
M  V30 64631 C 6008.57 -0.788103 -1.78365 0
M  V30 64632 O 6007.84 0.183767 -1.95036 0
M  V30 64633 H 6006.42 -0.688688 -0.28934 0
M  V30 64634 H 6009.08 -1.94825 -0.05406 0
M  V30 64635 H 6008.18 -2.83981 -1.29464 0
M  V30 64636 N 6008.48 0.348057 -1.53709 0
M  V30 64637 C 6009.41 1.43289 -1.84365 0
M  V30 64638 C 6010.39 1.551 -0.69843 0
M  V30 64639 O 6011.57 1.69381 -0.949924 0
M  V30 64640 C 6008.7 2.804 -2.04922 0
M  V30 64641 C 6007.66 2.834 -3.20731 0
M  V30 64642 C 6006.98 4.23354 -3.26612 0
M  V30 64643 C 6008.28 2.49342 -4.5894 0
M  V30 64644 H 6009.98 1.17882 -2.75216 0
M  V30 64645 H 6007.52 0.565645 -1.32425 0
M  V30 64646 H 6009.48 3.56335 -2.24952 0
M  V30 64647 H 6008.2 3.07232 -1.10797 0
M  V30 64648 H 6006.86 2.09918 -3.00549 0
M  V30 64649 H 6006.51 4.47289 -2.30091 0
M  V30 64650 H 6006.21 4.26273 -4.04432 0
M  V30 64651 H 6007.73 5.01137 -3.48847 0
M  V30 64652 H 6009.14 3.14989 -4.79014 0
M  V30 64653 H 6007.54 2.63551 -5.3913 0
M  V30 64654 H 6008.61 1.44541 -4.62856 0
M  V30 64655 N 6009.95 1.45365 0.608825 0
M  V30 64656 C 6010.88 1.56784 1.73034 0
M  V30 64657 C 6011.87 0.419463 1.64847 0
M  V30 64658 O 6013.05 0.642445 1.83266 0
M  V30 64659 C 6010.18 1.53301 3.11634 0
M  V30 64660 C 6009.13 2.66843 3.34632 0
M  V30 64661 C 6008.46 2.48415 4.73492 0
M  V30 64662 C 6009.76 4.08861 3.25007 0
M  V30 64663 H 6011.45 2.50662 1.63735 0
M  V30 64664 H 6009 1.20637 0.786295 0
M  V30 64665 H 6010.95 1.59887 3.8989 0
M  V30 64666 H 6009.68 0.559527 3.21771 0
M  V30 64667 H 6008.34 2.59684 2.58766 0
M  V30 64668 H 6007.98 1.49208 4.8036 0
M  V30 64669 H 6007.68 3.24555 4.89835 0
M  V30 64670 H 6009.21 2.56852 5.53949 0
M  V30 64671 H 6010.62 4.17271 3.93138 0
M  V30 64672 H 6009.02 4.85382 3.5288 0
M  V30 64673 H 6010.09 4.30856 2.22465 0
M  V30 64674 N 6011.43 -0.851219 1.32635 0
M  V30 64675 C 6012.66 -1.63801 1.264 0
M  V30 64676 C 6013.08 -1.88057 -0.167388 0
M  V30 64677 O 6012.43 -1.452 -1.10559 0
M  V30 64678 C 6012.48 -2.99533 2.02392 0
M  V30 64679 O 6012.2 -2.76349 3.39945 0
M  V30 64680 C 6013.71 -3.93975 2.03221 0
M  V30 64681 H 6010.93 -0.510073 0.435966 0
M  V30 64682 H 6013.47 -1.06116 1.74813 0
M  V30 64683 H 6011.62 -3.53853 1.57692 0
M  V30 64684 H 6012.04 -3.62695 3.78883 0
M  V30 64685 H 6013.51 -4.86469 2.60868 0
M  V30 64686 H 6013.99 -4.27207 1.01933 0
M  V30 64687 H 6014.6 -3.45592 2.47884 0
M  V30 64688 N 6012.91 -1.15902 -1.06792 0
M  V30 64689 C 6014.14 -0.961923 -1.83744 0
M  V30 64690 C 6014.56 0.484876 -1.81743 0
M  V30 64691 O 6013.92 1.34606 -1.21453 0
M  V30 64692 C 6013.97 -1.48775 -3.28479 0
M  V30 64693 O 6013.07 -0.690719 -4.06575 0
M  V30 64694 H 6012.41 -0.342684 -0.568738 0
M  V30 64695 H 6014.94 -1.5402 -1.34682 0
M  V30 64696 H 6014.95 -1.50305 -3.79305 0
M  V30 64697 H 6013.63 -2.54101 -3.2925 0
M  V30 64698 H 6012.2 -0.745518 -3.65372 0
M  V30 64699 N 6014.39 1.2524 -0.956703 0
M  V30 64700 C 6015.32 2.28157 -0.496654 0
M  V30 64701 C 6016.3 1.63816 0.458074 0
M  V30 64702 O 6017.48 1.90898 0.356581 0
M  V30 64703 C 6014.61 3.46574 0.224418 0
M  V30 64704 C 6013.57 4.23108 -0.645253 0
M  V30 64705 C 6012.89 5.343 0.206679 0
M  V30 64706 C 6014.19 4.85556 -1.92439 0
M  V30 64707 H 6015.89 2.6689 -1.35684 0
M  V30 64708 H 6013.43 1.28299 -0.653872 0
M  V30 64709 H 6015.39 4.17697 0.557403 0
M  V30 64710 H 6014.11 3.06837 1.11887 0
M  V30 64711 H 6012.77 3.53771 -0.961352 0
M  V30 64712 H 6012.42 4.90804 1.10095 0
M  V30 64713 H 6012.12 5.86422 -0.37192 0
M  V30 64714 H 6013.64 6.08255 0.534584 0
M  V30 64715 H 6015.06 5.48811 -1.65769 0
M  V30 64716 H 6013.45 5.47862 -2.44882 0
M  V30 64717 H 6014.52 4.07625 -2.62621 0
M  V30 64718 N 6015.87 0.725517 1.39907 0
M  V30 64719 C 6016.81 0.0793644 2.30664 0
M  V30 64720 C 6017.78 -0.739788 1.48716 0
M  V30 64721 O 6018.97 -0.701699 1.77428 0
M  V30 64722 C 6016.11 -0.829046 3.34994 0
M  V30 64723 C 6015.22 0.00169966 4.32 0
M  V30 64724 C 6014.36 -0.907107 5.23398 0
M  V30 64725 C 6013.4 -0.0710422 6.12059 0
M  V30 64726 N 6012.53 -0.935263 6.95843 0
M  V30 64727 H 6017.37 0.85897 2.85352 0
M  V30 64728 H 6014.91 0.435263 1.40513 0
M  V30 64729 H 6016.87 -1.37007 3.94062 0
M  V30 64730 H 6015.5 -1.57473 2.81784 0
M  V30 64731 H 6014.55 0.660035 3.7463 0
M  V30 64732 H 6015.86 0.648561 4.94566 0
M  V30 64733 H 6015.02 -1.51632 5.87446 0
M  V30 64734 H 6013.76 -1.58777 4.6113 0
M  V30 64735 H 6012.76 0.551036 5.47032 0
M  V30 64736 H 6013.99 0.606263 6.76388 0
M  V30 64737 H 6011.93 -1.60139 6.36154 0
M  V30 64738 H 6011.85 -0.344666 7.55214 0
M  V30 64739 H 6013.12 -1.53034 7.6433 0
M  V30 64740 N 6017.35 -1.50352 0.472435 0
M  V30 64741 C 6018.62 -1.95071 -0.143735 0
M  V30 64742 C 6019 -1.41286 -1.56849 0
M  V30 64743 O 6018.35 -0.614426 -2.20084 0
M  V30 64744 C 6018.56 -3.48895 -0.0856717 0
M  V30 64745 C 6019.91 -4.23716 -0.27389 0
M  V30 64746 O 6020.93 -3.55831 -0.162194 0
M  V30 64747 O 6019.79 -5.44211 -0.499623 0
M  V30 64748 H 6016.89 -0.819525 -0.110938 0
M  V30 64749 H 6019.43 -1.61115 0.532933 0
M  V30 64750 H 6018.2 -3.80595 0.909021 0
M  V30 64751 H 6017.83 -3.89392 -0.803739 0
M  V30 64752 N 6018.82 -0.205094 -1.5626 0
M  V30 64753 C 6019.77 0.728356 -2.20902 0
M  V30 64754 C 6020.77 1.21224 -1.18326 0
M  V30 64755 O 6021.97 1.17397 -1.36447 0
M  V30 64756 H 6018.35 0.253258 -0.708071 0
M  V30 64757 H 6020.32 0.15955 -2.97973 0
M  V30 64758 C 6019.07 1.933 -2.89016 0
M  V30 64759 H 6018.39 1.56975 -3.67694 0
M  V30 64760 H 6019.83 2.56428 -3.37669 0
M  V30 64761 C 6018.29 2.77808 -1.9059 0
M  V30 64762 O 6018.82 3.76048 -1.41246 0
M  V30 64763 N 6017.02 2.43505 -1.58599 0
M  V30 64764 H 6016.57 1.63673 -1.9892 0
M  V30 64765 H 6016.53 3.0033 -0.930024 0
M  V30 64766 N 6020.3 1.57451 0.0684361 0
M  V30 64767 C 6021.55 1.87692 0.768091 0
M  V30 64768 C 6021.88 0.797822 1.77055 0
M  V30 64769 O 6021.16 -0.191546 1.93555 0
M  V30 64770 C 6021.44 3.28592 1.47307 0
M  V30 64771 C 6021.29 4.47158 0.486797 0
M  V30 64772 C 6022.61 3.6778 2.41714 0
M  V30 64773 H 6019.73 0.682652 0.277769 0
M  V30 64774 H 6022.37 1.89974 0.03123 0
M  V30 64775 H 6020.52 3.26777 2.10117 0
M  V30 64776 H 6022.19 4.61098 -0.136352 0
M  V30 64777 H 6020.44 4.3335 -0.197581 0
M  V30 64778 H 6021.11 5.42536 1.01776 0
M  V30 64779 H 6023.58 3.7071 1.88979 0
M  V30 64780 H 6022.46 4.6725 2.88043 0
M  V30 64781 H 6022.72 2.97893 3.26668 0
M  V30 64782 N 6021.78 -0.339901 1.53891 0
M  V30 64783 C 6023.19 -0.915304 1.62724 0
M  V30 64784 C 6023.54 -1.89432 0.510864 0
M  V30 64785 O 6022.67 -2.13404 -0.358825 0
M  V30 64786 C 6023.26 -1.66688 2.94958 0
M  V30 64787 C 6021.82 -2.19125 3.06041 0
M  V30 64788 C 6020.97 -1.0115 2.58194 0
M  V30 64789 H 6023.92 -0.117934 1.58261 0
M  V30 64790 H 6023.94 -2.53001 2.84202 0
M  V30 64791 H 6023.45 -0.954086 3.7619 0
M  V30 64792 H 6021.55 -2.93569 2.29451 0
M  V30 64793 H 6021.67 -2.45246 4.11572 0
M  V30 64794 H 6020.03 -1.38596 2.13689 0
M  V30 64795 H 6020.81 -0.313275 3.41868 0
M  V30 64796 N 6023.26 -1.45686 -0.601108 0
M  V30 64797 C 6024.2 -1.54852 -1.71142 0
M  V30 64798 C 6025.17 -0.393971 -1.6136 0
M  V30 64799 O 6026.36 -0.608285 -1.80844 0
M  V30 64800 C 6023.5 -1.52734 -3.09462 0
M  V30 64801 C 6022.61 -2.78788 -3.30002 0
M  V30 64802 C 6021.75 -2.68297 -4.58465 0
M  V30 64803 C 6020.79 -3.89375 -4.72286 0
M  V30 64804 N 6019.92 -3.7738 -5.92055 0
M  V30 64805 H 6024.76 -2.49702 -1.62644 0
M  V30 64806 H 6022.3 -1.23897 -0.792963 0
M  V30 64807 H 6024.26 -1.49493 -3.89497 0
M  V30 64808 H 6022.89 -0.6143 -3.16901 0
M  V30 64809 H 6021.94 -2.92088 -2.43698 0
M  V30 64810 H 6023.25 -3.68575 -3.36086 0
M  V30 64811 H 6022.41 -2.63058 -5.46704 0
M  V30 64812 H 6021.15 -1.76119 -4.54789 0
M  V30 64813 H 6020.15 -3.94966 -3.82469 0
M  V30 64814 H 6021.38 -4.82626 -4.77754 0
M  V30 64815 H 6019.32 -2.87976 -5.89412 0
M  V30 64816 H 6019.24 -4.60807 -5.99327 0
M  V30 64817 H 6020.51 -3.76085 -6.82774 0
M  V30 64818 N 6024.74 0.844173 -1.33084 0
M  V30 64819 C 6025.7 1.93515 -1.22819 0
M  V30 64820 C 6026.7 1.60112 -0.148572 0
M  V30 64821 O 6027.89 1.69552 -0.399728 0
M  V30 64822 C 6025.02 3.29042 -0.891295 0
M  V30 64823 H 6026.21 2.04043 -2.19787 0
M  V30 64824 H 6023.77 1.03562 -1.17066 0
M  V30 64825 H 6024.5 3.24211 0.0761136 0
M  V30 64826 H 6024.29 3.54665 -1.67198 0
M  V30 64827 H 6025.78 4.08981 -0.844076 0
M  V30 64828 N 6026.21 1.16466 1.06176 0
M  V30 64829 C 6027.44 0.971139 1.82692 0
M  V30 64830 C 6027.86 -0.480652 1.82579 0
M  V30 64831 O 6027.21 -1.33361 1.24583 0
M  V30 64832 C 6027.26 1.49246 3.29253 0
M  V30 64833 O 6026.99 2.88739 3.29486 0
M  V30 64834 C 6028.49 1.34212 4.22495 0
M  V30 64835 H 6025.71 0.34417 0.57601 0
M  V30 64836 H 6028.25 1.54522 1.33952 0
M  V30 64837 H 6026.41 0.960635 3.75301 0
M  V30 64838 H 6026.82 3.12633 4.21142 0
M  V30 64839 H 6028.29 1.75518 5.23352 0
M  V30 64840 H 6028.77 0.287839 4.38256 0
M  V30 64841 H 6029.38 1.86362 3.82295 0
M  V30 64842 N 6027.69 -1.2473 0.963332 0
M  V30 64843 C 6028.94 -1.92303 0.621603 0
M  V30 64844 C 6029.26 -1.75726 -0.845301 0
M  V30 64845 O 6028.53 -1.12616 -1.60295 0
M  V30 64846 H 6027.11 -0.711702 0.226911 0
M  V30 64847 H 6029.77 -1.51715 1.22346 0
M  V30 64848 H 6028.87 -3.00062 0.858427 0
M  V30 64849 N 6029.17 -0.732927 -1.3952 0
M  V30 64850 C 6030.42 -0.280376 -2.00853 0
M  V30 64851 C 6030.75 1.12885 -1.58021 0
M  V30 64852 O 6030.02 1.76916 -0.808149 0
M  V30 64853 C 6030.31 -0.379906 -3.5809 0
M  V30 64854 C 6030.16 -1.82875 -4.10946 0
M  V30 64855 C 6031.48 0.238871 -4.39451 0
M  V30 64856 H 6028.6 -0.103352 -0.729717 0
M  V30 64857 H 6031.24 -0.928692 -1.65757 0
M  V30 64858 H 6029.39 0.172062 -3.88119 0
M  V30 64859 H 6031.06 -2.43744 -3.91646 0
M  V30 64860 H 6029.3 -2.35076 -3.64584 0
M  V30 64861 H 6029.98 -1.84968 -5.20087 0
M  V30 64862 H 6032.45 -0.231634 -4.15455 0
M  V30 64863 H 6031.33 0.138875 -5.48724 0
M  V30 64864 H 6031.59 1.32466 -4.21788 0
M  V30 64865 N 6030.65 1.501 -0.480402 0
M  V30 64866 C 6031.58 2.31582 0.298636 0
M  V30 64867 C 6032.56 1.38909 0.98175 0
M  V30 64868 O 6033.74 1.67827 0.977129 0
M  V30 64869 C 6030.87 3.18896 1.3756 0
M  V30 64870 C 6029.83 4.20197 0.813556 0
M  V30 64871 C 6029.15 4.96309 1.9895 0
M  V30 64872 C 6030.45 5.21985 -0.181479 0
M  V30 64873 H 6032.15 2.9696 -0.381453 0
M  V30 64874 H 6029.69 1.42808 -0.184893 0
M  V30 64875 H 6031.65 3.747 1.92815 0
M  V30 64876 H 6030.37 2.51421 2.08459 0
M  V30 64877 H 6029.03 3.65507 0.282906 0
M  V30 64878 H 6028.68 4.253 2.68569 0
M  V30 64879 H 6028.38 5.64838 1.61961 0
M  V30 64880 H 6029.9 5.54952 2.54678 0
M  V30 64881 H 6031.32 5.72605 0.282219 0
M  V30 64882 H 6029.71 5.98287 -0.466126 0
M  V30 64883 H 6030.78 4.72158 -1.1043 0
M  V30 64884 N 6032.13 0.213378 1.56149 0
M  V30 64885 C 6033.36 -0.425 2.02181 0
M  V30 64886 C 6033.76 -1.54467 1.09254 0
M  V30 64887 O 6033.11 -1.83465 0.092923 0
M  V30 64888 C 6033.17 -1.02521 3.44572 0
M  V30 64889 C 6032.83 -0.0420006 4.56981 0
M  V30 64890 C 6033.83 0.75538 5.14383 0
M  V30 64891 C 6031.52 0.0743847 5.02245 0
M  V30 64892 C 6033.51 1.65593 6.15514 0
M  V30 64893 C 6031.2 0.978476 6.03216 0
M  V30 64894 C 6032.19 1.7678 6.59726 0
M  V30 64895 O 6031.88 2.65671 7.58732 0
M  V30 64896 H 6031.61 -0.109161 0.667128 0
M  V30 64897 H 6034.17 0.324825 2.02815 0
M  V30 64898 H 6032.4 -1.82397 3.40981 0
M  V30 64899 H 6034.09 -1.57014 3.74301 0
M  V30 64900 H 6034.85 0.675869 4.80268 0
M  V30 64901 H 6030.73 -0.529855 4.57945 0
M  V30 64902 H 6034.28 2.27246 6.59549 0
M  V30 64903 H 6030.17 1.05903 6.36753 0
M  V30 64904 H 6030.94 2.59654 7.76223 0
M  V30 64905 N 6033.6 -1.57485 -0.0600851 0
M  V30 64906 C 6034.88 -1.78907 -0.790669 0
M  V30 64907 C 6035.26 -0.80387 -1.95195 0
M  V30 64908 O 6034.61 0.16059 -2.27935 0
M  V30 64909 C 6034.82 -3.25743 -1.25271 0
M  V30 64910 C 6036.17 -3.89893 -1.68133 0
M  V30 64911 O 6037.19 -3.29705 -1.34808 0
M  V30 64912 O 6036.05 -4.95804 -2.29872 0
M  V30 64913 H 6033.14 -0.734636 -0.379788 0
M  V30 64914 H 6035.69 -1.69655 -0.0392554 0
M  V30 64915 H 6034.46 -3.89014 -0.422305 0
M  V30 64916 H 6034.09 -3.39765 -2.06509 0
M  V30 64917 N 6035.08 0.331735 -1.54069 0
M  V30 64918 C 6036.31 1.0888 -1.75581 0
M  V30 64919 C 6036.72 1.8246 -0.500494 0
M  V30 64920 O 6036.06 1.75642 0.538098 0
M  V30 64921 C 6036.13 2.13848 -2.8898 0
M  V30 64922 C 6035.79 1.59739 -4.28173 0
M  V30 64923 C 6036.79 1.04347 -5.09321 0
M  V30 64924 C 6034.47 1.64229 -4.74694 0
M  V30 64925 C 6036.47 0.541633 -6.35095 0
M  V30 64926 C 6034.15 1.13658 -6.00437 0
M  V30 64927 C 6035.15 0.587187 -6.80471 0
M  V30 64928 O 6034.84 0.0890541 -8.03851 0
M  V30 64929 H 6034.57 0.330054 -0.58995 0
M  V30 64930 H 6037.12 0.386056 -2.01739 0
M  V30 64931 H 6035.35 2.87715 -2.58373 0
M  V30 64932 H 6037.04 2.75212 -2.98351 0
M  V30 64933 H 6037.81 1.00191 -4.74538 0
M  V30 64934 H 6033.69 2.05931 -4.12448 0
M  V30 64935 H 6037.23 0.112155 -6.9751 0
M  V30 64936 H 6033.13 1.17518 -6.34712 0
M  V30 64937 H 6033.9 0.205242 -8.18243 0
M  V30 64938 N 6036.56 1.46003 0.593373 0
M  V30 64939 C 6037.81 1.50983 1.35395 0
M  V30 64940 C 6038.14 0.156694 1.93567 0
M  V30 64941 O 6037.41 -0.830608 1.75873 0
M  V30 64942 C 6037.7 2.60014 2.49128 0
M  V30 64943 C 6037.55 4.04821 1.96061 0
M  V30 64944 C 6038.87 2.65211 3.51214 0
M  V30 64945 H 6035.99 0.549674 0.490945 0
M  V30 64946 H 6038.63 1.77886 0.667581 0
M  V30 64947 H 6036.78 2.37205 3.07679 0
M  V30 64948 H 6038.45 4.38884 1.4205 0
M  V30 64949 H 6036.7 4.14805 1.26962 0
M  V30 64950 H 6037.37 4.76821 2.78112 0
M  V30 64951 H 6039.84 2.85686 3.02527 0
M  V30 64952 H 6038.72 3.43338 4.28264 0
M  V30 64953 H 6038.98 1.70848 4.07754 0
M  V30 64954 N 6038.04 -0.837103 1.3353 0
M  V30 64955 C 6038.99 -1.96845 1.23915 0
M  V30 64956 C 6039.98 -1.68819 0.140155 0
M  V30 64957 O 6041.19 -1.7741 0.304228 0
M  V30 64958 H 6037.56 -0.646219 0.384584 0
M  V30 64959 H 6039.53 -2.0208 2.19559 0
M  V30 64960 C 6038.28 -3.33099 0.997024 0
M  V30 64961 H 6037.6 -3.55204 1.83495 0
M  V30 64962 H 6039.04 -4.12754 0.970055 0
M  V30 64963 C 6037.5 -3.35562 -0.300012 0
M  V30 64964 O 6038.03 -3.79873 -1.30612 0
M  V30 64965 N 6036.24 -2.88741 -0.328168 0
M  V30 64966 H 6035.79 -2.52875 0.491131 0
M  V30 64967 H 6035.74 -2.90771 -1.1958 0
M  V30 64968 N 6039.52 -1.17028 -1.05557 0
M  V30 64969 C 6040.46 -0.883635 -2.13215 0
M  V30 64970 C 6041.43 0.170967 -1.65218 0
M  V30 64971 O 6042.62 0.0345571 -1.90769 0
M  V30 64972 C 6039.76 -0.399033 -3.42785 0
M  V30 64973 C 6038.87 -1.51733 -4.04477 0
M  V30 64974 C 6038.01 -0.986977 -5.2195 0
M  V30 64975 C 6037.05 -2.08097 -5.75641 0
M  V30 64976 N 6036.18 -1.56566 -6.84421 0
M  V30 64977 H 6041.02 -1.80556 -2.37073 0
M  V30 64978 H 6038.56 -0.900601 -1.16308 0
M  V30 64979 H 6040.52 -0.0996484 -4.17081 0
M  V30 64980 H 6039.15 0.485937 -3.19121 0
M  V30 64981 H 6038.2 -1.93252 -3.27655 0
M  V30 64982 H 6039.51 -2.34258 -4.40369 0
M  V30 64983 H 6038.67 -0.641219 -6.03302 0
M  V30 64984 H 6037.4 -0.131114 -4.87524 0
M  V30 64985 H 6036.41 -2.43534 -4.92921 0
M  V30 64986 H 6037.63 -2.94093 -6.12116 0
M  V30 64987 H 6035.58 -0.73245 -6.51898 0
M  V30 64988 H 6035.5 -2.32702 -7.19295 0
M  V30 64989 H 6036.77 -1.24871 -7.69433 0
M  V30 64990 N 6040.99 1.24218 -0.969933 0
M  V30 64991 C 6042.22 1.96116 -0.649784 0
M  V30 64992 C 6042.63 1.72129 0.785375 0
M  V30 64993 O 6041.98 1.00324 1.53885 0
M  V30 64994 C 6042.04 3.49371 -0.847358 0
M  V30 64995 C 6041.7 3.97059 -2.26258 0
M  V30 64996 C 6042.7 4.06557 -3.24049 0
M  V30 64997 C 6040.38 4.30324 -2.59087 0
M  V30 64998 C 6042.38 4.48657 -4.52754 0
M  V30 64999 C 6040.06 4.72107 -3.88018 0
M  V30 65000 C 6041.06 4.81239 -4.84663 0
M  V30 65001 O 6040.75 5.22088 -6.11293 0
M  V30 65002 H 6040.48 0.631481 -0.241262 0
M  V30 65003 H 6043.04 1.58943 -1.30101 0
M  V30 65004 H 6041.27 3.8645 -0.138964 0
M  V30 65005 H 6042.96 4.02478 -0.525958 0
M  V30 65006 H 6043.72 3.81072 -3.00015 0
M  V30 65007 H 6039.6 4.22435 -1.8458 0
M  V30 65008 H 6043.14 4.55699 -5.2819 0
M  V30 65009 H 6039.04 4.9704 -4.11852 0
M  V30 65010 H 6039.81 5.40231 -6.14893 0
M  V30 65011 N 6042.47 0.740315 1.3913 0
M  V30 65012 C 6043.42 0.0797837 2.2786 0
M  V30 65013 C 6044.41 -0.707095 1.4453 0
M  V30 65014 O 6045.6 -0.57523 1.67392 0
M  V30 65015 C 6042.73 -0.822701 3.33296 0
M  V30 65016 C 6041.81 -0.0296869 4.2409 0
M  V30 65017 N 6042.2 0.999912 4.95818 0
M  V30 65018 C 6040.5 -0.258535 4.4525 0
M  V30 65019 C 6041.2 1.47857 5.62595 0
M  V30 65020 N 6040.18 0.796217 5.37737 0
M  V30 65021 H 6043.98 0.868534 2.80773 0
M  V30 65022 H 6041.5 0.575132 1.51875 0
M  V30 65023 H 6043.49 -1.31143 3.95736 0
M  V30 65024 H 6042.15 -1.61055 2.81942 0
M  V30 65025 H 6043.16 1.3814 4.99137 0
M  V30 65026 H 6039.84 -1.02077 4.04829 0
M  V30 65027 H 6041.23 2.33546 6.30005 0
M  V30 65028 N 6043.95 -1.49843 0.488355 0
M  V30 65029 C 6045.2 -2.03332 -0.0527636 0
M  V30 65030 C 6045.55 -1.36245 -1.35849 0
M  V30 65031 O 6044.84 -0.484883 -1.85363 0
M  V30 65032 C 6045.04 -3.56343 -0.274726 0
M  V30 65033 C 6044.87 -4.38259 1.00794 0
M  V30 65034 C 6043.64 -4.80741 1.55616 0
M  V30 65035 C 6045.84 -4.77601 1.90791 0
M  V30 65036 N 6043.82 -5.4704 2.78605 0
M  V30 65037 C 6045.19 -5.43489 2.98362 0
M  V30 65038 C 6047.24 -4.59549 1.91622 0
M  V30 65039 C 6045.95 -5.93235 4.06774 0
M  V30 65040 C 6047.97 -5.10247 2.99001 0
M  V30 65041 C 6047.33 -5.76124 4.05291 0
M  V30 65042 H 6043.43 -0.781714 0.0211554 0
M  V30 65043 H 6046.02 -1.83158 0.660404 0
M  V30 65044 H 6044.19 -3.76427 -0.956941 0
M  V30 65045 H 6045.92 -3.96476 -0.811723 0
M  V30 65046 H 6042.68 -4.60577 1.103 0
M  V30 65047 H 6043.1 -5.84785 3.4111 0
M  V30 65048 H 6047.74 -4.08035 1.10758 0
M  V30 65049 H 6045.46 -6.43777 4.88444 0
M  V30 65050 H 6049.05 -4.98098 3.00648 0
M  V30 65051 H 6047.93 -6.14646 4.87012 0
M  V30 65052 N 6045.43 -0.221656 -1.56033 0
M  V30 65053 C 6046.34 0.699759 -2.23921 0
M  V30 65054 C 6047.36 1.21363 -1.24688 0
M  V30 65055 O 6048.53 1.25522 -1.575 0
M  V30 65056 C 6045.6 1.89096 -2.90592 0
M  V30 65057 C 6044.66 1.41906 -4.05168 0
M  V30 65058 C 6043.89 2.55348 -4.6865 0
M  V30 65059 O 6044.11 3.73485 -4.31121 0
M  V30 65060 O 6043.05 2.26544 -5.57639 0
M  V30 65061 H 6046.87 0.151445 -3.03322 0
M  V30 65062 H 6044.46 0.00879568 -1.49397 0
M  V30 65063 H 6046.34 2.58663 -3.32673 0
M  V30 65064 H 6045.02 2.42738 -2.1415 0
M  V30 65065 H 6043.92 0.691407 -3.67655 0
M  V30 65066 H 6045.26 0.929019 -4.83353 0
M  V30 65067 N 6046.91 1.57515 0.0517324 0
M  V30 65068 C 6047.86 2.01511 1.06665 0
M  V30 65069 C 6048.84 0.900479 1.33342 0
M  V30 65070 O 6050.03 1.1644 1.33307 0
M  V30 65071 C 6047.16 2.47928 2.37458 0
M  V30 65072 C 6046.25 3.66167 2.13969 0
M  V30 65073 N 6046.64 4.79671 1.60466 0
M  V30 65074 C 6044.94 3.73104 2.44356 0
M  V30 65075 C 6045.64 5.6142 1.52258 0
M  V30 65076 N 6044.61 5.05858 1.9902 0
M  V30 65077 H 6048.42 2.86698 0.646628 0
M  V30 65078 H 6045.93 1.6033 0.258462 0
M  V30 65079 H 6047.93 2.77696 3.10951 0
M  V30 65080 H 6046.59 1.64137 2.80159 0
M  V30 65081 H 6047.6 5.01564 1.29049 0
M  V30 65082 H 6044.28 3.00067 2.90286 0
M  V30 65083 H 6045.67 6.62571 1.11575 0
M  V30 65084 N 6048.39 -0.32356 1.54243 0
M  V30 65085 C 6049.61 -1.08104 1.76412 0
M  V30 65086 C 6050.03 -1.81705 0.51272 0
M  V30 65087 O 6049.39 -1.75036 -0.516576 0
M  V30 65088 C 6049.44 -2.07913 2.95727 0
M  V30 65089 O 6049.16 -1.37302 4.16029 0
M  V30 65090 C 6050.66 -2.95879 3.30107 0
M  V30 65091 H 6047.88 -0.321562 0.58893 0
M  V30 65092 H 6050.42 -0.369686 2.01131 0
M  V30 65093 H 6048.58 -2.74583 2.73281 0
M  V30 65094 H 6048.99 -2.04141 4.83142 0
M  V30 65095 H 6050.47 -3.61807 4.16893 0
M  V30 65096 H 6050.94 -3.62977 2.47273 0
M  V30 65097 H 6051.55 -2.34771 3.54631 0
M  V30 65098 N 6049.86 -1.46316 -0.585622 0
M  V30 65099 C 6051.11 -1.51175 -1.34128 0
M  V30 65100 C 6051.43 -0.163759 -1.94311 0
M  V30 65101 O 6050.7 0.809382 -1.78398 0
M  V30 65102 H 6049.28 -0.556786 -0.497995 0
M  V30 65103 H 6051.94 -1.82426 -0.686069 0
M  V30 65104 H 6051.04 -2.26282 -2.14949 0
M  V30 65105 N 6051.34 0.83001 -1.33972 0
M  V30 65106 C 6052.27 1.95552 -1.27599 0
M  V30 65107 C 6053.25 1.69394 -0.154805 0
M  V30 65108 O 6054.44 1.91092 -0.346021 0
M  V30 65109 C 6051.57 3.31877 -1.02347 0
M  V30 65110 C 6050.52 3.72457 -2.10855 0
M  V30 65111 C 6049.85 5.06686 -1.70802 0
M  V30 65112 C 6051.15 3.85302 -3.52618 0
M  V30 65113 H 6052.84 2.01143 -2.2177 0
M  V30 65114 H 6050.39 0.966353 -1.0676 0
M  V30 65115 H 6052.34 4.10194 -0.965351 0
M  V30 65116 H 6051.06 3.26567 -0.046161 0
M  V30 65117 H 6049.72 2.9641 -2.15724 0
M  V30 65118 H 6049.37 4.97856 -0.717509 0
M  V30 65119 H 6049.07 5.34808 -2.43422 0
M  V30 65120 H 6050.6 5.87468 -1.66473 0
M  V30 65121 H 6052.01 4.53908 -3.50201 0
M  V30 65122 H 6050.41 4.24871 -4.23798 0
M  V30 65123 H 6051.48 2.875 -3.90476 0
M  V30 65124 N 6052.82 1.17586 1.04935 0
M  V30 65125 C 6054.05 0.990461 1.81652 0
M  V30 65126 C 6054.46 -0.46126 1.83079 0
M  V30 65127 O 6053.82 -1.32032 1.25991 0
M  V30 65128 C 6053.87 1.5273 3.27652 0
M  V30 65129 O 6053.59 2.92218 3.26405 0
M  V30 65130 C 6055.09 1.38686 4.21048 0
M  V30 65131 H 6052.31 0.35026 0.572328 0
M  V30 65132 H 6054.86 1.55934 1.32306 0
M  V30 65133 H 6053.01 1.00039 3.74261 0
M  V30 65134 H 6053.43 3.17082 4.17803 0
M  V30 65135 H 6054.9 1.81059 5.21461 0
M  V30 65136 H 6055.38 0.334305 4.37926 0
M  V30 65137 H 6055.98 1.90406 3.80297 0
M  V30 65138 N 6054.3 -1.23702 0.976507 0
M  V30 65139 C 6055.23 -2.27338 0.532889 0
M  V30 65140 C 6056.21 -1.64524 -0.431954 0
M  V30 65141 O 6057.39 -1.91441 -0.326165 0
M  V30 65142 C 6054.52 -3.46887 -0.169252 0
M  V30 65143 C 6053.48 -4.22028 0.712484 0
M  V30 65144 C 6052.8 -5.34562 -0.12165 0
M  V30 65145 C 6054.1 -4.82433 2.0014 0
M  V30 65146 H 6055.8 -2.64697 1.39913 0
M  V30 65147 H 6053.34 -1.27242 0.674201 0
M  V30 65148 H 6055.3 -4.18531 -0.49088 0
M  V30 65149 H 6054.02 -3.08578 -1.06991 0
M  V30 65150 H 6052.68 -3.52196 1.01751 0
M  V30 65151 H 6052.33 -4.92493 -1.02273 0
M  V30 65152 H 6052.03 -5.85756 0.465168 0
M  V30 65153 H 6053.55 -6.09029 -0.437748 0
M  V30 65154 H 6054.97 -5.46104 1.74479 0
M  V30 65155 H 6053.36 -5.43897 2.53567 0
M  V30 65156 H 6054.43 -4.03395 2.69073 0
M  V30 65157 N 6055.78 -0.747683 -1.38735 0
M  V30 65158 C 6057.19 -0.424632 -1.53847 0
M  V30 65159 C 6057.39 1.06298 -1.71181 0
M  V30 65160 O 6056.45 1.84906 -1.71947 0
M  V30 65161 C 6057.76 -1.21873 -2.74896 0
M  V30 65162 C 6059.31 -1.20821 -2.88741 0
M  V30 65163 C 6059.78 -1.98514 -4.12742 0
M  V30 65164 N 6061.27 -1.95745 -4.19807 0
M  V30 65165 C 6062.01 -2.52659 -5.14734 0
M  V30 65166 N 6061.51 -3.18262 -6.15371 0
M  V30 65167 N 6063.3 -2.42621 -5.07042 0
M  V30 65168 H 6055.45 -1.71187 -1.25733 0
M  V30 65169 H 6057.71 -0.72538 -0.610351 0
M  V30 65170 H 6057.42 -2.2719 -2.68472 0
M  V30 65171 H 6057.29 -0.831638 -3.67918 0
M  V30 65172 H 6059.68 -0.163117 -2.94649 0
M  V30 65173 H 6059.76 -1.63477 -1.96746 0
M  V30 65174 H 6059.4 -3.03032 -4.07596 0
M  V30 65175 H 6059.33 -1.53256 -5.03806 0
M  V30 65176 H 6061.83 -1.47962 -3.47729 0
M  V30 65177 H 6062.14 -3.59125 -6.84287 0
M  V30 65178 H 6060.48 -3.22356 -6.15721 0
M  V30 65179 H 6063.67 -1.91002 -4.27359 0
M  V30 65180 H 6063.85 -2.87274 -5.80842 0
M  V30 65181 N 6057.25 1.49582 -0.496295 0
M  V30 65182 C 6058.16 2.32809 0.289322 0
M  V30 65183 C 6059.18 1.44328 0.971882 0
M  V30 65184 O 6060.36 1.77356 0.954303 0
M  V30 65185 C 6057.42 3.1965 1.34257 0
M  V30 65186 C 6056.48 4.23977 0.673951 0
M  V30 65187 C 6055.71 5.06667 1.67702 0
M  V30 65188 O 6055.94 4.90802 2.90637 0
M  V30 65189 O 6054.87 5.89095 1.23494 0
M  V30 65190 H 6058.7 3.01162 -0.39177 0
M  V30 65191 H 6056.28 1.47161 -0.257704 0
M  V30 65192 H 6058.16 3.7346 1.95207 0
M  V30 65193 H 6056.84 2.53996 2.00668 0
M  V30 65194 H 6055.75 3.74092 0.0248417 0
M  V30 65195 H 6057.08 4.92172 0.0523712 0
M  V30 65196 N 6058.73 0.229928 1.55914 0
M  V30 65197 C 6059.98 -0.400087 1.98814 0
M  V30 65198 C 6060.31 -1.58817 1.11762 0
M  V30 65199 O 6059.59 -1.93691 0.177162 0
M  V30 65200 C 6059.87 -0.8265 3.50487 0
M  V30 65201 C 6059.72 0.365804 4.4831 0
M  V30 65202 C 6061.04 -1.67966 4.06787 0
M  V30 65203 H 6058.16 -0.143951 0.722805 0
M  V30 65204 H 6060.8 0.327841 1.8715 0
M  V30 65205 H 6058.95 -1.44674 3.60557 0
M  V30 65206 H 6060.62 1.00406 4.5024 0
M  V30 65207 H 6058.87 1.01183 4.21835 0
M  V30 65208 H 6059.54 0.0243757 5.51995 0
M  V30 65209 H 6062.01 -1.15625 3.99713 0
M  V30 65210 H 6060.89 -1.9469 5.13212 0
M  V30 65211 H 6061.15 -2.64582 3.54188 0
M  V30 65212 N 6060.21 -1.5754 -0.0433783 0
M  V30 65213 C 6061.44 -1.9325 -0.752944 0
M  V30 65214 C 6061.86 -0.828771 -1.68858 0
M  V30 65215 O 6061.22 0.216555 -1.80002 0
M  V30 65216 C 6061.27 -3.27994 -1.49841 0
M  V30 65217 O 6060.37 -3.19233 -2.61083 0
M  V30 65218 H 6059.71 -0.632039 -0.203525 0
M  V30 65219 H 6062.24 -2.046 -0.00312583 0
M  V30 65220 H 6062.25 -3.62546 -1.87148 0
M  V30 65221 H 6060.93 -4.07894 -0.812108 0
M  V30 65222 H 6059.5 -2.96288 -2.26424 0
M  V30 65223 N 6061.69 0.315375 -1.54412 0
M  V30 65224 C 6062.91 1.07604 -1.77303 0
M  V30 65225 C 6063.34 1.80653 -0.524026 0
M  V30 65226 O 6062.7 1.73538 0.524813 0
M  V30 65227 C 6062.74 2.04345 -2.97112 0
M  V30 65228 O 6061.85 3.12392 -2.6923 0
M  V30 65229 H 6061.19 0.309839 -0.587278 0
M  V30 65230 H 6063.72 0.357175 -2.01458 0
M  V30 65231 H 6063.73 2.47069 -3.24686 0
M  V30 65232 H 6062.4 1.50579 -3.87684 0
M  V30 65233 H 6060.98 2.74285 -2.52631 0
M  V30 65234 N 6063.17 1.46624 0.577854 0
M  V30 65235 C 6064.11 1.57555 1.68656 0
M  V30 65236 C 6065.08 0.419592 1.60713 0
M  V30 65237 O 6066.27 0.636979 1.79853 0
M  V30 65238 C 6063.41 1.57638 3.06993 0
M  V30 65239 C 6062.52 2.84003 3.25525 0
M  V30 65240 C 6061.66 2.75557 4.54139 0
M  V30 65241 C 6060.7 3.96839 4.66031 0
M  V30 65242 N 6059.83 3.86751 5.85976 0
M  V30 65243 H 6064.67 2.52258 1.58651 0
M  V30 65244 H 6062.21 1.25143 0.773151 0
M  V30 65245 H 6064.17 1.5567 3.87069 0
M  V30 65246 H 6062.8 0.664639 3.15884 0
M  V30 65247 H 6061.85 2.95929 2.3902 0
M  V30 65248 H 6063.16 3.73875 3.3018 0
M  V30 65249 H 6062.32 2.71722 5.4245 0
M  V30 65250 H 6061.05 1.83332 4.5193 0
M  V30 65251 H 6060.06 4.01 3.76137 0
M  V30 65252 H 6061.28 4.90166 4.70015 0
M  V30 65253 H 6059.23 2.97316 5.84756 0
M  V30 65254 H 6059.15 4.70283 5.9192 0
M  V30 65255 H 6060.42 3.86899 6.76705 0
M  V30 65256 N 6064.64 -0.822893 1.34411 0
M  V30 65257 C 6065.57 -1.94873 1.28634 0
M  V30 65258 C 6066.56 -1.6931 0.163786 0
M  V30 65259 O 6067.74 -1.90906 0.35615 0
M  V30 65260 C 6064.87 -3.3133 1.04105 0
M  V30 65261 C 6063.82 -3.71334 2.12827 0
M  V30 65262 C 6063.15 -5.05773 1.73487 0
M  V30 65263 C 6064.45 -3.83427 3.54656 0
M  V30 65264 H 6066.14 -1.99964 2.22834 0
M  V30 65265 H 6063.69 -0.960677 1.07271 0
M  V30 65266 H 6065.64 -4.09676 0.987091 0
M  V30 65267 H 6064.37 -3.26538 0.063479 0
M  V30 65268 H 6063.03 -2.95262 2.17293 0
M  V30 65269 H 6062.67 -4.97469 0.743902 0
M  V30 65270 H 6062.37 -5.3351 2.46254 0
M  V30 65271 H 6063.9 -5.86577 1.69586 0
M  V30 65272 H 6065.31 -4.52044 3.52603 0
M  V30 65273 H 6063.71 -4.22617 4.26045 0
M  V30 65274 H 6064.78 -2.85425 3.91996 0
M  V30 65275 N 6066.12 -1.18141 -1.0431 0
M  V30 65276 C 6067.54 -0.930569 -1.29663 0
M  V30 65277 C 6067.74 0.405267 -1.97382 0
M  V30 65278 O 6066.79 1.14017 -2.25292 0
M  V30 65279 C 6068.11 -2.09434 -2.15772 0
M  V30 65280 C 6069.66 -2.13237 -2.29127 0
M  V30 65281 C 6070.13 -3.29025 -3.18601 0
M  V30 65282 N 6071.62 -3.28871 -3.26188 0
M  V30 65283 C 6072.36 -4.15106 -3.95569 0
M  V30 65284 N 6071.85 -5.1147 -4.67301 0
M  V30 65285 N 6073.65 -4.03028 -3.91823 0
M  V30 65286 H 6065.8 -2.0411 -0.587597 0
M  V30 65287 H 6068.06 -0.891721 -0.321772 0
M  V30 65288 H 6067.77 -3.0603 -1.73317 0
M  V30 65289 H 6067.64 -2.05291 -3.16442 0
M  V30 65290 H 6070.03 -1.17222 -2.70819 0
M  V30 65291 H 6070.11 -2.21439 -1.28056 0
M  V30 65292 H 6069.75 -4.25311 -2.7762 0
M  V30 65293 H 6069.68 -3.18059 -4.19697 0
M  V30 65294 H 6072.17 -2.59106 -2.75086 0
M  V30 65295 H 6072.49 -5.73648 -5.1783 0
M  V30 65296 H 6070.83 -5.15431 -4.66214 0
M  V30 65297 H 6074.02 -3.27033 -3.34913 0
M  V30 65298 H 6074.19 -4.70451 -4.45623 0
M  V30 65299 N 6067.6 1.23182 -0.983053 0
M  V30 65300 C 6069.02 1.43812 -0.692121 0
M  V30 65301 C 6069.22 1.8739 0.740757 0
M  V30 65302 O 6068.27 2.02159 1.51288 0
M  V30 65303 C 6069.59 2.48763 -1.68931 0
M  V30 65304 C 6071.13 2.62573 -1.70365 0
M  V30 65305 C 6071.61 3.70737 -2.68921 0
M  V30 65306 N 6073.1 3.78182 -2.67455 0
M  V30 65307 C 6073.83 4.61441 -3.40382 0
M  V30 65308 N 6073.33 5.48769 -4.22877 0
M  V30 65309 N 6075.12 4.55661 -3.29134 0
M  V30 65310 H 6067.27 0.931979 -1.90861 0
M  V30 65311 H 6069.54 0.471245 -0.822577 0
M  V30 65312 H 6069.24 2.23666 -2.71416 0
M  V30 65313 H 6069.12 3.47196 -1.47427 0
M  V30 65314 H 6071.5 2.8702 -0.685829 0
M  V30 65315 H 6071.59 1.64447 -1.95935 0
M  V30 65316 H 6071.23 3.47038 -3.70846 0
M  V30 65317 H 6071.16 4.6841 -2.40624 0
M  V30 65318 H 6073.65 3.15778 -2.07588 0
M  V30 65319 H 6073.96 6.09296 -4.75372 0
M  V30 65320 H 6072.31 5.48383 -4.26967 0
M  V30 65321 H 6075.5 3.86458 -2.64135 0
M  V30 65322 H 6075.67 5.20319 -3.86229 0
M  V30 65323 N 6069.08 0.75503 1.38337 0
M  V30 65324 C 6070.03 0.117661 2.32302 0
M  V30 65325 C 6071.02 -0.703705 1.54092 0
M  V30 65326 O 6072.23 -0.602641 1.69612 0
M  V30 65327 H 6068.6 0.019254 0.751753 0
M  V30 65328 H 6070.57 0.926213 2.83662 0
M  V30 65329 C 6069.32 -0.76012 3.3929 0
M  V30 65330 H 6068.64 -0.137478 3.99564 0
M  V30 65331 H 6070.08 -1.17335 4.07441 0
M  V30 65332 C 6068.54 -1.90337 2.77981 0
M  V30 65333 O 6069.07 -2.99764 2.67403 0
M  V30 65334 N 6067.28 -1.69886 2.35769 0
M  V30 65335 H 6066.83 -0.80884 2.44572 0
M  V30 65336 H 6066.78 -2.4655 1.95091 0
M  V30 65337 N 6070.56 -1.49316 0.50422 0
M  V30 65338 C 6071.49 -2.32028 -0.261756 0
M  V30 65339 C 6072.47 -1.40453 -0.959526 0
M  V30 65340 O 6073.65 -1.6936 -0.950306 0
M  V30 65341 C 6070.78 -3.21044 -1.32469 0
M  V30 65342 C 6069.74 -4.21438 -0.746604 0
M  V30 65343 C 6069.06 -4.99412 -1.91029 0
M  V30 65344 C 6070.36 -5.2163 0.264499 0
M  V30 65345 H 6072.06 -2.96316 0.428648 0
M  V30 65346 H 6069.6 -1.42496 0.207589 0
M  V30 65347 H 6071.56 -3.7772 -1.86829 0
M  V30 65348 H 6070.28 -2.54706 -2.04432 0
M  V30 65349 H 6068.94 -3.65911 -0.224721 0
M  V30 65350 H 6068.59 -4.29518 -2.61769 0
M  V30 65351 H 6068.29 -5.67343 -1.52955 0
M  V30 65352 H 6069.81 -5.58933 -2.45817 0
M  V30 65353 H 6071.22 -5.72981 -0.191087 0
M  V30 65354 H 6069.62 -5.9747 0.561249 0
M  V30 65355 H 6070.69 -4.70342 1.17927 0
M  V30 65356 N 6072.03 -0.238193 -1.5579 0
M  V30 65357 C 6072.97 0.697624 -2.18325 0
M  V30 65358 C 6073.98 1.14526 -1.15705 0
M  V30 65359 O 6075.17 1.07354 -1.42609 0
M  V30 65360 C 6072.27 1.95886 -2.76554 0
M  V30 65361 C 6071.44 1.66408 -4.04509 0
M  V30 65362 C 6070.5 2.77403 -4.4714 0
M  V30 65363 O 6069.53 2.45161 -5.13697 0
M  V30 65364 N 6070.73 4.06716 -4.14201 0
M  V30 65365 H 6073.49 0.1626 -2.99259 0
M  V30 65366 H 6071.05 -0.057817 -1.61797 0
M  V30 65367 H 6073.05 2.69363 -3.02036 0
M  V30 65368 H 6071.62 2.4039 -1.99828 0
M  V30 65369 H 6070.84 0.764914 -3.86708 0
M  V30 65370 H 6072.12 1.44166 -4.87948 0
M  V30 65371 H 6071.52 4.35748 -3.6075 0
M  V30 65372 H 6070.08 4.76686 -4.44538 0
M  V30 65373 N 6073.51 1.57561 0.0350229 0
M  V30 65374 C 6074.46 2.0725 1.05595 0
M  V30 65375 C 6075.45 0.985062 1.37815 0
M  V30 65376 O 6076.66 1.16998 1.3679 0
M  V30 65377 H 6073.04 0.661299 0.358034 0
M  V30 65378 H 6075.01 2.92077 0.611021 0
M  V30 65379 C 6073.76 2.56243 2.35021 0
M  V30 65380 H 6073.08 3.39532 2.11088 0
M  V30 65381 H 6074.52 2.94726 3.04815 0
M  V30 65382 C 6072.98 1.46106 3.0357 0
M  V30 65383 O 6073.51 0.82391 3.9316 0
M  V30 65384 N 6071.71 1.19707 2.64799 0
M  V30 65385 H 6071.26 1.71703 1.9203 0
M  V30 65386 H 6071.22 0.462284 3.10983 0
M  V30 65387 N 6074.99 -0.307182 1.54577 0
M  V30 65388 C 6075.94 -1.3987 1.85847 0
M  V30 65389 C 6076.93 -1.52783 0.731684 0
M  V30 65390 O 6078.14 -1.54974 0.915589 0
M  V30 65391 H 6074.51 -0.467081 0.589355 0
M  V30 65392 H 6076.49 -1.10729 2.77095 0
M  V30 65393 C 6075.23 -2.75822 2.11702 0
M  V30 65394 H 6074.56 -2.66665 2.97876 0
M  V30 65395 H 6076 -3.51223 2.37525 0
M  V30 65396 C 6074.46 -3.24275 0.913636 0
M  V30 65397 O 6074.99 -4.01486 0.131044 0
M  V30 65398 N 6073.19 -2.81521 0.720724 0
M  V30 65399 H 6072.74 -2.18849 1.35878 0
M  V30 65400 H 6072.7 -3.14291 -0.0829035 0
M  V30 65401 N 6076.47 -1.46928 -0.57007 0
M  V30 65402 C 6077.43 -1.58014 -1.66024 0
M  V30 65403 C 6078.43 -0.456242 -1.54192 0
M  V30 65404 O 6079.62 -0.720935 -1.58582 0
M  V30 65405 C 6076.75 -1.51246 -3.05512 0
M  V30 65406 H 6077.95 -2.55183 -1.57549 0
M  V30 65407 H 6075.5 -1.34927 -0.788951 0
M  V30 65408 H 6076.24 -0.554042 -3.19532 0
M  V30 65409 H 6076.02 -2.32801 -3.15509 0
M  V30 65410 H 6077.51 -1.62115 -3.84849 0
M  V30 65411 N 6077.95 0.815754 -1.34845 0
M  V30 65412 C 6078.86 1.95881 -1.29104 0
M  V30 65413 C 6079.87 1.72876 -0.197483 0
M  V30 65414 O 6081.05 1.9686 -0.425235 0
M  V30 65415 C 6078.11 3.30307 -1.05348 0
M  V30 65416 C 6077.18 3.66271 -2.23929 0
M  V30 65417 C 6076.41 4.94283 -2.01297 0
M  V30 65418 O 6076.63 5.62009 -0.974801 0
M  V30 65419 O 6075.57 5.28292 -2.88429 0
M  V30 65420 H 6079.39 2.0367 -2.25283 0
M  V30 65421 H 6076.98 0.952202 -1.15124 0
M  V30 65422 H 6078.86 4.10803 -0.939105 0
M  V30 65423 H 6077.53 3.23469 -0.122138 0
M  V30 65424 H 6076.44 2.8619 -2.40928 0
M  V30 65425 H 6077.77 3.77802 -3.15478 0
M  V30 65426 N 6079.43 1.18692 1.03682 0
M  V30 65427 C 6080.67 0.996141 1.77338 0
M  V30 65428 C 6081.03 -0.468923 1.86598 0
M  V30 65429 O 6080.32 -1.34367 1.36587 0
M  V30 65430 C 6080.51 1.58922 3.20123 0
M  V30 65431 C 6080.34 3.11043 3.2478 0
M  V30 65432 C 6079.11 3.79888 3.33187 0
M  V30 65433 C 6081.31 4.08491 3.12474 0
M  V30 65434 N 6079.29 5.19477 3.27134 0
M  V30 65435 C 6080.66 5.34627 3.13965 0
M  V30 65436 C 6082.72 3.99958 2.96544 0
M  V30 65437 C 6081.42 6.53218 3.01162 0
M  V30 65438 C 6083.45 5.1815 2.85088 0
M  V30 65439 C 6082.81 6.4318 2.87226 0
M  V30 65440 H 6078.91 0.418561 0.660553 0
M  V30 65441 H 6081.49 1.50533 1.23483 0
M  V30 65442 H 6079.66 1.10616 3.72315 0
M  V30 65443 H 6081.4 1.33358 3.82097 0
M  V30 65444 H 6078.15 3.30639 3.39079 0
M  V30 65445 H 6078.57 5.92493 3.27537 0
M  V30 65446 H 6083.22 3.04121 2.93718 0
M  V30 65447 H 6080.93 7.49249 3.0274 0
M  V30 65448 H 6084.52 5.13341 2.7381 0
M  V30 65449 H 6083.4 7.33098 2.78453 0
M  V30 65450 N 6080.9 -1.22659 0.989572 0
M  V30 65451 C 6082.15 -1.91603 0.664547 0
M  V30 65452 C 6082.48 -1.76912 -0.800986 0
M  V30 65453 O 6081.76 -1.13588 -1.57886 0
M  V30 65454 C 6082.04 -3.43926 1.0671 0
M  V30 65455 C 6081.89 -3.67682 2.59095 0
M  V30 65456 C 6083.21 -4.35741 0.617848 0
M  V30 65457 H 6080.33 -0.695823 0.242897 0
M  V30 65458 H 6082.97 -1.44601 1.2325 0
M  V30 65459 H 6081.12 -3.84088 0.583845 0
M  V30 65460 H 6082.8 -3.36945 3.15065 0
M  V30 65461 H 6081.04 -3.12077 3.01314 0
M  V30 65462 H 6081.71 -4.74346 2.82312 0
M  V30 65463 H 6084.19 -4.03076 1.03289 0
M  V30 65464 H 6083.06 -5.41001 0.927849 0
M  V30 65465 H 6083.32 -4.39469 -0.481579 0
M  V30 65466 N 6082.38 -0.762356 -1.37934 0
M  V30 65467 C 6083.61 -0.333046 -2.03898 0
M  V30 65468 C 6084.02 1.04648 -1.57624 0
M  V30 65469 O 6083.36 1.67756 -0.748563 0
M  V30 65470 C 6083.42 -0.28697 -3.58353 0
M  V30 65471 C 6083.09 -1.60951 -4.27719 0
M  V30 65472 C 6084.09 -2.56028 -4.52488 0
M  V30 65473 C 6081.77 -1.88136 -4.65736 0
M  V30 65474 C 6083.76 -3.76504 -5.14319 0
M  V30 65475 C 6081.45 -3.08884 -5.27289 0
M  V30 65476 C 6082.45 -4.02888 -5.51516 0
M  V30 65477 O 6082.14 -5.21511 -6.11785 0
M  V30 65478 H 6081.87 -0.138875 -0.661581 0
M  V30 65479 H 6084.42 -1.03466 -1.77437 0
M  V30 65480 H 6082.65 0.470951 -3.83821 0
M  V30 65481 H 6084.34 0.114003 -4.0574 0
M  V30 65482 H 6085.11 -2.36304 -4.23539 0
M  V30 65483 H 6080.99 -1.15799 -4.46219 0
M  V30 65484 H 6084.53 -4.49891 -5.33145 0
M  V30 65485 H 6080.43 -3.28497 -5.55662 0
M  V30 65486 H 6081.2 -5.2221 -6.30269 0
M  V30 65487 N 6083.86 1.49047 -0.512132 0
M  V30 65488 C 6084.79 2.27265 0.297198 0
M  V30 65489 C 6085.8 1.3427 0.920627 0
M  V30 65490 O 6086.99 1.59464 0.802084 0
M  V30 65491 C 6084.09 3.07047 1.43441 0
M  V30 65492 C 6083.27 4.27696 0.916226 0
M  V30 65493 C 6082.33 4.89434 1.93239 0
M  V30 65494 O 6081.35 5.49176 1.49647 0
M  V30 65495 N 6082.55 4.80077 3.26352 0
M  V30 65496 H 6085.32 2.97363 -0.373549 0
M  V30 65497 H 6082.88 1.58174 -0.345356 0
M  V30 65498 H 6084.87 3.45221 2.11198 0
M  V30 65499 H 6083.44 2.39485 2.00912 0
M  V30 65500 H 6082.66 3.94149 0.0632029 0
M  V30 65501 H 6083.95 5.05834 0.548608 0
M  V30 65502 H 6083.35 4.32659 3.64449 0
M  V30 65503 H 6081.9 5.22403 3.89792 0
M  V30 65504 N 6085.34 0.246452 1.55661 0
M  V30 65505 C 6086.59 -0.377669 1.9854 0
M  V30 65506 C 6086.91 -1.585 1.1359 0
M  V30 65507 O 6086.18 -1.94677 0.218597 0
M  V30 65508 H 6084.76 -0.142528 0.733277 0
M  V30 65509 H 6087.42 0.345136 1.9182 0
M  V30 65510 H 6086.51 -0.687117 3.04442 0
M  V30 65511 N 6086.82 -1.57577 -0.0266666 0
M  V30 65512 C 6087.78 -2.05688 -1.0112 0
M  V30 65513 C 6088.78 -0.961419 -1.28893 0
M  V30 65514 O 6089.97 -1.22496 -1.23856 0
M  V30 65515 C 6087.1 -2.47584 -2.34339 0
M  V30 65516 H 6088.29 -2.93927 -0.595578 0
M  V30 65517 H 6085.85 -1.53888 -0.273549 0
M  V30 65518 H 6086.58 -1.62508 -2.80645 0
M  V30 65519 H 6086.37 -3.27564 -2.1551 0
M  V30 65520 H 6087.86 -2.85225 -3.05019 0
M  V30 65521 N 6088.29 0.29898 -1.54738 0
M  V30 65522 C 6089.54 1.03158 -1.73324 0
M  V30 65523 C 6089.86 1.8836 -0.527251 0
M  V30 65524 O 6091.06 2.64901 -0.594961 0
M  V30 65525 C 6089.52 1.8838 -3.06661 0
M  V30 65526 C 6089.13 1.08172 -4.34745 0
M  V30 65527 C 6090.87 2.61228 -3.34605 0
M  V30 65528 C 6088.78 1.92682 -5.59131 0
M  V30 65529 H 6087.71 0.388864 -0.645988 0
M  V30 65530 H 6090.36 0.28848 -1.81218 0
M  V30 65531 H 6088.74 2.66686 -2.92736 0
M  V30 65532 H 6089.91 0.344655 -4.59509 0
M  V30 65533 H 6088.23 0.468972 -4.13751 0
M  V30 65534 H 6090.83 3.24811 -4.24737 0
M  V30 65535 H 6091.17 3.30163 -2.5357 0
M  V30 65536 H 6091.7 1.8997 -3.49509 0
M  V30 65537 H 6088.44 1.28213 -6.42839 0
M  V30 65538 H 6087.96 2.64055 -5.38549 0
M  V30 65539 H 6089.64 2.50681 -5.96463 0
M  V30 65540 N 6089.77 1.47229 0.56227 0
M  V30 65541 C 6091.19 1.32635 0.887698 0
M  V30 65542 C 6091.39 0.313042 1.99054 0
M  V30 65543 O 6090.44 -0.277221 2.50974 0
M  V30 65544 C 6091.76 2.71827 1.28572 0
M  V30 65545 C 6093.31 2.80073 1.39743 0
M  V30 65546 C 6093.78 4.19894 1.82903 0
M  V30 65547 N 6095.27 4.22411 1.90062 0
M  V30 65548 C 6096.01 5.27507 2.24775 0
M  V30 65549 N 6095.5 6.42913 2.58137 0
M  V30 65550 N 6097.3 5.14882 2.25505 0
M  V30 65551 H 6089.45 2.11751 -0.165909 0
M  V30 65552 H 6091.71 0.94793 -0.0115572 0
M  V30 65553 H 6091.42 3.47385 0.549238 0
M  V30 65554 H 6091.29 3.03268 2.24295 0
M  V30 65555 H 6093.68 2.0479 2.12473 0
M  V30 65556 H 6093.76 2.52292 0.422198 0
M  V30 65557 H 6093.4 4.9568 1.10744 0
M  V30 65558 H 6093.33 4.45096 2.8142 0
M  V30 65559 H 6095.82 3.39152 1.66686 0
M  V30 65560 H 6096.14 7.18867 2.83637 0
M  V30 65561 H 6094.48 6.46241 2.55729 0
M  V30 65562 H 6097.67 4.23751 1.98878 0
M  V30 65563 H 6097.84 5.96896 2.52229 0
M  V30 65564 N 6091.25 -0.808591 1.35276 0
M  V30 65565 C 6092.18 -1.92834 1.23885 0
M  V30 65566 C 6093.2 -1.61986 0.1626 0
M  V30 65567 O 6094.38 -1.73592 0.415701 0
M  V30 65568 C 6091.48 -3.27155 0.884484 0
M  V30 65569 C 6090.66 -3.85923 2.05869 0
M  V30 65570 C 6089.72 -4.98646 1.68042 0
M  V30 65571 O 6088.74 -5.1618 2.3989 0
M  V30 65572 N 6089.94 -5.77361 0.602887 0
M  V30 65573 H 6092.71 -2.03134 2.20356 0
M  V30 65574 H 6090.27 -0.985911 1.28419 0
M  V30 65575 H 6092.26 -4.00031 0.612954 0
M  V30 65576 H 6090.83 -3.12599 0.00951574 0
M  V30 65577 H 6090.05 -3.05265 2.49413 0
M  V30 65578 H 6091.34 -4.21919 2.84362 0
M  V30 65579 H 6090.74 -5.657 0.00590628 0
M  V30 65580 H 6089.3 -6.50625 0.391132 0
M  V30 65581 N 6092.73 -1.1924 -1.03051 0
M  V30 65582 C 6093.98 -0.988349 -1.75825 0
M  V30 65583 C 6094.29 0.481836 -1.89572 0
M  V30 65584 O 6095.5 0.80467 -2.59302 0
M  V30 65585 C 6093.95 -1.71945 -3.16169 0
M  V30 65586 C 6093.56 -3.22963 -3.10481 0
M  V30 65587 C 6095.3 -1.59858 -3.9325 0
M  V30 65588 C 6093.21 -3.88669 -4.45747 0
M  V30 65589 H 6092.14 -0.366176 -0.659114 0
M  V30 65590 H 6094.79 -1.4272 -1.1534 0
M  V30 65591 H 6093.17 -1.20841 -3.77112 0
M  V30 65592 H 6094.35 -3.81172 -2.58929 0
M  V30 65593 H 6092.66 -3.35307 -2.46897 0
M  V30 65594 H 6095.26 -2.063 -4.933 0
M  V30 65595 H 6095.6 -0.552462 -4.12618 0
M  V30 65596 H 6096.14 -2.08298 -3.38905 0
M  V30 65597 H 6092.88 -4.93372 -4.31584 0
M  V30 65598 H 6092.4 -3.35249 -4.97361 0
M  V30 65599 H 6094.07 -3.92122 -5.14635 0
M  V30 65600 N 6094.21 1.22132 -0.996063 0
M  V30 65601 C 6095.48 1.86504 -0.589531 0
M  V30 65602 C 6095.86 1.89358 0.933093 0
M  V30 65603 O 6095.21 1.3864 1.81635 0
M  V30 65604 C 6095.42 3.2722 -1.2136 0
M  V30 65605 C 6096.77 4.03688 -1.31611 0
M  V30 65606 O 6097.79 3.36498 -1.16824 0
M  V30 65607 O 6096.65 5.23967 -1.55307 0
M  V30 65608 H 6093.75 0.802272 -0.20072 0
M  V30 65609 H 6096.29 1.29886 -1.09214 0
M  V30 65610 H 6095.06 3.19794 -2.25494 0
M  V30 65611 H 6094.69 3.91447 -0.696782 0
M  V30 65612 N 6095.68 0.76966 1.37528 0
M  V30 65613 C 6096.96 0.257856 1.93893 0
M  V30 65614 C 6097.34 -1.24673 1.70352 0
M  V30 65615 O 6096.69 -2.02888 1.05113 0
M  V30 65616 C 6096.9 0.628978 3.43285 0
M  V30 65617 C 6098.25 0.5976 4.20374 0
M  V30 65618 O 6099.27 0.568241 3.51638 0
M  V30 65619 O 6098.13 0.622818 5.42939 0
M  V30 65620 H 6095.22 0.0588434 0.824904 0
M  V30 65621 H 6097.77 0.850871 1.46827 0
M  V30 65622 H 6096.54 1.66746 3.53994 0
M  V30 65623 H 6096.17 0.00879907 3.97599 0
M  V30 65624 N 6097.16 -1.48773 0.520029 0
M  V30 65625 C 6098.41 -2.0169 -0.0196264 0
M  V30 65626 C 6098.72 -1.40324 -1.36267 0
M  V30 65627 O 6099.93 -1.8468 -1.99011 0
M  V30 65628 C 6098.39 -3.59799 -0.0853985 0
M  V30 65629 C 6097.99 -4.30146 1.25214 0
M  V30 65630 C 6099.74 -4.20596 -0.574409 0
M  V30 65631 C 6097.65 -5.80161 1.1475 0
M  V30 65632 H 6096.58 -0.753918 -0.0111065 0
M  V30 65633 H 6099.23 -1.71131 0.662314 0
M  V30 65634 H 6097.61 -3.87157 -0.832203 0
M  V30 65635 H 6098.78 -4.1447 2.01373 0
M  V30 65636 H 6097.1 -3.81177 1.6761 0
M  V30 65637 H 6099.69 -5.30479 -0.670512 0
M  V30 65638 H 6100.04 -3.8524 -1.57784 0
M  V30 65639 H 6100.57 -3.9763 0.116417 0
M  V30 65640 H 6097.31 -6.20074 2.12577 0
M  V30 65641 H 6096.83 -5.98277 0.427112 0
M  V30 65642 H 6098.51 -6.41602 0.834045 0
M  V30 65643 N 6098.64 -0.254703 -1.55528 0
M  V30 65644 C 6099.92 0.418596 -1.91068 0
M  V30 65645 C 6100.3 1.7528 -1.17645 0
M  V30 65646 O 6099.65 2.26568 -0.29649 0
M  V30 65647 C 6099.86 0.579004 -3.44164 0
M  V30 65648 C 6101.2 0.871305 -4.15564 0
M  V30 65649 O 6102.23 0.664579 -3.49945 0
M  V30 65650 O 6101.09 1.26544 -5.31647 0
M  V30 65651 H 6098.18 0.225902 -0.795549 0
M  V30 65652 H 6100.73 -0.299347 -1.67039 0
M  V30 65653 H 6099.5 -0.360757 -3.89633 0
M  V30 65654 H 6099.12 1.34719 -3.74081 0
M  V30 65655 N 6100.12 1.57589 0.0183095 0
M  V30 65656 C 6101.36 1.9004 0.707989 0
M  V30 65657 C 6101.7 0.853747 1.74427 0
M  V30 65658 O 6100.97 -0.129871 1.94066 0
M  V30 65659 C 6101.26 3.33112 1.36779 0
M  V30 65660 C 6101.11 4.4848 0.344291 0
M  V30 65661 C 6102.43 3.75284 2.29891 0
M  V30 65662 H 6099.55 0.691143 0.25591 0
M  V30 65663 H 6102.19 1.89978 -0.0292247 0
M  V30 65664 H 6100.34 3.33296 1.99615 0
M  V30 65665 H 6102.01 4.60431 -0.282978 0
M  V30 65666 H 6100.25 4.32502 -0.335348 0
M  V30 65667 H 6100.92 5.455 0.84464 0
M  V30 65668 H 6103.4 3.76535 1.7709 0
M  V30 65669 H 6102.28 4.76177 2.73032 0
M  V30 65670 H 6102.54 3.08135 3.17025 0
M  V30 65671 N 6101.6 -0.29077 1.54894 0
M  V30 65672 C 6103.01 -0.637002 1.46337 0
M  V30 65673 C 6103.21 -1.90283 0.662916 0
M  V30 65674 O 6102.27 -2.51895 0.174678 0
M  V30 65675 C 6103.58 -0.780483 2.90394 0
M  V30 65676 C 6105.13 -0.875701 3.005 0
M  V30 65677 C 6105.6 -1.0511 4.45776 0
M  V30 65678 N 6107.1 -1.11706 4.49529 0
M  V30 65679 C 6107.83 -1.27125 5.5913 0
M  V30 65680 N 6107.33 -1.39377 6.78635 0
M  V30 65681 N 6109.12 -1.30095 5.46838 0
M  V30 65682 H 6101.27 0.540779 2.054 0
M  V30 65683 H 6103.53 0.180377 0.930682 0
M  V30 65684 H 6103.24 0.0789091 3.51611 0
M  V30 65685 H 6103.11 -1.66633 3.38398 0
M  V30 65686 H 6105.5 -1.72557 2.39391 0
M  V30 65687 H 6105.58 0.0343743 2.55777 0
M  V30 65688 H 6105.23 -0.205956 5.07482 0
M  V30 65689 H 6105.16 -1.97555 4.88139 0
M  V30 65690 H 6107.65 -1.03549 3.63436 0
M  V30 65691 H 6107.96 -1.50927 7.57919 0
M  V30 65692 H 6106.3 -1.36414 6.81481 0
M  V30 65693 H 6109.5 -1.20141 4.5242 0
M  V30 65694 H 6109.67 -1.41768 6.32302 0
M  V30 65695 N 6103.07 -1.47525 -0.554454 0
M  V30 65696 C 6104.32 -1.54291 -1.31151 0
M  V30 65697 C 6104.65 -0.206347 -1.93402 0
M  V30 65698 O 6103.9 0.80104 -1.78555 0
M  V30 65699 C 6104.2 -2.61139 -2.44011 0
M  V30 65700 C 6103.87 -4.04329 -1.99572 0
M  V30 65701 C 6102.53 -4.43307 -1.87169 0
M  V30 65702 C 6104.88 -4.94164 -1.65685 0
M  V30 65703 C 6102.21 -5.69953 -1.39178 0
M  V30 65704 C 6104.56 -6.21275 -1.19165 0
M  V30 65705 C 6103.23 -6.59132 -1.0536 0
M  V30 65706 H 6102.5 -0.564592 -0.479914 0
M  V30 65707 H 6105.14 -1.81136 -0.621458 0
M  V30 65708 H 6103.45 -2.28061 -3.18583 0
M  V30 65709 H 6105.15 -2.63596 -3.02189 0
M  V30 65710 H 6101.74 -3.73533 -2.10169 0
M  V30 65711 H 6105.92 -4.64746 -1.74139 0
M  V30 65712 H 6101.18 -5.98031 -1.27157 0
M  V30 65713 H 6105.35 -6.90295 -0.920069 0
M  V30 65714 H 6102.98 -7.57157 -0.679511 0
M  V30 65715 N 6104.55 0.801406 -1.35703 0
M  V30 65716 C 6105.49 1.92175 -1.24906 0
M  V30 65717 C 6106.5 1.61897 -0.171188 0
M  V30 65718 O 6107.69 1.73369 -0.424901 0
M  V30 65719 C 6104.79 3.26681 -0.901821 0
M  V30 65720 C 6103.96 3.84826 -2.07913 0
M  V30 65721 C 6103.02 4.97748 -1.70684 0
M  V30 65722 O 6102.05 5.149 -2.42624 0
M  V30 65723 N 6103.25 5.77033 -0.633497 0
M  V30 65724 H 6106.01 2.01962 -2.2143 0
M  V30 65725 H 6103.57 0.979086 -1.2894 0
M  V30 65726 H 6105.57 3.99701 -0.63416 0
M  V30 65727 H 6104.14 3.12589 -0.0260935 0
M  V30 65728 H 6103.36 3.03938 -2.51029 0
M  V30 65729 H 6104.64 4.20405 -2.86596 0
M  V30 65730 H 6104.04 5.65689 -0.0359066 0
M  V30 65731 H 6102.6 6.50409 -0.425631 0
M  V30 65732 N 6106.03 1.19785 1.02417 0
M  V30 65733 C 6106.98 0.939854 2.10797 0
M  V30 65734 C 6107.95 -0.127102 1.65613 0
M  V30 65735 O 6109.13 0.016034 1.90793 0
M  V30 65736 C 6106.27 0.489776 3.41607 0
M  V30 65737 C 6105.39 1.62403 4.00311 0
M  V30 65738 C 6104.52 1.12502 5.1915 0
M  V30 65739 C 6103.56 2.23286 5.69921 0
M  V30 65740 N 6102.7 1.74657 6.80029 0
M  V30 65741 H 6107.54 1.86778 2.32202 0
M  V30 65742 H 6105.07 0.931122 1.13879 0
M  V30 65743 H 6107.03 0.210195 4.1667 0
M  V30 65744 H 6105.66 -0.401157 3.20298 0
M  V30 65745 H 6104.71 2.01871 3.22416 0
M  V30 65746 H 6106.03 2.45852 4.34003 0
M  V30 65747 H 6105.18 0.800948 6.0139 0
M  V30 65748 H 6103.92 0.260326 4.87005 0
M  V30 65749 H 6102.92 2.56518 4.86291 0
M  V30 65750 H 6104.15 3.10218 6.04104 0
M  V30 65751 H 6102.1 0.905032 6.49727 0
M  V30 65752 H 6102.01 2.51691 7.12873 0
M  V30 65753 H 6103.28 1.45228 7.65852 0
M  V30 65754 N 6107.51 -1.21603 1.00253 0
M  V30 65755 C 6108.47 -2.22105 0.565851 0
M  V30 65756 C 6109.47 -1.56799 -0.356466 0
M  V30 65757 O 6110.66 -1.73578 -0.147093 0
M  V30 65758 C 6107.79 -3.40447 -0.175622 0
M  V30 65759 H 6108.99 -2.62253 1.45477 0
M  V30 65760 H 6106.54 -1.3482 0.790769 0
M  V30 65761 H 6107.28 -3.05785 -1.08009 0
M  V30 65762 H 6107.06 -3.89067 0.486749 0
M  V30 65763 H 6108.55 -4.14958 -0.468976 0
M  V30 65764 N 6108.99 -0.776943 -1.37118 0
M  V30 65765 C 6109.95 -0.172919 -2.28547 0
M  V30 65766 C 6110.95 0.622456 -1.48264 0
M  V30 65767 O 6112.14 0.445281 -1.68413 0
M  V30 65768 C 6109.27 0.762177 -3.3227 0
M  V30 65769 H 6110.47 -0.978941 -2.83473 0
M  V30 65770 H 6108.02 -0.545505 -1.46472 0
M  V30 65771 H 6108.75 1.59301 -2.82478 0
M  V30 65772 H 6108.54 0.193946 -3.9162 0
M  V30 65773 H 6110.03 1.18006 -4.0058 0
M  V30 65774 N 6110.47 1.48495 -0.527912 0
M  V30 65775 C 6111.69 2.07399 0.00503434 0
M  V30 65776 C 6112.12 1.38216 1.27586 0
M  V30 65777 O 6111.47 0.447435 1.75692 0
M  V30 65778 C 6111.52 3.59963 0.214169 0
M  V30 65779 O 6110.63 3.91926 1.28328 0
M  V30 65780 H 6109.97 0.6629 -0.0382071 0
M  V30 65781 H 6112.5 1.90933 -0.735233 0
M  V30 65782 H 6112.51 4.05648 0.437461 0
M  V30 65783 H 6111.18 4.09722 -0.714172 0
M  V30 65784 H 6109.76 3.58022 1.04281 0
M  V30 65785 N 6111.94 0.262948 1.55391 0
M  V30 65786 C 6113.19 -0.35659 1.98929 0
M  V30 65787 C 6113.51 -1.57286 1.15265 0
M  V30 65788 O 6112.78 -1.94434 0.239233 0
M  V30 65789 H 6111.36 -0.134743 0.734747 0
M  V30 65790 H 6114.02 0.365462 1.91443 0
M  V30 65791 H 6113.12 -0.654788 3.05154 0
M  V30 65792 N 6113.42 -1.57597 -0.00995191 0
M  V30 65793 C 6114.65 -1.94405 -0.708123 0
M  V30 65794 C 6115.06 -0.864264 -1.67857 0
M  V30 65795 O 6114.42 0.157699 -1.81817 0
M  V30 65796 C 6114.47 -3.31205 -1.44864 0
M  V30 65797 O 6114.19 -4.35037 -0.517128 0
M  V30 65798 C 6115.69 -3.82412 -2.24223 0
M  V30 65799 H 6112.91 -0.641167 -0.197855 0
M  V30 65800 H 6115.46 -2.04464 0.0382092 0
M  V30 65801 H 6113.61 -3.22484 -2.14669 0
M  V30 65802 H 6114.03 -5.14116 -1.0385 0
M  V30 65803 H 6115.5 -4.80588 -2.7155 0
M  V30 65804 H 6115.98 -3.14598 -3.06472 0
M  V30 65805 H 6116.58 -3.94277 -1.59455 0
M  V30 65806 N 6114.9 0.282551 -1.55046 0
M  V30 65807 C 6116.13 1.03389 -1.79216 0
M  V30 65808 C 6116.54 1.80282 -0.560715 0
M  V30 65809 O 6115.9 1.76344 0.469987 0
M  V30 65810 C 6115.95 1.99999 -3.01135 0
M  V30 65811 O 6115.67 1.26223 -4.19523 0
M  V30 65812 C 6117.17 2.87023 -3.37835 0
M  V30 65813 H 6114.39 0.305834 -0.597249 0
M  V30 65814 H 6116.94 0.316229 -2.0204 0
M  V30 65815 H 6115.09 2.67241 -2.80465 0
M  V30 65816 H 6115.51 1.9126 -4.88385 0
M  V30 65817 H 6116.98 3.50627 -4.26339 0
M  V30 65818 H 6117.46 3.56294 -2.5681 0
M  V30 65819 H 6118.06 2.25286 -3.60731 0
M  V30 65820 N 6116.38 1.47817 0.546623 0
M  V30 65821 C 6117.63 1.54678 1.30073 0
M  V30 65822 C 6117.95 0.215219 1.93809 0
M  V30 65823 O 6117.22 -0.761798 1.80481 0
M  V30 65824 H 6115.8 0.569793 0.483058 0
M  V30 65825 H 6118.46 1.8418 0.637461 0
M  V30 65826 H 6117.55 2.31901 2.08874 0
M  V30 65827 N 6117.86 -0.794198 1.36126 0
M  V30 65828 C 6119.08 -1.58292 1.33233 0
M  V30 65829 C 6119.5 -1.88597 -0.0874763 0
M  V30 65830 O 6118.86 -1.49758 -1.04301 0
M  V30 65831 C 6118.91 -2.90679 2.14914 0
M  V30 65832 O 6118.63 -2.61683 3.5136 0
M  V30 65833 C 6120.13 -3.85001 2.19748 0
M  V30 65834 H 6117.35 -0.491123 0.457208 0
M  V30 65835 H 6119.89 -0.986066 1.79156 0
M  V30 65836 H 6118.05 -3.46846 1.72558 0
M  V30 65837 H 6118.46 -3.46299 3.93926 0
M  V30 65838 H 6119.94 -4.74967 2.81266 0
M  V30 65839 H 6120.41 -4.225 1.19961 0
M  V30 65840 H 6121.02 -3.34767 2.62318 0
M  V30 65841 N 6119.33 -1.20327 -1.0178 0
M  V30 65842 C 6120.56 -1.03677 -1.78703 0
M  V30 65843 C 6120.97 0.417123 -1.84545 0
M  V30 65844 O 6120.32 1.30141 -1.29649 0
M  V30 65845 C 6120.38 -1.5433 -3.24688 0
M  V30 65846 C 6120.04 -3.0261 -3.42456 0
M  V30 65847 C 6121.04 -4.00278 -3.31773 0
M  V30 65848 C 6118.72 -3.41543 -3.68311 0
M  V30 65849 C 6120.72 -5.3487 -3.46688 0
M  V30 65850 C 6118.4 -4.76291 -3.82871 0
M  V30 65851 C 6119.4 -5.72763 -3.72063 0
M  V30 65852 O 6119.09 -7.05068 -3.86179 0
M  V30 65853 H 6118.82 -0.365194 -0.568867 0
M  V30 65854 H 6121.38 -1.59831 -1.29009 0
M  V30 65855 H 6119.61 -0.925606 -3.75459 0
M  V30 65856 H 6121.3 -1.33718 -3.83242 0
M  V30 65857 H 6122.06 -3.71545 -3.11736 0
M  V30 65858 H 6117.94 -2.66996 -3.75811 0
M  V30 65859 H 6121.48 -6.10154 -3.38169 0
M  V30 65860 H 6117.38 -5.04716 -4.02408 0
M  V30 65861 H 6118.15 -7.12299 -4.03203 0
M  V30 65862 N 6120.81 1.21069 -1.00896 0
M  V30 65863 C 6121.74 2.22966 -0.530919 0
M  V30 65864 C 6122.76 1.5824 0.382609 0
M  V30 65865 O 6123.95 1.77568 0.182175 0
M  V30 65866 C 6121.05 3.37992 0.247978 0
M  V30 65867 C 6120.22 4.32306 -0.665591 0
M  V30 65868 C 6119.28 5.26161 0.0643881 0
M  V30 65869 O 6118.3 5.66482 -0.555582 0
M  V30 65870 N 6119.51 5.64782 1.3417 0
M  V30 65871 H 6122.27 2.64609 -1.40719 0
M  V30 65872 H 6119.83 1.35533 -0.885575 0
M  V30 65873 H 6121.82 3.97777 0.745373 0
M  V30 65874 H 6120.39 2.95301 1.02548 0
M  V30 65875 H 6119.61 3.70602 -1.34342 0
M  V30 65876 H 6120.9 4.92249 -1.28718 0
M  V30 65877 H 6120.3 5.34022 1.86645 0
M  V30 65878 H 6118.86 6.26911 1.78397 0
M  V30 65879 N 6122.29 0.784204 1.36704 0
M  V30 65880 C 6123.2 0.180042 2.33908 0
M  V30 65881 C 6124.22 -0.665035 1.6079 0
M  V30 65882 O 6125.39 -0.582043 1.92806 0
M  V30 65883 C 6122.46 -0.679203 3.39982 0
M  V30 65884 C 6121.52 0.183768 4.28906 0
M  V30 65885 C 6120.75 -0.634561 5.29914 0
M  V30 65886 O 6120.97 -1.87088 5.38845 0
M  V30 65887 O 6119.91 -0.0371997 6.01889 0
M  V30 65888 H 6123.73 0.9836 2.87331 0
M  V30 65889 H 6121.32 0.54557 1.39082 0
M  V30 65890 H 6123.2 -1.16934 4.04851 0
M  V30 65891 H 6121.88 -1.46074 2.88867 0
M  V30 65892 H 6120.78 0.720548 3.67095 0
M  V30 65893 H 6122.12 0.928691 4.83359 0
M  V30 65894 N 6123.77 -1.48213 0.535779 0
M  V30 65895 C 6125.01 -2.03396 0.0119515 0
M  V30 65896 C 6125.37 -1.40498 -1.31446 0
M  V30 65897 O 6124.66 -0.543609 -1.83727 0
M  V30 65898 C 6124.86 -3.57036 -0.161219 0
M  V30 65899 C 6124.69 -4.3483 1.14686 0
M  V30 65900 C 6123.46 -4.75547 1.70832 0
M  V30 65901 C 6125.65 -4.7129 2.05889 0
M  V30 65902 N 6123.64 -5.37899 2.95868 0
M  V30 65903 C 6125.01 -5.33722 3.15502 0
M  V30 65904 C 6127.06 -4.5322 2.06145 0
M  V30 65905 C 6125.76 -5.79993 4.25442 0
M  V30 65906 C 6127.79 -5.00476 3.15083 0
M  V30 65907 C 6127.15 -5.62938 4.23414 0
M  V30 65908 H 6123.25 -0.780645 0.0460144 0
M  V30 65909 H 6125.84 -1.80964 0.71834 0
M  V30 65910 H 6124.01 -3.79281 -0.8367 0
M  V30 65911 H 6125.74 -3.98858 -0.685176 0
M  V30 65912 H 6122.49 -4.56834 1.24897 0
M  V30 65913 H 6122.92 -5.73636 3.59542 0
M  V30 65914 H 6127.56 -4.04305 1.23683 0
M  V30 65915 H 6125.28 -6.27911 5.08678 0
M  V30 65916 H 6128.86 -4.88281 3.16342 0
M  V30 65917 H 6127.74 -5.9884 5.0632 0
M  V30 65918 N 6125.25 -0.271185 -1.55249 0
M  V30 65919 C 6126.19 0.617991 -2.22372 0
M  V30 65920 C 6127.16 1.15278 -1.19583 0
M  V30 65921 O 6128.35 1.2028 -1.48112 0
M  V30 65922 C 6125.49 1.79811 -2.94554 0
M  V30 65923 C 6124.6 1.29755 -4.12053 0
M  V30 65924 C 6123.74 2.43914 -4.71889 0
M  V30 65925 C 6122.78 1.90842 -5.81589 0
M  V30 65926 N 6121.91 2.9846 -6.35505 0
M  V30 65927 H 6126.75 0.0389408 -2.97975 0
M  V30 65928 H 6124.29 0.00745465 -1.47098 0
M  V30 65929 H 6126.25 2.49173 -3.34617 0
M  V30 65930 H 6124.88 2.34925 -2.21382 0
M  V30 65931 H 6123.93 0.497155 -3.77137 0
M  V30 65932 H 6125.24 0.868784 -4.91176 0
M  V30 65933 H 6124.4 3.21277 -5.14651 0
M  V30 65934 H 6123.13 2.90104 -3.92034 0
M  V30 65935 H 6122.14 1.11958 -5.3828 0
M  V30 65936 H 6123.36 1.45593 -6.6331 0
M  V30 65937 H 6121.31 3.44038 -5.58546 0
M  V30 65938 H 6121.23 2.59989 -7.09889 0
M  V30 65939 H 6122.5 3.75809 -6.82926 0
M  V30 65940 N 6126.72 1.576 0.00159402 0
M  V30 65941 C 6128 1.81718 0.723724 0
M  V30 65942 C 6128.38 0.875762 1.92077 0
M  V30 65943 O 6127.73 -0.0758826 2.28374 0
M  V30 65944 C 6127.94 3.30167 1.13095 0
M  V30 65945 C 6129.29 3.95864 1.53546 0
M  V30 65946 O 6130.31 3.34481 1.22479 0
M  V30 65947 O 6129.17 5.03994 2.11312 0
M  V30 65948 H 6126.26 0.748226 0.35226 0
M  V30 65949 H 6128.81 1.69683 -0.0237378 0
M  V30 65950 H 6127.58 3.90314 0.277634 0
M  V30 65951 H 6127.21 3.47195 1.93756 0
M  V30 65952 N 6128.2 -0.274325 1.55194 0
M  V30 65953 C 6129.15 -1.33907 1.87983 0
M  V30 65954 C 6130.12 -1.4914 0.731202 0
M  V30 65955 O 6131.3 -1.63568 0.982348 0
M  V30 65956 C 6128.44 -2.69456 2.15609 0
M  V30 65957 C 6127.56 -2.62456 3.43134 0
M  V30 65958 C 6126.69 -3.90176 3.60467 0
M  V30 65959 C 6125.73 -3.7768 4.81689 0
M  V30 65960 N 6124.87 -4.97232 4.95686 0
M  V30 65961 H 6129.71 -1.05244 2.78797 0
M  V30 65962 H 6127.25 -0.508484 1.38032 0
M  V30 65963 H 6129.2 -3.48321 2.29626 0
M  V30 65964 H 6127.83 -2.96324 1.28032 0
M  V30 65965 H 6126.89 -1.75308 3.37596 0
M  V30 65966 H 6128.2 -2.49122 4.32134 0
M  V30 65967 H 6127.35 -4.77482 3.74294 0
M  V30 65968 H 6126.09 -4.06375 2.6965 0
M  V30 65969 H 6125.1 -2.88757 4.67867 0
M  V30 65970 H 6126.32 -3.63001 5.7394 0
M  V30 65971 H 6124.27 -5.13844 4.07799 0
M  V30 65972 H 6124.18 -4.86424 5.78729 0
M  V30 65973 H 6125.45 -5.86114 5.13897 0
M  V30 65974 N 6129.68 -1.48105 -0.538776 0
M  V30 65975 C 6130.64 -1.61501 -1.62635 0
M  V30 65976 C 6131.64 -0.488846 -1.53189 0
M  V30 65977 O 6132.83 -0.75441 -1.57017 0
M  V30 65978 C 6129.97 -1.57692 -3.02235 0
M  V30 65979 H 6131.16 -2.58468 -1.521 0
M  V30 65980 H 6128.71 -1.3657 -0.760153 0
M  V30 65981 H 6129.45 -0.621694 -3.18285 0
M  V30 65982 H 6129.23 -2.39441 -3.105 0
M  V30 65983 H 6130.72 -1.70242 -3.81323 0
M  V30 65984 N 6131.16 0.786968 -1.36545 0
M  V30 65985 C 6132.09 1.90839 -1.26937 0
M  V30 65986 C 6133.1 1.61707 -0.18835 0
M  V30 65987 O 6134.29 1.72909 -0.443266 0
M  V30 65988 C 6131.39 3.25706 -0.936419 0
M  V30 65989 C 6130.57 3.82599 -2.11982 0
M  V30 65990 C 6129.62 4.9591 -1.75954 0
M  V30 65991 O 6128.65 5.12298 -2.48071 0
M  V30 65992 N 6129.85 5.76329 -0.694664 0
M  V30 65993 H 6132.62 1.99602 -2.2356 0
M  V30 65994 H 6130.18 0.965356 -1.29971 0
M  V30 65995 H 6132.17 3.99005 -0.676518 0
M  V30 65996 H 6130.74 3.12544 -0.0592463 0
M  V30 65997 H 6129.96 3.01258 -2.54238 0
M  V30 65998 H 6131.25 4.17342 -2.91039 0
M  V30 65999 H 6130.65 5.65619 -0.0959035 0
M  V30 66000 H 6129.2 6.49921 -0.494591 0
M  V30 66001 N 6132.64 1.20865 1.01141 0
M  V30 66002 C 6133.58 0.95908 2.11907 0
M  V30 66003 C 6134.58 -0.0914143 1.69153 0
M  V30 66004 O 6135.78 0.0594076 1.79902 0
M  V30 66005 H 6132.16 0.29285 0.692635 0
M  V30 66006 H 6134.13 1.89945 2.30138 0
M  V30 66007 C 6132.88 0.533379 3.43585 0
M  V30 66008 H 6132.2 1.33332 3.76912 0
M  V30 66009 H 6133.64 0.398016 4.22128 0
M  V30 66010 C 6132.1 -0.754896 3.28334 0
M  V30 66011 O 6132.63 -1.81204 3.58508 0
M  V30 66012 N 6130.84 -0.718927 2.81567 0
M  V30 66013 H 6130.38 0.141635 2.5721 0
M  V30 66014 H 6130.34 -1.58122 2.71744 0
M  V30 66015 N 6134.12 -1.20532 1.01537 0
M  V30 66016 C 6135.05 -2.25528 0.604945 0
M  V30 66017 C 6136.03 -1.65815 -0.379394 0
M  V30 66018 O 6137.21 -1.92382 -0.265095 0
M  V30 66019 C 6134.34 -3.4725 -0.0588072 0
M  V30 66020 C 6133.3 -4.19548 0.846389 0
M  V30 66021 C 6132.62 -5.34678 0.048478 0
M  V30 66022 C 6133.92 -4.75821 2.15387 0
M  V30 66023 H 6135.62 -2.60112 1.48263 0
M  V30 66024 H 6133.16 -1.25033 0.714341 0
M  V30 66025 H 6135.11 -4.19881 -0.35748 0
M  V30 66026 H 6133.84 -3.11826 -0.9712 0
M  V30 66027 H 6132.5 -3.48781 1.12905 0
M  V30 66028 H 6132.15 -4.95497 -0.865526 0
M  V30 66029 H 6131.85 -5.83979 0.651286 0
M  V30 66030 H 6133.37 -6.10113 -0.243769 0
M  V30 66031 H 6134.78 -5.40277 1.91764 0
M  V30 66032 H 6133.18 -5.35555 2.70742 0
M  V30 66033 H 6134.25 -3.94631 2.8177 0
M  V30 66034 N 6135.59 -0.791442 -1.36286 0
M  V30 66035 C 6136.82 -0.376221 -2.03146 0
M  V30 66036 C 6137.23 1.01281 -1.59809 0
M  V30 66037 O 6136.57 1.66131 -0.783978 0
M  V30 66038 C 6136.64 -0.362917 -3.57663 0
M  V30 66039 C 6136.3 -1.69987 -4.24209 0
M  V30 66040 C 6137.3 -2.65568 -4.46956 0
M  V30 66041 C 6134.98 -1.97972 -4.61641 0
M  V30 66042 C 6136.98 -3.87329 -5.06217 0
M  V30 66043 C 6134.66 -3.19999 -5.20619 0
M  V30 66044 C 6135.66 -4.14496 -5.42847 0
M  V30 66045 O 6135.35 -5.34371 -6.00586 0
M  V30 66046 H 6135.08 -0.152877 -0.658487 0
M  V30 66047 H 6137.64 -1.07206 -1.75203 0
M  V30 66048 H 6135.87 0.389431 -3.84734 0
M  V30 66049 H 6137.55 0.0279141 -4.0589 0
M  V30 66050 H 6138.32 -2.45235 -4.18431 0
M  V30 66051 H 6134.2 -1.25238 -4.43663 0
M  V30 66052 H 6137.74 -4.61099 -5.23482 0
M  V30 66053 H 6133.64 -3.40209 -5.48569 0
M  V30 66054 H 6134.41 -5.35462 -6.1905 0
M  V30 66055 N 6137.07 1.47927 -0.543632 0
M  V30 66056 C 6138 2.27844 0.248925 0
M  V30 66057 C 6139.02 1.36192 0.891939 0
M  V30 66058 O 6140.21 1.6113 0.768079 0
M  V30 66059 C 6137.31 3.10021 1.36896 0
M  V30 66060 C 6136.48 4.29543 0.825299 0
M  V30 66061 C 6135.54 4.93422 1.82814 0
M  V30 66062 O 6134.56 5.52227 1.37964 0
M  V30 66063 N 6135.77 4.86892 3.16096 0
M  V30 66064 H 6138.53 2.96504 -0.43654 0
M  V30 66065 H 6136.09 1.57406 -0.378829 0
M  V30 66066 H 6138.08 3.49623 2.03828 0
M  V30 66067 H 6136.65 2.43693 1.95787 0
M  V30 66068 H 6135.87 3.94195 -0.0204162 0
M  V30 66069 H 6137.16 5.06884 0.44119 0
M  V30 66070 H 6136.56 4.40292 3.55189 0
M  V30 66071 H 6135.12 5.30554 3.78624 0
M  V30 66072 N 6138.55 0.279414 1.55103 0
M  V30 66073 C 6139.46 -0.61617 2.26364 0
M  V30 66074 C 6140.48 -1.16652 1.29106 0
M  V30 66075 O 6141.65 -1.1959 1.6205 0
M  V30 66076 C 6138.72 -1.78181 2.9741 0
M  V30 66077 C 6137.78 -1.2677 4.10156 0
M  V30 66078 C 6137.01 -2.37779 4.77804 0
M  V30 66079 O 6137.23 -3.57227 4.44686 0
M  V30 66080 O 6136.17 -2.05691 5.65663 0
M  V30 66081 H 6139.99 -0.0387647 3.03675 0
M  V30 66082 H 6137.58 0.0466583 1.49327 0
M  V30 66083 H 6139.46 -2.46138 3.42044 0
M  V30 66084 H 6138.14 -2.34622 2.23011 0
M  V30 66085 H 6137.04 -0.554478 3.69968 0
M  V30 66086 H 6138.38 -0.748986 4.86468 0
M  V30 66087 N 6140.03 -1.57599 0.00676391 0
M  V30 66088 C 6140.96 -2.11881 -0.981257 0
M  V30 66089 C 6141.94 -1.02954 -1.35405 0
M  V30 66090 O 6143.12 -1.30672 -1.43661 0
M  V30 66091 C 6140.25 -2.62765 -2.27094 0
M  V30 66092 C 6139.21 -3.76279 -2.03957 0
M  V30 66093 C 6138.53 -4.13503 -3.38997 0
M  V30 66094 C 6139.83 -5.03279 -1.3967 0
M  V30 66095 H 6141.53 -2.94685 -0.529262 0
M  V30 66096 H 6139.07 -1.41758 -0.253138 0
M  V30 66097 H 6141.03 -2.99369 -2.96574 0
M  V30 66098 H 6139.75 -1.77092 -2.74419 0
M  V30 66099 H 6138.41 -3.40079 -1.36901 0
M  V30 66100 H 6138.06 -3.24844 -3.84038 0
M  V30 66101 H 6137.76 -4.89984 -3.24329 0
M  V30 66102 H 6139.28 -4.52672 -4.09781 0
M  V30 66103 H 6140.7 -5.37611 -1.99117 0
M  V30 66104 H 6139.09 -5.84609 -1.3547 0
M  V30 66105 H 6140.16 -4.83511 -0.366758 0
M  V30 66106 N 6141.51 0.266091 -1.55337 0
M  V30 66107 C 6142.44 1.33315 -1.91701 0
M  V30 66108 C 6143.42 1.5118 -0.779663 0
M  V30 66109 O 6144.6 1.64108 -1.03837 0
M  V30 66110 C 6141.73 2.69144 -2.19497 0
M  V30 66111 C 6140.69 2.66001 -3.35302 0
M  V30 66112 C 6140.01 4.05446 -3.48594 0
M  V30 66113 C 6141.31 2.24664 -4.71512 0
M  V30 66114 H 6143.01 1.03128 -2.81078 0
M  V30 66115 H 6140.55 0.494654 -1.35237 0
M  V30 66116 H 6142.5 3.4391 -2.43524 0
M  V30 66117 H 6141.23 3.00927 -1.26927 0
M  V30 66118 H 6139.89 1.93692 -3.11254 0
M  V30 66119 H 6139.54 4.34463 -2.53478 0
M  V30 66120 H 6139.24 4.04236 -4.26459 0
M  V30 66121 H 6140.76 4.8194 -3.74921 0
M  V30 66122 H 6142.17 2.89155 -4.95038 0
M  V30 66123 H 6140.57 2.34603 -5.52342 0
M  V30 66124 H 6141.64 1.19803 -4.69867 0
M  V30 66125 N 6142.98 1.48388 0.530914 0
M  V30 66126 C 6144.21 1.60018 1.31156 0
M  V30 66127 C 6144.63 0.260093 1.87 0
M  V30 66128 O 6143.98 -0.750488 1.66355 0
M  V30 66129 C 6144.03 2.64605 2.46305 0
M  V30 66130 O 6143.76 3.93413 1.92763 0
M  V30 66131 C 6145.26 2.86665 3.38139 0
M  V30 66132 H 6142.48 0.539567 0.398884 0
M  V30 66133 H 6145.02 1.94209 0.640562 0
M  V30 66134 H 6143.18 2.33276 3.09291 0
M  V30 66135 H 6143.59 4.50784 2.68131 0
M  V30 66136 H 6145.06 3.63649 4.15288 0
M  V30 66137 H 6145.54 1.95454 3.93312 0
M  V30 66138 H 6146.15 3.19295 2.80946 0
M  V30 66139 N 6144.46 -0.779715 1.36961 0
M  V30 66140 C 6145.39 -1.90163 1.27947 0
M  V30 66141 C 6146.41 -1.61605 0.196923 0
M  V30 66142 O 6147.6 -1.72671 0.452429 0
M  V30 66143 C 6144.7 -3.25205 0.953679 0
M  V30 66144 C 6143.87 -3.8147 2.14008 0
M  V30 66145 C 6142.93 -4.9497 1.78581 0
M  V30 66146 O 6141.95 -5.10975 2.50785 0
M  V30 66147 N 6143.16 -5.75952 0.725218 0
M  V30 66148 H 6145.92 -1.98414 2.24615 0
M  V30 66149 H 6143.48 -0.958449 1.30481 0
M  V30 66150 H 6145.47 -3.98641 0.697669 0
M  V30 66151 H 6144.04 -3.12508 0.0758204 0
M  V30 66152 H 6143.26 -2.99906 2.55832 0
M  V30 66153 H 6144.55 -4.15792 2.93248 0
M  V30 66154 H 6143.95 -5.6556 0.125898 0
M  V30 66155 H 6142.51 -6.49649 0.529051 0
M  V30 66156 N 6145.94 -1.21399 -1.00498 0
M  V30 66157 C 6146.85 -0.989296 -2.12721 0
M  V30 66158 C 6147.87 0.0586035 -1.73901 0
M  V30 66159 O 6149.04 -0.131448 -2.00971 0
M  V30 66160 C 6146.11 -0.556851 -3.42199 0
M  V30 66161 C 6145.17 -1.67697 -3.95192 0
M  V30 66162 C 6144.4 -1.26506 -5.1849 0
M  V30 66163 O 6144.62 -0.13867 -5.70231 0
M  V30 66164 O 6143.56 -2.07698 -5.64929 0
M  V30 66165 H 6147.38 -1.92921 -2.34553 0
M  V30 66166 H 6144.97 -0.998876 -1.11098 0
M  V30 66167 H 6146.85 -0.325474 -4.20141 0
M  V30 66168 H 6145.53 0.354344 -3.21755 0
M  V30 66169 H 6144.43 -1.96275 -3.18476 0
M  V30 66170 H 6145.77 -2.56559 -4.20046 0
M  V30 66171 N 6147.42 1.19992 -1.02175 0
M  V30 66172 C 6148.67 1.89118 -0.712646 0
M  V30 66173 C 6148.99 1.79559 0.760498 0
M  V30 66174 O 6148.26 1.20135 1.5474 0
M  V30 66175 H 6146.84 0.700066 -0.260609 0
M  V30 66176 H 6149.5 1.45705 -1.29445 0
M  V30 66177 H 6148.59 2.95625 -1.00061 0
M  V30 66178 N 6148.9 0.798659 1.35865 0
M  V30 66179 C 6149.83 0.161283 2.28632 0
M  V30 66180 C 6150.84 -0.634833 1.49912 0
M  V30 66181 O 6152.03 -0.468497 1.72242 0
M  V30 66182 C 6149.13 -0.794291 3.29461 0
M  V30 66183 C 6148.3 -0.0462493 4.37376 0
M  V30 66184 C 6147.36 -0.919131 5.1811 0
M  V30 66185 O 6146.39 -0.372979 5.67977 0
M  V30 66186 N 6147.59 -2.24224 5.35447 0
M  V30 66187 H 6150.36 0.958179 2.8397 0
M  V30 66188 H 6147.92 0.653396 1.4813 0
M  V30 66189 H 6149.91 -1.38228 3.80362 0
M  V30 66190 H 6148.48 -1.49202 2.74695 0
M  V30 66191 H 6147.7 0.722893 3.87515 0
M  V30 66192 H 6148.99 0.469595 5.06628 0
M  V30 66193 H 6148.38 -2.70999 4.96564 0
M  V30 66194 H 6146.94 -2.77966 5.89558 0
M  V30 66195 N 6150.37 -1.47637 0.551469 0
M  V30 66196 C 6151.34 -2.2842 -0.188916 0
M  V30 66197 C 6152.34 -1.3662 -0.848032 0
M  V30 66198 O 6153.53 -1.59306 -0.704775 0
M  V30 66199 C 6150.66 -3.16135 -1.2756 0
M  V30 66200 H 6151.85 -2.95346 0.520622 0
M  V30 66201 H 6149.41 -1.53231 0.308195 0
M  V30 66202 H 6150.14 -2.53887 -2.01771 0
M  V30 66203 H 6149.93 -3.83688 -0.807849 0
M  V30 66204 H 6151.42 -3.77017 -1.79577 0
M  V30 66205 N 6151.85 -0.287636 -1.54953 0
M  V30 66206 C 6153.08 0.33137 -2.04736 0
M  V30 66207 C 6153.5 1.47748 -1.16414 0
M  V30 66208 O 6152.86 1.80544 -0.16536 0
M  V30 66209 C 6152.91 0.777999 -3.52107 0
M  V30 66210 O 6152.01 1.88409 -3.66846 0
M  V30 66211 H 6151.35 0.0665941 -0.660652 0
M  V30 66212 H 6153.88 -0.425586 -2.00125 0
M  V30 66213 H 6153.89 1.07041 -3.93708 0
M  V30 66214 H 6152.57 -0.0604646 -4.15856 0
M  V30 66215 H 6151.15 1.59326 -3.37149 0
M  V30 66216 N 6153.33 1.57593 -0.0151216 0
M  V30 66217 C 6154.58 1.91216 0.666532 0
M  V30 66218 C 6154.91 0.8902 1.72933 0
M  V30 66219 O 6154.16 -0.102907 1.95429 0
M  V30 66220 C 6154.46 3.31585 1.33365 0
M  V30 66221 C 6154.13 4.49099 0.40259 0
M  V30 66222 C 6152.79 4.80978 0.146286 0
M  V30 66223 C 6155.14 5.20658 -0.237559 0
M  V30 66224 C 6152.47 5.8178 -0.758208 0
M  V30 66225 C 6154.82 6.22425 -1.13002 0
M  V30 66226 C 6153.48 6.52753 -1.39535 0
M  V30 66227 H 6152.75 0.699709 0.243901 0
M  V30 66228 H 6155.4 1.91357 -0.0738913 0
M  V30 66229 H 6153.71 3.27639 2.14848 0
M  V30 66230 H 6155.4 3.54866 1.86738 0
M  V30 66231 H 6151.99 4.242 0.612529 0
M  V30 66232 H 6156.18 4.96272 -0.0525825 0
M  V30 66233 H 6151.43 6.0363 -0.971627 0
M  V30 66234 H 6155.61 6.76999 -1.63232 0
M  V30 66235 H 6153.23 7.30679 -2.0979 0
M  V30 66236 N 6154.81 -0.257849 1.55476 0
M  V30 66237 C 6155.74 -1.34169 1.85826 0
M  V30 66238 C 6156.75 -1.44818 0.743747 0
M  V30 66239 O 6157.94 -1.46364 1.02176 0
M  V30 66240 C 6155.04 -2.72144 2.01967 0
M  V30 66241 C 6154.22 -2.83899 3.32746 0
M  V30 66242 C 6153.27 -4.02647 3.38765 0
M  V30 66243 O 6152.3 -3.9269 4.12047 0
M  V30 66244 N 6153.5 -5.15316 2.67263 0
M  V30 66245 H 6156.27 -1.08474 2.79381 0
M  V30 66246 H 6153.83 -0.447962 1.55579 0
M  V30 66247 H 6155.82 -3.49903 2.03348 0
M  V30 66248 H 6154.39 -2.90596 1.15208 0
M  V30 66249 H 6153.61 -1.92903 3.43776 0
M  V30 66250 H 6154.9 -2.88695 4.18966 0
M  V30 66251 H 6154.3 -5.26295 2.07436 0
M  V30 66252 H 6152.85 -5.91249 2.74349 0
M  V30 66253 N 6156.29 -1.48668 -0.523038 0
M  V30 66254 C 6157.53 -1.56728 -1.27596 0
M  V30 66255 C 6157.86 -0.246026 -1.93442 0
M  V30 66256 O 6157.13 0.732989 -1.8167 0
M  V30 66257 H 6155.71 -0.577406 -0.473932 0
M  V30 66258 H 6158.37 -1.85171 -0.608078 0
M  V30 66259 H 6157.46 -2.35195 -2.05158 0
M  V30 66260 N 6157.76 0.772441 -1.37372 0
M  V30 66261 C 6158.69 1.89965 -1.35778 0
M  V30 66262 C 6159.68 1.68585 -0.226511 0
M  V30 66263 O 6160.86 1.89453 -0.426759 0
M  V30 66264 C 6157.99 3.27238 -1.16331 0
M  V30 66265 C 6156.94 3.63179 -2.26462 0
M  V30 66266 C 6156.27 4.98986 -1.92139 0
M  V30 66267 C 6157.57 3.7 -3.68643 0
M  V30 66268 H 6159.26 1.91556 -2.30102 0
M  V30 66269 H 6156.81 0.920203 -1.10762 0
M  V30 66270 H 6158.76 4.0573 -1.13846 0
M  V30 66271 H 6157.49 3.26078 -0.184628 0
M  V30 66272 H 6156.15 2.86993 -2.28102 0
M  V30 66273 H 6155.79 4.94365 -0.928022 0
M  V30 66274 H 6155.49 5.24002 -2.65886 0
M  V30 66275 H 6157.02 5.79879 -1.9124 0
M  V30 66276 H 6158.43 4.38646 -3.69137 0
M  V30 66277 H 6156.83 4.06514 -4.41437 0
M  V30 66278 H 6157.9 2.7068 -4.02319 0
M  V30 66279 N 6159.24 1.21931 0.998532 0
M  V30 66280 C 6160.19 0.984356 2.08756 0
M  V30 66281 C 6161.16 -0.0919446 1.65845 0
M  V30 66282 O 6162.34 0.0565005 1.90716 0
M  V30 66283 C 6159.48 0.562125 3.40491 0
M  V30 66284 C 6158.6 1.70858 3.96777 0
M  V30 66285 C 6157.73 1.23488 5.16647 0
M  V30 66286 C 6156.77 2.35325 5.65056 0
M  V30 66287 N 6155.91 1.89042 6.76171 0
M  V30 66288 H 6160.75 1.91661 2.28188 0
M  V30 66289 H 6158.29 0.955068 1.11879 0
M  V30 66290 H 6160.24 0.29853 4.16131 0
M  V30 66291 H 6158.87 -0.333127 3.21076 0
M  V30 66292 H 6157.93 2.08665 3.18062 0
M  V30 66293 H 6159.24 2.55002 4.2869 0
M  V30 66294 H 6158.39 0.928332 5.99556 0
M  V30 66295 H 6157.13 0.363568 4.86343 0
M  V30 66296 H 6156.14 2.66775 4.8074 0
M  V30 66297 H 6157.36 3.22962 5.97388 0
M  V30 66298 H 6155.31 1.04265 6.47661 0
M  V30 66299 H 6155.22 2.66756 7.07374 0
M  V30 66300 H 6156.49 1.6144 7.62599 0
M  V30 66301 N 6160.72 -1.19449 1.02809 0
M  V30 66302 C 6162 -1.84876 0.638772 0
M  V30 66303 C 6162.38 -1.91766 -0.88256 0
M  V30 66304 O 6161.73 -1.43407 -1.77895 0
M  V30 66305 C 6161.94 -3.23887 1.29993 0
M  V30 66306 C 6163.28 -4.00056 1.42268 0
M  V30 66307 O 6164.31 -3.33282 1.25704 0
M  V30 66308 O 6163.17 -5.19666 1.69145 0
M  V30 66309 H 6160.26 -0.796668 0.22192 0
M  V30 66310 H 6162.81 -1.26945 1.1262 0
M  V30 66311 H 6161.58 -3.13703 2.33894 0
M  V30 66312 H 6161.2 -3.89462 0.800323 0
M  V30 66313 N 6162.2 -0.805853 -1.35439 0
M  V30 66314 C 6163.15 -0.203797 -2.31705 0
M  V30 66315 C 6164.14 0.646029 -1.56598 0
M  V30 66316 O 6165.35 0.539275 -1.71732 0
M  V30 66317 H 6161.72 -0.0471416 -0.750521 0
M  V30 66318 H 6163.69 -1.03085 -2.80029 0
M  V30 66319 C 6162.44 0.633671 -3.41877 0
M  V30 66320 H 6161.76 -0.0109121 -3.99799 0
M  V30 66321 H 6163.2 1.02132 -4.11515 0
M  V30 66322 C 6161.66 1.79889 -2.84853 0
M  V30 66323 O 6162.19 2.89633 -2.78344 0
M  V30 66324 N 6160.4 1.61019 -2.41912 0
M  V30 66325 H 6159.95 0.717512 -2.47406 0
M  V30 66326 H 6159.9 2.3914 -2.04107 0
M  V30 66327 N 6163.68 1.47342 -0.559291 0
M  V30 66328 C 6164.92 2.02768 -0.0360675 0
M  V30 66329 C 6165.26 1.43251 1.31121 0
M  V30 66330 O 6164.53 0.588859 1.85372 0
M  V30 66331 C 6164.81 3.60058 0.0547845 0
M  V30 66332 C 6164.67 4.30004 -1.31973 0
M  V30 66333 C 6165.99 4.33362 0.767179 0
M  V30 66334 H 6163.11 0.736856 -0.0145811 0
M  V30 66335 H 6165.75 1.75748 -0.721981 0
M  V30 66336 H 6163.9 3.8321 0.638941 0
M  V30 66337 H 6165.57 4.18186 -1.94725 0
M  V30 66338 H 6163.81 3.90276 -1.89385 0
M  V30 66339 H 6164.48 5.38601 -1.20886 0
M  V30 66340 H 6166.96 4.15215 0.271164 0
M  V30 66341 H 6165.84 5.43043 0.799714 0
M  V30 66342 H 6166.1 4.02731 1.82373 0
M  V30 66343 N 6165.16 0.295849 1.54798 0
M  V30 66344 C 6166.4 -0.314936 2.00036 0
M  V30 66345 C 6166.73 -1.54291 1.18426 0
M  V30 66346 O 6165.99 -1.94133 0.247169 0
M  V30 66347 C 6166.28 -0.721102 3.5005 0
M  V30 66348 C 6165.95 0.404553 4.49081 0
M  V30 66349 C 6164.61 0.713586 4.7588 0
M  V30 66350 C 6166.96 1.16203 5.08081 0
M  V30 66351 C 6164.29 1.78331 5.58941 0
M  V30 66352 C 6166.64 2.22163 5.92306 0
M  V30 66353 C 6165.31 2.53678 6.17417 0
M  V30 66354 H 6164.58 -0.115243 0.731984 0
M  V30 66355 H 6167.23 0.413876 1.86974 0
M  V30 66356 H 6165.53 -1.52992 3.60695 0
M  V30 66357 H 6167.23 -1.20478 3.82474 0
M  V30 66358 H 6163.82 0.153586 4.28325 0
M  V30 66359 H 6168 0.936537 4.87384 0
M  V30 66360 H 6163.26 2.03226 5.76636 0
M  V30 66361 H 6167.43 2.81318 6.3705 0
M  V30 66362 H 6165.06 3.367 6.81569 0
M  V30 66363 N 6166.63 -1.57583 0.023479 0
M  V30 66364 C 6167.91 -1.82847 -0.694723 0
M  V30 66365 C 6168.29 -0.906209 -1.9066 0
M  V30 66366 O 6167.64 0.0395407 -2.28466 0
M  V30 66367 C 6167.85 -3.31925 -1.07828 0
M  V30 66368 C 6169.2 -3.98257 -1.47229 0
M  V30 66369 O 6170.22 -3.36387 -1.17142 0
M  V30 66370 O 6169.08 -5.07292 -2.03267 0
M  V30 66371 H 6166.17 -0.753735 -0.340312 0
M  V30 66372 H 6168.72 -1.69624 0.05073 0
M  V30 66373 H 6167.49 -3.90706 -0.215504 0
M  V30 66374 H 6167.11 -3.50233 -1.88208 0
M  V30 66375 N 6168.11 0.2496 -1.55611 0
M  V30 66376 C 6169.36 0.976086 -1.76966 0
M  V30 66377 C 6169.68 1.85956 -0.586968 0
M  V30 66378 O 6168.95 1.91828 0.397348 0
M  V30 66379 H 6167.53 0.363393 -0.652652 0
M  V30 66380 H 6170.19 0.268197 -1.93046 0
M  V30 66381 H 6169.29 1.59938 -2.68004 0
M  V30 66382 N 6169.59 1.48943 0.515146 0
M  V30 66383 C 6170.52 1.67471 1.62713 0
M  V30 66384 C 6171.5 0.52345 1.61846 0
M  V30 66385 O 6172.69 0.757694 1.78809 0
M  V30 66386 C 6169.82 1.7281 3.01254 0
M  V30 66387 C 6168.77 2.87585 3.16984 0
M  V30 66388 C 6168.1 2.78024 4.56735 0
M  V30 66389 C 6169.4 4.28703 2.98347 0
M  V30 66390 H 6171.09 2.60567 1.47462 0
M  V30 66391 H 6168.64 1.25394 0.707983 0
M  V30 66392 H 6170.59 1.84359 3.78932 0
M  V30 66393 H 6169.31 0.763029 3.17562 0
M  V30 66394 H 6167.97 2.75615 2.41727 0
M  V30 66395 H 6167.62 1.79455 4.69899 0
M  V30 66396 H 6167.32 3.55049 4.68203 0
M  V30 66397 H 6168.84 2.91562 5.36492 0
M  V30 66398 H 6170.26 4.41429 3.65805 0
M  V30 66399 H 6168.65 5.06841 3.21297 0
M  V30 66400 H 6169.72 4.44132 1.94614 0
M  V30 66401 N 6171.07 -0.765145 1.3778 0
M  V30 66402 C 6172.31 -1.52618 1.3355 0
M  V30 66403 C 6172.65 -1.94044 -0.0779238 0
M  V30 66404 O 6171.92 -1.6457 -1.03668 0
M  V30 66405 C 6172.2 -2.78671 2.28066 0
M  V30 66406 C 6172.06 -2.43458 3.78217 0
M  V30 66407 C 6173.38 -3.80638 2.20913 0
M  V30 66408 H 6170.5 -0.553661 0.486445 0
M  V30 66409 H 6173.14 -0.877267 1.68535 0
M  V30 66410 H 6171.29 -3.34043 1.98362 0
M  V30 66411 H 6172.96 -1.9395 4.18546 0
M  V30 66412 H 6171.2 -1.76067 3.96463 0
M  V30 66413 H 6171.87 -3.33594 4.39795 0
M  V30 66414 H 6174.35 -3.34777 2.4711 0
M  V30 66415 H 6173.23 -4.6655 2.89176 0
M  V30 66416 H 6173.49 -4.25384 1.20418 0
M  V30 66417 N 6172.55 -1.22459 -0.992051 0
M  V30 66418 C 6173.96 -0.984726 -1.256 0
M  V30 66419 C 6174.16 0.321185 -1.98924 0
M  V30 66420 O 6173.22 1.04359 -2.29925 0
M  V30 66421 C 6174.53 -2.18398 -2.06695 0
M  V30 66422 C 6176.08 -2.22763 -2.19876 0
M  V30 66423 C 6176.55 -3.42242 -3.04359 0
M  V30 66424 N 6178.04 -3.42409 -3.11946 0
M  V30 66425 C 6178.78 -4.3151 -3.77607 0
M  V30 66426 N 6178.28 -5.30829 -4.45188 0
M  V30 66427 N 6180.07 -4.19283 -3.74377 0
M  V30 66428 H 6172.22 -2.06419 -0.500498 0
M  V30 66429 H 6174.48 -0.904566 -0.283662 0
M  V30 66430 H 6174.19 -3.13105 -1.60181 0
M  V30 66431 H 6174.06 -2.18527 -3.0745 0
M  V30 66432 H 6176.45 -1.28603 -2.65604 0
M  V30 66433 H 6176.53 -2.26671 -1.18549 0
M  V30 66434 H 6176.17 -4.36703 -2.59331 0
M  V30 66435 H 6176.1 -3.35574 -4.0583 0
M  V30 66436 H 6178.6 -2.70541 -2.63849 0
M  V30 66437 H 6178.91 -5.95095 -4.93033 0
M  V30 66438 H 6177.25 -5.34741 -4.43933 0
M  V30 66439 H 6180.44 -3.40944 -3.20741 0
M  V30 66440 H 6180.62 -4.88928 -4.25269 0
M  V30 66441 N 6174.02 1.18902 -1.03441 0
M  V30 66442 C 6175.27 1.89004 -0.735202 0
M  V30 66443 C 6175.6 1.79763 0.734775 0
M  V30 66444 O 6174.88 1.1937 1.53561 0
M  V30 66445 C 6175.16 3.39728 -1.19401 0
M  V30 66446 C 6175.01 3.57813 -2.72562 0
M  V30 66447 C 6176.33 4.33148 -0.779145 0
M  V30 66448 H 6173.45 0.686329 -0.268555 0
M  V30 66449 H 6176.09 1.39927 -1.28532 0
M  V30 66450 H 6174.24 3.81656 -0.725995 0
M  V30 66451 H 6175.92 3.25019 -3.27353 0
M  V30 66452 H 6174.16 3.00679 -3.12689 0
M  V30 66453 H 6174.83 4.63541 -2.99722 0
M  V30 66454 H 6177.31 3.98965 -1.18178 0
M  V30 66455 H 6176.18 5.37185 -1.128 0
M  V30 66456 H 6176.44 4.40954 0.318141 0
M  V30 66457 N 6175.5 0.813024 1.3501 0
M  V30 66458 C 6176.73 0.409085 2.02815 0
M  V30 66459 C 6177.14 -0.981948 1.61255 0
M  V30 66460 O 6176.5 -1.63381 0.813195 0
M  V30 66461 C 6176.55 0.490243 3.5816 0
M  V30 66462 O 6176.27 1.82644 3.98212 0
M  V30 66463 C 6177.77 0.0799344 4.43228 0
M  V30 66464 H 6174.99 0.165379 0.650301 0
M  V30 66465 H 6177.54 1.09843 1.72495 0
M  V30 66466 H 6175.69 -0.150921 3.87106 0
M  V30 66467 H 6176.11 1.79373 4.92875 0
M  V30 66468 H 6177.58 0.187824 5.5168 0
M  V30 66469 H 6178.06 -0.975462 4.28231 0
M  V30 66470 H 6178.66 0.694507 4.19591 0
M  V30 66471 N 6176.98 -1.47043 0.567097 0
M  V30 66472 C 6177.91 -2.28211 -0.212646 0
M  V30 66473 C 6178.92 -1.37594 -0.870159 0
M  V30 66474 O 6180.11 -1.62331 -0.742347 0
M  V30 66475 C 6177.21 -3.12159 -1.31946 0
M  V30 66476 C 6176.39 -4.30802 -0.756858 0
M  V30 66477 C 6175.45 -4.96268 -1.74941 0
M  V30 66478 O 6174.47 -5.54352 -1.29161 0
M  V30 66479 N 6175.67 -4.91859 -3.0831 0
M  V30 66480 H 6178.44 -2.95772 0.483656 0
M  V30 66481 H 6176 -1.56783 0.403823 0
M  V30 66482 H 6177.99 -3.52822 -1.9824 0
M  V30 66483 H 6176.56 -2.46777 -1.91885 0
M  V30 66484 H 6175.78 -3.94112 0.0831266 0
M  V30 66485 H 6177.07 -5.07521 -0.360493 0
M  V30 66486 H 6176.47 -4.45887 -3.4814 0
M  V30 66487 H 6175.02 -5.3651 -3.70135 0
M  V30 66488 N 6178.46 -0.304054 -1.54639 0
M  V30 66489 C 6179.37 0.580079 -2.27315 0
M  V30 66490 C 6180.38 1.14583 -1.30946 0
M  V30 66491 O 6181.56 1.16997 -1.63932 0
M  V30 66492 C 6178.63 1.73427 -3.00207 0
M  V30 66493 C 6177.69 1.20229 -4.12121 0
M  V30 66494 C 6176.92 2.30147 -4.81527 0
M  V30 66495 O 6177.14 3.50107 -4.50312 0
M  V30 66496 O 6176.08 1.96666 -5.68864 0
M  V30 66497 H 6179.9 -0.00955229 -3.03698 0
M  V30 66498 H 6177.49 -0.070409 -1.49234 0
M  V30 66499 H 6179.37 2.40665 -3.45917 0
M  V30 66500 H 6178.04 2.31045 -2.26716 0
M  V30 66501 H 6176.95 0.495549 -3.70803 0
M  V30 66502 H 6178.28 0.671498 -4.87598 0
M  V30 66503 N 6179.94 1.57568 -0.0318356 0
M  V30 66504 C 6181.18 1.91912 0.646213 0
M  V30 66505 C 6181.51 0.908492 1.71979 0
M  V30 66506 O 6180.77 -0.0821738 1.95527 0
M  V30 66507 C 6181.07 3.32981 1.2984 0
M  V30 66508 C 6180.73 4.49501 0.354934 0
M  V30 66509 C 6179.39 4.81106 0.0952635 0
M  V30 66510 C 6181.75 5.20377 -0.292769 0
M  V30 66511 C 6179.07 5.80943 -0.819871 0
M  V30 66512 C 6181.43 6.21192 -1.19597 0
M  V30 66513 C 6180.09 6.51236 -1.46451 0
M  V30 66514 H 6179.36 0.702257 0.236466 0
M  V30 66515 H 6182.01 1.91268 -0.0941831 0
M  V30 66516 H 6180.31 3.29899 2.11361 0
M  V30 66517 H 6182.01 3.56826 1.82964 0
M  V30 66518 H 6178.6 4.24826 0.567502 0
M  V30 66519 H 6182.78 4.96188 -0.105216 0
M  V30 66520 H 6178.04 6.02566 -1.0356 0
M  V30 66521 H 6182.21 6.7523 -1.70403 0
M  V30 66522 H 6179.84 7.28413 -2.17528 0
M  V30 66523 N 6181.41 -0.241344 1.55741 0
M  V30 66524 C 6182.36 -1.30191 1.87174 0
M  V30 66525 C 6183.35 -1.4323 0.733072 0
M  V30 66526 O 6184.54 -1.46378 0.99511 0
M  V30 66527 C 6181.67 -2.65629 2.17477 0
M  V30 66528 C 6180.76 -2.56572 3.37685 0
M  V30 66529 N 6181.15 -2.17151 4.56814 0
M  V30 66530 C 6179.44 -2.87574 3.40906 0
M  V30 66531 C 6180.15 -2.18863 5.38956 0
M  V30 66532 N 6179.12 -2.58582 4.78159 0
M  V30 66533 H 6182.92 -0.987712 2.76806 0
M  V30 66534 H 6180.44 -0.44996 1.56042 0
M  V30 66535 H 6182.43 -3.42175 2.38163 0
M  V30 66536 H 6181.09 -2.97911 1.29147 0
M  V30 66537 H 6182.11 -1.88604 4.82337 0
M  V30 66538 H 6178.78 -3.2436 2.62863 0
M  V30 66539 H 6180.17 -1.90677 6.44276 0
M  V30 66540 N 6182.89 -1.49214 -0.50724 0
M  V30 66541 C 6183.83 -1.60019 -1.62694 0
M  V30 66542 C 6184.8 -0.449527 -1.56263 0
M  V30 66543 O 6185.99 -0.664232 -1.76409 0
M  V30 66544 C 6183.11 -1.54934 -3.01186 0
M  V30 66545 C 6182.16 -2.75121 -3.259 0
M  V30 66546 S 6182.99 -4.36861 -3.09698 0
M  V30 66547 C 6184.15 -4.34411 -4.50597 0
M  V30 66548 H 6184.38 -2.54739 -1.53282 0
M  V30 66549 H 6181.92 -1.38028 -0.691931 0
M  V30 66550 H 6183.87 -1.52686 -3.81047 0
M  V30 66551 H 6182.53 -0.615123 -3.08018 0
M  V30 66552 H 6181.73 -2.67765 -4.26987 0
M  V30 66553 H 6181.33 -2.74749 -2.5375 0
M  V30 66554 H 6183.62 -4.05746 -5.42565 0
M  V30 66555 H 6184.56 -5.35754 -4.63004 0
M  V30 66556 H 6184.97 -3.64571 -4.30985 0
M  V30 66557 N 6184.37 0.757827 -1.38184 0
M  V30 66558 C 6185.32 1.87148 -1.35072 0
M  V30 66559 C 6186.29 1.64716 -0.21395 0
M  V30 66560 O 6187.47 1.86441 -0.405514 0
M  V30 66561 C 6184.61 3.24394 -1.1774 0
M  V30 66562 C 6183.73 3.58686 -2.40767 0
M  V30 66563 C 6182.86 4.85213 -2.16198 0
M  V30 66564 C 6181.9 5.12278 -3.35019 0
M  V30 66565 N 6181.04 6.29999 -3.09912 0
M  V30 66566 H 6185.88 1.89143 -2.3028 0
M  V30 66567 H 6183.41 0.924531 -1.14415 0
M  V30 66568 H 6185.37 4.03586 -1.05708 0
M  V30 66569 H 6184 3.21737 -0.261719 0
M  V30 66570 H 6183.05 2.7437 -2.63487 0
M  V30 66571 H 6184.37 3.74617 -3.29338 0
M  V30 66572 H 6183.52 5.72339 -2.01278 0
M  V30 66573 H 6182.26 4.71413 -1.24986 0
M  V30 66574 H 6181.26 4.23622 -3.50463 0
M  V30 66575 H 6182.49 5.27978 -4.27101 0
M  V30 66576 H 6180.43 6.1753 -2.21343 0
M  V30 66577 H 6180.35 6.46411 -3.92032 0
M  V30 66578 H 6181.62 7.20024 -2.98639 0
M  V30 66579 N 6185.85 1.22983 0.985543 0
M  V30 66580 C 6187.09 1.0604 1.72868 0
M  V30 66581 C 6187.43 -0.402505 1.89983 0
M  V30 66582 O 6186.7 -1.29819 1.44836 0
M  V30 66583 C 6186.99 1.78058 3.12997 0
M  V30 66584 C 6186.84 3.31989 3.03485 0
M  V30 66585 C 6188.16 1.53892 4.12317 0
M  V30 66586 H 6185.28 0.386616 0.627453 0
M  V30 66587 H 6187.92 1.5142 1.14769 0
M  V30 66588 H 6186.07 1.39481 3.62598 0
M  V30 66589 H 6187.74 3.80056 2.61448 0
M  V30 66590 H 6185.98 3.61287 2.40113 0
M  V30 66591 H 6186.65 3.77564 4.02677 0
M  V30 66592 H 6189.13 1.87415 3.71503 0
M  V30 66593 H 6188.01 2.06767 5.08467 0
M  V30 66594 H 6188.27 0.473126 4.39561 0
M  V30 66595 N 6187.33 -1.18352 1.04071 0
M  V30 66596 C 6188.27 -2.21984 0.631792 0
M  V30 66597 C 6189.24 -1.62143 -0.360405 0
M  V30 66598 O 6190.43 -1.89097 -0.254379 0
M  V30 66599 C 6187.57 -3.451 0.000964886 0
M  V30 66600 C 6186.68 -4.19279 1.04063 0
M  V30 66601 C 6185.82 -5.29851 0.378317 0
M  V30 66602 C 6184.86 -5.95802 1.40308 0
M  V30 66603 N 6183.99 -6.97912 0.765726 0
M  V30 66604 H 6188.83 -2.56318 1.52004 0
M  V30 66605 H 6186.37 -1.2592 0.760428 0
M  V30 66606 H 6188.33 -4.15446 -0.382121 0
M  V30 66607 H 6186.96 -3.11386 -0.850801 0
M  V30 66608 H 6186.01 -3.4776 1.54167 0
M  V30 66609 H 6187.32 -4.64451 1.81898 0
M  V30 66610 H 6186.48 -6.06671 -0.0589728 0
M  V30 66611 H 6185.21 -4.85782 -0.432122 0
M  V30 66612 H 6184.22 -5.17722 1.8505 0
M  V30 66613 H 6185.44 -6.41954 2.21522 0
M  V30 66614 H 6183.39 -6.55995 -0.0244058 0
M  V30 66615 H 6183.31 -7.41336 1.48178 0
M  V30 66616 H 6184.58 -7.78701 0.352834 0
M  V30 66617 N 6188.8 -0.820173 -1.34577 0
M  V30 66618 C 6189.75 -0.212497 -2.27008 0
M  V30 66619 C 6190.74 0.621627 -1.48407 0
M  V30 66620 O 6191.93 0.476658 -1.70461 0
M  V30 66621 C 6189.06 0.62698 -3.37526 0
M  V30 66622 C 6188.15 -0.21762 -4.23541 0
M  V30 66623 N 6188.54 -1.28729 -4.89145 0
M  V30 66624 C 6186.83 -0.00149822 -4.46 0
M  V30 66625 C 6187.54 -1.80406 -5.53018 0
M  V30 66626 N 6186.51 -1.10838 -5.3218 0
M  V30 66627 H 6190.31 -1.03076 -2.75232 0
M  V30 66628 H 6187.83 -0.662701 -1.48263 0
M  V30 66629 H 6189.82 1.07847 -4.02709 0
M  V30 66630 H 6188.48 1.44343 -2.90852 0
M  V30 66631 H 6189.5 -1.67006 -4.90234 0
M  V30 66632 H 6186.17 0.783008 -4.10092 0
M  V30 66633 H 6187.56 -2.6988 -6.15317 0
M  V30 66634 N 6190.28 1.46741 -0.574887 0
M  V30 66635 C 6191.21 2.33013 0.150754 0
M  V30 66636 C 6192.19 1.44871 0.891421 0
M  V30 66637 O 6193.38 1.73701 0.86842 0
M  V30 66638 C 6190.51 3.26999 1.17001 0
M  V30 66639 C 6189.46 4.2452 0.54468 0
M  V30 66640 C 6188.79 5.07957 1.66984 0
M  V30 66641 C 6190.09 5.19774 -0.513074 0
M  V30 66642 H 6191.78 2.93933 -0.569536 0
M  V30 66643 H 6189.33 1.41343 -0.275339 0
M  V30 66644 H 6191.28 3.86204 1.68595 0
M  V30 66645 H 6190.01 2.64169 1.92047 0
M  V30 66646 H 6188.66 3.66566 0.0498845 0
M  V30 66647 H 6188.31 4.41519 2.40978 0
M  V30 66648 H 6188.01 5.73995 1.25712 0
M  V30 66649 H 6189.54 5.70025 2.1887 0
M  V30 66650 H 6190.95 5.73241 -0.0825079 0
M  V30 66651 H 6189.35 5.94111 -0.845671 0
M  V30 66652 H 6190.42 4.64179 -1.40234 0
M  V30 66653 N 6191.76 0.312251 1.54476 0
M  V30 66654 C 6193.01 -0.294537 1.99538 0
M  V30 66655 C 6193.32 -1.54133 1.20426 0
M  V30 66656 O 6194.53 -2.22341 1.5581 0
M  V30 66657 C 6192.98 -0.575345 3.55271 0
M  V30 66658 C 6192.59 0.653747 4.43204 0
M  V30 66659 C 6194.34 -1.14271 4.08831 0
M  V30 66660 C 6192.24 0.345468 5.9039 0
M  V30 66661 H 6191.17 -0.113833 0.745358 0
M  V30 66662 H 6193.82 0.422712 1.78565 0
M  V30 66663 H 6192.21 -1.35249 3.72188 0
M  V30 66664 H 6193.38 1.4296 4.38063 0
M  V30 66665 H 6191.7 1.14053 4.00476 0
M  V30 66666 H 6194.29 -1.38779 5.16376 0
M  V30 66667 H 6194.64 -2.08854 3.60119 0
M  V30 66668 H 6195.17 -0.427015 3.95501 0
M  V30 66669 H 6191.91 1.26016 6.43273 0
M  V30 66670 H 6191.43 -0.392896 5.98512 0
M  V30 66671 H 6193.11 -0.0488572 6.46982 0
M  V30 66672 N 6193.24 -1.57549 0.0401914 0
M  V30 66673 C 6194.52 -1.83573 -0.675291 0
M  V30 66674 C 6194.9 -0.92638 -1.89688 0
M  V30 66675 O 6194.24 0.0153066 -2.28495 0
M  V30 66676 C 6194.45 -3.3305 -1.04301 0
M  V30 66677 C 6195.8 -3.99796 -1.42997 0
M  V30 66678 O 6196.83 -3.37611 -1.13567 0
M  V30 66679 O 6195.69 -5.09419 -1.97875 0
M  V30 66680 H 6192.78 -0.757302 -0.332299 0
M  V30 66681 H 6195.33 -1.69561 0.068718 0
M  V30 66682 H 6194.1 -3.90913 -0.174052 0
M  V30 66683 H 6193.72 -3.5221 -1.84483 0
M  V30 66684 N 6194.72 0.233081 -1.55867 0
M  V30 66685 C 6195.94 0.980538 -1.82757 0
M  V30 66686 C 6196.37 1.77621 -0.61905 0
M  V30 66687 O 6195.73 1.76076 0.432086 0
M  V30 66688 C 6195.77 1.88308 -3.07526 0
M  V30 66689 O 6194.88 2.97682 -2.85411 0
M  V30 66690 H 6194.22 0.278273 -0.602876 0
M  V30 66691 H 6196.75 0.249884 -2.03068 0
M  V30 66692 H 6196.76 2.29511 -3.37326 0
M  V30 66693 H 6195.43 1.29817 -3.95121 0
M  V30 66694 H 6194.01 2.60508 -2.66815 0
M  V30 66695 N 6196.2 1.49481 0.49932 0
M  V30 66696 C 6197.13 1.69188 1.60928 0
M  V30 66697 C 6198.11 0.540587 1.61281 0
M  V30 66698 O 6199.29 0.776617 1.77995 0
M  V30 66699 C 6196.42 1.75995 2.99404 0
M  V30 66700 C 6195.38 2.90931 3.13916 0
M  V30 66701 C 6194.7 2.82853 4.5376 0
M  V30 66702 C 6196 4.31843 2.93783 0
M  V30 66703 H 6197.7 2.62117 1.4469 0
M  V30 66704 H 6195.24 1.26138 0.694643 0
M  V30 66705 H 6197.19 1.88368 3.76956 0
M  V30 66706 H 6195.92 0.796668 3.16735 0
M  V30 66707 H 6194.58 2.78163 2.38791 0
M  V30 66708 H 6194.23 1.84429 4.67969 0
M  V30 66709 H 6193.93 3.59995 4.64411 0
M  V30 66710 H 6195.45 2.97235 5.3337 0
M  V30 66711 H 6196.86 4.45284 3.61103 0
M  V30 66712 H 6195.26 5.1022 3.15904 0
M  V30 66713 H 6196.33 4.46171 1.89892 0
M  V30 66714 N 6197.67 -0.750488 1.38584 0
M  V30 66715 C 6198.92 -1.50507 1.34278 0
M  V30 66716 C 6199.24 -1.95497 -0.063617 0
M  V30 66717 O 6200.44 -2.70531 -0.229225 0
M  V30 66718 C 6198.9 -2.71883 2.35813 0
M  V30 66719 C 6198.51 -2.33906 3.82089 0
M  V30 66720 C 6200.25 -3.49762 2.40555 0
M  V30 66721 C 6198.16 -3.51912 4.75302 0
M  V30 66722 H 6197.09 -0.565133 0.49914 0
M  V30 66723 H 6199.74 -0.820109 1.64154 0
M  V30 66724 H 6198.12 -3.42376 1.98984 0
M  V30 66725 H 6199.29 -1.7106 4.27873 0
M  V30 66726 H 6197.61 -1.69155 3.80494 0
M  V30 66727 H 6200.21 -4.37508 3.07394 0
M  V30 66728 H 6200.55 -3.91136 1.42541 0
M  V30 66729 H 6201.08 -2.86285 2.76199 0
M  V30 66730 H 6197.82 -3.15601 5.74523 0
M  V30 66731 H 6197.34 -4.13791 4.34208 0
M  V30 66732 H 6199.02 -4.18452 4.93464 0
M  V30 66733 N 6199.15 -1.23504 -0.979007 0
M  V30 66734 C 6200.43 -0.976183 -1.69499 0
M  V30 66735 C 6200.81 0.504811 -2.04975 0
M  V30 66736 O 6200.16 1.47636 -1.74402 0
M  V30 66737 C 6200.37 -1.8878 -2.93536 0
M  V30 66738 C 6201.71 -2.15208 -3.6602 0
M  V30 66739 O 6202.74 -1.86341 -3.03571 0
M  V30 66740 O 6201.6 -2.64174 -4.78408 0
M  V30 66741 H 6198.69 -0.368276 -0.740474 0
M  V30 66742 H 6201.24 -1.34552 -1.03411 0
M  V30 66743 H 6200.01 -2.88892 -2.63927 0
M  V30 66744 H 6199.63 -1.52092 -3.67361 0
M  V30 66745 N 6200.63 1.17798 -1.04697 0
M  V30 66746 C 6201.88 1.87935 -0.75409 0
M  V30 66747 C 6202.2 1.80739 0.71858 0
M  V30 66748 O 6201.46 1.20663 1.54075 0
M  V30 66749 C 6201.76 3.37581 -1.17361 0
M  V30 66750 C 6201.42 3.64981 -2.64764 0
M  V30 66751 C 6200.09 3.72168 -3.05032 0
M  V30 66752 C 6202.44 3.76856 -3.6004 0
M  V30 66753 C 6199.77 3.88716 -4.3945 0
M  V30 66754 C 6202.12 3.94921 -4.94186 0
M  V30 66755 C 6200.78 4.00346 -5.34115 0
M  V30 66756 H 6200.05 0.687705 -0.275941 0
M  V30 66757 H 6202.7 1.39387 -1.31314 0
M  V30 66758 H 6201 3.88151 -0.533469 0
M  V30 66759 H 6202.7 3.90203 -0.924271 0
M  V30 66760 H 6199.29 3.60008 -2.32578 0
M  V30 66761 H 6203.48 3.70629 -3.30073 0
M  V30 66762 H 6198.73 3.91162 -4.69896 0
M  V30 66763 H 6202.91 4.03052 -5.6791 0
M  V30 66764 H 6200.53 4.12921 -6.38279 0
M  V30 66765 N 6202.11 0.827298 1.3414 0
M  V30 66766 C 6203.04 0.267097 2.31967 0
M  V30 66767 C 6204.02 -0.61885 1.58443 0
M  V30 66768 O 6205.2 -0.544816 1.86401 0
M  V30 66769 C 6202.33 -0.568258 3.42619 0
M  V30 66770 C 6201.29 0.220918 4.27429 0
M  V30 66771 C 6200.61 -0.737457 5.2959 0
M  V30 66772 C 6201.91 1.43155 5.02299 0
M  V30 66773 H 6203.61 1.08446 2.7907 0
M  V30 66774 H 6201.15 0.522926 1.3417 0
M  V30 66775 H 6203.11 -0.970381 4.10075 0
M  V30 66776 H 6201.83 -1.41872 2.94177 0
M  V30 66777 H 6200.49 0.60446 3.61582 0
M  V30 66778 H 6200.14 -1.58399 4.77408 0
M  V30 66779 H 6199.84 -0.213609 5.87212 0
M  V30 66780 H 6201.36 -1.13734 5.99914 0
M  V30 66781 H 6202.78 1.10321 5.62585 0
M  V30 66782 H 6201.17 1.89135 5.69515 0
M  V30 66783 H 6202.24 2.20745 4.3174 0
M  V30 66784 N 6203.59 -1.46434 0.582661 0
M  V30 66785 C 6204.53 -2.32025 -0.163394 0
M  V30 66786 C 6205.53 -1.44479 -0.884428 0
M  V30 66787 O 6206.73 -1.61105 -0.802821 0
M  V30 66788 H 6203.11 -0.748587 -0.0715605 0
M  V30 66789 H 6205.08 -2.92762 0.577308 0
M  V30 66790 C 6203.83 -3.27644 -1.16381 0
M  V30 66791 H 6203.15 -3.94988 -0.618414 0
M  V30 66792 H 6204.59 -3.90314 -1.65623 0
M  V30 66793 C 6203.05 -2.52993 -2.22477 0
M  V30 66794 O 6203.58 -2.29294 -3.29829 0
M  V30 66795 N 6201.79 -2.13557 -1.97084 0
M  V30 66796 H 6201.33 -2.33031 -1.09793 0
M  V30 66797 H 6201.29 -1.63928 -2.68281 0
M  V30 66798 N 6205.06 -0.320439 -1.54308 0
M  V30 66799 C 6206.31 0.283072 -2.00512 0
M  V30 66800 C 6206.64 1.52387 -1.20865 0
M  V30 66801 O 6205.89 1.93715 -0.278023 0
M  V30 66802 C 6206.19 0.665321 -3.51153 0
M  V30 66803 C 6205.86 -0.475947 -4.48381 0
M  V30 66804 C 6204.52 -0.789204 -4.74684 0
M  V30 66805 C 6206.87 -1.24271 -5.06168 0
M  V30 66806 C 6204.2 -1.872 -5.56033 0
M  V30 66807 C 6206.55 -2.31558 -5.88697 0
M  V30 66808 C 6205.22 -2.63469 -6.13303 0
M  V30 66809 H 6204.49 0.103584 -0.733724 0
M  V30 66810 H 6207.13 -0.443569 -1.86292 0
M  V30 66811 H 6205.44 1.47234 -3.63083 0
M  V30 66812 H 6207.14 1.14378 -3.84342 0
M  V30 66813 H 6203.73 -0.221709 -4.28026 0
M  V30 66814 H 6207.91 -1.01396 -4.85832 0
M  V30 66815 H 6203.17 -2.12374 -5.7333 0
M  V30 66816 H 6207.34 -2.91417 -6.32494 0
M  V30 66817 H 6204.97 -3.47501 -6.76127 0
M  V30 66818 N 6206.54 1.57525 -0.048546 0
M  V30 66819 C 6207.95 1.80222 0.487528 0
M  V30 66820 C 6208.3 0.96055 1.71079 0
M  V30 66821 O 6207.43 0.176396 2.1568 0
M  V30 66822 C 6208.02 3.26867 0.891245 0
M  V30 66823 C 6206.58 3.50492 1.37231 0
M  V30 66824 C 6205.73 2.7513 0.346251 0
M  V30 66825 H 6208.68 1.56309 -0.274447 0
M  V30 66826 H 6208.7 3.37643 1.75434 0
M  V30 66827 H 6208.21 3.881 0.000744488 0
M  V30 66828 H 6206.31 2.94536 2.28209 0
M  V30 66829 H 6206.43 4.59205 1.36629 0
M  V30 66830 H 6204.79 2.41188 0.818568 0
M  V30 66831 H 6205.57 3.39088 -0.536119 0
M  V30 66832 N 6208.02 -0.224812 1.55988 0
M  V30 66833 C 6209.44 -0.574363 1.48907 0
M  V30 66834 C 6209.64 -1.873 0.743026 0
M  V30 66835 O 6208.69 -2.50928 0.281358 0
M  V30 66836 C 6210.01 -0.656614 2.93443 0
M  V30 66837 C 6211.55 -0.747461 3.03944 0
M  V30 66838 C 6212.03 -0.861085 4.49833 0
M  V30 66839 N 6213.52 -0.925391 4.53862 0
M  V30 66840 C 6214.25 -1.03296 5.64019 0
M  V30 66841 N 6213.75 -1.10468 6.83936 0
M  V30 66842 N 6215.54 -1.06784 5.51864 0
M  V30 66843 H 6207.69 0.62741 2.02922 0
M  V30 66844 H 6209.96 0.219688 0.922194 0
M  V30 66845 H 6209.66 0.227969 3.5096 0
M  V30 66846 H 6209.54 -1.5213 3.45161 0
M  V30 66847 H 6211.92 -1.62249 2.46494 0
M  V30 66848 H 6212.01 0.142827 2.55401 0
M  V30 66849 H 6211.65 0.00946978 5.07899 0
M  V30 66850 H 6211.58 -1.76674 4.96078 0
M  V30 66851 H 6214.07 -0.880412 3.67501 0
M  V30 66852 H 6214.38 -1.18645 7.63638 0
M  V30 66853 H 6212.73 -1.07387 6.86653 0
M  V30 66854 H 6215.92 -1.00844 4.57108 0
M  V30 66855 H 6216.09 -1.14822 6.37746 0
M  V30 66856 N 6209.5 -1.49744 -0.491385 0
M  V30 66857 C 6210.75 -1.59715 -1.24489 0
M  V30 66858 C 6211.07 -0.28819 -1.92353 0
M  V30 66859 O 6210.33 0.724588 -1.81792 0
M  V30 66860 C 6210.63 -2.71253 -2.32716 0
M  V30 66861 C 6210.29 -4.1243 -1.82244 0
M  V30 66862 C 6208.96 -4.50847 -1.68198 0
M  V30 66863 C 6211.31 -5.00746 -1.44577 0
M  V30 66864 C 6208.64 -5.75343 -1.14879 0
M  V30 66865 C 6210.99 -6.2577 -0.927072 0
M  V30 66866 C 6209.65 -6.63008 -0.77309 0
M  V30 66867 H 6208.92 -0.584438 -0.455536 0
M  V30 66868 H 6211.57 -1.83609 -0.544073 0
M  V30 66869 H 6209.87 -2.41368 -3.08624 0
M  V30 66870 H 6211.57 -2.76175 -2.90737 0
M  V30 66871 H 6208.16 -3.82111 -1.94137 0
M  V30 66872 H 6212.34 -4.71714 -1.54271 0
M  V30 66873 H 6207.6 -6.02886 -1.01678 0
M  V30 66874 H 6211.77 -6.93577 -0.626463 0
M  V30 66875 H 6209.4 -7.59358 -0.357764 0
M  V30 66876 N 6210.98 0.743128 -1.3898 0
M  V30 66877 C 6211.91 1.86704 -1.32944 0
M  V30 66878 C 6212.92 1.61026 -0.239701 0
M  V30 66879 O 6214.11 1.71411 -0.498051 0
M  V30 66880 C 6211.21 3.22562 -1.03957 0
M  V30 66881 C 6210.38 3.75662 -2.24047 0
M  V30 66882 C 6209.44 4.90061 -1.91642 0
M  V30 66883 O 6208.47 5.04147 -2.64244 0
M  V30 66884 N 6209.67 5.73827 -0.877666 0
M  V30 66885 H 6212.44 1.92389 -2.29797 0
M  V30 66886 H 6210 0.923518 -1.32977 0
M  V30 66887 H 6211.99 3.96651 -0.803116 0
M  V30 66888 H 6210.56 3.12197 -0.15865 0
M  V30 66889 H 6209.78 2.93018 -2.63694 0
M  V30 66890 H 6211.07 4.07871 -3.04169 0
M  V30 66891 H 6210.46 5.65027 -0.275802 0
M  V30 66892 H 6209.02 6.48018 -0.701108 0
M  V30 66893 N 6212.45 1.24021 0.972444 0
M  V30 66894 C 6213.7 1.07708 1.7148 0
M  V30 66895 C 6214.03 -0.38483 1.90655 0
M  V30 66896 O 6213.28 -1.30093 1.46199 0
M  V30 66897 C 6213.58 1.75668 3.11248 0
M  V30 66898 C 6213.25 3.25594 3.11929 0
M  V30 66899 C 6211.91 3.66498 3.11822 0
M  V30 66900 C 6214.26 4.21461 3.06627 0
M  V30 66901 C 6211.59 5.01713 3.04139 0
M  V30 66902 C 6213.94 5.56678 3.00486 0
M  V30 66903 C 6212.61 5.96935 2.98705 0
M  V30 66904 H 6211.88 0.39413 0.627489 0
M  V30 66905 H 6214.52 1.54061 1.13742 0
M  V30 66906 H 6212.83 1.21695 3.72421 0
M  V30 66907 H 6214.53 1.60515 3.67472 0
M  V30 66908 H 6211.12 2.93037 3.12774 0
M  V30 66909 H 6215.3 3.90863 3.05843 0
M  V30 66910 H 6210.56 5.32107 3.01118 0
M  V30 66911 H 6214.73 6.30671 2.95342 0
M  V30 66912 H 6212.36 7.01672 2.92508 0
M  V30 66913 N 6213.93 -1.17241 1.0532 0
M  V30 66914 C 6215.34 -1.69164 0.789965 0
M  V30 66915 C 6215.69 -1.83753 -0.687697 0
M  V30 66916 O 6214.82 -1.52602 -1.53433 0
M  V30 66917 C 6215.41 -3.07264 1.42739 0
M  V30 66918 C 6213.97 -3.56347 1.21217 0
M  V30 66919 C 6213.12 -2.32574 1.51012 0
M  V30 66920 H 6216.07 -1.0174 1.21798 0
M  V30 66921 H 6216.09 -3.71172 0.837366 0
M  V30 66922 H 6215.6 -2.96614 2.50284 0
M  V30 66923 H 6213.71 -3.72273 0.156022 0
M  V30 66924 H 6213.82 -4.39032 1.91802 0
M  V30 66925 H 6212.18 -2.37104 0.930256 0
M  V30 66926 H 6212.97 -2.24531 2.59693 0
M  V30 66927 N 6215.41 -0.8344 -1.33699 0
M  V30 66928 C 6216.66 -0.427112 -1.97535 0
M  V30 66929 C 6216.98 1.01601 -1.6644 0
M  V30 66930 O 6216.25 1.70708 -0.961018 0
M  V30 66931 H 6214.83 -0.154947 -0.730753 0
M  V30 66932 H 6217.49 -1.06637 -1.63139 0
M  V30 66933 H 6216.59 -0.555504 -3.07117 0
M  V30 66934 N 6216.89 1.46123 -0.590418 0
M  V30 66935 C 6217.84 2.30385 0.1384 0
M  V30 66936 C 6218.81 1.41081 0.876666 0
M  V30 66937 O 6219.99 1.70025 0.86581 0
M  V30 66938 C 6217.13 3.25688 1.1411 0
M  V30 66939 C 6216.24 4.30093 0.405487 0
M  V30 66940 C 6215.38 5.12518 1.39639 0
M  V30 66941 C 6214.42 6.08664 0.647619 0
M  V30 66942 N 6213.55 6.8393 1.58696 0
M  V30 66943 H 6218.39 2.92178 -0.586189 0
M  V30 66944 H 6215.93 1.4399 -0.300886 0
M  V30 66945 H 6217.89 3.79394 1.7354 0
M  V30 66946 H 6216.52 2.65687 1.83331 0
M  V30 66947 H 6215.57 3.79183 -0.303991 0
M  V30 66948 H 6216.88 4.98477 -0.179523 0
M  V30 66949 H 6216.04 5.70539 2.06326 0
M  V30 66950 H 6214.78 4.44112 2.01534 0
M  V30 66951 H 6213.78 5.4979 -0.0329811 0
M  V30 66952 H 6215.01 6.79092 0.0339631 0
M  V30 66953 H 6212.95 6.18228 2.19387 0
M  V30 66954 H 6212.87 7.48603 1.05496 0
M  V30 66955 H 6214.14 7.46504 2.24394 0
M  V30 66956 N 6218.37 0.328618 1.54136 0
M  V30 66957 C 6219.78 -0.158401 1.86027 0
M  V30 66958 C 6220.13 -1.51212 1.25017 0
M  V30 66959 O 6219.25 -2.09079 0.558103 0
M  V30 66960 C 6219.85 -0.294198 3.3752 0
M  V30 66961 C 6218.41 -0.725441 3.69343 0
M  V30 66962 C 6217.55 0.149822 2.76895 0
M  V30 66963 H 6220.51 0.548731 1.48912 0
M  V30 66964 H 6220.53 -1.12425 3.63512 0
M  V30 66965 H 6220.04 0.691206 3.81895 0
M  V30 66966 H 6218.14 -1.72041 3.30504 0
M  V30 66967 H 6218.25 -0.525685 4.76207 0
M  V30 66968 H 6216.62 -0.375443 2.51918 0
M  V30 66969 H 6217.4 1.13208 3.24097 0
M  V30 66970 N 6219.84 -1.57497 0.0568993 0
M  V30 66971 C 6221.09 -1.92535 -0.614384 0
M  V30 66972 C 6221.41 -0.936433 -1.71044 0
M  V30 66973 O 6220.68 0.0178114 -1.95892 0
M  V30 66974 H 6219.26 -0.710732 -0.229933 0
M  V30 66975 H 6221.93 -1.94582 0.11125 0
M  V30 66976 H 6221.02 -2.93932 -1.04931 0
M  V30 66977 N 6221.32 0.216536 -1.56105 0
M  V30 66978 C 6222.57 0.938258 -1.78549 0
M  V30 66979 C 6222.88 1.853 -0.626355 0
M  V30 66980 O 6224.09 2.61375 -0.734543 0
M  V30 66981 C 6222.55 1.7186 -3.16215 0
M  V30 66982 C 6222.15 0.849749 -4.39867 0
M  V30 66983 C 6223.9 2.43124 -3.47981 0
M  V30 66984 C 6221.81 1.62773 -5.68559 0
M  V30 66985 H 6220.74 0.354075 -0.665693 0
M  V30 66986 H 6223.39 0.192015 -1.82493 0
M  V30 66987 H 6221.77 2.50794 -3.06461 0
M  V30 66988 H 6222.94 0.100595 -4.6069 0
M  V30 66989 H 6221.26 0.248993 -4.15655 0
M  V30 66990 H 6223.85 3.0184 -4.41358 0
M  V30 66991 H 6224.2 3.16258 -2.70715 0
M  V30 66992 H 6224.73 1.71176 -3.59087 0
M  V30 66993 H 6221.47 0.939573 -6.48731 0
M  V30 66994 H 6220.99 2.35137 -5.51789 0
M  V30 66995 H 6222.67 2.18711 -6.08913 0
M  V30 66996 N 6222.8 1.50002 0.483437 0
M  V30 66997 C 6224.03 1.63872 1.25816 0
M  V30 66998 C 6224.44 0.316401 1.86536 0
M  V30 66999 O 6223.78 -0.710248 1.69414 0
M  V30 67000 C 6223.84 2.6626 2.41549 0
M  V30 67001 C 6223.51 4.10148 2.01563 0
M  V30 67002 C 6224.51 4.96406 1.54523 0
M  V30 67003 C 6222.19 4.5599 2.10661 0
M  V30 67004 C 6224.18 6.2655 1.17107 0
M  V30 67005 C 6221.87 5.86143 1.72857 0
M  V30 67006 C 6222.87 6.71248 1.26156 0
M  V30 67007 O 6222.56 7.98973 0.888707 0
M  V30 67008 H 6222.29 0.554169 0.387134 0
M  V30 67009 H 6224.84 1.96895 0.584936 0
M  V30 67010 H 6223.07 2.28453 3.12003 0
M  V30 67011 H 6224.76 2.69477 3.03541 0
M  V30 67012 H 6225.53 4.6221 1.46926 0
M  V30 67013 H 6221.41 3.89903 2.4596 0
M  V30 67014 H 6224.95 6.9293 0.80585 0
M  V30 67015 H 6220.85 6.19864 1.80109 0
M  V30 67016 H 6221.62 8.12137 1.01864 0
M  V30 67017 N 6224.28 -0.735747 1.39372 0
M  V30 67018 C 6225.51 -1.52499 1.39827 0
M  V30 67019 C 6225.92 -1.88799 -0.00740708 0
M  V30 67020 O 6225.28 -1.54047 -0.978557 0
M  V30 67021 C 6225.33 -2.81302 2.27049 0
M  V30 67022 O 6225.05 -2.46545 3.62143 0
M  V30 67023 C 6226.55 -3.75334 2.35879 0
M  V30 67024 H 6223.77 -0.471289 0.477627 0
M  V30 67025 H 6226.32 -0.909192 1.83177 0
M  V30 67026 H 6224.47 -3.39215 1.87114 0
M  V30 67027 H 6224.89 -3.29279 4.08259 0
M  V30 67028 H 6226.36 -4.6261 3.01158 0
M  V30 67029 H 6226.84 -4.17032 1.37773 0
M  V30 67030 H 6227.44 -3.2334 2.76281 0
M  V30 67031 N 6225.76 -1.24535 -0.965853 0
M  V30 67032 C 6227.17 -1.01115 -1.23483 0
M  V30 67033 C 6227.37 0.278918 -1.9956 0
M  V30 67034 O 6226.43 0.994589 -2.32087 0
M  V30 67035 C 6227.74 -2.22733 -2.02016 0
M  V30 67036 C 6229.29 -2.27377 -2.15102 0
M  V30 67037 C 6229.77 -3.48621 -2.97031 0
M  V30 67038 N 6231.26 -3.48949 -3.04612 0
M  V30 67039 C 6231.99 -4.39422 -3.68369 0
M  V30 67040 N 6231.49 -5.40153 -4.33828 0
M  V30 67041 N 6233.28 -4.2713 -3.65399 0
M  V30 67042 H 6225.43 -2.07434 -0.456601 0
M  V30 67043 H 6227.69 -0.91038 -0.264411 0
M  V30 67044 H 6227.4 -3.16432 -1.53504 0
M  V30 67045 H 6227.27 -2.25 -3.02746 0
M  V30 67046 H 6229.66 -1.34208 -2.62816 0
M  V30 67047 H 6229.74 -2.29135 -1.13714 0
M  V30 67048 H 6229.39 -4.42106 -2.5001 0
M  V30 67049 H 6229.32 -3.44107 -3.9862 0
M  V30 67050 H 6231.81 -2.76076 -2.58051 0
M  V30 67051 H 6232.12 -6.05419 -4.803 0
M  V30 67052 H 6230.47 -5.44037 -4.32491 0
M  V30 67053 H 6233.66 -3.4767 -3.13437 0
M  V30 67054 H 6233.83 -4.97839 -4.14802 0
M  V30 67055 N 6227.24 1.16681 -1.0594 0
M  V30 67056 C 6228.15 2.24589 -0.67801 0
M  V30 67057 C 6229.16 1.71318 0.304337 0
M  V30 67058 O 6230.34 2.00806 0.154544 0
M  V30 67059 C 6227.4 3.46636 -0.0665256 0
M  V30 67060 C 6226.46 4.14961 -1.10028 0
M  V30 67061 C 6225.7 5.31181 -0.517884 0
M  V30 67062 O 6225.92 5.66446 0.670438 0
M  V30 67063 O 6224.85 5.88653 -1.25584 0
M  V30 67064 H 6228.68 2.59515 -1.57752 0
M  V30 67065 H 6226.26 1.24127 -0.831438 0
M  V30 67066 H 6228.15 4.20515 0.272921 0
M  V30 67067 H 6226.82 3.13491 0.806524 0
M  V30 67068 H 6225.73 3.43067 -1.49185 0
M  V30 67069 H 6227.06 4.52151 -1.94474 0
M  V30 67070 N 6228.71 0.841479 1.33255 0
M  V30 67071 C 6229.62 0.279088 2.32934 0
M  V30 67072 C 6230.64 -0.596241 1.63466 0
M  V30 67073 O 6231.82 -0.499743 1.95101 0
M  V30 67074 C 6228.88 -0.534394 3.42557 0
M  V30 67075 C 6227.94 0.365517 4.27741 0
M  V30 67076 C 6227.17 -0.409235 5.32129 0
M  V30 67077 O 6227.4 -1.64066 5.46295 0
M  V30 67078 O 6226.33 0.218115 6.01505 0
M  V30 67079 H 6230.16 1.10458 2.829 0
M  V30 67080 H 6227.74 0.604068 1.36643 0
M  V30 67081 H 6229.62 -0.996579 4.09446 0
M  V30 67082 H 6228.3 -1.33691 2.94802 0
M  V30 67083 H 6227.21 0.875597 3.63709 0
M  V30 67084 H 6228.54 1.13286 4.78985 0
M  V30 67085 N 6230.19 -1.45807 0.598159 0
M  V30 67086 C 6231.12 -2.33223 -0.113665 0
M  V30 67087 C 6232.1 -1.46271 -0.868261 0
M  V30 67088 O 6233.29 -1.75061 -0.840675 0
M  V30 67089 C 6230.42 -3.28819 -1.11783 0
M  V30 67090 C 6229.37 -4.25333 -0.477074 0
M  V30 67091 C 6228.7 -5.10549 -1.58882 0
M  V30 67092 C 6230 -5.18892 0.595701 0
M  V30 67093 H 6231.69 -2.9299 0.616226 0
M  V30 67094 H 6229.24 -1.40887 0.29779 0
M  V30 67095 H 6231.19 -3.88837 -1.6243 0
M  V30 67096 H 6229.91 -2.67191 -1.8782 0
M  V30 67097 H 6228.57 -3.66599 0.00843932 0
M  V30 67098 H 6228.22 -4.45296 -2.33923 0
M  V30 67099 H 6227.92 -5.75922 -1.16564 0
M  V30 67100 H 6229.45 -5.73435 -2.09774 0
M  V30 67101 H 6230.86 -5.73037 0.173695 0
M  V30 67102 H 6229.26 -5.92691 0.940082 0
M  V30 67103 H 6230.33 -4.6189 1.47601 0
M  V30 67104 N 6231.67 -0.336787 -1.53959 0
M  V30 67105 C 6232.91 0.262219 -2.02711 0
M  V30 67106 C 6233.27 1.48305 -1.21942 0
M  V30 67107 O 6234.47 2.15579 -1.60559 0
M  V30 67108 C 6232.75 0.575195 -3.52741 0
M  V30 67109 S 6234.3 1.15197 -4.23409 0
M  V30 67110 H 6231.12 0.0785058 -0.706653 0
M  V30 67111 H 6233.72 -0.472981 -1.89692 0
M  V30 67112 H 6232.43 -0.321254 -4.09141 0
M  V30 67113 H 6231.96 1.34024 -3.69866 0
M  V30 67114 H 6233.97 2.43809 -4.32171 0
M  V30 67115 N 6233.15 1.57465 -0.0652509 0
M  V30 67116 C 6234.38 1.97562 0.614564 0
M  V30 67117 C 6234.79 0.943366 1.63542 0
M  V30 67118 O 6234.15 -0.0707721 1.82363 0
M  V30 67119 C 6234.2 3.37739 1.28897 0
M  V30 67120 O 6233.92 4.37009 0.308977 0
M  V30 67121 C 6235.42 3.92674 2.05723 0
M  V30 67122 H 6232.64 0.649876 0.167039 0
M  V30 67123 H 6235.18 2.04049 -0.135718 0
M  V30 67124 H 6233.34 3.32359 1.99038 0
M  V30 67125 H 6233.75 5.18486 0.792024 0
M  V30 67126 H 6235.23 4.92996 2.48311 0
M  V30 67127 H 6235.7 3.28862 2.91113 0
M  V30 67128 H 6236.31 4.01436 1.40462 0
M  V30 67129 N 6234.63 -0.208255 1.56218 0
M  V30 67130 C 6235.56 -1.28574 1.88531 0
M  V30 67131 C 6236.54 -1.44579 0.744019 0
M  V30 67132 O 6237.72 -1.6018 0.993716 0
M  V30 67133 C 6234.85 -2.65424 2.10399 0
M  V30 67134 C 6233.89 -2.66362 3.33097 0
M  V30 67135 S 6234.73 -2.19103 4.88625 0
M  V30 67136 C 6235.88 -3.57803 5.13545 0
M  V30 67137 H 6236.12 -1.00974 2.79628 0
M  V30 67138 H 6233.65 -0.411132 1.48826 0
M  V30 67139 H 6235.61 -3.44205 2.23681 0
M  V30 67140 H 6234.27 -2.90242 1.20076 0
M  V30 67141 H 6233.46 -3.66957 3.45484 0
M  V30 67142 H 6233.06 -1.95654 3.18741 0
M  V30 67143 H 6235.35 -4.53583 5.03258 0
M  V30 67144 H 6236.3 -3.50321 6.1537 0
M  V30 67145 H 6236.71 -3.52106 4.41228 0
M  V30 67146 N 6236.1 -1.50256 -0.475475 0
M  V30 67147 C 6237.35 -1.61026 -1.22788 0
M  V30 67148 C 6237.68 -0.308575 -1.92037 0
M  V30 67149 O 6236.93 0.705266 -1.8255 0
M  V30 67150 C 6237.23 -2.73706 -2.29826 0
M  V30 67151 C 6236.9 -4.14339 -1.77859 0
M  V30 67152 C 6235.56 -4.52605 -1.63407 0
M  V30 67153 C 6237.91 -5.02252 -1.39258 0
M  V30 67154 C 6235.24 -5.76529 -1.08771 0
M  V30 67155 C 6237.59 -6.26718 -0.860649 0
M  V30 67156 C 6236.26 -6.63791 -0.702725 0
M  V30 67157 H 6235.53 -0.589237 -0.449311 0
M  V30 67158 H 6238.17 -1.84175 -0.524568 0
M  V30 67159 H 6236.48 -2.44628 -3.06046 0
M  V30 67160 H 6238.18 -2.79243 -2.87792 0
M  V30 67161 H 6234.77 -3.84148 -1.90074 0
M  V30 67162 H 6238.95 -4.73324 -1.49259 0
M  V30 67163 H 6234.21 -6.03931 -0.952775 0
M  V30 67164 H 6238.38 -6.94202 -0.552865 0
M  V30 67165 H 6236.01 -7.59694 -0.277204 0
M  V30 67166 N 6237.58 0.728346 -1.3976 0
M  V30 67167 C 6238.83 1.48352 -1.36655 0
M  V30 67168 C 6239.14 1.95573 0.0325072 0
M  V30 67169 O 6240.35 2.70861 0.186157 0
M  V30 67170 C 6238.81 2.68097 -2.40108 0
M  V30 67171 C 6238.41 2.27798 -3.85762 0
M  V30 67172 C 6240.16 3.45891 -2.46089 0
M  V30 67173 C 6238.07 3.44306 -4.80841 0
M  V30 67174 H 6237 0.55712 -0.508068 0
M  V30 67175 H 6239.65 0.79389 -1.65438 0
M  V30 67176 H 6238.03 3.39167 -2.04406 0
M  V30 67177 H 6239.2 1.64231 -4.3054 0
M  V30 67178 H 6237.52 1.6308 -3.83137 0
M  V30 67179 H 6240.11 4.32562 -3.14315 0
M  V30 67180 H 6240.46 3.88819 -1.48746 0
M  V30 67181 H 6240.99 2.81854 -2.80719 0
M  V30 67182 H 6237.73 3.06421 -5.79471 0
M  V30 67183 H 6237.25 4.06831 -4.40736 0
M  V30 67184 H 6238.93 4.10549 -5.00059 0
M  V30 67185 N 6239.06 1.25046 0.959235 0
M  V30 67186 C 6240.48 1.01768 1.22945 0
M  V30 67187 C 6240.68 -0.268331 1.99705 0
M  V30 67188 O 6239.73 -0.982266 2.32611 0
M  V30 67189 C 6241.05 2.23801 2.00832 0
M  V30 67190 C 6242.59 2.28514 2.13893 0
M  V30 67191 C 6243.07 3.50191 2.95178 0
M  V30 67192 N 6244.56 3.5056 3.02758 0
M  V30 67193 C 6245.29 4.4137 3.66033 0
M  V30 67194 N 6244.79 5.42446 4.30957 0
M  V30 67195 N 6246.58 4.29062 3.63128 0
M  V30 67196 H 6238.73 2.07673 0.445594 0
M  V30 67197 H 6241 0.911769 0.259579 0
M  V30 67198 H 6240.7 3.17242 1.51824 0
M  V30 67199 H 6240.58 2.26602 3.01548 0
M  V30 67200 H 6242.96 1.356 2.62101 0
M  V30 67201 H 6243.05 2.29735 1.12497 0
M  V30 67202 H 6242.69 4.43426 2.47661 0
M  V30 67203 H 6242.62 3.46216 3.9679 0
M  V30 67204 H 6245.11 2.77441 2.56583 0
M  V30 67205 H 6245.42 6.07958 4.77082 0
M  V30 67206 H 6243.77 5.46323 4.29599 0
M  V30 67207 H 6246.96 3.49328 3.11589 0
M  V30 67208 H 6247.13 5.00031 4.12156 0
M  V30 67209 N 6240.54 -1.16117 1.06558 0
M  V30 67210 C 6241.45 -2.24226 0.689911 0
M  V30 67211 C 6242.46 -1.71477 -0.295247 0
M  V30 67212 O 6243.64 -2.00885 -0.143893 0
M  V30 67213 C 6240.71 -3.46596 0.0849076 0
M  V30 67214 C 6239.77 -4.14371 1.12227 0
M  V30 67215 C 6239 -5.30899 0.546046 0
M  V30 67216 O 6239.22 -5.66794 -0.640389 0
M  V30 67217 O 6238.16 -5.87979 1.28704 0
M  V30 67218 H 6241.98 -2.58674 1.59126 0
M  V30 67219 H 6239.57 -1.23684 0.83801 0
M  V30 67220 H 6241.45 -4.20654 -0.250616 0
M  V30 67221 H 6240.12 -3.13915 -0.789887 0
M  V30 67222 H 6239.03 -3.42271 1.51002 0
M  V30 67223 H 6240.36 -4.51114 1.96869 0
M  V30 67224 N 6242.02 -0.848534 -1.32807 0
M  V30 67225 C 6243.26 -0.449591 -1.97754 0
M  V30 67226 C 6243.6 0.990865 -1.67019 0
M  V30 67227 O 6242.87 1.6943 -0.955178 0
M  V30 67228 C 6243.15 -0.682022 -3.53582 0
M  V30 67229 C 6243.01 -2.17045 -3.93969 0
M  V30 67230 C 6244.33 -0.134425 -4.39895 0
M  V30 67231 H 6241.44 -0.164824 -0.718333 0
M  V30 67232 H 6244.09 -1.06583 -1.5729 0
M  V30 67233 H 6242.24 -0.15749 -3.88181 0
M  V30 67234 H 6243.91 -2.76059 -3.6958 0
M  V30 67235 H 6242.15 -2.65129 -3.43349 0
M  V30 67236 H 6242.82 -2.2838 -5.0254 0
M  V30 67237 H 6245.3 -0.582901 -4.11997 0
M  V30 67238 H 6244.17 -0.326671 -5.47927 0
M  V30 67239 H 6244.44 0.962424 -4.31497 0
M  V30 67240 N 6243.49 1.45488 -0.605884 0
M  V30 67241 C 6244.74 2.01851 -0.100211 0
M  V30 67242 C 6245.06 1.47703 1.27314 0
M  V30 67243 O 6244.33 0.670636 1.84063 0
M  V30 67244 H 6242.91 0.746223 -0.0340554 0
M  V30 67245 H 6245.58 1.78309 -0.786897 0
M  V30 67246 H 6244.67 3.12062 -0.0487022 0
M  V30 67247 N 6244.97 0.344947 1.53779 0
M  V30 67248 C 6246.2 -0.252487 2.05354 0
M  V30 67249 C 6246.62 -1.44103 1.21983 0
M  V30 67250 O 6245.97 -1.80703 0.255494 0
M  V30 67251 C 6246.02 -0.666169 3.55309 0
M  V30 67252 O 6245.74 0.47511 4.35516 0
M  V30 67253 C 6247.25 -1.32417 4.23061 0
M  V30 67254 H 6244.47 -0.0484967 0.669245 0
M  V30 67255 H 6247.01 0.49734 1.9836 0
M  V30 67256 H 6245.16 -1.36594 3.6252 0
M  V30 67257 H 6245.58 0.145067 5.24299 0
M  V30 67258 H 6247.05 -1.56437 5.29369 0
M  V30 67259 H 6247.53 -2.27816 3.75495 0
M  V30 67260 H 6248.14 -0.666403 4.20047 0
M  V30 67261 N 6246.45 -1.57428 0.0736007 0
M  V30 67262 C 6247.7 -1.93845 -0.595986 0
M  V30 67263 C 6248.03 -0.953991 -1.69153 0
M  V30 67264 O 6247.3 0.0165045 -1.94493 0
M  V30 67265 C 6247.59 -3.4052 -1.17125 0
M  V30 67266 C 6247.44 -4.49725 -0.082228 0
M  V30 67267 C 6248.76 -3.88049 -2.0762 0
M  V30 67268 H 6245.88 -0.704888 -0.215179 0
M  V30 67269 H 6248.52 -1.89484 0.139937 0
M  V30 67270 H 6246.67 -3.44367 -1.79843 0
M  V30 67271 H 6248.34 -4.57998 0.550941 0
M  V30 67272 H 6246.59 -4.29811 0.586939 0
M  V30 67273 H 6247.26 -5.49496 -0.525161 0
M  V30 67274 H 6249.73 -3.86219 -1.54835 0
M  V30 67275 H 6248.61 -4.91286 -2.44805 0
M  V30 67276 H 6248.87 -3.26095 -2.98521 0
M  V30 67277 N 6247.93 0.199967 -1.56326 0
M  V30 67278 C 6248.86 1.25064 -1.97183 0
M  V30 67279 C 6249.84 1.47737 -0.843082 0
M  V30 67280 O 6251.02 1.59556 -1.10704 0
M  V30 67281 C 6248.15 2.59592 -2.30715 0
M  V30 67282 C 6247.11 2.5154 -3.46283 0
M  V30 67283 C 6246.43 3.90296 -3.65477 0
M  V30 67284 C 6247.73 2.04463 -4.80616 0
M  V30 67285 H 6249.43 0.911138 -2.85199 0
M  V30 67286 H 6246.97 0.436851 -1.37214 0
M  V30 67287 H 6248.93 3.33272 -2.57891 0
M  V30 67288 H 6247.65 2.95273 -1.39576 0
M  V30 67289 H 6246.31 1.80316 -3.19189 0
M  V30 67290 H 6245.96 4.23321 -2.71677 0
M  V30 67291 H 6245.66 3.85784 -4.4322 0
M  V30 67292 H 6247.18 4.65605 -3.95024 0
M  V30 67293 H 6248.6 2.67899 -5.06856 0
M  V30 67294 H 6246.99 2.10965 -5.61795 0
M  V30 67295 H 6248.06 0.997661 -4.74526 0
M  V30 67296 N 6249.41 1.50506 0.4675 0
M  V30 67297 C 6250.63 1.65712 1.24717 0
M  V30 67298 C 6251.06 0.341615 1.84972 0
M  V30 67299 O 6250.41 -0.694934 1.67453 0
M  V30 67300 C 6250.46 2.75297 2.32903 0
M  V30 67301 O 6249.57 2.368 3.37638 0
M  V30 67302 H 6248.91 0.553523 0.366754 0
M  V30 67303 H 6251.44 1.96903 0.555919 0
M  V30 67304 H 6251.45 2.98482 2.78159 0
M  V30 67305 H 6250.12 3.70771 1.88418 0
M  V30 67306 H 6248.7 2.24076 2.98068 0
M  V30 67307 N 6250.88 -0.720924 1.40144 0
M  V30 67308 C 6251.82 -1.84565 1.35898 0
M  V30 67309 C 6252.83 -1.60624 0.265288 0
M  V30 67310 O 6254.02 -1.70597 0.525258 0
M  V30 67311 C 6251.12 -3.20867 1.09075 0
M  V30 67312 C 6250.29 -3.7205 2.29995 0
M  V30 67313 C 6249.35 -4.8695 1.99414 0
M  V30 67314 O 6248.38 -4.99879 2.72231 0
M  V30 67315 N 6249.58 -5.72358 0.968846 0
M  V30 67316 H 6252.34 -1.88709 2.32829 0
M  V30 67317 H 6249.9 -0.902245 1.34429 0
M  V30 67318 H 6251.9 -3.95323 0.866118 0
M  V30 67319 H 6250.47 -3.11905 0.208297 0
M  V30 67320 H 6249.69 -2.88785 2.68322 0
M  V30 67321 H 6250.97 -4.0298 3.10619 0
M  V30 67322 H 6250.37 -5.64517 0.365658 0
M  V30 67323 H 6248.93 -6.46821 0.804114 0
M  V30 67324 N 6252.36 -1.25553 -0.95259 0
M  V30 67325 C 6253.61 -1.10586 -1.69996 0
M  V30 67326 C 6253.94 0.351993 -1.90983 0
M  V30 67327 O 6253.22 1.25933 -1.48227 0
M  V30 67328 C 6253.5 -1.86294 -3.08166 0
M  V30 67329 C 6253.35 -3.39919 -2.94576 0
M  V30 67330 C 6254.67 -1.64769 -4.08092 0
M  V30 67331 H 6251.79 -0.403116 -0.616982 0
M  V30 67332 H 6254.43 -1.5441 -1.10714 0
M  V30 67333 H 6252.58 -1.49046 -3.58772 0
M  V30 67334 H 6254.26 -3.86854 -2.5128 0
M  V30 67335 H 6252.5 -3.67526 -2.30449 0
M  V30 67336 H 6253.17 -3.88108 -3.92525 0
M  V30 67337 H 6255.65 -1.97199 -3.66404 0
M  V30 67338 H 6254.52 -2.20175 -5.02806 0
M  V30 67339 H 6254.78 -0.589502 -4.38152 0
M  V30 67340 N 6253.84 1.15551 -1.07172 0
M  V30 67341 C 6255.07 1.89903 -0.813655 0
M  V30 67342 C 6255.48 1.78166 0.636669 0
M  V30 67343 O 6254.82 1.13005 1.44829 0
M  V30 67344 C 6254.88 3.40933 -1.1404 0
M  V30 67345 C 6254.55 3.76455 -2.59095 0
M  V30 67346 C 6255.55 3.77631 -3.57339 0
M  V30 67347 C 6253.23 4.06818 -2.94625 0
M  V30 67348 C 6255.22 4.08671 -4.89149 0
M  V30 67349 C 6252.91 4.37524 -4.26633 0
M  V30 67350 C 6253.91 4.38432 -5.23705 0
M  V30 67351 O 6253.6 4.68402 -6.53341 0
M  V30 67352 H 6253.33 0.608762 -0.293912 0
M  V30 67353 H 6255.88 1.47345 -1.43104 0
M  V30 67354 H 6254.11 3.83882 -0.465983 0
M  V30 67355 H 6255.8 3.96572 -0.865168 0
M  V30 67356 H 6256.57 3.54275 -3.31232 0
M  V30 67357 H 6252.45 4.05272 -2.19718 0
M  V30 67358 H 6255.99 4.09295 -5.6491 0
M  V30 67359 H 6251.89 4.60347 -4.52494 0
M  V30 67360 H 6252.66 4.86175 -6.58465 0
M  V30 67361 N 6255.32 0.855565 1.32355 0
M  V30 67362 C 6256.54 0.472527 2.01945 0
M  V30 67363 C 6256.97 -0.923424 1.63873 0
M  V30 67364 O 6256.33 -1.60674 0.839856 0
M  V30 67365 C 6256.38 0.620206 3.55226 0
M  V30 67366 O 6255.48 -0.346616 4.10941 0
M  V30 67367 H 6254.82 0.189778 0.636302 0
M  V30 67368 H 6257.35 1.15501 1.68881 0
M  V30 67369 H 6257.36 0.508075 4.04824 0
M  V30 67370 H 6256.04 1.63816 3.82279 0
M  V30 67371 H 6254.61 -0.190647 3.72412 0
M  V30 67372 N 6256.8 -1.45165 0.613591 0
M  V30 67373 C 6257.74 -2.30576 -0.10173 0
M  V30 67374 C 6258.71 -1.42458 -0.85411 0
M  V30 67375 O 6259.9 -1.71381 -0.838651 0
M  V30 67376 C 6257.04 -3.27462 -1.08914 0
M  V30 67377 C 6256.15 -4.30683 -0.337012 0
M  V30 67378 C 6255.29 -5.14674 -1.31468 0
M  V30 67379 C 6254.33 -6.09618 -0.550704 0
M  V30 67380 N 6253.46 -6.86368 -1.47795 0
M  V30 67381 H 6258.3 -2.91208 0.632597 0
M  V30 67382 H 6255.84 -1.43493 0.323755 0
M  V30 67383 H 6257.8 -3.82107 -1.67482 0
M  V30 67384 H 6256.43 -2.6857 -1.79081 0
M  V30 67385 H 6255.48 -3.78652 0.364277 0
M  V30 67386 H 6256.79 -4.98128 0.258804 0
M  V30 67387 H 6255.95 -5.73749 -1.97223 0
M  V30 67388 H 6254.69 -4.47262 -1.94443 0
M  V30 67389 H 6253.69 -5.49668 0.120444 0
M  V30 67390 H 6254.92 -6.7906 0.0740788 0
M  V30 67391 H 6252.86 -6.2164 -2.09523 0
M  V30 67392 H 6252.78 -7.50187 -0.935725 0
M  V30 67393 H 6254.05 -7.49979 -2.12489 0
M  V30 67394 N 6258.28 -0.353098 -1.53594 0
M  V30 67395 C 6259.52 0.240833 -2.01365 0
M  V30 67396 C 6259.85 1.49434 -1.24029 0
M  V30 67397 O 6259.13 1.91671 -0.330519 0
M  V30 67398 C 6259.41 0.545372 -3.55946 0
M  V30 67399 C 6259.27 -0.720898 -4.43985 0
M  V30 67400 C 6260.58 1.35109 -4.18848 0
M  V30 67401 H 6257.7 0.0860581 -0.731958 0
M  V30 67402 H 6260.35 -0.475524 -1.83953 0
M  V30 67403 H 6258.5 1.15565 -3.70914 0
M  V30 67404 H 6260.17 -1.35867 -4.40838 0
M  V30 67405 H 6258.41 -1.34384 -4.1246 0
M  V30 67406 H 6259.08 -0.462942 -5.50055 0
M  V30 67407 H 6261.56 0.834961 -4.07637 0
M  V30 67408 H 6260.43 1.53292 -5.27061 0
M  V30 67409 H 6260.69 2.35599 -3.74093 0
M  V30 67410 N 6259.75 1.57387 -0.0819485 0
M  V30 67411 C 6260.7 2.09826 0.892028 0
M  V30 67412 C 6261.69 1.01025 1.25231 0
M  V30 67413 O 6262.88 1.27319 1.22959 0
M  V30 67414 C 6260.01 2.67161 2.15592 0
M  V30 67415 C 6259.09 3.82983 1.82166 0
M  V30 67416 N 6259.49 4.91545 1.19237 0
M  V30 67417 C 6257.78 3.92471 2.11856 0
M  V30 67418 C 6258.48 5.72304 1.04129 0
M  V30 67419 N 6257.46 5.20905 1.55433 0
M  V30 67420 H 6261.26 2.91147 0.401323 0
M  V30 67421 H 6258.78 1.61944 0.121651 0
M  V30 67422 H 6260.77 3.0305 2.86297 0
M  V30 67423 H 6259.43 1.8729 2.65241 0
M  V30 67424 H 6260.44 5.10697 0.86077 0
M  V30 67425 H 6257.12 3.2359 2.63811 0
M  V30 67426 H 6258.51 6.69644 0.550199 0
M  V30 67427 N 6261.23 -0.191674 1.5643 0
M  V30 67428 C 6262.18 -1.25699 1.9571 0
M  V30 67429 C 6263.17 -1.46935 0.842999 0
M  V30 67430 O 6264.38 -1.47756 1.02802 0
M  V30 67431 H 6260.75 -0.422077 0.622379 0
M  V30 67432 H 6262.73 -0.8987 2.84545 0
M  V30 67433 C 6261.47 -2.59358 2.31579 0
M  V30 67434 H 6260.8 -2.43834 3.16836 0
M  V30 67435 H 6262.24 -3.32637 2.62924 0
M  V30 67436 C 6260.7 -3.16605 1.15166 0
M  V30 67437 O 6261.23 -3.99408 0.428496 0
M  V30 67438 N 6259.43 -2.75399 0.927564 0
M  V30 67439 H 6258.98 -2.08167 1.51737 0
M  V30 67440 H 6258.94 -3.1404 0.150458 0
M  V30 67441 N 6262.71 -1.50752 -0.459512 0
M  V30 67442 C 6263.96 -1.61999 -1.20834 0
M  V30 67443 C 6264.28 -0.327849 -1.92224 0
M  V30 67444 O 6263.55 0.655277 -1.84616 0
M  V30 67445 H 6262.13 -0.596988 -0.449015 0
M  V30 67446 H 6264.79 -1.87584 -0.528994 0
M  V30 67447 H 6263.89 -2.43685 -1.94998 0
M  V30 67448 N 6264.19 0.713481 -1.40525 0
M  V30 67449 C 6265.41 1.50761 -1.42429 0
M  V30 67450 C 6265.84 1.88082 -0.0263078 0
M  V30 67451 O 6265.2 1.53413 0.966131 0
M  V30 67452 C 6265.24 2.75805 -2.32301 0
M  V30 67453 O 6264.35 3.72593 -1.76771 0
M  V30 67454 H 6263.69 0.454456 -0.484114 0
M  V30 67455 H 6266.22 0.878518 -1.84779 0
M  V30 67456 H 6266.23 3.24311 -2.47561 0
M  V30 67457 H 6264.9 2.47976 -3.33887 0
M  V30 67458 H 6263.48 3.31449 -1.70869 0
M  V30 67459 N 6265.67 1.26056 0.945918 0
M  V30 67460 C 6266.58 1.08966 2.07758 0
M  V30 67461 C 6267.59 0.0244338 1.73983 0
M  V30 67462 O 6268.77 0.227184 2.00115 0
M  V30 67463 C 6265.83 0.719485 3.39152 0
M  V30 67464 C 6264.89 1.86361 3.8674 0
M  V30 67465 C 6264.13 1.511 5.11864 0
M  V30 67466 O 6264.35 0.410577 5.6892 0
M  V30 67467 O 6263.28 2.34415 5.54377 0
M  V30 67468 H 6267.11 2.03892 2.25081 0
M  V30 67469 H 6264.69 1.05074 1.06206 0
M  V30 67470 H 6266.58 0.525559 4.1811 0
M  V30 67471 H 6265.25 -0.200427 3.23079 0
M  V30 67472 H 6264.16 2.11246 3.08749 0
M  V30 67473 H 6265.49 2.76307 4.07327 0
M  V30 67474 N 6267.14 -1.14981 1.07783 0
M  V30 67475 C 6268.39 -1.85216 0.798626 0
M  V30 67476 C 6268.71 -1.83478 -0.67787 0
M  V30 67477 O 6269.91 -2.4944 -1.07201 0
M  V30 67478 C 6268.37 -3.32449 1.37861 0
M  V30 67479 C 6267.98 -3.42621 2.88644 0
M  V30 67480 C 6269.72 -4.07839 1.17761 0
M  V30 67481 C 6267.63 -4.84028 3.39811 0
M  V30 67482 H 6266.56 -0.693862 0.295079 0
M  V30 67483 H 6269.21 -1.29663 1.29845 0
M  V30 67484 H 6267.59 -3.877 0.806511 0
M  V30 67485 H 6268.76 -2.97453 3.51935 0
M  V30 67486 H 6267.08 -2.8068 3.07583 0
M  V30 67487 H 6269.68 -5.12205 1.53462 0
M  V30 67488 H 6270.02 -4.16136 0.116962 0
M  V30 67489 H 6270.55 -3.5887 1.71631 0
M  V30 67490 H 6267.29 -4.80916 4.45421 0
M  V30 67491 H 6266.81 -5.29759 2.81275 0
M  V30 67492 H 6268.49 -5.52898 3.36024 0
M  V30 67493 N 6268.62 -0.862572 -1.31899 0
M  V30 67494 C 6269.55 -0.328505 -2.31178 0
M  V30 67495 C 6270.53 0.576624 -1.60028 0
M  V30 67496 O 6271.72 0.495204 -1.8778 0
M  V30 67497 C 6268.85 0.477219 -3.44006 0
M  V30 67498 C 6267.8 -0.334165 -4.26693 0
M  V30 67499 C 6267.13 0.596786 -5.31359 0
M  V30 67500 C 6268.43 -1.56422 -4.98327 0
M  V30 67501 H 6270.12 -1.15807 -2.76096 0
M  V30 67502 H 6267.67 -0.558315 -1.32736 0
M  V30 67503 H 6269.62 0.861316 -4.12504 0
M  V30 67504 H 6268.35 1.34022 -2.97835 0
M  V30 67505 H 6267 -0.700115 -3.59853 0
M  V30 67506 H 6266.65 1.45686 -4.8144 0
M  V30 67507 H 6266.35 0.0578452 -5.87572 0
M  V30 67508 H 6267.88 0.977887 -6.02719 0
M  V30 67509 H 6269.29 -1.25198 -5.59463 0
M  V30 67510 H 6267.69 -2.04169 -5.64301 0
M  V30 67511 H 6268.76 -2.32114 -4.25736 0
M  V30 67512 N 6270.1 1.44837 -0.62128 0
M  V30 67513 C 6271.35 2.02133 -0.121855 0
M  V30 67514 C 6271.68 1.48788 1.25269 0
M  V30 67515 O 6270.93 0.658181 1.843 0
M  V30 67516 C 6271.23 3.57369 -0.0472178 0
M  V30 67517 C 6270.9 4.29925 -1.35923 0
M  V30 67518 C 6269.56 4.49464 -1.71859 0
M  V30 67519 C 6271.91 4.71287 -2.22571 0
M  V30 67520 C 6269.24 5.07623 -2.94169 0
M  V30 67521 C 6271.59 5.308 -3.44142 0
M  V30 67522 C 6270.25 5.4856 -3.80314 0
M  V30 67523 H 6269.52 0.739657 -0.04459 0
M  V30 67524 H 6272.17 1.73729 -0.805632 0
M  V30 67525 H 6270.48 3.8513 0.719887 0
M  V30 67526 H 6272.17 3.9942 0.355573 0
M  V30 67527 H 6268.76 4.1504 -1.06956 0
M  V30 67528 H 6272.95 4.55913 -1.96104 0
M  V30 67529 H 6268.2 5.19561 -3.22283 0
M  V30 67530 H 6272.38 5.61801 -4.11524 0
M  V30 67531 H 6270 5.93393 -4.75173 0
M  V30 67532 N 6271.58 0.361238 1.53404 0
M  V30 67533 C 6272.8 -0.233311 2.06084 0
M  V30 67534 C 6273.23 -1.42025 1.23331 0
M  V30 67535 O 6272.59 -1.7955 0.251312 0
M  V30 67536 C 6272.63 -0.609118 3.55418 0
M  V30 67537 O 6271.74 -1.70691 3.75417 0
M  V30 67538 H 6271.08 -0.0349977 0.663077 0
M  V30 67539 H 6273.61 0.520583 1.97866 0
M  V30 67540 H 6273.62 -0.881343 3.98367 0
M  V30 67541 H 6272.29 0.258806 4.15094 0
M  V30 67542 H 6270.87 -1.43058 3.44367 0
M  V30 67543 N 6273.06 -1.57341 0.090294 0
M  V30 67544 C 6274.29 -1.98227 -0.58221 0
M  V30 67545 C 6274.69 -0.968069 -1.62558 0
M  V30 67546 O 6274.04 0.0512074 -1.83629 0
M  V30 67547 C 6274.1 -3.35473 -1.29221 0
M  V30 67548 C 6273.76 -4.55245 -0.400164 0
M  V30 67549 C 6274.76 -5.18722 0.349756 0
M  V30 67550 C 6272.45 -5.01282 -0.319626 0
M  V30 67551 C 6274.44 -6.26603 1.16824 0
M  V30 67552 C 6272.13 -6.0903 0.502517 0
M  V30 67553 C 6273.12 -6.71555 1.2451 0
M  V30 67554 O 6272.81 -7.77226 2.05365 0
M  V30 67555 H 6272.54 -0.656516 -0.16113 0
M  V30 67556 H 6275.1 -2.04738 0.164809 0
M  V30 67557 H 6273.33 -3.25631 -2.0857 0
M  V30 67558 H 6275.02 -3.60838 -1.85877 0
M  V30 67559 H 6275.78 -4.84088 0.297237 0
M  V30 67560 H 6271.66 -4.52381 -0.887273 0
M  V30 67561 H 6275.21 -6.75336 1.74835 0
M  V30 67562 H 6271.1 -6.43096 0.556533 0
M  V30 67563 H 6271.87 -7.94191 1.97996 0
M  V30 67564 N 6274.53 0.183375 -1.5653 0
M  V30 67565 C 6275.78 0.901932 -1.81305 0
M  V30 67566 C 6276.11 1.82763 -0.665433 0
M  V30 67567 O 6275.36 1.92579 0.348094 0
M  V30 67568 C 6275.66 1.74044 -3.1216 0
M  V30 67569 C 6275.33 0.964711 -4.40459 0
M  V30 67570 C 6273.99 0.750574 -4.7531 0
M  V30 67571 C 6276.34 0.419732 -5.19507 0
M  V30 67572 C 6273.67 -0.0198353 -5.86697 0
M  V30 67573 C 6276.02 -0.337527 -6.31699 0
M  V30 67574 C 6274.69 -0.562574 -6.65125 0
M  V30 67575 H 6273.96 0.33004 -0.663441 0
M  V30 67576 H 6276.6 0.167576 -1.90765 0
M  V30 67577 H 6274.91 2.54382 -2.97988 0
M  V30 67578 H 6276.61 2.29923 -3.28537 0
M  V30 67579 H 6273.2 1.14164 -4.13116 0
M  V30 67580 H 6277.38 0.57254 -4.92986 0
M  V30 67581 H 6272.64 -0.204053 -6.11059 0
M  V30 67582 H 6276.81 -0.767132 -6.92162 0
M  V30 67583 H 6274.44 -1.16143 -7.51275 0
M  V30 67584 N 6276.01 1.50994 0.451511 0
M  V30 67585 C 6276.94 1.67459 1.56494 0
M  V30 67586 C 6277.96 0.555535 1.53028 0
M  V30 67587 O 6279.15 0.829391 1.58061 0
M  V30 67588 C 6276.25 1.66103 2.95403 0
M  V30 67589 C 6275.42 2.94362 3.23527 0
M  V30 67590 C 6274.48 2.85385 4.42088 0
M  V30 67591 O 6273.5 3.59338 4.41435 0
M  V30 67592 N 6274.71 2.0027 5.4486 0
M  V30 67593 H 6277.47 2.63504 1.42779 0
M  V30 67594 H 6275.03 1.48703 0.640241 0
M  V30 67595 H 6277.02 1.57685 3.72717 0
M  V30 67596 H 6275.59 0.77712 3.02786 0
M  V30 67597 H 6274.81 3.16759 2.34643 0
M  V30 67598 H 6276.1 3.79293 3.39137 0
M  V30 67599 H 6275.5 1.39536 5.48221 0
M  V30 67600 H 6274.06 1.9774 6.21081 0
M  V30 67601 N 6277.49 -0.706019 1.40901 0
M  V30 67602 C 6278.77 -1.45979 1.3019 0
M  V30 67603 C 6279.15 -2.10965 -0.0753682 0
M  V30 67604 O 6278.5 -2.00887 -1.08888 0
M  V30 67605 C 6278.71 -2.48773 2.44771 0
M  V30 67606 C 6280.05 -3.14329 2.85452 0
M  V30 67607 O 6281.08 -2.59095 2.44434 0
M  V30 67608 O 6279.94 -4.14342 3.56347 0
M  V30 67609 H 6277.03 -0.64961 0.511797 0
M  V30 67610 H 6279.58 -0.737382 1.52842 0
M  V30 67611 H 6278.35 -1.99335 3.36722 0
M  V30 67612 H 6277.97 -3.28537 2.2394 0
M  V30 67613 N 6278.97 -1.26556 -0.93922 0
M  V30 67614 C 6279.9 -1.10786 -2.05545 0
M  V30 67615 C 6280.88 -0.0124957 -1.70095 0
M  V30 67616 O 6282.06 -0.184882 -1.93318 0
M  V30 67617 C 6279.19 -0.74213 -3.39278 0
M  V30 67618 C 6278.15 -1.78944 -3.88797 0
M  V30 67619 C 6277.47 -1.27799 -5.19203 0
M  V30 67620 C 6278.77 -3.19135 -4.13461 0
M  V30 67621 H 6280.47 -2.04158 -2.18997 0
M  V30 67622 H 6278.01 -0.982977 -1.05231 0
M  V30 67623 H 6279.97 -0.618672 -4.16834 0
M  V30 67624 H 6278.69 0.227306 -3.25808 0
M  V30 67625 H 6277.35 -1.90161 -3.13424 0
M  V30 67626 H 6277 -0.298336 -5.02114 0
M  V30 67627 H 6276.7 -1.9781 -5.53304 0
M  V30 67628 H 6278.22 -1.16724 -5.9934 0
M  V30 67629 H 6279.64 -3.10984 -4.81624 0
M  V30 67630 H 6278.03 -3.86754 -4.58848 0
M  V30 67631 H 6279.1 -3.65046 -3.1917 0
M  V30 67632 N 6280.45 1.14407 -1.08391 0
M  V30 67633 C 6281.69 1.85716 -0.814703 0
M  V30 67634 C 6282.03 1.82718 0.65787 0
M  V30 67635 O 6281.3 1.25776 1.4836 0
M  V30 67636 C 6281.58 3.34358 -1.33703 0
M  V30 67637 C 6281.44 3.4593 -2.87493 0
M  V30 67638 C 6282.76 4.29454 -0.962157 0
M  V30 67639 H 6279.87 0.674321 -0.297422 0
M  V30 67640 H 6282.52 1.3435 -1.34351 0
M  V30 67641 H 6280.67 3.78234 -0.887215 0
M  V30 67642 H 6282.34 3.10842 -3.40844 0
M  V30 67643 H 6280.58 2.87146 -3.25161 0
M  V30 67644 H 6281.25 4.50412 -3.19113 0
M  V30 67645 H 6283.73 3.93594 -1.34993 0
M  V30 67646 H 6282.6 5.31917 -1.35482 0
M  V30 67647 H 6282.87 4.41906 0.130832 0
M  V30 67648 N 6281.93 0.869555 1.3144 0
M  V30 67649 C 6283.17 0.476426 1.95993 0
M  V30 67650 C 6283.49 -0.976208 1.69498 0
M  V30 67651 O 6284.69 -1.47547 2.27908 0
M  V30 67652 C 6283.15 0.801061 3.50872 0
M  V30 67653 C 6282.76 2.27043 3.86207 0
M  V30 67654 C 6284.5 0.476382 4.21819 0
M  V30 67655 C 6282.41 2.5375 5.34196 0
M  V30 67656 H 6281.34 0.174433 0.733546 0
M  V30 67657 H 6283.99 1.0624 1.49617 0
M  V30 67658 H 6282.37 0.144345 3.95737 0
M  V30 67659 H 6283.55 2.97017 3.52303 0
M  V30 67660 H 6281.86 2.5611 3.28324 0
M  V30 67661 H 6284.46 0.653152 5.30696 0
M  V30 67662 H 6284.8 -0.583149 4.12195 0
M  V30 67663 H 6285.33 1.08962 3.82586 0
M  V30 67664 H 6282.07 3.58384 5.48854 0
M  V30 67665 H 6281.59 1.88369 5.69453 0
M  V30 67666 H 6283.27 2.38458 6.01454 0
M  V30 67667 N 6283.4 -1.44506 0.628953 0
M  V30 67668 C 6284.63 -2.06429 0.139583 0
M  V30 67669 C 6285.05 -1.46985 -1.18494 0
M  V30 67670 O 6284.4 -0.591916 -1.72634 0
M  V30 67671 C 6284.45 -3.61496 0.0163221 0
M  V30 67672 O 6284.18 -4.18725 1.28846 0
M  V30 67673 C 6285.68 -4.40448 -0.501999 0
M  V30 67674 H 6282.9 -0.666372 0.0786713 0
M  V30 67675 H 6285.44 -1.85411 0.862739 0
M  V30 67676 H 6283.6 -3.81784 -0.657264 0
M  V30 67677 H 6284.01 -5.12141 1.13189 0
M  V30 67678 H 6285.48 -5.49379 -0.537265 0
M  V30 67679 H 6285.96 -4.1174 -1.52861 0
M  V30 67680 H 6286.57 -4.25075 0.138262 0
M  V30 67681 N 6284.88 -0.369369 -1.5321 0
M  V30 67682 C 6285.81 0.467162 -2.28779 0
M  V30 67683 C 6286.79 1.08069 -1.31359 0
M  V30 67684 O 6287.98 1.09722 -1.60233 0
M  V30 67685 C 6285.11 1.60508 -3.07985 0
M  V30 67686 C 6284.06 1.11861 -4.13124 0
M  V30 67687 C 6283.39 2.34706 -4.80434 0
M  V30 67688 C 6284.69 0.200663 -5.21914 0
M  V30 67689 H 6286.38 -0.163306 -2.98954 0
M  V30 67690 H 6283.93 -0.0799817 -1.43778 0
M  V30 67691 H 6285.88 2.19696 -3.596 0
M  V30 67692 H 6284.6 2.26284 -2.35507 0
M  V30 67693 H 6283.26 0.549394 -3.6246 0
M  V30 67694 H 6282.91 2.98946 -4.04524 0
M  V30 67695 H 6282.61 2.02827 -5.51484 0
M  V30 67696 H 6284.14 2.94573 -5.34845 0
M  V30 67697 H 6285.55 0.700131 -5.69009 0
M  V30 67698 H 6283.95 -0.0274332 -6.00094 0
M  V30 67699 H 6285.02 -0.756117 -4.78969 0
M  V30 67700 N 6286.36 1.57291 -0.0986369 0
M  V30 67701 C 6287.77 1.81682 0.429945 0
M  V30 67702 C 6288.12 1.01449 1.67936 0
M  V30 67703 O 6287.25 0.244924 2.15009 0
M  V30 67704 C 6287.84 3.29537 0.786803 0
M  V30 67705 C 6286.4 3.5468 1.26011 0
M  V30 67706 C 6285.55 2.76092 0.258545 0
M  V30 67707 H 6288.5 1.55357 -0.324036 0
M  V30 67708 H 6288.52 3.43054 1.64603 0
M  V30 67709 H 6288.03 3.87906 -0.122727 0
M  V30 67710 H 6286.13 3.01647 2.18723 0
M  V30 67711 H 6286.25 4.63319 1.2195 0
M  V30 67712 H 6284.61 2.4367 0.741421 0
M  V30 67713 H 6285.39 3.37211 -0.643726 0
M  V30 67714 N 6287.84 -0.175072 1.56625 0
M  V30 67715 C 6289.08 -0.892304 1.81781 0
M  V30 67716 C 6289.41 -1.82407 0.675116 0
M  V30 67717 O 6288.67 -1.92761 -0.337876 0
M  V30 67718 C 6288.97 -1.72386 3.13078 0
M  V30 67719 C 6288.63 -0.941339 4.40964 0
M  V30 67720 C 6287.29 -0.725357 4.75702 0
M  V30 67721 C 6289.65 -0.392175 5.19722 0
M  V30 67722 C 6286.97 0.050949 5.86678 0
M  V30 67723 C 6289.33 0.371023 6.31511 0
M  V30 67724 C 6287.99 0.597839 6.64817 0
M  V30 67725 H 6287.26 -0.326517 0.665182 0
M  V30 67726 H 6289.91 -0.157457 1.90852 0
M  V30 67727 H 6288.21 -2.52799 2.99333 0
M  V30 67728 H 6289.91 -2.28178 3.29751 0
M  V30 67729 H 6286.5 -1.11971 4.13715 0
M  V30 67730 H 6290.68 -0.546388 4.93283 0
M  V30 67731 H 6285.94 0.236456 6.10943 0
M  V30 67732 H 6290.11 0.803828 6.91745 0
M  V30 67733 H 6287.74 1.20126 7.50649 0
M  V30 67734 N 6289.32 -1.51231 -0.443497 0
M  V30 67735 C 6290.23 -1.74934 -1.56318 0
M  V30 67736 C 6291.24 -0.633324 -1.62065 0
M  V30 67737 O 6292.42 -0.914871 -1.79421 0
M  V30 67738 C 6289.48 -1.86371 -2.92347 0
M  V30 67739 C 6288.54 -3.10206 -2.96767 0
M  V30 67740 C 6287.78 -3.21088 -4.26307 0
M  V30 67741 O 6288 -2.38061 -5.18346 0
M  V30 67742 O 6286.93 -4.14023 -4.36885 0
M  V30 67743 H 6290.76 -2.69903 -1.39234 0
M  V30 67744 H 6288.34 -1.35658 -0.625872 0
M  V30 67745 H 6290.23 -1.95914 -3.73089 0
M  V30 67746 H 6288.9 -0.945883 -3.09572 0
M  V30 67747 H 6287.81 -3.06145 -2.15002 0
M  V30 67748 H 6289.14 -4.01658 -2.84485 0
M  V30 67749 N 6290.79 0.698537 -1.41274 0
M  V30 67750 C 6291.72 1.825 -1.45657 0
M  V30 67751 C 6292.7 1.67147 -0.315556 0
M  V30 67752 O 6293.89 1.86924 -0.526584 0
M  V30 67753 C 6291.02 3.20611 -1.33513 0
M  V30 67754 C 6289.97 3.50664 -2.45395 0
M  V30 67755 C 6289.3 4.88099 -2.18319 0
M  V30 67756 C 6290.6 3.49939 -3.87737 0
M  V30 67757 H 6292.29 1.79089 -2.39932 0
M  V30 67758 H 6289.84 0.860196 -1.15484 0
M  V30 67759 H 6291.79 3.99125 -1.35193 0
M  V30 67760 H 6290.52 3.24641 -0.357215 0
M  V30 67761 H 6289.18 2.74499 -2.42994 0
M  V30 67762 H 6288.82 4.88751 -1.18877 0
M  V30 67763 H 6288.52 5.09172 -2.93288 0
M  V30 67764 H 6290.05 5.68927 -2.21709 0
M  V30 67765 H 6291.46 4.18462 -3.9187 0
M  V30 67766 H 6289.86 3.82543 -4.62365 0
M  V30 67767 H 6290.93 2.48973 -4.16101 0
M  V30 67768 N 6292.27 1.27052 0.932495 0
M  V30 67769 C 6293.69 1.04353 1.20759 0
M  V30 67770 C 6293.89 -0.22591 2.0023 0
M  V30 67771 O 6292.94 -0.932705 2.34642 0
M  V30 67772 C 6294.26 2.28011 1.9604 0
M  V30 67773 C 6295.8 2.33 2.08998 0
M  V30 67774 C 6296.28 3.56374 2.87683 0
M  V30 67775 N 6297.77 3.56903 2.95254 0
M  V30 67776 C 6298.51 4.49035 3.56589 0
M  V30 67777 N 6298 5.51465 4.19354 0
M  V30 67778 N 6299.79 4.36668 3.53946 0
M  V30 67779 H 6291.95 2.08572 0.401443 0
M  V30 67780 H 6294.21 0.91707 0.240181 0
M  V30 67781 H 6293.91 3.20391 1.4506 0
M  V30 67782 H 6293.79 2.32947 2.96674 0
M  V30 67783 H 6296.18 1.41129 2.59165 0
M  V30 67784 H 6296.26 2.32069 1.07599 0
M  V30 67785 H 6295.9 4.48579 2.382 0
M  V30 67786 H 6295.83 3.54554 3.89357 0
M  V30 67787 H 6298.32 2.82821 2.5064 0
M  V30 67788 H 6298.63 6.1794 4.64079 0
M  V30 67789 H 6296.98 5.55313 4.17915 0
M  V30 67790 H 6300.17 3.55858 3.04109 0
M  V30 67791 H 6300.34 5.08661 4.01457 0
M  V30 67792 N 6293.75 -1.13831 1.08997 0
M  V30 67793 C 6294.7 -2.19105 0.725375 0
M  V30 67794 C 6295.67 -1.63526 -0.29131 0
M  V30 67795 O 6296.85 -1.90005 -0.173948 0
M  V30 67796 C 6293.99 -3.44785 0.147333 0
M  V30 67797 C 6293.1 -4.14488 1.21753 0
M  V30 67798 C 6292.24 -5.2777 0.602704 0
M  V30 67799 C 6291.28 -5.89315 1.65451 0
M  V30 67800 N 6290.42 -6.94036 1.06105 0
M  V30 67801 H 6295.26 -2.4964 1.62739 0
M  V30 67802 H 6292.79 -1.22582 0.813151 0
M  V30 67803 H 6294.75 -4.16693 -0.205572 0
M  V30 67804 H 6293.38 -3.14714 -0.717966 0
M  V30 67805 H 6292.43 -3.40908 1.68778 0
M  V30 67806 H 6293.74 -4.56318 2.01433 0
M  V30 67807 H 6292.9 -6.06376 0.19839 0
M  V30 67808 H 6291.64 -4.87177 -0.225696 0
M  V30 67809 H 6290.64 -5.09408 2.06842 0
M  V30 67810 H 6291.87 -6.31981 2.4855 0
M  V30 67811 H 6289.81 -6.55509 0.253846 0
M  V30 67812 H 6289.73 -7.34384 1.79487 0
M  V30 67813 H 6291 -7.76504 0.68279 0
M  V30 67814 N 6295.23 -0.876513 -1.30977 0
M  V30 67815 C 6296.18 -0.308588 -2.25902 0
M  V30 67816 C 6297.16 0.558123 -1.5091 0
M  V30 67817 O 6298.35 0.40393 -1.72329 0
M  V30 67818 C 6295.48 0.483259 -3.39882 0
M  V30 67819 C 6294.57 -0.397063 -4.22237 0
M  V30 67820 N 6294.96 -1.49359 -4.83245 0
M  V30 67821 C 6293.26 -0.190661 -4.45592 0
M  V30 67822 C 6293.96 -2.03699 -5.44868 0
M  V30 67823 N 6292.93 -1.3331 -5.27 0
M  V30 67824 H 6296.74 -1.14656 -2.70613 0
M  V30 67825 H 6294.25 -0.724988 -1.45319 0
M  V30 67826 H 6296.25 0.906699 -4.06921 0
M  V30 67827 H 6294.91 1.31877 -2.96713 0
M  V30 67828 H 6295.92 -1.87649 -4.82709 0
M  V30 67829 H 6292.6 0.60837 -4.13044 0
M  V30 67830 H 6293.99 -2.95735 -6.03316 0
M  V30 67831 N 6296.71 1.4417 -0.636607 0
M  V30 67832 C 6297.65 2.30708 0.0650345 0
M  V30 67833 C 6298.62 1.43798 0.831338 0
M  V30 67834 O 6299.81 1.72693 0.811279 0
M  V30 67835 C 6296.95 3.29154 1.03691 0
M  V30 67836 C 6296.06 4.31165 0.268451 0
M  V30 67837 C 6295.2 5.16701 1.23263 0
M  V30 67838 C 6294.24 6.10417 0.453649 0
M  V30 67839 N 6293.37 6.88632 1.36857 0
M  V30 67840 H 6298.21 2.90165 -0.678846 0
M  V30 67841 H 6295.75 1.4296 -0.346543 0
M  V30 67842 H 6297.71 3.84723 1.61382 0
M  V30 67843 H 6296.34 2.71385 1.74786 0
M  V30 67844 H 6295.39 3.78024 -0.424471 0
M  V30 67845 H 6296.7 4.97653 -0.338019 0
M  V30 67846 H 6295.86 5.76814 1.8807 0
M  V30 67847 H 6294.59 4.50299 1.87302 0
M  V30 67848 H 6293.6 5.49407 -0.207876 0
M  V30 67849 H 6294.82 6.78856 -0.182102 0
M  V30 67850 H 6292.77 6.24894 1.99607 0
M  V30 67851 H 6292.69 7.5158 0.816259 0
M  V30 67852 H 6293.96 7.53265 2.00531 0
M  V30 67853 N 6298.18 0.377489 1.53012 0
M  V30 67854 C 6299.11 -0.455022 2.29024 0
M  V30 67855 C 6300.1 -1.07371 1.3193 0
M  V30 67856 O 6301.28 -1.08871 1.60813 0
M  V30 67857 C 6298.41 -1.58872 3.08831 0
M  V30 67858 C 6297.36 -1.09669 4.13711 0
M  V30 67859 C 6296.69 -2.32155 4.81672 0
M  V30 67860 C 6297.99 -0.172982 5.22013 0
M  V30 67861 H 6299.68 0.179158 2.98863 0
M  V30 67862 H 6297.23 0.0876055 1.43733 0
M  V30 67863 H 6299.18 -2.17785 3.6076 0
M  V30 67864 H 6297.91 -2.25031 2.36703 0
M  V30 67865 H 6296.57 -0.530164 3.62746 0
M  V30 67866 H 6296.21 -2.96797 4.06104 0
M  V30 67867 H 6295.91 -1.99899 5.52552 0
M  V30 67868 H 6297.44 -2.91732 5.364 0
M  V30 67869 H 6298.85 -0.669945 5.69372 0
M  V30 67870 H 6297.25 0.0592572 6.00071 0
M  V30 67871 H 6298.32 0.781507 4.78561 0
M  V30 67872 N 6299.66 -1.57237 0.106977 0
M  V30 67873 C 6300.91 -1.93952 -0.553665 0
M  V30 67874 C 6301.22 -0.991737 -1.68594 0
M  V30 67875 O 6302.43 -1.25307 -2.40853 0
M  V30 67876 C 6300.89 -3.44658 -1.03628 0
M  V30 67877 C 6300.49 -4.4795 0.0668886 0
M  V30 67878 C 6302.24 -3.90315 -1.66898 0
M  V30 67879 C 6300.15 -5.89822 -0.431745 0
M  V30 67880 H 6299.08 -0.723993 -0.210595 0
M  V30 67881 H 6301.73 -1.82566 0.184894 0
M  V30 67882 H 6300.11 -3.51237 -1.82889 0
M  V30 67883 H 6301.28 -4.53027 0.842783 0
M  V30 67884 H 6299.6 -4.11974 0.605502 0
M  V30 67885 H 6302.19 -4.93718 -2.05297 0
M  V30 67886 H 6302.54 -3.2962 -2.54276 0
M  V30 67887 H 6303.07 -3.86486 -0.941983 0
M  V30 67888 H 6299.81 -6.54243 0.405699 0
M  V30 67889 H 6299.33 -5.88191 -1.17438 0
M  V30 67890 H 6301.01 -6.40754 -0.896879 0
M  V30 67891 N 6301.14 0.166763 -1.56715 0
M  V30 67892 C 6302.42 0.910195 -1.73132 0
M  V30 67893 C 6302.8 2.00198 -0.669626 0
M  V30 67894 O 6302.15 2.26321 0.31482 0
M  V30 67895 C 6302.36 1.47076 -3.16496 0
M  V30 67896 C 6303.7 1.94191 -3.77591 0
M  V30 67897 O 6304.73 1.5686 -3.19802 0
M  V30 67898 O 6303.59 2.62971 -4.79071 0
M  V30 67899 H 6300.68 0.428741 -0.707185 0
M  V30 67900 H 6303.23 0.154235 -1.68998 0
M  V30 67901 H 6302 0.685187 -3.85254 0
M  V30 67902 H 6301.62 2.29078 -3.24975 0
M  V30 67903 N 6302.62 1.51464 0.43547 0
M  V30 67904 C 6303.86 1.64469 1.18651 0
M  V30 67905 C 6304.2 0.360736 1.9082 0
M  V30 67906 O 6303.47 -0.63975 1.83678 0
M  V30 67907 C 6303.76 2.84927 2.20202 0
M  V30 67908 C 6303.61 4.23302 1.52102 0
M  V30 67909 C 6304.93 3.00903 3.21163 0
M  V30 67910 H 6302.05 0.59856 0.429994 0
M  V30 67911 H 6304.69 1.83954 0.475508 0
M  V30 67912 H 6302.84 2.68445 2.80838 0
M  V30 67913 H 6304.51 4.51456 0.947889 0
M  V30 67914 H 6302.75 4.25915 0.823343 0
M  V30 67915 H 6303.42 5.03584 2.26069 0
M  V30 67916 H 6305.9 3.16108 2.70583 0
M  V30 67917 H 6304.78 3.86747 3.89509 0
M  V30 67918 H 6305.04 2.13055 3.87376 0
M  V30 67919 N 6304.1 -0.691035 1.41642 0
M  V30 67920 C 6305.35 -1.44677 1.4054 0
M  V30 67921 C 6305.66 -1.9559 0.019357 0
M  V30 67922 O 6306.86 -2.71259 -0.114278 0
M  V30 67923 C 6305.32 -2.61637 2.47132 0
M  V30 67924 C 6304.93 -2.1749 3.91666 0
M  V30 67925 C 6306.67 -3.39244 2.55174 0
M  V30 67926 C 6304.58 -3.31436 4.898 0
M  V30 67927 H 6303.51 -0.543454 0.52266 0
M  V30 67928 H 6306.16 -0.749748 1.67484 0
M  V30 67929 H 6304.54 -3.33628 2.13326 0
M  V30 67930 H 6305.72 -1.52758 4.34743 0
M  V30 67931 H 6304.03 -1.52865 3.87326 0
M  V30 67932 H 6306.63 -4.24076 3.25673 0
M  V30 67933 H 6306.97 -3.84739 1.59002 0
M  V30 67934 H 6307.5 -2.74312 2.88093 0
M  V30 67935 H 6304.24 -2.90949 5.87392 0
M  V30 67936 H 6303.76 -3.95003 4.51368 0
M  V30 67937 H 6305.44 -3.97146 5.10768 0
M  V30 67938 N 6305.57 -1.27545 -0.925744 0
M  V30 67939 C 6306.8 -1.16928 -1.71297 0
M  V30 67940 C 6307.22 0.270017 -1.86152 0
M  V30 67941 O 6306.58 1.19553 -1.36297 0
M  V30 67942 C 6306.63 -1.86001 -3.08927 0
M  V30 67943 O 6305.73 -1.15931 -3.9577 0
M  V30 67944 H 6305.08 -0.40656 -0.524981 0
M  V30 67945 H 6307.61 -1.6865 -1.15837 0
M  V30 67946 H 6307.62 -1.93437 -3.5923 0
M  V30 67947 H 6306.29 -2.90701 -2.97432 0
M  V30 67948 H 6304.87 -1.16577 -3.54209 0
M  V30 67949 N 6307.05 1.13251 -1.09599 0
M  V30 67950 C 6307.99 2.17804 -0.680934 0
M  V30 67951 C 6308.96 1.5955 0.313455 0
M  V30 67952 O 6310.15 1.87277 0.214408 0
M  V30 67953 C 6307.27 3.387 -0.00341751 0
M  V30 67954 C 6306.32 4.15558 -0.959899 0
M  V30 67955 S 6307.15 4.74984 -2.47287 0
M  V30 67956 C 6308.31 5.99224 -1.80781 0
M  V30 67957 H 6308.54 2.52674 -1.56663 0
M  V30 67958 H 6306.08 1.24576 -0.912144 0
M  V30 67959 H 6308.03 4.08726 0.381178 0
M  V30 67960 H 6306.69 3.02127 0.858946 0
M  V30 67961 H 6305.89 5.02137 -0.432951 0
M  V30 67962 H 6305.49 3.51196 -1.28598 0
M  V30 67963 H 6307.78 6.67961 -1.13291 0
M  V30 67964 H 6308.72 6.56529 -2.65283 0
M  V30 67965 H 6309.13 5.4989 -1.27599 0
M  V30 67966 N 6308.53 0.883447 1.3051 0
M  V30 67967 C 6309.76 0.51527 2.00071 0
M  V30 67968 C 6310.17 -0.900316 1.66406 0
M  V30 67969 O 6309.51 -1.60336 0.89656 0
M  V30 67970 C 6309.57 0.608442 3.54314 0
M  V30 67971 C 6309.24 1.98806 4.11491 0
M  V30 67972 C 6310.23 2.95727 4.276 0
M  V30 67973 C 6307.92 2.29303 4.46906 0
M  V30 67974 C 6309.91 4.21281 4.78332 0
M  V30 67975 C 6307.6 3.55103 4.97338 0
M  V30 67976 C 6308.6 4.50907 5.13003 0
M  V30 67977 O 6308.29 5.74474 5.62347 0
M  V30 67978 H 6308.02 0.197876 0.646391 0
M  V30 67979 H 6310.57 1.19021 1.67401 0
M  V30 67980 H 6308.8 -0.12347 3.86503 0
M  V30 67981 H 6310.49 0.251761 4.05118 0
M  V30 67982 H 6311.26 2.73477 4.00544 0
M  V30 67983 H 6307.14 1.55503 4.33981 0
M  V30 67984 H 6310.68 4.96065 4.90474 0
M  V30 67985 H 6306.58 3.77191 5.23829 0
M  V30 67986 H 6307.35 5.76835 5.80693 0
M  V30 67987 N 6310.01 -1.43831 0.644244 0
M  V30 67988 C 6311.42 -1.5654 0.311007 0
M  V30 67989 C 6311.62 -1.62951 -1.1853 0
M  V30 67990 O 6310.68 -1.57967 -1.96984 0
M  V30 67991 C 6311.99 -2.83071 1.01447 0
M  V30 67992 C 6313.54 -2.96802 0.993863 0
M  V30 67993 C 6314.02 -4.26152 1.67805 0
M  V30 67994 N 6315.51 -4.32996 1.64526 0
M  V30 67995 C 6316.24 -5.3183 2.14347 0
M  V30 67996 N 6315.74 -6.36994 2.72417 0
M  V30 67997 N 6317.53 -5.23424 2.04899 0
M  V30 67998 H 6309.68 -1.37913 1.61536 0
M  V30 67999 H 6311.95 -0.661754 0.678812 0
M  V30 68000 H 6311.65 -2.84365 2.06953 0
M  V30 68001 H 6311.53 -3.73014 0.560405 0
M  V30 68002 H 6313.91 -2.95053 -0.0527562 0
M  V30 68003 H 6313.99 -2.08172 1.48654 0
M  V30 68004 H 6313.64 -4.28661 2.72419 0
M  V30 68005 H 6313.57 -5.13663 1.1601 0
M  V30 68006 H 6316.06 -3.57617 1.22142 0
M  V30 68007 H 6316.37 -7.08713 3.08132 0
M  V30 68008 H 6314.72 -6.37642 2.76474 0
M  V30 68009 H 6317.91 -4.40181 1.59244 0
M  V30 68010 H 6318.08 -6.00292 2.44036 0
M  V30 68011 N 6311.49 -0.385598 -1.5281 0
M  V30 68012 C 6312.4 0.458769 -2.30071 0
M  V30 68013 C 6313.41 1.07481 -1.36835 0
M  V30 68014 O 6314.59 1.08142 -1.69903 0
M  V30 68015 C 6311.65 1.5727 -3.08978 0
M  V30 68016 C 6310.72 0.982143 -4.17914 0
M  V30 68017 C 6309.95 2.04299 -4.93049 0
M  V30 68018 O 6310.17 3.25745 -4.68238 0
M  V30 68019 O 6309.11 1.66236 -5.78489 0
M  V30 68020 H 6312.93 -0.170523 -3.03221 0
M  V30 68021 H 6310.52 -0.149416 -1.48651 0
M  V30 68022 H 6312.4 2.2199 -3.58188 0
M  V30 68023 H 6311.07 2.18702 -2.38644 0
M  V30 68024 H 6309.98 0.298297 -3.72909 0
M  V30 68025 H 6311.31 0.412089 -4.90472 0
M  V30 68026 N 6312.97 1.57178 -0.115314 0
M  V30 68027 C 6313.9 2.18137 0.832965 0
M  V30 68028 C 6314.88 1.12037 1.27991 0
M  V30 68029 O 6316.06 1.40258 1.34318 0
M  V30 68030 C 6313.19 2.77785 2.08454 0
M  V30 68031 C 6312.15 3.89435 1.77551 0
M  V30 68032 C 6311.47 4.35874 3.09706 0
M  V30 68033 C 6312.77 5.11705 1.04669 0
M  V30 68034 H 6314.47 2.97631 0.325003 0
M  V30 68035 H 6312.01 1.43165 0.154882 0
M  V30 68036 H 6313.96 3.19088 2.75247 0
M  V30 68037 H 6312.69 1.95576 2.61568 0
M  V30 68038 H 6311.35 3.48702 1.13148 0
M  V30 68039 H 6311 3.50528 3.60748 0
M  V30 68040 H 6310.7 5.11162 2.89805 0
M  V30 68041 H 6312.22 4.79825 3.77624 0
M  V30 68042 H 6313.63 5.5005 1.61609 0
M  V30 68043 H 6312.03 5.92553 0.948755 0
M  V30 68044 H 6313.1 4.84889 0.0328066 0
M  V30 68045 N 6314.44 -0.15845 1.56801 0
M  V30 68046 C 6315.37 -1.19792 2.0043 0
M  V30 68047 C 6316.35 -1.45449 0.881956 0
M  V30 68048 O 6317.54 -1.56565 1.14896 0
M  V30 68049 C 6314.67 -2.53384 2.37516 0
M  V30 68050 C 6313.62 -2.4227 3.5283 0
M  V30 68051 C 6312.95 -3.80469 3.75696 0
M  V30 68052 C 6314.25 -1.91649 4.85868 0
M  V30 68053 H 6315.94 -0.835202 2.87515 0
M  V30 68054 H 6313.49 -0.400317 1.38324 0
M  V30 68055 H 6315.44 -3.26317 2.66637 0
M  V30 68056 H 6314.17 -2.91469 1.47355 0
M  V30 68057 H 6312.83 -1.7179 3.23858 0
M  V30 68058 H 6312.47 -4.15969 2.82805 0
M  V30 68059 H 6312.17 -3.73898 4.53293 0
M  V30 68060 H 6313.7 -4.54968 4.0723 0
M  V30 68061 H 6315.11 -2.54366 5.13781 0
M  V30 68062 H 6313.51 -1.95996 5.67191 0
M  V30 68063 H 6314.58 -0.871498 4.77004 0
M  V30 68064 N 6315.92 -1.51693 -0.427432 0
M  V30 68065 C 6316.87 -1.73722 -1.51952 0
M  V30 68066 C 6317.84 -0.579128 -1.55677 0
M  V30 68067 O 6319.02 -0.814666 -1.72534 0
M  V30 68068 C 6316.16 -1.87719 -2.89578 0
M  V30 68069 C 6315.28 -3.15307 -2.95306 0
M  V30 68070 C 6314.41 -3.19842 -4.24116 0
M  V30 68071 C 6313.45 -4.41705 -4.23749 0
M  V30 68072 N 6312.59 -4.43734 -5.441 0
M  V30 68073 H 6317.43 -2.66937 -1.32471 0
M  V30 68074 H 6314.96 -1.32286 -0.643346 0
M  V30 68075 H 6316.92 -1.93817 -3.69447 0
M  V30 68076 H 6315.55 -0.97902 -3.07596 0
M  V30 68077 H 6314.6 -3.18471 -2.0804 0
M  V30 68078 H 6315.92 -4.05192 -2.90896 0
M  V30 68079 H 6315.07 -3.2491 -5.12365 0
M  V30 68080 H 6313.81 -2.27863 -4.31196 0
M  V30 68081 H 6312.81 -4.36803 -3.33892 0
M  V30 68082 H 6314.04 -5.34959 -4.18325 0
M  V30 68083 H 6311.99 -3.5463 -5.51882 0
M  V30 68084 H 6311.9 -5.2744 -5.41611 0
M  V30 68085 H 6313.17 -4.53008 -6.34353 0
M  V30 68086 N 6317.4 0.683514 -1.42007 0
M  V30 68087 C 6318.68 1.43889 -1.32496 0
M  V30 68088 C 6319.06 2.11059 0.0417959 0
M  V30 68089 O 6318.4 2.02594 1.05679 0
M  V30 68090 C 6318.61 2.44848 -2.48698 0
M  V30 68091 C 6319.96 3.09747 -2.90416 0
M  V30 68092 O 6320.99 2.55174 -2.48525 0
M  V30 68093 O 6319.85 4.0862 -3.62894 0
M  V30 68094 H 6316.94 0.641386 -0.522067 0
M  V30 68095 H 6319.49 0.712973 -1.53996 0
M  V30 68096 H 6318.26 1.93952 -3.3985 0
M  V30 68097 H 6317.88 3.24933 -2.29139 0
M  V30 68098 N 6318.88 1.28034 0.918967 0
M  V30 68099 C 6319.81 1.14042 2.03757 0
M  V30 68100 C 6320.79 0.0395548 1.70054 0
M  V30 68101 O 6321.97 0.215614 1.92999 0
M  V30 68102 C 6319.1 0.796012 3.38055 0
M  V30 68103 C 6318.06 1.85107 3.85901 0
M  V30 68104 C 6317.38 1.36043 5.17104 0
M  V30 68105 C 6318.68 3.25672 4.08332 0
M  V30 68106 H 6320.38 2.07617 2.15721 0
M  V30 68107 H 6317.92 0.999594 1.03654 0
M  V30 68108 H 6319.88 0.684909 4.15797 0
M  V30 68109 H 6318.6 -0.175444 3.26128 0
M  V30 68110 H 6317.26 1.95123 3.10359 0
M  V30 68111 H 6316.91 0.37818 5.01576 0
M  V30 68112 H 6316.61 2.06587 5.50087 0
M  V30 68113 H 6318.13 1.26244 5.97407 0
M  V30 68114 H 6319.55 3.18607 4.76615 0
M  V30 68115 H 6317.94 3.94005 4.52637 0
M  V30 68116 H 6319.01 3.70077 3.13322 0
M  V30 68117 N 6320.36 -1.12669 1.10198 0
M  V30 68118 C 6321.58 -1.88492 0.865179 0
M  V30 68119 C 6322.01 -1.78979 -0.578628 0
M  V30 68120 O 6321.36 -1.14297 -1.40733 0
M  V30 68121 C 6321.41 -3.35763 1.31511 0
M  V30 68122 O 6320.52 -4.09614 0.478591 0
M  V30 68123 H 6319.86 -0.585771 0.312679 0
M  V30 68124 H 6322.39 -1.425 1.46816 0
M  V30 68125 H 6322.4 -3.86601 1.30399 0
M  V30 68126 H 6321.07 -3.42005 2.36655 0
M  V30 68127 H 6319.65 -3.68751 0.554719 0
M  V30 68128 N 6321.83 -0.890356 -1.3004 0
M  V30 68129 C 6322.78 -0.35943 -2.27984 0
M  V30 68130 C 6323.75 0.553345 -1.56612 0
M  V30 68131 O 6324.94 0.480604 -1.84648 0
M  V30 68132 C 6322.08 0.41529 -3.42592 0
M  V30 68133 C 6321.19 -0.527314 -4.2877 0
M  V30 68134 C 6320.32 0.263534 -5.30546 0
M  V30 68135 C 6319.36 -0.674196 -6.08376 0
M  V30 68136 N 6318.5 0.0816622 -7.02053 0
M  V30 68137 H 6323.34 -1.19978 -2.7278 0
M  V30 68138 H 6320.88 -0.602995 -1.34173 0
M  V30 68139 H 6322.83 0.880429 -4.07804 0
M  V30 68140 H 6321.46 1.22017 -2.9885 0
M  V30 68141 H 6320.52 -1.11095 -3.63816 0
M  V30 68142 H 6321.83 -1.24549 -4.83 0
M  V30 68143 H 6320.98 0.790289 -6.01531 0
M  V30 68144 H 6319.72 1.0149 -4.77023 0
M  V30 68145 H 6318.73 -1.21253 -5.36263 0
M  V30 68146 H 6319.95 -1.42474 -6.63986 0
M  V30 68147 H 6317.9 0.815467 -6.50912 0
M  V30 68148 H 6317.81 -0.576786 -7.53797 0
M  V30 68149 H 6319.08 0.588985 -7.77272 0
M  V30 68150 N 6323.31 1.43487 -0.651863 0
M  V30 68151 C 6324.22 2.34564 0.041229 0
M  V30 68152 C 6325.24 1.53805 0.813626 0
M  V30 68153 O 6326.41 1.86462 0.76118 0
M  V30 68154 C 6323.48 3.32067 0.996628 0
M  V30 68155 C 6322.54 4.28729 0.221314 0
M  V30 68156 C 6321.77 5.21574 1.1312 0
M  V30 68157 O 6322 5.18812 2.37044 0
M  V30 68158 O 6320.93 5.98858 0.604341 0
M  V30 68159 H 6324.76 2.95323 -0.708399 0
M  V30 68160 H 6322.34 1.43605 -0.41205 0
M  V30 68161 H 6324.22 3.92027 1.54573 0
M  V30 68162 H 6322.9 2.73813 1.72651 0
M  V30 68163 H 6321.8 3.72252 -0.371336 0
M  V30 68164 H 6323.14 4.89961 -0.468969 0
M  V30 68165 N 6324.79 0.393696 1.52603 0
M  V30 68166 C 6325.75 -0.427279 2.25182 0
M  V30 68167 C 6326.75 -0.986551 1.2698 0
M  V30 68168 O 6327.94 -0.86786 1.51042 0
M  V30 68169 C 6325.07 -1.59991 3.01025 0
M  V30 68170 H 6326.27 0.208207 2.99176 0
M  V30 68171 H 6323.82 0.145898 1.55618 0
M  V30 68172 H 6324.56 -2.2727 2.31342 0
M  V30 68173 H 6324.34 -1.20554 3.73108 0
M  V30 68174 H 6325.83 -2.18103 3.56119 0
M  V30 68175 N 6326.27 -1.57114 0.123648 0
M  V30 68176 C 6327.2 -2.1264 -0.855388 0
M  V30 68177 C 6328.21 -1.07021 -1.2268 0
M  V30 68178 O 6329.4 -1.34378 -1.17494 0
M  V30 68179 C 6326.5 -2.61491 -2.15582 0
M  V30 68180 C 6325.68 -3.91259 -1.95539 0
M  V30 68181 C 6324.73 -4.2566 -3.09354 0
M  V30 68182 O 6323.76 -4.94397 -2.82064 0
M  V30 68183 N 6324.96 -3.83355 -4.35912 0
M  V30 68184 H 6327.73 -2.97269 -0.380971 0
M  V30 68185 H 6325.29 -1.61786 -0.0606375 0
M  V30 68186 H 6327.28 -2.81532 -2.90726 0
M  V30 68187 H 6325.85 -1.81717 -2.54358 0
M  V30 68188 H 6325.07 -3.8008 -1.04561 0
M  V30 68189 H 6326.36 -4.76101 -1.79457 0
M  V30 68190 H 6325.76 -3.27924 -4.60958 0
M  V30 68191 H 6324.31 -4.08495 -5.07913 0
M  V30 68192 N 6327.75 0.150132 -1.56883 0
M  V30 68193 C 6328.66 1.20497 -2.0129 0
M  V30 68194 C 6329.67 1.47201 -0.927785 0
M  V30 68195 O 6330.85 1.58933 -1.23703 0
M  V30 68196 C 6327.91 2.51923 -2.38192 0
M  V30 68197 C 6326.97 2.32894 -3.60637 0
M  V30 68198 C 6326.21 3.58053 -3.9577 0
M  V30 68199 O 6326.43 4.64107 -3.31604 0
M  V30 68200 O 6325.36 3.50903 -4.89031 0
M  V30 68201 H 6329.19 0.857972 -2.91329 0
M  V30 68202 H 6326.78 0.358618 -1.45032 0
M  V30 68203 H 6328.66 3.29413 -2.62802 0
M  V30 68204 H 6327.33 2.86159 -1.5131 0
M  V30 68205 H 6326.24 1.53365 -3.41219 0
M  V30 68206 H 6327.57 2.03575 -4.48127 0
M  V30 68207 N 6329.22 1.51918 0.419381 0
M  V30 68208 C 6330.47 1.65718 1.16899 0
M  V30 68209 C 6330.8 0.380955 1.90427 0
M  V30 68210 O 6330.08 -0.620232 1.84346 0
M  V30 68211 C 6330.36 2.87246 2.17167 0
M  V30 68212 C 6330.21 4.24892 1.47604 0
M  V30 68213 C 6331.53 3.04292 3.17953 0
M  V30 68214 H 6328.65 0.603087 0.423622 0
M  V30 68215 H 6331.29 1.84448 0.45597 0
M  V30 68216 H 6329.44 2.71408 2.77975 0
M  V30 68217 H 6331.12 4.52436 0.899953 0
M  V30 68218 H 6329.36 4.26764 0.778123 0
M  V30 68219 H 6330.03 5.05953 2.20715 0
M  V30 68220 H 6332.51 3.1896 2.67215 0
M  V30 68221 H 6331.38 3.90857 3.85386 0
M  V30 68222 H 6331.64 2.17152 3.85094 0
M  V30 68223 N 6330.7 -0.675973 1.42367 0
M  V30 68224 C 6331.95 -1.43603 1.42774 0
M  V30 68225 C 6332.28 -1.94451 0.0437644 0
M  V30 68226 O 6331.53 -1.71225 -0.947662 0
M  V30 68227 C 6331.83 -2.6501 2.39801 0
M  V30 68228 C 6331.5 -2.3271 3.86208 0
M  V30 68229 C 6330.16 -2.23613 4.26088 0
M  V30 68230 C 6332.51 -2.06461 4.78564 0
M  V30 68231 C 6329.84 -1.86389 5.56306 0
M  V30 68232 C 6332.19 -1.70741 6.09122 0
M  V30 68233 C 6330.86 -1.60153 6.48003 0
M  V30 68234 H 6330.13 -0.525481 0.522447 0
M  V30 68235 H 6332.77 -0.77087 1.75299 0
M  V30 68236 H 6331.08 -3.36552 2.00599 0
M  V30 68237 H 6332.77 -3.23189 2.37381 0
M  V30 68238 H 6329.36 -2.40693 3.54633 0
M  V30 68239 H 6333.55 -2.12423 4.48542 0
M  V30 68240 H 6328.8 -1.7676 5.85291 0
M  V30 68241 H 6332.98 -1.49455 6.80174 0
M  V30 68242 H 6330.61 -1.31079 7.48814 0
M  V30 68243 N 6332.18 -1.2852 -0.912164 0
M  V30 68244 C 6333.13 -1.12583 -2.01479 0
M  V30 68245 C 6334.1 -0.0225212 -1.66085 0
M  V30 68246 O 6335.28 -0.187747 -1.89874 0
M  V30 68247 C 6332.42 -0.795347 -3.3581 0
M  V30 68248 C 6331.54 -1.97785 -3.84064 0
M  V30 68249 C 6330.67 -1.58786 -5.06913 0
M  V30 68250 C 6329.71 -2.73691 -5.47503 0
M  V30 68251 N 6328.85 -2.35173 -6.61542 0
M  V30 68252 H 6333.69 -2.06926 -2.14443 0
M  V30 68253 H 6331.22 -1.02987 -1.05034 0
M  V30 68254 H 6333.18 -0.584484 -4.13085 0
M  V30 68255 H 6331.81 0.111153 -3.22609 0
M  V30 68256 H 6330.86 -2.30079 -3.02932 0
M  V30 68257 H 6332.18 -2.83928 -4.10105 0
M  V30 68258 H 6331.33 -1.33915 -5.91736 0
M  V30 68259 H 6330.07 -0.697736 -4.82683 0
M  V30 68260 H 6329.07 -2.99258 -4.61221 0
M  V30 68261 H 6330.3 -3.63348 -5.7372 0
M  V30 68262 H 6328.24 -1.48633 -6.3894 0
M  V30 68263 H 6328.16 -3.14851 -6.87317 0
M  V30 68264 H 6329.43 -2.1359 -7.49666 0
M  V30 68265 N 6333.66 1.12083 -1.10794 0
M  V30 68266 C 6334.62 2.16109 -0.763522 0
M  V30 68267 C 6335.62 1.59372 0.213847 0
M  V30 68268 O 6336.81 1.74197 -0.00978223 0
M  V30 68269 C 6333.94 3.40646 -0.131608 0
M  V30 68270 H 6335.14 2.4809 -1.68498 0
M  V30 68271 H 6332.69 1.27153 -0.908941 0
M  V30 68272 H 6333.42 3.14268 0.800397 0
M  V30 68273 H 6333.21 3.83105 -0.835062 0
M  V30 68274 H 6334.7 4.17495 0.0934697 0
M  V30 68275 N 6335.14 0.89724 1.29566 0
M  V30 68276 C 6336.39 0.517892 1.94938 0
M  V30 68277 C 6336.7 -0.940035 1.7153 0
M  V30 68278 O 6337.9 -1.42679 2.30987 0
M  V30 68279 C 6336.36 0.875306 3.49094 0
M  V30 68280 C 6335.97 2.35184 3.81304 0
M  V30 68281 C 6337.71 0.565749 4.20713 0
M  V30 68282 C 6335.62 2.65024 5.28693 0
M  V30 68283 H 6334.55 0.189954 0.72968 0
M  V30 68284 H 6337.2 1.0939 1.4733 0
M  V30 68285 H 6335.58 0.228254 3.95342 0
M  V30 68286 H 6336.76 3.04423 3.45924 0
M  V30 68287 H 6335.07 2.63017 3.22818 0
M  V30 68288 H 6337.67 0.765573 5.29191 0
M  V30 68289 H 6338.01 -0.495585 4.1334 0
M  V30 68290 H 6338.54 1.17053 3.80189 0
M  V30 68291 H 6335.28 3.69946 5.41129 0
M  V30 68292 H 6334.8 2.00405 5.6533 0
M  V30 68293 H 6336.48 2.51162 5.96261 0
M  V30 68294 N 6336.61 -1.43139 0.659463 0
M  V30 68295 C 6337.55 -2.29102 -0.0670814 0
M  V30 68296 C 6338.56 -1.42849 -0.780893 0
M  V30 68297 O 6339.75 -1.66724 -0.637608 0
M  V30 68298 C 6336.85 -3.19919 -1.11827 0
M  V30 68299 C 6336.02 -4.34743 -0.481352 0
M  V30 68300 C 6335.08 -5.06389 -1.43026 0
M  V30 68301 O 6334.11 -5.61444 -0.93645 0
M  V30 68302 N 6335.31 -5.10471 -2.76405 0
M  V30 68303 H 6338.07 -2.92097 0.670777 0
M  V30 68304 H 6335.63 -1.53897 0.502714 0
M  V30 68305 H 6337.63 -3.64715 -1.75401 0
M  V30 68306 H 6336.2 -2.5848 -1.75803 0
M  V30 68307 H 6335.42 -3.92786 0.333599 0
M  V30 68308 H 6336.7 -5.08787 -0.0369986 0
M  V30 68309 H 6336.1 -4.67125 -3.19078 0
M  V30 68310 H 6334.66 -5.58963 -3.35266 0
M  V30 68311 N 6338.09 -0.401784 -1.52392 0
M  V30 68312 C 6339.32 0.178589 -2.0663 0
M  V30 68313 C 6339.74 1.38705 -1.27053 0
M  V30 68314 O 6339.1 1.7882 -0.298828 0
M  V30 68315 C 6339.15 0.514671 -3.56908 0
M  V30 68316 O 6338.25 1.60678 -3.79811 0
M  V30 68317 H 6337.59 0.0174051 -0.663772 0
M  V30 68318 H 6340.12 -0.572861 -1.96417 0
M  V30 68319 H 6340.13 0.775414 -4.00564 0
M  V30 68320 H 6338.81 -0.36877 -4.14262 0
M  V30 68321 H 6337.39 1.33878 -3.48039 0
M  V30 68322 N 6339.57 1.57046 -0.131978 0
M  V30 68323 C 6340.5 2.19009 0.809782 0
M  V30 68324 C 6341.48 1.13389 1.26795 0
M  V30 68325 O 6342.67 1.41675 1.32822 0
M  V30 68326 C 6339.8 2.7998 2.05495 0
M  V30 68327 C 6338.75 3.91296 1.73411 0
M  V30 68328 C 6338.08 4.39134 3.05066 0
M  V30 68329 C 6339.38 5.12786 0.992355 0
M  V30 68330 H 6341.07 2.97959 0.293417 0
M  V30 68331 H 6338.62 1.43321 0.139689 0
M  V30 68332 H 6340.57 3.2199 2.71847 0
M  V30 68333 H 6339.29 1.98339 2.59479 0
M  V30 68334 H 6337.95 3.49882 1.09444 0
M  V30 68335 H 6337.6 3.54335 3.5701 0
M  V30 68336 H 6337.3 5.14207 2.84367 0
M  V30 68337 H 6338.82 4.83804 3.72514 0
M  V30 68338 H 6340.24 5.51734 1.55766 0
M  V30 68339 H 6338.64 5.93526 0.885854 0
M  V30 68340 H 6339.71 4.84896 -0.0186242 0
M  V30 68341 N 6341.05 -0.14181 1.56961 0
M  V30 68342 C 6342 -1.17493 1.98655 0
M  V30 68343 C 6342.97 -1.42406 0.854968 0
M  V30 68344 O 6344.15 -1.54654 1.11744 0
M  V30 68345 C 6341.29 -2.50214 2.3767 0
M  V30 68346 C 6340.4 -2.32431 3.64143 0
M  V30 68347 C 6339.54 -3.58222 3.92238 0
M  V30 68348 C 6338.58 -3.35498 5.11964 0
M  V30 68349 N 6337.72 -4.53433 5.36043 0
M  V30 68350 H 6342.56 -0.812372 2.86713 0
M  V30 68351 H 6340.09 -0.389672 1.41845 0
M  V30 68352 H 6342.05 -3.27607 2.5832 0
M  V30 68353 H 6340.68 -2.84407 1.52685 0
M  V30 68354 H 6339.73 -1.46066 3.51239 0
M  V30 68355 H 6341.04 -2.11602 4.51692 0
M  V30 68356 H 6340.2 -4.44042 4.13414 0
M  V30 68357 H 6338.94 -3.8206 3.0312 0
M  V30 68358 H 6337.94 -2.48066 4.90656 0
M  V30 68359 H 6339.17 -3.13054 6.02639 0
M  V30 68360 H 6337.11 -4.77434 4.49881 0
M  V30 68361 H 6337.03 -4.35626 6.17872 0
M  V30 68362 H 6338.3 -5.40452 5.61722 0
M  V30 68363 N 6342.53 -1.52138 -0.411319 0
M  V30 68364 C 6343.76 -1.69935 -1.18025 0
M  V30 68365 C 6344.17 -0.407871 -1.84342 0
M  V30 68366 O 6343.53 0.615921 -1.71793 0
M  V30 68367 C 6343.58 -2.83341 -2.245 0
M  V30 68368 O 6343.3 -4.07487 -1.60891 0
M  V30 68369 C 6344.8 -3.12629 -3.14289 0
M  V30 68370 H 6342.02 -0.569558 -0.354745 0
M  V30 68371 H 6344.56 -1.98685 -0.484208 0
M  V30 68372 H 6342.72 -2.57116 -2.89776 0
M  V30 68373 H 6343.13 -4.70665 -2.31462 0
M  V30 68374 H 6344.61 -3.95499 -3.85077 0
M  V30 68375 H 6345.08 -2.26091 -3.76536 0
M  V30 68376 H 6345.69 -3.40611 -2.54685 0
M  V30 68377 N 6344.01 0.668413 -1.42723 0
M  V30 68378 C 6345.23 1.45654 -1.46944 0
M  V30 68379 C 6345.65 1.88619 -0.0826796 0
M  V30 68380 O 6345.01 1.58541 0.903944 0
M  V30 68381 C 6345.06 2.70149 -2.40212 0
M  V30 68382 O 6344.78 2.28986 -3.73493 0
M  V30 68383 C 6346.28 3.63653 -2.53518 0
M  V30 68384 H 6343.5 0.447964 -0.499569 0
M  V30 68385 H 6346.04 0.820761 -1.87307 0
M  V30 68386 H 6344.2 3.29902 -2.03085 0
M  V30 68387 H 6344.61 3.09426 -4.23504 0
M  V30 68388 H 6346.09 4.47714 -3.22887 0
M  V30 68389 H 6346.56 4.09983 -1.57513 0
M  V30 68390 H 6347.17 3.0979 -2.91393 0
M  V30 68391 N 6345.48 1.29002 0.905335 0
M  V30 68392 C 6346.39 1.15521 2.04187 0
M  V30 68393 C 6347.41 0.0797728 1.73817 0
M  V30 68394 O 6348.59 0.290734 1.9929 0
M  V30 68395 C 6345.65 0.827019 3.36692 0
M  V30 68396 C 6344.71 1.9857 3.80616 0
M  V30 68397 C 6343.94 1.67308 5.06798 0
M  V30 68398 O 6344.17 0.591367 5.67326 0
M  V30 68399 O 6343.1 2.51933 5.46638 0
M  V30 68400 H 6346.93 2.1095 2.18481 0
M  V30 68401 H 6344.51 1.084 1.02809 0
M  V30 68402 H 6346.39 0.658311 4.16226 0
M  V30 68403 H 6345.07 -0.0975404 3.23553 0
M  V30 68404 H 6343.98 2.20962 3.01872 0
M  V30 68405 H 6345.31 2.89126 3.9833 0
M  V30 68406 N 6346.96 -1.11493 1.11387 0
M  V30 68407 C 6348.21 -1.83491 0.863656 0
M  V30 68408 C 6348.54 -1.84398 -0.609194 0
M  V30 68409 O 6347.82 -1.29665 -1.44973 0
M  V30 68410 C 6348.1 -3.30696 1.42521 0
M  V30 68411 C 6347.95 -3.38186 2.96564 0
M  V30 68412 C 6349.27 -4.26752 1.07568 0
M  V30 68413 H 6346.39 -0.666198 0.315196 0
M  V30 68414 H 6349.03 -1.3074 1.37866 0
M  V30 68415 H 6347.18 -3.75748 0.987185 0
M  V30 68416 H 6348.85 -3.01696 3.48966 0
M  V30 68417 H 6347.1 -2.78424 3.3266 0
M  V30 68418 H 6347.77 -4.41793 3.30943 0
M  V30 68419 H 6350.24 -3.89876 1.45381 0
M  V30 68420 H 6349.12 -5.28138 1.49537 0
M  V30 68421 H 6349.38 -4.42098 -0.0136219 0
M  V30 68422 N 6348.44 -0.904098 -1.29088 0
M  V30 68423 C 6349.37 -0.401886 -2.30015 0
M  V30 68424 C 6350.35 0.52542 -1.61782 0
M  V30 68425 O 6351.54 0.435212 -1.89261 0
M  V30 68426 C 6348.67 0.367535 -3.4535 0
M  V30 68427 C 6347.62 -0.469745 -4.25414 0
M  V30 68428 C 6346.95 0.427436 -5.32989 0
M  V30 68429 C 6348.25 -1.72197 -4.93098 0
M  V30 68430 H 6349.94 -1.24532 -2.72272 0
M  V30 68431 H 6347.49 -0.600261 -1.30893 0
M  V30 68432 H 6349.44 0.729645 -4.15035 0
M  V30 68433 H 6348.16 1.24479 -3.01948 0
M  V30 68434 H 6346.82 -0.814245 -3.57443 0
M  V30 68435 H 6346.47 1.30296 -4.85831 0
M  V30 68436 H 6346.17 -0.129116 -5.87458 0
M  V30 68437 H 6347.69 0.785642 -6.05525 0
M  V30 68438 H 6349.11 -1.42934 -5.55196 0
M  V30 68439 H 6347.5 -2.22018 -5.57519 0
M  V30 68440 H 6348.57 -2.45541 -4.18136 0
M  V30 68441 N 6349.92 1.42788 -0.667045 0
M  V30 68442 C 6351.33 1.56026 -0.335872 0
M  V30 68443 C 6351.53 1.64816 1.15923 0
M  V30 68444 O 6350.59 1.61081 1.94446 0
M  V30 68445 C 6351.9 2.81421 -1.05938 0
M  V30 68446 C 6353.45 2.95183 -1.04096 0
M  V30 68447 C 6353.93 4.23429 -1.74563 0
M  V30 68448 N 6355.42 4.30324 -1.71394 0
M  V30 68449 C 6356.15 5.28352 -2.22781 0
M  V30 68450 N 6355.65 6.32579 -2.82516 0
M  V30 68451 N 6357.44 5.20098 -2.132 0
M  V30 68452 H 6349.59 1.35326 -1.63709 0
M  V30 68453 H 6351.85 0.650871 -0.689254 0
M  V30 68454 H 6351.56 2.81037 -2.1145 0
M  V30 68455 H 6351.43 3.72075 -0.619677 0
M  V30 68456 H 6353.82 2.95099 0.00580914 0
M  V30 68457 H 6353.9 2.05781 -1.51947 0
M  V30 68458 H 6353.55 4.24273 -2.79204 0
M  V30 68459 H 6353.48 5.11752 -1.24167 0
M  V30 68460 H 6355.97 3.55628 -1.27816 0
M  V30 68461 H 6356.28 7.03722 -3.19368 0
M  V30 68462 H 6354.63 6.33163 -2.86583 0
M  V30 68463 H 6357.82 4.37591 -1.66227 0
M  V30 68464 H 6357.99 5.96334 -2.53555 0
M  V30 68465 N 6351.4 0.40986 1.52177 0
M  V30 68466 C 6352.34 -0.429945 2.28592 0
M  V30 68467 C 6353.34 -1.04518 1.33313 0
M  V30 68468 O 6354.54 -0.983297 1.50769 0
M  V30 68469 H 6350.92 -0.157433 0.735336 0
M  V30 68470 H 6352.89 0.235752 2.97467 0
M  V30 68471 C 6351.64 -1.53398 3.12033 0
M  V30 68472 H 6350.96 -1.06991 3.85218 0
M  V30 68473 H 6352.4 -2.0954 3.68604 0
M  V30 68474 C 6350.86 -2.50175 2.25642 0
M  V30 68475 O 6351.39 -3.54076 1.89718 0
M  V30 68476 N 6349.6 -2.20402 1.89397 0
M  V30 68477 H 6349.14 -1.3594 2.1881 0
M  V30 68478 H 6349.1 -2.854 1.31888 0
M  V30 68479 N 6352.87 -1.56974 0.140305 0
M  V30 68480 C 6353.8 -2.19435 -0.798156 0
M  V30 68481 C 6354.78 -1.14059 -1.26192 0
M  V30 68482 O 6355.97 -1.42377 -1.32069 0
M  V30 68483 C 6353.1 -2.81066 -2.04008 0
M  V30 68484 C 6352.05 -3.9221 -1.71333 0
M  V30 68485 C 6351.38 -4.40746 -3.02733 0
M  V30 68486 C 6352.68 -5.13305 -0.965146 0
M  V30 68487 H 6354.37 -2.9811 -0.277611 0
M  V30 68488 H 6351.92 -1.43393 -0.132087 0
M  V30 68489 H 6353.87 -3.23427 -2.70135 0
M  V30 68490 H 6352.6 -1.99712 -2.58423 0
M  V30 68491 H 6351.26 -3.50458 -1.07587 0
M  V30 68492 H 6350.9 -3.56223 -3.55126 0
M  V30 68493 H 6350.6 -5.15708 -2.81636 0
M  V30 68494 H 6352.13 -4.85772 -3.69943 0
M  V30 68495 H 6353.54 -5.52552 -1.52838 0
M  V30 68496 H 6351.94 -5.93987 -0.854365 0
M  V30 68497 H 6353.01 -4.8488 0.0443392 0
M  V30 68498 N 6354.35 0.133484 -1.57034 0
M  V30 68499 C 6355.28 1.18978 -1.959 0
M  V30 68500 C 6356.3 1.3845 -0.856475 0
M  V30 68501 O 6357.49 1.37781 -1.13484 0
M  V30 68502 C 6354.59 2.55234 -2.22955 0
M  V30 68503 C 6353.76 2.56559 -3.54254 0
M  V30 68504 C 6352.82 3.74454 -3.6969 0
M  V30 68505 O 6351.84 3.58705 -4.4195 0
M  V30 68506 N 6353.05 4.92448 -3.07368 0
M  V30 68507 H 6355.81 0.859295 -2.87117 0
M  V30 68508 H 6353.37 0.322914 -1.58647 0
M  V30 68509 H 6355.36 3.32637 -2.3051 0
M  V30 68510 H 6353.93 2.80522 -1.37936 0
M  V30 68511 H 6353.15 1.64975 -3.58018 0
M  V30 68512 H 6354.44 2.54488 -4.40583 0
M  V30 68513 H 6353.84 5.08147 -2.48602 0
M  V30 68514 H 6352.4 5.67579 -3.20465 0
M  V30 68515 N 6355.83 1.52354 0.403245 0
M  V30 68516 C 6357.11 1.5727 1.163 0
M  V30 68517 C 6357.49 0.357254 2.08055 0
M  V30 68518 O 6356.84 -0.655474 2.18897 0
M  V30 68519 C 6357.05 2.90436 1.93515 0
M  V30 68520 C 6358.39 3.43652 2.49376 0
M  V30 68521 O 6359.42 2.92215 2.03688 0
M  V30 68522 O 6358.28 4.33486 3.32794 0
M  V30 68523 H 6355.37 0.633725 0.531339 0
M  V30 68524 H 6357.92 1.64684 0.409549 0
M  V30 68525 H 6356.69 3.70345 1.26333 0
M  V30 68526 H 6356.31 2.86341 2.75852 0
M  V30 68527 N 6357.31 -0.660835 1.43076 0
M  V30 68528 C 6358.24 -1.78574 1.50444 0
M  V30 68529 C 6359.22 -1.66252 0.359762 0
M  V30 68530 O 6360.4 -1.85463 0.575958 0
M  V30 68531 C 6357.53 -3.16958 1.41967 0
M  V30 68532 C 6356.49 -3.44034 2.54606 0
M  V30 68533 C 6355.81 -4.82139 2.31183 0
M  V30 68534 C 6357.11 -3.39536 3.96879 0
M  V30 68535 H 6358.81 -1.72665 2.44596 0
M  V30 68536 H 6356.35 -0.829275 1.17724 0
M  V30 68537 H 6358.31 -3.954 1.45727 0
M  V30 68538 H 6357.03 -3.23579 0.443162 0
M  V30 68539 H 6355.69 -2.6796 2.50186 0
M  V30 68540 H 6355.34 -4.85427 1.31793 0
M  V30 68541 H 6355.04 -5.01217 3.06685 0
M  V30 68542 H 6356.56 -5.62848 2.36715 0
M  V30 68543 H 6357.98 -4.07926 4.02827 0
M  V30 68544 H 6356.37 -3.70149 4.72345 0
M  V30 68545 H 6357.44 -2.37853 4.22556 0
M  V30 68546 N 6358.79 -1.2948 -0.898481 0
M  V30 68547 C 6359.72 -1.17269 -2.01917 0
M  V30 68548 C 6360.7 -0.0666039 -1.6997 0
M  V30 68549 O 6361.88 -0.246291 -1.92632 0
M  V30 68550 C 6359.01 -0.849693 -3.36745 0
M  V30 68551 C 6357.97 -1.91223 -3.82907 0
M  V30 68552 C 6357.29 -1.44252 -5.14874 0
M  V30 68553 C 6358.59 -3.32127 -4.03099 0
M  V30 68554 H 6360.29 -2.11022 -2.12391 0
M  V30 68555 H 6357.83 -1.01596 -1.0205 0
M  V30 68556 H 6359.79 -0.750972 -4.14655 0
M  V30 68557 H 6358.51 0.123537 -3.26366 0
M  V30 68558 H 6357.17 -2.00036 -3.07215 0
M  V30 68559 H 6356.82 -0.457929 -5.00911 0
M  V30 68560 H 6356.52 -2.15312 -5.46731 0
M  V30 68561 H 6358.04 -1.35732 -5.95323 0
M  V30 68562 H 6359.45 -3.26149 -4.71486 0
M  V30 68563 H 6357.85 -4.01156 -4.46311 0
M  V30 68564 H 6358.92 -3.75015 -3.07395 0
M  V30 68565 N 6360.26 1.10901 -1.11976 0
M  V30 68566 C 6361.2 2.16891 -0.74102 0
M  V30 68567 C 6362.21 1.61167 0.230042 0
M  V30 68568 O 6363.4 1.78496 0.0120985 0
M  V30 68569 C 6360.5 3.38816 -0.0753044 0
M  V30 68570 C 6359.67 4.23994 -1.07461 0
M  V30 68571 C 6358.73 5.24379 -0.437409 0
M  V30 68572 O 6357.76 5.58608 -1.09299 0
M  V30 68573 N 6358.96 5.74999 0.797273 0
M  V30 68574 H 6361.72 2.49992 -1.653 0
M  V30 68575 H 6359.28 1.26475 -1.01073 0
M  V30 68576 H 6361.28 4.0307 0.362843 0
M  V30 68577 H 6359.85 3.03731 0.739347 0
M  V30 68578 H 6359.07 3.5611 -1.69054 0
M  V30 68579 H 6360.35 4.77739 -1.7505 0
M  V30 68580 H 6359.75 5.49381 1.34896 0
M  V30 68581 H 6358.31 6.41061 1.17831 0
M  V30 68582 N 6361.74 0.910931 1.28607 0
M  V30 68583 C 6362.99 0.542626 1.95094 0
M  V30 68584 C 6363.32 -0.913173 1.71731 0
M  V30 68585 O 6362.57 -1.66421 1.02969 0
M  V30 68586 C 6362.87 0.794868 3.48449 0
M  V30 68587 C 6362.54 2.22977 3.91908 0
M  V30 68588 C 6361.2 2.62209 4.03484 0
M  V30 68589 C 6363.55 3.16368 4.14199 0
M  V30 68590 C 6360.88 3.9399 4.34729 0
M  V30 68591 C 6363.23 4.47709 4.46922 0
M  V30 68592 C 6361.9 4.86799 4.56709 0
M  V30 68593 H 6361.17 0.198561 0.713901 0
M  V30 68594 H 6363.81 1.15172 1.52996 0
M  V30 68595 H 6362.12 0.102947 3.91665 0
M  V30 68596 H 6363.81 0.489115 3.98006 0
M  V30 68597 H 6360.4 1.91534 3.83422 0
M  V30 68598 H 6364.59 2.87267 4.04711 0
M  V30 68599 H 6359.84 4.23981 4.40512 0
M  V30 68600 H 6364.02 5.20091 4.63119 0
M  V30 68601 H 6361.65 5.88945 4.80674 0
M  V30 68602 N 6363.22 -1.42432 0.674608 0
M  V30 68603 C 6364.47 -2.00765 0.194007 0
M  V30 68604 C 6364.78 -1.53961 -1.20645 0
M  V30 68605 O 6365.99 -2.04711 -1.78341 0
M  V30 68606 C 6364.44 -3.58681 0.295988 0
M  V30 68607 C 6364.05 -4.14472 1.70049 0
M  V30 68608 C 6365.8 -4.24313 -0.125911 0
M  V30 68609 C 6363.7 -5.64752 1.75525 0
M  V30 68610 H 6362.63 -0.750857 0.0687707 0
M  V30 68611 H 6365.28 -1.63157 0.839762 0
M  V30 68612 H 6363.67 -3.93791 -0.417656 0
M  V30 68613 H 6364.84 -3.90822 2.4412 0
M  V30 68614 H 6363.16 -3.61291 2.07022 0
M  V30 68615 H 6365.75 -5.34597 -0.105143 0
M  V30 68616 H 6366.1 -3.99779 -1.16113 0
M  V30 68617 H 6366.63 -3.94163 0.53672 0
M  V30 68618 H 6363.37 -5.94084 2.77028 0
M  V30 68619 H 6362.89 -5.90394 1.05809 0
M  V30 68620 H 6364.57 -6.29166 1.5086 0
M  V30 68621 N 6364.7 -0.417924 -1.51958 0
M  V30 68622 C 6365.95 0.154981 -2.01906 0
M  V30 68623 C 6366.27 1.44392 -1.30312 0
M  V30 68624 O 6365.53 1.91555 -0.400656 0
M  V30 68625 C 6365.83 0.440654 -3.54673 0
M  V30 68626 C 6365.49 -0.760137 -4.44447 0
M  V30 68627 C 6364.16 -1.08949 -4.68704 0
M  V30 68628 C 6366.51 -1.5621 -4.9724 0
M  V30 68629 C 6363.84 -2.22183 -5.43002 0
M  V30 68630 C 6366.19 -2.68528 -5.72779 0
M  V30 68631 C 6364.85 -3.01939 -5.95306 0
M  V30 68632 H 6364.12 0.0567117 -0.738827 0
M  V30 68633 H 6366.77 -0.561146 -1.83094 0
M  V30 68634 H 6365.07 1.23845 -3.71712 0
M  V30 68635 H 6366.77 0.897037 -3.90838 0
M  V30 68636 H 6363.36 -0.493469 -4.2575 0
M  V30 68637 H 6367.54 -1.32088 -4.784 0
M  V30 68638 H 6362.8 -2.48406 -5.58663 0
M  V30 68639 H 6366.97 -3.31052 -6.12681 0
M  V30 68640 H 6364.6 -3.89797 -6.52658 0
M  V30 68641 N 6366.18 1.56898 -0.148628 0
M  V30 68642 C 6367.11 2.13974 0.821451 0
M  V30 68643 C 6368.12 1.08959 1.20962 0
M  V30 68644 O 6369.31 1.3623 1.15341 0
M  V30 68645 C 6366.41 2.64888 2.11395 0
M  V30 68646 C 6365.58 3.9432 1.89289 0
M  V30 68647 C 6364.64 4.30528 3.02543 0
M  V30 68648 O 6363.67 4.98822 2.74163 0
M  V30 68649 N 6364.87 3.90241 4.29758 0
M  V30 68650 H 6367.64 2.97837 0.33363 0
M  V30 68651 H 6365.2 1.61862 0.034891 0
M  V30 68652 H 6367.19 2.86122 2.8621 0
M  V30 68653 H 6365.76 1.8574 2.51435 0
M  V30 68654 H 6364.98 3.81695 0.985013 0
M  V30 68655 H 6366.27 4.78896 1.7186 0
M  V30 68656 H 6365.66 3.35216 4.55683 0
M  V30 68657 H 6364.22 4.16523 5.0135 0
M  V30 68658 N 6367.65 -0.125154 1.57102 0
M  V30 68659 C 6368.58 -1.15514 2.02926 0
M  V30 68660 C 6369.57 -1.43546 0.912609 0
M  V30 68661 O 6370.75 -1.54093 1.18191 0
M  V30 68662 C 6367.88 -2.48288 2.42838 0
M  V30 68663 C 6366.83 -2.34732 3.5789 0
M  V30 68664 C 6366.16 -3.72414 3.83682 0
M  V30 68665 C 6367.46 -1.813 4.89824 0
M  V30 68666 H 6369.15 -0.774028 2.89222 0
M  V30 68667 H 6366.7 -0.370887 1.39142 0
M  V30 68668 H 6368.65 -3.20588 2.73498 0
M  V30 68669 H 6367.38 -2.88277 1.53505 0
M  V30 68670 H 6366.04 -1.64882 3.27429 0
M  V30 68671 H 6365.68 -4.09877 2.91564 0
M  V30 68672 H 6365.38 -3.64198 4.61122 0
M  V30 68673 H 6366.91 -4.46228 4.16789 0
M  V30 68674 H 6368.32 -2.43411 5.19061 0
M  V30 68675 H 6366.72 -1.83921 5.71221 0
M  V30 68676 H 6367.79 -0.770123 4.78745 0
M  V30 68677 N 6369.13 -1.52566 -0.395159 0
M  V30 68678 C 6370.38 -1.66534 -1.13795 0
M  V30 68679 C 6370.69 -0.408429 -1.91288 0
M  V30 68680 O 6371.9 -0.428143 -2.68103 0
M  V30 68681 C 6370.36 -2.9428 -2.07189 0
M  V30 68682 C 6369.96 -4.27129 -1.35147 0
M  V30 68683 C 6371.71 -3.17614 -2.81641 0
M  V30 68684 C 6369.62 -5.45988 -2.2727 0
M  V30 68685 H 6368.55 -0.620407 -0.428499 0
M  V30 68686 H 6371.2 -1.7906 -0.401239 0
M  V30 68687 H 6369.58 -2.75487 -2.8447 0
M  V30 68688 H 6370.75 -4.56455 -0.631331 0
M  V30 68689 H 6369.07 -4.10008 -0.72679 0
M  V30 68690 H 6371.66 -4.03594 -3.50736 0
M  V30 68691 H 6372.01 -2.32428 -3.45374 0
M  V30 68692 H 6372.54 -3.36945 -2.11454 0
M  V30 68693 H 6369.28 -6.33563 -1.68162 0
M  V30 68694 H 6368.8 -5.20982 -2.97216 0
M  V30 68695 H 6370.48 -5.7962 -2.87489 0
M  V30 68696 N 6370.61 0.653238 -1.43424 0
M  V30 68697 C 6371.52 1.79521 -1.51028 0
M  V30 68698 C 6372.54 1.69402 -0.39738 0
M  V30 68699 O 6373.71 1.90571 -0.651504 0
M  V30 68700 C 6370.78 3.15798 -1.43082 0
M  V30 68701 C 6369.84 3.37714 -2.65043 0
M  V30 68702 C 6369.07 4.6749 -2.57466 0
M  V30 68703 O 6369.3 5.46841 -1.62239 0
M  V30 68704 O 6368.23 4.91125 -3.47965 0
M  V30 68705 H 6372.06 1.76061 -2.4746 0
M  V30 68706 H 6369.64 0.811716 -1.25425 0
M  V30 68707 H 6371.52 3.97078 -1.41093 0
M  V30 68708 H 6370.2 3.19849 -0.49785 0
M  V30 68709 H 6369.1 2.56199 -2.72604 0
M  V30 68710 H 6370.44 3.3851 -3.57312 0
M  V30 68711 N 6372.09 1.29955 0.891602 0
M  V30 68712 C 6373.37 1.09063 1.62372 0
M  V30 68713 C 6373.75 -0.362409 2.07966 0
M  V30 68714 O 6373.09 -1.35271 1.84158 0
M  V30 68715 C 6373.3 2.08552 2.79834 0
M  V30 68716 C 6374.65 2.39912 3.50325 0
M  V30 68717 O 6375.68 2.06811 2.90013 0
M  V30 68718 O 6374.54 2.96503 4.59073 0
M  V30 68719 H 6371.63 0.418411 0.713345 0
M  V30 68720 H 6374.18 1.41356 0.938959 0
M  V30 68721 H 6372.95 3.06387 2.43399 0
M  V30 68722 H 6372.57 1.77037 3.56011 0
M  V30 68723 N 6373.57 -1.10306 1.12563 0
M  V30 68724 C 6374.52 -2.18774 0.789983 0
M  V30 68725 C 6375.51 -1.67916 -0.223756 0
M  V30 68726 O 6376.72 -1.79814 -0.0818262 0
M  V30 68727 H 6373.09 -0.713463 0.237643 0
M  V30 68728 H 6375.06 -2.44322 1.71317 0
M  V30 68729 C 6373.81 -3.46709 0.262352 0
M  V30 68730 H 6373.13 -3.86205 1.0337 0
M  V30 68731 H 6374.57 -4.23949 0.0658248 0
M  V30 68732 C 6373.03 -3.21404 -1.01 0
M  V30 68733 O 6373.56 -3.43197 -2.08755 0
M  V30 68734 N 6371.77 -2.75063 -0.937474 0
M  V30 68735 H 6371.32 -2.57529 -0.0604652 0
M  V30 68736 H 6371.27 -2.5851 -1.78942 0
M  V30 68737 N 6375.05 -0.917739 -1.28122 0
M  V30 68738 C 6376.29 -0.548839 -1.94089 0
M  V30 68739 C 6376.61 0.912627 -1.73004 0
M  V30 68740 O 6377.81 1.38986 -2.33228 0
M  V30 68741 C 6376.27 -0.930733 -3.47657 0
M  V30 68742 C 6375.88 -2.4122 -3.77514 0
M  V30 68743 C 6377.62 -0.632609 -4.1976 0
M  V30 68744 C 6375.53 -2.73401 -5.2441 0
M  V30 68745 H 6374.46 -0.201538 -0.726566 0
M  V30 68746 H 6377.11 -1.1172 -1.45571 0
M  V30 68747 H 6375.49 -0.291121 -3.94928 0
M  V30 68748 H 6376.67 -3.09888 -3.41037 0
M  V30 68749 H 6374.98 -2.68119 -3.18592 0
M  V30 68750 H 6377.58 -0.849666 -5.27906 0
M  V30 68751 H 6377.92 0.429763 -4.14076 0
M  V30 68752 H 6378.45 -1.23087 -3.78278 0
M  V30 68753 H 6375.19 -3.78508 -5.35175 0
M  V30 68754 H 6374.71 -2.09374 -5.6207 0
M  V30 68755 H 6376.39 -2.60616 -5.92189 0
M  V30 68756 N 6376.52 1.42072 -0.682152 0
M  V30 68757 C 6377.47 2.30798 -0.00839649 0
M  V30 68758 C 6378.44 1.4637 0.785169 0
M  V30 68759 O 6379.63 1.75187 0.755928 0
M  V30 68760 C 6376.77 3.32286 0.931667 0
M  V30 68761 C 6375.88 4.31801 0.131144 0
M  V30 68762 C 6375.01 5.20361 1.06763 0
M  V30 68763 C 6374.05 6.11551 0.25922 0
M  V30 68764 N 6373.19 6.92638 1.1488 0
M  V30 68765 H 6378.03 2.87858 -0.770816 0
M  V30 68766 H 6375.57 1.41785 -0.391849 0
M  V30 68767 H 6377.52 3.89662 1.4906 0
M  V30 68768 H 6376.15 2.76808 1.66063 0
M  V30 68769 H 6375.21 3.76483 -0.544522 0
M  V30 68770 H 6376.52 4.96326 -0.496172 0
M  V30 68771 H 6375.67 5.82505 1.69624 0
M  V30 68772 H 6374.41 4.5603 1.72882 0
M  V30 68773 H 6373.42 5.48467 -0.38256 0
M  V30 68774 H 6374.64 6.77933 -0.397983 0
M  V30 68775 H 6372.59 6.30928 1.79626 0
M  V30 68776 H 6372.5 7.53797 0.576736 0
M  V30 68777 H 6373.77 7.59263 1.76465 0
M  V30 68778 N 6378 0.425977 1.51734 0
M  V30 68779 C 6378.93 -0.426799 2.25191 0
M  V30 68780 C 6379.95 -0.995974 1.2878 0
M  V30 68781 O 6381.14 -0.892047 1.54612 0
M  V30 68782 C 6378.24 -1.60781 2.98333 0
M  V30 68783 C 6377.41 -1.15954 4.2175 0
M  V30 68784 C 6376.47 -2.20937 4.7757 0
M  V30 68785 O 6375.49 -1.80836 5.3971 0
M  V30 68786 N 6376.7 -3.53297 4.6061 0
M  V30 68787 H 6379.46 0.202725 2.99014 0
M  V30 68788 H 6377.02 0.25425 1.59891 0
M  V30 68789 H 6379.01 -2.30612 3.32566 0
M  V30 68790 H 6377.58 -2.14291 2.27592 0
M  V30 68791 H 6376.8 -0.288712 3.93141 0
M  V30 68792 H 6378.09 -0.83725 5.01864 0
M  V30 68793 H 6377.49 -3.88617 4.11088 0
M  V30 68794 H 6376.05 -4.19056 4.99235 0
M  V30 68795 N 6379.48 -1.56817 0.156946 0
M  V30 68796 C 6380.41 -2.20269 -0.774837 0
M  V30 68797 C 6381.39 -1.15391 -1.24975 0
M  V30 68798 O 6382.58 -1.4377 -1.30552 0
M  V30 68799 C 6379.71 -2.83214 -2.01015 0
M  V30 68800 C 6378.66 -3.94006 -1.67163 0
M  V30 68801 C 6377.99 -4.43932 -2.98041 0
M  V30 68802 C 6379.29 -5.143 -0.910649 0
M  V30 68803 H 6380.98 -2.98388 -0.245977 0
M  V30 68804 H 6378.53 -1.43525 -0.11687 0
M  V30 68805 H 6380.48 -3.26274 -2.6669 0
M  V30 68806 H 6379.2 -2.02442 -2.56291 0
M  V30 68807 H 6377.86 -3.51579 -1.03863 0
M  V30 68808 H 6377.51 -3.59969 -3.51328 0
M  V30 68809 H 6377.21 -5.18666 -2.76151 0
M  V30 68810 H 6378.73 -4.89669 -3.6477 0
M  V30 68811 H 6380.15 -5.54142 -1.46968 0
M  V30 68812 H 6378.54 -5.9486 -0.791317 0
M  V30 68813 H 6379.61 -4.84805 0.0957647 0
M  V30 68814 N 6380.96 0.116821 -1.57166 0
M  V30 68815 C 6381.9 1.14318 -2.005 0
M  V30 68816 C 6382.87 1.41028 -0.877515 0
M  V30 68817 O 6384.06 1.52857 -1.1419 0
M  V30 68818 C 6381.2 2.46401 -2.41621 0
M  V30 68819 C 6380.31 2.26608 -3.67795 0
M  V30 68820 C 6379.45 3.51937 -3.97887 0
M  V30 68821 C 6378.49 3.27311 -5.17237 0
M  V30 68822 N 6377.62 4.44848 -5.43189 0
M  V30 68823 H 6382.46 0.766656 -2.87969 0
M  V30 68824 H 6380 0.367056 -1.42447 0
M  V30 68825 H 6381.96 3.23456 -2.635 0
M  V30 68826 H 6380.59 2.81942 -1.5719 0
M  V30 68827 H 6379.64 1.4046 -3.53518 0
M  V30 68828 H 6380.95 2.04389 -4.55002 0
M  V30 68829 H 6380.11 4.37409 -4.20426 0
M  V30 68830 H 6378.85 3.77189 -3.0916 0
M  V30 68831 H 6377.85 2.40229 -4.9454 0
M  V30 68832 H 6379.08 3.03427 -6.07544 0
M  V30 68833 H 6377.02 4.70217 -4.57419 0
M  V30 68834 H 6376.94 4.25742 -6.24724 0
M  V30 68835 H 6378.21 5.31447 -5.70249 0
M  V30 68836 N 6382.44 1.52773 0.387063 0
M  V30 68837 C 6383.35 1.80615 1.49718 0
M  V30 68838 C 6384.36 0.693037 1.59603 0
M  V30 68839 O 6385.54 0.980832 1.75902 0
M  V30 68840 C 6382.6 1.97093 2.85229 0
M  V30 68841 C 6381.66 3.21007 2.85049 0
M  V30 68842 C 6380.9 3.36689 4.14097 0
M  V30 68843 O 6381.12 2.57135 5.09154 0
M  V30 68844 O 6380.05 4.29952 4.21218 0
M  V30 68845 H 6383.88 2.74885 1.29121 0
M  V30 68846 H 6381.46 1.37888 0.575092 0
M  V30 68847 H 6383.35 2.09626 3.65561 0
M  V30 68848 H 6382.02 1.06013 3.05848 0
M  V30 68849 H 6380.93 3.13914 2.03492 0
M  V30 68850 H 6382.26 4.1194 2.69382 0
M  V30 68851 N 6383.91 -0.645623 1.43769 0
M  V30 68852 C 6384.85 -1.77052 1.43972 0
M  V30 68853 C 6385.82 -1.59804 0.300241 0
M  V30 68854 O 6387.01 -1.81885 0.495001 0
M  V30 68855 C 6384.14 -3.14449 1.25856 0
M  V30 68856 C 6383.18 -3.5038 2.43179 0
M  V30 68857 S 6384.01 -3.49496 4.05725 0
M  V30 68858 C 6385.17 -4.89537 3.90006 0
M  V30 68859 H 6385.4 -1.7661 2.39157 0
M  V30 68860 H 6382.94 -0.818948 1.30892 0
M  V30 68861 H 6384.89 -3.93742 1.16091 0
M  V30 68862 H 6383.56 -3.12444 0.322064 0
M  V30 68863 H 6382.75 -4.50324 2.26328 0
M  V30 68864 H 6382.35 -2.78517 2.49609 0
M  V30 68865 H 6384.64 -5.78393 3.528 0
M  V30 68866 H 6385.59 -5.1144 4.89729 0
M  V30 68867 H 6385.99 -4.63429 3.22326 0
M  V30 68868 N 6385.39 -1.30426 -0.884698 0
M  V30 68869 C 6386.34 -1.16831 -1.99046 0
M  V30 68870 C 6387.31 -0.0577451 -1.66 0
M  V30 68871 O 6388.49 -0.22798 -1.89433 0
M  V30 68872 C 6385.63 -0.866398 -3.34047 0
M  V30 68873 C 6384.75 -2.05887 -3.79782 0
M  V30 68874 C 6383.88 -1.69502 -5.03431 0
M  V30 68875 C 6382.92 -2.85243 -5.41575 0
M  V30 68876 N 6382.06 -2.49152 -6.56405 0
M  V30 68877 H 6386.9 -2.11428 -2.10006 0
M  V30 68878 H 6384.44 -1.05192 -1.02826 0
M  V30 68879 H 6386.39 -0.671974 -4.11753 0
M  V30 68880 H 6385.02 0.0426978 -3.22772 0
M  V30 68881 H 6384.08 -2.36453 -2.97983 0
M  V30 68882 H 6385.39 -2.92563 -4.03991 0
M  V30 68883 H 6384.54 -1.46436 -5.88763 0
M  V30 68884 H 6383.28 -0.799963 -4.81094 0
M  V30 68885 H 6382.29 -3.08974 -4.54769 0
M  V30 68886 H 6383.51 -3.75436 -5.65884 0
M  V30 68887 H 6381.46 -1.62152 -6.35643 0
M  V30 68888 H 6381.37 -3.2936 -6.80484 0
M  V30 68889 H 6382.64 -2.29444 -7.44967 0
M  V30 68890 N 6386.87 1.09707 -1.13146 0
M  V30 68891 C 6388.12 1.81824 -0.891418 0
M  V30 68892 C 6388.45 1.85572 0.582533 0
M  V30 68893 O 6387.7 1.31759 1.447 0
M  V30 68894 C 6388 3.27946 -1.42079 0
M  V30 68895 C 6387.67 3.44336 -2.91108 0
M  V30 68896 C 6386.33 3.48516 -3.31798 0
M  V30 68897 C 6388.68 3.49111 -3.87003 0
M  V30 68898 C 6386.01 3.55048 -4.67074 0
M  V30 68899 C 6388.36 3.57176 -5.22119 0
M  V30 68900 C 6387.02 3.59624 -5.6234 0
M  V30 68901 H 6386.29 0.665341 -0.326193 0
M  V30 68902 H 6388.94 1.29263 -1.41292 0
M  V30 68903 H 6387.25 3.83125 -0.819921 0
M  V30 68904 H 6388.94 3.82272 -1.21117 0
M  V30 68905 H 6385.53 3.41764 -2.58641 0
M  V30 68906 H 6389.72 3.45124 -3.56656 0
M  V30 68907 H 6384.97 3.55229 -4.97617 0
M  V30 68908 H 6389.15 3.59815 -5.96243 0
M  V30 68909 H 6386.77 3.64438 -6.6715 0
M  V30 68910 N 6388.35 0.924521 1.27634 0
M  V30 68911 C 6389.58 0.5795 1.98619 0
M  V30 68912 C 6389.99 -0.84175 1.68997 0
M  V30 68913 O 6389.35 -1.55901 0.948735 0
M  V30 68914 C 6389.4 0.792022 3.52717 0
M  V30 68915 O 6389.12 2.15736 3.813 0
M  V30 68916 C 6390.62 0.455285 4.40956 0
M  V30 68917 H 6387.84 0.219897 0.633945 0
M  V30 68918 H 6390.39 1.24067 1.62566 0
M  V30 68919 H 6388.54 0.177696 3.86992 0
M  V30 68920 H 6388.95 2.20499 4.759 0
M  V30 68921 H 6390.43 0.6547 5.48104 0
M  V30 68922 H 6390.91 -0.609024 4.34957 0
M  V30 68923 H 6391.51 1.04761 4.12196 0
M  V30 68924 N 6389.83 -1.41708 0.689677 0
M  V30 68925 C 6391.06 -2.05353 0.226681 0
M  V30 68926 C 6391.46 -1.51976 -1.12695 0
M  V30 68927 O 6390.81 -0.660411 -1.71418 0
M  V30 68928 C 6390.87 -3.5936 0.100436 0
M  V30 68929 C 6390.53 -4.35503 1.38516 0
M  V30 68930 C 6391.53 -4.65177 2.32178 0
M  V30 68931 C 6389.22 -4.7488 1.63689 0
M  V30 68932 C 6391.21 -5.33182 3.49279 0
M  V30 68933 C 6388.9 -5.42622 2.81077 0
M  V30 68934 C 6389.89 -5.717 3.73695 0
M  V30 68935 O 6389.58 -6.38049 4.89028 0
M  V30 68936 H 6389.31 -0.667902 0.104322 0
M  V30 68937 H 6391.87 -1.82572 0.941092 0
M  V30 68938 H 6390.1 -3.80857 -0.669692 0
M  V30 68939 H 6391.79 -4.046 -0.324611 0
M  V30 68940 H 6392.55 -4.35242 2.13985 0
M  V30 68941 H 6388.43 -4.51632 0.924635 0
M  V30 68942 H 6391.98 -5.55795 4.2159 0
M  V30 68943 H 6387.87 -5.71975 2.99189 0
M  V30 68944 H 6388.64 -6.56544 4.88766 0
M  V30 68945 N 6391.3 -0.434018 -1.51506 0
M  V30 68946 C 6392.23 0.369708 -2.30555 0
M  V30 68947 C 6393.22 1.024 -1.35824 0
M  V30 68948 O 6394.4 1.02827 -1.64743 0
M  V30 68949 C 6391.53 1.47301 -3.14515 0
M  V30 68950 C 6390.48 0.942385 -4.17496 0
M  V30 68951 C 6389.81 2.14118 -4.89957 0
M  V30 68952 C 6391.11 -0.0208794 -5.22296 0
M  V30 68953 H 6392.8 -0.289956 -2.97993 0
M  V30 68954 H 6390.35 -0.140891 -1.43309 0
M  V30 68955 H 6392.3 2.04246 -3.68594 0
M  V30 68956 H 6391.03 2.16091 -2.44892 0
M  V30 68957 H 6389.69 0.395168 -3.64464 0
M  V30 68958 H 6389.33 2.8152 -4.1684 0
M  V30 68959 H 6389.03 1.79254 -5.59591 0
M  V30 68960 H 6390.56 2.71623 -5.46858 0
M  V30 68961 H 6391.97 0.458165 -5.71466 0
M  V30 68962 H 6390.37 -0.281929 -5.99437 0
M  V30 68963 H 6391.44 -0.958583 -4.75331 0
M  V30 68964 N 6392.78 1.56731 -0.165261 0
M  V30 68965 C 6394.03 1.95873 0.4813 0
M  V30 68966 C 6394.34 1.05363 1.64797 0
M  V30 68967 O 6395.55 1.3416 2.36037 0
M  V30 68968 C 6394.01 3.48267 0.907643 0
M  V30 68969 C 6393.61 4.47393 -0.233096 0
M  V30 68970 C 6395.36 3.9624 1.52296 0
M  V30 68971 C 6393.27 5.91018 0.212539 0
M  V30 68972 H 6392.2 0.73131 0.183579 0
M  V30 68973 H 6394.85 1.81754 -0.252525 0
M  V30 68974 H 6393.23 3.57783 1.69727 0
M  V30 68975 H 6394.4 4.49587 -1.01034 0
M  V30 68976 H 6392.72 4.09443 -0.757987 0
M  V30 68977 H 6395.31 5.00997 1.86832 0
M  V30 68978 H 6395.66 3.38831 2.41867 0
M  V30 68979 H 6396.19 3.89716 0.797892 0
M  V30 68980 H 6392.93 6.52287 -0.648237 0
M  V30 68981 H 6392.45 5.92144 0.955271 0
M  V30 68982 H 6394.13 6.43641 0.658449 0
M  V30 68983 N 6394.26 -0.108484 1.57226 0
M  V30 68984 C 6395.21 -1.15148 2.02098 0
M  V30 68985 C 6396.2 -1.4226 0.919701 0
M  V30 68986 O 6397.41 -1.42098 1.1049 0
M  V30 68987 H 6393.78 -0.388493 0.643877 0
M  V30 68988 H 6395.75 -0.746605 2.88909 0
M  V30 68989 C 6394.5 -2.46718 2.45001 0
M  V30 68990 H 6393.83 -2.26697 3.29315 0
M  V30 68991 H 6395.27 -3.18232 2.80186 0
M  V30 68992 C 6393.73 -3.10055 1.31786 0
M  V30 68993 O 6394.26 -3.96575 0.639611 0
M  V30 68994 N 6392.46 -2.70095 1.07224 0
M  V30 68995 H 6392.01 -1.99831 1.62559 0
M  V30 68996 H 6391.97 -3.12801 0.316712 0
M  V30 68997 N 6395.74 -1.52976 -0.378955 0
M  V30 68998 C 6396.97 -1.7215 -1.14228 0
M  V30 68999 C 6397.38 -0.44415 -1.83913 0
M  V30 69000 O 6396.72 0.591855 -1.73904 0
M  V30 69001 C 6396.78 -2.82267 -2.22633 0
M  V30 69002 C 6396.45 -4.23059 -1.7283 0
M  V30 69003 C 6397.44 -5.05871 -1.19959 0
M  V30 69004 C 6395.13 -4.69419 -1.78748 0
M  V30 69005 C 6397.12 -6.33129 -0.736672 0
M  V30 69006 C 6394.81 -5.96658 -1.32068 0
M  V30 69007 C 6395.81 -6.78344 -0.796158 0
M  V30 69008 O 6395.49 -8.03197 -0.336201 0
M  V30 69009 H 6395.23 -0.579521 -0.348039 0
M  V30 69010 H 6397.78 -2.00457 -0.44791 0
M  V30 69011 H 6396.01 -2.49404 -2.95524 0
M  V30 69012 H 6397.7 -2.89747 -2.84256 0
M  V30 69013 H 6398.47 -4.71233 -1.14736 0
M  V30 69014 H 6394.34 -4.05921 -2.18516 0
M  V30 69015 H 6397.89 -6.96835 -0.326591 0
M  V30 69016 H 6393.79 -6.30798 -1.3698 0
M  V30 69017 H 6394.55 -8.17225 -0.456759 0
M  V30 69018 N 6397.22 0.637989 -1.44109 0
M  V30 69019 C 6398.47 1.39361 -1.45813 0
M  V30 69020 C 6398.78 1.95384 -0.0919357 0
M  V30 69021 O 6399.98 2.71497 0.0135227 0
M  V30 69022 C 6398.44 2.52284 -2.56672 0
M  V30 69023 C 6398.05 2.02804 -3.99468 0
M  V30 69024 C 6399.79 3.2954 -2.67589 0
M  V30 69025 C 6397.7 3.13029 -5.01764 0
M  V30 69026 H 6396.63 0.523681 -0.54247 0
M  V30 69027 H 6399.28 0.687071 -1.70152 0
M  V30 69028 H 6397.66 3.25481 -2.25562 0
M  V30 69029 H 6398.84 1.36518 -4.40113 0
M  V30 69030 H 6397.15 1.38384 -3.92733 0
M  V30 69031 H 6399.75 4.11697 -3.41188 0
M  V30 69032 H 6400.09 3.78572 -1.73172 0
M  V30 69033 H 6400.62 2.63431 -2.98075 0
M  V30 69034 H 6397.36 2.68948 -5.97785 0
M  V30 69035 H 6396.88 3.77978 -4.65717 0
M  V30 69036 H 6398.56 3.77916 -5.25156 0
M  V30 69037 N 6398.69 1.30893 0.877769 0
M  V30 69038 C 6399.63 1.13701 1.99009 0
M  V30 69039 C 6400.64 0.0782369 1.62612 0
M  V30 69040 O 6401.83 0.324967 1.75517 0
M  V30 69041 C 6398.93 0.713349 3.31307 0
M  V30 69042 C 6398.1 1.85544 3.96096 0
M  V30 69043 C 6397.16 1.41913 5.06702 0
M  V30 69044 O 6396.19 2.12753 5.27944 0
M  V30 69045 N 6397.39 0.302162 5.79713 0
M  V30 69046 H 6400.15 2.09507 2.14306 0
M  V30 69047 H 6397.71 1.23124 1.05129 0
M  V30 69048 H 6399.71 0.40433 4.02675 0
M  V30 69049 H 6398.28 -0.152877 3.12226 0
M  V30 69050 H 6397.5 2.33219 3.17809 0
M  V30 69051 H 6398.78 2.62062 4.36121 0
M  V30 69052 H 6398.18 -0.287955 5.64967 0
M  V30 69053 H 6396.74 0.0526359 6.51779 0
M  V30 69054 N 6400.17 -1.09106 1.13726 0
M  V30 69055 C 6401.45 -1.77946 0.812076 0
M  V30 69056 C 6401.83 -1.99305 -0.695762 0
M  V30 69057 O 6401.18 -1.5971 -1.63416 0
M  V30 69058 C 6401.39 -3.10022 1.60272 0
M  V30 69059 C 6402.74 -3.84675 1.79751 0
M  V30 69060 O 6403.76 -3.19783 1.56899 0
M  V30 69061 O 6402.62 -5.01178 2.17906 0
M  V30 69062 H 6399.71 -0.771889 0.296843 0
M  V30 69063 H 6402.26 -1.15632 1.24206 0
M  V30 69064 H 6401.03 -2.89981 2.62729 0
M  V30 69065 H 6400.65 -3.80061 1.16789 0
M  V30 69066 N 6401.65 -0.931276 -1.27142 0
M  V30 69067 C 6402.56 -0.438888 -2.30458 0
M  V30 69068 C 6403.58 0.482216 -1.67185 0
M  V30 69069 O 6404.75 0.364155 -1.9808 0
M  V30 69070 C 6401.82 0.297144 -3.45424 0
M  V30 69071 C 6400.88 -0.65931 -4.24207 0
M  V30 69072 C 6400.11 0.0416911 -5.33684 0
M  V30 69073 O 6400.34 1.26043 -5.563 0
M  V30 69074 O 6399.27 -0.631961 -5.98573 0
M  V30 69075 H 6403.1 -1.29684 -2.74619 0
M  V30 69076 H 6400.68 -0.696764 -1.32157 0
M  V30 69077 H 6402.56 0.712153 -4.15339 0
M  V30 69078 H 6401.24 1.13065 -3.03312 0
M  V30 69079 H 6400.14 -1.12407 -3.56813 0
M  V30 69080 H 6401.48 -1.46014 -4.70043 0
M  V30 69081 N 6403.13 1.4134 -0.697182 0
M  V30 69082 C 6404.38 2.00431 -0.225922 0
M  V30 69083 C 6404.69 1.55861 1.18181 0
M  V30 69084 O 6405.9 2.07522 1.75062 0
M  V30 69085 C 6404.35 3.58165 -0.353014 0
M  V30 69086 C 6403.96 4.11715 -1.76621 0
M  V30 69087 C 6405.71 4.2446 0.0583901 0
M  V30 69088 C 6403.61 5.61888 -1.84487 0
M  V30 69089 H 6402.54 0.749668 -0.0807075 0
M  V30 69090 H 6405.19 1.618 -0.865613 0
M  V30 69091 H 6403.58 3.94406 0.354955 0
M  V30 69092 H 6404.75 3.86889 -2.50307 0
M  V30 69093 H 6403.06 3.57951 -2.12743 0
M  V30 69094 H 6405.66 5.34696 0.0200804 0
M  V30 69095 H 6406 4.01576 1.09738 0
M  V30 69096 H 6406.54 3.93259 -0.59936 0
M  V30 69097 H 6403.28 5.89602 -2.86444 0
M  V30 69098 H 6402.8 5.88636 -1.15188 0
M  V30 69099 H 6404.48 6.26687 -1.6085 0
M  V30 69100 N 6404.61 0.442047 1.51274 0
M  V30 69101 C 6405.56 -0.381361 2.29452 0
M  V30 69102 C 6406.55 -1.01667 1.355 0
M  V30 69103 O 6407.76 -0.951096 1.52821 0
M  V30 69104 H 6404.13 -0.1418 0.73851 0
M  V30 69105 H 6406.1 0.298796 2.969 0
M  V30 69106 C 6404.85 -1.46745 3.15216 0
M  V30 69107 H 6404.17 -0.987956 3.87401 0
M  V30 69108 H 6405.61 -2.01674 3.72966 0
M  V30 69109 C 6404.07 -2.45332 2.30898 0
M  V30 69110 O 6404.6 -3.49972 1.97186 0
M  V30 69111 N 6402.81 -2.16335 1.9403 0
M  V30 69112 H 6402.36 -1.31268 2.21645 0
M  V30 69113 H 6402.31 -2.82538 1.37912 0
M  V30 69114 N 6406.09 -1.56641 0.17357 0
M  V30 69115 C 6407.31 -2.01326 -0.477008 0
M  V30 69116 C 6407.73 -1.05379 -1.56655 0
M  V30 69117 O 6407.09 -0.0550218 -1.82417 0
M  V30 69118 C 6407.14 -3.45816 -1.05325 0
M  V30 69119 O 6406.86 -4.38099 -0.00719715 0
M  V30 69120 C 6408.36 -4.05913 -1.78183 0
M  V30 69121 H 6405.58 -0.659839 -0.121873 0
M  V30 69122 H 6408.12 -2.02629 0.275961 0
M  V30 69123 H 6406.28 -3.45281 -1.7567 0
M  V30 69124 H 6406.69 -5.2271 -0.432968 0
M  V30 69125 H 6408.17 -5.08931 -2.1376 0
M  V30 69126 H 6408.64 -3.48135 -2.67767 0
M  V30 69127 H 6409.25 -4.10158 -1.12474 0
M  V30 69128 N 6407.56 0.100145 -1.57281 0
M  V30 69129 C 6408.81 0.80323 -1.85017 0
M  V30 69130 C 6409.13 1.80144 -0.76208 0
M  V30 69131 O 6410.33 2.55206 -0.9264 0
M  V30 69132 C 6408.79 1.47931 -3.28092 0
M  V30 69133 C 6408.4 0.521125 -4.44959 0
M  V30 69134 C 6410.14 2.16642 -3.65057 0
M  V30 69135 C 6408.05 1.2015 -5.79066 0
M  V30 69136 H 6406.98 0.30372 -0.690123 0
M  V30 69137 H 6409.63 0.0561174 -1.83414 0
M  V30 69138 H 6408.01 2.2737 -3.2422 0
M  V30 69139 H 6409.18 -0.241411 -4.60167 0
M  V30 69140 H 6407.5 -0.0600158 -4.16357 0
M  V30 69141 H 6410.1 2.6827 -4.62531 0
M  V30 69142 H 6410.44 2.95306 -2.93429 0
M  V30 69143 H 6410.97 1.44068 -3.70795 0
M  V30 69144 H 6407.71 0.455771 -6.53914 0
M  V30 69145 H 6407.23 1.93559 -5.6771 0
M  V30 69146 H 6408.91 1.72941 -6.23458 0
M  V30 69147 N 6409.04 1.53175 0.370837 0
M  V30 69148 C 6410.29 1.69102 1.11403 0
M  V30 69149 C 6410.62 0.440132 1.89455 0
M  V30 69150 O 6409.87 -0.577835 1.86975 0
M  V30 69151 C 6410.17 2.88888 2.10425 0
M  V30 69152 C 6409.84 4.25607 1.48893 0
M  V30 69153 C 6408.5 4.62787 1.3184 0
M  V30 69154 C 6410.85 5.10652 1.04328 0
M  V30 69155 C 6408.18 5.82653 0.687963 0
M  V30 69156 C 6410.53 6.31158 0.426871 0
M  V30 69157 C 6409.19 6.67055 0.243785 0
M  V30 69158 H 6408.46 0.618789 0.407653 0
M  V30 69159 H 6411.11 1.87351 0.396447 0
M  V30 69160 H 6409.42 2.6513 2.88468 0
M  V30 69161 H 6411.11 2.98405 2.67872 0
M  V30 69162 H 6407.7 3.9633 1.63159 0
M  V30 69163 H 6411.89 4.82481 1.16298 0
M  V30 69164 H 6407.14 6.09059 0.534476 0
M  V30 69165 H 6411.32 6.96361 0.0733307 0
M  V30 69166 H 6408.94 7.59799 -0.246792 0
M  V30 69167 N 6410.52 -0.630338 1.44445 0
M  V30 69168 C 6411.74 -1.422 1.50976 0
M  V30 69169 C 6412.17 -1.87608 0.13592 0
M  V30 69170 O 6411.53 -1.58785 -0.875044 0
M  V30 69171 C 6411.58 -2.61792 2.47986 0
M  V30 69172 O 6410.68 -3.61653 1.98194 0
M  V30 69173 H 6410.02 -0.425458 0.509786 0
M  V30 69174 H 6412.55 -0.769292 1.89587 0
M  V30 69175 H 6412.56 -3.09326 2.66048 0
M  V30 69176 H 6411.24 -2.28088 3.47777 0
M  V30 69177 H 6409.81 -3.20923 1.89902 0
M  V30 69178 N 6412 -1.31357 -0.870815 0
M  V30 69179 C 6413.27 -1.11632 -1.60616 0
M  V30 69180 C 6413.65 0.329277 -2.08516 0
M  V30 69181 O 6413 1.32324 -1.86287 0
M  V30 69182 C 6413.21 -2.12978 -2.7648 0
M  V30 69183 C 6414.56 -2.45455 -3.46464 0
M  V30 69184 O 6415.58 -2.11398 -2.86686 0
M  V30 69185 O 6414.44 -3.03769 -4.54298 0
M  V30 69186 H 6411.54 -0.429706 -0.706598 0
M  V30 69187 H 6414.08 -1.42832 -0.916352 0
M  V30 69188 H 6412.86 -3.1022 -2.38494 0
M  V30 69189 H 6412.48 -1.82678 -3.53149 0
M  V30 69190 N 6413.48 1.08501 -1.14303 0
M  V30 69191 C 6414.71 1.84344 -0.93278 0
M  V30 69192 C 6415.11 1.81854 0.522074 0
M  V30 69193 O 6414.46 1.21987 1.37349 0
M  V30 69194 C 6414.52 3.3299 -1.35492 0
M  V30 69195 C 6414.18 3.59216 -2.82512 0
M  V30 69196 C 6415.18 3.54141 -3.80631 0
M  V30 69197 C 6412.86 3.87258 -3.19901 0
M  V30 69198 C 6414.86 3.76736 -5.14149 0
M  V30 69199 C 6412.55 4.09506 -4.53594 0
M  V30 69200 C 6413.54 4.04239 -5.50527 0
M  V30 69201 O 6413.23 4.25904 -6.81807 0
M  V30 69202 H 6412.96 0.588838 -0.332033 0
M  V30 69203 H 6415.52 1.37946 -1.52184 0
M  V30 69204 H 6413.75 3.80142 -0.709174 0
M  V30 69205 H 6415.44 3.90267 -1.11562 0
M  V30 69206 H 6416.2 3.32493 -3.53092 0
M  V30 69207 H 6412.08 3.90478 -2.45047 0
M  V30 69208 H 6415.63 3.7254 -5.89796 0
M  V30 69209 H 6411.52 4.30638 -4.80855 0
M  V30 69210 H 6412.29 4.43315 -6.88051 0
M  V30 69211 N 6414.95 0.938006 1.26646 0
M  V30 69212 C 6416.2 0.579648 1.93192 0
M  V30 69213 C 6416.52 -0.884988 1.74434 0
M  V30 69214 O 6417.72 -1.35258 2.35409 0
M  V30 69215 C 6416.18 0.985924 3.46132 0
M  V30 69216 C 6415.79 2.47195 3.73629 0
M  V30 69217 C 6417.53 0.699309 4.187 0
M  V30 69218 C 6415.44 2.8171 5.19994 0
M  V30 69219 H 6414.37 0.213072 0.723268 0
M  V30 69220 H 6417.02 1.14022 1.43775 0
M  V30 69221 H 6415.4 0.353913 3.94415 0
M  V30 69222 H 6416.57 3.15274 3.36064 0
M  V30 69223 H 6414.89 2.73154 3.14287 0
M  V30 69224 H 6417.49 0.933544 5.26487 0
M  V30 69225 H 6417.83 -0.363833 4.14707 0
M  V30 69226 H 6418.36 1.29089 3.76272 0
M  V30 69227 H 6415.1 3.86974 5.29085 0
M  V30 69228 H 6414.62 2.1829 5.58668 0
M  V30 69229 H 6416.3 2.70004 5.87968 0
M  V30 69230 N 6416.43 -1.40969 0.704668 0
M  V30 69231 C 6417.84 -1.84054 0.313191 0
M  V30 69232 C 6418.19 -1.58944 -1.15027 0
M  V30 69233 O 6417.32 -1.06461 -1.88401 0
M  V30 69234 C 6417.91 -3.34112 0.561659 0
M  V30 69235 C 6416.47 -3.75733 0.224005 0
M  V30 69236 C 6415.62 -2.64289 0.839449 0
M  V30 69237 H 6418.57 -1.30391 0.904645 0
M  V30 69238 H 6418.59 -3.8009 -0.176687 0
M  V30 69239 H 6418.1 -3.52356 1.62686 0
M  V30 69240 H 6416.21 -3.63087 -0.836568 0
M  V30 69241 H 6416.32 -4.74172 0.685378 0
M  V30 69242 H 6414.68 -2.53283 0.268331 0
M  V30 69243 H 6415.47 -2.85348 1.9087 0
M  V30 69244 N 6417.91 -0.450063 -1.51037 0
M  V30 69245 C 6419.14 0.110263 -2.06306 0
M  V30 69246 C 6419.55 1.35908 -1.31627 0
M  V30 69247 O 6418.89 1.79876 -0.372875 0
M  V30 69248 C 6418.95 0.485262 -3.5621 0
M  V30 69249 C 6418.62 -0.65854 -4.5223 0
M  V30 69250 C 6419.61 -1.53444 -4.9674 0
M  V30 69251 C 6417.3 -0.842892 -4.95177 0
M  V30 69252 C 6419.29 -2.57929 -5.82882 0
M  V30 69253 C 6416.98 -1.89099 -5.81107 0
M  V30 69254 C 6417.98 -2.75756 -6.24858 0
M  V30 69255 O 6417.67 -3.78765 -7.09079 0
M  V30 69256 H 6417.4 0.00567554 -0.675976 0
M  V30 69257 H 6419.95 -0.631682 -1.95445 0
M  V30 69258 H 6418.18 1.2801 -3.64898 0
M  V30 69259 H 6419.87 0.978218 -3.93936 0
M  V30 69260 H 6420.64 -1.40361 -4.64245 0
M  V30 69261 H 6416.52 -0.177921 -4.60657 0
M  V30 69262 H 6420.06 -3.256 -6.16953 0
M  V30 69263 H 6415.96 -2.02197 -6.13014 0
M  V30 69264 H 6416.73 -3.75499 -7.27285 0
M  V30 69265 N 6419.39 1.56547 -0.181875 0
M  V30 69266 C 6420.63 1.9749 0.461034 0
M  V30 69267 C 6420.97 1.06825 1.62179 0
M  V30 69268 O 6420.24 0.117517 1.94145 0
M  V30 69269 C 6420.53 3.47779 0.933886 0
M  V30 69270 C 6420.38 4.49223 -0.227773 0
M  V30 69271 C 6421.7 4.01429 1.80395 0
M  V30 69272 H 6418.82 0.718037 0.16611 0
M  V30 69273 H 6421.46 1.8807 -0.270136 0
M  V30 69274 H 6419.61 3.55938 1.55693 0
M  V30 69275 H 6421.28 4.53115 -0.865137 0
M  V30 69276 H 6419.52 4.24747 -0.881632 0
M  V30 69277 H 6420.19 5.51809 0.145377 0
M  V30 69278 H 6422.67 3.95968 1.27862 0
M  V30 69279 H 6421.55 5.06983 2.1038 0
M  V30 69280 H 6421.81 3.45884 2.75348 0
M  V30 69281 N 6420.87 -0.0918024 1.57332 0
M  V30 69282 C 6422.11 -0.794692 1.86255 0
M  V30 69283 C 6422.44 -1.78572 0.770857 0
M  V30 69284 O 6421.7 -1.94281 -0.235223 0
M  V30 69285 C 6422 -1.55548 3.21776 0
M  V30 69286 C 6421.66 -0.70627 4.45334 0
M  V30 69287 C 6420.32 -0.472178 4.78878 0
M  V30 69288 C 6422.68 -0.116131 5.21071 0
M  V30 69289 C 6420 0.361863 5.85583 0
M  V30 69290 C 6422.36 0.705251 6.28656 0
M  V30 69291 C 6421.02 0.949404 6.60714 0
M  V30 69292 H 6420.29 -0.290798 0.681555 0
M  V30 69293 H 6422.94 -0.0560693 1.91418 0
M  V30 69294 H 6421.24 -2.36576 3.12312 0
M  V30 69295 H 6422.94 -2.10378 3.41383 0
M  V30 69296 H 6419.53 -0.898837 4.19069 0
M  V30 69297 H 6423.71 -0.284141 4.95486 0
M  V30 69298 H 6418.97 0.559971 6.0883 0
M  V30 69299 H 6423.14 1.16938 6.86512 0
M  V30 69300 H 6420.77 1.59747 7.43226 0
M  V30 69301 N 6422.34 -1.53369 -0.362709 0
M  V30 69302 C 6423.29 -1.8001 -1.44447 0
M  V30 69303 C 6424.26 -0.644635 -1.53081 0
M  V30 69304 O 6425.45 -0.88711 -1.68923 0
M  V30 69305 C 6422.59 -1.99832 -2.81356 0
M  V30 69306 C 6421.7 -3.27548 -2.81667 0
M  V30 69307 C 6420.83 -3.37542 -4.10169 0
M  V30 69308 C 6419.87 -4.5928 -4.04633 0
M  V30 69309 N 6419.01 -4.66412 -5.2479 0
M  V30 69310 H 6423.85 -2.72316 -1.2103 0
M  V30 69311 H 6421.39 -1.34895 -0.58666 0
M  V30 69312 H 6423.35 -2.09312 -3.60894 0
M  V30 69313 H 6421.98 -1.1086 -3.03166 0
M  V30 69314 H 6421.03 -3.27008 -1.94345 0
M  V30 69315 H 6422.34 -4.17166 -2.73449 0
M  V30 69316 H 6421.49 -3.46349 -4.98124 0
M  V30 69317 H 6420.23 -2.45946 -4.21143 0
M  V30 69318 H 6419.24 -4.50571 -3.15065 0
M  V30 69319 H 6420.46 -5.5222 -3.95259 0
M  V30 69320 H 6418.41 -3.77718 -5.36344 0
M  V30 69321 H 6418.33 -5.49937 -5.18753 0
M  V30 69322 H 6419.59 -4.79505 -6.14569 0
M  V30 69323 N 6423.82 0.622669 -1.44778 0
M  V30 69324 C 6424.75 1.74523 -1.55126 0
M  V30 69325 C 6425.73 1.6524 -0.403714 0
M  V30 69326 O 6426.92 1.8387 -0.624928 0
M  V30 69327 C 6424.05 3.13083 -1.50321 0
M  V30 69328 C 6423 3.37163 -2.63638 0
M  V30 69329 C 6422.33 4.7584 -2.43885 0
M  V30 69330 C 6423.63 3.28894 -4.05742 0
M  V30 69331 H 6425.32 1.66119 -2.49088 0
M  V30 69332 H 6422.87 0.797771 -1.19882 0
M  V30 69333 H 6424.82 3.91398 -1.56159 0
M  V30 69334 H 6423.55 3.22291 -0.528798 0
M  V30 69335 H 6422.2 2.61232 -2.57203 0
M  V30 69336 H 6421.85 4.81762 -1.44617 0
M  V30 69337 H 6421.55 4.92909 -3.19866 0
M  V30 69338 H 6423.08 5.56374 -2.51555 0
M  V30 69339 H 6424.49 3.97102 -4.13501 0
M  V30 69340 H 6422.89 3.57496 -4.81992 0
M  V30 69341 H 6423.96 2.26566 -4.28714 0
M  V30 69342 N 6425.3 1.31817 0.863836 0
M  V30 69343 C 6426.23 1.22581 1.98736 0
M  V30 69344 C 6427.21 0.111645 1.69733 0
M  V30 69345 O 6428.4 0.297277 1.91911 0
M  V30 69346 C 6425.53 0.938677 3.34374 0
M  V30 69347 C 6424.48 2.01308 3.77702 0
M  V30 69348 C 6423.81 1.57852 5.10869 0
M  V30 69349 C 6425.11 3.42698 3.94152 0
M  V30 69350 H 6426.8 2.16579 2.06721 0
M  V30 69351 H 6424.35 1.04266 0.993209 0
M  V30 69352 H 6426.3 0.860646 4.12518 0
M  V30 69353 H 6425.02 -0.0369635 3.26579 0
M  V30 69354 H 6423.68 2.08111 3.01804 0
M  V30 69355 H 6423.33 0.590576 4.99521 0
M  V30 69356 H 6423.03 2.29732 5.4083 0
M  V30 69357 H 6424.55 1.51468 5.91515 0
M  V30 69358 H 6425.97 3.38535 4.62673 0
M  V30 69359 H 6424.37 4.12848 4.35519 0
M  V30 69360 H 6425.44 3.83033 2.97344 0
M  V30 69361 N 6426.78 -1.07893 1.14877 0
M  V30 69362 C 6427.73 -2.14952 0.840498 0
M  V30 69363 C 6428.7 -1.6484 -0.204219 0
M  V30 69364 O 6429.88 -1.9066 -0.0729853 0
M  V30 69365 C 6427.02 -3.4352 0.329889 0
M  V30 69366 C 6426.13 -4.07451 1.43553 0
M  V30 69367 C 6425.27 -5.23833 0.881616 0
M  V30 69368 C 6424.31 -5.79716 1.96457 0
M  V30 69369 N 6423.44 -6.87436 1.42745 0
M  V30 69370 H 6428.28 -2.40662 1.75743 0
M  V30 69371 H 6425.82 -1.18099 0.876985 0
M  V30 69372 H 6427.78 -4.17197 0.0155966 0
M  V30 69373 H 6426.41 -3.18078 -0.550134 0
M  V30 69374 H 6425.46 -3.31482 1.86611 0
M  V30 69375 H 6426.77 -4.44999 2.25338 0
M  V30 69376 H 6425.93 -6.04471 0.519538 0
M  V30 69377 H 6424.67 -4.87689 0.032863 0
M  V30 69378 H 6423.67 -4.97728 2.33554 0
M  V30 69379 H 6424.9 -6.17917 2.817 0
M  V30 69380 H 6422.84 -6.53242 0.60096 0
M  V30 69381 H 6422.76 -7.23838 2.18163 0
M  V30 69382 H 6424.03 -7.71793 1.09344 0
M  V30 69383 N 6428.26 -0.944709 -1.26147 0
M  V30 69384 C 6429.17 -0.463307 -2.2998 0
M  V30 69385 C 6430.18 0.464457 -1.67687 0
M  V30 69386 O 6431.36 0.343125 -1.98456 0
M  V30 69387 C 6428.42 0.260491 -3.4572 0
M  V30 69388 C 6427.48 -0.704266 -4.23484 0
M  V30 69389 C 6426.72 -0.0149155 -5.33698 0
M  V30 69390 O 6426.94 1.20135 -5.57605 0
M  V30 69391 O 6425.87 -0.695412 -5.97869 0
M  V30 69392 H 6429.7 -1.3259 -2.73228 0
M  V30 69393 H 6427.29 -0.710742 -1.31411 0
M  V30 69394 H 6429.17 0.66806 -4.16071 0
M  V30 69395 H 6427.84 1.09841 -3.04494 0
M  V30 69396 H 6426.75 -1.16185 -3.55601 0
M  V30 69397 H 6428.08 -1.50991 -4.68468 0
M  V30 69398 N 6429.74 1.40593 -0.712134 0
M  V30 69399 C 6430.68 2.32554 -0.0461706 0
M  V30 69400 C 6431.68 1.51855 0.750756 0
M  V30 69401 O 6432.88 1.67679 0.654513 0
M  V30 69402 H 6429.26 0.75199 0.00387198 0
M  V30 69403 H 6431.23 2.86376 -0.838547 0
M  V30 69404 C 6429.98 3.36792 0.864094 0
M  V30 69405 H 6429.3 3.98952 0.260281 0
M  V30 69406 H 6430.74 4.03641 1.29809 0
M  V30 69407 C 6429.2 2.71996 1.98796 0
M  V30 69408 O 6429.73 2.58059 3.07845 0
M  V30 69409 N 6427.94 2.30433 1.77056 0
M  V30 69410 H 6427.48 2.41969 0.883665 0
M  V30 69411 H 6427.44 1.87417 2.52433 0
M  V30 69412 N 6431.21 0.458066 1.50796 0
M  V30 69413 C 6432.14 -0.332982 2.31114 0
M  V30 69414 C 6433.12 -1.00226 1.37436 0
M  V30 69415 O 6434.31 -1.00194 1.66358 0
M  V30 69416 C 6431.44 -1.42278 3.16819 0
M  V30 69417 C 6430.39 -0.875845 4.18943 0
M  V30 69418 C 6429.72 -2.06296 4.93301 0
M  V30 69419 C 6431.02 0.103969 5.22197 0
M  V30 69420 H 6432.71 0.337327 2.97494 0
M  V30 69421 H 6430.26 0.163672 1.43067 0
M  V30 69422 H 6432.21 -1.98356 3.71797 0
M  V30 69423 H 6430.94 -2.12168 2.48299 0
M  V30 69424 H 6429.6 -0.337134 3.65047 0
M  V30 69425 H 6429.24 -2.74853 4.21266 0
M  V30 69426 H 6428.94 -1.70329 5.62372 0
M  V30 69427 H 6430.47 -2.62889 5.5111 0
M  V30 69428 H 6431.88 -0.367191 5.72123 0
M  V30 69429 H 6430.28 0.377258 5.98913 0
M  V30 69430 H 6431.35 1.03408 4.73745 0
M  V30 69431 N 6432.69 -1.56448 0.190174 0
M  V30 69432 C 6433.93 -1.99337 -0.452116 0
M  V30 69433 C 6434.3 -1.0742 -1.59138 0
M  V30 69434 O 6435.5 -1.39525 -2.29752 0
M  V30 69435 C 6433.77 -3.45749 -0.905108 0
M  V30 69436 S 6435.33 -4.10666 -1.54593 0
M  V30 69437 H 6432.14 -0.696107 -0.144762 0
M  V30 69438 H 6434.75 -1.93306 0.292081 0
M  V30 69439 H 6433.45 -4.10347 -0.06581 0
M  V30 69440 H 6432.98 -3.55587 -1.68289 0
M  V30 69441 H 6435 -4.07267 -2.83458 0
M  V30 69442 N 6434.17 0.0834573 -1.57379 0
M  V30 69443 C 6435.1 1.10093 -2.05917 0
M  V30 69444 C 6436.08 1.41076 -0.950347 0
M  V30 69445 O 6437.27 1.50905 -1.22235 0
M  V30 69446 C 6434.4 2.41763 -2.49335 0
M  V30 69447 C 6433.35 2.25161 -3.63987 0
M  V30 69448 C 6432.68 3.6211 -3.93421 0
M  V30 69449 C 6433.98 1.68249 -4.94459 0
M  V30 69450 H 6435.67 0.697074 -2.91172 0
M  V30 69451 H 6433.22 0.333865 -1.40076 0
M  V30 69452 H 6435.17 3.13224 -2.81902 0
M  V30 69453 H 6433.89 2.84106 -1.61094 0
M  V30 69454 H 6432.55 1.56143 -3.31685 0
M  V30 69455 H 6432.2 4.02003 -3.02329 0
M  V30 69456 H 6431.9 3.51845 -4.70616 0
M  V30 69457 H 6433.42 4.3502 -4.28474 0
M  V30 69458 H 6434.84 2.29563 -5.25332 0
M  V30 69459 H 6433.23 1.68711 -5.75896 0
M  V30 69460 H 6434.3 0.642921 -4.80619 0
M  V30 69461 N 6435.65 1.5356 0.35457 0
M  V30 69462 C 6436.6 1.81458 1.45519 0
M  V30 69463 C 6437.59 0.684356 1.54961 0
M  V30 69464 O 6438.8 0.8675 1.57716 0
M  V30 69465 H 6435.17 0.574714 0.484983 0
M  V30 69466 H 6437.14 2.73559 1.19198 0
M  V30 69467 C 6435.89 2.0312 2.82201 0
M  V30 69468 H 6435.21 2.89535 2.75698 0
M  V30 69469 H 6436.65 2.26612 3.58361 0
M  V30 69470 C 6435.11 0.813487 3.26931 0
M  V30 69471 O 6435.64 0.00752266 4.01699 0
M  V30 69472 N 6433.85 0.633814 2.83604 0
M  V30 69473 H 6433.4 1.29084 2.22924 0
M  V30 69474 H 6433.35 -0.179511 3.13887 0
M  V30 69475 N 6437.13 -0.614982 1.45106 0
M  V30 69476 C 6438.06 -1.73698 1.56049 0
M  V30 69477 C 6439.04 -1.65023 0.412471 0
M  V30 69478 O 6440.22 -1.83536 0.63467 0
M  V30 69479 C 6437.35 -3.12281 1.51979 0
M  V30 69480 C 6436.31 -3.3576 2.65423 0
M  V30 69481 C 6435.63 -4.7454 2.46405 0
M  V30 69482 C 6436.93 -3.26737 4.0748 0
M  V30 69483 H 6438.63 -1.64796 2.49965 0
M  V30 69484 H 6436.17 -0.791402 1.20303 0
M  V30 69485 H 6438.12 -3.90564 1.58233 0
M  V30 69486 H 6436.85 -3.22006 0.545882 0
M  V30 69487 H 6435.51 -2.59865 2.58584 0
M  V30 69488 H 6435.16 -4.80988 1.4717 0
M  V30 69489 H 6434.86 -4.91206 3.22475 0
M  V30 69490 H 6436.38 -5.55033 2.54502 0
M  V30 69491 H 6437.79 -3.94904 4.15601 0
M  V30 69492 H 6436.19 -3.54935 4.83882 0
M  V30 69493 H 6437.26 -2.2429 4.29909 0
M  V30 69494 N 6438.6 -1.32273 -0.856834 0
M  V30 69495 C 6439.55 -1.17611 -1.95324 0
M  V30 69496 C 6440.54 -0.0836068 -1.60683 0
M  V30 69497 O 6441.73 -0.309889 -1.74266 0
M  V30 69498 C 6438.86 -0.899086 -3.31318 0
M  V30 69499 C 6437.94 -2.03319 -3.72186 0
M  V30 69500 N 6438.34 -3.28155 -3.849 0
M  V30 69501 C 6436.63 -1.93587 -4.01796 0
M  V30 69502 C 6437.33 -4.02423 -4.20037 0
M  V30 69503 N 6436.31 -3.30701 -4.31437 0
M  V30 69504 H 6440.11 -2.12256 -2.03284 0
M  V30 69505 H 6437.63 -1.24021 -1.04846 0
M  V30 69506 H 6439.62 -0.775007 -4.09633 0
M  V30 69507 H 6438.28 0.0390106 -3.24677 0
M  V30 69508 H 6439.29 -3.63117 -3.69278 0
M  V30 69509 H 6435.97 -1.07325 -4.03469 0
M  V30 69510 H 6437.36 -5.10064 -4.37361 0
M  V30 69511 N 6440.08 1.07283 -1.15448 0
M  V30 69512 C 6441.03 2.14503 -0.851885 0
M  V30 69513 C 6442 1.64946 0.195475 0
M  V30 69514 O 6443.18 1.90696 0.0628731 0
M  V30 69515 C 6440.32 3.4334 -0.348102 0
M  V30 69516 C 6439.44 4.06684 -1.45711 0
M  V30 69517 C 6438.57 5.23358 -0.909384 0
M  V30 69518 C 6437.61 5.78666 -1.99529 0
M  V30 69519 N 6436.75 6.86669 -1.46388 0
M  V30 69520 H 6441.59 2.39727 -1.77017 0
M  V30 69521 H 6439.12 1.17632 -0.883236 0
M  V30 69522 H 6441.08 4.17183 -0.0377214 0
M  V30 69523 H 6439.71 3.18365 0.533258 0
M  V30 69524 H 6438.76 3.30488 -1.88366 0
M  V30 69525 H 6440.08 4.43798 -2.27695 0
M  V30 69526 H 6439.23 6.04187 -0.551587 0
M  V30 69527 H 6437.97 4.87665 -0.0587259 0
M  V30 69528 H 6436.97 4.96482 -2.3619 0
M  V30 69529 H 6438.2 6.16415 -2.84973 0
M  V30 69530 H 6436.15 6.52914 -0.635595 0
M  V30 69531 H 6436.06 7.22671 -2.21998 0
M  V30 69532 H 6437.33 7.71202 -1.13435 0
M  V30 69533 N 6441.56 0.951386 1.25644 0
M  V30 69534 C 6442.81 0.604419 1.93269 0
M  V30 69535 C 6443.13 -0.858076 1.74549 0
M  V30 69536 O 6442.39 -1.63061 1.08211 0
M  V30 69537 C 6442.69 0.905322 3.45744 0
M  V30 69538 C 6442.35 2.35333 3.84616 0
M  V30 69539 C 6441.02 2.74913 3.94938 0
M  V30 69540 C 6443.37 3.29385 4.03924 0
M  V30 69541 C 6440.7 4.07621 4.21974 0
M  V30 69542 C 6443.05 4.61701 4.32452 0
M  V30 69543 C 6441.71 5.01082 4.40991 0
M  V30 69544 H 6440.98 0.221173 0.707223 0
M  V30 69545 H 6443.63 1.19981 1.49254 0
M  V30 69546 H 6441.93 0.2275 3.91139 0
M  V30 69547 H 6443.63 0.61549 3.96248 0
M  V30 69548 H 6440.22 2.03636 3.77135 0
M  V30 69549 H 6444.41 2.99998 3.95367 0
M  V30 69550 H 6439.66 4.37781 4.268 0
M  V30 69551 H 6443.84 5.34561 4.46338 0
M  V30 69552 H 6441.46 6.03939 4.61694 0
M  V30 69553 N 6443.04 -1.40213 0.71958 0
M  V30 69554 C 6443.99 -2.32526 0.0585028 0
M  V30 69555 C 6444.98 -1.52251 -0.742692 0
M  V30 69556 O 6446.19 -1.68023 -0.645611 0
M  V30 69557 H 6442.56 -0.752 0.000116064 0
M  V30 69558 H 6444.53 -2.85927 0.853723 0
M  V30 69559 C 6443.28 -3.37245 -0.846221 0
M  V30 69560 H 6442.6 -3.99084 -0.23912 0
M  V30 69561 H 6444.04 -4.04323 -1.27666 0
M  V30 69562 C 6442.5 -2.73047 -1.9735 0
M  V30 69563 O 6443.03 -2.59688 -3.06472 0
M  V30 69564 N 6441.24 -2.31369 -1.75831 0
M  V30 69565 H 6440.79 -2.42434 -0.87082 0
M  V30 69566 H 6440.74 -1.88753 -2.51435 0
M  V30 69567 N 6444.52 -0.466057 -1.50551 0
M  V30 69568 C 6445.43 0.336169 -2.32179 0
M  V30 69569 C 6446.44 1.00076 -1.4234 0
M  V30 69570 O 6447.62 0.989842 -1.75397 0
M  V30 69571 C 6444.68 1.4067 -3.1688 0
M  V30 69572 C 6443.74 0.759235 -4.22533 0
M  V30 69573 C 6442.98 1.77876 -5.03186 0
M  V30 69574 O 6443.2 3.00466 -4.84847 0
M  V30 69575 O 6442.13 1.35337 -5.86487 0
M  V30 69576 H 6445.96 -0.331014 -3.01891 0
M  V30 69577 H 6443.55 -0.228002 -1.4765 0
M  V30 69578 H 6445.43 2.02691 -3.69451 0
M  V30 69579 H 6444.1 2.05745 -2.49902 0
M  V30 69580 H 6443.01 0.100207 -3.73966 0
M  V30 69581 H 6444.34 0.151521 -4.91967 0
M  V30 69582 N 6445.99 1.56345 -0.198468 0
M  V30 69583 C 6447.24 1.97675 0.439411 0
M  V30 69584 C 6447.57 1.08545 1.61394 0
M  V30 69585 O 6446.82 0.125286 1.95299 0
M  V30 69586 C 6447.12 3.44855 0.938592 0
M  V30 69587 C 6446.79 4.50732 -0.122932 0
M  V30 69588 C 6445.45 4.79411 -0.414602 0
M  V30 69589 C 6447.8 5.14353 -0.842029 0
M  V30 69590 C 6445.13 5.68999 -1.43029 0
M  V30 69591 C 6447.48 6.0504 -1.84689 0
M  V30 69592 C 6446.15 6.32072 -2.14572 0
M  V30 69593 H 6445.42 0.723344 0.160792 0
M  V30 69594 H 6448.06 1.89196 -0.296143 0
M  V30 69595 H 6446.37 3.50422 1.75248 0
M  V30 69596 H 6448.07 3.74191 1.4416 0
M  V30 69597 H 6444.66 4.28447 0.114564 0
M  V30 69598 H 6448.84 4.92286 -0.629922 0
M  V30 69599 H 6444.1 5.88216 -1.66769 0
M  V30 69600 H 6448.27 6.53396 -2.4093 0
M  V30 69601 H 6445.9 7.01291 -2.9342 0
M  V30 69602 N 6447.47 -0.07511 1.57421 0
M  V30 69603 C 6448.72 -0.773694 1.86271 0
M  V30 69604 C 6449.03 -1.78908 0.790643 0
M  V30 69605 O 6450.24 -2.537 0.966884 0
M  V30 69606 C 6448.7 -1.42692 3.30404 0
M  V30 69607 C 6448.3 -0.45027 4.45731 0
M  V30 69608 C 6450.05 -2.10806 3.68457 0
M  V30 69609 C 6447.96 -1.10923 5.80905 0
M  V30 69610 H 6446.89 -0.292702 0.694868 0
M  V30 69611 H 6449.54 -0.0269307 1.8348 0
M  V30 69612 H 6447.92 -2.22183 3.27797 0
M  V30 69613 H 6449.09 0.314589 4.59725 0
M  V30 69614 H 6447.41 0.126247 4.16209 0
M  V30 69615 H 6450 -2.60877 4.66741 0
M  V30 69616 H 6450.35 -2.906 2.98089 0
M  V30 69617 H 6450.88 -1.38151 3.7304 0
M  V30 69618 H 6447.62 -0.351682 6.54556 0
M  V30 69619 H 6447.14 -1.84502 5.70718 0
M  V30 69620 H 6448.82 -1.63 6.26131 0
M  V30 69621 N 6448.95 -1.53746 -0.346422 0
M  V30 69622 C 6449.88 -1.77841 -1.44586 0
M  V30 69623 C 6450.9 -0.659633 -1.48838 0
M  V30 69624 O 6452.08 -0.936306 -1.51972 0
M  V30 69625 C 6449.18 -1.86059 -2.83259 0
M  V30 69626 C 6448.36 -3.1595 -3.0248 0
M  V30 69627 C 6447.42 -3.15162 -4.21378 0
M  V30 69628 O 6446.44 -3.88894 -4.15632 0
M  V30 69629 N 6447.64 -2.37328 -5.29769 0
M  V30 69630 H 6450.41 -2.72714 -1.24288 0
M  V30 69631 H 6447.97 -1.5276 -0.536282 0
M  V30 69632 H 6449.96 -1.82986 -3.60969 0
M  V30 69633 H 6448.53 -0.983857 -2.96714 0
M  V30 69634 H 6447.75 -3.32171 -2.12265 0
M  V30 69635 H 6449.04 -4.01754 -3.12203 0
M  V30 69636 H 6448.44 -1.76971 -5.37306 0
M  V30 69637 H 6447 -2.40056 -6.05984 0
M  V30 69638 N 6450.43 0.607278 -1.4543 0
M  V30 69639 C 6451.38 1.73911 -1.5446 0
M  V30 69640 C 6452.37 1.64249 -0.414558 0
M  V30 69641 O 6453.58 1.70039 -0.590479 0
M  V30 69642 H 6449.95 0.574564 -0.48516 0
M  V30 69643 H 6451.92 1.63422 -2.49672 0
M  V30 69644 C 6450.67 3.1229 -1.52874 0
M  V30 69645 H 6449.99 3.20383 -2.39154 0
M  V30 69646 H 6451.43 3.91313 -1.6325 0
M  V30 69647 C 6449.89 3.35947 -0.253219 0
M  V30 69648 O 6450.42 3.96127 0.666805 0
M  V30 69649 N 6448.63 2.90219 -0.148816 0
M  V30 69650 H 6448.18 2.41427 -0.898369 0
M  V30 69651 H 6448.13 3.06421 0.703799 0
M  V30 69652 N 6451.91 1.32725 0.849807 0
M  V30 69653 C 6452.82 1.24077 1.99103 0
M  V30 69654 C 6453.83 0.153423 1.73322 0
M  V30 69655 O 6455.01 0.374998 1.97878 0
M  V30 69656 C 6452.07 0.969077 3.32881 0
M  V30 69657 C 6451.13 2.14535 3.71851 0
M  V30 69658 C 6450.37 1.88652 4.99245 0
M  V30 69659 O 6450.59 0.831457 5.64307 0
M  V30 69660 O 6449.52 2.74891 5.35461 0
M  V30 69661 H 6453.35 2.20026 2.09337 0
M  V30 69662 H 6450.94 1.12663 0.981192 0
M  V30 69663 H 6452.82 0.834254 4.1306 0
M  V30 69664 H 6451.49 0.0397773 3.23676 0
M  V30 69665 H 6450.4 2.33566 2.92229 0
M  V30 69666 H 6451.73 3.05761 3.85709 0
M  V30 69667 N 6453.38 -1.06669 1.16015 0
M  V30 69668 C 6454.31 -2.16024 0.886325 0
M  V30 69669 C 6455.3 -1.6929 -0.165847 0
M  V30 69670 O 6456.48 -1.94191 -0.0187498 0
M  V30 69671 C 6453.61 -3.45188 0.382451 0
M  V30 69672 C 6452.56 -4.0541 1.3721 0
M  V30 69673 C 6451.89 -5.29738 0.72678 0
M  V30 69674 C 6453.19 -4.44632 2.74043 0
M  V30 69675 H 6454.88 -2.39188 1.80081 0
M  V30 69676 H 6452.43 -1.14954 0.867273 0
M  V30 69677 H 6454.38 -4.21022 0.178388 0
M  V30 69678 H 6453.11 -3.21631 -0.567528 0
M  V30 69679 H 6451.77 -3.31628 1.56264 0
M  V30 69680 H 6451.41 -5.02476 -0.229565 0
M  V30 69681 H 6451.11 -5.70989 1.38729 0
M  V30 69682 H 6452.64 -6.08272 0.53265 0
M  V30 69683 H 6454.05 -5.11565 2.58793 0
M  V30 69684 H 6452.45 -4.96856 3.36533 0
M  V30 69685 H 6453.52 -3.55672 3.29583 0
M  V30 69686 N 6454.86 -0.958036 -1.25138 0
M  V30 69687 C 6455.79 -0.438268 -2.24971 0
M  V30 69688 C 6456.81 0.447714 -1.56523 0
M  V30 69689 O 6458 0.255444 -1.76663 0
M  V30 69690 C 6455.1 0.387526 -3.36677 0
M  V30 69691 C 6454.27 -0.486262 -4.34689 0
M  V30 69692 C 6453.33 0.281901 -5.25444 0
M  V30 69693 O 6452.35 -0.320866 -5.68295 0
M  V30 69694 N 6453.56 1.57409 -5.58751 0
M  V30 69695 H 6456.32 -1.29657 -2.70202 0
M  V30 69696 H 6453.88 -0.828775 -1.39079 0
M  V30 69697 H 6455.87 0.909217 -3.94354 0
M  V30 69698 H 6454.44 1.14671 -2.90808 0
M  V30 69699 H 6453.66 -1.18902 -3.7584 0
M  V30 69700 H 6454.95 -1.08254 -4.9715 0
M  V30 69701 H 6454.35 2.08568 -5.25848 0
M  V30 69702 H 6452.91 2.04167 -6.18998 0
M  V30 69703 N 6456.34 1.3983 -0.727006 0
M  V30 69704 C 6457.25 2.34453 -0.0831661 0
M  V30 69705 C 6458.27 1.57902 0.730953 0
M  V30 69706 O 6459.44 1.90235 0.661271 0
M  V30 69707 C 6456.51 3.36883 0.819205 0
M  V30 69708 C 6455.57 4.293 -0.00625751 0
M  V30 69709 C 6454.8 5.26837 0.853139 0
M  V30 69710 O 6455.02 5.30648 2.0921 0
M  V30 69711 O 6453.96 6.0122 0.28605 0
M  V30 69712 H 6457.78 2.91152 -0.863947 0
M  V30 69713 H 6455.37 1.41219 -0.487592 0
M  V30 69714 H 6457.25 3.99669 1.33575 0
M  V30 69715 H 6455.93 2.8258 1.57894 0
M  V30 69716 H 6454.83 3.69761 -0.568137 0
M  V30 69717 H 6456.17 4.86786 -0.728027 0
M  V30 69718 N 6457.82 0.474035 1.50302 0
M  V30 69719 C 6458.78 -0.307314 2.2713 0
M  V30 69720 C 6459.78 -0.917855 1.32031 0
M  V30 69721 O 6460.97 -0.786576 1.5543 0
M  V30 69722 C 6458.1 -1.43809 3.09082 0
M  V30 69723 H 6459.3 0.366501 2.97652 0
M  V30 69724 H 6456.85 0.228183 1.54625 0
M  V30 69725 H 6457.58 -2.14687 2.43064 0
M  V30 69726 H 6457.37 -1.00607 3.78973 0
M  V30 69727 H 6458.86 -1.98919 3.6718 0
M  V30 69728 N 6459.3 -1.56238 0.206757 0
M  V30 69729 C 6460.52 -2.02738 -0.437273 0
M  V30 69730 C 6460.95 -1.08582 -1.53595 0
M  V30 69731 O 6460.31 -0.0713532 -1.8116 0
M  V30 69732 C 6460.35 -3.47591 -0.959852 0
M  V30 69733 O 6459.46 -3.56564 -2.0721 0
M  V30 69734 H 6458.8 -0.656301 -0.100822 0
M  V30 69735 H 6461.33 -2.02065 0.321056 0
M  V30 69736 H 6461.34 -3.87617 -1.27347 0
M  V30 69737 H 6460.01 -4.15609 -0.155634 0
M  V30 69738 H 6458.59 -3.28418 -1.76624 0
M  V30 69739 N 6460.78 0.0667605 -1.57459 0
M  V30 69740 C 6461.71 1.10562 -2.0077 0
M  V30 69741 C 6462.72 1.34693 -0.914426 0
M  V30 69742 O 6463.91 1.32844 -1.19225 0
M  V30 69743 C 6461.01 2.45548 -2.33579 0
M  V30 69744 C 6460.18 2.41303 -3.64817 0
M  V30 69745 C 6459.24 3.58437 -3.85239 0
M  V30 69746 O 6458.27 3.39638 -4.56766 0
M  V30 69747 N 6459.47 4.78969 -3.27978 0
M  V30 69748 H 6462.23 0.736745 -2.90503 0
M  V30 69749 H 6459.8 0.255336 -1.59874 0
M  V30 69750 H 6461.79 3.22561 -2.44411 0
M  V30 69751 H 6460.36 2.74419 -1.4971 0
M  V30 69752 H 6459.58 1.49642 -3.64693 0
M  V30 69753 H 6460.87 2.35573 -4.5098 0
M  V30 69754 H 6460.26 4.97146 -2.69931 0
M  V30 69755 H 6458.82 5.53476 -3.4425 0
M  V30 69756 N 6462.25 1.53927 0.338263 0
M  V30 69757 C 6463.16 1.85287 1.43896 0
M  V30 69758 C 6464.18 0.743463 1.57317 0
M  V30 69759 O 6465.36 1.0363 1.72693 0
M  V30 69760 C 6462.42 2.06067 2.78814 0
M  V30 69761 C 6461.48 3.29913 2.74692 0
M  V30 69762 C 6460.71 3.49693 4.03175 0
M  V30 69763 O 6460.94 2.73204 5.00715 0
M  V30 69764 O 6459.87 4.43136 4.07326 0
M  V30 69765 H 6463.7 2.78853 1.2031 0
M  V30 69766 H 6461.28 1.39648 0.530933 0
M  V30 69767 H 6463.16 2.2115 3.58707 0
M  V30 69768 H 6461.84 1.15689 3.0232 0
M  V30 69769 H 6460.75 3.20229 1.93402 0
M  V30 69770 H 6462.08 4.20301 2.5614 0
M  V30 69771 N 6463.73 -0.599557 1.4575 0
M  V30 69772 C 6464.66 -1.72033 1.57883 0
M  V30 69773 C 6465.64 -1.64577 0.429951 0
M  V30 69774 O 6466.83 -1.82853 0.654101 0
M  V30 69775 C 6463.96 -3.10652 1.55282 0
M  V30 69776 C 6462.91 -3.32926 2.68969 0
M  V30 69777 C 6462.24 -4.719 2.51425 0
M  V30 69778 C 6463.54 -3.22397 4.10923 0
M  V30 69779 H 6465.23 -1.62135 2.51699 0
M  V30 69780 H 6462.78 -0.778598 1.21136 0
M  V30 69781 H 6464.73 -3.88864 1.62366 0
M  V30 69782 H 6463.45 -3.21409 0.580004 0
M  V30 69783 H 6462.11 -2.57107 2.61326 0
M  V30 69784 H 6461.76 -4.794 1.52264 0
M  V30 69785 H 6461.46 -4.87758 3.27667 0
M  V30 69786 H 6462.99 -5.52302 2.60374 0
M  V30 69787 H 6464.4 -3.90473 4.19766 0
M  V30 69788 H 6462.8 -3.49782 4.87619 0
M  V30 69789 H 6463.87 -2.19717 4.32264 0
M  V30 69790 N 6465.21 -1.33174 -0.842756 0
M  V30 69791 C 6466.14 -1.18937 -1.95925 0
M  V30 69792 C 6467.15 -0.121323 -1.62347 0
M  V30 69793 O 6468.34 -0.371388 -1.74594 0
M  V30 69794 C 6465.44 -0.800938 -3.293 0
M  V30 69795 C 6464.62 -1.95981 -3.91038 0
M  V30 69796 C 6463.68 -1.55298 -5.02761 0
M  V30 69797 O 6462.7 -2.26675 -5.22118 0
M  V30 69798 N 6463.9 -0.455756 -5.78708 0
M  V30 69799 H 6466.67 -2.15115 -2.08676 0
M  V30 69800 H 6464.23 -1.25868 -1.01827 0
M  V30 69801 H 6466.22 -0.51095 -4.01462 0
M  V30 69802 H 6464.79 0.0700419 -3.12522 0
M  V30 69803 H 6464.01 -2.41564 -3.11514 0
M  V30 69804 H 6465.3 -2.73532 -4.29019 0
M  V30 69805 H 6464.7 0.138063 -5.65531 0
M  V30 69806 H 6463.25 -0.225425 -6.5141 0
M  V30 69807 N 6466.69 1.06052 -1.16579 0
M  V30 69808 C 6467.62 2.13553 -0.832344 0
M  V30 69809 C 6468.63 1.61997 0.161479 0
M  V30 69810 O 6469.82 1.78387 -0.0636186 0
M  V30 69811 C 6466.92 3.38192 -0.21894 0
M  V30 69812 C 6466.09 4.19055 -1.25347 0
M  V30 69813 C 6465.15 5.22052 -0.659423 0
M  V30 69814 O 6464.18 5.53469 -1.32893 0
M  V30 69815 N 6465.38 5.77863 0.552679 0
M  V30 69816 H 6468.15 2.42756 -1.75754 0
M  V30 69817 H 6465.71 1.22074 -1.06346 0
M  V30 69818 H 6467.7 4.04246 0.191561 0
M  V30 69819 H 6466.27 3.06593 0.609859 0
M  V30 69820 H 6465.49 3.4862 -1.84005 0
M  V30 69821 H 6466.78 4.69885 -1.95155 0
M  V30 69822 H 6466.18 5.54608 1.11473 0
M  V30 69823 H 6464.73 6.45482 0.905358 0
M  V30 69824 N 6468.17 0.964658 1.24628 0
M  V30 69825 C 6469.41 0.620496 1.91919 0
M  V30 69826 C 6469.73 -0.847789 1.76272 0
M  V30 69827 O 6470.93 -1.30234 2.38225 0
M  V30 69828 C 6469.39 1.05912 3.43963 0
M  V30 69829 C 6469 2.55065 3.68301 0
M  V30 69830 C 6470.74 0.787964 4.17123 0
M  V30 69831 C 6468.65 2.92676 5.13901 0
M  V30 69832 H 6467.58 0.228365 0.718586 0
M  V30 69833 H 6470.23 1.17046 1.41324 0
M  V30 69834 H 6468.61 0.437495 3.93576 0
M  V30 69835 H 6469.79 3.22332 3.293 0
M  V30 69836 H 6468.1 2.79759 3.08422 0
M  V30 69837 H 6470.7 1.04501 5.24389 0
M  V30 69838 H 6471.04 -0.275786 4.15385 0
M  V30 69839 H 6471.57 1.37042 3.73449 0
M  V30 69840 H 6468.31 3.9811 5.20758 0
M  V30 69841 H 6467.83 2.30091 5.53912 0
M  V30 69842 H 6469.51 2.82415 5.82109 0
M  V30 69843 N 6469.64 -1.39442 0.734411 0
M  V30 69844 C 6470.59 -2.27892 0.0701237 0
M  V30 69845 C 6471.58 -1.44229 -0.713215 0
M  V30 69846 O 6472.77 -1.67147 -0.582321 0
M  V30 69847 C 6469.9 -3.32945 -0.836822 0
M  V30 69848 C 6468.98 -4.24073 -0.0476641 0
M  V30 69849 N 6469.38 -4.96237 0.978885 0
M  V30 69850 C 6467.67 -4.45136 -0.277407 0
M  V30 69851 C 6468.37 -5.63217 1.4547 0
M  V30 69852 N 6467.35 -5.3807 0.773415 0
M  V30 69853 H 6471.15 -2.81139 0.856624 0
M  V30 69854 H 6468.67 -1.52117 0.568689 0
M  V30 69855 H 6470.66 -3.95177 -1.32819 0
M  V30 69856 H 6469.32 -2.81257 -1.62249 0
M  V30 69857 H 6470.33 -4.99718 1.36023 0
M  V30 69858 H 6467.01 -4.04393 -1.03792 0
M  V30 69859 H 6468.4 -6.30989 2.30873 0
M  V30 69860 N 6471.12 -0.481999 -1.50048 0
M  V30 69861 C 6472.05 0.342926 -2.2662 0
M  V30 69862 C 6473.07 0.947492 -1.32387 0
M  V30 69863 O 6474.26 0.834049 -1.57816 0
M  V30 69864 C 6471.36 1.49598 -3.04095 0
M  V30 69865 C 6470.53 1.00221 -4.25763 0
M  V30 69866 C 6469.59 2.0306 -4.85441 0
M  V30 69867 O 6468.61 1.60681 -5.4605 0
M  V30 69868 N 6469.82 3.35959 -4.73405 0
M  V30 69869 H 6472.58 -0.313562 -2.98055 0
M  V30 69870 H 6470.14 -0.313418 -1.58837 0
M  V30 69871 H 6472.13 2.18111 -3.40896 0
M  V30 69872 H 6470.7 2.05696 -2.35389 0
M  V30 69873 H 6469.92 0.142601 -3.93942 0
M  V30 69874 H 6471.21 0.65041 -5.04626 0
M  V30 69875 H 6470.61 3.73092 -4.25228 0
M  V30 69876 H 6469.17 4.00238 -5.14444 0
M  V30 69877 N 6472.6 1.56126 -0.21504 0
M  V30 69878 C 6473.83 2.02226 0.422848 0
M  V30 69879 C 6474.24 1.09418 1.54351 0
M  V30 69880 O 6473.58 0.0948753 1.83455 0
M  V30 69881 C 6473.64 3.44681 1.02154 0
M  V30 69882 C 6473.31 4.56985 0.0371376 0
M  V30 69883 C 6474.3 5.14302 -0.760853 0
M  V30 69884 C 6471.99 5.02237 -0.0797294 0
M  V30 69885 C 6473.98 6.15338 -1.66248 0
M  V30 69886 C 6471.67 6.03111 -0.984895 0
M  V30 69887 C 6472.67 6.59537 -1.77482 0
M  V30 69888 O 6472.36 7.58449 -2.66478 0
M  V30 69889 H 6472.09 0.667244 0.108451 0
M  V30 69890 H 6474.64 2.02781 -0.326983 0
M  V30 69891 H 6472.87 3.41175 1.82034 0
M  V30 69892 H 6474.56 3.74468 1.56616 0
M  V30 69893 H 6475.33 4.80195 -0.680979 0
M  V30 69894 H 6471.21 4.58001 0.524982 0
M  V30 69895 H 6474.75 6.59307 -2.27948 0
M  V30 69896 H 6470.65 6.3664 -1.06581 0
M  V30 69897 H 6471.41 7.75946 -2.6048 0
M  V30 69898 N 6474.08 -0.0584092 1.57492 0
M  V30 69899 C 6475.33 -0.753894 1.87081 0
M  V30 69900 C 6475.64 -1.7806 0.809574 0
M  V30 69901 O 6476.85 -2.5266 0.993738 0
M  V30 69902 C 6475.3 -1.3918 3.31899 0
M  V30 69903 C 6474.91 -0.402969 4.46184 0
M  V30 69904 C 6476.65 -2.06887 3.70673 0
M  V30 69905 C 6474.56 -1.04755 5.82048 0
M  V30 69906 H 6473.49 -0.285316 0.697933 0
M  V30 69907 H 6476.14 -0.00746869 1.83498 0
M  V30 69908 H 6474.52 -2.18694 3.30135 0
M  V30 69909 H 6475.7 0.363331 4.59365 0
M  V30 69910 H 6474.01 0.170384 4.16051 0
M  V30 69911 H 6476.61 -2.55912 4.69482 0
M  V30 69912 H 6476.95 -2.87422 3.01155 0
M  V30 69913 H 6477.49 -1.34186 3.74485 0
M  V30 69914 H 6474.23 -0.282238 6.54892 0
M  V30 69915 H 6473.75 -1.78439 5.72643 0
M  V30 69916 H 6475.42 -1.5635 6.27825 0
M  V30 69917 N 6475.56 -1.54104 -0.330095 0
M  V30 69918 C 6476.49 -1.7787 -1.4296 0
M  V30 69919 C 6477.47 -0.628372 -1.49967 0
M  V30 69920 O 6478.65 -0.86507 -1.67478 0
M  V30 69921 C 6475.78 -1.88941 -2.81103 0
M  V30 69922 C 6474.82 -3.11188 -2.91658 0
M  V30 69923 S 6475.66 -4.69942 -2.56739 0
M  V30 69924 C 6476.81 -4.8391 -3.96965 0
M  V30 69925 H 6477.05 -2.7085 -1.22587 0
M  V30 69926 H 6474.58 -1.45144 -0.526552 0
M  V30 69927 H 6476.54 -1.96005 -3.60683 0
M  V30 69928 H 6475.2 -0.969497 -2.98763 0
M  V30 69929 H 6474.39 -3.15649 -3.92914 0
M  V30 69930 H 6473.99 -3.02419 -2.20042 0
M  V30 69931 H 6476.29 -4.66146 -4.91644 0
M  V30 69932 H 6477.23 -5.86009 -3.97491 0
M  V30 69933 H 6477.64 -4.12263 -3.85616 0
M  V30 69934 N 6477.03 0.591819 -1.46066 0
M  V30 69935 C 6478 1.68352 -1.55532 0
M  V30 69936 C 6479 1.54852 -0.433302 0
M  V30 69937 O 6480.19 1.59634 -0.697314 0
M  V30 69938 C 6477.32 3.07724 -1.46693 0
M  V30 69939 H 6478.51 1.6132 -2.52816 0
M  V30 69940 H 6476.07 0.808894 -1.33741 0
M  V30 69941 H 6476.8 3.2032 -0.506546 0
M  V30 69942 H 6476.59 3.18931 -2.28091 0
M  V30 69943 H 6478.08 3.87213 -1.56384 0
M  V30 69944 N 6478.51 1.33619 0.835682 0
M  V30 69945 C 6479.44 1.26769 1.96092 0
M  V30 69946 C 6480.42 0.147623 1.69458 0
M  V30 69947 O 6481.61 0.337918 1.91237 0
M  V30 69948 C 6478.74 1.00939 3.32308 0
M  V30 69949 C 6477.69 2.09274 3.73347 0
M  V30 69950 C 6477.02 1.68653 5.07405 0
M  V30 69951 C 6478.32 3.50981 3.86794 0
M  V30 69952 H 6480.01 2.20915 2.02081 0
M  V30 69953 H 6477.56 1.06349 0.970869 0
M  V30 69954 H 6479.51 0.947953 4.10599 0
M  V30 69955 H 6478.24 0.0323171 3.26584 0
M  V30 69956 H 6476.89 2.14465 2.97322 0
M  V30 69957 H 6476.54 0.696398 4.98156 0
M  V30 69958 H 6476.24 2.41152 5.35835 0
M  V30 69959 H 6477.77 1.63981 5.88169 0
M  V30 69960 H 6479.18 3.48273 4.55388 0
M  V30 69961 H 6477.58 4.21993 4.26663 0
M  V30 69962 H 6478.65 3.89254 2.89153 0
M  V30 69963 N 6479.99 -1.05432 1.1714 0
M  V30 69964 C 6481.41 -1.30545 0.918153 0
M  V30 69965 C 6481.61 -1.96987 -0.424083 0
M  V30 69966 O 6480.66 -2.24193 -1.16162 0
M  V30 69967 C 6481.98 -2.17761 2.07366 0
M  V30 69968 C 6483.52 -2.31151 2.11041 0
M  V30 69969 C 6484 -3.21726 3.2597 0
M  V30 69970 N 6485.49 -3.29311 3.25743 0
M  V30 69971 C 6486.22 -3.99512 4.11313 0
M  V30 69972 N 6485.72 -4.72161 5.06987 0
M  V30 69973 N 6487.51 -3.95651 3.9927 0
M  V30 69974 H 6479.66 -0.607047 2.0354 0
M  V30 69975 H 6481.93 -0.330267 0.88861 0
M  V30 69976 H 6481.63 -1.76229 3.04362 0
M  V30 69977 H 6481.51 -3.18387 2.02262 0
M  V30 69978 H 6483.89 -2.71925 1.14632 0
M  V30 69979 H 6483.98 -1.30163 2.20207 0
M  V30 69980 H 6483.62 -2.81666 4.22643 0
M  V30 69981 H 6483.55 -4.22713 3.1404 0
M  V30 69982 H 6486.04 -2.77546 2.5647 0
M  V30 69983 H 6486.35 -5.2328 5.68681 0
M  V30 69984 H 6484.7 -4.71111 5.10959 0
M  V30 69985 H 6487.89 -3.38019 3.23822 0
M  V30 69986 H 6488.06 -4.50092 4.66177 0
M  V30 69987 N 6481.47 -0.971254 -1.24115 0
M  V30 69988 C 6482.38 -0.511985 -2.28945 0
M  V30 69989 C 6483.39 0.428784 -1.68634 0
M  V30 69990 O 6484.57 0.300953 -1.99139 0
M  V30 69991 C 6481.64 0.1871 -3.46195 0
M  V30 69992 C 6480.7 -0.793935 -4.21895 0
M  V30 69993 C 6479.93 -0.128117 -5.33546 0
M  V30 69994 O 6480.15 1.08281 -5.60028 0
M  V30 69995 O 6479.09 -0.822073 -5.9626 0
M  V30 69996 H 6482.91 -1.38355 -2.70354 0
M  V30 69997 H 6480.5 -0.738456 -1.29874 0
M  V30 69998 H 6482.38 0.579655 -4.17394 0
M  V30 69999 H 6481.05 1.03358 -3.06755 0
M  V30 70000 H 6479.96 -1.23702 -3.53056 0
M  V30 70001 H 6481.29 -1.60894 -4.6516 0
M  V30 70002 N 6482.95 1.39051 -0.741796 0
M  V30 70003 C 6483.86 2.34351 -0.108028 0
M  V30 70004 C 6484.87 1.58668 0.714165 0
M  V30 70005 O 6486.05 1.90925 0.641057 0
M  V30 70006 C 6483.11 3.37733 0.783428 0
M  V30 70007 C 6482.17 4.29269 -0.0517901 0
M  V30 70008 C 6481.41 5.27712 0.797213 0
M  V30 70009 O 6481.63 5.32837 2.0357 0
M  V30 70010 O 6480.56 6.01489 0.222266 0
M  V30 70011 H 6484.39 2.9022 -0.894779 0
M  V30 70012 H 6481.98 1.40694 -0.502543 0
M  V30 70013 H 6483.86 4.01064 1.29328 0
M  V30 70014 H 6482.53 2.84238 1.54888 0
M  V30 70015 H 6481.44 3.69137 -0.607323 0
M  V30 70016 H 6482.77 4.85986 -0.779616 0
M  V30 70017 N 6484.42 0.489949 1.49791 0
M  V30 70018 C 6485.65 -0.0555264 2.06525 0
M  V30 70019 C 6486.06 -1.3237 1.35184 0
M  V30 70020 O 6485.41 -1.78824 0.420434 0
M  V30 70021 C 6485.47 -0.390649 3.57371 0
M  V30 70022 C 6485.13 0.77821 4.50325 0
M  V30 70023 C 6486.13 1.66561 4.92497 0
M  V30 70024 C 6483.81 0.973883 4.92769 0
M  V30 70025 C 6485.81 2.73292 5.75839 0
M  V30 70026 C 6483.49 2.04439 5.75889 0
M  V30 70027 C 6484.49 2.92226 6.17327 0
M  V30 70028 O 6484.18 3.97431 6.98787 0
M  V30 70029 H 6483.91 0.0122488 0.675889 0
M  V30 70030 H 6486.47 0.683279 1.93702 0
M  V30 70031 H 6484.7 -1.1829 3.68163 0
M  V30 70032 H 6486.39 -0.873429 3.96391 0
M  V30 70033 H 6487.15 1.5262 4.60361 0
M  V30 70034 H 6483.03 0.299993 4.60023 0
M  V30 70035 H 6486.57 3.41843 6.08103 0
M  V30 70036 H 6482.47 2.18379 6.07438 0
M  V30 70037 H 6483.24 3.94649 7.17073 0
M  V30 70038 N 6485.9 -1.5601 0.223316 0
M  V30 70039 C 6487.15 -1.98349 -0.407907 0
M  V30 70040 C 6487.48 -1.11099 -1.59647 0
M  V30 70041 O 6486.73 -0.156341 -1.95075 0
M  V30 70042 C 6487.03 -3.46305 -0.88361 0
M  V30 70043 C 6486.7 -4.5048 0.194624 0
M  V30 70044 C 6485.36 -4.7869 0.49082 0
M  V30 70045 C 6487.71 -5.12949 0.923752 0
M  V30 70046 C 6485.04 -5.66651 1.52063 0
M  V30 70047 C 6487.39 -6.02025 1.94291 0
M  V30 70048 C 6486.06 -6.28578 2.24601 0
M  V30 70049 H 6485.33 -0.725811 -0.149264 0
M  V30 70050 H 6487.97 -1.88701 0.326205 0
M  V30 70051 H 6486.28 -3.53165 -1.69651 0
M  V30 70052 H 6487.97 -3.76437 -1.38189 0
M  V30 70053 H 6484.56 -4.28575 -0.0463873 0
M  V30 70054 H 6488.75 -4.91222 0.708161 0
M  V30 70055 H 6484 -5.85488 1.76106 0
M  V30 70056 H 6488.18 -6.4948 2.51294 0
M  V30 70057 H 6485.81 -6.96534 3.0454 0
M  V30 70058 N 6487.38 0.0500562 -1.5752 0
M  V30 70059 C 6488.66 0.779262 -1.79407 0
M  V30 70060 C 6489.04 1.94679 -0.816283 0
M  V30 70061 O 6488.39 2.28033 0.146073 0
M  V30 70062 C 6488.6 1.23194 -3.26534 0
M  V30 70063 C 6489.94 1.65647 -3.90956 0
M  V30 70064 O 6490.97 1.32706 -3.30556 0
M  V30 70065 O 6489.83 2.2671 -4.97257 0
M  V30 70066 H 6486.92 0.375102 -0.73704 0
M  V30 70067 H 6489.47 0.0284521 -1.69676 0
M  V30 70068 H 6488.24 0.397527 -3.89275 0
M  V30 70069 H 6487.86 2.04341 -3.41073 0
M  V30 70070 N 6488.86 1.54277 0.321918 0
M  V30 70071 C 6490.27 1.63781 0.896251 0
M  V30 70072 C 6490.62 0.532937 1.88823 0
M  V30 70073 O 6489.75 -0.333895 2.13809 0
M  V30 70074 C 6490.34 2.96884 1.63235 0
M  V30 70075 C 6488.9 3.08578 2.15538 0
M  V30 70076 C 6488.05 2.59357 0.981294 0
M  V30 70077 H 6491 1.58388 0.0994564 0
M  V30 70078 H 6491.02 2.87136 2.49667 0
M  V30 70079 H 6490.53 3.77278 0.910118 0
M  V30 70080 H 6488.63 2.32862 2.90871 0
M  V30 70081 H 6488.75 4.14406 2.40426 0
M  V30 70082 H 6487.11 2.15292 1.36093 0
M  V30 70083 H 6487.89 3.4221 0.273357 0
M  V30 70084 N 6490.34 -0.584065 1.46378 0
M  V30 70085 C 6491.56 -1.37325 1.55424 0
M  V30 70086 C 6491.99 -1.87081 0.195537 0
M  V30 70087 O 6491.35 -1.61489 -0.824085 0
M  V30 70088 C 6491.39 -2.5377 2.56189 0
M  V30 70089 O 6490.5 -3.55165 2.09599 0
M  V30 70090 H 6489.84 -0.409024 0.523064 0
M  V30 70091 H 6492.37 -0.708587 1.91938 0
M  V30 70092 H 6492.38 -3.00705 2.75754 0
M  V30 70093 H 6491.05 -2.16908 3.54857 0
M  V30 70094 H 6489.63 -3.14719 2.00016 0
M  V30 70095 N 6491.82 -1.34061 -0.828584 0
M  V30 70096 C 6493.06 -1.25442 -1.57947 0
M  V30 70097 C 6493.38 0.175416 -1.94812 0
M  V30 70098 O 6494.58 0.383702 -2.68775 0
M  V30 70099 C 6493.04 -2.19863 -2.84935 0
M  V30 70100 C 6492.65 -3.68073 -2.55394 0
M  V30 70101 C 6494.39 -2.20141 -3.62958 0
M  V30 70102 C 6492.3 -4.54379 -3.78541 0
M  V30 70103 H 6491.23 -0.465973 -0.592777 0
M  V30 70104 H 6493.88 -1.5919 -0.912727 0
M  V30 70105 H 6492.26 -1.7906 -3.53205 0
M  V30 70106 H 6493.44 -4.1738 -1.95271 0
M  V30 70107 H 6491.75 -3.70188 -1.90657 0
M  V30 70108 H 6494.35 -2.81847 -4.54386 0
M  V30 70109 H 6494.69 -1.19919 -3.98654 0
M  V30 70110 H 6495.22 -2.59359 -3.01625 0
M  V30 70111 H 6491.96 -5.55516 -3.47969 0
M  V30 70112 H 6491.48 -4.09811 -4.37967 0
M  V30 70113 H 6493.16 -4.68702 -4.46012 0
M  V30 70114 N 6493.29 1.0481 -1.17698 0
M  V30 70115 C 6494.54 1.78143 -0.969167 0
M  V30 70116 C 6494.87 1.87636 0.500649 0
M  V30 70117 O 6494.15 1.37897 1.37167 0
M  V30 70118 C 6494.43 3.21824 -1.61559 0
M  V30 70119 C 6494.28 3.20321 -3.15777 0
M  V30 70120 C 6495.6 4.19754 -1.32266 0
M  V30 70121 H 6492.72 0.646688 -0.353501 0
M  V30 70122 H 6495.36 1.2248 -1.45254 0
M  V30 70123 H 6493.51 3.69354 -1.20458 0
M  V30 70124 H 6495.19 2.80837 -3.65962 0
M  V30 70125 H 6493.43 2.58556 -3.48327 0
M  V30 70126 H 6494.1 4.21746 -3.56138 0
M  V30 70127 H 6496.58 3.80737 -1.67864 0
M  V30 70128 H 6495.45 5.18521 -1.80075 0
M  V30 70129 H 6495.71 4.41425 -0.244157 0
M  V30 70130 N 6494.77 0.977823 1.23598 0
M  V30 70131 C 6496.02 0.644003 1.91565 0
M  V30 70132 C 6496.34 -0.824736 1.76701 0
M  V30 70133 O 6495.61 -1.5897 1.14479 0
M  V30 70134 H 6494.19 0.235202 0.709006 0
M  V30 70135 H 6496.85 1.24108 1.50277 0
M  V30 70136 H 6495.95 0.893387 2.9904 0
M  V30 70137 N 6496.25 -1.38656 0.749159 0
M  V30 70138 C 6497.5 -2.00981 0.312738 0
M  V30 70139 C 6497.85 -1.58399 -1.09213 0
M  V30 70140 O 6497.14 -0.809444 -1.73662 0
M  V30 70141 C 6497.34 -3.55492 0.368778 0
M  V30 70142 C 6497.17 -4.13078 1.77755 0
M  V30 70143 C 6495.94 -4.45039 2.39307 0
M  V30 70144 C 6498.13 -4.35643 2.73349 0
M  V30 70145 N 6496.12 -4.88207 3.72192 0
M  V30 70146 C 6497.49 -4.81171 3.90992 0
M  V30 70147 C 6499.54 -4.17734 2.70929 0
M  V30 70148 C 6498.25 -5.10668 5.06568 0
M  V30 70149 C 6500.27 -4.48354 3.85659 0
M  V30 70150 C 6499.63 -4.94101 5.0204 0
M  V30 70151 H 6495.73 -0.765247 0.161002 0
M  V30 70152 H 6498.32 -1.68345 0.978165 0
M  V30 70153 H 6496.49 -3.87486 -0.26636 0
M  V30 70154 H 6498.22 -4.04605 -0.0875403 0
M  V30 70155 H 6494.97 -4.33329 1.9111 0
M  V30 70156 H 6495.4 -5.14131 4.40453 0
M  V30 70157 H 6500.04 -3.81557 1.82138 0
M  V30 70158 H 6497.76 -5.45744 5.95977 0
M  V30 70159 H 6501.34 -4.36106 3.85101 0
M  V30 70160 H 6500.22 -5.17342 5.89344 0
M  V30 70161 N 6497.73 -0.497886 -1.49529 0
M  V30 70162 C 6498.96 0.0446378 -2.06852 0
M  V30 70163 C 6499.37 1.31101 -1.3586 0
M  V30 70164 O 6498.73 1.77216 -0.43597 0
M  V30 70165 C 6498.78 0.305379 -3.60208 0
M  V30 70166 O 6498.5 -0.910794 -4.28528 0
M  V30 70167 C 6500 0.891891 -4.34235 0
M  V30 70168 H 6497.22 -0.0190698 -0.670729 0
M  V30 70169 H 6499.76 -0.694351 -1.92351 0
M  V30 70170 H 6497.92 0.994344 -3.74422 0
M  V30 70171 H 6498.33 -0.671733 -5.20181 0
M  V30 70172 H 6499.81 1.02394 -5.4242 0
M  V30 70173 H 6500.28 1.88889 -3.96507 0
M  V30 70174 H 6500.89 0.24049 -4.2462 0
M  V30 70175 N 6499.21 1.55889 -0.231587 0
M  V30 70176 C 6500.45 1.98857 0.397971 0
M  V30 70177 C 6500.78 1.11931 1.58698 0
M  V30 70178 O 6500.06 0.179223 1.93673 0
M  V30 70179 C 6500.34 3.50575 0.82277 0
M  V30 70180 C 6500.2 4.48271 -0.370575 0
M  V30 70181 C 6501.51 4.06965 1.67533 0
M  V30 70182 H 6498.63 0.722958 0.143182 0
M  V30 70183 H 6501.28 1.87115 -0.329833 0
M  V30 70184 H 6499.43 3.60711 1.4429 0
M  V30 70185 H 6501.1 4.50133 -1.00885 0
M  V30 70186 H 6499.34 4.21727 -1.01632 0
M  V30 70187 H 6500.01 5.51992 -0.0302498 0
M  V30 70188 H 6502.49 3.99835 1.15199 0
M  V30 70189 H 6501.36 5.13419 1.94144 0
M  V30 70190 H 6501.62 3.54469 2.64204 0
M  V30 70191 N 6500.68 -0.0417018 1.57545 0
M  V30 70192 C 6501.63 -1.04622 2.05725 0
M  V30 70193 C 6502.6 -1.36681 0.943802 0
M  V30 70194 O 6503.79 -1.47235 1.21353 0
M  V30 70195 C 6500.93 -2.34592 2.53102 0
M  V30 70196 C 6500.04 -2.08802 3.78187 0
M  V30 70197 C 6499.17 -3.32552 4.14225 0
M  V30 70198 C 6498.21 -3.0226 5.32264 0
M  V30 70199 N 6497.35 -4.18425 5.63795 0
M  V30 70200 H 6502.19 -0.628389 2.91299 0
M  V30 70201 H 6499.73 -0.298675 1.44036 0
M  V30 70202 H 6501.68 -3.10516 2.78632 0
M  V30 70203 H 6500.31 -2.74121 1.70463 0
M  V30 70204 H 6499.37 -1.23433 3.59817 0
M  V30 70205 H 6500.68 -1.82448 4.64235 0
M  V30 70206 H 6499.83 -4.16852 4.40817 0
M  V30 70207 H 6498.57 -3.62009 3.26804 0
M  V30 70208 H 6497.58 -2.1636 5.05439 0
M  V30 70209 H 6498.8 -2.74094 6.21328 0
M  V30 70210 H 6496.75 -4.47857 4.79333 0
M  V30 70211 H 6496.66 -3.9545 6.44325 0
M  V30 70212 H 6497.93 -5.03635 5.94956 0
M  V30 70213 N 6502.16 -1.54446 -0.313732 0
M  V30 70214 C 6503.39 -1.7684 -1.06824 0
M  V30 70215 C 6503.8 -0.521754 -1.81864 0
M  V30 70216 O 6503.14 0.517563 -1.76258 0
M  V30 70217 C 6503.2 -2.91456 -2.10461 0
M  V30 70218 C 6502.87 -4.30008 -1.54731 0
M  V30 70219 C 6503.87 -5.10504 -0.983957 0
M  V30 70220 C 6501.55 -4.76578 -1.58678 0
M  V30 70221 C 6503.54 -6.35683 -0.467478 0
M  V30 70222 C 6501.23 -6.01723 -1.06643 0
M  V30 70223 C 6502.23 -6.8111 -0.507733 0
M  V30 70224 O 6501.92 -8.039 0.00476487 0
M  V30 70225 H 6501.65 -0.593761 -0.323146 0
M  V30 70226 H 6504.2 -2.02176 -0.362486 0
M  V30 70227 H 6502.43 -2.61713 -2.8468 0
M  V30 70228 H 6504.12 -3.01542 -2.71711 0
M  V30 70229 H 6504.89 -4.75675 -0.946463 0
M  V30 70230 H 6500.77 -4.14824 -2.01103 0
M  V30 70231 H 6504.31 -6.97593 -0.0307451 0
M  V30 70232 H 6500.21 -6.36041 -1.10102 0
M  V30 70233 H 6500.98 -8.18426 -0.109735 0
M  V30 70234 N 6503.64 0.576294 -1.46685 0
M  V30 70235 C 6504.87 1.35817 -1.55683 0
M  V30 70236 C 6505.28 1.88149 -0.199133 0
M  V30 70237 O 6504.62 1.64641 0.814799 0
M  V30 70238 C 6504.68 2.57727 -2.50633 0
M  V30 70239 C 6504.35 2.26817 -3.96741 0
M  V30 70240 C 6505.34 1.85263 -4.85771 0
M  V30 70241 C 6503.03 2.38764 -4.41925 0
M  V30 70242 C 6505.02 1.56059 -6.18 0
M  V30 70243 C 6502.71 2.09172 -5.74187 0
M  V30 70244 C 6503.71 1.67885 -6.62045 0
M  V30 70245 O 6503.4 1.3866 -7.91851 0
M  V30 70246 H 6503.13 0.421031 -0.528875 0
M  V30 70247 H 6505.68 0.706918 -1.92852 0
M  V30 70248 H 6503.91 3.25679 -2.08495 0
M  V30 70249 H 6505.6 3.19799 -2.49967 0
M  V30 70250 H 6506.37 1.75542 -4.52117 0
M  V30 70251 H 6502.25 2.69861 -3.73759 0
M  V30 70252 H 6505.79 1.23759 -6.86534 0
M  V30 70253 H 6501.69 2.18519 -6.07388 0
M  V30 70254 H 6502.46 1.52451 -8.04177 0
M  V30 70255 N 6505.12 1.34498 0.821463 0
M  V30 70256 C 6506.03 1.28272 1.96427 0
M  V30 70257 C 6507.04 0.190152 1.72958 0
M  V30 70258 O 6508.22 0.416886 1.97038 0
M  V30 70259 C 6505.29 1.03947 3.30751 0
M  V30 70260 C 6504.35 2.22374 3.67217 0
M  V30 70261 C 6503.58 1.992 4.95132 0
M  V30 70262 O 6503.8 0.950968 5.62417 0
M  V30 70263 O 6502.74 2.86187 5.2951 0
M  V30 70264 H 6506.56 2.24417 2.04623 0
M  V30 70265 H 6504.15 1.14719 0.957074 0
M  V30 70266 H 6506.03 0.921683 4.11197 0
M  V30 70267 H 6504.7 0.108425 3.23518 0
M  V30 70268 H 6503.61 2.39712 2.87209 0
M  V30 70269 H 6504.94 3.13873 3.79136 0
M  V30 70270 N 6506.6 -1.04184 1.18252 0
M  V30 70271 C 6507.53 -2.14096 0.931948 0
M  V30 70272 C 6508.51 -1.69603 -0.129901 0
M  V30 70273 O 6509.69 -1.94187 0.0224452 0
M  V30 70274 C 6506.82 -3.44299 0.455584 0
M  V30 70275 C 6505.78 -4.02409 1.45778 0
M  V30 70276 C 6505.1 -5.28077 0.838981 0
M  V30 70277 C 6506.4 -4.38719 2.83413 0
M  V30 70278 H 6508.1 -2.35315 1.85114 0
M  V30 70279 H 6505.64 -1.13088 0.891461 0
M  V30 70280 H 6507.6 -4.20549 0.267653 0
M  V30 70281 H 6506.32 -3.22763 -0.499177 0
M  V30 70282 H 6504.98 -3.28239 1.63263 0
M  V30 70283 H 6504.63 -5.0285 -0.122931 0
M  V30 70284 H 6504.33 -5.67917 1.5081 0
M  V30 70285 H 6505.85 -6.07006 0.661554 0
M  V30 70286 H 6507.26 -5.05961 2.69586 0
M  V30 70287 H 6505.66 -4.89606 3.46996 0
M  V30 70288 H 6506.73 -3.48601 3.37054 0
M  V30 70289 N 6508.07 -0.984364 -1.23077 0
M  V30 70290 C 6508.98 -0.536238 -2.28389 0
M  V30 70291 C 6510 0.410874 -1.69079 0
M  V30 70292 O 6511.18 0.279815 -1.99447 0
M  V30 70293 C 6508.24 0.150371 -3.46374 0
M  V30 70294 C 6507.3 -0.838638 -4.21029 0
M  V30 70295 C 6506.54 -0.1847 -5.3338 0
M  V30 70296 O 6506.76 1.02335 -5.61145 0
M  V30 70297 O 6505.69 -0.885268 -5.95354 0
M  V30 70298 H 6509.52 -1.41215 -2.68872 0
M  V30 70299 H 6507.1 -0.752189 -1.29083 0
M  V30 70300 H 6508.99 0.535352 -4.17986 0
M  V30 70301 H 6507.66 1.00098 -3.07834 0
M  V30 70302 H 6506.57 -1.27439 -3.51724 0
M  V30 70303 H 6507.9 -1.65818 -4.63428 0
M  V30 70304 N 6509.55 1.38256 -0.756502 0
M  V30 70305 C 6510.46 2.34223 -0.132878 0
M  V30 70306 C 6511.48 1.59417 0.697295 0
M  V30 70307 O 6512.65 1.91594 0.62077 0
M  V30 70308 C 6509.72 3.38545 0.747563 0
M  V30 70309 C 6508.78 4.2919 -0.0973169 0
M  V30 70310 C 6508.01 5.28528 0.741197 0
M  V30 70311 O 6508.24 5.34966 1.97907 0
M  V30 70312 O 6507.17 6.01691 0.158458 0
M  V30 70313 H 6511 2.89254 -0.925511 0
M  V30 70314 H 6508.58 1.40153 -0.517437 0
M  V30 70315 H 6510.46 4.02413 1.25067 0
M  V30 70316 H 6509.14 2.85865 1.51864 0
M  V30 70317 H 6508.05 3.68472 -0.646441 0
M  V30 70318 H 6509.38 4.85132 -0.831118 0
M  V30 70319 N 6511.03 0.505809 1.49263 0
M  V30 70320 C 6511.98 -0.270046 2.29215 0
M  V30 70321 C 6512.95 -0.955984 1.35831 0
M  V30 70322 O 6514.13 -0.961713 1.6479 0
M  V30 70323 C 6511.27 -1.32566 3.18623 0
M  V30 70324 C 6510.39 -0.65101 4.27067 0
M  V30 70325 C 6509.52 -1.68747 5.03684 0
M  V30 70326 C 6508.56 -0.99496 6.03959 0
M  V30 70327 N 6507.7 -1.97585 6.73725 0
M  V30 70328 H 6512.54 0.417984 2.95054 0
M  V30 70329 H 6510.07 0.217972 1.45476 0
M  V30 70330 H 6512.03 -1.94972 3.68838 0
M  V30 70331 H 6510.66 -1.98239 2.54757 0
M  V30 70332 H 6509.71 0.0864461 3.80302 0
M  V30 70333 H 6511.03 -0.106102 4.98687 0
M  V30 70334 H 6510.18 -2.38646 5.57793 0
M  V30 70335 H 6508.92 -2.26624 4.31848 0
M  V30 70336 H 6507.92 -0.281775 5.49077 0
M  V30 70337 H 6509.15 -0.422623 6.77784 0
M  V30 70338 H 6507.09 -2.54415 6.04656 0
M  V30 70339 H 6507.01 -1.48173 7.41337 0
M  V30 70340 H 6508.28 -2.66756 7.32435 0
M  V30 70341 N 6512.51 -1.55764 0.239851 0
M  V30 70342 C 6513.76 -1.97947 -0.387298 0
M  V30 70343 C 6514.07 -1.13105 -1.59582 0
M  V30 70344 O 6515.28 -1.45269 -2.29367 0
M  V30 70345 C 6513.73 -3.52201 -0.740447 0
M  V30 70346 C 6513.34 -4.45772 0.446288 0
M  V30 70347 C 6515.08 -4.03055 -1.33218 0
M  V30 70348 C 6512.99 -5.91359 0.069685 0
M  V30 70349 H 6511.92 -0.739236 -0.148479 0
M  V30 70350 H 6514.57 -1.80342 0.338955 0
M  V30 70351 H 6512.95 -3.65474 -1.52463 0
M  V30 70352 H 6514.13 -4.44255 1.22369 0
M  V30 70353 H 6512.44 -4.0536 0.952474 0
M  V30 70354 H 6515.04 -5.0934 -1.62716 0
M  V30 70355 H 6515.38 -3.49985 -2.25425 0
M  V30 70356 H 6515.92 -3.93079 -0.611045 0
M  V30 70357 H 6512.66 -6.48451 0.958713 0
M  V30 70358 H 6512.18 -5.96027 -0.671664 0
M  V30 70359 H 6513.85 -6.46049 -0.35061 0
M  V30 70360 N 6513.99 0.0333462 -1.57565 0
M  V30 70361 C 6515.23 0.726091 -1.89356 0
M  V30 70362 C 6515.57 1.75234 -0.837064 0
M  V30 70363 O 6514.84 1.93933 0.148384 0
M  V30 70364 C 6515.12 1.39951 -3.31792 0
M  V30 70365 C 6514.98 0.38707 -4.48131 0
M  V30 70366 C 6516.3 2.33462 -3.73073 0
M  V30 70367 H 6513.41 0.262493 -0.68867 0
M  V30 70368 H 6516.06 -0.0110953 -1.89997 0
M  V30 70369 H 6514.21 2.02786 -3.31376 0
M  V30 70370 H 6515.88 -0.239029 -4.6068 0
M  V30 70371 H 6514.12 -0.294063 -4.32802 0
M  V30 70372 H 6514.79 0.896654 -5.44669 0
M  V30 70373 H 6517.27 1.80674 -3.74828 0
M  V30 70374 H 6516.14 2.77563 -4.7355 0
M  V30 70375 H 6516.41 3.19951 -3.05096 0
M  V30 70376 N 6515.46 1.5461 0.305537 0
M  V30 70377 C 6516.69 1.77984 1.06472 0
M  V30 70378 C 6517.11 0.535519 1.80316 0
M  V30 70379 O 6516.47 -0.513752 1.73869 0
M  V30 70380 C 6516.52 2.98407 2.02449 0
M  V30 70381 O 6515.62 2.71214 3.10671 0
M  V30 70382 H 6514.97 0.589239 0.306094 0
M  V30 70383 H 6517.5 2.01682 0.34434 0
M  V30 70384 H 6517.51 3.26252 2.44997 0
M  V30 70385 H 6516.18 3.88635 1.48107 0
M  V30 70386 H 6514.76 2.54372 2.72671 0
M  V30 70387 N 6516.94 -0.568506 1.46989 0
M  V30 70388 C 6517.87 -1.68645 1.61496 0
M  V30 70389 C 6518.85 -1.63628 0.464763 0
M  V30 70390 O 6520.04 -1.81424 0.69274 0
M  V30 70391 C 6517.17 -3.07288 1.61837 0
M  V30 70392 C 6516.12 -3.27146 2.7597 0
M  V30 70393 C 6515.45 -4.66461 2.61378 0
M  V30 70394 C 6516.75 -3.13608 4.17669 0
M  V30 70395 H 6518.44 -1.5676 2.55082 0
M  V30 70396 H 6515.99 -0.752728 1.2276 0
M  V30 70397 H 6517.94 -3.85332 1.70578 0
M  V30 70398 H 6516.67 -3.20106 0.648049 0
M  V30 70399 H 6515.32 -2.51506 2.66721 0
M  V30 70400 H 6514.97 -4.76063 1.62398 0
M  V30 70401 H 6514.67 -4.80698 3.37939 0
M  V30 70402 H 6516.2 -5.46655 2.72031 0
M  V30 70403 H 6517.61 -3.81482 4.27954 0
M  V30 70404 H 6516.01 -3.39361 4.94929 0
M  V30 70405 H 6517.08 -2.10499 4.36827 0
M  V30 70406 N 6518.42 -1.34932 -0.814318 0
M  V30 70407 C 6519.67 -1.2711 -1.56607 0
M  V30 70408 C 6519.98 0.154744 -1.94987 0
M  V30 70409 O 6521.19 0.355174 -2.69167 0
M  V30 70410 C 6519.65 -2.22873 -2.82587 0
M  V30 70411 C 6519.25 -3.70761 -2.51476 0
M  V30 70412 C 6521 -2.23978 -3.60603 0
M  V30 70413 C 6518.9 -4.58369 -3.73701 0
M  V30 70414 H 6517.83 -0.472234 -0.587802 0
M  V30 70415 H 6520.49 -1.60149 -0.895791 0
M  V30 70416 H 6518.87 -1.82796 -3.51286 0
M  V30 70417 H 6520.04 -4.19427 -1.90833 0
M  V30 70418 H 6518.36 -3.72189 -1.8672 0
M  V30 70419 H 6520.95 -2.8665 -4.51371 0
M  V30 70420 H 6521.3 -1.2414 -3.9736 0
M  V30 70421 H 6521.83 -2.62544 -2.98857 0
M  V30 70422 H 6518.57 -5.59175 -3.42058 0
M  V30 70423 H 6518.09 -4.14433 -4.33596 0
M  V30 70424 H 6519.77 -4.73407 -4.41016 0
M  V30 70425 N 6519.9 1.03555 -1.18803 0
M  V30 70426 C 6520.85 2.11684 -0.919697 0
M  V30 70427 C 6521.82 1.65484 0.1429 0
M  V30 70428 O 6523 1.908 0.00217265 0
M  V30 70429 C 6520.14 3.42059 -0.457157 0
M  V30 70430 C 6519.25 4.01843 -1.58576 0
M  V30 70431 C 6518.39 5.202 -1.07543 0
M  V30 70432 C 6517.43 5.72026 -2.17837 0
M  V30 70433 N 6516.57 6.81665 -1.6816 0
M  V30 70434 H 6521.41 2.33974 -1.84554 0
M  V30 70435 H 6518.94 1.14763 -0.920213 0
M  V30 70436 H 6520.9 4.16852 -0.170426 0
M  V30 70437 H 6519.53 3.199 0.431702 0
M  V30 70438 H 6518.58 3.24328 -1.98785 0
M  V30 70439 H 6519.89 4.36329 -2.41699 0
M  V30 70440 H 6519.05 6.02127 -0.743526 0
M  V30 70441 H 6517.79 4.87231 -0.213843 0
M  V30 70442 H 6516.79 4.88716 -2.51866 0
M  V30 70443 H 6518.02 6.07036 -3.0444 0
M  V30 70444 H 6515.96 6.50561 -0.842993 0
M  V30 70445 H 6515.88 7.15242 -2.44877 0
M  V30 70446 H 6517.15 7.67203 -1.37913 0
M  V30 70447 N 6521.38 0.990877 1.22554 0
M  V30 70448 C 6522.33 0.532354 2.26426 0
M  V30 70449 C 6523.32 -0.415954 1.64214 0
M  V30 70450 O 6524.53 -0.288696 1.7767 0
M  V30 70451 H 6520.9 0.153758 0.736113 0
M  V30 70452 H 6522.87 1.4199 2.62452 0
M  V30 70453 C 6521.62 -0.139329 3.47421 0
M  V30 70454 H 6520.94 0.581311 3.95551 0
M  V30 70455 H 6522.38 -0.423641 4.21878 0
M  V30 70456 C 6520.84 -1.374 3.07608 0
M  V30 70457 O 6521.37 -2.46949 3.16826 0
M  V30 70458 N 6519.58 -1.2485 2.62413 0
M  V30 70459 H 6519.13 -0.357122 2.55113 0
M  V30 70460 H 6519.08 -2.07566 2.36143 0
M  V30 70461 N 6522.86 -1.37853 0.763824 0
M  V30 70462 C 6523.79 -2.32961 0.158597 0
M  V30 70463 C 6524.77 -1.55384 -0.692088 0
M  V30 70464 O 6525.95 -1.83657 -0.631176 0
M  V30 70465 C 6523.08 -3.39596 -0.727466 0
M  V30 70466 C 6522.04 -4.27995 0.0212884 0
M  V30 70467 C 6521.36 -5.25573 -0.983699 0
M  V30 70468 C 6522.66 -5.0843 1.19568 0
M  V30 70469 H 6524.36 -2.83825 0.953099 0
M  V30 70470 H 6521.9 -1.36463 0.459769 0
M  V30 70471 H 6523.85 -4.05102 -1.16062 0
M  V30 70472 H 6522.58 -2.87238 -1.5544 0
M  V30 70473 H 6521.24 -3.64008 0.43513 0
M  V30 70474 H 6520.89 -4.695 -1.80497 0
M  V30 70475 H 6520.59 -5.85576 -0.487301 0
M  V30 70476 H 6522.11 -5.93955 -1.41596 0
M  V30 70477 H 6523.52 -5.67119 0.839571 0
M  V30 70478 H 6521.92 -5.77718 1.62363 0
M  V30 70479 H 6522.99 -4.41568 2.00365 0
M  V30 70480 N 6524.33 -0.513718 -1.48992 0
M  V30 70481 C 6525.26 0.246976 -2.3219 0
M  V30 70482 C 6526.24 0.950563 -1.41061 0
M  V30 70483 O 6527.43 0.939503 -1.69962 0
M  V30 70484 C 6524.56 1.30422 -3.21881 0
M  V30 70485 C 6523.51 0.719754 -4.21905 0
M  V30 70486 C 6522.84 1.87845 -5.00618 0
M  V30 70487 C 6524.14 -0.297708 -5.21451 0
M  V30 70488 H 6525.83 -0.447507 -2.96037 0
M  V30 70489 H 6523.38 -0.216658 -1.42361 0
M  V30 70490 H 6525.33 1.84421 -3.78902 0
M  V30 70491 H 6524.06 2.02806 -2.56002 0
M  V30 70492 H 6522.72 0.201418 -3.66046 0
M  V30 70493 H 6522.36 2.59029 -4.31176 0
M  V30 70494 H 6522.06 1.49339 -5.68306 0
M  V30 70495 H 6523.59 2.42253 -5.60487 0
M  V30 70496 H 6525 0.154599 -5.73092 0
M  V30 70497 H 6523.4 -0.599281 -5.971 0
M  V30 70498 H 6524.47 -1.2092 -4.69581 0
M  V30 70499 N 6525.81 1.55635 -0.248108 0
M  V30 70500 C 6527.06 1.99268 0.376857 0
M  V30 70501 C 6527.39 1.13607 1.57502 0
M  V30 70502 O 6526.67 0.199754 1.93472 0
M  V30 70503 C 6526.95 3.51427 0.785541 0
M  V30 70504 C 6526.8 4.47853 -0.418099 0
M  V30 70505 C 6528.12 4.08719 1.63207 0
M  V30 70506 H 6525.24 0.724436 0.135506 0
M  V30 70507 H 6527.88 1.86755 -0.34966 0
M  V30 70508 H 6526.03 3.62221 1.40456 0
M  V30 70509 H 6527.7 4.49038 -1.05654 0
M  V30 70510 H 6525.95 4.20625 -1.06099 0
M  V30 70511 H 6526.62 5.51929 -0.0887942 0
M  V30 70512 H 6529.09 4.01035 1.10952 0
M  V30 70513 H 6527.97 5.1545 1.88687 0
M  V30 70514 H 6528.23 3.57252 2.6043 0
M  V30 70515 N 6527.29 -0.0249897 1.5758 0
M  V30 70516 C 6528.25 -1.00901 2.05795 0
M  V30 70517 C 6529.25 -1.28791 0.96279 0
M  V30 70518 O 6530.44 -1.23726 1.22628 0
M  V30 70519 C 6527.57 -2.34076 2.47834 0
M  V30 70520 H 6528.77 -0.59245 2.9399 0
M  V30 70521 H 6526.32 -0.271911 1.53917 0
M  V30 70522 H 6527.06 -2.80472 1.62807 0
M  V30 70523 H 6526.84 -2.15161 3.27793 0
M  V30 70524 H 6528.33 -3.04715 2.85549 0
M  V30 70525 N 6528.77 -1.5477 -0.297333 0
M  V30 70526 C 6529.7 -1.88977 -1.3715 0
M  V30 70527 C 6530.68 -0.749046 -1.5272 0
M  V30 70528 O 6531.86 -1.0051 -1.66167 0
M  V30 70529 C 6528.99 -2.1403 -2.73511 0
M  V30 70530 C 6527.95 -3.29875 -2.72702 0
M  V30 70531 C 6527.27 -3.40355 -4.12387 0
M  V30 70532 C 6528.57 -4.6689 -2.34118 0
M  V30 70533 H 6530.27 -2.78943 -1.0877 0
M  V30 70534 H 6527.81 -1.34213 -0.521801 0
M  V30 70535 H 6529.77 -2.36546 -3.48746 0
M  V30 70536 H 6528.49 -1.20838 -3.03423 0
M  V30 70537 H 6527.15 -3.07288 -1.99924 0
M  V30 70538 H 6526.8 -2.44673 -4.39482 0
M  V30 70539 H 6526.5 -4.18228 -4.12746 0
M  V30 70540 H 6528.02 -3.65135 -4.89396 0
M  V30 70541 H 6529.44 -4.89111 -2.9907 0
M  V30 70542 H 6527.83 -5.47503 -2.45683 0
M  V30 70543 H 6528.9 -4.67358 -1.29245 0
M  V30 70544 N 6530.25 0.560703 -1.47288 0
M  V30 70545 C 6531.19 1.66806 -1.59513 0
M  V30 70546 C 6532.16 1.60212 -0.43832 0
M  V30 70547 O 6533.35 1.79098 -0.657925 0
M  V30 70548 C 6530.49 3.05132 -1.6121 0
M  V30 70549 C 6529.6 3.22188 -2.87782 0
M  V30 70550 C 6528.74 4.50892 -2.80838 0
M  V30 70551 C 6527.77 4.61368 -4.02251 0
M  V30 70552 N 6526.91 5.81423 -3.93563 0
M  V30 70553 H 6531.75 1.55696 -2.54092 0
M  V30 70554 H 6529.29 0.758494 -1.26037 0
M  V30 70555 H 6531.25 3.85226 -1.60177 0
M  V30 70556 H 6529.88 3.15086 -0.701458 0
M  V30 70557 H 6528.93 2.3555 -2.98698 0
M  V30 70558 H 6530.24 3.25794 -3.77703 0
M  V30 70559 H 6529.39 5.39242 -2.78035 0
M  V30 70560 H 6528.13 4.49759 -1.88594 0
M  V30 70561 H 6527.14 3.71431 -4.05363 0
M  V30 70562 H 6528.36 4.64263 -4.95618 0
M  V30 70563 H 6526.31 5.81246 -3.0412 0
M  V30 70564 H 6526.23 5.86391 -4.77159 0
M  V30 70565 H 6527.49 6.72143 -3.9477 0
M  V30 70566 N 6531.72 1.35362 0.807151 0
M  V30 70567 C 6533 1.19168 1.55107 0
M  V30 70568 C 6533.38 -0.229417 2.0985 0
M  V30 70569 O 6532.73 -1.23285 1.92388 0
M  V30 70570 C 6532.94 2.25927 2.66004 0
M  V30 70571 C 6534.29 2.61705 3.34358 0
M  V30 70572 O 6535.31 2.24836 2.76274 0
M  V30 70573 O 6534.17 3.25098 4.39287 0
M  V30 70574 H 6531.26 0.46293 0.685292 0
M  V30 70575 H 6533.81 1.47042 0.847161 0
M  V30 70576 H 6532.58 3.21246 2.23421 0
M  V30 70577 H 6532.2 1.9932 3.44031 0
M  V30 70578 N 6533.2 -1.02924 1.1935 0
M  V30 70579 C 6534.45 -1.76318 0.99591 0
M  V30 70580 C 6534.78 -1.88652 -0.473348 0
M  V30 70581 O 6534.03 -1.39972 -1.36772 0
M  V30 70582 C 6534.33 -3.19104 1.60957 0
M  V30 70583 C 6534 -3.26777 3.10688 0
M  V30 70584 C 6532.66 -3.28579 3.51553 0
M  V30 70585 C 6535.01 -3.25953 4.06699 0
M  V30 70586 C 6532.34 -3.27212 4.8698 0
M  V30 70587 C 6534.69 -3.26127 5.42055 0
M  V30 70588 C 6533.36 -3.26226 5.82351 0
M  V30 70589 H 6532.63 -0.645192 0.364429 0
M  V30 70590 H 6535.27 -1.20805 1.48588 0
M  V30 70591 H 6533.58 -3.77693 1.0419 0
M  V30 70592 H 6535.27 -3.7456 1.43198 0
M  V30 70593 H 6531.86 -3.26103 2.78127 0
M  V30 70594 H 6536.05 -3.23743 3.76171 0
M  V30 70595 H 6531.3 -3.25612 5.17481 0
M  V30 70596 H 6535.48 -3.24441 6.16207 0
M  V30 70597 H 6533.11 -3.24921 6.87263 0
M  V30 70598 N 6534.68 -0.997362 -1.22026 0
M  V30 70599 C 6535.63 -0.522499 -2.21932 0
M  V30 70600 C 6536.61 0.411744 -1.55543 0
M  V30 70601 O 6537.81 0.237837 -1.75395 0
M  V30 70602 C 6534.94 0.157105 -3.4294 0
M  V30 70603 C 6534.02 -0.797706 -4.1653 0
M  V30 70604 N 6534.41 -1.94739 -4.66809 0
M  V30 70605 C 6532.71 -0.614504 -4.41746 0
M  V30 70606 C 6533.41 -2.54705 -5.22972 0
M  V30 70607 N 6532.39 -1.82933 -5.11895 0
M  V30 70608 H 6536.19 -1.39927 -2.58452 0
M  V30 70609 H 6533.7 -0.860197 -1.37747 0
M  V30 70610 H 6535.7 0.514718 -4.1371 0
M  V30 70611 H 6534.36 1.02996 -3.07932 0
M  V30 70612 H 6535.37 -2.32803 -4.62626 0
M  V30 70613 H 6532.05 0.211912 -4.16962 0
M  V30 70614 H 6533.44 -3.51893 -5.72382 0
M  V30 70615 N 6536.16 1.37446 -0.771123 0
M  V30 70616 C 6537.38 2.04505 -0.345317 0
M  V30 70617 C 6537.81 1.57778 1.02409 0
M  V30 70618 O 6537.17 0.737736 1.65611 0
M  V30 70619 C 6537.21 3.5841 -0.396854 0
M  V30 70620 O 6536.32 4.07969 0.602916 0
M  V30 70621 H 6535.66 0.646924 -0.149616 0
M  V30 70622 H 6538.19 1.75773 -1.04714 0
M  V30 70623 H 6538.2 4.07209 -0.253927 0
M  V30 70624 H 6536.87 3.91775 -1.3959 0
M  V30 70625 H 6535.45 3.70491 0.423159 0
M  V30 70626 N 6537.64 0.521612 1.48718 0
M  V30 70627 C 6538.55 -0.249765 2.33267 0
M  V30 70628 C 6539.56 -0.947245 1.45956 0
M  V30 70629 O 6540.74 -0.924063 1.7895 0
M  V30 70630 C 6537.8 -1.28813 3.21882 0
M  V30 70631 C 6536.86 -0.601892 4.2506 0
M  V30 70632 C 6536.1 -1.59078 5.09441 0
M  V30 70633 O 6536.32 -2.82265 4.95664 0
M  V30 70634 O 6535.25 -1.13477 5.91106 0
M  V30 70635 H 6539.08 0.442831 3.00454 0
M  V30 70636 H 6536.67 0.282645 1.46702 0
M  V30 70637 H 6538.55 -1.8884 3.76719 0
M  V30 70638 H 6537.22 -1.96328 2.57366 0
M  V30 70639 H 6536.13 0.0386571 3.7408 0
M  V30 70640 H 6537.46 0.0311735 4.9219 0
M  V30 70641 N 6539.11 -1.55501 0.256358 0
M  V30 70642 C 6540.34 -2.03277 -0.369083 0
M  V30 70643 C 6540.75 -1.13472 -1.51396 0
M  V30 70644 O 6540.1 -0.143482 -1.83139 0
M  V30 70645 C 6540.16 -3.47268 -0.929797 0
M  V30 70646 C 6539.82 -4.56923 0.084037 0
M  V30 70647 C 6540.82 -5.12104 0.896944 0
M  V30 70648 C 6538.5 -5.01849 0.212861 0
M  V30 70649 C 6540.5 -6.10714 1.82504 0
M  V30 70650 C 6538.18 -6.00288 1.14445 0
M  V30 70651 C 6539.18 -6.546 1.94906 0
M  V30 70652 O 6538.87 -7.51117 2.86493 0
M  V30 70653 H 6538.6 -0.669885 -0.0907219 0
M  V30 70654 H 6541.16 -2.01842 0.380632 0
M  V30 70655 H 6539.39 -3.45881 -1.72925 0
M  V30 70656 H 6541.08 -3.78489 -1.46632 0
M  V30 70657 H 6541.84 -4.78221 0.808055 0
M  V30 70658 H 6537.72 -4.59232 -0.403366 0
M  V30 70659 H 6541.26 -6.53031 2.45348 0
M  V30 70660 H 6537.16 -6.33591 1.23423 0
M  V30 70661 H 6537.93 -7.68767 2.80962 0
M  V30 70662 N 6540.59 0.0166325 -1.57591 0
M  V30 70663 C 6541.84 0.704028 -1.89014 0
M  V30 70664 C 6542.15 1.75851 -0.856499 0
M  V30 70665 O 6543.36 2.49936 -1.06038 0
M  V30 70666 C 6541.82 1.30331 -3.35472 0
M  V30 70667 C 6541.42 0.284529 -4.47096 0
M  V30 70668 C 6543.17 1.96986 -3.76028 0
M  V30 70669 C 6541.08 0.892862 -5.84621 0
M  V30 70670 H 6540.01 0.266711 -0.705253 0
M  V30 70671 H 6542.66 -0.0411853 -1.83454 0
M  V30 70672 H 6541.04 2.09864 -3.35817 0
M  V30 70673 H 6542.21 -0.484996 -4.58241 0
M  V30 70674 H 6540.53 -0.280633 -4.15453 0
M  V30 70675 H 6543.12 2.43375 -4.76102 0
M  V30 70676 H 6543.47 2.79336 -3.08669 0
M  V30 70677 H 6544 1.24211 -3.77911 0
M  V30 70678 H 6540.74 0.108505 -6.5541 0
M  V30 70679 H 6540.26 1.63194 -5.77172 0
M  V30 70680 H 6541.94 1.3965 -6.31749 0
M  V30 70681 N 6542.07 1.54925 0.289121 0
M  V30 70682 C 6543.32 1.75029 1.02434 0
M  V30 70683 C 6543.65 0.540972 1.86513 0
M  V30 70684 O 6542.92 -0.461767 1.88939 0
M  V30 70685 C 6543.21 3.04618 1.92042 0
M  V30 70686 C 6543.06 4.35873 1.11063 0
M  V30 70687 C 6544.38 3.30144 2.91021 0
M  V30 70688 H 6541.5 0.636819 0.370986 0
M  V30 70689 H 6544.14 1.87648 0.29801 0
M  V30 70690 H 6542.29 2.9399 2.53972 0
M  V30 70691 H 6543.96 4.58436 0.513273 0
M  V30 70692 H 6542.21 4.31823 0.413639 0
M  V30 70693 H 6542.88 5.22839 1.77042 0
M  V30 70694 H 6545.35 3.40459 2.39221 0
M  V30 70695 H 6544.23 4.22112 3.50874 0
M  V30 70696 H 6544.49 2.49007 3.65305 0
M  V30 70697 N 6543.55 -0.552884 1.47584 0
M  V30 70698 C 6544.77 -1.33998 1.58302 0
M  V30 70699 C 6545.2 -1.86624 0.235176 0
M  V30 70700 O 6544.56 -1.632 -0.789645 0
M  V30 70701 C 6544.6 -2.48279 2.61515 0
M  V30 70702 O 6543.71 -3.50639 2.17085 0
M  V30 70703 H 6543.05 -0.397837 0.531622 0
M  V30 70704 H 6545.58 -0.667715 1.93398 0
M  V30 70705 H 6545.59 -2.94788 2.82071 0
M  V30 70706 H 6544.26 -2.09332 3.59378 0
M  V30 70707 H 6542.84 -3.10405 2.06647 0
M  V30 70708 N 6545.03 -1.35788 -0.799961 0
M  V30 70709 C 6545.99 -1.29115 -1.89372 0
M  V30 70710 C 6546.99 -0.201133 -1.59537 0
M  V30 70711 O 6548.18 -0.455256 -1.68146 0
M  V30 70712 C 6545.31 -0.998995 -3.25934 0
M  V30 70713 H 6546.5 -2.26377 -1.96707 0
M  V30 70714 H 6544.06 -1.20408 -0.996576 0
M  V30 70715 H 6544.79 -0.0305211 -3.24286 0
M  V30 70716 H 6544.58 -1.78768 -3.48976 0
M  V30 70717 H 6546.07 -0.978084 -4.05984 0
M  V30 70718 N 6546.5 1.0229 -1.19894 0
M  V30 70719 C 6547.73 1.79937 -1.03137 0
M  V30 70720 C 6548.15 1.83462 0.415137 0
M  V30 70721 O 6547.51 1.26504 1.29871 0
M  V30 70722 C 6547.56 3.22559 -1.61207 0
M  V30 70723 O 6546.66 4.03641 -0.845437 0
M  V30 70724 H 6546.01 0.555241 -0.364148 0
M  V30 70725 H 6548.54 1.28703 -1.59049 0
M  V30 70726 H 6548.55 3.7329 -1.64676 0
M  V30 70727 H 6547.22 3.19309 -2.66486 0
M  V30 70728 H 6545.8 3.62259 -0.884465 0
M  V30 70729 N 6547.98 1.00382 1.21496 0
M  V30 70730 C 6548.93 0.556339 2.25849 0
M  V30 70731 C 6549.93 -0.398514 1.64646 0
M  V30 70732 O 6551.13 -0.269836 1.77966 0
M  V30 70733 H 6547.51 0.161557 0.734441 0
M  V30 70734 H 6549.48 1.44766 2.60932 0
M  V30 70735 C 6548.23 -0.102473 3.47549 0
M  V30 70736 H 6547.55 0.623231 3.94912 0
M  V30 70737 H 6548.99 -0.378872 4.22304 0
M  V30 70738 C 6547.45 -1.3413 3.09048 0
M  V30 70739 O 6547.98 -2.43575 3.19428 0
M  V30 70740 N 6546.18 -1.2206 2.63723 0
M  V30 70741 H 6545.73 -0.330044 2.55477 0
M  V30 70742 H 6545.69 -2.0505 2.38331 0
M  V30 70743 N 6549.46 -1.37035 0.778402 0
M  V30 70744 C 6550.71 -1.99527 0.345748 0
M  V30 70745 C 6551.04 -1.61789 -1.07957 0
M  V30 70746 O 6550.29 -0.858932 -1.75843 0
M  V30 70747 C 6550.59 -3.5463 0.4441 0
M  V30 70748 C 6550.26 -4.12155 1.82863 0
M  V30 70749 C 6548.92 -4.27579 2.20747 0
M  V30 70750 C 6551.27 -4.43631 2.7357 0
M  V30 70751 C 6548.6 -4.71785 3.48763 0
M  V30 70752 C 6550.95 -4.89264 4.01003 0
M  V30 70753 C 6549.61 -5.02894 4.38924 0
M  V30 70754 H 6548.88 -0.730119 0.126518 0
M  V30 70755 H 6551.53 -1.63699 0.993721 0
M  V30 70756 H 6549.84 -3.90744 -0.287399 0
M  V30 70757 H 6551.53 -4.00898 0.09054 0
M  V30 70758 H 6548.12 -4.00582 1.5242 0
M  V30 70759 H 6552.31 -4.31294 2.45559 0
M  V30 70760 H 6547.56 -4.80524 3.7803 0
M  V30 70761 H 6551.74 -5.12585 4.71412 0
M  V30 70762 H 6549.36 -5.36907 5.38178 0
M  V30 70763 N 6550.94 -0.529492 -1.48439 0
M  V30 70764 C 6552.17 0.000751438 -2.069 0
M  V30 70765 C 6552.58 1.2819 -1.3861 0
M  V30 70766 O 6551.94 1.76251 -0.473462 0
M  V30 70767 C 6551.99 0.228905 -3.60775 0
M  V30 70768 O 6551.71 -1.00149 -4.265 0
M  V30 70769 C 6553.21 0.799583 -4.36029 0
M  V30 70770 H 6550.43 -0.0332926 -0.670174 0
M  V30 70771 H 6552.98 -0.734996 -1.90835 0
M  V30 70772 H 6551.13 0.914699 -3.76447 0
M  V30 70773 H 6551.55 -0.781919 -5.18639 0
M  V30 70774 H 6553.02 0.90865 -5.4447 0
M  V30 70775 H 6553.5 1.80436 -4.00424 0
M  V30 70776 H 6554.1 0.150368 -4.25034 0
M  V30 70777 N 6552.42 1.55363 -0.264601 0
M  V30 70778 C 6553.64 2.04221 0.361727 0
M  V30 70779 C 6554.07 1.14208 1.4946 0
M  V30 70780 O 6553.43 0.13854 1.8077 0
M  V30 70781 C 6553.47 3.50914 0.830184 0
M  V30 70782 O 6552.58 3.64009 1.93834 0
M  V30 70783 H 6551.92 0.659591 0.0763942 0
M  V30 70784 H 6554.45 2.00735 -0.39583 0
M  V30 70785 H 6554.46 3.92076 1.12873 0
M  V30 70786 H 6553.13 4.159 0.00127624 0
M  V30 70787 H 6551.71 3.34747 1.64313 0
M  V30 70788 N 6553.9 -0.00827481 1.57598 0
M  V30 70789 C 6554.83 -1.03035 2.04735 0
M  V30 70790 C 6555.84 -1.31206 0.963786 0
M  V30 70791 O 6557.03 -1.28328 1.24074 0
M  V30 70792 C 6554.13 -2.3671 2.42532 0
M  V30 70793 C 6553.3 -2.27597 3.73521 0
M  V30 70794 C 6552.36 -3.43892 3.98277 0
M  V30 70795 O 6551.39 -3.22451 4.69057 0
M  V30 70796 N 6552.59 -4.66466 3.45528 0
M  V30 70797 H 6555.35 -0.628419 2.93038 0
M  V30 70798 H 6552.92 -0.195824 1.60711 0
M  V30 70799 H 6554.91 -3.13268 2.56214 0
M  V30 70800 H 6553.48 -2.68673 1.59792 0
M  V30 70801 H 6552.7 -1.36003 3.69996 0
M  V30 70802 H 6553.99 -2.18673 4.59412 0
M  V30 70803 H 6553.38 -4.86785 2.88196 0
M  V30 70804 H 6551.94 -5.40318 3.64554 0
M  V30 70805 N 6555.37 -1.55076 -0.280901 0
M  V30 70806 C 6556.3 -1.90421 -1.35138 0
M  V30 70807 C 6557.28 -0.765202 -1.51917 0
M  V30 70808 O 6558.47 -1.02267 -1.65091 0
M  V30 70809 C 6555.6 -2.16919 -2.71226 0
M  V30 70810 C 6554.55 -3.32749 -2.69188 0
M  V30 70811 C 6553.88 -3.44709 -4.08754 0
M  V30 70812 C 6555.18 -4.69347 -2.29153 0
M  V30 70813 H 6556.87 -2.80081 -1.05805 0
M  V30 70814 H 6554.42 -1.34759 -0.507537 0
M  V30 70815 H 6556.37 -2.40231 -3.46218 0
M  V30 70816 H 6555.1 -1.24049 -3.02125 0
M  V30 70817 H 6553.76 -3.09392 -1.96653 0
M  V30 70818 H 6553.4 -2.4932 -4.36862 0
M  V30 70819 H 6553.1 -4.22582 -4.08287 0
M  V30 70820 H 6554.63 -3.70305 -4.85496 0
M  V30 70821 H 6556.04 -4.92256 -2.93866 0
M  V30 70822 H 6554.44 -5.50078 -2.39863 0
M  V30 70823 H 6555.51 -4.68703 -1.24281 0
M  V30 70824 N 6556.85 0.54505 -1.47875 0
M  V30 70825 C 6558.08 1.33156 -1.5901 0
M  V30 70826 C 6558.5 1.86497 -0.24507 0
M  V30 70827 O 6557.86 1.63617 0.780979 0
M  V30 70828 C 6557.91 2.46889 -2.62828 0
M  V30 70829 O 6557.01 3.49483 -2.18942 0
M  V30 70830 H 6556.35 0.395012 -0.533724 0
M  V30 70831 H 6558.88 0.657449 -1.93749 0
M  V30 70832 H 6558.89 2.93288 -2.8363 0
M  V30 70833 H 6557.57 2.07424 -3.60483 0
M  V30 70834 H 6556.14 3.09305 -2.0829 0
M  V30 70835 N 6558.33 1.3621 0.792749 0
M  V30 70836 C 6559.55 1.33565 1.58666 0
M  V30 70837 C 6559.98 -0.0813941 1.87924 0
M  V30 70838 O 6559.34 -1.05236 1.47631 0
M  V30 70839 C 6559.39 2.16133 2.8865 0
M  V30 70840 O 6558.49 1.55154 3.82101 0
M  V30 70841 H 6557.83 0.457307 0.481422 0
M  V30 70842 H 6560.36 1.79447 0.982846 0
M  V30 70843 H 6560.37 2.28591 3.3795 0
M  V30 70844 H 6559.05 3.19145 2.66682 0
M  V30 70845 H 6557.62 1.51616 3.40686 0
M  V30 70846 N 6559.81 -1.01652 1.20435 0
M  V30 70847 C 6560.74 -2.10316 0.911029 0
M  V30 70848 C 6561.75 -1.62485 -0.101243 0
M  V30 70849 O 6562.94 -1.78028 0.129782 0
M  V30 70850 C 6560.04 -3.37146 0.344307 0
M  V30 70851 C 6559.21 -4.14114 1.40814 0
M  V30 70852 C 6558.27 -5.19245 0.852724 0
M  V30 70853 O 6557.3 -5.48156 1.53343 0
M  V30 70854 N 6558.5 -5.79516 -0.337828 0
M  V30 70855 H 6561.27 -2.36066 1.84643 0
M  V30 70856 H 6558.83 -1.18043 1.10803 0
M  V30 70857 H 6560.82 -4.04679 -0.0413956 0
M  V30 70858 H 6559.39 -3.08646 -0.495649 0
M  V30 70859 H 6558.61 -3.4155 1.96817 0
M  V30 70860 H 6559.9 -4.62318 2.1246 0
M  V30 70861 H 6559.3 -5.58363 -0.908126 0
M  V30 70862 H 6557.85 -6.48397 -0.665168 0
M  V30 70863 N 6561.29 -1.01025 -1.20962 0
M  V30 70864 C 6562.53 -0.696973 -1.90447 0
M  V30 70865 C 6562.86 0.770843 -1.78246 0
M  V30 70866 O 6562.14 1.55935 -1.16252 0
M  V30 70867 C 6562.42 -1.12533 -3.42065 0
M  V30 70868 C 6562.28 -2.65298 -3.63231 0
M  V30 70869 C 6563.59 -0.691718 -4.3463 0
M  V30 70870 H 6560.71 -0.254672 -0.6916 0
M  V30 70871 H 6563.36 -1.25686 -1.42488 0
M  V30 70872 H 6561.51 -0.648953 -3.83042 0
M  V30 70873 H 6563.18 -3.20739 -3.31549 0
M  V30 70874 H 6561.42 -3.06568 -3.06918 0
M  V30 70875 H 6562.09 -2.90322 -4.69486 0
M  V30 70876 H 6564.57 -1.10115 -4.01265 0
M  V30 70877 H 6563.44 -1.01954 -5.39348 0
M  V30 70878 H 6563.7 0.406918 -4.40223 0
M  V30 70879 N 6562.76 1.36621 -0.785658 0
M  V30 70880 C 6563.67 2.33889 -0.182531 0
M  V30 70881 C 6564.69 1.6086 0.663324 0
M  V30 70882 O 6565.87 1.92868 0.579991 0
M  V30 70883 C 6562.93 3.40054 0.675585 0
M  V30 70884 C 6561.99 4.28887 -0.188332 0
M  V30 70885 C 6561.23 5.29981 0.628922 0
M  V30 70886 O 6561.45 5.39044 1.86515 0
M  V30 70887 O 6560.38 6.01892 0.0307946 0
M  V30 70888 H 6564.21 2.87226 -0.986657 0
M  V30 70889 H 6561.79 1.39024 -0.54705 0
M  V30 70890 H 6563.68 4.04975 1.16503 0
M  V30 70891 H 6562.35 2.89022 1.45766 0
M  V30 70892 H 6561.26 3.67018 -0.724454 0
M  V30 70893 H 6562.59 4.8326 -0.933835 0
M  V30 70894 N 6564.24 0.537356 1.48156 0
M  V30 70895 C 6565.17 -0.258582 2.27737 0
M  V30 70896 C 6566.19 -0.897704 1.35813 0
M  V30 70897 O 6567.38 -0.774902 1.60803 0
M  V30 70898 C 6564.48 -1.38209 3.09438 0
M  V30 70899 C 6563.65 -0.8435 4.2919 0
M  V30 70900 C 6562.71 -1.84904 4.92643 0
M  V30 70901 O 6561.73 -1.40304 5.51637 0
M  V30 70902 N 6562.94 -3.18157 4.85548 0
M  V30 70903 H 6565.7 0.423967 2.96686 0
M  V30 70904 H 6563.26 0.372153 1.57565 0
M  V30 70905 H 6565.25 -2.05308 3.48756 0
M  V30 70906 H 6563.82 -1.96818 2.42861 0
M  V30 70907 H 6563.04 0.00370579 3.942 0
M  V30 70908 H 6564.33 -0.462673 5.06692 0
M  V30 70909 H 6563.73 -3.57053 4.38782 0
M  V30 70910 H 6562.29 -3.80869 5.28944 0
M  V30 70911 N 6565.72 -1.5522 0.272837 0
M  V30 70912 C 6566.97 -1.99546 -0.344597 0
M  V30 70913 C 6567.3 -1.16122 -1.56032 0
M  V30 70914 O 6566.55 -0.218323 -1.94478 0
M  V30 70915 C 6566.85 -3.48941 -0.772988 0
M  V30 70916 C 6566.52 -4.49633 0.337842 0
M  V30 70917 C 6565.18 -4.76886 0.642863 0
M  V30 70918 C 6567.53 -5.0975 1.08647 0
M  V30 70919 C 6564.86 -5.61527 1.70014 0
M  V30 70920 C 6567.21 -5.95539 2.13346 0
M  V30 70921 C 6565.87 -6.21115 2.44485 0
M  V30 70922 H 6565.14 -0.730192 -0.126097 0
M  V30 70923 H 6567.79 -1.87568 0.386074 0
M  V30 70924 H 6566.1 -3.58384 -1.5833 0
M  V30 70925 H 6567.79 -3.80643 -1.26143 0
M  V30 70926 H 6564.38 -4.28506 0.089984 0
M  V30 70927 H 6568.57 -4.8872 0.864081 0
M  V30 70928 H 6563.82 -5.79589 1.94644 0
M  V30 70929 H 6568 -6.41156 2.7183 0
M  V30 70930 H 6565.62 -6.86493 3.26545 0
M  V30 70931 N 6567.2 -8.31064e-05 -1.576 0
M  V30 70932 C 6568.13 0.99023 -2.11463 0
M  V30 70933 C 6569.11 1.3584 -1.02379 0
M  V30 70934 O 6570.29 1.44213 -1.30062 0
M  V30 70935 C 6567.42 2.28206 -2.618 0
M  V30 70936 C 6566.38 2.0555 -3.75411 0
M  V30 70937 C 6565.7 3.40747 -4.12063 0
M  V30 70938 C 6567 1.41802 -5.02682 0
M  V30 70939 H 6568.7 0.541749 -2.94458 0
M  V30 70940 H 6566.24 0.259144 -1.41649 0
M  V30 70941 H 6568.2 2.9784 -2.98109 0
M  V30 70942 H 6566.92 2.75168 -1.75927 0
M  V30 70943 H 6565.58 1.38341 -3.39496 0
M  V30 70944 H 6565.23 3.85412 -3.23213 0
M  V30 70945 H 6564.93 3.26404 -4.88605 0
M  V30 70946 H 6566.45 4.11696 -4.50931 0
M  V30 70947 H 6567.87 2.01394 -5.36762 0
M  V30 70948 H 6566.26 1.37947 -5.8403 0
M  V30 70949 H 6567.33 0.387251 -4.83351 0
M  V30 70950 N 6568.68 1.55223 0.272673 0
M  V30 70951 C 6569.63 1.84513 1.33936 0
M  V30 70952 C 6570.61 0.704066 1.44678 0
M  V30 70953 O 6571.8 0.965416 1.48353 0
M  V30 70954 C 6568.93 2.12081 2.69957 0
M  V30 70955 C 6568.02 3.32447 2.63324 0
M  V30 70956 N 6568.41 4.52346 2.26311 0
M  V30 70957 C 6566.71 3.35043 2.94384 0
M  V30 70958 C 6567.41 5.34437 2.29677 0
M  V30 70959 N 6566.38 4.72852 2.68163 0
M  V30 70960 H 6570.19 2.7476 1.04328 0
M  V30 70961 H 6567.7 1.55104 0.481307 0
M  V30 70962 H 6569.7 2.31221 3.46904 0
M  V30 70963 H 6568.36 1.23118 3.00453 0
M  V30 70964 H 6569.37 4.78439 1.98284 0
M  V30 70965 H 6566.04 2.56275 3.2959 0
M  V30 70966 H 6567.43 6.40304 2.03619 0
M  V30 70967 N 6570.15 -0.5372 1.48162 0
M  V30 70968 C 6571.57 -0.865058 1.34123 0
M  V30 70969 C 6571.77 -1.98493 0.346783 0
M  V30 70970 O 6570.83 -2.51408 -0.234583 0
M  V30 70971 C 6572.14 -1.2394 2.7397 0
M  V30 70972 C 6573.69 -1.34969 2.82405 0
M  V30 70973 C 6574.16 -1.75749 4.22938 0
M  V30 70974 N 6575.65 -1.82865 4.25576 0
M  V30 70975 C 6576.39 -2.15789 5.31246 0
M  V30 70976 N 6575.88 -2.47187 6.47202 0
M  V30 70977 N 6577.68 -2.16734 5.18636 0
M  V30 70978 H 6569.83 0.201826 2.11439 0
M  V30 70979 H 6572.09 0.0276449 0.947597 0
M  V30 70980 H 6571.8 -0.490197 3.48267 0
M  V30 70981 H 6571.67 -2.19116 3.07031 0
M  V30 70982 H 6574.06 -2.08967 2.08367 0
M  V30 70983 H 6574.14 -0.379315 2.52972 0
M  V30 70984 H 6573.78 -1.02315 4.97488 0
M  V30 70985 H 6573.71 -2.73825 4.49808 0
M  V30 70986 H 6576.2 -1.60906 3.41932 0
M  V30 70987 H 6576.52 -2.71394 7.23578 0
M  V30 70988 H 6574.86 -2.44723 6.50489 0
M  V30 70989 H 6578.05 -1.91656 4.27066 0
M  V30 70990 H 6578.23 -2.42061 6.01091 0
M  V30 70991 N 6571.63 -1.36629 -0.785514 0
M  V30 70992 C 6572.58 -1.31339 -1.91971 0
M  V30 70993 C 6573.57 -0.204505 -1.68161 0
M  V30 70994 O 6574.78 -0.371738 -1.7612 0
M  V30 70995 H 6571.16 -0.408975 -0.631065 0
M  V30 70996 H 6573.13 -2.27114 -1.9355 0
M  V30 70997 C 6571.88 -1.12347 -3.29049 0
M  V30 70998 H 6571.2 -1.96922 -3.47939 0
M  V30 70999 H 6572.64 -1.12693 -4.0875 0
M  V30 71000 C 6571.1 0.171684 -3.36462 0
M  V30 71001 O 6571.63 1.16014 -3.84582 0
M  V30 71002 N 6569.83 0.217693 -2.89783 0
M  V30 71003 H 6569.38 -0.587315 -2.50815 0
M  V30 71004 H 6569.34 1.08392 -2.95125 0
M  V30 71005 N 6573.11 1.01012 -1.20972 0
M  V30 71006 C 6574.36 1.74122 -1.01805 0
M  V30 71007 C 6574.67 1.90363 0.449591 0
M  V30 71008 O 6575.88 2.6063 0.760543 0
M  V30 71009 C 6574.33 3.13205 -1.77287 0
M  V30 71010 C 6573.94 3.04955 -3.28187 0
M  V30 71011 C 6575.69 3.9048 -1.66509 0
M  V30 71012 C 6573.59 4.39086 -3.96179 0
M  V30 71013 H 6572.52 0.652804 -0.377311 0
M  V30 71014 H 6575.17 1.12901 -1.44657 0
M  V30 71015 H 6573.56 3.75007 -1.27224 0
M  V30 71016 H 6574.73 2.52422 -3.85512 0
M  V30 71017 H 6573.05 2.4117 -3.39449 0
M  V30 71018 H 6575.64 4.89727 -2.14643 0
M  V30 71019 H 6575.99 4.11621 -0.622417 0
M  V30 71020 H 6576.52 3.35321 -2.1402 0
M  V30 71021 H 6573.26 4.23147 -5.00626 0
M  V30 71022 H 6572.78 4.91599 -3.43642 0
M  V30 71023 H 6574.46 5.07905 -4.00801 0
M  V30 71024 N 6574.59 1.01665 1.20424 0
M  V30 71025 C 6575.52 0.545105 2.22624 0
M  V30 71026 C 6576.53 -0.372525 1.58481 0
M  V30 71027 O 6577.72 -0.170865 1.7768 0
M  V30 71028 C 6574.82 -0.226451 3.38143 0
M  V30 71029 C 6574 0.693104 4.31874 0
M  V30 71030 C 6573.05 -0.0308841 5.26191 0
M  V30 71031 O 6572.08 0.591641 5.66117 0
M  V30 71032 N 6573.28 -1.30571 5.65625 0
M  V30 71033 H 6576.05 1.42401 2.63708 0
M  V30 71034 H 6573.61 0.894187 1.34966 0
M  V30 71035 H 6575.6 -0.72003 3.98243 0
M  V30 71036 H 6574.17 -1.00666 2.95948 0
M  V30 71037 H 6573.39 1.36699 3.69739 0
M  V30 71038 H 6574.68 1.3185 4.91419 0
M  V30 71039 H 6574.08 -1.83241 5.352 0
M  V30 71040 H 6572.63 -1.74402 6.28034 0
M  V30 71041 N 6576.07 -1.36202 0.792892 0
M  V30 71042 C 6576.98 -2.33789 0.194932 0
M  V30 71043 C 6577.99 -1.6121 -0.654784 0
M  V30 71044 O 6579.17 -1.93173 -0.569754 0
M  V30 71045 C 6576.23 -3.40408 -0.657541 0
M  V30 71046 C 6575.29 -4.28781 0.211075 0
M  V30 71047 C 6574.53 -5.30307 -0.600807 0
M  V30 71048 O 6574.75 -5.40025 -1.83654 0
M  V30 71049 O 6573.68 -6.019 0.00112567 0
M  V30 71050 H 6577.51 -2.86699 1.00188 0
M  V30 71051 H 6575.1 -1.38732 0.554415 0
M  V30 71052 H 6576.98 -4.05587 -1.14354 0
M  V30 71053 H 6575.65 -2.89791 -1.44232 0
M  V30 71054 H 6574.56 -3.66629 0.743908 0
M  V30 71055 H 6575.89 -4.82758 0.95945 0
M  V30 71056 N 6577.55 -0.545206 -1.47869 0
M  V30 71057 C 6578.78 -0.0211624 -2.06589 0
M  V30 71058 C 6579.18 1.27262 -1.40004 0
M  V30 71059 O 6578.53 1.7714 -0.486514 0
M  V30 71060 C 6578.59 0.257744 -3.58575 0
M  V30 71061 C 6578.25 -0.944809 -4.47127 0
M  V30 71062 C 6579.25 -1.84725 -4.85976 0
M  V30 71063 C 6576.93 -1.1561 -4.88815 0
M  V30 71064 C 6578.93 -2.94476 -5.65299 0
M  V30 71065 C 6576.62 -2.25672 -5.67904 0
M  V30 71066 C 6577.61 -3.14937 -6.06056 0
M  V30 71067 O 6577.3 -4.23093 -6.83555 0
M  V30 71068 H 6577.03 -0.0373255 -0.674969 0
M  V30 71069 H 6579.59 -0.7547 -1.91033 0
M  V30 71070 H 6577.82 1.04544 -3.723 0
M  V30 71071 H 6579.51 0.725709 -3.9936 0
M  V30 71072 H 6580.27 -1.69601 -4.54379 0
M  V30 71073 H 6576.15 -0.470521 -4.58593 0
M  V30 71074 H 6579.7 -3.64177 -5.94997 0
M  V30 71075 H 6575.59 -2.40773 -5.98914 0
M  V30 71076 H 6576.36 -4.20991 -7.01932 0
M  V30 71077 N 6579.02 1.55073 -0.281065 0
M  V30 71078 C 6579.95 2.2573 0.59735 0
M  V30 71079 C 6580.93 1.24958 1.15411 0
M  V30 71080 O 6582.12 1.5369 1.18714 0
M  V30 71081 C 6579.25 2.98292 1.77874 0
M  V30 71082 C 6578.2 4.06043 1.35325 0
M  V30 71083 C 6577.53 4.66212 2.61821 0
M  V30 71084 C 6578.83 5.1991 0.49908 0
M  V30 71085 H 6580.52 2.99399 0.00808477 0
M  V30 71086 H 6578.07 1.44 0.00244847 0
M  V30 71087 H 6580.02 3.46434 2.39919 0
M  V30 71088 H 6578.75 2.22168 2.39393 0
M  V30 71089 H 6577.41 3.58721 0.755967 0
M  V30 71090 H 6577.05 3.86749 3.21611 0
M  V30 71091 H 6576.75 5.3897 2.34061 0
M  V30 71092 H 6578.28 5.17107 3.24705 0
M  V30 71093 H 6579.69 5.64068 1.02469 0
M  V30 71094 H 6578.09 5.99267 0.316108 0
M  V30 71095 H 6579.16 4.82511 -0.480713 0
M  V30 71096 N 6580.5 0.00844102 1.57598 0
M  V30 71097 C 6581.73 -0.689 1.95621 0
M  V30 71098 C 6582.15 -1.66042 0.88384 0
M  V30 71099 O 6581.51 -1.80617 -0.157257 0
M  V30 71100 C 6581.56 -1.38976 3.32743 0
M  V30 71101 O 6580.66 -2.50446 3.27644 0
M  V30 71102 H 6580 -0.182635 0.638389 0
M  V30 71103 H 6582.53 0.0641439 2.04499 0
M  V30 71104 H 6582.54 -1.75127 3.68503 0
M  V30 71105 H 6581.22 -0.677562 4.10344 0
M  V30 71106 H 6579.79 -2.1656 3.03572 0
M  V30 71107 N 6581.98 -1.55366 -0.264437 0
M  V30 71108 C 6583.23 -1.75579 -0.992719 0
M  V30 71109 C 6583.54 -0.569078 -1.87139 0
M  V30 71110 O 6584.75 -0.653821 -2.6351 0
M  V30 71111 C 6583.2 -3.10781 -1.81503 0
M  V30 71112 C 6582.81 -4.37046 -0.984609 0
M  V30 71113 C 6584.56 -3.40341 -2.5371 0
M  V30 71114 C 6582.46 -5.63284 -1.80179 0
M  V30 71115 H 6581.39 -0.65449 -0.374378 0
M  V30 71116 H 6584.04 -1.81816 -0.248042 0
M  V30 71117 H 6582.43 -2.98604 -2.60099 0
M  V30 71118 H 6583.6 -4.60163 -0.242212 0
M  V30 71119 H 6581.91 -4.14693 -0.376691 0
M  V30 71120 H 6584.51 -4.31867 -3.1527 0
M  V30 71121 H 6584.85 -2.60862 -3.24433 0
M  V30 71122 H 6585.39 -3.53654 -1.82137 0
M  V30 71123 H 6582.13 -6.45535 -1.13862 0
M  V30 71124 H 6581.65 -5.44297 -2.51993 0
M  V30 71125 H 6583.33 -6.01899 -2.37332 0
M  V30 71126 N 6583.46 0.529335 -1.48445 0
M  V30 71127 C 6584.39 1.64304 -1.65911 0
M  V30 71128 C 6585.37 1.62338 -0.507983 0
M  V30 71129 O 6586.55 1.79524 -0.740597 0
M  V30 71130 C 6583.68 3.02889 -1.69927 0
M  V30 71131 C 6582.64 3.19714 -2.84547 0
M  V30 71132 C 6581.96 4.59367 -2.73653 0
M  V30 71133 C 6583.26 3.02424 -4.25837 0
M  V30 71134 H 6584.96 1.49942 -2.59148 0
M  V30 71135 H 6582.5 0.719916 -1.24713 0
M  V30 71136 H 6584.46 3.80674 -1.80735 0
M  V30 71137 H 6583.18 3.18275 -0.732692 0
M  V30 71138 H 6581.84 2.44346 -2.73295 0
M  V30 71139 H 6581.49 4.7159 -1.74963 0
M  V30 71140 H 6581.19 4.71569 -3.50566 0
M  V30 71141 H 6582.71 5.3925 -2.86429 0
M  V30 71142 H 6584.13 3.70001 -4.37918 0
M  V30 71143 H 6582.52 3.26119 -5.03752 0
M  V30 71144 H 6583.59 1.98843 -4.42255 0
M  V30 71145 N 6584.94 1.37043 0.778257 0
M  V30 71146 C 6586.16 1.35072 1.56727 0
M  V30 71147 C 6586.58 -0.0654602 1.88686 0
M  V30 71148 O 6585.94 -1.02546 1.50965 0
M  V30 71149 C 6585.99 2.18291 2.88151 0
M  V30 71150 O 6585.71 3.5439 2.57564 0
M  V30 71151 C 6587.21 2.24226 3.8241 0
M  V30 71152 H 6584.43 0.462909 0.485754 0
M  V30 71153 H 6586.97 1.80295 0.96509 0
M  V30 71154 H 6585.13 1.76594 3.44809 0
M  V30 71155 H 6585.54 3.9794 3.41678 0
M  V30 71156 H 6587.02 2.8679 4.71652 0
M  V30 71157 H 6587.49 1.24884 4.21071 0
M  V30 71158 H 6588.1 2.66207 3.31683 0
M  V30 71159 N 6586.41 -1.00369 1.21506 0
M  V30 71160 C 6587.69 -1.71432 0.941835 0
M  V30 71161 C 6588.07 -2.03917 -0.546006 0
M  V30 71162 O 6587.42 -1.71392 -1.51119 0
M  V30 71163 C 6587.63 -2.97279 1.82828 0
M  V30 71164 C 6588.98 -3.70281 2.0779 0
M  V30 71165 O 6590 -3.07264 1.80187 0
M  V30 71166 O 6588.86 -4.83633 2.54482 0
M  V30 71167 H 6585.95 -0.747744 0.353282 0
M  V30 71168 H 6588.5 -1.06101 1.32442 0
M  V30 71169 H 6587.27 -2.69694 2.83515 0
M  V30 71170 H 6586.89 -3.7035 1.44659 0
M  V30 71171 N 6587.89 -1.02302 -1.19883 0
M  V30 71172 C 6589.3 -0.746658 -1.7112 0
M  V30 71173 C 6589.65 0.734239 -1.81943 0
M  V30 71174 O 6588.78 1.57267 -1.48648 0
M  V30 71175 C 6589.37 -1.34873 -3.10797 0
M  V30 71176 C 6587.93 -1.12109 -3.59317 0
M  V30 71177 C 6587.08 -1.45044 -2.36342 0
M  V30 71178 H 6590.03 -1.19169 -1.04807 0
M  V30 71179 H 6590.05 -0.742634 -3.73183 0
M  V30 71180 H 6589.56 -2.42654 -3.02887 0
M  V30 71181 H 6587.66 -0.0612302 -3.7255 0
M  V30 71182 H 6587.78 -1.80567 -4.43771 0
M  V30 71183 H 6586.14 -0.869613 -2.39395 0
M  V30 71184 H 6586.92 -2.53895 -2.31068 0
M  V30 71185 N 6589.37 1.3578 -0.800104 0
M  V30 71186 C 6590.65 1.9327 -0.300982 0
M  V30 71187 C 6591.03 1.73087 1.20847 0
M  V30 71188 O 6590.37 1.09606 2.00496 0
M  V30 71189 C 6590.58 3.41799 -0.70529 0
M  V30 71190 C 6591.93 4.18938 -0.691091 0
M  V30 71191 O 6592.96 3.50285 -0.646428 0
M  V30 71192 O 6591.82 5.41417 -0.743606 0
M  V30 71193 H 6588.91 0.823388 -0.0772039 0
M  V30 71194 H 6591.46 1.44896 -0.883367 0
M  V30 71195 H 6590.23 3.50192 -1.7459 0
M  V30 71196 H 6589.85 3.97481 -0.0973637 0
M  V30 71197 N 6590.85 0.55304 1.47578 0
M  V30 71198 C 6592.1 0.0273769 2.02081 0
M  V30 71199 C 6592.42 -1.32556 1.43017 0
M  V30 71200 O 6591.69 -1.86361 0.603843 0
M  V30 71201 H 6590.27 0.00713121 0.746966 0
M  V30 71202 H 6592.93 0.722103 1.81029 0
M  V30 71203 H 6592.02 -0.0638306 3.12035 0
M  V30 71204 N 6592.33 -1.54922 0.289285 0
M  V30 71205 C 6593.27 -2.23079 -0.591997 0
M  V30 71206 C 6594.24 -1.20921 -1.13874 0
M  V30 71207 O 6595.43 -1.49506 -1.18543 0
M  V30 71208 C 6592.57 -2.96633 -1.76361 0
M  V30 71209 C 6591.68 -4.13539 -1.24937 0
M  V30 71210 C 6590.82 -4.74703 -2.38391 0
M  V30 71211 C 6589.86 -5.83777 -1.84041 0
M  V30 71212 N 6588.99 -6.38945 -2.91023 0
M  V30 71213 H 6593.83 -2.98 -0.00416323 0
M  V30 71214 H 6591.37 -1.47097 0.00971286 0
M  V30 71215 H 6593.33 -3.37503 -2.45251 0
M  V30 71216 H 6591.96 -2.24109 -2.32325 0
M  V30 71217 H 6591.01 -3.77692 -0.453108 0
M  V30 71218 H 6592.32 -4.92156 -0.811403 0
M  V30 71219 H 6591.48 -5.18366 -3.15249 0
M  V30 71220 H 6590.21 -3.95393 -2.85509 0
M  V30 71221 H 6589.22 -5.3955 -1.05668 0
M  V30 71222 H 6590.44 -6.64964 -1.37842 0
M  V30 71223 H 6588.39 -5.62523 -3.37497 0
M  V30 71224 H 6588.31 -7.12874 -2.51686 0
M  V30 71225 H 6589.58 -6.87265 -3.67813 0
M  V30 71226 N 6593.8 -0.0167987 -1.57591 0
M  V30 71227 C 6595.05 0.663184 -1.90909 0
M  V30 71228 C 6595.37 1.73371 -0.8926 0
M  V30 71229 O 6594.64 1.95783 0.067659 0
M  V30 71230 H 6593.22 0.247946 -0.70465 0
M  V30 71231 H 6595.89 -0.0616936 -1.94802 0
M  V30 71232 H 6594.98 1.12377 -2.91166 0
M  V30 71233 N 6595.28 1.55504 0.256194 0
M  V30 71234 C 6596.23 1.89533 1.31704 0
M  V30 71235 C 6597.2 0.748557 1.48276 0
M  V30 71236 O 6598.38 1.00137 1.62411 0
M  V30 71237 C 6595.52 2.18739 2.66922 0
M  V30 71238 C 6594.64 3.46174 2.58433 0
M  V30 71239 C 6593.77 3.64996 3.85942 0
M  V30 71240 C 6592.81 4.86064 3.72033 0
M  V30 71241 N 6591.95 5.01455 4.91413 0
M  V30 71242 H 6596.79 2.80006 1.01983 0
M  V30 71243 H 6594.33 1.38616 0.49234 0
M  V30 71244 H 6596.28 2.33676 3.45618 0
M  V30 71245 H 6594.91 1.31481 2.94809 0
M  V30 71246 H 6593.97 3.39619 1.71356 0
M  V30 71247 H 6595.28 4.35012 2.44062 0
M  V30 71248 H 6594.43 3.79841 4.73081 0
M  V30 71249 H 6593.17 2.74374 4.032 0
M  V30 71250 H 6592.18 4.71205 2.83277 0
M  V30 71251 H 6593.4 5.78137 3.56279 0
M  V30 71252 H 6591.35 4.13768 5.0905 0
M  V30 71253 H 6591.26 5.84367 4.79637 0
M  V30 71254 H 6592.53 5.20703 5.80077 0
M  V30 71255 N 6596.76 -0.521455 1.48723 0
M  V30 71256 C 6597.67 -1.65194 1.66578 0
M  V30 71257 C 6598.69 -1.65136 0.548284 0
M  V30 71258 O 6599.86 -1.83932 0.820436 0
M  V30 71259 C 6596.93 -3.01633 1.70933 0
M  V30 71260 C 6595.99 -3.1248 2.94372 0
M  V30 71261 C 6595.22 -4.42411 2.9851 0
M  V30 71262 O 6595.44 -5.30013 2.10814 0
M  V30 71263 O 6594.38 -4.57802 3.9077 0
M  V30 71264 H 6598.2 -1.53066 2.62306 0
M  V30 71265 H 6595.79 -0.695495 1.32224 0
M  V30 71266 H 6597.67 -3.82762 1.7627 0
M  V30 71267 H 6596.35 -3.14067 0.783799 0
M  V30 71268 H 6595.25 -2.30615 2.94564 0
M  V30 71269 H 6596.59 -3.04965 3.86338 0
M  V30 71270 N 6598.24 -1.37454 -0.770978 0
M  V30 71271 C 6599.19 -1.3328 -1.88428 0
M  V30 71272 C 6600.16 -0.198223 -1.64913 0
M  V30 71273 O 6601.34 -0.387705 -1.86819 0
M  V30 71274 C 6598.48 -1.14639 -3.25503 0
M  V30 71275 C 6597.59 -2.37333 -3.60967 0
M  V30 71276 C 6596.73 -2.11558 -4.87254 0
M  V30 71277 C 6595.77 -3.30115 -5.15452 0
M  V30 71278 N 6594.9 -3.03887 -6.32928 0
M  V30 71279 H 6599.74 -2.28465 -1.91331 0
M  V30 71280 H 6597.28 -1.13528 -0.935406 0
M  V30 71281 H 6599.24 -1.01852 -4.04576 0
M  V30 71282 H 6597.87 -0.231006 -3.21972 0
M  V30 71283 H 6596.92 -2.60857 -2.76872 0
M  V30 71284 H 6598.23 -3.25749 -3.77742 0
M  V30 71285 H 6597.39 -1.95807 -5.74234 0
M  V30 71286 H 6596.13 -1.20481 -4.72584 0
M  V30 71287 H 6595.13 -3.46404 -4.26947 0
M  V30 71288 H 6596.36 -4.22044 -5.3203 0
M  V30 71289 H 6594.3 -2.1544 -6.19614 0
M  V30 71290 H 6594.22 -3.85846 -6.50122 0
M  V30 71291 H 6595.49 -2.91754 -7.22841 0
M  V30 71292 N 6599.72 0.997234 -1.22037 0
M  V30 71293 C 6600.97 1.73033 -1.03646 0
M  V30 71294 C 6601.28 1.90829 0.429375 0
M  V30 71295 O 6602.48 2.61422 0.732857 0
M  V30 71296 C 6600.94 3.11307 -1.80599 0
M  V30 71297 C 6600.55 3.01457 -3.31403 0
M  V30 71298 C 6602.29 3.88692 -1.70642 0
M  V30 71299 C 6600.2 4.34859 -4.00814 0
M  V30 71300 H 6599.13 0.648765 -0.384213 0
M  V30 71301 H 6601.78 1.1136 -1.45846 0
M  V30 71302 H 6600.16 3.73636 -1.31195 0
M  V30 71303 H 6601.34 2.48319 -3.88168 0
M  V30 71304 H 6599.65 2.37557 -3.41988 0
M  V30 71305 H 6602.25 4.87423 -2.19825 0
M  V30 71306 H 6602.59 4.10937 -0.66604 0
M  V30 71307 H 6603.12 3.33032 -2.17565 0
M  V30 71308 H 6599.86 4.17814 -5.05086 0
M  V30 71309 H 6599.38 4.87927 -3.48837 0
M  V30 71310 H 6601.06 5.03626 -4.06165 0
M  V30 71311 N 6601.19 1.02936 1.19339 0
M  V30 71312 C 6602.16 0.615185 2.2079 0
M  V30 71313 C 6603.16 -0.32145 1.57554 0
M  V30 71314 O 6604.35 -0.108392 1.73862 0
M  V30 71315 C 6601.48 -0.0997425 3.40754 0
M  V30 71316 H 6602.67 1.51283 2.58947 0
M  V30 71317 H 6600.23 0.820604 1.33025 0
M  V30 71318 H 6600.96 -1.01171 3.08115 0
M  V30 71319 H 6600.75 0.573294 3.87886 0
M  V30 71320 H 6602.24 -0.376426 4.159 0
M  V30 71321 N 6602.67 -1.35353 0.807294 0
M  V30 71322 C 6603.58 -2.33569 0.219717 0
M  V30 71323 C 6604.6 -1.61895 -0.637648 0
M  V30 71324 O 6605.77 -1.93766 -0.549234 0
M  V30 71325 C 6602.84 -3.41086 -0.6214 0
M  V30 71326 C 6601.9 -4.28533 0.256541 0
M  V30 71327 C 6601.13 -5.30915 -0.544527 0
M  V30 71328 O 6601.36 -5.41943 -1.77916 0
M  V30 71329 O 6600.29 -6.01865 0.0649652 0
M  V30 71330 H 6604.12 -2.8562 1.03223 0
M  V30 71331 H 6601.7 -1.38136 0.569098 0
M  V30 71332 H 6603.58 -4.06777 -1.10046 0
M  V30 71333 H 6602.26 -2.91305 -1.4115 0
M  V30 71334 H 6601.17 -3.65819 0.782752 0
M  V30 71335 H 6602.5 -4.81713 1.0106 0
M  V30 71336 N 6604.15 -0.560859 -1.47283 0
M  V30 71337 C 6605.08 0.172982 -2.32858 0
M  V30 71338 C 6606.06 0.905205 -1.44014 0
M  V30 71339 O 6607.25 0.884955 -1.72865 0
M  V30 71340 C 6604.38 1.20116 -3.25867 0
M  V30 71341 C 6603.33 0.585164 -4.23981 0
M  V30 71342 C 6602.66 1.71823 -5.06341 0
M  V30 71343 C 6603.96 -0.463453 -5.2024 0
M  V30 71344 H 6605.65 -0.541463 -2.94463 0
M  V30 71345 H 6603.2 -0.261839 -1.41599 0
M  V30 71346 H 6605.15 1.72273 -3.84578 0
M  V30 71347 H 6603.87 1.94559 -2.62325 0
M  V30 71348 H 6602.53 0.0848607 -3.66502 0
M  V30 71349 H 6602.18 2.4518 -4.39199 0
M  V30 71350 H 6601.88 1.31183 -5.72769 0
M  V30 71351 H 6603.4 2.24299 -5.6791 0
M  V30 71352 H 6604.82 -0.0278043 -5.73293 0
M  V30 71353 H 6603.22 -0.788941 -5.94891 0
M  V30 71354 H 6604.29 -1.35798 -4.65496 0
M  V30 71355 N 6605.63 1.54767 -0.297496 0
M  V30 71356 C 6606.85 2.04943 0.318327 0
M  V30 71357 C 6607.28 1.17353 1.47003 0
M  V30 71358 O 6606.64 0.176853 1.80435 0
M  V30 71359 C 6606.68 3.52596 0.755564 0
M  V30 71360 O 6605.79 3.68038 1.86069 0
M  V30 71361 H 6605.13 0.661063 0.0623861 0
M  V30 71362 H 6607.66 1.9985 -0.43832 0
M  V30 71363 H 6607.67 3.94382 1.04532 0
M  V30 71364 H 6606.34 4.15809 -0.0869426 0
M  V30 71365 H 6604.92 3.38157 1.57176 0
M  V30 71366 N 6607.11 0.0251559 1.5758 0
M  V30 71367 C 6608.07 -0.943029 2.08901 0
M  V30 71368 C 6609.07 -1.25662 1.00328 0
M  V30 71369 O 6610.26 -1.19762 1.26502 0
M  V30 71370 C 6607.39 -2.26072 2.55155 0
M  V30 71371 H 6608.59 -0.498619 2.95726 0
M  V30 71372 H 6606.14 -0.222806 1.54704 0
M  V30 71373 H 6606.87 -2.7515 1.71647 0
M  V30 71374 H 6606.66 -2.04624 3.34472 0
M  V30 71375 H 6608.15 -2.95477 2.95099 0
M  V30 71376 N 6608.59 -1.55637 -0.247944 0
M  V30 71377 C 6609.81 -1.81474 -0.993712 0
M  V30 71378 C 6610.23 -0.600735 -1.78988 0
M  V30 71379 O 6609.59 0.430589 -1.77348 0
M  V30 71380 C 6609.64 -3.05516 -1.93242 0
M  V30 71381 O 6609.36 -4.2223 -1.16847 0
M  V30 71382 C 6610.86 -3.44145 -2.79426 0
M  V30 71383 H 6608.08 -0.603913 -0.292455 0
M  V30 71384 H 6610.62 -2.02694 -0.271146 0
M  V30 71385 H 6608.78 -2.86349 -2.60928 0
M  V30 71386 H 6609.19 -4.92524 -1.80333 0
M  V30 71387 H 6610.67 -4.34044 -3.41043 0
M  V30 71388 H 6611.14 -2.64683 -3.50485 0
M  V30 71389 H 6611.75 -3.65659 -2.17194 0
M  V30 71390 N 6610.06 0.513561 -1.48998 0
M  V30 71391 C 6611.03 1.59871 -1.64238 0
M  V30 71392 C 6612.03 1.52337 -0.514776 0
M  V30 71393 O 6613.22 1.55714 -0.780952 0
M  V30 71394 C 6610.35 2.99515 -1.62799 0
M  V30 71395 H 6611.54 1.47692 -2.61012 0
M  V30 71396 H 6609.09 0.736863 -1.37841 0
M  V30 71397 H 6609.83 3.17184 -0.675628 0
M  V30 71398 H 6609.61 3.06392 -2.44677 0
M  V30 71399 H 6611.1 3.78379 -1.76689 0
M  V30 71400 N 6611.54 1.37861 0.763678 0
M  V30 71401 C 6612.47 1.30158 1.88657 0
M  V30 71402 C 6613.49 0.21577 1.61364 0
M  V30 71403 O 6614.68 0.47255 1.72131 0
M  V30 71404 C 6611.78 0.991567 3.2407 0
M  V30 71405 C 6610.95 2.18446 3.78946 0
M  V30 71406 C 6610.01 1.84346 4.92852 0
M  V30 71407 O 6609.03 2.56731 5.08014 0
M  V30 71408 N 6610.24 0.792385 5.75067 0
M  V30 71409 H 6613 2.26916 1.95779 0
M  V30 71410 H 6610.56 1.31591 0.943156 0
M  V30 71411 H 6612.55 0.744145 3.978 0
M  V30 71412 H 6611.12 0.112286 3.12398 0
M  V30 71413 H 6610.34 2.59315 2.969 0
M  V30 71414 H 6611.63 2.9808 4.12342 0
M  V30 71415 H 6611.03 0.191893 5.65374 0
M  V30 71416 H 6609.59 0.604832 6.48988 0
M  V30 71417 N 6613.02 -0.990748 1.22564 0
M  V30 71418 C 6613.93 -2.11552 1.01405 0
M  V30 71419 C 6614.95 -1.73958 -0.0383044 0
M  V30 71420 O 6616.12 -2.00803 0.154893 0
M  V30 71421 C 6613.19 -3.41526 0.59675 0
M  V30 71422 C 6612.25 -3.93208 1.72297 0
M  V30 71423 C 6611.48 -5.16978 1.32548 0
M  V30 71424 O 6611.7 -5.70031 0.205209 0
M  V30 71425 O 6610.64 -5.62467 2.14277 0
M  V30 71426 H 6614.46 -2.32286 1.95645 0
M  V30 71427 H 6612.05 -1.09925 1.01177 0
M  V30 71428 H 6613.93 -4.19733 0.374485 0
M  V30 71429 H 6612.61 -3.22146 -0.316769 0
M  V30 71430 H 6611.51 -3.16164 1.99978 0
M  V30 71431 H 6612.85 -4.17023 2.61443 0
M  V30 71432 N 6614.5 -1.03568 -1.18792 0
M  V30 71433 C 6615.75 -0.731335 -1.87974 0
M  V30 71434 C 6616.06 0.743575 -1.80915 0
M  V30 71435 O 6617.27 1.16124 -2.45413 0
M  V30 71436 C 6615.72 -1.25786 -3.37203 0
M  V30 71437 C 6615.33 -2.76104 -3.52804 0
M  V30 71438 C 6617.07 -1.02982 -4.11819 0
M  V30 71439 C 6614.98 -3.2214 -4.95963 0
M  V30 71440 H 6613.91 -0.269872 -0.704049 0
M  V30 71441 H 6616.56 -1.25086 -1.3426 0
M  V30 71442 H 6614.94 -0.666217 -3.90356 0
M  V30 71443 H 6616.12 -3.40983 -3.09947 0
M  V30 71444 H 6614.43 -2.97265 -2.91587 0
M  V30 71445 H 6617.03 -1.34897 -5.17404 0
M  V30 71446 H 6617.37 0.0331351 -4.16287 0
M  V30 71447 H 6617.91 -1.58582 -3.64824 0
M  V30 71448 H 6614.64 -4.27794 -4.96661 0
M  V30 71449 H 6614.16 -2.61994 -5.39555 0
M  V30 71450 H 6615.84 -3.15874 -5.64653 0
M  V30 71451 N 6615.98 1.34923 -0.814461 0
M  V30 71452 C 6617.22 1.97795 -0.394975 0
M  V30 71453 C 6617.54 1.65316 1.04546 0
M  V30 71454 O 6618.74 2.21612 1.56844 0
M  V30 71455 C 6617.2 3.53884 -0.65529 0
M  V30 71456 C 6616.81 3.95265 -2.10879 0
M  V30 71457 C 6618.55 4.23428 -0.301552 0
M  V30 71458 C 6616.46 5.44231 -2.31444 0
M  V30 71459 H 6615.39 0.740131 -0.143952 0
M  V30 71460 H 6618.04 1.53882 -0.999625 0
M  V30 71461 H 6616.42 3.95995 0.0194165 0
M  V30 71462 H 6617.6 3.64283 -2.82195 0
M  V30 71463 H 6615.91 3.38633 -2.42315 0
M  V30 71464 H 6618.51 5.32943 -0.43315 0
M  V30 71465 H 6618.85 4.09432 0.753094 0
M  V30 71466 H 6619.38 3.86764 -0.930492 0
M  V30 71467 H 6616.12 5.63204 -3.35382 0
M  V30 71468 H 6615.64 5.76755 -1.64661 0
M  V30 71469 H 6617.32 6.108 -2.13384 0
M  V30 71470 N 6617.45 0.568661 1.46983 0
M  V30 71471 C 6618.4 -0.172585 2.30154 0
M  V30 71472 C 6619.37 -0.897513 1.39764 0
M  V30 71473 O 6620.56 -0.890955 1.68721 0
M  V30 71474 C 6617.7 -1.18933 3.23958 0
M  V30 71475 C 6616.81 -0.46929 4.29443 0
M  V30 71476 C 6615.94 -1.47232 5.10388 0
M  V30 71477 C 6614.98 -0.737904 6.07636 0
M  V30 71478 N 6614.12 -1.68832 6.81499 0
M  V30 71479 H 6618.96 0.54275 2.93016 0
M  V30 71480 H 6616.5 0.279477 1.44421 0
M  V30 71481 H 6618.45 -1.79153 3.76776 0
M  V30 71482 H 6617.08 -1.87255 2.62936 0
M  V30 71483 H 6616.14 0.247667 3.79593 0
M  V30 71484 H 6617.45 0.105504 4.98688 0
M  V30 71485 H 6616.6 -2.14773 5.67413 0
M  V30 71486 H 6615.34 -2.08104 4.41071 0
M  V30 71487 H 6614.35 -0.0486393 5.49778 0
M  V30 71488 H 6615.57 -0.134771 6.78966 0
M  V30 71489 H 6613.52 -2.2854 6.14903 0
M  V30 71490 H 6613.43 -1.16597 7.46955 0
M  V30 71491 H 6614.7 -2.35451 7.4309 0
M  V30 71492 N 6618.93 -1.54607 0.3057 0
M  V30 71493 C 6620.16 -2.05108 -0.307454 0
M  V30 71494 C 6620.58 -1.1813 -1.46379 0
M  V30 71495 O 6619.94 -0.186419 -1.80339 0
M  V30 71496 C 6619.99 -3.52991 -0.736854 0
M  V30 71497 O 6619.09 -3.6902 -1.84115 0
M  V30 71498 H 6618.43 -0.661384 -0.0588795 0
M  V30 71499 H 6620.96 -1.99614 0.448912 0
M  V30 71500 H 6620.97 -3.94931 -1.02439 0
M  V30 71501 H 6619.65 -4.15757 0.108993 0
M  V30 71502 H 6618.22 -3.38986 -1.5538 0
M  V30 71503 N 6620.41 -0.0335124 -1.57564 0
M  V30 71504 C 6621.34 0.975702 -2.07395 0
M  V30 71505 C 6622.35 1.28605 -0.998234 0
M  V30 71506 O 6623.54 1.24993 -1.27432 0
M  V30 71507 C 6620.64 2.30196 -2.48722 0
M  V30 71508 C 6619.82 2.17614 -3.79424 0
M  V30 71509 C 6618.88 3.33212 -4.07255 0
M  V30 71510 O 6617.9 3.09901 -4.77441 0
M  V30 71511 N 6619.1 4.57141 -3.57774 0
M  V30 71512 H 6621.87 0.550505 -2.94601 0
M  V30 71513 H 6619.43 0.153145 -1.61174 0
M  V30 71514 H 6621.42 3.06364 -2.64429 0
M  V30 71515 H 6619.99 2.64342 -1.66859 0
M  V30 71516 H 6619.21 1.26146 -3.73471 0
M  V30 71517 H 6620.5 2.06415 -4.65049 0
M  V30 71518 H 6619.9 4.78973 -3.01001 0
M  V30 71519 H 6618.45 5.30462 -3.78752 0
M  V30 71520 N 6621.89 1.55767 0.239687 0
M  V30 71521 C 6622.85 1.90109 1.28027 0
M  V30 71522 C 6623.85 0.778129 1.40719 0
M  V30 71523 O 6625.04 1.04606 1.39295 0
M  V30 71524 C 6622.17 2.13591 2.65691 0
M  V30 71525 H 6623.37 2.83162 0.987898 0
M  V30 71526 H 6620.92 1.4877 0.479303 0
M  V30 71527 H 6621.65 1.23031 3.00057 0
M  V30 71528 H 6621.44 2.95383 2.5786 0
M  V30 71529 H 6622.93 2.41319 3.40815 0
M  V30 71530 N 6623.37 -0.505652 1.49268 0
M  V30 71531 C 6624.62 -1.25667 1.57768 0
M  V30 71532 C 6624.93 -1.93763 0.267473 0
M  V30 71533 O 6626.13 -2.70516 0.23097 0
M  V30 71534 C 6624.59 -2.28151 2.78344 0
M  V30 71535 C 6624.2 -1.66015 4.16105 0
M  V30 71536 C 6625.94 -3.0411 2.96171 0
M  V30 71537 C 6623.85 -2.66582 5.27909 0
M  V30 71538 H 6622.78 -0.472714 0.587416 0
M  V30 71539 H 6625.43 -0.531087 1.75647 0
M  V30 71540 H 6623.81 -3.03851 2.5395 0
M  V30 71541 H 6624.99 -0.963384 4.50617 0
M  V30 71542 H 6623.3 -1.02463 4.03597 0
M  V30 71543 H 6625.9 -3.79307 3.76869 0
M  V30 71544 H 6626.24 -3.61444 2.06553 0
M  V30 71545 H 6626.77 -2.35524 3.20582 0
M  V30 71546 H 6623.51 -2.14035 6.19572 0
M  V30 71547 H 6623.03 -3.34513 4.97856 0
M  V30 71548 H 6624.71 -3.291 5.57048 0
M  V30 71549 N 6624.84 -1.38264 -0.756356 0
M  V30 71550 C 6625.81 -1.35075 -1.85169 0
M  V30 71551 C 6626.81 -0.251787 -1.58816 0
M  V30 71552 O 6628 -0.50852 -1.66612 0
M  V30 71553 C 6625.13 -1.10218 -3.22591 0
M  V30 71554 H 6626.32 -2.3252 -1.89405 0
M  V30 71555 H 6623.88 -1.23517 -0.957765 0
M  V30 71556 H 6624.61 -0.133675 -3.24024 0
M  V30 71557 H 6624.4 -1.8978 -3.43112 0
M  V30 71558 H 6625.89 -1.10675 -4.02667 0
M  V30 71559 N 6626.32 0.984234 -1.23088 0
M  V30 71560 C 6627.55 1.76031 -1.08723 0
M  V30 71561 C 6627.97 1.85305 0.361593 0
M  V30 71562 O 6627.32 1.32945 1.25027 0
M  V30 71563 C 6627.37 3.18914 -1.70223 0
M  V30 71564 O 6627.09 3.10127 -3.09439 0
M  V30 71565 C 6628.6 4.12933 -1.61249 0
M  V30 71566 H 6625.82 0.552552 -0.380694 0
M  V30 71567 H 6628.36 1.23681 -1.6286 0
M  V30 71568 H 6626.51 3.68304 -1.20129 0
M  V30 71569 H 6626.93 4.00047 -3.39209 0
M  V30 71570 H 6628.4 5.10908 -2.08989 0
M  V30 71571 H 6628.88 4.35478 -0.570605 0
M  V30 71572 H 6629.49 3.69445 -2.10691 0
M  V30 71573 N 6627.8 1.04196 1.18241 0
M  V30 71574 C 6628.75 0.634154 2.21917 0
M  V30 71575 C 6629.72 -0.358679 1.62181 0
M  V30 71576 O 6630.9 -0.252366 1.89124 0
M  V30 71577 C 6628.04 0.00463733 3.451 0
M  V30 71578 C 6627.16 1.04509 4.19168 0
M  V30 71579 C 6626.29 0.383955 5.29811 0
M  V30 71580 C 6625.33 1.40941 5.95653 0
M  V30 71581 N 6624.47 0.773152 6.9783 0
M  V30 71582 H 6629.31 1.52277 2.56156 0
M  V30 71583 H 6626.84 0.761767 1.25839 0
M  V30 71584 H 6628.8 -0.3777 4.15487 0
M  V30 71585 H 6627.43 -0.847487 3.11476 0
M  V30 71586 H 6626.48 1.54537 3.47595 0
M  V30 71587 H 6627.8 1.82392 4.64257 0
M  V30 71588 H 6626.95 -0.0525167 6.06677 0
M  V30 71589 H 6625.69 -0.426952 4.85828 0
M  V30 71590 H 6624.69 1.85601 5.17525 0
M  V30 71591 H 6625.92 2.22205 6.41718 0
M  V30 71592 H 6623.86 -0.0174249 6.55998 0
M  V30 71593 H 6623.78 1.48967 7.41178 0
M  V30 71594 H 6625.05 0.36112 7.78663 0
M  V30 71595 N 6629.28 -1.34489 0.821604 0
M  V30 71596 C 6630.23 -2.29543 0.240518 0
M  V30 71597 C 6631.2 -1.53526 -0.63395 0
M  V30 71598 O 6632.38 -1.81902 -0.57587 0
M  V30 71599 C 6629.52 -3.39972 -0.592689 0
M  V30 71600 C 6628.63 -4.3093 0.303877 0
M  V30 71601 C 6627.77 -5.28461 -0.538771 0
M  V30 71602 C 6626.81 -6.11056 0.357264 0
M  V30 71603 N 6625.94 -7.0068 -0.446234 0
M  V30 71604 H 6630.78 -2.78644 1.05647 0
M  V30 71605 H 6628.32 -1.37124 0.532485 0
M  V30 71606 H 6630.28 -4.0268 -1.09107 0
M  V30 71607 H 6628.91 -2.92109 -1.37376 0
M  V30 71608 H 6627.96 -3.69096 0.92047 0
M  V30 71609 H 6629.27 -4.88818 0.992918 0
M  V30 71610 H 6628.43 -5.96614 -1.10169 0
M  V30 71611 H 6627.17 -4.71107 -1.26132 0
M  V30 71612 H 6626.17 -5.41837 0.932332 0
M  V30 71613 H 6627.4 -6.70491 1.07791 0
M  V30 71614 H 6625.34 -6.45797 -1.15248 0
M  V30 71615 H 6625.26 -7.55775 0.184446 0
M  V30 71616 H 6626.53 -7.73163 -0.991944 0
M  V30 71617 N 6630.76 -0.576448 -1.46679 0
M  V30 71618 C 6632.01 -0.0573889 -2.01618 0
M  V30 71619 C 6632.32 1.3081 -1.45424 0
M  V30 71620 O 6633.52 1.91815 -1.92143 0
M  V30 71621 C 6631.98 -0.0520268 -3.59862 0
M  V30 71622 C 6631.59 -1.41545 -4.25052 0
M  V30 71623 C 6633.33 0.413416 -4.22482 0
M  V30 71624 C 6631.24 -1.36815 -5.75357 0
M  V30 71625 H 6630.17 -0.0176845 -0.753793 0
M  V30 71626 H 6632.82 -0.727165 -1.68477 0
M  V30 71627 H 6631.2 0.683788 -3.90052 0
M  V30 71628 H 6632.38 -2.1705 -4.0648 0
M  V30 71629 H 6630.69 -1.8204 -3.745 0
M  V30 71630 H 6633.29 0.467498 -5.32652 0
M  V30 71631 H 6633.63 1.42961 -3.90983 0
M  V30 71632 H 6634.16 -0.268138 -3.96895 0
M  V30 71633 H 6630.9 -2.36095 -6.11506 0
M  V30 71634 H 6630.42 -0.655209 -5.96211 0
M  V30 71635 H 6632.1 -1.07839 -6.3795 0
M  V30 71636 N 6632.23 1.54442 -0.313895 0
M  V30 71637 C 6633.48 1.99569 0.292414 0
M  V30 71638 C 6633.8 1.2059 1.54004 0
M  V30 71639 O 6635 1.56047 2.22175 0
M  V30 71640 C 6633.46 3.55332 0.571564 0
M  V30 71641 C 6633.07 4.43135 -0.658463 0
M  V30 71642 C 6634.81 4.08952 1.13836 0
M  V30 71643 C 6632.72 5.90353 -0.351751 0
M  V30 71644 H 6631.65 0.745478 0.11304 0
M  V30 71645 H 6634.3 1.7852 -0.424612 0
M  V30 71646 H 6632.68 3.72332 1.34852 0
M  V30 71647 H 6633.85 4.37911 -1.43426 0
M  V30 71648 H 6632.17 4.00354 -1.14479 0
M  V30 71649 H 6634.77 5.16524 1.38229 0
M  V30 71650 H 6635.11 3.60341 2.0847 0
M  V30 71651 H 6635.64 3.95547 0.422806 0
M  V30 71652 H 6632.38 6.43139 -1.26701 0
M  V30 71653 H 6631.9 5.98553 0.386527 0
M  V30 71654 H 6633.58 6.46986 0.0419722 0
M  V30 71655 N 6633.71 0.0418679 1.57544 0
M  V30 71656 C 6634.94 -0.647351 1.97038 0
M  V30 71657 C 6635.36 -1.6413 0.918861 0
M  V30 71658 O 6634.72 -1.8091 -0.11891 0
M  V30 71659 C 6634.77 -1.31887 3.35616 0
M  V30 71660 O 6633.87 -2.4344 3.32883 0
M  V30 71661 H 6633.21 -0.169052 0.642119 0
M  V30 71662 H 6635.74 0.107507 2.04317 0
M  V30 71663 H 6635.75 -1.67271 3.72135 0
M  V30 71664 H 6634.43 -0.590369 4.11689 0
M  V30 71665 H 6633.01 -2.10072 3.08098 0
M  V30 71666 N 6635.19 -1.55892 -0.231423 0
M  V30 71667 C 6636.47 -1.69221 -0.981007 0
M  V30 71668 C 6636.85 -0.586271 -2.02796 0
M  V30 71669 O 6636.2 0.408134 -2.24826 0
M  V30 71670 C 6636.41 -3.10143 -1.60038 0
M  V30 71671 C 6637.75 -3.69238 -2.09638 0
M  V30 71672 O 6638.78 -3.13042 -1.6995 0
M  V30 71673 O 6637.64 -4.67787 -2.82556 0
M  V30 71674 H 6634.73 -0.688852 -0.457616 0
M  V30 71675 H 6637.28 -1.68215 -0.223984 0
M  V30 71676 H 6636.05 -3.82092 -0.843904 0
M  V30 71677 H 6635.67 -3.15225 -2.4232 0
M  V30 71678 N 6636.67 0.497729 -1.49534 0
M  V30 71679 C 6637.9 1.27374 -1.62664 0
M  V30 71680 C 6638.31 1.86829 -0.298587 0
M  V30 71681 O 6637.65 1.68729 0.726381 0
M  V30 71682 C 6637.71 2.44079 -2.63943 0
M  V30 71683 C 6637.38 2.05468 -4.08206 0
M  V30 71684 C 6638.37 1.59253 -4.94909 0
M  V30 71685 C 6636.06 2.15002 -4.5396 0
M  V30 71686 C 6638.05 1.2308 -6.25404 0
M  V30 71687 C 6635.74 1.78442 -5.84467 0
M  V30 71688 C 6636.74 1.32556 -6.70013 0
M  V30 71689 O 6636.43 0.964907 -7.98088 0
M  V30 71690 H 6636.16 0.392405 -0.550449 0
M  V30 71691 H 6638.71 0.603698 -1.96328 0
M  V30 71692 H 6636.94 3.14169 -2.25466 0
M  V30 71693 H 6638.63 3.06099 -2.66568 0
M  V30 71694 H 6639.4 1.5133 -4.60787 0
M  V30 71695 H 6635.28 2.49669 -3.87539 0
M  V30 71696 H 6638.82 0.871934 -6.92129 0
M  V30 71697 H 6634.72 1.86016 -6.18117 0
M  V30 71698 H 6635.48 1.09609 -8.11128 0
M  V30 71699 N 6638.15 1.38663 0.749013 0
M  V30 71700 C 6639.1 1.32761 1.85361 0
M  V30 71701 C 6640.08 0.211029 1.5951 0
M  V30 71702 O 6641.27 0.44739 1.71253 0
M  V30 71703 C 6638.4 1.15952 3.23125 0
M  V30 71704 C 6637.49 2.32252 3.54852 0
M  V30 71705 N 6637.88 3.57703 3.57606 0
M  V30 71706 C 6636.18 2.24904 3.85142 0
M  V30 71707 C 6636.88 4.34528 3.8673 0
M  V30 71708 N 6635.85 3.6394 4.03793 0
M  V30 71709 H 6639.66 2.27739 1.85775 0
M  V30 71710 H 6637.17 1.3196 0.946588 0
M  V30 71711 H 6639.17 1.09807 4.02179 0
M  V30 71712 H 6637.83 0.219117 3.2396 0
M  V30 71713 H 6638.84 3.91313 3.39256 0
M  V30 71714 H 6635.52 1.39048 3.93665 0
M  V30 71715 H 6636.91 5.43206 3.95446 0
M  V30 71716 N 6639.63 -0.977692 1.23608 0
M  V30 71717 C 6640.56 -2.07311 0.977478 0
M  V30 71718 C 6641.57 -1.62725 -0.0494987 0
M  V30 71719 O 6642.76 -1.77525 0.186354 0
M  V30 71720 C 6639.86 -3.3588 0.451393 0
M  V30 71721 C 6639.03 -4.09424 1.53917 0
M  V30 71722 C 6638.09 -5.16269 1.01749 0
M  V30 71723 O 6637.12 -5.43 1.70705 0
M  V30 71724 N 6638.32 -5.80298 -0.153288 0
M  V30 71725 H 6641.08 -2.30072 1.92059 0
M  V30 71726 H 6638.65 -1.14459 1.14503 0
M  V30 71727 H 6640.64 -4.04606 0.0873708 0
M  V30 71728 H 6639.21 -3.10066 -0.397205 0
M  V30 71729 H 6638.43 -3.35116 2.07584 0
M  V30 71730 H 6639.72 -4.55325 2.27061 0
M  V30 71731 H 6639.11 -5.6097 -0.730027 0
M  V30 71732 H 6637.67 -6.50185 -0.458549 0
M  V30 71733 N 6641.1 -1.04822 -1.17686 0
M  V30 71734 C 6642.04 -0.603938 -2.211 0
M  V30 71735 C 6643.05 0.330376 -1.59413 0
M  V30 71736 O 6644.24 0.123696 -1.78071 0
M  V30 71737 C 6641.34 0.136719 -3.38624 0
M  V30 71738 C 6640.51 -0.807364 -4.29884 0
M  V30 71739 C 6639.57 -0.108637 -5.26088 0
M  V30 71740 O 6638.6 -0.741529 -5.64349 0
M  V30 71741 N 6639.8 1.15528 -5.68888 0
M  V30 71742 H 6642.56 -1.49343 -2.5984 0
M  V30 71743 H 6640.12 -0.929657 -1.32548 0
M  V30 71744 H 6642.12 0.61419 -4.00012 0
M  V30 71745 H 6640.69 0.927836 -2.98513 0
M  V30 71746 H 6639.91 -1.46454 -3.65985 0
M  V30 71747 H 6641.19 -1.44833 -4.87751 0
M  V30 71748 H 6640.59 1.68987 -5.3987 0
M  V30 71749 H 6639.15 1.57689 -6.32438 0
M  V30 71750 N 6642.58 1.34052 -0.828725 0
M  V30 71751 C 6643.83 1.98106 -0.419563 0
M  V30 71752 C 6644.16 1.65684 1.01878 0
M  V30 71753 O 6643.41 0.923603 1.72534 0
M  V30 71754 C 6643.71 3.52738 -0.575412 0
M  V30 71755 C 6643.38 4.05085 -1.98033 0
M  V30 71756 C 6642.04 4.19092 -2.36465 0
M  V30 71757 C 6644.39 4.33172 -2.89847 0
M  V30 71758 C 6641.72 4.58516 -3.66033 0
M  V30 71759 C 6644.07 4.74044 -4.18885 0
M  V30 71760 C 6642.73 4.86257 -4.57286 0
M  V30 71761 H 6642 0.724921 -0.153529 0
M  V30 71762 H 6644.65 1.59898 -1.05379 0
M  V30 71763 H 6642.96 3.91542 0.142179 0
M  V30 71764 H 6644.65 4.00286 -0.239268 0
M  V30 71765 H 6641.24 3.94649 -1.67182 0
M  V30 71766 H 6645.43 4.21883 -2.61397 0
M  V30 71767 H 6640.68 4.66163 -3.95604 0
M  V30 71768 H 6644.86 4.94736 -4.90112 0
M  V30 71769 H 6642.48 5.16563 -5.57734 0
M  V30 71770 N 6644.06 0.584219 1.46372 0
M  V30 71771 C 6645.48 0.246012 1.57693 0
M  V30 71772 C 6645.68 -1.25167 1.5791 0
M  V30 71773 O 6644.73 -2.03347 1.49687 0
M  V30 71774 C 6646.04 0.896554 2.87023 0
M  V30 71775 C 6647.59 0.870285 3.00658 0
M  V30 71776 C 6648.07 1.5004 4.32726 0
M  V30 71777 N 6649.56 1.46481 4.39429 0
M  V30 71778 C 6650.29 1.92172 5.40238 0
M  V30 71779 N 6649.79 2.45844 6.47713 0
M  V30 71780 N 6651.58 1.8308 5.31449 0
M  V30 71781 H 6643.73 1.55695 1.44475 0
M  V30 71782 H 6646 0.650868 0.689257 0
M  V30 71783 H 6645.7 1.95017 2.92679 0
M  V30 71784 H 6645.58 0.405683 3.75012 0
M  V30 71785 H 6647.96 -0.174716 2.94582 0
M  V30 71786 H 6648.04 1.39919 2.14141 0
M  V30 71787 H 6647.69 2.5446 4.39559 0
M  V30 71788 H 6647.62 0.946705 5.1802 0
M  V30 71789 H 6650.11 1.0725 3.62362 0
M  V30 71790 H 6650.42 2.78563 7.20849 0
M  V30 71791 H 6648.77 2.4987 6.48529 0
M  V30 71792 H 6651.96 1.40906 4.46389 0
M  V30 71793 H 6652.13 2.19005 6.0987 0
M  V30 71794 N 6645.54 -1.54274 0.322081 0
M  V30 71795 C 6646.77 -2.04659 -0.282534 0
M  V30 71796 C 6647.18 -1.19791 -1.46447 0
M  V30 71797 O 6646.52 -0.221028 -1.82365 0
M  V30 71798 C 6646.58 -3.50899 -0.781672 0
M  V30 71799 C 6646.24 -4.56155 0.277758 0
M  V30 71800 C 6647.24 -5.07839 1.11334 0
M  V30 71801 C 6644.93 -5.00494 0.42552 0
M  V30 71802 C 6646.92 -6.02423 2.08242 0
M  V30 71803 C 6644.61 -5.94894 1.39803 0
M  V30 71804 C 6645.61 -6.45744 2.22494 0
M  V30 71805 O 6645.29 -7.3829 3.18093 0
M  V30 71806 H 6645.03 -0.67313 -0.0622282 0
M  V30 71807 H 6647.58 -2.00046 0.465898 0
M  V30 71808 H 6645.81 -3.52905 -1.58099 0
M  V30 71809 H 6647.5 -3.84367 -1.30447 0
M  V30 71810 H 6648.26 -4.74364 1.01016 0
M  V30 71811 H 6644.14 -4.60529 -0.208227 0
M  V30 71812 H 6647.69 -6.42038 2.72825 0
M  V30 71813 H 6643.58 -6.27786 1.50185 0
M  V30 71814 H 6644.35 -7.56159 3.13315 0
M  V30 71815 N 6647.02 -0.0502223 -1.5752 0
M  V30 71816 C 6647.96 0.924492 -2.11475 0
M  V30 71817 C 6648.93 1.30945 -1.02189 0
M  V30 71818 O 6650.12 1.39909 -1.29731 0
M  V30 71819 C 6647.26 2.19437 -2.66349 0
M  V30 71820 C 6646.37 1.86397 -3.89718 0
M  V30 71821 C 6645.51 3.07836 -4.32909 0
M  V30 71822 C 6644.54 2.70713 -5.48982 0
M  V30 71823 N 6643.68 3.84843 -5.87231 0
M  V30 71824 H 6648.52 0.457484 -2.94467 0
M  V30 71825 H 6646.06 0.21419 -1.45532 0
M  V30 71826 H 6648.02 2.93742 -2.96262 0
M  V30 71827 H 6646.65 2.63716 -1.86155 0
M  V30 71828 H 6645.7 1.02244 -3.66402 0
M  V30 71829 H 6647.01 1.55071 -4.74083 0
M  V30 71830 H 6646.16 3.90442 -4.64371 0
M  V30 71831 H 6644.9 3.4234 -3.47354 0
M  V30 71832 H 6643.91 1.86524 -5.17193 0
M  V30 71833 H 6645.13 2.37403 -6.36252 0
M  V30 71834 H 6643.08 4.19149 -5.04629 0
M  V30 71835 H 6643 3.57212 -6.66285 0
M  V30 71836 H 6644.26 4.68091 -6.23307 0
M  V30 71837 N 6648.49 1.56012 0.223152 0
M  V30 71838 C 6649.42 1.95305 1.27978 0
M  V30 71839 C 6650.4 0.821058 1.48972 0
M  V30 71840 O 6651.59 1.08324 1.61182 0
M  V30 71841 C 6648.72 2.26836 2.62988 0
M  V30 71842 C 6647.67 3.4251 2.56653 0
M  V30 71843 C 6647 3.59643 3.95678 0
M  V30 71844 C 6648.3 4.77528 2.11576 0
M  V30 71845 H 6649.99 2.83815 0.953375 0
M  V30 71846 H 6647.54 1.3655 0.457172 0
M  V30 71847 H 6649.49 2.52915 3.37063 0
M  V30 71848 H 6648.22 1.35177 2.97313 0
M  V30 71849 H 6646.88 3.16477 1.85035 0
M  V30 71850 H 6646.52 2.65362 4.27308 0
M  V30 71851 H 6646.22 4.37444 3.92321 0
M  V30 71852 H 6647.75 3.88069 4.71418 0
M  V30 71853 H 6649.16 5.02823 2.75394 0
M  V30 71854 H 6647.56 5.58602 2.19281 0
M  V30 71855 H 6648.63 4.72992 1.06799 0
M  V30 71856 N 6649.97 -0.489791 1.49796 0
M  V30 71857 C 6650.9 -1.60705 1.63422 0
M  V30 71858 C 6651.92 -1.54392 0.516411 0
M  V30 71859 O 6653.11 -1.60121 0.788897 0
M  V30 71860 C 6650.21 -2.99534 1.58532 0
M  V30 71861 C 6649.38 -3.30913 2.86034 0
M  V30 71862 C 6648.44 -4.49208 2.74042 0
M  V30 71863 O 6647.46 -4.50437 3.47988 0
M  V30 71864 N 6648.67 -5.4978 1.86338 0
M  V30 71865 H 6651.43 -1.49439 2.59785 0
M  V30 71866 H 6648.99 -0.677878 1.47025 0
M  V30 71867 H 6650.98 -3.76609 1.48148 0
M  V30 71868 H 6649.55 -3.04666 0.699811 0
M  V30 71869 H 6648.77 -2.42628 3.10685 0
M  V30 71870 H 6650.06 -3.4868 3.70539 0
M  V30 71871 H 6649.46 -5.51594 1.25539 0
M  V30 71872 H 6648.02 -6.25913 1.8187 0
M  V30 71873 N 6651.45 -1.39059 -0.741649 0
M  V30 71874 C 6652.73 -1.26433 -1.49245 0
M  V30 71875 C 6653.11 0.129033 -2.10705 0
M  V30 71876 O 6652.46 1.13966 -1.98051 0
M  V30 71877 C 6652.67 -2.38361 -2.54922 0
M  V30 71878 C 6654.01 -2.7736 -3.21491 0
M  V30 71879 O 6655.04 -2.37761 -2.65232 0
M  V30 71880 O 6653.9 -3.45687 -4.23276 0
M  V30 71881 H 6650.99 -0.495099 -0.662424 0
M  V30 71882 H 6653.54 -1.50916 -0.776041 0
M  V30 71883 H 6652.31 -3.3154 -2.07839 0
M  V30 71884 H 6651.93 -2.15507 -3.3413 0
M  V30 71885 N 6652.93 0.971123 -1.24125 0
M  V30 71886 C 6654.18 1.71365 -1.0789 0
M  V30 71887 C 6654.5 1.90696 0.382801 0
M  V30 71888 O 6653.76 1.46338 1.29938 0
M  V30 71889 C 6654.06 3.11061 -1.75999 0
M  V30 71890 C 6653.72 3.11582 -3.25926 0
M  V30 71891 C 6652.39 3.11431 -3.6683 0
M  V30 71892 C 6654.74 3.06178 -4.21787 0
M  V30 71893 C 6652.07 3.03605 -5.02037 0
M  V30 71894 C 6654.42 2.99894 -5.56998 0
M  V30 71895 C 6653.08 2.9807 -5.97252 0
M  V30 71896 H 6652.35 0.627069 -0.394797 0
M  V30 71897 H 6655 1.13578 -1.54182 0
M  V30 71898 H 6653.3 3.72291 -1.22091 0
M  V30 71899 H 6655 3.67301 -1.60906 0
M  V30 71900 H 6651.59 3.12462 -2.93369 0
M  V30 71901 H 6655.77 3.05427 -3.91188 0
M  V30 71902 H 6651.03 3.00552 -5.32427 0
M  V30 71903 H 6655.2 2.94671 -6.30985 0
M  V30 71904 H 6652.83 2.91761 -7.01983 0
M  V30 71905 N 6654.41 1.05445 1.17129 0
M  V30 71906 C 6655.63 0.786497 1.91909 0
M  V30 71907 C 6656.06 -0.652141 1.76433 0
M  V30 71908 O 6655.41 -1.45339 1.0838 0
M  V30 71909 C 6655.46 1.17515 3.40914 0
M  V30 71910 O 6654.57 0.308806 4.11242 0
M  V30 71911 H 6653.91 0.288189 0.5982 0
M  V30 71912 H 6656.44 1.40798 1.48449 0
M  V30 71913 H 6656.45 1.14301 3.91662 0
M  V30 71914 H 6655.12 2.22311 3.51498 0
M  V30 71915 H 6653.7 0.401765 3.70729 0
M  V30 71916 N 6655.88 -1.3361 0.835823 0
M  V30 71917 C 6657.16 -1.92404 0.352119 0
M  V30 71918 C 6657.54 -1.7623 -1.16216 0
M  V30 71919 O 6656.89 -1.14883 -1.9752 0
M  V30 71920 C 6657.1 -3.39809 0.795664 0
M  V30 71921 C 6658.45 -4.16958 0.801923 0
M  V30 71922 O 6659.47 -3.48448 0.739073 0
M  V30 71923 O 6658.33 -5.39255 0.886891 0
M  V30 71924 H 6655.42 -0.821052 0.0990074 0
M  V30 71925 H 6657.97 -1.42503 0.921473 0
M  V30 71926 H 6656.74 -3.4544 1.83813 0
M  V30 71927 H 6656.37 -3.97083 0.202714 0
M  V30 71928 N 6657.36 -0.591973 -1.4606 0
M  V30 71929 C 6658.29 0.17388 -2.28539 0
M  V30 71930 C 6659.31 0.84668 -1.39051 0
M  V30 71931 O 6660.5 0.714687 -1.63568 0
M  V30 71932 C 6657.6 1.26629 -3.14354 0
M  V30 71933 C 6656.77 0.683628 -4.32025 0
M  V30 71934 C 6655.83 1.66492 -4.99166 0
M  V30 71935 O 6654.85 1.19733 -5.56464 0
M  V30 71936 N 6656.06 2.99917 -4.97021 0
M  V30 71937 H 6658.82 -0.533788 -2.94908 0
M  V30 71938 H 6656.38 -0.430376 -1.56075 0
M  V30 71939 H 6658.37 1.92223 -3.56135 0
M  V30 71940 H 6656.94 1.87669 -2.49998 0
M  V30 71941 H 6656.16 -0.150008 -3.93914 0
M  V30 71942 H 6657.45 0.274299 -5.0806 0
M  V30 71943 H 6656.85 3.40521 -4.51732 0
M  V30 71944 H 6655.41 3.60975 -5.42715 0
M  V30 71945 N 6658.84 1.54101 -0.330258 0
M  V30 71946 C 6659.77 2.27516 0.525233 0
M  V30 71947 C 6660.75 1.28566 1.11377 0
M  V30 71948 O 6661.94 1.57389 1.13765 0
M  V30 71949 C 6659.07 3.038 1.68294 0
M  V30 71950 C 6658.02 4.10143 1.22339 0
M  V30 71951 C 6657.35 4.74306 2.46857 0
M  V30 71952 C 6658.65 5.21235 0.333422 0
M  V30 71953 H 6660.34 2.99273 -0.0871708 0
M  V30 71954 H 6657.89 1.43935 -0.0433652 0
M  V30 71955 H 6659.84 3.53892 2.28776 0
M  V30 71956 H 6658.56 2.29671 2.32204 0
M  V30 71957 H 6657.22 3.60944 0.64146 0
M  V30 71958 H 6656.87 3.96785 3.09145 0
M  V30 71959 H 6656.57 5.46144 2.16796 0
M  V30 71960 H 6658.09 5.27175 3.08089 0
M  V30 71961 H 6659.51 5.67043 0.844713 0
M  V30 71962 H 6657.91 5.99969 0.125296 0
M  V30 71963 H 6658.98 4.80738 -0.633977 0
M  V30 71964 N 6660.32 0.0585753 1.57491 0
M  V30 71965 C 6661.54 -0.626416 1.97714 0
M  V30 71966 C 6661.97 -1.63146 0.936218 0
M  V30 71967 O 6661.33 -1.81026 -0.0997155 0
M  V30 71968 C 6661.37 -1.2832 3.36996 0
M  V30 71969 O 6660.48 -2.39896 3.35446 0
M  V30 71970 H 6659.82 -0.162232 0.643876 0
M  V30 71971 H 6662.35 0.129171 2.04192 0
M  V30 71972 H 6662.36 -1.63315 3.73888 0
M  V30 71973 H 6661.03 -0.546671 4.12292 0
M  V30 71974 H 6659.61 -2.06792 3.10308 0
M  V30 71975 N 6661.8 -1.56128 -0.214875 0
M  V30 71976 C 6663.07 -1.70252 -0.963003 0
M  V30 71977 C 6663.45 -0.607747 -2.02162 0
M  V30 71978 O 6662.8 0.384266 -2.25246 0
M  V30 71979 C 6663.01 -3.11823 -1.56739 0
M  V30 71980 C 6664.36 -3.71441 -2.0571 0
M  V30 71981 O 6665.38 -3.14827 -1.6662 0
M  V30 71982 O 6664.24 -4.70758 -2.77578 0
M  V30 71983 H 6661.34 -0.693666 -0.450284 0
M  V30 71984 H 6663.88 -1.68443 -0.20613 0
M  V30 71985 H 6662.65 -3.82965 -0.803331 0
M  V30 71986 H 6662.28 -3.17777 -2.38963 0
M  V30 71987 N 6663.27 0.481841 -1.50054 0
M  V30 71988 C 6664.5 1.25641 -1.64006 0
M  V30 71989 C 6664.91 1.86502 -0.318386 0
M  V30 71990 O 6664.26 1.6949 0.708444 0
M  V30 71991 C 6664.32 2.41266 -2.66517 0
M  V30 71992 C 6663.98 2.01126 -4.10362 0
M  V30 71993 C 6664.98 1.53994 -4.9657 0
M  V30 71994 C 6662.66 2.10175 -4.56214 0
M  V30 71995 C 6664.66 1.1644 -6.26674 0
M  V30 71996 C 6662.34 1.72233 -5.86327 0
M  V30 71997 C 6663.34 1.25442 -6.71382 0
M  V30 71998 O 6663.03 0.880204 -7.99067 0
M  V30 71999 H 6662.76 0.386544 -0.55458 0
M  V30 72000 H 6665.32 0.582841 -1.96957 0
M  V30 72001 H 6663.55 3.1176 -2.28785 0
M  V30 72002 H 6665.24 3.03254 -2.69799 0
M  V30 72003 H 6666 1.46434 -4.62366 0
M  V30 72004 H 6661.88 2.45545 -3.90165 0
M  V30 72005 H 6665.42 0.798475 -6.93015 0
M  V30 72006 H 6661.32 1.79449 -6.20055 0
M  V30 72007 H 6662.09 1.01 -8.12245 0
M  V30 72008 N 6664.75 1.3945 0.734264 0
M  V30 72009 C 6665.98 1.39786 1.52129 0
M  V30 72010 C 6666.39 -0.00919335 1.89198 0
M  V30 72011 O 6665.73 -0.991086 1.54671 0
M  V30 72012 C 6665.8 2.20739 2.83751 0
M  V30 72013 C 6665.46 3.69361 2.69112 0
M  V30 72014 C 6666.46 4.62425 2.37611 0
M  V30 72015 C 6664.14 4.12955 2.8596 0
M  V30 72016 C 6666.14 5.97065 2.2314 0
M  V30 72017 C 6663.82 5.47671 2.71108 0
M  V30 72018 C 6664.82 6.3954 2.39744 0
M  V30 72019 O 6664.51 7.71775 2.24985 0
M  V30 72020 H 6664.24 0.479313 0.476691 0
M  V30 72021 H 6666.79 1.83898 0.914915 0
M  V30 72022 H 6665.02 1.71377 3.46651 0
M  V30 72023 H 6666.71 2.13245 3.45372 0
M  V30 72024 H 6667.48 4.30046 2.24245 0
M  V30 72025 H 6663.36 3.41781 3.09365 0
M  V30 72026 H 6666.9 6.68739 1.98581 0
M  V30 72027 H 6662.8 5.79641 2.84053 0
M  V30 72028 H 6663.57 7.82508 2.40049 0
M  V30 72029 N 6666.23 -0.964527 1.24638 0
M  V30 72030 C 6667.14 -2.09353 1.0587 0
M  V30 72031 C 6668.16 -1.74 -0.0013968 0
M  V30 72032 O 6669.33 -2.0043 0.197452 0
M  V30 72033 C 6666.4 -3.40183 0.669058 0
M  V30 72034 C 6665.46 -3.89464 1.80599 0
M  V30 72035 C 6664.69 -5.1405 1.43484 0
M  V30 72036 O 6664.92 -5.69467 0.326075 0
M  V30 72037 O 6663.85 -5.57795 2.26159 0
M  V30 72038 H 6667.68 -2.28083 2.00528 0
M  V30 72039 H 6665.26 -1.07754 1.03486 0
M  V30 72040 H 6667.14 -4.18844 0.463432 0
M  V30 72041 H 6665.82 -3.22746 -0.248366 0
M  V30 72042 H 6664.72 -3.11851 2.06639 0
M  V30 72043 H 6666.06 -4.11384 2.7023 0
M  V30 72044 N 6667.71 -1.06064 -1.16568 0
M  V30 72045 C 6668.66 -0.669379 -2.2088 0
M  V30 72046 C 6669.63 0.332832 -1.62731 0
M  V30 72047 O 6670.81 0.222247 -1.89501 0
M  V30 72048 C 6667.95 -0.0595391 -3.45049 0
M  V30 72049 C 6667.06 -1.11165 -4.17452 0
M  V30 72050 C 6666.2 -0.468195 -5.29133 0
M  V30 72051 C 6665.24 -1.504 -5.93335 0
M  V30 72052 N 6664.38 -0.884073 -6.96512 0
M  V30 72053 H 6669.22 -1.56333 -2.53701 0
M  V30 72054 H 6666.75 -0.781691 -1.24611 0
M  V30 72055 H 6668.71 0.311552 -4.16035 0
M  V30 72056 H 6667.34 0.797827 -3.12785 0
M  V30 72057 H 6666.39 -1.60047 -3.45093 0
M  V30 72058 H 6667.7 -1.89755 -4.61297 0
M  V30 72059 H 6666.86 -0.044007 -6.06684 0
M  V30 72060 H 6665.6 0.349607 -4.86445 0
M  V30 72061 H 6664.6 -1.93811 -5.14507 0
M  V30 72062 H 6665.83 -2.32386 -6.38102 0
M  V30 72063 H 6663.77 -0.0869409 -6.55942 0
M  V30 72064 H 6663.69 -1.60739 -7.38714 0
M  V30 72065 H 6664.96 -0.484953 -7.7799 0
M  V30 72066 N 6669.19 1.33165 -0.842897 0
M  V30 72067 C 6670.43 1.9765 -0.440551 0
M  V30 72068 C 6670.76 1.66755 1.00115 0
M  V30 72069 O 6670.02 0.941851 1.71545 0
M  V30 72070 C 6670.32 3.52107 -0.612793 0
M  V30 72071 C 6669.98 4.02961 -2.02319 0
M  V30 72072 C 6668.64 4.1656 -2.40896 0
M  V30 72073 C 6671 4.30074 -2.94425 0
M  V30 72074 C 6668.32 4.54608 -3.70876 0
M  V30 72075 C 6670.68 4.69575 -4.23889 0
M  V30 72076 C 6669.34 4.81379 -4.62418 0
M  V30 72077 H 6668.61 0.723251 -0.161209 0
M  V30 72078 H 6671.26 1.58772 -1.07069 0
M  V30 72079 H 6669.56 3.91671 0.100643 0
M  V30 72080 H 6671.26 4.00009 -0.28171 0
M  V30 72081 H 6667.85 3.92854 -1.71359 0
M  V30 72082 H 6672.03 4.19087 -2.65857 0
M  V30 72083 H 6667.29 4.61941 -4.00526 0
M  V30 72084 H 6671.46 4.89509 -4.95332 0
M  V30 72085 H 6669.09 5.10618 -5.63181 0
M  V30 72086 N 6670.67 0.599711 1.45744 0
M  V30 72087 C 6671.91 0.0894573 2.01502 0
M  V30 72088 C 6672.23 -1.2848 1.47487 0
M  V30 72089 O 6673.43 -1.88734 1.95171 0
M  V30 72090 C 6671.89 0.109271 3.59734 0
M  V30 72091 C 6671.5 1.48289 4.22746 0
M  V30 72092 C 6673.24 -0.346151 4.23086 0
M  V30 72093 C 6671.15 1.45952 5.73107 0
M  V30 72094 H 6670.08 0.0296745 0.753416 0
M  V30 72095 H 6672.73 0.753876 1.67299 0
M  V30 72096 H 6671.11 -0.621648 3.9109 0
M  V30 72097 H 6672.29 2.23489 4.02975 0
M  V30 72098 H 6670.6 1.87975 3.71557 0
M  V30 72099 H 6673.2 -0.382698 5.33329 0
M  V30 72100 H 6673.54 -1.36723 3.93208 0
M  V30 72101 H 6674.07 0.331247 3.96418 0
M  V30 72102 H 6670.81 2.45794 6.07672 0
M  V30 72103 H 6670.33 0.749978 5.95093 0
M  V30 72104 H 6672.01 1.17974 6.36153 0
M  V30 72105 N 6672.14 -1.53923 0.338426 0
M  V30 72106 C 6673.11 -2.23495 -0.508181 0
M  V30 72107 C 6674.11 -1.2334 -1.03169 0
M  V30 72108 O 6675.3 -1.47816 -0.921748 0
M  V30 72109 C 6672.43 -2.95061 -1.70739 0
M  V30 72110 H 6673.62 -2.99733 0.100216 0
M  V30 72111 H 6671.17 -1.56042 0.0897021 0
M  V30 72112 H 6671.91 -2.22998 -2.35462 0
M  V30 72113 H 6671.69 -3.68519 -1.33926 0
M  V30 72114 H 6673.18 -3.48025 -2.30799 0
M  V30 72115 N 6673.62 -0.0669266 -1.57458 0
M  V30 72116 C 6674.53 0.916861 -2.15942 0
M  V30 72117 C 6675.55 1.33052 -1.1213 0
M  V30 72118 O 6676.72 1.40421 -1.44374 0
M  V30 72119 C 6673.79 2.16793 -2.70558 0
M  V30 72120 C 6672.85 1.81114 -3.89225 0
M  V30 72121 C 6672.08 3.00257 -4.41227 0
M  V30 72122 O 6672.31 4.14124 -3.92247 0
M  V30 72123 O 6671.24 2.80356 -5.3262 0
M  V30 72124 H 6675.07 0.449402 -3.00357 0
M  V30 72125 H 6672.65 0.15587 -1.48585 0
M  V30 72126 H 6674.53 2.90165 -3.05585 0
M  V30 72127 H 6673.21 2.62646 -1.89206 0
M  V30 72128 H 6672.11 1.05009 -3.5906 0
M  V30 72129 H 6673.45 1.40048 -4.71855 0
M  V30 72130 N 6675.1 1.5624 0.206592 0
M  V30 72131 C 6676.32 1.84395 0.949377 0
M  V30 72132 C 6676.75 0.649109 1.76545 0
M  V30 72133 O 6676.11 -0.402138 1.76784 0
M  V30 72134 C 6676.16 3.10678 1.83062 0
M  V30 72135 O 6675.26 2.90423 2.92794 0
M  V30 72136 H 6674.6 0.607513 0.268001 0
M  V30 72137 H 6677.13 2.03463 0.215381 0
M  V30 72138 H 6677.14 3.41173 2.23752 0
M  V30 72139 H 6675.82 3.97267 1.23092 0
M  V30 72140 H 6674.39 2.71198 2.55942 0
M  V30 72141 N 6676.58 -0.473876 1.50307 0
M  V30 72142 C 6677.52 -1.57222 1.68967 0
M  V30 72143 C 6678.49 -1.57384 0.530982 0
M  V30 72144 O 6679.68 -1.74957 0.761225 0
M  V30 72145 C 6676.82 -2.95214 1.78725 0
M  V30 72146 C 6675.93 -3.04862 3.06077 0
M  V30 72147 C 6675.07 -4.33751 3.06649 0
M  V30 72148 C 6674.11 -4.37131 4.28466 0
M  V30 72149 N 6673.24 -5.57488 4.26793 0
M  V30 72150 H 6678.08 -1.40617 2.62737 0
M  V30 72151 H 6675.62 -0.68372 1.30245 0
M  V30 72152 H 6677.58 -3.75232 1.82364 0
M  V30 72153 H 6676.21 -3.10461 0.883969 0
M  V30 72154 H 6675.26 -2.17734 3.11923 0
M  V30 72155 H 6676.57 -3.03219 3.96055 0
M  V30 72156 H 6675.73 -5.22114 3.09001 0
M  V30 72157 H 6674.47 -4.37999 2.14496 0
M  V30 72158 H 6673.47 -3.47166 4.26329 0
M  V30 72159 H 6674.7 -4.34577 5.21842 0
M  V30 72160 H 6672.64 -5.62526 3.37491 0
M  V30 72161 H 6672.56 -5.57574 5.10536 0
M  V30 72162 H 6673.83 -6.47984 4.33287 0
M  V30 72163 N 6678.06 -1.39838 -0.726858 0
M  V30 72164 C 6679.47 -1.2162 -1.03347 0
M  V30 72165 C 6679.67 -0.0834861 -2.01327 0
M  V30 72166 O 6678.73 0.56225 -2.46161 0
M  V30 72167 C 6680.04 -2.55351 -1.58797 0
M  V30 72168 C 6681.59 -2.62266 -1.70838 0
M  V30 72169 C 6682.06 -3.96238 -2.29695 0
M  V30 72170 N 6683.55 -3.9792 -2.37095 0
M  V30 72171 C 6684.29 -4.9836 -2.83592 0
M  V30 72172 N 6683.79 -6.09197 -3.29926 0
M  V30 72173 N 6685.58 -4.85735 -2.82875 0
M  V30 72174 H 6677.73 -2.1226 -0.0771949 0
M  V30 72175 H 6679.99 -0.943039 -0.0968605 0
M  V30 72176 H 6679.7 -3.38831 -0.942677 0
M  V30 72177 H 6679.57 -2.75645 -2.57487 0
M  V30 72178 H 6681.96 -1.79164 -2.34487 0
M  V30 72179 H 6682.04 -2.45813 -0.707783 0
M  V30 72180 H 6681.68 -4.79774 -1.66671 0
M  V30 72181 H 6681.61 -4.10015 -3.30447 0
M  V30 72182 H 6684.11 -3.17878 -2.04357 0
M  V30 72183 H 6684.42 -6.81739 -3.6394 0
M  V30 72184 H 6682.76 -6.12779 -3.27914 0
M  V30 72185 H 6685.95 -3.98244 -2.46006 0
M  V30 72186 H 6686.13 -5.64156 -3.18797 0
M  V30 72187 N 6679.53 0.957904 -1.25148 0
M  V30 72188 C 6680.46 2.07167 -1.07722 0
M  V30 72189 C 6681.44 1.70095 0.0127565 0
M  V30 72190 O 6682.63 1.93571 -0.156163 0
M  V30 72191 C 6679.76 3.40343 -0.691682 0
M  V30 72192 C 6678.71 3.9141 -1.73153 0
M  V30 72193 C 6678.04 5.21043 -1.20077 0
M  V30 72194 C 6679.34 4.18153 -3.12962 0
M  V30 72195 H 6681.03 2.22004 -2.00885 0
M  V30 72196 H 6678.58 1.06679 -0.967247 0
M  V30 72197 H 6680.53 4.17706 -0.556725 0
M  V30 72198 H 6679.26 3.25435 0.275647 0
M  V30 72199 H 6677.92 3.16212 -1.85487 0
M  V30 72200 H 6677.56 5.02502 -0.223764 0
M  V30 72201 H 6677.26 5.56179 -1.89574 0
M  V30 72202 H 6678.79 6.01006 -1.07814 0
M  V30 72203 H 6680.2 4.86187 -3.038 0
M  V30 72204 H 6678.6 4.64539 -3.799 0
M  V30 72205 H 6679.67 3.24554 -3.60267 0
M  V30 72206 N 6681.01 1.06681 1.16004 0
M  V30 72207 C 6682.26 0.780916 1.85969 0
M  V30 72208 C 6682.57 -0.695347 1.82823 0
M  V30 72209 O 6683.78 -1.09576 2.48406 0
M  V30 72210 C 6682.24 1.34682 3.33749 0
M  V30 72211 C 6681.84 2.85361 3.45359 0
M  V30 72212 C 6683.59 1.13864 4.08944 0
M  V30 72213 C 6681.5 3.35176 4.87248 0
M  V30 72214 H 6680.43 0.288444 0.696646 0
M  V30 72215 H 6683.08 1.28602 1.30896 0
M  V30 72216 H 6681.46 0.769479 3.88452 0
M  V30 72217 H 6682.63 3.49081 3.00798 0
M  V30 72218 H 6680.95 3.04891 2.83603 0
M  V30 72219 H 6683.54 1.48567 5.13646 0
M  V30 72220 H 6683.89 0.0772477 4.16228 0
M  V30 72221 H 6684.42 1.68198 3.60491 0
M  V30 72222 H 6681.16 4.40812 4.85145 0
M  V30 72223 H 6680.68 2.76207 5.32419 0
M  V30 72224 H 6682.36 3.30733 5.5608 0
M  V30 72225 N 6682.49 -1.32716 0.849947 0
M  V30 72226 C 6683.77 -1.9202 0.372506 0
M  V30 72227 C 6684.15 -1.77453 -1.1434 0
M  V30 72228 O 6683.5 -1.16972 -1.9629 0
M  V30 72229 C 6683.71 -3.38946 0.831661 0
M  V30 72230 C 6685.05 -4.16084 0.846101 0
M  V30 72231 O 6686.08 -3.47645 0.775989 0
M  V30 72232 O 6684.94 -5.38284 0.944037 0
M  V30 72233 H 6682.03 -0.819956 0.10771 0
M  V30 72234 H 6684.58 -1.41517 0.936535 0
M  V30 72235 H 6683.35 -3.43471 1.87466 0
M  V30 72236 H 6682.97 -3.96846 0.244819 0
M  V30 72237 N 6683.97 -0.607431 -1.45424 0
M  V30 72238 C 6684.9 0.0988122 -2.33291 0
M  V30 72239 C 6685.88 0.858929 -1.46821 0
M  V30 72240 O 6687.06 0.829511 -1.75593 0
M  V30 72241 C 6684.19 1.09687 -3.29524 0
M  V30 72242 C 6683.15 0.449981 -4.25628 0
M  V30 72243 C 6682.47 1.55628 -5.11551 0
M  V30 72244 C 6683.77 -0.628728 -5.18502 0
M  V30 72245 H 6685.47 -0.63487 -2.92591 0
M  V30 72246 H 6683.01 -0.306755 -1.40695 0
M  V30 72247 H 6684.97 1.5995 -3.89864 0
M  V30 72248 H 6683.69 1.86115 -2.68382 0
M  V30 72249 H 6682.35 -0.031782 -3.66586 0
M  V30 72250 H 6682 2.31083 -4.46777 0
M  V30 72251 H 6681.7 1.12895 -5.76653 0
M  V30 72252 H 6683.22 2.06118 -5.74759 0
M  V30 72253 H 6684.64 -0.210179 -5.72915 0
M  V30 72254 H 6683.03 -0.977801 -5.9208 0
M  V30 72255 H 6684.1 -1.50539 -4.6094 0
M  V30 72256 N 6685.45 1.53742 -0.346584 0
M  V30 72257 C 6686.67 2.05852 0.252965 0
M  V30 72258 C 6687.1 1.2197 1.43195 0
M  V30 72259 O 6686.45 0.234168 1.79781 0
M  V30 72260 C 6686.5 3.54821 0.643005 0
M  V30 72261 O 6685.61 3.73771 1.74266 0
M  V30 72262 H 6684.95 0.662713 0.0413233 0
M  V30 72263 H 6687.48 1.98354 -0.501679 0
M  V30 72264 H 6687.49 3.97508 0.919316 0
M  V30 72265 H 6686.16 4.15322 -0.219185 0
M  V30 72266 H 6684.74 3.42986 1.46338 0
M  V30 72267 N 6686.92 0.075276 1.5742 0
M  V30 72268 C 6688.17 -0.592629 1.92797 0
M  V30 72269 C 6688.49 -1.70558 0.957568 0
M  V30 72270 O 6689.69 -2.43329 1.20429 0
M  V30 72271 C 6688.15 -1.1055 3.42501 0
M  V30 72272 C 6687.76 -0.0233759 4.47994 0
M  V30 72273 C 6689.5 -1.74728 3.86873 0
M  V30 72274 C 6687.41 -0.550492 5.88832 0
M  V30 72275 H 6686.34 -0.225139 0.719603 0
M  V30 72276 H 6688.99 0.148074 1.82902 0
M  V30 72277 H 6687.37 -1.89928 3.47481 0
M  V30 72278 H 6688.54 0.751339 4.54633 0
M  V30 72279 H 6686.86 0.522377 4.1311 0
M  V30 72280 H 6689.46 -2.15203 4.89481 0
M  V30 72281 H 6689.8 -2.60865 3.24431 0
M  V30 72282 H 6690.33 -1.01966 3.8451 0
M  V30 72283 H 6687.07 0.273802 6.54928 0
M  V30 72284 H 6686.59 -1.29265 5.85705 0
M  V30 72285 H 6688.27 -1.02579 6.38816 0
M  V30 72286 N 6688.4 -1.56347 -0.198304 0
M  V30 72287 C 6689.33 -1.90813 -1.26977 0
M  V30 72288 C 6690.35 -0.798493 -1.41873 0
M  V30 72289 O 6691.54 -1.07689 -1.42356 0
M  V30 72290 C 6688.64 -2.1221 -2.64235 0
M  V30 72291 C 6687.81 -3.43342 -2.70989 0
M  V30 72292 C 6686.87 -3.5389 -3.8942 0
M  V30 72293 O 6685.89 -4.26739 -3.76673 0
M  V30 72294 N 6687.1 -2.86742 -5.04737 0
M  V30 72295 H 6689.86 -2.83318 -0.977283 0
M  V30 72296 H 6687.42 -1.57176 -0.388239 0
M  V30 72297 H 6689.41 -2.16558 -3.41884 0
M  V30 72298 H 6687.98 -1.26219 -2.85985 0
M  V30 72299 H 6687.2 -3.5089 -1.79638 0
M  V30 72300 H 6688.49 -4.29683 -2.72489 0
M  V30 72301 H 6687.89 -2.27378 -5.17992 0
M  V30 72302 H 6686.45 -2.96721 -5.80344 0
M  V30 72303 N 6689.88 0.465898 -1.50556 0
M  V30 72304 C 6690.83 1.58397 -1.70333 0
M  V30 72305 C 6691.82 1.5955 -0.569223 0
M  V30 72306 O 6693.03 1.63637 -0.749862 0
M  V30 72307 H 6689.4 0.525706 -0.537715 0
M  V30 72308 H 6691.37 1.3888 -2.64111 0
M  V30 72309 C 6690.12 2.96297 -1.81943 0
M  V30 72310 H 6689.45 2.9613 -2.68602 0
M  V30 72311 H 6690.89 3.73971 -1.99804 0
M  V30 72312 C 6689.35 3.32004 -0.57227 0
M  V30 72313 O 6689.88 4.00679 0.286205 0
M  V30 72314 N 6688.08 2.87479 -0.424757 0
M  V30 72315 H 6687.63 2.31765 -1.12439 0
M  V30 72316 H 6687.59 3.11734 0.408533 0
M  V30 72317 N 6691.36 1.40221 0.719432 0
M  V30 72318 C 6692.59 1.41392 1.50638 0
M  V30 72319 C 6693 0.0108741 1.89197 0
M  V30 72320 O 6692.34 -0.974625 1.55714 0
M  V30 72321 C 6692.4 2.23737 2.81393 0
M  V30 72322 C 6692.07 3.72195 2.65179 0
M  V30 72323 C 6693.06 4.64919 2.32693 0
M  V30 72324 C 6690.75 4.15965 2.81564 0
M  V30 72325 C 6692.74 5.99399 2.16795 0
M  V30 72326 C 6690.43 5.50516 2.65284 0
M  V30 72327 C 6691.43 6.42047 2.32947 0
M  V30 72328 O 6691.11 7.74118 2.16787 0
M  V30 72329 H 6690.85 0.484342 0.471581 0
M  V30 72330 H 6693.4 1.84858 0.895359 0
M  V30 72331 H 6691.63 1.75044 3.44814 0
M  V30 72332 H 6693.32 2.16896 3.4309 0
M  V30 72333 H 6694.09 4.324 2.19671 0
M  V30 72334 H 6689.96 3.45043 3.05722 0
M  V30 72335 H 6693.51 6.70807 1.91477 0
M  V30 72336 H 6689.41 5.82622 2.77889 0
M  V30 72337 H 6690.17 7.8501 2.31736 0
M  V30 72338 N 6692.84 -0.951253 1.25654 0
M  V30 72339 C 6693.79 -2.03401 1.03015 0
M  V30 72340 C 6694.77 -1.60864 -0.0341022 0
M  V30 72341 O 6695.96 -1.76066 0.181642 0
M  V30 72342 C 6693.09 -3.37005 0.654432 0
M  V30 72343 C 6692.18 -3.86055 1.75562 0
M  V30 72344 N 6692.57 -4.07863 2.99134 0
M  V30 72345 C 6690.87 -4.14875 1.63691 0
M  V30 72346 C 6691.57 -4.48336 3.70634 0
M  V30 72347 N 6690.54 -4.54461 2.98271 0
M  V30 72348 H 6694.35 -2.1826 1.96825 0
M  V30 72349 H 6691.86 -1.13633 1.16023 0
M  V30 72350 H 6693.86 -4.14203 0.473424 0
M  V30 72351 H 6692.52 -3.23522 -0.276298 0
M  V30 72352 H 6693.53 -3.9484 3.35145 0
M  V30 72353 H 6690.2 -4.10237 0.775378 0
M  V30 72354 H 6691.59 -4.73484 4.7672 0
M  V30 72355 N 6694.31 -1.07295 -1.15437 0
M  V30 72356 C 6695.54 -0.81686 -1.90092 0
M  V30 72357 C 6695.96 0.629873 -1.77983 0
M  V30 72358 O 6695.31 1.432 -1.13138 0
M  V30 72359 C 6695.37 -1.2153 -3.4046 0
M  V30 72360 O 6695.09 -2.60527 -3.52218 0
M  V30 72361 C 6696.59 -0.988426 -4.3214 0
M  V30 72362 H 6693.81 -0.295398 -0.602479 0
M  V30 72363 H 6696.35 -1.42925 -1.46262 0
M  V30 72364 H 6694.51 -0.64724 -3.81955 0
M  V30 72365 H 6694.92 -2.76765 -4.45535 0
M  V30 72366 H 6696.39 -1.31673 -5.36066 0
M  V30 72367 H 6696.87 0.0752747 -4.39135 0
M  V30 72368 H 6697.48 -1.54136 -3.96386 0
M  V30 72369 N 6695.79 1.32264 -0.856973 0
M  V30 72370 C 6697.04 1.97171 -0.46149 0
M  V30 72371 C 6697.37 1.67808 0.983403 0
M  V30 72372 O 6696.62 0.959993 1.70536 0
M  V30 72373 C 6696.92 3.51438 -0.650104 0
M  V30 72374 C 6696.59 4.00793 -2.06581 0
M  V30 72375 C 6695.25 4.13982 -2.45301 0
M  V30 72376 C 6697.6 4.26927 -2.9897 0
M  V30 72377 C 6694.93 4.50649 -3.75676 0
M  V30 72378 C 6697.28 4.65052 -4.28846 0
M  V30 72379 C 6695.95 4.76448 -4.67497 0
M  V30 72380 H 6695.22 0.721501 -0.168871 0
M  V30 72381 H 6697.86 1.57627 -1.08747 0
M  V30 72382 H 6696.17 3.91755 0.0590952 0
M  V30 72383 H 6697.87 3.99688 -0.324121 0
M  V30 72384 H 6694.46 3.91014 -1.75516 0
M  V30 72385 H 6698.64 4.16244 -2.70287 0
M  V30 72386 H 6693.9 4.57666 -4.05403 0
M  V30 72387 H 6698.07 4.84228 -5.00496 0
M  V30 72388 H 6695.7 5.04616 -5.68565 0
M  V30 72389 N 6697.27 0.615135 1.45099 0
M  V30 72390 C 6698.2 -0.0864389 2.3334 0
M  V30 72391 C 6699.18 -0.851131 1.47274 0
M  V30 72392 O 6700.37 -0.820188 1.7603 0
M  V30 72393 C 6697.5 -1.07938 3.30101 0
M  V30 72394 C 6696.45 -0.427403 4.25861 0
M  V30 72395 C 6695.78 -1.52913 5.12369 0
M  V30 72396 C 6697.08 0.656217 5.18161 0
M  V30 72397 H 6698.77 0.650378 2.92251 0
M  V30 72398 H 6696.32 0.314212 1.4053 0
M  V30 72399 H 6698.27 -1.57881 3.90707 0
M  V30 72400 H 6696.99 -1.84689 2.69365 0
M  V30 72401 H 6695.65 0.0512225 3.66564 0
M  V30 72402 H 6695.3 -2.2871 4.47996 0
M  V30 72403 H 6695 -1.09835 5.77243 0
M  V30 72404 H 6696.53 -2.03067 5.75844 0
M  V30 72405 H 6697.94 0.240559 5.72795 0
M  V30 72406 H 6696.34 1.00919 5.91553 0
M  V30 72407 H 6697.41 1.52981 4.60136 0
M  V30 72408 N 6698.75 -1.53556 0.354732 0
M  V30 72409 C 6700 -2.00274 -0.239399 0
M  V30 72410 C 6700.31 -1.24631 -1.50753 0
M  V30 72411 O 6701.52 -1.61883 -2.17959 0
M  V30 72412 C 6699.97 -3.56723 -0.477153 0
M  V30 72413 C 6699.58 -4.41233 0.775721 0
M  V30 72414 C 6701.33 -4.11826 -1.02953 0
M  V30 72415 C 6699.23 -5.89213 0.508149 0
M  V30 72416 H 6698.16 -0.748213 -0.0932348 0
M  V30 72417 H 6700.81 -1.77331 0.471794 0
M  V30 72418 H 6699.2 -3.75776 -1.24933 0
M  V30 72419 H 6700.37 -4.33954 1.54986 0
M  V30 72420 H 6698.68 -3.97178 1.25054 0
M  V30 72421 H 6701.28 -5.20007 -1.24486 0
M  V30 72422 H 6701.62 -3.65742 -1.98843 0
M  V30 72423 H 6702.16 -3.96529 -0.317785 0
M  V30 72424 H 6698.9 -6.39553 1.43708 0
M  V30 72425 H 6698.42 -5.99368 -0.227695 0
M  V30 72426 H 6700.1 -6.4687 0.12958 0
M  V30 72427 N 6700.23 -0.0836233 -1.57378 0
M  V30 72428 C 6701.46 0.590608 -1.97978 0
M  V30 72429 C 6701.87 1.62967 -0.961169 0
M  V30 72430 O 6701.21 1.83605 0.0589911 0
M  V30 72431 C 6701.27 1.30642 -3.34922 0
M  V30 72432 C 6700.93 0.419458 -4.55071 0
M  V30 72433 C 6701.93 -0.327764 -5.18866 0
M  V30 72434 C 6699.62 0.340873 -5.01142 0
M  V30 72435 C 6701.61 -1.14167 -6.27092 0
M  V30 72436 C 6699.3 -0.476695 -6.09238 0
M  V30 72437 C 6700.3 -1.21663 -6.72077 0
M  V30 72438 O 6699.98 -2.02069 -7.7809 0
M  V30 72439 H 6699.72 0.163912 -0.655827 0
M  V30 72440 H 6702.27 -0.156129 -2.04806 0
M  V30 72441 H 6700.5 2.09949 -3.24744 0
M  V30 72442 H 6702.19 1.87405 -3.60047 0
M  V30 72443 H 6702.95 -0.276714 -4.8421 0
M  V30 72444 H 6698.83 0.906442 -4.52001 0
M  V30 72445 H 6702.38 -1.71971 -6.76071 0
M  V30 72446 H 6698.27 -0.529266 -6.43327 0
M  V30 72447 H 6699.04 -1.94628 -7.95024 0
M  V30 72448 N 6701.71 1.5645 0.190009 0
M  V30 72449 C 6702.95 1.80115 0.907817 0
M  V30 72450 C 6703.27 0.657716 1.8421 0
M  V30 72451 O 6704.47 0.7788 2.6009 0
M  V30 72452 C 6702.93 3.19087 1.66468 0
M  V30 72453 C 6702.54 4.41246 0.774967 0
M  V30 72454 C 6704.28 3.52058 2.37182 0
M  V30 72455 C 6702.19 5.7124 1.53099 0
M  V30 72456 H 6701.12 0.671607 0.342725 0
M  V30 72457 H 6703.77 1.82792 0.161013 0
M  V30 72458 H 6702.15 3.10674 2.45556 0
M  V30 72459 H 6703.33 4.60795 0.0223868 0
M  V30 72460 H 6701.64 4.16018 0.178407 0
M  V30 72461 H 6704.24 4.46417 2.94306 0
M  V30 72462 H 6704.58 2.76044 3.11617 0
M  V30 72463 H 6705.11 3.61941 1.65056 0
M  V30 72464 H 6701.85 6.50233 0.829327 0
M  V30 72465 H 6701.37 5.557 2.25737 0
M  V30 72466 H 6703.05 6.12537 2.08344 0
M  V30 72467 N 6703.18 -0.457907 1.50801 0
M  V30 72468 C 6704.41 -1.23195 1.66225 0
M  V30 72469 C 6704.83 -1.85509 0.350992 0
M  V30 72470 O 6704.18 -1.69817 -0.668457 0
M  V30 72471 C 6704.23 -2.33106 2.76304 0
M  V30 72472 O 6703.96 -1.73345 4.02347 0
M  V30 72473 C 6705.46 -3.23754 3.02817 0
M  V30 72474 H 6702.68 -0.372092 0.55838 0
M  V30 72475 H 6705.22 -0.545075 1.97102 0
M  V30 72476 H 6703.38 -2.97545 2.48084 0
M  V30 72477 H 6703.79 -2.45825 4.63325 0
M  V30 72478 H 6705.26 -3.97057 3.83471 0
M  V30 72479 H 6705.74 -3.83311 2.14405 0
M  V30 72480 H 6706.35 -2.65038 3.32618 0
M  V30 72481 N 6704.66 -1.40601 -0.711986 0
M  V30 72482 C 6705.57 -1.43476 -1.85612 0
M  V30 72483 C 6706.59 -0.326992 -1.709 0
M  V30 72484 O 6707.76 -0.572145 -1.93102 0
M  V30 72485 C 6704.83 -1.29901 -3.21444 0
M  V30 72486 C 6703.89 -2.50852 -3.48385 0
M  V30 72487 C 6703.12 -2.37915 -4.77736 0
M  V30 72488 O 6703.35 -1.39489 -5.53081 0
M  V30 72489 O 6702.28 -3.2736 -5.05093 0
M  V30 72490 H 6706.11 -2.39968 -1.86143 0
M  V30 72491 H 6703.69 -1.21962 -0.862886 0
M  V30 72492 H 6705.57 -1.24553 -4.02572 0
M  V30 72493 H 6704.25 -0.365166 -3.21634 0
M  V30 72494 H 6703.15 -2.61777 -2.67252 0
M  V30 72495 H 6704.49 -3.43009 -3.52995 0
M  V30 72496 N 6706.14 0.944576 -1.26157 0
M  V30 72497 C 6707.07 2.06013 -1.09913 0
M  V30 72498 C 6708.05 1.70099 -0.00528508 0
M  V30 72499 O 6709.24 1.93395 -0.176685 0
M  V30 72500 C 6706.37 3.3959 -0.727741 0
M  V30 72501 C 6705.32 3.89552 -1.77294 0
M  V30 72502 C 6704.65 5.1974 -1.25597 0
M  V30 72503 C 6705.95 4.1481 -3.17379 0
M  V30 72504 H 6707.64 2.1986 -2.03228 0
M  V30 72505 H 6705.19 1.05647 -0.978508 0
M  V30 72506 H 6707.14 4.17092 -0.600997 0
M  V30 72507 H 6705.86 3.25709 0.241115 0
M  V30 72508 H 6704.52 3.14227 -1.8883 0
M  V30 72509 H 6704.17 5.02236 -0.277048 0
M  V30 72510 H 6703.87 5.54137 -1.95462 0
M  V30 72511 H 6705.39 5.99829 -1.14182 0
M  V30 72512 H 6706.81 4.82938 -3.0894 0
M  V30 72513 H 6705.2 4.60483 -3.84805 0
M  V30 72514 H 6706.27 3.20715 -3.63689 0
M  V30 72515 N 6707.62 1.07905 1.14866 0
M  V30 72516 C 6708.55 0.726004 2.21927 0
M  V30 72517 C 6709.53 -0.289182 1.67624 0
M  V30 72518 O 6710.71 -0.160685 1.93534 0
M  V30 72519 C 6707.84 0.129039 3.4706 0
M  V30 72520 C 6706.8 1.072 4.14357 0
M  V30 72521 C 6706.12 0.33751 5.33634 0
M  V30 72522 C 6707.42 2.408 4.63479 0
M  V30 72523 H 6709.12 1.62111 2.51715 0
M  V30 72524 H 6706.66 0.780901 1.20987 0
M  V30 72525 H 6708.62 -0.129925 4.212 0
M  V30 72526 H 6707.34 -0.801174 3.16621 0
M  V30 72527 H 6706 1.31598 3.42166 0
M  V30 72528 H 6705.65 -0.596342 4.99452 0
M  V30 72529 H 6705.35 0.966094 5.79604 0
M  V30 72530 H 6706.87 0.0864787 6.10539 0
M  V30 72531 H 6708.29 2.20697 5.29118 0
M  V30 72532 H 6706.68 2.99304 5.20132 0
M  V30 72533 H 6707.75 3.02696 3.78818 0
M  V30 72534 N 6709.1 -1.31808 0.863975 0
M  V30 72535 C 6710.04 -2.28662 0.313424 0
M  V30 72536 C 6711.01 -1.55465 -0.584786 0
M  V30 72537 O 6712.2 -1.83642 -0.517708 0
M  V30 72538 C 6709.34 -3.41686 -0.48423 0
M  V30 72539 C 6708.45 -4.29745 0.44082 0
M  V30 72540 C 6707.59 -5.29907 -0.370372 0
M  V30 72541 C 6706.62 -6.09611 0.551486 0
M  V30 72542 N 6705.76 -7.01745 -0.223092 0
M  V30 72543 H 6710.6 -2.75142 1.14458 0
M  V30 72544 H 6708.14 -1.35361 0.57584 0
M  V30 72545 H 6710.1 -4.05948 -0.962412 0
M  V30 72546 H 6708.73 -2.96331 -1.28014 0
M  V30 72547 H 6707.78 -3.6598 1.03743 0
M  V30 72548 H 6709.09 -4.85411 1.14793 0
M  V30 72549 H 6708.24 -5.99816 -0.911322 0
M  V30 72550 H 6706.98 -4.74882 -1.1108 0
M  V30 72551 H 6705.99 -5.38597 1.10424 0
M  V30 72552 H 6707.21 -6.66722 1.29067 0
M  V30 72553 H 6705.16 -6.49137 -0.946444 0
M  V30 72554 H 6705.08 -7.54806 0.424797 0
M  V30 72555 H 6706.34 -7.75927 -0.745466 0
M  V30 72556 N 6710.57 -0.622821 -1.44771 0
M  V30 72557 C 6711.52 0.0870463 -2.30636 0
M  V30 72558 C 6712.49 0.845022 -1.42999 0
M  V30 72559 O 6713.68 0.827721 -1.71911 0
M  V30 72560 C 6710.82 1.06827 -3.28149 0
M  V30 72561 C 6709.93 0.309582 -4.30889 0
M  V30 72562 C 6709.06 1.28188 -5.15501 0
M  V30 72563 C 6708.1 0.511876 -6.09956 0
M  V30 72564 N 6707.24 1.43422 -6.87295 0
M  V30 72565 H 6712.08 -0.651127 -2.90799 0
M  V30 72566 H 6709.62 -0.332885 -1.43284 0
M  V30 72567 H 6711.58 1.65045 -3.83166 0
M  V30 72568 H 6710.21 1.77367 -2.69705 0
M  V30 72569 H 6709.26 -0.38838 -3.78412 0
M  V30 72570 H 6710.57 -0.290516 -4.97953 0
M  V30 72571 H 6709.72 1.93566 -5.74993 0
M  V30 72572 H 6708.46 1.91591 -4.48491 0
M  V30 72573 H 6707.47 -0.155441 -5.4958 0
M  V30 72574 H 6708.69 -0.117316 -6.78999 0
M  V30 72575 H 6706.64 2.05561 -6.22961 0
M  V30 72576 H 6706.56 0.887939 -7.50767 0
M  V30 72577 H 6707.82 2.0771 -7.51317 0
M  V30 72578 N 6712.05 1.53366 -0.362871 0
M  V30 72579 C 6712.98 2.28579 0.476856 0
M  V30 72580 C 6713.96 1.309 1.08625 0
M  V30 72581 O 6715.15 1.59767 1.10401 0
M  V30 72582 C 6712.28 3.07301 1.61812 0
M  V30 72583 C 6711.23 4.12646 1.13611 0
M  V30 72584 C 6710.56 4.79435 2.3674 0
M  V30 72585 C 6711.86 5.21825 0.222786 0
M  V30 72586 H 6713.55 2.99021 -0.150631 0
M  V30 72587 H 6711.1 1.4381 -0.0738861 0
M  V30 72588 H 6713.05 3.58665 2.21218 0
M  V30 72589 H 6711.78 2.34545 2.2728 0
M  V30 72590 H 6710.43 3.62224 0.564754 0
M  V30 72591 H 6710.08 4.03254 3.00659 0
M  V30 72592 H 6709.78 5.5062 2.05163 0
M  V30 72593 H 6711.31 5.33592 2.96837 0
M  V30 72594 H 6712.72 5.68707 0.724245 0
M  V30 72595 H 6711.12 6.001 -0.00199445 0
M  V30 72596 H 6712.19 4.79285 -0.735806 0
M  V30 72597 N 6713.53 0.0919683 1.57331 0
M  V30 72598 C 6714.46 -0.898056 2.10873 0
M  V30 72599 C 6715.48 -1.24811 1.04528 0
M  V30 72600 O 6716.66 -1.20177 1.31984 0
M  V30 72601 C 6713.76 -2.20807 2.57095 0
M  V30 72602 C 6712.94 -2.03382 3.8724 0
M  V30 72603 C 6712 -3.17867 4.19341 0
M  V30 72604 O 6711.02 -2.91968 4.88614 0
M  V30 72605 N 6712.22 -4.43547 3.74494 0
M  V30 72606 H 6714.99 -0.440786 2.96441 0
M  V30 72607 H 6712.55 -0.0932211 1.61631 0
M  V30 72608 H 6714.54 -2.96339 2.75618 0
M  V30 72609 H 6713.11 -2.57967 1.76555 0
M  V30 72610 H 6712.33 -1.12198 3.77896 0
M  V30 72611 H 6713.62 -1.89013 4.72389 0
M  V30 72612 H 6713.02 -4.67471 3.1857 0
M  V30 72613 H 6711.58 -5.1604 3.98178 0
M  V30 72614 N 6715.01 -1.56549 -0.18171 0
M  V30 72615 C 6716.23 -1.85882 -0.919921 0
M  V30 72616 C 6716.66 -0.677113 -1.7549 0
M  V30 72617 O 6716.02 0.373963 -1.77401 0
M  V30 72618 C 6716.06 -3.13551 -1.78096 0
M  V30 72619 O 6715.17 -2.95044 -2.88137 0
M  V30 72620 H 6714.51 -0.6117 -0.258302 0
M  V30 72621 H 6717.04 -2.0378 -0.182985 0
M  V30 72622 H 6717.05 -3.44689 -2.18296 0
M  V30 72623 H 6715.72 -3.99175 -1.16756 0
M  V30 72624 H 6714.3 -2.75235 -2.51595 0
M  V30 72625 N 6716.49 0.449904 -1.51042 0
M  V30 72626 C 6717.71 1.22311 -1.66876 0
M  V30 72627 C 6718.13 1.8532 -0.360825 0
M  V30 72628 O 6717.49 1.70169 0.659442 0
M  V30 72629 C 6717.54 2.31638 -2.77536 0
M  V30 72630 O 6717.26 1.71209 -4.03261 0
M  V30 72631 C 6718.76 3.22144 -3.04529 0
M  V30 72632 H 6715.98 0.369125 -0.560346 0
M  V30 72633 H 6718.52 0.534615 -1.97388 0
M  V30 72634 H 6716.68 2.96226 -2.49658 0
M  V30 72635 H 6717.09 2.43365 -4.64622 0
M  V30 72636 H 6718.57 3.95017 -3.85571 0
M  V30 72637 H 6719.04 3.82168 -2.16435 0
M  V30 72638 H 6719.65 2.63271 -3.34019 0
M  V30 72639 N 6717.96 1.40976 0.704519 0
M  V30 72640 C 6719.19 1.43189 1.49347 0
M  V30 72641 C 6719.61 0.0346504 1.88768 0
M  V30 72642 O 6718.96 -0.943999 1.56189 0
M  V30 72643 C 6719.02 2.33259 2.76175 0
M  V30 72644 O 6718.74 3.67545 2.38417 0
M  V30 72645 C 6720.24 2.44181 3.69987 0
M  V30 72646 H 6717.46 0.488006 0.460533 0
M  V30 72647 H 6720 1.85157 0.868163 0
M  V30 72648 H 6718.16 1.94624 3.34963 0
M  V30 72649 H 6718.57 4.15492 3.20104 0
M  V30 72650 H 6720.04 3.11388 4.55787 0
M  V30 72651 H 6720.52 1.47028 4.13859 0
M  V30 72652 H 6721.13 2.83415 3.17106 0
M  V30 72653 N 6719.44 -0.937872 1.26656 0
M  V30 72654 C 6720.69 -1.68694 1.12562 0
M  V30 72655 C 6721.02 -1.91381 -0.329681 0
M  V30 72656 O 6720.3 -1.49686 -1.24195 0
M  V30 72657 C 6720.58 -3.05971 1.89878 0
M  V30 72658 C 6720.43 -2.90589 3.43334 0
M  V30 72659 C 6721.75 -4.06141 1.69521 0
M  V30 72660 H 6718.87 -0.612235 0.410289 0
M  V30 72661 H 6721.51 -1.08905 1.55691 0
M  V30 72662 H 6719.66 -3.57008 1.53223 0
M  V30 72663 H 6721.33 -2.46748 3.8976 0
M  V30 72664 H 6719.58 -2.26145 3.70191 0
M  V30 72665 H 6720.25 -3.87969 3.92663 0
M  V30 72666 H 6722.72 -3.64077 2.01462 0
M  V30 72667 H 6721.6 -5.00203 2.26028 0
M  V30 72668 H 6721.86 -4.37434 0.640596 0
M  V30 72669 N 6720.92 -1.08513 -1.14292 0
M  V30 72670 C 6721.85 -0.66012 -2.18444 0
M  V30 72671 C 6722.83 0.328665 -1.59244 0
M  V30 72672 O 6724.02 0.232269 -1.87064 0
M  V30 72673 C 6721.14 0.0289021 -3.38688 0
M  V30 72674 C 6720.19 -0.920202 -4.16455 0
M  V30 72675 S 6721.02 -2.42743 -4.77322 0
M  V30 72676 C 6722.18 -1.75055 -6.00921 0
M  V30 72677 H 6722.41 -1.54244 -2.54157 0
M  V30 72678 H 6719.94 -0.900215 -1.25441 0
M  V30 72679 H 6721.9 0.420162 -4.08344 0
M  V30 72680 H 6720.56 0.887737 -3.01294 0
M  V30 72681 H 6719.76 -0.385016 -5.02527 0
M  V30 72682 H 6719.36 -1.25241 -3.52407 0
M  V30 72683 H 6721.65 -1.06912 -6.69011 0
M  V30 72684 H 6722.59 -2.59006 -6.59031 0
M  V30 72685 H 6723 -1.22346 -5.51082 0
M  V30 72686 N 6722.4 1.31347 -0.870953 0
M  V30 72687 C 6723.35 2.30436 -0.316567 0
M  V30 72688 C 6724.34 1.59562 0.568881 0
M  V30 72689 O 6725.55 1.74158 0.454873 0
M  V30 72690 H 6721.92 0.747328 -0.0836915 0
M  V30 72691 H 6723.89 2.74667 -1.16621 0
M  V30 72692 C 6722.64 3.44561 0.466169 0
M  V30 72693 H 6721.96 3.99269 -0.205898 0
M  V30 72694 H 6723.4 4.16007 0.819395 0
M  V30 72695 C 6721.86 2.93288 1.65782 0
M  V30 72696 O 6722.39 2.9214 2.75712 0
M  V30 72697 N 6720.6 2.49477 1.49028 0
M  V30 72698 H 6720.15 2.50611 0.595988 0
M  V30 72699 H 6720.1 2.15528 2.289 0
M  V30 72700 N 6723.88 0.63049 1.44439 0
M  V30 72701 C 6725.29 0.217161 1.85433 0
M  V30 72702 C 6725.64 -1.23128 1.52754 0
M  V30 72703 O 6724.76 -1.93677 0.965307 0
M  V30 72704 C 6725.36 0.387346 3.36578 0
M  V30 72705 C 6723.92 0.0285282 3.76389 0
M  V30 72706 C 6723.06 0.701031 2.68292 0
M  V30 72707 H 6726.02 0.835691 1.34914 0
M  V30 72708 H 6726.04 -0.373886 3.78659 0
M  V30 72709 H 6725.55 1.44163 3.60331 0
M  V30 72710 H 6723.65 -1.02404 3.58251 0
M  V30 72711 H 6723.76 0.438143 4.77092 0
M  V30 72712 H 6722.13 0.136401 2.54334 0
M  V30 72713 H 6722.91 1.7579 2.94878 0
M  V30 72714 N 6725.36 -1.53171 0.370999 0
M  V30 72715 C 6726.59 -2.05454 -0.21728 0
M  V30 72716 C 6726.99 -1.2439 -1.42562 0
M  V30 72717 O 6726.34 -0.278934 -1.8157 0
M  V30 72718 C 6726.4 -3.53208 -0.669641 0
M  V30 72719 C 6726.06 -4.55041 0.42274 0
M  V30 72720 C 6727.06 -5.0404 1.27434 0
M  V30 72721 C 6724.74 -4.98887 0.584533 0
M  V30 72722 C 6726.74 -5.95493 2.27303 0
M  V30 72723 C 6724.43 -5.90145 1.58658 0
M  V30 72724 C 6725.42 -6.38339 2.42926 0
M  V30 72725 O 6725.11 -7.27796 3.4142 0
M  V30 72726 H 6724.84 -0.674769 -0.0407815 0
M  V30 72727 H 6727.4 -1.98463 0.529305 0
M  V30 72728 H 6725.63 -3.57756 -1.46791 0
M  V30 72729 H 6727.32 -3.88323 -1.18153 0
M  V30 72730 H 6728.08 -4.7091 1.16056 0
M  V30 72731 H 6723.96 -4.60959 -0.061608 0
M  V30 72732 H 6727.51 -6.33033 2.93112 0
M  V30 72733 H 6723.4 -6.2269 1.70081 0
M  V30 72734 H 6724.17 -7.45808 3.37213 0
M  V30 72735 N 6726.83 -0.100311 -1.5728 0
M  V30 72736 C 6727.77 0.893501 -2.0998 0
M  V30 72737 C 6728.74 1.27299 -1.01162 0
M  V30 72738 O 6729.93 1.37732 -1.28694 0
M  V30 72739 C 6727.06 2.19311 -2.5811 0
M  V30 72740 C 6726.1 1.96308 -3.78636 0
M  V30 72741 S 6726.93 1.19634 -5.21965 0
M  V30 72742 C 6728.09 2.50814 -5.73449 0
M  V30 72743 H 6728.32 0.445185 -2.93948 0
M  V30 72744 H 6725.86 0.113086 -1.53985 0
M  V30 72745 H 6727.81 2.9399 -2.86496 0
M  V30 72746 H 6726.48 2.61262 -1.74358 0
M  V30 72747 H 6725.67 2.92558 -4.10397 0
M  V30 72748 H 6725.27 1.29756 -3.5077 0
M  V30 72749 H 6727.56 3.46762 -5.82033 0
M  V30 72750 H 6728.51 2.23624 -6.71862 0
M  V30 72751 H 6728.91 2.59326 -5.01409 0
M  V30 72752 N 6728.31 1.56643 0.173405 0
M  V30 72753 C 6729.26 1.96248 1.21472 0
M  V30 72754 C 6730.23 0.826103 1.441 0
M  V30 72755 O 6731.41 1.08605 1.56874 0
M  V30 72756 C 6728.55 2.32581 2.54951 0
M  V30 72757 C 6727.67 3.59386 2.3972 0
M  V30 72758 C 6726.8 3.84941 3.66052 0
M  V30 72759 C 6725.84 5.05101 3.45745 0
M  V30 72760 N 6724.98 5.26799 4.64141 0
M  V30 72761 H 6729.82 2.85018 0.869973 0
M  V30 72762 H 6727.35 1.41031 0.418171 0
M  V30 72763 H 6729.31 2.51668 3.32745 0
M  V30 72764 H 6727.94 1.46924 2.87425 0
M  V30 72765 H 6726.99 3.48225 1.53113 0
M  V30 72766 H 6728.31 4.47337 2.2066 0
M  V30 72767 H 6727.46 4.04384 4.52282 0
M  V30 72768 H 6726.2 2.95361 3.88089 0
M  V30 72769 H 6725.2 4.85558 2.57902 0
M  V30 72770 H 6726.43 5.9621 3.25132 0
M  V30 72771 H 6724.38 4.4017 4.86401 0
M  V30 72772 H 6724.29 6.0897 4.47987 0
M  V30 72773 H 6725.56 5.50719 5.5166 0
M  V30 72774 N 6729.79 -0.441887 1.51278 0
M  V30 72775 C 6730.72 -1.54351 1.75208 0
M  V30 72776 C 6731.7 -1.591 0.601766 0
M  V30 72777 O 6732.89 -1.74901 0.844005 0
M  V30 72778 C 6730.02 -2.92467 1.87298 0
M  V30 72779 C 6728.97 -3.0258 3.02703 0
M  V30 72780 C 6728.3 -4.42631 2.9997 0
M  V30 72781 C 6729.6 -2.77082 4.42744 0
M  V30 72782 H 6731.29 -1.34578 2.67449 0
M  V30 72783 H 6728.84 -0.64598 1.28698 0
M  V30 72784 H 6730.79 -3.69489 2.02622 0
M  V30 72785 H 6729.51 -3.13462 0.917009 0
M  V30 72786 H 6728.17 -2.27997 2.87077 0
M  V30 72787 H 6727.82 -4.60587 2.0216 0
M  V30 72788 H 6727.52 -4.50328 3.77463 0
M  V30 72789 H 6729.04 -5.21633 3.17382 0
M  V30 72790 H 6730.46 -3.4384 4.58745 0
M  V30 72791 H 6728.85 -2.96194 5.21909 0
M  V30 72792 H 6729.92 -1.7272 4.53096 0
M  V30 72793 N 6731.27 -1.41348 -0.697033 0
M  V30 72794 C 6732.23 -1.42807 -1.79273 0
M  V30 72795 C 6733.23 -0.31892 -1.57606 0
M  V30 72796 O 6734.42 -0.578729 -1.64306 0
M  V30 72797 C 6731.55 -1.23801 -3.17626 0
M  V30 72798 H 6732.75 -2.40344 -1.79373 0
M  V30 72799 H 6730.3 -1.27468 -0.904515 0
M  V30 72800 H 6731.03 -0.270984 -3.23166 0
M  V30 72801 H 6730.82 -2.04162 -3.34754 0
M  V30 72802 H 6732.31 -1.27654 -3.97611 0
M  V30 72803 N 6732.75 0.931142 -1.27151 0
M  V30 72804 C 6734.16 1.49336 -1.12052 0
M  V30 72805 C 6734.51 1.93959 0.295693 0
M  V30 72806 O 6733.63 1.80858 1.18825 0
M  V30 72807 C 6734.23 2.71403 -2.02795 0
M  V30 72808 C 6732.79 3.2386 -1.91811 0
M  V30 72809 C 6731.93 1.96606 -1.95554 0
M  V30 72810 H 6734.88 0.745599 -1.40095 0
M  V30 72811 H 6734.91 3.46065 -1.58174 0
M  V30 72812 H 6734.42 2.38895 -3.05861 0
M  V30 72813 H 6732.52 3.61135 -0.917182 0
M  V30 72814 H 6732.63 3.90287 -2.77872 0
M  V30 72815 H 6731 2.12947 -1.39734 0
M  V30 72816 H 6731.78 1.66416 -3.00267 0
M  V30 72817 N 6734.22 1.09118 1.13715 0
M  V30 72818 C 6735.47 0.823659 1.84554 0
M  V30 72819 C 6735.79 -0.652561 1.83757 0
M  V30 72820 O 6735.06 -1.47335 1.2911 0
M  V30 72821 H 6733.64 0.301709 0.68336 0
M  V30 72822 H 6736.3 1.37866 1.37764 0
M  V30 72823 H 6735.4 1.17435 2.89163 0
M  V30 72824 N 6735.7 -1.30884 0.877907 0
M  V30 72825 C 6736.61 -2.32076 0.343218 0
M  V30 72826 C 6737.63 -1.65048 -0.550935 0
M  V30 72827 O 6738.8 -1.96405 -0.44575 0
M  V30 72828 C 6735.87 -3.439 -0.439724 0
M  V30 72829 C 6734.93 -4.2657 0.483336 0
M  V30 72830 C 6734.16 -5.33055 -0.262335 0
M  V30 72831 O 6734.39 -5.50612 -1.48938 0
M  V30 72832 O 6733.32 -6.00674 0.383909 0
M  V30 72833 H 6737.15 -2.79747 1.18218 0
M  V30 72834 H 6734.73 -1.34925 0.641521 0
M  V30 72835 H 6736.61 -4.12039 -0.883287 0
M  V30 72836 H 6735.29 -2.98377 -1.2551 0
M  V30 72837 H 6734.19 -3.61156 0.975564 0
M  V30 72838 H 6735.53 -4.75679 1.26452 0
M  V30 72839 N 6737.18 -0.638141 -1.44102 0
M  V30 72840 C 6738.11 0.0493056 -2.33448 0
M  V30 72841 C 6739.09 0.827593 -1.4861 0
M  V30 72842 O 6740.28 0.792079 -1.77313 0
M  V30 72843 C 6737.41 1.02673 -3.31776 0
M  V30 72844 C 6736.36 0.359598 -4.26487 0
M  V30 72845 C 6735.69 1.44742 -5.14737 0
M  V30 72846 C 6736.99 -0.738569 -5.17052 0
M  V30 72847 H 6738.68 -0.69679 -2.91179 0
M  V30 72848 H 6736.23 -0.33653 -1.40012 0
M  V30 72849 H 6738.18 1.51645 -3.93169 0
M  V30 72850 H 6736.9 1.8038 -2.72269 0
M  V30 72851 H 6735.56 -0.109533 -3.66436 0
M  V30 72852 H 6735.21 2.21554 -4.51578 0
M  V30 72853 H 6734.91 1.00638 -5.78918 0
M  V30 72854 H 6736.43 1.9388 -5.79002 0
M  V30 72855 H 6737.85 -0.331655 -5.7234 0
M  V30 72856 H 6736.24 -1.10317 -5.89873 0
M  V30 72857 H 6737.31 -1.60282 -4.57644 0
M  V30 72858 N 6738.66 1.52972 -0.379117 0
M  V30 72859 C 6739.89 2.05865 0.206681 0
M  V30 72860 C 6740.3 1.25163 1.4135 0
M  V30 72861 O 6739.66 0.295683 1.80089 0
M  V30 72862 C 6739.71 3.56705 0.586857 0
M  V30 72863 O 6739.43 4.3435 -0.572005 0
M  V30 72864 C 6740.93 4.25906 1.2296 0
M  V30 72865 H 6738.15 0.670159 0.033577 0
M  V30 72866 H 6740.69 1.97203 -0.541402 0
M  V30 72867 H 6738.85 3.65473 1.28485 0
M  V30 72868 H 6739.26 5.23846 -0.261821 0
M  V30 72869 H 6740.74 5.32722 1.44606 0
M  V30 72870 H 6741.21 3.80476 2.19395 0
M  V30 72871 H 6741.82 4.21427 0.57267 0
M  V30 72872 N 6740.14 0.10865 1.57225 0
M  V30 72873 C 6741.39 -0.551601 1.94011 0
M  V30 72874 C 6741.7 -1.68488 0.993531 0
M  V30 72875 O 6742.9 -2.4072 1.25564 0
M  V30 72876 C 6741.36 -1.03261 3.44768 0
M  V30 72877 C 6740.97 0.0716555 4.47943 0
M  V30 72878 C 6742.71 -1.66482 3.90492 0
M  V30 72879 C 6740.62 -0.425468 5.89868 0
M  V30 72880 H 6739.55 -0.209824 0.724217 0
M  V30 72881 H 6742.2 0.186837 1.82546 0
M  V30 72882 H 6740.58 -1.82515 3.51432 0
M  V30 72883 H 6741.76 0.847604 4.52937 0
M  V30 72884 H 6740.07 0.609886 4.11909 0
M  V30 72885 H 6742.67 -2.04772 4.93936 0
M  V30 72886 H 6743.01 -2.53925 3.29891 0
M  V30 72887 H 6743.54 -0.93787 3.86586 0
M  V30 72888 H 6740.28 0.412661 6.542 0
M  V30 72889 H 6739.8 -1.16812 5.88315 0
M  V30 72890 H 6741.48 -0.890059 6.40849 0
M  V30 72891 N 6741.61 -1.56733 -0.165095 0
M  V30 72892 C 6742.86 -1.81537 -0.879048 0
M  V30 72893 C 6743.18 -0.686939 -1.83141 0
M  V30 72894 O 6744.38 -0.82008 -2.58818 0
M  V30 72895 C 6742.84 -3.21695 -1.61371 0
M  V30 72896 C 6742.45 -4.42423 -0.704671 0
M  V30 72897 C 6744.19 -3.55787 -2.31552 0
M  V30 72898 C 6742.1 -5.73603 -1.43992 0
M  V30 72899 H 6741.03 -0.676974 -0.331997 0
M  V30 72900 H 6743.68 -1.83025 -0.131912 0
M  V30 72901 H 6742.06 -3.14541 -2.40582 0
M  V30 72902 H 6743.23 -4.60772 0.0509245 0
M  V30 72903 H 6741.55 -4.16249 -0.1122 0
M  V30 72904 H 6744.15 -4.51043 -2.87166 0
M  V30 72905 H 6744.49 -2.80967 -3.07186 0
M  V30 72906 H 6745.02 -3.64521 -1.59277 0
M  V30 72907 H 6741.76 -6.5147 -0.725776 0
M  V30 72908 H 6741.28 -5.59221 -2.16868 0
M  V30 72909 H 6742.96 -6.15774 -1.98573 0
M  V30 72910 N 6743.09 0.433858 -1.5151 0
M  V30 72911 C 6744.02 1.5342 -1.76024 0
M  V30 72912 C 6745 1.58779 -0.610195 0
M  V30 72913 O 6746.19 1.7445 -0.853269 0
M  V30 72914 C 6743.32 2.9147 -1.88846 0
M  V30 72915 C 6742.27 3.00971 -3.04303 0
M  V30 72916 C 6741.6 4.41034 -3.02313 0
M  V30 72917 C 6742.9 2.74731 -4.44208 0
M  V30 72918 H 6744.59 1.33157 -2.68159 0
M  V30 72919 H 6742.14 0.639146 -1.29038 0
M  V30 72920 H 6744.09 3.6841 -2.04578 0
M  V30 72921 H 6742.82 3.12971 -0.93362 0
M  V30 72922 H 6741.47 2.26471 -2.88282 0
M  V30 72923 H 6741.12 4.59508 -2.046 0
M  V30 72924 H 6740.82 4.4832 -3.79846 0
M  V30 72925 H 6742.35 5.19943 -3.20143 0
M  V30 72926 H 6743.76 3.41402 -4.60562 0
M  V30 72927 H 6742.16 2.93422 -5.23472 0
M  V30 72928 H 6743.23 1.70315 -4.54005 0
M  V30 72929 O 6744.61 1.5074 0.579634 0
M  V30 72930 H 6745.3 1.49255 1.23461 0
M  V30 END ATOM
M  V30 BEGIN BOND
M  V30 END BOND
M  V30 END CTAB
M  END
$$$$
