drugbank_target|P04181 Ornithine aminotransferase, mitochondrial (DB00114; DB00129; DB02054; DB02821)
 OpenBabel12092119313D

  0  0  0     0  0            999 V3000
M  V30 BEGIN CTAB
M  V30 COUNTS 6870 6948 0 0 0
M  V30 BEGIN ATOM
M  V30 1 H -0.908 1.98254 -0.117106 0
M  V30 2 N 0 1.576 0 0
M  V30 3 C 0.933 2.03868 1.02534 0
M  V30 4 C 1.911 0.928543 1.3348 0
M  V30 5 O 3.095 1.19667 1.45644 0
M  V30 6 C 0.222 2.43627 2.35294 0
M  V30 7 C -0.732 3.65373 2.2001 0
M  V30 8 S 0.101 5.13292 1.52614 0
M  V30 9 C 1.257 5.56322 2.86805 0
M  V30 10 H 1.49 2.90518 0.631377 0
M  V30 11 H -0.977 1.52953 0.210867 0
M  V30 12 H 0.981 2.67203 3.11629 0
M  V30 13 H -0.358 1.57376 2.7183 0
M  V30 14 H -1.165 3.90944 3.18086 0
M  V30 15 H -1.563 3.418 1.51819 0
M  V30 16 H 0.729 5.58782 3.83104 0
M  V30 17 H 1.672 6.56266 2.65933 0
M  V30 18 H 2.08 4.83886 2.90714 0
M  V30 19 N 1.4781 -0.272755 1.55222 0
M  V30 20 C 2.7251 -1.00433 1.7584 0
M  V30 21 C 3.0531 -1.86275 0.559629 0
M  V30 22 O 2.3081 -1.90269 -0.457857 0
M  V30 23 C 2.6071 -1.91642 3.01675 0
M  V30 24 C 2.2731 -1.21548 4.34208 0
M  V30 25 C 0.9351 -1.02166 4.70229 0
M  V30 26 C 3.2871 -0.716684 5.16249 0
M  V30 27 C 0.6151 -0.316334 5.85847 0
M  V30 28 C 2.9671 -0.0249476 6.32595 0
M  V30 29 C 1.6311 0.180579 6.67256 0
M  V30 30 H 0.9011 -0.367509 0.643443 0
M  V30 31 H 3.5481 -0.276596 1.89492 0
M  V30 32 H 1.8531 -2.71037 2.82924 0
M  V30 33 H 3.5501 -2.48369 3.14824 0
M  V30 34 H 0.1401 -1.37645 4.05896 0
M  V30 35 H 4.3241 -0.854047 4.88896 0
M  V30 36 H -0.4199 -0.146378 6.11225 0
M  V30 37 H 3.7541 0.369311 6.9542 0
M  V30 38 H 1.3811 0.729098 7.56696 0
M  V30 39 N 2.9562 -1.48159 -0.537278 0
M  V30 40 C 4.1812 -1.59707 -1.32319 0
M  V30 41 C 4.6062 -0.254859 -1.86365 0
M  V30 42 O 3.9642 0.772378 -1.64024 0
M  V30 43 C 4.0122 -2.6412 -2.45505 0
M  V30 44 O 3.1162 -2.20774 -3.48328 0
M  V30 45 H 2.4572 -0.535791 -0.392204 0
M  V30 46 H 4.9872 -1.94092 -0.647268 0
M  V30 47 H 4.9972 -2.85166 -2.91795 0
M  V30 48 H 3.6722 -3.61567 -2.05528 0
M  V30 49 H 2.2492 -2.09911 -3.08207 0
M  V30 50 N 4.4343 0.785586 -1.36625 0
M  V30 51 C 5.3813 1.89838 -1.31264 0
M  V30 52 C 6.3513 1.65115 -0.180633 0
M  V30 53 O 7.5363 1.87222 -0.36777 0
M  V30 54 C 4.6763 3.26706 -1.11163 0
M  V30 55 C 3.7893 3.63476 -2.33472 0
M  V30 56 C 2.9243 4.89481 -2.06353 0
M  V30 57 C 1.9633 5.18941 -3.24602 0
M  V30 58 N 1.1003 6.36131 -2.97123 0
M  V30 59 H 5.9403 1.93756 -2.26413 0
M  V30 60 H 3.4773 0.947454 -1.12524 0
M  V30 61 H 5.4353 4.05639 -0.975337 0
M  V30 62 H 4.0653 3.222 -0.196674 0
M  V30 63 H 3.1173 2.79636 -2.57891 0
M  V30 64 H 4.4293 3.81193 -3.21704 0
M  V30 65 H 3.5833 5.76288 -1.89675 0
M  V30 66 H 2.3223 4.73841 -1.15437 0
M  V30 67 H 1.3273 4.30615 -3.41834 0
M  V30 68 H 2.5523 5.36498 -4.16349 0
M  V30 69 H 0.4983 6.21875 -2.08823 0
M  V30 70 H 0.4153 6.54198 -3.78894 0
M  V30 71 H 1.6833 7.2591 -2.84033 0
M  V30 72 N 5.9124 1.20967 1.01018 0
M  V30 73 C 6.8424 0.988272 2.11555 0
M  V30 74 C 7.8234 -0.0849778 1.69888 0
M  V30 75 O 9.0084 0.0738202 1.9406 0
M  V30 76 C 6.1384 0.546528 3.42973 0
M  V30 77 C 5.0924 1.56375 3.9841 0
M  V30 78 C 4.4184 0.97842 5.25672 0
M  V30 79 C 5.7184 2.94922 4.31066 0
M  V30 80 H 7.4124 1.91276 2.30334 0
M  V30 81 H 4.9584 0.921073 1.1069 0
M  V30 82 H 6.9114 0.378839 4.19694 0
M  V30 83 H 5.6354 -0.413598 3.23971 0
M  V30 84 H 4.2944 1.71891 3.23804 0
M  V30 85 H 3.9424 0.0101688 5.02999 0
M  V30 86 H 3.6424 1.65784 5.63728 0
M  V30 87 H 5.1664 0.821939 6.05043 0
M  V30 88 H 6.5804 2.8288 4.9865 0
M  V30 89 H 4.9774 3.5983 4.80253 0
M  V30 90 H 6.0474 3.4616 3.39561 0
M  V30 91 N 7.3905 -1.2043 1.01659 0
M  V30 92 C 8.3535 -2.21433 0.591616 0
M  V30 93 C 9.3535 -1.57203 -0.338226 0
M  V30 94 O 10.5435 -1.73737 -0.126918 0
M  V30 95 C 7.6755 -3.40628 -0.136058 0
M  V30 96 H 8.8685 -2.60545 1.48514 0
M  V30 97 H 6.4215 -1.33893 0.806379 0
M  V30 98 H 7.1565 -3.07019 -1.04449 0
M  V30 99 H 6.9415 -3.88475 0.531917 0
M  V30 100 H 8.4315 -4.15475 -0.420735 0
M  V30 101 N 8.8686 -0.792821 -1.36206 0
M  V30 102 C 9.8186 -0.166598 -2.27391 0
M  V30 103 C 10.8026 0.651479 -1.47121 0
M  V30 104 O 11.9946 0.510994 -1.69463 0
M  V30 105 C 9.1236 0.695033 -3.36191 0
M  V30 106 C 8.2096 -0.132019 -4.23894 0
M  V30 107 N 8.6006 -1.18822 -4.91645 0
M  V30 108 C 6.8986 0.0885952 -4.45912 0
M  V30 109 C 7.5996 -1.69198 -5.56549 0
M  V30 110 N 6.5756 -1.00065 -5.34311 0
M  V30 111 H 10.3776 -0.974947 -2.77258 0
M  V30 112 H 7.8916 -0.632616 -1.49572 0
M  V30 113 H 9.8886 1.1596 -4.00448 0
M  V30 114 H 8.5486 1.50189 -2.87877 0
M  V30 115 H 9.5596 -1.57069 -4.93507 0
M  V30 116 H 6.2366 0.865688 -4.08426 0
M  V30 117 H 7.6266 -2.57395 -6.20643 0
M  V30 118 N 10.3467 1.47872 -0.545128 0
M  V30 119 C 11.2767 2.32661 0.197793 0
M  V30 120 C 12.2577 1.43041 0.920504 0
M  V30 121 O 13.4427 1.71912 0.90333 0
M  V30 122 C 10.5727 3.24569 1.23582 0
M  V30 123 C 9.5267 4.23333 0.630323 0
M  V30 124 C 8.8527 5.0448 1.77211 0
M  V30 125 C 10.1527 5.20704 -0.407974 0
M  V30 126 H 11.8467 2.95024 -0.510045 0
M  V30 127 H 9.3927 1.4187 -0.246731 0
M  V30 128 H 11.3457 3.8272 1.76362 0
M  V30 129 H 10.0697 2.60236 1.97344 0
M  V30 130 H 8.7287 3.6639 0.123922 0
M  V30 131 H 8.3767 4.36561 2.49847 0
M  V30 132 H 8.0767 5.71339 1.37281 0
M  V30 133 H 9.6007 5.65487 2.3034 0
M  V30 134 H 11.0147 5.7329 0.033305 0
M  V30 135 H 9.4117 5.95699 -0.725486 0
M  V30 136 H 10.4817 4.66917 -1.30828 0
M  V30 137 N 11.8248 0.280983 1.55075 0
M  V30 138 C 12.7568 -0.637268 2.20163 0
M  V30 139 C 13.7698 -1.11298 1.18813 0
M  V30 140 O 14.9588 -1.03388 1.4551 0
M  V30 141 C 12.0588 -1.88199 2.81841 0
M  V30 142 C 11.2318 -1.55211 4.08936 0
M  V30 143 C 10.2908 -2.64991 4.54606 0
M  V30 144 O 9.3168 -2.30929 5.2025 0
M  V30 145 N 10.5188 -3.95161 4.25238 0
M  V30 146 H 13.2838 -0.0801694 2.99593 0
M  V30 147 H 10.8448 0.102329 1.61576 0
M  V30 148 H 12.8368 -2.60948 3.09335 0
M  V30 149 H 11.4068 -2.34799 2.06369 0
M  V30 150 H 10.6268 -0.658185 3.88666 0
M  V30 151 H 11.9148 -1.30681 4.91732 0
M  V30 152 H 11.3128 -4.25653 3.72607 0
M  V30 153 H 9.8698 -4.6427 4.5749 0
M  V30 154 N 13.3029 -1.57598 0.00835791 0
M  V30 155 C 14.7189 -1.55764 -0.347822 0
M  V30 156 C 14.9189 -1.01186 -1.74252 0
M  V30 157 O 13.9749 -0.649371 -2.44007 0
M  V30 158 C 15.2879 -2.99927 -0.215407 0
M  V30 159 C 16.8359 -3.11656 -0.289725 0
M  V30 160 C 17.3109 -4.57621 -0.18634 0
M  V30 161 N 18.8019 -4.62557 -0.243978 0
M  V30 162 C 19.5369 -5.73094 -0.18745 0
M  V30 163 N 19.0329 -6.92753 -0.0810331 0
M  V30 164 N 20.8259 -5.61588 -0.239925 0
M  V30 165 H 12.9769 -1.91411 0.92062 0
M  V30 166 H 15.2399 -0.879562 0.353659 0
M  V30 167 H 14.9459 -3.43729 0.744512 0
M  V30 168 H 14.8199 -3.63865 -0.994097 0
M  V30 169 H 17.2069 -2.67779 -1.24009 0
M  V30 170 H 17.2879 -2.5048 0.51898 0
M  V30 171 H 16.9319 -5.02174 0.760519 0
M  V30 172 H 16.8619 -5.16752 -1.01364 0
M  V30 173 H 19.3529 -3.76481 -0.327217 0
M  V30 174 H 19.6659 -7.72787 -0.0440241 0
M  V30 175 H 18.0109 -6.94984 -0.0465419 0
M  V30 176 H 21.2019 -4.66996 -0.321317 0
M  V30 177 H 21.3749 -6.47714 -0.192407 0
M  V30 178 N 14.781 0.264519 -1.55364 0
M  V30 179 C 16.028 0.994986 -1.7637 0
M  V30 180 C 16.356 1.85976 -0.5695 0
M  V30 181 O 15.611 1.90509 0.44776 0
M  V30 182 C 15.91 1.9004 -3.02687 0
M  V30 183 C 15.576 1.19243 -4.34847 0
M  V30 184 C 14.238 0.996709 -4.70764 0
M  V30 185 C 16.59 0.689296 -5.16622 0
M  V30 186 C 13.918 0.285261 -5.86006 0
M  V30 187 C 16.27 -0.00860079 -6.32599 0
M  V30 188 C 14.934 -0.215963 -6.67151 0
M  V30 189 H 14.204 0.364091 -0.645383 0
M  V30 190 H 16.851 0.266543 -1.89636 0
M  V30 191 H 15.156 2.69533 -2.84357 0
M  V30 192 H 16.853 2.46695 -3.16137 0
M  V30 193 H 13.443 1.3549 -4.06621 0
M  V30 194 H 17.627 0.828108 -4.89342 0
M  V30 195 H 12.883 0.113961 -6.11294 0
M  V30 196 H 17.057 -0.406186 -6.95214 0
M  V30 197 H 14.684 -0.769217 -7.56298 0
M  V30 198 N 16.2591 1.48442 0.529413 0
M  V30 199 C 17.2221 1.62524 1.61612 0
M  V30 200 C 18.2221 0.498509 1.52877 0
M  V30 201 O 19.4121 0.76431 1.56537 0
M  V30 202 C 16.5441 1.59597 3.01233 0
M  V30 203 H 17.7371 2.59423 1.50465 0
M  V30 204 H 15.2901 1.37047 0.751514 0
M  V30 205 H 16.0251 0.641781 3.17886 0
M  V30 206 H 15.8101 2.41397 3.08982 0
M  V30 207 H 17.3001 1.72646 3.80241 0
M  V30 208 N 17.7372 -0.778329 1.37039 0
M  V30 209 C 18.9832 -1.53892 1.32079 0
M  V30 210 C 19.3162 -1.9396 -0.0965386 0
M  V30 211 O 18.5912 -1.63568 -1.05242 0
M  V30 212 C 18.8742 -2.80847 2.25382 0
M  V30 213 C 18.7272 -2.47076 3.75864 0
M  V30 214 C 20.0462 -3.82741 2.1725 0
M  V30 215 H 17.1652 -0.558303 0.48111 0
M  V30 216 H 19.8072 -0.893397 1.67685 0
M  V30 217 H 17.9572 -3.35931 1.95148 0
M  V30 218 H 19.6292 -1.97957 4.16666 0
M  V30 219 H 17.8722 -1.79863 3.94755 0
M  V30 220 H 18.5432 -3.37798 4.36574 0
M  V30 221 H 21.0192 -3.37133 2.43887 0
M  V30 222 H 19.8952 -4.69303 2.84686 0
M  V30 223 H 20.1562 -4.2652 1.16331 0
M  V30 224 N 19.2153 -1.21501 -1.00376 0
M  V30 225 C 20.1453 -0.999478 -2.11028 0
M  V30 226 C 21.1263 0.0759671 -1.6993 0
M  V30 227 O 22.3113 -0.0841106 -1.94018 0
M  V30 228 C 19.4413 -0.564709 -3.42678 0
M  V30 229 C 18.3953 -1.58486 -3.97576 0
M  V30 230 C 17.7213 -1.00628 -5.25146 0
M  V30 231 C 19.0213 -2.97204 -4.29496 0
M  V30 232 H 20.7153 -1.92495 -2.29317 0
M  V30 233 H 18.2613 -0.92693 -1.102 0
M  V30 234 H 20.2143 -0.401091 -4.19487 0
M  V30 235 H 18.9383 0.396411 -3.24185 0
M  V30 236 H 17.5973 -1.73606 -3.22888 0
M  V30 237 H 17.2453 -0.0368439 -5.02987 0
M  V30 238 H 16.9453 -1.68771 -5.62841 0
M  V30 239 H 18.4693 -0.854015 -6.04598 0
M  V30 240 H 19.8833 -2.8552 -4.97143 0
M  V30 241 H 18.2803 -3.62372 -4.78338 0
M  V30 242 H 19.3503 -3.47956 -3.3772 0
M  V30 243 N 20.6934 1.19889 -1.02296 0
M  V30 244 C 21.9184 1.9393 -0.735237 0
M  V30 245 C 22.3434 1.74639 0.698782 0
M  V30 246 O 21.7014 1.04481 1.48167 0
M  V30 247 C 21.7494 3.43916 -1.08417 0
M  V30 248 O 20.8534 4.11917 -0.199446 0
M  V30 249 H 20.1944 0.605645 -0.272196 0
M  V30 250 H 22.7244 1.52137 -1.36804 0
M  V30 251 H 22.7344 3.9456 -1.03856 0
M  V30 252 H 21.4094 3.5728 -2.12894 0
M  V30 253 H 19.9864 3.71666 -0.303136 0
M  V30 254 N 22.1715 0.800033 1.35784 0
M  V30 255 C 23.5875 0.482977 1.52117 0
M  V30 256 C 23.7875 -0.996948 1.75109 0
M  V30 257 O 22.8435 -1.78216 1.78872 0
M  V30 258 C 24.1565 1.32264 2.70049 0
M  V30 259 C 25.7045 1.31742 2.83924 0
M  V30 260 C 26.1795 2.14106 4.04874 0
M  V30 261 N 27.6705 2.11607 4.12039 0
M  V30 262 C 28.4055 2.72099 5.04727 0
M  V30 263 N 27.9015 3.41492 6.02789 0
M  V30 264 N 29.6945 2.61776 4.97423 0
M  V30 265 H 21.8455 1.75856 1.19115 0
M  V30 266 H 24.1085 0.748122 0.582252 0
M  V30 267 H 23.8145 2.37261 2.59616 0
M  V30 268 H 23.6885 0.971303 3.6448 0
M  V30 269 H 26.0755 0.275333 2.93813 0
M  V30 270 H 26.1565 1.70859 1.9037 0
M  V30 271 H 25.8005 3.18351 3.95746 0
M  V30 272 H 25.7305 1.72353 4.97596 0
M  V30 273 H 28.2215 1.61112 3.41835 0
M  V30 274 H 28.5345 3.84953 6.70098 0
M  V30 275 H 26.8795 3.45596 6.02983 0
M  V30 276 H 30.0705 2.07157 4.19766 0
M  V30 277 H 30.2435 3.0921 5.69468 0
M  V30 278 N 23.6496 -1.47581 0.552962 0
M  V30 279 C 24.8976 -2.02082 0.0272703 0
M  V30 280 C 25.2186 -1.4301 -1.32563 0
M  V30 281 O 24.4886 -0.603745 -1.86365 0
M  V30 282 H 23.0686 -0.746966 0.00709182 0
M  V30 283 H 25.7306 -1.81033 0.722008 0
M  V30 284 H 24.8266 -3.12034 -0.0639951 0
M  V30 285 N 25.1277 -0.289203 -1.54924 0
M  V30 286 C 26.3737 0.323998 -2.00195 0
M  V30 287 C 26.7067 1.54441 -1.17735 0
M  V30 288 O 25.9817 1.92875 -0.250878 0
M  V30 289 C 26.2647 0.692276 -3.53383 0
M  V30 290 C 26.1177 -0.536457 -4.46589 0
M  V30 291 C 27.4367 1.52335 -4.12895 0
M  V30 292 H 24.5557 0.116289 -0.727768 0
M  V30 293 H 27.1977 -0.398954 -1.85764 0
M  V30 294 H 25.3477 1.30822 -3.65811 0
M  V30 295 H 27.0197 -1.17499 -4.46085 0
M  V30 296 H 25.2627 -1.17192 -4.1767 0
M  V30 297 H 25.9337 -0.234806 -5.515 0
M  V30 298 H 28.4097 1.00302 -4.0383 0
M  V30 299 H 27.2857 1.74982 -5.20262 0
M  V30 300 H 27.5467 2.50886 -3.64018 0
M  V30 301 N 26.6058 1.57591 -0.0167156 0
M  V30 302 C 27.5558 2.05953 0.978137 0
M  V30 303 C 28.5398 0.957532 1.29306 0
M  V30 304 O 29.7318 1.22119 1.28125 0
M  V30 305 C 26.8608 2.58006 2.26468 0
M  V30 306 C 25.9468 3.75113 1.97867 0
M  V30 307 N 26.3378 4.86187 1.39486 0
M  V30 308 C 24.6358 3.83363 2.27924 0
M  V30 309 C 25.3368 5.67502 1.27735 0
M  V30 310 N 24.3128 5.14023 1.76866 0
M  V30 311 H 28.1148 2.89236 0.521522 0
M  V30 312 H 25.6288 1.61301 0.188596 0
M  V30 313 H 27.6258 2.90937 2.98599 0
M  V30 314 H 26.2858 1.76148 2.72767 0
M  V30 315 H 27.2968 5.06695 1.07147 0
M  V30 316 H 23.9738 3.1239 2.76982 0
M  V30 317 H 25.3638 6.66791 0.826978 0
M  V30 318 N 28.0839 -0.256276 1.55502 0
M  V30 319 C 29.3089 -1.00766 1.81276 0
M  V30 320 C 29.7339 -1.78524 0.59252 0
M  V30 321 O 29.0919 -1.75413 -0.45827 0
M  V30 322 C 29.1399 -1.92869 3.04687 0
M  V30 323 O 28.2439 -3.019 2.80945 0
M  V30 324 H 27.5849 -0.287224 0.598664 0
M  V30 325 H 30.1149 -0.280109 2.02674 0
M  V30 326 H 30.1249 -2.34511 3.33869 0
M  V30 327 H 28.7999 -1.35689 3.93143 0
M  V30 328 H 27.3769 -2.64454 2.62904 0
M  V30 329 N 29.562 -1.4872 -0.521534 0
M  V30 330 C 30.787 -1.61101 -1.30618 0
M  V30 331 C 31.212 -0.274611 -1.86085 0
M  V30 332 O 30.57 0.754937 -1.64834 0
M  V30 333 C 30.618 -2.66709 -2.4269 0
M  V30 334 O 29.722 -2.24456 -3.45967 0
M  V30 335 H 29.063 -0.539921 -0.386499 0
M  V30 336 H 31.593 -1.94767 -0.626645 0
M  V30 337 H 31.603 -2.88245 -2.88754 0
M  V30 338 H 30.278 -3.63727 -2.01682 0
M  V30 339 H 28.855 -2.13168 -3.05964 0
M  V30 340 N 31.0401 0.771051 -1.3745 0
M  V30 341 C 32.2861 1.5319 -1.32894 0
M  V30 342 C 32.6191 1.94008 0.0862511 0
M  V30 343 O 31.8941 1.64124 1.04373 0
M  V30 344 C 32.1771 2.79648 -2.26868 0
M  V30 345 C 32.0301 2.45079 -3.77169 0
M  V30 346 C 33.3491 3.81583 -2.19277 0
M  V30 347 H 30.4681 0.555744 -0.484064 0
M  V30 348 H 33.1101 0.884492 -1.68157 0
M  V30 349 H 31.2601 3.34891 -1.96926 0
M  V30 350 H 32.9321 1.95745 -4.1771 0
M  V30 351 H 31.1751 1.77767 -3.95704 0
M  V30 352 H 31.8461 3.35478 -4.38359 0
M  V30 353 H 34.3221 3.35835 -2.45671 0
M  V30 354 H 33.1981 4.67787 -2.87171 0
M  V30 355 H 33.4591 4.25897 -1.18592 0
M  V30 356 N 32.5182 1.22032 0.997298 0
M  V30 357 C 33.4812 0.987909 2.06816 0
M  V30 358 C 34.4812 -0.0440084 1.6074 0
M  V30 359 O 35.6712 0.194053 1.73116 0
M  V30 360 C 32.8032 0.49132 3.37341 0
M  V30 361 H 33.9962 1.93803 2.28868 0
M  V30 362 H 31.5492 1.03838 1.16822 0
M  V30 363 H 32.2842 -0.463364 3.20973 0
M  V30 364 H 32.0692 1.23575 3.72118 0
M  V30 365 H 33.5592 0.348824 4.16141 0
M  V30 366 N 33.9963 -1.19345 1.0293 0
M  V30 367 C 35.2213 -1.93538 0.745511 0
M  V30 368 C 35.6463 -1.75007 -0.689511 0
M  V30 369 O 35.0043 -1.05265 -1.47611 0
M  V30 370 C 35.0523 -3.43336 1.10239 0
M  V30 371 O 34.1563 -4.11806 0.221289 0
M  V30 372 H 33.4973 -0.604193 0.275404 0
M  V30 373 H 36.0273 -1.5141 1.37609 0
M  V30 374 H 36.0373 -3.94004 1.05947 0
M  V30 375 H 34.7123 -3.56146 2.14786 0
M  V30 376 H 33.2893 -3.715 0.322842 0
M  V30 377 N 35.4744 -0.807222 -1.35358 0
M  V30 378 C 36.4374 -0.223665 -2.28106 0
M  V30 379 C 37.4374 0.589354 -1.4961 0
M  V30 380 O 38.6274 0.407745 -1.69361 0
M  V30 381 C 35.7594 0.688149 -3.33882 0
M  V30 382 H 36.9524 -1.04169 -2.81227 0
M  V30 383 H 34.5054 -0.577921 -1.45223 0
M  V30 384 H 35.2404 1.52984 -2.85948 0
M  V30 385 H 35.0254 0.10687 -3.91954 0
M  V30 386 H 36.5154 1.09075 -4.03104 0
M  V30 387 N 36.9525 1.47285 -0.560781 0
M  V30 388 C 38.1805 2.06855 -0.0430262 0
M  V30 389 C 38.5955 1.41291 1.25229 0
M  V30 390 O 37.9525 0.510648 1.7521 0
M  V30 391 C 38.0035 3.61178 0.152518 0
M  V30 392 O 37.7245 4.24285 -1.0915 0
M  V30 393 C 39.2255 4.37624 0.707145 0
M  V30 394 H 36.4455 0.669319 -0.0474652 0
M  V30 395 H 38.9895 1.89237 -0.77521 0
M  V30 396 H 37.1445 3.78298 0.834843 0
M  V30 397 H 37.5585 5.16868 -0.891482 0
M  V30 398 H 39.0325 5.46271 0.793244 0
M  V30 399 H 39.5095 4.04152 1.71923 0
M  V30 400 H 40.1155 4.25257 0.0604027 0
M  V30 401 N 38.4306 0.297415 1.54768 0
M  V30 402 C 39.6556 -0.318435 2.04941 0
M  V30 403 C 40.0806 -1.4701 1.17345 0
M  V30 404 O 39.4386 -1.80436 0.176758 0
M  V30 405 C 39.4866 -0.755749 3.52592 0
M  V30 406 O 38.5906 -1.86088 3.68028 0
M  V30 407 H 37.9316 -0.062421 0.661059 0
M  V30 408 H 40.4616 0.438215 1.99852 0
M  V30 409 H 40.4716 -1.04552 3.94376 0
M  V30 410 H 39.1466 0.0867233 4.1581 0
M  V30 411 H 37.7236 -1.57193 3.38149 0
M  V30 412 N 39.9087 -1.5758 0.0250728 0
M  V30 413 C 41.1547 -1.91917 -0.655413 0
M  V30 414 C 41.4877 -0.901433 -1.72011 0
M  V30 415 O 40.7627 0.0764069 -1.9435 0
M  V30 416 C 41.0457 -3.36751 -1.27558 0
M  V30 417 C 40.8987 -4.49258 -0.220719 0
M  V30 418 C 42.2177 -3.81469 -2.19475 0
M  V30 419 H 39.3367 -0.697925 -0.23679 0
M  V30 420 H 41.9787 -1.89825 0.0815036 0
M  V30 421 H 40.1287 -3.38664 -1.90365 0
M  V30 422 H 41.8007 -4.59478 0.409601 0
M  V30 423 H 40.0437 -4.31415 0.454264 0
M  V30 424 H 40.7147 -5.47618 -0.694175 0
M  V30 425 H 43.1907 -3.81266 -1.66659 0
M  V30 426 H 42.0667 -4.83512 -2.59822 0
M  V30 427 H 42.3277 -3.16744 -3.08424 0
M  V30 428 N 41.3868 0.248026 -1.55636 0
M  V30 429 C 42.3498 1.29044 -1.89421 0
M  V30 430 C 43.3498 1.41134 -0.770581 0
M  V30 431 O 44.5398 1.39854 -1.03858 0
M  V30 432 C 41.6718 2.66831 -2.12165 0
M  V30 433 H 42.8648 1.00305 -2.82629 0
M  V30 434 H 40.4178 0.487265 -1.48511 0
M  V30 435 H 41.1528 3.00711 -1.21422 0
M  V30 436 H 40.9378 2.59438 -2.93997 0
M  V30 437 H 42.4278 3.42103 -2.3949 0
M  V30 438 N 42.8649 1.48995 0.513639 0
M  V30 439 C 44.0929 1.61531 1.29288 0
M  V30 440 C 44.5079 0.281801 1.86685 0
M  V30 441 O 43.8649 -0.731111 1.67215 0
M  V30 442 C 43.9159 2.67449 2.43215 0
M  V30 443 O 43.6369 3.95626 1.88179 0
M  V30 444 C 45.1379 2.90575 3.34785 0
M  V30 445 H 42.3579 0.544165 0.392588 0
M  V30 446 H 44.9019 1.9494 0.617956 0
M  V30 447 H 43.0569 2.36853 3.0656 0
M  V30 448 H 43.4709 4.53868 2.62876 0
M  V30 449 H 44.9449 3.68449 4.11035 0
M  V30 450 H 45.4219 2.00011 3.91015 0
M  V30 451 H 46.0279 3.22538 2.77218 0
M  V30 452 N 44.343 -0.763751 1.37857 0
M  V30 453 C 45.29 -1.87726 1.34267 0
M  V30 454 C 46.26 -1.64807 0.206879 0
M  V30 455 O 47.445 -1.86613 0.397508 0
M  V30 456 C 44.585 -3.24896 1.16346 0
M  V30 457 C 43.698 -3.59716 2.39225 0
M  V30 458 C 42.833 -4.86137 2.14114 0
M  V30 459 C 41.872 -5.13711 3.32817 0
M  V30 460 N 41.009 -6.31323 3.07206 0
M  V30 461 H 45.849 -1.90129 2.29466 0
M  V30 462 H 43.386 -0.929433 1.14017 0
M  V30 463 H 45.344 -4.04036 1.03975 0
M  V30 464 H 43.974 -3.21847 0.247909 0
M  V30 465 H 43.026 -2.75498 2.62307 0
M  V30 466 H 44.338 -3.76027 3.27728 0
M  V30 467 H 43.492 -5.73198 1.9882 0
M  V30 468 H 42.231 -4.71945 1.22961 0
M  V30 469 H 41.236 -4.25123 3.48641 0
M  V30 470 H 42.461 -5.29807 4.24832 0
M  V30 471 H 40.407 -6.18474 2.1869 0
M  V30 472 H 40.324 -6.48087 3.89254 0
M  V30 473 H 41.592 -7.213 2.95546 0
M  V30 474 N 45.8211 -1.22559 -0.990812 0
M  V30 475 C 46.7681 -0.997519 -2.0813 0
M  V30 476 C 47.7381 0.0814702 -1.659 0
M  V30 477 O 48.9231 -0.0685424 -1.90677 0
M  V30 478 C 46.0631 -0.583615 -3.40129 0
M  V30 479 C 45.1761 -1.7336 -3.9569 0
M  V30 480 C 44.3111 -1.26748 -5.15857 0
M  V30 481 C 43.3501 -2.38888 -5.63559 0
M  V30 482 N 42.4871 -1.93308 -6.74964 0
M  V30 483 H 47.3271 -1.93099 -2.26973 0
M  V30 484 H 44.8641 -0.962114 -1.11273 0
M  V30 485 H 46.8221 -0.324801 -4.15934 0
M  V30 486 H 45.4521 0.312845 -3.2128 0
M  V30 487 H 44.5041 -2.10669 -3.16738 0
M  V30 488 H 45.8161 -2.57704 -4.27071 0
M  V30 489 H 44.9701 -0.966173 -5.98957 0
M  V30 490 H 43.7091 -0.394272 -4.86104 0
M  V30 491 H 42.7141 -2.69805 -4.79046 0
M  V30 492 H 43.9391 -3.26728 -5.95336 0
M  V30 493 H 41.8851 -1.08352 -6.4699 0
M  V30 494 H 41.8021 -2.71217 -7.05675 0
M  V30 495 H 43.0701 -1.66252 -7.61564 0
M  V30 496 N 47.2992 1.18797 -1.03562 0
M  V30 497 C 48.5272 1.92599 -0.755869 0
M  V30 498 C 48.9422 1.75886 0.686271 0
M  V30 499 O 48.2992 1.08517 1.46732 0
M  V30 500 C 48.3502 3.44159 -1.10619 0
M  V30 501 O 48.0712 3.60341 -2.4917 0
M  V30 502 C 49.5722 4.3507 -0.850214 0
M  V30 503 H 46.7922 0.611587 -0.276048 0
M  V30 504 H 49.3362 1.50742 -1.38192 0
M  V30 505 H 47.4912 3.83823 -0.525194 0
M  V30 506 H 47.9052 4.54128 -2.62427 0
M  V30 507 H 49.3792 5.39989 -1.14523 0
M  V30 508 H 49.8562 4.38673 0.215176 0
M  V30 509 H 50.4622 4.01097 -1.41426 0
M  V30 510 N 48.7773 0.814389 1.34928 0
M  V30 511 C 50.0233 0.399013 1.98836 0
M  V30 512 C 50.3563 -1.03314 1.64438 0
M  V30 513 O 49.6313 -1.71811 0.911659 0
M  V30 514 C 49.9143 0.591629 3.55207 0
M  V30 515 C 49.7673 2.06928 3.99376 0
M  V30 516 C 51.0863 0.022199 4.40094 0
M  V30 517 H 48.2053 0.146451 0.722303 0
M  V30 518 H 50.8473 1.02537 1.59957 0
M  V30 519 H 48.9973 0.0584441 3.88456 0
M  V30 520 H 50.6693 2.66544 3.76499 0
M  V30 521 H 48.9123 2.56287 3.49999 0
M  V30 522 H 49.5833 2.1549 5.08201 0
M  V30 523 H 52.0593 0.477643 4.13349 0
M  V30 524 H 50.9353 0.186832 5.48582 0
M  V30 525 H 51.1963 -1.07215 4.28902 0
M  V30 526 N 50.2554 -1.46986 0.568584 0
M  V30 527 C 51.1874 -2.28233 -0.210337 0
M  V30 528 C 52.2004 -1.37682 -0.868767 0
M  V30 529 O 53.3894 -1.62406 -0.740705 0
M  V30 530 C 50.4894 -3.12293 -1.3163 0
M  V30 531 C 49.6624 -4.30878 -0.7525 0
M  V30 532 C 48.7214 -4.96445 -1.74439 0
M  V30 533 O 47.7474 -5.54482 -1.286 0
M  V30 534 N 48.9494 -4.92171 -3.07812 0
M  V30 535 H 51.7144 -2.95723 0.486648 0
M  V30 536 H 49.2754 -1.56742 0.405409 0
M  V30 537 H 51.2674 -3.53022 -1.97883 0
M  V30 538 H 49.8374 -2.46971 -1.91636 0
M  V30 539 H 49.0574 -3.94104 0.0871128 0
M  V30 540 H 50.3454 -5.07558 -0.35536 0
M  V30 541 H 49.7434 -4.46239 -3.47688 0
M  V30 542 H 48.3004 -5.36884 -3.69592 0
M  V30 543 N 51.7335 -0.305618 -1.54608 0
M  V30 544 C 52.9815 0.301701 -1.99835 0
M  V30 545 C 53.3025 1.54054 -1.19551 0
M  V30 546 O 52.5725 1.93702 -0.292658 0
M  V30 547 H 51.1525 0.114468 -0.738178 0
M  V30 548 H 53.8145 -0.418016 -1.90364 0
M  V30 549 H 52.9105 0.570548 -3.06841 0
M  V30 550 N 53.2116 1.57565 -0.0334293 0
M  V30 551 C 54.6226 1.79746 0.504798 0
M  V30 552 C 54.9736 0.944091 1.71992 0
M  V30 553 O 54.0986 0.155694 2.15839 0
M  V30 554 C 54.6936 3.25997 0.922567 0
M  V30 555 C 53.2526 3.49159 1.40588 0
M  V30 556 C 52.3996 2.74785 0.372633 0
M  V30 557 H 55.3506 1.56565 -0.259436 0
M  V30 558 H 55.3716 3.35945 1.78666 0
M  V30 559 H 54.8836 3.88081 0.0379825 0
M  V30 560 H 52.9846 2.92332 2.31025 0
M  V30 561 H 53.0976 4.57873 1.41028 0
M  V30 562 H 51.4616 2.40391 0.841672 0
M  V30 563 H 52.2446 3.39587 -0.503559 0
M  V30 564 N 54.6897 -0.239769 1.55765 0
M  V30 565 C 56.1007 -0.808263 1.68297 0
M  V30 566 C 56.4517 -1.85736 0.632181 0
M  V30 567 O 55.5767 -2.15277 -0.220204 0
M  V30 568 C 56.1717 -1.47284 3.05111 0
M  V30 569 C 54.7307 -1.98895 3.19559 0
M  V30 570 C 53.8777 -0.842575 2.64189 0
M  V30 571 H 56.8287 -0.0154422 1.58692 0
M  V30 572 H 56.8497 -2.34111 2.99954 0
M  V30 573 H 56.3617 -0.709053 3.81568 0
M  V30 574 H 54.4627 -2.78132 2.47938 0
M  V30 575 H 54.5757 -2.18143 4.26556 0
M  V30 576 H 52.9397 -1.24501 2.22197 0
M  V30 577 H 53.7227 -0.0917552 3.43177 0
M  V30 578 N 56.1678 -1.49265 -0.50573 0
M  V30 579 C 57.3958 -1.62215 -1.28429 0
M  V30 580 C 57.8108 -0.291697 -1.86533 0
M  V30 581 O 57.1678 0.722233 -1.67601 0
M  V30 582 C 57.2188 -2.68735 -2.41793 0
M  V30 583 O 56.9398 -3.96619 -1.86078 0
M  V30 584 C 58.4408 -2.92346 -3.3324 0
M  V30 585 H 55.6608 -0.546239 -0.389697 0
M  V30 586 H 58.2048 -1.95265 -0.607609 0
M  V30 587 H 56.3598 -2.38476 -3.053 0
M  V30 588 H 56.7738 -4.55256 -2.60465 0
M  V30 589 H 58.2478 -3.70623 -4.09075 0
M  V30 590 H 58.7248 -2.02081 -3.89948 0
M  V30 591 H 59.3308 -3.24003 -2.75503 0
M  V30 592 N 57.6459 0.756429 -1.3826 0
M  V30 593 C 58.8709 1.55077 -1.37717 0
M  V30 594 C 59.2959 1.88073 0.03164 0
M  V30 595 O 58.6539 1.50364 1.01293 0
M  V30 596 C 58.7019 2.8283 -2.23695 0
M  V30 597 O 57.8059 3.77862 -1.6521 0
M  V30 598 H 57.1469 0.469152 -0.469885 0
M  V30 599 H 59.6769 0.935019 -1.81985 0
M  V30 600 H 59.6869 3.31783 -2.37453 0
M  V30 601 H 58.3619 2.58144 -3.2609 0
M  V30 602 H 56.9389 3.36555 -1.60578 0
M  V30 603 N 59.124 1.23083 0.984299 0
M  V30 604 C 60.401 0.9689 1.69917 0
M  V30 605 C 60.781 -0.513604 2.04757 0
M  V30 606 O 60.129 -1.48383 1.73767 0
M  V30 607 C 60.339 1.87518 2.94343 0
M  V30 608 C 61.687 2.13636 3.6694 0
M  V30 609 O 62.711 1.85036 3.04368 0
M  V30 610 O 61.57 2.62119 4.79537 0
M  V30 611 H 58.664 0.365095 0.742048 0
M  V30 612 H 61.21 1.34107 1.03987 0
M  V30 613 H 59.982 2.87756 2.65164 0
M  V30 614 H 59.605 1.50514 3.6801 0
M  V30 615 N 60.6021 -1.18246 1.0419 0
M  V30 616 C 61.8791 -1.84121 0.660208 0
M  V30 617 C 62.2591 -1.92778 -0.860221 0
M  V30 618 O 61.6071 -1.45464 -1.76217 0
M  V30 619 C 61.8171 -3.22355 1.33747 0
M  V30 620 C 63.1651 -3.98376 1.46906 0
M  V30 621 O 64.1891 -3.31799 1.29568 0
M  V30 622 O 63.0481 -5.17665 1.75171 0
M  V30 623 H 60.1421 -0.794036 0.231161 0
M  V30 624 H 62.6881 -1.25628 1.14087 0
M  V30 625 H 61.4601 -3.10964 2.37522 0
M  V30 626 H 61.0831 -3.88506 0.845515 0
M  V30 627 N 62.0802 -0.821533 -1.34494 0
M  V30 628 C 63.3292 -0.405355 -1.97585 0
M  V30 629 C 63.6422 1.03677 -1.65863 0
M  V30 630 O 64.8482 1.55679 -2.22433 0
M  V30 631 C 63.3042 -0.673861 -3.53535 0
M  V30 632 C 62.9122 -2.12951 -3.94152 0
M  V30 633 C 64.6562 -0.32378 -4.23263 0
M  V30 634 C 62.5632 -2.34298 -5.43009 0
M  V30 635 H 61.4932 -0.147836 -0.739365 0
M  V30 636 H 64.1442 -1.00769 -1.53355 0
M  V30 637 H 62.5262 -0.00137554 -3.96 0
M  V30 638 H 63.7002 -2.84104 -3.62797 0
M  V30 639 H 62.0152 -2.44089 -3.37356 0
M  V30 640 H 64.6122 -0.461126 -5.32708 0
M  V30 641 H 64.9552 0.731586 -4.09821 0
M  V30 642 H 65.4882 -0.950786 -3.8627 0
M  V30 643 H 62.2272 -3.38335 -5.61435 0
M  V30 644 H 61.7472 -1.67687 -5.75883 0
M  V30 645 H 63.4262 -2.16588 -6.09671 0
M  V30 646 N 63.5583 1.46682 -0.576371 0
M  V30 647 C 64.8053 2.02412 -0.0595339 0
M  V30 648 C 65.1333 1.44859 1.29793 0
M  V30 649 O 64.3883 0.601099 1.8624 0
M  V30 650 C 64.6873 3.57345 0.062886 0
M  V30 651 C 64.3533 4.33908 -1.22616 0
M  V30 652 C 63.0153 4.54544 -1.57933 0
M  V30 653 C 65.3673 4.77919 -2.07948 0
M  V30 654 C 62.6953 5.16444 -2.78393 0
M  V30 655 C 65.0473 5.41149 -3.27629 0
M  V30 656 C 63.7113 5.60014 -3.63236 0
M  V30 657 H 62.9813 0.74068 -0.021785 0
M  V30 658 H 65.6283 1.76128 -0.751735 0
M  V30 659 H 63.9333 3.82729 0.838178 0
M  V30 660 H 65.6303 3.98136 0.478439 0
M  V30 661 H 62.2203 4.18138 -0.941202 0
M  V30 662 H 66.4043 4.61738 -1.81967 0
M  V30 663 H 61.6603 5.29242 -3.06126 0
M  V30 664 H 65.8343 5.74211 -3.94023 0
M  V30 665 H 63.4613 6.07748 -4.56669 0
M  V30 666 N 65.0364 0.313813 1.54444 0
M  V30 667 C 65.9464 -0.565714 2.27677 0
M  V30 668 C 66.9624 -1.13754 1.31666 0
M  V30 669 O 68.1384 -1.15959 1.64668 0
M  V30 670 C 65.2034 -1.71528 3.01296 0
M  V30 671 C 64.2644 -1.17624 4.12872 0
M  V30 672 C 63.4974 -2.27102 4.8297 0
M  V30 673 O 63.7204 -3.47256 4.52514 0
M  V30 674 O 62.6544 -1.9307 5.70094 0
M  V30 675 H 66.4804 0.0287296 3.03686 0
M  V30 676 H 64.0654 0.0798312 1.49187 0
M  V30 677 H 65.9474 -2.38476 3.4743 0
M  V30 678 H 64.6224 -2.29608 2.2817 0
M  V30 679 H 63.5294 -0.472124 3.71109 0
M  V30 680 H 64.8624 -0.640695 4.88012 0
M  V30 681 N 66.5145 -1.57545 0.0417849 0
M  V30 682 C 67.9305 -1.56467 -0.314704 0
M  V30 683 C 68.1305 -1.04859 -1.72066 0
M  V30 684 O 67.1865 -0.700983 -2.42575 0
M  V30 685 C 68.4995 -3.00317 -0.15174 0
M  V30 686 C 70.0475 -3.12201 -0.223553 0
M  V30 687 C 70.5225 -4.57913 -0.0892295 0
M  V30 688 N 72.0135 -4.6297 -0.145808 0
M  V30 689 C 72.7485 -5.73362 -0.0658459 0
M  V30 690 N 72.2445 -6.92769 0.0659282 0
M  V30 691 N 74.0375 -5.6197 -0.12075 0
M  V30 692 H 66.1885 -1.89416 0.961014 0
M  V30 693 H 68.4515 -0.871862 0.372237 0
M  V30 694 H 68.1575 -3.42073 0.817254 0
M  V30 695 H 68.0315 -3.65892 -0.916692 0
M  V30 696 H 70.4185 -2.70349 -1.18301 0
M  V30 697 H 70.4995 -2.49323 0.571994 0
M  V30 698 H 70.1435 -5.00448 0.866867 0
M  V30 699 H 70.0735 -5.18786 -0.903802 0
M  V30 700 H 72.5645 -3.7709 -0.247286 0
M  V30 701 H 72.8775 -7.72707 0.119905 0
M  V30 702 H 71.2225 -6.94927 0.100885 0
M  V30 703 H 74.4135 -4.67572 -0.222187 0
M  V30 704 H 74.5865 -6.47977 -0.0549735 0
M  V30 705 N 67.9926 0.231505 -1.5589 0
M  V30 706 C 68.9026 1.308 -1.94752 0
M  V30 707 C 69.9186 1.51826 -0.849989 0
M  V30 708 O 71.0946 1.6515 -1.15271 0
M  V30 709 C 68.1596 2.63968 -2.24771 0
M  V30 710 C 67.2206 2.51331 -3.48039 0
M  V30 711 C 66.4536 3.78148 -3.76616 0
M  V30 712 O 66.6766 4.80722 -3.07022 0
M  V30 713 O 65.6106 3.75857 -4.70123 0
M  V30 714 H 69.4366 1.0083 -2.86474 0
M  V30 715 H 67.0216 0.433547 -1.42971 0
M  V30 716 H 68.9036 3.42633 -2.45318 0
M  V30 717 H 67.5786 2.9364 -1.36225 0
M  V30 718 H 66.4856 1.709 -3.32782 0
M  V30 719 H 67.8186 2.26601 -4.36936 0
M  V30 720 N 69.4707 1.49531 0.497807 0
M  V30 721 C 70.7007 1.62657 1.27382 0
M  V30 722 C 71.1087 0.298488 1.86831 0
M  V30 723 O 70.4517 -0.72647 1.68725 0
M  V30 724 C 70.5137 2.6393 2.44093 0
M  V30 725 C 70.1777 4.08195 2.05489 0
M  V30 726 C 71.1747 4.949 1.59279 0
M  V30 727 C 68.8597 4.53948 2.15026 0
M  V30 728 C 70.8537 6.25397 1.23113 0
M  V30 729 C 68.5407 5.84458 1.78473 0
M  V30 730 C 69.5387 6.70006 1.32591 0
M  V30 731 O 69.2267 7.98083 0.965327 0
M  V30 732 H 68.9587 0.550429 0.392434 0
M  V30 733 H 71.5127 1.96325 0.603801 0
M  V30 734 H 69.7427 2.25449 3.14181 0
M  V30 735 H 71.4317 2.66552 3.06113 0
M  V30 736 H 72.1977 4.60779 1.51354 0
M  V30 737 H 68.0767 3.87525 2.4969 0
M  V30 738 H 71.6207 6.92125 0.872299 0
M  V30 739 H 67.5177 6.18107 1.86048 0
M  V30 740 H 68.2857 8.11122 1.09652 0
M  V30 741 N 70.9488 -0.749086 1.3866 0
M  V30 742 C 71.8958 -1.86291 1.36251 0
M  V30 743 C 72.8658 -1.64578 0.224347 0
M  V30 744 O 74.0508 -1.86181 0.417279 0
M  V30 745 C 71.1908 -3.23644 1.19786 0
M  V30 746 C 70.3038 -3.57158 2.43027 0
M  V30 747 C 69.4388 -4.83838 2.19258 0
M  V30 748 C 68.4778 -5.10152 3.38247 0
M  V30 749 N 67.6148 -6.28029 3.13884 0
M  V30 750 H 72.4548 -1.87685 2.3147 0
M  V30 751 H 69.9918 -0.917287 1.14997 0
M  V30 752 H 71.9498 -4.0291 1.08254 0
M  V30 753 H 70.5798 -3.21566 0.282031 0
M  V30 754 H 69.6318 -2.72701 2.65214 0
M  V30 755 H 70.9438 -3.7253 3.31697 0
M  V30 756 H 70.0978 -5.71057 2.04888 0
M  V30 757 H 68.8368 -4.70614 1.2796 0
M  V30 758 H 67.8418 -4.21401 3.53131 0
M  V30 759 H 69.0668 -5.25271 4.30427 0
M  V30 760 H 67.0128 -6.1612 2.25238 0
M  V30 761 H 66.9298 -6.43922 3.96106 0
M  V30 762 H 68.1978 -7.18124 3.03179 0
M  V30 763 N 72.4269 -1.23603 -0.977757 0
M  V30 764 C 73.6569 -1.09487 -1.75203 0
M  V30 765 C 74.0649 0.356321 -1.85814 0
M  V30 766 O 73.4079 1.25816 -1.33851 0
M  V30 767 C 73.4699 -1.64905 -3.19447 0
M  V30 768 C 73.1339 -3.13688 -3.32338 0
M  V30 769 C 74.1309 -4.10953 -3.18455 0
M  V30 770 C 71.8159 -3.53449 -3.56902 0
M  V30 771 C 73.8099 -5.45962 -3.28944 0
M  V30 772 C 71.4969 -4.88602 -3.6703 0
M  V30 773 C 72.4949 -5.84668 -3.53062 0
M  V30 774 O 72.1829 -7.17365 -3.62826 0
M  V30 775 H 71.9149 -0.38367 -0.556573 0
M  V30 776 H 74.4689 -1.6398 -1.23693 0
M  V30 777 H 72.6989 -1.04835 -3.72218 0
M  V30 778 H 74.3879 -1.46226 -3.78646 0
M  V30 779 H 75.1539 -3.81577 -2.99372 0
M  V30 780 H 71.0329 -2.79188 -3.66844 0
M  V30 781 H 74.5769 -6.20925 -3.17958 0
M  V30 782 H 70.4739 -5.17653 -3.85623 0
M  V30 783 H 71.2419 -7.2515 -3.79605 0
M  V30 784 N 73.905 1.17692 -1.04816 0
M  V30 785 C 75.153 1.87488 -0.754497 0
M  V30 786 C 75.474 1.81205 0.720407 0
M  V30 787 O 74.744 1.23544 1.52032 0
M  V30 788 H 73.324 0.694101 -0.276102 0
M  V30 789 H 75.986 1.42793 -1.32651 0
M  V30 790 H 75.082 2.93328 -1.06606 0
M  V30 791 N 75.3831 0.828654 1.34056 0
M  V30 792 C 76.3461 0.259927 2.27721 0
M  V30 793 C 77.3461 -0.565478 1.50529 0
M  V30 794 O 78.5361 -0.38075 1.69988 0
M  V30 795 C 75.6681 -0.634944 3.34935 0
M  V30 796 H 76.8611 1.0863 2.79534 0
M  V30 797 H 74.4141 0.600951 1.44285 0
M  V30 798 H 75.1491 -1.48416 2.88346 0
M  V30 799 H 74.9341 -0.0444999 3.92075 0
M  V30 800 H 76.4241 -1.02648 4.04788 0
M  V30 801 N 76.8612 -1.46375 0.584142 0
M  V30 802 C 77.8112 -2.27371 -0.169232 0
M  V30 803 C 78.7952 -1.35955 -0.860523 0
M  V30 804 O 79.9872 -1.60119 -0.754382 0
M  V30 805 C 77.1162 -3.22334 -1.18134 0
M  V30 806 C 76.2022 -4.21235 -0.492088 0
M  V30 807 N 76.5932 -5.03766 0.453129 0
M  V30 808 C 74.8912 -4.39773 -0.742652 0
M  V30 809 C 75.5922 -5.75366 0.85609 0
M  V30 810 N 74.5682 -5.43214 0.204926 0
M  V30 811 H 78.3702 -2.88572 0.557097 0
M  V30 812 H 75.8842 -1.57242 0.406042 0
M  V30 813 H 77.8812 -3.79071 -1.73525 0
M  V30 814 H 76.5412 -2.62693 -1.90847 0
M  V30 815 H 77.5522 -5.11227 0.828723 0
M  V30 816 H 74.2292 -3.91279 -1.45625 0
M  V30 817 H 75.6192 -6.5172 1.63434 0
M  V30 818 N 78.3393 -0.321999 -1.54275 0
M  V30 819 C 79.2873 0.560206 -2.25753 0
M  V30 820 C 80.2813 1.11984 -1.27106 0
M  V30 821 O 81.4873 1.06806 -1.44888 0
M  V30 822 H 77.8623 0.199304 -0.725108 0
M  V30 823 H 79.8333 -0.0649365 -2.98329 0
M  V30 824 C 78.5823 1.71023 -3.02731 0
M  V30 825 H 77.9053 1.28885 -3.78456 0
M  V30 826 H 79.3453 2.30314 -3.55993 0
M  V30 827 C 77.8043 2.62692 -2.10938 0
M  V30 828 O 78.3343 3.64364 -1.6912 0
M  V30 829 N 76.5403 2.30891 -1.76459 0
M  V30 830 H 76.0873 1.48253 -2.10663 0
M  V30 831 H 76.0453 2.92487 -1.1532 0
M  V30 832 N 79.8174 1.5752 -0.0501392 0
M  V30 833 C 81.0474 1.96678 0.632573 0
M  V30 834 C 81.4554 0.926298 1.64974 0
M  V30 835 O 80.7984 -0.09802 1.83438 0
M  V30 836 C 80.8604 3.32068 1.37735 0
M  V30 837 C 80.5244 4.54076 0.516131 0
M  V30 838 C 81.5214 5.19445 -0.217357 0
M  V30 839 C 79.2064 5.00304 0.44736 0
M  V30 840 C 81.2004 6.29378 -1.00807 0
M  V30 841 C 78.8874 6.10114 -0.347038 0
M  V30 842 C 79.8854 6.74512 -1.07344 0
M  V30 843 O 79.5734 7.82211 -1.85477 0
M  V30 844 H 79.3054 0.652193 0.177821 0
M  V30 845 H 81.8594 2.05091 -0.112543 0
M  V30 846 H 80.0894 3.20206 2.16807 0
M  V30 847 H 81.7784 3.55981 1.95019 0
M  V30 848 H 82.5444 4.84689 -0.173688 0
M  V30 849 H 78.4234 4.49971 1.00235 0
M  V30 850 H 81.9674 6.79575 -1.57556 0
M  V30 851 H 77.8644 6.44307 -0.392349 0
M  V30 852 H 78.6324 7.98982 -1.77678 0
M  V30 853 N 81.2955 -0.223234 1.56011 0
M  V30 854 C 82.2455 -1.28008 1.88674 0
M  V30 855 C 83.2295 -1.42369 0.749663 0
M  V30 856 O 84.4215 -1.45212 1.01205 0
M  V30 857 C 81.5505 -2.63084 2.20548 0
M  V30 858 C 80.6365 -2.52632 3.40643 0
M  V30 859 N 81.0275 -2.11829 4.59306 0
M  V30 860 C 79.3255 -2.83594 3.44224 0
M  V30 861 C 80.0265 -2.12587 5.41463 0
M  V30 862 N 79.0025 -2.5301 4.81131 0
M  V30 863 H 82.8045 -0.955487 2.77935 0
M  V30 864 H 80.3185 -0.431801 1.56554 0
M  V30 865 H 82.3155 -3.39385 2.42122 0
M  V30 866 H 80.9755 -2.96391 1.32599 0
M  V30 867 H 81.9865 -1.82988 4.84496 0
M  V30 868 H 78.6635 -3.21284 2.66614 0
M  V30 869 H 80.0535 -1.83179 6.46448 0
M  V30 870 N 82.7736 -1.49793 -0.48987 0
M  V30 871 C 84.1846 -1.52914 -1.07118 0
M  V30 872 C 84.5356 -0.321738 -1.93544 0
M  V30 873 O 83.6606 0.567338 -2.08831 0
M  V30 874 C 84.2556 -2.771 -1.94938 0
M  V30 875 C 82.8146 -2.82963 -2.48212 0
M  V30 876 C 81.9616 -2.46972 -1.26096 0
M  V30 877 H 84.9126 -1.56329 -0.273289 0
M  V30 878 H 84.9336 -2.57892 -2.79771 0
M  V30 879 H 84.4456 -3.64959 -1.32009 0
M  V30 880 H 82.5466 -1.99411 -3.14748 0
M  V30 881 H 82.6596 -3.85406 -2.84603 0
M  V30 882 H 81.0236 -1.98994 -1.58976 0
M  V30 883 H 81.8066 -3.37118 -0.648581 0
M  V30 884 N 84.2517 0.741722 -1.39055 0
M  V30 885 C 85.1817 1.869 -1.39966 0
M  V30 886 C 86.1627 1.6804 -0.26392 0
M  V30 887 O 87.3477 1.88458 -0.468755 0
M  V30 888 C 84.4777 3.24572 -1.23574 0
M  V30 889 C 83.4317 3.58056 -2.34477 0
M  V30 890 C 82.7577 4.94593 -2.0318 0
M  V30 891 C 84.0577 3.61716 -3.76774 0
M  V30 892 H 85.7517 1.86395 -2.34302 0
M  V30 893 H 83.2977 0.895361 -1.1278 0
M  V30 894 H 85.2507 4.031 -1.22834 0
M  V30 895 H 83.9747 3.25587 -0.257045 0
M  V30 896 H 82.6337 2.81854 -2.34423 0
M  V30 897 H 82.2817 4.92181 -1.03765 0
M  V30 898 H 81.9817 5.17964 -2.77465 0
M  V30 899 H 83.5057 5.75486 -2.04079 0
M  V30 900 H 84.9197 4.30335 -3.78794 0
M  V30 901 H 83.3167 3.96603 -4.50362 0
M  V30 902 H 84.3867 2.61672 -4.08235 0
M  V30 903 N 85.7298 1.2412 0.971189 0
M  V30 904 C 87.1408 1.07236 1.52831 0
M  V30 905 C 87.4918 -0.357352 1.92918 0
M  V30 906 O 86.6168 -1.24528 1.76979 0
M  V30 907 C 87.2118 1.94043 2.77728 0
M  V30 908 C 85.7708 1.81394 3.29808 0
M  V30 909 C 84.9178 1.89189 2.02738 0
M  V30 910 H 87.8688 1.37648 0.789864 0
M  V30 911 H 87.8898 1.47066 3.5093 0
M  V30 912 H 87.4018 2.98093 2.4852 0
M  V30 913 H 85.5028 0.801634 3.63874 0
M  V30 914 H 85.6158 2.65294 3.98944 0
M  V30 915 H 83.9798 1.32877 2.17292 0
M  V30 916 H 84.7628 2.94812 1.759 0
M  V30 917 N 87.2079 -1.17134 1.05439 0
M  V30 918 C 88.4539 -1.87733 0.767077 0
M  V30 919 C 88.7869 -1.8098 -0.704253 0
M  V30 920 O 88.0619 -1.21951 -1.5152 0
M  V30 921 C 88.3449 -3.37659 1.25133 0
M  V30 922 C 88.1979 -3.53149 2.78578 0
M  V30 923 C 89.5169 -4.31768 0.852324 0
M  V30 924 H 86.6359 -0.681687 0.280129 0
M  V30 925 H 89.2779 -1.37732 1.30881 0
M  V30 926 H 87.4279 -3.80373 0.790469 0
M  V30 927 H 89.0999 -3.19434 3.32806 0
M  V30 928 H 87.3429 -2.95345 3.17732 0
M  V30 929 H 88.0139 -4.58403 3.07523 0
M  V30 930 H 90.4899 -3.96909 1.24911 0
M  V30 931 H 89.3659 -5.35199 1.21873 0
M  V30 932 H 89.6269 -4.41429 -0.243485 0
M  V30 933 N 88.686 -0.835752 -1.33615 0
M  V30 934 C 89.649 -0.272 -2.2758 0
M  V30 935 C 90.649 0.557487 -1.50827 0
M  V30 936 O 91.839 0.37173 -1.70188 0
M  V30 937 C 88.971 0.617173 -3.35267 0
M  V30 938 H 90.164 -1.10111 -2.78954 0
M  V30 939 H 87.717 -0.608594 -1.43965 0
M  V30 940 H 88.452 1.46884 -2.89129 0
M  V30 941 H 88.237 0.0237066 -3.92093 0
M  V30 942 H 89.727 1.005 -4.05326 0
M  V30 943 N 90.1641 1.46063 -0.591896 0
M  V30 944 C 91.0941 2.33172 0.123673 0
M  V30 945 C 92.0751 1.45897 0.87453 0
M  V30 946 O 93.2601 1.74698 0.848181 0
M  V30 947 C 90.3901 3.28336 1.13194 0
M  V30 948 C 89.3441 4.25124 0.495324 0
M  V30 949 C 88.6701 5.09863 1.61071 0
M  V30 950 C 89.9701 5.19143 -0.573425 0
M  V30 951 H 91.6641 2.93252 -0.603646 0
M  V30 952 H 89.2101 1.41014 -0.291741 0
M  V30 953 H 91.1631 3.88137 1.64097 0
M  V30 954 H 89.8871 2.66383 1.88965 0
M  V30 955 H 88.5461 3.66599 0.00729452 0
M  V30 956 H 88.1941 4.44288 2.35832 0
M  V30 957 H 87.8941 5.75417 1.19035 0
M  V30 958 H 89.4181 5.72529 2.12233 0
M  V30 959 H 90.8321 5.73106 -0.1491 0
M  V30 960 H 89.2291 5.93089 -0.914636 0
M  V30 961 H 90.2991 4.62519 -1.45617 0
M  V30 962 N 91.6422 0.330177 1.54103 0
M  V30 963 C 92.5522 -0.541534 2.28264 0
M  V30 964 C 93.5682 -1.12351 1.32866 0
M  V30 965 O 94.7442 -1.14206 1.65888 0
M  V30 966 C 91.8092 -1.68322 3.03098 0
M  V30 967 C 90.8702 -1.13238 4.14096 0
M  V30 968 C 90.1032 -2.21966 4.85352 0
M  V30 969 O 90.3262 -3.42437 4.56172 0
M  V30 970 O 89.2602 -1.87013 5.7211 0
M  V30 971 H 93.0862 0.060938 3.03639 0
M  V30 972 H 90.6712 0.09565 1.49093 0
M  V30 973 H 92.5532 -2.34777 3.49939 0
M  V30 974 H 91.2282 -2.27176 2.30593 0
M  V30 975 H 90.1352 -0.432736 3.71589 0
M  V30 976 H 91.4682 -0.588898 4.88664 0
M  V30 977 N 93.1203 -1.57491 0.0584922 0
M  V30 978 C 94.5363 -1.56792 -0.298091 0
M  V30 979 C 94.7363 -1.06679 -1.70944 0
M  V30 980 O 93.7923 -0.726672 -2.41818 0
M  V30 981 C 95.1053 -3.00461 -0.119879 0
M  V30 982 C 96.6533 -3.1242 -0.190428 0
M  V30 983 C 97.1283 -4.57982 -0.0406567 0
M  V30 984 N 98.6193 -4.63099 -0.0966958 0
M  V30 985 C 99.3543 -5.734 -0.00502943 0
M  V30 986 N 98.8503 -6.9266 0.139402 0
M  V30 987 N 100.643 -5.62067 -0.0611391 0
M  V30 988 H 92.7943 -1.88386 0.98105 0
M  V30 989 H 95.0573 -0.867865 0.381463 0
M  V30 990 H 94.7633 -3.41187 0.85349 0
M  V30 991 H 94.6373 -3.66843 -0.877833 0
M  V30 992 H 97.0243 -2.71589 -1.15427 0
M  V30 993 H 97.1053 -2.48702 0.598405 0
M  V30 994 H 96.7493 -4.995 0.919897 0
M  V30 995 H 96.6793 -5.19715 -0.848727 0
M  V30 996 H 99.1703 -3.77331 -0.207277 0
M  V30 997 H 99.4833 -7.72536 0.201855 0
M  V30 998 H 97.8283 -6.94781 0.174586 0
M  V30 999 H 101.019 -4.67782 -0.172583 0
M  V30 1000 H 101.192 -6.47999 0.0137562 0
M  V30 1001 N 94.5984 0.214957 -1.56127 0
M  V30 1002 C 95.8464 0.936518 -1.79091 0
M  V30 1003 C 96.1674 1.84606 -0.628148 0
M  V30 1004 O 95.4374 1.92664 0.35462 0
M  V30 1005 H 94.0174 0.3488 -0.660566 0
M  V30 1006 H 96.6794 0.22523 -1.93594 0
M  V30 1007 H 95.7754 1.53943 -2.71492 0
M  V30 1008 N 96.0765 1.50051 0.48192 0
M  V30 1009 C 97.0235 1.68122 1.58125 0
M  V30 1010 C 97.9935 0.522545 1.57666 0
M  V30 1011 O 99.1785 0.751844 1.75362 0
M  V30 1012 C 96.3185 1.77142 2.96167 0
M  V30 1013 C 95.4315 3.0444 3.06497 0
M  V30 1014 C 94.5665 3.04321 4.35387 0
M  V30 1015 C 93.6055 4.26118 4.3942 0
M  V30 1016 N 92.7425 4.238 5.59766 0
M  V30 1017 H 97.5825 2.6198 1.42022 0
M  V30 1018 H 95.1195 1.29877 0.690687 0
M  V30 1019 H 97.0775 1.80352 3.76203 0
M  V30 1020 H 95.7075 0.867329 3.1093 0
M  V30 1021 H 94.7595 3.10752 2.19402 0
M  V30 1022 H 96.0715 3.94426 3.05336 0
M  V30 1023 H 95.2255 3.062 5.23762 0
M  V30 1024 H 93.9645 2.12147 4.39141 0
M  V30 1025 H 92.9695 4.24463 3.49444 0
M  V30 1026 H 94.1945 5.19507 4.37366 0
M  V30 1027 H 92.1405 3.34474 5.64326 0
M  V30 1028 H 92.0575 5.07542 5.60301 0
M  V30 1029 H 93.3255 4.2981 6.50295 0
M  V30 1030 N 97.5546 -0.734337 1.39446 0
M  V30 1031 C 98.8026 -1.49096 1.36436 0
M  V30 1032 C 99.1236 -1.94961 -0.0388255 0
M  V30 1033 O 98.3936 -1.69033 -0.990191 0
M  V30 1034 H 96.9736 -0.5531 0.502085 0
M  V30 1035 H 99.6356 -0.871725 1.74319 0
M  V30 1036 H 98.7316 -2.37276 2.02747 0
M  V30 1037 N 99.0327 -1.24633 -0.964593 0
M  V30 1038 C 100.282 -1.08188 -1.7023 0
M  V30 1039 C 100.595 0.37873 -1.91898 0
M  V30 1040 O 101.801 0.663427 -2.6327 0
M  V30 1041 C 100.257 -1.88773 -3.06419 0
M  V30 1042 C 99.8647 -3.39263 -2.92582 0
M  V30 1043 C 101.609 -1.80867 -3.84041 0
M  V30 1044 C 99.5157 -4.1218 -4.24101 0
M  V30 1045 H 98.4457 -0.401245 -0.638372 0
M  V30 1046 H 101.097 -1.48742 -1.07462 0
M  V30 1047 H 99.4787 -1.41035 -3.70034 0
M  V30 1048 H 100.653 -3.94603 -2.37961 0
M  V30 1049 H 98.9677 -3.48154 -2.28424 0
M  V30 1050 H 101.565 -2.32646 -4.81435 0
M  V30 1051 H 101.908 -0.774543 -4.09031 0
M  V30 1052 H 102.441 -2.26301 -3.27159 0
M  V30 1053 H 99.1797 -5.15965 -4.04303 0
M  V30 1054 H 98.6997 -3.61626 -4.78526 0
M  V30 1055 H 100.379 -4.19349 -4.92702 0
M  V30 1056 N 100.511 1.16574 -1.06058 0
M  V30 1057 C 101.741 1.90675 -0.795397 0
M  V30 1058 C 102.149 1.77547 0.653735 0
M  V30 1059 O 101.492 1.11611 1.45907 0
M  V30 1060 C 101.554 3.42011 -1.10764 0
M  V30 1061 C 101.218 3.78924 -2.55471 0
M  V30 1062 C 102.215 3.81042 -3.53699 0
M  V30 1063 C 99.8998 4.09626 -2.90708 0
M  V30 1064 C 101.894 4.13346 -4.85205 0
M  V30 1065 C 99.5808 4.41597 -4.22416 0
M  V30 1066 C 100.579 4.43436 -5.19474 0
M  V30 1067 O 100.267 4.74649 -6.48817 0
M  V30 1068 H 99.9988 0.611554 -0.288058 0
M  V30 1069 H 102.553 1.48711 -1.41683 0
M  V30 1070 H 100.783 3.84312 -0.429128 0
M  V30 1071 H 102.472 3.97384 -0.827077 0
M  V30 1072 H 103.238 3.57437 -3.27817 0
M  V30 1073 H 99.1168 4.07361 -2.15819 0
M  V30 1074 H 102.661 4.14696 -5.60957 0
M  V30 1075 H 98.5578 4.64667 -4.48056 0
M  V30 1076 H 99.3258 4.9247 -6.5377 0
M  V30 1077 N 101.989 0.842826 1.3317 0
M  V30 1078 C 102.919 0.294028 2.31641 0
M  V30 1079 C 103.9 -0.600401 1.59151 0
M  V30 1080 O 105.085 -0.523124 1.87022 0
M  V30 1081 C 102.215 -0.528416 3.43257 0
M  V30 1082 C 101.169 0.27056 4.27144 0
M  V30 1083 C 100.495 -0.675881 5.30411 0
M  V30 1084 C 101.795 1.48981 5.00602 0
M  V30 1085 H 103.489 1.11681 2.77791 0
M  V30 1086 H 101.035 0.538478 1.33553 0
M  V30 1087 H 102.988 -0.922674 4.11175 0
M  V30 1088 H 101.712 -1.38445 2.95805 0
M  V30 1089 H 100.371 0.646427 3.60856 0
M  V30 1090 H 100.019 -1.52842 4.79216 0
M  V30 1091 H 99.7189 -0.145374 5.8742 0
M  V30 1092 H 101.243 -1.06757 6.01195 0
M  V30 1093 H 102.657 1.16849 5.61266 0
M  V30 1094 H 101.054 1.95739 5.6728 0
M  V30 1095 H 102.124 2.25746 4.29147 0
M  V30 1096 N 103.467 -1.45747 0.599634 0
M  V30 1097 C 104.713 -2.03153 0.100263 0
M  V30 1098 C 105.068 -1.46073 -1.25221 0
M  V30 1099 O 104.361 -0.622878 -1.81193 0
M  V30 1100 C 104.555 -3.57399 -0.00602758 0
M  V30 1101 C 104.384 -4.2944 1.3346 0
M  V30 1102 C 103.154 -4.6768 1.91321 0
M  V30 1103 C 105.352 -4.61905 2.2616 0
M  V30 1104 N 103.334 -5.24544 3.18946 0
M  V30 1105 C 104.705 -5.19518 3.3838 0
M  V30 1106 C 106.76 -4.43841 2.25631 0
M  V30 1107 C 105.463 -5.60972 4.50226 0
M  V30 1108 C 107.489 -4.86322 3.36518 0
M  V30 1109 C 106.851 -5.44021 4.4746 0
M  V30 1110 H 102.95 -0.777911 0.0798696 0
M  V30 1111 H 105.534 -1.77674 0.796244 0
M  V30 1112 H 103.705 -3.82556 -0.671212 0
M  V30 1113 H 105.437 -4.01457 -0.51133 0
M  V30 1114 H 102.192 -4.5098 1.44617 0
M  V30 1115 H 102.616 -5.57483 3.84112 0
M  V30 1116 H 107.258 -3.98552 1.41123 0
M  V30 1117 H 104.976 -6.0523 5.35464 0
M  V30 1118 H 108.562 -4.74084 3.37247 0
M  V30 1119 H 107.442 -5.76289 5.31846 0
M  V30 1120 N 104.945 -0.338344 -1.53925 0
M  V30 1121 C 106.222 0.314774 -1.93051 0
M  V30 1122 C 106.602 1.68669 -1.26941 0
M  V30 1123 O 105.95 2.24636 -0.418445 0
M  V30 1124 C 106.16 0.392249 -3.46789 0
M  V30 1125 C 107.508 0.645554 -4.19664 0
M  V30 1126 O 108.532 0.474575 -3.53024 0
M  V30 1127 O 107.391 0.976408 -5.37707 0
M  V30 1128 H 104.485 0.182598 -0.80659 0
M  V30 1129 H 107.031 -0.389141 -1.65178 0
M  V30 1130 H 105.803 -0.570702 -3.87116 0
M  V30 1131 H 105.426 1.14316 -3.80812 0
M  V30 1132 N 106.423 1.57458 -0.0668435 0
M  V30 1133 C 107.669 1.93587 0.6043 0
M  V30 1134 C 108.002 0.946722 1.69561 0
M  V30 1135 O 107.277 -0.0248516 1.94484 0
M  V30 1136 C 107.56 3.40014 1.18585 0
M  V30 1137 C 107.413 4.49685 0.101529 0
M  V30 1138 C 108.732 3.87154 2.09284 0
M  V30 1139 H 105.851 0.703958 0.218202 0
M  V30 1140 H 108.493 1.89542 -0.131804 0
M  V30 1141 H 106.643 3.43592 1.81319 0
M  V30 1142 H 108.315 4.5823 -0.531279 0
M  V30 1143 H 106.558 4.30059 -0.568487 0
M  V30 1144 H 107.229 5.49266 0.54874 0
M  V30 1145 H 109.705 3.85551 1.56491 0
M  V30 1146 H 108.581 4.90231 2.46911 0
M  V30 1147 H 108.842 3.2481 2.99918 0
M  V30 1148 N 107.901 -0.206675 1.56239 0
M  V30 1149 C 108.811 -1.27686 1.96808 0
M  V30 1150 C 109.827 -1.50455 0.874035 0
M  V30 1151 O 111.003 -1.63295 1.17884 0
M  V30 1152 C 108.068 -2.60358 2.28942 0
M  V30 1153 C 107.129 -2.45762 3.51994 0
M  V30 1154 C 106.362 -3.72108 3.82585 0
M  V30 1155 O 106.585 -4.75776 3.14631 0
M  V30 1156 O 105.519 -3.6833 4.76043 0
M  V30 1157 H 109.345 -0.962593 2.88041 0
M  V30 1158 H 106.93 -0.410746 1.43643 0
M  V30 1159 H 108.812 -3.38687 2.50737 0
M  V30 1160 H 107.487 -2.91435 1.4088 0
M  V30 1161 H 106.394 -1.65584 3.35459 0
M  V30 1162 H 107.727 -2.19621 4.40486 0
M  V30 1163 N 109.379 -1.50304 -0.473955 0
M  V30 1164 C 110.627 -1.60832 -1.22382 0
M  V30 1165 C 110.948 -0.30939 -1.9253 0
M  V30 1166 O 110.218 0.67296 -1.83978 0
M  V30 1167 H 108.798 -0.592652 -0.454723 0
M  V30 1168 H 111.46 -1.87068 -0.546968 0
M  V30 1169 H 110.556 -2.41803 -1.97327 0
M  V30 1170 N 110.857 0.726932 -1.39834 0
M  V30 1171 C 112.273 1.03354 -1.21615 0
M  V30 1172 C 112.473 2.01327 -0.08338 0
M  V30 1173 O 111.529 2.46158 0.56238 0
M  V30 1174 C 112.842 1.58811 -2.55342 0
M  V30 1175 C 114.39 1.70851 -2.62257 0
M  V30 1176 C 114.865 2.29716 -3.96225 0
M  V30 1177 N 116.356 2.37116 -3.97907 0
M  V30 1178 C 117.091 2.83619 -4.98345 0
M  V30 1179 N 116.587 3.29958 -6.09179 0
M  V30 1180 N 118.38 2.82901 -4.8572 0
M  V30 1181 H 110.531 0.0773069 -2.12259 0
M  V30 1182 H 112.794 0.0969102 -0.943034 0
M  V30 1183 H 112.5 0.942855 -3.38826 0
M  V30 1184 H 112.374 2.57502 -2.75632 0
M  V30 1185 H 114.761 2.34497 -1.79152 0
M  V30 1186 H 114.842 0.707913 -2.45809 0
M  V30 1187 H 114.486 1.66696 -4.79765 0
M  V30 1188 H 114.416 3.30469 -4.09997 0
M  V30 1189 H 116.907 2.04374 -3.17868 0
M  V30 1190 H 117.22 3.63976 -6.8172 0
M  V30 1191 H 115.565 3.27946 -6.12761 0
M  V30 1192 H 118.756 2.46027 -3.98231 0
M  V30 1193 H 118.929 3.18827 -5.6414 0
M  V30 1194 N 112.336 1.25143 0.95797 0
M  V30 1195 C 113.283 1.05235 2.05412 0
M  V30 1196 C 114.253 -0.0374561 1.66058 0
M  V30 1197 O 115.438 0.119073 1.90428 0
M  V30 1198 C 112.578 0.673589 3.38462 0
M  V30 1199 C 111.691 1.8379 3.90954 0
M  V30 1200 C 110.826 1.40381 5.12315 0
M  V30 1201 C 109.865 2.53746 5.57027 0
M  V30 1202 N 109.002 2.11136 6.69601 0
M  V30 1203 H 113.842 1.99048 2.21774 0
M  V30 1204 H 111.379 0.991277 1.08683 0
M  V30 1205 H 113.337 0.434964 4.14926 0
M  V30 1206 H 111.967 -0.227554 3.21997 0
M  V30 1207 H 111.019 2.18992 3.11041 0
M  V30 1208 H 112.331 2.68937 4.20089 0
M  V30 1209 H 111.485 1.12464 5.96185 0
M  V30 1210 H 110.224 0.523015 4.84887 0
M  V30 1211 H 109.229 2.82412 4.71724 0
M  V30 1212 H 110.454 3.42398 5.86464 0
M  V30 1213 H 108.4 1.25468 6.4389 0
M  V30 1214 H 108.317 2.89832 6.98236 0
M  V30 1215 H 109.585 1.86385 7.56889 0
M  V30 1216 N 113.814 -1.1601 1.06675 0
M  V30 1217 C 115.044 -1.90251 0.805497 0
M  V30 1218 C 115.452 -1.77891 -0.64431 0
M  V30 1219 O 114.795 -1.12383 -1.45313 0
M  V30 1220 C 114.857 -3.41419 1.12576 0
M  V30 1221 C 114.521 -3.77564 2.57477 0
M  V30 1222 C 115.518 -3.79161 3.55715 0
M  V30 1223 C 113.203 -4.08079 2.92877 0
M  V30 1224 C 115.197 -4.10767 4.8739 0
M  V30 1225 C 112.884 -4.39351 4.24751 0
M  V30 1226 C 113.882 -4.40675 5.21818 0
M  V30 1227 O 113.57 -4.71202 6.51325 0
M  V30 1228 H 113.302 -0.610018 0.291297 0
M  V30 1229 H 115.856 -1.47958 1.4247 0
M  V30 1230 H 114.086 -3.84079 0.449503 0
M  V30 1231 H 115.775 -3.9694 0.84814 0
M  V30 1232 H 116.541 -3.55693 3.29708 0
M  V30 1233 H 112.42 -4.06211 2.17976 0
M  V30 1234 H 115.964 -4.11715 5.63148 0
M  V30 1235 H 111.861 -4.62285 4.50514 0
M  V30 1236 H 112.629 -4.88996 6.56373 0
M  V30 1237 N 115.292 -0.849877 -1.32721 0
M  V30 1238 C 116.539 -0.450923 -1.97416 0
M  V30 1239 C 116.867 0.992376 -1.67279 0
M  V30 1240 O 116.122 1.71048 -0.950845 0
M  V30 1241 C 116.421 -0.631272 -3.51781 0
M  V30 1242 C 116.087 -2.04432 -4.01894 0
M  V30 1243 C 114.749 -2.4308 -4.1529 0
M  V30 1244 C 117.101 -2.96679 -4.28522 0
M  V30 1245 C 114.429 -3.73257 -4.52654 0
M  V30 1246 C 116.781 -4.26349 -4.67343 0
M  V30 1247 C 115.445 -4.64939 -4.78945 0
M  V30 1248 H 114.715 -0.165004 -0.722395 0
M  V30 1249 H 117.362 -1.07901 -1.58207 0
M  V30 1250 H 115.667 0.0800767 -3.91718 0
M  V30 1251 H 117.364 -0.302709 -3.99856 0
M  V30 1252 H 113.954 -1.73419 -3.91949 0
M  V30 1253 H 118.138 -2.68054 -4.17685 0
M  V30 1254 H 113.394 -4.02946 -4.59831 0
M  V30 1255 H 117.568 -4.97895 -4.86902 0
M  V30 1256 H 115.195 -5.65855 -5.07654 0
M  V30 1257 N 116.77 1.45427 -0.607355 0
M  V30 1258 C 118.047 1.9557 -0.0344566 0
M  V30 1259 C 118.427 1.54979 1.43334 0
M  V30 1260 O 117.775 0.812241 2.13576 0
M  V30 1261 C 117.985 3.48226 -0.232321 0
M  V30 1262 C 119.333 4.2445 -0.113001 0
M  V30 1263 O 120.357 3.55829 -0.162431 0
M  V30 1264 O 119.216 5.465 0.00209442 0
M  V30 1265 H 116.31 0.826222 0.0358667 0
M  V30 1266 H 118.856 1.55594 -0.6774 0
M  V30 1267 H 117.628 3.70739 -1.25174 0
M  V30 1268 H 117.251 3.95092 0.445896 0
M  V30 1269 N 118.248 0.346503 1.53744 0
M  V30 1270 C 119.495 -0.249104 2.00962 0
M  V30 1271 C 119.823 -1.5032 1.23426 0
M  V30 1272 O 119.078 -1.93217 0.310761 0
M  V30 1273 C 119.377 -0.605809 3.52228 0
M  V30 1274 C 119.043 0.551747 4.47512 0
M  V30 1275 C 117.705 0.86941 4.73281 0
M  V30 1276 C 120.057 1.32818 5.03993 0
M  V30 1277 C 117.385 1.96582 5.52786 0
M  V30 1278 C 119.737 2.41486 5.84694 0
M  V30 1279 C 118.401 2.73808 6.08757 0
M  V30 1280 H 117.671 -0.0911538 0.735372 0
M  V30 1281 H 120.318 0.475027 1.85515 0
M  V30 1282 H 118.623 -1.4107 3.65522 0
M  V30 1283 H 120.32 -1.07858 3.86222 0
M  V30 1284 H 116.91 0.294102 4.2759 0
M  V30 1285 H 121.094 1.09602 4.84047 0
M  V30 1286 H 116.35 2.22045 5.69654 0
M  V30 1287 H 120.524 3.02078 6.27473 0
M  V30 1288 H 118.151 3.58892 6.7015 0
M  V30 1289 N 119.726 -1.57421 0.075193 0
M  V30 1290 C 120.656 -2.15942 -0.888324 0
M  V30 1291 C 121.637 -1.08737 -1.30806 0
M  V30 1292 O 122.822 -1.36787 -1.37851 0
M  V30 1293 C 119.952 -2.72379 -2.1547 0
M  V30 1294 C 118.906 -3.8478 -1.87425 0
M  V30 1295 C 118.232 -4.27834 -3.20721 0
M  V30 1296 C 119.532 -5.08869 -1.17684 0
M  V30 1297 H 121.226 -2.96705 -0.400799 0
M  V30 1298 H 118.772 -1.42723 -0.191342 0
M  V30 1299 H 120.725 -3.11965 -2.83295 0
M  V30 1300 H 119.449 -1.88841 -2.6647 0
M  V30 1301 H 118.108 -3.45703 -1.22004 0
M  V30 1302 H 117.756 -3.41214 -3.6957 0
M  V30 1303 H 117.456 -5.03605 -3.02746 0
M  V30 1304 H 118.98 -4.70039 -3.89738 0
M  V30 1305 H 120.394 -5.4575 -1.75584 0
M  V30 1306 H 118.791 -5.8994 -1.09956 0
M  V30 1307 H 119.861 -4.84648 -0.156453 0
M  V30 1308 N 121.204 0.198386 -1.56346 0
M  V30 1309 C 122.429 0.939682 -1.84891 0
M  V30 1310 C 122.854 1.76202 -0.658369 0
M  V30 1311 O 122.212 1.76993 0.392851 0
M  V30 1312 C 122.26 1.81428 -3.11635 0
M  V30 1313 O 121.364 2.91265 -2.91956 0
M  V30 1314 H 120.705 0.264807 -0.608912 0
M  V30 1315 H 123.235 0.204695 -2.03573 0
M  V30 1316 H 123.245 2.21958 -3.42343 0
M  V30 1317 H 121.92 1.21004 -3.97908 0
M  V30 1318 H 120.497 2.54514 -2.72538 0
M  V30 1319 N 122.682 1.50554 0.465978 0
M  V30 1320 C 123.907 1.65838 1.24549 0
M  V30 1321 C 124.332 0.343486 1.84937 0
M  V30 1322 O 123.69 -0.69324 1.67523 0
M  V30 1323 C 123.738 2.75533 2.32624 0
M  V30 1324 O 122.842 2.37142 3.37398 0
M  V30 1325 H 122.183 0.553893 0.366194 0
M  V30 1326 H 124.713 1.96959 0.553927 0
M  V30 1327 H 124.723 2.98763 2.77857 0
M  V30 1328 H 123.398 3.70962 1.88043 0
M  V30 1329 H 121.975 2.24377 2.97841 0
M  V30 1330 N 124.16 -0.719506 1.40217 0
M  V30 1331 C 125.39 -1.50646 1.41384 0
M  V30 1332 C 125.798 -1.89197 0.0107743 0
M  V30 1333 O 125.141 -1.55709 -0.974708 0
M  V30 1334 C 125.203 -2.81405 2.23722 0
M  V30 1335 C 124.867 -2.65199 3.72181 0
M  V30 1336 C 125.864 -2.32717 4.64907 0
M  V30 1337 C 123.549 -2.81586 4.1595 0
M  V30 1338 C 125.543 -2.16827 5.99387 0
M  V30 1339 C 123.23 -2.65313 5.50502 0
M  V30 1340 C 124.228 -2.32981 6.42035 0
M  V30 1341 O 123.916 -2.16827 7.74107 0
M  V30 1342 H 123.648 -0.471606 0.484318 0
M  V30 1343 H 126.202 -0.895456 1.84853 0
M  V30 1344 H 124.432 -3.44823 1.75026 0
M  V30 1345 H 126.121 -3.43102 2.16878 0
M  V30 1346 H 126.887 -2.19694 4.32388 0
M  V30 1347 H 122.766 -3.0574 3.45027 0
M  V30 1348 H 126.31 -1.91513 6.70797 0
M  V30 1349 H 122.207 -2.7792 5.82607 0
M  V30 1350 H 122.975 -2.31778 7.84998 0
M  V30 1351 N 125.638 -1.25649 -0.95132 0
M  V30 1352 C 126.863 -1.13443 -1.73624 0
M  V30 1353 C 127.288 0.307565 -1.85568 0
M  V30 1354 O 126.646 1.22282 -1.33854 0
M  V30 1355 C 126.694 -1.79723 -3.12621 0
M  V30 1356 O 125.798 -1.07912 -3.98031 0
M  V30 1357 H 125.139 -0.395872 -0.533086 0
M  V30 1358 H 127.669 -1.66276 -1.1922 0
M  V30 1359 H 127.679 -1.86141 -3.63064 0
M  V30 1360 H 126.354 -2.84633 -3.03244 0
M  V30 1361 H 124.931 -1.09398 -3.56492 0
M  V30 1362 N 127.117 1.15442 -1.07289 0
M  V30 1363 C 128.08 2.18358 -0.696591 0
M  V30 1364 C 129.08 1.58637 0.262837 0
M  V30 1365 O 130.27 1.74145 0.0438809 0
M  V30 1366 C 127.402 3.4089 -0.0266151 0
M  V30 1367 H 128.595 2.53162 -1.60776 0
M  V30 1368 H 126.148 1.29893 -0.869342 0
M  V30 1369 H 126.883 3.11653 0.896822 0
M  V30 1370 H 126.668 3.85495 -0.716657 0
M  V30 1371 H 128.158 4.17009 0.222028 0
M  V30 1372 N 128.595 0.856903 1.32268 0
M  V30 1373 C 129.841 0.462069 1.97466 0
M  V30 1374 C 130.174 -0.980298 1.67642 0
M  V30 1375 O 129.449 -1.68824 0.965858 0
M  V30 1376 C 129.732 0.704336 3.53145 0
M  V30 1377 C 129.585 2.19529 3.9259 0
M  V30 1378 C 130.904 0.1622 4.39801 0
M  V30 1379 H 128.023 0.169357 0.717278 0
M  V30 1380 H 130.665 1.07574 1.56614 0
M  V30 1381 H 128.815 0.181999 3.88073 0
M  V30 1382 H 130.487 2.78387 3.67829 0
M  V30 1383 H 128.73 2.67292 3.41668 0
M  V30 1384 H 129.401 2.31549 5.01088 0
M  V30 1385 H 131.877 0.608905 4.11621 0
M  V30 1386 H 130.753 0.361265 5.4771 0
M  V30 1387 H 131.014 -0.935158 4.32096 0
M  V30 1388 N 130.073 -1.45103 0.615059 0
M  V30 1389 C 131.021 -2.32331 -0.111791 0
M  V30 1390 C 132.015 -1.46409 -0.852102 0
M  V30 1391 O 133.221 -1.62849 -0.766821 0
M  V30 1392 H 129.596 -0.749993 -0.0549072 0
M  V30 1393 H 131.567 -2.91407 0.642225 0
M  V30 1394 C 130.316 -3.3015 -1.09071 0
M  V30 1395 H 129.639 -3.96265 -0.530485 0
M  V30 1396 H 131.079 -3.93898 -1.56908 0
M  V30 1397 C 129.538 -2.57875 -2.168 0
M  V30 1398 O 130.068 -2.36567 -3.24652 0
M  V30 1399 N 128.274 -2.17884 -1.92289 0
M  V30 1400 H 127.821 -2.35413 -1.04587 0
M  V30 1401 H 127.779 -1.6985 -2.64572 0
M  V30 1402 N 131.551 -0.354651 -1.53558 0
M  V30 1403 C 132.483 0.5315 -2.22952 0
M  V30 1404 C 133.496 1.05503 -1.23988 0
M  V30 1405 O 134.685 0.963279 -1.50277 0
M  V30 1406 C 131.785 1.74538 -2.90499 0
M  V30 1407 C 130.958 1.35524 -4.15875 0
M  V30 1408 C 130.017 2.42999 -4.66731 0
M  V30 1409 O 129.043 2.05844 -5.30676 0
M  V30 1410 N 130.245 3.74423 -4.43608 0
M  V30 1411 H 133.01 -0.0628615 -2.99634 0
M  V30 1412 H 130.571 -0.179302 -1.60904 0
M  V30 1413 H 132.563 2.45892 -3.21433 0
M  V30 1414 H 131.133 2.24686 -2.17336 0
M  V30 1415 H 130.353 0.471998 -3.91364 0
M  V30 1416 H 131.641 1.07071 -4.97406 0
M  V30 1417 H 131.039 4.07391 -3.92491 0
M  V30 1418 H 129.596 4.41913 -4.7912 0
M  V30 1419 N 133.029 1.57378 -0.0835403 0
M  V30 1420 C 134.277 1.93547 0.581718 0
M  V30 1421 C 134.598 0.96524 1.69435 0
M  V30 1422 O 133.868 0.0153369 1.95894 0
M  V30 1423 H 132.448 0.714521 0.217874 0
M  V30 1424 H 135.11 1.94366 -0.144158 0
M  V30 1425 H 134.206 2.95665 0.999423 0
M  V30 1426 N 134.507 -0.190092 1.56449 0
M  V30 1427 C 135.457 -1.23977 1.91347 0
M  V30 1428 C 136.441 -1.40747 0.779693 0
M  V30 1429 O 137.633 -1.43033 1.04262 0
M  V30 1430 C 134.762 -2.58347 2.26079 0
M  V30 1431 C 133.848 -2.4535 3.45925 0
M  V30 1432 N 134.239 -2.02039 4.63696 0
M  V30 1433 C 132.537 -2.76229 3.50162 0
M  V30 1434 C 133.238 -2.01053 5.4585 0
M  V30 1435 N 132.214 -2.42747 4.8639 0
M  V30 1436 H 136.016 -0.896318 2.79899 0
M  V30 1437 H 133.53 -0.398496 1.57435 0
M  V30 1438 H 135.527 -3.34173 2.49267 0
M  V30 1439 H 134.187 -2.93512 1.38856 0
M  V30 1440 H 135.198 -1.7267 4.88268 0
M  V30 1441 H 131.875 -3.15556 2.73369 0
M  V30 1442 H 133.265 -1.69426 6.50188 0
M  V30 1443 N 135.985 -1.50799 -0.457987 0
M  V30 1444 C 137.225 -1.64088 -1.21879 0
M  V30 1445 C 137.589 -0.339848 -1.88968 0
M  V30 1446 O 138.79 -0.348301 -2.66534 0
M  V30 1447 C 137.061 -2.79726 -2.2246 0
M  V30 1448 S 138.62 -3.13225 -3.07303 0
M  V30 1449 H 135.438 -0.578314 -0.41361 0
M  V30 1450 H 138.04 -1.88632 -0.513645 0
M  V30 1451 H 136.744 -3.72722 -1.71775 0
M  V30 1452 H 136.275 -2.57308 -2.97584 0
M  V30 1453 H 138.29 -2.58062 -4.23814 0
M  V30 1454 N 137.463 0.71206 -1.40597 0
M  V30 1455 C 138.413 1.81783 -1.37619 0
M  V30 1456 C 139.397 1.58896 -0.253162 0
M  V30 1457 O 140.589 1.70009 -0.492547 0
M  V30 1458 C 137.718 3.19944 -1.24462 0
M  V30 1459 C 136.804 3.48582 -2.4156 0
M  V30 1460 N 137.195 3.48016 -3.67041 0
M  V30 1461 C 135.493 3.79056 -2.35016 0
M  V30 1462 C 136.194 3.75096 -4.44609 0
M  V30 1463 N 135.17 3.94022 -3.74497 0
M  V30 1464 H 138.972 1.79683 -2.32575 0
M  V30 1465 H 136.486 0.91134 -1.34419 0
M  V30 1466 H 138.483 3.99133 -1.20411 0
M  V30 1467 H 137.143 3.23267 -0.304762 0
M  V30 1468 H 138.154 3.28782 -4.00153 0
M  V30 1469 H 134.831 3.89848 -1.49415 0
M  V30 1470 H 136.221 3.80934 -5.53479 0
M  V30 1471 N 138.941 1.26152 0.944643 0
M  V30 1472 C 140.352 1.10454 1.50522 0
M  V30 1473 C 140.703 -0.31635 1.93633 0
M  V30 1474 O 139.828 -1.20746 1.79581 0
M  V30 1475 C 140.423 1.99891 2.73549 0
M  V30 1476 C 138.982 1.88348 3.25886 0
M  V30 1477 C 138.129 1.93447 1.9868 0
M  V30 1478 H 141.08 1.39292 0.760489 0
M  V30 1479 H 141.101 1.54477 3.47732 0
M  V30 1480 H 140.613 3.03297 2.42141 0
M  V30 1481 H 138.714 0.878636 3.62092 0
M  V30 1482 H 138.827 2.73696 3.93227 0
M  V30 1483 H 137.191 1.37456 2.14425 0
M  V30 1484 H 137.974 2.98476 1.69607 0
M  V30 1485 N 140.419 -1.14872 1.07899 0
M  V30 1486 C 141.366 -2.19791 0.704319 0
M  V30 1487 C 142.336 -1.63238 -0.306987 0
M  V30 1488 O 143.521 -1.8983 -0.192171 0
M  V30 1489 C 140.661 -3.44911 0.114244 0
M  V30 1490 C 139.774 -4.15637 1.1777 0
M  V30 1491 C 138.909 -5.28324 0.552037 0
M  V30 1492 C 137.948 -5.90875 1.59789 0
M  V30 1493 N 137.085 -6.95022 0.994404 0
M  V30 1494 H 141.925 -2.5119 1.60336 0
M  V30 1495 H 139.462 -1.23356 0.801352 0
M  V30 1496 H 141.42 -4.16477 -0.245544 0
M  V30 1497 H 140.05 -3.14011 -0.74813 0
M  V30 1498 H 139.102 -3.42512 1.65499 0
M  V30 1499 H 140.414 -4.5823 1.97046 0
M  V30 1500 H 139.568 -6.06538 0.1402 0
M  V30 1501 H 138.307 -4.86939 -0.272431 0
M  V30 1502 H 137.312 -5.11369 2.01945 0
M  V30 1503 H 138.537 -6.34337 2.42474 0
M  V30 1504 H 136.483 -6.55722 0.190939 0
M  V30 1505 H 136.4 -7.36073 1.72432 0
M  V30 1506 H 137.668 -7.77123 0.608253 0
M  V30 1507 N 141.898 -0.863906 -1.31812 0
M  V30 1508 C 143.147 -0.46801 -1.96195 0
M  V30 1509 C 143.46 0.983474 -1.69077 0
M  V30 1510 O 144.666 1.48523 -2.27273 0
M  V30 1511 C 143.122 -0.785995 -3.51212 0
M  V30 1512 C 142.73 -2.25383 -3.87178 0
M  V30 1513 C 144.474 -0.458274 -4.22019 0
M  V30 1514 C 142.381 -2.51455 -5.3528 0
M  V30 1515 H 141.311 -0.171283 -0.734287 0
M  V30 1516 H 143.962 -1.05597 -1.50072 0
M  V30 1517 H 142.344 -0.127359 -3.95795 0
M  V30 1518 H 143.518 -2.95502 -3.53575 0
M  V30 1519 H 141.833 -2.54698 -3.2942 0
M  V30 1520 H 144.43 -0.630369 -5.30971 0
M  V30 1521 H 144.773 0.600834 -4.11941 0
M  V30 1522 H 145.306 -1.07319 -3.8305 0
M  V30 1523 H 142.045 -3.56025 -5.50387 0
M  V30 1524 H 141.565 -1.85923 -5.70257 0
M  V30 1525 H 143.244 -2.35874 -6.02472 0
M  V30 1526 N 143.376 1.44774 -0.622745 0
M  V30 1527 C 144.622 2.0242 -0.124083 0
M  V30 1528 C 144.955 1.4881 1.24777 0
M  V30 1529 O 144.23 0.668799 1.8264 0
M  V30 1530 C 144.513 3.59957 -0.101619 0
M  V30 1531 C 144.366 4.23867 -1.50521 0
M  V30 1532 C 145.685 4.36284 0.578272 0
M  V30 1533 H 142.804 0.735528 -0.0465645 0
M  V30 1534 H 145.446 1.72447 -0.797617 0
M  V30 1535 H 143.596 3.85623 0.471934 0
M  V30 1536 H 145.268 4.09336 -2.12701 0
M  V30 1537 H 143.511 3.81684 -2.06154 0
M  V30 1538 H 144.182 5.32843 -1.4416 0
M  V30 1539 H 146.658 4.16001 0.0906057 0
M  V30 1540 H 145.534 5.46004 0.563149 0
M  V30 1541 H 145.795 4.10271 1.64713 0
M  V30 1542 N 144.854 0.36279 1.53368 0
M  V30 1543 C 145.802 -0.500155 2.27159 0
M  V30 1544 C 146.796 -1.08575 1.3003 0
M  V30 1545 O 148.002 -1.02927 1.47668 0
M  V30 1546 H 144.377 -0.180009 0.730138 0
M  V30 1547 H 146.348 0.14401 2.98052 0
M  V30 1548 C 145.097 -1.62937 3.07159 0
M  V30 1549 H 144.42 -1.18806 3.8174 0
M  V30 1550 H 145.86 -2.20795 3.61975 0
M  V30 1551 C 144.319 -2.57007 2.17829 0
M  V30 1552 O 144.849 -3.59752 1.78721 0
M  V30 1553 N 143.055 -2.26131 1.82518 0
M  V30 1554 H 142.602 -1.42616 2.14519 0
M  V30 1555 H 142.56 -2.89327 1.23034 0
M  V30 1556 N 146.332 -1.57332 0.0918853 0
M  V30 1557 C 147.295 -2.12708 -0.85369 0
M  V30 1558 C 148.295 -1.05561 -1.213 0
M  V30 1559 O 149.485 -1.31461 -1.14296 0
M  V30 1560 C 146.617 -2.64503 -2.15061 0
M  V30 1561 H 147.81 -2.97573 -0.3729 0
M  V30 1562 H 145.363 -1.55509 -0.157072 0
M  V30 1563 H 146.098 -1.83149 -2.67632 0
M  V30 1564 H 145.883 -3.4284 -1.90272 0
M  V30 1565 H 147.373 -3.07351 -2.82711 0
M  V30 1566 N 147.81 0.181792 -1.56548 0
M  V30 1567 C 148.74 1.22765 -1.98623 0
M  V30 1568 C 149.721 1.46747 -0.860189 0
M  V30 1569 O 150.906 1.58259 -1.12551 0
M  V30 1570 C 148.036 2.56894 -2.33715 0
M  V30 1571 C 146.99 2.475 -3.49182 0
M  V30 1572 C 146.316 3.86023 -3.69986 0
M  V30 1573 C 147.616 1.98866 -4.82959 0
M  V30 1574 H 149.31 0.877942 -2.86239 0
M  V30 1575 H 146.856 0.42088 -1.37712 0
M  V30 1576 H 148.809 3.30253 -2.61746 0
M  V30 1577 H 147.533 2.93632 -1.42997 0
M  V30 1578 H 146.192 1.76596 -3.21262 0
M  V30 1579 H 145.84 4.20136 -2.76576 0
M  V30 1580 H 145.54 3.80609 -4.47672 0
M  V30 1581 H 147.064 4.60984 -4.00407 0
M  V30 1582 H 148.478 2.61992 -5.09934 0
M  V30 1583 H 146.875 2.04424 -5.64208 0
M  V30 1584 H 147.945 0.942465 -4.75653 0
M  V30 1585 N 149.288 1.51039 0.449983 0
M  V30 1586 C 150.235 1.71439 1.54523 0
M  V30 1587 C 151.205 0.555871 1.56522 0
M  V30 1588 O 152.39 0.788871 1.73728 0
M  V30 1589 C 149.53 1.83384 2.92343 0
M  V30 1590 C 148.643 3.10873 2.9997 0
M  V30 1591 C 147.778 3.13488 4.28834 0
M  V30 1592 C 146.817 4.35343 4.30282 0
M  V30 1593 N 145.954 4.35579 5.5065 0
M  V30 1594 H 150.794 2.64934 1.36433 0
M  V30 1595 H 148.331 1.31312 0.662982 0
M  V30 1596 H 150.289 1.88291 3.72293 0
M  V30 1597 H 148.919 0.933086 3.0902 0
M  V30 1598 H 147.971 3.15336 2.12761 0
M  V30 1599 H 149.283 4.00814 2.96901 0
M  V30 1600 H 148.437 3.17241 5.17149 0
M  V30 1601 H 147.176 2.21414 4.34543 0
M  V30 1602 H 146.181 4.3178 3.40362 0
M  V30 1603 H 147.406 5.28668 4.26248 0
M  V30 1604 H 145.352 3.46369 5.57104 0
M  V30 1605 H 145.269 5.19313 5.49409 0
M  V30 1606 H 146.537 4.43507 6.41032 0
M  V30 1607 N 150.766 -0.704594 1.40972 0
M  V30 1608 C 151.991 -1.49858 1.43378 0
M  V30 1609 C 152.416 -1.88061 0.038184 0
M  V30 1610 O 151.774 -1.5402 -0.956425 0
M  V30 1611 C 151.822 -2.74333 2.34038 0
M  V30 1612 O 150.926 -3.7147 1.7912 0
M  V30 1613 H 150.267 -0.45139 0.486974 0
M  V30 1614 H 152.797 -0.866832 1.8533 0
M  V30 1615 H 152.807 -3.22741 2.49604 0
M  V30 1616 H 151.482 -2.45863 3.35446 0
M  V30 1617 H 150.059 -3.30363 1.72958 0
M  V30 1618 N 152.244 -1.26651 -0.937939 0
M  V30 1619 C 153.176 -1.04283 -2.04102 0
M  V30 1620 C 154.189 -0.00221014 -1.628 0
M  V30 1621 O 155.378 -0.242645 -1.76843 0
M  V30 1622 C 152.478 -0.557846 -3.34277 0
M  V30 1623 C 151.651 -1.66843 -4.04329 0
M  V30 1624 C 150.71 -1.18095 -5.12777 0
M  V30 1625 O 149.736 -1.87865 -5.37304 0
M  V30 1626 N 150.938 -0.0311006 -5.80492 0
M  V30 1627 H 153.703 -1.9927 -2.23856 0
M  V30 1628 H 151.264 -1.1808 -1.10764 0
M  V30 1629 H 153.256 -0.215836 -4.04124 0
M  V30 1630 H 151.826 0.298523 -3.11171 0
M  V30 1631 H 151.046 -2.18123 -3.28353 0
M  V30 1632 H 152.334 -2.41408 -4.47883 0
M  V30 1633 H 151.732 0.551486 -5.63005 0
M  V30 1634 H 150.289 0.251809 -6.51313 0
M  V30 1635 N 153.722 1.14298 -1.08507 0
M  V30 1636 C 154.968 1.85633 -0.816581 0
M  V30 1637 C 155.301 1.82784 0.656021 0
M  V30 1638 O 154.576 1.25926 1.48233 0
M  V30 1639 C 154.859 3.34223 -1.34041 0
M  V30 1640 C 154.712 3.45639 -2.87843 0
M  V30 1641 C 156.031 4.29356 -0.9665 0
M  V30 1642 H 153.15 0.67402 -0.298104 0
M  V30 1643 H 155.792 1.34214 -1.34487 0
M  V30 1644 H 153.942 3.78144 -0.89104 0
M  V30 1645 H 155.614 3.10498 -3.41158 0
M  V30 1646 H 153.857 2.86817 -3.25451 0
M  V30 1647 H 154.528 4.50089 -3.19569 0
M  V30 1648 H 157.004 3.93457 -1.35391 0
M  V30 1649 H 155.88 5.3178 -1.3602 0
M  V30 1650 H 156.141 4.41919 0.126362 0
M  V30 1651 N 155.201 0.870884 1.31352 0
M  V30 1652 C 156.478 0.402907 1.91405 0
M  V30 1653 C 156.858 -1.11512 1.79244 0
M  V30 1654 O 156.206 -1.94411 1.2007 0
M  V30 1655 C 156.416 0.885301 3.37585 0
M  V30 1656 C 157.764 0.911971 4.14691 0
M  V30 1657 O 158.788 0.831016 3.46371 0
M  V30 1658 O 157.647 1.02927 5.3672 0
M  V30 1659 H 154.741 0.120698 0.818145 0
M  V30 1660 H 157.287 0.958857 1.40014 0
M  V30 1661 H 156.059 1.92889 3.40455 0
M  V30 1662 H 155.682 0.307714 3.96407 0
M  V30 1663 N 156.679 -1.44442 0.630414 0
M  V30 1664 C 157.626 -2.30678 -0.0749355 0
M  V30 1665 C 158.596 -1.4344 -0.837502 0
M  V30 1666 O 159.781 -1.72343 -0.818684 0
M  V30 1667 C 156.921 -3.28706 -1.05103 0
M  V30 1668 C 156.034 -4.31046 -0.286954 0
M  V30 1669 C 155.169 -5.16167 -1.2548 0
M  V30 1670 C 154.208 -6.10216 -0.479843 0
M  V30 1671 N 153.345 -6.88039 -1.39811 0
M  V30 1672 H 158.185 -2.90454 0.666386 0
M  V30 1673 H 155.722 -1.43107 0.340404 0
M  V30 1674 H 157.68 -3.84027 -1.63031 0
M  V30 1675 H 156.31 -2.70632 -1.75949 0
M  V30 1676 H 155.362 -3.78203 0.408243 0
M  V30 1677 H 156.674 -4.97794 0.316657 0
M  V30 1678 H 155.828 -5.76002 -1.90544 0
M  V30 1679 H 154.567 -4.49491 -1.89233 0
M  V30 1680 H 153.572 -5.49491 0.184295 0
M  V30 1681 H 154.797 -6.78928 0.152965 0
M  V30 1682 H 152.743 -6.24032 -2.02287 0
M  V30 1683 H 152.66 -7.51223 -0.848508 0
M  V30 1684 H 153.928 -7.52397 -2.03762 0
M  V30 1685 N 158.157 -0.370918 -1.53173 0
M  V30 1686 C 159.087 0.464847 -2.28826 0
M  V30 1687 C 160.068 1.07936 -1.31468 0
M  V30 1688 O 161.253 1.0956 -1.60344 0
M  V30 1689 C 158.383 1.60196 -3.08147 0
M  V30 1690 C 157.337 1.11443 -4.13237 0
M  V30 1691 C 156.663 2.3422 -4.80672 0
M  V30 1692 C 157.963 0.195384 -5.21934 0
M  V30 1693 H 159.657 -0.166329 -2.98938 0
M  V30 1694 H 157.203 -0.0814359 -1.4377 0
M  V30 1695 H 159.156 2.19332 -3.59822 0
M  V30 1696 H 157.88 2.26045 -2.35735 0
M  V30 1697 H 156.539 0.545727 -3.62515 0
M  V30 1698 H 156.187 2.98537 -4.04827 0
M  V30 1699 H 155.887 2.02269 -5.51689 0
M  V30 1700 H 157.411 2.94032 -5.35143 0
M  V30 1701 H 158.825 0.694375 -5.69079 0
M  V30 1702 H 157.222 -0.0335027 -6.00091 0
M  V30 1703 H 158.292 -0.760961 -4.78892 0
M  V30 1704 N 159.635 1.57281 -0.100228 0
M  V30 1705 C 160.863 1.98879 0.570509 0
M  V30 1706 C 161.278 0.979476 1.61405 0
M  V30 1707 O 160.635 -0.0302288 1.82475 0
M  V30 1708 C 160.686 3.4052 1.2136 0
M  V30 1709 O 160.407 4.37588 0.211786 0
M  V30 1710 C 161.908 3.97149 1.96945 0
M  V30 1711 H 159.128 0.653428 0.152555 0
M  V30 1712 H 161.672 2.03697 -0.18103 0
M  V30 1713 H 159.827 3.367 1.91603 0
M  V30 1714 H 160.241 5.20118 0.676607 0
M  V30 1715 H 161.715 4.98393 2.37294 0
M  V30 1716 H 162.192 3.3525 2.83733 0
M  V30 1717 H 162.798 4.04458 1.31506 0
M  V30 1718 N 161.113 -0.173488 1.56642 0
M  V30 1719 C 162.043 -1.2171 1.99271 0
M  V30 1720 C 163.024 -1.46289 0.867959 0
M  V30 1721 O 164.209 -1.5766 1.13388 0
M  V30 1722 C 161.339 -2.55651 2.35074 0
M  V30 1723 C 160.293 -2.45645 3.50489 0
M  V30 1724 C 159.619 -3.84056 3.72028 0
M  V30 1725 C 160.919 -1.96302 4.84007 0
M  V30 1726 H 162.613 -0.86275 2.867 0
M  V30 1727 H 160.159 -0.413571 1.37933 0
M  V30 1728 H 162.112 -3.2886 2.63494 0
M  V30 1729 H 160.836 -2.92869 1.44552 0
M  V30 1730 H 159.495 -1.7489 3.22194 0
M  V30 1731 H 159.143 -4.18664 2.788 0
M  V30 1732 H 158.843 -3.7823 4.49684 0
M  V30 1733 H 160.367 -4.58854 4.02846 0
M  V30 1734 H 161.781 -2.59284 5.11317 0
M  V30 1735 H 160.178 -2.01429 5.65284 0
M  V30 1736 H 161.248 -0.917226 4.76146 0
M  V30 1737 N 162.591 -1.51276 -0.441967 0
M  V30 1738 C 163.819 -1.67516 -1.21434 0
M  V30 1739 C 164.234 -0.37055 -1.85128 0
M  V30 1740 O 163.591 0.650498 -1.70513 0
M  V30 1741 C 163.642 -2.78748 -2.30177 0
M  V30 1742 O 163.363 -4.04154 -1.69089 0
M  V30 1743 C 164.864 -3.06217 -3.20541 0
M  V30 1744 H 162.084 -0.562276 -0.366178 0
M  V30 1745 H 164.628 -1.97666 -0.524244 0
M  V30 1746 H 162.783 -2.5121 -2.94911 0
M  V30 1747 H 163.197 -4.65894 -2.40922 0
M  V30 1748 H 164.671 -3.8764 -3.92987 0
M  V30 1749 H 165.148 -2.18439 -3.81026 0
M  V30 1750 H 165.754 -3.35397 -2.61513 0
M  V30 1751 N 164.069 0.697108 -1.41344 0
M  V30 1752 C 165.294 1.49096 -1.44171 0
M  V30 1753 C 165.719 1.88038 -0.0481568 0
M  V30 1754 O 165.077 1.54525 0.948243 0
M  V30 1755 C 165.125 2.73088 -2.3549 0
M  V30 1756 O 164.229 3.70514 -1.81088 0
M  V30 1757 H 163.57 0.448801 -0.489361 0
M  V30 1758 H 166.1 0.856992 -1.85787 0
M  V30 1759 H 166.11 3.21413 -2.51312 0
M  V30 1760 H 164.785 2.44081 -3.36745 0
M  V30 1761 H 163.362 3.29441 -1.74708 0
M  V30 1762 N 165.547 1.27147 0.931209 0
M  V30 1763 C 166.963 1.04475 1.20653 0
M  V30 1764 C 167.163 -0.223885 2.00252 0
M  V30 1765 O 166.219 -0.930332 2.34736 0
M  V30 1766 C 167.532 2.28209 1.95809 0
M  V30 1767 C 169.08 2.33211 2.08762 0
M  V30 1768 C 169.555 3.56665 2.87323 0
M  V30 1769 N 171.046 3.57201 2.94892 0
M  V30 1770 C 171.781 4.49395 3.56134 0
M  V30 1771 N 171.277 5.51889 4.18796 0
M  V30 1772 N 173.07 4.37026 3.53504 0
M  V30 1773 H 165.221 2.08612 0.399333 0
M  V30 1774 H 167.484 0.917312 0.239253 0
M  V30 1775 H 167.19 3.20538 1.44736 0
M  V30 1776 H 167.064 2.33247 2.96438 0
M  V30 1777 H 169.451 1.41391 2.59023 0
M  V30 1778 H 169.532 2.32178 1.07364 0
M  V30 1779 H 169.176 4.4882 2.37746 0
M  V30 1780 H 169.106 3.54948 3.88998 0
M  V30 1781 H 171.597 2.83074 2.50354 0
M  V30 1782 H 171.91 6.18409 4.63454 0
M  V30 1783 H 170.255 5.55735 4.17353 0
M  V30 1784 H 173.446 3.56166 3.03749 0
M  V30 1785 H 173.619 5.09067 4.00942 0
M  V30 1786 N 167.025 -1.13721 1.09112 0
M  V30 1787 C 167.988 -2.17222 0.731241 0
M  V30 1788 C 168.988 -1.59035 -0.237566 0
M  V30 1789 O 170.178 -1.74192 -0.0161704 0
M  V30 1790 C 167.31 -3.40804 0.0808443 0
M  V30 1791 H 168.503 -2.50573 1.64783 0
M  V30 1792 H 166.056 -1.28493 0.889897 0
M  V30 1793 H 166.791 -3.1304 -0.847127 0
M  V30 1794 H 166.576 -3.84306 0.777896 0
M  V30 1795 H 168.066 -4.1731 -0.155657 0
M  V30 1796 N 168.503 -0.877838 -1.30888 0
M  V30 1797 C 169.75 -0.492696 -1.96415 0
M  V30 1798 C 170.078 0.956671 -1.69346 0
M  V30 1799 O 169.333 1.68993 -0.986913 0
M  V30 1800 C 169.632 -0.705748 -3.50363 0
M  V30 1801 C 169.298 -2.1291 -3.97467 0
M  V30 1802 C 167.96 -2.51834 -4.1004 0
M  V30 1803 C 170.312 -3.05702 -4.22132 0
M  V30 1804 C 167.64 -3.82775 -4.44635 0
M  V30 1805 C 169.992 -4.36166 -4.58194 0
M  V30 1806 C 168.656 -4.74993 -4.68975 0
M  V30 1807 H 167.926 -0.18029 -0.718733 0
M  V30 1808 H 170.573 -1.11233 -1.55883 0
M  V30 1809 H 168.878 -0.00303058 -3.918 0
M  V30 1810 H 170.575 -0.387456 -3.99124 0
M  V30 1811 H 167.165 -1.81694 -3.88182 0
M  V30 1812 H 171.349 -2.76853 -4.11906 0
M  V30 1813 H 166.605 -4.12609 -4.51181 0
M  V30 1814 H 170.779 -5.08111 -4.76231 0
M  V30 1815 H 168.406 -5.76495 -4.95537 0
M  V30 1816 N 169.982 1.44106 -0.638065 0
M  V30 1817 C 171.212 2.06037 -0.152394 0
M  V30 1818 C 171.62 1.47808 1.18108 0
M  V30 1819 O 170.963 0.598092 1.73691 0
M  V30 1820 C 171.025 3.59488 0.0293714 0
M  V30 1821 C 170.689 4.4022 -1.22702 0
M  V30 1822 C 171.686 4.73256 -2.15232 0
M  V30 1823 C 169.371 4.8048 -1.46437 0
M  V30 1824 C 171.365 5.45444 -3.29802 0
M  V30 1825 C 169.052 5.52417 -2.61303 0
M  V30 1826 C 170.05 5.84819 -3.52811 0
M  V30 1827 O 169.738 6.55289 -4.65673 0
M  V30 1828 H 169.47 0.671233 -0.0801401 0
M  V30 1829 H 172.024 1.85851 -0.874563 0
M  V30 1830 H 170.254 3.78191 0.806758 0
M  V30 1831 H 171.943 4.03164 0.470475 0
M  V30 1832 H 172.709 4.42684 -1.98131 0
M  V30 1833 H 168.588 4.54676 -0.760977 0
M  V30 1834 H 172.132 5.70653 -4.01249 0
M  V30 1835 H 168.029 5.82404 -2.78344 0
M  V30 1836 H 168.797 6.73762 -4.64744 0
M  V30 1837 N 171.46 0.379036 1.52974 0
M  V30 1838 C 172.408 -0.476033 2.27677 0
M  V30 1839 C 173.402 -1.0719 1.31174 0
M  V30 1840 O 174.608 -1.01355 1.48752 0
M  V30 1841 H 170.983 -0.172255 0.732006 0
M  V30 1842 H 172.954 0.175615 2.97883 0
M  V30 1843 C 171.703 -1.5967 3.0887 0
M  V30 1844 H 171.026 -1.1475 3.82978 0
M  V30 1845 H 172.466 -2.16943 3.64296 0
M  V30 1846 C 170.925 -2.54682 2.20542 0
M  V30 1847 O 171.455 -3.57836 1.82527 0
M  V30 1848 N 169.661 -2.24183 1.84907 0
M  V30 1849 H 169.208 -1.40333 2.1602 0
M  V30 1850 H 169.166 -2.88006 1.26096 0
M  V30 1851 N 172.938 -1.57226 0.108567 0
M  V30 1852 C 173.886 -2.16002 -0.862885 0
M  V30 1853 C 174.88 -1.10644 -1.28274 0
M  V30 1854 O 176.086 -1.28966 -1.2557 0
M  V30 1855 H 172.461 -0.691148 -0.296342 0
M  V30 1856 H 174.432 -2.96427 -0.342575 0
M  V30 1857 C 173.181 -2.76576 -2.10716 0
M  V30 1858 H 172.504 -3.5734 -1.793 0
M  V30 1859 H 173.944 -3.21253 -2.76717 0
M  V30 1860 C 172.403 -1.73137 -2.89007 0
M  V30 1861 O 172.933 -1.17842 -3.84026 0
M  V30 1862 N 171.139 -1.43317 -2.52801 0
M  V30 1863 H 170.686 -1.88473 -1.75601 0
M  V30 1864 H 170.644 -0.743485 -3.05483 0
M  V30 1865 N 174.416 0.165178 -1.56732 0
M  V30 1866 C 175.662 0.882112 -1.82611 0
M  V30 1867 C 175.995 1.81628 -0.687378 0
M  V30 1868 O 175.27 1.92009 0.310267 0
M  V30 1869 C 175.553 1.67245 -3.18906 0
M  V30 1870 C 175.406 0.760987 -4.43316 0
M  V30 1871 C 176.725 2.63884 -3.52212 0
M  V30 1872 H 173.844 0.319242 -0.664269 0
M  V30 1873 H 176.486 0.148052 -1.89422 0
M  V30 1874 H 174.636 2.29824 -3.1323 0
M  V30 1875 H 176.308 0.147596 -4.61064 0
M  V30 1876 H 174.551 0.0694102 -4.33744 0
M  V30 1877 H 175.222 1.34962 -5.35247 0
M  V30 1878 H 177.698 2.11429 -3.58381 0
M  V30 1879 H 176.574 3.16245 -4.48643 0
M  V30 1880 H 176.835 3.44377 -2.77231 0
M  V30 1881 N 175.894 1.51508 0.433938 0
M  V30 1882 C 176.824 1.76016 1.53429 0
M  V30 1883 C 177.805 0.610112 1.58782 0
M  V30 1884 O 178.99 0.853177 1.74455 0
M  V30 1885 C 176.12 1.88831 2.9148 0
M  V30 1886 C 175.074 3.04288 3.00987 0
M  V30 1887 C 174.4 3.0229 4.4105 0
M  V30 1888 C 175.7 4.44193 2.74754 0
M  V30 1889 H 177.394 2.68152 1.33171 0
M  V30 1890 H 174.94 1.29035 0.639214 0
M  V30 1891 H 176.893 2.04559 3.6842 0
M  V30 1892 H 175.617 0.933455 3.12976 0
M  V30 1893 H 174.276 2.8827 2.26486 0
M  V30 1894 H 173.924 2.04576 4.59519 0
M  V30 1895 H 173.624 3.79822 4.4834 0
M  V30 1896 H 175.148 3.20116 5.1996 0
M  V30 1897 H 176.562 4.60544 3.41426 0
M  V30 1898 H 174.959 5.23457 2.9345 0
M  V30 1899 H 176.029 4.53996 1.70339 0
M  V30 1900 N 177.372 -0.689602 1.41712 0
M  V30 1901 C 178.62 -1.4468 1.4111 0
M  V30 1902 C 178.941 -1.94986 0.0232196 0
M  V30 1903 O 178.211 -1.72097 -0.935913 0
M  V30 1904 H 176.791 -0.536847 0.519427 0
M  V30 1905 H 179.453 -0.815825 1.77004 0
M  V30 1906 H 178.549 -2.30706 2.10193 0
M  V30 1907 N 178.85 -1.27639 -0.924453 0
M  V30 1908 C 179.76 -1.12466 -2.05885 0
M  V30 1909 C 180.776 -0.053869 -1.73917 0
M  V30 1910 O 181.952 -0.261012 -1.99702 0
M  V30 1911 C 179.017 -0.776768 -3.37886 0
M  V30 1912 C 178.078 -1.92878 -3.83532 0
M  V30 1913 C 177.311 -1.59739 -5.09234 0
M  V30 1914 O 177.534 -0.506782 -5.68144 0
M  V30 1915 O 176.468 -2.43761 -5.50331 0
M  V30 1916 H 180.294 -2.07671 -2.21599 0
M  V30 1917 H 177.879 -1.06857 -1.04413 0
M  V30 1918 H 179.761 -0.596229 -4.17161 0
M  V30 1919 H 178.436 0.145732 -3.23372 0
M  V30 1920 H 177.343 -2.1644 -3.0513 0
M  V30 1921 H 178.676 -2.8316 -4.02593 0
M  V30 1922 N 180.328 1.1314 -1.09713 0
M  V30 1923 C 181.558 1.88048 -0.855656 0
M  V30 1924 C 181.966 1.79537 0.596919 0
M  V30 1925 O 181.309 1.16196 1.42282 0
M  V30 1926 C 181.371 3.38314 -1.21589 0
M  V30 1927 C 181.035 3.70605 -2.67397 0
M  V30 1928 C 182.032 3.69596 -3.65643 0
M  V30 1929 C 179.717 4.0017 -3.03593 0
M  V30 1930 C 181.711 3.977 -4.9811 0
M  V30 1931 C 179.398 4.27935 -4.36251 0
M  V30 1932 C 180.396 4.26685 -5.33318 0
M  V30 1933 O 180.084 4.53767 -6.63589 0
M  V30 1934 H 179.816 0.60208 -0.307368 0
M  V30 1935 H 182.37 1.44128 -1.46343 0
M  V30 1936 H 180.6 3.82752 -0.551177 0
M  V30 1937 H 182.289 3.94552 -0.953083 0
M  V30 1938 H 183.055 3.46826 -3.39023 0
M  V30 1939 H 178.934 4.00289 -2.2867 0
M  V30 1940 H 182.478 3.9664 -5.73866 0
M  V30 1941 H 178.375 4.50178 -4.62613 0
M  V30 1942 H 179.143 4.71422 -6.69107 0
M  V30 1943 N 181.806 0.884767 1.30421 0
M  V30 1944 C 182.716 0.355398 2.31892 0
M  V30 1945 C 183.732 -0.542261 1.65335 0
M  V30 1946 O 184.908 -0.435432 1.96637 0
M  V30 1947 C 181.973 -0.421661 3.44126 0
M  V30 1948 C 181.034 0.505727 4.26311 0
M  V30 1949 C 180.267 -0.234343 5.33185 0
M  V30 1950 O 180.49 -1.46045 5.51386 0
M  V30 1951 O 179.424 0.415443 6.00465 0
M  V30 1952 H 183.25 1.19685 2.79122 0
M  V30 1953 H 180.835 0.648596 1.34587 0
M  V30 1954 H 182.717 -0.861641 4.12497 0
M  V30 1955 H 181.392 -1.23942 2.99032 0
M  V30 1956 H 180.299 0.994513 3.60639 0
M  V30 1957 H 181.632 1.28948 4.75009 0
M  V30 1958 N 183.284 -1.43765 0.645699 0
M  V30 1959 C 184.194 -2.34544 -0.0512957 0
M  V30 1960 C 185.21 -1.53455 -0.82022 0
M  V30 1961 O 186.386 -1.86133 -0.769176 0
M  V30 1962 C 183.451 -3.31636 -1.01087 0
M  V30 1963 C 182.512 -4.2863 -0.239712 0
M  V30 1964 C 181.745 -5.21084 -1.15358 0
M  V30 1965 O 181.968 -5.1779 -2.39269 0
M  V30 1966 O 180.902 -5.98593 -0.630038 0
M  V30 1967 H 184.728 -2.95624 0.695718 0
M  V30 1968 H 182.313 -1.43781 0.405882 0
M  V30 1969 H 184.195 -3.9136 -1.56254 0
M  V30 1970 H 182.87 -2.73069 -1.73824 0
M  V30 1971 H 181.777 -3.72408 0.355356 0
M  V30 1972 H 183.11 -4.90157 0.447936 0
M  V30 1973 N 184.763 -0.387143 -1.52771 0
M  V30 1974 C 185.993 0.195585 -2.05672 0
M  V30 1975 C 186.401 1.41241 -1.25887 0
M  V30 1976 O 185.744 1.81265 -0.298081 0
M  V30 1977 C 185.806 0.632327 -3.53895 0
M  V30 1978 C 185.47 -0.470739 -4.54569 0
M  V30 1979 C 186.467 -1.32746 -5.02667 0
M  V30 1980 C 184.152 -0.637151 -4.98243 0
M  V30 1981 C 186.146 -2.33574 -5.93061 0
M  V30 1982 C 183.833 -1.64877 -5.88438 0
M  V30 1983 C 184.831 -2.49649 -6.35739 0
M  V30 1984 O 184.519 -3.49082 -7.24153 0
M  V30 1985 H 184.251 0.033658 -0.675162 0
M  V30 1986 H 186.805 -0.550221 -1.97893 0
M  V30 1987 H 185.035 1.43008 -3.59285 0
M  V30 1988 H 186.724 1.14048 -3.89548 0
M  V30 1989 H 187.49 -1.21019 -4.69659 0
M  V30 1990 H 183.369 0.0129567 -4.60998 0
M  V30 1991 H 186.913 -2.99777 -6.29904 0
M  V30 1992 H 182.81 -1.76643 -6.2086 0
M  V30 1993 H 183.578 -3.45065 -7.42208 0
M  V30 1994 N 186.241 1.57166 -0.116904 0
M  V30 1995 C 187.49 1.94298 0.541407 0
M  V30 1996 C 187.803 1.00236 1.67964 0
M  V30 1997 O 189.009 1.26826 2.40057 0
M  V30 1998 C 187.465 3.45306 1.01449 0
M  V30 1999 C 187.073 4.47899 -0.0951738 0
M  V30 2000 C 188.817 3.91361 1.6443 0
M  V30 2001 C 186.724 5.90083 0.394491 0
M  V30 2002 H 185.654 0.725308 0.206019 0
M  V30 2003 H 188.305 1.82446 -0.196419 0
M  V30 2004 H 186.687 3.52385 1.80667 0
M  V30 2005 H 187.861 4.52486 -0.871374 0
M  V30 2006 H 186.176 4.11583 -0.631505 0
M  V30 2007 H 188.773 4.95004 2.02176 0
M  V30 2008 H 189.116 3.3122 2.52189 0
M  V30 2009 H 189.649 3.87073 0.917559 0
M  V30 2010 H 186.388 6.53974 -0.447004 0
M  V30 2011 H 185.908 5.88921 1.13722 0
M  V30 2012 H 187.587 6.41307 0.856399 0
M  V30 2013 N 187.719 -0.156864 1.56817 0
M  V30 2014 C 188.947 -0.886316 1.86955 0
M  V30 2015 C 189.362 -1.75185 0.703975 0
M  V30 2016 O 188.719 -1.79555 -0.326552 0
M  V30 2017 C 188.77 -1.75117 3.16253 0
M  V30 2018 O 188.491 -0.920537 4.2832 0
M  V30 2019 C 189.992 -2.58905 3.59837 0
M  V30 2020 H 187.212 -0.25678 0.619923 0
M  V30 2021 H 189.756 -0.152615 2.0393 0
M  V30 2022 H 187.911 -2.43805 3.01062 0
M  V30 2023 H 188.325 -1.51337 5.02192 0
M  V30 2024 H 189.799 -3.1518 4.53172 0
M  V30 2025 H 190.276 -3.34472 2.84649 0
M  V30 2026 H 190.882 -1.95526 3.7769 0
M  V30 2027 N 189.197 -1.51736 -0.425897 0
M  V30 2028 C 190.144 -1.73875 -1.51776 0
M  V30 2029 C 191.114 -0.580702 -1.55618 0
M  V30 2030 O 192.299 -0.81641 -1.72451 0
M  V30 2031 C 189.439 -1.88012 -2.89388 0
M  V30 2032 C 188.552 -3.15606 -2.94986 0
M  V30 2033 C 187.687 -3.20271 -4.23793 0
M  V30 2034 C 186.726 -4.42134 -4.23302 0
M  V30 2035 N 185.863 -4.44284 -5.43651 0
M  V30 2036 H 190.703 -2.67071 -1.32201 0
M  V30 2037 H 188.24 -1.32351 -0.642008 0
M  V30 2038 H 190.198 -1.9419 -3.69251 0
M  V30 2039 H 188.828 -0.98213 -3.07496 0
M  V30 2040 H 187.88 -3.18681 -2.07717 0
M  V30 2041 H 189.192 -4.05486 -2.90486 0
M  V30 2042 H 188.346 -3.25428 -5.12036 0
M  V30 2043 H 187.085 -2.28299 -4.30965 0
M  V30 2044 H 186.09 -4.3714 -3.3345 0
M  V30 2045 H 187.315 -5.35382 -4.17783 0
M  V30 2046 H 185.261 -3.55188 -5.51523 0
M  V30 2047 H 185.178 -5.27988 -5.41078 0
M  V30 2048 H 186.446 -4.53649 -6.33895 0
M  V30 2049 N 190.675 0.682077 -1.42076 0
M  V30 2050 C 191.605 1.80796 -1.47767 0
M  V30 2051 C 192.586 1.6677 -0.334954 0
M  V30 2052 O 193.771 1.863 -0.548264 0
M  V30 2053 C 190.901 3.19038 -1.37229 0
M  V30 2054 C 189.855 3.47789 -2.49453 0
M  V30 2055 C 189.181 4.8553 -2.23975 0
M  V30 2056 C 190.481 3.45411 -3.91776 0
M  V30 2057 H 192.175 1.7629 -2.41997 0
M  V30 2058 H 189.721 0.846721 -1.16476 0
M  V30 2059 H 191.674 3.97528 -1.39821 0
M  V30 2060 H 190.398 3.24204 -0.394907 0
M  V30 2061 H 189.057 2.71657 -2.46166 0
M  V30 2062 H 188.705 4.87337 -1.24547 0
M  V30 2063 H 188.405 5.0573 -2.99184 0
M  V30 2064 H 189.929 5.66312 -2.28304 0
M  V30 2065 H 191.343 4.13882 -3.96705 0
M  V30 2066 H 189.74 3.77145 -4.66778 0
M  V30 2067 H 190.81 2.44122 -4.18966 0
M  V30 2068 N 192.153 1.28127 0.917671 0
M  V30 2069 C 193.4 1.15052 1.66641 0
M  V30 2070 C 193.728 -0.301677 1.92146 0
M  V30 2071 O 192.983 -1.23622 1.51711 0
M  V30 2072 C 193.282 1.89018 3.03327 0
M  V30 2073 C 192.948 3.38832 2.97496 0
M  V30 2074 C 191.61 3.79693 2.95613 0
M  V30 2075 C 193.962 4.34378 2.88036 0
M  V30 2076 C 191.29 5.14447 2.82066 0
M  V30 2077 C 193.642 5.69201 2.7603 0
M  V30 2078 C 192.306 6.09343 2.72502 0
M  V30 2079 H 191.576 0.421006 0.609783 0
M  V30 2080 H 194.223 1.58855 1.06945 0
M  V30 2081 H 192.528 1.37752 3.66785 0
M  V30 2082 H 194.225 1.76321 3.60156 0
M  V30 2083 H 190.815 3.06342 2.99754 0
M  V30 2084 H 194.999 4.03775 2.88581 0
M  V30 2085 H 190.255 5.44681 2.77728 0
M  V30 2086 H 194.429 6.42901 2.67678 0
M  V30 2087 H 192.056 7.13712 2.61762 0
M  V30 2088 N 193.631 -1.12557 1.10312 0
M  V30 2089 C 194.579 -2.20325 0.745629 0
M  V30 2090 C 195.573 -1.67429 -0.25763 0
M  V30 2091 O 196.779 -1.79612 -0.118132 0
M  V30 2092 H 193.154 -0.718118 0.223182 0
M  V30 2093 H 195.125 -2.47733 1.66346 0
M  V30 2094 C 193.874 -3.47168 0.192262 0
M  V30 2095 H 193.197 -3.88215 0.955475 0
M  V30 2096 H 194.637 -4.23995 -0.0198274 0
M  V30 2097 C 193.096 -3.19298 -1.07472 0
M  V30 2098 O 193.626 -3.3891 -2.15645 0
M  V30 2099 N 191.832 -2.73113 -0.992847 0
M  V30 2100 H 191.379 -2.57354 -0.112474 0
M  V30 2101 H 191.337 -2.54842 -1.84127 0
M  V30 2102 N 195.109 -0.891671 -1.2995 0
M  V30 2103 C 196.339 -0.527893 -1.99742 0
M  V30 2104 C 196.747 0.88979 -1.66971 0
M  V30 2105 O 196.09 1.59766 -0.906667 0
M  V30 2106 C 196.152 -0.630804 -3.53922 0
M  V30 2107 C 195.816 -2.01401 -4.10228 0
M  V30 2108 C 196.813 -2.98422 -4.25724 0
M  V30 2109 C 194.498 -2.32121 -4.45449 0
M  V30 2110 C 196.492 -4.24293 -4.75662 0
M  V30 2111 C 194.179 -3.58237 -4.95086 0
M  V30 2112 C 195.177 -4.54137 -5.10146 0
M  V30 2113 O 194.865 -5.78014 -5.58708 0
M  V30 2114 H 194.597 -0.201953 -0.645129 0
M  V30 2115 H 197.151 -1.20076 -1.66646 0
M  V30 2116 H 195.381 0.0990616 -3.86573 0
M  V30 2117 H 197.07 -0.277338 -4.04951 0
M  V30 2118 H 197.836 -2.76001 -3.98809 0
M  V30 2119 H 193.715 -1.5824 -4.32991 0
M  V30 2120 H 197.259 -4.99153 -4.87332 0
M  V30 2121 H 193.156 -3.80491 -5.21437 0
M  V30 2122 H 193.924 -5.8049 -5.77039 0
M  V30 2123 N 196.587 1.43421 -0.653314 0
M  V30 2124 C 197.537 2.2792 0.060558 0
M  V30 2125 C 198.521 1.39906 0.794677 0
M  V30 2126 O 199.713 1.63536 0.677128 0
M  V30 2127 C 196.842 3.27603 1.0262 0
M  V30 2128 C 195.928 4.23104 0.290551 0
M  V30 2129 N 196.319 5.01031 -0.692967 0
M  V30 2130 C 194.617 4.42816 0.531984 0
M  V30 2131 C 195.318 5.70626 -1.12963 0
M  V30 2132 N 194.294 5.41617 -0.463867 0
M  V30 2133 H 198.096 2.85585 -0.694143 0
M  V30 2134 H 195.61 1.55126 -0.480602 0
M  V30 2135 H 197.607 3.86918 1.55242 0
M  V30 2136 H 196.267 2.71499 1.78096 0
M  V30 2137 H 197.278 5.0669 -1.07169 0
M  V30 2138 H 193.955 3.97782 1.26791 0
M  V30 2139 H 195.345 6.4318 -1.94343 0
M  V30 2140 N 198.065 0.39524 1.52563 0
M  V30 2141 C 199.012 -0.437036 2.26624 0
M  V30 2142 C 199.982 -1.05281 1.28472 0
M  V30 2143 O 201.167 -1.07971 1.57311 0
M  V30 2144 C 198.307 -1.55524 3.08069 0
M  V30 2145 C 197.42 -0.961745 4.21158 0
M  V30 2146 C 196.555 -2.05149 4.89987 0
M  V30 2147 C 195.594 -1.4342 5.95061 0
M  V30 2148 N 194.731 -2.46351 6.57462 0
M  V30 2149 H 199.571 0.200976 2.97322 0
M  V30 2150 H 197.108 0.110944 1.46681 0
M  V30 2151 H 199.066 -2.21437 3.53584 0
M  V30 2152 H 197.696 -2.16348 2.3957 0
M  V30 2153 H 196.748 -0.192048 3.79915 0
M  V30 2154 H 198.06 -0.470701 4.96574 0
M  V30 2155 H 197.214 -2.78819 5.38837 0
M  V30 2156 H 195.953 -2.57615 4.14109 0
M  V30 2157 H 194.958 -0.682774 5.45544 0
M  V30 2158 H 196.183 -0.917416 6.72875 0
M  V30 2159 H 194.129 -2.97975 5.8442 0
M  V30 2160 H 194.046 -2.02019 7.28508 0
M  V30 2161 H 195.314 -3.19633 7.10954 0
M  V30 2162 N 199.544 -1.57102 0.125237 0
M  V30 2163 C 200.79 -1.95697 -0.532035 0
M  V30 2164 C 201.123 -1.009 -1.6593 0
M  V30 2165 O 200.398 -0.047347 -1.94442 0
M  V30 2166 C 200.681 -3.44181 -1.05884 0
M  V30 2167 C 200.534 -4.49752 0.0654392 0
M  V30 2168 C 201.853 -3.94655 -1.9477 0
M  V30 2169 H 198.972 -0.711571 -0.191925 0
M  V30 2170 H 201.614 -1.88923 0.20206 0
M  V30 2171 H 199.764 -3.50085 -1.68442 0
M  V30 2172 H 201.436 -4.55943 0.700982 0
M  V30 2173 H 199.679 -4.27653 0.727709 0
M  V30 2174 H 200.35 -5.50924 -0.344505 0
M  V30 2175 H 202.826 -3.91094 -1.42074 0
M  V30 2176 H 201.702 -4.99057 -2.28546 0
M  V30 2177 H 201.963 -3.35718 -2.87656 0
M  V30 2178 N 201.022 0.148545 -1.56898 0
M  V30 2179 C 201.952 1.18524 -2.01182 0
M  V30 2180 C 202.933 1.4489 -0.891123 0
M  V30 2181 O 204.118 1.55836 -1.15882 0
M  V30 2182 C 201.248 2.51879 -2.39112 0
M  V30 2183 C 200.202 2.40038 -3.54353 0
M  V30 2184 C 199.528 3.78089 -3.78091 0
M  V30 2185 C 200.828 1.88577 -4.87069 0
M  V30 2186 H 202.522 0.817029 -2.88036 0
M  V30 2187 H 200.068 0.391575 -1.38574 0
M  V30 2188 H 202.021 3.24627 -2.68692 0
M  V30 2189 H 200.745 2.90532 -1.49193 0
M  V30 2190 H 199.404 1.69742 -3.24936 0
M  V30 2191 H 199.052 4.14175 -2.85426 0
M  V30 2192 H 198.752 3.71028 -4.55645 0
M  V30 2193 H 200.276 4.52387 -4.10095 0
M  V30 2194 H 201.69 2.51117 -5.15377 0
M  V30 2195 H 200.087 1.9241 -5.68417 0
M  V30 2196 H 201.157 0.84136 -4.77545 0
M  V30 2197 N 202.5 1.5196 0.417844 0
M  V30 2198 C 203.911 1.57851 0.997 0
M  V30 2199 C 204.262 0.413714 1.91789 0
M  V30 2200 O 203.387 -0.467057 2.113 0
M  V30 2201 C 203.982 2.86085 1.81496 0
M  V30 2202 C 202.541 2.94483 2.34428 0
M  V30 2203 C 201.688 2.52707 1.14169 0
M  V30 2204 H 204.639 1.57455 0.198392 0
M  V30 2205 H 204.66 2.70947 2.67148 0
M  V30 2206 H 204.172 3.70842 1.14446 0
M  V30 2207 H 202.273 2.142 3.04875 0
M  V30 2208 H 202.386 3.98546 2.65891 0
M  V30 2209 H 200.75 2.06353 1.49301 0
M  V30 2210 H 201.533 3.39828 0.486999 0
M  V30 2211 N 203.978 -0.674533 1.42435 0
M  V30 2212 C 204.911 -1.79924 1.40366 0
M  V30 2213 C 205.889 -1.60378 0.267899 0
M  V30 2214 O 207.073 -1.82847 0.458159 0
M  V30 2215 C 204.2 -3.16927 1.19478 0
M  V30 2216 C 203.246 -3.55221 2.36051 0
M  V30 2217 S 204.079 -3.5762 3.98583 0
M  V30 2218 C 205.235 -4.97315 3.80038 0
M  V30 2219 H 205.468 -1.81405 2.35541 0
M  V30 2220 H 203.001 -0.845221 1.29211 0
M  V30 2221 H 204.959 -3.96007 1.08114 0
M  V30 2222 H 203.62 -3.13031 0.258883 0
M  V30 2223 H 202.813 -4.54804 2.17185 0
M  V30 2224 H 202.415 -2.83502 2.43932 0
M  V30 2225 H 204.707 -5.85401 3.41045 0
M  V30 2226 H 205.65 -5.21228 4.79298 0
M  V30 2227 H 206.058 -4.69845 3.12899 0
M  V30 2228 N 205.456 -1.28612 -0.910864 0
M  V30 2229 C 206.404 -1.1265 -2.03501 0
M  V30 2230 C 207.398 -0.0450054 -1.6934 0
M  V30 2231 O 208.604 -0.203988 -1.7884 0
M  V30 2232 H 204.979 -0.347639 -0.666822 0
M  V30 2233 H 206.95 -2.07849 -2.14106 0
M  V30 2234 C 205.699 -0.808143 -3.38178 0
M  V30 2235 H 205.022 -1.63231 -3.6496 0
M  V30 2236 H 206.462 -0.736426 -4.17556 0
M  V30 2237 C 204.921 0.488226 -3.33344 0
M  V30 2238 O 205.451 1.51766 -3.71927 0
M  V30 2239 N 203.657 0.490009 -2.86439 0
M  V30 2240 H 203.204 -0.348161 -2.55236 0
M  V30 2241 H 203.162 1.35741 -2.83587 0
M  V30 2242 N 206.934 1.1197 -1.10907 0
M  V30 2243 C 208.162 1.87402 -0.876824 0
M  V30 2244 C 208.577 1.79894 0.573025 0
M  V30 2245 O 207.934 1.17629 1.39534 0
M  V30 2246 C 207.985 3.36428 -1.32282 0
M  V30 2247 O 207.706 3.43765 -2.71582 0
M  V30 2248 C 209.207 4.28783 -1.12518 0
M  V30 2249 H 206.427 0.592793 -0.314384 0
M  V30 2250 H 208.971 1.41649 -1.47499 0
M  V30 2251 H 207.126 3.79706 -0.768229 0
M  V30 2252 H 207.54 4.3652 -2.90776 0
M  V30 2253 H 209.014 5.31613 -1.48633 0
M  V30 2254 H 209.491 4.39153 -0.0642394 0
M  V30 2255 H 210.097 3.91291 -1.66648 0
M  V30 2256 N 208.412 0.89855 1.29475 0
M  V30 2257 C 209.66 0.522847 1.9522 0
M  V30 2258 C 209.981 -0.93371 1.71192 0
M  V30 2259 O 209.251 -1.65823 1.04305 0
M  V30 2260 H 207.831 0.190366 0.722336 0
M  V30 2261 H 210.493 1.14459 1.5775 0
M  V30 2262 H 209.589 0.704476 3.04045 0
M  V30 2263 N 209.89 -1.43072 0.660911 0
M  V30 2264 C 211.136 -2.0202 0.177708 0
M  V30 2265 C 211.469 -1.52066 -1.20787 0
M  V30 2266 O 210.744 -0.716987 -1.80802 0
M  V30 2267 C 211.027 -3.59561 0.197019 0
M  V30 2268 C 210.88 -4.19727 1.61706 0
M  V30 2269 C 212.199 -4.37664 -0.462396 0
M  V30 2270 H 209.318 -0.734034 0.0660494 0
M  V30 2271 H 211.96 -1.70272 0.843058 0
M  V30 2272 H 210.11 -3.86739 -0.369527 0
M  V30 2273 H 211.782 -4.03553 2.23479 0
M  V30 2274 H 210.025 -3.76084 2.16201 0
M  V30 2275 H 210.696 -5.28834 1.58237 0
M  V30 2276 H 213.172 -4.16095 0.0197215 0
M  V30 2277 H 212.048 -5.47305 -0.418188 0
M  V30 2278 H 212.309 -4.14493 -1.53778 0
M  V30 2279 N 211.368 -0.403325 -1.52352 0
M  V30 2280 C 212.278 0.432009 -2.30588 0
M  V30 2281 C 213.294 1.05884 -1.38075 0
M  V30 2282 O 214.47 1.06161 -1.71148 0
M  V30 2283 C 211.535 1.53669 -3.10784 0
M  V30 2284 C 210.596 0.933525 -4.19027 0
M  V30 2285 C 209.829 1.98557 -4.9539 0
M  V30 2286 O 210.052 3.20283 -4.71991 0
M  V30 2287 O 208.986 1.59504 -5.80381 0
M  V30 2288 H 212.812 -0.205739 -3.03002 0
M  V30 2289 H 210.397 -0.166675 -1.48467 0
M  V30 2290 H 212.279 2.17814 -3.60742 0
M  V30 2291 H 210.954 2.15915 -2.41169 0
M  V30 2292 H 209.861 0.254954 -3.7323 0
M  V30 2293 H 211.194 0.35508 -4.90918 0
M  V30 2294 N 212.846 1.57033 -0.133567 0
M  V30 2295 C 213.809 2.14897 0.796995 0
M  V30 2296 C 214.809 1.0874 1.18458 0
M  V30 2297 O 215.999 1.34446 1.1077 0
M  V30 2298 C 213.131 2.70112 2.07973 0
M  V30 2299 H 214.324 2.98457 0.293873 0
M  V30 2300 H 211.877 1.55871 0.115787 0
M  V30 2301 H 212.612 1.9018 2.62682 0
M  V30 2302 H 212.397 3.47764 1.81115 0
M  V30 2303 H 213.887 3.14738 2.74462 0
M  V30 2304 N 214.325 -0.140222 1.56975 0
M  V30 2305 C 215.573 -0.850005 1.83356 0
M  V30 2306 C 215.894 -1.81399 0.71551 0
M  V30 2307 O 215.164 -1.94136 -0.262294 0
M  V30 2308 H 213.744 -0.316886 0.676456 0
M  V30 2309 H 216.406 -0.132608 1.94448 0
M  V30 2310 H 215.502 -1.40814 2.78528 0
M  V30 2311 N 215.803 -1.52179 -0.40978 0
M  V30 2312 C 216.713 -1.78364 -1.52392 0
M  V30 2313 C 217.729 -0.669183 -1.60617 0
M  V30 2314 O 218.905 -0.954518 -1.77344 0
M  V30 2315 C 215.97 -1.92822 -2.88133 0
M  V30 2316 C 215.031 -3.16725 -2.898 0
M  V30 2317 C 214.264 -3.30483 -4.19067 0
M  V30 2318 O 214.487 -2.49522 -5.12928 0
M  V30 2319 O 213.421 -4.2363 -4.27576 0
M  V30 2320 H 217.247 -2.72931 -1.33201 0
M  V30 2321 H 214.832 -1.37016 -0.59557 0
M  V30 2322 H 216.714 -2.04157 -3.68643 0
M  V30 2323 H 215.389 -1.01444 -3.07393 0
M  V30 2324 H 214.296 -3.10848 -2.08146 0
M  V30 2325 H 215.629 -4.07881 -2.75489 0
M  V30 2326 N 217.281 0.66697 -1.42791 0
M  V30 2327 C 218.509 1.45505 -1.47091 0
M  V30 2328 C 218.924 1.8861 -0.0845873 0
M  V30 2329 O 218.281 1.58632 0.90234 0
M  V30 2330 C 218.332 2.69906 -2.40485 0
M  V30 2331 O 218.053 2.28608 -3.73725 0
M  V30 2332 C 219.554 3.63396 -2.53886 0
M  V30 2333 H 216.774 0.447459 -0.500022 0
M  V30 2334 H 219.318 0.818866 -1.8739 0
M  V30 2335 H 217.473 3.29696 -2.03419 0
M  V30 2336 H 217.887 3.08997 -4.23817 0
M  V30 2337 H 219.361 4.47387 -3.2334 0
M  V30 2338 H 219.838 4.09824 -1.57927 0
M  V30 2339 H 220.444 3.09495 -2.91706 0
M  V30 2340 N 218.759 1.29093 0.90403 0
M  V30 2341 C 219.722 1.1386 1.98919 0
M  V30 2342 C 220.722 0.0753457 1.60623 0
M  V30 2343 O 221.912 0.321931 1.71199 0
M  V30 2344 C 219.044 0.740198 3.32767 0
M  V30 2345 H 220.237 2.10246 2.13861 0
M  V30 2346 H 217.79 1.12218 1.08797 0
M  V30 2347 H 218.525 -0.223997 3.23525 0
M  V30 2348 H 218.31 1.50838 3.61926 0
M  V30 2349 H 219.8 0.656546 4.12407 0
M  V30 2350 N 220.237 -1.11381 1.11499 0
M  V30 2351 C 221.477 -1.84763 0.874188 0
M  V30 2352 C 221.841 -1.82726 -0.589496 0
M  V30 2353 O 223.042 -2.51562 -0.947089 0
M  V30 2354 C 221.313 -3.27931 1.42112 0
M  V30 2355 S 222.872 -4.18557 1.31739 0
M  V30 2356 H 219.69 -0.637115 0.315603 0
M  V30 2357 H 222.292 -1.34097 1.42261 0
M  V30 2358 H 220.996 -3.26978 2.48019 0
M  V30 2359 H 220.527 -3.83665 0.869761 0
M  V30 2360 H 222.542 -4.95396 0.282335 0
M  V30 2361 N 221.715 -0.905404 -1.28997 0
M  V30 2362 C 222.662 -0.385892 -2.27551 0
M  V30 2363 C 223.632 0.535113 -1.57244 0
M  V30 2364 O 224.817 0.459119 -1.85194 0
M  V30 2365 C 221.957 0.375461 -3.43051 0
M  V30 2366 C 221.07 -0.577092 -4.28128 0
M  V30 2367 C 220.205 0.201879 -5.30816 0
M  V30 2368 C 219.244 -0.744829 -6.07551 0
M  V30 2369 N 218.381 9.42587e-05 -7.021 0
M  V30 2370 H 223.221 -1.23139 -2.71368 0
M  V30 2371 H 220.758 -0.618542 -1.33463 0
M  V30 2372 H 222.716 0.832992 -4.088 0
M  V30 2373 H 221.346 1.18537 -3.00248 0
M  V30 2374 H 220.398 -1.15315 -3.62501 0
M  V30 2375 H 221.71 -1.30152 -4.8152 0
M  V30 2376 H 220.864 0.720351 -6.02408 0
M  V30 2377 H 219.603 0.959413 -4.7817 0
M  V30 2378 H 218.608 -1.27475 -5.34818 0
M  V30 2379 H 219.833 -1.50178 -6.62286 0
M  V30 2380 H 217.779 0.739791 -6.51815 0
M  V30 2381 H 217.696 -0.664321 -7.53076 0
M  V30 2382 H 218.964 0.498644 -7.77903 0
M  V30 2383 N 223.193 1.4272 -0.668489 0
M  V30 2384 C 224.123 2.335 -0.000100175 0
M  V30 2385 C 225.104 1.50328 0.795964 0
M  V30 2386 O 226.289 1.78949 0.754385 0
M  V30 2387 C 223.419 3.33874 0.956302 0
M  V30 2388 C 222.373 4.27152 0.269278 0
M  V30 2389 C 221.699 5.17684 1.33818 0
M  V30 2390 C 222.999 5.15373 -0.847805 0
M  V30 2391 H 224.693 2.89639 -0.758244 0
M  V30 2392 H 222.239 1.39269 -0.366079 0
M  V30 2393 H 224.192 3.9629 1.43292 0
M  V30 2394 H 222.916 2.76025 1.74579 0
M  V30 2395 H 221.575 3.66123 -0.187042 0
M  V30 2396 H 221.223 4.56165 2.1195 0
M  V30 2397 H 220.923 5.80918 0.883659 0
M  V30 2398 H 222.447 5.82974 1.81586 0
M  V30 2399 H 223.861 5.7151 -0.452681 0
M  V30 2400 H 222.258 5.87407 -1.22773 0
M  V30 2401 H 223.328 4.5415 -1.69929 0
M  V30 2402 N 224.671 0.411399 1.52136 0
M  V30 2403 C 225.634 -0.401089 2.25663 0
M  V30 2404 C 226.634 -0.971732 1.28117 0
M  V30 2405 O 227.824 -0.850254 1.52041 0
M  V30 2406 C 224.956 -1.56483 3.02863 0
M  V30 2407 H 226.149 0.24295 2.98914 0
M  V30 2408 H 223.702 0.163968 1.55438 0
M  V30 2409 H 224.437 -2.24567 2.33967 0
M  V30 2410 H 224.222 -1.16211 3.74483 0
M  V30 2411 H 225.712 -2.13951 3.58629 0
M  V30 2412 N 226.149 -1.5696 0.141893 0
M  V30 2413 C 227.565 -1.58151 -0.21456 0
M  V30 2414 C 227.765 -1.1559 -1.65049 0
M  V30 2415 O 226.821 -0.853832 -2.37626 0
M  V30 2416 C 228.134 -3.00674 0.0395576 0
M  V30 2417 C 229.682 -3.1299 -0.0245529 0
M  V30 2418 C 230.157 -4.57554 0.202167 0
M  V30 2419 N 231.648 -4.62961 0.148919 0
M  V30 2420 C 232.383 -5.7262 0.298924 0
M  V30 2421 N 231.879 -6.90947 0.50637 0
M  V30 2422 N 233.672 -5.61601 0.236886 0
M  V30 2423 H 225.823 -1.8292 1.07953 0
M  V30 2424 H 228.086 -0.846425 0.42693 0
M  V30 2425 H 227.792 -3.36183 1.03315 0
M  V30 2426 H 227.666 -3.70981 -0.682143 0
M  V30 2427 H 230.053 -2.77326 -1.00869 0
M  V30 2428 H 230.134 -2.4518 0.729396 0
M  V30 2429 H 229.778 -4.93922 1.18338 0
M  V30 2430 H 229.708 -5.23484 -0.572044 0
M  V30 2431 H 232.199 -3.77899 -0.00697015 0
M  V30 2432 H 232.512 -7.7038 0.611076 0
M  V30 2433 H 230.857 -6.92878 0.542628 0
M  V30 2434 H 234.048 -4.68039 0.0756209 0
M  V30 2435 H 234.221 -6.47015 0.357227 0
M  V30 2436 N 227.627 0.131896 -1.57047 0
M  V30 2437 C 228.574 1.16236 -1.99393 0
M  V30 2438 C 229.544 1.41863 -0.863943 0
M  V30 2439 O 230.729 1.53946 -1.12718 0
M  V30 2440 C 227.869 2.48708 -2.39245 0
M  V30 2441 C 226.982 2.30127 -3.65603 0
M  V30 2442 C 226.117 3.55738 -3.94492 0
M  V30 2443 C 225.156 3.32259 -5.14073 0
M  V30 2444 N 224.293 4.50039 -5.38896 0
M  V30 2445 H 229.133 0.794251 -2.87221 0
M  V30 2446 H 226.67 0.380707 -1.42088 0
M  V30 2447 H 228.628 3.25969 -2.60384 0
M  V30 2448 H 227.258 2.83437 -1.54478 0
M  V30 2449 H 226.31 1.43845 -3.52154 0
M  V30 2450 H 227.622 2.08746 -4.5302 0
M  V30 2451 H 226.776 4.41423 -4.1621 0
M  V30 2452 H 225.515 3.80138 -3.05526 0
M  V30 2453 H 224.52 2.44963 -4.92212 0
M  V30 2454 H 225.745 3.09242 -6.04604 0
M  V30 2455 H 223.691 4.74584 -4.52886 0
M  V30 2456 H 223.608 4.31716 -6.2061 0
M  V30 2457 H 224.876 5.36895 -5.65123 0
M  V30 2458 N 229.106 1.52395 0.401703 0
M  V30 2459 C 230.352 1.68019 1.14635 0
M  V30 2460 C 230.707 0.408722 1.88009 0
M  V30 2461 O 230 -0.597133 1.82057 0
M  V30 2462 C 230.194 2.84578 2.16217 0
M  V30 2463 C 230.023 4.22938 1.5282 0
M  V30 2464 C 228.793 4.88352 1.29772 0
M  V30 2465 C 230.991 5.04778 0.985094 0
M  V30 2466 N 228.973 6.10726 0.623455 0
M  V30 2467 C 230.344 6.1845 0.438172 0
M  V30 2468 C 232.399 4.90057 0.880275 0
M  V30 2469 C 231.102 7.19013 -0.203306 0
M  V30 2470 C 233.128 5.9086 0.252639 0
M  V30 2471 C 232.49 7.03829 -0.283573 0
M  V30 2472 H 228.589 0.668413 0.405892 0
M  V30 2473 H 231.173 1.89717 0.437674 0
M  V30 2474 H 229.344 2.64483 2.84435 0
M  V30 2475 H 231.076 2.89202 2.83098 0
M  V30 2476 H 227.831 4.46846 1.56926 0
M  V30 2477 H 228.255 6.76323 0.302733 0
M  V30 2478 H 232.897 4.02938 1.28065 0
M  V30 2479 H 230.615 8.05751 -0.615726 0
M  V30 2480 H 234.201 5.81543 0.172954 0
M  V30 2481 H 233.081 7.80493 -0.761575 0
M  V30 2482 N 230.584 -0.659388 1.43143 0
M  V30 2483 C 231.832 -1.41654 1.44147 0
M  V30 2484 C 232.153 -1.94893 0.0645739 0
M  V30 2485 O 231.423 -1.74044 -0.899198 0
M  V30 2486 H 230.003 -0.525708 0.530697 0
M  V30 2487 H 232.665 -0.778097 1.78694 0
M  V30 2488 H 231.761 -2.26195 2.1504 0
M  V30 2489 N 232.062 -1.29571 -0.897171 0
M  V30 2490 C 233.292 -1.20408 -1.67886 0
M  V30 2491 C 233.7 0.237429 -1.87704 0
M  V30 2492 O 233.043 1.17048 -1.41582 0
M  V30 2493 C 233.105 -1.84887 -3.08314 0
M  V30 2494 C 232.769 -3.34189 -3.11716 0
M  V30 2495 C 233.766 -4.30374 -2.91675 0
M  V30 2496 C 231.451 -3.75431 -3.33701 0
M  V30 2497 C 233.445 -5.65776 -2.93557 0
M  V30 2498 C 231.132 -5.10955 -3.35214 0
M  V30 2499 C 232.13 -6.05938 -3.15164 0
M  V30 2500 O 231.818 -7.38987 -3.1647 0
M  V30 2501 H 231.55 -0.418289 -0.531046 0
M  V30 2502 H 234.104 -1.71514 -1.13014 0
M  V30 2503 H 232.334 -1.28295 -3.64798 0
M  V30 2504 H 234.023 -1.70011 -3.6858 0
M  V30 2505 H 234.789 -3.99844 -2.74499 0
M  V30 2506 H 230.668 -3.01953 -3.48347 0
M  V30 2507 H 234.212 -6.39889 -2.77826 0
M  V30 2508 H 230.109 -5.4113 -3.51922 0
M  V30 2509 H 230.877 -7.47823 -3.3272 0
M  V30 2510 N 233.54 1.10788 -1.12088 0
M  V30 2511 C 234.768 1.86461 -0.896651 0
M  V30 2512 C 235.183 1.80492 0.553912 0
M  V30 2513 O 234.54 1.19102 1.38278 0
M  V30 2514 C 234.591 3.35006 -1.35843 0
M  V30 2515 O 234.312 3.40866 -2.75213 0
M  V30 2516 C 235.813 4.27565 -1.1706 0
M  V30 2517 H 233.033 0.589425 -0.320654 0
M  V30 2518 H 235.577 1.40076 -1.48993 0
M  V30 2519 H 233.732 3.7887 -0.808458 0
M  V30 2520 H 234.146 4.33411 -2.9539 0
M  V30 2521 H 235.62 5.30007 -1.54263 0
M  V30 2522 H 236.097 4.3906 -0.110814 0
M  V30 2523 H 236.703 3.89501 -1.70789 0
M  V30 2524 N 235.018 0.912232 1.28515 0
M  V30 2525 C 236.264 0.545405 1.95328 0
M  V30 2526 C 236.597 -0.908313 1.71649 0
M  V30 2527 O 235.872 -1.64575 1.03659 0
M  V30 2528 C 236.155 0.853483 3.4984 0
M  V30 2529 C 236.008 2.35982 3.82926 0
M  V30 2530 C 237.327 0.348589 4.38717 0
M  V30 2531 H 234.446 0.199626 0.709449 0
M  V30 2532 H 237.088 1.1412 1.5191 0
M  V30 2533 H 235.238 0.34643 3.86952 0
M  V30 2534 H 236.91 2.93738 3.55691 0
M  V30 2535 H 235.153 2.81543 3.30024 0
M  V30 2536 H 235.824 2.52593 4.90816 0
M  V30 2537 H 238.3 0.78294 4.08668 0
M  V30 2538 H 237.176 0.593242 5.45685 0
M  V30 2539 H 237.437 -0.751049 4.35674 0
M  V30 2540 N 236.496 -1.42363 0.676048 0
M  V30 2541 C 237.443 -2.308 -0.00150904 0
M  V30 2542 C 238.413 -1.46032 -0.791444 0
M  V30 2543 O 239.598 -1.74861 -0.76344 0
M  V30 2544 C 236.738 -3.31883 -0.945919 0
M  V30 2545 C 235.851 -4.31741 -0.149675 0
M  V30 2546 C 234.986 -5.19898 -1.08995 0
M  V30 2547 C 234.025 -6.11434 -0.285465 0
M  V30 2548 N 233.162 -6.92138 -1.17851 0
M  V30 2549 H 238.002 -2.88187 0.758455 0
M  V30 2550 H 235.539 -1.41952 0.38576 0
M  V30 2551 H 237.497 -3.89019 -1.50731 0
M  V30 2552 H 236.127 -2.76093 -1.6725 0
M  V30 2553 H 235.179 -3.76713 0.528359 0
M  V30 2554 H 236.491 -4.96534 0.474866 0
M  V30 2555 H 235.645 -5.81772 -1.72123 0
M  V30 2556 H 234.384 -4.55284 -1.74837 0
M  V30 2557 H 233.389 -5.48627 0.359018 0
M  V30 2558 H 234.614 -6.78097 0.368883 0
M  V30 2559 H 232.56 -6.30152 -1.82332 0
M  V30 2560 H 232.477 -7.53542 -0.609082 0
M  V30 2561 H 233.745 -7.58499 -1.79722 0
M  V30 2562 N 237.974 -0.419461 -1.51915 0
M  V30 2563 C 239.222 0.152637 -2.01523 0
M  V30 2564 C 239.543 1.44762 -1.30649 0
M  V30 2565 O 238.813 1.90997 -0.435535 0
M  V30 2566 H 237.393 0.0593966 -0.744635 0
M  V30 2567 H 240.055 -0.558073 -1.86739 0
M  V30 2568 H 239.151 0.341369 -3.10227 0
M  V30 2569 N 239.452 1.56882 -0.150215 0
M  V30 2570 C 240.701 1.95403 0.500071 0
M  V30 2571 C 241.014 1.03777 1.658 0
M  V30 2572 O 242.22 1.31889 2.37313 0
M  V30 2573 C 240.676 3.4738 0.941018 0
M  V30 2574 C 240.284 4.47596 -0.190158 0
M  V30 2575 C 242.028 3.9476 1.56091 0
M  V30 2576 C 239.935 5.90787 0.269237 0
M  V30 2577 H 238.865 0.729515 0.190588 0
M  V30 2578 H 241.516 1.81988 -0.235074 0
M  V30 2579 H 239.898 3.56138 1.73152 0
M  V30 2580 H 241.072 4.50536 -0.967157 0
M  V30 2581 H 239.387 4.10151 -0.718666 0
M  V30 2582 H 241.984 4.99181 1.9163 0
M  V30 2583 H 242.327 3.36494 2.45107 0
M  V30 2584 H 242.86 3.88932 0.835249 0
M  V30 2585 H 239.599 6.52879 -0.585621 0
M  V30 2586 H 239.119 5.912 1.01204 0
M  V30 2587 H 240.798 6.42979 0.720176 0
M  V30 2588 N 240.93 -0.123565 1.57115 0
M  V30 2589 C 241.862 -1.17739 1.96648 0
M  V30 2590 C 242.875 -1.37906 0.865201 0
M  V30 2591 O 244.064 -1.37062 1.14351 0
M  V30 2592 C 241.164 -2.53821 2.24562 0
M  V30 2593 C 240.337 -2.54317 3.55867 0
M  V30 2594 C 239.396 -3.72112 3.72047 0
M  V30 2595 O 238.422 -3.55907 4.44206 0
M  V30 2596 N 239.624 -4.90498 3.10471 0
M  V30 2597 H 242.389 -0.841147 2.87654 0
M  V30 2598 H 239.95 -0.31289 1.58848 0
M  V30 2599 H 241.942 -3.31175 2.32606 0
M  V30 2600 H 240.512 -2.79645 1.39705 0
M  V30 2601 H 239.732 -1.62711 3.59053 0
M  V30 2602 H 241.02 -2.51701 4.42181 0
M  V30 2603 H 240.418 -5.06567 2.51806 0
M  V30 2604 H 238.975 -5.65544 3.24043 0
M  V30 2605 N 242.408 -1.52605 -0.393616 0
M  V30 2606 C 243.355 -1.77055 -1.48054 0
M  V30 2607 C 244.325 -0.61358 -1.54352 0
M  V30 2608 O 245.51 -0.852806 -1.70681 0
M  V30 2609 C 242.65 -1.94108 -2.85335 0
M  V30 2610 C 241.763 -3.21792 -2.88226 0
M  V30 2611 C 240.898 -3.29188 -4.16904 0
M  V30 2612 C 239.937 -4.51013 -4.13828 0
M  V30 2613 N 239.074 -4.55716 -5.34105 0
M  V30 2614 H 243.914 -2.69815 -1.26506 0
M  V30 2615 H 241.451 -1.33683 -0.61379 0
M  V30 2616 H 243.409 -2.01979 -3.65049 0
M  V30 2617 H 242.039 -1.04713 -3.05344 0
M  V30 2618 H 241.091 -3.23015 -2.00911 0
M  V30 2619 H 242.403 -4.11557 -2.8182 0
M  V30 2620 H 241.557 -3.36216 -5.05018 0
M  V30 2621 H 240.296 -2.37389 -4.26026 0
M  V30 2622 H 239.301 -4.44115 -3.24102 0
M  V30 2623 H 240.526 -5.44123 -4.06333 0
M  V30 2624 H 238.472 -3.66807 -5.43865 0
M  V30 2625 H 238.389 -5.39346 -5.29756 0
M  V30 2626 H 239.657 -4.66993 -6.2413 0
M  V30 2627 N 243.887 0.651787 -1.4349 0
M  V30 2628 C 245.117 1.43728 -1.48411 0
M  V30 2629 C 245.525 1.8893 -0.10103 0
M  V30 2630 O 244.868 1.60182 0.899307 0
M  V30 2631 C 244.93 2.70411 -2.36893 0
M  V30 2632 C 244.594 2.4714 -3.8441 0
M  V30 2633 C 245.591 2.10271 -4.75481 0
M  V30 2634 C 243.276 2.6142 -4.28912 0
M  V30 2635 C 245.27 1.87982 -6.0905 0
M  V30 2636 C 242.957 2.38746 -5.62533 0
M  V30 2637 C 243.955 2.02083 -6.5242 0
M  V30 2638 O 243.643 1.79647 -7.8357 0
M  V30 2639 H 243.375 0.447962 -0.506267 0
M  V30 2640 H 245.929 0.80624 -1.88915 0
M  V30 2641 H 244.159 3.36079 -1.91278 0
M  V30 2642 H 245.848 3.32364 -2.33 0
M  V30 2643 H 246.614 1.98814 -4.42378 0
M  V30 2644 H 242.493 2.88931 -3.59222 0
M  V30 2645 H 246.037 1.5929 -6.7917 0
M  V30 2646 H 241.934 2.49806 -5.95203 0
M  V30 2647 H 242.702 1.9406 -7.95162 0
M  V30 2648 N 245.365 1.30045 0.890287 0
M  V30 2649 C 246.312 1.15976 1.99545 0
M  V30 2650 C 247.282 0.0506202 1.66023 0
M  V30 2651 O 248.467 0.219847 1.89529 0
M  V30 2652 C 245.607 0.852054 3.34416 0
M  V30 2653 C 244.72 2.04255 3.80662 0
M  V30 2654 C 243.855 1.6734 5.04154 0
M  V30 2655 C 242.894 2.82916 5.42794 0
M  V30 2656 N 242.031 2.46333 6.57468 0
M  V30 2657 H 246.871 2.10524 2.10911 0
M  V30 2658 H 244.408 1.04749 1.03276 0
M  V30 2659 H 246.366 0.654296 4.12037 0
M  V30 2660 H 244.996 -0.0565502 3.2275 0
M  V30 2661 H 244.048 2.35172 2.98995 0
M  V30 2662 H 245.36 2.90826 4.05242 0
M  V30 2663 H 244.514 1.43908 5.89386 0
M  V30 2664 H 243.253 0.779308 4.81433 0
M  V30 2665 H 242.258 3.0702 4.56091 0
M  V30 2666 H 243.483 3.73004 5.6749 0
M  V30 2667 H 241.429 1.59423 6.36334 0
M  V30 2668 H 241.346 3.26436 6.81891 0
M  V30 2669 H 242.614 2.26244 7.45945 0
M  V30 2670 N 246.843 -1.10192 1.12674 0
M  V30 2671 C 247.806 -2.14786 0.799979 0
M  V30 2672 C 248.806 -1.59711 -0.18685 0
M  V30 2673 O 249.996 -1.74156 0.0392558 0
M  V30 2674 C 247.128 -3.40374 0.189228 0
M  V30 2675 H 248.321 -2.45203 1.72671 0
M  V30 2676 H 245.874 -1.25597 0.930326 0
M  V30 2677 H 246.609 -3.15577 -0.747107 0
M  V30 2678 H 246.394 -3.81637 0.899766 0
M  V30 2679 H 247.884 -4.17594 -0.0228143 0
M  V30 2680 N 248.321 -0.919034 -1.28029 0
M  V30 2681 C 249.268 -0.410005 -2.27129 0
M  V30 2682 C 250.238 0.518405 -1.57803 0
M  V30 2683 O 251.423 0.439451 -1.8567 0
M  V30 2684 C 248.563 0.339054 -3.4343 0
M  V30 2685 C 247.676 -0.622468 -4.27492 0
M  V30 2686 C 246.811 0.145567 -5.31001 0
M  V30 2687 C 245.85 -0.809226 -6.06727 0
M  V30 2688 N 244.987 -0.0743728 -7.02061 0
M  V30 2689 H 249.827 -1.26011 -2.70047 0
M  V30 2690 H 247.364 -0.632663 -1.328 0
M  V30 2691 H 249.322 0.789586 -4.0966 0
M  V30 2692 H 247.952 1.15346 -3.01488 0
M  V30 2693 H 247.004 -1.19153 -3.61257 0
M  V30 2694 H 248.316 -1.35252 -4.80113 0
M  V30 2695 H 247.47 0.656417 -6.03139 0
M  V30 2696 H 246.209 0.908643 -4.79161 0
M  V30 2697 H 245.214 -1.3314 -5.33436 0
M  V30 2698 H 246.439 -1.57194 -6.60656 0
M  V30 2699 H 244.385 0.670616 -6.52563 0
M  V30 2700 H 244.302 -0.744157 -7.52329 0
M  V30 2701 H 245.57 0.416109 -7.78389 0
M  V30 2702 N 249.799 1.42003 -0.683588 0
M  V30 2703 C 251.048 2.00638 -0.206681 0
M  V30 2704 C 251.361 1.5472 1.19671 0
M  V30 2705 O 252.567 2.05833 1.77045 0
M  V30 2706 C 251.023 3.58487 -0.318632 0
M  V30 2707 C 250.631 4.1339 -1.72663 0
M  V30 2708 C 252.375 4.24384 0.0991141 0
M  V30 2709 C 250.282 5.63633 -1.79087 0
M  V30 2710 H 249.212 0.750408 -0.0735107 0
M  V30 2711 H 251.863 1.62624 -0.850048 0
M  V30 2712 H 250.245 3.94047 0.392781 0
M  V30 2713 H 251.419 3.89273 -2.46583 0
M  V30 2714 H 249.734 3.59976 -2.09299 0
M  V30 2715 H 252.331 5.34652 0.0713833 0
M  V30 2716 H 252.674 4.00505 1.13586 0
M  V30 2717 H 253.207 3.93816 -0.561599 0
M  V30 2718 H 249.946 5.92323 -2.80774 0
M  V30 2719 H 249.466 5.89714 -1.09535 0
M  V30 2720 H 251.145 6.28201 -1.5483 0
M  V30 2721 N 251.277 0.427512 1.51691 0
M  V30 2722 C 252.523 -0.142439 2.02299 0
M  V30 2723 C 252.856 -1.43214 1.31162 0
M  V30 2724 O 252.131 -1.89833 0.423511 0
M  V30 2725 C 252.414 -0.371301 3.58181 0
M  V30 2726 C 252.267 0.936358 4.39946 0
M  V30 2727 C 253.586 -1.14542 4.24933 0
M  V30 2728 H 250.705 -0.0502937 0.735282 0
M  V30 2729 H 253.347 0.564584 1.81418 0
M  V30 2730 H 251.497 -0.973559 3.76104 0
M  V30 2731 H 253.169 1.57184 4.33694 0
M  V30 2732 H 251.412 1.5432 4.05423 0
M  V30 2733 H 252.083 0.730388 5.47147 0
M  V30 2734 H 254.559 -0.635362 4.11221 0
M  V30 2735 H 253.435 -1.27431 5.33903 0
M  V30 2736 H 253.696 -2.17093 3.85127 0
M  V30 2737 N 252.755 -1.56801 0.158532 0
M  V30 2738 C 254.002 -1.9649 -0.489679 0
M  V30 2739 C 254.33 -1.04394 -1.6411 0
M  V30 2740 O 253.585 -0.0754401 -1.95555 0
M  V30 2741 C 253.884 -3.4235 -1.02623 0
M  V30 2742 C 253.55 -4.50899 0.00794526 0
M  V30 2743 C 252.212 -4.80312 0.292207 0
M  V30 2744 C 254.564 -5.16333 0.710584 0
M  V30 2745 C 251.892 -5.72461 1.28472 0
M  V30 2746 C 254.244 -6.09553 1.69199 0
M  V30 2747 C 252.908 -6.37339 1.98383 0
M  V30 2748 H 252.178 -0.719009 -0.179186 0
M  V30 2749 H 254.825 -1.8989 0.247798 0
M  V30 2750 H 253.13 -3.45838 -1.84128 0
M  V30 2751 H 254.827 -3.70393 -1.53656 0
M  V30 2752 H 251.417 -4.28015 -0.22379 0
M  V30 2753 H 255.601 -4.93732 0.504174 0
M  V30 2754 H 250.857 -5.92278 1.51714 0
M  V30 2755 H 255.031 -6.59327 2.24189 0
M  V30 2756 H 252.658 -7.08546 2.7544 0
M  V30 2757 N 254.233 0.115231 -1.57178 0
M  V30 2758 C 255.196 1.12526 -1.99676 0
M  V30 2759 C 256.196 1.34095 -0.88742 0
M  V30 2760 O 257.386 1.30548 -1.15337 0
M  V30 2761 C 254.518 2.4789 -2.34015 0
M  V30 2762 H 255.711 0.759912 -2.90113 0
M  V30 2763 H 253.264 0.359648 -1.52106 0
M  V30 2764 H 253.999 2.89339 -1.4647 0
M  V30 2765 H 253.784 2.33588 -3.14927 0
M  V30 2766 H 255.274 3.20575 -2.67622 0
M  V30 2767 N 255.711 1.52812 0.385517 0
M  V30 2768 C 256.674 1.77188 1.45386 0
M  V30 2769 C 257.674 0.641953 1.4743 0
M  V30 2770 O 258.864 0.910033 1.4854 0
M  V30 2771 C 255.996 1.87582 2.8465 0
M  V30 2772 H 257.189 2.72583 1.25054 0
M  V30 2773 H 254.742 1.43586 0.617467 0
M  V30 2774 H 255.477 0.941849 3.10322 0
M  V30 2775 H 255.262 2.69748 2.84567 0
M  V30 2776 H 256.752 2.08102 3.62054 0
M  V30 2777 N 257.189 -0.644168 1.43834 0
M  V30 2778 C 258.437 -1.40117 1.45642 0
M  V30 2779 C 258.758 -1.94814 0.0852413 0
M  V30 2780 O 258.028 -1.74988 -0.880688 0
M  V30 2781 H 256.608 -0.52005 0.536243 0
M  V30 2782 H 259.27 -0.7591 1.7951 0
M  V30 2783 H 258.366 -2.23902 2.17427 0
M  V30 2784 N 258.668 -1.30515 -0.883378 0
M  V30 2785 C 259.616 -1.16941 -2.01066 0
M  V30 2786 C 260.61 -0.0809148 -1.69207 0
M  V30 2787 O 261.816 -0.241877 -1.78367 0
M  V30 2788 H 258.191 -0.361705 -0.659298 0
M  V30 2789 H 260.162 -2.12344 -2.09649 0
M  V30 2790 C 258.911 -0.879694 -3.36388 0
M  V30 2791 H 258.234 -1.70936 -3.61415 0
M  V30 2792 H 259.674 -0.82483 -4.159 0
M  V30 2793 C 258.133 0.417409 -3.34304 0
M  V30 2794 O 258.663 1.43843 -3.75063 0
M  V30 2795 N 256.869 0.429141 -2.87414 0
M  V30 2796 H 256.416 -0.402222 -2.5444 0
M  V30 2797 H 256.374 1.29696 -2.86403 0
M  V30 2798 N 260.146 1.09593 -1.13257 0
M  V30 2799 C 261.393 1.81734 -0.893257 0
M  V30 2800 C 261.721 1.8563 0.580656 0
M  V30 2801 O 260.976 1.31906 1.44566 0
M  V30 2802 C 261.275 3.27802 -1.42411 0
M  V30 2803 C 260.941 3.44041 -2.91456 0
M  V30 2804 C 259.603 3.48181 -3.3215 0
M  V30 2805 C 261.955 3.48719 -3.87356 0
M  V30 2806 C 259.283 3.54575 -4.67433 0
M  V30 2807 C 261.635 3.56648 -5.2248 0
M  V30 2808 C 260.299 3.59055 -5.62704 0
M  V30 2809 H 259.569 0.665011 -0.326866 0
M  V30 2810 H 262.216 1.2912 -1.41422 0
M  V30 2811 H 260.521 3.83042 -0.823795 0
M  V30 2812 H 262.218 3.82149 -1.21503 0
M  V30 2813 H 258.808 3.41502 -2.58987 0
M  V30 2814 H 262.992 3.44763 -3.57004 0
M  V30 2815 H 258.248 3.54725 -4.97976 0
M  V30 2816 H 262.422 3.59212 -5.96607 0
M  V30 2817 H 260.049 3.63763 -6.67518 0
M  V30 2818 N 261.624 0.925811 1.2754 0
M  V30 2819 C 262.87 0.575575 1.95086 0
M  V30 2820 C 263.225 -0.873246 1.71441 0
M  V30 2821 O 262.518 -1.61443 1.03183 0
M  V30 2822 C 262.712 0.835296 3.47502 0
M  V30 2823 C 262.541 2.30781 3.85967 0
M  V30 2824 C 261.311 2.96017 4.09514 0
M  V30 2825 C 263.509 3.28519 3.95702 0
M  V30 2826 N 261.491 4.3344 4.34744 0
M  V30 2827 C 262.862 4.51146 4.25285 0
M  V30 2828 C 264.917 3.23753 3.7827 0
M  V30 2829 C 263.62 5.69606 4.39251 0
M  V30 2830 C 265.646 4.41523 3.9346 0
M  V30 2831 C 265.008 5.62928 4.23428 0
M  V30 2832 H 261.107 0.260711 0.737261 0
M  V30 2833 H 263.691 1.19204 1.53943 0
M  V30 2834 H 261.862 0.248005 3.87607 0
M  V30 2835 H 263.594 0.447878 4.02214 0
M  V30 2836 H 260.349 2.46695 4.04275 0
M  V30 2837 H 260.773 5.04528 4.5142 0
M  V30 2838 H 265.415 2.3096 3.54143 0
M  V30 2839 H 263.133 6.62866 4.62205 0
M  V30 2840 H 266.719 4.39351 3.81394 0
M  V30 2841 H 265.599 6.52538 4.34929 0
M  V30 2842 N 263.102 -1.41638 0.69111 0
M  V30 2843 C 264.35 -2.00902 0.219758 0
M  V30 2844 C 264.671 -1.54994 -1.18329 0
M  V30 2845 O 263.941 -0.778628 -1.79762 0
M  V30 2846 H 262.521 -0.74289 0.0782558 0
M  V30 2847 H 265.183 -1.73327 0.891271 0
M  V30 2848 H 264.279 -3.11224 0.233708 0
M  V30 2849 N 264.58 -0.43555 -1.51462 0
M  V30 2850 C 265.996 -0.0877501 -1.59359 0
M  V30 2851 C 266.196 1.4027 -1.4466 0
M  V30 2852 O 265.252 2.17243 -1.28693 0
M  V30 2853 C 266.565 -0.606264 -2.94525 0
M  V30 2854 C 268.113 -0.566548 -3.0783 0
M  V30 2855 C 268.588 -1.06201 -4.45517 0
M  V30 2856 N 270.079 -1.01992 -4.51832 0
M  V30 2857 C 270.814 -1.37417 -5.5669 0
M  V30 2858 N 270.31 -1.80119 -6.68976 0
M  V30 2859 N 272.103 -1.29245 -5.47039 0
M  V30 2860 H 264.254 -1.40533 -1.59261 0
M  V30 2861 H 266.517 -0.578992 -0.750648 0
M  V30 2862 H 266.223 -1.64901 -3.10645 0
M  V30 2863 H 266.097 -0.0302097 -3.77188 0
M  V30 2864 H 268.484 0.467208 -2.91378 0
M  V30 2865 H 268.565 -1.17898 -2.2701 0
M  V30 2866 H 268.209 -2.09422 -4.62715 0
M  V30 2867 H 268.139 -0.426127 -5.24873 0
M  V30 2868 H 270.63 -0.706308 -3.71241 0
M  V30 2869 H 270.943 -2.05392 -7.45006 0
M  V30 2870 H 269.288 -1.84044 -6.70189 0
M  V30 2871 H 272.479 -0.957522 -4.58202 0
M  V30 2872 H 272.652 -1.57182 -6.28648 0
M  V30 2873 N 266.058 1.56714 -0.166846 0
M  V30 2874 C 267.286 2.0112 0.485644 0
M  V30 2875 C 267.701 1.04705 1.57106 0
M  V30 2876 O 267.058 0.0471923 1.82439 0
M  V30 2877 C 267.109 3.45361 1.06808 0
M  V30 2878 O 266.83 4.38092 0.0259995 0
M  V30 2879 C 268.331 4.05145 1.79924 0
M  V30 2880 H 265.551 0.65931 0.124704 0
M  V30 2881 H 268.095 2.02746 -0.267262 0
M  V30 2882 H 266.25 3.44524 1.7715 0
M  V30 2883 H 266.664 5.22519 0.455398 0
M  V30 2884 H 268.138 5.08009 2.15942 0
M  V30 2885 H 268.615 3.46982 2.69258 0
M  V30 2886 H 269.221 4.09672 1.14234 0
M  V30 2887 N 267.536 -0.106894 1.57237 0
M  V30 2888 C 268.466 -1.13148 2.04254 0
M  V30 2889 C 269.447 -1.42476 0.929224 0
M  V30 2890 O 270.632 -1.52709 1.19973 0
M  V30 2891 C 267.762 -2.4545 2.45706 0
M  V30 2892 C 266.716 -2.30558 3.60592 0
M  V30 2893 C 266.042 -3.67931 3.87983 0
M  V30 2894 C 267.342 -1.75597 4.91897 0
M  V30 2895 H 269.036 -0.740374 2.90101 0
M  V30 2896 H 266.582 -0.354696 1.39563 0
M  V30 2897 H 268.535 -3.17389 2.77205 0
M  V30 2898 H 267.259 -2.86475 1.56843 0
M  V30 2899 H 265.918 -1.61067 3.29322 0
M  V30 2900 H 265.566 -4.06462 2.96306 0
M  V30 2901 H 265.266 -3.58817 4.65322 0
M  V30 2902 H 266.79 -4.41356 4.21945 0
M  V30 2903 H 268.204 -2.37364 5.21854 0
M  V30 2904 H 266.601 -1.77272 5.73319 0
M  V30 2905 H 267.671 -0.714451 4.79608 0
M  V30 2906 N 269.014 -1.53014 -0.377408 0
M  V30 2907 C 270.239 -1.72818 -1.14668 0
M  V30 2908 C 270.664 -0.450725 -1.8262 0
M  V30 2909 O 270.022 0.59439 -1.7128 0
M  V30 2910 C 270.07 -2.88627 -2.16164 0
M  V30 2911 O 269.174 -2.56409 -3.22998 0
M  V30 2912 H 268.515 -0.574301 -0.333278 0
M  V30 2913 H 271.045 -1.99853 -0.438152 0
M  V30 2914 H 271.055 -3.14455 -2.59966 0
M  V30 2915 H 269.73 -3.81294 -1.66095 0
M  V30 2916 H 268.307 -2.4136 -2.84253 0
M  V30 2917 N 270.492 0.636531 -1.44174 0
M  V30 2918 C 271.455 1.73063 -1.50273 0
M  V30 2919 C 272.455 1.56113 -0.385397 0
M  V30 2920 O 273.645 1.61707 -0.64781 0
M  V30 2921 C 270.777 3.12096 -1.37145 0
M  V30 2922 H 271.97 1.69031 -2.47727 0
M  V30 2923 H 269.523 0.849706 -1.31186 0
M  V30 2924 H 270.258 3.21728 -0.407636 0
M  V30 2925 H 270.043 3.25805 -2.18159 0
M  V30 2926 H 271.533 3.91846 -1.44382 0
M  V30 2927 N 271.97 1.30982 0.876444 0
M  V30 2928 C 273.219 1.19658 1.62373 0
M  V30 2929 C 273.532 -0.245636 1.94052 0
M  V30 2930 O 274.738 -0.48049 2.67214 0
M  V30 2931 C 273.194 2.09433 2.92687 0
M  V30 2932 C 272.802 3.58613 2.68516 0
M  V30 2933 C 274.546 2.06893 3.70669 0
M  V30 2934 C 272.453 4.40416 3.94699 0
M  V30 2935 H 271.383 0.444268 0.609214 0
M  V30 2936 H 274.034 1.55791 0.969605 0
M  V30 2937 H 272.416 1.66191 3.59439 0
M  V30 2938 H 273.59 4.10058 2.10212 0
M  V30 2939 H 271.905 3.63063 2.03898 0
M  V30 2940 H 274.502 2.65258 4.64265 0
M  V30 2941 H 274.845 1.05448 4.02724 0
M  V30 2942 H 275.378 2.48301 3.10792 0
M  V30 2943 H 272.117 5.42591 3.67798 0
M  V30 2944 H 271.637 3.93731 4.52477 0
M  V30 2945 H 273.316 4.52294 4.62644 0
M  V30 2946 N 273.449 -1.08991 1.13837 0
M  V30 2947 C 274.674 -1.85551 0.926585 0
M  V30 2948 C 275.099 -1.80782 -0.519566 0
M  V30 2949 O 274.457 -1.18855 -1.36906 0
M  V30 2950 C 274.505 -3.31266 1.42462 0
M  V30 2951 O 273.609 -4.07822 0.612789 0
M  V30 2952 H 272.95 -0.575192 0.331738 0
M  V30 2953 H 275.48 -1.37604 1.51414 0
M  V30 2954 H 275.49 -3.82112 1.43019 0
M  V30 2955 H 274.165 -3.34052 2.47754 0
M  V30 2956 H 272.742 -3.66731 0.675463 0
M  V30 2957 N 274.927 -0.932562 -1.27047 0
M  V30 2958 C 276.152 -0.591474 -1.98787 0
M  V30 2959 C 276.577 0.824601 -1.69062 0
M  V30 2960 O 275.935 1.5541 -0.933677 0
M  V30 2961 C 275.983 -0.829808 -3.50922 0
M  V30 2962 O 275.087 0.102266 -4.12273 0
M  V30 2963 H 274.428 -0.227185 -0.623926 0
M  V30 2964 H 276.958 -1.25314 -1.61733 0
M  V30 2965 H 276.968 -0.747292 -4.01098 0
M  V30 2966 H 275.643 -1.86201 -3.7189 0
M  V30 2967 H 274.22 -0.0305761 -3.72887 0
M  V30 2968 N 276.405 1.4127 -0.698611 0
M  V30 2969 C 277.63 2.06024 -0.238512 0
M  V30 2970 C 278.055 1.5224 1.10475 0
M  V30 2971 O 277.413 0.650623 1.69223 0
M  V30 2972 C 277.461 3.59988 -0.209952 0
M  V30 2973 O 276.565 4.04282 0.814235 0
M  V30 2974 H 275.906 0.653829 -0.115775 0
M  V30 2975 H 278.436 1.8098 -0.954326 0
M  V30 2976 H 278.446 4.07979 -0.0418436 0
M  V30 2977 H 277.121 3.98503 -1.1903 0
M  V30 2978 H 275.698 3.6779 0.615234 0
M  V30 2979 N 277.883 0.443576 1.51229 0
M  V30 2980 C 279.111 -0.11929 2.06556 0
M  V30 2981 C 279.526 -1.35921 1.31038 0
M  V30 2982 O 278.883 -1.78675 0.371704 0
M  V30 2983 C 278.934 -0.435228 3.5887 0
M  V30 2984 O 278.655 0.755486 4.31537 0
M  V30 2985 C 280.156 -1.04808 4.30732 0
M  V30 2986 H 277.376 -0.0051584 0.67098 0
M  V30 2987 H 279.92 0.624453 1.94733 0
M  V30 2988 H 278.075 -1.12887 3.70588 0
M  V30 2989 H 278.489 0.483491 5.22267 0
M  V30 2990 H 279.963 -1.2191 5.3837 0
M  V30 2991 H 280.44 -2.03081 3.89429 0
M  V30 2992 H 281.046 -0.393637 4.23474 0
M  V30 2993 N 279.361 -1.56624 0.175154 0
M  V30 2994 C 280.638 -1.88688 -0.515373 0
M  V30 2995 C 281.018 -1.08564 -1.81044 0
M  V30 2996 O 280.366 -0.180703 -2.27784 0
M  V30 2997 C 280.576 -3.40768 -0.753552 0
M  V30 2998 C 281.924 -4.10587 -1.08184 0
M  V30 2999 O 282.948 -3.46106 -0.841961 0
M  V30 3000 O 281.807 -5.24512 -1.53459 0
M  V30 3001 H 278.901 -0.78301 -0.26613 0
M  V30 3002 H 281.447 -1.68347 0.213877 0
M  V30 3003 H 280.219 -3.90965 0.161829 0
M  V30 3004 H 279.842 -3.66733 -1.53598 0
M  V30 3005 N 280.839 0.0985539 -1.57292 0
M  V30 3006 C 282.25 0.653457 -1.74891 0
M  V30 3007 C 282.601 1.7929 -0.796838 0
M  V30 3008 O 281.726 2.16385 0.0254886 0
M  V30 3009 C 282.321 1.19216 -3.17133 0
M  V30 3010 C 280.88 1.69316 -3.36168 0
M  V30 3011 C 280.027 0.601294 -2.70702 0
M  V30 3012 H 282.978 -0.127497 -1.58187 0
M  V30 3013 H 282.999 2.06154 -3.19814 0
M  V30 3014 H 282.511 0.362635 -3.86402 0
M  V30 3015 H 280.612 2.5468 -2.71972 0
M  V30 3016 H 280.725 1.78853 -4.44464 0
M  V30 3017 H 279.089 1.0399 -2.32504 0
M  V30 3018 H 279.872 -0.217592 -3.4261 0
M  V30 3019 N 282.317 1.53212 0.369288 0
M  V30 3020 C 283.545 1.73119 1.13303 0
M  V30 3021 C 283.96 0.458455 1.83149 0
M  V30 3022 O 283.317 -0.568403 1.73423 0
M  V30 3023 C 283.368 2.89413 2.16616 0
M  V30 3024 O 283.089 4.11761 1.49614 0
M  V30 3025 C 284.59 3.21161 3.05566 0
M  V30 3026 H 281.81 0.579107 0.338934 0
M  V30 3027 H 284.354 1.99942 0.429338 0
M  V30 3028 H 282.509 2.64994 2.82589 0
M  V30 3029 H 282.923 4.76858 2.18419 0
M  V30 3030 H 284.397 4.05949 3.74045 0
M  V30 3031 H 284.874 2.36369 3.70171 0
M  V30 3032 H 285.48 3.47492 2.45213 0
M  V30 3033 N 283.795 -0.628877 1.44509 0
M  V30 3034 C 285.02 -1.42048 1.5112 0
M  V30 3035 C 285.445 -1.87594 0.137818 0
M  V30 3036 O 284.803 -1.58873 -0.873437 0
M  V30 3037 C 284.851 -2.61541 2.48251 0
M  V30 3038 O 283.955 -3.61453 1.98559 0
M  V30 3039 H 283.296 -0.424942 0.510216 0
M  V30 3040 H 285.826 -0.767374 1.89664 0
M  V30 3041 H 285.836 -3.09057 2.66361 0
M  V30 3042 H 284.511 -2.27736 3.48007 0
M  V30 3043 H 283.088 -3.20731 1.90227 0
M  V30 3044 N 285.273 -1.31445 -0.869486 0
M  V30 3045 C 286.503 -1.23942 -1.65294 0
M  V30 3046 C 286.911 0.197561 -1.88166 0
M  V30 3047 O 286.254 1.14019 -1.44033 0
M  V30 3048 C 286.316 -1.91385 -3.04322 0
M  V30 3049 C 285.98 -3.40726 -3.04557 0
M  V30 3050 C 286.977 -4.36464 -2.82481 0
M  V30 3051 C 284.662 -3.82425 -3.25663 0
M  V30 3052 C 286.656 -5.71876 -2.8149 0
M  V30 3053 C 284.343 -5.1795 -3.243 0
M  V30 3054 C 285.341 -6.12486 -3.02241 0
M  V30 3055 O 285.029 -7.45534 -3.00724 0
M  V30 3056 H 284.761 -0.429459 -0.522054 0
M  V30 3057 H 287.315 -1.73873 -1.0935 0
M  V30 3058 H 285.545 -1.36004 -3.61994 0
M  V30 3059 H 287.234 -1.77791 -3.64891 0
M  V30 3060 H 288 -4.05576 -2.65956 0
M  V30 3061 H 283.879 -3.09274 -3.41863 0
M  V30 3062 H 287.423 -6.45638 -2.64191 0
M  V30 3063 H 283.32 -5.48473 -3.40365 0
M  V30 3064 H 284.088 -7.54713 -3.16782 0
M  V30 3065 N 286.751 1.08385 -1.14413 0
M  V30 3066 C 288.028 1.77429 -0.823297 0
M  V30 3067 C 288.408 1.9974 0.683163 0
M  V30 3068 O 287.756 1.60739 1.62405 0
M  V30 3069 C 287.966 3.09004 -1.62227 0
M  V30 3070 C 289.314 3.83532 -1.82177 0
M  V30 3071 O 290.338 3.18786 -1.58915 0
M  V30 3072 O 289.197 4.99792 -2.21067 0
M  V30 3073 H 286.291 0.769999 -0.301712 0
M  V30 3074 H 288.837 1.14846 -1.24934 0
M  V30 3075 H 287.609 2.88316 -2.64555 0
M  V30 3076 H 287.232 3.79316 -1.19187 0
M  V30 3077 N 288.23 0.939286 1.26551 0
M  V30 3078 C 289.478 0.58469 1.93457 0
M  V30 3079 C 289.799 -0.878774 1.74076 0
M  V30 3080 O 289.069 -1.62421 1.09528 0
M  V30 3081 H 287.649 0.21325 0.715914 0
M  V30 3082 H 290.311 1.1942 1.54029 0
M  V30 3083 H 289.407 0.800849 3.0165 0
M  V30 3084 N 289.708 -1.40897 0.706093 0
M  V30 3085 C 290.955 -2.01054 0.241531 0
M  V30 3086 C 291.283 -1.55956 -1.16223 0
M  V30 3087 O 290.538 -0.766336 -1.80072 0
M  V30 3088 C 290.837 -3.5646 0.259099 0
M  V30 3089 C 290.503 -4.21106 1.61184 0
M  V30 3090 C 289.165 -4.38479 1.98216 0
M  V30 3091 C 291.517 -4.57256 2.50132 0
M  V30 3092 C 288.845 -4.89282 3.2376 0
M  V30 3093 C 291.197 -5.09454 3.7502 0
M  V30 3094 C 289.861 -5.25037 4.12181 0
M  V30 3095 H 289.131 -0.73571 0.0883825 0
M  V30 3096 H 291.778 -1.68645 0.907257 0
M  V30 3097 H 290.083 -3.88721 -0.490189 0
M  V30 3098 H 291.78 -4.00826 -0.11804 0
M  V30 3099 H 288.37 -4.07966 1.31384 0
M  V30 3100 H 292.554 -4.43479 2.228 0
M  V30 3101 H 287.81 -4.99531 3.52532 0
M  V30 3102 H 291.984 -5.36404 4.44121 0
M  V30 3103 H 289.611 -5.64164 5.09532 0
M  V30 3104 N 291.186 -0.45159 -1.50991 0
M  V30 3105 C 292.434 0.109857 -2.01801 0
M  V30 3106 C 292.755 1.41958 -1.3369 0
M  V30 3107 O 292.025 1.9003 -0.475951 0
M  V30 3108 H 290.605 0.0435884 -0.745727 0
M  V30 3109 H 293.267 -0.597557 -1.85514 0
M  V30 3110 H 292.363 0.275489 -3.10882 0
M  V30 3111 N 292.664 1.56529 -0.183458 0
M  V30 3112 C 294.075 1.83739 0.331177 0
M  V30 3113 C 294.426 1.10373 1.62211 0
M  V30 3114 O 293.551 0.36071 2.13373 0
M  V30 3115 C 294.146 3.33306 0.607646 0
M  V30 3116 C 292.705 3.60969 1.06668 0
M  V30 3117 C 291.852 2.77086 0.109029 0
M  V30 3118 H 294.803 1.53379 -0.407484 0
M  V30 3119 H 294.824 3.51444 1.45832 0
M  V30 3120 H 294.336 3.86677 -0.332086 0
M  V30 3121 H 292.437 3.13021 2.0211 0
M  V30 3122 H 292.55 4.69231 0.967447 0
M  V30 3123 H 290.914 2.47319 0.608714 0
M  V30 3124 H 291.697 3.33241 -0.82494 0
M  V30 3125 N 294.142 -0.090211 1.57342 0
M  V30 3126 C 295.389 -0.792807 1.86335 0
M  V30 3127 C 295.717 -1.78494 0.772662 0
M  V30 3128 O 294.972 -1.94305 -0.233258 0
M  V30 3129 C 295.271 -1.55222 3.21933 0
M  V30 3130 C 294.937 -0.701765 4.45406 0
M  V30 3131 C 293.599 -0.467334 4.78925 0
M  V30 3132 C 295.951 -0.11086 5.21082 0
M  V30 3133 C 293.279 0.367785 5.85546 0
M  V30 3134 C 295.631 0.711609 6.28585 0
M  V30 3135 C 294.295 0.956086 6.60617 0
M  V30 3136 H 293.565 -0.290109 0.681849 0
M  V30 3137 H 296.212 -0.0541332 1.91423 0
M  V30 3138 H 294.517 -2.3626 3.12551 0
M  V30 3139 H 296.214 -2.10032 3.41595 0
M  V30 3140 H 292.804 -0.894598 4.1916 0
M  V30 3141 H 296.988 -0.279129 4.95514 0
M  V30 3142 H 292.244 0.566128 6.08773 0
M  V30 3143 H 296.418 1.17632 6.86393 0
M  V30 3144 H 294.045 1.60499 7.43064 0
M  V30 3145 N 295.62 -1.53406 -0.361157 0
M  V30 3146 C 296.553 -1.74946 -1.46524 0
M  V30 3147 C 297.531 -0.59795 -1.51206 0
M  V30 3148 O 298.715 -0.831062 -1.69191 0
M  V30 3149 C 295.842 -1.83224 -2.84863 0
M  V30 3150 C 294.888 -3.05233 -2.97885 0
M  V30 3151 S 295.721 -4.6466 -2.66179 0
M  V30 3152 C 296.877 -4.75793 -4.06659 0
M  V30 3153 H 297.11 -2.68319 -1.28033 0
M  V30 3154 H 294.643 -1.44051 -0.555764 0
M  V30 3155 H 296.601 -1.88679 -3.64569 0
M  V30 3156 H 295.262 -0.908948 -3.00661 0
M  V30 3157 H 294.455 -3.07648 -3.9921 0
M  V30 3158 H 294.057 -2.97913 -2.26106 0
M  V30 3159 H 296.349 -4.5612 -5.0096 0
M  V30 3160 H 297.292 -5.7786 -4.09247 0
M  V30 3161 H 297.7 -4.04389 -3.93865 0
M  V30 3162 N 297.098 0.621204 -1.44841 0
M  V30 3163 C 298.509 1.20298 -1.42777 0
M  V30 3164 C 298.86 1.95639 -0.148259 0
M  V30 3165 O 297.985 2.02955 0.750892 0
M  V30 3166 C 298.58 2.1882 -2.58657 0
M  V30 3167 C 297.139 2.72403 -2.59756 0
M  V30 3168 C 296.286 1.4757 -2.34773 0
M  V30 3169 H 299.237 0.411297 -1.53278 0
M  V30 3170 H 299.258 3.01607 -2.31977 0
M  V30 3171 H 298.77 1.63957 -3.51766 0
M  V30 3172 H 296.871 3.31242 -1.70615 0
M  V30 3173 H 296.984 3.17765 -3.58556 0
M  V30 3174 H 295.348 1.76051 -1.8406 0
M  V30 3175 H 296.131 0.945954 -3.3001 0
M  V30 3176 N 298.576 1.31904 0.862503 0
M  V30 3177 C 299.824 1.21776 1.61292 0
M  V30 3178 C 300.145 -0.222413 1.93727 0
M  V30 3179 O 299.415 -1.1451 1.58947 0
M  V30 3180 H 297.995 0.447717 0.597962 0
M  V30 3181 H 300.657 1.65326 1.03215 0
M  V30 3182 H 299.753 1.7948 2.5533 0
M  V30 3183 N 300.054 -1.07777 1.14986 0
M  V30 3184 C 301.301 -1.8029 0.922056 0
M  V30 3185 C 301.629 -1.86531 -0.55105 0
M  V30 3186 O 300.884 -1.34189 -1.42449 0
M  V30 3187 C 301.183 -3.25495 1.47608 0
M  V30 3188 C 300.849 -3.39361 2.96893 0
M  V30 3189 C 299.511 -3.42852 3.37647 0
M  V30 3190 C 301.863 -3.42512 3.92854 0
M  V30 3191 C 299.191 -3.47094 4.73015 0
M  V30 3192 C 301.543 -3.4829 5.28088 0
M  V30 3193 C 300.207 -3.50058 5.68345 0
M  V30 3194 H 299.477 -0.659727 0.337404 0
M  V30 3195 H 302.124 -1.26854 1.43459 0
M  V30 3196 H 300.429 -3.81683 0.88463 0
M  V30 3197 H 302.126 -3.80168 1.27568 0
M  V30 3198 H 298.716 -3.37339 2.64387 0
M  V30 3199 H 302.9 -3.3904 3.62444 0
M  V30 3200 H 298.156 -3.46758 5.03556 0
M  V30 3201 H 302.33 -3.49675 6.02246 0
M  V30 3202 H 299.957 -3.53097 6.73221 0
M  V30 3203 N 301.532 -0.945985 -1.26051 0
M  V30 3204 C 302.809 -0.513816 -1.88731 0
M  V30 3205 C 303.189 1.00872 -1.8544 0
M  V30 3206 O 302.537 1.8708 -1.312 0
M  V30 3207 C 302.747 -1.08062 -3.31849 0
M  V30 3208 C 304.095 -1.1522 -4.08668 0
M  V30 3209 O 305.119 -1.03155 -3.40936 0
M  V30 3210 O 303.978 -1.34044 -5.29806 0
M  V30 3211 H 301.072 -0.168193 -0.809716 0
M  V30 3212 H 303.618 -1.03886 -1.34186 0
M  V30 3213 H 302.39 -2.1241 -3.2863 0
M  V30 3214 H 302.013 -0.538307 -3.93939 0
M  V30 3215 N 303.011 1.40521 -0.713556 0
M  V30 3216 C 304.26 2.00155 -0.249192 0
M  V30 3217 C 304.573 1.57224 1.16362 0
M  V30 3218 O 305.779 2.09542 1.72639 0
M  V30 3219 C 304.235 3.5773 -0.3946 0
M  V30 3220 C 303.843 4.09635 -1.81392 0
M  V30 3221 C 305.587 4.24499 0.00907364 0
M  V30 3222 C 303.494 5.59707 -1.91003 0
M  V30 3223 H 302.424 0.74868 -0.0894114 0
M  V30 3224 H 305.075 1.60784 -0.884352 0
M  V30 3225 H 303.457 3.94792 0.30911 0
M  V30 3226 H 304.631 3.83955 -2.54785 0
M  V30 3227 H 302.946 3.55456 -2.16888 0
M  V30 3228 H 305.543 5.34683 -0.0420404 0
M  V30 3229 H 305.886 4.02824 1.05065 0
M  V30 3230 H 306.419 3.92536 -0.645007 0
M  V30 3231 H 303.158 5.86234 -2.93275 0
M  V30 3232 H 302.678 5.87258 -1.22019 0
M  V30 3233 H 304.357 6.24776 -1.6812 0
M  V30 3234 N 304.489 0.459591 1.5075 0
M  V30 3235 C 305.738 -0.100971 2.01447 0
M  V30 3236 C 306.051 -1.41816 1.34713 0
M  V30 3237 O 307.257 -2.06299 1.76502 0
M  V30 3238 C 305.713 -0.23047 3.59161 0
M  V30 3239 C 305.321 1.0776 4.34847 0
M  V30 3240 C 307.065 -0.743608 4.17936 0
M  V30 3241 C 304.972 0.91253 5.84317 0
M  V30 3242 H 303.902 -0.0415102 0.752856 0
M  V30 3243 H 306.553 0.592742 1.73663 0
M  V30 3244 H 304.935 -0.987703 3.83485 0
M  V30 3245 H 306.109 1.8449 4.22256 0
M  V30 3246 H 304.424 1.52097 3.87628 0
M  V30 3247 H 307.021 -0.883959 5.27343 0
M  V30 3248 H 307.364 -1.73196 3.78562 0
M  V30 3249 H 307.897 -0.04408 3.97776 0
M  V30 3250 H 304.636 1.87391 6.28144 0
M  V30 3251 H 304.156 0.185422 5.99513 0
M  V30 3252 H 305.835 0.574547 6.44444 0
M  V30 3253 N 305.967 -1.56429 0.191757 0
M  V30 3254 C 307.378 -1.83912 -0.321428 0
M  V30 3255 C 307.729 -1.11231 -1.61623 0
M  V30 3256 O 306.854 -0.37202 -2.13178 0
M  V30 3257 C 307.449 -3.33624 -0.589961 0
M  V30 3258 C 306.008 -3.6153 -1.04753 0
M  V30 3259 C 305.155 -2.7714 -0.0943327 0
M  V30 3260 H 308.106 -1.53161 0.415612 0
M  V30 3261 H 308.127 -3.52213 -1.43966 0
M  V30 3262 H 307.639 -3.86495 0.352588 0
M  V30 3263 H 305.74 -3.14089 -2.00447 0
M  V30 3264 H 305.853 -4.69737 -0.942549 0
M  V30 3265 H 304.217 -2.47638 -0.595589 0
M  V30 3266 H 305 -3.32799 0.842601 0
M  V30 3267 N 307.445 0.0818655 -1.57387 0
M  V30 3268 C 308.675 0.794954 -1.90694 0
M  V30 3269 C 309.083 1.72147 -0.784982 0
M  V30 3270 O 308.426 1.81974 0.251196 0
M  V30 3271 C 308.488 1.65042 -3.19376 0
M  V30 3272 C 308.152 0.894337 -4.48164 0
M  V30 3273 C 309.149 0.21813 -5.19442 0
M  V30 3274 C 306.834 0.864495 -4.94805 0
M  V30 3275 C 308.828 -0.477802 -6.35607 0
M  V30 3276 C 306.515 0.164785 -6.10878 0
M  V30 3277 C 307.513 -0.505173 -6.81129 0
M  V30 3278 O 307.201 -1.19363 -7.94989 0
M  V30 3279 H 306.933 0.231779 -0.635023 0
M  V30 3280 H 309.487 0.059493 -2.05314 0
M  V30 3281 H 307.717 2.42844 -3.00938 0
M  V30 3282 H 309.406 2.24127 -3.38411 0
M  V30 3283 H 310.172 0.232558 -4.84442 0
M  V30 3284 H 306.051 1.37542 -4.40004 0
M  V30 3285 H 309.595 -1.00129 -6.90377 0
M  V30 3286 H 305.492 0.148249 -6.4533 0
M  V30 3287 H 306.26 -1.10188 -8.11049 0
M  V30 3288 N 308.923 1.53595 0.353017 0
M  V30 3289 C 309.871 1.81605 1.45335 0
M  V30 3290 C 310.865 0.685923 1.54892 0
M  V30 3291 O 312.071 0.869095 1.57628 0
M  V30 3292 H 308.446 0.575204 0.484401 0
M  V30 3293 H 310.417 2.73679 1.18921 0
M  V30 3294 C 309.166 2.03406 2.81995 0
M  V30 3295 H 308.489 2.89814 2.75405 0
M  V30 3296 H 309.929 2.26975 3.58132 0
M  V30 3297 C 308.388 0.816794 3.26849 0
M  V30 3298 O 308.918 0.0115856 4.01698 0
M  V30 3299 N 307.124 0.636682 2.8354 0
M  V30 3300 H 306.671 1.2931 2.22793 0
M  V30 3301 H 306.629 -0.176336 3.13905 0
M  V30 3302 N 310.401 -0.613514 1.45168 0
M  V30 3303 C 311.678 -1.37263 1.39349 0
M  V30 3304 C 312.058 -2.11012 0.0610848 0
M  V30 3305 O 311.406 -2.07502 -0.956825 0
M  V30 3306 C 311.616 -2.3244 2.60332 0
M  V30 3307 C 312.964 -2.9523 3.05163 0
M  V30 3308 O 313.988 -2.42762 2.60663 0
M  V30 3309 O 312.847 -3.90454 3.82372 0
M  V30 3310 H 309.941 -0.615188 0.552696 0
M  V30 3311 H 312.487 -0.637097 1.57287 0
M  V30 3312 H 311.259 -1.77164 3.48896 0
M  V30 3313 H 310.882 -3.13383 2.44698 0
M  V30 3314 N 311.879 -1.3236 -0.855495 0
M  V30 3315 C 312.809 -1.23833 -1.97958 0
M  V30 3316 C 313.79 -0.122361 -1.69659 0
M  V30 3317 O 314.975 -0.30939 -1.9172 0
M  V30 3318 C 312.105 -0.959772 -3.33775 0
M  V30 3319 C 311.059 -2.03689 -3.76424 0
M  V30 3320 C 310.385 -1.61075 -5.09862 0
M  V30 3321 C 311.685 -3.4518 -3.9198 0
M  V30 3322 H 313.379 -2.1788 -2.0535 0
M  V30 3323 H 310.925 -1.04891 -0.986605 0
M  V30 3324 H 312.878 -0.886678 -4.11966 0
M  V30 3325 H 311.602 0.0163404 -3.26596 0
M  V30 3326 H 310.261 -2.10012 -3.00484 0
M  V30 3327 H 309.909 -0.622107 -4.99138 0
M  V30 3328 H 309.609 -2.33143 -5.39368 0
M  V30 3329 H 311.133 -1.55201 -5.90546 0
M  V30 3330 H 312.547 -3.4145 -4.60526 0
M  V30 3331 H 310.944 -4.1559 -4.32903 0
M  V30 3332 H 312.014 -3.84903 -2.94919 0
M  V30 3333 N 313.357 1.07166 -1.15556 0
M  V30 3334 C 314.768 1.6127 -0.940693 0
M  V30 3335 C 315.119 1.89251 0.517551 0
M  V30 3336 O 314.244 1.65937 1.38903 0
M  V30 3337 C 314.839 2.92993 -1.7012 0
M  V30 3338 C 313.398 3.43832 -1.53156 0
M  V30 3339 C 312.545 2.1786 -1.71558 0
M  V30 3340 H 315.496 0.90229 -1.30554 0
M  V30 3341 H 315.517 3.62007 -1.17181 0
M  V30 3342 H 315.029 2.72596 -2.76248 0
M  V30 3343 H 313.13 3.69307 -0.494294 0
M  V30 3344 H 313.243 4.19747 -2.30975 0
M  V30 3345 H 311.607 2.2765 -1.14225 0
M  V30 3346 H 312.39 1.99956 -2.79056 0
M  V30 3347 N 314.835 0.952656 1.25548 0
M  V30 3348 C 315.798 0.475794 2.24207 0
M  V30 3349 C 316.798 -0.419428 1.55234 0
M  V30 3350 O 317.988 -0.216994 1.72843 0
M  V30 3351 C 315.12 -0.312814 3.39462 0
M  V30 3352 H 316.313 1.34779 2.67908 0
M  V30 3353 H 313.866 0.735739 1.37901 0
M  V30 3354 H 314.601 -1.20257 3.01179 0
M  V30 3355 H 314.386 0.329404 3.90714 0
M  V30 3356 H 315.876 -0.635986 4.12729 0
M  V30 3357 N 316.313 -1.40141 0.720998 0
M  V30 3358 C 317.243 -2.33339 0.0867621 0
M  V30 3359 C 318.224 -1.53178 -0.739622 0
M  V30 3360 O 319.409 -1.81625 -0.687449 0
M  V30 3361 C 316.539 -3.37194 -0.831728 0
M  V30 3362 C 315.493 -4.27857 -0.110558 0
M  V30 3363 C 314.819 -5.22294 -1.14513 0
M  V30 3364 C 316.119 -5.11872 1.0385 0
M  V30 3365 H 317.813 -2.86626 0.865219 0
M  V30 3366 H 315.359 -1.37814 0.417516 0
M  V30 3367 H 317.312 -4.01335 -1.28485 0
M  V30 3368 H 316.036 -2.82314 -1.64214 0
M  V30 3369 H 314.695 -3.65176 0.322797 0
M  V30 3370 H 314.343 -4.63717 -1.94874 0
M  V30 3371 H 314.043 -5.83797 -0.667446 0
M  V30 3372 H 315.567 -5.89312 -1.59824 0
M  V30 3373 H 316.981 -5.69436 0.664482 0
M  V30 3374 H 315.378 -5.82445 1.4449 0
M  V30 3375 H 316.448 -4.4753 1.86668 0
M  V30 3376 N 317.792 -0.46758 -1.50504 0
M  V30 3377 C 318.702 0.33382 -2.32213 0
M  V30 3378 C 319.718 0.999323 -1.42441 0
M  V30 3379 O 320.894 0.988068 -1.75497 0
M  V30 3380 C 317.959 1.4035 -3.17022 0
M  V30 3381 C 317.02 0.754961 -4.2261 0
M  V30 3382 C 316.253 1.77367 -5.03365 0
M  V30 3383 O 316.476 2.99976 -4.8515 0
M  V30 3384 O 315.41 1.34744 -5.86624 0
M  V30 3385 H 319.236 -0.334067 -3.01857 0
M  V30 3386 H 316.821 -0.229496 -1.47627 0
M  V30 3387 H 318.703 2.02318 -3.69656 0
M  V30 3388 H 317.378 2.05492 -2.5011 0
M  V30 3389 H 316.285 0.0964244 -3.73976 0
M  V30 3390 H 317.618 0.146545 -4.91982 0
M  V30 3391 N 319.27 1.56325 -0.20005 0
M  V30 3392 C 320.686 1.58839 0.155716 0
M  V30 3393 C 320.886 1.21636 1.60645 0
M  V30 3394 O 319.942 0.941437 2.34293 0
M  V30 3395 C 321.255 3.0032 -0.151124 0
M  V30 3396 C 322.803 3.12866 -0.0916284 0
M  V30 3397 C 323.278 4.56488 -0.371845 0
M  V30 3398 N 324.769 4.62089 -0.320641 0
M  V30 3399 C 325.504 5.71116 -0.511243 0
M  V30 3400 N 325 6.88592 -0.762461 0
M  V30 3401 N 326.793 5.60335 -0.445157 0
M  V30 3402 H 318.944 1.78788 -1.14668 0
M  V30 3403 H 321.207 0.829996 -0.458051 0
M  V30 3404 H 320.913 3.32117 -1.15721 0
M  V30 3405 H 320.787 3.73257 0.543986 0
M  V30 3406 H 323.174 2.80878 0.905065 0
M  V30 3407 H 323.255 2.42304 -0.81989 0
M  V30 3408 H 322.899 4.89189 -1.36588 0
M  V30 3409 H 322.829 5.25246 0.377362 0
M  V30 3410 H 325.32 3.77665 -0.13329 0
M  V30 3411 H 325.633 7.67581 -0.896576 0
M  V30 3412 H 323.978 6.90387 -0.799412 0
M  V30 3413 H 327.169 4.67436 -0.249278 0
M  V30 3414 H 327.342 6.45243 -0.597116 0
M  V30 3415 N 320.748 -0.0735177 1.57428 0
M  V30 3416 C 321.711 -1.07192 2.02589 0
M  V30 3417 C 322.711 -1.31695 0.922661 0
M  V30 3418 O 323.901 -1.27445 1.18758 0
M  V30 3419 C 321.033 -2.41599 2.40506 0
M  V30 3420 H 322.226 -0.682727 2.92025 0
M  V30 3421 H 319.779 -0.319193 1.53006 0
M  V30 3422 H 320.514 -2.85354 1.5409 0
M  V30 3423 H 320.299 -2.25156 3.21009 0
M  V30 3424 H 321.789 -3.13367 2.76027 0
M  V30 3425 N 322.226 -1.5378 -0.344866 0
M  V30 3426 C 323.156 -1.84662 -1.42906 0
M  V30 3427 C 324.137 -0.701648 -1.54955 0
M  V30 3428 O 325.322 -0.953438 -1.69184 0
M  V30 3429 C 322.452 -2.05503 -2.79974 0
M  V30 3430 C 321.406 -3.21318 -2.82734 0
M  V30 3431 C 320.732 -3.2749 -4.22675 0
M  V30 3432 C 322.032 -4.59456 -2.48389 0
M  V30 3433 H 323.726 -2.75461 -1.17311 0
M  V30 3434 H 321.272 -1.32542 -0.562896 0
M  V30 3435 H 323.225 -2.25691 -3.55867 0
M  V30 3436 H 321.949 -1.11434 -3.07002 0
M  V30 3437 H 320.608 -3.00984 -2.09294 0
M  V30 3438 H 320.256 -2.31019 -4.4681 0
M  V30 3439 H 319.956 -4.05316 -4.25433 0
M  V30 3440 H 321.48 -3.49887 -5.00412 0
M  V30 3441 H 322.894 -4.79667 -3.13995 0
M  V30 3442 H 321.291 -5.39675 -2.62432 0
M  V30 3443 H 322.361 -4.63155 -1.4358 0
M  V30 3444 N 323.704 0.605807 -1.45491 0
M  V30 3445 C 324.636 1.73031 -1.5031 0
M  V30 3446 C 325.649 1.57968 -0.393687 0
M  V30 3447 O 326.838 1.65817 -0.660839 0
M  V30 3448 C 323.938 3.11049 -1.34543 0
M  V30 3449 C 323.111 3.52334 -2.59189 0
M  V30 3450 C 322.17 4.69323 -2.37954 0
M  V30 3451 O 321.196 4.7635 -3.11575 0
M  V30 3452 N 322.398 5.62705 -1.4263 0
M  V30 3453 H 325.163 1.6936 -2.4726 0
M  V30 3454 H 322.724 0.79114 -1.41254 0
M  V30 3455 H 324.716 3.87071 -1.18144 0
M  V30 3456 H 323.286 3.09217 -0.458623 0
M  V30 3457 H 322.506 2.66256 -2.90691 0
M  V30 3458 H 323.794 3.76677 -3.42041 0
M  V30 3459 H 323.192 5.59744 -0.818758 0
M  V30 3460 H 321.749 6.38252 -1.32202 0
M  V30 3461 N 325.182 1.32811 0.848464 0
M  V30 3462 C 326.459 1.14334 1.58704 0
M  V30 3463 C 326.839 -0.293948 2.09043 0
M  V30 3464 O 326.187 -1.29153 1.88499 0
M  V30 3465 C 326.397 2.17626 2.72837 0
M  V30 3466 C 327.745 2.51282 3.42261 0
M  V30 3467 O 328.769 2.16219 2.83068 0
M  V30 3468 O 327.628 3.11413 4.49093 0
M  V30 3469 H 324.722 0.441601 0.699226 0
M  V30 3470 H 327.268 1.44362 0.892053 0
M  V30 3471 H 326.04 3.14211 2.3321 0
M  V30 3472 H 325.663 1.88628 3.50008 0
M  V30 3473 N 326.66 -1.06551 1.16123 0
M  V30 3474 C 328.071 -1.60768 0.949232 0
M  V30 3475 C 328.422 -1.89523 -0.507508 0
M  V30 3476 O 327.547 -1.66671 -1.38021 0
M  V30 3477 C 328.142 -2.92086 1.71671 0
M  V30 3478 C 326.701 -3.43015 1.54977 0
M  V30 3479 C 325.848 -2.16947 1.72711 0
M  V30 3480 H 328.799 -0.895354 1.31031 0
M  V30 3481 H 328.82 -3.6138 1.19099 0
M  V30 3482 H 328.332 -2.71127 2.7769 0
M  V30 3483 H 326.433 -3.69039 0.513873 0
M  V30 3484 H 326.546 -4.18516 2.33198 0
M  V30 3485 H 324.91 -2.27041 1.15431 0
M  V30 3486 H 325.693 -1.98473 2.80113 0
M  V30 3487 N 328.138 -0.959301 -1.25041 0
M  V30 3488 C 329.086 -0.474437 -2.2771 0
M  V30 3489 C 330.08 0.457697 -1.631 0
M  V30 3490 O 331.286 0.333912 -1.76876 0
M  V30 3491 H 327.661 -0.134936 -0.739795 0
M  V30 3492 H 329.632 -1.35251 -2.65988 0
M  V30 3493 C 328.381 0.227884 -3.46952 0
M  V30 3494 H 327.704 -0.480248 -3.96905 0
M  V30 3495 H 329.144 0.531091 -4.20661 0
M  V30 3496 C 327.603 1.452 -3.04004 0
M  V30 3497 O 328.133 2.54949 -3.10426 0
M  V30 3498 N 326.339 1.31502 -2.59144 0
M  V30 3499 H 325.886 0.422065 -2.54119 0
M  V30 3500 H 325.844 2.13521 -2.30773 0
M  V30 3501 N 329.616 1.39756 -0.72842 0
M  V30 3502 C 330.862 2.00942 -0.273892 0
M  V30 3503 C 331.195 1.57656 1.13394 0
M  V30 3504 O 330.47 0.802434 1.77176 0
M  V30 3505 C 330.753 3.58211 -0.368346 0
M  V30 3506 C 330.606 4.11534 -1.81548 0
M  V30 3507 C 331.925 4.39372 0.253054 0
M  V30 3508 H 329.044 0.730047 -0.100996 0
M  V30 3509 H 331.686 1.66056 -0.923337 0
M  V30 3510 H 329.836 3.88061 0.184588 0
M  V30 3511 H 331.508 3.92431 -2.42478 0
M  V30 3512 H 329.751 3.65341 -2.33898 0
M  V30 3513 H 330.422 5.20682 -1.83288 0
M  V30 3514 H 332.898 4.15527 -0.218224 0
M  V30 3515 H 331.774 5.48677 0.156585 0
M  V30 3516 H 332.035 4.21358 1.33826 0
M  V30 3517 N 331.094 0.475555 1.50254 0
M  V30 3518 C 332.057 -0.305016 2.27161 0
M  V30 3519 C 333.057 -0.916519 1.32123 0
M  V30 3520 O 334.247 -0.785003 1.5551 0
M  V30 3521 C 331.379 -1.43496 3.09227 0
M  V30 3522 H 332.572 0.369511 2.97615 0
M  V30 3523 H 330.125 0.229747 1.54602 0
M  V30 3524 H 330.86 -2.14441 2.43281 0
M  V30 3525 H 330.645 -1.00223 3.79075 0
M  V30 3526 H 332.135 -1.98548 3.67381 0
M  V30 3527 N 332.573 -1.56217 0.208337 0
M  V30 3528 C 333.536 -2.18455 -0.693557 0
M  V30 3529 C 334.536 -1.14268 -1.13135 0
M  V30 3530 O 335.726 -1.39577 -1.0423 0
M  V30 3531 C 332.858 -2.79727 -1.94848 0
M  V30 3532 H 334.051 -2.99519 -0.15114 0
M  V30 3533 H 331.604 -1.56245 -0.041287 0
M  V30 3534 H 332.339 -2.02497 -2.53309 0
M  V30 3535 H 332.124 -3.56009 -1.64316 0
M  V30 3536 H 333.614 -3.27475 -2.59133 0
M  V30 3537 N 334.051 0.0651679 -1.57465 0
M  V30 3538 C 335.298 0.763063 -1.87573 0
M  V30 3539 C 335.626 1.77242 -0.800961 0
M  V30 3540 O 334.881 1.94651 0.202316 0
M  V30 3541 C 335.18 1.50081 -3.24362 0
M  V30 3542 C 334.846 0.630816 -4.46466 0
M  V30 3543 C 333.508 0.391082 -4.79608 0
M  V30 3544 C 335.86 0.0279465 -5.21193 0
M  V30 3545 C 333.188 -0.460894 -5.84887 0
M  V30 3546 C 335.54 -0.811522 -6.27373 0
M  V30 3547 C 334.204 -1.06106 -6.59013 0
M  V30 3548 H 333.474 0.279224 -0.686378 0
M  V30 3549 H 336.121 0.0236726 -1.91485 0
M  V30 3550 H 334.426 2.31258 -3.16271 0
M  V30 3551 H 336.123 2.04571 -3.44894 0
M  V30 3552 H 332.713 0.8278 -4.2053 0
M  V30 3553 H 336.897 0.200262 -4.95896 0
M  V30 3554 H 332.153 -0.662907 -6.07796 0
M  V30 3555 H 336.327 -1.28537 -6.84435 0
M  V30 3556 H 333.954 -1.723 -7.40417 0
M  V30 3557 N 335.529 1.53961 0.336706 0
M  V30 3558 C 336.462 1.77255 1.43722 0
M  V30 3559 C 337.44 0.62193 1.50236 0
M  V30 3560 O 338.624 0.857874 1.67847 0
M  V30 3561 C 335.751 1.87733 2.81912 0
M  V30 3562 C 334.797 3.09933 2.92991 0
M  V30 3563 S 335.63 4.68836 2.58753 0
M  V30 3564 C 336.786 4.82202 3.99039 0
M  V30 3565 H 337.019 2.70322 1.23748 0
M  V30 3566 H 334.552 1.44917 0.532777 0
M  V30 3567 H 336.51 1.94455 3.61521 0
M  V30 3568 H 335.171 0.956666 2.99177 0
M  V30 3569 H 334.364 3.1396 3.94265 0
M  V30 3570 H 333.966 3.01472 2.21338 0
M  V30 3571 H 336.258 4.64032 4.9364 0
M  V30 3572 H 337.201 5.84298 4.00002 0
M  V30 3573 H 337.609 4.10604 3.87382 0
M  V30 3574 N 337.007 -0.598083 1.45811 0
M  V30 3575 C 338.253 -1.35882 1.50545 0
M  V30 3576 C 338.586 -1.93616 0.150445 0
M  V30 3577 O 337.861 -1.75604 -0.83628 0
M  V30 3578 C 338.144 -2.49966 2.59208 0
M  V30 3579 C 337.997 -1.97367 4.04186 0
M  V30 3580 C 339.316 -3.52068 2.64076 0
M  V30 3581 H 336.435 -0.492717 0.548087 0
M  V30 3582 H 339.077 -0.673319 1.77669 0
M  V30 3583 H 337.227 -3.08443 2.3621 0
M  V30 3584 H 338.899 -1.43466 4.38423 0
M  V30 3585 H 337.142 -1.283 4.14393 0
M  V30 3586 H 337.813 -2.79649 4.75921 0
M  V30 3587 H 340.289 -3.03448 2.84708 0
M  V30 3588 H 339.165 -4.2937 3.41954 0
M  V30 3589 H 339.426 -4.08304 1.69531 0
M  V30 3590 N 338.485 -1.33259 -0.841409 0
M  V30 3591 C 339.395 -1.25332 -1.98316 0
M  V30 3592 C 340.411 -0.164364 -1.73222 0
M  V30 3593 O 341.587 -0.387486 -1.97637 0
M  V30 3594 C 338.652 -0.990078 -3.32262 0
M  V30 3595 C 337.713 -2.16879 -3.70489 0
M  V30 3596 C 336.946 -1.91801 -4.98044 0
M  V30 3597 O 337.169 -0.867075 -5.63771 0
M  V30 3598 O 336.103 -2.78267 -5.33714 0
M  V30 3599 H 339.929 -2.21344 -2.07944 0
M  V30 3600 H 337.514 -1.1328 -0.974058 0
M  V30 3601 H 339.396 -0.860321 -4.12524 0
M  V30 3602 H 338.071 -0.0602155 -3.23644 0
M  V30 3603 H 336.978 -2.35407 -2.90748 0
M  V30 3604 H 338.311 -3.0819 -3.8377 0
M  V30 3605 N 339.963 1.05934 -1.16686 0
M  V30 3606 C 341.374 1.60263 -0.957745 0
M  V30 3607 C 341.725 1.89789 0.49745 0
M  V30 3608 O 340.85 1.67401 1.37135 0
M  V30 3609 C 341.445 2.91172 -1.73218 0
M  V30 3610 C 340.004 3.42188 -1.56794 0
M  V30 3611 C 339.151 2.16028 -1.73859 0
M  V30 3612 H 342.102 0.888392 -1.31504 0
M  V30 3613 H 342.123 3.60744 -1.21014 0
M  V30 3614 H 341.635 2.6965 -2.79124 0
M  V30 3615 H 339.736 3.68762 -0.533437 0
M  V30 3616 H 339.849 4.17273 -2.35414 0
M  V30 3617 H 338.213 2.26426 -1.16633 0
M  V30 3618 H 338.996 1.96985 -2.81161 0
M  V30 3619 N 341.441 0.965919 1.2453 0
M  V30 3620 C 342.69 0.622437 1.91856 0
M  V30 3621 C 343.003 -0.846006 1.76358 0
M  V30 3622 O 344.209 -1.29993 2.38357 0
M  V30 3623 C 342.665 1.0626 3.43856 0
M  V30 3624 C 342.273 2.55437 3.68043 0
M  V30 3625 C 344.017 0.792183 4.17043 0
M  V30 3626 C 341.924 2.93196 5.13605 0
M  V30 3627 H 340.854 0.229092 0.718354 0
M  V30 3628 H 343.505 1.17189 1.41206 0
M  V30 3629 H 341.887 0.441476 3.93531 0
M  V30 3630 H 343.061 3.22665 3.28974 0
M  V30 3631 H 341.376 2.8007 3.08139 0
M  V30 3632 H 343.973 1.05031 5.24283 0
M  V30 3633 H 344.316 -0.271584 4.15413 0
M  V30 3634 H 344.849 1.37419 3.73311 0
M  V30 3635 H 341.588 3.98636 5.20355 0
M  V30 3636 H 341.108 2.30651 5.53679 0
M  V30 3637 H 342.787 2.83004 5.81823 0
M  V30 3638 N 342.919 -1.39368 0.735821 0
M  V30 3639 C 343.851 -2.2913 0.0567723 0
M  V30 3640 C 344.864 -1.46859 -0.702589 0
M  V30 3641 O 346.053 -1.69925 -0.546616 0
M  V30 3642 C 343.153 -3.25492 -0.943823 0
M  V30 3643 C 342.326 -4.36709 -0.24581 0
M  V30 3644 C 341.385 -5.13376 -1.15463 0
M  V30 3645 O 340.411 -5.65683 -0.631803 0
M  V30 3646 N 341.613 -5.24656 -2.48427 0
M  V30 3647 H 344.378 -2.88047 0.827582 0
M  V30 3648 H 341.939 -1.50957 0.585112 0
M  V30 3649 H 343.931 -3.73657 -1.55443 0
M  V30 3650 H 342.501 -2.676 -1.61583 0
M  V30 3651 H 341.721 -3.9041 0.545286 0
M  V30 3652 H 343.009 -5.08244 0.237891 0
M  V30 3653 H 342.407 -4.83679 -2.93379 0
M  V30 3654 H 340.964 -5.76258 -3.04582 0
M  V30 3655 N 344.397 -0.483516 -1.5 0
M  V30 3656 C 345.645 0.067027 -2.01989 0
M  V30 3657 C 345.966 1.3909 -1.36671 0
M  V30 3658 O 345.236 1.88978 -0.516152 0
M  V30 3659 H 343.816 0.0277606 -0.746484 0
M  V30 3660 H 346.478 -0.636773 -1.84204 0
M  V30 3661 H 345.574 0.209484 -3.11396 0
M  V30 3662 N 345.875 1.56104 -0.216619 0
M  V30 3663 C 346.785 2.23694 0.706982 0
M  V30 3664 C 347.801 1.24295 1.21765 0
M  V30 3665 O 348.977 1.57094 1.2603 0
M  V30 3666 C 346.042 2.8998 1.90033 0
M  V30 3667 C 345.103 4.04708 1.43213 0
M  V30 3668 C 344.336 4.67824 2.56859 0
M  V30 3669 O 344.559 4.29913 3.74874 0
M  V30 3670 O 343.493 5.56905 2.28343 0
M  V30 3671 H 347.319 3.03272 0.161235 0
M  V30 3672 H 344.904 1.49394 0.0136177 0
M  V30 3673 H 346.786 3.31837 2.59735 0
M  V30 3674 H 345.461 2.13365 2.43428 0
M  V30 3675 H 344.368 3.6743 0.70327 0
M  V30 3676 H 345.701 4.83051 0.944615 0
M  V30 3677 N 347.353 -0.0568162 1.57498 0
M  V30 3678 C 348.316 -1.05038 2.03715 0
M  V30 3679 C 349.316 -1.30709 0.936577 0
M  V30 3680 O 350.506 -1.26178 1.20103 0
M  V30 3681 C 347.638 -2.39034 2.43055 0
M  V30 3682 H 348.831 -0.651715 2.92733 0
M  V30 3683 H 346.384 -0.302947 1.53336 0
M  V30 3684 H 347.119 -2.83703 1.57108 0
M  V30 3685 H 346.904 -2.21739 3.2338 0
M  V30 3686 H 348.394 -3.10421 2.79336 0
M  V30 3687 N 348.832 -1.54138 -0.328536 0
M  V30 3688 C 350.08 -1.71765 -1.06496 0
M  V30 3689 C 350.401 -0.49149 -1.88704 0
M  V30 3690 O 349.671 0.494539 -1.89555 0
M  V30 3691 H 348.251 -0.633295 -0.396164 0
M  V30 3692 H 350.913 -1.91429 -0.366176 0
M  V30 3693 H 350.009 -2.5951 -1.73381 0
M  V30 3694 N 350.31 0.590341 -1.46126 0
M  V30 3695 C 351.556 1.35082 -1.51264 0
M  V30 3696 C 351.889 1.93534 -0.160711 0
M  V30 3697 O 351.164 1.76045 0.826956 0
M  V30 3698 C 351.447 2.48588 -2.6053 0
M  V30 3699 C 351.3 1.95221 -4.05227 0
M  V30 3700 C 352.619 3.50662 -2.6594 0
M  V30 3701 H 349.738 0.489803 -0.550692 0
M  V30 3702 H 352.38 0.663887 -1.78024 0
M  V30 3703 H 350.53 3.07186 -2.37843 0
M  V30 3704 H 352.202 1.41139 -4.39178 0
M  V30 3705 H 350.445 1.26101 -4.15068 0
M  V30 3706 H 351.116 2.77121 -4.77397 0
M  V30 3707 H 353.592 3.01934 -2.86313 0
M  V30 3708 H 352.468 4.27551 -3.44226 0
M  V30 3709 H 352.729 4.07399 -1.71694 0
M  V30 3710 N 351.788 1.33704 0.83433 0
M  V30 3711 C 353.034 1.25603 1.59222 0
M  V30 3712 C 353.367 -0.176659 1.93395 0
M  V30 3713 O 352.642 -1.11915 1.59076 0
M  V30 3714 C 352.925 2.13576 2.89926 0
M  V30 3715 C 352.778 3.65326 2.62406 0
M  V30 3716 C 354.097 2.01238 3.91397 0
M  V30 3717 H 351.216 0.457613 0.577719 0
M  V30 3718 H 353.858 1.63848 0.961972 0
M  V30 3719 H 352.008 1.8109 3.43713 0
M  V30 3720 H 353.68 4.08124 2.15017 0
M  V30 3721 H 351.923 3.8698 1.96033 0
M  V30 3722 H 352.594 4.22232 3.55562 0
M  V30 3723 H 355.07 2.29738 3.46929 0
M  V30 3724 H 353.946 2.65036 4.80673 0
M  V30 3725 H 354.207 0.985951 4.30966 0
M  V30 3726 N 353.266 -1.05314 1.17247 0
M  V30 3727 C 354.512 -1.78557 0.961513 0
M  V30 3728 C 354.845 -1.87419 -0.508697 0
M  V30 3729 O 354.12 -1.37307 -1.37757 0
M  V30 3730 C 354.403 -3.22514 1.60176 0
M  V30 3731 C 354.256 -3.21673 3.14399 0
M  V30 3732 C 355.575 -4.20318 1.30463 0
M  V30 3733 H 352.694 -0.6482 0.350723 0
M  V30 3734 H 355.336 -1.23102 1.44727 0
M  V30 3735 H 353.486 -3.69867 1.18871 0
M  V30 3736 H 355.158 -2.82405 3.64753 0
M  V30 3737 H 353.401 -2.60048 3.47214 0
M  V30 3738 H 354.072 -4.23271 3.54324 0
M  V30 3739 H 356.548 -3.81454 1.66229 0
M  V30 3740 H 355.424 -5.19289 1.77848 0
M  V30 3741 H 355.685 -4.41526 0.22521 0
M  V30 3742 N 354.744 -0.972509 -1.24016 0
M  V30 3743 C 356.155 -0.67517 -1.74064 0
M  V30 3744 C 356.506 0.808939 -1.78747 0
M  V30 3745 O 355.631 1.63286 -1.42009 0
M  V30 3746 C 356.226 -1.21889 -3.16115 0
M  V30 3747 C 354.785 -0.971358 -3.6365 0
M  V30 3748 C 353.932 -1.35134 -2.42145 0
M  V30 3749 H 356.883 -1.14727 -1.09651 0
M  V30 3750 H 356.904 -0.587489 -3.75937 0
M  V30 3751 H 356.416 -2.29906 -3.12674 0
M  V30 3752 H 354.517 0.0930686 -3.72484 0
M  V30 3753 H 354.63 -1.62039 -4.50866 0
M  V30 3754 H 352.994 -0.769751 -2.4279 0
M  V30 3755 H 353.777 -2.4411 -2.41381 0
M  V30 3756 N 356.222 1.38976 -0.743202 0
M  V30 3757 C 357.499 1.94351 -0.220705 0
M  V30 3758 C 357.879 1.67935 1.2791 0
M  V30 3759 O 357.227 1.01211 2.04862 0
M  V30 3760 C 357.437 3.44426 -0.563171 0
M  V30 3761 C 358.785 4.2144 -0.517046 0
M  V30 3762 O 359.809 3.52661 -0.500846 0
M  V30 3763 O 358.668 5.44032 -0.518806 0
M  V30 3764 H 355.762 0.825879 -0.043047 0
M  V30 3765 H 358.308 1.48429 -0.822618 0
M  V30 3766 H 357.08 3.5712 -1.59941 0
M  V30 3767 H 356.703 3.97543 0.0672883 0
M  V30 3768 N 357.7 0.491464 1.49741 0
M  V30 3769 C 359.111 0.0413169 1.86654 0
M  V30 3770 C 359.462 -1.36985 1.40462 0
M  V30 3771 O 358.587 -2.01917 0.778354 0
M  V30 3772 C 359.182 0.0682023 3.38731 0
M  V30 3773 C 357.741 -0.32656 3.74981 0
M  V30 3774 C 356.888 0.444888 2.73708 0
M  V30 3775 H 359.839 0.704733 1.42194 0
M  V30 3776 H 359.86 -0.729322 3.73445 0
M  V30 3777 H 359.372 1.09539 3.72321 0
M  V30 3778 H 357.473 -1.35734 3.46997 0
M  V30 3779 H 357.586 -0.013741 4.79098 0
M  V30 3780 H 355.95 -0.104062 2.54487 0
M  V30 3781 H 356.733 1.47197 3.10142 0
M  V30 3782 N 359.178 -1.55987 0.224894 0
M  V30 3783 C 360.426 -1.97998 -0.405099 0
M  V30 3784 C 360.747 -1.11387 -1.60056 0
M  V30 3785 O 360.017 -0.191645 -1.9496 0
M  V30 3786 H 358.597 -0.731235 -0.152658 0
M  V30 3787 H 361.259 -1.92279 0.318567 0
M  V30 3788 H 360.355 -3.03463 -0.729167 0
M  V30 3789 N 360.656 0.0484629 -1.57525 0
M  V30 3790 C 361.886 0.754326 -1.92337 0
M  V30 3791 C 362.294 1.70443 -0.82132 0
M  V30 3792 O 361.637 1.82466 0.21254 0
M  V30 3793 C 361.699 1.58231 -3.22805 0
M  V30 3794 C 361.363 0.799074 -4.4996 0
M  V30 3795 C 362.36 0.1079 -5.19788 0
M  V30 3796 C 360.045 0.759345 -4.96527 0
M  V30 3797 C 362.039 -0.612516 -6.3445 0
M  V30 3798 C 359.726 0.0351713 -6.1109 0
M  V30 3799 C 360.724 -0.649537 -6.79904 0
M  V30 3800 O 360.412 -1.36199 -7.92278 0
M  V30 3801 H 360.144 0.218257 -0.639797 0
M  V30 3802 H 362.698 0.0159295 -2.05394 0
M  V30 3803 H 360.928 2.36406 -3.06021 0
M  V30 3804 H 362.617 2.16898 -3.43089 0
M  V30 3805 H 363.383 0.129748 -4.84826 0
M  V30 3806 H 359.262 1.28177 -4.42822 0
M  V30 3807 H 362.806 -1.14751 -6.88097 0
M  V30 3808 H 358.703 0.0113314 -6.45499 0
M  V30 3809 H 359.471 -1.27366 -8.0853 0
M  V30 3810 N 362.134 1.5431 0.320358 0
M  V30 3811 C 363.064 1.86912 1.3995 0
M  V30 3812 C 364.045 0.726211 1.53819 0
M  V30 3813 O 365.23 0.980233 1.67646 0
M  V30 3814 C 362.36 2.09932 2.7667 0
M  V30 3815 C 361.314 3.25776 2.77586 0
M  V30 3816 C 360.64 3.34173 4.17412 0
M  V30 3817 C 361.94 4.6335 2.41048 0
M  V30 3818 H 363.634 2.77292 1.12914 0
M  V30 3819 H 361.18 1.33421 0.541738 0
M  V30 3820 H 363.133 2.31324 3.52232 0
M  V30 3821 H 361.857 1.16304 3.0519 0
M  V30 3822 H 360.516 3.04276 2.04479 0
M  V30 3823 H 360.164 2.38098 4.43078 0
M  V30 3824 H 359.864 4.12033 4.18931 0
M  V30 3825 H 361.388 3.57803 4.94782 0
M  V30 3826 H 362.802 4.84602 3.06324 0
M  V30 3827 H 361.199 5.43782 2.53813 0
M  V30 3828 H 362.269 4.65381 1.36193 0
M  V30 3829 N 363.613 -0.582584 1.46437 0
M  V30 3830 C 364.546 -1.70633 1.51524 0
M  V30 3831 C 365.524 -1.58349 0.369351 0
M  V30 3832 O 366.708 -1.79563 0.573516 0
M  V30 3833 C 363.835 -3.08687 1.39392 0
M  V30 3834 C 362.881 -3.3949 2.58164 0
M  V30 3835 S 363.714 -3.31548 4.20519 0
M  V30 3836 C 364.87 -4.72139 4.10896 0
M  V30 3837 H 365.103 -1.66058 2.46601 0
M  V30 3838 H 362.636 -0.761337 1.34324 0
M  V30 3839 H 364.594 -3.8833 1.33079 0
M  V30 3840 H 363.255 -3.10751 0.457436 0
M  V30 3841 H 362.448 -4.40071 2.45669 0
M  V30 3842 H 362.05 -2.67415 2.61468 0
M  V30 3843 H 364.342 -5.62527 3.77584 0
M  V30 3844 H 365.285 -4.89692 5.11476 0
M  V30 3845 H 365.693 -4.48995 3.42146 0
M  V30 3846 N 365.091 -1.34144 -0.827227 0
M  V30 3847 C 366.339 -1.26009 -1.58007 0
M  V30 3848 C 366.66 0.170971 -1.94249 0
M  V30 3849 O 365.93 1.10256 -1.61927 0
M  V30 3850 H 364.51 -0.463414 -0.585881 0
M  V30 3851 H 367.172 -1.68005 -0.987951 0
M  V30 3852 H 366.268 -1.86187 -2.50481 0
M  V30 3853 N 366.569 1.04691 -1.17803 0
M  V30 3854 C 367.815 1.78045 -0.970969 0
M  V30 3855 C 368.148 1.87686 0.498751 0
M  V30 3856 O 367.423 1.38035 1.37027 0
M  V30 3857 C 367.706 3.2166 -1.61884 0
M  V30 3858 C 367.559 3.20001 -3.161 0
M  V30 3859 C 368.878 4.1962 -1.3269 0
M  V30 3860 H 365.997 0.64633 -0.354155 0
M  V30 3861 H 368.639 1.22333 -1.45378 0
M  V30 3862 H 366.789 3.69232 -1.20831 0
M  V30 3863 H 368.461 2.80467 -3.66246 0
M  V30 3864 H 366.704 2.58203 -3.48588 0
M  V30 3865 H 367.375 4.21386 -3.56564 0
M  V30 3866 H 369.851 3.80567 -1.68249 0
M  V30 3867 H 368.727 5.18339 -1.80599 0
M  V30 3868 H 368.988 4.414 -0.248622 0
M  V30 3869 N 368.047 0.979072 1.23499 0
M  V30 3870 C 369.463 0.687475 1.44034 0
M  V30 3871 C 369.663 -0.746801 1.8715 0
M  V30 3872 O 368.719 -1.51939 2.0167 0
M  V30 3873 C 370.032 1.68127 2.49307 0
M  V30 3874 C 371.58 1.69516 2.63122 0
M  V30 3875 C 372.055 2.67723 3.71603 0
M  V30 3876 N 373.546 2.66233 3.79044 0
M  V30 3877 C 374.281 3.38891 4.62537 0
M  V30 3878 N 373.777 4.21103 5.50131 0
M  V30 3879 N 375.57 3.27661 4.56721 0
M  V30 3880 H 367.721 1.90559 0.938135 0
M  V30 3881 H 369.984 0.821051 0.473897 0
M  V30 3882 H 369.69 2.70693 2.2454 0
M  V30 3883 H 369.564 1.46306 3.4767 0
M  V30 3884 H 371.951 0.676561 2.8724 0
M  V30 3885 H 372.032 1.95404 1.65079 0
M  V30 3886 H 371.676 3.69724 3.48233 0
M  V30 3887 H 371.606 2.39111 4.69184 0
M  V30 3888 H 374.097 2.06568 3.16446 0
M  V30 3889 H 374.41 4.73403 6.10827 0
M  V30 3890 H 372.755 4.25195 5.49759 0
M  V30 3891 H 375.946 2.62887 3.87309 0
M  V30 3892 H 376.119 3.84547 5.21562 0
M  V30 3893 N 369.525 -1.3858 0.750561 0
M  V30 3894 C 370.435 -2.34278 0.122825 0
M  V30 3895 C 371.451 -1.59116 -0.704131 0
M  V30 3896 O 372.627 -1.91326 -0.628987 0
M  V30 3897 C 369.692 -3.38221 -0.762086 0
M  V30 3898 C 368.753 -4.29227 0.078896 0
M  V30 3899 C 367.986 -5.28205 -0.763874 0
M  V30 3900 O 368.209 -5.34112 -2.00201 0
M  V30 3901 O 367.143 -6.01618 -0.18428 0
M  V30 3902 H 370.969 -2.89649 0.913088 0
M  V30 3903 H 368.554 -1.40374 0.511417 0
M  V30 3904 H 370.436 -4.01872 -1.26793 0
M  V30 3905 H 369.111 -2.85211 -1.5309 0
M  V30 3906 H 368.018 -3.68747 0.630621 0
M  V30 3907 H 369.351 -4.85484 0.810289 0
M  V30 3908 N 371.003 -0.499398 -1.49478 0
M  V30 3909 C 371.933 0.269244 -2.31943 0
M  V30 3910 C 372.914 0.964054 -1.40143 0
M  V30 3911 O 374.099 0.955767 -1.69052 0
M  V30 3912 C 371.229 1.33504 -3.20615 0
M  V30 3913 C 370.183 0.760202 -4.21195 0
M  V30 3914 C 369.509 1.9264 -4.98792 0
M  V30 3915 C 370.809 -0.247661 -5.21712 0
M  V30 3916 H 372.503 -0.419082 -2.96452 0
M  V30 3917 H 370.049 -0.202988 -1.42562 0
M  V30 3918 H 372.002 1.88048 -3.77115 0
M  V30 3919 H 370.726 2.05253 -2.54045 0
M  V30 3920 H 369.385 0.23653 -3.65836 0
M  V30 3921 H 369.033 2.63154 -4.28671 0
M  V30 3922 H 368.733 1.54785 -5.66847 0
M  V30 3923 H 370.257 2.4762 -5.58137 0
M  V30 3924 H 371.671 0.209579 -5.72917 0
M  V30 3925 H 370.068 -0.541962 -5.97648 0
M  V30 3926 H 371.138 -1.16409 -4.7072 0
M  V30 3927 N 372.481 1.55866 -0.233164 0
M  V30 3928 C 373.721 2.00506 0.397078 0
M  V30 3929 C 374.085 1.1176 1.56121 0
M  V30 3930 O 375.286 1.45796 2.25825 0
M  V30 3931 C 373.557 3.4811 0.809601 0
M  V30 3932 S 375.116 4.14765 1.43231 0
M  V30 3933 H 371.934 0.699828 0.125547 0
M  V30 3934 H 374.536 1.92429 -0.345177 0
M  V30 3935 H 373.24 4.10373 -0.0471601 0
M  V30 3936 H 372.771 3.60085 1.58438 0
M  V30 3937 H 374.786 4.14914 2.7214 0
M  V30 3938 N 373.959 -0.0401083 1.57549 0
M  V30 3939 C 375.187 -0.745196 1.93014 0
M  V30 3940 C 375.602 -1.6948 0.831984 0
M  V30 3941 O 374.959 -1.81482 -0.192463 0
M  V30 3942 C 375.01 -1.51176 3.28372 0
M  V30 3943 O 374.731 -0.600284 4.33968 0
M  V30 3944 C 376.232 -2.315 3.78051 0
M  V30 3945 H 373.452 -0.210088 0.637263 0
M  V30 3946 H 375.996 -0.000924689 2.045 0
M  V30 3947 H 374.151 -2.20801 3.18317 0
M  V30 3948 H 374.565 -1.13669 5.12035 0
M  V30 3949 H 376.039 -2.80697 4.75303 0
M  V30 3950 H 376.516 -3.12436 3.08675 0
M  V30 3951 H 377.122 -1.66971 3.91153 0
M  V30 3952 N 375.437 -1.54477 -0.31217 0
M  V30 3953 C 376.853 -1.45442 -0.657185 0
M  V30 3954 C 377.053 -0.63653 -1.91182 0
M  V30 3955 O 376.109 -0.139815 -2.52113 0
M  V30 3956 C 377.422 -2.89287 -0.82058 0
M  V30 3957 C 378.97 -2.9926 -0.917188 0
M  V30 3958 C 379.445 -4.44279 -1.11267 0
M  V30 3959 N 380.936 -4.4794 -1.17914 0
M  V30 3960 C 381.671 -5.57318 -1.34848 0
M  V30 3961 N 381.167 -6.76642 -1.48752 0
M  V30 3962 N 382.96 -5.44986 -1.37647 0
M  V30 3963 H 375.111 -2.06129 0.512313 0
M  V30 3964 H 377.374 -0.933088 0.167485 0
M  V30 3965 H 377.08 -3.51687 0.0302604 0
M  V30 3966 H 376.954 -3.36061 -1.71298 0
M  V30 3967 H 379.341 -2.36981 -1.75852 0
M  V30 3968 H 379.422 -2.558 -0.00101257 0
M  V30 3969 H 379.066 -5.07149 -0.27614 0
M  V30 3970 H 378.996 -4.85359 -2.04289 0
M  V30 3971 H 381.487 -3.61969 -1.08567 0
M  V30 3972 H 381.8 -7.55758 -1.61397 0
M  V30 3973 H 380.145 -6.79529 -1.45828 0
M  V30 3974 H 383.336 -4.50715 -1.26388 0
M  V30 3975 H 383.509 -6.3028 -1.50501 0
M  V30 3976 N 376.915 0.57481 -1.46744 0
M  V30 3977 C 377.865 1.67838 -1.54319 0
M  V30 3978 C 378.849 1.55759 -0.40346 0
M  V30 3979 O 380.041 1.6454 -0.652347 0
M  V30 3980 C 377.17 3.06624 -1.5439 0
M  V30 3981 C 376.256 3.23971 -2.73685 0
M  V30 3982 N 376.647 3.11447 -3.9854 0
M  V30 3983 C 374.945 3.5493 -2.70075 0
M  V30 3984 C 375.646 3.31011 -4.78337 0
M  V30 3985 N 374.622 3.56533 -4.10348 0
M  V30 3986 H 378.424 1.56698 -2.48642 0
M  V30 3987 H 375.938 0.779071 -1.42493 0
M  V30 3988 H 377.935 3.85839 -1.57905 0
M  V30 3989 H 376.595 3.1889 -0.611493 0
M  V30 3990 H 377.606 2.89145 -4.29669 0
M  V30 3991 H 374.283 3.73832 -1.85893 0
M  V30 3992 H 375.673 3.26445 -5.87268 0
M  V30 3993 N 378.394 1.34581 0.820102 0
M  V30 3994 C 379.326 1.22236 1.93884 0
M  V30 3995 C 380.339 0.148776 1.62119 0
M  V30 3996 O 381.528 0.400877 1.7394 0
M  V30 3997 C 378.628 0.856542 3.27897 0
M  V30 3998 C 377.801 2.02569 3.87666 0
M  V30 3999 C 376.86 1.63782 5.00062 0
M  V30 4000 O 375.886 2.35477 5.18208 0
M  V30 4001 N 377.088 0.553611 5.77854 0
M  V30 4002 H 379.853 2.18615 2.05006 0
M  V30 4003 H 377.414 1.27573 0.99683 0
M  V30 4004 H 379.406 0.578806 4.0054 0
M  V30 4005 H 377.976 -0.0171518 3.12595 0
M  V30 4006 H 377.196 2.468 3.07382 0
M  V30 4007 H 378.484 2.80752 4.24329 0
M  V30 4008 H 377.882 -0.0423528 5.65684 0
M  V30 4009 H 376.439 0.335614 6.50935 0
M  V30 4010 N 379.872 -1.04064 1.18357 0
M  V30 4011 C 381.118 -1.77528 0.980397 0
M  V30 4012 C 381.451 -1.87948 -0.48879 0
M  V30 4013 O 380.726 -1.3876 -1.36293 0
M  V30 4014 C 381.009 -3.20797 1.63588 0
M  V30 4015 C 380.862 -3.1832 3.17793 0
M  V30 4016 C 382.181 -4.18911 1.34914 0
M  V30 4017 H 379.3 -0.644443 0.357578 0
M  V30 4018 H 381.942 -1.2156 1.46024 0
M  V30 4019 H 380.092 -3.68586 1.22788 0
M  V30 4020 H 381.764 -2.78521 3.67728 0
M  V30 4021 H 380.007 -2.56351 3.49952 0
M  V30 4022 H 380.678 -4.19489 3.58794 0
M  V30 4023 H 383.154 -3.7967 1.70265 0
M  V30 4024 H 382.03 -5.17374 1.83346 0
M  V30 4025 H 382.291 -4.41262 0.272027 0
M  V30 4026 N 381.35 -0.985608 -1.22978 0
M  V30 4027 C 382.28 -0.549649 -2.26939 0
M  V30 4028 C 383.261 0.419803 -1.64838 0
M  V30 4029 O 384.446 0.31203 -1.91677 0
M  V30 4030 C 381.576 0.143652 -3.47003 0
M  V30 4031 C 380.53 -0.743606 -4.21491 0
M  V30 4032 C 379.856 0.0822027 -5.34637 0
M  V30 4033 C 381.156 -2.03694 -4.80943 0
M  V30 4034 H 382.85 -1.41862 -2.63658 0
M  V30 4035 H 380.396 -0.683571 -1.26741 0
M  V30 4036 H 382.349 0.459985 -4.18882 0
M  V30 4037 H 381.073 1.04711 -3.09359 0
M  V30 4038 H 379.732 -1.04347 -3.51436 0
M  V30 4039 H 379.38 0.986359 -4.93234 0
M  V30 4040 H 379.08 -0.508377 -5.85397 0
M  V30 4041 H 380.604 0.392797 -6.09335 0
M  V30 4042 H 382.018 -1.78504 -5.44802 0
M  V30 4043 H 380.415 -2.57573 -5.42011 0
M  V30 4044 H 381.485 -2.72042 -4.01399 0
M  V30 4045 N 382.828 1.3818 -0.7579 0
M  V30 4046 C 384.075 2.00019 -0.315985 0
M  V30 4047 C 384.403 1.60163 1.10355 0
M  V30 4048 O 383.658 0.83264 1.77103 0
M  V30 4049 C 383.957 3.55252 -0.391218 0
M  V30 4050 C 383.623 4.14834 -1.76702 0
M  V30 4051 C 382.285 4.30821 -2.14353 0
M  V30 4052 C 384.637 4.47658 -2.66931 0
M  V30 4053 C 381.965 4.76928 -3.41696 0
M  V30 4054 C 384.317 4.95184 -3.93669 0
M  V30 4055 C 382.981 5.09377 -4.31383 0
M  V30 4056 H 382.251 0.731923 -0.115627 0
M  V30 4057 H 384.898 1.65161 -0.969223 0
M  V30 4058 H 383.203 3.90273 0.34558 0
M  V30 4059 H 384.9 4.00988 -0.030805 0
M  V30 4060 H 381.49 4.02808 -1.46435 0
M  V30 4061 H 385.674 4.34904 -2.39106 0
M  V30 4062 H 380.93 4.86103 -3.70829 0
M  V30 4063 H 385.104 5.19551 -4.63724 0
M  V30 4064 H 382.731 5.44865 -5.30119 0
M  V30 4065 N 384.306 0.507319 1.49211 0
M  V30 4066 C 385.555 -0.0368315 2.01666 0
M  V30 4067 C 385.868 -1.37459 1.39156 0
M  V30 4068 O 387.074 -2.00579 1.82976 0
M  V30 4069 C 385.53 -0.116089 3.59713 0
M  V30 4070 C 385.138 1.2154 4.31198 0
M  V30 4071 C 386.882 -0.610268 4.2009 0
M  V30 4072 C 384.789 1.09796 5.81119 0
M  V30 4073 H 383.719 -0.0175376 0.753796 0
M  V30 4074 H 386.37 0.647691 1.71689 0
M  V30 4075 H 384.752 -0.8652 3.86433 0
M  V30 4076 H 385.926 1.9783 4.16173 0
M  V30 4077 H 384.241 1.64352 3.82593 0
M  V30 4078 H 386.838 -0.715742 5.29888 0
M  V30 4079 H 387.181 -1.61064 3.8388 0
M  V30 4080 H 387.714 0.0824916 3.97714 0
M  V30 4081 H 384.453 2.0728 6.21864 0
M  V30 4082 H 383.973 0.376058 5.9862 0
M  V30 4083 H 385.652 0.779281 6.4229 0
M  V30 4084 N 385.784 -1.5574 0.241426 0
M  V30 4085 C 386.747 -2.19877 -0.647063 0
M  V30 4086 C 387.747 -1.16642 -1.10686 0
M  V30 4087 O 388.937 -1.41757 -1.01245 0
M  V30 4088 C 386.069 -2.83797 -1.88871 0
M  V30 4089 H 387.262 -2.99772 -0.087574 0
M  V30 4090 H 384.815 -1.56298 -0.00813574 0
M  V30 4091 H 385.55 -2.07824 -2.48957 0
M  V30 4092 H 385.335 -3.59414 -1.56728 0
M  V30 4093 H 386.825 -3.32898 -2.52129 0
M  V30 4094 N 387.262 0.0317525 -1.57568 0
M  V30 4095 C 388.539 0.758366 -1.803 0
M  V30 4096 C 388.919 1.93718 -0.838845 0
M  V30 4097 O 388.267 2.28187 0.119571 0
M  V30 4098 C 388.477 1.19392 -3.27943 0
M  V30 4099 C 389.825 1.61094 -3.92854 0
M  V30 4100 O 390.849 1.28857 -3.32076 0
M  V30 4101 O 389.708 2.20918 -4.99858 0
M  V30 4102 H 386.802 0.366514 -0.741348 0
M  V30 4103 H 389.348 0.00873765 -1.69698 0
M  V30 4104 H 388.12 0.352275 -3.89711 0
M  V30 4105 H 387.743 2.00365 -3.43424 0
M  V30 4106 N 388.74 1.54641 0.303973 0
M  V30 4107 C 389.65 1.88439 1.39743 0
M  V30 4108 C 390.666 0.778239 1.55626 0
M  V30 4109 O 391.842 1.07442 1.70347 0
M  V30 4110 C 388.907 2.12212 2.74166 0
M  V30 4111 C 387.968 3.35936 2.67293 0
M  V30 4112 C 387.201 3.58566 3.95305 0
M  V30 4113 O 387.424 2.84263 4.9452 0
M  V30 4114 O 386.358 4.52078 3.97378 0
M  V30 4115 H 390.184 2.81458 1.14083 0
M  V30 4116 H 387.769 1.40793 0.499768 0
M  V30 4117 H 389.651 2.29067 3.53704 0
M  V30 4118 H 388.326 1.22379 2.99675 0
M  V30 4119 H 387.233 3.24448 1.86237 0
M  V30 4120 H 388.566 4.2589 2.46736 0
M  V30 4121 N 390.218 -0.567019 1.47046 0
M  V30 4122 C 391.467 -1.32091 1.5243 0
M  V30 4123 C 391.78 -1.94704 0.187021 0
M  V30 4124 O 392.986 -2.7124 0.118771 0
M  V30 4125 C 391.442 -2.39479 2.68659 0
M  V30 4126 C 391.05 -1.831 4.08874 0
M  V30 4127 C 392.794 -3.16111 2.83327 0
M  V30 4128 C 390.701 -2.8821 5.16419 0
M  V30 4129 H 389.631 -0.496629 0.56734 0
M  V30 4130 H 392.282 -0.603354 1.73297 0
M  V30 4131 H 390.664 -3.14105 2.41152 0
M  V30 4132 H 391.838 -1.14913 4.46242 0
M  V30 4133 H 390.153 -1.19085 3.99008 0
M  V30 4134 H 392.75 -3.94585 3.60842 0
M  V30 4135 H 393.093 -3.69686 1.91411 0
M  V30 4136 H 393.626 -2.48595 3.10556 0
M  V30 4137 H 390.365 -2.39504 6.10179 0
M  V30 4138 H 389.885 -3.54839 4.8358 0
M  V30 4139 H 391.564 -3.51881 5.42945 0
M  V30 4140 N 391.696 -1.35014 -0.812953 0
M  V30 4141 C 392.628 -1.23262 -1.93233 0
M  V30 4142 C 393.641 -0.157371 -1.62038 0
M  V30 4143 O 394.83 -0.410096 -1.73725 0
M  V30 4144 C 391.93 -0.87392 -3.27438 0
M  V30 4145 C 391.103 -2.04622 -3.86586 0
M  V30 4146 C 390.162 -1.66432 -4.99186 0
M  V30 4147 O 389.188 -2.38222 -5.16951 0
M  V30 4148 N 390.39 -0.584248 -5.77552 0
M  V30 4149 H 393.155 -2.19699 -2.03844 0
M  V30 4150 H 390.716 -1.281 -0.99005 0
M  V30 4151 H 392.708 -0.600039 -4.00227 0
M  V30 4152 H 391.278 0.00057392 -3.126 0
M  V30 4153 H 390.498 -2.48427 -3.06068 0
M  V30 4154 H 391.786 -2.82999 -4.22835 0
M  V30 4155 H 391.184 0.0123526 -5.65699 0
M  V30 4156 H 389.741 -0.37013 -6.50748 0
M  V30 4157 N 393.175 1.03435 -1.18907 0
M  V30 4158 C 394.403 1.80381 -1.01342 0
M  V30 4159 C 394.818 1.83649 0.438005 0
M  V30 4160 O 394.175 1.27655 1.30424 0
M  V30 4161 C 394.226 3.25689 -1.56873 0
M  V30 4162 O 393.947 3.22673 -2.96334 0
M  V30 4163 C 395.448 4.19255 -1.44014 0
M  V30 4164 H 392.668 0.56784 -0.35749 0
M  V30 4165 H 395.212 1.30317 -1.576 0
M  V30 4166 H 393.367 3.72962 -1.04777 0
M  V30 4167 H 393.781 4.13748 -3.22355 0
M  V30 4168 H 395.255 5.19123 -1.87657 0
M  V30 4169 H 395.732 4.37467 -0.389815 0
M  V30 4170 H 396.338 3.77851 -1.95214 0
M  V30 4171 N 394.653 0.992116 1.22453 0
M  V30 4172 C 395.901 0.666215 1.90804 0
M  V30 4173 C 396.222 -0.804152 1.77647 0
M  V30 4174 O 395.492 -1.57629 1.16318 0
M  V30 4175 H 394.072 0.243423 0.706225 0
M  V30 4176 H 396.734 1.25845 1.48825 0
M  V30 4177 H 395.83 0.928069 2.97982 0
M  V30 4178 N 396.131 -1.37776 0.765217 0
M  V30 4179 C 397.061 -2.32945 0.160953 0
M  V30 4180 C 398.042 -1.55454 -0.690516 0
M  V30 4181 O 399.227 -1.83721 -0.629318 0
M  V30 4182 C 396.357 -3.39669 -0.724031 0
M  V30 4183 C 395.311 -4.27992 0.0256173 0
M  V30 4184 C 394.637 -5.25673 -0.978383 0
M  V30 4185 C 395.937 -5.08309 1.20082 0
M  V30 4186 H 397.631 -2.83728 0.955969 0
M  V30 4187 H 395.177 -1.36416 0.461149 0
M  V30 4188 H 397.13 -4.05219 -1.15652 0
M  V30 4189 H 395.854 -2.87396 -1.5515 0
M  V30 4190 H 394.513 -3.63964 0.438812 0
M  V30 4191 H 394.161 -4.69682 -1.80022 0
M  V30 4192 H 393.861 -5.85625 -0.481378 0
M  V30 4193 H 395.385 -5.94098 -1.40995 0
M  V30 4194 H 396.799 -5.67034 0.845307 0
M  V30 4195 H 395.196 -5.77554 1.62947 0
M  V30 4196 H 396.266 -4.41365 2.00811 0
M  V30 4197 N 397.609 -0.515225 -1.4894 0
M  V30 4198 C 398.572 0.244681 -2.2789 0
M  V30 4199 C 399.572 0.881166 -1.34507 0
M  V30 4200 O 400.762 0.743497 -1.57537 0
M  V30 4201 C 397.894 1.35247 -3.12923 0
M  V30 4202 H 399.087 -0.448289 -2.96531 0
M  V30 4203 H 396.64 -0.270656 -1.53939 0
M  V30 4204 H 397.375 2.07916 -2.48881 0
M  V30 4205 H 397.16 0.901374 -3.81599 0
M  V30 4206 H 398.65 1.88737 -3.72516 0
M  V30 4207 N 399.087 1.5561 -0.249682 0
M  V30 4208 C 400.503 1.59254 0.105103 0
M  V30 4209 C 400.703 1.26685 1.56694 0
M  V30 4210 O 399.759 1.0155 2.31179 0
M  V30 4211 C 401.072 2.99687 -0.246592 0
M  V30 4212 C 402.62 3.12416 -0.191118 0
M  V30 4213 C 403.095 4.55074 -0.516885 0
M  V30 4214 N 404.586 4.60835 -0.467489 0
M  V30 4215 C 405.321 5.69201 -0.69268 0
M  V30 4216 N 404.817 6.85817 -0.981146 0
M  V30 4217 N 406.61 5.58635 -0.623198 0
M  V30 4218 H 398.761 1.75049 -1.20298 0
M  V30 4219 H 401.024 0.815003 -0.484225 0
M  V30 4220 H 400.73 3.28267 -1.26228 0
M  V30 4221 H 400.604 3.74798 0.424962 0
M  V30 4222 H 402.991 2.83615 0.815247 0
M  V30 4223 H 403.072 2.39573 -0.896563 0
M  V30 4224 H 402.716 4.84596 -1.52082 0
M  V30 4225 H 402.646 5.26181 0.210068 0
M  V30 4226 H 405.137 3.7705 -0.253373 0
M  V30 4227 H 405.45 7.64341 -1.14032 0
M  V30 4228 H 403.795 6.87494 -1.01865 0
M  V30 4229 H 406.986 4.66406 -0.397863 0
M  V30 4230 H 407.159 6.43017 -0.802093 0
M  V30 4231 N 400.565 -0.0233959 1.57583 0
M  V30 4232 C 401.793 -0.724682 1.93794 0
M  V30 4233 C 402.208 -1.68588 0.849912 0
M  V30 4234 O 401.565 -1.81676 -0.173204 0
M  V30 4235 C 401.616 -1.47684 3.29957 0
M  V30 4236 O 401.337 -0.554222 4.3458 0
M  V30 4237 C 402.838 -2.27477 3.80485 0
M  V30 4238 H 400.058 -0.203317 0.639455 0
M  V30 4239 H 402.602 0.0207653 2.04489 0
M  V30 4240 H 400.757 -2.17412 3.20641 0
M  V30 4241 H 401.171 -1.08232 5.13212 0
M  V30 4242 H 402.645 -2.7564 4.78254 0
M  V30 4243 H 403.122 -3.09144 3.11972 0
M  V30 4244 H 403.728 -1.62813 3.92902 0
M  V30 4245 N 402.043 -1.548 -0.295768 0
M  V30 4246 C 403.291 -1.73985 -1.02828 0
M  V30 4247 C 403.612 -0.531406 -1.87619 0
M  V30 4248 O 402.882 0.454221 -1.90561 0
M  V30 4249 H 401.462 -0.641556 -0.382642 0
M  V30 4250 H 404.124 -1.92163 -0.325489 0
M  V30 4251 H 403.22 -2.63129 -1.67838 0
M  V30 4252 N 403.521 0.559213 -1.47345 0
M  V30 4253 C 404.937 0.884943 -1.32819 0
M  V30 4254 C 405.137 1.98988 -0.317173 0
M  V30 4255 O 404.193 2.51031 0.272011 0
M  V30 4256 C 405.506 1.28007 -2.72093 0
M  V30 4257 C 407.054 1.39161 -2.80363 0
M  V30 4258 C 407.529 1.82031 -4.20272 0
M  V30 4259 N 409.02 1.89185 -4.22804 0
M  V30 4260 C 409.755 2.2368 -5.27973 0
M  V30 4261 N 409.251 2.56802 -6.43447 0
M  V30 4262 N 411.044 2.24436 -5.15349 0
M  V30 4263 H 403.195 -0.170304 -2.11716 0
M  V30 4264 H 405.458 -0.0135247 -0.947904 0
M  V30 4265 H 405.164 0.542027 -3.47498 0
M  V30 4266 H 405.038 2.23665 -3.03733 0
M  V30 4267 H 407.425 2.12048 -2.05231 0
M  V30 4268 H 407.506 0.41696 -2.52379 0
M  V30 4269 H 407.15 1.09715 -4.95908 0
M  V30 4270 H 407.08 2.80495 -4.45679 0
M  V30 4271 H 409.571 1.65982 -3.39497 0
M  V30 4272 H 409.884 2.82144 -7.19454 0
M  V30 4273 H 408.229 2.54387 -6.46771 0
M  V30 4274 H 411.42 1.97998 -4.24163 0
M  V30 4275 H 411.593 2.50989 -5.97418 0
M  V30 4276 N 404.999 1.35443 0.805782 0
M  V30 4277 C 406.245 1.2996 1.56467 0
M  V30 4278 C 406.6 -0.124742 1.91995 0
M  V30 4279 O 405.893 -1.07533 1.58579 0
M  V30 4280 C 406.087 2.14045 2.86216 0
M  V30 4281 C 405.916 3.64512 2.63365 0
M  V30 4282 C 404.686 4.33744 2.59219 0
M  V30 4283 C 406.884 4.58142 2.33688 0
M  V30 4284 N 404.866 5.69953 2.28094 0
M  V30 4285 C 406.237 5.8248 2.12408 0
M  V30 4286 C 408.292 4.46877 2.19558 0
M  V30 4287 C 406.995 6.96818 1.78429 0
M  V30 4288 C 409.021 5.61065 1.86976 0
M  V30 4289 C 408.383 6.84431 1.66532 0
M  V30 4290 H 404.482 0.530817 0.574245 0
M  V30 4291 H 407.066 1.70333 0.943126 0
M  V30 4292 H 405.237 1.75942 3.46264 0
M  V30 4293 H 406.969 2.00075 3.51784 0
M  V30 4294 H 403.724 3.86365 2.73896 0
M  V30 4295 H 404.148 6.41845 2.15323 0
M  V30 4296 H 408.79 3.52102 2.34061 0
M  V30 4297 H 406.508 7.91559 1.62664 0
M  V30 4298 H 410.094 5.54302 1.7675 0
M  V30 4299 H 408.974 7.71294 1.41688 0
M  V30 4300 N 406.477 -1.02803 1.19454 0
M  V30 4301 C 407.407 -2.12999 0.956758 0
M  V30 4302 C 408.388 -1.69743 -0.110188 0
M  V30 4303 O 409.573 -1.94148 0.0450038 0
M  V30 4304 C 406.703 -3.43746 0.495553 0
M  V30 4305 C 405.657 -4.00688 1.50443 0
M  V30 4306 C 404.983 -5.27067 0.900275 0
M  V30 4307 C 406.283 -4.35397 2.8849 0
M  V30 4308 H 407.977 -2.33148 1.87836 0
M  V30 4309 H 405.523 -1.12045 0.904539 0
M  V30 4310 H 407.476 -4.2021 0.316493 0
M  V30 4311 H 406.2 -3.23321 -0.461646 0
M  V30 4312 H 404.859 -3.2632 1.67065 0
M  V30 4313 H 404.507 -5.02959 -0.064503 0
M  V30 4314 H 404.207 -5.66127 1.57397 0
M  V30 4315 H 405.731 -6.06196 0.73203 0
M  V30 4316 H 407.145 -5.02795 2.75446 0
M  V30 4317 H 405.542 -4.85541 3.52661 0
M  V30 4318 H 406.612 -3.44662 3.41081 0
M  V30 4319 N 407.956 -0.998596 -1.21925 0
M  V30 4320 C 408.919 -0.558679 -2.22287 0
M  V30 4321 C 409.919 0.361525 -1.56683 0
M  V30 4322 O 411.109 0.152695 -1.73529 0
M  V30 4323 C 408.241 0.18661 -3.40389 0
M  V30 4324 H 409.434 -1.4463 -2.62721 0
M  V30 4325 H 406.987 -0.786413 -1.35075 0
M  V30 4326 H 407.722 1.08996 -3.05435 0
M  V30 4327 H 407.507 -0.474188 -3.89222 0
M  V30 4328 H 408.997 0.482367 -4.14805 0
M  V30 4329 N 409.434 1.37368 -0.772513 0
M  V30 4330 C 410.68 1.99969 -0.337681 0
M  V30 4331 C 411.013 1.61184 1.08321 0
M  V30 4332 O 410.288 0.858395 1.74533 0
M  V30 4333 C 410.571 3.56858 -0.482121 0
M  V30 4334 C 410.424 4.0555 -1.94549 0
M  V30 4335 C 411.743 4.39955 0.113143 0
M  V30 4336 H 408.862 0.726464 -0.124171 0
M  V30 4337 H 411.504 1.63034 -0.975699 0
M  V30 4338 H 409.654 3.88452 0.0610361 0
M  V30 4339 H 411.326 3.84518 -2.54841 0
M  V30 4340 H 409.569 3.57715 -2.45403 0
M  V30 4341 H 410.24 5.14587 -1.9976 0
M  V30 4342 H 412.716 4.14623 -0.35031 0
M  V30 4343 H 411.592 5.48897 -0.0180514 0
M  V30 4344 H 411.853 4.25403 1.20354 0
M  V30 4345 N 410.912 0.523116 1.48665 0
M  V30 4346 C 412.189 -0.0775449 1.95446 0
M  V30 4347 C 412.569 -1.5197 1.4652 0
M  V30 4348 O 411.917 -2.17876 0.688657 0
M  V30 4349 C 412.127 0.0326135 3.48985 0
M  V30 4350 C 413.475 -0.130141 4.24401 0
M  V30 4351 O 414.499 -0.0415142 3.56176 0
M  V30 4352 O 413.358 -0.31491 5.45592 0
M  V30 4353 H 410.452 -0.0831012 0.822814 0
M  V30 4354 H 412.998 0.587227 1.59216 0
M  V30 4355 H 411.77 1.03748 3.77296 0
M  V30 4356 H 411.393 -0.671317 3.91892 0
M  V30 4357 N 412.39 -1.55475 0.257931 0
M  V30 4358 C 413.62 -2.03314 -0.367026 0
M  V30 4359 C 414.028 -1.13625 -1.51281 0
M  V30 4360 O 413.371 -0.145334 -1.83124 0
M  V30 4361 C 413.433 -3.47362 -0.926284 0
M  V30 4362 C 413.097 -4.56914 0.0886584 0
M  V30 4363 C 414.094 -5.12013 0.902123 0
M  V30 4364 C 411.779 -5.01827 0.217936 0
M  V30 4365 C 413.773 -6.10529 1.83122 0
M  V30 4366 C 411.46 -6.00172 1.15052 0
M  V30 4367 C 412.458 -6.54402 1.95568 0
M  V30 4368 O 412.146 -7.50827 2.87253 0
M  V30 4369 H 411.878 -0.669976 -0.0900443 0
M  V30 4370 H 414.432 -2.01804 0.382673 0
M  V30 4371 H 412.662 -3.46056 -1.72575 0
M  V30 4372 H 414.351 -3.78637 -1.46249 0
M  V30 4373 H 415.117 -4.78139 0.812891 0
M  V30 4374 H 410.996 -4.59272 -0.398721 0
M  V30 4375 H 414.54 -6.52783 2.46008 0
M  V30 4376 H 410.437 -6.33465 1.24064 0
M  V30 4377 H 411.205 -7.68483 2.81739 0
M  V30 4378 N 413.868 0.0150385 -1.57593 0
M  V30 4379 C 414.778 1.02791 -2.10882 0
M  V30 4380 C 415.794 1.38702 -1.0506 0
M  V30 4381 O 416.97 1.47739 -1.36877 0
M  V30 4382 C 414.035 2.30568 -2.58919 0
M  V30 4383 C 413.096 2.01108 -3.79281 0
M  V30 4384 C 412.329 3.22794 -4.25018 0
M  V30 4385 O 412.552 4.33959 -3.70183 0
M  V30 4386 O 411.486 3.07672 -5.17322 0
M  V30 4387 H 415.312 0.604973 -2.97613 0
M  V30 4388 H 412.897 0.23292 -1.47573 0
M  V30 4389 H 414.779 3.05662 -2.90084 0
M  V30 4390 H 413.454 2.72129 -1.75293 0
M  V30 4391 H 412.361 1.23537 -3.53114 0
M  V30 4392 H 413.694 1.64394 -4.63935 0
M  V30 4393 N 415.346 1.54954 0.287554 0
M  V30 4394 C 416.294 1.87606 1.37502 0
M  V30 4395 C 417.288 0.751001 1.51843 0
M  V30 4396 O 418.494 0.935169 1.53801 0
M  V30 4397 H 414.869 0.595231 0.459569 0
M  V30 4398 H 416.84 2.78477 1.07206 0
M  V30 4399 C 415.589 2.15183 2.73115 0
M  V30 4400 H 414.912 3.01234 2.62866 0
M  V30 4401 H 416.352 2.4196 3.48183 0
M  V30 4402 C 414.811 0.954686 3.2309 0
M  V30 4403 O 415.341 0.181949 4.01288 0
M  V30 4404 N 413.547 0.756368 2.80584 0
M  V30 4405 H 413.094 1.38643 2.17108 0
M  V30 4406 H 413.052 -0.0430391 3.14371 0
M  V30 4407 N 416.824 -0.551391 1.4764 0
M  V30 4408 C 418.07 -1.31024 1.54792 0
M  V30 4409 C 418.403 -1.9304 0.211967 0
M  V30 4410 O 417.678 -1.78175 -0.77999 0
M  V30 4411 C 417.961 -2.41593 2.67029 0
M  V30 4412 C 417.814 -1.84408 4.10261 0
M  V30 4413 C 419.133 -3.43488 2.75143 0
M  V30 4414 H 416.252 -0.475031 0.563485 0
M  V30 4415 H 418.894 -0.616454 1.79722 0
M  V30 4416 H 417.044 -3.00772 2.45904 0
M  V30 4417 H 418.716 -1.29445 4.42766 0
M  V30 4418 H 416.959 -1.15051 4.18265 0
M  V30 4419 H 417.63 -2.64367 4.84576 0
M  V30 4420 H 420.106 -2.94236 2.94218 0
M  V30 4421 H 418.982 -4.18274 3.55441 0
M  V30 4422 H 419.243 -4.02703 1.82435 0
M  V30 4423 N 418.302 -1.35869 -0.798587 0
M  V30 4424 C 419.718 -1.16082 -1.09532 0
M  V30 4425 C 419.918 0.0213124 -2.01489 0
M  V30 4426 O 418.974 0.689488 -2.42904 0
M  V30 4427 C 420.287 -2.46748 -1.7186 0
M  V30 4428 C 421.835 -2.53028 -1.84244 0
M  V30 4429 C 422.31 -3.83758 -2.49988 0
M  V30 4430 N 423.801 -3.85053 -2.57465 0
M  V30 4431 C 424.536 -4.8294 -3.09122 0
M  V30 4432 N 424.032 -5.91217 -3.61157 0
M  V30 4433 N 425.825 -4.70369 -3.0775 0
M  V30 4434 H 417.976 -2.11571 -0.187461 0
M  V30 4435 H 420.239 -0.936726 -0.145765 0
M  V30 4436 H 419.945 -3.33471 -1.11759 0
M  V30 4437 H 419.819 -2.61883 -2.71472 0
M  V30 4438 H 422.206 -1.66729 -2.43486 0
M  V30 4439 H 422.287 -2.418 -0.834643 0
M  V30 4440 H 421.931 -4.70459 -1.91393 0
M  V30 4441 H 421.861 -3.92278 -3.5132 0
M  V30 4442 H 424.352 -3.06822 -2.20609 0
M  V30 4443 H 424.665 -6.61892 -3.98896 0
M  V30 4444 H 423.01 -5.94899 -3.59333 0
M  V30 4445 H 426.201 -3.84914 -2.66381 0
M  V30 4446 H 426.374 -5.46816 -3.47701 0
M  V30 4447 N 419.78 1.02168 -1.19998 0
M  V30 4448 C 421.191 1.57135 -1.00825 0
M  V30 4449 C 421.542 1.91276 0.436818 0
M  V30 4450 O 420.667 1.71679 1.3174 0
M  V30 4451 C 421.262 2.85514 -1.82393 0
M  V30 4452 C 419.821 3.37027 -1.67601 0
M  V30 4453 C 418.968 2.10388 -1.80644 0
M  V30 4454 H 421.919 0.846106 -1.34264 0
M  V30 4455 H 421.94 3.56711 -1.32429 0
M  V30 4456 H 421.452 2.60634 -2.87561 0
M  V30 4457 H 419.553 3.66878 -0.650485 0
M  V30 4458 H 419.666 4.09572 -2.4857 0
M  V30 4459 H 418.03 2.22601 -1.23778 0
M  V30 4460 H 418.813 1.8794 -2.87286 0
M  V30 4461 N 421.258 1.00505 1.21394 0
M  V30 4462 C 422.535 0.603277 1.86064 0
M  V30 4463 C 422.915 -0.919095 1.90042 0
M  V30 4464 O 422.263 -1.80607 1.39977 0
M  V30 4465 C 422.473 1.23772 3.26315 0
M  V30 4466 C 423.821 1.34586 4.02705 0
M  V30 4467 O 424.845 1.19304 3.35626 0
M  V30 4468 O 423.704 1.59169 5.22807 0
M  V30 4469 H 420.798 0.206634 0.800769 0
M  V30 4470 H 423.344 1.1017 1.29076 0
M  V30 4471 H 422.116 2.27848 3.18121 0
M  V30 4472 H 421.739 0.725648 3.90922 0
M  V30 4473 N 422.737 -1.36956 0.779787 0
M  V30 4474 C 423.986 -1.98738 0.344405 0
M  V30 4475 C 424.299 -1.62596 -1.08728 0
M  V30 4476 O 425.505 -2.1754 -1.62445 0
M  V30 4477 C 423.961 -3.5544 0.564829 0
M  V30 4478 C 423.569 -4.00514 2.0073 0
M  V30 4479 C 425.313 -4.24059 0.193471 0
M  V30 4480 C 423.22 -5.49957 2.17489 0
M  V30 4481 H 422.15 -0.743561 0.12503 0
M  V30 4482 H 424.801 -1.56381 0.960057 0
M  V30 4483 H 423.183 -3.95817 -0.120397 0
M  V30 4484 H 424.357 -3.71362 2.72814 0
M  V30 4485 H 422.672 -3.44703 2.336 0
M  V30 4486 H 425.269 -5.33874 0.297097 0
M  V30 4487 H 425.612 -4.07378 -0.857263 0
M  V30 4488 H 426.145 -3.89012 0.831556 0
M  V30 4489 H 422.884 -5.71574 3.2091 0
M  V30 4490 H 422.404 -5.80767 1.49899 0
M  V30 4491 H 424.083 -6.16043 1.97738 0
M  V30 4492 N 424.215 -0.530993 -1.48385 0
M  V30 4493 C 425.461 0.00274135 -2.028 0
M  V30 4494 C 425.794 1.33838 -1.40716 0
M  V30 4495 O 425.069 1.86465 -0.553277 0
M  V30 4496 C 425.352 0.123676 -3.59888 0
M  V30 4497 C 425.205 -1.2372 -4.3245 0
M  V30 4498 C 426.524 0.849967 -4.31814 0
M  V30 4499 H 423.643 -0.000477758 -0.737 0
M  V30 4500 H 426.285 -0.688217 -1.77098 0
M  V30 4501 H 424.435 0.712157 -3.81917 0
M  V30 4502 H 426.107 -1.86687 -4.21836 0
M  V30 4503 H 424.35 -1.81882 -3.93829 0
M  V30 4504 H 425.021 -1.10557 -5.40815 0
M  V30 4505 H 427.497 0.350572 -4.14621 0
M  V30 4506 H 426.373 0.903486 -5.41413 0
M  V30 4507 H 426.634 1.90047 -3.99167 0
M  V30 4508 N 425.693 1.55336 -0.266172 0
M  V30 4509 C 426.623 2.25146 0.618981 0
M  V30 4510 C 427.604 1.23845 1.16604 0
M  V30 4511 O 428.789 1.52544 1.20183 0
M  V30 4512 C 425.919 2.96572 1.80728 0
M  V30 4513 C 424.873 4.04726 1.39215 0
M  V30 4514 C 424.199 4.63678 2.66283 0
M  V30 4515 C 425.499 5.19407 0.548942 0
M  V30 4516 H 427.193 2.99377 0.0368116 0
M  V30 4517 H 424.739 1.43991 0.0162651 0
M  V30 4518 H 426.692 3.44116 2.43232 0
M  V30 4519 H 425.416 2.19861 2.41514 0
M  V30 4520 H 424.075 3.57979 0.790351 0
M  V30 4521 H 423.723 3.83646 3.25308 0
M  V30 4522 H 423.423 5.367 2.39222 0
M  V30 4523 H 424.947 5.13967 3.29651 0
M  V30 4524 H 426.361 5.63059 1.07876 0
M  V30 4525 H 424.758 5.98936 0.373593 0
M  V30 4526 H 425.828 4.8295 -0.434394 0
M  V30 4527 N 427.171 -0.0066808 1.57599 0
M  V30 4528 C 428.101 -0.999296 2.11036 0
M  V30 4529 C 429.082 -1.36278 1.01795 0
M  V30 4530 O 430.267 -1.4477 1.29442 0
M  V30 4531 C 427.397 -2.29328 2.60818 0
M  V30 4532 C 426.351 -2.07159 3.74525 0
M  V30 4533 C 425.677 -3.42512 4.10596 0
M  V30 4534 C 426.977 -1.43959 5.02069 0
M  V30 4535 H 428.671 -0.554382 2.94223 0
M  V30 4536 H 426.217 -0.265221 1.41536 0
M  V30 4537 H 428.17 -2.99117 2.96828 0
M  V30 4538 H 426.894 -2.7592 1.74745 0
M  V30 4539 H 425.553 -1.39797 3.38899 0
M  V30 4540 H 425.201 -3.86795 3.21556 0
M  V30 4541 H 424.901 -3.28498 4.87199 0
M  V30 4542 H 426.425 -4.13628 4.4916 0
M  V30 4543 H 427.839 -2.03696 5.35893 0
M  V30 4544 H 426.236 -1.40452 5.83432 0
M  V30 4545 H 427.306 -0.407992 4.83181 0
M  V30 4546 N 428.649 -1.55105 -0.279332 0
M  V30 4547 C 429.897 -1.75066 -1.00977 0
M  V30 4548 C 430.218 -0.551276 -1.87045 0
M  V30 4549 O 429.488 0.433984 -1.91032 0
M  V30 4550 H 428.068 -0.645578 -0.375816 0
M  V30 4551 H 430.73 -1.92497 -0.305089 0
M  V30 4552 H 429.826 -2.64894 -1.65038 0
M  V30 4553 N 430.127 0.543554 -1.4793 0
M  V30 4554 C 431.074 1.64942 -1.6144 0
M  V30 4555 C 432.044 1.59692 -0.456903 0
M  V30 4556 O 433.229 1.78321 -0.678688 0
M  V30 4557 C 430.369 3.03238 -1.64744 0
M  V30 4558 C 429.482 3.18823 -2.91506 0
M  V30 4559 C 428.617 4.47599 -2.86057 0
M  V30 4560 C 427.656 4.56664 -4.07584 0
M  V30 4561 N 426.793 5.76811 -4.00292 0
M  V30 4562 H 431.633 1.52733 -2.55884 0
M  V30 4563 H 429.17 0.7438 -1.2691 0
M  V30 4564 H 431.128 3.83339 -1.64641 0
M  V30 4565 H 429.758 3.1425 -0.738017 0
M  V30 4566 H 428.81 2.32064 -3.01414 0
M  V30 4567 H 430.122 3.21384 -3.81463 0
M  V30 4568 H 429.276 5.35975 -2.84281 0
M  V30 4569 H 428.015 4.47538 -1.93807 0
M  V30 4570 H 427.02 3.66697 -4.09651 0
M  V30 4571 H 428.245 4.58474 -5.00978 0
M  V30 4572 H 426.191 5.77673 -3.10853 0
M  V30 4573 H 426.108 5.80808 -4.8394 0
M  V30 4574 H 427.376 6.67512 -4.02553 0
M  V30 4575 N 431.605 1.3629 0.791371 0
M  V30 4576 C 432.568 1.30309 1.88553 0
M  V30 4577 C 433.568 0.211204 1.59407 0
M  V30 4578 O 434.758 0.465865 1.67855 0
M  V30 4579 C 431.89 1.01956 3.25297 0
M  V30 4580 H 433.083 2.27614 1.95273 0
M  V30 4581 H 430.636 1.21035 0.988953 0
M  V30 4582 H 431.371 0.050998 3.2426 0
M  V30 4583 H 431.156 1.80968 3.4784 0
M  V30 4584 H 432.646 1.0037 4.05359 0
M  V30 4585 N 433.083 -1.0153 1.20538 0
M  V30 4586 C 434.013 -2.11972 0.979295 0
M  V30 4587 C 434.994 -1.6985 -0.0921787 0
M  V30 4588 O 436.179 -1.94089 0.0655932 0
M  V30 4589 C 433.309 -3.43201 0.531984 0
M  V30 4590 C 432.263 -3.9907 1.54685 0
M  V30 4591 C 431.589 -5.26082 0.956127 0
M  V30 4592 C 432.889 -4.32313 2.93092 0
M  V30 4593 H 434.583 -2.31143 1.90298 0
M  V30 4594 H 432.129 -1.11079 0.916372 0
M  V30 4595 H 434.082 -4.1985 0.361044 0
M  V30 4596 H 432.806 -3.23792 -0.427327 0
M  V30 4597 H 431.465 -3.2453 1.70517 0
M  V30 4598 H 431.113 -5.02999 -0.0111538 0
M  V30 4599 H 430.813 -5.64426 1.63393 0
M  V30 4600 H 432.337 -6.05386 0.796284 0
M  V30 4601 H 433.751 -4.99845 2.80763 0
M  V30 4602 H 432.148 -4.81774 3.57791 0
M  V30 4603 H 433.218 -3.41025 3.44717 0
M  V30 4604 N 434.561 -1.01147 -1.20859 0
M  V30 4605 C 435.786 -0.716698 -1.94623 0
M  V30 4606 C 436.211 0.715415 -1.73964 0
M  V30 4607 O 435.569 1.49157 -1.03062 0
M  V30 4608 C 435.617 -1.0513 -3.44935 0
M  V30 4609 O 434.721 -0.160131 -4.12089 0
M  V30 4610 H 434.062 -0.266404 -0.608214 0
M  V30 4611 H 436.592 -1.35346 -1.53436 0
M  V30 4612 H 436.602 -1.00086 -3.95533 0
M  V30 4613 H 435.277 -2.09475 -3.59295 0
M  V30 4614 H 433.854 -0.267657 -3.71938 0
M  V30 4615 N 436.039 1.36541 -0.78704 0
M  V30 4616 C 437.287 1.98911 -0.357633 0
M  V30 4617 C 437.608 1.62778 1.07371 0
M  V30 4618 O 436.878 0.900612 1.73971 0
M  V30 4619 H 435.458 0.735734 -0.129246 0
M  V30 4620 H 438.12 1.66776 -1.00855 0
M  V30 4621 H 437.216 3.08874 -0.447549 0
M  V30 4622 N 437.518 0.538854 1.48102 0
M  V30 4623 C 438.766 0.00798599 2.02098 0
M  V30 4624 C 439.087 -1.33922 1.41739 0
M  V30 4625 O 438.357 -1.86932 0.585934 0
M  V30 4626 H 436.937 -3.62179e-05 0.747 0
M  V30 4627 H 439.599 0.7047 1.81714 0
M  V30 4628 H 438.695 -0.0937672 3.11959 0
M  V30 4629 N 438.996 -1.55193 0.274407 0
M  V30 4630 C 439.926 -2.25471 -0.607032 0
M  V30 4631 C 440.907 -1.24461 -1.15946 0
M  V30 4632 O 442.092 -1.53179 -1.19373 0
M  V30 4633 C 439.222 -2.97526 -1.79153 0
M  V30 4634 C 438.176 -4.05459 -1.37067 0
M  V30 4635 C 437.502 -4.65084 -2.6382 0
M  V30 4636 C 438.802 -5.19691 -0.521389 0
M  V30 4637 H 440.496 -2.99393 -0.0209343 0
M  V30 4638 H 438.042 -1.43997 -0.00862866 0
M  V30 4639 H 439.995 -3.45402 -2.41404 0
M  V30 4640 H 438.719 -2.21138 -2.40344 0
M  V30 4641 H 437.378 -3.58393 -0.771355 0
M  V30 4642 H 437.026 -3.85365 -3.23268 0
M  V30 4643 H 436.726 -5.37961 -2.36372 0
M  V30 4644 H 438.25 -5.15708 -3.26921 0
M  V30 4645 H 439.664 -5.63623 -1.04889 0
M  V30 4646 H 438.061 -5.99126 -0.341825 0
M  V30 4647 H 439.131 -4.82713 0.46 0
M  V30 4648 N 440.474 -0.00167713 -1.576 0
M  V30 4649 C 441.704 0.692754 -1.94639 0
M  V30 4650 C 442.112 1.67744 -0.87513 0
M  V30 4651 O 441.455 1.8305 0.154382 0
M  V30 4652 C 441.517 1.47881 -3.27676 0
M  V30 4653 C 441.181 0.655518 -4.52274 0
M  V30 4654 C 442.178 -0.0575214 -5.19868 0
M  V30 4655 C 439.863 0.600994 -4.98692 0
M  V30 4656 C 441.857 -0.814052 -6.3218 0
M  V30 4657 C 439.544 -0.15926 -6.10892 0
M  V30 4658 C 440.542 -0.865515 -6.77494 0
M  V30 4659 O 440.23 -1.61336 -7.87544 0
M  V30 4660 H 439.962 0.197792 -0.646417 0
M  V30 4661 H 442.516 -0.049423 -2.05341 0
M  V30 4662 H 440.746 2.2655 -3.13388 0
M  V30 4663 H 442.435 2.05874 -3.49816 0
M  V30 4664 H 443.201 -0.0245611 -4.84994 0
M  V30 4665 H 439.08 1.14025 -4.46676 0
M  V30 4666 H 442.624 -1.36584 -6.84098 0
M  V30 4667 H 438.521 -0.194035 -6.45208 0
M  V30 4668 H 439.289 -1.53025 -8.04068 0
M  V30 4669 N 441.952 1.55251 0.271103 0
M  V30 4670 C 443.363 1.66635 0.842007 0
M  V30 4671 C 443.714 0.594631 1.86972 0
M  V30 4672 O 442.839 -0.263532 2.14789 0
M  V30 4673 C 443.434 3.02082 1.53401 0
M  V30 4674 C 441.993 3.15487 2.05293 0
M  V30 4675 C 441.14 2.62438 0.895631 0
M  V30 4676 H 444.091 1.58629 0.0474117 0
M  V30 4677 H 444.112 2.95176 2.40107 0
M  V30 4678 H 443.624 3.80062 0.785786 0
M  V30 4679 H 441.725 2.42284 2.83071 0
M  V30 4680 H 441.838 4.22075 2.26693 0
M  V30 4681 H 440.202 2.19644 1.28953 0
M  V30 4682 H 440.985 3.42923 0.160878 0
M  V30 4683 N 443.43 -0.535701 1.48216 0
M  V30 4684 C 444.676 -1.29375 1.56173 0
M  V30 4685 C 445.009 -1.92804 0.232429 0
M  V30 4686 O 444.284 -1.78992 -0.761048 0
M  V30 4687 C 444.567 -2.38747 2.69577 0
M  V30 4688 C 444.42 -1.80046 4.12193 0
M  V30 4689 C 445.739 -3.40551 2.78771 0
M  V30 4690 H 442.858 -0.469027 0.568491 0
M  V30 4691 H 445.5 -0.597358 1.80365 0
M  V30 4692 H 443.65 -2.98147 2.4908 0
M  V30 4693 H 445.322 -1.24742 4.44114 0
M  V30 4694 H 443.565 -1.10609 4.19462 0
M  V30 4695 H 444.236 -2.59212 4.87353 0
M  V30 4696 H 446.712 -2.91099 2.97322 0
M  V30 4697 H 445.588 -4.1448 3.59857 0
M  V30 4698 H 445.849 -4.00746 1.86696 0
M  V30 4699 N 444.908 -1.36708 -0.784132 0
M  V30 4700 C 446.133 -1.34565 -1.5782 0
M  V30 4701 C 446.558 0.0695257 -1.87971 0
M  V30 4702 O 445.916 1.04302 -1.48293 0
M  V30 4703 C 445.964 -2.17952 -2.87279 0
M  V30 4704 O 445.068 -1.57563 -3.81114 0
M  V30 4705 H 444.409 -0.460337 -0.478524 0
M  V30 4706 H 446.939 -1.80064 -0.971495 0
M  V30 4707 H 446.949 -2.30721 -3.365 0
M  V30 4708 H 445.624 -3.20823 -2.64661 0
M  V30 4709 H 444.201 -1.53764 -3.39722 0
M  V30 4710 N 446.386 1.0089 -1.21074 0
M  V30 4711 C 447.349 2.0775 -0.968129 0
M  V30 4712 C 448.349 1.6069 0.0593445 0
M  V30 4713 O 449.539 1.73293 -0.177525 0
M  V30 4714 C 446.671 3.37794 -0.459108 0
M  V30 4715 H 447.864 2.30707 -1.9161 0
M  V30 4716 H 445.417 1.17807 -1.02719 0
M  V30 4717 H 446.152 3.20516 0.49397 0
M  V30 4718 H 445.937 3.7328 -1.20019 0
M  V30 4719 H 447.427 4.16454 -0.309099 0
M  V30 4720 N 447.864 1.01787 1.20321 0
M  V30 4721 C 449.11 0.708985 1.90003 0
M  V30 4722 C 449.443 -0.759572 1.78729 0
M  V30 4723 O 448.718 -1.55198 1.17234 0
M  V30 4724 C 449.001 1.1469 3.41348 0
M  V30 4725 C 448.854 2.67586 3.61549 0
M  V30 4726 C 450.173 0.71915 4.34185 0
M  V30 4727 H 447.292 0.259034 0.689978 0
M  V30 4728 H 449.934 1.26584 1.41692 0
M  V30 4729 H 448.084 0.673128 3.82624 0
M  V30 4730 H 449.756 3.22826 3.29517 0
M  V30 4731 H 447.999 3.085 3.04976 0
M  V30 4732 H 448.67 2.93281 4.67643 0
M  V30 4733 H 451.146 1.12647 4.00562 0
M  V30 4734 H 450.022 1.05358 5.38694 0
M  V30 4735 H 450.283 -0.379111 4.40472 0
M  V30 4736 N 449.342 -1.36122 0.79427 0
M  V30 4737 C 450.272 -2.32551 0.210328 0
M  V30 4738 C 451.253 -1.56884 -0.657386 0
M  V30 4739 O 452.438 -1.85014 -0.590207 0
M  V30 4740 C 449.568 -3.41128 -0.651819 0
M  V30 4741 C 448.522 -4.27842 0.116395 0
M  V30 4742 C 447.848 -5.2763 -0.86666 0
M  V30 4743 C 449.148 -5.05647 1.30837 0
M  V30 4744 H 450.842 -2.81636 1.01594 0
M  V30 4745 H 448.388 -1.35407 0.489981 0
M  V30 4746 H 450.341 -4.07581 -1.07031 0
M  V30 4747 H 449.065 -2.90622 -1.49019 0
M  V30 4748 H 447.724 -3.62952 0.515915 0
M  V30 4749 H 447.372 -4.73395 -1.70019 0
M  V30 4750 H 447.072 -5.86514 -0.35705 0
M  V30 4751 H 448.596 -5.96955 -1.28361 0
M  V30 4752 H 450.01 -5.65113 0.965393 0
M  V30 4753 H 448.407 -5.73967 1.75161 0
M  V30 4754 H 449.477 -4.37006 2.10128 0
M  V30 4755 N 450.82 -0.546701 -1.47814 0
M  V30 4756 C 452.06 -0.0209604 -2.04389 0
M  V30 4757 C 452.424 1.29993 -1.413 0
M  V30 4758 O 453.625 1.91273 -1.8886 0
M  V30 4759 C 451.896 0.0812844 -3.57308 0
M  V30 4760 S 453.455 0.55467 -4.3528 0
M  V30 4761 H 450.273 -0.0200865 -0.710716 0
M  V30 4762 H 452.875 -0.731055 -1.81317 0
M  V30 4763 H 451.579 -0.884616 -4.00753 0
M  V30 4764 H 451.11 0.815253 -3.8486 0
M  V30 4765 H 453.125 1.81627 -4.61764 0
M  V30 4766 N 452.299 1.55045 -0.282633 0
M  V30 4767 C 453.576 1.9179 0.384166 0
M  V30 4768 C 453.956 1.20778 1.73136 0
M  V30 4769 O 453.304 0.33719 2.25998 0
M  V30 4770 C 453.514 3.45149 0.517014 0
M  V30 4771 C 454.862 4.17064 0.796427 0
M  V30 4772 O 455.886 3.51084 0.601535 0
M  V30 4773 O 454.745 5.33837 1.16962 0
M  V30 4774 H 451.839 0.799483 0.211558 0
M  V30 4775 H 454.385 1.66474 -0.32934 0
M  V30 4776 H 453.157 3.88922 -0.430772 0
M  V30 4777 H 452.78 3.76443 1.2797 0
M  V30 4778 N 453.777 0.010035 1.57597 0
M  V30 4779 C 455.054 -0.710296 1.82248 0
M  V30 4780 C 455.434 -1.91426 0.889911 0
M  V30 4781 O 454.782 -2.28424 -0.0590292 0
M  V30 4782 C 454.992 -1.10655 3.30993 0
M  V30 4783 C 456.34 -1.50621 3.96987 0
M  V30 4784 O 457.364 -1.20007 3.35375 0
M  V30 4785 O 456.223 -2.07587 5.05539 0
M  V30 4786 H 453.317 -0.34673 0.750804 0
M  V30 4787 H 455.863 0.0362578 1.69661 0
M  V30 4788 H 454.635 -0.248826 3.90508 0
M  V30 4789 H 454.258 -1.91189 3.48615 0
M  V30 4790 N 455.255 -1.55392 -0.262866 0
M  V30 4791 C 456.532 -1.67204 -1.01499 0
M  V30 4792 C 456.912 -0.545186 -2.03939 0
M  V30 4793 O 456.26 0.453467 -2.23955 0
M  V30 4794 C 456.47 -3.06847 -1.6627 0
M  V30 4795 C 457.818 -3.64928 -2.17054 0
M  V30 4796 O 458.842 -3.09545 -1.76239 0
M  V30 4797 O 457.701 -4.61984 -2.91947 0
M  V30 4798 H 454.795 -0.679467 -0.471438 0
M  V30 4799 H 457.341 -1.67729 -0.257918 0
M  V30 4800 H 456.113 -3.80309 -0.920915 0
M  V30 4801 H 455.736 -3.10266 -2.48638 0
M  V30 4802 N 456.733 0.527833 -1.48498 0
M  V30 4803 C 457.982 1.28003 -1.55878 0
M  V30 4804 C 458.295 1.9414 -0.238577 0
M  V30 4805 O 459.501 2.7083 -0.190643 0
M  V30 4806 C 457.957 2.32272 -2.74914 0
M  V30 4807 C 457.565 1.72196 -4.13585 0
M  V30 4808 C 459.309 3.08488 -2.91608 0
M  V30 4809 C 457.216 2.74417 -5.23879 0
M  V30 4810 H 456.146 0.481413 -0.580308 0
M  V30 4811 H 458.797 0.557195 -1.74836 0
M  V30 4812 H 457.179 3.07601 -2.49395 0
M  V30 4813 H 458.353 1.03041 -4.49132 0
M  V30 4814 H 456.668 1.08464 -4.02025 0
M  V30 4815 H 459.265 3.84879 -3.71177 0
M  V30 4816 H 459.608 3.64481 -2.01145 0
M  V30 4817 H 460.141 2.40274 -3.17038 0
M  V30 4818 H 456.88 2.23242 -6.16314 0
M  V30 4819 H 456.4 3.41893 -4.92818 0
M  V30 4820 H 458.079 3.37362 -5.52083 0
M  V30 4821 N 458.211 1.37122 0.776871 0
M  V30 4822 C 459.144 1.26835 1.89705 0
M  V30 4823 C 460.122 0.14992 1.61907 0
M  V30 4824 O 461.306 0.323242 1.85708 0
M  V30 4825 C 458.433 0.95986 3.24814 0
M  V30 4826 C 457.479 2.09447 3.7153 0
M  V30 4827 S 458.312 3.71368 3.85806 0
M  V30 4828 C 459.468 3.42659 5.23771 0
M  V30 4829 H 459.701 2.21647 1.98141 0
M  V30 4830 H 457.234 1.22685 0.937433 0
M  V30 4831 H 459.192 0.788696 4.02852 0
M  V30 4832 H 457.853 0.0293137 3.14086 0
M  V30 4833 H 457.046 1.8335 4.69467 0
M  V30 4834 H 456.648 2.2255 3.00578 0
M  V30 4835 H 458.94 2.9733 6.0877 0
M  V30 4836 H 459.883 4.39905 5.54878 0
M  V30 4837 H 460.291 2.77708 4.91466 0
M  V30 4838 N 459.689 -1.00246 1.21608 0
M  V30 4839 C 460.619 -2.10921 1.00172 0
M  V30 4840 C 461.6 -1.69938 -0.0741587 0
M  V30 4841 O 462.785 -1.94009 0.0861753 0
M  V30 4842 C 459.915 -3.42618 0.568355 0
M  V30 4843 C 458.869 -3.97407 1.58909 0
M  V30 4844 C 458.195 -5.25038 1.01187 0
M  V30 4845 C 459.495 -4.2918 2.97661 0
M  V30 4846 H 461.189 -2.29112 1.92739 0
M  V30 4847 H 458.735 -1.10101 0.928102 0
M  V30 4848 H 460.688 -4.19444 0.405555 0
M  V30 4849 H 459.412 -3.24227 -0.392961 0
M  V30 4850 H 458.071 -3.22703 1.73949 0
M  V30 4851 H 457.719 -5.02982 0.0421965 0
M  V30 4852 H 457.419 -5.62661 1.6937 0
M  V30 4853 H 458.943 -6.04507 0.860448 0
M  V30 4854 H 460.357 -4.96839 2.86049 0
M  V30 4855 H 458.754 -4.77952 3.6288 0
M  V30 4856 H 459.824 -3.3735 3.48315 0
M  V30 4857 N 461.167 -1.02423 -1.1978 0
M  V30 4858 C 462.395 -0.737456 -1.93311 0
M  V30 4859 C 462.81 0.703023 -1.75223 0
M  V30 4860 O 462.167 1.47761 -1.07112 0
M  V30 4861 C 462.218 -1.0733 -3.45199 0
M  V30 4862 O 461.939 -2.4572 -3.62702 0
M  V30 4863 C 463.44 -0.80866 -4.35862 0
M  V30 4864 H 460.66 -0.2702 -0.614193 0
M  V30 4865 H 463.204 -1.36747 -1.52054 0
M  V30 4866 H 461.359 -0.488545 -3.84307 0
M  V30 4867 H 461.773 -2.58081 -4.56612 0
M  V30 4868 H 463.247 -1.09365 -5.41057 0
M  V30 4869 H 463.724 0.257025 -4.38447 0
M  V30 4870 H 464.33 -1.37592 -4.02428 0
M  V30 4871 N 462.645 1.35699 -0.801477 0
M  V30 4872 C 463.894 1.98165 -0.375979 0
M  V30 4873 C 464.207 1.64306 1.06127 0
M  V30 4874 O 465.413 2.20097 1.58964 0
M  V30 4875 C 463.869 3.54497 -0.621305 0
M  V30 4876 C 463.477 3.9727 -2.07076 0
M  V30 4877 C 465.221 4.23697 -0.26091 0
M  V30 4878 C 463.128 5.46427 -2.26211 0
M  V30 4879 H 462.058 0.741478 -0.136844 0
M  V30 4880 H 464.709 1.54834 -0.984814 0
M  V30 4881 H 463.091 3.95958 0.0574112 0
M  V30 4882 H 464.265 3.66974 -2.78687 0
M  V30 4883 H 462.58 3.40943 -2.39054 0
M  V30 4884 H 465.177 5.33334 -0.381994 0
M  V30 4885 H 465.52 4.0869 0.792344 0
M  V30 4886 H 466.053 3.87639 -0.893339 0
M  V30 4887 H 462.792 5.66396 -3.29963 0
M  V30 4888 H 462.312 5.78309 -1.59119 0
M  V30 4889 H 463.991 6.12819 -2.07513 0
M  V30 4890 N 464.123 0.554532 1.47522 0
M  V30 4891 C 465.07 -0.19466 2.29978 0
M  V30 4892 C 466.04 -0.910882 1.38896 0
M  V30 4893 O 467.225 -0.907102 1.67858 0
M  V30 4894 C 464.365 -1.22035 3.22802 0
M  V30 4895 C 463.478 -0.510474 4.28973 0
M  V30 4896 C 462.613 -1.52123 5.08952 0
M  V30 4897 C 461.652 -0.796173 6.069 0
M  V30 4898 N 460.789 -1.75363 6.79847 0
M  V30 4899 H 465.629 0.51461 2.93523 0
M  V30 4900 H 463.166 0.265607 1.44682 0
M  V30 4901 H 465.124 -1.8276 3.7504 0
M  V30 4902 H 463.754 -1.89769 2.61127 0
M  V30 4903 H 462.806 0.211234 3.79813 0
M  V30 4904 H 464.118 0.0576503 4.98767 0
M  V30 4905 H 463.272 -2.20207 5.65326 0
M  V30 4906 H 462.011 -2.12327 4.39054 0
M  V30 4907 H 461.016 -0.101388 5.49707 0
M  V30 4908 H 462.241 -0.199911 6.78806 0
M  V30 4909 H 460.187 -2.3443 6.12682 0
M  V30 4910 H 460.104 -1.23759 7.45801 0
M  V30 4911 H 461.372 -2.4257 7.40797 0
M  V30 4912 N 465.601 -1.54893 0.290851 0
M  V30 4913 C 467.012 -1.85584 -0.203816 0
M  V30 4914 C 467.363 -1.21285 -1.54222 0
M  V30 4915 O 466.488 -0.506841 -2.10381 0
M  V30 4916 C 467.083 -3.367 -0.376595 0
M  V30 4917 C 465.642 -3.6746 -0.815485 0
M  V30 4918 C 464.789 -2.77178 0.0821087 0
M  V30 4919 H 467.74 -1.50208 0.512175 0
M  V30 4920 H 467.761 -3.60656 -1.21275 0
M  V30 4921 H 467.273 -3.8347 0.59767 0
M  V30 4922 H 465.374 -3.26201 -1.80066 0
M  V30 4923 H 465.487 -4.7478 -0.641905 0
M  V30 4924 H 463.851 -2.50925 -0.436895 0
M  V30 4925 H 464.634 -3.26767 1.05254 0
M  V30 4926 N 467.08 -0.0183926 -1.57589 0
M  V30 4927 C 468.328 0.661253 -1.90976 0
M  V30 4928 C 468.649 1.73281 -0.894353 0
M  V30 4929 O 467.919 1.9579 0.0656788 0
M  V30 4930 H 466.499 0.247233 -0.704901 0
M  V30 4931 H 469.161 -0.0636639 -1.94796 0
M  V30 4932 H 468.257 1.12083 -2.9128 0
M  V30 4933 N 468.558 1.5553 0.254621 0
M  V30 4934 C 469.468 1.92789 1.33677 0
M  V30 4935 C 470.484 0.827356 1.53071 0
M  V30 4936 O 471.66 1.12807 1.66843 0
M  V30 4937 C 468.725 2.20827 2.67275 0
M  V30 4938 C 467.786 3.4427 2.5647 0
M  V30 4939 C 467.019 3.70961 3.83697 0
M  V30 4940 O 467.242 2.99852 4.85227 0
M  V30 4941 O 466.176 4.64491 3.82794 0
M  V30 4942 H 470.002 2.84945 1.05071 0
M  V30 4943 H 467.587 1.42312 0.454723 0
M  V30 4944 H 469.469 2.40204 3.46237 0
M  V30 4945 H 468.144 1.31851 2.9563 0
M  V30 4946 H 467.051 3.30209 1.75821 0
M  V30 4947 H 468.384 4.33524 2.33062 0
M  V30 4948 N 470.036 -0.519951 1.48776 0
M  V30 4949 C 470.986 -1.61995 1.60442 0
M  V30 4950 C 471.97 -1.54155 0.460991 0
M  V30 4951 O 473.162 -1.62006 0.712965 0
M  V30 4952 C 470.291 -3.00683 1.65664 0
M  V30 4953 C 469.377 -3.1359 2.8552 0
M  V30 4954 N 469.768 -2.96441 4.09825 0
M  V30 4955 C 468.066 -3.44662 2.83062 0
M  V30 4956 C 468.767 -3.1303 4.90293 0
M  V30 4957 N 467.743 -3.41058 4.23297 0
M  V30 4958 H 471.545 -1.47362 2.54287 0
M  V30 4959 H 469.059 -0.725649 1.45286 0
M  V30 4960 H 471.056 -3.79712 1.72117 0
M  V30 4961 H 469.716 -3.16401 0.729425 0
M  V30 4962 H 470.727 -2.72999 4.40104 0
M  V30 4963 H 467.404 -3.66675 1.9964 0
M  V30 4964 H 468.794 -3.04424 5.98979 0
M  V30 4965 N 471.514 -1.37532 -0.769588 0
M  V30 4966 C 472.762 -1.32597 -1.5252 0
M  V30 4967 C 473.083 0.0884294 -1.94799 0
M  V30 4968 O 472.353 1.03289 -1.66458 0
M  V30 4969 H 470.933 -0.487846 -0.565699 0
M  V30 4970 H 473.595 -1.72044 -0.915806 0
M  V30 4971 H 472.691 -1.96643 -2.42359 0
M  V30 4972 N 472.992 0.995999 -1.22138 0
M  V30 4973 C 474.217 1.77601 -1.0711 0
M  V30 4974 C 474.642 1.84339 0.374264 0
M  V30 4975 O 474 1.29359 1.27028 0
M  V30 4976 C 474.048 3.18897 -1.68336 0
M  V30 4977 O 473.152 4.01663 -0.934928 0
M  V30 4978 H 472.493 0.547011 -0.376397 0
M  V30 4979 H 475.023 1.25137 -1.6187 0
M  V30 4980 H 475.033 3.69539 -1.72931 0
M  V30 4981 H 473.708 3.13308 -2.73516 0
M  V30 4982 H 472.285 3.60204 -0.964751 0
M  V30 4983 N 474.47 1.03057 1.19235 0
M  V30 4984 C 475.698 0.747697 1.92917 0
M  V30 4985 C 476.113 -0.69372 1.75593 0
M  V30 4986 O 475.47 -1.47191 1.07894 0
M  V30 4987 C 475.521 1.09159 3.44625 0
M  V30 4988 O 475.242 2.47641 3.61394 0
M  V30 4989 C 476.743 0.831763 4.35427 0
M  V30 4990 H 473.963 0.273453 0.612751 0
M  V30 4991 H 476.507 1.37552 1.51327 0
M  V30 4992 H 474.662 0.508919 3.84043 0
M  V30 4993 H 475.076 2.60499 4.55237 0
M  V30 4994 H 476.55 1.12233 5.4047 0
M  V30 4995 H 477.027 -0.233769 4.38577 0
M  V30 4996 H 477.633 1.39725 4.01693 0
M  V30 4997 N 475.948 -1.35272 0.808662 0
M  V30 4998 C 477.178 -2.02652 0.401953 0
M  V30 4999 C 477.586 -1.6108 -0.992462 0
M  V30 5000 O 476.929 -0.804984 -1.65123 0
M  V30 5001 C 476.991 -3.57174 0.408246 0
M  V30 5002 C 476.655 -4.22019 1.75353 0
M  V30 5003 C 477.652 -4.43552 2.71215 0
M  V30 5004 C 475.337 -4.59093 2.03811 0
M  V30 5005 C 477.331 -5.01264 3.93717 0
M  V30 5006 C 475.018 -5.16519 3.26576 0
M  V30 5007 C 476.016 -5.37546 4.21347 0
M  V30 5008 O 475.704 -5.93761 5.41944 0
M  V30 5009 H 475.436 -0.656495 0.161216 0
M  V30 5010 H 477.99 -1.73829 1.0942 0
M  V30 5011 H 476.22 -3.85197 -0.340608 0
M  V30 5012 H 477.909 -4.05893 0.0235623 0
M  V30 5013 H 478.675 -4.15288 2.50522 0
M  V30 5014 H 474.554 -4.42039 1.30854 0
M  V30 5015 H 478.098 -5.17592 4.67701 0
M  V30 5016 H 473.995 -5.4421 3.47139 0
M  V30 5017 H 474.763 -6.1221 5.43269 0
M  V30 5018 N 477.426 -0.562348 -1.47226 0
M  V30 5019 C 478.674 -0.0401371 -2.0206 0
M  V30 5020 C 478.995 1.3165 -1.43852 0
M  V30 5021 O 478.265 1.85976 -0.615599 0
M  V30 5022 H 476.845 -0.0118479 -0.746906 0
M  V30 5023 H 479.507 -0.73352 -1.8057 0
M  V30 5024 H 478.603 0.0441254 -3.12069 0
M  V30 5025 N 478.904 1.54736 -0.299062 0
M  V30 5026 C 480.152 1.99706 0.31017 0
M  V30 5027 C 480.473 1.18896 1.54559 0
M  V30 5028 O 479.743 0.284445 1.93824 0
M  V30 5029 H 478.323 0.737686 0.117596 0
M  V30 5030 H 480.985 1.9054 -0.409943 0
M  V30 5031 H 480.081 3.06596 0.58355 0
M  V30 5032 N 480.382 0.0267497 1.57577 0
M  V30 5033 C 481.33 -0.973923 2.11229 0
M  V30 5034 C 482.324 -1.33849 1.03831 0
M  V30 5035 O 483.53 -1.321 1.22269 0
M  V30 5036 H 479.905 -0.331844 0.674821 0
M  V30 5037 H 481.876 -0.496092 2.94247 0
M  V30 5038 C 480.625 -2.24798 2.65257 0
M  V30 5039 H 479.948 -1.9762 3.47543 0
M  V30 5040 H 481.388 -2.93031 3.06445 0
M  V30 5041 C 479.847 -2.97611 1.57891 0
M  V30 5042 O 480.377 -3.89629 0.97735 0
M  V30 5043 N 478.583 -2.59905 1.29992 0
M  V30 5044 H 478.13 -1.85154 1.79097 0
M  V30 5045 H 478.088 -3.08932 0.583798 0
M  V30 5046 N 481.861 -1.55662 -0.24637 0
M  V30 5047 C 483.272 -1.67953 -0.81539 0
M  V30 5048 C 483.623 -0.624302 -1.86002 0
M  V30 5049 O 482.748 0.229328 -2.15181 0
M  V30 5050 C 483.343 -3.04484 -1.48576 0
M  V30 5051 C 481.902 -3.18713 -2.00248 0
M  V30 5052 C 481.049 -2.6383 -0.853766 0
M  V30 5053 H 484 -1.58685 -0.0221692 0
M  V30 5054 H 484.021 -2.98959 -2.3538 0
M  V30 5055 H 483.533 -3.81264 -0.725222 0
M  V30 5056 H 481.634 -2.46757 -2.79181 0
M  V30 5057 H 481.747 -4.25628 -2.1995 0
M  V30 5058 H 480.111 -2.21667 -1.25442 0
M  V30 5059 H 480.894 -3.43135 -0.106302 0
M  V30 5060 N 483.339 0.512053 -1.4905 0
M  V30 5061 C 484.269 1.62365 -1.67809 0
M  V30 5062 C 485.25 1.61737 -0.526809 0
M  V30 5063 O 486.435 1.78651 -0.761404 0
M  V30 5064 C 483.565 3.00895 -1.73435 0
M  V30 5065 C 482.519 3.16387 -2.88242 0
M  V30 5066 C 481.845 4.56157 -2.78971 0
M  V30 5067 C 483.145 2.97457 -4.29321 0
M  V30 5068 H 484.839 1.46921 -2.60873 0
M  V30 5069 H 482.385 0.705379 -1.2554 0
M  V30 5070 H 484.338 3.78549 -1.85145 0
M  V30 5071 H 483.062 3.17403 -0.769619 0
M  V30 5072 H 481.721 2.41155 -2.76116 0
M  V30 5073 H 481.369 4.69525 -1.8043 0
M  V30 5074 H 481.069 4.67465 -3.5602 0
M  V30 5075 H 482.593 5.35886 -2.92675 0
M  V30 5076 H 484.007 3.64888 -4.42187 0
M  V30 5077 H 482.404 3.20245 -5.07507 0
M  V30 5078 H 483.474 1.93692 -4.44535 0
M  V30 5079 N 484.817 1.37938 0.762283 0
M  V30 5080 C 486.065 1.33404 1.51815 0
M  V30 5081 C 486.386 -0.0780975 1.94844 0
M  V30 5082 O 485.656 -1.02405 1.67003 0
M  V30 5083 H 484.236 0.490839 0.563104 0
M  V30 5084 H 486.898 1.72527 0.906669 0
M  V30 5085 H 485.994 1.97926 2.41313 0
M  V30 5086 N 486.295 -0.989507 1.22664 0
M  V30 5087 C 487.535 -1.7447 1.06488 0
M  V30 5088 C 487.899 -1.8794 -0.392737 0
M  V30 5089 O 489.1 -2.60175 -0.675446 0
M  V30 5090 C 487.371 -3.11043 1.76031 0
M  V30 5091 S 488.93 -4.02258 1.7531 0
M  V30 5092 H 485.748 -0.600123 0.381278 0
M  V30 5093 H 488.35 -1.18283 1.55658 0
M  V30 5094 H 487.054 -2.98884 2.81241 0
M  V30 5095 H 486.585 -3.72301 1.27105 0
M  V30 5096 H 488.6 -4.89623 0.805208 0
M  V30 5097 N 487.773 -1.03688 -1.18687 0
M  V30 5098 C 489.189 -0.755413 -1.4059 0
M  V30 5099 C 489.389 0.656659 -1.905 0
M  V30 5100 O 488.445 1.42144 -2.08689 0
M  V30 5101 C 489.758 -1.7983 -2.41001 0
M  V30 5102 C 491.306 -1.81877 -2.54735 0
M  V30 5103 C 491.781 -2.85148 -3.58406 0
M  V30 5104 N 493.272 -2.84015 -3.6591 0
M  V30 5105 C 494.007 -3.60573 -4.45841 0
M  V30 5106 N 493.503 -4.46871 -5.29413 0
M  V30 5107 N 495.296 -3.49079 -4.40568 0
M  V30 5108 H 487.447 -1.94818 -0.846148 0
M  V30 5109 H 489.71 -0.842727 -0.434184 0
M  V30 5110 H 489.416 -2.81097 -2.1137 0
M  V30 5111 H 489.29 -1.62727 -3.40294 0
M  V30 5112 H 491.677 -0.812836 -2.83685 0
M  V30 5113 H 491.758 -2.03057 -1.55568 0
M  V30 5114 H 491.402 -3.85918 -3.30197 0
M  V30 5115 H 491.332 -2.61224 -4.57241 0
M  V30 5116 H 493.823 -2.21431 -3.0623 0
M  V30 5117 H 494.136 -5.02007 -5.87545 0
M  V30 5118 H 492.481 -4.5094 -5.28846 0
M  V30 5119 H 495.672 -2.81066 -3.74325 0
M  V30 5120 H 495.845 -4.08994 -5.02621 0
M  V30 5121 N 489.251 1.34841 -0.815825 0
M  V30 5122 C 490.497 1.98793 -0.401129 0
M  V30 5123 C 490.83 1.64548 1.03139 0
M  V30 5124 O 490.105 0.913487 1.71714 0
M  V30 5125 C 490.388 3.55143 -0.595409 0
M  V30 5126 C 490.241 3.99155 -2.07352 0
M  V30 5127 C 491.56 4.40092 -0.0268823 0
M  V30 5128 H 488.679 0.722146 -0.14722 0
M  V30 5129 H 491.321 1.59847 -1.02707 0
M  V30 5130 H 489.471 3.8845 -0.0625779 0
M  V30 5131 H 491.143 3.76216 -2.66945 0
M  V30 5132 H 489.386 3.49726 -2.56659 0
M  V30 5133 H 490.057 5.07971 -2.1603 0
M  V30 5134 H 492.533 4.13298 -0.482042 0
M  V30 5135 H 491.409 5.48562 -0.19267 0
M  V30 5136 H 491.67 4.29016 1.06759 0
M  V30 5137 N 490.729 0.570148 1.46925 0
M  V30 5138 C 491.692 -0.159933 2.28641 0
M  V30 5139 C 492.692 -0.830638 1.37685 0
M  V30 5140 O 493.882 -0.684516 1.60187 0
M  V30 5141 C 491.014 -1.2354 3.17727 0
M  V30 5142 H 492.207 0.558035 2.94662 0
M  V30 5143 H 489.76 0.327603 1.52828 0
M  V30 5144 H 490.495 -1.98535 2.56426 0
M  V30 5145 H 490.28 -0.759125 3.84681 0
M  V30 5146 H 491.77 -1.74782 3.79264 0
M  V30 5147 N 492.207 -1.54576 0.307264 0
M  V30 5148 C 493.456 -1.99442 -0.300976 0
M  V30 5149 C 493.769 -1.19928 -1.5452 0
M  V30 5150 O 494.975 -1.55092 -2.22842 0
M  V30 5151 C 493.431 -3.55084 -0.586809 0
M  V30 5152 C 493.039 -4.43413 0.639438 0
M  V30 5153 C 494.783 -4.0846 -1.1559 0
M  V30 5154 C 492.69 -5.90499 0.326411 0
M  V30 5155 H 491.62 -0.744986 -0.116238 0
M  V30 5156 H 494.271 -1.787 0.416947 0
M  V30 5157 H 492.653 -3.71749 -1.36449 0
M  V30 5158 H 493.827 -4.38522 1.41545 0
M  V30 5159 H 492.142 -4.00842 1.1276 0
M  V30 5160 H 494.739 -5.15926 -1.40445 0
M  V30 5161 H 495.082 -3.59443 -2.10015 0
M  V30 5162 H 495.615 -3.95362 -0.439778 0
M  V30 5163 H 492.354 -6.43676 1.23939 0
M  V30 5164 H 491.874 -5.98382 -0.412212 0
M  V30 5165 H 493.553 -6.46962 -0.0697393 0
M  V30 5166 N 493.685 -0.035106 -1.57561 0
M  V30 5167 C 494.648 0.929819 -2.09492 0
M  V30 5168 C 495.648 1.25026 -1.01119 0
M  V30 5169 O 496.838 1.18961 -1.27255 0
M  V30 5170 C 493.97 2.24457 -2.56577 0
M  V30 5171 H 495.163 0.479935 -2.96035 0
M  V30 5172 H 492.716 0.213033 -1.54841 0
M  V30 5173 H 493.451 2.74061 -1.73382 0
M  V30 5174 H 493.236 2.02508 -3.35757 0
M  V30 5175 H 494.726 2.93607 -2.96959 0
M  V30 5176 N 495.163 1.55791 0.238111 0
M  V30 5177 C 496.126 1.90239 1.27835 0
M  V30 5178 C 497.126 0.779552 1.4064 0
M  V30 5179 O 498.316 1.04747 1.3919 0
M  V30 5180 C 495.448 2.13859 2.65475 0
M  V30 5181 H 496.641 2.83262 0.985034 0
M  V30 5182 H 494.194 1.48818 0.477799 0
M  V30 5183 H 494.929 1.23334 2.99932 0
M  V30 5184 H 494.714 2.95643 2.57561 0
M  V30 5185 H 496.204 2.41664 3.40571 0
M  V30 5186 N 496.642 -0.504142 1.49319 0
M  V30 5187 C 497.572 -1.61473 1.68667 0
M  V30 5188 C 498.553 -1.61455 0.535378 0
M  V30 5189 O 499.738 -1.78245 0.770868 0
M  V30 5190 C 496.868 -2.99971 1.75028 0
M  V30 5191 C 495.822 -3.14854 2.89916 0
M  V30 5192 C 495.148 -4.54671 2.81387 0
M  V30 5193 C 496.448 -2.95176 4.30893 0
M  V30 5194 H 498.142 -1.45535 2.61648 0
M  V30 5195 H 495.688 -0.698711 1.25913 0
M  V30 5196 H 497.641 -3.77562 1.8715 0
M  V30 5197 H 496.365 -3.1699 0.786441 0
M  V30 5198 H 495.024 -2.39687 2.77391 0
M  V30 5199 H 494.672 -4.68562 1.82917 0
M  V30 5200 H 494.372 -4.6557 3.58494 0
M  V30 5201 H 495.896 -5.34327 2.95512 0
M  V30 5202 H 497.31 -3.62538 4.44116 0
M  V30 5203 H 495.707 -3.17549 5.09198 0
M  V30 5204 H 496.777 -1.91332 4.45556 0
M  V30 5205 N 498.12 -1.38341 -0.754957 0
M  V30 5206 C 499.03 -1.3769 -1.89944 0
M  V30 5207 C 500.046 -0.274194 -1.71826 0
M  V30 5208 O 501.222 -0.512391 -1.94773 0
M  V30 5209 C 498.287 -1.19938 -3.25293 0
M  V30 5210 C 497.348 -2.40001 -3.55946 0
M  V30 5211 C 496.581 -2.23087 -4.84838 0
M  V30 5212 O 496.804 -1.22386 -5.57116 0
M  V30 5213 O 495.738 -3.11646 -5.14937 0
M  V30 5214 H 499.564 -2.3412 -1.93446 0
M  V30 5215 H 497.149 -1.19246 -0.900044 0
M  V30 5216 H 499.031 -1.12093 -4.06218 0
M  V30 5217 H 497.706 -0.265919 -3.22606 0
M  V30 5218 H 496.613 -2.53421 -2.75188 0
M  V30 5219 H 497.946 -3.31973 -3.63394 0
M  V30 5220 N 499.598 0.982988 -1.23187 0
M  V30 5221 C 500.844 1.72648 -1.06398 0
M  V30 5222 C 501.177 1.90066 0.398561 0
M  V30 5223 O 500.452 1.45105 1.29518 0
M  V30 5224 C 500.735 3.12627 -1.78707 0
M  V30 5225 C 500.588 3.02795 -3.32618 0
M  V30 5226 C 501.907 4.11997 -1.54747 0
M  V30 5227 H 499.026 0.626649 -0.387918 0
M  V30 5228 H 501.668 1.14455 -1.51658 0
M  V30 5229 H 499.818 3.62308 -1.40234 0
M  V30 5230 H 501.49 2.60659 -3.80598 0
M  V30 5231 H 499.733 2.39362 -3.61785 0
M  V30 5232 H 500.404 4.01893 -3.78399 0
M  V30 5233 H 502.88 3.71114 -1.88186 0
M  V30 5234 H 501.756 5.08037 -2.07821 0
M  V30 5235 H 502.017 4.39462 -0.482249 0
M  V30 5236 N 501.076 1.04316 1.18135 0
M  V30 5237 C 502.006 0.657299 2.24058 0
M  V30 5238 C 502.987 -0.340678 1.66654 0
M  V30 5239 O 504.172 -0.220223 1.92947 0
M  V30 5240 C 501.302 0.0220715 3.47293 0
M  V30 5241 C 500.256 0.943857 4.17463 0
M  V30 5242 C 499.582 0.172973 5.3442 0
M  V30 5243 C 500.882 2.26409 4.70677 0
M  V30 5244 H 502.576 1.5428 2.56589 0
M  V30 5245 H 500.122 0.743263 1.23335 0
M  V30 5246 H 502.075 -0.259607 4.206 0
M  V30 5247 H 500.799 -0.898323 3.14003 0
M  V30 5248 H 499.458 1.20996 3.46057 0
M  V30 5249 H 499.106 -0.749907 4.97379 0
M  V30 5250 H 498.806 0.787098 5.82304 0
M  V30 5251 H 500.33 -0.101628 6.10515 0
M  V30 5252 H 501.744 2.04294 5.35665 0
M  V30 5253 H 500.141 2.8314 5.29105 0
M  V30 5254 H 501.211 2.90883 3.87962 0
M  V30 5255 N 502.554 -1.34406 0.822964 0
M  V30 5256 C 503.464 -2.33298 0.246838 0
M  V30 5257 C 504.48 -1.62625 -0.618797 0
M  V30 5258 O 505.656 -1.94391 -0.526685 0
M  V30 5259 C 502.721 -3.41785 -0.581731 0
M  V30 5260 C 501.782 -4.28206 0.306309 0
M  V30 5261 C 501.015 -5.31512 -0.48281 0
M  V30 5262 O 501.238 -5.43973 -1.71607 0
M  V30 5263 O 500.172 -6.01749 0.134884 0
M  V30 5264 H 503.998 -2.84401 1.06534 0
M  V30 5265 H 501.583 -1.37466 0.585108 0
M  V30 5266 H 503.465 -4.08028 -1.05313 0
M  V30 5267 H 502.14 -2.92925 -1.37756 0
M  V30 5268 H 501.047 -3.64885 0.825199 0
M  V30 5269 H 502.38 -4.80507 1.06649 0
M  V30 5270 N 504.032 -0.577932 -1.46621 0
M  V30 5271 C 504.942 0.160651 -2.34049 0
M  V30 5272 C 505.958 0.890911 -1.49462 0
M  V30 5273 O 507.134 0.855166 -1.82343 0
M  V30 5274 C 504.199 1.16447 -3.26559 0
M  V30 5275 C 503.26 0.4394 -4.27045 0
M  V30 5276 C 502.493 1.3954 -5.15135 0
M  V30 5277 O 502.716 2.63162 -5.06065 0
M  V30 5278 O 501.65 0.908585 -5.95003 0
M  V30 5279 H 505.476 -0.557057 -2.98547 0
M  V30 5280 H 503.061 -0.338369 -1.45518 0
M  V30 5281 H 504.943 1.7434 -3.83645 0
M  V30 5282 H 503.618 1.86373 -2.64663 0
M  V30 5283 H 502.525 -0.181247 -3.73661 0
M  V30 5284 H 503.858 -0.218799 -4.91713 0
M  V30 5285 N 505.51 1.54411 -0.315457 0
M  V30 5286 C 506.42 2.27737 0.56329 0
M  V30 5287 C 507.436 1.31787 1.13614 0
M  V30 5288 O 508.612 1.64791 1.15784 0
M  V30 5289 C 505.677 3.01478 1.71207 0
M  V30 5290 C 504.738 4.12997 1.17185 0
M  V30 5291 C 503.971 4.83212 2.26588 0
M  V30 5292 O 504.194 4.52884 3.46775 0
M  V30 5293 O 503.128 5.70299 1.92463 0
M  V30 5294 H 506.954 3.03683 -0.0319614 0
M  V30 5295 H 504.539 1.49178 -0.0814188 0
M  V30 5296 H 506.421 3.47683 2.38106 0
M  V30 5297 H 505.096 2.28414 2.29366 0
M  V30 5298 H 504.003 3.71159 0.468174 0
M  V30 5299 H 505.336 4.8808 0.635501 0
M  V30 5300 N 506.988 0.0434614 1.5754 0
M  V30 5301 C 507.936 -0.951465 2.1225 0
M  V30 5302 C 508.93 -1.3274 1.05245 0
M  V30 5303 O 510.136 -1.30795 1.23663 0
M  V30 5304 H 506.511 -0.324667 0.678303 0
M  V30 5305 H 508.482 -0.464855 2.94757 0
M  V30 5306 C 507.231 -2.21972 2.67626 0
M  V30 5307 H 506.554 -1.93923 3.4962 0
M  V30 5308 H 507.994 -2.89765 3.09536 0
M  V30 5309 C 506.453 -2.95919 1.61038 0
M  V30 5310 O 506.983 -3.8857 1.01862 0
M  V30 5311 N 505.189 -2.58511 1.32741 0
M  V30 5312 H 504.736 -1.83244 1.81051 0
M  V30 5313 H 504.694 -3.08296 0.616531 0
M  V30 5314 N 508.466 -1.55915 -0.229846 0
M  V30 5315 C 509.396 -1.94754 -1.28815 0
M  V30 5316 C 510.377 -0.814657 -1.49323 0
M  V30 5317 O 511.562 -1.07631 -1.61645 0
M  V30 5318 C 508.692 -2.25705 -2.63959 0
M  V30 5319 C 507.646 -3.41406 -2.5812 0
M  V30 5320 C 506.972 -3.57941 -3.97218 0
M  V30 5321 C 508.272 -4.76616 -2.13623 0
M  V30 5322 H 509.966 -2.83404 -0.965547 0
M  V30 5323 H 507.512 -1.36353 -0.463028 0
M  V30 5324 H 509.465 -2.51467 -3.38146 0
M  V30 5325 H 508.189 -1.339 -2.9789 0
M  V30 5326 H 506.848 -3.1568 -1.86391 0
M  V30 5327 H 506.496 -2.63526 -4.28443 0
M  V30 5328 H 506.196 -4.35757 -3.94195 0
M  V30 5329 H 507.72 -3.86042 -4.73079 0
M  V30 5330 H 509.134 -5.01637 -2.77549 0
M  V30 5331 H 507.531 -5.57655 -2.21677 0
M  V30 5332 H 508.601 -4.7253 -1.08829 0
M  V30 5333 N 509.944 0.496216 -1.49584 0
M  V30 5334 C 510.907 1.57952 -1.66084 0
M  V30 5335 C 511.907 1.51729 -0.53244 0
M  V30 5336 O 513.097 1.54796 -0.79899 0
M  V30 5337 C 510.229 2.97604 -1.66268 0
M  V30 5338 H 511.422 1.44649 -2.6271 0
M  V30 5339 H 508.975 0.7208 -1.38687 0
M  V30 5340 H 509.71 3.16378 -0.712432 0
M  V30 5341 H 509.495 3.03528 -2.4822 0
M  V30 5342 H 510.985 3.76301 -1.81073 0
M  V30 5343 N 511.423 1.38739 0.74761 0
M  V30 5344 C 512.333 1.38696 1.89211 0
M  V30 5345 C 513.349 0.283303 1.71678 0
M  V30 5346 O 514.525 0.522713 1.94498 0
M  V30 5347 C 511.59 1.21662 3.24653 0
M  V30 5348 C 510.651 2.41886 3.54669 0
M  V30 5349 C 509.884 2.25655 4.83648 0
M  V30 5350 O 510.107 1.25339 5.56459 0
M  V30 5351 O 509.041 3.14372 5.13277 0
M  V30 5352 H 512.867 2.35143 1.92202 0
M  V30 5353 H 510.452 1.19721 0.893708 0
M  V30 5354 H 512.334 1.14246 4.05618 0
M  V30 5355 H 511.009 0.283024 3.2246 0
M  V30 5356 H 509.916 2.54877 2.73841 0
M  V30 5357 H 511.249 3.33895 3.61628 0
M  V30 5358 N 512.901 -0.976442 1.23707 0
M  V30 5359 C 513.849 -2.09078 1.01927 0
M  V30 5360 C 514.843 -1.69345 -0.0430193 0
M  V30 5361 O 516.049 -1.79659 0.110814 0
M  V30 5362 H 512.424 -0.68398 0.312531 0
M  V30 5363 H 514.395 -2.24614 1.96447 0
M  V30 5364 C 513.144 -3.41919 0.631385 0
M  V30 5365 H 512.467 -3.72946 1.44053 0
M  V30 5366 H 513.907 -4.20817 0.518532 0
M  V30 5367 C 512.366 -3.30357 -0.660723 0
M  V30 5368 O 512.896 -3.63542 -1.70881 0
M  V30 5369 N 511.102 -2.83507 -0.638139 0
M  V30 5370 H 510.649 -2.567 0.215108 0
M  V30 5371 H 510.607 -2.76153 -1.50289 0
M  V30 5372 N 514.379 -1.04941 -1.1758 0
M  V30 5373 C 515.342 -0.652456 -2.19717 0
M  V30 5374 C 516.342 0.294745 -1.58076 0
M  V30 5375 O 517.532 0.0789579 -1.74021 0
M  V30 5376 C 514.664 0.0420712 -3.40874 0
M  V30 5377 H 515.857 -1.55642 -2.5635 0
M  V30 5378 H 513.41 -0.842995 -1.31618 0
M  V30 5379 H 514.145 0.95943 -3.09783 0
M  V30 5380 H 513.93 -0.638844 -3.86861 0
M  V30 5381 H 515.42 0.306 -4.16477 0
M  V30 5382 N 515.857 1.33968 -0.830081 0
M  V30 5383 C 517.134 1.92554 -0.343858 0
M  V30 5384 C 517.514 1.7573 1.16971 0
M  V30 5385 O 516.862 1.14035 1.98011 0
M  V30 5386 C 517.072 3.40147 -0.781073 0
M  V30 5387 C 518.42 4.17299 -0.78402 0
M  V30 5388 O 519.444 3.48762 -0.724112 0
M  V30 5389 O 518.303 5.39631 -0.863739 0
M  V30 5390 H 515.397 0.821469 -0.0954827 0
M  V30 5391 H 517.943 1.42897 -0.915348 0
M  V30 5392 H 516.715 3.46225 -1.82329 0
M  V30 5393 H 516.338 3.97166 -0.18567 0
M  V30 5394 N 517.335 0.585699 1.46312 0
M  V30 5395 C 518.282 -0.145835 2.30339 0
M  V30 5396 C 519.252 -0.881215 1.40797 0
M  V30 5397 O 520.437 -0.871293 1.69744 0
M  V30 5398 C 517.577 -1.15161 3.25318 0
M  V30 5399 C 516.69 -0.419367 4.2996 0
M  V30 5400 C 515.825 -1.41293 5.12064 0
M  V30 5401 C 514.864 -0.667261 6.08452 0
M  V30 5402 N 514.001 -1.60903 6.83414 0
M  V30 5403 H 518.841 0.576755 2.92365 0
M  V30 5404 H 516.378 0.296237 1.44086 0
M  V30 5405 H 518.336 -1.74763 3.78832 0
M  V30 5406 H 516.966 -1.84188 2.65094 0
M  V30 5407 H 516.018 0.291751 3.7928 0
M  V30 5408 H 517.33 0.163433 4.98532 0
M  V30 5409 H 516.484 -2.08167 5.6987 0
M  V30 5410 H 515.223 -2.02966 4.43459 0
M  V30 5411 H 514.228 0.0152356 5.49798 0
M  V30 5412 H 515.453 -0.0558817 6.79077 0
M  V30 5413 H 513.399 -2.21381 6.17516 0
M  V30 5414 H 513.316 -1.07911 7.48259 0
M  V30 5415 H 514.584 -2.26802 7.45775 0
M  V30 5416 N 518.813 -1.54241 0.323641 0
M  V30 5417 C 519.743 -2.27289 -0.534993 0
M  V30 5418 C 520.724 -1.28087 -1.11927 0
M  V30 5419 O 521.909 -1.56899 -1.14439 0
M  V30 5420 C 519.039 -3.03075 -1.69596 0
M  V30 5421 C 517.993 -4.09614 -1.24098 0
M  V30 5422 C 517.319 -4.73242 -2.4889 0
M  V30 5423 C 518.619 -5.21087 -0.355789 0
M  V30 5424 H 520.313 -2.99308 0.0743257 0
M  V30 5425 H 517.859 -1.43952 0.0371874 0
M  V30 5426 H 519.812 -3.52907 -2.30293 0
M  V30 5427 H 518.536 -2.28673 -2.33187 0
M  V30 5428 H 517.195 -3.60666 -0.656945 0
M  V30 5429 H 516.843 -3.95455 -3.10845 0
M  V30 5430 H 516.543 -5.45209 -2.19138 0
M  V30 5431 H 518.067 -5.25848 -3.10348 0
M  V30 5432 H 519.481 -5.66675 -0.869042 0
M  V30 5433 H 517.878 -5.9991 -0.151045 0
M  V30 5434 H 518.948 -4.81005 0.613339 0
M  V30 5435 N 520.291 -0.0518155 -1.57515 0
M  V30 5436 C 521.539 0.620595 -1.92336 0
M  V30 5437 C 521.86 1.71345 -0.930907 0
M  V30 5438 O 521.13 1.95885 0.0241341 0
M  V30 5439 H 519.71 0.232226 -0.709986 0
M  V30 5440 H 522.372 -0.104969 -1.94617 0
M  V30 5441 H 521.468 1.05879 -2.93592 0
M  V30 5442 N 521.769 1.56035 0.221574 0
M  V30 5443 C 523.018 1.78245 0.944016 0
M  V30 5444 C 523.331 0.620371 1.85501 0
M  V30 5445 O 524.537 0.726103 2.6161 0
M  V30 5446 C 522.993 3.15659 1.7288 0
M  V30 5447 C 522.601 4.39591 0.863942 0
M  V30 5448 C 524.345 3.47195 2.44246 0
M  V30 5449 C 522.252 5.6803 1.64607 0
M  V30 5450 H 521.182 0.664547 0.356222 0
M  V30 5451 H 523.833 1.8243 0.197904 0
M  V30 5452 H 522.215 3.0565 2.51781 0
M  V30 5453 H 523.389 4.60655 0.115464 0
M  V30 5454 H 521.704 4.15572 0.262407 0
M  V30 5455 H 524.301 4.40381 3.03263 0
M  V30 5456 H 524.644 2.69693 3.1713 0
M  V30 5457 H 525.177 3.58533 1.72334 0
M  V30 5458 H 521.916 6.48425 0.960507 0
M  V30 5459 H 521.436 5.51027 2.36917 0
M  V30 5460 H 523.115 6.08203 2.20675 0
M  V30 5461 N 523.247 -0.488276 1.49845 0
M  V30 5462 C 524.496 -1.23826 1.59217 0
M  V30 5463 C 524.809 -1.93439 0.289966 0
M  V30 5464 O 526.015 -2.70229 0.262382 0
M  V30 5465 C 524.471 -2.24902 2.80976 0
M  V30 5466 C 524.079 -1.6117 4.18005 0
M  V30 5467 C 525.823 -3.00648 2.99685 0
M  V30 5468 C 523.73 -2.60431 5.3097 0
M  V30 5469 H 522.66 -0.465858 0.592868 0
M  V30 5470 H 525.311 -0.510645 1.76252 0
M  V30 5471 H 523.693 -3.0088 2.57463 0
M  V30 5472 H 524.867 -0.910968 4.51706 0
M  V30 5473 H 523.182 -0.97767 4.0476 0
M  V30 5474 H 525.779 -3.74903 3.81251 0
M  V30 5475 H 526.122 -3.5902 2.10738 0
M  V30 5476 H 526.655 -2.31784 3.23297 0
M  V30 5477 H 523.394 -2.06823 6.22017 0
M  V30 5478 H 522.914 -3.28707 5.01709 0
M  V30 5479 H 524.593 -3.22606 5.60834 0
M  V30 5480 N 524.725 -1.39134 -0.740242 0
M  V30 5481 C 525.655 -1.40165 -1.86751 0
M  V30 5482 C 526.636 -0.265708 -1.68012 0
M  V30 5483 O 527.821 -0.47076 -1.88408 0
M  V30 5484 C 524.951 -1.2392 -3.2444 0
M  V30 5485 C 523.905 -2.34858 -3.57807 0
M  V30 5486 C 523.231 -2.03707 -4.94376 0
M  V30 5487 C 524.531 -3.77159 -3.61315 0
M  V30 5488 H 526.225 -2.345 -1.86145 0
M  V30 5489 H 523.771 -1.12875 -0.89416 0
M  V30 5490 H 525.724 -1.23263 -4.02969 0
M  V30 5491 H 524.448 -0.26051 -3.25559 0
M  V30 5492 H 523.107 -2.34723 -2.81604 0
M  V30 5493 H 522.755 -1.04289 -4.9207 0
M  V30 5494 H 522.455 -2.78016 -5.17669 0
M  V30 5495 H 523.979 -2.04691 -5.75268 0
M  V30 5496 H 525.393 -3.79252 -4.29931 0
M  V30 5497 H 523.79 -4.50784 -3.96124 0
M  V30 5498 H 524.86 -4.08513 -2.61238 0
M  V30 5499 N 526.204 0.969867 -1.24223 0
M  V30 5500 C 527.62 1.23809 -1.00716 0
M  V30 5501 C 527.82 1.99469 0.285358 0
M  V30 5502 O 526.876 2.31764 1.00207 0
M  V30 5503 C 528.189 2.02734 -2.2208 0
M  V30 5504 C 529.737 2.15834 -2.26681 0
M  V30 5505 C 530.212 2.98154 -3.47661 0
M  V30 5506 N 531.703 3.05737 -3.47964 0
M  V30 5507 C 532.438 3.69785 -4.38231 0
M  V30 5508 N 531.934 4.35569 -5.3875 0
M  V30 5509 N 533.727 3.66775 -4.25949 0
M  V30 5510 H 525.878 0.463294 -2.07286 0
M  V30 5511 H 528.141 0.267348 -0.909521 0
M  V30 5512 H 527.847 1.54524 -3.15935 0
M  V30 5513 H 527.721 3.0347 -2.24021 0
M  V30 5514 H 530.108 2.63248 -1.33359 0
M  V30 5515 H 530.189 1.14453 -2.28767 0
M  V30 5516 H 529.833 2.51435 -4.41297 0
M  V30 5517 H 529.763 3.99729 -3.42818 0
M  V30 5518 H 532.254 2.58941 -2.75242 0
M  V30 5519 H 532.567 4.82251 -6.03866 0
M  V30 5520 H 530.912 4.34244 -5.42639 0
M  V30 5521 H 534.103 3.14558 -3.46657 0
M  V30 5522 H 534.276 4.16407 -4.96497 0
M  V30 5523 N 527.682 1.05563 1.17022 0
M  V30 5524 C 528.63 0.653887 2.2322 0
M  V30 5525 C 529.624 -0.326642 1.66221 0
M  V30 5526 O 530.83 -0.192301 1.7897 0
M  V30 5527 H 527.205 0.193297 0.726733 0
M  V30 5528 H 529.176 1.5596 2.54399 0
M  V30 5529 C 527.925 0.0485434 3.47666 0
M  V30 5530 H 527.248 0.79413 3.91834 0
M  V30 5531 H 528.688 -0.195133 4.23551 0
M  V30 5532 C 527.147 -1.20583 3.14581 0
M  V30 5533 O 527.677 -2.29475 3.29703 0
M  V30 5534 N 525.883 -1.10493 2.68774 0
M  V30 5535 H 525.43 -0.218795 2.56669 0
M  V30 5536 H 525.388 -1.94507 2.47011 0
M  V30 5537 N 529.16 -1.33526 0.837174 0
M  V30 5538 C 530.07 -2.33023 0.271568 0
M  V30 5539 C 531.086 -1.63272 -0.601514 0
M  V30 5540 O 532.262 -1.94939 -0.506038 0
M  V30 5541 C 529.327 -3.42382 -0.545448 0
M  V30 5542 C 528.388 -4.27857 0.351709 0
M  V30 5543 C 527.621 -5.31994 -0.426409 0
M  V30 5544 O 527.844 -5.45763 -1.65828 0
M  V30 5545 O 526.778 -6.01572 0.1987 0
M  V30 5546 H 530.604 -2.83256 1.09545 0
M  V30 5547 H 528.189 -1.36837 0.599655 0
M  V30 5548 H 530.071 -4.09122 -1.00979 0
M  V30 5549 H 528.746 -2.94369 -1.34641 0
M  V30 5550 H 527.653 -3.6399 0.863853 0
M  V30 5551 H 528.986 -4.79349 1.1174 0
M  V30 5552 N 530.638 -0.59345 -1.46 0
M  V30 5553 C 531.568 0.121192 -2.33185 0
M  V30 5554 C 532.549 0.872977 -1.4599 0
M  V30 5555 O 533.734 0.846321 -1.74789 0
M  V30 5556 C 530.864 1.12844 -3.28456 0
M  V30 5557 C 529.818 0.4908 -4.25177 0
M  V30 5558 C 529.144 1.60529 -5.10034 0
M  V30 5559 C 530.444 -0.578949 -5.19081 0
M  V30 5560 H 532.138 -0.606767 -2.93187 0
M  V30 5561 H 529.684 -0.293242 -1.40983 0
M  V30 5562 H 531.637 1.63684 -3.88311 0
M  V30 5563 H 530.361 1.88681 -2.66584 0
M  V30 5564 H 529.02 0.00339328 -3.666 0
M  V30 5565 H 528.668 2.35359 -4.44539 0
M  V30 5566 H 528.368 1.18422 -5.75543 0
M  V30 5567 H 529.892 2.11623 -5.72755 0
M  V30 5568 H 531.306 -0.155199 -5.7309 0
M  V30 5569 H 529.703 -0.920947 -5.92991 0
M  V30 5570 H 530.773 -1.46109 -4.62364 0
M  V30 5571 N 532.116 1.54067 -0.331816 0
M  V30 5572 C 533.049 2.20886 0.573127 0
M  V30 5573 C 534.027 1.18876 1.10938 0
M  V30 5574 O 535.211 1.47649 1.17184 0
M  V30 5575 C 532.338 2.87706 1.78726 0
M  V30 5576 C 531.384 4.03505 1.38152 0
M  V30 5577 S 532.217 5.33919 0.41123 0
M  V30 5578 C 533.373 6.04236 1.63246 0
M  V30 5579 H 533.606 2.97299 0.00555737 0
M  V30 5580 H 531.139 1.53964 -0.115893 0
M  V30 5581 H 533.097 3.26825 2.48386 0
M  V30 5582 H 531.758 2.1108 2.32603 0
M  V30 5583 H 530.951 4.49152 2.28645 0
M  V30 5584 H 530.553 3.66102 0.764524 0
M  V30 5585 H 532.845 6.26917 2.56869 0
M  V30 5586 H 533.788 6.97546 1.218 0
M  V30 5587 H 534.196 5.34247 1.82318 0
M  V30 5588 N 533.594 0.0601682 1.57485 0
M  V30 5589 C 534.541 -0.91112 2.12055 0
M  V30 5590 C 535.511 -1.30298 1.03013 0
M  V30 5591 O 536.696 -1.39087 1.30612 0
M  V30 5592 C 533.836 -2.1775 2.67729 0
M  V30 5593 C 532.949 -1.83933 3.90887 0
M  V30 5594 C 532.084 -3.05096 4.34845 0
M  V30 5595 C 531.123 -2.67241 5.5068 0
M  V30 5596 N 530.26 -3.81127 5.8965 0
M  V30 5597 H 535.1 -0.43888 2.9475 0
M  V30 5598 H 532.637 -0.204995 1.45665 0
M  V30 5599 H 534.595 -2.91866 2.98111 0
M  V30 5600 H 533.225 -2.62535 1.87816 0
M  V30 5601 H 532.277 -0.999287 3.6704 0
M  V30 5602 H 533.589 -1.52074 4.75052 0
M  V30 5603 H 532.743 -3.87502 4.66827 0
M  V30 5604 H 531.482 -3.40139 3.49509 0
M  V30 5605 H 530.487 -1.83254 5.18361 0
M  V30 5606 H 531.712 -2.3338 6.37738 0
M  V30 5607 H 529.658 -4.15954 5.07266 0
M  V30 5608 H 529.575 -3.52997 6.68528 0
M  V30 5609 H 530.843 -4.64145 6.2625 0
M  V30 5610 N 535.072 -1.5615 -0.213296 0
M  V30 5611 C 536.002 -1.96109 -1.26742 0
M  V30 5612 C 536.983 -0.830448 -1.48451 0
M  V30 5613 O 538.168 -1.09339 -1.60495 0
M  V30 5614 C 535.298 -2.28492 -2.61551 0
M  V30 5615 C 534.252 -3.44124 -2.54485 0
M  V30 5616 C 533.578 -3.62134 -3.93399 0
M  V30 5617 C 534.878 -4.78855 -2.08556 0
M  V30 5618 H 536.572 -2.84412 -0.935434 0
M  V30 5619 H 534.118 -1.36836 -0.44854 0
M  V30 5620 H 536.071 -2.55039 -3.3546 0
M  V30 5621 H 534.795 -1.37052 -2.96453 0
M  V30 5622 H 533.454 -3.17639 -1.83033 0
M  V30 5623 H 533.102 -2.68055 -4.25623 0
M  V30 5624 H 532.802 -4.39913 -3.89551 0
M  V30 5625 H 534.326 -3.91038 -4.68958 0
M  V30 5626 H 535.74 -5.04552 -2.72213 0
M  V30 5627 H 534.137 -5.59975 -2.1575 0
M  V30 5628 H 535.207 -4.73657 -1.03811 0
M  V30 5629 N 536.55 0.480323 -1.50102 0
M  V30 5630 C 537.961 1.06142 -1.53593 0
M  V30 5631 C 538.312 1.93335 -0.334055 0
M  V30 5632 O 537.437 2.09188 0.55403 0
M  V30 5633 C 538.032 1.9317 -2.78336 0
M  V30 5634 C 536.591 2.46405 -2.84538 0
M  V30 5635 C 535.738 1.24521 -2.4777 0
M  V30 5636 H 538.689 0.26333 -1.565 0
M  V30 5637 H 538.71 2.78123 -2.59669 0
M  V30 5638 H 538.222 1.29683 -3.65792 0
M  V30 5639 H 536.323 3.13472 -2.01411 0
M  V30 5640 H 536.436 2.82143 -3.87211 0
M  V30 5641 H 534.8 1.57706 -2.00003 0
M  V30 5642 H 535.583 0.627102 -3.37524 0
M  V30 5643 N 538.028 1.39524 0.732853 0
M  V30 5644 C 539.253 1.40329 1.52717 0
M  V30 5645 C 539.678 0.000286574 1.881 0
M  V30 5646 O 539.036 -0.987262 1.52062 0
M  V30 5647 C 539.084 2.28464 2.78992 0
M  V30 5648 O 538.188 1.716 3.75003 0
M  V30 5649 H 537.529 0.47778 0.461109 0
M  V30 5650 H 540.059 1.83546 0.903996 0
M  V30 5651 H 540.069 2.43051 3.27705 0
M  V30 5652 H 538.744 3.30425 2.52572 0
M  V30 5653 H 537.321 1.66267 3.33781 0
M  V30 5654 N 539.506 -0.963266 1.24736 0
M  V30 5655 C 540.783 -1.68248 0.9976 0
M  V30 5656 C 541.163 -2.05599 -0.478776 0
M  V30 5657 O 540.511 -1.7626 -1.45412 0
M  V30 5658 C 540.721 -2.91118 1.92487 0
M  V30 5659 C 542.069 -3.63261 2.19833 0
M  V30 5660 O 543.093 -3.01184 1.90176 0
M  V30 5661 O 541.952 -4.75019 2.7022 0
M  V30 5662 H 539.046 -0.735744 0.377637 0
M  V30 5663 H 541.592 -1.01696 1.35853 0
M  V30 5664 H 540.364 -2.60242 2.92215 0
M  V30 5665 H 539.987 -3.65402 1.56738 0
M  V30 5666 N 540.985 -1.06182 -1.16461 0
M  V30 5667 C 542.231 -0.779015 -1.87241 0
M  V30 5668 C 542.564 0.692715 -1.81425 0
M  V30 5669 O 541.839 1.5074 -1.22913 0
M  V30 5670 C 542.122 -1.2728 -3.36856 0
M  V30 5671 C 541.975 -2.80821 -3.51368 0
M  V30 5672 C 543.294 -0.879799 -4.31216 0
M  V30 5673 H 540.413 -0.284464 -0.679889 0
M  V30 5674 H 543.055 -1.31755 -1.36896 0
M  V30 5675 H 541.205 -0.814673 -3.79862 0
M  V30 5676 H 542.877 -3.34833 -3.17308 0
M  V30 5677 H 541.12 -3.19606 -2.93316 0
M  V30 5678 H 541.791 -3.10435 -4.56436 0
M  V30 5679 H 544.267 -1.27436 -3.96105 0
M  V30 5680 H 543.143 -1.25278 -5.34412 0
M  V30 5681 H 543.404 0.215372 -4.41575 0
M  V30 5682 N 542.463 1.3308 -0.844243 0
M  V30 5683 C 543.709 1.97898 -0.443206 0
M  V30 5684 C 544.042 1.66699 0.99625 0
M  V30 5685 O 543.317 0.949704 1.69738 0
M  V30 5686 C 543.6 3.53801 -0.670606 0
M  V30 5687 C 543.453 3.94667 -2.15772 0
M  V30 5688 C 544.772 4.39936 -0.120226 0
M  V30 5689 H 541.891 0.718861 -0.162504 0
M  V30 5690 H 544.533 1.57633 -1.06075 0
M  V30 5691 H 542.683 3.88229 -0.14496 0
M  V30 5692 H 544.355 3.70469 -2.74865 0
M  V30 5693 H 542.598 3.44203 -2.6402 0
M  V30 5694 H 543.269 5.03275 -2.26757 0
M  V30 5695 H 545.745 4.12183 -0.5696 0
M  V30 5696 H 544.621 5.4803 -0.308984 0
M  V30 5697 H 544.882 4.31184 0.976347 0
M  V30 5698 N 543.941 0.601185 1.45683 0
M  V30 5699 C 545.169 0.100054 2.06658 0
M  V30 5700 C 545.584 -1.21285 1.44691 0
M  V30 5701 O 544.941 -1.73735 0.558772 0
M  V30 5702 C 544.992 -0.0528579 3.61461 0
M  V30 5703 O 544.713 1.20809 4.21114 0
M  V30 5704 C 546.214 -0.586193 4.39407 0
M  V30 5705 H 543.434 0.065905 0.667756 0
M  V30 5706 H 545.978 0.827101 1.87028 0
M  V30 5707 H 544.133 -0.730203 3.80456 0
M  V30 5708 H 544.547 1.03368 5.14213 0
M  V30 5709 H 546.021 -0.642297 5.4825 0
M  V30 5710 H 546.498 -1.60713 4.0874 0
M  V30 5711 H 547.104 0.0568935 4.25262 0
M  V30 5712 N 545.419 -1.53889 0.339982 0
M  V30 5713 C 546.382 -2.23547 -0.50592 0
M  V30 5714 C 547.382 -1.23445 -1.03044 0
M  V30 5715 O 548.572 -1.47909 -0.920253 0
M  V30 5716 C 545.704 -2.95234 -1.7044 0
M  V30 5717 H 546.897 -2.99722 0.103247 0
M  V30 5718 H 544.45 -1.56033 0.0912804 0
M  V30 5719 H 545.185 -2.23236 -2.35236 0
M  V30 5720 H 544.97 -3.68654 -1.33553 0
M  V30 5721 H 546.46 -3.48258 -2.30447 0
M  V30 5722 N 546.897 -0.0685191 -1.57451 0
M  V30 5723 C 548.143 0.602239 -1.93652 0
M  V30 5724 C 548.476 1.6946 -0.948526 0
M  V30 5725 O 547.751 1.94487 0.022782 0
M  V30 5726 C 548.034 1.18223 -3.4014 0
M  V30 5727 C 547.887 0.0967431 -4.49696 0
M  V30 5728 C 549.206 2.08872 -3.87377 0
M  V30 5729 H 546.325 0.217453 -0.70419 0
M  V30 5730 H 548.967 -0.133821 -1.89528 0
M  V30 5731 H 547.117 1.80953 -3.43785 0
M  V30 5732 H 548.789 -0.536155 -4.58174 0
M  V30 5733 H 547.032 -0.573063 -4.29998 0
M  V30 5734 H 547.703 0.542894 -5.49324 0
M  V30 5735 H 550.179 1.56081 -3.85717 0
M  V30 5736 H 549.055 2.46389 -4.90493 0
M  V30 5737 H 549.316 2.99572 -3.25129 0
M  V30 5738 N 548.375 1.56261 0.205012 0
M  V30 5739 C 549.791 1.49623 0.555433 0
M  V30 5740 C 549.991 0.766719 1.86343 0
M  V30 5741 O 549.047 0.313158 2.50551 0
M  V30 5742 C 550.36 2.94253 0.619347 0
M  V30 5743 C 551.908 3.04868 0.708855 0
M  V30 5744 C 552.383 4.50888 0.803969 0
M  V30 5745 N 553.874 4.54999 0.867758 0
M  V30 5746 C 554.609 5.65284 0.96135 0
M  V30 5747 N 554.105 6.85282 1.01786 0
M  V30 5748 N 555.898 5.53174 0.997771 0
M  V30 5749 H 548.049 2.0211 -0.653094 0
M  V30 5750 H 550.312 0.919333 -0.231366 0
M  V30 5751 H 550.018 3.50643 -0.272458 0
M  V30 5752 H 549.892 3.47063 1.47741 0
M  V30 5753 H 552.279 2.48532 1.5911 0
M  V30 5754 H 552.36 2.55199 -0.175205 0
M  V30 5755 H 552.004 5.07846 -0.0738798 0
M  V30 5756 H 551.934 4.98279 1.70369 0
M  V30 5757 H 554.425 3.68588 0.833735 0
M  V30 5758 H 554.738 7.65081 1.08951 0
M  V30 5759 H 553.083 6.8796 0.986706 0
M  V30 5760 H 556.274 4.5835 0.950392 0
M  V30 5761 H 556.447 6.39151 1.06725 0
M  V30 5762 N 549.853 -0.472356 1.50355 0
M  V30 5763 C 551.101 -1.22211 1.60962 0
M  V30 5764 C 551.422 -1.92497 0.311439 0
M  V30 5765 O 550.692 -1.8405 -0.671002 0
M  V30 5766 H 549.272 -0.454092 0.593135 0
M  V30 5767 H 551.934 -0.544977 1.87126 0
M  V30 5768 H 551.03 -1.9707 2.42012 0
M  V30 5769 N 551.331 -1.39911 -0.725443 0
M  V30 5770 C 552.278 -1.39393 -1.83952 0
M  V30 5771 C 553.248 -0.252249 -1.64173 0
M  V30 5772 O 554.433 -0.44882 -1.85446 0
M  V30 5773 C 551.573 -1.25262 -3.21564 0
M  V30 5774 C 550.686 -2.49054 -3.52982 0
M  V30 5775 C 549.821 -2.27439 -4.80047 0
M  V30 5776 C 548.86 -3.46857 -5.04338 0
M  V30 5777 N 547.997 -3.24499 -6.22611 0
M  V30 5778 H 552.837 -2.34622 -1.83729 0
M  V30 5779 H 550.374 -1.16537 -0.897636 0
M  V30 5780 H 552.332 -1.15077 -4.01015 0
M  V30 5781 H 550.962 -0.33657 -3.21041 0
M  V30 5782 H 550.014 -2.69805 -2.6816 0
M  V30 5783 H 551.326 -3.37973 -3.66846 0
M  V30 5784 H 550.48 -2.14551 -5.67497 0
M  V30 5785 H 549.219 -1.35929 -4.68374 0
M  V30 5786 H 548.224 -3.60232 -4.15346 0
M  V30 5787 H 549.449 -4.3928 -5.17889 0
M  V30 5788 H 547.395 -2.35663 -6.12208 0
M  V30 5789 H 547.312 -4.06978 -6.37106 0
M  V30 5790 H 548.58 -3.15325 -7.12875 0
M  V30 5791 N 552.809 0.956637 -1.25245 0
M  V30 5792 C 554.057 1.69764 -1.09657 0
M  V30 5793 C 554.378 1.91583 0.363464 0
M  V30 5794 O 553.648 1.50149 1.25825 0
M  V30 5795 H 552.228 0.629097 -0.402798 0
M  V30 5796 H 554.89 1.15026 -1.57337 0
M  V30 5797 H 553.986 2.67769 -1.60331 0
M  V30 5798 N 554.287 1.06798 1.15896 0
M  V30 5799 C 555.217 0.704677 2.22613 0
M  V30 5800 C 556.198 -0.305252 1.67339 0
M  V30 5801 O 557.383 -0.179247 1.93371 0
M  V30 5802 C 554.513 0.0957325 3.47168 0
M  V30 5803 C 553.467 1.0322 4.15367 0
M  V30 5804 C 552.793 0.286293 5.33933 0
M  V30 5805 C 554.093 2.36341 4.65768 0
M  V30 5806 H 555.787 1.59688 2.53259 0
M  V30 5807 H 553.333 0.769257 1.21731 0
M  V30 5808 H 555.286 -0.170333 4.21056 0
M  V30 5809 H 554.01 -0.831516 3.15838 0
M  V30 5810 H 552.669 1.28309 3.43413 0
M  V30 5811 H 552.317 -0.644237 4.98857 0
M  V30 5812 H 552.017 0.910436 5.80504 0
M  V30 5813 H 553.541 0.0278938 6.10594 0
M  V30 5814 H 554.955 2.1561 5.31211 0
M  V30 5815 H 553.352 2.94299 5.2298 0
M  V30 5816 H 554.422 2.99047 3.81705 0
M  V30 5817 N 555.766 -1.3263 0.851289 0
M  V30 5818 C 556.696 -2.31449 0.308771 0
M  V30 5819 C 557.677 -1.59531 -0.590255 0
M  V30 5820 O 558.862 -1.87351 -0.511205 0
M  V30 5821 C 555.992 -3.43586 -0.506548 0
M  V30 5822 C 554.946 -4.26963 0.297753 0
M  V30 5823 C 554.272 -5.30831 -0.642094 0
M  V30 5824 C 555.572 -4.99643 1.52166 0
M  V30 5825 H 557.266 -2.77074 1.13447 0
M  V30 5826 H 554.812 -1.33207 0.546971 0
M  V30 5827 H 556.765 -4.11754 -0.896474 0
M  V30 5828 H 555.489 -2.96681 -1.36558 0
M  V30 5829 H 554.148 -3.60437 0.669391 0
M  V30 5830 H 553.796 -4.8018 -1.49788 0
M  V30 5831 H 553.496 -5.87501 -0.107968 0
M  V30 5832 H 555.02 -6.01862 -1.02927 0
M  V30 5833 H 556.434 -5.6051 1.20421 0
M  V30 5834 H 554.831 -5.66022 1.99347 0
M  V30 5835 H 555.901 -4.27701 2.28474 0
M  V30 5836 N 557.244 -0.608902 -1.45362 0
M  V30 5837 C 558.192 0.121639 -2.32282 0
M  V30 5838 C 559.186 0.858301 -1.46046 0
M  V30 5839 O 560.392 0.773718 -1.62523 0
M  V30 5840 H 556.767 0.058086 -0.749753 0
M  V30 5841 H 558.738 -0.629866 -2.91677 0
M  V30 5842 C 557.487 1.1047 -3.29684 0
M  V30 5843 H 556.81 0.547278 -3.96036 0
M  V30 5844 H 558.25 1.58576 -3.9323 0
M  V30 5845 C 556.709 2.17891 -2.56954 0
M  V30 5846 O 557.239 3.25652 -2.35189 0
M  V30 5847 N 555.445 1.93211 -2.17066 0
M  V30 5848 H 554.992 1.05584 -2.34967 0
M  V30 5849 H 554.95 2.6529 -1.68727 0
M  V30 5850 N 558.722 1.53707 -0.348139 0
M  V30 5851 C 559.685 2.23812 0.494058 0
M  V30 5852 C 560.685 1.23989 1.02388 0
M  V30 5853 O 561.875 1.48395 0.912396 0
M  V30 5854 C 559.007 2.96133 1.68872 0
M  V30 5855 H 560.2 2.99663 -0.119141 0
M  V30 5856 H 557.753 1.55983 -0.0995539 0
M  V30 5857 H 558.488 2.24481 2.34049 0
M  V30 5858 H 558.273 3.69357 1.31596 0
M  V30 5859 H 559.763 3.49475 2.28597 0
M  V30 5860 N 560.2 0.0768682 1.57412 0
M  V30 5861 C 561.449 -0.590679 1.92857 0
M  V30 5862 C 561.762 -1.70461 0.959293 0
M  V30 5863 O 562.968 -2.43207 1.20675 0
M  V30 5864 C 561.424 -1.10204 3.42612 0
M  V30 5865 C 561.032 -0.0188447 4.47996 0
M  V30 5866 C 562.776 -1.74336 3.87049 0
M  V30 5867 C 560.683 -0.544536 5.88888 0
M  V30 5868 H 559.613 -0.224411 0.71983 0
M  V30 5869 H 562.264 0.149924 1.82887 0
M  V30 5870 H 560.646 -1.89577 3.47673 0
M  V30 5871 H 561.82 0.755936 4.54557 0
M  V30 5872 H 560.135 0.526555 4.13057 0
M  V30 5873 H 562.732 -2.14708 4.89699 0
M  V30 5874 H 563.075 -2.60537 3.24694 0
M  V30 5875 H 563.608 -1.01577 3.84613 0
M  V30 5876 H 560.347 0.280426 6.549 0
M  V30 5877 H 559.867 -1.28673 5.85836 0
M  V30 5878 H 561.546 -1.01933 6.3892 0
M  V30 5879 N 561.678 -1.56367 -0.196722 0
M  V30 5880 C 562.924 -1.80796 -0.918725 0
M  V30 5881 C 563.257 -0.650645 -1.82976 0
M  V30 5882 O 562.532 0.348889 -1.91345 0
M  V30 5883 C 562.815 -3.15472 -1.73636 0
M  V30 5884 C 562.668 -4.41693 -0.85015 0
M  V30 5885 C 563.987 -3.46824 -2.70927 0
M  V30 5886 H 561.106 -0.657702 -0.332561 0
M  V30 5887 H 563.748 -1.89086 -0.186186 0
M  V30 5888 H 561.898 -3.08536 -2.36088 0
M  V30 5889 H 563.57 -4.60673 -0.240459 0
M  V30 5890 H 561.813 -4.33517 -0.156785 0
M  V30 5891 H 562.484 -5.32419 -1.45719 0
M  V30 5892 H 564.96 -3.54049 -2.18607 0
M  V30 5893 H 563.836 -4.4218 -3.25219 0
M  V30 5894 H 564.097 -2.70236 -3.49893 0
M  V30 5895 N 563.156 0.464375 -1.50603 0
M  V30 5896 C 564.405 1.21277 -1.61167 0
M  V30 5897 C 564.718 1.92953 -0.320704 0
M  V30 5898 O 565.924 2.69778 -0.30534 0
M  V30 5899 C 564.38 2.20403 -2.84518 0
M  V30 5900 C 563.988 1.54499 -4.20516 0
M  V30 5901 C 565.732 2.95843 -3.0443 0
M  V30 5902 C 563.639 2.51951 -5.35047 0
M  V30 5903 H 562.569 0.456367 -0.600204 0
M  V30 5904 H 565.22 0.48254 -1.77042 0
M  V30 5905 H 563.602 2.96746 -2.62217 0
M  V30 5906 H 564.776 0.83899 -4.53098 0
M  V30 5907 H 563.091 0.913152 -4.06264 0
M  V30 5908 H 565.688 3.6879 -3.87167 0
M  V30 5909 H 566.031 3.55622 -2.16423 0
M  V30 5910 H 566.564 2.26611 -3.26944 0
M  V30 5911 H 563.303 1.96901 -6.25228 0
M  V30 5912 H 562.823 3.20683 -5.06875 0
M  V30 5913 H 564.502 3.13643 -5.65895 0
M  V30 5914 N 564.634 1.40294 0.718013 0
M  V30 5915 C 565.581 1.40367 1.8321 0
M  V30 5916 C 566.551 0.260952 1.64037 0
M  V30 5917 O 567.736 0.458648 1.85205 0
M  V30 5918 C 564.876 1.26965 3.20895 0
M  V30 5919 C 563.989 2.50922 3.51656 0
M  V30 5920 C 563.124 2.29981 4.78834 0
M  V30 5921 C 562.163 3.49527 5.02491 0
M  V30 5922 N 561.3 3.27796 6.20882 0
M  V30 5923 H 566.14 2.35593 1.82482 0
M  V30 5924 H 563.677 1.17012 0.891444 0
M  V30 5925 H 565.635 1.17202 4.00399 0
M  V30 5926 H 564.265 0.353591 3.20858 0
M  V30 5927 H 563.317 2.71223 2.66725 0
M  V30 5928 H 564.629 3.39913 3.65048 0
M  V30 5929 H 563.783 2.17558 5.66351 0
M  V30 5930 H 562.522 1.38411 4.67647 0
M  V30 5931 H 561.527 3.6243 4.1343 0
M  V30 5932 H 562.752 4.42021 5.15553 0
M  V30 5933 H 560.698 2.38906 6.1095 0
M  V30 5934 H 560.615 4.10351 6.34939 0
M  V30 5935 H 561.883 3.19101 7.11193 0
M  V30 5936 N 566.112 -0.949982 1.2575 0
M  V30 5937 C 567.022 -2.08109 1.08295 0
M  V30 5938 C 568.038 -1.7399 0.0188181 0
M  V30 5939 O 569.214 -2.00187 0.220724 0
M  V30 5940 C 566.279 -3.39383 0.708534 0
M  V30 5941 C 565.34 -3.8734 1.85111 0
M  V30 5942 C 564.573 -5.12349 1.49447 0
M  V30 5943 O 564.796 -5.6905 0.392212 0
M  V30 5944 O 563.73 -5.5513 2.32624 0
M  V30 5945 H 567.556 -2.25738 2.03165 0
M  V30 5946 H 565.141 -1.06545 1.04731 0
M  V30 5947 H 567.023 -4.18277 0.512061 0
M  V30 5948 H 565.698 -3.23013 -0.210854 0
M  V30 5949 H 564.605 -3.09429 2.10248 0
M  V30 5950 H 565.938 -4.08216 2.74991 0
M  V30 5951 N 567.59 -1.07411 -1.15328 0
M  V30 5952 C 568.818 -0.818782 -1.90009 0
M  V30 5953 C 569.233 0.628072 -1.78047 0
M  V30 5954 O 568.59 1.43085 -1.13282 0
M  V30 5955 C 568.641 -1.21874 -3.40337 0
M  V30 5956 O 568.362 -2.60883 -3.51954 0
M  V30 5957 C 569.863 -0.992796 -4.3204 0
M  V30 5958 H 567.083 -0.296007 -0.60218 0
M  V30 5959 H 569.627 -1.43073 -1.46117 0
M  V30 5960 H 567.782 -0.651103 -3.81889 0
M  V30 5961 H 568.196 -2.77216 -4.45255 0
M  V30 5962 H 569.67 -1.32215 -5.35932 0
M  V30 5963 H 570.147 0.0708331 -4.39143 0
M  V30 5964 H 570.753 -1.54537 -3.9623 0
M  V30 5965 N 569.068 1.32177 -0.85831 0
M  V30 5966 C 570.015 2.28794 -0.303607 0
M  V30 5967 C 570.985 1.55213 0.591453 0
M  V30 5968 O 572.17 1.83418 0.525585 0
M  V30 5969 C 569.31 3.41475 0.49889 0
M  V30 5970 C 568.423 4.2993 -0.422373 0
M  V30 5971 C 567.558 5.29743 0.393111 0
M  V30 5972 C 566.597 6.09842 -0.525317 0
M  V30 5973 N 565.734 7.01643 0.253208 0
M  V30 5974 H 570.574 2.75631 -1.13276 0
M  V30 5975 H 568.111 1.35606 -0.570026 0
M  V30 5976 H 570.069 4.05531 0.979826 0
M  V30 5977 H 568.699 2.95779 1.29284 0
M  V30 5978 H 567.751 3.66422 -1.02171 0
M  V30 5979 H 569.063 4.85899 -1.12709 0
M  V30 5980 H 568.217 5.9942 0.937056 0
M  V30 5981 H 566.956 4.744 1.13117 0
M  V30 5982 H 565.961 5.39066 -1.08112 0
M  V30 5983 H 567.186 6.6727 -1.26205 0
M  V30 5984 H 565.132 6.48725 0.974295 0
M  V30 5985 H 565.049 7.54981 -0.392398 0
M  V30 5986 H 566.317 7.756 0.778761 0
M  V30 5987 N 570.547 0.616602 1.45037 0
M  V30 5988 C 571.824 0.0469086 1.95544 0
M  V30 5989 C 572.204 -1.42345 1.55888 0
M  V30 5990 O 571.552 -2.13055 0.825824 0
M  V30 5991 C 571.762 0.254489 3.48071 0
M  V30 5992 C 573.11 0.140025 4.24369 0
M  V30 5993 O 574.134 0.185084 3.55719 0
M  V30 5994 O 572.993 0.0327034 5.4649 0
M  V30 5995 H 570.087 -0.0306051 0.826433 0
M  V30 5996 H 572.633 0.687293 1.55159 0
M  V30 5997 H 571.405 1.27532 3.69934 0
M  V30 5998 H 571.028 -0.42073 3.95368 0
M  V30 5999 N 572.025 -1.5352 0.356285 0
M  V30 6000 C 573.271 -2.02104 -0.229271 0
M  V30 6001 C 573.626 -1.23923 -1.47176 0
M  V30 6002 O 572.919 -0.321957 -1.88876 0
M  V30 6003 C 573.113 -3.52607 -0.583369 0
M  V30 6004 C 572.942 -4.4536 0.623253 0
M  V30 6005 C 571.712 -4.92446 1.13248 0
M  V30 6006 C 573.91 -4.92375 1.48563 0
M  V30 6007 N 571.892 -5.69183 2.3001 0
M  V30 6008 C 573.263 -5.67362 2.50001 0
M  V30 6009 C 575.318 -4.74464 1.50959 0
M  V30 6010 C 574.021 -6.26341 3.5368 0
M  V30 6011 C 576.047 -5.34302 2.53526 0
M  V30 6012 C 575.409 -6.09166 3.53688 0
M  V30 6013 H 571.508 -0.780595 -0.0468602 0
M  V30 6014 H 574.092 -1.88204 0.49873 0
M  V30 6015 H 572.263 -3.66686 -1.28046 0
M  V30 6016 H 573.995 -3.87922 -1.15321 0
M  V30 6017 H 570.75 -4.6842 0.698562 0
M  V30 6018 H 571.174 -6.12216 2.88998 0
M  V30 6019 H 575.816 -4.16117 0.748785 0
M  V30 6020 H 573.534 -6.8379 4.30648 0
M  V30 6021 H 577.12 -5.22342 2.56223 0
M  V30 6022 H 576 -6.54644 4.31753 0
M  V30 6023 N 573.503 -0.0852151 -1.57369 0
M  V30 6024 C 574.78 0.622534 -1.85429 0
M  V30 6025 C 575.16 1.86962 -0.980229 0
M  V30 6026 O 574.508 2.28445 -0.0500219 0
M  V30 6027 C 574.718 0.947374 -3.35896 0
M  V30 6028 C 576.066 1.31509 -4.03721 0
M  V30 6029 O 577.09 1.03869 -3.40719 0
M  V30 6030 O 575.949 1.83231 -5.14868 0
M  V30 6031 H 573.043 0.310513 -0.766492 0
M  V30 6032 H 575.589 -0.117164 -1.69295 0
M  V30 6033 H 574.361 0.0622264 -3.91251 0
M  V30 6034 H 573.984 1.74338 -3.5734 0
M  V30 6035 N 574.981 1.5647 0.188427 0
M  V30 6036 C 575.944 1.9421 1.21718 0
M  V30 6037 C 576.944 0.823901 1.38089 0
M  V30 6038 O 578.134 1.09122 1.35787 0
M  V30 6039 C 575.266 2.22197 2.58537 0
M  V30 6040 H 576.459 2.86252 0.894418 0
M  V30 6041 H 574.012 1.50263 0.430211 0
M  V30 6042 H 574.747 1.32814 2.95856 0
M  V30 6043 H 574.532 3.03688 2.48025 0
M  V30 6044 H 576.022 2.52376 3.3271 0
M  V30 6045 N 576.459 -0.456382 1.50847 0
M  V30 6046 C 577.705 -1.20618 1.63777 0
M  V30 6047 C 578.06 -1.8936 0.340677 0
M  V30 6048 O 577.353 -1.79786 -0.662378 0
M  V30 6049 C 577.547 -2.26336 2.76599 0
M  V30 6050 C 577.376 -1.67968 4.17153 0
M  V30 6051 C 576.146 -1.47293 4.83356 0
M  V30 6052 C 578.344 -1.16643 5.00898 0
M  V30 6053 N 576.326 -0.843222 6.08081 0
M  V30 6054 C 577.697 -0.660843 6.16468 0
M  V30 6055 C 579.752 -1.05637 4.86565 0
M  V30 6056 C 578.455 -0.0560365 7.19278 0
M  V30 6057 C 580.481 -0.465485 5.89565 0
M  V30 6058 C 579.843 0.0296516 7.04394 0
M  V30 6059 H 575.942 -0.429725 0.653345 0
M  V30 6060 H 578.526 -0.505784 1.88016 0
M  V30 6061 H 576.697 -2.93785 2.54056 0
M  V30 6062 H 578.429 -2.9334 2.78808 0
M  V30 6063 H 575.184 -1.72934 4.40898 0
M  V30 6064 H 575.608 -0.546357 6.74792 0
M  V30 6065 H 580.25 -1.42508 3.98059 0
M  V30 6066 H 577.968 0.324845 8.07447 0
M  V30 6067 H 581.554 -0.382493 5.80541 0
M  V30 6068 H 580.434 0.479705 7.82731 0
M  V30 6069 N 577.937 -1.40673 -0.710563 0
M  V30 6070 C 578.884 -1.41336 -1.82463 0
M  V30 6071 C 579.854 -0.269648 -1.63897 0
M  V30 6072 O 581.039 -0.468463 -1.8496 0
M  V30 6073 C 578.179 -1.28665 -3.20218 0
M  V30 6074 C 577.292 -2.52784 -3.5032 0
M  V30 6075 C 576.427 -2.32517 -4.77608 0
M  V30 6076 C 575.466 -3.52187 -5.0063 0
M  V30 6077 N 574.603 -3.31084 -6.19135 0
M  V30 6078 H 579.443 -2.36558 -1.8123 0
M  V30 6079 H 576.98 -1.17483 -0.885226 0
M  V30 6080 H 578.938 -1.19324 -3.99772 0
M  V30 6081 H 577.568 -0.370602 -3.20666 0
M  V30 6082 H 576.62 -2.72634 -2.65283 0
M  V30 6083 H 577.932 -3.41845 -3.63241 0
M  V30 6084 H 577.086 -2.20558 -5.65189 0
M  V30 6085 H 575.825 -1.40889 -4.66906 0
M  V30 6086 H 574.83 -3.64617 -4.11502 0
M  V30 6087 H 576.055 -4.44749 -5.13201 0
M  V30 6088 H 574.001 -2.42143 -6.09674 0
M  V30 6089 H 573.918 -4.13713 -6.32754 0
M  V30 6090 H 575.186 -3.22868 -7.0949 0
M  V30 6091 N 579.415 0.9433 -1.26252 0
M  V30 6092 C 580.661 1.69175 -1.11837 0
M  V30 6093 C 580.994 1.91238 0.337891 0
M  V30 6094 O 580.269 1.49152 1.24836 0
M  V30 6095 C 580.552 3.06783 -1.88563 0
M  V30 6096 C 580.405 2.9206 -3.42083 0
M  V30 6097 C 581.724 4.06865 -1.67776 0
M  V30 6098 H 578.843 0.61399 -0.407658 0
M  V30 6099 H 581.485 1.09572 -1.55222 0
M  V30 6100 H 579.635 3.57663 -1.51689 0
M  V30 6101 H 581.307 2.48419 -3.88698 0
M  V30 6102 H 579.55 2.27731 -3.69217 0
M  V30 6103 H 580.221 3.89651 -3.90994 0
M  V30 6104 H 582.697 3.64939 -1.99897 0
M  V30 6105 H 581.573 5.01168 -2.23879 0
M  V30 6106 H 581.834 4.37705 -0.621816 0
M  V30 6107 N 580.893 1.08022 1.14757 0
M  V30 6108 C 582.133 0.816959 1.87364 0
M  V30 6109 C 582.497 -0.645407 1.80827 0
M  V30 6110 O 583.698 -1.024 2.48531 0
M  V30 6111 C 581.969 1.31961 3.32146 0
M  V30 6112 S 583.528 1.18806 4.2241 0
M  V30 6113 H 580.346 0.295862 0.646519 0
M  V30 6114 H 582.948 1.3807 1.38408 0
M  V30 6115 H 581.652 2.37847 3.3445 0
M  V30 6116 H 581.183 0.751371 3.86158 0
M  V30 6117 H 583.198 0.129865 4.9603 0
M  V30 6118 N 582.371 -1.3172 0.865308 0
M  V30 6119 C 583.301 -2.31109 0.333302 0
M  V30 6120 C 584.282 -1.60148 -0.573301 0
M  V30 6121 O 585.467 -1.87882 -0.491305 0
M  V30 6122 C 582.597 -3.44104 -0.470078 0
M  V30 6123 C 581.551 -4.26623 0.343021 0
M  V30 6124 C 580.877 -5.31482 -0.585756 0
M  V30 6125 C 582.177 -4.98001 1.57456 0
M  V30 6126 H 583.871 -2.75855 1.1638 0
M  V30 6127 H 581.417 -1.3262 0.561069 0
M  V30 6128 H 583.37 -4.12682 -0.852752 0
M  V30 6129 H 582.094 -2.98112 -1.33404 0
M  V30 6130 H 580.753 -3.59707 0.707583 0
M  V30 6131 H 580.401 -4.81741 -1.44686 0
M  V30 6132 H 580.101 -5.87582 -0.0456494 0
M  V30 6133 H 581.625 -6.0292 -0.965375 0
M  V30 6134 H 583.039 -5.59201 1.26359 0
M  V30 6135 H 581.436 -5.63876 2.05339 0
M  V30 6136 H 582.506 -4.25253 2.32997 0
M  V30 6137 N 583.85 -0.624285 -1.44708 0
M  V30 6138 C 585.266 -0.289322 -1.56956 0
M  V30 6139 C 585.466 1.20773 -1.61295 0
M  V30 6140 O 584.522 1.9915 -1.55227 0
M  V30 6141 C 585.835 -0.975215 -2.84447 0
M  V30 6142 C 587.383 -0.952709 -2.98148 0
M  V30 6143 C 587.858 -1.61893 -4.28433 0
M  V30 6144 N 589.349 -1.5852 -4.35231 0
M  V30 6145 C 590.084 -2.06969 -5.34744 0
M  V30 6146 N 589.58 -2.63579 -6.40701 0
M  V30 6147 N 591.373 -1.97638 -5.26209 0
M  V30 6148 H 583.524 -1.59612 -1.40135 0
M  V30 6149 H 585.787 -0.669592 -0.671081 0
M  V30 6150 H 585.493 -2.02999 -2.87201 0
M  V30 6151 H 585.367 -0.508749 -3.73753 0
M  V30 6152 H 587.754 0.093568 -2.94952 0
M  V30 6153 H 587.835 -1.4576 -2.10209 0
M  V30 6154 H 587.479 -2.66463 -4.32389 0
M  V30 6155 H 587.409 -1.08893 -5.15218 0
M  V30 6156 H 589.899 -1.17183 -3.59272 0
M  V30 6157 H 590.213 -2.98298 -7.12908 0
M  V30 6158 H 588.558 -2.67626 -6.41406 0
M  V30 6159 H 591.749 -1.5314 -4.42341 0
M  V30 6160 H 591.922 -2.35708 -6.03611 0
M  V30 6161 N 585.328 1.53329 -0.364422 0
M  V30 6162 C 586.258 2.28627 0.474543 0
M  V30 6163 C 587.239 1.31009 1.08492 0
M  V30 6164 O 588.424 1.59878 1.10239 0
M  V30 6165 C 585.554 3.07465 1.61501 0
M  V30 6166 C 584.508 4.1276 1.13194 0
M  V30 6167 C 583.834 4.79674 2.36255 0
M  V30 6168 C 585.134 5.21847 0.217507 0
M  V30 6169 H 586.828 2.99005 -0.153656 0
M  V30 6170 H 584.374 1.43803 -0.0753406 0
M  V30 6171 H 586.327 3.58889 2.20855 0
M  V30 6172 H 585.051 2.34775 2.27042 0
M  V30 6173 H 583.71 3.62281 0.56109 0
M  V30 6174 H 583.358 4.03557 3.00251 0
M  V30 6175 H 583.058 5.50827 2.04606 0
M  V30 6176 H 584.582 5.33892 2.96297 0
M  V30 6177 H 585.996 5.6878 0.718493 0
M  V30 6178 H 584.393 6.00099 -0.00806408 0
M  V30 6179 H 585.463 4.7921 -0.740653 0
M  V30 6180 N 586.806 0.0935595 1.57322 0
M  V30 6181 C 588.222 -0.263091 1.57417 0
M  V30 6182 C 588.422 -1.68526 1.1046 0
M  V30 6183 O 587.478 -2.40139 0.780357 0
M  V30 6184 C 588.791 -0.0529201 3.00653 0
M  V30 6185 C 590.339 -0.120788 3.12767 0
M  V30 6186 C 590.814 0.0613707 4.57959 0
M  V30 6187 N 592.305 0.00648534 4.632 0
M  V30 6188 C 593.04 0.122699 5.73269 0
M  V30 6189 N 592.536 0.29366 6.92177 0
M  V30 6190 N 594.329 0.0640787 5.62063 0
M  V30 6191 H 586.48 1.02277 1.86154 0
M  V30 6192 H 588.743 0.4007 0.859153 0
M  V30 6193 H 588.449 0.929279 3.39201 0
M  V30 6194 H 588.323 -0.795899 3.68708 0
M  V30 6195 H 590.71 -1.09349 2.74093 0
M  V30 6196 H 590.791 0.653656 2.47307 0
M  V30 6197 H 590.435 1.03093 4.97327 0
M  V30 6198 H 590.365 -0.732748 5.21477 0
M  V30 6199 H 592.856 -0.123173 3.77699 0
M  V30 6200 H 593.169 0.37389 7.71895 0
M  V30 6201 H 591.514 0.329307 6.94219 0
M  V30 6202 H 594.705 -0.0683396 4.6805 0
M  V30 6203 H 594.878 0.158097 6.47807 0
M  V30 6204 N 588.284 -1.56567 -0.180126 0
M  V30 6205 C 589.561 -1.7235 -0.924931 0
M  V30 6206 C 589.941 -0.652523 -2.00762 0
M  V30 6207 O 589.289 0.334115 -2.26044 0
M  V30 6208 C 589.499 -3.1523 -1.49771 0
M  V30 6209 C 590.847 -3.75921 -1.97405 0
M  V30 6210 O 591.871 -3.18452 -1.59583 0
M  V30 6211 O 590.73 -4.7681 -2.67048 0
M  V30 6212 H 587.824 -0.703502 -0.434758 0
M  V30 6213 H 590.37 -1.6886 -0.168647 0
M  V30 6214 H 589.142 -3.84656 -0.718027 0
M  V30 6215 H 588.765 -3.23009 -2.31842 0
M  V30 6216 N 589.762 0.448376 -1.51087 0
M  V30 6217 C 590.71 1.56407 -1.72161 0
M  V30 6218 C 591.704 1.58878 -0.587721 0
M  V30 6219 O 592.91 1.62755 -0.768822 0
M  V30 6220 H 589.285 0.519423 -0.543786 0
M  V30 6221 H 591.256 1.35803 -2.65707 0
M  V30 6222 C 590.005 2.94163 -1.85373 0
M  V30 6223 H 589.328 2.9299 -2.72024 0
M  V30 6224 H 590.768 3.71625 -2.04135 0
M  V30 6225 C 589.227 3.31317 -0.610803 0
M  V30 6226 O 589.757 4.00985 0.239636 0
M  V30 6227 N 587.963 2.86966 -0.458127 0
M  V30 6228 H 587.51 2.30443 -1.15124 0
M  V30 6229 H 587.468 3.12188 0.372289 0
M  V30 6230 N 591.24 1.41047 0.703093 0
M  V30 6231 C 592.488 1.39723 1.4602 0
M  V30 6232 C 592.809 0.00461257 1.94999 0
M  V30 6233 O 592.079 -0.952292 1.71196 0
M  V30 6234 H 590.659 0.514281 0.541779 0
M  V30 6235 H 593.321 1.76217 0.832678 0
M  V30 6236 H 592.417 2.07982 2.32701 0
M  V30 6237 N 592.718 -0.936591 1.26751 0
M  V30 6238 C 593.648 -2.05315 1.11212 0
M  V30 6239 C 594.629 -1.70092 0.0160262 0
M  V30 6240 O 595.814 -1.93279 0.188894 0
M  V30 6241 C 592.944 -3.39123 0.749171 0
M  V30 6242 C 591.898 -3.88425 1.79751 0
M  V30 6243 C 591.224 -5.18936 1.28876 0
M  V30 6244 C 592.524 -4.12798 3.19992 0
M  V30 6245 H 594.218 -2.18573 2.04613 0
M  V30 6246 H 591.764 -1.05027 0.985159 0
M  V30 6247 H 593.717 -4.16704 0.627323 0
M  V30 6248 H 592.441 -3.25855 -0.220543 0
M  V30 6249 H 591.1 -3.13028 1.90811 0
M  V30 6250 H 590.748 -5.02051 0.308757 0
M  V30 6251 H 590.448 -5.52892 1.98958 0
M  V30 6252 H 591.972 -5.99096 1.17967 0
M  V30 6253 H 593.386 -4.80977 3.11983 0
M  V30 6254 H 591.783 -4.58044 3.87705 0
M  V30 6255 H 592.853 -3.18412 3.65707 0
M  V30 6256 N 594.196 -1.08629 -1.14182 0
M  V30 6257 C 595.126 -0.740003 -2.21464 0
M  V30 6258 C 596.107 0.278591 -1.67803 0
M  V30 6259 O 597.292 0.148461 -1.93632 0
M  V30 6260 C 594.422 -0.150952 -3.46972 0
M  V30 6261 C 593.376 -1.09815 -4.13672 0
M  V30 6262 C 592.702 -0.3712 -5.3341 0
M  V30 6263 C 594.002 -2.43722 -4.61949 0
M  V30 6264 H 595.696 -1.63697 -2.50686 0
M  V30 6265 H 593.242 -0.788526 -1.20492 0
M  V30 6266 H 595.195 0.103325 -4.21273 0
M  V30 6267 H 593.919 0.781164 -3.1712 0
M  V30 6268 H 592.578 -1.33756 -3.41328 0
M  V30 6269 H 592.226 0.564792 -4.99819 0
M  V30 6270 H 591.926 -1.00267 -5.78982 0
M  V30 6271 H 593.45 -0.12503 -6.10472 0
M  V30 6272 H 594.864 -2.24034 -5.27714 0
M  V30 6273 H 593.261 -3.02582 -5.18232 0
M  V30 6274 H 594.331 -3.05082 -3.76899 0
M  V30 6275 N 595.674 1.31259 -0.872281 0
M  V30 6276 C 596.637 2.26744 -0.334656 0
M  V30 6277 C 597.637 1.52307 0.515681 0
M  V30 6278 O 598.827 1.71148 0.324656 0
M  V30 6279 C 595.959 3.36841 0.524482 0
M  V30 6280 H 597.152 2.75812 -1.17762 0
M  V30 6281 H 594.705 1.42232 -0.648064 0
M  V30 6282 H 595.44 2.93069 1.38855 0
M  V30 6283 H 595.225 3.92009 -0.0844299 0
M  V30 6284 H 596.715 4.07944 0.892838 0
M  V30 6285 N 597.152 0.631951 1.44375 0
M  V30 6286 C 598.099 -0.0724807 2.30686 0
M  V30 6287 C 599.069 -0.835975 1.43529 0
M  V30 6288 O 600.254 -0.816849 1.7243 0
M  V30 6289 C 597.394 -1.04753 3.28817 0
M  V30 6290 C 596.507 -0.282367 4.31076 0
M  V30 6291 C 595.642 -1.2493 5.163 0
M  V30 6292 C 594.681 -0.473349 6.10267 0
M  V30 6293 N 593.818 -1.39079 6.88187 0
M  V30 6294 H 598.658 0.669477 2.90383 0
M  V30 6295 H 596.195 0.341927 1.43071 0
M  V30 6296 H 598.153 -1.62623 3.842 0
M  V30 6297 H 596.783 -1.75661 2.70819 0
M  V30 6298 H 595.835 0.412268 3.78159 0
M  V30 6299 H 597.147 0.321955 4.9776 0
M  V30 6300 H 596.301 -1.89931 5.76204 0
M  V30 6301 H 595.04 -1.88755 4.49692 0
M  V30 6302 H 594.045 0.190142 5.49471 0
M  V30 6303 H 595.27 0.16019 6.78911 0
M  V30 6304 H 593.216 -2.01623 6.24247 0
M  V30 6305 H 593.133 -0.840513 7.51313 0
M  V30 6306 H 594.401 -2.02961 7.52613 0
M  V30 6307 N 598.631 -1.53133 0.372548 0
M  V30 6308 C 600.042 -1.86404 -0.105155 0
M  V30 6309 C 600.393 -1.29289 -1.47576 0
M  V30 6310 O 599.518 -0.617646 -2.07398 0
M  V30 6311 C 600.113 -3.38223 -0.197588 0
M  V30 6312 C 598.672 -3.71266 -0.619556 0
M  V30 6313 C 597.819 -2.76353 0.228919 0
M  V30 6314 H 600.77 -1.47282 0.591077 0
M  V30 6315 H 600.791 -3.66577 -1.01987 0
M  V30 6316 H 600.303 -3.79763 0.800099 0
M  V30 6317 H 598.404 -3.35287 -1.62522 0
M  V30 6318 H 598.517 -4.77515 -0.389332 0
M  V30 6319 H 596.881 -2.52888 -0.303271 0
M  V30 6320 H 597.664 -3.20728 1.22428 0
M  V30 6321 N 600.109 -0.101901 -1.5727 0
M  V30 6322 C 601.337 0.568392 -1.98939 0
M  V30 6323 C 601.752 1.61301 -0.981194 0
M  V30 6324 O 601.109 1.82478 0.0282869 0
M  V30 6325 C 601.16 1.20997 -3.40649 0
M  V30 6326 O 600.881 0.207129 -4.3761 0
M  V30 6327 C 602.382 1.96523 -3.97358 0
M  V30 6328 H 599.602 0.15186 -0.65359 0
M  V30 6329 H 602.146 -0.183198 -2.03678 0
M  V30 6330 H 600.301 1.91245 -3.36904 0
M  V30 6331 H 600.715 0.671071 -5.20189 0
M  V30 6332 H 602.189 2.36764 -4.98645 0
M  V30 6333 H 602.666 2.83376 -3.35552 0
M  V30 6334 H 603.272 1.31076 -4.04598 0
M  V30 6335 N 601.587 1.56661 0.17182 0
M  V30 6336 C 602.537 1.92781 1.21736 0
M  V30 6337 C 603.521 0.796065 1.39827 0
M  V30 6338 O 604.713 1.05924 1.41806 0
M  V30 6339 C 601.842 2.29079 2.55691 0
M  V30 6340 C 600.928 3.48765 2.41296 0
M  V30 6341 N 601.319 4.66022 1.96614 0
M  V30 6342 C 599.617 3.53362 2.72124 0
M  V30 6343 C 600.318 5.48159 1.94669 0
M  V30 6344 N 599.294 4.89189 2.37054 0
M  V30 6345 H 603.096 2.80926 0.863592 0
M  V30 6346 H 600.61 1.57889 0.380096 0
M  V30 6347 H 602.607 2.5315 3.31241 0
M  V30 6348 H 601.267 1.42272 2.91871 0
M  V30 6349 H 602.278 4.9025 1.66959 0
M  V30 6350 H 598.955 2.77033 3.12345 0
M  V30 6351 H 600.345 6.52121 1.61826 0
M  V30 6352 N 603.065 -0.440357 1.51323 0
M  V30 6353 C 604.313 -1.18769 1.63518 0
M  V30 6354 C 604.634 -1.91793 0.352201 0
M  V30 6355 O 603.904 -1.85432 -0.631811 0
M  V30 6356 H 602.484 -0.441408 0.602634 0
M  V30 6357 H 605.146 -0.505162 1.8824 0
M  V30 6358 H 604.242 -1.91892 2.46138 0
M  V30 6359 N 604.543 -1.41418 -0.695603 0
M  V30 6360 C 605.82 -1.31264 -1.45014 0
M  V30 6361 C 606.2 0.0597994 -2.11015 0
M  V30 6362 O 605.548 1.07403 -2.01685 0
M  V30 6363 C 605.758 -2.466 -2.4696 0
M  V30 6364 C 607.106 -2.87763 -3.12214 0
M  V30 6365 O 608.13 -2.46339 -2.57285 0
M  V30 6366 O 606.989 -3.59395 -4.11701 0
M  V30 6367 H 604.083 -0.516576 -0.645816 0
M  V30 6368 H 606.629 -1.53382 -0.726084 0
M  V30 6369 H 605.401 -3.38183 -1.96845 0
M  V30 6370 H 605.024 -2.26358 -3.26876 0
M  V30 6371 N 606.021 0.929856 -1.27246 0
M  V30 6372 C 607.27 1.67182 -1.12842 0
M  V30 6373 C 607.583 1.9287 0.325666 0
M  V30 6374 O 608.789 2.64999 0.590572 0
M  V30 6375 C 607.245 3.01097 -1.97151 0
M  V30 6376 C 606.853 2.83115 -3.47203 0
M  V30 6377 C 608.597 3.78907 -1.91389 0
M  V30 6378 C 606.504 4.12573 -4.23719 0
M  V30 6379 H 605.434 0.627064 -0.418697 0
M  V30 6380 H 608.085 1.0332 -1.51649 0
M  V30 6381 H 606.467 3.66004 -1.51186 0
M  V30 6382 H 607.641 2.26989 -4.01015 0
M  V30 6383 H 605.956 2.18736 -3.54321 0
M  V30 6384 H 608.553 4.74837 -2.45834 0
M  V30 6385 H 608.896 4.0674 -0.887047 0
M  V30 6386 H 609.429 3.20794 -2.35237 0
M  V30 6387 H 606.168 3.8992 -5.26918 0
M  V30 6388 H 605.688 4.68371 -3.74685 0
M  V30 6389 H 607.367 4.8095 -4.32777 0
M  V30 6390 N 607.499 1.09233 1.13605 0
M  V30 6391 C 608.748 0.82205 1.84188 0
M  V30 6392 C 609.061 -0.654548 1.84323 0
M  V30 6393 O 610.267 -1.04029 2.50779 0
M  V30 6394 C 608.723 1.42066 3.30674 0
M  V30 6395 C 608.331 2.92965 3.38933 0
M  V30 6396 C 610.075 1.22924 4.06313 0
M  V30 6397 C 607.982 3.45922 4.79679 0
M  V30 6398 H 606.912 0.303854 0.690064 0
M  V30 6399 H 609.563 1.31479 1.28006 0
M  V30 6400 H 607.945 0.855613 3.86646 0
M  V30 6401 H 609.119 3.55679 2.92966 0
M  V30 6402 H 607.434 3.11118 2.76757 0
M  V30 6403 H 610.031 1.59945 5.10217 0
M  V30 6404 H 610.374 0.169726 4.15954 0
M  V30 6405 H 610.907 1.76168 3.56665 0
M  V30 6406 H 607.646 4.51484 4.75229 0
M  V30 6407 H 607.166 2.87971 5.26149 0
M  V30 6408 H 608.845 3.43009 5.48592 0
M  V30 6409 N 608.977 -1.30795 0.87923 0
M  V30 6410 C 610.393 -1.48981 0.57243 0
M  V30 6411 C 610.593 -1.80719 -0.891236 0
M  V30 6412 O 609.649 -1.89136 -1.67283 0
M  V30 6413 C 610.962 -2.61721 1.48063 0
M  V30 6414 C 612.51 -2.75603 1.48365 0
M  V30 6415 C 612.985 -3.91449 2.37763 0
M  V30 6416 N 614.476 -3.98751 2.35695 0
M  V30 6417 C 615.211 -4.87684 3.01583 0
M  V30 6418 N 614.707 -5.81454 3.76674 0
M  V30 6419 N 616.5 -4.81005 2.90844 0
M  V30 6420 H 608.651 -1.08465 1.82617 0
M  V30 6421 H 610.914 -0.536813 0.781368 0
M  V30 6422 H 610.62 -2.45073 2.52254 0
M  V30 6423 H 610.494 -3.58071 1.18596 0
M  V30 6424 H 612.881 -2.9166 0.44927 0
M  V30 6425 H 612.962 -1.79891 1.81859 0
M  V30 6426 H 612.606 -3.76149 3.41283 0
M  V30 6427 H 612.536 -4.86487 2.01589 0
M  V30 6428 H 615.027 -3.31668 1.81121 0
M  V30 6429 H 615.34 -6.46063 4.24054 0
M  V30 6430 H 613.685 -5.81403 3.80782 0
M  V30 6431 H 616.876 -4.06728 2.31711 0
M  V30 6432 H 617.049 -5.50107 3.42471 0
M  V30 6433 N 610.455 -0.639598 -1.44038 0
M  V30 6434 C 611.702 -0.14748 -2.01962 0
M  V30 6435 C 612.03 1.23372 -1.50365 0
M  V30 6436 O 611.285 1.8345 -0.681501 0
M  V30 6437 C 611.584 -0.0925348 -3.5728 0
M  V30 6438 C 611.25 -1.41365 -4.28167 0
M  V30 6439 C 609.912 -1.77545 -4.47248 0
M  V30 6440 C 612.264 -2.2853 -4.68427 0
M  V30 6441 C 609.592 -3.00583 -5.03852 0
M  V30 6442 C 611.944 -3.50846 -5.26393 0
M  V30 6443 C 610.608 -3.8724 -5.43692 0
M  V30 6444 H 609.878 -0.0539666 -0.739032 0
M  V30 6445 H 612.525 -0.827599 -1.72694 0
M  V30 6446 H 610.83 0.670987 -3.86012 0
M  V30 6447 H 612.527 0.304891 -3.99839 0
M  V30 6448 H 609.117 -1.1221 -4.13651 0
M  V30 6449 H 613.301 -2.0187 -4.5339 0
M  V30 6450 H 608.557 -3.28846 -5.15432 0
M  V30 6451 H 612.731 -4.18616 -5.56537 0
M  V30 6452 H 610.358 -4.8266 -5.87319 0
M  V30 6453 N 611.933 1.52934 -0.380664 0
M  V30 6454 C 612.896 2.24809 0.446473 0
M  V30 6455 C 613.896 1.26133 0.997347 0
M  V30 6456 O 615.086 1.50297 0.880714 0
M  V30 6457 C 612.218 2.99649 1.62553 0
M  V30 6458 H 613.411 2.99343 -0.182677 0
M  V30 6459 H 610.964 1.55736 -0.132618 0
M  V30 6460 H 611.699 2.29395 2.29235 0
M  V30 6461 H 611.484 3.72066 1.23732 0
M  V30 6462 H 612.974 3.54246 2.21133 0
M  V30 6463 N 613.412 0.11024 1.57214 0
M  V30 6464 C 614.823 -0.416527 1.81994 0
M  V30 6465 C 615.174 -1.67183 1.02686 0
M  V30 6466 O 614.299 -2.14823 0.260782 0
M  V30 6467 C 614.894 -0.762466 3.30109 0
M  V30 6468 C 613.453 -1.23391 3.556 0
M  V30 6469 C 612.6 -0.238166 2.76275 0
M  V30 6470 H 615.551 0.335491 1.55113 0
M  V30 6471 H 615.572 -1.62068 3.44259 0
M  V30 6472 H 615.084 0.151346 3.87805 0
M  V30 6473 H 613.185 -2.16492 3.03253 0
M  V30 6474 H 613.298 -1.18528 4.64207 0
M  V30 6475 H 611.662 -0.723421 2.4421 0
M  V30 6476 H 612.445 0.668591 3.36727 0
M  V30 6477 N 614.89 -1.56749 -0.16351 0
M  V30 6478 C 616.301 -1.72039 -0.725216 0
M  V30 6479 C 616.652 -0.72202 -1.82432 0
M  V30 6480 O 615.777 0.114942 -2.16095 0
M  V30 6481 C 616.372 -3.11932 -1.32227 0
M  V30 6482 C 614.931 -3.28879 -1.83072 0
M  V30 6483 C 614.078 -2.67984 -0.712716 0
M  V30 6484 H 617.029 -1.58579 0.0619772 0
M  V30 6485 H 617.05 -3.11015 -2.19202 0
M  V30 6486 H 616.562 -3.84572 -0.522103 0
M  V30 6487 H 614.663 -2.61209 -2.65708 0
M  V30 6488 H 614.776 -4.36688 -1.97079 0
M  V30 6489 H 613.14 -2.28005 -1.13515 0
M  V30 6490 H 613.923 -3.43216 0.0757361 0
M  V30 6491 N 616.368 0.432326 -1.51554 0
M  V30 6492 C 617.298 1.53242 -1.76179 0
M  V30 6493 C 618.279 1.58717 -0.611801 0
M  V30 6494 O 619.464 1.74364 -0.855033 0
M  V30 6495 C 616.594 2.91278 -1.89141 0
M  V30 6496 C 615.548 3.00663 -3.04608 0
M  V30 6497 C 614.874 4.40728 -3.02759 0
M  V30 6498 C 616.174 2.74281 -4.44485 0
M  V30 6499 H 617.868 1.32886 -2.68294 0
M  V30 6500 H 615.414 0.637841 -1.29103 0
M  V30 6501 H 617.367 3.68203 -2.04951 0
M  V30 6502 H 616.091 3.12877 -0.936785 0
M  V30 6503 H 614.75 2.26179 -2.88511 0
M  V30 6504 H 614.398 4.59301 -2.05065 0
M  V30 6505 H 614.098 4.47936 -3.80299 0
M  V30 6506 H 615.622 5.19619 -3.20669 0
M  V30 6507 H 617.036 3.40936 -4.60907 0
M  V30 6508 H 615.433 2.92893 -5.23769 0
M  V30 6509 H 616.503 1.69856 -4.54177 0
M  V30 6510 N 617.846 1.41785 0.688094 0
M  V30 6511 C 619.092 1.41753 1.4503 0
M  V30 6512 C 619.425 0.0290745 1.94178 0
M  V30 6513 O 618.7 -0.944456 1.7003 0
M  V30 6514 C 618.983 2.43069 2.65686 0
M  V30 6515 C 618.836 3.91053 2.22256 0
M  V30 6516 C 620.155 2.41543 3.67893 0
M  V30 6517 H 617.274 0.516202 0.526027 0
M  V30 6518 H 619.916 1.73111 0.783105 0
M  V30 6519 H 618.066 2.1646 3.2261 0
M  V30 6520 H 619.738 4.28594 1.70602 0
M  V30 6521 H 617.981 4.05559 1.53963 0
M  V30 6522 H 618.652 4.57501 3.08863 0
M  V30 6523 H 621.128 2.65175 3.20658 0
M  V30 6524 H 620.004 3.14434 4.49914 0
M  V30 6525 H 620.265 1.43666 4.18106 0
M  V30 6526 N 619.324 -0.923095 1.27737 0
M  V30 6527 C 620.573 -1.66581 1.13727 0
M  V30 6528 C 620.886 -1.9304 -0.315433 0
M  V30 6529 O 622.092 -2.65309 -0.57651 0
M  V30 6530 C 620.548 -3.00047 1.98745 0
M  V30 6531 C 620.156 -2.8127 3.48699 0
M  V30 6532 C 621.9 -3.77887 1.93395 0
M  V30 6533 C 619.807 -4.1032 4.25901 0
M  V30 6534 H 618.737 -0.624834 0.422017 0
M  V30 6535 H 621.388 -1.02514 1.52194 0
M  V30 6536 H 619.77 -3.65197 1.53125 0
M  V30 6537 H 620.944 -2.24859 4.02213 0
M  V30 6538 H 619.259 -2.16854 3.55476 0
M  V30 6539 H 621.856 -4.73526 2.48348 0
M  V30 6540 H 622.199 -4.06264 0.908605 0
M  V30 6541 H 622.732 -3.19541 2.36935 0
M  V30 6542 H 619.471 -3.8712 5.28978 0
M  V30 6543 H 618.991 -4.66377 3.77163 0
M  V30 6544 H 620.67 -4.78648 4.35321 0
M  V30 6545 N 620.802 -1.09834 -1.13024 0
M  V30 6546 C 621.749 -0.741522 -2.18564 0
M  V30 6547 C 622.719 0.279236 -1.63736 0
M  V30 6548 O 623.904 0.159923 -1.90129 0
M  V30 6549 C 621.044 -0.17277 -3.44667 0
M  V30 6550 C 620.157 -1.24808 -4.13578 0
M  V30 6551 C 619.292 -0.641631 -5.27311 0
M  V30 6552 C 618.331 -1.69795 -5.88078 0
M  V30 6553 N 617.468 -1.11223 -6.93234 0
M  V30 6554 H 622.308 -1.64576 -2.48432 0
M  V30 6555 H 619.845 -0.822174 -1.21978 0
M  V30 6556 H 621.803 0.17482 -4.16834 0
M  V30 6557 H 620.433 0.694725 -3.15235 0
M  V30 6558 H 619.485 -1.71288 -3.39653 0
M  V30 6559 H 620.797 -2.04795 -4.54819 0
M  V30 6560 H 619.951 -0.243128 -6.06213 0
M  V30 6561 H 618.69 0.189742 -4.87331 0
M  V30 6562 H 617.695 -2.10595 -5.07868 0
M  V30 6563 H 618.92 -2.53206 -6.3013 0
M  V30 6564 H 616.866 -0.302208 -6.55304 0
M  V30 6565 H 616.783 -1.84901 -7.3304 0
M  V30 6566 H 618.051 -0.740068 -7.75979 0
M  V30 6567 N 622.28 1.30327 -0.886154 0
M  V30 6568 C 623.19 2.31854 -0.357866 0
M  V30 6569 C 624.206 1.65392 0.540502 0
M  V30 6570 O 625.382 1.96683 0.433339 0
M  V30 6571 C 622.447 3.44171 0.417999 0
M  V30 6572 C 621.508 4.26257 -0.510263 0
M  V30 6573 C 620.741 5.3321 0.228669 0
M  V30 6574 O 620.964 5.51542 1.45458 0
M  V30 6575 O 619.898 6.0042 -0.421832 0
M  V30 6576 H 623.724 2.78995 -1.19982 0
M  V30 6577 H 621.309 1.34518 -0.650028 0
M  V30 6578 H 623.191 4.12588 0.857251 0
M  V30 6579 H 621.866 2.99164 1.23623 0
M  V30 6580 H 620.773 3.60533 -0.99835 0
M  V30 6581 H 622.106 4.74871 -1.29454 0
M  V30 6582 N 623.758 0.647228 1.43697 0
M  V30 6583 C 625.035 0.0883758 1.954 0
M  V30 6584 C 625.415 -1.39006 1.58873 0
M  V30 6585 O 624.763 -2.11255 0.87083 0
M  V30 6586 C 624.973 0.328263 3.47453 0
M  V30 6587 C 626.321 0.230009 4.23977 0
M  V30 6588 O 627.345 0.260496 3.55246 0
M  V30 6589 O 626.204 0.148615 5.46298 0
M  V30 6590 H 623.298 -0.0130683 0.826897 0
M  V30 6591 H 625.844 0.72005 1.53666 0
M  V30 6592 H 624.616 1.3535 3.67146 0
M  V30 6593 H 624.239 -0.336772 3.96171 0
M  V30 6594 N 625.236 -1.5273 0.388769 0
M  V30 6595 C 626.146 -2.30165 -0.453993 0
M  V30 6596 C 627.162 -1.37058 -1.07197 0
M  V30 6597 O 628.338 -1.70127 -1.0779 0
M  V30 6598 C 625.403 -3.09303 -1.56628 0
M  V30 6599 C 624.464 -4.18117 -0.973467 0
M  V30 6600 C 623.697 -4.93472 -2.03275 0
M  V30 6601 O 623.92 -4.68913 -3.24772 0
M  V30 6602 O 622.854 -5.78833 -1.65034 0
M  V30 6603 H 626.68 -3.03185 0.176816 0
M  V30 6604 H 624.265 -1.4862 0.152501 0
M  V30 6605 H 626.147 -3.58648 -2.21246 0
M  V30 6606 H 624.822 -2.39098 -2.18206 0
M  V30 6607 H 623.729 -3.7297 -0.290556 0
M  V30 6608 H 625.062 -4.90556 -0.401908 0
M  V30 6609 N 626.714 -0.118576 -1.57153 0
M  V30 6610 C 627.644 0.828436 -2.1831 0
M  V30 6611 C 628.625 1.27758 -1.12303 0
M  V30 6612 O 629.81 1.34026 -1.40537 0
M  V30 6613 C 626.94 2.07876 -2.78217 0
M  V30 6614 C 625.894 1.76742 -3.89803 0
M  V30 6615 C 625.22 3.08801 -4.36516 0
M  V30 6616 C 626.52 1.03606 -5.11921 0
M  V30 6617 H 628.214 0.318824 -2.97698 0
M  V30 6618 H 625.76 0.151911 -1.43196 0
M  V30 6619 H 627.713 2.74584 -3.19659 0
M  V30 6620 H 626.437 2.61161 -1.96118 0
M  V30 6621 H 625.096 1.12424 -3.48936 0
M  V30 6622 H 624.744 3.6002 -3.51276 0
M  V30 6623 H 624.444 2.88743 -5.11763 0
M  V30 6624 H 625.968 3.76627 -4.80608 0
M  V30 6625 H 627.382 1.60467 -5.50385 0
M  V30 6626 H 625.779 0.936454 -5.92748 0
M  V30 6627 H 626.849 0.0227421 -4.84895 0
M  V30 6628 N 628.193 1.56834 0.155195 0
M  V30 6629 C 629.609 1.51315 0.50755 0
M  V30 6630 C 629.809 0.825614 1.83809 0
M  V30 6631 O 628.865 0.39271 2.49427 0
M  V30 6632 C 630.178 2.96074 0.52542 0
M  V30 6633 C 631.726 3.06968 0.611505 0
M  V30 6634 C 632.201 4.53218 0.660115 0
M  V30 6635 N 633.692 4.5753 0.722564 0
M  V30 6636 C 634.427 5.68056 0.781023 0
M  V30 6637 N 633.923 6.88173 0.799327 0
M  V30 6638 N 635.716 5.56068 0.821278 0
M  V30 6639 H 627.867 1.9993 -0.717063 0
M  V30 6640 H 630.13 0.911507 -0.260496 0
M  V30 6641 H 629.836 3.49599 -0.383875 0
M  V30 6642 H 629.71 3.51587 1.36624 0
M  V30 6643 H 632.097 2.53468 1.51122 0
M  V30 6644 H 632.178 2.54513 -0.256306 0
M  V30 6645 H 631.822 5.07354 -0.23541 0
M  V30 6646 H 631.752 5.03447 1.5443 0
M  V30 6647 H 634.243 3.71054 0.716049 0
M  V30 6648 H 634.556 7.6816 0.845553 0
M  V30 6649 H 632.901 6.90751 0.767337 0
M  V30 6650 H 636.092 4.61142 0.804091 0
M  V30 6651 H 636.265 6.42223 0.863372 0
M  V30 6652 N 629.671 -0.424282 1.51781 0
M  V30 6653 C 630.581 -1.54087 1.76902 0
M  V30 6654 C 631.597 -1.61249 0.653826 0
M  V30 6655 O 632.773 -1.78247 0.937552 0
M  V30 6656 C 629.838 -2.8996 1.90063 0
M  V30 6657 C 628.899 -2.92809 3.13945 0
M  V30 6658 C 628.132 -4.22201 3.26469 0
M  V30 6659 O 628.355 -5.15286 2.44616 0
M  V30 6660 O 627.289 -4.31599 4.1953 0
M  V30 6661 H 631.115 -1.358 2.71647 0
M  V30 6662 H 628.7 -0.608618 1.36441 0
M  V30 6663 H 630.582 -3.70575 2.0063 0
M  V30 6664 H 629.257 -3.08347 0.985067 0
M  V30 6665 H 628.164 -2.11102 3.08847 0
M  V30 6666 H 629.497 -2.79369 4.05233 0
M  V30 6667 N 631.149 -1.42148 -0.680565 0
M  V30 6668 C 632.374 -1.45901 -1.47403 0
M  V30 6669 C 632.799 -0.0700985 -1.87969 0
M  V30 6670 O 632.157 0.930145 -1.55621 0
M  V30 6671 C 632.205 -2.38661 -2.70321 0
M  V30 6672 O 631.309 -1.85399 -3.68376 0
M  V30 6673 H 630.65 -0.494565 -0.443059 0
M  V30 6674 H 633.18 -1.86774 -0.835251 0
M  V30 6675 H 633.19 -2.55046 -3.18458 0
M  V30 6676 H 631.865 -3.39571 -2.40134 0
M  V30 6677 H 630.442 -1.78541 -3.2738 0
M  V30 6678 N 632.627 0.916307 -1.28225 0
M  V30 6679 C 633.876 1.65975 -1.14608 0
M  V30 6680 C 634.189 1.93204 0.305191 0
M  V30 6681 O 635.395 2.65611 0.562432 0
M  V30 6682 C 633.851 2.98989 -2.00333 0
M  V30 6683 C 633.459 2.79417 -3.50186 0
M  V30 6684 C 635.203 3.76856 -1.95397 0
M  V30 6685 C 633.11 4.08056 -4.28071 0
M  V30 6686 H 632.04 0.622587 -0.425324 0
M  V30 6687 H 634.691 1.01705 -1.52736 0
M  V30 6688 H 633.073 3.6438 -1.5506 0
M  V30 6689 H 634.247 2.22723 -4.034 0
M  V30 6690 H 632.562 2.14966 -3.56621 0
M  V30 6691 H 635.159 4.72203 -2.50856 0
M  V30 6692 H 635.502 4.05776 -0.930137 0
M  V30 6693 H 636.035 3.1828 -2.38626 0
M  V30 6694 H 632.774 3.8431 -5.31024 0
M  V30 6695 H 632.294 4.64371 -3.79631 0
M  V30 6696 H 633.973 4.76333 -4.37854 0
M  V30 6697 N 634.105 1.10431 1.1244 0
M  V30 6698 C 635.015 0.765502 2.21759 0
M  V30 6699 C 636.031 -0.236966 1.72379 0
M  V30 6700 O 637.207 -0.0757329 2.01258 0
M  V30 6701 C 634.272 0.202316 3.46109 0
M  V30 6702 C 633.333 1.26205 4.1033 0
M  V30 6703 C 632.566 0.725648 5.28744 0
M  V30 6704 O 632.789 -0.447942 5.68638 0
M  V30 6705 O 631.723 1.48555 5.83279 0
M  V30 6706 H 635.549 1.67801 2.53133 0
M  V30 6707 H 633.134 0.879443 1.20773 0
M  V30 6708 H 635.016 -0.107918 4.21262 0
M  V30 6709 H 633.691 -0.683052 3.16411 0
M  V30 6710 H 632.598 1.62514 3.36957 0
M  V30 6711 H 633.931 2.12044 4.44183 0
M  V30 6712 N 635.583 -1.29855 0.893053 0
M  V30 6713 C 636.832 -1.95104 0.511597 0
M  V30 6714 C 637.145 -1.71226 -0.945567 0
M  V30 6715 O 638.351 -2.30525 -1.43424 0
M  V30 6716 C 636.807 -3.49374 0.864034 0
M  V30 6717 C 636.415 -3.82061 2.33952 0
M  V30 6718 C 638.159 -4.20894 0.552167 0
M  V30 6719 C 636.066 -5.29546 2.63316 0
M  V30 6720 H 634.996 -0.73029 0.187597 0
M  V30 6721 H 637.647 -1.47682 1.08914 0
M  V30 6722 H 636.029 -3.95413 0.215493 0
M  V30 6723 H 637.203 -3.46904 3.03305 0
M  V30 6724 H 635.518 -3.23665 2.61973 0
M  V30 6725 H 638.115 -5.29435 0.748489 0
M  V30 6726 H 638.458 -4.13178 -0.508924 0
M  V30 6727 H 638.991 -3.80564 1.15825 0
M  V30 6728 H 635.73 -5.4232 3.68197 0
M  V30 6729 H 635.25 -5.65974 1.9858 0
M  V30 6730 H 636.929 -5.97068 2.49236 0
M  V30 6731 N 637.061 -0.65484 -1.43351 0
M  V30 6732 C 638.31 -0.166215 -2.01014 0
M  V30 6733 C 638.623 1.22764 -1.52278 0
M  V30 6734 O 639.829 1.81156 -2.02224 0
M  V30 6735 C 638.285 -0.246341 -3.59056 0
M  V30 6736 C 637.893 -1.64299 -4.16785 0
M  V30 6737 C 639.637 0.184597 -4.24098 0
M  V30 6738 C 637.544 -1.67695 -5.67126 0
M  V30 6739 H 636.474 -0.0583769 -0.751737 0
M  V30 6740 H 639.125 -0.817111 -1.64303 0
M  V30 6741 H 637.507 0.472092 -3.93176 0
M  V30 6742 H 638.681 -2.3869 -3.94162 0
M  V30 6743 H 636.996 -2.02004 -3.6412 0
M  V30 6744 H 639.593 0.179088 -5.344 0
M  V30 6745 H 639.936 1.21632 -3.98135 0
M  V30 6746 H 640.469 -0.482141 -3.94867 0
M  V30 6747 H 637.208 -2.68783 -5.9786 0
M  V30 6748 H 636.728 -0.976313 -5.91801 0
M  V30 6749 H 638.407 -1.42142 -6.31193 0
M  V30 6750 N 638.539 1.52521 -0.396863 0
M  V30 6751 C 639.487 2.28217 0.44943 0
M  V30 6752 C 640.481 1.32416 1.05652 0
M  V30 6753 O 641.687 1.49925 0.996124 0
M  V30 6754 H 638.062 0.733966 0.1637 0
M  V30 6755 H 640.033 2.97658 -0.210367 0
M  V30 6756 C 638.782 3.10713 1.56054 0
M  V30 6757 H 638.105 3.84291 1.10273 0
M  V30 6758 H 639.545 3.66803 2.12677 0
M  V30 6759 C 638.004 2.23499 2.52091 0
M  V30 6760 O 638.534 1.8669 3.55682 0
M  V30 6761 N 636.74 1.8751 2.2201 0
M  V30 6762 H 636.287 2.17643 1.37802 0
M  V30 6763 H 636.245 1.29448 2.86514 0
M  V30 6764 N 640.017 0.126909 1.57088 0
M  V30 6765 C 640.964 -0.82036 2.15728 0
M  V30 6766 C 641.934 -1.25811 1.08447 0
M  V30 6767 O 643.119 -1.33422 1.36393 0
M  V30 6768 C 640.259 -2.06199 2.76724 0
M  V30 6769 C 639.372 -1.67188 3.98337 0
M  V30 6770 C 638.507 -2.86378 4.47393 0
M  V30 6771 C 637.546 -2.43644 5.61519 0
M  V30 6772 N 636.683 -3.55775 6.05284 0
M  V30 6773 H 641.523 -0.313472 2.96347 0
M  V30 6774 H 639.06 -0.14303 1.46403 0
M  V30 6775 H 641.018 -2.78959 3.10222 0
M  V30 6776 H 639.648 -2.54333 1.98782 0
M  V30 6777 H 638.7 -0.842714 3.70948 0
M  V30 6778 H 640.012 -1.31789 4.81075 0
M  V30 6779 H 639.166 -3.67353 4.82842 0
M  V30 6780 H 637.905 -3.25009 3.63621 0
M  V30 6781 H 636.91 -1.61104 5.25667 0
M  V30 6782 H 638.135 -2.06122 6.47063 0
M  V30 6783 H 636.081 -3.94065 5.24451 0
M  V30 6784 H 635.998 -3.24325 6.82898 0
M  V30 6785 H 637.266 -4.37166 6.45373 0
M  V30 6786 N 641.495 -1.56914 -0.146875 0
M  V30 6787 C 642.723 -1.87515 -0.874394 0
M  V30 6788 C 643.138 -0.715116 -1.74733 0
M  V30 6789 O 642.495 0.315113 -1.79759 0
M  V30 6790 C 642.546 -3.17362 -1.731 0
M  V30 6791 O 642.267 -4.28897 -0.893245 0
M  V30 6792 C 643.768 -3.61479 -2.56609 0
M  V30 6793 H 640.988 -0.621546 -0.252827 0
M  V30 6794 H 643.532 -2.04023 -0.139627 0
M  V30 6795 H 641.687 -3.02608 -2.41883 0
M  V30 6796 H 642.101 -5.03146 -1.48137 0
M  V30 6797 H 643.575 -4.5517 -3.12289 0
M  V30 6798 H 644.052 -2.86773 -3.32653 0
M  V30 6799 H 644.658 -3.78927 -1.93117 0
M  V30 6800 N 642.974 0.416227 -1.52004 0
M  V30 6801 C 644.223 1.16088 -1.64944 0
M  V30 6802 C 644.536 1.91835 -0.381928 0
M  V30 6803 O 645.742 2.6867 -0.391013 0
M  V30 6804 C 644.198 2.1124 -2.91386 0
M  V30 6805 C 643.806 1.41042 -4.25219 0
M  V30 6806 C 645.55 2.86008 -3.13688 0
M  V30 6807 C 643.457 2.34801 -5.42791 0
M  V30 6808 H 642.387 0.437041 -0.61442 0
M  V30 6809 H 645.038 0.425971 -1.78487 0
M  V30 6810 H 643.42 2.88254 -2.71525 0
M  V30 6811 H 644.594 0.694416 -4.55538 0
M  V30 6812 H 642.909 0.78344 -4.08964 0
M  V30 6813 H 645.506 3.56286 -3.98703 0
M  V30 6814 H 645.849 3.48556 -2.27628 0
M  V30 6815 H 646.382 2.16095 -3.33988 0
M  V30 6816 H 643.121 1.7691 -6.31176 0
M  V30 6817 H 642.641 3.04395 -5.16821 0
M  V30 6818 H 644.32 2.9548 -5.75587 0
M  V30 6819 N 644.452 1.42507 0.673017 0
M  V30 6820 C 645.382 1.48916 1.79851 0
M  V30 6821 C 646.363 0.345566 1.66553 0
M  V30 6822 O 647.548 0.560116 1.85947 0
M  V30 6823 C 644.678 1.39258 3.18158 0
M  V30 6824 C 643.632 2.51662 3.46194 0
M  V30 6825 C 642.958 2.27062 4.84094 0
M  V30 6826 C 644.258 3.93968 3.42909 0
M  V30 6827 H 645.952 2.43114 1.74745 0
M  V30 6828 H 643.498 1.17013 0.839288 0
M  V30 6829 H 645.451 1.42349 3.96629 0
M  V30 6830 H 644.175 0.415542 3.23946 0
M  V30 6831 H 642.834 2.47891 2.70084 0
M  V30 6832 H 642.482 1.27648 4.86534 0
M  V30 6833 H 642.182 3.02398 5.03815 0
M  V30 6834 H 643.706 2.31905 5.64847 0
M  V30 6835 H 645.12 3.99332 4.11347 0
M  V30 6836 H 643.517 4.6917 3.74165 0
M  V30 6837 H 644.587 4.20512 2.41449 0
M  V30 6838 N 645.93 -0.909495 1.28709 0
M  V30 6839 C 647.155 -1.69801 1.1909 0
M  V30 6840 C 647.58 -1.86479 -0.246388 0
M  V30 6841 O 646.938 -1.37802 -1.17815 0
M  V30 6842 C 646.986 -3.06543 1.89904 0
M  V30 6843 O 646.09 -3.94268 1.2094 0
M  V30 6844 H 645.431 -0.519783 0.413185 0
M  V30 6845 H 647.961 -1.13689 1.70106 0
M  V30 6846 H 647.971 -3.56748 1.97977 0
M  V30 6847 H 646.646 -2.93722 2.94449 0
M  V30 6848 H 645.223 -3.52702 1.2106 0
M  V30 6849 N 647.408 -1.11026 -1.11852 0
M  V30 6850 C 648.655 -0.85646 -1.83497 0
M  V30 6851 C 648.983 0.617938 -1.84423 0
M  V30 6852 O 648.238 1.47194 -1.28966 0
M  V30 6853 C 648.537 -1.35777 -3.30604 0
M  V30 6854 C 648.203 -2.84465 -3.49843 0
M  V30 6855 C 646.865 -3.25068 -3.54802 0
M  V30 6856 C 649.217 -3.80251 -3.56453 0
M  V30 6857 C 646.545 -4.60194 -3.63921 0
M  V30 6858 C 648.897 -5.15188 -3.67102 0
M  V30 6859 C 647.561 -5.55356 -3.70319 0
M  V30 6860 H 646.831 -0.313401 -0.671462 0
M  V30 6861 H 649.478 -1.38792 -1.31943 0
M  V30 6862 H 647.783 -0.746455 -3.84624 0
M  V30 6863 H 649.48 -1.13779 -3.8452 0
M  V30 6864 H 646.07 -2.52054 -3.46651 0
M  V30 6865 H 650.254 -3.49986 -3.51886 0
M  V30 6866 H 645.51 -4.90728 -3.64686 0
M  V30 6867 H 649.684 -5.89248 -3.71159 0
M  V30 6868 H 647.311 -6.60054 -3.77138 0
M  V30 6869 O 648.925 1.24197 -1.03235 0
M  V30 6870 H 649.616 1.80628 -0.699523 0
M  V30 END ATOM
M  V30 BEGIN BOND
M  V30 END BOND
M  V30 END CTAB
M  END
$$$$
