drugbank_target|P04156 Major prion protein (DB00759)
 OpenBabel12092119473D

  0  0  0     0  0            999 V3000
M  V30 BEGIN CTAB
M  V30 COUNTS 3787 3851 0 0 0
M  V30 BEGIN ATOM
M  V30 1 H -0.908 1.98254 -0.117106 0
M  V30 2 N 0 1.576 0 0
M  V30 3 C 0.933 2.03868 1.02534 0
M  V30 4 C 1.911 0.928543 1.3348 0
M  V30 5 O 3.095 1.19667 1.45644 0
M  V30 6 C 0.222 2.43627 2.35294 0
M  V30 7 C -0.732 3.65373 2.2001 0
M  V30 8 S 0.101 5.13292 1.52614 0
M  V30 9 C 1.257 5.56322 2.86805 0
M  V30 10 H 1.49 2.90518 0.631377 0
M  V30 11 H -0.977 1.52953 0.210867 0
M  V30 12 H 0.981 2.67203 3.11629 0
M  V30 13 H -0.358 1.57376 2.7183 0
M  V30 14 H -1.165 3.90944 3.18086 0
M  V30 15 H -1.563 3.418 1.51819 0
M  V30 16 H 0.729 5.58782 3.83104 0
M  V30 17 H 1.672 6.56266 2.65933 0
M  V30 18 H 2.08 4.83886 2.90714 0
M  V30 19 N 1.4781 -0.272755 1.55222 0
M  V30 20 C 2.4411 -1.32041 1.87344 0
M  V30 21 C 3.4411 -1.42342 0.74803 0
M  V30 22 O 4.6311 -1.41488 1.0162 0
M  V30 23 C 1.7631 -2.70173 2.07893 0
M  V30 24 H 2.9561 -1.04789 2.80997 0
M  V30 25 H 0.5091 -0.51083 1.47717 0
M  V30 26 H 1.2441 -3.02605 1.16622 0
M  V30 27 H 1.0291 -2.64082 2.89833 0
M  V30 28 H 2.5191 -3.45869 2.34017 0
M  V30 29 N 2.9562 -1.48159 -0.537278 0
M  V30 30 C 3.9042 -1.62573 -1.66352 0
M  V30 31 C 4.8982 -0.492366 -1.62087 0
M  V30 32 O 6.1042 -0.670847 -1.67032 0
M  V30 33 H 2.4792 -0.511992 -0.550789 0
M  V30 34 H 4.4502 -2.57176 -1.51337 0
M  V30 35 C 3.1992 -1.67583 -3.04649 0
M  V30 36 H 2.5222 -2.54151 -3.08622 0
M  V30 37 H 3.9622 -1.81713 -3.83088 0
M  V30 38 C 2.4212 -0.413039 -3.34358 0
M  V30 39 O 2.9512 0.477259 -3.98855 0
M  V30 40 N 1.1572 -0.286961 -2.8918 0
M  V30 41 H 0.7042 -1.01241 -2.36871 0
M  V30 42 H 0.6622 0.556963 -3.09427 0
M  V30 43 N 4.4343 0.785586 -1.36625 0
M  V30 44 C 5.3643 1.91259 -1.33949 0
M  V30 45 C 6.3453 1.68795 -0.210325 0
M  V30 46 O 7.5303 1.89854 -0.408561 0
M  V30 47 C 4.6603 3.28339 -1.13186 0
M  V30 48 C 3.6143 3.65335 -2.22967 0
M  V30 49 C 2.9403 5.00806 -1.87342 0
M  V30 50 C 4.2403 3.7352 -3.65075 0
M  V30 51 H 5.9343 1.93755 -2.28253 0
M  V30 52 H 3.4803 0.930788 -1.09874 0
M  V30 53 H 5.4333 4.06804 -1.09948 0
M  V30 54 H 4.1573 3.2624 -0.153332 0
M  V30 55 H 2.8163 2.89169 -2.25337 0
M  V30 56 H 2.4643 4.95233 -0.880545 0
M  V30 57 H 2.1643 5.26529 -2.60846 0
M  V30 58 H 3.6883 5.81687 -1.85667 0
M  V30 59 H 5.1023 4.42168 -3.64911 0
M  V30 60 H 3.4993 4.10731 -4.37516 0
M  V30 61 H 4.5693 2.74527 -3.99703 0
M  V30 62 N 5.9124 1.20967 1.01018 0
M  V30 63 C 7.1604 1.02172 1.74371 0
M  V30 64 C 7.4814 -0.446414 1.89821 0
M  V30 65 O 6.7514 -1.32234 1.44537 0
M  V30 66 H 5.3314 0.375066 0.646014 0
M  V30 67 H 7.9934 1.52187 1.21758 0
M  V30 68 H 7.0894 1.48538 2.74487 0
M  V30 69 N 7.3905 -1.2043 1.01659 0
M  V30 70 C 8.6305 -1.91507 0.714456 0
M  V30 71 C 8.9945 -1.77073 -0.742237 0
M  V30 72 O 10.1955 -2.42631 -1.15688 0
M  V30 73 C 8.4665 -3.38795 1.13809 0
M  V30 74 S 10.0255 -4.28216 0.957925 0
M  V30 75 H 6.8435 -0.661571 0.260471 0
M  V30 76 H 9.4455 -1.45671 1.30384 0
M  V30 77 H 8.1495 -3.46822 2.19415 0
M  V30 78 H 7.6805 -3.89656 0.541474 0
M  V30 79 H 9.6955 -4.96007 -0.138531 0
M  V30 80 N 8.8686 -0.792821 -1.36206 0
M  V30 81 C 10.1146 -0.376415 -1.99887 0
M  V30 82 C 10.4696 1.04127 -1.61788 0
M  V30 83 O 9.7626 1.71004 -0.864193 0
M  V30 84 C 9.9566 -0.481501 -3.54142 0
M  V30 85 C 9.7856 -1.90786 -4.07223 0
M  V30 86 C 8.5556 -2.53322 -4.37214 0
M  V30 87 C 10.7536 -2.87048 -4.26741 0
M  V30 88 N 8.7356 -3.8751 -4.7614 0
M  V30 89 C 10.1066 -4.06077 -4.6851 0
M  V30 90 C 12.1616 -2.8406 -4.08918 0
M  V30 91 C 10.8646 -5.22532 -4.94321 0
M  V30 92 C 12.8906 -3.99705 -4.35878 0
M  V30 93 C 12.2526 -5.1748 -4.77906 0
M  V30 94 H 8.3516 -0.185226 -0.759747 0
M  V30 95 H 10.9356 -1.03114 -1.65153 0
M  V30 96 H 9.1066 0.143154 -3.88136 0
M  V30 97 H 10.8386 -0.0410128 -4.04679 0
M  V30 98 H 7.5936 -2.04777 -4.2704 0
M  V30 99 H 8.0176 -4.5656 -4.99882 0
M  V30 100 H 12.6596 -1.94165 -3.75579 0
M  V30 101 H 10.3776 -6.1301 -5.2654 0
M  V30 102 H 13.9636 -3.98758 -4.23655 0
M  V30 103 H 12.8436 -6.05478 -4.98363 0
M  V30 104 N 10.3467 1.47872 -0.545128 0
M  V30 105 C 11.2797 2.2675 0.256885 0
M  V30 106 C 12.2577 1.33293 0.931228 0
M  V30 107 O 13.4417 1.62657 0.95262 0
M  V30 108 C 10.5687 3.09976 1.36501 0
M  V30 109 C 9.6147 4.1892 0.800496 0
M  V30 110 S 10.4477 5.34397 -0.343505 0
M  V30 111 C 11.6037 6.21186 0.766733 0
M  V30 112 H 11.8367 2.94425 -0.412479 0
M  V30 113 H 9.3697 1.50806 -0.331204 0
M  V30 114 H 11.3277 3.585 1.9997 0
M  V30 115 H 9.9887 2.41686 2.00616 0
M  V30 116 H 9.1817 4.76836 1.63227 0
M  V30 117 H 8.7837 3.73215 0.242217 0
M  V30 118 H 11.0757 6.56804 1.66178 0
M  V30 119 H 12.0187 7.07742 0.225204 0
M  V30 120 H 12.4267 5.54574 1.05396 0
M  V30 121 N 11.8248 0.280983 1.55075 0
M  V30 122 C 12.7548 -0.597469 2.25727 0
M  V30 123 C 13.7358 -1.15417 1.24952 0
M  V30 124 O 14.9208 -1.18722 1.53684 0
M  V30 125 C 12.0508 -1.7789 2.98283 0
M  V30 126 C 11.0048 -1.35347 4.06036 0
M  V30 127 C 10.3308 -2.61846 4.66198 0
M  V30 128 C 11.6308 -0.499354 5.19907 0
M  V30 129 H 13.3248 -0.00824265 2.99399 0
M  V30 130 H 10.8708 -0.0025244 1.44 0
M  V30 131 H 12.8238 -2.39937 3.46422 0
M  V30 132 H 11.5478 -2.39405 2.22155 0
M  V30 133 H 10.2068 -0.756156 3.58717 0
M  V30 134 H 9.8548 -3.21632 3.86732 0
M  V30 135 H 9.5548 -2.3409 5.38958 0
M  V30 136 H 11.0788 -3.24732 5.1709 0
M  V30 137 H 12.4928 -1.02498 5.64063 0
M  V30 138 H 10.8898 -0.316424 5.99265 0
M  V30 139 H 11.9598 0.480459 4.82514 0
M  V30 140 N 13.3029 -1.57598 0.00835791 0
M  V30 141 C 14.5489 -1.91211 -0.675732 0
M  V30 142 C 14.8819 -0.883139 -1.72958 0
M  V30 143 O 14.1569 0.097016 -1.94258 0
M  V30 144 C 14.4399 -3.35379 -1.31123 0
M  V30 145 C 14.2929 -4.48999 -0.268356 0
M  V30 146 C 15.6119 -3.7912 -2.23508 0
M  V30 147 H 12.7309 -0.695374 -0.244179 0
M  V30 148 H 15.3729 -1.89901 0.0613655 0
M  V30 149 H 13.5229 -3.36626 -1.93946 0
M  V30 150 H 15.1949 -4.59887 0.360844 0
M  V30 151 H 13.4379 -4.31873 0.408482 0
M  V30 152 H 14.1089 -5.46851 -0.752218 0
M  V30 153 H 16.5849 -3.79477 -1.70693 0
M  V30 154 H 15.4609 -4.80729 -2.64936 0
M  V30 155 H 15.7219 -3.13455 -3.11766 0
M  V30 156 N 14.781 0.264519 -1.55364 0
M  V30 157 C 15.711 1.33121 -1.91836 0
M  V30 158 C 16.692 1.51101 -0.781192 0
M  V30 159 O 17.877 1.64003 -1.04003 0
M  V30 160 C 15.007 2.68921 -2.19769 0
M  V30 161 C 13.961 2.65661 -3.35571 0
M  V30 162 C 13.287 4.05093 -3.49004 0
M  V30 163 C 14.587 2.24187 -4.71739 0
M  V30 164 H 16.281 1.02844 -2.81182 0
M  V30 165 H 13.827 0.493286 -1.35287 0
M  V30 166 H 15.78 3.43663 -2.43872 0
M  V30 167 H 14.504 3.00799 -1.27231 0
M  V30 168 H 13.163 1.93377 -3.1145 0
M  V30 169 H 12.811 4.34206 -2.53917 0
M  V30 170 H 12.511 4.03804 -4.26868 0
M  V30 171 H 14.035 4.81561 -3.75408 0
M  V30 172 H 15.449 2.88654 -4.9533 0
M  V30 173 H 13.846 2.34044 -5.52579 0
M  V30 174 H 14.916 1.19327 -4.69988 0
M  V30 175 N 16.2591 1.48442 0.529413 0
M  V30 176 C 17.5061 1.56488 1.28521 0
M  V30 177 C 17.8341 0.239042 1.93025 0
M  V30 178 O 17.0891 -0.770713 1.79885 0
M  V30 179 C 17.3881 2.6523 2.39558 0
M  V30 180 C 17.0541 4.07648 1.92702 0
M  V30 181 C 15.7161 4.46411 1.79641 0
M  V30 182 C 18.0681 4.96896 1.573 0
M  V30 183 C 15.3961 5.72226 1.29514 0
M  V30 184 C 17.7481 6.23202 1.08636 0
M  V30 185 C 16.4121 6.60821 0.941919 0
M  V30 186 H 15.6821 0.572631 0.470292 0
M  V30 187 H 18.3291 1.82161 0.59072 0
M  V30 188 H 16.6341 2.33419 3.14679 0
M  V30 189 H 18.3311 2.68671 2.97686 0
M  V30 190 H 14.9211 3.77036 2.03819 0
M  V30 191 H 19.1051 4.67626 1.66251 0
M  V30 192 H 14.3611 6.00097 1.17019 0
M  V30 193 H 18.5351 6.91753 0.803136 0
M  V30 194 H 16.1621 7.58198 0.5513 0
M  V30 195 N 17.7372 -0.778329 1.37039 0
M  V30 196 C 18.9832 -1.53892 1.32079 0
M  V30 197 C 19.3162 -1.9396 -0.0965386 0
M  V30 198 O 18.5912 -1.63568 -1.05242 0
M  V30 199 C 18.8742 -2.80847 2.25382 0
M  V30 200 C 18.7272 -2.47076 3.75864 0
M  V30 201 C 20.0462 -3.82741 2.1725 0
M  V30 202 H 17.1652 -0.558303 0.48111 0
M  V30 203 H 19.8072 -0.893397 1.67685 0
M  V30 204 H 17.9572 -3.35931 1.95148 0
M  V30 205 H 19.6292 -1.97957 4.16666 0
M  V30 206 H 17.8722 -1.79863 3.94755 0
M  V30 207 H 18.5432 -3.37798 4.36574 0
M  V30 208 H 21.0192 -3.37133 2.43887 0
M  V30 209 H 19.8952 -4.69303 2.84686 0
M  V30 210 H 20.1562 -4.2652 1.16331 0
M  V30 211 N 19.2153 -1.21501 -1.00376 0
M  V30 212 C 20.1783 -0.976927 -2.07337 0
M  V30 213 C 21.1783 0.0525322 -1.60714 0
M  V30 214 O 22.3683 -0.184869 -1.73216 0
M  V30 215 C 19.5003 -0.473423 -3.37597 0
M  V30 216 H 20.6933 -1.92587 -2.29892 0
M  V30 217 H 18.2463 -1.03217 -1.17371 0
M  V30 218 H 18.9813 0.480379 -3.20722 0
M  V30 219 H 18.7663 -1.216 -3.72768 0
M  V30 220 H 20.2563 -0.32675 -4.1632 0
M  V30 221 N 20.6934 1.19889 -1.02296 0
M  V30 222 C 21.9214 1.9339 -0.735399 0
M  V30 223 C 22.3364 1.75148 0.704887 0
M  V30 224 O 21.6934 1.06954 1.47875 0
M  V30 225 C 21.7444 3.45313 -1.06962 0
M  V30 226 O 21.4654 3.62964 -2.45334 0
M  V30 227 C 22.9664 4.35948 -0.804021 0
M  V30 228 H 20.1864 0.61448 -0.269546 0
M  V30 229 H 22.7304 1.522 -1.36585 0
M  V30 230 H 20.8854 3.84359 -0.484455 0
M  V30 231 H 21.2994 4.56886 -2.57595 0
M  V30 232 H 22.7734 5.41174 -1.0879 0
M  V30 233 H 23.2504 4.3842 0.261691 0
M  V30 234 H 23.8564 4.02574 -1.37164 0
M  V30 235 N 22.1715 0.800033 1.35784 0
M  V30 236 C 23.4175 0.38701 1.99684 0
M  V30 237 C 23.7725 -1.03268 1.62338 0
M  V30 238 O 23.0655 -1.70543 0.87325 0
M  V30 239 C 23.2595 0.500276 3.53881 0
M  V30 240 C 23.0885 1.92942 4.06206 0
M  V30 241 C 21.8585 2.55637 4.35865 0
M  V30 242 C 24.0565 2.89307 4.25213 0
M  V30 243 N 22.0385 3.9003 4.74078 0
M  V30 244 C 23.4095 4.08556 4.66349 0
M  V30 245 C 25.4645 2.86225 4.07406 0
M  V30 246 C 24.1675 5.25146 4.91543 0
M  V30 247 C 26.1935 4.02011 4.33752 0
M  V30 248 C 25.5555 5.20007 4.75155 0
M  V30 249 H 21.6545 0.189252 0.758754 0
M  V30 250 H 24.2385 1.03988 1.64604 0
M  V30 251 H 22.4095 -0.122568 3.88207 0
M  V30 252 H 24.1415 0.0624733 4.04652 0
M  V30 253 H 20.8965 2.07039 4.25948 0
M  V30 254 H 21.3205 4.59205 4.97454 0
M  V30 255 H 25.9625 1.96154 3.74544 0
M  V30 256 H 23.6805 6.15794 5.23281 0
M  V30 257 H 27.2665 4.00999 4.21534 0
M  V30 258 H 26.1465 6.08113 4.95145 0
M  V30 259 N 23.6496 -1.47581 0.552962 0
M  V30 260 C 24.8746 -2.07378 0.0300593 0
M  V30 261 C 25.2996 -1.40355 -1.25229 0
M  V30 262 O 24.6576 -0.477099 -1.7491 0
M  V30 263 C 24.7056 -3.60274 -0.153231 0
M  V30 264 O 23.8096 -3.94041 -1.21678 0
M  V30 265 H 23.1506 -0.662158 0.0494182 0
M  V30 266 H 25.6806 -1.89662 0.767434 0
M  V30 267 H 25.6906 -4.0633 -0.368761 0
M  V30 268 H 24.3656 -4.08455 0.783397 0
M  V30 269 H 22.9426 -3.59735 -0.982079 0
M  V30 270 N 25.1277 -0.289203 -1.54924 0
M  V30 271 C 26.4047 0.376032 -1.91951 0
M  V30 272 C 26.7847 1.72622 -1.21511 0
M  V30 273 O 26.1327 2.25853 -0.346767 0
M  V30 274 C 26.3427 0.502378 -3.45365 0
M  V30 275 C 27.6907 0.778741 -4.17398 0
M  V30 276 O 28.7147 0.586647 -3.51336 0
M  V30 277 O 27.5737 1.14698 -5.34328 0
M  V30 278 H 24.6677 0.208167 -0.800372 0
M  V30 279 H 27.2137 -0.336394 -1.66332 0
M  V30 280 H 25.9857 -0.447255 -3.88736 0
M  V30 281 H 25.6087 1.26373 -3.76982 0
M  V30 282 N 26.6058 1.57591 -0.0167156 0
M  V30 283 C 27.5358 2.12496 0.967858 0
M  V30 284 C 28.5168 1.03807 1.34752 0
M  V30 285 O 29.7018 1.31577 1.42833 0
M  V30 286 C 26.8318 2.64194 2.25431 0
M  V30 287 C 25.7858 3.77559 2.01576 0
M  V30 288 C 25.1118 4.15636 3.36379 0
M  V30 289 C 26.4118 5.04151 1.36489 0
M  V30 290 H 28.1058 2.95013 0.510643 0
M  V30 291 H 25.6518 1.41915 0.244181 0
M  V30 292 H 27.6048 3.01236 2.94678 0
M  V30 293 H 26.3288 1.78821 2.73296 0
M  V30 294 H 24.9878 3.40937 1.34751 0
M  V30 295 H 24.6358 3.27263 3.81979 0
M  V30 296 H 24.3358 4.92022 3.21229 0
M  V30 297 H 25.8598 4.5525 4.06915 0
M  V30 298 H 27.2738 5.38857 1.95718 0
M  V30 299 H 25.6708 5.85453 1.31776 0
M  V30 300 H 26.7408 4.83733 0.336219 0
M  V30 301 N 28.0839 -0.256276 1.55502 0
M  V30 302 C 29.3319 -0.983672 1.76545 0
M  V30 303 C 29.6529 -1.86206 0.578982 0
M  V30 304 O 28.9229 -1.91656 -0.405577 0
M  V30 305 H 27.5029 -0.366191 0.651086 0
M  V30 306 H 30.1649 -0.276479 1.92929 0
M  V30 307 H 29.2609 -1.61087 2.67315 0
M  V30 308 N 29.562 -1.4872 -0.521534 0
M  V30 309 C 30.492 -1.66771 -1.63431 0
M  V30 310 C 31.473 -0.516499 -1.62069 0
M  V30 311 O 32.658 -0.750013 -1.79132 0
M  V30 312 C 29.788 -1.71515 -3.01993 0
M  V30 313 C 28.742 -2.86222 -3.18216 0
M  V30 314 C 28.068 -2.76061 -4.57924 0
M  V30 315 C 29.368 -4.27419 -3.00184 0
M  V30 316 H 31.062 -2.59932 -1.48579 0
M  V30 317 H 28.608 -1.25089 -0.713358 0
M  V30 318 H 30.561 -1.82731 -3.7972 0
M  V30 319 H 29.285 -0.749393 -3.17886 0
M  V30 320 H 27.944 -2.74575 -2.42908 0
M  V30 321 H 27.592 -1.77437 -4.70665 0
M  V30 322 H 27.292 -3.53037 -4.69722 0
M  V30 323 H 28.816 -2.89256 -5.37739 0
M  V30 324 H 30.23 -4.39855 -3.67697 0
M  V30 325 H 28.627 -5.05458 -3.2347 0
M  V30 326 H 29.697 -4.43293 -1.96518 0
M  V30 327 N 31.0401 0.771051 -1.3745 0
M  V30 328 C 32.2801 1.54264 -1.34096 0
M  V30 329 C 32.6441 1.91858 0.0737639 0
M  V30 330 O 33.8451 2.67797 0.23203 0
M  V30 331 C 32.1161 2.77326 -2.25445 0
M  V30 332 S 33.6751 3.67383 -2.39948 0
M  V30 333 H 30.4931 0.528122 -0.476034 0
M  V30 334 H 33.0951 0.906633 -1.73206 0
M  V30 335 H 31.7991 2.47788 -3.27153 0
M  V30 336 H 31.3301 3.45886 -1.87421 0
M  V30 337 H 33.3451 4.69334 -1.61059 0
M  V30 338 N 32.5182 1.22032 0.997298 0
M  V30 339 C 33.4652 0.986467 2.08656 0
M  V30 340 C 34.4352 -0.0902671 1.65855 0
M  V30 341 O 35.6202 0.0584294 1.90711 0
M  V30 342 C 32.7602 0.565569 3.40434 0
M  V30 343 C 31.8732 1.71259 3.96604 0
M  V30 344 C 31.0082 1.24011 5.16522 0
M  V30 345 C 30.0472 2.35896 5.64818 0
M  V30 346 N 29.1842 1.89726 6.7598 0
M  V30 347 H 34.0242 1.91892 2.27994 0
M  V30 348 H 31.5612 0.956199 1.11782 0
M  V30 349 H 33.5192 0.302738 4.161 0
M  V30 350 H 32.1492 -0.329879 3.2111 0
M  V30 351 H 31.2012 2.08986 3.17851 0
M  V30 352 H 32.5132 2.55436 4.28432 0
M  V30 353 H 31.6672 0.934395 5.99461 0
M  V30 354 H 30.4062 0.368487 4.86306 0
M  V30 355 H 29.4112 2.67261 4.8047 0
M  V30 356 H 30.6362 3.23567 5.97061 0
M  V30 357 H 28.5822 1.0492 6.47555 0
M  V30 358 H 28.4992 2.67471 7.07103 0
M  V30 359 H 29.7672 1.62211 7.62435 0
M  V30 360 N 33.9963 -1.19345 1.0293 0
M  V30 361 C 34.9433 -2.2258 0.610464 0
M  V30 362 C 35.9133 -1.6179 -0.375946 0
M  V30 363 O 37.0983 -1.88844 -0.272511 0
M  V30 364 C 34.2383 -3.45085 -0.0321473 0
M  V30 365 C 33.3513 -4.20258 1.00035 0
M  V30 366 C 32.4863 -5.3019 0.32746 0
M  V30 367 C 31.5253 -5.97121 1.34584 0
M  V30 368 N 30.6623 -6.98615 0.698726 0
M  V30 369 H 35.5023 -2.57764 1.49538 0
M  V30 370 H 33.0393 -1.26644 0.748311 0
M  V30 371 H 34.9973 -4.15061 -0.421966 0
M  V30 372 H 33.6273 -3.10555 -0.88064 0
M  V30 373 H 32.6793 -3.49223 1.50823 0
M  V30 374 H 33.9913 -4.66175 1.77433 0
M  V30 375 H 33.1453 -6.06587 -0.11718 0
M  V30 376 H 31.8843 -4.85345 -0.478713 0
M  V30 377 H 30.8893 -5.19474 1.80074 0
M  V30 378 H 32.1143 -6.4405 2.15352 0
M  V30 379 H 30.0603 -6.55942 -0.0873471 0
M  V30 380 H 29.9773 -7.42724 1.41058 0
M  V30 381 H 31.2453 -7.79004 0.278102 0
M  V30 382 N 35.4744 -0.807222 -1.35358 0
M  V30 383 C 36.8904 -0.491038 -1.51858 0
M  V30 384 C 37.0904 0.987648 -1.75635 0
M  V30 385 O 36.1464 1.77265 -1.79815 0
M  V30 386 C 37.4594 -1.33695 -2.69344 0
M  V30 387 C 39.0074 -1.33246 -2.83222 0
M  V30 388 C 39.4824 -2.1625 -4.03733 0
M  V30 389 N 40.9734 -2.1379 -4.10911 0
M  V30 390 C 41.7084 -2.74772 -5.03277 0
M  V30 391 N 41.2044 -3.44684 -6.0097 0
M  V30 392 N 42.9974 -2.6441 -4.96028 0
M  V30 393 H 35.1484 -1.76485 -1.18181 0
M  V30 394 H 37.4114 -0.751199 -0.578276 0
M  V30 395 H 37.1174 -2.38634 -2.58354 0
M  V30 396 H 36.9914 -0.990618 -3.6396 0
M  V30 397 H 39.3784 -0.290911 -2.93663 0
M  V30 398 H 39.4594 -1.71866 -1.89461 0
M  V30 399 H 39.1034 -3.20445 -3.94052 0
M  V30 400 H 39.0334 -1.74989 -4.96675 0
M  V30 401 H 41.5244 -1.62923 -3.40976 0
M  V30 402 H 41.8374 -3.88501 -6.68047 0
M  V30 403 H 40.1824 -3.48788 -6.01142 0
M  V30 404 H 43.3734 -2.0938 -4.18662 0
M  V30 405 H 43.5464 -3.12225 -5.6782 0
M  V30 406 N 36.9525 1.47285 -0.560781 0
M  V30 407 C 38.3635 1.86258 -0.128343 0
M  V30 408 C 38.7145 1.46699 1.30284 0
M  V30 409 O 37.8395 0.871698 1.98067 0
M  V30 410 C 38.4345 3.38044 -0.22614 0
M  V30 411 C 36.9935 3.76096 0.151283 0
M  V30 412 C 36.1405 2.71335 -0.572084 0
M  V30 413 H 39.0915 1.38752 -0.770297 0
M  V30 414 H 39.1125 3.76441 0.554322 0
M  V30 415 H 38.6245 3.66806 -1.26788 0
M  V30 416 H 36.7255 3.52951 1.19399 0
M  V30 417 H 36.8385 4.78641 -0.209765 0
M  V30 418 H 35.2025 2.54696 -0.0147653 0
M  V30 419 H 35.9855 3.02938 -1.61504 0
M  V30 420 N 38.4306 0.297415 1.54768 0
M  V30 421 C 39.3776 -0.580276 2.23386 0
M  V30 422 C 40.3476 -1.13238 1.21517 0
M  V30 423 O 41.5326 -1.17757 1.50126 0
M  V30 424 C 38.6726 -1.74801 2.97555 0
M  V30 425 C 37.7856 -1.22764 4.1419 0
M  V30 426 C 36.9206 -2.35895 4.75949 0
M  V30 427 C 35.9596 -1.80974 5.84735 0
M  V30 428 N 35.0966 -2.87664 6.40464 0
M  V30 429 H 39.9366 0.0114833 2.97998 0
M  V30 430 H 37.4736 0.0174361 1.4709 0
M  V30 431 H 39.4316 -2.43475 3.38786 0
M  V30 432 H 38.0616 -2.31145 2.25326 0
M  V30 433 H 37.1136 -0.433271 3.77924 0
M  V30 434 H 38.4256 -0.785551 4.92575 0
M  V30 435 H 37.5796 -3.12523 5.20014 0
M  V30 436 H 36.3186 -2.83429 3.96887 0
M  V30 437 H 35.3236 -1.02834 5.40097 0
M  V30 438 H 36.5486 -1.34348 6.65678 0
M  V30 439 H 34.4946 -3.34538 5.64287 0
M  V30 440 H 34.4116 -2.4794 7.14186 0
M  V30 441 H 35.6796 -3.642 6.89187 0
M  V30 442 N 39.9087 -1.5758 0.0250728 0
M  V30 443 C 41.3197 -1.79476 -0.514323 0
M  V30 444 C 41.6707 -0.934956 -1.72491 0
M  V30 445 O 40.7957 -0.144245 -2.15919 0
M  V30 446 C 41.3907 -3.25503 -0.939842 0
M  V30 447 C 39.9497 -3.48408 -1.42438 0
M  V30 448 C 39.0967 -2.74583 -0.387201 0
M  V30 449 H 42.0477 -1.567 0.25113 0
M  V30 450 H 42.0687 -3.34992 -1.80445 0
M  V30 451 H 41.5807 -3.88056 -0.0585628 0
M  V30 452 H 39.6817 -2.91103 -2.32572 0
M  V30 453 H 39.7947 -4.57119 -1.43455 0
M  V30 454 H 38.1587 -2.39942 -0.854409 0
M  V30 455 H 38.9417 -3.39849 0.485543 0
M  V30 456 N 41.3868 0.248026 -1.55636 0
M  V30 457 C 42.6348 0.974295 -1.77065 0
M  V30 458 C 42.9558 1.85897 -0.588849 0
M  V30 459 O 42.2258 1.91868 0.395407 0
M  V30 460 H 40.8058 0.362733 -0.653019 0
M  V30 461 H 43.4678 0.266244 -1.93073 0
M  V30 462 H 42.5638 1.59667 -2.68166 0
M  V30 463 N 42.8649 1.48995 0.513639 0
M  V30 464 C 44.1129 1.57531 1.26604 0
M  V30 465 C 44.4339 0.258236 1.93283 0
M  V30 466 O 43.7039 -0.721502 1.8213 0
M  V30 467 H 42.2839 0.580387 0.470276 0
M  V30 468 H 44.9459 1.85552 0.596373 0
M  V30 469 H 44.0419 2.36486 2.03669 0
M  V30 470 N 44.343 -0.763751 1.37857 0
M  V30 471 C 45.589 -1.52396 1.3471 0
M  V30 472 C 45.944 -1.92288 -0.0656435 0
M  V30 473 O 45.237 -1.6181 -1.02606 0
M  V30 474 C 45.431 -2.79499 2.22745 0
M  V30 475 C 45.26 -2.52031 3.72438 0
M  V30 476 C 44.03 -2.45759 4.4151 0
M  V30 477 C 46.228 -2.19489 4.65112 0
M  V30 478 N 44.21 -2.1046 5.76697 0
M  V30 479 C 45.581 -1.94396 5.88736 0
M  V30 480 C 47.636 -2.05712 4.53417 0
M  V30 481 C 46.339 -1.56917 7.01975 0
M  V30 482 C 48.365 -1.69634 5.66549 0
M  V30 483 C 47.727 -1.45407 6.89229 0
M  V30 484 H 43.826 -0.55765 0.548225 0
M  V30 485 H 46.41 -0.890302 1.73152 0
M  V30 486 H 44.581 -3.4069 1.86507 0
M  V30 487 H 46.313 -3.45465 2.10798 0
M  V30 488 H 43.068 -2.61885 3.94605 0
M  V30 489 H 43.492 -1.95484 6.48163 0
M  V30 490 H 48.134 -2.23123 3.59133 0
M  V30 491 H 45.852 -1.38246 7.96187 0
M  V30 492 H 49.438 -1.59621 5.59475 0
M  V30 493 H 48.318 -1.17904 7.75286 0
M  V30 494 N 45.8211 -1.22559 -0.990812 0
M  V30 495 C 46.7691 -0.994798 -2.10253 0
M  V30 496 C 47.7631 0.0627798 -1.69284 0
M  V30 497 O 48.9691 -0.0898392 -1.79776 0
M  V30 498 H 45.3441 -0.304527 -0.687581 0
M  V30 499 H 47.3151 -1.93812 -2.26891 0
M  V30 500 C 46.0641 -0.591439 -3.42633 0
M  V30 501 H 45.3871 -1.3969 -3.74602 0
M  V30 502 H 46.8271 -0.469385 -4.21394 0
M  V30 503 C 45.2861 0.699232 -3.29564 0
M  V30 504 O 45.8161 1.75112 -3.61523 0
M  V30 505 N 44.0221 0.671182 -2.82743 0
M  V30 506 H 43.5691 -0.185136 -2.56934 0
M  V30 507 H 43.5271 1.53502 -2.7438 0
M  V30 508 N 47.2992 1.18797 -1.03562 0
M  V30 509 C 48.5272 1.92599 -0.755869 0
M  V30 510 C 48.9422 1.75886 0.686271 0
M  V30 511 O 48.2992 1.08517 1.46732 0
M  V30 512 C 48.3502 3.44159 -1.10619 0
M  V30 513 O 48.0712 3.60341 -2.4917 0
M  V30 514 C 49.5722 4.3507 -0.850214 0
M  V30 515 H 46.7922 0.611587 -0.276048 0
M  V30 516 H 49.3362 1.50742 -1.38192 0
M  V30 517 H 47.4912 3.83823 -0.525194 0
M  V30 518 H 47.9052 4.54128 -2.62427 0
M  V30 519 H 49.3792 5.39989 -1.14523 0
M  V30 520 H 49.8562 4.38673 0.215176 0
M  V30 521 H 50.4622 4.01097 -1.41426 0
M  V30 522 N 48.7773 0.814389 1.34928 0
M  V30 523 C 50.0253 0.397636 1.9815 0
M  V30 524 C 50.3463 -1.04069 1.64908 0
M  V30 525 O 49.6163 -1.72121 0.93548 0
M  V30 526 H 48.1963 0.144043 0.732981 0
M  V30 527 H 50.8583 1.04195 1.6471 0
M  V30 528 H 49.9543 0.509688 3.0791 0
M  V30 529 N 50.2554 -1.46986 0.568584 0
M  V30 530 C 51.5034 -2.02041 0.0487022 0
M  V30 531 C 51.8244 -1.44408 -1.31039 0
M  V30 532 O 51.0944 -0.623477 -1.85714 0
M  V30 533 H 49.6744 -0.746849 0.015014 0
M  V30 534 H 52.3364 -1.80257 0.741168 0
M  V30 535 H 51.4324 -3.12085 -0.0308961 0
M  V30 536 N 51.7335 -0.305618 -1.54608 0
M  V30 537 C 52.9585 0.307562 -2.05107 0
M  V30 538 C 53.3835 1.46385 -1.18123 0
M  V30 539 O 52.7415 1.8034 -0.186324 0
M  V30 540 C 52.7895 0.73704 -3.52987 0
M  V30 541 O 51.8935 1.84134 -3.6901 0
M  V30 542 H 51.2345 0.0589143 -0.661381 0
M  V30 543 H 53.7645 -0.448807 -1.99617 0
M  V30 544 H 53.7745 1.02459 -3.94925 0
M  V30 545 H 52.4495 -0.108773 -4.15758 0
M  V30 546 H 51.0265 1.55398 -3.38978 0
M  V30 547 N 53.2116 1.57565 -0.0334293 0
M  V30 548 C 54.6276 1.56297 0.322997 0
M  V30 549 C 54.8276 1.03945 1.7262 0
M  V30 550 O 53.8836 0.688109 2.42943 0
M  V30 551 C 55.1966 3.00232 0.167664 0
M  V30 552 C 56.7446 3.12078 0.240107 0
M  V30 553 C 57.2196 4.57859 0.113513 0
M  V30 554 N 58.7106 4.62887 0.170359 0
M  V30 555 C 59.4456 5.73319 0.0962517 0
M  V30 556 N 58.9416 6.92794 -0.0291881 0
M  V30 557 N 60.7346 5.61898 0.150551 0
M  V30 558 H 52.8856 1.89923 -0.950956 0
M  V30 559 H 55.1486 0.873824 -0.367608 0
M  V30 560 H 54.8546 3.42501 -0.799102 0
M  V30 561 H 54.7286 3.654 0.936083 0
M  V30 562 H 57.1156 2.69718 1.19733 0
M  V30 563 H 57.1966 2.49623 -0.558763 0
M  V30 564 H 56.8406 5.009 -0.840314 0
M  V30 565 H 56.7706 5.18299 0.931302 0
M  V30 566 H 59.2616 3.76954 0.26728 0
M  V30 567 H 59.5746 7.7276 -0.0789252 0
M  V30 568 H 57.9196 6.94971 -0.0640299 0
M  V30 569 H 61.1106 4.67448 0.246981 0
M  V30 570 H 61.2836 6.47938 0.0893365 0
M  V30 571 N 54.6897 -0.239769 1.55765 0
M  V30 572 C 55.9197 -0.982743 1.8173 0
M  V30 573 C 56.3277 -1.7917 0.607835 0
M  V30 574 O 55.6707 -1.78525 -0.432973 0
M  V30 575 C 55.7327 -1.96332 3.01155 0
M  V30 576 C 55.3967 -1.34062 4.36894 0
M  V30 577 C 56.3937 -0.739539 5.14613 0
M  V30 578 C 54.0787 -1.35784 4.83599 0
M  V30 579 C 56.0727 -0.163989 6.37189 0
M  V30 580 C 53.7597 -0.778441 6.06122 0
M  V30 581 C 54.7577 -0.182548 6.82756 0
M  V30 582 O 54.4457 0.387887 8.02964 0
M  V30 583 H 54.1777 -0.294481 0.608487 0
M  V30 584 H 56.7317 -0.26572 2.03674 0
M  V30 585 H 54.9617 -2.71884 2.74984 0
M  V30 586 H 56.6507 -2.57032 3.14149 0
M  V30 587 H 57.4167 -0.718687 4.79646 0
M  V30 588 H 53.2957 -1.81105 4.23936 0
M  V30 589 H 56.8397 0.301753 6.96947 0
M  V30 590 H 52.7367 -0.796645 6.40565 0
M  V30 591 H 53.5047 0.28044 8.18019 0
M  V30 592 N 56.1678 -1.49265 -0.50573 0
M  V30 593 C 57.5788 -1.51769 -1.08734 0
M  V30 594 C 57.9298 -0.301192 -1.93874 0
M  V30 595 O 57.0548 0.589456 -2.08217 0
M  V30 596 C 57.6498 -2.75017 -1.97867 0
M  V30 597 C 56.2088 -2.80314 -2.51199 0
M  V30 598 C 55.3558 -2.4562 -1.28709 0
M  V30 599 H 58.3068 -1.56031 -0.289855 0
M  V30 600 H 58.3278 -2.5491 -2.82491 0
M  V30 601 H 57.8398 -3.63539 -1.35873 0
M  V30 602 H 55.9408 -1.96061 -3.16845 0
M  V30 603 H 56.0538 -3.82366 -2.88675 0
M  V30 604 H 54.4178 -1.97297 -1.61078 0
M  V30 605 H 55.2008 -3.36411 -0.6843 0
M  V30 606 N 57.6459 0.756429 -1.3826 0
M  V30 607 C 58.8939 1.51248 -1.34047 0
M  V30 608 C 59.2149 1.94875 0.0698372 0
M  V30 609 O 58.4849 1.67436 1.01696 0
M  V30 610 H 57.0649 0.561018 -0.493222 0
M  V30 611 H 59.7269 0.899347 -1.7291 0
M  V30 612 H 58.8229 2.40472 -1.98947 0
M  V30 613 N 59.124 1.23083 0.984299 0
M  V30 614 C 60.056 0.96636 2.07832 0
M  V30 615 C 61.069 -0.0582135 1.62696 0
M  V30 616 O 62.258 0.176843 1.77622 0
M  V30 617 C 59.358 0.433397 3.36117 0
M  V30 618 C 58.531 1.51722 4.10243 0
M  V30 619 C 57.59 0.989821 5.16807 0
M  V30 620 O 56.616 1.67794 5.43906 0
M  V30 621 N 57.818 -0.184367 5.80207 0
M  V30 622 H 60.583 1.90824 2.31098 0
M  V30 623 H 58.144 1.13888 1.1507 0
M  V30 624 H 60.136 0.065699 4.04647 0
M  V30 625 H 58.706 -0.413806 3.09849 0
M  V30 626 H 57.926 2.05786 3.36223 0
M  V30 627 H 59.214 2.24619 4.56534 0
M  V30 628 H 58.612 -0.760062 5.60571 0
M  V30 629 H 57.169 -0.493366 6.4993 0
M  V30 630 N 60.6021 -1.18246 1.0419 0
M  V30 631 C 61.8501 -1.87886 0.744543 0
M  V30 632 C 62.1711 -1.8082 -0.730006 0
M  V30 633 O 61.4411 -1.22736 -1.52685 0
M  V30 634 H 60.0211 -0.695556 0.272417 0
M  V30 635 H 62.6831 -1.43494 1.31892 0
M  V30 636 H 61.7791 -2.9389 1.05049 0
M  V30 637 N 62.0802 -0.821533 -1.34494 0
M  V30 638 C 63.3052 -0.420873 -2.03085 0
M  V30 639 C 63.7302 0.964915 -1.61465 0
M  V30 640 O 63.0882 1.62763 -0.798607 0
M  V30 641 C 63.1362 -0.529414 -3.56693 0
M  V30 642 O 62.2402 0.451302 -4.09923 0
M  V30 643 H 61.5812 -0.173489 -0.640935 0
M  V30 644 H 64.1112 -1.11157 -1.71771 0
M  V30 645 H 64.1212 -0.404671 -4.05988 0
M  V30 646 H 62.7962 -1.54014 -3.86332 0
M  V30 647 H 61.3732 0.285558 -3.71805 0
M  V30 648 N 63.5583 1.46682 -0.576371 0
M  V30 649 C 64.9693 1.86112 -0.148091 0
M  V30 650 C 65.3203 1.48073 1.2872 0
M  V30 651 O 64.4453 0.892656 1.97131 0
M  V30 652 C 65.0403 3.37786 -0.261982 0
M  V30 653 C 63.5993 3.76235 0.111384 0
M  V30 654 C 62.7463 2.70713 -0.60083 0
M  V30 655 H 65.6973 1.37927 -0.78497 0
M  V30 656 H 65.7183 3.77007 0.514364 0
M  V30 657 H 65.2303 3.6544 -1.30671 0
M  V30 658 H 63.3313 3.54198 1.15649 0
M  V30 659 H 63.4443 4.78391 -0.26052 0
M  V30 660 H 61.8083 2.54666 -0.0417783 0
M  V30 661 H 62.5913 3.01208 -1.64708 0
M  V30 662 N 65.0364 0.313813 1.54444 0
M  V30 663 C 66.2844 -0.291099 1.99993 0
M  V30 664 C 66.6054 -1.53418 1.20366 0
M  V30 665 O 65.8754 -1.93544 0.302927 0
M  V30 666 H 64.4554 -0.110552 0.738774 0
M  V30 667 H 67.1174 0.428106 1.9014 0
M  V30 668 H 66.2134 -0.554268 3.07139 0
M  V30 669 N 66.5145 -1.57545 0.0417849 0
M  V30 670 C 67.7625 -1.91937 -0.632829 0
M  V30 671 C 68.0835 -0.919978 -1.71934 0
M  V30 672 O 67.3535 0.0366064 -1.95866 0
M  V30 673 H 65.9335 -0.708493 -0.236742 0
M  V30 674 H 68.5955 -1.9468 0.0925745 0
M  V30 675 H 67.6915 -2.92912 -1.07746 0
M  V30 676 N 67.9926 0.231505 -1.5589 0
M  V30 677 C 68.9406 1.30649 -1.92441 0
M  V30 678 C 69.9346 1.49037 -0.805254 0
M  V30 679 O 71.1406 1.50329 -0.990007 0
M  V30 680 H 67.5156 0.437812 -0.611412 0
M  V30 681 H 69.4866 0.970973 -2.82161 0
M  V30 682 C 68.2356 2.65179 -2.24889 0
M  V30 683 H 67.5586 2.51835 -3.10514 0
M  V30 684 H 68.9986 3.39234 -2.54355 0
M  V30 685 C 67.4576 3.19439 -1.07054 0
M  V30 686 O 67.9876 4.00371 -0.326499 0
M  V30 687 N 66.1936 2.77675 -0.85703 0
M  V30 688 H 65.7406 2.11969 -1.46379 0
M  V30 689 H 65.6986 3.14321 -0.0703223 0
M  V30 690 N 69.4707 1.49531 0.497807 0
M  V30 691 C 70.8867 1.36365 0.829266 0
M  V30 692 C 71.0867 0.399184 1.97506 0
M  V30 693 O 70.1427 -0.167977 2.51941 0
M  V30 694 C 71.4557 2.77153 1.16647 0
M  V30 695 C 73.0037 2.85877 1.27449 0
M  V30 696 C 73.4787 4.2744 1.64497 0
M  V30 697 N 74.9697 4.30265 1.7154 0
M  V30 698 C 75.7047 5.3677 2.01656 0
M  V30 699 N 75.2007 6.53516 2.29976 0
M  V30 700 N 76.9937 5.24189 2.02934 0
M  V30 701 H 69.1447 2.10831 -0.257703 0
M  V30 702 H 71.4077 0.946534 -0.0527091 0
M  V30 703 H 71.1137 3.49442 0.397872 0
M  V30 704 H 70.9877 3.12722 2.10915 0
M  V30 705 H 73.3747 2.13824 2.0338 0
M  V30 706 H 73.4557 2.53887 0.312244 0
M  V30 707 H 73.0997 5.00021 0.891151 0
M  V30 708 H 73.0297 4.56896 2.61827 0
M  V30 709 H 75.5207 3.4607 1.51802 0
M  V30 710 H 75.8337 7.30506 2.52153 0
M  V30 711 H 74.1787 6.56737 2.27425 0
M  V30 712 H 77.3697 4.31988 1.80289 0
M  V30 713 H 77.5427 6.07286 2.26071 0
M  V30 714 N 70.9488 -0.749086 1.3866 0
M  V30 715 C 72.1788 -1.53611 1.38157 0
M  V30 716 C 72.5868 -1.89177 -0.0293595 0
M  V30 717 O 71.9298 -1.53606 -1.00752 0
M  V30 718 C 71.9918 -2.86087 2.17702 0
M  V30 719 C 71.6558 -2.73034 3.66472 0
M  V30 720 C 72.6528 -2.42526 4.59866 0
M  V30 721 C 70.3378 -2.90345 4.09884 0
M  V30 722 C 72.3318 -2.29492 5.94653 0
M  V30 723 C 70.0188 -2.7693 5.4475 0
M  V30 724 C 71.0168 -2.46547 6.36949 0
M  V30 725 O 70.7048 -2.33199 7.69333 0
M  V30 726 H 70.4368 -0.481773 0.474205 0
M  V30 727 H 72.9908 -0.934465 1.82912 0
M  V30 728 H 71.2208 -3.48458 1.67672 0
M  V30 729 H 72.9098 -3.47625 2.09551 0
M  V30 730 H 73.6758 -2.28816 4.27631 0
M  V30 731 H 69.5548 -3.1299 3.38464 0
M  V30 732 H 73.0988 -2.05698 6.66584 0
M  V30 733 H 68.9958 -2.90215 5.76581 0
M  V30 734 H 69.7638 -2.48376 7.79905 0
M  V30 735 N 72.4269 -1.23603 -0.977757 0
M  V30 736 C 73.8379 -1.06424 -1.53398 0
M  V30 737 C 74.1889 0.367578 -1.92726 0
M  V30 738 O 73.3139 1.25465 -1.76316 0
M  V30 739 C 73.9089 -1.92568 -2.78753 0
M  V30 740 C 72.4679 -1.79642 -3.30765 0
M  V30 741 C 71.6149 -1.88111 -2.03739 0
M  V30 742 H 74.5659 -1.37227 -0.797152 0
M  V30 743 H 74.5869 -1.45203 -3.51705 0
M  V30 744 H 74.0989 -2.96771 -2.50098 0
M  V30 745 H 72.1999 -0.782325 -3.64294 0
M  V30 746 H 72.3129 -2.63174 -4.00345 0
M  V30 747 H 70.6769 -1.31723 -2.17994 0
M  V30 748 H 71.4599 -2.93875 -1.77461 0
M  V30 749 N 73.905 1.17692 -1.04816 0
M  V30 750 C 75.316 1.69501 -0.782698 0
M  V30 751 C 75.667 1.83456 0.695577 0
M  V30 752 O 74.792 1.51942 1.54086 0
M  V30 753 C 75.387 3.07874 -1.41419 0
M  V30 754 C 73.946 3.56864 -1.19686 0
M  V30 755 C 73.093 2.3322 -1.50012 0
M  V30 756 H 76.044 1.02262 -1.2136 0
M  V30 757 H 76.065 3.71528 -0.821428 0
M  V30 758 H 75.577 2.97685 -2.49009 0
M  V30 759 H 73.678 3.72337 -0.140043 0
M  V30 760 H 73.791 4.39851 -1.89916 0
M  V30 761 H 72.155 2.37501 -0.920071 0
M  V30 762 H 72.938 2.25644 -2.58727 0
M  V30 763 N 75.3831 0.828654 1.34056 0
M  V30 764 C 76.3151 0.212052 2.28217 0
M  V30 765 C 77.3281 -0.601362 1.51286 0
M  V30 766 O 78.5171 -0.430104 1.73241 0
M  V30 767 C 75.6171 -0.72088 3.31144 0
M  V30 768 C 74.7901 0.0509587 4.3737 0
M  V30 769 C 73.8491 -0.803766 5.20025 0
M  V30 770 O 72.8751 -0.246667 5.68665 0
M  V30 771 N 74.0771 -2.1227 5.40298 0
M  V30 772 H 76.8421 1.02105 2.81771 0
M  V30 773 H 74.4031 0.686153 1.46641 0
M  V30 774 H 76.3951 -1.29742 3.8334 0
M  V30 775 H 74.9651 -1.43061 2.77943 0
M  V30 776 H 74.1851 0.808831 3.85813 0
M  V30 777 H 75.4731 0.582065 5.0546 0
M  V30 778 H 74.8711 -2.59898 5.02464 0
M  V30 779 H 73.4281 -2.64796 5.95589 0
M  V30 780 N 76.8612 -1.46375 0.584142 0
M  V30 781 C 78.1092 -2.01978 0.0701287 0
M  V30 782 C 78.4302 -1.4579 -1.295 0
M  V30 783 O 77.7002 -0.64314 -1.85042 0
M  V30 784 H 76.2802 -0.746648 0.0229345 0
M  V30 785 H 78.9422 -1.79461 0.760245 0
M  V30 786 H 78.0382 -3.121 0.0022064 0
M  V30 787 N 78.3393 -0.321999 -1.54275 0
M  V30 788 C 79.5873 0.280489 -2.00144 0
M  V30 789 C 79.9083 1.52777 -1.21178 0
M  V30 790 O 79.1783 1.9338 -0.313187 0
M  V30 791 H 77.7583 0.106632 -0.73935 0
M  V30 792 H 80.4203 -0.438184 -1.8991 0
M  V30 793 H 79.5163 0.537972 -3.07428 0
M  V30 794 N 79.8174 1.5752 -0.0501392 0
M  V30 795 C 81.0654 1.9227 0.622642 0
M  V30 796 C 81.3864 0.929083 1.71444 0
M  V30 797 O 80.6564 -0.0262186 1.95882 0
M  V30 798 H 79.2364 0.709739 0.232981 0
M  V30 799 H 81.8984 1.94628 -0.102898 0
M  V30 800 H 80.9944 2.93479 1.06191 0
M  V30 801 N 81.2955 -0.223234 1.56011 0
M  V30 802 C 82.5435 -0.946003 1.78592 0
M  V30 803 C 82.8645 -1.84936 0.618349 0
M  V30 804 O 82.1345 -1.92473 -0.364833 0
M  V30 805 H 80.7145 -0.352298 0.658707 0
M  V30 806 H 83.3765 -0.235494 1.93472 0
M  V30 807 H 82.4725 -1.55381 2.70672 0
M  V30 808 N 82.7736 -1.49793 -0.48987 0
M  V30 809 C 84.0196 -1.61049 -1.24236 0
M  V30 810 C 84.3746 -0.298412 -1.90072 0
M  V30 811 O 83.6676 0.702262 -1.78266 0
M  V30 812 C 83.8616 -2.71488 -2.32441 0
M  V30 813 C 83.6906 -4.13308 -1.77218 0
M  V30 814 C 82.4606 -4.79955 -1.58023 0
M  V30 815 C 84.6586 -4.98176 -1.27772 0
M  V30 816 N 82.6406 -6.06052 -0.978465 0
M  V30 817 C 84.0116 -6.14843 -0.798 0
M  V30 818 C 86.0666 -4.84091 -1.16449 0
M  V30 819 C 84.7696 -7.18975 -0.216245 0
M  V30 820 C 86.7956 -5.88382 -0.596698 0
M  V30 821 C 86.1576 -7.04285 -0.127262 0
M  V30 822 H 82.2566 -0.643611 -0.444172 0
M  V30 823 H 84.8406 -1.86842 -0.54754 0
M  V30 824 H 83.0116 -2.47449 -2.99372 0
M  V30 825 H 84.7436 -2.72205 -2.99477 0
M  V30 826 H 81.4986 -4.36936 -1.82712 0
M  V30 827 H 81.9226 -6.73407 -0.696534 0
M  V30 828 H 86.5646 -3.94786 -1.5134 0
M  V30 829 H 84.2826 -8.0797 0.144903 0
M  V30 830 H 87.8686 -5.79545 -0.511716 0
M  V30 831 H 86.7486 -7.83606 0.30523 0
M  V30 832 N 84.2517 0.741722 -1.39055 0
M  V30 833 C 85.4997 1.49818 -1.35643 0
M  V30 834 C 85.8207 1.94938 0.0491642 0
M  V30 835 O 85.0907 1.68505 0.999141 0
M  V30 836 H 83.6707 0.555755 -0.499144 0
M  V30 837 H 86.3327 0.880957 -1.73854 0
M  V30 838 H 85.4287 2.38348 -2.01486 0
M  V30 839 N 85.7298 1.2412 0.971189 0
M  V30 840 C 86.6618 0.988349 2.06795 0
M  V30 841 C 87.6748 -0.0409541 1.62748 0
M  V30 842 O 88.8638 0.195673 1.77424 0
M  V30 843 C 85.9638 0.469023 3.35639 0
M  V30 844 C 85.1368 1.56065 4.08611 0
M  V30 845 C 84.1958 1.04458 5.15728 0
M  V30 846 O 83.2218 1.73553 5.42096 0
M  V30 847 N 84.4238 -0.122817 5.8037 0
M  V30 848 H 87.1888 1.93265 2.29061 0
M  V30 849 H 84.7498 1.15102 1.13856 0
M  V30 850 H 86.7418 0.108613 4.04554 0
M  V30 851 H 85.3118 -0.380919 3.1027 0
M  V30 852 H 84.5318 2.09341 3.34021 0
M  V30 853 H 85.8198 2.29449 4.54126 0
M  V30 854 H 85.2178 -0.700563 5.61345 0
M  V30 855 H 83.7748 -0.424404 6.50417 0
M  V30 856 N 87.2079 -1.17134 1.05439 0
M  V30 857 C 88.6189 -1.69084 0.791676 0
M  V30 858 C 88.9699 -1.83822 -0.685839 0
M  V30 859 O 88.0949 -1.52757 -1.53278 0
M  V30 860 C 88.6899 -3.07119 1.4305 0
M  V30 861 C 87.2489 -3.56225 1.21577 0
M  V30 862 C 86.3959 -2.32421 1.51247 0
M  V30 863 H 89.3469 -1.01617 1.219 0
M  V30 864 H 89.3679 -3.71087 0.84112 0
M  V30 865 H 88.8799 -2.9636 2.50584 0
M  V30 866 H 86.9809 -3.72257 0.159787 0
M  V30 867 H 87.0939 -4.38837 1.92246 0
M  V30 868 H 85.4579 -2.3701 0.932653 0
M  V30 869 H 86.2409 -2.24268 2.5992 0
M  V30 870 N 88.686 -0.835752 -1.33615 0
M  V30 871 C 89.636 -0.238856 -2.26745 0
M  V30 872 C 90.62 0.604343 -1.49119 0
M  V30 873 O 91.812 0.456822 -1.71003 0
M  V30 874 C 88.941 0.587725 -3.38232 0
M  V30 875 C 88.027 -0.266811 -4.2326 0
M  V30 876 N 88.418 -1.34403 -4.87616 0
M  V30 877 C 86.716 -0.0533131 -4.45968 0
M  V30 878 C 87.417 -1.86819 -5.50884 0
M  V30 879 N 86.393 -1.17013 -5.30857 0
M  V30 880 H 90.195 -1.06266 -2.74016 0
M  V30 881 H 87.709 -0.679881 -1.47483 0
M  V30 882 H 89.706 1.03161 -4.03935 0
M  V30 883 H 88.366 1.40954 -2.9251 0
M  V30 884 H 89.377 -1.7269 -4.88261 0
M  V30 885 H 86.054 0.735312 -4.10974 0
M  V30 886 H 87.444 -2.7701 -6.1214 0
M  V30 887 N 90.1641 1.46063 -0.591896 0
M  V30 888 C 91.4121 2.01938 -0.0808391 0
M  V30 889 C 91.7331 1.46475 1.28725 0
M  V30 890 O 91.0031 0.652944 1.84698 0
M  V30 891 H 89.5831 0.746516 -0.0268938 0
M  V30 892 H 92.2451 1.79055 -0.769752 0
M  V30 893 H 91.3411 3.12094 -0.0187578 0
M  V30 894 N 91.6422 0.330177 1.54103 0
M  V30 895 C 92.8902 -0.269871 2.0029 0
M  V30 896 C 93.2112 -1.52133 1.21986 0
M  V30 897 O 92.4812 -1.93212 0.323438 0
M  V30 898 H 91.0612 -0.10271 0.739905 0
M  V30 899 H 93.7232 0.448249 1.89675 0
M  V30 900 H 92.8192 -0.52166 3.07709 0
M  V30 901 N 93.1203 -1.57491 0.0584922 0
M  V30 902 C 94.3683 -1.92597 -0.612436 0
M  V30 903 C 94.6893 -0.938162 -1.70949 0
M  V30 904 O 93.9593 0.0158301 -1.95894 0
M  V30 905 H 92.5393 -0.710964 -0.229214 0
M  V30 906 H 95.2013 -1.94571 0.113218 0
M  V30 907 H 94.2973 -2.94038 -1.04633 0
M  V30 908 N 94.5984 0.214957 -1.56127 0
M  V30 909 C 95.8444 0.935325 -1.80619 0
M  V30 910 C 96.1994 1.81706 -0.632507 0
M  V30 911 O 95.4924 1.87931 0.373182 0
M  V30 912 C 95.6864 1.80314 -3.0858 0
M  V30 913 C 95.5154 1.00691 -4.38282 0
M  V30 914 C 94.2854 0.699211 -5.00439 0
M  V30 915 C 96.4834 0.369057 -5.12974 0
M  V30 916 N 94.4654 -0.117734 -6.13787 0
M  V30 917 C 95.8364 -0.310981 -6.1922 0
M  V30 918 C 97.8914 0.282759 -4.97096 0
M  V30 919 C 96.5944 -1.06907 -7.11311 0
M  V30 920 C 98.6204 -0.461881 -5.89594 0
M  V30 921 C 97.9824 -1.13044 -6.9527 0
M  V30 922 H 94.0814 0.322307 -0.71249 0
M  V30 923 H 96.6654 0.205649 -1.93611 0
M  V30 924 H 94.8364 2.50458 -2.96859 0
M  V30 925 H 96.5684 2.46148 -3.21237 0
M  V30 926 H 93.3234 1.01884 -4.62511 0
M  V30 927 H 93.7474 -0.515235 -6.75037 0
M  V30 928 H 98.3894 0.785292 -4.15443 0
M  V30 929 H 96.1074 -1.5831 -7.92442 0
M  V30 930 H 99.6934 -0.529746 -5.79383 0
M  V30 931 H 98.5734 -1.69742 -7.65609 0
M  V30 932 N 96.0765 1.50051 0.48192 0
M  V30 933 C 97.3245 1.60181 1.23234 0
M  V30 934 C 97.6455 0.299176 1.92691 0
M  V30 935 O 96.9155 -0.682708 1.83619 0
M  V30 936 H 95.4955 0.590232 0.457859 0
M  V30 937 H 98.1575 1.86775 0.556881 0
M  V30 938 H 97.2535 2.40753 1.98607 0
M  V30 939 N 97.5546 -0.734337 1.39446 0
M  V30 940 C 98.4866 -1.85861 1.34121 0
M  V30 941 C 99.4996 -1.60871 0.249864 0
M  V30 942 O 100.689 -1.71093 0.508865 0
M  V30 943 C 97.7886 -3.21899 1.05991 0
M  V30 944 C 96.9616 -3.74239 2.26415 0
M  V30 945 C 96.0206 -4.88841 1.94733 0
M  V30 946 O 95.0466 -5.02468 2.67422 0
M  V30 947 N 96.2486 -5.73261 0.913884 0
M  V30 948 H 99.0136 -1.90934 2.31007 0
M  V30 949 H 96.5746 -0.915102 1.33557 0
M  V30 950 H 98.5666 -3.96136 0.828147 0
M  V30 951 H 97.1366 -3.12091 0.178361 0
M  V30 952 H 96.3566 -2.91347 2.65539 0
M  V30 953 H 97.6446 -4.05942 3.06738 0
M  V30 954 H 97.0426 -5.64842 0.311476 0
M  V30 955 H 95.5996 -6.47563 0.742015 0
M  V30 956 N 99.0327 -1.24633 -0.964593 0
M  V30 957 C 100.444 -1.08045 -1.5226 0
M  V30 958 C 100.795 0.347116 -1.93105 0
M  V30 959 O 99.9197 1.23588 -1.77637 0
M  V30 960 C 100.515 -1.95514 -2.76695 0
M  V30 961 C 99.0737 -1.8314 -3.28841 0
M  V30 962 C 98.2207 -1.90262 -2.01732 0
M  V30 963 H 101.172 -1.38064 -0.782553 0
M  V30 964 H 101.193 -1.48925 -3.50145 0
M  V30 965 H 100.705 -2.99407 -2.46936 0
M  V30 966 H 98.8057 -0.82092 -3.63444 0
M  V30 967 H 98.9187 -2.67406 -3.97531 0
M  V30 968 H 97.2827 -1.34027 -2.16584 0
M  V30 969 H 98.0657 -2.9574 -1.74334 0
M  V30 970 N 100.511 1.16574 -1.06058 0
M  V30 971 C 101.461 2.18854 -0.63929 0
M  V30 972 C 102.445 1.57505 0.328798 0
M  V30 973 O 103.637 1.76408 0.144623 0
M  V30 974 C 100.766 3.43291 -0.0247203 0
M  V30 975 C 99.8518 4.11722 -1.01716 0
M  V30 976 N 100.243 4.55841 -2.19186 0
M  V30 977 C 98.5408 4.37872 -0.847569 0
M  V30 978 C 99.2418 5.08751 -2.82042 0
M  V30 979 N 98.2178 5.01489 -2.09784 0
M  V30 980 H 102.02 2.5068 -1.53417 0
M  V30 981 H 99.5338 1.32999 -0.931935 0
M  V30 982 H 101.531 4.15856 0.294915 0
M  V30 983 H 100.191 3.12954 0.865448 0
M  V30 984 H 101.202 4.49649 -2.56975 0
M  V30 985 H 97.8788 4.17499 -0.00918848 0
M  V30 986 H 99.2688 5.52944 -3.81709 0
M  V30 987 N 101.989 0.842826 1.3317 0
M  V30 988 C 103.237 0.439577 1.97262 0
M  V30 989 C 103.558 -1.00548 1.67078 0
M  V30 990 O 102.828 -1.70098 0.971779 0
M  V30 991 H 101.408 0.159558 0.72976 0
M  V30 992 H 104.07 1.07665 1.62463 0
M  V30 993 H 103.166 0.574886 3.0676 0
M  V30 994 N 103.467 -1.45747 0.599634 0
M  V30 995 C 104.715 -2.01893 0.0915472 0
M  V30 996 C 105.036 -1.47155 -1.27946 0
M  V30 997 O 104.306 -0.66273 -1.84349 0
M  V30 998 H 102.886 -0.746363 0.0308524 0
M  V30 999 H 105.548 -1.78645 0.779237 0
M  V30 1000 H 104.644 -3.1208 0.0353086 0
M  V30 1001 N 104.945 -0.338344 -1.53925 0
M  V30 1002 C 106.193 0.259245 -2.0043 0
M  V30 1003 C 106.514 1.51484 -1.22791 0
M  V30 1004 O 105.784 1.93037 -0.33368 0
M  V30 1005 H 104.364 0.0987845 -0.740439 0
M  V30 1006 H 107.026 -0.458302 -1.89435 0
M  V30 1007 H 106.122 0.505334 -3.07982 0
M  V30 1008 N 106.423 1.57458 -0.0668435 0
M  V30 1009 C 107.669 1.94401 0.598316 0
M  V30 1010 C 108.024 0.946335 1.67518 0
M  V30 1011 O 107.317 -0.0321442 1.91573 0
M  V30 1012 C 107.511 3.35784 1.22409 0
M  V30 1013 C 107.34 4.49212 0.209367 0
M  V30 1014 C 106.11 5.04887 -0.204218 0
M  V30 1015 C 108.308 5.11335 -0.551431 0
M  V30 1016 N 106.29 6.01854 -1.21016 0
M  V30 1017 C 107.661 6.03754 -1.41 0
M  V30 1018 C 109.716 4.94173 -0.608038 0
M  V30 1019 C 108.419 6.80854 -2.32013 0
M  V30 1020 C 110.445 5.71912 -1.50566 0
M  V30 1021 C 109.807 6.63976 -2.35191 0
M  V30 1022 H 105.906 0.758538 0.190114 0
M  V30 1023 H 108.49 1.94175 -0.142832 0
M  V30 1024 H 106.661 3.36757 1.93518 0
M  V30 1025 H 108.393 3.59976 1.84931 0
M  V30 1026 H 105.148 4.73266 0.177908 0
M  V30 1027 H 105.572 6.55035 -1.71049 0
M  V30 1028 H 110.214 4.22788 0.032022 0
M  V30 1029 H 107.932 7.5152 -2.97057 0
M  V30 1030 H 111.518 5.60656 -1.55423 0
M  V30 1031 H 110.398 7.2308 -3.03522 0
M  V30 1032 N 107.901 -0.206675 1.56239 0
M  V30 1033 C 109.149 -0.927007 1.79586 0
M  V30 1034 C 109.47 -1.8427 0.637929 0
M  V30 1035 O 108.74 -1.92849 -0.344398 0
M  V30 1036 H 107.32 -0.345292 0.662407 0
M  V30 1037 H 109.982 -0.21496 1.93711 0
M  V30 1038 H 109.078 -1.52501 2.72305 0
M  V30 1039 N 109.379 -1.50304 -0.473955 0
M  V30 1040 C 110.311 -1.65109 -1.58971 0
M  V30 1041 C 111.324 -0.532676 -1.53839 0
M  V30 1042 O 112.513 -0.805751 -1.59279 0
M  V30 1043 C 109.613 -1.61684 -2.97845 0
M  V30 1044 C 108.786 -2.8951 -3.27876 0
M  V30 1045 C 107.845 -2.78768 -4.4629 0
M  V30 1046 O 106.871 -3.52722 -4.46739 0
M  V30 1047 N 108.073 -1.9213 -5.47783 0
M  V30 1048 H 110.838 -2.61347 -1.46689 0
M  V30 1049 H 108.399 -1.47732 -0.662324 0
M  V30 1050 H 110.391 -1.52114 -3.75024 0
M  V30 1051 H 108.961 -0.731925 -3.03911 0
M  V30 1052 H 108.181 -3.13228 -2.39336 0
M  V30 1053 H 109.469 -3.74199 -3.4475 0
M  V30 1054 H 108.867 -1.31353 -5.50239 0
M  V30 1055 H 107.424 -1.88466 -6.23958 0
M  V30 1056 N 110.857 0.726932 -1.39834 0
M  V30 1057 C 112.268 1.30558 -1.3346 0
M  V30 1058 C 112.619 1.962 -0.00273003 0
M  V30 1059 O 111.744 1.96826 0.899371 0
M  V30 1060 C 112.339 2.37404 -2.41713 0
M  V30 1061 C 110.898 2.90921 -2.38835 0
M  V30 1062 C 110.045 1.64578 -2.2318 0
M  V30 1063 H 112.996 0.523862 -1.49804 0
M  V30 1064 H 113.017 3.17984 -2.08966 0
M  V30 1065 H 112.529 1.89599 -3.38635 0
M  V30 1066 H 110.63 3.42985 -1.45575 0
M  V30 1067 H 110.743 3.43487 -3.33997 0
M  V30 1068 H 109.107 1.89219 -1.70494 0
M  V30 1069 H 109.89 1.18814 -3.22084 0
M  V30 1070 N 112.336 1.25143 0.95797 0
M  V30 1071 C 113.286 1.01924 2.0395 0
M  V30 1072 C 114.27 -0.0427175 1.60843 0
M  V30 1073 O 115.462 0.17221 1.7616 0
M  V30 1074 C 112.591 0.636373 3.3735 0
M  V30 1075 C 111.677 1.73492 3.8699 0
M  V30 1076 N 112.068 2.96945 4.0946 0
M  V30 1077 C 110.366 1.61467 4.15746 0
M  V30 1078 C 111.067 3.68228 4.50315 0
M  V30 1079 N 110.043 2.95833 4.56053 0
M  V30 1080 H 113.845 1.95653 2.19311 0
M  V30 1081 H 111.359 1.15413 1.14253 0
M  V30 1082 H 113.356 0.451233 4.14451 0
M  V30 1083 H 112.016 -0.293621 3.2337 0
M  V30 1084 H 113.027 3.33025 3.96629 0
M  V30 1085 H 109.704 0.753394 4.10646 0
M  V30 1086 H 111.094 4.74178 4.76031 0
M  V30 1087 N 113.814 -1.1601 1.06675 0
M  V30 1088 C 115.062 -1.86264 0.784229 0
M  V30 1089 C 115.383 -1.82328 -0.691488 0
M  V30 1090 O 114.653 -1.25947 -1.50047 0
M  V30 1091 H 113.233 -0.689621 0.28711 0
M  V30 1092 H 115.895 -1.40664 1.34906 0
M  V30 1093 H 114.991 -2.91595 1.11259 0
M  V30 1094 N 115.292 -0.849877 -1.32721 0
M  V30 1095 C 116.54 -0.450032 -1.97026 0
M  V30 1096 C 116.861 0.996604 -1.67609 0
M  V30 1097 O 116.131 1.6958 -0.980786 0
M  V30 1098 H 114.711 -0.163426 -0.728904 0
M  V30 1099 H 117.373 -1.08526 -1.6189 0
M  V30 1100 H 116.469 -0.591146 -3.0645 0
M  V30 1101 N 116.77 1.45427 -0.607355 0
M  V30 1102 C 118.018 2.01841 -0.102253 0
M  V30 1103 C 118.339 1.47832 1.27164 0
M  V30 1104 O 117.609 0.672497 1.83995 0
M  V30 1105 H 116.189 0.746188 -0.0348101 0
M  V30 1106 H 118.851 1.78229 -0.7887 0
M  V30 1107 H 117.947 3.12057 -0.0518585 0
M  V30 1108 N 118.248 0.346503 1.53744 0
M  V30 1109 C 119.494 -0.242135 2.01954 0
M  V30 1110 C 119.849 -1.47962 1.22984 0
M  V30 1111 O 119.142 -1.89077 0.309924 0
M  V30 1112 C 119.336 -0.605809 3.52228 0
M  V30 1113 C 119.165 0.594882 4.45748 0
M  V30 1114 C 117.935 1.1011 4.93157 0
M  V30 1115 C 120.133 1.45425 4.93311 0
M  V30 1116 N 118.115 2.26381 5.70636 0
M  V30 1117 C 119.486 2.46383 5.68942 0
M  V30 1118 C 121.541 1.47935 4.75415 0
M  V30 1119 C 120.244 3.49684 6.28581 0
M  V30 1120 C 122.27 2.50119 5.35905 0
M  V30 1121 C 121.632 3.49803 6.11406 0
M  V30 1122 H 117.731 -0.0518296 0.780281 0
M  V30 1123 H 120.315 0.486736 1.88518 0
M  V30 1124 H 118.486 -1.30378 3.65864 0
M  V30 1125 H 120.218 -1.17789 3.87179 0
M  V30 1126 H 116.973 0.668721 4.68855 0
M  V30 1127 H 117.397 2.85094 6.14044 0
M  V30 1128 H 122.039 0.722274 4.16585 0
M  V30 1129 H 119.757 4.26285 6.86518 0
M  V30 1130 H 123.343 2.52892 5.23963 0
M  V30 1131 H 122.223 4.27576 6.5738 0
M  V30 1132 N 119.726 -1.57421 0.075193 0
M  V30 1133 C 120.974 -1.93236 -0.591974 0
M  V30 1134 C 121.295 -0.956241 -1.69944 0
M  V30 1135 O 120.565 -0.00494792 -1.95899 0
M  V30 1136 H 119.145 -0.713355 -0.22166 0
M  V30 1137 H 121.807 -1.9444 0.133848 0
M  V30 1138 H 120.903 -2.95131 -1.01509 0
M  V30 1139 N 121.204 0.198386 -1.56346 0
M  V30 1140 C 122.136 1.26987 -1.90806 0
M  V30 1141 C 123.149 1.41877 -0.798419 0
M  V30 1142 O 124.338 1.42362 -1.07682 0
M  V30 1143 C 121.438 2.64246 -2.12196 0
M  V30 1144 C 120.611 2.71007 -3.43328 0
M  V30 1145 C 119.67 3.89439 -3.5387 0
M  V30 1146 O 118.696 3.76695 -4.26719 0
M  V30 1147 N 119.898 5.04752 -2.86715 0
M  V30 1148 H 122.663 0.977433 -2.83313 0
M  V30 1149 H 120.224 0.388322 -1.57174 0
M  V30 1150 H 122.216 3.41896 -2.1654 0
M  V30 1151 H 120.786 2.85992 -1.26204 0
M  V30 1152 H 120.006 1.79657 -3.50881 0
M  V30 1153 H 121.294 2.72512 -4.29668 0
M  V30 1154 H 120.692 5.18004 -2.2735 0
M  V30 1155 H 119.249 5.8036 -2.96691 0
M  V30 1156 N 122.682 1.50554 0.465978 0
M  V30 1157 C 124.093 1.54599 1.04671 0
M  V30 1158 C 124.444 0.352488 1.93008 0
M  V30 1159 O 123.569 -0.534044 2.09707 0
M  V30 1160 C 124.164 2.80166 1.90505 0
M  V30 1161 C 122.723 2.86876 2.43678 0
M  V30 1162 C 121.87 2.48947 1.22151 0
M  V30 1163 H 124.821 1.56744 0.248384 0
M  V30 1164 H 124.842 2.62311 2.75633 0
M  V30 1165 H 124.354 3.67013 1.26186 0
M  V30 1166 H 122.455 2.04393 3.11536 0
M  V30 1167 H 122.568 3.89885 2.78436 0
M  V30 1168 H 120.932 2.01498 1.5579 0
M  V30 1169 H 121.715 3.38107 0.594866 0
M  V30 1170 N 124.16 -0.719506 1.40217 0
M  V30 1171 C 125.11 -1.8251 1.36653 0
M  V30 1172 C 126.094 -1.59028 0.244732 0
M  V30 1173 O 127.286 -1.70268 0.483524 0
M  V30 1174 C 124.415 -3.20599 1.22763 0
M  V30 1175 C 123.501 -3.49858 2.39708 0
M  V30 1176 N 123.892 -3.49957 3.6519 0
M  V30 1177 C 122.19 -3.80297 2.33002 0
M  V30 1178 C 122.891 -3.77449 4.42614 0
M  V30 1179 N 121.867 -3.96002 3.72402 0
M  V30 1180 H 125.669 -1.80914 2.31619 0
M  V30 1181 H 123.183 -0.918455 1.33933 0
M  V30 1182 H 125.18 -3.99766 1.18292 0
M  V30 1183 H 123.84 -3.23424 0.287614 0
M  V30 1184 H 124.851 -3.309 3.98404 0
M  V30 1185 H 121.528 -3.90635 1.47346 0
M  V30 1186 H 122.918 -3.83863 5.51451 0
M  V30 1187 N 125.638 -1.25649 -0.95132 0
M  V30 1188 C 126.886 -1.10375 -1.69298 0
M  V30 1189 C 127.207 0.355339 -1.91735 0
M  V30 1190 O 126.477 1.25188 -1.50681 0
M  V30 1191 H 125.057 -0.405461 -0.627384 0
M  V30 1192 H 127.719 -1.57823 -1.14358 0
M  V30 1193 H 126.815 -1.61465 -2.67087 0
M  V30 1194 N 127.117 1.15442 -1.07289 0
M  V30 1195 C 128.365 1.85845 -0.794096 0
M  V30 1196 C 128.686 1.82692 0.681809 0
M  V30 1197 O 127.956 1.26741 1.49377 0
M  V30 1198 H 126.536 0.688089 -0.290763 0
M  V30 1199 H 129.198 1.39947 -1.3565 0
M  V30 1200 H 128.294 2.91001 -1.12804 0
M  V30 1201 N 128.595 0.856903 1.32268 0
M  V30 1202 C 129.843 0.460474 1.96784 0
M  V30 1203 C 130.164 -0.987701 1.68135 0
M  V30 1204 O 129.434 -1.69058 0.989765 0
M  V30 1205 H 128.014 0.167289 0.728027 0
M  V30 1206 H 130.676 1.09383 1.61312 0
M  V30 1207 H 129.772 0.60739 3.06133 0
M  V30 1208 N 130.073 -1.45103 0.615059 0
M  V30 1209 C 131.319 -2.03035 0.121804 0
M  V30 1210 C 131.674 -1.47393 -1.23665 0
M  V30 1211 O 130.967 -0.642061 -1.80522 0
M  V30 1212 C 131.161 -3.57386 0.0318797 0
M  V30 1213 C 130.99 -4.28 1.38007 0
M  V30 1214 C 129.76 -4.65624 1.9627 0
M  V30 1215 C 131.958 -4.5948 2.31047 0
M  V30 1216 N 129.94 -5.21132 3.24492 0
M  V30 1217 C 131.311 -5.159 3.43872 0
M  V30 1218 C 133.366 -4.41423 2.30326 0
M  V30 1219 C 132.069 -5.56165 4.5615 0
M  V30 1220 C 134.095 -4.82726 3.41658 0
M  V30 1221 C 133.457 -5.39245 4.53205 0
M  V30 1222 H 129.556 -0.77702 0.0881159 0
M  V30 1223 H 132.14 -1.76819 0.815044 0
M  V30 1224 H 130.311 -3.83247 -0.630599 0
M  V30 1225 H 132.043 -4.01976 -0.468721 0
M  V30 1226 H 128.798 -4.49421 1.49392 0
M  V30 1227 H 129.222 -5.53377 3.90004 0
M  V30 1228 H 133.864 -3.97033 1.45343 0
M  V30 1229 H 131.582 -5.99517 5.41854 0
M  V30 1230 H 135.168 -4.7048 3.42257 0
M  V30 1231 H 134.048 -5.70616 5.37929 0
M  V30 1232 N 131.551 -0.354651 -1.53558 0
M  V30 1233 C 132.799 0.237972 -2.00694 0
M  V30 1234 C 133.12 1.50173 -1.24391 0
M  V30 1235 O 132.39 1.92673 -0.354135 0
M  V30 1236 H 130.97 0.0909256 -0.741446 0
M  V30 1237 H 133.632 -0.478368 -1.88938 0
M  V30 1238 H 132.728 0.47264 -3.085 0
M  V30 1239 N 133.029 1.57378 -0.0835403 0
M  V30 1240 C 133.961 2.10389 0.909338 0
M  V30 1241 C 134.974 1.03858 1.25369 0
M  V30 1242 O 136.163 1.31338 1.20882 0
M  V30 1243 C 133.263 2.55908 2.2218 0
M  V30 1244 C 132.436 3.86145 2.05453 0
M  V30 1245 C 131.495 4.17633 3.20108 0
M  V30 1246 O 130.521 4.87043 2.94581 0
M  V30 1247 N 131.723 3.72113 4.45547 0
M  V30 1248 H 134.488 2.962 0.456657 0
M  V30 1249 H 132.049 1.61579 0.101877 0
M  V30 1250 H 134.041 2.74027 2.97811 0
M  V30 1251 H 132.611 1.75171 2.58909 0
M  V30 1252 H 131.831 3.7729 1.1422 0
M  V30 1253 H 133.119 4.7137 1.91541 0
M  V30 1254 H 132.517 3.16062 4.69171 0
M  V30 1255 H 131.074 3.95409 5.18165 0
M  V30 1256 N 134.507 -0.190092 1.56449 0
M  V30 1257 C 135.755 -0.907908 1.80559 0
M  V30 1258 C 136.076 -1.83583 0.657438 0
M  V30 1259 O 135.346 -1.93203 -0.323924 0
M  V30 1260 H 133.926 -0.338247 0.666032 0
M  V30 1261 H 136.588 -0.194403 1.93928 0
M  V30 1262 H 135.684 -1.49604 2.73907 0
M  V30 1263 N 135.985 -1.50799 -0.457987 0
M  V30 1264 C 137.233 -1.62121 -1.2067 0
M  V30 1265 C 137.554 -0.329793 -1.92191 0
M  V30 1266 O 136.824 0.653409 -1.84682 0
M  V30 1267 H 135.404 -0.597441 -0.448411 0
M  V30 1268 H 138.066 -1.87637 -0.527096 0
M  V30 1269 H 137.162 -2.43882 -1.94751 0
M  V30 1270 N 137.463 0.71206 -1.40597 0
M  V30 1271 C 138.711 1.46907 -1.38791 0
M  V30 1272 C 139.032 1.94998 0.00780391 0
M  V30 1273 O 138.302 1.70587 0.963174 0
M  V30 1274 H 136.882 0.545043 -0.51082 0
M  V30 1275 H 139.544 0.843882 -1.75683 0
M  V30 1276 H 138.64 2.34021 -2.06496 0
M  V30 1277 N 138.941 1.26152 0.944643 0
M  V30 1278 C 140.169 1.14259 1.72489 0
M  V30 1279 C 140.584 -0.302555 1.8636 0
M  V30 1280 O 139.941 -1.20741 1.36849 0
M  V30 1281 C 139.992 1.80266 3.13347 0
M  V30 1282 O 139.713 3.19133 3.00143 0
M  V30 1283 C 141.214 1.74283 4.07603 0
M  V30 1284 H 138.434 0.398051 0.540181 0
M  V30 1285 H 140.978 1.66706 1.18446 0
M  V30 1286 H 139.133 1.31766 3.64303 0
M  V30 1287 H 139.547 3.51744 3.89071 0
M  V30 1288 H 141.021 2.25111 5.04013 0
M  V30 1289 H 141.498 0.708631 4.33446 0
M  V30 1290 H 142.104 2.22319 3.62567 0
M  V30 1291 N 140.419 -1.14872 1.07899 0
M  V30 1292 C 141.369 -2.17809 0.674027 0
M  V30 1293 C 142.353 -1.58008 -0.303699 0
M  V30 1294 O 143.545 -1.76616 -0.11654 0
M  V30 1295 C 140.674 -3.43208 0.0793318 0
M  V30 1296 C 139.76 -4.10051 1.08253 0
M  V30 1297 N 140.151 -4.52296 2.2641 0
M  V30 1298 C 138.449 -4.36469 0.917124 0
M  V30 1299 C 139.15 -5.04199 2.901 0
M  V30 1300 N 138.126 -4.98088 2.17736 0
M  V30 1301 H 141.928 -2.48207 1.57386 0
M  V30 1302 H 139.442 -1.315 0.952976 0
M  V30 1303 H 141.439 -4.16272 -0.228719 0
M  V30 1304 H 140.099 -3.14291 -0.815551 0
M  V30 1305 H 141.11 -4.45504 2.64096 0
M  V30 1306 H 137.787 -4.17432 0.0756078 0
M  V30 1307 H 139.177 -5.46802 3.90458 0
M  V30 1308 N 141.898 -0.863906 -1.31812 0
M  V30 1309 C 143.123 -0.48527 -2.01643 0
M  V30 1310 C 143.548 0.913058 -1.64453 0
M  V30 1311 O 142.906 1.6014 -0.849985 0
M  V30 1312 C 142.954 -0.642625 -3.54828 0
M  V30 1313 O 142.058 0.320659 -4.11151 0
M  V30 1314 H 141.399 -0.193793 -0.635091 0
M  V30 1315 H 143.929 -1.16565 -1.68148 0
M  V30 1316 H 143.939 -0.533628 -4.04495 0
M  V30 1317 H 142.614 -1.66227 -3.81237 0
M  V30 1318 H 141.191 0.167126 -3.72525 0
M  V30 1319 N 143.376 1.44774 -0.622745 0
M  V30 1320 C 144.308 2.28856 0.125485 0
M  V30 1321 C 145.321 1.40811 0.817069 0
M  V30 1322 O 146.51 1.65044 0.679918 0
M  V30 1323 C 143.61 3.16963 1.19949 0
M  V30 1324 C 142.783 4.33374 0.592064 0
M  V30 1325 C 141.842 5.02577 1.55893 0
M  V30 1326 O 140.868 5.58873 1.07933 0
M  V30 1327 N 142.07 5.03256 2.89334 0
M  V30 1328 H 144.835 2.93713 -0.596068 0
M  V30 1329 H 142.396 1.55129 -0.463303 0
M  V30 1330 H 144.388 3.60123 1.84644 0
M  V30 1331 H 142.958 2.53913 1.82337 0
M  V30 1332 H 142.178 3.93509 -0.233322 0
M  V30 1333 H 143.466 5.08527 0.166738 0
M  V30 1334 H 142.864 4.58836 3.30887 0
M  V30 1335 H 141.421 5.50232 3.49412 0
M  V30 1336 N 144.854 0.36279 1.53368 0
M  V30 1337 C 146.1 -0.220702 2.02199 0
M  V30 1338 C 146.455 -1.46649 1.24546 0
M  V30 1339 O 145.748 -1.88737 0.32996 0
M  V30 1340 C 145.942 -0.568417 3.52851 0
M  V30 1341 C 145.771 0.642126 4.45092 0
M  V30 1342 C 144.541 1.15335 4.91961 0
M  V30 1343 C 146.739 1.50649 4.91741 0
M  V30 1344 N 144.721 2.3242 5.68202 0
M  V30 1345 C 146.092 2.52404 5.66297 0
M  V30 1346 C 148.147 1.52969 4.73819 0
M  V30 1347 C 146.85 3.56331 6.24836 0
M  V30 1348 C 148.876 2.55789 5.33222 0
M  V30 1349 C 148.238 3.56268 6.07662 0
M  V30 1350 H 144.337 -0.0435508 0.780786 0
M  V30 1351 H 146.921 0.506704 1.87991 0
M  V30 1352 H 145.092 -1.2649 3.67226 0
M  V30 1353 H 146.824 -1.13676 3.88407 0
M  V30 1354 H 143.579 0.718412 4.68119 0
M  V30 1355 H 144.003 2.91591 6.10986 0
M  V30 1356 H 148.645 0.766418 4.15795 0
M  V30 1357 H 146.363 4.33543 6.81958 0
M  V30 1358 H 149.949 2.58435 5.21251 0
M  V30 1359 H 148.829 4.34524 6.52808 0
M  V30 1360 N 146.332 -1.57332 0.0918853 0
M  V30 1361 C 147.28 -2.15075 -0.885747 0
M  V30 1362 C 148.274 -1.09277 -1.29441 0
M  V30 1363 O 149.48 -1.27627 -1.26931 0
M  V30 1364 H 145.855 -0.687966 -0.303656 0
M  V30 1365 H 147.826 -2.96047 -0.373995 0
M  V30 1366 C 146.575 -2.74325 -2.13638 0
M  V30 1367 H 145.898 -3.55418 -1.8308 0
M  V30 1368 H 147.338 -3.183 -2.80109 0
M  V30 1369 C 145.797 -1.70062 -2.90827 0
M  V30 1370 O 146.327 -1.13763 -3.85254 0
M  V30 1371 N 144.533 -1.40628 -2.54307 0
M  V30 1372 H 144.08 -1.866 -1.7759 0
M  V30 1373 H 144.038 -0.711043 -3.06254 0
M  V30 1374 N 147.81 0.181792 -1.56548 0
M  V30 1375 C 148.757 1.22521 -1.95595 0
M  V30 1376 C 149.727 1.4454 -0.818373 0
M  V30 1377 O 150.912 1.57454 -1.07763 0
M  V30 1378 C 148.052 2.56193 -2.31212 0
M  V30 1379 C 147.165 2.41641 -3.58097 0
M  V30 1380 C 146.3 3.68108 -3.82975 0
M  V30 1381 C 145.339 3.48445 -5.03242 0
M  V30 1382 N 144.476 4.66956 -5.24306 0
M  V30 1383 H 149.316 0.885226 -2.84548 0
M  V30 1384 H 146.853 0.425718 -1.40805 0
M  V30 1385 H 148.811 3.34088 -2.49882 0
M  V30 1386 H 147.441 2.88208 -1.45382 0
M  V30 1387 H 146.493 1.54976 -3.474 0
M  V30 1388 H 147.805 2.23052 -4.46149 0
M  V30 1389 H 146.959 4.54441 -4.01956 0
M  V30 1390 H 145.698 3.89666 -2.93278 0
M  V30 1391 H 144.703 2.60499 -4.8417 0
M  V30 1392 H 145.928 3.2832 -5.9446 0
M  V30 1393 H 143.874 4.88752 -4.37559 0
M  V30 1394 H 143.791 4.51242 -6.06561 0
M  V30 1395 H 145.059 5.54602 -5.47756 0
M  V30 1396 N 149.288 1.51039 0.449983 0
M  V30 1397 C 150.699 1.557 1.03026 0
M  V30 1398 C 151.05 0.372939 1.92623 0
M  V30 1399 O 150.175 -0.511771 2.10261 0
M  V30 1400 C 150.77 2.82171 1.87523 0
M  V30 1401 C 149.329 2.89444 2.40622 0
M  V30 1402 C 148.476 2.50228 1.19504 0
M  V30 1403 H 151.427 1.56999 0.231745 0
M  V30 1404 H 151.448 2.65219 2.72835 0
M  V30 1405 H 150.96 3.68331 1.22286 0
M  V30 1406 H 149.061 2.07685 3.0935 0
M  V30 1407 H 149.174 3.92816 2.74285 0
M  V30 1408 H 147.538 2.03139 1.53644 0
M  V30 1409 H 148.321 3.38719 0.558972 0
M  V30 1410 N 150.766 -0.704594 1.40972 0
M  V30 1411 C 151.991 -1.49858 1.43378 0
M  V30 1412 C 152.416 -1.88061 0.038184 0
M  V30 1413 O 151.774 -1.5402 -0.956425 0
M  V30 1414 C 151.822 -2.74333 2.34038 0
M  V30 1415 O 150.926 -3.7147 1.7912 0
M  V30 1416 H 150.267 -0.45139 0.486974 0
M  V30 1417 H 152.797 -0.866832 1.8533 0
M  V30 1418 H 152.807 -3.22741 2.49604 0
M  V30 1419 H 151.482 -2.45863 3.35446 0
M  V30 1420 H 150.059 -3.30363 1.72958 0
M  V30 1421 N 152.244 -1.26651 -0.937939 0
M  V30 1422 C 153.191 -1.0849 -2.03712 0
M  V30 1423 C 154.161 0.011033 -1.66096 0
M  V30 1424 O 155.346 -0.149353 -1.90215 0
M  V30 1425 C 152.486 -0.72735 -3.37348 0
M  V30 1426 C 151.599 -1.89986 -3.87981 0
M  V30 1427 C 150.734 -1.48513 -5.10017 0
M  V30 1428 C 149.773 -2.62575 -5.5292 0
M  V30 1429 N 148.91 -2.21762 -6.66158 0
M  V30 1430 H 153.75 -2.02551 -2.18579 0
M  V30 1431 H 151.287 -1.00844 -1.07093 0
M  V30 1432 H 153.245 -0.50092 -4.14182 0
M  V30 1433 H 151.875 0.176298 -3.22318 0
M  V30 1434 H 150.927 -2.23913 -3.07518 0
M  V30 1435 H 152.239 -2.75586 -4.15757 0
M  V30 1436 H 151.393 -1.21934 -5.94321 0
M  V30 1437 H 150.132 -0.60009 -4.83994 0
M  V30 1438 H 149.137 -2.8988 -4.67172 0
M  V30 1439 H 150.362 -3.51685 -5.80943 0
M  V30 1440 H 148.308 -1.35696 -6.41812 0
M  V30 1441 H 148.225 -3.00903 -6.93537 0
M  V30 1442 H 149.493 -1.98403 -7.53828 0
M  V30 1443 N 153.722 1.14298 -1.08507 0
M  V30 1444 C 155.133 1.66926 -0.836227 0
M  V30 1445 C 155.484 1.85576 0.63686 0
M  V30 1446 O 154.609 1.56767 1.49175 0
M  V30 1447 C 155.204 3.03219 -1.51142 0
M  V30 1448 C 153.763 3.52876 -1.30979 0
M  V30 1449 C 152.91 2.2833 -1.57356 0
M  V30 1450 H 155.861 0.983491 -1.24552 0
M  V30 1451 H 155.882 3.68726 -0.939211 0
M  V30 1452 H 155.394 2.89612 -2.58353 0
M  V30 1453 H 153.495 3.71703 -0.258429 0
M  V30 1454 H 153.608 4.33586 -2.03814 0
M  V30 1455 H 151.972 2.34454 -0.995164 0
M  V30 1456 H 152.755 2.17298 -2.65775 0
M  V30 1457 N 155.201 0.870884 1.31352 0
M  V30 1458 C 156.148 0.325425 2.28494 0
M  V30 1459 C 157.118 -0.576615 1.5577 0
M  V30 1460 O 158.303 -0.508059 1.83911 0
M  V30 1461 C 155.443 -0.466283 3.41935 0
M  V30 1462 C 154.556 0.463378 4.29508 0
M  V30 1463 C 153.691 -0.342544 5.30094 0
M  V30 1464 C 152.73 0.583486 6.09313 0
M  V30 1465 N 151.867 -0.186244 7.01853 0
M  V30 1466 H 156.707 1.15901 2.74538 0
M  V30 1467 H 154.244 0.58294 1.35056 0
M  V30 1468 H 156.202 -0.941085 4.06447 0
M  V30 1469 H 154.832 -1.26456 2.97 0
M  V30 1470 H 153.884 1.05663 3.65431 0
M  V30 1471 H 155.196 1.1734 4.84802 0
M  V30 1472 H 154.35 -0.879816 6.00287 0
M  V30 1473 H 153.089 -1.08585 4.75458 0
M  V30 1474 H 152.094 1.13251 5.3801 0
M  V30 1475 H 153.319 1.32566 6.66035 0
M  V30 1476 H 151.265 -0.912348 6.49625 0
M  V30 1477 H 151.182 0.464422 7.54572 0
M  V30 1478 H 152.45 -0.704716 7.76308 0
M  V30 1479 N 156.679 -1.44442 0.630414 0
M  V30 1480 C 157.907 -2.06414 0.141671 0
M  V30 1481 C 158.322 -1.47105 -1.18345 0
M  V30 1482 O 157.679 -0.593662 -1.72574 0
M  V30 1483 C 157.73 -3.61494 0.0199784 0
M  V30 1484 O 157.451 -4.18594 1.29269 0
M  V30 1485 C 158.952 -4.40499 -0.497544 0
M  V30 1486 H 156.172 -0.666292 0.0793452 0
M  V30 1487 H 158.716 -1.85323 0.864614 0
M  V30 1488 H 156.871 -3.8185 -0.653402 0
M  V30 1489 H 157.285 -5.12026 1.13707 0
M  V30 1490 H 158.759 -5.49433 -0.531708 0
M  V30 1491 H 159.236 -4.11895 -1.52445 0
M  V30 1492 H 159.842 -4.25061 0.142562 0
M  V30 1493 N 158.157 -0.370918 -1.53173 0
M  V30 1494 C 159.105 0.488101 -2.27421 0
M  V30 1495 C 160.099 1.07884 -1.30604 0
M  V30 1496 O 161.305 1.02143 -1.48212 0
M  V30 1497 H 157.68 0.176134 -0.731082 0
M  V30 1498 H 159.651 -0.159815 -2.97972 0
M  V30 1499 C 158.4 1.61306 -3.08019 0
M  V30 1500 H 157.723 1.1678 -3.82364 0
M  V30 1501 H 159.163 2.18872 -3.63141 0
M  V30 1502 C 157.622 2.55848 -2.19188 0
M  V30 1503 O 158.152 3.58799 -1.80626 0
M  V30 1504 N 156.358 2.2516 -1.83715 0
M  V30 1505 H 155.905 1.41476 -2.15273 0
M  V30 1506 H 155.863 2.8867 -1.24567 0
M  V30 1507 N 159.635 1.57281 -0.100228 0
M  V30 1508 C 160.568 2.09976 0.893612 0
M  V30 1509 C 161.546 1.01155 1.27304 0
M  V30 1510 O 162.73 1.28687 1.37739 0
M  V30 1511 C 159.857 2.58098 2.19324 0
M  V30 1512 C 158.903 3.78626 1.96328 0
M  V30 1513 S 159.736 5.21959 1.19662 0
M  V30 1514 C 160.892 5.73435 2.50844 0
M  V30 1515 H 161.125 2.93946 0.44534 0
M  V30 1516 H 158.658 1.53985 0.113167 0
M  V30 1517 H 160.616 2.8648 2.94005 0
M  V30 1518 H 159.277 1.74344 2.61272 0
M  V30 1519 H 158.47 4.10382 2.92579 0
M  V30 1520 H 158.072 3.50763 1.29775 0
M  V30 1521 H 160.364 5.82015 3.46792 0
M  V30 1522 H 161.307 6.7185 2.23659 0
M  V30 1523 H 161.715 5.01395 2.59352 0
M  V30 1524 N 161.113 -0.173488 1.56642 0
M  V30 1525 C 162.06 -1.21482 1.96242 0
M  V30 1526 C 163.03 -1.44104 0.826027 0
M  V30 1527 O 164.215 -1.5688 1.08597 0
M  V30 1528 C 161.355 -2.54964 2.32567 0
M  V30 1529 C 160.468 -2.39739 3.59373 0
M  V30 1530 C 159.603 -3.66072 3.84921 0
M  V30 1531 C 158.642 -3.45771 5.05083 0
M  V30 1532 N 157.779 -4.64169 5.26775 0
M  V30 1533 H 162.619 -0.870123 2.85014 0
M  V30 1534 H 160.156 -0.418245 1.41029 0
M  V30 1535 H 162.114 -3.32758 2.5165 0
M  V30 1536 H 160.744 -2.87433 1.46908 0
M  V30 1537 H 159.796 -1.53131 3.48217 0
M  V30 1538 H 161.108 -2.20683 4.47326 0
M  V30 1539 H 160.262 -4.52303 4.0436 0
M  V30 1540 H 159.001 -3.88105 2.9534 0
M  V30 1541 H 158.006 -2.57927 4.85545 0
M  V30 1542 H 159.231 -3.25163 5.96193 0
M  V30 1543 H 157.177 -4.86425 4.40144 0
M  V30 1544 H 157.094 -4.48019 6.08946 0
M  V30 1545 H 158.362 -5.51689 5.5069 0
M  V30 1546 N 162.591 -1.51276 -0.441967 0
M  V30 1547 C 163.541 -1.6864 -1.53442 0
M  V30 1548 C 164.525 -0.540444 -1.51552 0
M  V30 1549 O 165.717 -0.796157 -1.58083 0
M  V30 1550 C 162.846 -1.8106 -2.91672 0
M  V30 1551 C 161.932 -3.01424 -2.98336 0
M  V30 1552 N 162.323 -4.2467 -2.74752 0
M  V30 1553 C 160.621 -3.00584 -3.29493 0
M  V30 1554 C 161.322 -5.05891 -2.87139 0
M  V30 1555 N 160.298 -4.40442 -3.18609 0
M  V30 1556 H 164.1 -2.61598 -1.33954 0
M  V30 1557 H 161.614 -1.4886 -0.6492 0
M  V30 1558 H 163.611 -1.91609 -3.70259 0
M  V30 1559 H 162.271 -0.892795 -3.12185 0
M  V30 1560 H 163.282 -4.53691 -2.49769 0
M  V30 1561 H 159.959 -2.18417 -3.55809 0
M  V30 1562 H 161.349 -6.13983 -2.72899 0
M  V30 1563 N 164.069 0.697108 -1.41344 0
M  V30 1564 C 165.002 1.82134 -1.37486 0
M  V30 1565 C 165.98 1.60784 -0.242351 0
M  V30 1566 O 167.164 1.83553 -0.429012 0
M  V30 1567 C 164.291 3.18788 -1.14421 0
M  V30 1568 C 163.337 3.58932 -2.3037 0
M  V30 1569 S 164.17 3.63916 -3.92843 0
M  V30 1570 C 165.326 5.03298 -3.72078 0
M  V30 1571 H 165.559 1.85129 -2.32625 0
M  V30 1572 H 163.092 0.865671 -1.2785 0
M  V30 1573 H 165.05 3.97677 -1.018 0
M  V30 1574 H 163.711 3.13404 -0.20905 0
M  V30 1575 H 162.904 4.58202 -2.09922 0
M  V30 1576 H 162.506 2.87347 -2.39391 0
M  V30 1577 H 164.798 5.90753 -3.31688 0
M  V30 1578 H 165.741 5.28788 -4.70945 0
M  V30 1579 H 166.149 4.74764 -3.05384 0
M  V30 1580 N 165.547 1.27147 0.931209 0
M  V30 1581 C 166.51 1.09615 2.01289 0
M  V30 1582 C 167.51 0.0412581 1.60747 0
M  V30 1583 O 168.7 0.285545 1.71844 0
M  V30 1584 C 165.832 0.669447 3.34262 0
M  V30 1585 H 167.025 2.05662 2.18273 0
M  V30 1586 H 164.578 1.09885 1.11153 0
M  V30 1587 H 165.313 -0.292572 3.22978 0
M  V30 1588 H 165.098 1.43127 3.65044 0
M  V30 1589 H 166.588 0.568921 4.13706 0
M  V30 1590 N 167.025 -1.13721 1.09112 0
M  V30 1591 C 168.273 -1.84559 0.823562 0
M  V30 1592 C 168.594 -1.83754 -0.652658 0
M  V30 1593 O 167.864 -1.29102 -1.47342 0
M  V30 1594 H 166.444 -0.683376 0.301673 0
M  V30 1595 H 169.106 -1.37771 1.37859 0
M  V30 1596 H 168.202 -2.8917 1.17419 0
M  V30 1597 N 168.503 -0.877838 -1.30888 0
M  V30 1598 C 169.466 -0.344265 -2.266 0
M  V30 1599 C 170.466 0.50922 -1.52524 0
M  V30 1600 O 171.656 0.317398 -1.71284 0
M  V30 1601 C 168.788 0.510198 -3.37061 0
M  V30 1602 H 169.981 -1.1893 -2.7531 0
M  V30 1603 H 167.534 -0.654088 -1.41956 0
M  V30 1604 H 168.269 1.37612 -2.93655 0
M  V30 1605 H 168.054 -0.101047 -3.9197 0
M  V30 1606 H 169.544 0.875537 -4.08319 0
M  V30 1607 N 169.982 1.44106 -0.638065 0
M  V30 1608 C 170.945 2.29138 0.0531013 0
M  V30 1609 C 171.945 1.41409 0.765506 0
M  V30 1610 O 173.135 1.63206 0.609046 0
M  V30 1611 C 170.267 3.23144 1.08584 0
M  V30 1612 H 171.46 2.91739 -0.694883 0
M  V30 1613 H 169.013 1.51134 -0.398538 0
M  V30 1614 H 169.748 2.65408 1.86357 0
M  V30 1615 H 169.533 3.87804 0.578852 0
M  V30 1616 H 171.023 3.87004 1.56899 0
M  V30 1617 N 171.46 0.379036 1.52974 0
M  V30 1618 C 172.423 -0.448865 2.24762 0
M  V30 1619 C 173.423 -0.998689 1.26027 0
M  V30 1620 O 174.613 -0.882313 1.50203 0
M  V30 1621 C 171.745 -1.62872 2.99476 0
M  V30 1622 H 172.938 0.179491 2.99362 0
M  V30 1623 H 170.491 0.13096 1.5575 0
M  V30 1624 H 171.226 -2.29479 2.29151 0
M  V30 1625 H 171.011 -1.24128 3.71934 0
M  V30 1626 H 172.501 -2.2151 3.5401 0
M  V30 1627 N 172.938 -1.57226 0.108567 0
M  V30 1628 C 173.901 -2.13602 -0.831082 0
M  V30 1629 C 174.901 -1.06841 -1.20173 0
M  V30 1630 O 176.091 -1.32666 -1.12895 0
M  V30 1631 C 173.223 -2.66769 -2.12243 0
M  V30 1632 H 174.416 -2.97951 -0.341317 0
M  V30 1633 H 171.969 -1.55667 -0.14057 0
M  V30 1634 H 172.704 -1.85977 -2.65675 0
M  V30 1635 H 172.489 -3.44839 -1.86625 0
M  V30 1636 H 173.979 -3.10332 -2.79435 0
M  V30 1637 N 174.416 0.165178 -1.56732 0
M  V30 1638 C 175.664 0.879068 -1.8198 0
M  V30 1639 C 175.985 1.82514 -0.686561 0
M  V30 1640 O 175.255 1.93694 0.293146 0
M  V30 1641 H 173.835 0.327608 -0.671329 0
M  V30 1642 H 176.497 0.163526 -1.94213 0
M  V30 1643 H 175.593 1.45228 -2.76252 0
M  V30 1644 N 175.894 1.51508 0.433938 0
M  V30 1645 C 176.857 1.72473 1.50949 0
M  V30 1646 C 177.857 0.594725 1.49398 0
M  V30 1647 O 179.047 0.862315 1.5136 0
M  V30 1648 C 176.179 1.78431 2.90474 0
M  V30 1649 H 177.372 2.68467 1.33662 0
M  V30 1650 H 174.925 1.41549 0.662836 0
M  V30 1651 H 175.66 0.842645 3.13161 0
M  V30 1652 H 175.445 2.60558 2.93005 0
M  V30 1653 H 176.935 1.96479 3.68491 0
M  V30 1654 N 177.372 -0.689602 1.41712 0
M  V30 1655 C 178.618 -1.45181 1.41599 0
M  V30 1656 C 178.951 -1.94181 0.0270081 0
M  V30 1657 O 178.226 -1.6993 -0.946265 0
M  V30 1658 C 178.509 -2.65945 2.42787 0
M  V30 1659 C 178.362 -2.22672 3.90816 0
M  V30 1660 C 179.681 -3.68149 2.41151 0
M  V30 1661 H 176.8 -0.526576 0.515642 0
M  V30 1662 H 179.442 -0.784947 1.73028 0
M  V30 1663 H 177.592 -3.2284 2.16116 0
M  V30 1664 H 179.264 -1.71058 4.28412 0
M  V30 1665 H 177.507 -1.54394 4.05395 0
M  V30 1666 H 178.178 -3.0935 4.57172 0
M  V30 1667 H 180.654 -3.2094 2.64834 0
M  V30 1668 H 179.53 -4.50248 3.13955 0
M  V30 1669 H 179.791 -4.18259 1.43221 0
M  V30 1670 N 178.85 -1.27639 -0.924453 0
M  V30 1671 C 180.096 -1.14336 -1.67497 0
M  V30 1672 C 180.429 0.309465 -1.91718 0
M  V30 1673 O 179.704 1.22608 -1.50989 0
M  V30 1674 C 179.987 -1.93096 -3.0395 0
M  V30 1675 C 179.84 -3.46381 -2.8695 0
M  V30 1676 C 181.159 -1.73798 -4.0433 0
M  V30 1677 H 178.278 -0.416728 -0.607871 0
M  V30 1678 H 180.92 -1.56832 -1.07256 0
M  V30 1679 H 179.07 -1.56982 -3.55372 0
M  V30 1680 H 180.742 -3.92343 -2.42621 0
M  V30 1681 H 178.985 -3.72557 -2.22225 0
M  V30 1682 H 179.656 -3.96735 -3.83804 0
M  V30 1683 H 182.132 -2.05293 -3.61931 0
M  V30 1684 H 181.008 -2.31294 -4.97789 0
M  V30 1685 H 181.269 -0.686725 -4.36734 0
M  V30 1686 N 180.328 1.1314 -1.09713 0
M  V30 1687 C 181.576 1.84119 -0.833338 0
M  V30 1688 C 181.897 1.84097 0.642904 0
M  V30 1689 O 181.167 1.29881 1.46655 0
M  V30 1690 H 179.747 0.681766 -0.305293 0
M  V30 1691 H 182.409 1.37038 -1.38588 0
M  V30 1692 H 181.505 2.88543 -1.18951 0
M  V30 1693 N 181.806 0.884767 1.30421 0
M  V30 1694 C 183.054 0.502112 1.95763 0
M  V30 1695 C 183.375 -0.951815 1.70192 0
M  V30 1696 O 182.645 -1.6692 1.0254 0
M  V30 1697 H 181.225 0.182694 0.724315 0
M  V30 1698 H 183.887 1.1278 1.58955 0
M  V30 1699 H 182.983 0.672188 3.04775 0
M  V30 1700 N 183.284 -1.43765 0.645699 0
M  V30 1701 C 184.214 -2.33471 -0.0370477 0
M  V30 1702 C 185.195 -1.49042 -0.819779 0
M  V30 1703 O 186.38 -1.77726 -0.782758 0
M  V30 1704 C 183.51 -3.32311 -1.0093 0
M  V30 1705 C 182.464 -4.2667 -0.337201 0
M  V30 1706 C 181.79 -5.1549 -1.42037 0
M  V30 1707 C 183.09 -5.16657 0.765706 0
M  V30 1708 H 184.784 -2.90809 0.712069 0
M  V30 1709 H 182.33 -1.39834 0.343876 0
M  V30 1710 H 184.283 -3.9396 -1.49578 0
M  V30 1711 H 183.007 -2.73213 -1.78948 0
M  V30 1712 H 181.666 -3.66374 0.128771 0
M  V30 1713 H 181.314 -4.52735 -2.1918 0
M  V30 1714 H 181.014 -5.79438 -0.975966 0
M  V30 1715 H 182.538 -5.80012 -1.90838 0
M  V30 1716 H 183.952 -5.72158 0.361702 0
M  V30 1717 H 182.349 -5.89286 1.13413 0
M  V30 1718 H 183.419 -4.56796 1.62683 0
M  V30 1719 N 184.763 -0.387143 -1.52771 0
M  V30 1720 C 186.011 0.195349 -2.01154 0
M  V30 1721 C 186.332 1.475 -1.27549 0
M  V30 1722 O 185.602 1.91878 -0.394924 0
M  V30 1723 H 184.182 0.075178 -0.743207 0
M  V30 1724 H 186.844 -0.518337 -1.87881 0
M  V30 1725 H 185.94 0.407096 -3.09434 0
M  V30 1726 N 186.241 1.57166 -0.116904 0
M  V30 1727 C 187.489 1.94737 0.540533 0
M  V30 1728 C 187.81 1.00096 1.67349 0
M  V30 1729 O 187.08 0.0568854 1.95817 0
M  V30 1730 H 185.66 0.718981 0.202669 0
M  V30 1731 H 188.322 1.94017 -0.185353 0
M  V30 1732 H 187.418 2.97719 0.936483 0
M  V30 1733 N 187.719 -0.156864 1.56817 0
M  V30 1734 C 188.949 -0.885031 1.86684 0
M  V30 1735 C 189.357 -1.75696 0.701954 0
M  V30 1736 O 188.7 -1.80569 -0.337732 0
M  V30 1737 C 188.762 -1.80092 3.11138 0
M  V30 1738 C 188.426 -1.10714 4.43386 0
M  V30 1739 C 189.423 -0.465714 5.1781 0
M  V30 1740 C 187.108 -1.09959 4.90117 0
M  V30 1741 C 189.102 0.174002 6.37162 0
M  V30 1742 C 186.789 -0.456055 6.09396 0
M  V30 1743 C 187.787 0.179622 6.82764 0
M  V30 1744 O 187.475 0.812975 7.99779 0
M  V30 1745 H 187.207 -0.261813 0.623242 0
M  V30 1746 H 189.761 -0.157383 2.04796 0
M  V30 1747 H 187.991 -2.56926 2.89009 0
M  V30 1748 H 189.68 -2.40018 3.27332 0
M  V30 1749 H 190.446 -0.463427 4.82781 0
M  V30 1750 H 186.325 -1.58378 4.3294 0
M  V30 1751 H 189.869 0.670765 6.94368 0
M  V30 1752 H 185.766 -0.455975 6.43888 0
M  V30 1753 H 186.534 0.71366 8.15383 0
M  V30 1754 N 189.197 -1.51736 -0.425897 0
M  V30 1755 C 190.13 -1.68574 -1.53812 0
M  V30 1756 C 191.108 -0.53328 -1.53606 0
M  V30 1757 O 192.292 -0.758555 -1.72564 0
M  V30 1758 C 189.419 -1.70977 -2.92377 0
M  V30 1759 C 188.465 -2.92324 -3.10563 0
M  V30 1760 S 189.298 -4.52952 -2.85648 0
M  V30 1761 C 190.454 -4.58117 -4.26474 0
M  V30 1762 H 190.687 -2.62647 -1.39298 0
M  V30 1763 H 188.22 -1.41564 -0.616361 0
M  V30 1764 H 190.178 -1.73047 -3.72243 0
M  V30 1765 H 188.839 -0.78061 -3.04245 0
M  V30 1766 H 188.032 -2.90439 -4.11899 0
M  V30 1767 H 187.634 -2.88055 -2.38538 0
M  V30 1768 H 189.926 -4.34462 -5.19855 0
M  V30 1769 H 190.869 -5.59983 -4.33388 0
M  V30 1770 H 191.277 -3.8732 -4.10662 0
M  V30 1771 N 190.675 0.682077 -1.42076 0
M  V30 1772 C 191.605 1.80796 -1.47767 0
M  V30 1773 C 192.586 1.6677 -0.334954 0
M  V30 1774 O 193.771 1.863 -0.548264 0
M  V30 1775 C 190.901 3.19038 -1.37229 0
M  V30 1776 C 189.855 3.47789 -2.49453 0
M  V30 1777 C 189.181 4.8553 -2.23975 0
M  V30 1778 C 190.481 3.45411 -3.91776 0
M  V30 1779 H 192.175 1.7629 -2.41997 0
M  V30 1780 H 189.721 0.846721 -1.16476 0
M  V30 1781 H 191.674 3.97528 -1.39821 0
M  V30 1782 H 190.398 3.24204 -0.394907 0
M  V30 1783 H 189.057 2.71657 -2.46166 0
M  V30 1784 H 188.705 4.87337 -1.24547 0
M  V30 1785 H 188.405 5.0573 -2.99184 0
M  V30 1786 H 189.929 5.66312 -2.28304 0
M  V30 1787 H 191.343 4.13882 -3.96705 0
M  V30 1788 H 189.74 3.77145 -4.66778 0
M  V30 1789 H 190.81 2.44122 -4.18966 0
M  V30 1790 N 192.153 1.28127 0.917671 0
M  V30 1791 C 193.401 1.14825 1.66312 0
M  V30 1792 C 193.722 -0.304379 1.9261 0
M  V30 1793 O 192.992 -1.21149 1.53947 0
M  V30 1794 H 191.572 0.421953 0.616413 0
M  V30 1795 H 194.234 1.608 1.10134 0
M  V30 1796 H 193.33 1.68489 2.62712 0
M  V30 1797 N 193.631 -1.12557 1.10312 0
M  V30 1798 C 194.856 -1.88405 0.867085 0
M  V30 1799 C 195.281 -1.79038 -0.576817 0
M  V30 1800 O 194.639 -1.14439 -1.40618 0
M  V30 1801 C 194.687 -3.3563 1.31851 0
M  V30 1802 O 193.791 -4.09565 0.482734 0
M  V30 1803 H 193.132 -0.585455 0.313271 0
M  V30 1804 H 195.662 -1.42352 1.4696 0
M  V30 1805 H 195.672 -3.86469 1.3079 0
M  V30 1806 H 194.347 -3.41765 2.37001 0
M  V30 1807 H 192.924 -3.68695 0.558448 0
M  V30 1808 N 195.109 -0.891671 -1.2995 0
M  V30 1809 C 196.072 -0.36828 -2.26222 0
M  V30 1810 C 197.072 0.493014 -1.53056 0
M  V30 1811 O 198.262 0.299213 -1.71611 0
M  V30 1812 C 195.394 0.47442 -3.37583 0
M  V30 1813 H 196.587 -1.21844 -2.74033 0
M  V30 1814 H 194.14 -0.669107 -1.41254 0
M  V30 1815 H 194.875 1.34489 -2.95099 0
M  V30 1816 H 194.66 -0.142615 -3.91841 0
M  V30 1817 H 196.15 0.83218 -4.09224 0
M  V30 1818 N 196.587 1.43421 -0.653314 0
M  V30 1819 C 197.52 2.2803 0.0879804 0
M  V30 1820 C 198.498 1.39833 0.82979 0
M  V30 1821 O 199.682 1.69275 0.829341 0
M  V30 1822 C 196.809 3.19247 1.13132 0
M  V30 1823 C 195.855 4.23704 0.487546 0
M  V30 1824 S 196.688 5.30377 -0.738961 0
M  V30 1825 C 197.844 6.25162 0.30384 0
M  V30 1826 H 198.077 2.90554 -0.629739 0
M  V30 1827 H 195.61 1.47934 -0.442156 0
M  V30 1828 H 197.568 3.72346 1.72827 0
M  V30 1829 H 196.229 2.55901 1.82136 0
M  V30 1830 H 195.422 4.87631 1.27407 0
M  V30 1831 H 195.024 3.73983 -0.0352915 0
M  V30 1832 H 197.316 6.67321 1.17 0
M  V30 1833 H 198.259 7.07463 -0.300402 0
M  V30 1834 H 198.667 5.60864 0.63969 0
M  V30 1835 N 198.065 0.39524 1.52563 0
M  V30 1836 C 199.29 -0.187456 2.06551 0
M  V30 1837 C 199.715 -1.39249 1.26457 0
M  V30 1838 O 199.073 -1.78947 0.291151 0
M  V30 1839 C 199.121 -0.529985 3.56684 0
M  V30 1840 O 198.225 -1.62307 3.79118 0
M  V30 1841 H 197.566 -0.0202537 0.663691 0
M  V30 1842 H 200.096 0.564426 1.96661 0
M  V30 1843 H 200.106 -0.792598 4.00227 0
M  V30 1844 H 198.781 0.350987 4.14416 0
M  V30 1845 H 197.358 -1.3537 3.47461 0
M  V30 1846 N 199.544 -1.57102 0.125237 0
M  V30 1847 C 200.96 -1.57915 -0.231322 0
M  V30 1848 C 201.16 -1.13833 -1.66266 0
M  V30 1849 O 200.216 -0.828581 -2.38518 0
M  V30 1850 C 201.529 -3.00699 0.00766489 0
M  V30 1851 C 203.077 -3.12947 -0.0577483 0
M  V30 1852 C 203.552 -4.57742 0.153626 0
M  V30 1853 N 205.043 -4.63092 0.0998073 0
M  V30 1854 C 205.778 -5.72905 0.238174 0
M  V30 1855 N 205.274 -6.91445 0.433057 0
M  V30 1856 N 207.067 -5.6182 0.177308 0
M  V30 1857 H 199.218 -1.84055 1.06007 0
M  V30 1858 H 201.481 -0.850905 0.417929 0
M  V30 1859 H 201.187 -3.3726 0.997431 0
M  V30 1860 H 201.061 -3.70236 -0.721452 0
M  V30 1861 H 203.448 -2.7624 -1.03804 0
M  V30 1862 H 203.529 -2.4594 0.70335 0
M  V30 1863 H 203.173 -4.95149 1.13092 0
M  V30 1864 H 203.103 -5.22848 -0.627534 0
M  V30 1865 H 205.594 -3.77871 -0.047051 0
M  V30 1866 H 205.907 -7.70985 0.529332 0
M  V30 1867 H 204.252 -6.93415 0.469109 0
M  V30 1868 H 207.443 -4.68093 0.0259748 0
M  V30 1869 H 207.616 -6.47357 0.288582 0
M  V30 1870 N 201.022 0.148545 -1.56898 0
M  V30 1871 C 202.433 0.708766 -1.72723 0
M  V30 1872 C 202.784 1.81734 -0.739395 0
M  V30 1873 O 201.909 2.16194 0.0943169 0
M  V30 1874 C 202.504 1.29245 -3.13179 0
M  V30 1875 C 201.063 1.79925 -3.30611 0
M  V30 1876 C 200.21 0.687111 -2.68652 0
M  V30 1877 H 203.161 -0.0771063 -1.58513 0
M  V30 1878 H 203.182 2.16224 -3.13093 0
M  V30 1879 H 202.694 0.485382 -3.85053 0
M  V30 1880 H 200.795 2.63203 -2.63732 0
M  V30 1881 H 200.908 1.92903 -4.38549 0
M  V30 1882 H 199.272 1.11335 -2.29078 0
M  V30 1883 H 200.055 -0.108483 -3.43129 0
M  V30 1884 N 202.5 1.5196 0.417844 0
M  V30 1885 C 203.749 1.6482 1.16264 0
M  V30 1886 C 204.062 0.379886 1.91876 0
M  V30 1887 O 205.268 0.388154 2.68711 0
M  V30 1888 C 203.724 2.91161 2.1155 0
M  V30 1889 C 203.332 4.25068 1.41495 0
M  V30 1890 C 205.076 3.13383 2.86341 0
M  V30 1891 C 202.983 5.42541 2.35379 0
M  V30 1892 H 201.913 0.613954 0.437694 0
M  V30 1893 H 204.564 1.78442 0.427871 0
M  V30 1894 H 202.946 2.71218 2.88543 0
M  V30 1895 H 204.12 4.55463 0.699263 0
M  V30 1896 H 202.435 4.0888 0.787792 0
M  V30 1897 H 205.032 3.98324 3.5671 0
M  V30 1898 H 205.375 2.27256 3.48798 0
M  V30 1899 H 205.908 3.33757 2.1645 0
M  V30 1900 H 202.647 6.30987 1.77582 0
M  V30 1901 H 202.167 5.16497 3.04945 0
M  V30 1902 H 203.846 5.75272 2.96093 0
M  V30 1903 N 203.978 -0.674533 1.42435 0
M  V30 1904 C 205.227 -1.43034 1.42212 0
M  V30 1905 C 205.54 -1.95555 0.0420788 0
M  V30 1906 O 206.746 -2.71374 -0.0827558 0
M  V30 1907 C 205.202 -2.58748 2.50155 0
M  V30 1908 C 204.81 -2.12925 3.94166 0
M  V30 1909 C 206.554 -3.36257 2.59098 0
M  V30 1910 C 204.461 -3.25723 4.93618 0
M  V30 1911 H 203.391 -0.537345 0.528939 0
M  V30 1912 H 206.042 -0.73024 1.68344 0
M  V30 1913 H 204.424 -3.31128 2.17188 0
M  V30 1914 H 205.598 -1.47697 4.36488 0
M  V30 1915 H 203.913 -1.48354 3.89076 0
M  V30 1916 H 206.51 -4.20264 3.30578 0
M  V30 1917 H 206.853 -3.82866 1.63461 0
M  V30 1918 H 207.386 -2.70947 2.9126 0
M  V30 1919 H 204.125 -2.84105 5.90732 0
M  V30 1920 H 203.645 -3.89732 4.55926 0
M  V30 1921 H 205.324 -3.91186 5.15347 0
M  V30 1922 N 205.456 -1.28612 -0.910864 0
M  V30 1923 C 206.406 -1.09423 -2.00026 0
M  V30 1924 C 207.39 -0.0170079 -1.60891 0
M  V30 1925 O 208.582 -0.237472 -1.754 0
M  V30 1926 C 205.711 -0.76114 -3.34756 0
M  V30 1927 C 204.797 -1.87735 -3.80285 0
M  V30 1928 N 205.188 -3.11938 -3.98156 0
M  V30 1929 C 203.486 -1.76786 -4.09467 0
M  V30 1930 C 204.187 -3.84687 -4.36338 0
M  V30 1931 N 203.163 -3.12555 -4.44759 0
M  V30 1932 H 206.965 -2.03658 -2.11898 0
M  V30 1933 H 204.479 -1.19573 -1.09891 0
M  V30 1934 H 206.476 -0.604743 -4.12491 0
M  V30 1935 H 205.136 0.173403 -3.24237 0
M  V30 1936 H 206.147 -3.47516 -3.83996 0
M  V30 1937 H 202.824 -0.905284 -4.07567 0
M  V30 1938 H 204.214 -4.91518 -4.58104 0
M  V30 1939 N 206.934 1.1197 -1.10907 0
M  V30 1940 C 208.181 1.83588 -0.854507 0
M  V30 1941 C 208.509 1.84357 0.6199 0
M  V30 1942 O 207.764 1.28809 1.47332 0
M  V30 1943 C 208.063 3.30749 -1.35425 0
M  V30 1944 C 207.729 3.50146 -2.84093 0
M  V30 1945 C 206.391 3.55148 -3.2469 0
M  V30 1946 C 208.743 3.56857 -3.79872 0
M  V30 1947 C 206.071 3.6441 -4.59806 0
M  V30 1948 C 208.423 3.6765 -5.14797 0
M  V30 1949 C 207.087 3.7091 -5.54961 0
M  V30 1950 H 206.357 0.671795 -0.312686 0
M  V30 1951 H 209.004 1.32091 -1.38652 0
M  V30 1952 H 207.309 3.84703 -0.742361 0
M  V30 1953 H 209.006 3.8464 -1.1337 0
M  V30 1954 H 205.596 3.46919 -2.51685 0
M  V30 1955 H 209.78 3.52258 -3.49611 0
M  V30 1956 H 205.036 3.65208 -4.9034 0
M  V30 1957 H 209.21 3.71786 -5.88853 0
M  V30 1958 H 206.837 3.7784 -6.59652 0
M  V30 1959 N 208.412 0.89855 1.29475 0
M  V30 1960 C 209.66 0.522847 1.9522 0
M  V30 1961 C 209.981 -0.93371 1.71192 0
M  V30 1962 O 209.251 -1.65823 1.04305 0
M  V30 1963 H 207.831 0.190366 0.722336 0
M  V30 1964 H 210.493 1.14459 1.5775 0
M  V30 1965 H 209.589 0.704476 3.04045 0
M  V30 1966 N 209.89 -1.43072 0.660911 0
M  V30 1967 C 211.115 -2.06584 0.183805 0
M  V30 1968 C 211.54 -1.49257 -1.14472 0
M  V30 1969 O 210.898 -0.605528 -1.70889 0
M  V30 1970 C 210.946 -3.60418 0.114434 0
M  V30 1971 O 210.05 -4.01981 -0.921137 0
M  V30 1972 H 209.391 -0.656669 0.0983994 0
M  V30 1973 H 211.921 -1.83447 0.906006 0
M  V30 1974 H 211.931 -4.07946 -0.0663394 0
M  V30 1975 H 210.606 -4.01519 1.08422 0
M  V30 1976 H 209.183 -3.66029 -0.71253 0
M  V30 1977 N 211.368 -0.403325 -1.52352 0
M  V30 1978 C 212.645 0.232611 -1.94212 0
M  V30 1979 C 213.025 1.63133 -1.33981 0
M  V30 1980 O 212.373 2.22659 -0.513344 0
M  V30 1981 C 212.583 0.244811 -3.4814 0
M  V30 1982 C 213.931 0.46698 -4.22024 0
M  V30 1983 O 214.955 0.324419 -3.5472 0
M  V30 1984 O 213.814 0.74747 -5.41364 0
M  V30 1985 H 210.908 0.148223 -0.813609 0
M  V30 1986 H 213.454 -0.458848 -1.63379 0
M  V30 1987 H 212.226 -0.734378 -3.84347 0
M  V30 1988 H 211.849 0.980611 -3.85318 0
M  V30 1989 N 212.846 1.57033 -0.133567 0
M  V30 1990 C 214.076 1.99754 0.527429 0
M  V30 1991 C 214.484 1.01245 1.59832 0
M  V30 1992 O 213.827 -0.000645496 1.837 0
M  V30 1993 C 213.889 3.38903 1.19939 0
M  V30 1994 C 213.553 4.56174 0.274709 0
M  V30 1995 C 214.55 5.17563 -0.492398 0
M  V30 1996 C 212.235 5.01972 0.18153 0
M  V30 1997 C 214.229 6.2315 -1.34027 0
M  V30 1998 C 211.916 6.07416 -0.669958 0
M  V30 1999 C 212.914 6.67874 -1.42947 0
M  V30 2000 O 212.602 7.71279 -2.2668 0
M  V30 2001 H 212.334 0.660702 0.142999 0
M  V30 2002 H 214.888 2.04207 -0.221099 0
M  V30 2003 H 213.118 3.31248 1.99528 0
M  V30 2004 H 214.807 3.65818 1.75875 0
M  V30 2005 H 215.573 4.83087 -0.430367 0
M  V30 2006 H 211.452 4.54652 0.762422 0
M  V30 2007 H 214.996 6.70268 -1.93357 0
M  V30 2008 H 210.893 6.41321 -0.73333 0
M  V30 2009 H 211.661 7.88441 -2.1978 0
M  V30 2010 N 214.325 -0.140222 1.56975 0
M  V30 2011 C 215.235 -1.19223 2.02047 0
M  V30 2012 C 216.251 -1.46612 0.937062 0
M  V30 2013 O 217.427 -1.58148 1.24704 0
M  V30 2014 C 214.492 -2.50414 2.39778 0
M  V30 2015 C 213.553 -2.30612 3.621 0
M  V30 2016 C 212.786 -3.55547 3.98023 0
M  V30 2017 O 213.009 -4.62004 3.34528 0
M  V30 2018 O 211.943 -3.47808 4.91237 0
M  V30 2019 H 215.769 -0.839559 2.91865 0
M  V30 2020 H 213.354 -0.349453 1.45256 0
M  V30 2021 H 215.236 -3.27747 2.64877 0
M  V30 2022 H 213.911 -2.85198 1.53114 0
M  V30 2023 H 212.818 -1.51207 3.4218 0
M  V30 2024 H 214.151 -2.00741 4.49404 0
M  V30 2025 N 215.803 -1.52179 -0.40978 0
M  V30 2026 C 217.08 -1.56769 -1.16974 0
M  V30 2027 C 217.46 -0.348322 -2.08206 0
M  V30 2028 O 216.808 0.664862 -2.18613 0
M  V30 2029 C 217.018 -2.89603 -1.9476 0
M  V30 2030 C 218.366 -3.42579 -2.50849 0
M  V30 2031 O 219.39 -2.91338 -2.04941 0
M  V30 2032 O 218.249 -4.32054 -3.34652 0
M  V30 2033 H 215.343 -0.631439 -0.534054 0
M  V30 2034 H 217.889 -1.64507 -0.416613 0
M  V30 2035 H 216.661 -3.698 -1.27921 0
M  V30 2036 H 216.284 -2.85155 -2.77079 0
M  V30 2037 N 217.281 0.66697 -1.42791 0
M  V30 2038 C 218.697 0.981027 -1.25889 0
M  V30 2039 C 218.897 2.00793 -0.168695 0
M  V30 2040 O 217.953 2.48321 0.45747 0
M  V30 2041 C 219.266 1.47838 -2.61848 0
M  V30 2042 C 220.814 1.59575 -2.69267 0
M  V30 2043 C 221.289 2.12704 -4.05612 0
M  V30 2044 N 222.78 2.20026 -4.07606 0
M  V30 2045 C 223.515 2.62227 -5.09926 0
M  V30 2046 N 223.011 3.03824 -6.22626 0
M  V30 2047 N 224.804 2.62045 -4.97281 0
M  V30 2048 H 216.955 -0.0127891 -2.12396 0
M  V30 2049 H 219.218 0.0568258 -0.946295 0
M  V30 2050 H 218.924 0.798299 -3.4252 0
M  V30 2051 H 218.798 2.45579 -2.86305 0
M  V30 2052 H 221.185 2.26687 -1.88936 0
M  V30 2053 H 221.266 0.60302 -2.48591 0
M  V30 2054 H 220.91 1.46198 -4.86404 0
M  V30 2055 H 220.84 3.12782 -4.23645 0
M  V30 2056 H 223.331 1.90708 -3.2625 0
M  V30 2057 H 223.644 3.34734 -6.96544 0
M  V30 2058 H 221.989 3.01662 -6.26119 0
M  V30 2059 H 225.18 2.28916 -4.08308 0
M  V30 2060 H 225.353 2.94613 -5.77154 0
M  V30 2061 N 218.759 1.29093 0.90403 0
M  V30 2062 C 219.989 1.19516 1.68522 0
M  V30 2063 C 220.397 -0.24738 1.87576 0
M  V30 2064 O 219.74 -1.17798 1.40959 0
M  V30 2065 C 219.802 1.83249 3.0929 0
M  V30 2066 C 219.466 3.32531 3.13484 0
M  V30 2067 C 220.463 4.28821 2.93953 0
M  V30 2068 C 218.148 3.73656 3.35688 0
M  V30 2069 C 220.142 5.64212 2.96553 0
M  V30 2070 C 217.829 5.0917 3.37919 0
M  V30 2071 C 218.827 6.04258 3.18373 0
M  V30 2072 O 218.515 7.37298 3.20385 0
M  V30 2073 H 218.247 0.415467 0.533257 0
M  V30 2074 H 220.801 1.70912 1.13922 0
M  V30 2075 H 219.031 1.26358 3.65473 0
M  V30 2076 H 220.72 1.68054 3.69476 0
M  V30 2077 H 221.486 3.98382 2.76616 0
M  V30 2078 H 217.365 3.00101 3.49943 0
M  V30 2079 H 220.909 6.38407 2.81216 0
M  V30 2080 H 216.806 5.39256 3.54787 0
M  V30 2081 H 217.574 7.46048 3.36681 0
M  V30 2082 N 220.237 -1.11381 1.11499 0
M  V30 2083 C 221.467 -1.86663 0.885464 0
M  V30 2084 C 221.875 -1.80464 -0.568281 0
M  V30 2085 O 221.218 -1.18445 -1.40415 0
M  V30 2086 C 221.28 -3.36337 1.26956 0
M  V30 2087 C 220.944 -3.66304 2.73259 0
M  V30 2088 C 221.941 -3.63733 3.71476 0
M  V30 2089 C 219.626 -3.9529 3.09921 0
M  V30 2090 C 221.62 -3.89725 5.04374 0
M  V30 2091 C 219.307 -4.20941 4.43004 0
M  V30 2092 C 220.305 -4.18147 5.40039 0
M  V30 2093 O 219.993 -4.43153 6.70724 0
M  V30 2094 H 219.725 -0.597114 0.316908 0
M  V30 2095 H 222.279 -1.41782 1.48617 0
M  V30 2096 H 220.509 -3.81826 0.611999 0
M  V30 2097 H 222.198 -3.92986 1.01573 0
M  V30 2098 H 222.964 -3.41389 3.44498 0
M  V30 2099 H 218.843 -3.966 2.35009 0
M  V30 2100 H 222.387 -3.8746 5.80104 0
M  V30 2101 H 218.284 -4.42761 4.69716 0
M  V30 2102 H 219.052 -4.60717 6.76522 0
M  V30 2103 N 221.715 -0.905404 -1.28997 0
M  V30 2104 C 223.131 -0.60233 -1.47798 0
M  V30 2105 C 223.331 0.854645 -1.82478 0
M  V30 2106 O 222.387 1.63439 -1.92468 0
M  V30 2107 C 223.7 -1.53306 -2.58685 0
M  V30 2108 C 225.248 -1.53887 -2.72558 0
M  V30 2109 C 225.723 -2.45602 -3.86579 0
M  V30 2110 N 227.214 -2.43681 -3.93921 0
M  V30 2111 C 227.949 -3.11347 -4.81509 0
M  V30 2112 N 227.445 -3.88313 -5.73746 0
M  V30 2113 N 229.238 -3.00476 -4.75048 0
M  V30 2114 H 221.389 -1.84765 -1.04764 0
M  V30 2115 H 223.652 -0.792025 -0.520961 0
M  V30 2116 H 223.358 -2.57141 -2.39941 0
M  V30 2117 H 223.232 -1.25787 -3.55609 0
M  V30 2118 H 225.619 -0.507941 -2.90696 0
M  V30 2119 H 225.7 -1.85447 -1.76191 0
M  V30 2120 H 225.344 -3.48792 -3.69197 0
M  V30 2121 H 225.274 -2.11349 -4.82327 0
M  V30 2122 H 227.765 -1.87767 -3.27951 0
M  V30 2123 H 228.078 -4.36985 -6.37389 0
M  V30 2124 H 226.423 -3.92419 -5.73614 0
M  V30 2125 H 229.614 -2.39858 -4.01977 0
M  V30 2126 H 229.787 -3.53485 -5.43095 0
M  V30 2127 N 223.193 1.4272 -0.668489 0
M  V30 2128 C 224.103 2.34596 0.0139753 0
M  V30 2129 C 225.119 1.5474 0.795703 0
M  V30 2130 O 226.295 1.87334 0.739466 0
M  V30 2131 C 223.36 3.33202 0.957982 0
M  V30 2132 C 222.421 4.28957 0.17149 0
M  V30 2133 C 221.654 5.22853 1.07053 0
M  V30 2134 O 221.877 5.21531 2.31001 0
M  V30 2135 O 220.811 5.9952 0.534727 0
M  V30 2136 H 224.637 2.9448 -0.742661 0
M  V30 2137 H 222.222 1.43117 -0.428705 0
M  V30 2138 H 224.104 3.93796 1.50008 0
M  V30 2139 H 222.779 2.758 1.69458 0
M  V30 2140 H 221.686 3.71796 -0.414558 0
M  V30 2141 H 223.019 4.89383 -0.52586 0
M  V30 2142 N 224.671 0.411399 1.52136 0
M  V30 2143 C 225.619 -0.427633 2.28635 0
M  V30 2144 C 226.613 -1.04383 1.33419 0
M  V30 2145 O 227.819 -0.981772 1.50868 0
M  V30 2146 H 224.194 -0.156689 0.735495 0
M  V30 2147 H 226.165 0.238761 2.97443 0
M  V30 2148 C 224.914 -1.53082 3.12188 0
M  V30 2149 H 224.237 -1.06601 3.85326 0
M  V30 2150 H 225.677 -2.09167 3.68816 0
M  V30 2151 C 224.136 -2.49946 2.25895 0
M  V30 2152 O 224.666 -3.53884 1.90076 0
M  V30 2153 N 222.872 -2.2021 1.8962 0
M  V30 2154 H 222.419 -1.35719 2.18948 0
M  V30 2155 H 222.377 -2.85266 1.32176 0
M  V30 2156 N 226.149 -1.5696 0.141893 0
M  V30 2157 C 227.082 -2.12271 -0.837627 0
M  V30 2158 C 228.06 -1.04495 -1.24578 0
M  V30 2159 O 229.244 -1.32293 -1.34278 0
M  V30 2160 C 226.371 -2.63822 -2.12404 0
M  V30 2161 C 225.417 -3.83698 -1.86221 0
M  V30 2162 S 226.25 -5.24948 -1.05781 0
M  V30 2163 C 227.406 -5.79884 -2.35552 0
M  V30 2164 H 227.639 -2.95023 -0.367249 0
M  V30 2165 H 225.172 -1.54231 -0.0723014 0
M  V30 2166 H 227.13 -2.94175 -2.86307 0
M  V30 2167 H 225.791 -1.8121 -2.56557 0
M  V30 2168 H 224.984 -4.17995 -2.81596 0
M  V30 2169 H 224.586 -3.5408 -1.20429 0
M  V30 2170 H 226.878 -5.91005 -3.31239 0
M  V30 2171 H 227.821 -6.77544 -2.05767 0
M  V30 2172 H 228.229 -5.08095 -2.45967 0
M  V30 2173 N 227.627 0.131896 -1.57047 0
M  V30 2174 C 228.577 1.1679 -1.95816 0
M  V30 2175 C 229.561 1.37756 -0.831393 0
M  V30 2176 O 230.753 1.39065 -1.09499 0
M  V30 2177 C 227.882 2.49778 -2.35512 0
M  V30 2178 C 226.968 2.32342 -3.54793 0
M  V30 2179 N 227.359 1.8469 -4.70875 0
M  V30 2180 C 225.657 2.63043 -3.60173 0
M  V30 2181 C 226.358 1.80656 -5.52936 0
M  V30 2182 N 225.334 2.24528 -4.95064 0
M  V30 2183 H 229.136 0.791818 -2.83033 0
M  V30 2184 H 226.65 0.339791 -1.58805 0
M  V30 2185 H 228.647 3.24692 -2.61498 0
M  V30 2186 H 227.307 2.88156 -1.49654 0
M  V30 2187 H 228.318 1.54429 -4.9434 0
M  V30 2188 H 224.995 3.05193 -2.84892 0
M  V30 2189 H 226.385 1.45178 -6.56028 0
M  V30 2190 N 229.106 1.52395 0.401703 0
M  V30 2191 C 230.522 1.41363 0.740864 0
M  V30 2192 C 230.722 0.523982 1.94568 0
M  V30 2193 O 229.778 -0.00741204 2.52499 0
M  V30 2194 C 231.091 2.84011 0.987847 0
M  V30 2195 C 232.639 2.93404 1.09011 0
M  V30 2196 C 233.114 4.37036 1.3698 0
M  V30 2197 N 234.605 4.40304 1.43829 0
M  V30 2198 C 235.34 5.48508 1.67112 0
M  V30 2199 N 234.836 6.66819 1.87949 0
M  V30 2200 N 236.629 5.36034 1.69187 0
M  V30 2201 H 228.78 2.08765 -0.391262 0
M  V30 2202 H 231.043 0.941265 -0.112798 0
M  V30 2203 H 230.749 3.51265 0.174835 0
M  V30 2204 H 230.623 3.25502 1.906 0
M  V30 2205 H 233.01 2.26325 1.8937 0
M  V30 2206 H 233.091 2.55359 0.15015 0
M  V30 2207 H 232.735 5.04676 0.571353 0
M  V30 2208 H 232.665 4.72623 2.3224 0
M  V30 2209 H 235.156 3.55024 1.29486 0
M  V30 2210 H 235.469 7.45063 2.05185 0
M  V30 2211 H 233.814 6.6987 1.85199 0
M  V30 2212 H 237.005 4.42579 1.52451 0
M  V30 2213 H 237.178 6.20434 1.86993 0
M  V30 2214 N 230.584 -0.659388 1.43143 0
M  V30 2215 C 231.814 -1.44513 1.47646 0
M  V30 2216 C 232.222 -1.88981 0.0910095 0
M  V30 2217 O 231.565 -1.59702 -0.907789 0
M  V30 2218 C 231.627 -2.71663 2.35456 0
M  V30 2219 C 231.291 -2.49175 3.83094 0
M  V30 2220 C 232.288 -2.1279 4.74359 0
M  V30 2221 C 229.973 -2.63691 4.27519 0
M  V30 2222 C 231.967 -1.9121 6.08044 0
M  V30 2223 C 229.654 -2.41726 5.61259 0
M  V30 2224 C 230.652 -2.0554 6.51339 0
M  V30 2225 O 230.34 -1.838 7.82606 0
M  V30 2226 H 230.072 -0.45064 0.503884 0
M  V30 2227 H 232.626 -0.816248 1.88485 0
M  V30 2228 H 230.856 -3.37089 1.89493 0
M  V30 2229 H 232.545 -3.33595 2.31235 0
M  V30 2230 H 233.311 -2.01157 4.41317 0
M  V30 2231 H 229.19 -2.90832 3.57684 0
M  V30 2232 H 232.734 -1.62889 6.78316 0
M  V30 2233 H 228.631 -2.52959 5.9387 0
M  V30 2234 H 229.399 -1.98275 7.94122 0
M  V30 2235 N 232.062 -1.29571 -0.897171 0
M  V30 2236 C 233.473 -1.15964 -1.46319 0
M  V30 2237 C 233.824 0.244267 -1.94674 0
M  V30 2238 O 232.949 1.13998 -1.83939 0
M  V30 2239 C 233.544 -2.09906 -2.65942 0
M  V30 2240 C 232.103 -2.00314 -3.18671 0
M  V30 2241 C 231.25 -2.00687 -1.91363 0
M  V30 2242 H 234.201 -1.42019 -0.708268 0
M  V30 2243 H 234.222 -1.67276 -3.41759 0
M  V30 2244 H 233.734 -3.12075 -2.30718 0
M  V30 2245 H 231.835 -1.01242 -3.58582 0
M  V30 2246 H 231.948 -2.88102 -3.82798 0
M  V30 2247 H 230.312 -1.45319 -2.09175 0
M  V30 2248 H 231.095 -3.04566 -1.58413 0
M  V30 2249 N 233.54 1.10788 -1.12088 0
M  V30 2250 C 234.488 2.19111 -0.780587 0
M  V30 2251 C 235.482 1.67818 0.230961 0
M  V30 2252 O 236.688 1.79777 0.0895427 0
M  V30 2253 H 233.063 0.714477 -0.234578 0
M  V30 2254 H 235.034 2.45055 -1.70266 0
M  V30 2255 C 233.783 3.46818 -0.24747 0
M  V30 2256 H 233.106 3.86646 -1.01712 0
M  V30 2257 H 234.546 4.23973 -0.0476291 0
M  V30 2258 C 233.005 3.20968 1.02378 0
M  V30 2259 O 233.535 3.42298 2.10226 0
M  V30 2260 N 231.741 2.74658 0.949271 0
M  V30 2261 H 231.288 2.57501 0.0715173 0
M  V30 2262 H 231.246 2.57739 1.80049 0
M  V30 2263 N 235.018 0.912232 1.28515 0
M  V30 2264 C 235.95 0.35676 2.26406 0
M  V30 2265 C 236.963 -0.503933 1.54804 0
M  V30 2266 O 238.152 -0.319059 1.75625 0
M  V30 2267 C 235.252 -0.508825 3.35058 0
M  V30 2268 C 234.425 0.329007 4.36161 0
M  V30 2269 C 233.484 -0.471422 5.24084 0
M  V30 2270 O 232.51 0.115482 5.69083 0
M  V30 2271 N 233.712 -1.77479 5.52704 0
M  V30 2272 H 236.477 1.19818 2.74707 0
M  V30 2273 H 234.038 0.778022 1.4198 0
M  V30 2274 H 236.03 -1.051 3.90815 0
M  V30 2275 H 234.6 -1.25095 2.86478 0
M  V30 2276 H 233.82 1.05256 3.79888 0
M  V30 2277 H 235.108 0.90234 5.00735 0
M  V30 2278 H 234.506 -2.27417 5.17975 0
M  V30 2279 H 233.063 -2.26382 6.11224 0
M  V30 2280 N 236.496 -1.42363 0.676048 0
M  V30 2281 C 237.742 -2.0182 0.199125 0
M  V30 2282 C 238.075 -1.53339 -1.19168 0
M  V30 2283 O 237.35 -0.736124 -1.80032 0
M  V30 2284 C 237.633 -3.59331 0.235144 0
M  V30 2285 C 237.486 -4.17989 1.66149 0
M  V30 2286 C 238.805 -4.3813 -0.41595 0
M  V30 2287 H 235.924 -0.733293 0.0738311 0
M  V30 2288 H 238.566 -1.69368 0.86107 0
M  V30 2289 H 236.716 -3.87109 -0.328487 0
M  V30 2290 H 238.388 -4.0116 2.27747 0
M  V30 2291 H 236.631 -3.7377 2.20178 0
M  V30 2292 H 237.302 -5.27126 1.63837 0
M  V30 2293 H 239.778 -4.16051 0.0638529 0
M  V30 2294 H 238.654 -5.47717 -0.360115 0
M  V30 2295 H 238.915 -4.16101 -1.49373 0
M  V30 2296 N 237.974 -0.419461 -1.51915 0
M  V30 2297 C 239.204 0.151915 -2.06041 0
M  V30 2298 C 239.612 1.38539 -1.28855 0
M  V30 2299 O 238.955 1.80592 -0.336463 0
M  V30 2300 C 239.017 0.557119 -3.55157 0
M  V30 2301 C 238.681 -0.567054 -4.53468 0
M  V30 2302 C 239.678 -1.43379 -4.99738 0
M  V30 2303 C 237.363 -0.742693 -4.96779 0
M  V30 2304 C 239.357 -2.46102 -5.87973 0
M  V30 2305 C 237.044 -1.77322 -5.84808 0
M  V30 2306 C 238.042 -2.63078 -6.30301 0
M  V30 2307 O 237.73 -3.64364 -7.16585 0
M  V30 2308 H 237.462 0.0193293 -0.675724 0
M  V30 2309 H 240.016 -0.592073 -1.96682 0
M  V30 2310 H 238.246 1.35355 -3.62238 0
M  V30 2311 H 239.935 1.05759 -3.9188 0
M  V30 2312 H 240.701 -1.30954 -4.66986 0
M  V30 2313 H 236.58 -0.0848307 -4.60922 0
M  V30 2314 H 240.124 -3.13071 -6.23404 0
M  V30 2315 H 236.021 -1.89773 -6.16974 0
M  V30 2316 H 236.789 -3.60731 -7.34721 0
M  V30 2317 N 239.452 1.56882 -0.150215 0
M  V30 2318 C 240.682 2.00302 0.506213 0
M  V30 2319 C 241.09 1.02934 1.58749 0
M  V30 2320 O 240.433 0.0188384 1.8369 0
M  V30 2321 C 240.495 3.40156 1.16337 0
M  V30 2322 C 240.159 4.56439 0.226311 0
M  V30 2323 C 241.156 5.17012 -0.547265 0
M  V30 2324 C 238.841 5.02136 0.128279 0
M  V30 2325 C 240.835 6.21693 -1.40629 0
M  V30 2326 C 238.522 6.06672 -0.734345 0
M  V30 2327 C 239.52 6.6632 -1.50023 0
M  V30 2328 O 239.208 7.68831 -2.34848 0
M  V30 2329 H 238.94 0.662182 0.135984 0
M  V30 2330 H 241.494 2.03961 -0.242746 0
M  V30 2331 H 239.724 3.33346 1.96004 0
M  V30 2332 H 241.413 3.67663 1.71985 0
M  V30 2333 H 242.179 4.82603 -0.48158 0
M  V30 2334 H 238.058 4.55435 0.714157 0
M  V30 2335 H 241.602 6.68179 -2.00455 0
M  V30 2336 H 237.499 6.40507 -0.801309 0
M  V30 2337 H 238.267 7.86065 -2.28131 0
M  V30 2338 N 240.93 -0.123565 1.57115 0
M  V30 2339 C 242.346 -0.476961 1.52306 0
M  V30 2340 C 242.546 -1.82109 0.86248 0
M  V30 2341 O 241.602 -2.48586 0.442884 0
M  V30 2342 C 242.915 -0.465661 2.97073 0
M  V30 2343 C 244.463 -0.549534 3.08138 0
M  V30 2344 C 244.938 -0.568669 4.54456 0
M  V30 2345 N 246.429 -0.630237 4.58892 0
M  V30 2346 C 247.164 -0.666415 5.69514 0
M  V30 2347 N 246.66 -0.660514 6.89644 0
M  V30 2348 N 248.453 -0.709077 5.5761 0
M  V30 2349 H 240.604 0.757198 1.98445 0
M  V30 2350 H 242.867 0.278808 0.906074 0
M  V30 2351 H 242.573 0.454232 3.48754 0
M  V30 2352 H 242.447 -1.29513 3.54269 0
M  V30 2353 H 244.834 -1.45985 2.56461 0
M  V30 2354 H 244.915 0.307532 2.53945 0
M  V30 2355 H 244.559 0.337581 5.06777 0
M  V30 2356 H 244.489 -1.44256 5.06456 0
M  V30 2357 H 246.98 -0.641146 3.72421 0
M  V30 2358 H 247.293 -0.690616 7.69708 0
M  V30 2359 H 245.638 -0.628012 6.92157 0
M  V30 2360 H 248.829 -0.711019 4.62668 0
M  V30 2361 H 249.002 -0.733804 6.43832 0
M  V30 2362 N 242.408 -1.52605 -0.393616 0
M  V30 2363 C 243.819 -1.59417 -0.971761 0
M  V30 2364 C 244.17 -0.444173 -1.91106 0
M  V30 2365 O 243.295 0.433382 -2.12016 0
M  V30 2366 C 243.89 -2.88936 -1.76921 0
M  V30 2367 C 242.449 -2.98175 -2.29714 0
M  V30 2368 C 241.596 -2.54491 -1.10135 0
M  V30 2369 H 244.547 -1.57751 -0.173317 0
M  V30 2370 H 244.568 -2.75163 -2.62804 0
M  V30 2371 H 244.08 -3.72616 -1.08532 0
M  V30 2372 H 242.181 -2.19024 -3.01429 0
M  V30 2373 H 242.294 -4.02726 -2.59517 0
M  V30 2374 H 240.658 -2.08702 -1.45999 0
M  V30 2375 H 241.441 -3.4056 -0.432874 0
M  V30 2376 N 243.887 0.651787 -1.4349 0
M  V30 2377 C 244.82 1.77668 -1.43211 0
M  V30 2378 C 245.798 1.59931 -0.29338 0
M  V30 2379 O 246.982 1.82095 -0.487191 0
M  V30 2380 C 244.109 3.14986 -1.24505 0
M  V30 2381 C 243.155 3.51421 -2.41673 0
M  V30 2382 S 243.988 3.51234 -4.04222 0
M  V30 2383 C 245.144 4.91206 -3.87902 0
M  V30 2384 H 245.377 1.77635 -2.38397 0
M  V30 2385 H 242.91 0.824558 -1.30539 0
M  V30 2386 H 244.868 3.94237 -1.144 0
M  V30 2387 H 243.529 3.1258 -0.308651 0
M  V30 2388 H 242.722 4.51291 -2.24393 0
M  V30 2389 H 242.324 2.79585 -2.48411 0
M  V30 2390 H 244.616 5.79902 -3.50315 0
M  V30 2391 H 245.559 5.13537 -4.8753 0
M  V30 2392 H 245.967 4.64808 -3.20334 0
M  V30 2393 N 245.365 1.30045 0.890287 0
M  V30 2394 C 246.642 1.09227 1.62262 0
M  V30 2395 C 247.022 -0.360305 2.08002 0
M  V30 2396 O 246.37 -1.35084 1.84295 0
M  V30 2397 C 246.58 2.08835 2.79623 0
M  V30 2398 C 247.928 2.40266 3.50082 0
M  V30 2399 O 248.952 2.07104 2.89804 0
M  V30 2400 O 247.811 2.96967 4.58773 0
M  V30 2401 H 244.905 0.419132 0.712922 0
M  V30 2402 H 247.451 1.41451 0.937529 0
M  V30 2403 H 246.223 3.06633 2.43089 0
M  V30 2404 H 245.846 1.77397 3.55832 0
M  V30 2405 N 246.843 -1.10192 1.12674 0
M  V30 2406 C 247.753 -2.20172 0.810026 0
M  V30 2407 C 248.769 -1.72821 -0.202188 0
M  V30 2408 O 249.945 -2.01369 -0.0351691 0
M  V30 2409 C 247.01 -3.45631 0.272007 0
M  V30 2410 C 246.071 -4.07704 1.34447 0
M  V30 2411 C 245.304 -5.27175 0.832029 0
M  V30 2412 O 245.527 -5.69425 -0.333284 0
M  V30 2413 O 244.461 -5.80168 1.60277 0
M  V30 2414 H 248.287 -2.49701 1.72867 0
M  V30 2415 H 245.872 -1.18977 0.903597 0
M  V30 2416 H 247.754 -4.21394 -0.0230219 0
M  V30 2417 H 246.429 -3.17723 -0.619164 0
M  V30 2418 H 245.336 -3.33614 1.6927 0
M  V30 2419 H 246.669 -4.3982 2.2095 0
M  V30 2420 N 248.321 -0.919034 -1.28029 0
M  V30 2421 C 249.551 -0.570143 -1.98577 0
M  V30 2422 C 249.959 0.854172 -1.68821 0
M  V30 2423 O 249.302 1.57807 -0.940351 0
M  V30 2424 C 249.364 -0.705734 -3.52505 0
M  V30 2425 C 249.028 -2.10057 -4.05863 0
M  V30 2426 C 250.025 -3.07385 -4.19298 0
M  V30 2427 C 247.71 -2.41517 -4.40426 0
M  V30 2428 C 249.704 -4.34287 -4.66555 0
M  V30 2429 C 247.391 -3.68657 -4.87376 0
M  V30 2430 C 248.389 -4.64856 -5.00398 0
M  V30 2431 O 248.077 -5.89735 -5.46322 0
M  V30 2432 H 247.809 -0.215592 -0.6407 0
M  V30 2433 H 250.363 -1.23583 -1.64062 0
M  V30 2434 H 248.593 0.0170414 -3.86696 0
M  V30 2435 H 250.282 -0.363172 -4.04272 0
M  V30 2436 H 251.048 -2.84398 -3.92865 0
M  V30 2437 H 246.927 -1.67389 -4.29537 0
M  V30 2438 H 250.471 -5.09377 -4.76635 0
M  V30 2439 H 246.368 -3.91466 -5.13249 0
M  V30 2440 H 247.136 -5.92599 -5.64596 0
M  V30 2441 N 249.799 1.42003 -0.683588 0
M  V30 2442 C 251.024 2.06265 -0.216647 0
M  V30 2443 C 251.449 1.51059 1.12083 0
M  V30 2444 O 250.807 0.632638 1.69904 0
M  V30 2445 C 250.855 3.60191 -0.171759 0
M  V30 2446 O 249.959 4.03396 0.857069 0
M  V30 2447 H 249.3 0.65502 -0.108834 0
M  V30 2448 H 251.83 1.81982 -0.935077 0
M  V30 2449 H 251.84 4.08 0.0014303 0
M  V30 2450 H 250.515 3.99743 -1.14796 0
M  V30 2451 H 249.092 3.67117 0.654208 0
M  V30 2452 N 251.277 0.427512 1.51691 0
M  V30 2453 C 252.225 -0.403359 2.29076 0
M  V30 2454 C 253.219 -1.02962 1.34518 0
M  V30 2455 O 254.425 -0.965715 1.51901 0
M  V30 2456 H 250.8 -0.148879 0.737115 0
M  V30 2457 H 252.771 0.270295 2.97173 0
M  V30 2458 C 251.52 -1.49763 3.13794 0
M  V30 2459 H 250.843 -1.02508 3.86435 0
M  V30 2460 H 252.283 -2.05244 3.71014 0
M  V30 2461 C 250.742 -2.47536 2.28533 0
M  V30 2462 O 251.272 -3.51848 1.93819 0
M  V30 2463 N 249.478 -2.18187 1.91945 0
M  V30 2464 H 249.025 -1.33389 2.20375 0
M  V30 2465 H 248.983 -2.83848 1.35195 0
M  V30 2466 N 252.755 -1.56801 0.158532 0
M  V30 2467 C 253.687 -2.14488 -0.807923 0
M  V30 2468 C 254.7 -1.09721 -1.20271 0
M  V30 2469 O 255.889 -1.36956 -1.14478 0
M  V30 2470 C 252.989 -2.66217 -2.09718 0
M  V30 2471 C 252.162 -3.95507 -1.86796 0
M  V30 2472 C 251.221 -4.3243 -2.99818 0
M  V30 2473 O 250.247 -5.00543 -2.71008 0
M  V30 2474 N 251.449 -3.92947 -4.27285 0
M  V30 2475 H 254.214 -2.98042 -0.314816 0
M  V30 2476 H 251.775 -1.61881 -0.0246692 0
M  V30 2477 H 253.767 -2.87924 -2.84398 0
M  V30 2478 H 252.337 -1.87324 -2.50257 0
M  V30 2479 H 251.557 -3.82309 -0.96089 0
M  V30 2480 H 252.845 -4.79972 -1.68833 0
M  V30 2481 H 252.243 -3.38087 -4.53557 0
M  V30 2482 H 250.8 -4.19681 -4.9871 0
M  V30 2483 N 254.233 0.115231 -1.57178 0
M  V30 2484 C 255.181 1.16014 -2.01602 0
M  V30 2485 C 256.175 1.42653 -0.913587 0
M  V30 2486 O 257.381 1.42571 -1.09879 0
M  V30 2487 H 253.756 0.391252 -0.642204 0
M  V30 2488 H 255.727 0.758998 -2.88586 0
M  V30 2489 C 254.476 2.47767 -2.4394 0
M  V30 2490 H 253.799 2.28108 -3.28339 0
M  V30 2491 H 255.239 3.19432 -2.78818 0
M  V30 2492 C 253.698 3.10617 -1.30455 0
M  V30 2493 O 254.228 3.96846 -0.622585 0
M  V30 2494 N 252.434 2.70553 -1.06064 0
M  V30 2495 H 251.981 2.00527 -1.61699 0
M  V30 2496 H 251.939 3.12934 -0.303284 0
M  V30 2497 N 255.711 1.52812 0.385517 0
M  V30 2498 C 256.659 1.78482 1.49155 0
M  V30 2499 C 257.653 0.652914 1.56312 0
M  V30 2500 O 258.859 0.835464 1.59436 0
M  V30 2501 H 255.234 0.5648 0.496493 0
M  V30 2502 H 257.205 2.71095 1.24699 0
M  V30 2503 C 255.954 1.97378 2.86247 0
M  V30 2504 H 255.277 2.83907 2.81491 0
M  V30 2505 H 256.717 2.19327 3.62866 0
M  V30 2506 C 255.176 0.74728 3.28508 0
M  V30 2507 O 255.706 -0.0736232 4.01633 0
M  V30 2508 N 253.912 0.576396 2.84826 0
M  V30 2509 H 253.459 1.24555 2.25486 0
M  V30 2510 H 253.417 -0.24288 3.1346 0
M  V30 2511 N 257.189 -0.644168 1.43834 0
M  V30 2512 C 258.436 -1.40395 1.4593 0
M  V30 2513 C 258.764 -1.94305 0.0869658 0
M  V30 2514 O 258.019 -1.73288 -0.909378 0
M  V30 2515 C 258.318 -2.59615 2.45631 0
M  V30 2516 C 257.984 -2.2407 3.91284 0
M  V30 2517 C 256.646 -2.14089 4.30952 0
M  V30 2518 C 258.998 -1.95775 4.83034 0
M  V30 2519 C 256.326 -1.73981 5.6031 0
M  V30 2520 C 258.678 -1.57163 6.12766 0
M  V30 2521 C 257.342 -1.45713 6.51402 0
M  V30 2522 H 256.612 -0.513741 0.533995 0
M  V30 2523 H 259.259 -0.731724 1.76969 0
M  V30 2524 H 257.564 -3.32011 2.08028 0
M  V30 2525 H 259.261 -3.17834 2.44504 0
M  V30 2526 H 255.851 -2.32753 3.59895 0
M  V30 2527 H 260.035 -2.02403 4.53152 0
M  V30 2528 H 255.291 -1.63709 5.89075 0
M  V30 2529 H 259.465 -1.34303 6.83327 0
M  V30 2530 H 257.092 -1.14406 7.51542 0
M  V30 2531 N 258.668 -1.30515 -0.883378 0
M  V30 2532 C 259.914 -1.19607 -1.63774 0
M  V30 2533 C 260.247 0.248314 -1.92606 0
M  V30 2534 O 259.522 1.17742 -1.54813 0
M  V30 2535 C 259.805 -2.02669 -2.97653 0
M  V30 2536 C 259.658 -3.55335 -2.75784 0
M  V30 2537 C 260.977 -1.86573 -3.98596 0
M  V30 2538 H 258.096 -0.435856 -0.594305 0
M  V30 2539 H 260.738 -1.60165 -1.02212 0
M  V30 2540 H 258.888 -1.68208 -3.50197 0
M  V30 2541 H 260.56 -3.99863 -2.30016 0
M  V30 2542 H 258.803 -3.79438 -2.1026 0
M  V30 2543 H 259.474 -4.08745 -3.70988 0
M  V30 2544 H 261.95 -2.16703 -3.55217 0
M  V30 2545 H 260.826 -2.47014 -4.90179 0
M  V30 2546 H 261.087 -0.825321 -4.34328 0
M  V30 2547 N 260.146 1.09593 -1.13257 0
M  V30 2548 C 261.096 2.14345 -0.777179 0
M  V30 2549 C 262.08 1.59277 0.227966 0
M  V30 2550 O 263.272 1.76971 0.0321413 0
M  V30 2551 C 260.401 3.42439 -0.242991 0
M  V30 2552 C 259.487 4.04419 -1.27694 0
M  V30 2553 N 259.878 4.40979 -2.47732 0
M  V30 2554 C 258.176 4.31596 -1.12432 0
M  V30 2555 C 258.877 4.89784 -3.13826 0
M  V30 2556 N 257.853 4.87133 -2.41252 0
M  V30 2557 H 261.655 2.40415 -1.69049 0
M  V30 2558 H 259.169 1.26803 -1.01463 0
M  V30 2559 H 261.166 4.16889 0.0298496 0
M  V30 2560 H 259.826 3.17824 0.66467 0
M  V30 2561 H 260.837 4.32396 -2.85051 0
M  V30 2562 H 257.514 4.16595 -0.274684 0
M  V30 2563 H 258.904 5.2755 -4.16102 0
M  V30 2564 N 261.624 0.925811 1.2754 0
M  V30 2565 C 262.901 0.483726 1.89524 0
M  V30 2566 C 263.281 -1.03809 1.83812 0
M  V30 2567 O 262.629 -1.89143 1.28207 0
M  V30 2568 C 262.839 1.02769 3.33526 0
M  V30 2569 C 264.187 1.08703 4.10449 0
M  V30 2570 O 265.211 0.977175 3.42534 0
M  V30 2571 O 264.07 1.25599 5.31871 0
M  V30 2572 H 261.164 0.15529 0.812289 0
M  V30 2573 H 263.71 1.01738 1.35822 0
M  V30 2574 H 262.482 2.07155 3.31967 0
M  V30 2575 H 262.105 0.475567 3.94746 0
M  V30 2576 N 263.102 -1.41638 0.69111 0
M  V30 2577 C 264.342 -2.03166 0.224291 0
M  V30 2578 C 264.706 -1.53537 -1.15284 0
M  V30 2579 O 265.907 -2.0696 -1.71525 0
M  V30 2580 C 264.178 -3.56342 0.274758 0
M  V30 2581 S 265.737 -4.3864 -0.118669 0
M  V30 2582 H 262.555 -0.705188 0.0907263 0
M  V30 2583 H 265.157 -1.7314 0.907895 0
M  V30 2584 H 263.861 -3.89958 1.2791 0
M  V30 2585 H 263.392 -3.91063 -0.428142 0
M  V30 2586 H 265.407 -4.77549 -1.34764 0
M  V30 2587 N 264.58 -0.43555 -1.51462 0
M  V30 2588 C 265.826 0.131709 -2.02372 0
M  V30 2589 C 266.159 1.42516 -1.3192 0
M  V30 2590 O 265.434 1.89606 -0.433573 0
M  V30 2591 C 265.717 0.352301 -3.58373 0
M  V30 2592 C 265.57 -0.959676 -4.39443 0
M  V30 2593 C 266.889 1.12286 -4.25535 0
M  V30 2594 H 264.008 0.0463936 -0.735538 0
M  V30 2595 H 266.65 -0.574197 -1.81116 0
M  V30 2596 H 264.8 0.9536 -3.76615 0
M  V30 2597 H 266.472 -1.59482 -4.32855 0
M  V30 2598 H 264.715 -1.56468 -4.04599 0
M  V30 2599 H 265.386 -0.759394 -5.46752 0
M  V30 2600 H 267.862 0.613545 -4.11552 0
M  V30 2601 H 266.738 1.24598 -5.34571 0
M  V30 2602 H 266.999 2.15048 -3.86273 0
M  V30 2603 N 266.058 1.56714 -0.166846 0
M  V30 2604 C 267.006 2.19056 0.782123 0
M  V30 2605 C 268 1.15328 1.24079 0
M  V30 2606 O 269.206 1.33537 1.20697 0
M  V30 2607 H 265.581 0.70167 0.270486 0
M  V30 2608 H 267.552 2.97494 0.232322 0
M  V30 2609 C 266.301 2.84206 2.00306 0
M  V30 2610 H 265.624 3.63748 1.65914 0
M  V30 2611 H 267.064 3.31302 2.64604 0
M  V30 2612 C 265.523 1.83744 2.82382 0
M  V30 2613 O 266.053 1.32014 3.79388 0
M  V30 2614 N 264.259 1.52601 2.47308 0
M  V30 2615 H 263.806 1.9486 1.68485 0
M  V30 2616 H 263.764 0.856351 3.02513 0
M  V30 2617 N 267.536 -0.106894 1.57237 0
M  V30 2618 C 268.785 -0.811163 1.8467 0
M  V30 2619 C 269.098 -1.80469 0.754342 0
M  V30 2620 O 270.304 -2.55601 0.915439 0
M  V30 2621 C 268.76 -1.49337 3.27454 0
M  V30 2622 C 268.368 -0.540217 4.44731 0
M  V30 2623 C 270.112 -2.18206 3.64124 0
M  V30 2624 C 268.019 -1.22634 5.78545 0
M  V30 2625 H 266.949 -0.306679 0.688813 0
M  V30 2626 H 269.6 -0.0639887 1.83388 0
M  V30 2627 H 267.982 -2.2876 3.23241 0
M  V30 2628 H 269.156 0.221659 4.60267 0
M  V30 2629 H 267.471 0.042146 4.16379 0
M  V30 2630 H 270.068 -2.70253 4.61376 0
M  V30 2631 H 270.411 -2.96562 2.92158 0
M  V30 2632 H 270.944 -1.45658 3.70174 0
M  V30 2633 H 267.683 -0.483832 6.53712 0
M  V30 2634 H 267.203 -1.95993 5.66874 0
M  V30 2635 H 268.882 -1.75615 6.2271 0
M  V30 2636 N 269.014 -1.53014 -0.377408 0
M  V30 2637 C 270.242 -1.72515 -1.14219 0
M  V30 2638 C 270.657 -0.448735 -1.8339 0
M  V30 2639 O 270.014 0.577592 -1.73119 0
M  V30 2640 C 270.065 -2.8826 -2.18148 0
M  V30 2641 O 269.786 -4.10962 -1.51795 0
M  V30 2642 C 271.287 -3.19536 -3.07264 0
M  V30 2643 H 268.507 -0.577301 -0.342001 0
M  V30 2644 H 271.051 -1.99712 -0.439935 0
M  V30 2645 H 269.206 -2.63492 -2.83991 0
M  V30 2646 H 269.62 -4.75693 -2.20945 0
M  V30 2647 H 271.094 -4.03959 -3.76193 0
M  V30 2648 H 271.571 -2.34403 -3.71419 0
M  V30 2649 H 272.177 -3.46186 -2.47053 0
M  V30 2650 N 270.492 0.636531 -1.44174 0
M  V30 2651 C 271.741 1.39213 -1.45954 0
M  V30 2652 C 272.054 1.95374 -0.0939119 0
M  V30 2653 O 273.26 2.71498 0.0107767 0
M  V30 2654 C 271.716 2.52025 -2.56927 0
M  V30 2655 C 271.324 2.024 -3.99673 0
M  V30 2656 C 273.068 3.29269 -2.67922 0
M  V30 2657 C 270.975 3.12521 -5.0208 0
M  V30 2658 H 269.905 0.523132 -0.542999 0
M  V30 2659 H 272.556 0.685349 -1.70221 0
M  V30 2660 H 270.938 3.25253 -2.25891 0
M  V30 2661 H 272.112 1.36073 -4.40251 0
M  V30 2662 H 270.427 1.37987 -3.92872 0
M  V30 2663 H 273.024 4.11352 -3.41605 0
M  V30 2664 H 273.367 3.78397 -1.73555 0
M  V30 2665 H 273.9 2.63129 -2.98342 0
M  V30 2666 H 270.639 2.68343 -5.98057 0
M  V30 2667 H 270.159 3.77507 -4.66099 0
M  V30 2668 H 271.838 3.77385 -5.25538 0
M  V30 2669 N 271.97 1.30982 0.876444 0
M  V30 2670 C 272.917 1.18085 1.98304 0
M  V30 2671 C 273.887 0.0682263 1.6596 0
M  V30 2672 O 275.072 0.239937 1.89285 0
M  V30 2673 C 272.212 0.887475 3.33493 0
M  V30 2674 C 271.325 2.08281 3.78475 0
M  V30 2675 C 270.46 1.72678 5.0235 0
M  V30 2676 C 269.499 2.88657 5.39762 0
M  V30 2677 N 268.636 2.53292 6.54819 0
M  V30 2678 H 273.476 2.1275 2.08666 0
M  V30 2679 H 271.013 1.05839 1.02159 0
M  V30 2680 H 272.971 0.697961 4.1132 0
M  V30 2681 H 271.601 -0.022315 3.22792 0
M  V30 2682 H 270.653 2.3833 2.96484 0
M  V30 2683 H 271.965 2.95108 4.02135 0
M  V30 2684 H 271.119 1.50151 5.87826 0
M  V30 2685 H 269.858 0.830327 4.8058 0
M  V30 2686 H 268.863 3.1184 4.52809 0
M  V30 2687 H 270.088 3.79002 5.63502 0
M  V30 2688 H 268.034 1.66163 6.34607 0
M  V30 2689 H 267.951 3.3365 6.7839 0
M  V30 2690 H 269.219 2.34143 7.43503 0
M  V30 2691 N 273.449 -1.08991 1.13837 0
M  V30 2692 C 274.381 -2.15606 0.777612 0
M  V30 2693 C 275.394 -1.61533 -0.202739 0
M  V30 2694 O 276.583 -1.78491 0.0181055 0
M  V30 2695 C 273.683 -3.3864 0.132623 0
M  V30 2696 C 272.856 -4.22115 1.1462 0
M  V30 2697 C 271.915 -5.23564 0.526074 0
M  V30 2698 O 270.941 -5.56678 1.18735 0
M  V30 2699 N 272.143 -5.76266 -0.699866 0
M  V30 2700 H 274.908 -2.47159 1.69506 0
M  V30 2701 H 272.469 -1.24747 1.03198 0
M  V30 2702 H 274.461 -4.03626 -0.29459 0
M  V30 2703 H 273.031 -3.04938 -0.687849 0
M  V30 2704 H 272.251 -3.53199 1.75055 0
M  V30 2705 H 273.539 -4.74709 1.83109 0
M  V30 2706 H 272.937 -5.51585 -1.25581 0
M  V30 2707 H 271.494 -6.42963 -1.06968 0
M  V30 2708 N 274.927 -0.932562 -1.27047 0
M  V30 2709 C 275.877 -0.406392 -2.24349 0
M  V30 2710 C 276.861 0.492066 -1.53191 0
M  V30 2711 O 278.053 0.328717 -1.73921 0
M  V30 2712 C 275.182 0.335214 -3.41659 0
M  V30 2713 C 274.268 -0.58004 -4.20115 0
M  V30 2714 N 274.659 -1.70203 -4.76303 0
M  V30 2715 C 272.957 -0.383974 -4.44344 0
M  V30 2716 C 273.658 -2.27167 -5.35509 0
M  V30 2717 N 272.634 -1.56068 -5.20715 0
M  V30 2718 H 276.436 -1.26299 -2.65378 0
M  V30 2719 H 273.95 -0.787408 -1.42034 0
M  V30 2720 H 275.947 0.729142 -4.10474 0
M  V30 2721 H 274.607 1.18868 -3.0216 0
M  V30 2722 H 275.618 -2.08433 -4.74106 0
M  V30 2723 H 272.295 0.428436 -4.15296 0
M  V30 2724 H 273.685 -3.21654 -5.89905 0
M  V30 2725 N 276.405 1.4127 -0.698611 0
M  V30 2726 C 277.633 2.05503 -0.239992 0
M  V30 2727 C 278.048 1.52584 1.11191 0
M  V30 2728 O 277.405 0.675323 1.69545 0
M  V30 2729 C 277.456 3.60987 -0.192429 0
M  V30 2730 O 277.177 4.1195 -1.49094 0
M  V30 2731 C 278.678 4.42371 0.28681 0
M  V30 2732 H 275.898 0.661748 -0.111045 0
M  V30 2733 H 278.442 1.80987 -0.95205 0
M  V30 2734 H 276.597 3.84533 0.470472 0
M  V30 2735 H 277.011 5.06018 -1.38007 0
M  V30 2736 H 278.485 5.51344 0.26896 0
M  V30 2737 H 278.962 4.18699 1.32619 0
M  V30 2738 H 279.568 4.23897 -0.345201 0
M  V30 2739 N 277.883 0.443576 1.51229 0
M  V30 2740 C 279.129 -0.120975 2.02439 0
M  V30 2741 C 279.462 -1.41815 1.32674 0
M  V30 2742 O 278.737 -1.89373 0.443622 0
M  V30 2743 C 279.02 -0.333291 3.58554 0
M  V30 2744 C 278.873 0.982968 4.38928 0
M  V30 2745 C 280.192 -1.10028 4.26124 0
M  V30 2746 H 277.311 -0.0424923 0.735774 0
M  V30 2747 H 279.953 0.583794 1.80809 0
M  V30 2748 H 278.103 -0.933614 3.77115 0
M  V30 2749 H 279.775 1.61775 4.32003 0
M  V30 2750 H 278.018 1.58611 4.03763 0
M  V30 2751 H 278.689 0.788379 5.46341 0
M  V30 2752 H 281.165 -0.591711 4.11871 0
M  V30 2753 H 280.041 -1.21761 5.35225 0
M  V30 2754 H 280.302 -2.12996 3.87408 0
M  V30 2755 N 279.361 -1.56624 0.175154 0
M  V30 2756 C 280.589 -2.01374 -0.474971 0
M  V30 2757 C 281.004 -1.05537 -1.56548 0
M  V30 2758 O 280.361 -0.0568668 -1.82411 0
M  V30 2759 C 280.412 -3.45923 -1.04975 0
M  V30 2760 O 280.133 -4.381 -0.00276605 0
M  V30 2761 C 281.634 -4.06093 -1.77773 0
M  V30 2762 H 278.854 -0.659962 -0.121206 0
M  V30 2763 H 281.398 -2.02601 0.27801 0
M  V30 2764 H 279.553 -3.45458 -1.75321 0
M  V30 2765 H 279.967 -5.22753 -0.427681 0
M  V30 2766 H 281.441 -5.09147 -2.13245 0
M  V30 2767 H 281.918 -3.48405 -2.67414 0
M  V30 2768 H 282.524 -4.10272 -1.12059 0
M  V30 2769 N 280.839 0.0985539 -1.57292 0
M  V30 2770 C 282.067 0.816318 -1.90115 0
M  V30 2771 C 282.482 1.72451 -0.768509 0
M  V30 2772 O 281.839 1.80643 0.259687 0
M  V30 2773 C 281.89 1.63259 -3.22535 0
M  V30 2774 O 281.611 0.760934 -4.31441 0
M  V30 2775 C 283.112 2.45372 -3.69199 0
M  V30 2776 H 280.332 0.233595 -0.629027 0
M  V30 2777 H 282.876 0.0768229 -2.04356 0
M  V30 2778 H 281.031 2.32463 -3.09903 0
M  V30 2779 H 281.445 1.32595 -5.07463 0
M  V30 2780 H 282.919 2.98144 -4.64558 0
M  V30 2781 H 283.396 3.23677 -2.96867 0
M  V30 2782 H 284.002 1.81373 -3.84687 0
M  V30 2783 N 282.317 1.53212 0.369288 0
M  V30 2784 C 283.545 1.73119 1.13303 0
M  V30 2785 C 283.96 0.458455 1.83149 0
M  V30 2786 O 283.317 -0.568403 1.73423 0
M  V30 2787 C 283.368 2.89413 2.16616 0
M  V30 2788 O 283.089 4.11761 1.49614 0
M  V30 2789 C 284.59 3.21161 3.05566 0
M  V30 2790 H 281.81 0.579107 0.338934 0
M  V30 2791 H 284.354 1.99942 0.429338 0
M  V30 2792 H 282.509 2.64994 2.82589 0
M  V30 2793 H 282.923 4.76858 2.18419 0
M  V30 2794 H 284.397 4.05949 3.74045 0
M  V30 2795 H 284.874 2.36369 3.70171 0
M  V30 2796 H 285.48 3.47492 2.45213 0
M  V30 2797 N 283.795 -0.628877 1.44509 0
M  V30 2798 C 285.023 -1.41554 1.50897 0
M  V30 2799 C 285.438 -1.8832 0.134564 0
M  V30 2800 O 284.795 -1.60969 -0.859965 0
M  V30 2801 C 284.846 -2.63435 2.47556 0
M  V30 2802 O 284.567 -2.18619 3.79654 0
M  V30 2803 C 286.068 -3.56537 2.63431 0
M  V30 2804 H 283.288 -0.434044 0.511709 0
M  V30 2805 H 285.832 -0.768895 1.89495 0
M  V30 2806 H 283.987 -3.24187 2.12089 0
M  V30 2807 H 284.401 -2.97652 4.31861 0
M  V30 2808 H 285.875 -4.38657 3.35088 0
M  V30 2809 H 286.352 -4.05493 1.68738 0
M  V30 2810 H 286.958 -3.01653 2.9981 0
M  V30 2811 N 285.273 -1.31445 -0.869486 0
M  V30 2812 C 286.22 -1.19135 -1.97675 0
M  V30 2813 C 287.19 -0.0770266 -1.65921 0
M  V30 2814 O 288.375 -0.249972 -1.89155 0
M  V30 2815 C 285.515 -0.905149 -3.33018 0
M  V30 2816 C 284.628 -2.10285 -3.77365 0
M  V30 2817 C 283.763 -1.75339 -5.01427 0
M  V30 2818 C 282.802 -2.91515 -5.38224 0
M  V30 2819 N 281.939 -2.56762 -6.53466 0
M  V30 2820 H 286.779 -2.13853 -2.07535 0
M  V30 2821 H 284.316 -1.06379 -1.01597 0
M  V30 2822 H 286.274 -0.719765 -4.10944 0
M  V30 2823 H 284.904 0.00519624 -3.228 0
M  V30 2824 H 283.956 -2.39899 -2.95216 0
M  V30 2825 H 285.268 -2.97237 -4.00564 0
M  V30 2826 H 284.422 -1.53266 -5.87022 0
M  V30 2827 H 283.161 -0.855801 -4.80133 0
M  V30 2828 H 282.166 -3.14237 -4.51149 0
M  V30 2829 H 283.391 -3.81985 -5.61484 0
M  V30 2830 H 281.337 -1.69526 -6.33717 0
M  V30 2831 H 281.254 -3.37243 -6.76612 0
M  V30 2832 H 282.522 -2.38083 -7.42251 0
M  V30 2833 N 286.751 1.08385 -1.14413 0
M  V30 2834 C 287.999 1.80419 -0.910679 0
M  V30 2835 C 288.32 1.86658 0.564243 0
M  V30 2836 O 287.59 1.35985 1.41014 0
M  V30 2837 H 286.17 0.668204 -0.333934 0
M  V30 2838 H 288.832 1.31037 -1.44275 0
M  V30 2839 H 287.928 2.83238 -1.31082 0
M  V30 2840 N 288.23 0.939286 1.26551 0
M  V30 2841 C 289.14 0.453432 2.30176 0
M  V30 2842 C 290.156 -0.471649 1.67486 0
M  V30 2843 O 291.332 -0.35164 1.98306 0
M  V30 2844 C 288.397 -0.275326 3.45605 0
M  V30 2845 C 287.458 0.686084 4.23782 0
M  V30 2846 C 286.691 -0.00798994 5.33699 0
M  V30 2847 O 286.914 -1.22528 5.57085 0
M  V30 2848 O 285.848 0.669746 5.98162 0
M  V30 2849 H 289.674 1.31416 2.73795 0
M  V30 2850 H 287.259 0.705095 1.31715 0
M  V30 2851 H 289.141 -0.685911 4.1578 0
M  V30 2852 H 287.816 -1.11147 3.0402 0
M  V30 2853 H 286.723 1.14658 3.56096 0
M  V30 2854 H 288.056 1.48979 4.69112 0
M  V30 2855 N 289.708 -1.40897 0.706093 0
M  V30 2856 C 290.656 -2.32572 0.0361893 0
M  V30 2857 C 291.65 -1.51532 -0.757266 0
M  V30 2858 O 292.856 -1.67396 -0.661703 0
M  V30 2859 H 289.231 -0.751966 -0.00709935 0
M  V30 2860 H 291.202 -2.86733 0.826249 0
M  V30 2861 C 289.951 -3.36418 -0.87854 0
M  V30 2862 H 289.274 -3.98836 -0.277401 0
M  V30 2863 H 290.714 -4.0308 -1.3154 0
M  V30 2864 C 289.173 -2.71141 -1.99961 0
M  V30 2865 O 289.703 -2.56735 -3.0895 0
M  V30 2866 N 287.909 -2.29671 -1.78043 0
M  V30 2867 H 287.456 -2.41588 -0.894042 0
M  V30 2868 H 287.414 -1.86332 -2.53235 0
M  V30 2869 N 291.186 -0.45159 -1.50991 0
M  V30 2870 C 292.433 0.110074 -2.02201 0
M  V30 2871 C 292.761 1.4146 -1.33489 0
M  V30 2872 O 292.016 1.90617 -0.443125 0
M  V30 2873 C 292.315 0.361728 -3.55565 0
M  V30 2874 C 291.981 -0.858717 -4.42648 0
M  V30 2875 C 290.643 -1.19338 -4.66167 0
M  V30 2876 C 292.995 -1.67221 -4.93646 0
M  V30 2877 C 290.323 -2.34195 -5.37931 0
M  V30 2878 C 292.675 -2.8119 -5.6667 0
M  V30 2879 C 291.339 -3.15094 -5.88449 0
M  V30 2880 H 290.609 0.040279 -0.739904 0
M  V30 2881 H 293.256 -0.601696 -1.81802 0
M  V30 2882 H 291.561 1.15554 -3.74372 0
M  V30 2883 H 293.258 0.80996 -3.92735 0
M  V30 2884 H 289.848 -0.58796 -4.24548 0
M  V30 2885 H 294.032 -1.42686 -4.75347 0
M  V30 2886 H 289.288 -2.6076 -5.53005 0
M  V30 2887 H 293.462 -3.44585 -6.05173 0
M  V30 2888 H 291.089 -4.04204 -6.43835 0
M  V30 2889 N 292.664 1.56529 -0.183458 0
M  V30 2890 C 293.892 2.01623 0.464285 0
M  V30 2891 C 294.307 1.06366 1.55986 0
M  V30 2892 O 293.664 0.0665398 1.82379 0
M  V30 2893 C 293.715 3.46475 1.03139 0
M  V30 2894 O 293.436 4.38095 -0.0204675 0
M  V30 2895 C 294.937 4.0703 1.75617 0
M  V30 2896 H 292.157 0.660596 0.117704 0
M  V30 2897 H 294.701 2.02451 -0.288751 0
M  V30 2898 H 292.856 3.46383 1.73486 0
M  V30 2899 H 293.27 5.22973 0.399952 0
M  V30 2900 H 294.744 5.10271 2.10542 0
M  V30 2901 H 295.221 3.49819 2.65563 0
M  V30 2902 H 295.827 4.1086 1.09882 0
M  V30 2903 N 294.142 -0.090211 1.57342 0
M  V30 2904 C 295.052 -1.12735 2.05738 0
M  V30 2905 C 296.068 -1.43557 0.983231 0
M  V30 2906 O 297.244 -1.54101 1.29672 0
M  V30 2907 C 294.309 -2.42659 2.47624 0
M  V30 2908 C 293.37 -2.18975 3.69254 0
M  V30 2909 C 292.603 -3.42704 4.09133 0
M  V30 2910 O 292.826 -4.51127 3.49057 0
M  V30 2911 O 291.76 -3.32003 5.02053 0
M  V30 2912 H 295.586 -0.746279 2.94388 0
M  V30 2913 H 293.171 -0.303064 1.46294 0
M  V30 2914 H 295.053 -3.19155 2.7517 0
M  V30 2915 H 293.728 -2.80182 1.62109 0
M  V30 2916 H 292.635 -1.40244 3.46818 0
M  V30 2917 H 293.968 -1.86342 4.55563 0
M  V30 2918 N 295.62 -1.53406 -0.361157 0
M  V30 2919 C 296.848 -1.73717 -1.12383 0
M  V30 2920 C 297.263 -0.468161 -1.82904 0
M  V30 2921 O 296.62 0.559198 -1.73722 0
M  V30 2922 C 296.671 -2.90558 -2.15078 0
M  V30 2923 O 296.392 -4.12549 -1.47428 0
M  V30 2924 C 297.893 -3.22777 -3.03858 0
M  V30 2925 H 295.113 -0.580896 -0.335858 0
M  V30 2926 H 297.657 -2.00167 -0.418728 0
M  V30 2927 H 295.812 -2.66489 -2.8118 0
M  V30 2928 H 296.226 -4.78009 -2.15887 0
M  V30 2929 H 297.7 -4.07927 -3.71887 0
M  V30 2930 H 298.177 -2.38329 -3.68912 0
M  V30 2931 H 298.783 -3.48787 -2.43367 0
M  V30 2932 N 297.098 0.621204 -1.44841 0
M  V30 2933 C 298.375 1.38 -1.38619 0
M  V30 2934 C 298.755 2.11041 -0.0498935 0
M  V30 2935 O 298.103 2.06992 0.967816 0
M  V30 2936 C 298.313 2.33817 -2.59096 0
M  V30 2937 C 299.661 2.96844 -3.03593 0
M  V30 2938 O 300.685 2.44141 -2.59371 0
M  V30 2939 O 299.544 3.92476 -3.80296 0
M  V30 2940 H 296.638 0.61811 -0.549426 0
M  V30 2941 H 299.184 0.645429 -1.56947 0
M  V30 2942 H 297.956 1.79012 -3.47952 0
M  V30 2943 H 297.579 3.14676 -2.43032 0
M  V30 2944 N 298.576 1.31904 0.862503 0
M  V30 2945 C 299.822 1.22197 1.61851 0
M  V30 2946 C 300.155 -0.217641 1.92977 0
M  V30 2947 O 299.43 -1.15264 1.56666 0
M  V30 2948 C 299.713 2.07378 2.94391 0
M  V30 2949 C 299.566 3.59678 2.70096 0
M  V30 2950 C 300.885 1.92891 3.95577 0
M  V30 2951 H 298.004 0.445255 0.587296 0
M  V30 2952 H 300.646 1.6177 0.99651 0
M  V30 2953 H 298.796 1.73758 3.47477 0
M  V30 2954 H 300.468 4.03472 2.23625 0
M  V30 2955 H 298.711 3.82735 2.04197 0
M  V30 2956 H 299.382 4.14595 3.64438 0
M  V30 2957 H 301.858 2.22327 3.51724 0
M  V30 2958 H 300.734 2.54781 4.86187 0
M  V30 2959 H 300.995 0.894315 4.3296 0
M  V30 2960 N 300.054 -1.07777 1.14986 0
M  V30 2961 C 301.001 -2.14867 0.842672 0
M  V30 2962 C 301.971 -1.6486 -0.202552 0
M  V30 2963 O 303.156 -1.90668 -0.0710568 0
M  V30 2964 C 300.296 -3.43486 0.333363 0
M  V30 2965 C 299.409 -4.07306 1.43965 0
M  V30 2966 C 298.544 -5.23744 0.886914 0
M  V30 2967 C 297.583 -5.79517 1.97043 0
M  V30 2968 N 296.72 -6.87291 1.4344 0
M  V30 2969 H 301.56 -2.40485 1.75986 0
M  V30 2970 H 299.097 -1.1801 0.878179 0
M  V30 2971 H 301.055 -4.17195 0.0198163 0
M  V30 2972 H 299.685 -3.18133 -0.546916 0
M  V30 2973 H 298.737 -3.31293 1.86946 0
M  V30 2974 H 300.049 -4.44771 2.25788 0
M  V30 2975 H 299.203 -6.04419 0.525651 0
M  V30 2976 H 297.942 -4.87685 0.0377957 0
M  V30 2977 H 296.947 -4.97491 2.34057 0
M  V30 2978 H 298.172 -6.17632 2.82325 0
M  V30 2979 H 296.118 -6.5318 0.607567 0
M  V30 2980 H 296.035 -7.23617 2.18895 0
M  V30 2981 H 297.303 -7.71682 1.10124 0
M  V30 2982 N 301.532 -0.945985 -1.26051 0
M  V30 2983 C 302.465 -0.403619 -2.24602 0
M  V30 2984 C 303.443 0.510241 -1.54387 0
M  V30 2985 O 304.627 0.446593 -1.83133 0
M  V30 2986 C 301.754 0.419564 -3.36091 0
M  V30 2987 C 300.8 -0.433454 -4.24292 0
M  V30 2988 S 301.633 -1.86037 -5.02146 0
M  V30 2989 C 302.789 -1.04538 -6.17108 0
M  V30 2990 H 303.022 -1.23883 -2.7026 0
M  V30 2991 H 300.555 -0.749438 -1.34992 0
M  V30 2992 H 302.513 0.888595 -4.00767 0
M  V30 2993 H 301.174 1.22951 -2.89036 0
M  V30 2994 H 300.367 0.197486 -5.03613 0
M  V30 2995 H 299.969 -0.837357 -3.64506 0
M  V30 2996 H 302.261 -0.289923 -6.76879 0
M  V30 2997 H 303.204 -1.81222 -6.84518 0
M  V30 2998 H 303.612 -0.579319 -5.61519 0
M  V30 2999 N 303.011 1.40521 -0.713556 0
M  V30 3000 C 303.944 2.28198 -0.00881422 0
M  V30 3001 C 304.922 1.43227 0.769735 0
M  V30 3002 O 306.106 1.72641 0.756799 0
M  V30 3003 C 303.233 3.23758 0.994899 0
M  V30 3004 C 302.279 4.25391 0.3074 0
M  V30 3005 S 303.112 5.26765 -0.963247 0
M  V30 3006 C 304.268 6.25888 0.0384143 0
M  V30 3007 H 304.501 2.87622 -0.752407 0
M  V30 3008 H 302.034 1.45925 -0.504502 0
M  V30 3009 H 303.992 3.79341 1.56879 0
M  V30 3010 H 302.653 2.63396 1.71118 0
M  V30 3011 H 301.846 4.92596 1.0661 0
M  V30 3012 H 301.448 3.73497 -0.193879 0
M  V30 3013 H 303.74 6.71683 0.885912 0
M  V30 3014 H 304.683 7.05552 -0.60019 0
M  V30 3015 H 305.091 5.63072 0.401233 0
M  V30 3016 N 304.489 0.459591 1.5075 0
M  V30 3017 C 305.399 -0.34613 2.32033 0
M  V30 3018 C 306.415 -1.00686 1.41909 0
M  V30 3019 O 307.591 -0.997361 1.7497 0
M  V30 3020 C 304.656 -1.42029 3.16273 0
M  V30 3021 C 303.717 -0.777362 4.22203 0
M  V30 3022 C 302.95 -1.80034 5.02418 0
M  V30 3023 O 303.173 -3.02544 4.83553 0
M  V30 3024 O 302.107 -1.37853 5.85901 0
M  V30 3025 H 305.933 0.318054 3.0203 0
M  V30 3026 H 303.518 0.221663 1.47746 0
M  V30 3027 H 305.4 -2.04275 3.68578 0
M  V30 3028 H 304.075 -2.06815 2.49016 0
M  V30 3029 H 302.982 -0.116256 3.73919 0
M  V30 3030 H 304.315 -0.172634 4.91897 0
M  V30 3031 N 305.967 -1.56429 0.191757 0
M  V30 3032 C 307.383 -1.58754 -0.164137 0
M  V30 3033 C 307.583 -1.20782 -1.61288 0
M  V30 3034 O 306.639 -0.928999 -2.34789 0
M  V30 3035 C 307.952 -3.00396 0.135195 0
M  V30 3036 C 309.5 -3.1291 0.0750351 0
M  V30 3037 C 309.975 -4.56679 0.347632 0
M  V30 3038 N 311.466 -4.62252 0.296131 0
M  V30 3039 C 312.201 -5.71379 0.480948 0
M  V30 3040 N 311.697 -6.88986 0.725933 0
M  V30 3041 N 313.49 -5.60563 0.415435 0
M  V30 3042 H 305.641 -1.79393 1.13718 0
M  V30 3043 H 307.904 -0.832414 0.453643 0
M  V30 3044 H 307.61 -3.32726 1.13958 0
M  V30 3045 H 307.484 -3.72963 -0.563773 0
M  V30 3046 H 309.871 -2.80394 -0.919948 0
M  V30 3047 H 309.952 -2.42736 0.807029 0
M  V30 3048 H 309.596 -4.89907 1.33992 0
M  V30 3049 H 309.526 -5.25039 -0.405212 0
M  V30 3050 H 312.017 -3.7773 0.113259 0
M  V30 3051 H 312.33 -7.68046 0.855857 0
M  V30 3052 H 310.675 -6.90801 0.762788 0
M  V30 3053 H 313.866 -4.67561 0.224486 0
M  V30 3054 H 314.039 -6.45551 0.562889 0
M  V30 3055 N 307.445 0.0818655 -1.57387 0
M  V30 3056 C 308.691 0.784074 -1.8703 0
M  V30 3057 C 309.024 1.77729 -0.782689 0
M  V30 3058 O 308.299 1.93384 0.208051 0
M  V30 3059 C 308.582 1.50105 -3.27323 0
M  V30 3060 C 308.435 0.524925 -4.46727 0
M  V30 3061 C 309.754 2.44843 -3.65705 0
M  V30 3062 H 306.873 0.283582 -0.680257 0
M  V30 3063 H 309.515 0.0474352 -1.89941 0
M  V30 3064 H 307.665 2.12897 -3.24972 0
M  V30 3065 H 309.337 -0.0970111 -4.61198 0
M  V30 3066 H 307.58 -0.160606 -4.33503 0
M  V30 3067 H 308.251 1.064 -5.41648 0
M  V30 3068 H 310.727 1.92135 -3.69085 0
M  V30 3069 H 309.603 2.92018 -4.64776 0
M  V30 3070 H 309.864 3.29197 -2.95096 0
M  V30 3071 N 308.923 1.53595 0.353017 0
M  V30 3072 C 310.169 1.70638 1.09593 0
M  V30 3073 C 310.502 0.463286 1.88593 0
M  V30 3074 O 309.777 -0.539597 1.86865 0
M  V30 3075 C 310.06 2.96406 2.04489 0
M  V30 3076 C 309.913 4.30901 1.29014 0
M  V30 3077 C 311.232 3.17812 3.0444 0
M  V30 3078 H 308.351 0.620913 0.397034 0
M  V30 3079 H 310.993 1.86254 0.375446 0
M  V30 3080 H 309.143 2.83223 2.65927 0
M  V30 3081 H 310.815 4.55917 0.702638 0
M  V30 3082 H 309.058 4.29741 0.592071 0
M  V30 3083 H 309.729 5.1506 1.98537 0
M  V30 3084 H 312.205 3.30263 2.53112 0
M  V30 3085 H 311.081 4.07223 3.6805 0
M  V30 3086 H 311.342 2.33669 3.75301 0
M  V30 3087 N 310.401 -0.613514 1.45168 0
M  V30 3088 C 311.311 -1.75296 1.55912 0
M  V30 3089 C 312.327 -1.68244 0.443856 0
M  V30 3090 O 313.503 -1.88706 0.70371 0
M  V30 3091 C 310.568 -3.1174 1.5172 0
M  V30 3092 C 309.629 -3.30291 2.74238 0
M  V30 3093 C 308.862 -4.60226 2.70236 0
M  V30 3094 O 309.085 -5.42168 1.77229 0
M  V30 3095 O 308.019 -4.81361 3.61352 0
M  V30 3096 H 311.845 -1.69183 2.52212 0
M  V30 3097 H 309.43 -0.776886 1.27612 0
M  V30 3098 H 311.312 -3.93044 1.51968 0
M  V30 3099 H 309.987 -3.18357 0.585697 0
M  V30 3100 H 308.894 -2.48598 2.79553 0
M  V30 3101 H 310.227 -3.28547 3.66494 0
M  V30 3102 N 311.879 -1.3236 -0.855495 0
M  V30 3103 C 312.811 -1.17052 -1.97057 0
M  V30 3104 C 313.824 -0.10574 -1.62456 0
M  V30 3105 O 315.013 -0.354619 -1.74942 0
M  V30 3106 C 312.113 -0.769305 -3.30053 0
M  V30 3107 C 311.286 -1.9222 -3.929 0
M  V30 3108 C 310.345 -1.50466 -5.04228 0
M  V30 3109 O 309.371 -2.21655 -5.24269 0
M  V30 3110 N 310.573 -0.400209 -5.79119 0
M  V30 3111 H 313.338 -2.13103 -2.1073 0
M  V30 3112 H 310.899 -1.24885 -1.0303 0
M  V30 3113 H 312.891 -0.472407 -4.01933 0
M  V30 3114 H 311.461 0.100025 -3.1244 0
M  V30 3115 H 310.681 -2.38563 -3.13817 0
M  V30 3116 H 311.969 -2.69403 -4.31624 0
M  V30 3117 H 311.367 0.192319 -5.65373 0
M  V30 3118 H 309.924 -0.162912 -6.51596 0
M  V30 3119 N 313.357 1.07166 -1.15556 0
M  V30 3120 C 314.29 2.13808 -0.797593 0
M  V30 3121 C 315.268 1.6101 0.226812 0
M  V30 3122 O 316.452 1.88161 0.112932 0
M  V30 3123 C 313.579 3.38187 -0.186371 0
M  V30 3124 C 312.625 4.09766 -1.18297 0
M  V30 3125 S 313.458 4.60932 -2.72584 0
M  V30 3126 C 314.614 5.88583 -2.12886 0
M  V30 3127 H 314.847 2.43843 -1.70083 0
M  V30 3128 H 312.38 1.19467 -0.978106 0
M  V30 3129 H 314.338 4.10189 0.159837 0
M  V30 3130 H 312.999 3.06326 0.694489 0
M  V30 3131 H 312.192 4.99065 -0.703562 0
M  V30 3132 H 311.794 3.43736 -1.47381 0
M  V30 3133 H 314.086 6.60866 -1.49208 0
M  V30 3134 H 315.029 6.41241 -3.0036 0
M  V30 3135 H 315.437 5.42194 -1.57116 0
M  V30 3136 N 314.835 0.952656 1.25548 0
M  V30 3137 C 316.075 0.614013 1.9496 0
M  V30 3138 C 316.439 -0.833215 1.72978 0
M  V30 3139 O 317.64 -1.28135 2.36294 0
M  V30 3140 C 315.911 0.960562 3.4425 0
M  V30 3141 S 317.47 0.734195 4.32614 0
M  V30 3142 H 314.288 0.225754 0.674208 0
M  V30 3143 H 316.89 1.22641 1.52248 0
M  V30 3144 H 315.594 2.01103 3.57751 0
M  V30 3145 H 315.125 0.338336 3.91942 0
M  V30 3146 H 317.14 -0.395995 4.94617 0
M  V30 3147 N 316.313 -1.40141 0.720998 0
M  V30 3148 C 317.562 -2.0002 0.259804 0
M  V30 3149 C 317.875 -1.57839 -1.15526 0
M  V30 3150 O 319.081 -2.10455 -1.71525 0
M  V30 3151 C 317.537 -3.57516 0.413566 0
M  V30 3152 C 317.145 -4.08667 1.83562 0
M  V30 3153 C 318.889 -4.24498 0.0134387 0
M  V30 3154 C 316.796 -5.58686 1.93968 0
M  V30 3155 H 315.726 -0.748195 0.0933806 0
M  V30 3156 H 318.377 -1.60313 0.892866 0
M  V30 3157 H 316.759 -3.9495 -0.288169 0
M  V30 3158 H 317.933 -3.82598 2.56817 0
M  V30 3159 H 316.248 -3.543 2.1877 0
M  V30 3160 H 318.845 -5.34654 0.0703954 0
M  V30 3161 H 319.188 -4.03375 -1.02927 0
M  V30 3162 H 319.721 -3.92188 0.665815 0
M  V30 3163 H 316.46 -5.8467 2.96379 0
M  V30 3164 H 315.98 -5.86602 1.25131 0
M  V30 3165 H 317.659 -6.23875 1.71431 0
M  V30 3166 N 317.792 -0.46758 -1.50504 0
M  V30 3167 C 319.02 0.0864133 -2.06719 0
M  V30 3168 C 319.435 1.33819 -1.33184 0
M  V30 3169 O 318.792 1.78061 -0.400083 0
M  V30 3170 C 318.843 0.378079 -3.59517 0
M  V30 3171 O 318.564 -0.824044 -4.3028 0
M  V30 3172 C 320.065 0.979426 -4.32345 0
M  V30 3173 H 317.285 -0.00551697 -0.670977 0
M  V30 3174 H 319.829 -0.655354 -1.93715 0
M  V30 3175 H 317.984 1.06977 -3.72337 0
M  V30 3176 H 318.398 -0.566518 -5.21432 0
M  V30 3177 H 319.872 1.1333 -5.40241 0
M  V30 3178 H 320.349 1.9686 -3.9261 0
M  V30 3179 H 320.955 0.326216 -4.24047 0
M  V30 3180 N 319.27 1.56325 -0.20005 0
M  V30 3181 C 320.202 2.16555 0.750771 0
M  V30 3182 C 321.215 1.12871 1.1732 0
M  V30 3183 O 322.404 1.39943 1.10807 0
M  V30 3184 C 319.504 2.71684 2.02586 0
M  V30 3185 C 318.677 4.00321 1.76244 0
M  V30 3186 C 317.736 4.40227 2.88248 0
M  V30 3187 O 316.762 5.07552 2.57642 0
M  V30 3188 N 317.964 4.04138 4.16717 0
M  V30 3189 H 320.729 2.98772 0.235685 0
M  V30 3190 H 318.29 1.6189 -0.0182594 0
M  V30 3191 H 320.282 2.95363 2.76664 0
M  V30 3192 H 318.852 1.93893 2.45202 0
M  V30 3193 H 318.072 3.84723 0.85919 0
M  V30 3194 H 319.36 4.84279 1.56048 0
M  V30 3195 H 318.758 3.49993 4.44434 0
M  V30 3196 H 317.315 4.32756 4.87407 0
M  V30 3197 N 320.748 -0.0735177 1.57428 0
M  V30 3198 C 321.978 -0.78483 1.91112 0
M  V30 3199 C 322.386 -1.71729 0.7941 0
M  V30 3200 O 321.729 -1.82105 -0.241542 0
M  V30 3201 C 321.791 -1.63346 3.20247 0
M  V30 3202 C 321.455 -0.870557 4.48632 0
M  V30 3203 C 322.452 -0.19058 5.19551 0
M  V30 3204 C 320.137 -0.838242 4.95256 0
M  V30 3205 C 322.131 0.511503 6.35344 0
M  V30 3206 C 319.818 -0.132386 6.10957 0
M  V30 3207 C 320.816 0.541288 6.80852 0
M  V30 3208 O 320.504 1.23578 7.94345 0
M  V30 3209 H 320.236 -0.228408 0.636244 0
M  V30 3210 H 322.79 -0.0486039 2.05342 0
M  V30 3211 H 321.02 -2.41245 3.02222 0
M  V30 3212 H 322.709 -2.22329 3.39595 0
M  V30 3213 H 323.475 -0.206864 4.84559 0
M  V30 3214 H 319.354 -1.35206 4.40727 0
M  V30 3215 H 322.898 1.03789 6.89836 0
M  V30 3216 H 318.795 -0.114023 6.45399 0
M  V30 3217 H 319.563 1.14487 8.10454 0
M  V30 3218 N 322.226 -1.5378 -0.344866 0
M  V30 3219 C 323.136 -1.84667 -1.4469 0
M  V30 3220 C 324.152 -0.736704 -1.57635 0
M  V30 3221 O 325.328 -1.02888 -1.73136 0
M  V30 3222 C 322.393 -2.04869 -2.79696 0
M  V30 3223 C 321.454 -3.28731 -2.76106 0
M  V30 3224 C 320.687 -3.4796 -4.04673 0
M  V30 3225 O 320.91 -2.71052 -5.01883 0
M  V30 3226 O 319.844 -4.41383 -4.09224 0
M  V30 3227 H 323.67 -2.78334 -1.21506 0
M  V30 3228 H 321.255 -1.39418 -0.536921 0
M  V30 3229 H 323.137 -2.19609 -3.59652 0
M  V30 3230 H 321.812 -1.14391 -3.02814 0
M  V30 3231 H 320.719 -3.19396 -1.94774 0
M  V30 3232 H 322.052 -4.19198 -2.57941 0
M  V30 3233 N 323.704 0.605807 -1.45491 0
M  V30 3234 C 325.12 0.926751 -1.29936 0
M  V30 3235 C 325.32 1.99896 -0.253706 0
M  V30 3236 O 324.376 2.50038 0.351737 0
M  V30 3237 C 325.689 1.36599 -2.67883 0
M  V30 3238 C 327.237 1.4801 -2.75793 0
M  V30 3239 C 327.712 1.95309 -4.14268 0
M  V30 3240 N 329.203 2.0254 -4.16571 0
M  V30 3241 C 329.938 2.40363 -5.20589 0
M  V30 3242 N 329.434 2.77143 -6.34952 0
M  V30 3243 N 331.227 2.40718 -5.07948 0
M  V30 3244 H 323.378 -0.102862 -2.12151 0
M  V30 3245 H 325.641 0.016639 -0.947854 0
M  V30 3246 H 325.347 0.652306 -3.45598 0
M  V30 3247 H 325.221 2.33215 -2.96463 0
M  V30 3248 H 327.608 2.1847 -1.98381 0
M  V30 3249 H 327.689 0.497041 -2.50925 0
M  V30 3250 H 327.333 1.25436 -4.92167 0
M  V30 3251 H 327.263 2.94532 -4.3653 0
M  V30 3252 H 329.754 1.76699 -3.34045 0
M  V30 3253 H 330.067 3.0489 -7.10114 0
M  V30 3254 H 328.412 2.74834 -6.3835 0
M  V30 3255 H 331.603 2.11392 -4.1765 0
M  V30 3256 H 331.776 2.69869 -5.89131 0
M  V30 3257 N 325.182 1.32811 0.848464 0
M  V30 3258 C 326.092 1.24278 1.98978 0
M  V30 3259 C 327.108 0.155176 1.73307 0
M  V30 3260 O 328.284 0.376999 1.9784 0
M  V30 3261 C 325.349 0.972444 3.32783 0
M  V30 3262 C 324.41 2.14911 3.71634 0
M  V30 3263 C 323.643 1.89157 4.99054 0
M  V30 3264 O 323.866 0.837165 5.64223 0
M  V30 3265 O 322.8 2.75433 5.35183 0
M  V30 3266 H 326.626 2.20238 2.09115 0
M  V30 3267 H 324.211 1.12762 0.980052 0
M  V30 3268 H 326.093 0.838432 4.12975 0
M  V30 3269 H 324.768 0.043051 3.23671 0
M  V30 3270 H 323.675 2.33862 2.91992 0
M  V30 3271 H 325.008 3.06151 3.85399 0
M  V30 3272 N 326.66 -1.06551 1.16123 0
M  V30 3273 C 327.885 -1.83544 0.965735 0
M  V30 3274 C 328.31 -1.81843 -0.481102 0
M  V30 3275 O 327.668 -1.21732 -1.34354 0
M  V30 3276 C 327.716 -3.28169 1.49457 0
M  V30 3277 O 326.82 -4.0643 0.699157 0
M  V30 3278 H 326.161 -0.568026 0.343864 0
M  V30 3279 H 328.691 -1.34362 1.54299 0
M  V30 3280 H 328.701 -3.78992 1.51092 0
M  V30 3281 H 327.376 -3.28722 2.54784 0
M  V30 3282 H 325.953 -3.65216 0.7531 0
M  V30 3283 N 328.138 -0.959301 -1.25041 0
M  V30 3284 C 329.07 -0.440543 -2.24926 0
M  V30 3285 C 330.083 0.446131 -1.56568 0
M  V30 3286 O 331.272 0.253657 -1.76689 0
M  V30 3287 C 328.372 0.38412 -3.36716 0
M  V30 3288 C 327.545 -0.490658 -4.34639 0
M  V30 3289 C 326.604 0.276587 -5.25473 0
M  V30 3290 O 325.63 -0.326614 -5.68262 0
M  V30 3291 N 326.832 1.56844 -5.5891 0
M  V30 3292 H 329.597 -1.29931 -2.70071 0
M  V30 3293 H 327.158 -0.830181 -1.38995 0
M  V30 3294 H 329.15 0.905228 -3.94446 0
M  V30 3295 H 327.72 1.14377 -2.90924 0
M  V30 3296 H 326.94 -1.19282 -3.7572 0
M  V30 3297 H 328.228 -1.08756 -4.97041 0
M  V30 3298 H 327.626 2.08036 -5.26059 0
M  V30 3299 H 326.183 2.03541 -6.19205 0
M  V30 3300 N 329.616 1.39756 -0.72842 0
M  V30 3301 C 330.579 2.29012 -0.0927297 0
M  V30 3302 C 331.579 1.45992 0.674025 0
M  V30 3303 O 332.769 1.66749 0.50402 0
M  V30 3304 C 329.901 3.29396 0.878137 0
M  V30 3305 H 331.094 2.86729 -0.879011 0
M  V30 3306 H 328.647 1.48293 -0.493847 0
M  V30 3307 H 329.382 2.76722 1.69101 0
M  V30 3308 H 329.167 3.907 0.331051 0
M  V30 3309 H 330.657 3.96199 1.3197 0
M  V30 3310 N 331.094 0.475555 1.50254 0
M  V30 3311 C 332.324 -0.0753399 2.06463 0
M  V30 3312 C 332.732 -1.33661 1.33908 0
M  V30 3313 O 332.075 -1.79219 0.403257 0
M  V30 3314 C 332.137 -0.424921 3.5698 0
M  V30 3315 C 331.801 0.734965 4.51051 0
M  V30 3316 C 332.798 1.61827 4.94073 0
M  V30 3317 C 330.483 0.926557 4.9368 0
M  V30 3318 C 332.477 2.67754 5.78434 0
M  V30 3319 C 330.164 1.98904 5.77824 0
M  V30 3320 C 331.162 2.8629 6.20103 0
M  V30 3321 O 330.85 3.90708 7.02568 0
M  V30 3322 H 330.582 0.00576308 0.675975 0
M  V30 3323 H 333.136 0.664662 1.94349 0
M  V30 3324 H 331.366 -1.21817 3.67012 0
M  V30 3325 H 333.055 -0.911422 3.95535 0
M  V30 3326 H 333.821 1.48196 4.61804 0
M  V30 3327 H 329.7 0.25584 4.6029 0
M  V30 3328 H 333.244 3.35992 6.11355 0
M  V30 3329 H 329.141 2.12541 6.09505 0
M  V30 3330 H 329.909 3.87751 7.20827 0
M  V30 3331 N 332.573 -1.56217 0.208337 0
M  V30 3332 C 333.803 -2.02043 -0.431523 0
M  V30 3333 C 334.211 -1.08755 -1.54819 0
M  V30 3334 O 333.554 -0.0870009 -1.83494 0
M  V30 3335 C 333.616 -3.44239 -1.03633 0
M  V30 3336 C 333.28 -4.56965 -0.0567502 0
M  V30 3337 C 334.277 -5.14624 0.738773 0
M  V30 3338 C 331.962 -5.02266 0.0581736 0
M  V30 3339 C 333.956 -6.16045 1.63605 0
M  V30 3340 C 331.643 -6.03528 0.959001 0
M  V30 3341 C 332.641 -6.60293 1.7465 0
M  V30 3342 O 332.329 -7.59586 2.6322 0
M  V30 3343 H 332.061 -0.666772 -0.111313 0
M  V30 3344 H 334.615 -2.02919 0.318277 0
M  V30 3345 H 332.845 -3.40391 -1.83497 0
M  V30 3346 H 334.534 -3.73793 -1.58221 0
M  V30 3347 H 335.3 -4.80483 0.660364 0
M  V30 3348 H 331.179 -4.57771 -0.544633 0
M  V30 3349 H 334.723 -6.60279 2.25116 0
M  V30 3350 H 330.62 -6.37092 1.03848 0
M  V30 3351 H 331.388 -7.77057 2.57148 0
M  V30 3352 N 334.051 0.0651679 -1.57465 0
M  V30 3353 C 334.983 1.10359 -2.00882 0
M  V30 3354 C 335.996 1.346 -0.915788 0
M  V30 3355 O 337.185 1.32723 -1.1936 0
M  V30 3356 C 334.285 2.45312 -2.33828 0
M  V30 3357 C 333.458 2.40934 -3.65061 0
M  V30 3358 C 332.517 3.58047 -3.85602 0
M  V30 3359 O 331.543 3.39175 -4.57109 0
M  V30 3360 N 332.745 4.78637 -3.28462 0
M  V30 3361 H 335.51 0.733807 -2.90578 0
M  V30 3362 H 333.071 0.253719 -1.599 0
M  V30 3363 H 335.063 3.22314 -2.44737 0
M  V30 3364 H 333.633 2.74267 -1.49988 0
M  V30 3365 H 332.853 1.49273 -3.64844 0
M  V30 3366 H 334.141 2.35117 -4.51218 0
M  V30 3367 H 333.539 4.96872 -2.70433 0
M  V30 3368 H 332.096 5.53127 -3.44809 0
M  V30 3369 N 335.529 1.53961 0.336706 0
M  V30 3370 C 336.945 1.44378 0.680241 0
M  V30 3371 C 337.145 0.606034 1.9217 0
M  V30 3372 O 336.201 0.099688 2.52303 0
M  V30 3373 C 337.514 2.87945 0.8665 0
M  V30 3374 C 339.062 2.97763 0.964682 0
M  V30 3375 C 339.537 4.42453 1.18321 0
M  V30 3376 N 341.028 4.46008 1.25025 0
M  V30 3377 C 341.763 5.55102 1.43697 0
M  V30 3378 N 341.259 6.7419 1.59498 0
M  V30 3379 N 343.052 5.42727 1.463 0
M  V30 3380 H 335.203 2.06918 -0.479455 0
M  V30 3381 H 337.466 0.935634 -0.152619 0
M  V30 3382 H 337.172 3.51691 0.0256937 0
M  V30 3383 H 337.046 3.33293 1.76623 0
M  V30 3384 H 339.433 2.34153 1.796 0
M  V30 3385 H 339.514 2.55766 0.041708 0
M  V30 3386 H 339.158 5.06645 0.356788 0
M  V30 3387 H 339.088 4.82048 2.11985 0
M  V30 3388 H 341.579 3.60196 1.14312 0
M  V30 3389 H 341.892 7.53095 1.734 0
M  V30 3390 H 340.237 6.77123 1.56621 0
M  V30 3391 H 343.428 4.48647 1.33543 0
M  V30 3392 H 343.601 6.27806 1.6051 0
M  V30 3393 N 337.007 -0.598083 1.45811 0
M  V30 3394 C 338.255 -1.35413 1.50026 0
M  V30 3395 C 338.576 -1.94444 0.147177 0
M  V30 3396 O 337.846 -1.77701 -0.824571 0
M  V30 3397 H 336.426 -0.502727 0.552517 0
M  V30 3398 H 339.088 -0.701606 1.81834 0
M  V30 3399 H 338.184 -2.16871 2.2444 0
M  V30 3400 N 338.485 -1.33259 -0.841409 0
M  V30 3401 C 339.71 -1.2775 -1.63385 0
M  V30 3402 C 340.135 0.149188 -1.87507 0
M  V30 3403 O 339.493 1.10498 -1.43736 0
M  V30 3404 C 339.541 -2.05571 -2.96265 0
M  V30 3405 O 338.645 -1.41257 -3.87453 0
M  V30 3406 H 337.986 -0.439627 -0.497618 0
M  V30 3407 H 340.516 -1.75782 -1.04699 0
M  V30 3408 H 340.526 -2.16241 -3.45982 0
M  V30 3409 H 339.201 -3.09309 -2.7803 0
M  V30 3410 H 337.778 -1.39217 -3.45938 0
M  V30 3411 N 339.963 1.05934 -1.16686 0
M  V30 3412 C 341.188 1.83029 -0.975455 0
M  V30 3413 C 341.613 1.82096 0.471452 0
M  V30 3414 O 340.971 1.22443 1.33706 0
M  V30 3415 C 341.019 3.27372 -1.51195 0
M  V30 3416 O 340.123 4.06054 -0.720701 0
M  V30 3417 H 339.464 0.566194 -0.346872 0
M  V30 3418 H 341.994 1.33541 -1.55009 0
M  V30 3419 H 342.004 3.78186 -1.53099 0
M  V30 3420 H 340.679 3.27366 -2.56523 0
M  V30 3421 H 339.256 3.64812 -0.772458 0
M  V30 3422 N 341.441 0.965919 1.2453 0
M  V30 3423 C 342.374 0.4393 2.23932 0
M  V30 3424 C 343.352 -0.485615 1.55179 0
M  V30 3425 O 344.536 -0.417402 1.83821 0
M  V30 3426 C 341.663 -0.366042 3.36716 0
M  V30 3427 C 340.709 0.5009 4.23548 0
M  V30 3428 S 341.542 1.94002 4.99123 0
M  V30 3429 C 342.698 1.14342 6.15367 0
M  V30 3430 H 342.931 1.28167 2.68254 0
M  V30 3431 H 340.464 0.770819 1.33782 0
M  V30 3432 H 342.422 -0.824724 4.0213 0
M  V30 3433 H 341.083 -1.18337 2.90956 0
M  V30 3434 H 340.276 -0.117341 5.03863 0
M  V30 3435 H 339.878 0.89524 3.63127 0
M  V30 3436 H 342.17 0.397572 6.76332 0
M  V30 3437 H 343.113 1.92089 6.81548 0
M  V30 3438 H 343.521 0.668579 5.60527 0
M  V30 3439 N 342.919 -1.39368 0.735821 0
M  V30 3440 C 344.165 -2.00794 0.284544 0
M  V30 3441 C 344.498 -1.58255 -1.12557 0
M  V30 3442 O 343.773 -0.811819 -1.76748 0
M  V30 3443 C 344.056 -3.58011 0.387337 0
M  V30 3444 C 343.909 -4.10566 1.83728 0
M  V30 3445 C 345.228 -4.395 -0.22975 0
M  V30 3446 H 342.347 -0.729501 0.104866 0
M  V30 3447 H 344.989 -1.65564 0.93213 0
M  V30 3448 H 343.139 -3.88154 -0.164006 0
M  V30 3449 H 344.811 -3.91139 2.44556 0
M  V30 3450 H 343.054 -3.64095 2.35833 0
M  V30 3451 H 343.725 -5.19702 1.86047 0
M  V30 3452 H 346.201 -4.15406 0.240257 0
M  V30 3453 H 345.077 -5.48752 -0.127485 0
M  V30 3454 H 345.338 -4.22062 -1.3159 0
M  V30 3455 N 344.397 -0.483516 -1.5 0
M  V30 3456 C 345.327 0.293829 -2.31644 0
M  V30 3457 C 346.308 0.978864 -1.39112 0
M  V30 3458 O 347.493 0.973644 -1.68029 0
M  V30 3459 C 344.623 1.36897 -3.19181 0
M  V30 3460 C 343.577 0.804833 -4.20365 0
M  V30 3461 C 342.903 1.9792 -4.96721 0
M  V30 3462 C 344.203 -0.192313 -5.21946 0
M  V30 3463 H 345.897 -0.387616 -2.9688 0
M  V30 3464 H 343.443 -0.187856 -1.42769 0
M  V30 3465 H 345.396 1.92037 -3.751 0
M  V30 3466 H 344.12 2.07936 -2.51853 0
M  V30 3467 H 342.779 0.275319 -3.65565 0
M  V30 3468 H 342.427 2.67686 -4.25856 0
M  V30 3469 H 342.127 1.60789 -5.65173 0
M  V30 3470 H 343.651 2.53526 -5.55479 0
M  V30 3471 H 345.065 0.270333 -5.72662 0
M  V30 3472 H 343.462 -0.478543 -5.98189 0
M  V30 3473 H 344.532 -1.11409 -4.71928 0
M  V30 3474 N 345.875 1.56104 -0.216619 0
M  V30 3475 C 347.122 1.98172 0.416416 0
M  V30 3476 C 347.45 1.10413 1.60122 0
M  V30 3477 O 346.705 0.147967 1.9514 0
M  V30 3478 C 347.004 3.45923 0.898464 0
M  V30 3479 C 346.67 4.50559 -0.175288 0
M  V30 3480 C 345.332 4.78897 -0.470271 0
M  V30 3481 C 347.684 5.1334 -0.901728 0
M  V30 3482 C 345.012 5.67299 -1.4963 0
M  V30 3483 C 347.364 6.02853 -1.91705 0
M  V30 3484 C 346.028 6.29537 -2.21901 0
M  V30 3485 H 345.298 0.725164 0.152377 0
M  V30 3486 H 347.945 1.88839 -0.318103 0
M  V30 3487 H 346.25 3.52434 1.71165 0
M  V30 3488 H 347.947 3.75841 1.39803 0
M  V30 3489 H 344.537 4.28551 0.0647806 0
M  V30 3490 H 348.721 4.91521 -0.687072 0
M  V30 3491 H 343.977 5.86239 -1.73592 0
M  V30 3492 H 348.151 6.50552 -2.48505 0
M  V30 3493 H 345.778 6.97835 -3.01548 0
M  V30 3494 N 347.353 -0.0568162 1.57498 0
M  V30 3495 C 348.578 -0.769402 1.92601 0
M  V30 3496 C 349.003 -1.69559 0.814336 0
M  V30 3497 O 348.361 -1.79811 -0.231903 0
M  V30 3498 C 348.409 -1.52634 3.26704 0
M  V30 3499 O 347.513 -2.63797 3.16994 0
M  V30 3500 H 346.854 -0.208909 0.63028 0
M  V30 3501 H 349.384 -0.0205798 2.0459 0
M  V30 3502 H 349.394 -1.90234 3.60936 0
M  V30 3503 H 348.069 -0.846875 4.07186 0
M  V30 3504 H 346.646 -2.28943 2.94346 0
M  V30 3505 N 348.832 -1.54138 -0.328536 0
M  V30 3506 C 350.057 -1.76378 -1.09112 0
M  V30 3507 C 350.482 -0.508596 -1.81094 0
M  V30 3508 O 349.84 0.539598 -1.73084 0
M  V30 3509 C 349.888 -2.95358 -2.06872 0
M  V30 3510 O 348.992 -2.66556 -3.14677 0
M  V30 3511 H 348.333 -0.584614 -0.314838 0
M  V30 3512 H 350.863 -2.01146 -0.374348 0
M  V30 3513 H 350.873 -3.22566 -2.4983 0
M  V30 3514 H 349.548 -3.86385 -1.5388 0
M  V30 3515 H 348.125 -2.50282 -2.7643 0
M  V30 3516 N 350.31 0.590341 -1.46126 0
M  V30 3517 C 351.721 1.17243 -1.45296 0
M  V30 3518 C 352.072 1.95281 -0.189723 0
M  V30 3519 O 351.197 2.04502 0.707674 0
M  V30 3520 C 351.792 2.13284 -2.6324 0
M  V30 3521 C 350.351 2.66832 -2.65476 0
M  V30 3522 C 349.498 1.42557 -2.3785 0
M  V30 3523 H 352.449 0.378692 -1.54116 0
M  V30 3524 H 352.47 2.96619 -2.38323 0
M  V30 3525 H 351.982 1.56459 -3.55165 0
M  V30 3526 H 350.083 3.27548 -1.77603 0
M  V30 3527 H 350.196 3.10088 -3.65215 0
M  V30 3528 H 348.56 1.72107 -1.87753 0
M  V30 3529 H 349.343 0.875741 -3.31942 0
M  V30 3530 N 351.788 1.33704 0.83433 0
M  V30 3531 C 353.199 1.22813 1.4062 0
M  V30 3532 C 353.55 -0.151107 1.95617 0
M  V30 3533 O 352.675 -1.05092 1.89168 0
M  V30 3534 C 353.27 2.22355 2.55624 0
M  V30 3535 C 351.829 2.1529 3.08751 0
M  V30 3536 C 350.976 2.09589 1.8157 0
M  V30 3537 H 353.927 1.45236 0.639702 0
M  V30 3538 H 353.948 1.83391 3.33389 0
M  V30 3539 H 353.46 3.22728 2.15566 0
M  V30 3540 H 351.561 1.18235 3.53343 0
M  V30 3541 H 351.674 3.06038 3.68616 0
M  V30 3542 H 350.038 1.55134 2.02004 0
M  V30 3543 H 350.821 3.11777 1.43701 0
M  V30 3544 N 353.266 -1.05314 1.17247 0
M  V30 3545 C 354.512 -1.78557 0.961513 0
M  V30 3546 C 354.845 -1.87419 -0.508697 0
M  V30 3547 O 354.12 -1.37307 -1.37757 0
M  V30 3548 C 354.403 -3.22514 1.60176 0
M  V30 3549 C 354.256 -3.21673 3.14399 0
M  V30 3550 C 355.575 -4.20318 1.30463 0
M  V30 3551 H 352.694 -0.6482 0.350723 0
M  V30 3552 H 355.336 -1.23102 1.44727 0
M  V30 3553 H 353.486 -3.69867 1.18871 0
M  V30 3554 H 355.158 -2.82405 3.64753 0
M  V30 3555 H 353.401 -2.60048 3.47214 0
M  V30 3556 H 354.072 -4.23271 3.54324 0
M  V30 3557 H 356.548 -3.81454 1.66229 0
M  V30 3558 H 355.424 -5.19289 1.77848 0
M  V30 3559 H 355.685 -4.41526 0.22521 0
M  V30 3560 N 354.744 -0.972509 -1.24016 0
M  V30 3561 C 355.993 -0.632603 -1.91523 0
M  V30 3562 C 356.306 0.836641 -1.76804 0
M  V30 3563 O 357.512 1.28728 -2.39043 0
M  V30 3564 C 355.968 -1.08082 -3.43287 0
M  V30 3565 C 355.576 -2.57386 -3.66683 0
M  V30 3566 C 357.32 -0.814288 -4.16617 0
M  V30 3567 C 355.227 -2.95915 -5.12043 0
M  V30 3568 H 354.157 -0.232898 -0.717129 0
M  V30 3569 H 356.808 -1.17936 -1.40582 0
M  V30 3570 H 355.19 -0.462339 -3.93292 0
M  V30 3571 H 356.364 -3.24405 -3.27258 0
M  V30 3572 H 354.679 -2.81701 -3.06649 0
M  V30 3573 H 357.276 -1.0781 -5.23718 0
M  V30 3574 H 357.619 0.24955 -4.15551 0
M  V30 3575 H 358.152 -1.39397 -3.72577 0
M  V30 3576 H 354.891 -4.0139 -5.18234 0
M  V30 3577 H 354.411 -2.33584 -5.52448 0
M  V30 3578 H 356.09 -2.86086 -5.80314 0
M  V30 3579 N 356.222 1.38976 -0.743202 0
M  V30 3580 C 357.152 2.33171 -0.123873 0
M  V30 3581 C 358.133 1.54336 0.71516 0
M  V30 3582 O 359.318 1.82696 0.658467 0
M  V30 3583 C 356.448 3.38474 0.777978 0
M  V30 3584 C 355.402 4.27979 0.0424758 0
M  V30 3585 C 354.728 5.2405 1.06189 0
M  V30 3586 C 356.028 5.10155 -1.1198 0
M  V30 3587 H 357.722 2.85213 -0.910709 0
M  V30 3588 H 355.268 1.37133 -0.439388 0
M  V30 3589 H 357.221 4.03328 1.22084 0
M  V30 3590 H 355.945 2.84891 1.59702 0
M  V30 3591 H 354.604 3.64616 -0.380853 0
M  V30 3592 H 354.252 4.66758 1.87472 0
M  V30 3593 H 353.952 5.84785 0.574485 0
M  V30 3594 H 355.476 5.9178 1.50428 0
M  V30 3595 H 356.89 5.68307 -0.75499 0
M  V30 3596 H 355.287 5.80073 -1.53738 0
M  V30 3597 H 356.357 4.44504 -1.93764 0
M  V30 3598 N 357.7 0.491464 1.49741 0
M  V30 3599 C 358.63 -0.28154 2.31796 0
M  V30 3600 C 359.611 -0.971473 1.3963 0
M  V30 3601 O 360.796 -0.964719 1.68543 0
M  V30 3602 C 357.926 -1.35203 3.19902 0
M  V30 3603 C 356.88 -0.782529 4.20786 0
M  V30 3604 C 356.206 -1.95283 4.97764 0
M  V30 3605 C 357.506 0.21999 5.21837 0
M  V30 3606 H 359.2 0.403355 2.96671 0
M  V30 3607 H 356.746 0.195425 1.42668 0
M  V30 3608 H 358.699 -1.90045 3.76113 0
M  V30 3609 H 357.423 -2.06598 2.52953 0
M  V30 3610 H 356.082 -0.255928 3.65706 0
M  V30 3611 H 355.73 -2.65423 4.2727 0
M  V30 3612 H 355.43 -1.57789 5.66018 0
M  V30 3613 H 356.954 -2.50577 5.56816 0
M  V30 3614 H 358.368 -0.23996 5.72798 0
M  V30 3615 H 356.765 0.51026 5.97927 0
M  V30 3616 H 357.835 1.13911 4.7133 0
M  V30 3617 N 359.178 -1.55987 0.224894 0
M  V30 3618 C 360.427 -1.97566 -0.406273 0
M  V30 3619 C 360.74 -1.11569 -1.6066 0
M  V30 3620 O 361.946 -1.43062 -2.3075 0
M  V30 3621 C 360.402 -3.51474 -0.774207 0
M  V30 3622 C 360.01 -4.46179 0.403496 0
M  V30 3623 C 361.754 -4.01758 -1.37079 0
M  V30 3624 C 359.661 -5.91399 0.0129412 0
M  V30 3625 H 358.591 -0.737777 -0.155565 0
M  V30 3626 H 361.242 -1.80659 0.321635 0
M  V30 3627 H 359.624 -3.63994 -1.55963 0
M  V30 3628 H 360.798 -4.45409 1.18101 0
M  V30 3629 H 359.113 -4.06255 0.913536 0
M  V30 3630 H 361.71 -5.07756 -1.67596 0
M  V30 3631 H 362.053 -3.47805 -2.28773 0
M  V30 3632 H 362.586 -3.92475 -0.648733 0
M  V30 3633 H 359.325 -6.49341 0.896451 0
M  V30 3634 H 358.845 -5.95356 -0.728821 0
M  V30 3635 H 360.524 -6.45683 -0.412582 0
M  V30 3636 N 360.656 0.0484629 -1.57525 0
M  V30 3637 C 361.881 0.759177 -1.93006 0
M  V30 3638 C 362.306 1.69125 -0.823317 0
M  V30 3639 O 361.664 1.79931 0.222364 0
M  V30 3640 C 361.712 1.50899 -3.27509 0
M  V30 3641 O 360.816 2.62112 -3.18388 0
M  V30 3642 H 360.157 0.205564 -0.631379 0
M  V30 3643 H 362.687 0.00972959 -2.04598 0
M  V30 3644 H 362.697 1.88317 -3.6194 0
M  V30 3645 H 361.372 0.825269 -4.0763 0
M  V30 3646 H 359.949 2.27379 -2.95556 0
M  V30 3647 N 362.134 1.5431 0.320358 0
M  V30 3648 C 363.381 1.72668 1.05792 0
M  V30 3649 C 363.709 0.502084 1.87908 0
M  V30 3650 O 362.964 -0.516149 1.88771 0
M  V30 3651 C 363.263 2.95639 2.00828 0
M  V30 3652 C 362.929 4.30265 1.34843 0
M  V30 3653 C 361.591 4.66865 1.16578 0
M  V30 3654 C 363.943 5.13801 0.875095 0
M  V30 3655 C 361.271 5.84597 0.496336 0
M  V30 3656 C 363.623 6.32219 0.219463 0
M  V30 3657 C 362.287 6.67495 0.0246915 0
M  V30 3658 H 361.557 0.631837 0.387121 0
M  V30 3659 H 364.204 1.88552 0.334735 0
M  V30 3660 H 362.509 2.74456 2.79609 0
M  V30 3661 H 364.206 3.07038 2.57932 0
M  V30 3662 H 360.796 4.01472 1.50061 0
M  V30 3663 H 364.98 4.86039 1.00398 0
M  V30 3664 H 360.236 6.10486 0.334264 0
M  V30 3665 H 364.41 6.96227 -0.155291 0
M  V30 3666 H 362.037 7.5858 -0.496065 0
M  V30 3667 N 363.613 -0.582584 1.46437 0
M  V30 3668 C 364.543 -1.70187 1.59871 0
M  V30 3669 C 365.524 -1.64066 0.449042 0
M  V30 3670 O 366.709 -1.82081 0.6753 0
M  V30 3671 C 363.839 -3.08827 1.58881 0
M  V30 3672 C 362.793 -3.29779 2.72819 0
M  V30 3673 C 362.119 -4.68947 2.5689 0
M  V30 3674 C 363.419 -3.17601 4.1464 0
M  V30 3675 H 365.113 -1.592 2.53566 0
M  V30 3676 H 362.659 -0.764472 1.22032 0
M  V30 3677 H 364.612 -3.86951 1.66873 0
M  V30 3678 H 363.336 -3.20713 0.617306 0
M  V30 3679 H 361.995 -2.54054 2.64296 0
M  V30 3680 H 361.643 -4.77599 1.57823 0
M  V30 3681 H 361.343 -4.83919 3.33312 0
M  V30 3682 H 362.867 -5.4924 2.66773 0
M  V30 3683 H 364.281 -3.8557 4.24274 0
M  V30 3684 H 362.678 -3.44094 4.9165 0
M  V30 3685 H 363.748 -2.14681 4.34788 0
M  V30 3686 N 365.091 -1.34144 -0.827227 0
M  V30 3687 C 366.34 -1.25602 -1.5782 0
M  V30 3688 C 366.653 0.173445 -1.94829 0
M  V30 3689 O 367.859 0.380984 -2.68814 0
M  V30 3690 C 366.315 -2.20151 -2.84713 0
M  V30 3691 C 365.923 -3.68331 -2.55021 0
M  V30 3692 C 367.667 -2.20508 -3.62735 0
M  V30 3693 C 365.574 -4.54762 -3.78082 0
M  V30 3694 H 364.504 -0.466573 -0.592306 0
M  V30 3695 H 367.155 -1.59283 -0.911116 0
M  V30 3696 H 365.537 -1.79417 -3.53023 0
M  V30 3697 H 366.711 -4.17577 -1.94849 0
M  V30 3698 H 365.026 -3.7038 -1.90283 0
M  V30 3699 H 367.623 -2.82306 -4.54101 0
M  V30 3700 H 367.966 -1.20322 -3.98533 0
M  V30 3701 H 368.499 -2.59664 -3.01362 0
M  V30 3702 H 365.238 -5.55867 -3.47407 0
M  V30 3703 H 364.758 -4.10254 -4.37552 0
M  V30 3704 H 366.437 -4.69153 -4.45538 0
M  V30 3705 N 366.569 1.04691 -1.17803 0
M  V30 3706 C 367.816 1.77782 -0.969532 0
M  V30 3707 C 368.144 1.87926 0.501401 0
M  V30 3708 O 367.399 1.37918 1.38842 0
M  V30 3709 C 367.698 3.21467 -1.56186 0
M  V30 3710 C 367.364 3.3137 -3.05786 0
M  V30 3711 C 366.026 3.3378 -3.46619 0
M  V30 3712 C 368.378 3.31976 -4.01797 0
M  V30 3713 C 365.706 3.34431 -4.82051 0
M  V30 3714 C 368.058 3.34167 -5.37136 0
M  V30 3715 C 366.722 3.34866 -5.77426 0
M  V30 3716 H 365.992 0.650549 -0.354777 0
M  V30 3717 H 368.639 1.23006 -1.46772 0
M  V30 3718 H 366.944 3.79203 -0.985515 0
M  V30 3719 H 368.641 3.76652 -1.37602 0
M  V30 3720 H 365.231 3.3021 -2.73238 0
M  V30 3721 H 369.415 3.29311 -3.71306 0
M  V30 3722 H 364.671 3.33285 -5.12573 0
M  V30 3723 H 368.845 3.33585 -6.11305 0
M  V30 3724 H 366.472 3.35124 -6.82346 0
M  V30 3725 N 368.047 0.979072 1.23499 0
M  V30 3726 C 368.977 0.537606 2.27227 0
M  V30 3727 C 369.958 -0.428539 1.64613 0
M  V30 3728 O 371.143 -0.322191 1.91509 0
M  V30 3729 C 368.273 -0.162052 3.46922 0
M  V30 3730 C 367.227 0.721242 4.21879 0
M  V30 3731 C 366.553 -0.110555 5.34586 0
M  V30 3732 C 367.853 2.01141 4.82016 0
M  V30 3733 H 369.547 1.40462 2.64406 0
M  V30 3734 H 367.093 0.67684 1.27102 0
M  V30 3735 H 369.046 -0.482192 4.18632 0
M  V30 3736 H 367.77 -1.06351 3.08799 0
M  V30 3737 H 366.429 1.02482 3.51984 0
M  V30 3738 H 366.077 -1.0125 4.92704 0
M  V30 3739 H 365.777 0.477325 5.85658 0
M  V30 3740 H 367.301 -0.425107 6.09118 0
M  V30 3741 H 368.715 1.75612 5.45741 0
M  V30 3742 H 367.112 2.54695 5.43369 0
M  V30 3743 H 368.182 2.69909 4.02836 0
M  V30 3744 N 369.525 -1.3858 0.750561 0
M  V30 3745 C 370.774 -1.99424 0.302172 0
M  V30 3746 C 371.087 -1.60254 -1.12152 0
M  V30 3747 O 372.293 -2.14046 -1.67023 0
M  V30 3748 C 370.749 -3.56558 0.489307 0
M  V30 3749 C 370.357 -4.04682 1.92189 0
M  V30 3750 C 372.101 -4.24374 0.103478 0
M  V30 3751 C 370.008 -5.54446 2.05775 0
M  V30 3752 H 368.938 -0.746046 0.10923 0
M  V30 3753 H 371.589 -1.58383 0.92667 0
M  V30 3754 H 369.971 -3.95472 -0.204329 0
M  V30 3755 H 371.145 -3.77065 2.64875 0
M  V30 3756 H 369.46 -3.4958 2.26236 0
M  V30 3757 H 372.057 -5.34384 0.183787 0
M  V30 3758 H 372.4 -4.05468 -0.943481 0
M  V30 3759 H 372.933 -3.90688 0.748854 0
M  V30 3760 H 369.672 -5.78252 3.08714 0
M  V30 3761 H 369.192 -5.83816 1.37546 0
M  V30 3762 H 370.871 -6.20099 1.84626 0
M  V30 3763 N 371.003 -0.499398 -1.49478 0
M  V30 3764 C 372.249 0.0457576 -2.02748 0
M  V30 3765 C 372.582 1.36793 -1.37846 0
M  V30 3766 O 371.857 1.87596 -0.513601 0
M  V30 3767 C 372.14 0.199986 -3.59544 0
M  V30 3768 C 371.993 -1.1452 -4.34977 0
M  V30 3769 C 373.312 0.94137 -4.29914 0
M  V30 3770 H 370.431 0.0151552 -0.736844 0
M  V30 3771 H 373.073 -0.650498 -1.78518 0
M  V30 3772 H 371.223 0.793007 -3.8032 0
M  V30 3773 H 372.895 -1.77697 -4.25701 0
M  V30 3774 H 371.138 -1.73488 -3.97598 0
M  V30 3775 H 371.809 -0.990607 -5.43039 0
M  V30 3776 H 374.285 0.43844 -4.13784 0
M  V30 3777 H 373.161 1.01812 -5.39375 0
M  V30 3778 H 373.422 1.98471 -3.95046 0
M  V30 3779 N 372.481 1.55866 -0.233164 0
M  V30 3780 C 373.729 1.9821 0.394593 0
M  V30 3781 C 374.05 1.12234 1.59463 0
M  V30 3782 O 373.32 0.201981 1.94856 0
M  V30 3783 H 371.9 0.732034 0.148778 0
M  V30 3784 H 374.562 1.92107 -0.32876 0
M  V30 3785 H 373.658 3.03845 0.713063 0
M  V30 3786 O 373.998 0.0973059 1.61207 0
M  V30 3787 H 374.689 -0.50491 1.87004 0
M  V30 END ATOM
M  V30 BEGIN BOND
M  V30 END BOND
M  V30 END CTAB
M  END
$$$$
