drugbank_target|P04196 Histidine-rich glycoprotein (DB14533; DB14548)
 OpenBabel12092121223D

  0  0  0     0  0            999 V3000
M  V30 BEGIN CTAB
M  V30 COUNTS 8134 8305 0 0 0
M  V30 BEGIN ATOM
M  V30 1 H -0.908 1.98254 -0.117106 0
M  V30 2 N 0 1.576 0 0
M  V30 3 C 0.933 2.03868 1.02534 0
M  V30 4 C 1.911 0.928543 1.3348 0
M  V30 5 O 3.095 1.19667 1.45644 0
M  V30 6 C 0.222 2.43627 2.35294 0
M  V30 7 C -0.732 3.65373 2.2001 0
M  V30 8 S 0.101 5.13292 1.52614 0
M  V30 9 C 1.257 5.56322 2.86805 0
M  V30 10 H 1.49 2.90518 0.631377 0
M  V30 11 H -0.977 1.52953 0.210867 0
M  V30 12 H 0.981 2.67203 3.11629 0
M  V30 13 H -0.358 1.57376 2.7183 0
M  V30 14 H -1.165 3.90944 3.18086 0
M  V30 15 H -1.563 3.418 1.51819 0
M  V30 16 H 0.729 5.58782 3.83104 0
M  V30 17 H 1.672 6.56266 2.65933 0
M  V30 18 H 2.08 4.83886 2.90714 0
M  V30 19 N 1.4781 -0.272755 1.55222 0
M  V30 20 C 2.4251 -1.33716 1.88119 0
M  V30 21 C 3.3951 -1.49066 0.73271 0
M  V30 22 O 4.5801 -1.63469 0.984002 0
M  V30 23 C 1.7201 -2.69238 2.15882 0
M  V30 24 C 0.8331 -2.62108 3.43399 0
M  V30 25 C -0.0319 -3.89811 3.60861 0
M  V30 26 C -0.9929 -3.77193 4.8207 0
M  V30 27 N -1.8559 -4.9673 4.96189 0
M  V30 28 H 2.9841 -1.04962 2.78903 0
M  V30 29 H 0.5211 -0.507088 1.38083 0
M  V30 30 H 2.4791 -3.48089 2.29978 0
M  V30 31 H 1.1091 -2.96194 1.28331 0
M  V30 32 H 0.1611 -1.74967 3.37773 0
M  V30 33 H 1.4731 -2.48685 4.32386 0
M  V30 34 H 0.6271 -4.77103 3.74777 0
M  V30 35 H -0.6339 -4.06102 2.7006 0
M  V30 36 H -1.6289 -2.88284 4.68159 0
M  V30 37 H -0.4039 -3.62421 5.74307 0
M  V30 38 H -2.4579 -5.13431 4.08319 0
M  V30 39 H -2.5409 -4.85839 5.79221 0
M  V30 40 H -1.2729 -5.85594 5.1449 0
M  V30 41 N 2.9562 -1.48159 -0.537278 0
M  V30 42 C 3.9192 -1.61665 -1.62472 0
M  V30 43 C 4.9192 -0.490395 -1.5314 0
M  V30 44 O 6.1092 -0.755998 -1.5694 0
M  V30 45 C 3.2412 -1.57997 -3.02076 0
M  V30 46 H 4.4342 -2.58621 -1.51839 0
M  V30 47 H 1.9872 -1.36647 -0.758771 0
M  V30 48 H 2.7222 -0.624913 -3.18222 0
M  V30 49 H 2.5072 -2.39755 -3.10258 0
M  V30 50 H 3.9972 -1.70627 -3.81151 0
M  V30 51 N 4.4343 0.785586 -1.36625 0
M  V30 52 C 5.3643 1.91259 -1.33949 0
M  V30 53 C 6.3453 1.68795 -0.210325 0
M  V30 54 O 7.5303 1.89854 -0.408561 0
M  V30 55 C 4.6603 3.28339 -1.13186 0
M  V30 56 C 3.6143 3.65335 -2.22967 0
M  V30 57 C 2.9403 5.00806 -1.87342 0
M  V30 58 C 4.2403 3.7352 -3.65075 0
M  V30 59 H 5.9343 1.93755 -2.28253 0
M  V30 60 H 3.4803 0.930788 -1.09874 0
M  V30 61 H 5.4333 4.06804 -1.09948 0
M  V30 62 H 4.1573 3.2624 -0.153332 0
M  V30 63 H 2.8163 2.89169 -2.25337 0
M  V30 64 H 2.4643 4.95233 -0.880545 0
M  V30 65 H 2.1643 5.26529 -2.60846 0
M  V30 66 H 3.6883 5.81687 -1.85667 0
M  V30 67 H 5.1023 4.42168 -3.64911 0
M  V30 68 H 3.4993 4.10731 -4.37516 0
M  V30 69 H 4.5693 2.74527 -3.99703 0
M  V30 70 N 5.9124 1.20967 1.01018 0
M  V30 71 C 7.1614 1.01796 1.74128 0
M  V30 72 C 7.4744 -0.449691 1.90361 0
M  V30 73 O 8.6804 -0.76068 2.60626 0
M  V30 74 C 7.1364 1.7727 3.13215 0
M  V30 75 C 6.7444 3.28171 3.04972 0
M  V30 76 C 8.4884 1.66489 3.90489 0
M  V30 77 C 6.3954 3.96156 4.39107 0
M  V30 78 H 5.3254 0.377276 0.652824 0
M  V30 79 H 7.9764 1.44651 1.12909 0
M  V30 80 H 6.3584 1.27205 3.75013 0
M  V30 81 H 7.5324 3.85499 2.52443 0
M  V30 82 H 5.8474 3.39437 2.41188 0
M  V30 83 H 8.4444 2.14617 4.89738 0
M  V30 84 H 8.7874 0.6222 4.11624 0
M  V30 85 H 9.3204 2.14003 3.35332 0
M  V30 86 H 6.0594 5.00604 4.23174 0
M  V30 87 H 5.5794 3.43617 4.91617 0
M  V30 88 H 7.2584 4.00774 5.07926 0
M  V30 89 N 7.3905 -1.2043 1.01659 0
M  V30 90 C 8.3535 -2.21433 0.591616 0
M  V30 91 C 9.3535 -1.57203 -0.338226 0
M  V30 92 O 10.5435 -1.73737 -0.126918 0
M  V30 93 C 7.6755 -3.40628 -0.136058 0
M  V30 94 H 8.8685 -2.60545 1.48514 0
M  V30 95 H 6.4215 -1.33893 0.806379 0
M  V30 96 H 7.1565 -3.07019 -1.04449 0
M  V30 97 H 6.9415 -3.88475 0.531917 0
M  V30 98 H 8.4315 -4.15475 -0.420735 0
M  V30 99 N 8.8686 -0.792821 -1.36206 0
M  V30 100 C 9.8316 -0.199459 -2.2833 0
M  V30 101 C 10.8316 0.605189 -1.48977 0
M  V30 102 O 12.0216 0.425685 -1.68919 0
M  V30 103 C 9.1536 0.723523 -3.33134 0
M  V30 104 H 10.3466 -1.01181 -2.82316 0
M  V30 105 H 7.8996 -0.562485 -1.45828 0
M  V30 106 H 8.6346 1.56008 -2.84309 0
M  V30 107 H 8.4196 0.148436 -3.91819 0
M  V30 108 H 9.9096 1.13344 -4.01924 0
M  V30 109 N 10.3467 1.47872 -0.545128 0
M  V30 110 C 11.2767 2.32661 0.197793 0
M  V30 111 C 12.2577 1.43041 0.920504 0
M  V30 112 O 13.4427 1.71912 0.90333 0
M  V30 113 C 10.5727 3.24569 1.23582 0
M  V30 114 C 9.5267 4.23333 0.630323 0
M  V30 115 C 8.8527 5.0448 1.77211 0
M  V30 116 C 10.1527 5.20704 -0.407974 0
M  V30 117 H 11.8467 2.95024 -0.510045 0
M  V30 118 H 9.3927 1.4187 -0.246731 0
M  V30 119 H 11.3457 3.8272 1.76362 0
M  V30 120 H 10.0697 2.60236 1.97344 0
M  V30 121 H 8.7287 3.6639 0.123922 0
M  V30 122 H 8.3767 4.36561 2.49847 0
M  V30 123 H 8.0767 5.71339 1.37281 0
M  V30 124 H 9.6007 5.65487 2.3034 0
M  V30 125 H 11.0147 5.7329 0.033305 0
M  V30 126 H 9.4117 5.95699 -0.725486 0
M  V30 127 H 10.4817 4.66917 -1.30828 0
M  V30 128 N 11.8248 0.280983 1.55075 0
M  V30 129 C 12.7548 -0.597469 2.25727 0
M  V30 130 C 13.7358 -1.15417 1.24952 0
M  V30 131 O 14.9208 -1.18722 1.53684 0
M  V30 132 C 12.0508 -1.7789 2.98283 0
M  V30 133 C 11.0048 -1.35347 4.06036 0
M  V30 134 C 10.3308 -2.61846 4.66198 0
M  V30 135 C 11.6308 -0.499354 5.19907 0
M  V30 136 H 13.3248 -0.00824265 2.99399 0
M  V30 137 H 10.8708 -0.0025244 1.44 0
M  V30 138 H 12.8238 -2.39937 3.46422 0
M  V30 139 H 11.5478 -2.39405 2.22155 0
M  V30 140 H 10.2068 -0.756156 3.58717 0
M  V30 141 H 9.8548 -3.21632 3.86732 0
M  V30 142 H 9.5548 -2.3409 5.38958 0
M  V30 143 H 11.0788 -3.24732 5.1709 0
M  V30 144 H 12.4928 -1.02498 5.64063 0
M  V30 145 H 10.8898 -0.316424 5.99265 0
M  V30 146 H 11.9598 0.480459 4.82514 0
M  V30 147 N 13.3029 -1.57598 0.00835791 0
M  V30 148 C 14.2329 -2.1198 -0.979113 0
M  V30 149 C 15.2139 -1.03091 -1.35301 0
M  V30 150 O 16.3989 -1.30818 -1.43528 0
M  V30 151 C 13.5289 -2.62995 -2.26828 0
M  V30 152 C 12.4829 -3.76485 -2.03576 0
M  V30 153 C 11.8089 -4.13846 -3.38579 0
M  V30 154 C 13.1089 -5.0342 -1.39161 0
M  V30 155 H 14.8029 -2.94738 -0.526281 0
M  V30 156 H 12.3489 -1.41783 -0.251704 0
M  V30 157 H 14.3019 -2.99669 -2.96271 0
M  V30 158 H 13.0259 -1.7737 -2.7424 0
M  V30 159 H 11.6849 -3.40217 -1.36557 0
M  V30 160 H 11.3329 -3.25232 -3.83709 0
M  V30 161 H 11.0329 -4.90312 -3.23834 0
M  V30 162 H 12.5569 -4.53086 -4.09323 0
M  V30 163 H 13.9709 -5.37812 -1.98573 0
M  V30 164 H 12.3679 -5.84746 -1.34878 0
M  V30 165 H 13.4379 -4.83548 -0.361868 0
M  V30 166 N 14.781 0.264519 -1.55364 0
M  V30 167 C 16.03 0.992812 -1.75574 0
M  V30 168 C 16.343 1.87142 -0.568979 0
M  V30 169 O 17.549 2.63513 -0.653682 0
M  V30 170 C 16.005 1.81519 -3.10771 0
M  V30 171 C 15.613 0.984839 -4.37041 0
M  V30 172 C 17.357 2.53727 -3.40327 0
M  V30 173 C 15.264 1.80209 -5.63275 0
M  V30 174 H 14.194 0.374412 -0.65447 0
M  V30 175 H 16.845 0.248138 -1.81815 0
M  V30 176 H 15.227 2.60115 -2.98591 0
M  V30 177 H 16.401 0.242455 -4.60162 0
M  V30 178 H 14.716 0.37691 -4.14691 0
M  V30 179 H 17.313 3.15292 -4.3185 0
M  V30 180 H 17.656 3.24447 -2.60845 0
M  V30 181 H 18.189 1.82156 -3.53644 0
M  V30 182 H 14.928 1.13896 -6.45529 0
M  V30 183 H 14.448 2.52022 -5.44284 0
M  V30 184 H 16.127 2.37364 -6.01887 0
M  V30 185 N 16.2591 1.48442 0.529413 0
M  V30 186 C 17.4871 1.60151 1.30994 0
M  V30 187 C 17.9021 0.261985 1.86973 0
M  V30 188 O 17.2591 -0.748805 1.66431 0
M  V30 189 C 17.3101 2.64854 2.46038 0
M  V30 190 O 17.0311 3.93608 1.92365 0
M  V30 191 C 18.5321 2.87007 3.37849 0
M  V30 192 H 15.7521 0.539971 0.398338 0
M  V30 193 H 18.2961 1.94273 0.638597 0
M  V30 194 H 16.4511 2.33589 3.09055 0
M  V30 195 H 16.8651 4.51055 2.67675 0
M  V30 196 H 18.3391 3.64068 4.14919 0
M  V30 197 H 18.8161 1.95852 3.93114 0
M  V30 198 H 19.4221 3.19579 2.80623 0
M  V30 199 N 17.7372 -0.778329 1.37039 0
M  V30 200 C 18.6672 -1.90546 1.34962 0
M  V30 201 C 19.6482 -1.68681 0.219274 0
M  V30 202 O 20.8332 -1.89634 0.418624 0
M  V30 203 C 17.9632 -3.27734 1.14925 0
M  V30 204 C 16.9172 -3.64147 2.24902 0
M  V30 205 C 16.2432 -4.99806 1.89996 0
M  V30 206 C 17.5432 -3.71579 3.67051 0
M  V30 207 H 19.2372 -1.92541 2.29277 0
M  V30 208 H 16.7832 -0.924948 1.10366 0
M  V30 209 H 18.7362 -4.06215 1.12104 0
M  V30 210 H 17.4602 -3.26154 0.170631 0
M  V30 211 H 16.1192 -2.8797 2.26868 0
M  V30 212 H 15.7672 -4.94759 0.906796 0
M  V30 213 H 15.4672 -5.25139 2.63634 0
M  V30 214 H 16.9912 -5.80694 1.88749 0
M  V30 215 H 18.4052 -4.40227 3.67251 0
M  V30 216 H 16.8022 -4.08405 4.39688 0
M  V30 217 H 17.8722 -2.72404 4.01154 0
M  V30 218 N 19.2153 -1.21501 -1.00376 0
M  V30 219 C 20.1473 -0.933174 -2.09343 0
M  V30 220 C 21.1603 0.0840896 -1.62583 0
M  V30 221 O 22.3493 -0.148563 -1.77881 0
M  V30 222 C 19.4493 -0.379869 -3.36764 0
M  V30 223 C 18.6223 -1.45176 -4.12605 0
M  V30 224 C 17.6813 -0.907476 -5.18316 0
M  V30 225 O 16.7073 -1.5912 -5.46507 0
M  V30 226 N 17.9093 0.276649 -5.7984 0
M  V30 227 H 20.6743 -1.87124 -2.34104 0
M  V30 228 H 18.2353 -1.12043 -1.16867 0
M  V30 229 H 20.2273 -0.00131488 -4.047 0
M  V30 230 H 18.7973 0.463048 -3.09151 0
M  V30 231 H 18.0173 -2.00411 -3.39454 0
M  V30 232 H 19.3053 -2.17328 -4.6005 0
M  V30 233 H 18.7033 0.849147 -5.59291 0
M  V30 234 H 17.2603 0.596702 -6.49063 0
M  V30 235 N 20.6934 1.19889 -1.02296 0
M  V30 236 C 21.9234 1.93109 -0.734332 0
M  V30 237 C 22.3314 1.75377 0.709889 0
M  V30 238 O 21.6744 1.06912 1.49384 0
M  V30 239 C 21.7364 3.45362 -0.99827 0
M  V30 240 C 21.4004 3.8686 -2.43287 0
M  V30 241 C 22.3974 3.92102 -3.41397 0
M  V30 242 C 20.0824 4.18668 -2.77529 0
M  V30 243 C 22.0764 4.28573 -4.71809 0
M  V30 244 C 19.7634 4.54813 -4.08153 0
M  V30 245 C 20.7614 4.59739 -5.05103 0
M  V30 246 O 20.4494 4.95051 -6.33388 0
M  V30 247 H 20.1814 0.620409 -0.268456 0
M  V30 248 H 22.7354 1.53144 -1.3688 0
M  V30 249 H 20.9654 3.85482 -0.306645 0
M  V30 250 H 22.6544 3.99814 -0.700234 0
M  V30 251 H 23.4204 3.67685 -3.1628 0
M  V30 252 H 19.2994 4.14021 -2.0275 0
M  V30 253 H 22.8434 4.32333 -5.4748 0
M  V30 254 H 18.7404 4.78687 -4.33047 0
M  V30 255 H 19.5084 5.1302 -6.37772 0
M  V30 256 N 22.1715 0.800033 1.35784 0
M  V30 257 C 23.3965 0.388511 2.03729 0
M  V30 258 C 23.8215 -0.990481 1.5991 0
M  V30 259 O 23.1795 -1.64013 0.772612 0
M  V30 260 C 23.2275 0.4726 3.5749 0
M  V30 261 O 22.3315 -0.51646 4.09153 0
M  V30 262 H 21.6725 0.163271 0.643614 0
M  V30 263 H 24.2025 1.0841 1.73518 0
M  V30 264 H 24.2125 0.34003 4.06581 0
M  V30 265 H 22.8875 1.47848 3.88734 0
M  V30 266 H 21.4645 -0.344673 3.71304 0
M  V30 267 N 23.6496 -1.47581 0.552962 0
M  V30 268 C 24.8896 -2.04379 0.0296245 0
M  V30 269 C 25.2536 -1.4185 -1.29393 0
M  V30 270 O 26.4546 -1.89669 -1.90471 0
M  V30 271 C 24.7256 -3.57339 -0.0661371 0
M  V30 272 S 26.2846 -4.35511 -0.536213 0
M  V30 273 H 23.1026 -0.710625 0.0230991 0
M  V30 274 H 25.7046 -1.81005 0.738734 0
M  V30 275 H 24.4086 -4.00374 0.901596 0
M  V30 276 H 23.9396 -3.85202 -0.798931 0
M  V30 277 H 25.9546 -4.6253 -1.79668 0
M  V30 278 N 25.1277 -0.289203 -1.54924 0
M  V30 279 C 26.0907 0.579144 -2.21762 0
M  V30 280 C 27.0907 1.07047 -1.1999 0
M  V30 281 O 28.2807 0.968384 -1.44803 0
M  V30 282 C 25.4127 1.80055 -2.8947 0
M  V30 283 H 26.6057 -0.00464908 -2.999 0
M  V30 284 H 24.1587 -0.0399306 -1.56249 0
M  V30 285 H 24.8937 2.42449 -2.15381 0
M  V30 286 H 24.6787 1.45602 -3.64064 0
M  V30 287 H 26.1687 2.41773 -3.40493 0
M  V30 288 N 26.6058 1.57591 -0.0167156 0
M  V30 289 C 27.8518 1.91567 0.665582 0
M  V30 290 C 28.1848 0.892298 1.72487 0
M  V30 291 O 27.4598 -0.0867127 1.94307 0
M  V30 292 C 27.7428 3.36069 1.29342 0
M  V30 293 C 27.5958 4.49135 0.244541 0
M  V30 294 C 28.9148 3.803 2.21495 0
M  V30 295 H 26.0338 0.69666 0.240488 0
M  V30 296 H 28.6758 1.89866 -0.0714356 0
M  V30 297 H 26.8258 3.3765 1.92158 0
M  V30 298 H 28.4978 4.59689 -0.385228 0
M  V30 299 H 26.7408 4.3165 -0.431379 0
M  V30 300 H 27.4118 5.47242 0.723207 0
M  V30 301 H 29.8878 3.80377 1.68678 0
M  V30 302 H 28.7638 4.82127 2.62382 0
M  V30 303 H 29.0248 3.15104 3.101 0
M  V30 304 N 28.0839 -0.256276 1.55502 0
M  V30 305 C 29.3089 -1.00766 1.81276 0
M  V30 306 C 29.7339 -1.78524 0.59252 0
M  V30 307 O 29.0919 -1.75413 -0.45827 0
M  V30 308 C 29.1399 -1.92869 3.04687 0
M  V30 309 O 28.2439 -3.019 2.80945 0
M  V30 310 H 27.5849 -0.287224 0.598664 0
M  V30 311 H 30.1149 -0.280109 2.02674 0
M  V30 312 H 30.1249 -2.34511 3.33869 0
M  V30 313 H 28.7999 -1.35689 3.93143 0
M  V30 314 H 27.3769 -2.64454 2.62904 0
M  V30 315 N 29.562 -1.4872 -0.521534 0
M  V30 316 C 30.973 -1.50607 -1.10337 0
M  V30 317 C 31.324 -0.280612 -1.94183 0
M  V30 318 O 30.449 0.611507 -2.0758 0
M  V30 319 C 31.044 -2.72903 -2.00772 0
M  V30 320 C 29.603 -2.77634 -2.54158 0
M  V30 321 C 28.75 -2.44241 -1.31307 0
M  V30 322 H 31.701 -1.55714 -0.306388 0
M  V30 323 H 31.722 -2.519 -2.85178 0
M  V30 324 H 31.234 -3.62077 -1.39721 0
M  V30 325 H 29.335 -1.92689 -3.18907 0
M  V30 326 H 29.448 -3.79283 -2.92714 0
M  V30 327 H 27.812 -1.95577 -1.63161 0
M  V30 328 H 28.595 -3.35666 -0.719943 0
M  V30 329 N 31.0401 0.771051 -1.3745 0
M  V30 330 C 32.2681 1.56015 -1.35893 0
M  V30 331 C 32.6831 1.88718 0.0555523 0
M  V30 332 O 32.0401 1.51502 1.01752 0
M  V30 333 C 32.0911 2.87001 -2.19801 0
M  V30 334 O 31.8121 2.557 -3.55738 0
M  V30 335 C 33.3131 3.81228 -2.26231 0
M  V30 336 H 30.5331 0.483317 -0.465453 0
M  V30 337 H 33.0771 0.955611 -1.80799 0
M  V30 338 H 31.2321 3.43877 -1.78402 0
M  V30 339 H 31.6461 3.39584 -3.99729 0
M  V30 340 H 33.1201 4.70139 -2.89263 0
M  V30 341 H 33.5971 4.20409 -1.27093 0
M  V30 342 H 34.2031 3.30281 -2.67945 0
M  V30 343 N 32.5182 1.22032 0.997298 0
M  V30 344 C 33.7952 0.950823 1.70935 0
M  V30 345 C 34.1752 -0.535292 2.042 0
M  V30 346 O 33.5232 -1.50217 1.72183 0
M  V30 347 C 33.7332 1.84386 2.96315 0
M  V30 348 C 35.0812 2.09732 3.69185 0
M  V30 349 O 36.1052 1.81798 3.06314 0
M  V30 350 O 34.9642 2.57018 4.82291 0
M  V30 351 H 32.0582 0.357204 0.745878 0
M  V30 352 H 34.6042 1.32997 1.05404 0
M  V30 353 H 33.3762 2.84928 2.68201 0
M  V30 354 H 32.9992 1.46602 3.69586 0
M  V30 355 N 33.9963 -1.19345 1.0293 0
M  V30 356 C 35.2363 -1.90738 0.734727 0
M  V30 357 C 35.6003 -1.7785 -0.723414 0
M  V30 358 O 36.8013 -2.43844 -1.13108 0
M  V30 359 C 35.0723 -3.37569 1.17396 0
M  V30 360 S 36.6313 -4.27176 1.00329 0
M  V30 361 H 33.4493 -0.658771 0.267474 0
M  V30 362 H 36.0513 -1.4428 1.31922 0
M  V30 363 H 34.7553 -3.44475 2.23081 0
M  V30 364 H 34.2863 -3.8906 0.582772 0
M  V30 365 H 36.3013 -4.96126 -0.0859152 0
M  V30 366 N 35.4744 -0.807222 -1.35358 0
M  V30 367 C 36.6994 -0.399309 -2.0352 0
M  V30 368 C 37.1244 0.981986 -1.60433 0
M  V30 369 O 36.4824 1.63601 -0.781299 0
M  V30 370 C 36.5304 -0.491552 -3.57234 0
M  V30 371 O 35.6344 0.494754 -4.09421 0
M  V30 372 H 34.9754 -0.166682 -0.642739 0
M  V30 373 H 37.5054 -1.09328 -1.72941 0
M  V30 374 H 37.5154 -0.361588 -4.06395 0
M  V30 375 H 36.1904 -1.49907 -3.87944 0
M  V30 376 H 34.7674 0.324977 -3.71481 0
M  V30 377 N 36.9525 1.47285 -0.560781 0
M  V30 378 C 37.9155 2.28535 0.174488 0
M  V30 379 C 38.9155 1.37153 0.839388 0
M  V30 380 O 40.1055 1.59748 0.694702 0
M  V30 381 C 37.2375 3.16934 1.25561 0
M  V30 382 H 38.4305 2.95012 -0.539262 0
M  V30 383 H 35.9835 1.53034 -0.317865 0
M  V30 384 H 36.7185 2.55157 2.00164 0
M  V30 385 H 36.5035 3.8419 0.783604 0
M  V30 386 H 37.9935 3.78143 1.77193 0
M  V30 387 N 38.4306 0.297415 1.54768 0
M  V30 388 C 39.6766 -0.313376 2.00364 0
M  V30 389 C 40.0096 -1.53815 1.18553 0
M  V30 390 O 39.2846 -1.92739 0.261103 0
M  V30 391 C 39.5676 -0.673525 3.53745 0
M  V30 392 C 39.4206 0.560133 4.46299 0
M  V30 393 C 40.7396 -1.50143 4.13697 0
M  V30 394 H 37.8586 -0.112428 0.728374 0
M  V30 395 H 40.5006 0.4088 1.8555 0
M  V30 396 H 38.6506 -1.28881 3.665 0
M  V30 397 H 40.3226 1.19863 4.45455 0
M  V30 398 H 38.5656 1.19405 4.17043 0
M  V30 399 H 39.2366 0.26405 5.51368 0
M  V30 400 H 41.7126 -0.981588 4.04356 0
M  V30 401 H 40.5886 -1.72221 5.21182 0
M  V30 402 H 40.8496 -2.48952 3.65343 0
M  V30 403 N 39.9087 -1.5758 0.0250728 0
M  V30 404 C 40.8187 -2.1343 -0.973905 0
M  V30 405 C 41.8347 -1.08556 -1.35984 0
M  V30 406 O 43.0107 -1.40592 -1.44207 0
M  V30 407 C 40.0757 -2.64703 -2.23904 0
M  V30 408 C 39.1367 -3.84276 -1.91391 0
M  V30 409 C 38.3697 -4.33095 -3.11873 0
M  V30 410 O 38.5927 -3.81107 -4.24398 0
M  V30 411 O 37.5267 -5.24984 -2.94406 0
M  V30 412 H 41.3527 -2.99057 -0.529036 0
M  V30 413 H 38.9377 -1.48118 -0.195288 0
M  V30 414 H 40.8197 -2.97769 -2.98181 0
M  V30 415 H 39.4947 -1.82161 -2.6758 0
M  V30 416 H 38.4017 -3.56143 -1.14511 0
M  V30 417 H 39.7347 -4.67968 -1.52534 0
M  V30 418 N 41.3868 0.248026 -1.55636 0
M  V30 419 C 42.7978 0.817177 -1.67866 0
M  V30 420 C 43.1488 1.86069 -0.622322 0
M  V30 421 O 42.2738 2.15157 0.231618 0
M  V30 422 C 42.8688 1.489 -3.04326 0
M  V30 423 C 41.4278 2.00587 -3.185 0
M  V30 424 C 40.5748 0.856573 -2.63739 0
M  V30 425 H 43.5258 0.0238579 -1.58682 0
M  V30 426 H 43.5468 2.35698 -2.98708 0
M  V30 427 H 43.0588 0.729279 -3.81186 0
M  V30 428 H 41.1598 2.79443 -2.4646 0
M  V30 429 H 41.2728 2.20402 -4.25393 0
M  V30 430 H 39.6368 1.25678 -2.21534 0
M  V30 431 H 40.4198 0.109953 -3.43124 0
M  V30 432 N 42.8649 1.48995 0.513639 0
M  V30 433 C 43.7749 1.67443 1.64317 0
M  V30 434 C 44.7909 0.556947 1.64846 0
M  V30 435 O 45.9669 0.830082 1.83498 0
M  V30 436 C 43.0319 1.72515 3.00732 0
M  V30 437 C 42.0929 2.96009 3.1093 0
M  V30 438 C 41.3259 3.00829 4.40837 0
M  V30 439 O 41.5489 2.13594 5.28898 0
M  V30 440 O 40.4829 3.93168 4.55744 0
M  V30 441 H 44.3089 2.63106 1.51687 0
M  V30 442 H 41.8939 1.32588 0.688543 0
M  V30 443 H 43.7759 1.78277 3.81831 0
M  V30 444 H 42.4509 0.800278 3.13651 0
M  V30 445 H 41.3579 2.9577 2.29065 0
M  V30 446 H 42.6909 3.87934 3.02933 0
M  V30 447 N 44.343 -0.763751 1.37857 0
M  V30 448 C 45.306 -1.85889 1.34081 0
M  V30 449 C 46.306 -1.58949 0.243277 0
M  V30 450 O 47.496 -1.66882 0.499589 0
M  V30 451 C 44.628 -3.23176 1.08489 0
M  V30 452 H 45.821 -1.90648 2.31502 0
M  V30 453 H 43.374 -0.964367 1.23003 0
M  V30 454 H 44.109 -3.24091 0.116318 0
M  V30 455 H 43.894 -3.44124 1.8794 0
M  V30 456 H 45.384 -4.03254 1.08517 0
M  V30 457 N 45.8211 -1.22559 -0.990812 0
M  V30 458 C 46.7311 -1.01394 -2.11557 0
M  V30 459 C 47.7471 0.0383962 -1.73958 0
M  V30 460 O 48.9231 -0.154787 -2.00804 0
M  V30 461 C 45.9881 -0.596569 -3.41529 0
M  V30 462 C 45.0491 -1.72276 -3.93217 0
M  V30 463 C 44.2821 -1.32521 -5.16985 0
M  V30 464 O 44.5051 -0.204909 -5.70032 0
M  V30 465 O 43.4391 -2.14247 -5.62478 0
M  V30 466 H 47.2651 -1.95633 -2.32296 0
M  V30 467 H 44.8501 -1.01172 -1.0993 0
M  V30 468 H 46.7321 -0.374263 -4.19735 0
M  V30 469 H 45.4071 0.316939 -3.22145 0
M  V30 470 H 44.3141 -1.99961 -3.16174 0
M  V30 471 H 45.6471 -2.61421 -4.17037 0
M  V30 472 N 47.2992 1.18797 -1.03562 0
M  V30 473 C 48.2462 2.22253 -0.622259 0
M  V30 474 C 49.2162 1.61987 0.36736 0
M  V30 475 O 50.4012 1.88986 0.262492 0
M  V30 476 C 47.5412 3.45097 0.0138462 0
M  V30 477 C 46.6542 4.19722 -1.02263 0
M  V30 478 C 45.7892 5.30009 -0.355573 0
M  V30 479 C 44.8282 5.96399 -1.37749 0
M  V30 480 N 43.9652 6.98234 -0.735766 0
M  V30 481 H 48.8052 2.56968 -1.50903 0
M  V30 482 H 46.3422 1.26245 -0.755017 0
M  V30 483 H 48.3002 4.15279 0.399948 0
M  V30 484 H 46.9302 3.11018 0.864158 0
M  V30 485 H 45.9822 3.48418 -1.52673 0
M  V30 486 H 47.2942 4.65227 -1.79903 0
M  V30 487 H 46.4482 6.0664 0.0850095 0
M  V30 488 H 45.1872 4.85592 0.452967 0
M  V30 489 H 44.1922 5.18512 -1.82826 0
M  V30 490 H 45.4172 6.42899 -2.18764 0
M  V30 491 H 43.3632 6.55979 0.0525597 0
M  V30 492 H 43.2802 7.41965 -1.44995 0
M  V30 493 H 44.5482 7.78845 -0.31941 0
M  V30 494 N 48.7773 0.814389 1.34928 0
M  V30 495 C 49.7403 0.235759 2.27984 0
M  V30 496 C 50.7403 -0.581412 1.49921 0
M  V30 497 O 51.9303 -0.398758 1.69575 0
M  V30 498 C 49.0623 -0.670433 3.34242 0
M  V30 499 H 50.2553 1.05659 2.80671 0
M  V30 500 H 47.8083 0.585614 1.44915 0
M  V30 501 H 48.5433 -1.51466 2.86755 0
M  V30 502 H 48.3283 -0.0860822 3.92005 0
M  V30 503 H 49.8183 -1.06935 4.03676 0
M  V30 504 N 50.2554 -1.46986 0.568584 0
M  V30 505 C 51.1854 -2.32946 -0.160753 0
M  V30 506 C 52.1664 -1.44487 -0.897631 0
M  V30 507 O 53.3514 -1.73327 -0.875867 0
M  V30 508 C 50.4814 -3.26494 -1.18403 0
M  V30 509 C 49.4354 -4.24282 -0.562895 0
M  V30 510 C 48.7614 -5.07236 -1.69163 0
M  V30 511 C 50.0614 -5.19989 0.490761 0
M  V30 512 H 51.7554 -2.94175 0.556916 0
M  V30 513 H 49.3014 -1.4146 0.26927 0
M  V30 514 H 51.2544 -3.85477 -1.70251 0
M  V30 515 H 49.9784 -2.63343 -1.93179 0
M  V30 516 H 48.6374 -3.66541 -0.0656164 0
M  V30 517 H 48.2854 -4.4048 -2.42871 0
M  V30 518 H 47.9854 -5.7345 -1.28174 0
M  V30 519 H 49.5094 -5.6908 -2.21314 0
M  V30 520 H 50.9234 -5.73271 0.0579047 0
M  V30 521 H 49.3204 -5.94469 0.820165 0
M  V30 522 H 50.3904 -4.64777 1.3824 0
M  V30 523 N 51.7335 -0.305618 -1.54608 0
M  V30 524 C 53.0105 0.355652 -1.92339 0
M  V30 525 C 53.3905 1.71324 -1.23335 0
M  V30 526 O 52.7385 2.25473 -0.370702 0
M  V30 527 C 52.9485 0.46572 -3.45879 0
M  V30 528 C 54.2965 0.734426 -4.182 0
M  V30 529 O 55.3205 0.54935 -3.51938 0
M  V30 530 O 54.1795 1.09024 -5.35515 0
M  V30 531 H 51.2735 0.199666 -0.802535 0
M  V30 532 H 53.8195 -0.354017 -1.65966 0
M  V30 533 H 52.5915 -0.488461 -3.88239 0
M  V30 534 H 52.2145 1.22367 -3.78301 0
M  V30 535 N 53.2116 1.57565 -0.0334293 0
M  V30 536 C 54.1416 2.13511 0.945265 0
M  V30 537 C 55.1226 1.05231 1.33643 0
M  V30 538 O 56.3076 1.33084 1.41429 0
M  V30 539 C 53.4376 2.6657 2.22616 0
M  V30 540 C 52.3916 3.79676 1.97561 0
M  V30 541 C 51.7176 4.1918 3.31952 0
M  V30 542 C 53.0176 5.0557 1.31135 0
M  V30 543 H 54.7116 2.95538 0.479325 0
M  V30 544 H 52.2576 1.42166 0.229115 0
M  V30 545 H 54.2106 3.04344 2.91466 0
M  V30 546 H 52.9346 1.8171 2.71384 0
M  V30 547 H 51.5936 3.42347 1.31127 0
M  V30 548 H 51.2416 3.31296 3.78487 0
M  V30 549 H 50.9416 4.95402 3.15992 0
M  V30 550 H 52.4656 4.59541 4.02063 0
M  V30 551 H 53.8796 5.40903 1.89992 0
M  V30 552 H 52.2766 5.86818 1.25559 0
M  V30 553 H 53.3466 4.84062 0.284894 0
M  V30 554 N 54.6897 -0.239769 1.55765 0
M  V30 555 C 55.9387 -0.964754 1.77131 0
M  V30 556 C 56.2517 -1.86213 0.59868 0
M  V30 557 O 57.4577 -2.6244 0.695522 0
M  V30 558 C 55.9137 -1.76552 3.1362 0
M  V30 559 C 55.5217 -0.915185 4.38553 0
M  V30 560 C 57.2657 -2.48281 3.44321 0
M  V30 561 C 55.1727 -1.71225 5.66071 0
M  V30 562 H 54.1027 -0.363953 0.660344 0
M  V30 563 H 56.7537 -0.219181 1.82186 0
M  V30 564 H 55.1357 -2.55331 3.02691 0
M  V30 565 H 56.3097 -0.169217 4.60489 0
M  V30 566 H 54.6247 -0.310889 4.15238 0
M  V30 567 H 57.2217 -3.08382 4.36812 0
M  V30 568 H 57.5647 -3.20256 2.65973 0
M  V30 569 H 58.0977 -1.76507 3.56497 0
M  V30 570 H 54.8367 -1.03612 6.4726 0
M  V30 571 H 54.3567 -2.43331 5.48224 0
M  V30 572 H 56.0357 -2.27758 6.05587 0
M  V30 573 N 56.1678 -1.49265 -0.50573 0
M  V30 574 C 57.1158 -1.66065 -1.62866 0
M  V30 575 C 58.1098 -0.526636 -1.61006 0
M  V30 576 O 59.3158 -0.706126 -1.65571 0
M  V30 577 H 55.6908 -0.52356 -0.539805 0
M  V30 578 H 57.6618 -2.60329 -1.45848 0
M  V30 579 C 56.4108 -1.74008 -3.01026 0
M  V30 580 H 55.7338 -2.6064 -3.03161 0
M  V30 581 H 57.1738 -1.89798 -3.79147 0
M  V30 582 C 55.6328 -0.483868 -3.33407 0
M  V30 583 O 56.1628 0.392548 -3.99777 0
M  V30 584 N 54.3688 -0.348236 -2.88506 0
M  V30 585 H 53.9158 -1.06242 -2.34671 0
M  V30 586 H 53.8738 0.491204 -3.10539 0
M  V30 587 N 57.6459 0.756429 -1.3826 0
M  V30 588 C 58.5929 1.87011 -1.35261 0
M  V30 589 C 59.5629 1.64695 -0.215616 0
M  V30 590 O 60.7479 1.864 -0.407399 0
M  V30 591 C 57.8879 3.24275 -1.18068 0
M  V30 592 C 57.0009 3.58442 -2.41129 0
M  V30 593 C 56.1359 4.84994 -2.16689 0
M  V30 594 C 55.1749 5.11939 -3.35537 0
M  V30 595 N 54.3119 6.29685 -3.10549 0
M  V30 596 H 59.1519 1.8891 -2.30472 0
M  V30 597 H 56.6889 0.923373 -1.14509 0
M  V30 598 H 58.6469 4.03479 -1.06116 0
M  V30 599 H 57.2769 3.21711 -0.264973 0
M  V30 600 H 56.3289 2.74103 -2.63764 0
M  V30 601 H 57.6409 3.74283 -3.29717 0
M  V30 602 H 56.7949 5.72135 -2.01857 0
M  V30 603 H 55.5339 4.71286 -1.25462 0
M  V30 604 H 54.5389 4.23268 -3.50891 0
M  V30 605 H 55.7639 5.27546 -4.27635 0
M  V30 606 H 53.7099 6.17306 -2.21967 0
M  V30 607 H 53.6269 6.46014 -3.92686 0
M  V30 608 H 54.8949 7.19722 -2.99367 0
M  V30 609 N 59.124 1.23083 0.984299 0
M  V30 610 C 60.54 0.992637 1.24975 0
M  V30 611 C 60.74 -0.308618 1.99123 0
M  V30 612 O 59.796 -1.02905 2.30579 0
M  V30 613 C 61.109 2.19698 2.05312 0
M  V30 614 C 62.657 2.24147 2.18465 0
M  V30 615 C 63.132 3.44157 3.02192 0
M  V30 616 N 64.623 3.44372 3.09777 0
M  V30 617 C 65.358 4.33886 3.74874 0
M  V30 618 N 64.854 5.3363 4.41827 0
M  V30 619 N 66.647 4.21639 3.71721 0
M  V30 620 H 58.798 2.06731 0.487453 0
M  V30 621 H 61.061 0.906339 0.277944 0
M  V30 622 H 60.767 3.1411 1.58201 0
M  V30 623 H 60.641 2.20465 3.06064 0
M  V30 624 H 63.028 1.30277 2.64786 0
M  V30 625 H 63.109 2.27415 1.17115 0
M  V30 626 H 62.753 4.38332 2.56568 0
M  V30 627 H 62.683 3.3813 4.03702 0
M  V30 628 H 65.174 2.72201 2.62135 0
M  V30 629 H 65.487 5.98196 4.89266 0
M  V30 630 H 63.832 5.37534 4.40548 0
M  V30 631 H 67.023 3.42962 3.18582 0
M  V30 632 H 67.196 4.91604 4.22173 0
M  V30 633 N 60.6021 -1.18246 1.0419 0
M  V30 634 C 62.0181 -1.40269 0.761366 0
M  V30 635 C 62.2181 -1.90777 -0.648578 0
M  V30 636 O 61.2741 -2.0929 -1.41258 0
M  V30 637 C 62.5871 -2.40237 1.8085 0
M  V30 638 C 64.1351 -2.53961 1.82955 0
M  V30 639 C 64.6101 -3.57194 2.86664 0
M  V30 640 N 66.1011 -3.64702 2.85563 0
M  V30 641 C 66.8361 -4.44309 3.6246 0
M  V30 642 N 66.3321 -5.27514 4.49111 0
M  V30 643 N 68.1251 -4.39084 3.50944 0
M  V30 644 H 60.2761 -0.837882 1.95175 0
M  V30 645 H 62.5391 -0.430608 0.84456 0
M  V30 646 H 62.2451 -2.10176 2.81991 0
M  V30 647 H 62.1191 -3.39601 1.64168 0
M  V30 648 H 64.5061 -2.83338 0.824855 0
M  V30 649 H 64.5871 -1.54706 2.03715 0
M  V30 650 H 64.2311 -3.28558 3.87314 0
M  V30 651 H 64.1611 -4.5613 2.6316 0
M  V30 652 H 66.6521 -3.05289 2.22727 0
M  V30 653 H 66.9651 -5.85411 5.04493 0
M  V30 654 H 65.3101 -5.2693 4.53178 0
M  V30 655 H 68.5011 -3.7313 2.82651 0
M  V30 656 H 68.6741 -5.00883 4.11121 0
M  V30 657 N 62.0802 -0.821533 -1.34494 0
M  V30 658 C 63.4962 -0.507117 -1.51329 0
M  V30 659 C 63.6962 0.968964 -1.76673 0
M  V30 660 O 62.7522 1.75348 -1.81685 0
M  V30 661 C 64.0652 -1.36544 -2.67911 0
M  V30 662 C 65.6132 -1.36242 -2.81793 0
M  V30 663 C 66.0882 -2.2052 -4.01416 0
M  V30 664 N 67.5792 -2.18136 -4.08621 0
M  V30 665 C 68.3142 -2.80095 -5.00334 0
M  V30 666 N 67.8102 -3.51039 -5.9728 0
M  V30 667 N 69.6032 -2.69656 -4.93196 0
M  V30 668 H 61.7542 -1.77729 -1.16302 0
M  V30 669 H 64.0172 -0.757291 -0.570276 0
M  V30 670 H 63.7232 -2.41361 -2.55808 0
M  V30 671 H 63.5972 -1.02917 -3.62888 0
M  V30 672 H 65.9842 -0.322041 -2.93338 0
M  V30 673 H 66.0652 -1.73866 -1.87628 0
M  V30 674 H 65.7092 -3.24607 -3.90631 0
M  V30 675 H 65.6392 -1.80247 -4.94791 0
M  V30 676 H 68.1302 -1.6653 -3.39229 0
M  V30 677 H 68.4432 -3.95565 -6.63889 0
M  V30 678 H 66.7882 -3.55145 -5.97409 0
M  V30 679 H 69.9792 -2.13808 -4.16418 0
M  V30 680 H 70.1522 -3.1823 -5.64476 0
M  V30 681 N 63.5583 1.46682 -0.576371 0
M  V30 682 C 64.8353 1.95599 0.00703437 0
M  V30 683 C 65.2153 1.51904 1.46589 0
M  V30 684 O 64.5633 0.766755 2.15251 0
M  V30 685 C 64.7733 3.4864 -0.158404 0
M  V30 686 C 66.1213 4.24594 -0.0229439 0
M  V30 687 O 67.1453 3.56094 -0.0869173 0
M  V30 688 O 66.0043 5.46373 0.118015 0
M  V30 689 H 63.0983 0.825275 0.053384 0
M  V30 690 H 65.6443 1.56996 -0.644244 0
M  V30 691 H 64.4163 3.7331 -1.17282 0
M  V30 692 H 64.0393 3.94057 0.5296 0
M  V30 693 N 65.0364 0.313813 1.54444 0
M  V30 694 C 66.2844 -0.291099 1.99993 0
M  V30 695 C 66.6054 -1.53418 1.20366 0
M  V30 696 O 65.8754 -1.93544 0.302927 0
M  V30 697 H 64.4554 -0.110552 0.738774 0
M  V30 698 H 67.1174 0.428106 1.9014 0
M  V30 699 H 66.2134 -0.554268 3.07139 0
M  V30 700 N 66.5145 -1.57545 0.0417849 0
M  V30 701 C 67.7445 -1.96339 -0.642995 0
M  V30 702 C 68.1525 -0.917536 -1.65463 0
M  V30 703 O 67.4955 0.107747 -1.83384 0
M  V30 704 C 67.5575 -3.31333 -1.39494 0
M  V30 705 C 67.2215 -4.53796 -0.540204 0
M  V30 706 C 68.2185 -5.19553 0.189806 0
M  V30 707 C 65.9035 -5.0006 -0.473886 0
M  V30 708 C 67.8975 -6.29904 0.974674 0
M  V30 709 C 65.5845 -6.10289 0.314677 0
M  V30 710 C 66.5825 -6.75072 1.03765 0
M  V30 711 O 66.2705 -7.83183 1.81327 0
M  V30 712 H 66.0025 -0.651241 -0.181277 0
M  V30 713 H 68.5565 -2.05148 0.101665 0
M  V30 714 H 66.7865 -3.19052 -2.18502 0
M  V30 715 H 68.4755 -3.54942 -1.96904 0
M  V30 716 H 69.2415 -4.84774 0.147981 0
M  V30 717 H 65.1205 -4.49433 -1.0262 0
M  V30 718 H 68.6645 -6.80401 1.5395 0
M  V30 719 H 64.5615 -6.44506 0.358174 0
M  V30 720 H 65.3295 -7.99913 1.73438 0
M  V30 721 N 67.9926 0.231505 -1.5589 0
M  V30 722 C 68.9226 1.29022 -1.94617 0
M  V30 723 C 69.9036 1.4941 -0.813067 0
M  V30 724 O 71.0886 1.6176 -1.07459 0
M  V30 725 C 68.2186 2.64199 -2.25424 0
M  V30 726 C 67.1726 2.58484 -3.41131 0
M  V30 727 C 66.4986 3.97599 -3.57518 0
M  V30 728 C 67.7986 2.1413 -4.76388 0
M  V30 729 H 69.4926 0.968563 -2.83301 0
M  V30 730 H 67.0386 0.464479 -1.36303 0
M  V30 731 H 68.9916 3.38413 -2.51107 0
M  V30 732 H 67.7156 2.98032 -1.33583 0
M  V30 733 H 66.3746 1.86727 -3.15481 0
M  V30 734 H 66.0226 4.28723 -2.6307 0
M  V30 735 H 65.7226 3.94659 -4.35337 0
M  V30 736 H 67.2466 4.7349 -3.85538 0
M  V30 737 H 68.6606 2.78083 -5.01341 0
M  V30 738 H 67.0576 2.2227 -5.57419 0
M  V30 739 H 68.1276 1.09331 -4.72414 0
M  V30 740 N 69.4707 1.49531 0.497807 0
M  V30 741 C 70.7177 1.59179 1.25173 0
M  V30 742 C 71.0457 0.279932 1.92475 0
M  V30 743 O 70.3007 -0.732383 1.81479 0
M  V30 744 C 70.5997 2.70252 2.33878 0
M  V30 745 C 70.2657 4.11644 1.84012 0
M  V30 746 C 68.9277 4.50121 1.70132 0
M  V30 747 C 71.2797 5.00121 1.46725 0
M  V30 748 C 68.6077 5.74845 1.17348 0
M  V30 749 C 70.9597 6.25366 0.95392 0
M  V30 750 C 69.6237 6.6267 0.801538 0
M  V30 751 H 68.8937 0.582478 0.45804 0
M  V30 752 H 71.5407 1.83373 0.551948 0
M  V30 753 H 69.8457 2.40041 3.09657 0
M  V30 754 H 71.5427 2.74925 2.9192 0
M  V30 755 H 68.1327 3.81274 1.95775 0
M  V30 756 H 72.3167 4.71048 1.56294 0
M  V30 757 H 67.5727 6.02444 1.04264 0
M  V30 758 H 71.7467 6.93301 0.656225 0
M  V30 759 H 69.3737 7.59197 0.390351 0
M  V30 760 N 70.9488 -0.749086 1.3866 0
M  V30 761 C 71.8808 -1.87273 1.32142 0
M  V30 762 C 72.8938 -1.61127 0.232787 0
M  V30 763 O 74.0828 -1.71623 0.49069 0
M  V30 764 C 71.1828 -3.23005 1.02571 0
M  V30 765 C 70.3558 -3.7662 2.22433 0
M  V30 766 C 69.4148 -4.90879 1.89537 0
M  V30 767 O 68.4408 -5.05276 2.62078 0
M  V30 768 N 69.6428 -5.74198 0.853031 0
M  V30 769 H 72.4078 -1.93373 2.28969 0
M  V30 770 H 69.9688 -0.929216 1.32579 0
M  V30 771 H 71.9608 -3.96992 0.786085 0
M  V30 772 H 70.5308 -3.12262 0.145249 0
M  V30 773 H 69.7508 -2.94147 2.62434 0
M  V30 774 H 71.0388 -4.09173 3.02415 0
M  V30 775 H 70.4368 -5.6514 0.25155 0
M  V30 776 H 68.9938 -6.48313 0.67329 0
M  V30 777 N 72.4269 -1.23603 -0.977757 0
M  V30 778 C 73.3569 -1.04401 -2.0886 0
M  V30 779 C 74.3379 0.0399052 -1.70053 0
M  V30 780 O 75.5229 -0.125246 -1.93796 0
M  V30 781 C 72.6529 -0.637269 -3.41403 0
M  V30 782 C 71.6069 -1.66883 -3.94124 0
M  V30 783 C 70.9329 -1.11745 -5.22893 0
M  V30 784 C 72.2329 -3.06247 -4.23096 0
M  V30 785 H 73.9269 -1.97316 -2.25182 0
M  V30 786 H 71.4729 -0.950096 -1.08209 0
M  V30 787 H 73.4259 -0.48998 -4.18542 0
M  V30 788 H 72.1499 0.327557 -3.24953 0
M  V30 789 H 70.8089 -1.80416 -3.19133 0
M  V30 790 H 70.4569 -0.143527 -5.02795 0
M  V30 791 H 70.1569 -1.80672 -5.59134 0
M  V30 792 H 71.6809 -0.982067 -6.02651 0
M  V30 793 H 73.0949 -2.96001 -4.90975 0
M  V30 794 H 71.4919 -3.72436 -4.70544 0
M  V30 795 H 72.5619 -3.55041 -3.30263 0
M  V30 796 N 73.905 1.17692 -1.04816 0
M  V30 797 C 74.835 2.23777 -0.666791 0
M  V30 798 C 75.816 1.66796 0.33361 0
M  V30 799 O 77.001 1.93039 0.212042 0
M  V30 800 C 74.131 3.47281 -0.0367933 0
M  V30 801 C 73.085 4.17059 -0.961546 0
M  V30 802 C 72.411 5.34342 -0.195626 0
M  V30 803 C 73.711 4.69713 -2.28402 0
M  V30 804 H 75.405 2.55933 -1.55367 0
M  V30 805 H 72.951 1.23019 -0.748484 0
M  V30 806 H 74.904 4.20706 0.241775 0
M  V30 807 H 73.628 3.14381 0.885004 0
M  V30 808 H 72.287 3.45541 -1.22462 0
M  V30 809 H 71.935 4.97692 0.728816 0
M  V30 810 H 71.635 5.81966 -0.811775 0
M  V30 811 H 73.159 6.10553 0.0757473 0
M  V30 812 H 74.573 5.34794 -2.06563 0
M  V30 813 H 72.97 5.279 -2.8538 0
M  V30 814 H 74.04 3.86726 -2.92525 0
M  V30 815 N 75.3831 0.828654 1.34056 0
M  V30 816 C 76.7991 0.515135 1.51058 0
M  V30 817 C 76.9991 -0.959581 1.77184 0
M  V30 818 O 76.0551 -1.74382 1.82612 0
M  V30 819 C 77.3681 1.37963 2.67183 0
M  V30 820 C 78.9161 1.37735 2.81066 0
M  V30 821 C 79.3911 2.22645 4.00241 0
M  V30 822 N 80.8821 2.203 4.07458 0
M  V30 823 C 81.6171 2.82744 4.98842 0
M  V30 824 N 81.1131 3.54201 5.9541 0
M  V30 825 N 82.9061 2.72268 4.91759 0
M  V30 826 H 75.0571 1.78343 1.15358 0
M  V30 827 H 77.3201 0.760304 0.566252 0
M  V30 828 H 77.0261 2.42714 2.54525 0
M  V30 829 H 76.9001 1.0484 3.62338 0
M  V30 830 H 79.2871 0.337593 2.93163 0
M  V30 831 H 79.3681 1.74859 1.86703 0
M  V30 832 H 79.0121 3.26674 3.88905 0
M  V30 833 H 78.9421 1.82869 4.93829 0
M  V30 834 H 81.4331 1.68327 3.38341 0
M  V30 835 H 81.7461 3.9908 6.61782 0
M  V30 836 H 80.0911 3.58308 5.95517 0
M  V30 837 H 83.2821 2.16014 4.15278 0
M  V30 838 H 83.4551 3.21219 5.62781 0
M  V30 839 N 76.8612 -1.46375 0.584142 0
M  V30 840 C 78.1102 -2.01585 0.0679741 0
M  V30 841 C 78.4232 -1.46109 -1.30045 0
M  V30 842 O 79.6292 -1.93148 -1.90804 0
M  V30 843 C 78.0852 -3.5983 0.0709207 0
M  V30 844 C 77.6932 -4.24303 1.43775 0
M  V30 845 C 79.4372 -4.22693 -0.391228 0
M  V30 846 C 77.3442 -5.74631 1.39834 0
M  V30 847 H 76.2742 -0.753689 0.0216421 0
M  V30 848 H 78.9252 -1.68093 0.736001 0
M  V30 849 H 77.3072 -3.90405 -0.663299 0
M  V30 850 H 78.4812 -4.05335 2.19181 0
M  V30 851 H 76.7962 -3.73539 1.84004 0
M  V30 852 H 79.3932 -5.3289 -0.439524 0
M  V30 853 H 79.7362 -3.91728 -1.40906 0
M  V30 854 H 80.2692 -3.96749 0.288974 0
M  V30 855 H 77.0082 -6.10258 2.39303 0
M  V30 856 H 76.5282 -5.95858 0.686505 0
M  V30 857 H 78.2072 -6.37375 1.11187 0
M  V30 858 N 78.3393 -0.321999 -1.54275 0
M  V30 859 C 79.3023 0.531975 -2.22941 0
M  V30 860 C 80.3023 1.04478 -1.22234 0
M  V30 861 O 81.4923 0.937452 -1.46825 0
M  V30 862 C 78.6243 1.73874 -2.93224 0
M  V30 863 H 79.8173 -0.0682612 -2.99822 0
M  V30 864 H 77.3703 -0.0730644 -1.56129 0
M  V30 865 H 78.1053 2.37825 -2.20476 0
M  V30 866 H 77.8903 1.37847 -3.6707 0
M  V30 867 H 79.3803 2.34496 -3.45545 0
M  V30 868 N 79.8174 1.5752 -0.0501392 0
M  V30 869 C 81.0944 1.83996 0.663685 0
M  V30 870 C 81.4744 0.938339 1.89099 0
M  V30 871 O 80.8224 -0.00087759 2.285 0
M  V30 872 C 81.0324 3.33702 1.02196 0
M  V30 873 C 82.3804 4.00691 1.40469 0
M  V30 874 O 83.4044 3.38321 1.11433 0
M  V30 875 O 82.2634 5.10658 1.94654 0
M  V30 876 H 79.3574 0.759385 0.32751 0
M  V30 877 H 81.9034 1.69514 -0.0794238 0
M  V30 878 H 80.6754 3.91015 0.149364 0
M  V30 879 H 80.2984 3.53368 1.82255 0
M  V30 880 N 81.2955 -0.223234 1.56011 0
M  V30 881 C 82.2585 -1.26014 1.9145 0
M  V30 882 C 83.2585 -1.3989 0.792937 0
M  V30 883 O 84.4485 -1.38184 1.0607 0
M  V30 884 C 81.5805 -2.63422 2.16383 0
M  V30 885 H 82.7735 -0.95796 2.84189 0
M  V30 886 H 80.3265 -0.463576 1.49267 0
M  V30 887 H 81.0615 -2.98741 1.2619 0
M  V30 888 H 80.8465 -2.54728 2.98088 0
M  V30 889 H 82.3365 -3.38249 2.44903 0
M  V30 890 N 82.7736 -1.49793 -0.48987 0
M  V30 891 C 83.7236 -1.63673 -1.5873 0
M  V30 892 C 84.7076 -0.491956 -1.53195 0
M  V30 893 O 85.8996 -0.745461 -1.60536 0
M  V30 894 C 83.0286 -1.71689 -2.97284 0
M  V30 895 C 82.1146 -2.91781 -3.07774 0
M  V30 896 N 82.5056 -4.15714 -2.88124 0
M  V30 897 C 80.8036 -2.89949 -3.38889 0
M  V30 898 C 81.5046 -4.965 -3.03088 0
M  V30 899 N 80.4806 -4.30083 -3.3246 0
M  V30 900 H 84.2826 -2.57204 -1.42208 0
M  V30 901 H 81.7966 -1.46719 -0.69623 0
M  V30 902 H 83.7936 -1.79732 -3.76168 0
M  V30 903 H 82.4536 -0.793024 -3.14867 0
M  V30 904 H 83.4646 -4.45515 -2.64077 0
M  V30 905 H 80.1416 -2.06987 -3.62578 0
M  V30 906 H 81.5316 -6.04991 -2.92294 0
M  V30 907 N 84.2517 0.741722 -1.39055 0
M  V30 908 C 85.1817 1.869 -1.39966 0
M  V30 909 C 86.1627 1.6804 -0.26392 0
M  V30 910 O 87.3477 1.88458 -0.468755 0
M  V30 911 C 84.4777 3.24572 -1.23574 0
M  V30 912 C 83.4317 3.58056 -2.34477 0
M  V30 913 C 82.7577 4.94593 -2.0318 0
M  V30 914 C 84.0577 3.61716 -3.76774 0
M  V30 915 H 85.7517 1.86395 -2.34302 0
M  V30 916 H 83.2977 0.895361 -1.1278 0
M  V30 917 H 85.2507 4.031 -1.22834 0
M  V30 918 H 83.9747 3.25587 -0.257045 0
M  V30 919 H 82.6337 2.81854 -2.34423 0
M  V30 920 H 82.2817 4.92181 -1.03765 0
M  V30 921 H 81.9817 5.17964 -2.77465 0
M  V30 922 H 83.5057 5.75486 -2.04079 0
M  V30 923 H 84.9197 4.30335 -3.78794 0
M  V30 924 H 83.3167 3.96603 -4.50362 0
M  V30 925 H 84.3867 2.61672 -4.08235 0
M  V30 926 N 85.7298 1.2412 0.971189 0
M  V30 927 C 87.0068 0.986867 1.6888 0
M  V30 928 C 87.3868 -0.491857 2.0529 0
M  V30 929 O 86.7348 -1.46531 1.75331 0
M  V30 930 C 86.9448 1.9063 2.92338 0
M  V30 931 C 88.2928 2.17515 3.64654 0
M  V30 932 O 89.3168 1.88254 3.02388 0
M  V30 933 O 88.1758 2.6719 4.7673 0
M  V30 934 H 85.2698 0.372944 0.738134 0
M  V30 935 H 87.8158 1.35203 1.02559 0
M  V30 936 H 86.5878 2.90552 2.62097 0
M  V30 937 H 86.2108 1.54408 3.66393 0
M  V30 938 N 87.2079 -1.17134 1.05439 0
M  V30 939 C 88.6239 -1.39454 0.776201 0
M  V30 940 C 88.8239 -1.91454 -0.628307 0
M  V30 941 O 87.8799 -2.10777 -1.39031 0
M  V30 942 C 89.1929 -2.38305 1.83388 0
M  V30 943 C 90.7409 -2.52006 1.85639 0
M  V30 944 C 91.2159 -3.54133 2.90437 0
M  V30 945 N 92.7069 -3.61653 2.89415 0
M  V30 946 C 93.4419 -4.4044 3.67152 0
M  V30 947 N 92.9379 -5.22721 4.54681 0
M  V30 948 N 94.7309 -4.35337 3.55581 0
M  V30 949 H 86.8819 -0.817134 1.96053 0
M  V30 950 H 89.1449 -0.421626 0.849079 0
M  V30 951 H 88.8509 -2.07173 2.84204 0
M  V30 952 H 88.7249 -3.37841 1.67761 0
M  V30 953 H 91.1119 -2.82447 0.85486 0
M  V30 954 H 91.1929 -1.52537 2.05344 0
M  V30 955 H 90.8369 -3.24431 3.90777 0
M  V30 956 H 90.7669 -4.53313 2.67983 0
M  V30 957 H 93.2579 -3.02909 2.25952 0
M  V30 958 H 93.5709 -5.80027 5.10674 0
M  V30 959 H 91.9159 -5.22093 4.58741 0
M  V30 960 H 95.1069 -3.70112 2.86592 0
M  V30 961 H 95.2799 -4.96494 4.1641 0
M  V30 962 N 88.686 -0.835752 -1.33615 0
M  V30 963 C 89.932 -0.430596 -1.98176 0
M  V30 964 C 90.265 1.00684 -1.66061 0
M  V30 965 O 89.54 1.70339 -0.938877 0
M  V30 966 C 89.823 -0.648065 -3.5422 0
M  V30 967 C 89.676 -2.13255 -3.96033 0
M  V30 968 C 90.995 -0.0922113 -4.40003 0
M  V30 969 H 88.114 -0.157924 -0.719881 0
M  V30 970 H 90.756 -1.05069 -1.58305 0
M  V30 971 H 88.906 -0.120237 -3.88314 0
M  V30 972 H 90.578 -2.725 -3.72211 0
M  V30 973 H 88.821 -2.61823 -3.45878 0
M  V30 974 H 89.492 -2.23547 -5.04708 0
M  V30 975 H 91.968 -0.543343 -4.12537 0
M  V30 976 H 90.844 -0.274083 -5.48215 0
M  V30 977 H 91.105 1.00378 -4.30554 0
M  V30 978 N 90.1641 1.46063 -0.591896 0
M  V30 979 C 91.0741 2.34192 0.13831 0
M  V30 980 C 92.0901 1.50305 0.876608 0
M  V30 981 O 93.2661 1.8315 0.837728 0
M  V30 982 C 90.3311 3.27656 1.13326 0
M  V30 983 C 89.3921 4.27445 0.39863 0
M  V30 984 C 88.6251 5.16443 1.34618 0
M  V30 985 O 88.8481 5.08553 2.58321 0
M  V30 986 O 87.7821 5.95843 0.851768 0
M  V30 987 H 91.6081 2.98002 -0.58552 0
M  V30 988 H 89.1931 1.45188 -0.352239 0
M  V30 989 H 91.0751 3.85291 1.70671 0
M  V30 990 H 89.7501 2.6643 1.83839 0
M  V30 991 H 88.6571 3.73471 -0.216895 0
M  V30 992 H 89.9901 4.91482 -0.265709 0
M  V30 993 N 91.6422 0.330177 1.54103 0
M  V30 994 C 92.5902 -0.548226 2.26047 0
M  V30 995 C 93.5842 -1.11309 1.27698 0
M  V30 996 O 94.7902 -1.06036 1.45452 0
M  V30 997 H 91.1652 -0.195456 0.726155 0
M  V30 998 H 93.1362 0.0807567 2.98291 0
M  V30 999 C 91.8852 -1.69415 3.03634 0
M  V30 1000 H 91.2082 -1.26876 3.79134 0
M  V30 1001 H 92.6482 -2.28423 3.5721 0
M  V30 1002 C 91.1072 -2.61569 2.12328 0
M  V30 1003 O 91.6372 -3.63462 1.7105 0
M  V30 1004 N 89.8432 -2.29952 1.77681 0
M  V30 1005 H 89.3902 -1.47134 2.11446 0
M  V30 1006 H 89.3482 -2.91871 1.16869 0
M  V30 1007 N 93.1203 -1.57491 0.0584922 0
M  V30 1008 C 94.3483 -1.97296 -0.623037 0
M  V30 1009 C 94.7633 -0.936338 -1.63946 0
M  V30 1010 O 94.1203 0.0785981 -1.82331 0
M  V30 1011 C 94.1713 -3.37183 -1.30345 0
M  V30 1012 O 93.8923 -4.36872 -0.32773 0
M  V30 1013 C 95.3933 -3.91788 -2.07406 0
M  V30 1014 H 92.6133 -0.649153 -0.169826 0
M  V30 1015 H 95.1573 -2.04106 0.12696 0
M  V30 1016 H 93.3123 -3.31502 -2.00463 0
M  V30 1017 H 93.7263 -5.18141 -0.814269 0
M  V30 1018 H 95.2003 -4.91926 -2.50425 0
M  V30 1019 H 95.6773 -3.27609 -2.92521 0
M  V30 1020 H 96.2833 -4.00829 -1.42184 0
M  V30 1021 N 94.5984 0.214957 -1.56127 0
M  V30 1022 C 95.8264 0.955092 -1.83536 0
M  V30 1023 C 96.2414 1.77677 -0.638472 0
M  V30 1024 O 95.5984 1.78219 0.392968 0
M  V30 1025 C 95.6494 1.86734 -3.09536 0
M  V30 1026 O 95.3704 1.07887 -4.24608 0
M  V30 1027 C 96.8714 2.72082 -3.4998 0
M  V30 1028 H 94.0914 0.279611 -0.609966 0
M  V30 1029 H 96.6354 0.228197 -2.03223 0
M  V30 1030 H 94.7904 2.5481 -2.91806 0
M  V30 1031 H 95.2044 1.69872 -4.9623 0
M  V30 1032 H 96.6784 3.31782 -4.41163 0
M  V30 1033 H 97.1554 3.44806 -2.7204 0
M  V30 1034 H 97.7614 2.09409 -3.70173 0
M  V30 1035 N 96.0765 1.50051 0.48192 0
M  V30 1036 C 97.3225 1.60736 1.2366 0
M  V30 1037 C 97.6555 0.301786 1.91841 0
M  V30 1038 O 96.9305 -0.696025 1.8162 0
M  V30 1039 C 97.2135 2.78009 2.28874 0
M  V30 1040 C 97.0665 4.18416 1.65069 0
M  V30 1041 C 98.3855 2.90867 3.30279 0
M  V30 1042 H 95.5045 0.585031 0.448228 0
M  V30 1043 H 98.1465 1.82402 0.531946 0
M  V30 1044 H 96.2965 2.59667 2.88973 0
M  V30 1045 H 97.9685 4.48322 1.0865 0
M  V30 1046 H 96.2115 4.23177 0.954148 0
M  V30 1047 H 96.8825 4.96381 2.41474 0
M  V30 1048 H 99.3585 3.07623 2.80191 0
M  V30 1049 H 98.2345 3.74566 4.01238 0
M  V30 1050 H 98.4955 2.01021 3.93755 0
M  V30 1051 N 97.5546 -0.734337 1.39446 0
M  V30 1052 C 98.7846 -1.52137 1.39778 0
M  V30 1053 C 99.1926 -1.89198 -0.00929312 0
M  V30 1054 O 98.5356 -1.54666 -0.991168 0
M  V30 1055 C 98.5976 -2.83762 2.20724 0
M  V30 1056 C 98.2616 -2.69131 3.69347 0
M  V30 1057 C 99.2586 -2.37635 4.62413 0
M  V30 1058 C 96.9436 -2.85982 4.1294 0
M  V30 1059 C 98.9376 -2.23172 5.97054 0
M  V30 1060 C 96.6246 -2.71137 5.47657 0
M  V30 1061 C 97.6226 -2.39777 6.39528 0
M  V30 1062 O 97.3106 -2.25026 7.71763 0
M  V30 1063 H 97.0426 -0.476717 0.479288 0
M  V30 1064 H 99.5966 -0.915012 1.83893 0
M  V30 1065 H 97.8266 -3.4666 1.71359 0
M  V30 1066 H 99.5156 -3.45383 2.13226 0
M  V30 1067 H 100.282 -2.24267 4.30034 0
M  V30 1068 H 96.1606 -3.09383 3.41765 0
M  V30 1069 H 99.7046 -1.98617 6.68728 0
M  V30 1070 H 95.6016 -2.84083 5.79626 0
M  V30 1071 H 96.3696 -2.40091 7.82495 0
M  V30 1072 N 99.0327 -1.24633 -0.964593 0
M  V30 1073 C 100.263 -1.11339 -1.74032 0
M  V30 1074 C 100.671 0.336593 -1.86182 0
M  V30 1075 O 100.014 1.24389 -1.35178 0
M  V30 1076 C 100.076 -1.68284 -3.1768 0
M  V30 1077 C 99.7397 -3.17196 -3.28992 0
M  V30 1078 C 100.737 -4.14308 -3.14078 0
M  V30 1079 C 98.4217 -3.57215 -3.53133 0
M  V30 1080 C 100.416 -5.4942 -3.23135 0
M  V30 1081 C 98.1027 -4.92468 -3.61827 0
M  V30 1082 C 99.1007 -5.8838 -3.46841 0
M  V30 1083 O 98.7887 -7.21173 -3.55197 0
M  V30 1084 H 98.5207 -0.389551 -0.552472 0
M  V30 1085 H 101.075 -1.65282 -1.21946 0
M  V30 1086 H 99.3047 -1.08777 -3.71085 0
M  V30 1087 H 100.994 -1.50234 -3.77074 0
M  V30 1088 H 101.76 -3.84731 -2.95308 0
M  V30 1089 H 97.6387 -2.83063 -3.63863 0
M  V30 1090 H 101.183 -6.24263 -3.11355 0
M  V30 1091 H 97.0797 -5.21714 -3.80111 0
M  V30 1092 H 97.8477 -7.29135 -3.71892 0
M  V30 1093 N 100.511 1.16574 -1.06058 0
M  V30 1094 C 101.441 2.23057 -0.690488 0
M  V30 1095 C 102.422 1.67141 0.315901 0
M  V30 1096 O 103.607 1.93253 0.191556 0
M  V30 1097 C 100.737 3.47222 -0.073625 0
M  V30 1098 C 99.6908 4.16016 -1.00573 0
M  V30 1099 C 99.0168 5.34104 -0.252289 0
M  V30 1100 C 100.317 4.67264 -2.33371 0
M  V30 1101 H 102.011 2.54271 -1.58072 0
M  V30 1102 H 99.5568 1.22218 -0.76149 0
M  V30 1103 H 101.51 4.20939 0.19714 0
M  V30 1104 H 100.234 3.15302 0.85161 0
M  V30 1105 H 98.8928 3.44223 -1.2612 0
M  V30 1106 H 98.5408 4.98437 0.675988 0
M  V30 1107 H 98.2408 5.81072 -0.873455 0
M  V30 1108 H 99.7648 6.10599 0.0109857 0
M  V30 1109 H 101.179 5.32573 -2.12223 0
M  V30 1110 H 99.5758 5.24843 -2.90963 0
M  V30 1111 H 100.646 3.83602 -2.96611 0
M  V30 1112 N 101.989 0.842826 1.3317 0
M  V30 1113 C 103.235 0.441099 1.97945 0
M  V30 1114 C 103.568 -0.998024 1.66593 0
M  V30 1115 O 102.843 -1.69839 0.947898 0
M  V30 1116 C 103.126 0.666841 3.53872 0
M  V30 1117 C 102.979 2.15352 3.94897 0
M  V30 1118 C 104.298 0.115544 4.39948 0
M  V30 1119 H 101.417 0.161739 0.719034 0
M  V30 1120 H 104.059 1.05907 1.57746 0
M  V30 1121 H 102.209 0.140828 3.88245 0
M  V30 1122 H 103.881 2.7447 3.70761 0
M  V30 1123 H 102.124 2.63653 3.44484 0
M  V30 1124 H 102.795 2.26221 5.03516 0
M  V30 1125 H 105.271 0.565213 4.12243 0
M  V30 1126 H 104.147 0.303152 5.48062 0
M  V30 1127 H 104.408 -0.980935 4.3108 0
M  V30 1128 N 103.467 -1.45747 0.599634 0
M  V30 1129 C 104.397 -2.33235 -0.111306 0
M  V30 1130 C 105.378 -1.46359 -0.866781 0
M  V30 1131 O 106.563 -1.75146 -0.838904 0
M  V30 1132 C 103.693 -3.28932 -1.11451 0
M  V30 1133 C 102.647 -4.25381 -0.472772 0
M  V30 1134 C 101.973 -5.1071 -1.58365 0
M  V30 1135 C 103.273 -5.18831 0.600948 0
M  V30 1136 H 104.967 -2.92927 0.61919 0
M  V30 1137 H 102.513 -1.40857 0.299215 0
M  V30 1138 H 104.466 -3.89002 -1.62036 0
M  V30 1139 H 103.19 -2.67381 -1.8755 0
M  V30 1140 H 101.849 -3.66598 0.0121472 0
M  V30 1141 H 101.497 -4.45533 -2.33473 0
M  V30 1142 H 101.197 -5.7604 -1.15982 0
M  V30 1143 H 102.721 -5.73647 -2.09194 0
M  V30 1144 H 104.135 -5.73019 0.179491 0
M  V30 1145 H 102.532 -5.92595 0.946076 0
M  V30 1146 H 103.602 -4.6174 1.48068 0
M  V30 1147 N 104.945 -0.338344 -1.53925 0
M  V30 1148 C 106.222 0.314774 -1.93051 0
M  V30 1149 C 106.602 1.68669 -1.26941 0
M  V30 1150 O 105.95 2.24636 -0.418445 0
M  V30 1151 C 106.16 0.392249 -3.46789 0
M  V30 1152 C 107.508 0.645554 -4.19664 0
M  V30 1153 O 108.532 0.474575 -3.53024 0
M  V30 1154 O 107.391 0.976408 -5.37707 0
M  V30 1155 H 104.485 0.182598 -0.80659 0
M  V30 1156 H 107.031 -0.389141 -1.65178 0
M  V30 1157 H 105.803 -0.570702 -3.87116 0
M  V30 1158 H 105.426 1.14316 -3.80812 0
M  V30 1159 N 106.423 1.57458 -0.0668435 0
M  V30 1160 C 107.669 1.93587 0.6043 0
M  V30 1161 C 108.002 0.946722 1.69561 0
M  V30 1162 O 107.277 -0.0248516 1.94484 0
M  V30 1163 C 107.56 3.40014 1.18585 0
M  V30 1164 C 107.413 4.49685 0.101529 0
M  V30 1165 C 108.732 3.87154 2.09284 0
M  V30 1166 H 105.851 0.703958 0.218202 0
M  V30 1167 H 108.493 1.89542 -0.131804 0
M  V30 1168 H 106.643 3.43592 1.81319 0
M  V30 1169 H 108.315 4.5823 -0.531279 0
M  V30 1170 H 106.558 4.30059 -0.568487 0
M  V30 1171 H 107.229 5.49266 0.54874 0
M  V30 1172 H 109.705 3.85551 1.56491 0
M  V30 1173 H 108.581 4.90231 2.46911 0
M  V30 1174 H 108.842 3.2481 2.99918 0
M  V30 1175 N 107.901 -0.206675 1.56239 0
M  V30 1176 C 108.833 -1.27997 1.9013 0
M  V30 1177 C 109.846 -1.42299 0.790883 0
M  V30 1178 O 111.035 -1.42931 1.06925 0
M  V30 1179 C 108.135 -2.65368 2.10792 0
M  V30 1180 C 107.308 -2.72824 3.41886 0
M  V30 1181 C 106.367 -3.9131 3.51799 0
M  V30 1182 O 105.393 -3.78953 4.24716 0
M  V30 1183 N 106.595 -5.06265 2.84035 0
M  V30 1184 H 109.36 -0.992444 2.82791 0
M  V30 1185 H 106.921 -0.396652 1.56966 0
M  V30 1186 H 108.913 -3.43039 2.14724 0
M  V30 1187 H 107.483 -2.86657 1.24685 0
M  V30 1188 H 106.703 -1.81515 3.49923 0
M  V30 1189 H 107.991 -2.74786 4.28217 0
M  V30 1190 H 107.389 -5.19203 2.246 0
M  V30 1191 H 105.946 -5.81925 2.93609 0
M  V30 1192 N 109.379 -1.50304 -0.473955 0
M  V30 1193 C 110.289 -1.7174 -1.5982 0
M  V30 1194 C 111.305 -0.600457 -1.63311 0
M  V30 1195 O 112.481 -0.878441 -1.81233 0
M  V30 1196 C 109.546 -1.80427 -2.96052 0
M  V30 1197 C 108.607 -3.04148 -3.02972 0
M  V30 1198 C 107.84 -3.12411 -4.32706 0
M  V30 1199 O 108.063 -2.27542 -5.23049 0
M  V30 1200 O 106.997 -4.05113 -4.45159 0
M  V30 1201 H 110.823 -2.67035 -1.44657 0
M  V30 1202 H 108.408 -1.34366 -0.653148 0
M  V30 1203 H 110.29 -1.88338 -3.7697 0
M  V30 1204 H 108.965 -0.883156 -3.11419 0
M  V30 1205 H 107.872 -3.0174 -2.21142 0
M  V30 1206 H 109.205 -3.95829 -2.92541 0
M  V30 1207 N 110.857 0.726932 -1.39834 0
M  V30 1208 C 112.082 1.52121 -1.40976 0
M  V30 1209 C 112.507 1.88098 -0.00826029 0
M  V30 1210 O 111.865 1.52479 0.980807 0
M  V30 1211 C 111.913 2.78021 -2.29644 0
M  V30 1212 O 111.017 3.74272 -1.73188 0
M  V30 1213 H 110.358 0.45908 -0.479731 0
M  V30 1214 H 112.888 0.896207 -1.83927 0
M  V30 1215 H 112.898 3.26671 -2.44438 0
M  V30 1216 H 111.573 2.51169 -3.31492 0
M  V30 1217 H 110.15 3.33073 -1.6768 0
M  V30 1218 N 112.336 1.25143 0.95797 0
M  V30 1219 C 113.613 1.00472 1.67823 0
M  V30 1220 C 113.993 -0.470056 2.058 0
M  V30 1221 O 113.341 -1.44663 1.76875 0
M  V30 1222 C 113.551 1.9372 2.90299 0
M  V30 1223 C 114.899 2.21371 3.62326 0
M  V30 1224 O 115.923 1.91451 3.00375 0
M  V30 1225 O 114.782 2.72231 4.7387 0
M  V30 1226 H 111.876 0.380752 0.734137 0
M  V30 1227 H 114.422 1.36283 1.01119 0
M  V30 1228 H 113.194 2.93316 2.59001 0
M  V30 1229 H 112.817 1.58286 3.64735 0
M  V30 1230 N 113.814 -1.1601 1.06675 0
M  V30 1231 C 115.054 -1.88304 0.795037 0
M  V30 1232 C 115.418 -1.80062 -0.666466 0
M  V30 1233 O 116.619 -2.47319 -1.05293 0
M  V30 1234 C 114.89 -3.33664 1.28076 0
M  V30 1235 S 116.449 -4.23768 1.13868 0
M  V30 1236 H 113.267 -0.649928 0.288296 0
M  V30 1237 H 115.869 -1.4001 1.36445 0
M  V30 1238 H 114.573 -3.37203 2.33927 0
M  V30 1239 H 114.104 -3.87009 0.706253 0
M  V30 1240 H 116.119 -4.96148 0.0719668 0
M  V30 1241 N 115.292 -0.849877 -1.32721 0
M  V30 1242 C 116.517 -0.463856 -2.02146 0
M  V30 1243 C 116.942 0.930449 -1.63476 0
M  V30 1244 O 116.3 1.61033 -0.832952 0
M  V30 1245 C 116.348 -0.604955 -3.55489 0
M  V30 1246 O 115.452 0.36425 -4.10788 0
M  V30 1247 H 114.793 -0.187046 -0.637111 0
M  V30 1248 H 117.323 -1.14775 -1.69375 0
M  V30 1249 H 117.333 -0.490696 -4.05038 0
M  V30 1250 H 116.008 -1.62174 -3.82978 0
M  V30 1251 H 114.585 0.206628 -3.72327 0
M  V30 1252 N 116.77 1.45427 -0.607355 0
M  V30 1253 C 118.016 2.0254 -0.102607 0
M  V30 1254 C 118.349 1.47478 1.26348 0
M  V30 1255 O 117.624 0.64939 1.83339 0
M  V30 1256 C 117.907 3.60044 -0.0634347 0
M  V30 1257 C 117.76 4.2544 -1.46017 0
M  V30 1258 C 119.079 4.35646 0.624514 0
M  V30 1259 H 116.198 0.73598 -0.0387607 0
M  V30 1260 H 118.84 1.73284 -0.779282 0
M  V30 1261 H 116.99 3.85101 0.512808 0
M  V30 1262 H 118.662 4.11569 -2.08347 0
M  V30 1263 H 116.905 3.83849 -2.02094 0
M  V30 1264 H 117.576 5.34342 -1.385 0
M  V30 1265 H 120.052 4.15882 0.134723 0
M  V30 1266 H 118.928 5.45376 0.621028 0
M  V30 1267 H 119.189 4.08501 1.69055 0
M  V30 1268 N 118.248 0.346503 1.53744 0
M  V30 1269 C 119.178 -0.501193 2.28058 0
M  V30 1270 C 120.159 -1.10014 1.29734 0
M  V30 1271 O 121.344 -1.12097 1.58581 0
M  V30 1272 C 118.474 -1.65078 3.05559 0
M  V30 1273 C 117.428 -1.18003 4.11411 0
M  V30 1274 C 116.754 -2.41837 4.76884 0
M  V30 1275 C 118.054 -0.278394 5.21558 0
M  V30 1276 H 119.748 0.11875 2.99164 0
M  V30 1277 H 117.294 0.0585531 1.43881 0
M  V30 1278 H 119.247 -2.25028 3.56287 0
M  V30 1279 H 117.971 -2.29767 2.32109 0
M  V30 1280 H 116.63 -0.603331 3.61601 0
M  V30 1281 H 116.278 -3.0494 4.00026 0
M  V30 1282 H 115.978 -2.1102 5.48402 0
M  V30 1283 H 117.502 -3.02508 5.30397 0
M  V30 1284 H 118.916 -0.784823 5.67903 0
M  V30 1285 H 117.313 -0.0619707 6.00068 0
M  V30 1286 H 118.383 0.684677 4.80042 0
M  V30 1287 N 119.726 -1.57421 0.075193 0
M  V30 1288 C 120.951 -1.98364 -0.605515 0
M  V30 1289 C 121.376 -0.953383 -1.62149 0
M  V30 1290 O 120.734 0.0806053 -1.81121 0
M  V30 1291 C 120.782 -3.38332 -1.24756 0
M  V30 1292 O 119.886 -3.37959 -2.36342 0
M  V30 1293 H 119.227 -0.645553 -0.155428 0
M  V30 1294 H 121.757 -2.04044 0.150714 0
M  V30 1295 H 121.767 -3.75591 -1.5936 0
M  V30 1296 H 120.442 -4.12846 -0.503129 0
M  V30 1297 H 119.019 -3.12474 -2.03506 0
M  V30 1298 N 121.204 0.198386 -1.56346 0
M  V30 1299 C 122.62 0.549085 -1.49857 0
M  V30 1300 C 122.82 1.86016 -0.774611 0
M  V30 1301 O 121.876 2.50416 -0.323776 0
M  V30 1302 C 123.189 0.606868 -2.94512 0
M  V30 1303 C 124.737 0.695925 -3.05165 0
M  V30 1304 C 125.212 0.784848 -4.51225 0
M  V30 1305 N 126.703 0.848463 -4.55363 0
M  V30 1306 C 127.438 0.937378 -5.65686 0
M  V30 1307 N 126.934 0.9888 -6.85707 0
M  V30 1308 N 128.727 0.974312 -5.53592 0
M  V30 1309 H 120.878 -0.661655 -2.01831 0
M  V30 1310 H 123.141 -0.235261 -0.918344 0
M  V30 1311 H 122.847 -0.28732 -3.50524 0
M  V30 1312 H 122.721 1.46268 -3.47686 0
M  V30 1313 H 125.108 1.58055 -2.49204 0
M  V30 1314 H 125.189 -0.186022 -2.55123 0
M  V30 1315 H 124.833 -0.0954072 -5.0781 0
M  V30 1316 H 124.763 1.68255 -4.98997 0
M  V30 1317 H 127.254 0.818103 -3.68938 0
M  V30 1318 H 127.567 1.05707 -7.65536 0
M  V30 1319 H 125.912 0.957534 -6.88372 0
M  V30 1320 H 129.103 0.930954 -4.58749 0
M  V30 1321 H 129.276 1.04015 -6.39597 0
M  V30 1322 N 122.682 1.50554 0.465978 0
M  V30 1323 C 123.629 1.6979 1.56333 0
M  V30 1324 C 124.599 0.539239 1.57103 0
M  V30 1325 O 125.784 0.770401 1.74555 0
M  V30 1326 C 122.924 1.80273 2.94271 0
M  V30 1327 C 122.037 3.07674 3.0325 0
M  V30 1328 C 121.172 3.08922 4.32135 0
M  V30 1329 C 120.211 4.30755 4.34875 0
M  V30 1330 N 119.348 4.29714 5.55239 0
M  V30 1331 H 124.188 2.63472 1.39235 0
M  V30 1332 H 121.725 1.30602 0.676873 0
M  V30 1333 H 123.683 1.84332 3.74269 0
M  V30 1334 H 122.313 0.900258 3.09992 0
M  V30 1335 H 121.365 3.13062 2.16094 0
M  V30 1336 H 122.677 3.97642 3.01135 0
M  V30 1337 H 121.831 3.11738 5.20485 0
M  V30 1338 H 120.57 2.16792 4.36866 0
M  V30 1339 H 119.575 4.28146 3.44922 0
M  V30 1340 H 120.8 5.24117 4.31831 0
M  V30 1341 H 118.746 3.4044 5.60746 0
M  V30 1342 H 118.663 5.13456 5.54886 0
M  V30 1343 H 119.931 4.36683 6.457 0
M  V30 1344 N 124.16 -0.719506 1.40217 0
M  V30 1345 C 125.39 -1.50646 1.41384 0
M  V30 1346 C 125.798 -1.89197 0.0107743 0
M  V30 1347 O 125.141 -1.55709 -0.974708 0
M  V30 1348 C 125.203 -2.81405 2.23722 0
M  V30 1349 C 124.867 -2.65199 3.72181 0
M  V30 1350 C 125.864 -2.32717 4.64907 0
M  V30 1351 C 123.549 -2.81586 4.1595 0
M  V30 1352 C 125.543 -2.16827 5.99387 0
M  V30 1353 C 123.23 -2.65313 5.50502 0
M  V30 1354 C 124.228 -2.32981 6.42035 0
M  V30 1355 O 123.916 -2.16827 7.74107 0
M  V30 1356 H 123.648 -0.471606 0.484318 0
M  V30 1357 H 126.202 -0.895456 1.84853 0
M  V30 1358 H 124.432 -3.44823 1.75026 0
M  V30 1359 H 126.121 -3.43102 2.16878 0
M  V30 1360 H 126.887 -2.19694 4.32388 0
M  V30 1361 H 122.766 -3.0574 3.45027 0
M  V30 1362 H 126.31 -1.91513 6.70797 0
M  V30 1363 H 122.207 -2.7792 5.82607 0
M  V30 1364 H 122.975 -2.31778 7.84998 0
M  V30 1365 N 125.638 -1.25649 -0.95132 0
M  V30 1366 C 126.884 -1.11766 -1.69941 0
M  V30 1367 C 127.239 0.33735 -1.89419 0
M  V30 1368 O 126.532 1.24491 -1.45645 0
M  V30 1369 C 126.726 -1.80909 -3.08231 0
M  V30 1370 C 126.555 -3.32984 -3.02245 0
M  V30 1371 C 125.325 -4.02247 -3.05819 0
M  V30 1372 C 127.523 -4.29332 -2.83157 0
M  V30 1373 N 125.505 -5.41072 -2.90024 0
M  V30 1374 C 126.876 -5.55265 -2.75828 0
M  V30 1375 C 128.931 -4.19707 -2.67863 0
M  V30 1376 C 127.634 -6.72671 -2.54767 0
M  V30 1377 C 129.66 -5.36809 -2.48173 0
M  V30 1378 C 129.022 -6.61683 -2.41567 0
M  V30 1379 H 125.121 -0.463708 -0.629682 0
M  V30 1380 H 127.705 -1.58796 -1.12659 0
M  V30 1381 H 125.876 -1.36369 -3.63673 0
M  V30 1382 H 127.608 -1.59739 -3.71841 0
M  V30 1383 H 124.363 -3.53531 -3.15139 0
M  V30 1384 H 124.787 -6.13938 -2.85323 0
M  V30 1385 H 129.429 -3.23907 -2.71743 0
M  V30 1386 H 127.147 -7.68577 -2.49629 0
M  V30 1387 H 130.733 -5.31224 -2.37259 0
M  V30 1388 H 129.613 -7.50768 -2.26531 0
M  V30 1389 N 127.117 1.15442 -1.07289 0
M  V30 1390 C 128.065 2.22225 -0.686952 0
M  V30 1391 C 129.059 1.66688 0.30193 0
M  V30 1392 O 130.265 1.79236 0.165712 0
M  V30 1393 H 126.64 0.723783 -0.204064 0
M  V30 1394 H 128.611 2.52056 -1.5972 0
M  V30 1395 C 127.36 3.47556 -0.100149 0
M  V30 1396 H 126.683 3.90612 -0.852211 0
M  V30 1397 H 128.123 4.23794 0.132235 0
M  V30 1398 C 126.582 3.16337 1.159 0
M  V30 1399 O 127.112 3.33074 2.24555 0
M  V30 1400 N 125.318 2.70385 1.06491 0
M  V30 1401 H 124.865 2.56966 0.180668 0
M  V30 1402 H 124.823 2.49871 1.90819 0
M  V30 1403 N 128.595 0.856903 1.32268 0
M  V30 1404 C 129.872 0.382583 1.91822 0
M  V30 1405 C 130.252 -1.13407 1.78051 0
M  V30 1406 O 129.6 -1.95673 1.18001 0
M  V30 1407 C 129.81 0.849446 3.38505 0
M  V30 1408 C 131.158 0.867936 4.15634 0
M  V30 1409 O 132.182 0.794232 3.47232 0
M  V30 1410 O 131.041 0.972286 5.37781 0
M  V30 1411 H 128.135 0.112014 0.819379 0
M  V30 1412 H 130.681 0.943952 1.41024 0
M  V30 1413 H 129.453 1.89267 3.42482 0
M  V30 1414 H 129.076 0.265652 3.96712 0
M  V30 1415 N 130.073 -1.45103 0.615059 0
M  V30 1416 C 131.313 -2.04069 0.116282 0
M  V30 1417 C 131.677 -1.4721 -1.2326 0
M  V30 1418 O 132.878 -1.97577 -1.82255 0
M  V30 1419 C 131.149 -3.57298 0.085482 0
M  V30 1420 S 132.708 -4.37394 -0.351015 0
M  V30 1421 H 129.526 -0.709006 0.0532183 0
M  V30 1422 H 132.128 -1.77709 0.81484 0
M  V30 1423 H 130.832 -3.9619 1.0706 0
M  V30 1424 H 130.363 -3.88244 -0.634835 0
M  V30 1425 H 132.378 -4.69734 -1.59889 0
M  V30 1426 N 131.551 -0.354651 -1.53558 0
M  V30 1427 C 132.461 0.50515 -2.29097 0
M  V30 1428 C 133.477 1.10223 -1.34636 0
M  V30 1429 O 134.653 1.11553 -1.67684 0
M  V30 1430 C 131.718 1.63479 -3.05738 0
M  V30 1431 C 130.779 1.06636 -4.15845 0
M  V30 1432 C 130.012 2.14217 -4.88822 0
M  V30 1433 O 130.235 3.35137 -4.61562 0
M  V30 1434 O 129.169 1.77887 -5.75013 0
M  V30 1435 H 132.995 -0.109237 -3.03503 0
M  V30 1436 H 130.58 -0.119357 -1.48922 0
M  V30 1437 H 132.462 2.2918 -3.5363 0
M  V30 1438 H 131.137 2.23478 -2.34178 0
M  V30 1439 H 130.044 0.373565 -3.7223 0
M  V30 1440 H 131.377 0.511081 -4.89539 0
M  V30 1441 N 133.029 1.57378 -0.0835403 0
M  V30 1442 C 134.44 1.81261 0.447358 0
M  V30 1443 C 134.791 0.998331 1.68902 0
M  V30 1444 O 133.916 0.224282 2.15235 0
M  V30 1445 C 134.511 3.28767 0.818386 0
M  V30 1446 C 133.07 3.53455 1.29409 0
M  V30 1447 C 132.217 2.75831 0.285024 0
M  V30 1448 H 135.168 1.5566 -0.309115 0
M  V30 1449 H 135.189 3.41459 1.67887 0
M  V30 1450 H 134.701 3.88006 -0.0855019 0
M  V30 1451 H 132.802 2.99534 2.21608 0
M  V30 1452 H 132.915 4.62128 1.2639 0
M  V30 1453 H 131.279 2.42947 0.764767 0
M  V30 1454 H 132.062 3.37813 -0.611341 0
M  V30 1455 N 134.507 -0.190092 1.56449 0
M  V30 1456 C 135.918 -0.754312 1.70784 0
M  V30 1457 C 136.269 -1.83631 0.690951 0
M  V30 1458 O 135.394 -2.15868 -0.151604 0
M  V30 1459 C 135.989 -1.37503 3.09642 0
M  V30 1460 C 134.548 -1.88628 3.25725 0
M  V30 1461 C 133.695 -0.758098 2.66736 0
M  V30 1462 H 136.646 0.0350524 1.58661 0
M  V30 1463 H 136.667 -2.2445 3.0725 0
M  V30 1464 H 136.179 -0.587302 3.83631 0
M  V30 1465 H 134.28 -2.70103 2.56661 0
M  V30 1466 H 134.393 -2.04462 4.3328 0
M  V30 1467 H 132.757 -1.17369 2.26046 0
M  V30 1468 H 133.54 0.0174705 3.43296 0
M  V30 1469 N 135.985 -1.50799 -0.457987 0
M  V30 1470 C 137.262 -1.52968 -1.21902 0
M  V30 1471 C 137.642 -0.281906 -2.09209 0
M  V30 1472 O 136.99 0.734076 -2.16388 0
M  V30 1473 C 137.2 -2.8326 -2.03875 0
M  V30 1474 C 138.548 -3.34425 -2.6162 0
M  V30 1475 O 139.572 -2.8467 -2.14106 0
M  V30 1476 O 138.431 -4.21188 -3.48228 0
M  V30 1477 H 135.525 -0.614129 -0.553873 0
M  V30 1478 H 138.071 -1.63098 -0.468739 0
M  V30 1479 H 136.843 -3.65543 -1.39621 0
M  V30 1480 H 136.466 -2.76195 -2.8601 0
M  V30 1481 N 137.463 0.71206 -1.40597 0
M  V30 1482 C 138.688 1.50617 -1.42581 0
M  V30 1483 C 139.113 1.88079 -0.0282102 0
M  V30 1484 O 138.471 1.53511 0.964579 0
M  V30 1485 C 138.519 2.7557 -2.3258 0
M  V30 1486 O 137.623 3.72414 -1.77148 0
M  V30 1487 H 136.964 0.453966 -0.484573 0
M  V30 1488 H 139.494 0.876649 -1.84868 0
M  V30 1489 H 139.504 3.2406 -2.47889 0
M  V30 1490 H 138.179 2.47639 -3.34138 0
M  V30 1491 H 136.756 3.31276 -1.71204 0
M  V30 1492 N 138.941 1.26152 0.944643 0
M  V30 1493 C 140.357 1.03189 1.21754 0
M  V30 1494 C 140.557 -0.245112 2.00004 0
M  V30 1495 O 139.613 -0.955176 2.33736 0
M  V30 1496 C 140.926 2.26119 1.98219 0
M  V30 1497 C 142.474 2.30984 2.11224 0
M  V30 1498 C 142.949 3.53597 2.91089 0
M  V30 1499 N 144.44 3.54053 2.98664 0
M  V30 1500 C 145.175 4.45593 3.60881 0
M  V30 1501 N 144.671 5.47416 4.24626 0
M  V30 1502 N 146.464 4.33252 3.58119 0
M  V30 1503 H 138.615 2.08177 0.421437 0
M  V30 1504 H 140.878 0.914723 0.248969 0
M  V30 1505 H 140.584 3.18984 1.48128 0
M  V30 1506 H 140.458 2.3009 2.98895 0
M  V30 1507 H 142.845 1.38635 2.60508 0
M  V30 1508 H 142.926 2.31026 1.09821 0
M  V30 1509 H 142.57 4.46273 2.42493 0
M  V30 1510 H 142.5 3.50802 3.92741 0
M  V30 1511 H 144.991 2.80403 2.53343 0
M  V30 1512 H 145.304 6.13459 4.69987 0
M  V30 1513 H 143.649 5.51278 4.23223 0
M  V30 1514 H 146.84 3.52924 3.0751 0
M  V30 1515 H 147.013 5.04786 4.06319 0
M  V30 1516 N 140.419 -1.14872 1.07899 0
M  V30 1517 C 141.835 -1.37776 0.805606 0
M  V30 1518 C 142.035 -1.92743 -0.587555 0
M  V30 1519 O 141.091 -2.13678 -1.34528 0
M  V30 1520 C 142.404 -2.34361 1.88402 0
M  V30 1521 C 143.952 -2.48012 1.90942 0
M  V30 1522 C 144.427 -3.47893 2.97883 0
M  V30 1523 N 145.918 -3.55433 2.97021 0
M  V30 1524 C 146.653 -4.32553 3.76412 0
M  V30 1525 N 146.149 -5.12959 4.65666 0
M  V30 1526 N 147.942 -4.27697 3.64735 0
M  V30 1527 H 140.093 -0.775365 1.97742 0
M  V30 1528 H 142.356 -0.403521 0.857831 0
M  V30 1529 H 142.062 -2.01098 2.88535 0
M  V30 1530 H 141.936 -3.34206 1.74889 0
M  V30 1531 H 144.323 -2.8057 0.914579 0
M  V30 1532 H 144.404 -1.48147 2.08534 0
M  V30 1533 H 144.048 -3.16069 3.97571 0
M  V30 1534 H 143.978 -4.47527 2.77538 0
M  V30 1535 H 146.469 -2.98048 2.32326 0
M  V30 1536 H 146.782 -5.69065 5.22862 0
M  V30 1537 H 145.127 -5.12245 4.69712 0
M  V30 1538 H 148.318 -3.63949 2.94378 0
M  V30 1539 H 148.491 -4.8755 4.26848 0
M  V30 1540 N 141.898 -0.863906 -1.31812 0
M  V30 1541 C 143.309 -0.52522 -1.7916 0
M  V30 1542 C 143.66 0.957518 -1.71248 0
M  V30 1543 O 142.785 1.74734 -1.27659 0
M  V30 1544 C 143.38 -0.9466 -3.25307 0
M  V30 1545 C 141.939 -0.659668 -3.70574 0
M  V30 1546 C 141.086 -1.14126 -2.52726 0
M  V30 1547 H 144.037 -1.05022 -1.1898 0
M  V30 1548 H 144.058 -0.266766 -3.79564 0
M  V30 1549 H 143.57 -2.02579 -3.31034 0
M  V30 1550 H 141.671 0.408416 -3.70355 0
M  V30 1551 H 141.784 -1.23245 -4.62977 0
M  V30 1552 H 140.148 -0.561216 -2.4844 0
M  V30 1553 H 140.931 -2.22775 -2.61201 0
M  V30 1554 N 143.376 1.44774 -0.622745 0
M  V30 1555 C 144.601 2.06999 -0.128968 0
M  V30 1556 C 145.026 1.4617 1.1839 0
M  V30 1557 O 144.384 0.560007 1.72434 0
M  V30 1558 C 144.432 3.60595 -0.0188351 0
M  V30 1559 O 143.536 3.99398 1.02739 0
M  V30 1560 H 142.877 0.659047 -0.0809544 0
M  V30 1561 H 145.407 1.85784 -0.85705 0
M  V30 1562 H 145.417 4.07627 0.174476 0
M  V30 1563 H 144.092 4.04252 -0.977384 0
M  V30 1564 H 142.669 3.64011 0.809326 0
M  V30 1565 N 144.854 0.36279 1.53368 0
M  V30 1566 C 145.764 -0.492994 2.29362 0
M  V30 1567 C 146.78 -1.09507 1.35219 0
M  V30 1568 O 147.956 -1.10662 1.68273 0
M  V30 1569 C 145.021 -1.61855 3.066 0
M  V30 1570 C 144.082 -1.04429 4.16405 0
M  V30 1571 C 143.315 -2.11621 4.89951 0
M  V30 1572 O 143.538 -3.32684 4.63333 0
M  V30 1573 O 142.472 -1.74835 5.75948 0
M  V30 1574 H 146.298 0.125331 3.03441 0
M  V30 1575 H 143.883 0.127253 1.48857 0
M  V30 1576 H 145.765 -2.27302 3.54841 0
M  V30 1577 H 144.44 -2.22233 2.3536 0
M  V30 1578 H 143.347 -0.353819 3.72423 0
M  V30 1579 H 144.68 -0.485113 4.89804 0
M  V30 1580 N 146.332 -1.57332 0.0918853 0
M  V30 1581 C 147.581 -1.93412 -0.572249 0
M  V30 1582 C 147.894 -0.975515 -1.69538 0
M  V30 1583 O 149.1 -1.22991 -2.42045 0
M  V30 1584 C 147.556 -3.43648 -1.0693 0
M  V30 1585 C 147.164 -4.47994 0.0239049 0
M  V30 1586 C 148.908 -3.88695 -1.70635 0
M  V30 1587 C 146.815 -5.89381 -0.488319 0
M  V30 1588 H 145.745 -0.721939 -0.217532 0
M  V30 1589 H 148.396 -1.82735 0.167369 0
M  V30 1590 H 146.778 -3.49466 -1.8625 0
M  V30 1591 H 147.952 -4.53815 0.799277 0
M  V30 1592 H 146.267 -4.12536 0.565946 0
M  V30 1593 H 148.864 -4.91725 -2.10025 0
M  V30 1594 H 149.207 -3.27166 -2.57426 0
M  V30 1595 H 149.74 -3.85564 -0.979023 0
M  V30 1596 H 146.479 -6.54602 0.342906 0
M  V30 1597 H 145.999 -5.87037 -1.23077 0
M  V30 1598 H 147.678 -6.39863 -0.958317 0
M  V30 1599 N 147.81 0.181792 -1.56548 0
M  V30 1600 C 149.056 0.901431 -1.81665 0
M  V30 1601 C 149.389 1.82347 -0.668075 0
M  V30 1602 O 148.664 1.91669 0.330615 0
M  V30 1603 C 148.947 1.70618 -3.17115 0
M  V30 1604 C 148.8 0.807964 -4.42484 0
M  V30 1605 C 150.119 2.67605 -3.49393 0
M  V30 1606 H 147.238 0.32627 -0.660846 0
M  V30 1607 H 149.88 0.168134 -1.89255 0
M  V30 1608 H 148.03 2.33133 -3.10775 0
M  V30 1609 H 149.702 0.19649 -4.60881 0
M  V30 1610 H 147.945 0.115411 -4.33646 0
M  V30 1611 H 148.616 1.40632 -5.33785 0
M  V30 1612 H 151.092 2.15218 -3.56118 0
M  V30 1613 H 149.968 3.20985 -4.45264 0
M  V30 1614 H 150.229 3.47298 -2.73563 0
M  V30 1615 N 149.288 1.51039 0.449983 0
M  V30 1616 C 150.537 1.62317 1.19733 0
M  V30 1617 C 150.85 0.339101 1.92638 0
M  V30 1618 O 152.056 0.331069 2.69474 0
M  V30 1619 C 150.512 2.86608 2.17678 0
M  V30 1620 C 150.12 4.21972 1.50479 0
M  V30 1621 C 151.864 3.07239 2.92924 0
M  V30 1622 C 149.771 5.37426 2.46834 0
M  V30 1623 H 148.701 0.604532 0.450619 0
M  V30 1624 H 151.352 1.77494 0.465625 0
M  V30 1625 H 149.734 2.65037 2.94231 0
M  V30 1626 H 150.908 4.53878 0.795716 0
M  V30 1627 H 149.223 4.07117 0.874344 0
M  V30 1628 H 151.82 3.90668 3.65079 0
M  V30 1629 H 152.163 2.19807 3.5354 0
M  V30 1630 H 152.696 3.29091 2.23481 0
M  V30 1631 H 149.435 6.27079 1.90926 0
M  V30 1632 H 148.955 5.09912 3.15832 0
M  V30 1633 H 150.634 5.68862 3.08228 0
M  V30 1634 N 150.766 -0.704594 1.40972 0
M  V30 1635 C 152.014 -1.46169 1.39568 0
M  V30 1636 C 152.335 -1.95 0.00253745 0
M  V30 1637 O 151.605 -1.71095 -0.954114 0
M  V30 1638 H 150.185 -0.542326 0.513704 0
M  V30 1639 H 152.847 -0.834553 1.76128 0
M  V30 1640 H 151.943 -2.32922 2.07735 0
M  V30 1641 N 152.244 -1.26651 -0.937939 0
M  V30 1642 C 153.176 -1.04283 -2.04102 0
M  V30 1643 C 154.189 -0.00221014 -1.628 0
M  V30 1644 O 155.378 -0.242645 -1.76843 0
M  V30 1645 C 152.478 -0.557846 -3.34277 0
M  V30 1646 C 151.651 -1.66843 -4.04329 0
M  V30 1647 C 150.71 -1.18095 -5.12777 0
M  V30 1648 O 149.736 -1.87865 -5.37304 0
M  V30 1649 N 150.938 -0.0311006 -5.80492 0
M  V30 1650 H 153.703 -1.9927 -2.23856 0
M  V30 1651 H 151.264 -1.1808 -1.10764 0
M  V30 1652 H 153.256 -0.215836 -4.04124 0
M  V30 1653 H 151.826 0.298523 -3.11171 0
M  V30 1654 H 151.046 -2.18123 -3.28353 0
M  V30 1655 H 152.334 -2.41408 -4.47883 0
M  V30 1656 H 151.732 0.551486 -5.63005 0
M  V30 1657 H 150.289 0.251809 -6.51313 0
M  V30 1658 N 153.722 1.14298 -1.08507 0
M  V30 1659 C 154.962 1.87016 -0.824894 0
M  V30 1660 C 155.326 1.81099 0.637735 0
M  V30 1661 O 156.527 2.48963 1.01345 0
M  V30 1662 C 154.798 3.31584 -1.33368 0
M  V30 1663 S 156.357 4.21903 -1.20596 0
M  V30 1664 H 153.175 0.645259 -0.2986 0
M  V30 1665 H 155.777 1.37822 -1.38656 0
M  V30 1666 H 154.481 3.33439 -2.39262 0
M  V30 1667 H 154.012 3.85836 -0.767734 0
M  V30 1668 H 156.027 4.95971 -0.150891 0
M  V30 1669 N 155.201 0.870884 1.31352 0
M  V30 1670 C 156.148 0.325425 2.28494 0
M  V30 1671 C 157.118 -0.576615 1.5577 0
M  V30 1672 O 158.303 -0.508059 1.83911 0
M  V30 1673 C 155.443 -0.466283 3.41935 0
M  V30 1674 C 154.556 0.463378 4.29508 0
M  V30 1675 C 153.691 -0.342544 5.30094 0
M  V30 1676 C 152.73 0.583486 6.09313 0
M  V30 1677 N 151.867 -0.186244 7.01853 0
M  V30 1678 H 156.707 1.15901 2.74538 0
M  V30 1679 H 154.244 0.58294 1.35056 0
M  V30 1680 H 156.202 -0.941085 4.06447 0
M  V30 1681 H 154.832 -1.26456 2.97 0
M  V30 1682 H 153.884 1.05663 3.65431 0
M  V30 1683 H 155.196 1.1734 4.84802 0
M  V30 1684 H 154.35 -0.879816 6.00287 0
M  V30 1685 H 153.089 -1.08585 4.75458 0
M  V30 1686 H 152.094 1.13251 5.3801 0
M  V30 1687 H 153.319 1.32566 6.66035 0
M  V30 1688 H 151.265 -0.912348 6.49625 0
M  V30 1689 H 151.182 0.464422 7.54572 0
M  V30 1690 H 152.45 -0.704716 7.76308 0
M  V30 1691 N 156.679 -1.44442 0.630414 0
M  V30 1692 C 157.925 -2.02351 0.134816 0
M  V30 1693 C 158.258 -1.4947 -1.23986 0
M  V30 1694 O 157.533 -0.678475 -1.82283 0
M  V30 1695 C 157.816 -3.59898 0.120707 0
M  V30 1696 C 157.669 -4.23063 1.52767 0
M  V30 1697 C 158.988 -4.36585 -0.555127 0
M  V30 1698 H 156.107 -0.73527 0.0504646 0
M  V30 1699 H 158.749 -1.72022 0.806751 0
M  V30 1700 H 156.899 -3.85868 -0.451477 0
M  V30 1701 H 158.571 -4.08202 2.14869 0
M  V30 1702 H 156.814 -3.80586 2.08175 0
M  V30 1703 H 157.485 -5.32071 1.46984 0
M  V30 1704 H 159.961 -4.16044 -0.0685429 0
M  V30 1705 H 158.837 -5.46294 -0.534185 0
M  V30 1706 H 159.098 -4.11138 -1.62535 0
M  V30 1707 N 158.157 -0.370918 -1.53173 0
M  V30 1708 C 159.406 0.218249 -2.00516 0
M  V30 1709 C 159.719 1.49429 -1.26215 0
M  V30 1710 O 160.925 2.16239 -1.64174 0
M  V30 1711 C 159.381 0.43948 -3.57207 0
M  V30 1712 C 158.989 -0.822244 -4.4039 0
M  V30 1713 C 160.733 0.986012 -4.1289 0
M  V30 1714 C 158.64 -0.570304 -5.88644 0
M  V30 1715 H 157.57 0.0853333 -0.749156 0
M  V30 1716 H 160.221 -0.490483 -1.76823 0
M  V30 1717 H 158.603 1.20961 -3.77074 0
M  V30 1718 H 159.777 -1.59557 -4.32294 0
M  V30 1719 H 158.092 -1.29238 -3.95836 0
M  V30 1720 H 160.689 1.18991 -5.21292 0
M  V30 1721 H 161.032 1.94972 -3.6782 0
M  V30 1722 H 161.565 0.27592 -3.96842 0
M  V30 1723 H 158.304 -1.50449 -6.38001 0
M  V30 1724 H 157.824 0.164427 -5.99575 0
M  V30 1725 H 159.503 -0.19784 -6.46697 0
M  V30 1726 N 159.635 1.57281 -0.100228 0
M  V30 1727 C 160.598 2.13158 0.842398 0
M  V30 1728 C 161.598 1.06202 1.20738 0
M  V30 1729 O 162.788 1.32066 1.13597 0
M  V30 1730 C 159.92 2.65639 2.13655 0
M  V30 1731 H 161.113 2.97766 0.357114 0
M  V30 1732 H 158.666 1.5559 0.148823 0
M  V30 1733 H 159.401 1.84566 2.66657 0
M  V30 1734 H 159.186 3.43844 1.88451 0
M  V30 1735 H 160.676 3.08846 2.81077 0
M  V30 1736 N 161.113 -0.173488 1.56642 0
M  V30 1737 C 162.341 -0.906095 1.86004 0
M  V30 1738 C 162.756 -1.75921 0.685355 0
M  V30 1739 O 162.113 -1.79198 -0.345578 0
M  V30 1740 C 162.164 -1.78462 3.14378 0
M  V30 1741 O 161.885 -0.965914 4.27319 0
M  V30 1742 C 163.386 -2.62707 3.57071 0
M  V30 1743 H 160.606 -0.263341 0.617165 0
M  V30 1744 H 163.15 -0.174236 2.03756 0
M  V30 1745 H 161.305 -2.46984 2.98459 0
M  V30 1746 H 161.719 -1.56655 5.00559 0
M  V30 1747 H 163.193 -3.19969 4.49804 0
M  V30 1748 H 163.67 -3.37472 2.81086 0
M  V30 1749 H 164.276 -1.99521 3.75595 0
M  V30 1750 N 162.591 -1.51276 -0.441967 0
M  V30 1751 C 164.007 -1.39349 -0.778083 0
M  V30 1752 C 164.207 -0.472212 -1.95889 0
M  V30 1753 O 163.263 0.0743551 -2.5239 0
M  V30 1754 C 164.576 -2.81292 -1.0628 0
M  V30 1755 C 166.124 -2.9041 -1.16751 0
M  V30 1756 C 166.599 -4.33251 -1.48519 0
M  V30 1757 N 168.09 -4.36336 -1.55453 0
M  V30 1758 C 168.825 -5.43885 -1.81596 0
M  V30 1759 N 168.321 -6.61601 -2.05562 0
M  V30 1760 N 170.114 -5.3136 -1.8334 0
M  V30 1761 H 162.265 -2.09729 0.335774 0
M  V30 1762 H 164.528 -0.943925 0.0878028 0
M  V30 1763 H 164.234 -3.50678 -0.267905 0
M  V30 1764 H 164.108 -3.20334 -1.99163 0
M  V30 1765 H 166.495 -2.21225 -1.95304 0
M  V30 1766 H 166.576 -2.54871 -0.217801 0
M  V30 1767 H 166.22 -5.02984 -0.704958 0
M  V30 1768 H 166.15 -4.66299 -2.44689 0
M  V30 1769 H 168.641 -3.51466 -1.38853 0
M  V30 1770 H 168.954 -7.39361 -2.24867 0
M  V30 1771 H 167.299 -6.64725 -2.02894 0
M  V30 1772 H 170.49 -4.38382 -1.64132 0
M  V30 1773 H 170.663 -6.15258 -2.03377 0
M  V30 1774 N 164.069 0.697108 -1.41344 0
M  V30 1775 C 165.019 1.80313 -1.39539 0
M  V30 1776 C 166.003 1.58618 -0.270001 0
M  V30 1777 O 167.195 1.69477 -0.510551 0
M  V30 1778 C 164.324 3.18606 -1.27848 0
M  V30 1779 C 163.41 3.46001 -2.45244 0
M  V30 1780 N 163.801 3.44103 -3.70711 0
M  V30 1781 C 162.099 3.76542 -2.39023 0
M  V30 1782 C 162.8 3.7036 -4.48563 0
M  V30 1783 N 161.776 3.90027 -3.78655 0
M  V30 1784 H 165.578 1.77207 -2.34468 0
M  V30 1785 H 163.092 0.897031 -1.35378 0
M  V30 1786 H 165.089 3.97833 -1.24637 0
M  V30 1787 H 163.749 3.22925 -0.339032 0
M  V30 1788 H 164.76 3.2452 -4.03618 0
M  V30 1789 H 161.437 3.88241 -1.53542 0
M  V30 1790 H 162.827 3.75042 -5.57488 0
M  V30 1791 N 165.547 1.27147 0.931209 0
M  V30 1792 C 166.772 1.16191 1.71797 0
M  V30 1793 C 167.197 -0.278004 1.86034 0
M  V30 1794 O 166.555 -1.20137 1.35782 0
M  V30 1795 C 166.603 1.84673 3.09723 0
M  V30 1796 O 165.707 1.14231 3.96264 0
M  V30 1797 H 165.048 0.404303 0.526721 0
M  V30 1798 H 167.578 1.68152 1.1656 0
M  V30 1799 H 167.588 1.91893 3.60057 0
M  V30 1800 H 166.263 2.89421 2.98677 0
M  V30 1801 H 164.84 1.15056 3.54706 0
M  V30 1802 N 167.025 -1.13721 1.09112 0
M  V30 1803 C 167.975 -2.17082 0.697091 0
M  V30 1804 C 168.959 -1.58321 -0.286923 0
M  V30 1805 O 170.151 -1.7673 -0.0978008 0
M  V30 1806 C 167.28 -3.43105 0.115729 0
M  V30 1807 C 166.366 -4.0888 1.12596 0
M  V30 1808 N 166.757 -4.4987 2.31195 0
M  V30 1809 C 165.055 -4.35471 0.963366 0
M  V30 1810 C 165.756 -5.01094 2.95431 0
M  V30 1811 N 164.732 -4.95751 2.23006 0
M  V30 1812 H 168.534 -2.46524 1.6001 0
M  V30 1813 H 166.048 -1.30481 0.966869 0
M  V30 1814 H 168.045 -4.16491 -0.184555 0
M  V30 1815 H 166.705 -3.15138 -0.78217 0
M  V30 1816 H 167.716 -4.42678 2.68806 0
M  V30 1817 H 164.393 -4.17328 0.119878 0
M  V30 1818 H 165.783 -5.4263 3.96236 0
M  V30 1819 N 168.503 -0.877838 -1.30888 0
M  V30 1820 C 169.413 -0.343096 -2.32078 0
M  V30 1821 C 170.429 0.551022 -1.65045 0
M  V30 1822 O 171.605 0.445854 -1.96403 0
M  V30 1823 C 168.67 0.439905 -3.43898 0
M  V30 1824 C 167.731 -0.483111 -4.26573 0
M  V30 1825 C 166.964 0.262616 -5.33053 0
M  V30 1826 O 167.187 1.48967 -5.50604 0
M  V30 1827 O 166.121 -0.383593 -6.00676 0
M  V30 1828 H 169.947 -1.18203 -2.79753 0
M  V30 1829 H 167.532 -0.64145 -1.34929 0
M  V30 1830 H 169.414 0.883504 -4.12034 0
M  V30 1831 H 168.089 1.25526 -2.98371 0
M  V30 1832 H 166.996 -0.975374 -3.61161 0
M  V30 1833 H 168.329 -1.26427 -4.75686 0
M  V30 1834 N 169.982 1.44106 -0.638065 0
M  V30 1835 C 171.207 2.0685 -0.150916 0
M  V30 1836 C 171.632 1.47417 1.16833 0
M  V30 1837 O 170.99 0.578264 1.71831 0
M  V30 1838 C 171.038 3.60555 -0.05708 0
M  V30 1839 O 170.142 4.00465 0.984972 0
M  V30 1840 H 169.483 0.658151 -0.0879399 0
M  V30 1841 H 172.013 1.84865 -0.876707 0
M  V30 1842 H 172.023 4.07789 0.131232 0
M  V30 1843 H 170.698 4.03193 -1.02021 0
M  V30 1844 H 169.275 3.64849 0.770672 0
M  V30 1845 N 171.46 0.379036 1.52974 0
M  V30 1846 C 172.392 -0.495963 2.2377 0
M  V30 1847 C 173.405 -1.03517 1.25651 0
M  V30 1848 O 174.594 -0.939249 1.51791 0
M  V30 1849 C 171.694 -1.69894 2.93239 0
M  V30 1850 C 170.867 -1.2889 4.17979 0
M  V30 1851 C 169.926 -2.35543 4.70538 0
M  V30 1852 O 168.952 -1.97375 5.33883 0
M  V30 1853 N 170.154 -3.67318 4.49508 0
M  V30 1854 H 172.919 0.110523 2.99496 0
M  V30 1855 H 170.48 0.204878 1.60598 0
M  V30 1856 H 172.472 -2.40747 3.25304 0
M  V30 1857 H 171.042 -2.212 2.20883 0
M  V30 1858 H 170.262 -0.409676 3.92065 0
M  V30 1859 H 171.55 -0.991443 4.99047 0
M  V30 1860 H 170.948 -4.01095 3.98923 0
M  V30 1861 H 169.505 -4.34235 4.8609 0
M  V30 1862 N 172.938 -1.57226 0.108567 0
M  V30 1863 C 174.215 -1.86333 -0.594939 0
M  V30 1864 C 174.595 -1.00788 -1.85486 0
M  V30 1865 O 173.943 -0.0839293 -2.28346 0
M  V30 1866 C 174.153 -3.37265 -0.897405 0
M  V30 1867 C 175.501 -4.05629 -1.25501 0
M  V30 1868 O 176.525 -3.42224 -0.987998 0
M  V30 1869 O 175.384 -5.17531 -1.75567 0
M  V30 1870 H 172.478 -0.771018 -0.2991 0
M  V30 1871 H 175.024 -1.69102 0.142283 0
M  V30 1872 H 173.796 -3.913 -0.00413806 0
M  V30 1873 H 173.419 -3.59889 -1.69014 0
M  V30 1874 N 174.416 0.165178 -1.56732 0
M  V30 1875 C 175.346 1.20651 -1.99914 0
M  V30 1876 C 176.327 1.45827 -0.875705 0
M  V30 1877 O 177.512 1.57057 -1.14223 0
M  V30 1878 C 174.642 2.54401 -2.36427 0
M  V30 1879 C 173.596 2.43782 -3.51787 0
M  V30 1880 C 172.922 3.82078 -3.7406 0
M  V30 1881 C 174.222 1.93732 -4.85041 0
M  V30 1882 H 175.916 0.847534 -2.87154 0
M  V30 1883 H 173.462 0.40625 -1.38151 0
M  V30 1884 H 175.415 3.27458 -2.65234 0
M  V30 1885 H 174.139 2.92098 -1.46103 0
M  V30 1886 H 172.798 1.73178 -3.23117 0
M  V30 1887 H 172.446 4.17179 -2.81017 0
M  V30 1888 H 172.146 3.7584 -4.51684 0
M  V30 1889 H 173.67 4.56712 -4.05274 0
M  V30 1890 H 175.084 2.56569 -5.12684 0
M  V30 1891 H 173.481 1.98428 -5.66345 0
M  V30 1892 H 174.551 0.891962 -4.76626 0
M  V30 1893 N 175.894 1.51508 0.433938 0
M  V30 1894 C 177.31 1.39759 0.770682 0
M  V30 1895 C 177.51 0.482594 1.95636 0
M  V30 1896 O 176.566 -0.0609691 2.52426 0
M  V30 1897 C 177.879 2.81851 1.04787 0
M  V30 1898 C 179.427 2.91025 1.1521 0
M  V30 1899 C 179.902 4.34032 1.46219 0
M  V30 1900 N 181.393 4.37154 1.53136 0
M  V30 1901 C 182.128 5.4484 1.78709 0
M  V30 1902 N 181.624 6.62682 2.02051 0
M  V30 1903 N 183.417 5.32324 1.80519 0
M  V30 1904 H 175.568 2.09548 -0.346892 0
M  V30 1905 H 177.831 0.943446 -0.0928074 0
M  V30 1906 H 177.537 3.50815 0.249304 0
M  V30 1907 H 177.411 3.21386 1.97461 0
M  V30 1908 H 179.798 2.22257 1.94128 0
M  V30 1909 H 179.879 2.54983 0.204281 0
M  V30 1910 H 179.523 5.03351 0.678274 0
M  V30 1911 H 179.453 4.6759 2.42212 0
M  V30 1912 H 181.944 3.52197 1.36987 0
M  V30 1913 H 182.257 7.40543 2.20943 0
M  V30 1914 H 180.602 6.65791 1.99366 0
M  V30 1915 H 183.793 4.39246 1.61805 0
M  V30 1916 H 183.966 6.16328 2.00111 0
M  V30 1917 N 177.372 -0.689602 1.41712 0
M  V30 1918 C 178.618 -1.45181 1.41599 0
M  V30 1919 C 178.951 -1.94181 0.0270081 0
M  V30 1920 O 178.226 -1.6993 -0.946265 0
M  V30 1921 C 178.509 -2.65945 2.42787 0
M  V30 1922 C 178.362 -2.22672 3.90816 0
M  V30 1923 C 179.681 -3.68149 2.41151 0
M  V30 1924 H 176.8 -0.526576 0.515642 0
M  V30 1925 H 179.442 -0.784947 1.73028 0
M  V30 1926 H 177.592 -3.2284 2.16116 0
M  V30 1927 H 179.264 -1.71058 4.28412 0
M  V30 1928 H 177.507 -1.54394 4.05395 0
M  V30 1929 H 178.178 -3.0935 4.57172 0
M  V30 1930 H 180.654 -3.2094 2.64834 0
M  V30 1931 H 179.53 -4.50248 3.13955 0
M  V30 1932 H 179.791 -4.18259 1.43221 0
M  V30 1933 N 178.85 -1.27639 -0.924453 0
M  V30 1934 C 180.099 -1.13549 -1.66702 0
M  V30 1935 C 180.412 0.317487 -1.93006 0
M  V30 1936 O 181.618 0.579333 -2.65247 0
M  V30 1937 C 180.074 -1.98426 -3.00259 0
M  V30 1938 C 179.682 -3.484 -2.81641 0
M  V30 1939 C 181.426 -1.92993 -3.78092 0
M  V30 1940 C 179.333 -4.25464 -4.10773 0
M  V30 1941 H 178.263 -0.421351 -0.625283 0
M  V30 1942 H 180.914 -1.52085 -1.02676 0
M  V30 1943 H 179.296 -1.52736 -3.6536 0
M  V30 1944 H 180.47 -4.01973 -2.25287 0
M  V30 1945 H 178.785 -3.55245 -2.17232 0
M  V30 1946 H 181.382 -2.47844 -4.7379 0
M  V30 1947 H 181.725 -0.904281 -4.0636 0
M  V30 1948 H 182.258 -2.36595 -3.19793 0
M  V30 1949 H 178.997 -5.28566 -3.87683 0
M  V30 1950 H 178.517 -3.76667 -4.66779 0
M  V30 1951 H 180.196 -4.34812 -4.79111 0
M  V30 1952 N 180.328 1.1314 -1.09713 0
M  V30 1953 C 181.605 1.80762 -0.747302 0
M  V30 1954 C 181.985 1.96663 0.767265 0
M  V30 1955 O 181.333 1.53706 1.69076 0
M  V30 1956 C 181.543 3.15606 -1.48975 0
M  V30 1957 C 182.891 3.90914 -1.65746 0
M  V30 1958 O 183.915 3.25239 -1.45251 0
M  V30 1959 O 182.774 5.08718 -1.9967 0
M  V30 1960 H 179.868 0.782103 -0.268782 0
M  V30 1961 H 182.414 1.20041 -1.19951 0
M  V30 1962 H 181.186 2.99278 -2.52088 0
M  V30 1963 H 180.809 3.84029 -1.02991 0
M  V30 1964 N 181.806 0.884767 1.30421 0
M  V30 1965 C 183.053 0.503105 1.96151 0
M  V30 1966 C 183.381 -0.947676 1.69851 0
M  V30 1967 O 182.636 -1.68467 0.995861 0
M  V30 1968 C 182.935 0.724318 3.49983 0
M  V30 1969 C 182.601 2.15015 3.96332 0
M  V30 1970 C 181.263 2.54005 4.08699 0
M  V30 1971 C 183.615 3.07936 4.20505 0
M  V30 1972 C 180.943 3.85128 4.42599 0
M  V30 1973 C 183.295 4.3859 4.55874 0
M  V30 1974 C 181.959 4.77474 4.66449 0
M  V30 1975 H 181.229 0.184099 0.717766 0
M  V30 1976 H 183.876 1.12058 1.55291 0
M  V30 1977 H 182.181 0.0238086 3.91793 0
M  V30 1978 H 183.878 0.408617 3.98913 0
M  V30 1979 H 180.468 1.8375 3.87213 0
M  V30 1980 H 184.652 2.79033 4.10431 0
M  V30 1981 H 179.908 4.14996 4.48986 0
M  V30 1982 H 184.082 5.10629 4.7353 0
M  V30 1983 H 181.709 5.79115 4.92473 0
M  V30 1984 N 183.284 -1.43765 0.645699 0
M  V30 1985 C 184.232 -2.32516 -0.0624849 0
M  V30 1986 C 185.226 -1.48183 -0.820855 0
M  V30 1987 O 186.432 -1.64439 -0.732106 0
M  V30 1988 H 182.807 -0.750989 -0.0389864 0
M  V30 1989 H 184.778 -2.89979 0.703892 0
M  V30 1990 C 183.527 -3.32389 -1.02044 0
M  V30 1991 H 182.85 -3.97301 -0.446312 0
M  V30 1992 H 184.29 -3.97138 -1.48517 0
M  V30 1993 C 182.749 -2.62416 -2.11281 0
M  V30 1994 O 183.279 -2.434 -3.19561 0
M  V30 1995 N 181.485 -2.21913 -1.87624 0
M  V30 1996 H 181.032 -2.37578 -0.995703 0
M  V30 1997 H 180.99 -1.75424 -2.6091 0
M  V30 1998 N 184.763 -0.387143 -1.52771 0
M  V30 1999 C 186.003 0.195537 -2.03463 0
M  V30 2000 C 186.367 1.44222 -1.26744 0
M  V30 2001 O 187.568 2.10192 -1.67549 0
M  V30 2002 C 185.839 0.459097 -3.54439 0
M  V30 2003 S 187.398 1.01237 -4.26962 0
M  V30 2004 H 184.216 0.0552675 -0.708849 0
M  V30 2005 H 186.818 -0.534992 -1.88037 0
M  V30 2006 H 185.522 -0.455382 -4.07866 0
M  V30 2007 H 185.053 1.21811 -3.74066 0
M  V30 2008 H 187.068 2.29492 -4.39941 0
M  V30 2009 N 186.241 1.57166 -0.116904 0
M  V30 2010 C 187.469 1.99473 0.549383 0
M  V30 2011 C 187.884 0.996541 1.60357 0
M  V30 2012 O 187.241 -0.0108731 1.82497 0
M  V30 2013 C 187.292 3.41788 1.17741 0
M  V30 2014 O 187.013 4.37788 0.165362 0
M  V30 2015 C 188.514 3.99216 1.92722 0
M  V30 2016 H 185.734 0.655009 0.145616 0
M  V30 2017 H 188.278 2.03494 -0.202625 0
M  V30 2018 H 186.433 3.38713 1.88021 0
M  V30 2019 H 186.847 5.20806 0.621403 0
M  V30 2020 H 188.321 5.00882 2.31995 0
M  V30 2021 H 188.798 3.3824 2.80161 0
M  V30 2022 H 189.404 4.0583 1.27209 0
M  V30 2023 N 187.719 -0.156864 1.56817 0
M  V30 2024 C 188.947 -0.886316 1.86955 0
M  V30 2025 C 189.362 -1.75185 0.703975 0
M  V30 2026 O 188.719 -1.79555 -0.326552 0
M  V30 2027 C 188.77 -1.75117 3.16253 0
M  V30 2028 O 188.491 -0.920537 4.2832 0
M  V30 2029 C 189.992 -2.58905 3.59837 0
M  V30 2030 H 187.212 -0.25678 0.619923 0
M  V30 2031 H 189.756 -0.152615 2.0393 0
M  V30 2032 H 187.911 -2.43805 3.01062 0
M  V30 2033 H 188.325 -1.51337 5.02192 0
M  V30 2034 H 189.799 -3.1518 4.53172 0
M  V30 2035 H 190.276 -3.34472 2.84649 0
M  V30 2036 H 190.882 -1.95526 3.7769 0
M  V30 2037 N 189.197 -1.51736 -0.425897 0
M  V30 2038 C 190.422 -1.69082 -1.20108 0
M  V30 2039 C 190.847 -0.392398 -1.83962 0
M  V30 2040 O 190.205 0.64858 -1.69302 0
M  V30 2041 C 190.253 -2.81604 -2.25237 0
M  V30 2042 O 189.357 -2.46004 -3.30992 0
M  V30 2043 H 188.698 -0.563408 -0.35138 0
M  V30 2044 H 191.228 -1.98358 -0.501512 0
M  V30 2045 H 191.238 -3.06025 -2.69838 0
M  V30 2046 H 189.913 -3.75817 -1.78142 0
M  V30 2047 H 188.49 -2.32195 -2.91787 0
M  V30 2048 N 190.675 0.682077 -1.42076 0
M  V30 2049 C 191.9 1.47558 -1.45744 0
M  V30 2050 C 192.325 1.87977 -0.0680981 0
M  V30 2051 O 191.683 1.55522 0.9318 0
M  V30 2052 C 191.731 2.70575 -2.38373 0
M  V30 2053 O 190.835 3.68573 -1.85007 0
M  V30 2054 H 190.176 0.443585 -0.494093 0
M  V30 2055 H 192.706 0.837238 -1.86686 0
M  V30 2056 H 192.716 3.18729 -2.54707 0
M  V30 2057 H 191.391 2.40495 -3.39315 0
M  V30 2058 H 189.968 3.2757 -1.78192 0
M  V30 2059 N 192.153 1.28127 0.917671 0
M  V30 2060 C 193.399 1.15223 1.66888 0
M  V30 2061 C 193.732 -0.299293 1.9188 0
M  V30 2062 O 193.007 -1.21805 1.51637 0
M  V30 2063 C 193.29 1.94706 3.02922 0
M  V30 2064 C 193.143 3.47898 2.85109 0
M  V30 2065 C 194.462 1.75939 4.03402 0
M  V30 2066 H 191.581 0.419946 0.605652 0
M  V30 2067 H 194.223 1.57398 1.06423 0
M  V30 2068 H 192.373 1.58864 3.54534 0
M  V30 2069 H 194.045 3.93624 2.40537 0
M  V30 2070 H 192.288 3.7373 2.20246 0
M  V30 2071 H 192.959 3.98765 3.81694 0
M  V30 2072 H 195.435 2.07209 3.60837 0
M  V30 2073 H 194.311 2.33931 4.96556 0
M  V30 2074 H 194.572 0.709877 4.36364 0
M  V30 2075 N 193.631 -1.12557 1.10312 0
M  V30 2076 C 194.856 -1.88405 0.867085 0
M  V30 2077 C 195.281 -1.79038 -0.576817 0
M  V30 2078 O 194.639 -1.14439 -1.40618 0
M  V30 2079 C 194.687 -3.3563 1.31851 0
M  V30 2080 O 193.791 -4.09565 0.482734 0
M  V30 2081 H 193.132 -0.585455 0.313271 0
M  V30 2082 H 195.662 -1.42352 1.4696 0
M  V30 2083 H 195.672 -3.86469 1.3079 0
M  V30 2084 H 194.347 -3.41765 2.37001 0
M  V30 2085 H 192.924 -3.68695 0.558448 0
M  V30 2086 N 195.109 -0.891671 -1.2995 0
M  V30 2087 C 196.334 -0.527932 -2.00568 0
M  V30 2088 C 196.759 0.877969 -1.66353 0
M  V30 2089 O 196.117 1.58301 -0.883762 0
M  V30 2090 C 196.165 -0.717745 -3.53385 0
M  V30 2091 O 195.269 0.233376 -4.11739 0
M  V30 2092 H 194.61 -0.20722 -0.630837 0
M  V30 2093 H 197.14 -1.20105 -1.65638 0
M  V30 2094 H 197.15 -0.619307 -4.03272 0
M  V30 2095 H 195.825 -1.74276 -3.77625 0
M  V30 2096 H 194.402 0.0880706 -3.72796 0
M  V30 2097 N 196.587 1.43421 -0.653314 0
M  V30 2098 C 197.55 2.29182 0.0287951 0
M  V30 2099 C 198.55 1.42213 0.750465 0
M  V30 2100 O 199.74 1.63843 0.591701 0
M  V30 2101 C 196.872 3.24278 1.05151 0
M  V30 2102 H 198.065 2.90985 -0.725786 0
M  V30 2103 H 195.618 1.50702 -0.414545 0
M  V30 2104 H 196.353 2.6737 1.83532 0
M  V30 2105 H 196.138 3.88396 0.537687 0
M  V30 2106 H 197.628 3.88647 1.52786 0
M  V30 2107 N 198.065 0.39524 1.52563 0
M  V30 2108 C 198.995 -0.428384 2.29537 0
M  V30 2109 C 199.976 -1.05831 1.33169 0
M  V30 2110 O 201.161 -1.06995 1.62067 0
M  V30 2111 C 198.291 -1.55274 3.10656 0
M  V30 2112 C 197.245 -1.04855 4.14957 0
M  V30 2113 C 196.571 -2.26543 4.84337 0
M  V30 2114 C 197.871 -0.112324 5.22179 0
M  V30 2115 H 199.565 0.213867 2.98635 0
M  V30 2116 H 197.111 0.104298 1.43622 0
M  V30 2117 H 199.064 -2.1358 3.63265 0
M  V30 2118 H 197.788 -2.22266 2.39302 0
M  V30 2119 H 196.447 -0.487985 3.63338 0
M  V30 2120 H 196.095 -2.92059 4.09525 0
M  V30 2121 H 195.795 -1.93466 5.54837 0
M  V30 2122 H 197.319 -2.85481 5.39753 0
M  V30 2123 H 198.733 -0.603752 5.70112 0
M  V30 2124 H 197.13 0.128968 5.99961 0
M  V30 2125 H 198.2 0.837052 4.77621 0
M  V30 2126 N 199.544 -1.57102 0.125237 0
M  V30 2127 C 200.507 -2.14471 -0.80838 0
M  V30 2128 C 201.507 -1.0811 -1.19033 0
M  V30 2129 O 202.697 -1.33856 -1.11482 0
M  V30 2130 C 199.829 -2.69005 -2.09402 0
M  V30 2131 H 201.022 -2.98297 -0.309696 0
M  V30 2132 H 198.575 -1.55807 -0.124051 0
M  V30 2133 H 199.31 -1.88785 -2.63687 0
M  V30 2134 H 199.095 -3.46799 -1.82957 0
M  V30 2135 H 200.585 -3.13278 -2.76128 0
M  V30 2136 N 201.022 0.148545 -1.56898 0
M  V30 2137 C 201.97 1.20265 -1.99096 0
M  V30 2138 C 202.964 1.44559 -0.883123 0
M  V30 2139 O 204.17 1.4487 -1.0683 0
M  V30 2140 H 200.545 0.404786 -0.63376 0
M  V30 2141 H 202.516 0.82004 -2.86911 0
M  V30 2142 C 201.265 2.52886 -2.3863 0
M  V30 2143 H 200.588 2.35021 -3.23427 0
M  V30 2144 H 202.028 3.25274 -2.7198 0
M  V30 2145 C 200.487 3.13315 -1.23837 0
M  V30 2146 O 201.017 3.98077 -0.538268 0
M  V30 2147 N 199.223 2.72742 -1.00301 0
M  V30 2148 H 198.77 2.03912 -1.5741 0
M  V30 2149 H 198.728 3.13507 -0.236838 0
M  V30 2150 N 202.5 1.5196 0.417844 0
M  V30 2151 C 203.728 1.69426 1.18753 0
M  V30 2152 C 204.143 0.399955 1.84515 0
M  V30 2153 O 203.5 -0.623288 1.71527 0
M  V30 2154 C 203.551 2.82375 2.25714 0
M  V30 2155 O 203.272 4.06793 1.62638 0
M  V30 2156 C 204.773 3.11277 3.15628 0
M  V30 2157 H 201.993 0.568031 0.357186 0
M  V30 2158 H 204.537 1.98475 0.49273 0
M  V30 2159 H 202.692 2.5587 2.90877 0
M  V30 2160 H 203.106 4.69667 2.3348 0
M  V30 2161 H 204.58 3.93843 3.86771 0
M  V30 2162 H 205.057 2.24473 3.77503 0
M  V30 2163 H 205.663 3.39515 2.56144 0
M  V30 2164 N 203.978 -0.674533 1.42435 0
M  V30 2165 C 204.925 -1.78807 1.45934 0
M  V30 2166 C 205.895 -1.63157 0.311271 0
M  V30 2167 O 207.08 -1.83707 0.515383 0
M  V30 2168 C 204.22 -3.16839 1.36773 0
M  V30 2169 C 203.333 -3.43774 2.61617 0
M  V30 2170 C 202.468 -4.71536 2.44597 0
M  V30 2171 C 201.507 -4.91505 3.64814 0
M  V30 2172 N 200.644 -6.10508 3.46734 0
M  V30 2173 H 205.484 -1.75151 2.41093 0
M  V30 2174 H 203.021 -0.85504 1.19697 0
M  V30 2175 H 204.979 -3.96606 1.29459 0
M  V30 2176 H 203.609 -3.19619 0.452089 0
M  V30 2177 H 202.661 -2.58259 2.79297 0
M  V30 2178 H 203.973 -3.54423 3.50978 0
M  V30 2179 H 203.127 -5.59393 2.3487 0
M  V30 2180 H 201.866 -4.6317 1.52726 0
M  V30 2181 H 200.871 -4.0209 3.74972 0
M  V30 2182 H 202.096 -5.01716 4.57665 0
M  V30 2183 H 200.042 -6.03315 2.5758 0
M  V30 2184 H 199.959 -6.2202 4.29682 0
M  V30 2185 H 201.227 -7.01044 3.40819 0
M  V30 2186 N 205.456 -1.28612 -0.910864 0
M  V30 2187 C 206.733 -1.06632 -1.63979 0
M  V30 2188 C 207.113 0.393351 -2.07403 0
M  V30 2189 O 206.461 1.37999 -1.82122 0
M  V30 2190 C 206.671 -2.0436 -2.8291 0
M  V30 2191 C 208.019 -2.34666 -3.5386 0
M  V30 2192 O 209.043 -2.02467 -2.93062 0
M  V30 2193 O 207.902 -2.89631 -4.63439 0
M  V30 2194 H 204.996 -0.407737 -0.7195 0
M  V30 2195 H 207.542 -1.39942 -0.959914 0
M  V30 2196 H 206.314 -3.02727 -2.47936 0
M  V30 2197 H 205.937 -1.71714 -3.58609 0
M  V30 2198 N 206.934 1.1197 -1.10907 0
M  V30 2199 C 208.159 1.87942 -0.877064 0
M  V30 2200 C 208.584 1.79341 0.567314 0
M  V30 2201 O 207.942 1.15184 1.40009 0
M  V30 2202 C 207.99 3.34926 -1.33629 0
M  V30 2203 O 207.094 4.09303 -0.504447 0
M  V30 2204 H 206.435 0.583785 -0.316371 0
M  V30 2205 H 208.965 1.4157 -1.47712 0
M  V30 2206 H 208.975 3.8577 -1.32837 0
M  V30 2207 H 207.65 3.40504 -2.3881 0
M  V30 2208 H 206.227 3.68393 -0.577993 0
M  V30 2209 N 208.412 0.89855 1.29475 0
M  V30 2210 C 209.823 0.572537 1.77705 0
M  V30 2211 C 210.174 -0.911778 1.73727 0
M  V30 2212 O 209.299 -1.71288 1.32247 0
M  V30 2213 C 209.894 1.03252 3.22683 0
M  V30 2214 C 208.453 0.757687 3.68695 0
M  V30 2215 C 207.6 1.20787 2.49612 0
M  V30 2216 H 210.551 1.08139 1.16153 0
M  V30 2217 H 210.572 0.367307 3.78723 0
M  V30 2218 H 210.084 2.11285 3.25546 0
M  V30 2219 H 208.185 -0.310079 3.71308 0
M  V30 2220 H 208.298 1.35476 4.59547 0
M  V30 2221 H 206.662 0.626888 2.46865 0
M  V30 2222 H 207.445 2.29622 2.55203 0
M  V30 2223 N 209.89 -1.43072 0.660911 0
M  V30 2224 C 211.136 -2.0202 0.177708 0
M  V30 2225 C 211.469 -1.52066 -1.20787 0
M  V30 2226 O 210.744 -0.716987 -1.80802 0
M  V30 2227 C 211.027 -3.59561 0.197019 0
M  V30 2228 C 210.88 -4.19727 1.61706 0
M  V30 2229 C 212.199 -4.37664 -0.462396 0
M  V30 2230 H 209.318 -0.734034 0.0660494 0
M  V30 2231 H 211.96 -1.70272 0.843058 0
M  V30 2232 H 210.11 -3.86739 -0.369527 0
M  V30 2233 H 211.782 -4.03553 2.23479 0
M  V30 2234 H 210.025 -3.76084 2.16201 0
M  V30 2235 H 210.696 -5.28834 1.58237 0
M  V30 2236 H 213.172 -4.16095 0.0197215 0
M  V30 2237 H 212.048 -5.47305 -0.418188 0
M  V30 2238 H 212.309 -4.14493 -1.53778 0
M  V30 2239 N 211.368 -0.403325 -1.52352 0
M  V30 2240 C 212.298 0.416205 -2.29761 0
M  V30 2241 C 213.279 1.05123 -1.33728 0
M  V30 2242 O 214.464 1.06134 -1.62632 0
M  V30 2243 C 211.594 1.53624 -3.11475 0
M  V30 2244 C 210.548 1.02653 -4.15507 0
M  V30 2245 C 209.874 2.23971 -4.85532 0
M  V30 2246 C 211.174 0.08463 -5.22231 0
M  V30 2247 H 212.868 -0.229701 -2.98518 0
M  V30 2248 H 210.414 -0.111913 -1.43564 0
M  V30 2249 H 212.367 2.1165 -3.64393 0
M  V30 2250 H 211.091 2.20994 -2.40477 0
M  V30 2251 H 209.75 0.46871 -3.63591 0
M  V30 2252 H 209.398 2.89883 -4.11068 0
M  V30 2253 H 209.098 1.90521 -5.55856 0
M  V30 2254 H 210.622 2.82614 -5.41259 0
M  V30 2255 H 212.036 0.573509 -5.70424 0
M  V30 2256 H 210.433 -0.160783 -5.99885 0
M  V30 2257 H 211.503 -0.86237 -4.7717 0
M  V30 2258 N 212.846 1.57033 -0.133567 0
M  V30 2259 C 214.095 1.94861 0.520768 0
M  V30 2260 C 214.408 1.02012 1.66892 0
M  V30 2261 O 215.614 1.29365 2.38699 0
M  V30 2262 C 214.07 3.46362 0.977809 0
M  V30 2263 C 213.678 4.47773 -0.142674 0
M  V30 2264 C 215.422 3.93083 1.60269 0
M  V30 2265 C 213.329 5.90468 0.331883 0
M  V30 2266 H 212.259 0.727453 0.198315 0
M  V30 2267 H 214.91 1.82227 -0.215759 0
M  V30 2268 H 213.292 3.54282 1.7692 0
M  V30 2269 H 214.466 4.51536 -0.919317 0
M  V30 2270 H 212.781 4.10891 -0.675124 0
M  V30 2271 H 215.378 4.97121 1.96914 0
M  V30 2272 H 215.721 3.33876 2.48662 0
M  V30 2273 H 216.254 3.88025 0.876453 0
M  V30 2274 H 212.993 6.53463 -0.516341 0
M  V30 2275 H 212.513 5.90094 1.07469 0
M  V30 2276 H 214.192 6.42179 0.788332 0
M  V30 2277 N 214.325 -0.140222 1.56975 0
M  V30 2278 C 215.602 -0.880769 1.74648 0
M  V30 2279 C 215.982 -1.99036 0.703404 0
M  V30 2280 O 215.33 -2.26821 -0.27648 0
M  V30 2281 C 215.54 -1.417 3.18939 0
M  V30 2282 C 216.888 -1.87774 3.80823 0
M  V30 2283 O 217.912 -1.51427 3.2241 0
M  V30 2284 O 216.771 -2.54827 4.83452 0
M  V30 2285 H 213.865 -0.416713 0.714338 0
M  V30 2286 H 216.411 -0.125618 1.69234 0
M  V30 2287 H 215.183 -0.619902 3.86359 0
M  V30 2288 H 214.806 -2.23546 3.28805 0
M  V30 2289 N 215.803 -1.52179 -0.40978 0
M  V30 2290 C 217.05 -1.66206 -1.15679 0
M  V30 2291 C 217.378 -0.391674 -1.90516 0
M  V30 2292 O 216.633 0.62533 -1.8544 0
M  V30 2293 C 216.932 -2.83428 -2.17723 0
M  V30 2294 C 216.598 -4.21672 -1.59699 0
M  V30 2295 C 215.26 -4.59274 -1.43599 0
M  V30 2296 C 217.612 -5.07825 -1.17317 0
M  V30 2297 C 214.94 -5.80709 -0.836328 0
M  V30 2298 C 217.292 -6.29864 -0.587691 0
M  V30 2299 C 215.956 -6.66216 -0.413818 0
M  V30 2300 H 215.226 -0.608192 -0.423301 0
M  V30 2301 H 217.873 -1.86279 -0.444097 0
M  V30 2302 H 216.178 -2.57687 -2.95135 0
M  V30 2303 H 217.875 -2.91477 -2.75394 0
M  V30 2304 H 214.465 -3.9204 -1.73213 0
M  V30 2305 H 218.649 -4.79359 -1.28565 0
M  V30 2306 H 213.905 -6.07498 -0.689626 0
M  V30 2307 H 218.079 -6.95948 -0.250894 0
M  V30 2308 H 215.706 -7.60182 0.0529471 0
M  V30 2309 N 217.281 0.66697 -1.42791 0
M  V30 2310 C 218.528 1.42699 -1.43678 0
M  V30 2311 C 218.856 1.94419 -0.0560425 0
M  V30 2312 O 218.111 1.7182 0.936831 0
M  V30 2313 C 218.41 2.6349 -2.4147 0
M  V30 2314 C 218.076 2.30267 -3.8767 0
M  V30 2315 C 216.738 2.20918 -4.27491 0
M  V30 2316 C 219.09 2.03435 -4.79858 0
M  V30 2317 C 216.418 1.82873 -5.57471 0
M  V30 2318 C 218.77 1.66892 -6.10188 0
M  V30 2319 C 217.434 1.56058 -6.49001 0
M  V30 2320 H 216.704 0.522171 -0.525755 0
M  V30 2321 H 219.351 0.759785 -1.75783 0
M  V30 2322 H 217.656 3.35279 -2.0272 0
M  V30 2323 H 219.353 3.21684 -2.39417 0
M  V30 2324 H 215.943 2.38449 -3.56146 0
M  V30 2325 H 220.127 2.09586 -4.49875 0
M  V30 2326 H 215.383 1.7306 -5.86396 0
M  V30 2327 H 219.557 1.45157 -6.81104 0
M  V30 2328 H 217.184 1.26348 -7.49627 0
M  V30 2329 N 218.759 1.29093 0.90403 0
M  V30 2330 C 219.669 1.15727 2.0407 0
M  V30 2331 C 220.685 0.0815308 1.73809 0
M  V30 2332 O 221.861 0.292749 1.99261 0
M  V30 2333 C 218.926 0.830424 3.36608 0
M  V30 2334 C 217.987 1.98955 3.80415 0
M  V30 2335 C 217.22 1.6782 5.06628 0
M  V30 2336 O 217.443 0.597105 5.67266 0
M  V30 2337 O 216.377 2.52486 5.46383 0
M  V30 2338 H 220.203 2.11171 2.18267 0
M  V30 2339 H 217.788 1.08504 1.027 0
M  V30 2340 H 219.67 0.662521 4.16159 0
M  V30 2341 H 218.345 -0.0942678 3.23563 0
M  V30 2342 H 217.252 2.21267 3.01648 0
M  V30 2343 H 218.585 2.89529 3.98037 0
M  V30 2344 N 220.237 -1.11381 1.11499 0
M  V30 2345 C 221.514 -1.7955 0.775965 0
M  V30 2346 C 221.894 -1.97859 -0.73588 0
M  V30 2347 O 221.242 -1.56376 -1.66609 0
M  V30 2348 C 221.452 -3.13196 1.53977 0
M  V30 2349 C 222.8 -3.88227 1.71944 0
M  V30 2350 O 223.824 -3.22887 1.50407 0
M  V30 2351 O 222.683 -5.05477 2.07738 0
M  V30 2352 H 219.777 -0.777728 0.28119 0
M  V30 2353 H 222.323 -1.18118 1.21845 0
M  V30 2354 H 221.095 -2.95229 2.56818 0
M  V30 2355 H 220.718 -3.82342 1.09088 0
M  V30 2356 N 221.715 -0.905404 -1.28997 0
M  V30 2357 C 222.943 -0.549846 -1.9946 0
M  V30 2358 C 223.358 0.866834 -1.67724 0
M  V30 2359 O 222.715 1.57298 -0.925404 0
M  V30 2360 C 222.766 -0.739387 -3.53858 0
M  V30 2361 O 222.487 -2.10031 -3.84472 0
M  V30 2362 C 223.988 -0.389541 -4.41585 0
M  V30 2363 H 221.208 -0.210429 -0.637151 0
M  V30 2364 H 223.752 -1.21632 -1.64396 0
M  V30 2365 H 221.907 -0.120023 -3.87214 0
M  V30 2366 H 222.321 -2.13385 -4.79132 0
M  V30 2367 H 223.795 -0.572972 -5.49018 0
M  V30 2368 H 224.272 0.673756 -4.34001 0
M  V30 2369 H 224.878 -0.986089 -4.1371 0
M  V30 2370 N 223.193 1.4272 -0.668489 0
M  V30 2371 C 224.103 2.34596 0.0139753 0
M  V30 2372 C 225.119 1.5474 0.795703 0
M  V30 2373 O 226.295 1.87334 0.739466 0
M  V30 2374 C 223.36 3.33202 0.957982 0
M  V30 2375 C 222.421 4.28957 0.17149 0
M  V30 2376 C 221.654 5.22853 1.07053 0
M  V30 2377 O 221.877 5.21531 2.31001 0
M  V30 2378 O 220.811 5.9952 0.534727 0
M  V30 2379 H 224.637 2.9448 -0.742661 0
M  V30 2380 H 222.222 1.43117 -0.428705 0
M  V30 2381 H 224.104 3.93796 1.50008 0
M  V30 2382 H 222.779 2.758 1.69458 0
M  V30 2383 H 221.686 3.71796 -0.414558 0
M  V30 2384 H 223.019 4.89383 -0.52586 0
M  V30 2385 N 224.671 0.411399 1.52136 0
M  V30 2386 C 226.087 0.0623865 1.59478 0
M  V30 2387 C 226.287 -1.42554 1.4241 0
M  V30 2388 O 225.343 -2.19263 1.2522 0
M  V30 2389 C 226.656 0.559331 2.95452 0
M  V30 2390 C 228.204 0.517503 3.08692 0
M  V30 2391 C 228.679 0.990994 4.4715 0
M  V30 2392 N 230.17 0.947908 4.53397 0
M  V30 2393 C 230.905 1.28544 5.58806 0
M  V30 2394 N 230.401 1.69454 6.71757 0
M  V30 2395 N 232.194 1.20526 5.49026 0
M  V30 2396 H 224.345 1.37982 1.61477 0
M  V30 2397 H 226.608 0.566977 0.759764 0
M  V30 2398 H 226.314 1.59938 3.1323 0
M  V30 2399 H 226.188 -0.0298014 3.77188 0
M  V30 2400 H 228.575 -0.513505 2.90598 0
M  V30 2401 H 228.656 1.14272 2.28857 0
M  V30 2402 H 228.3 2.02034 4.65988 0
M  V30 2403 H 228.23 0.34257 5.25485 0
M  V30 2404 H 230.721 0.647157 3.72317 0
M  V30 2405 H 231.034 1.93513 7.48179 0
M  V30 2406 H 229.379 1.73359 6.73032 0
M  V30 2407 H 232.57 0.884505 4.59667 0
M  V30 2408 H 232.743 1.47161 6.31069 0
M  V30 2409 N 226.149 -1.5696 0.141893 0
M  V30 2410 C 227.379 -2.00031 -0.516828 0
M  V30 2411 C 227.787 -1.02091 -1.59293 0
M  V30 2412 O 227.13 -0.00909657 -1.83698 0
M  V30 2413 C 227.192 -3.39534 -1.1814 0
M  V30 2414 C 226.856 -4.56313 -0.250513 0
M  V30 2415 C 227.853 -5.17295 0.519839 0
M  V30 2416 C 225.538 -5.02061 -0.154907 0
M  V30 2417 C 227.532 -6.2243 1.3733 0
M  V30 2418 C 225.219 -6.07053 0.702161 0
M  V30 2419 C 226.217 -6.67106 1.46487 0
M  V30 2420 O 225.905 -7.70066 2.30767 0
M  V30 2421 H 225.637 -0.661451 -0.139493 0
M  V30 2422 H 228.191 -2.04086 0.231926 0
M  V30 2423 H 226.421 -3.32302 -1.97769 0
M  V30 2424 H 228.11 -3.66745 -1.73933 0
M  V30 2425 H 228.876 -4.82852 0.45598 0
M  V30 2426 H 224.755 -4.5505 -0.7383 0
M  V30 2427 H 228.299 -6.69233 1.96909 0
M  V30 2428 H 224.196 -6.40923 0.76733 0
M  V30 2429 H 224.964 -7.87264 2.23959 0
M  V30 2430 N 227.627 0.131896 -1.57047 0
M  V30 2431 C 229.043 0.485031 -1.52051 0
M  V30 2432 C 229.243 1.82563 -0.85281 0
M  V30 2433 O 228.299 2.48817 -0.429694 0
M  V30 2434 C 229.612 0.481409 -2.96821 0
M  V30 2435 C 231.16 0.565868 -3.07842 0
M  V30 2436 C 231.635 0.592762 -4.54148 0
M  V30 2437 N 233.126 0.654564 -4.58552 0
M  V30 2438 C 233.861 0.696608 -5.69153 0
M  V30 2439 N 233.357 0.697078 -6.89284 0
M  V30 2440 N 235.15 0.738639 -5.57226 0
M  V30 2441 H 227.301 -0.746664 -1.98843 0
M  V30 2442 H 229.564 -0.273999 -0.90754 0
M  V30 2443 H 229.27 -0.435731 -3.4899 0
M  V30 2444 H 229.144 1.3139 -3.53577 0
M  V30 2445 H 231.531 1.47343 -2.55684 0
M  V30 2446 H 231.612 -0.29406 -2.54104 0
M  V30 2447 H 231.256 -0.310701 -5.06949 0
M  V30 2448 H 231.186 1.46939 -5.05684 0
M  V30 2449 H 233.677 0.660887 -3.72076 0
M  V30 2450 H 233.99 0.731426 -7.69331 0
M  V30 2451 H 232.335 0.66471 -6.91814 0
M  V30 2452 H 235.526 0.735545 -4.62285 0
M  V30 2453 H 235.699 0.767938 -6.43434 0
M  V30 2454 N 229.106 1.52395 0.401703 0
M  V30 2455 C 230.053 1.76268 1.48991 0
M  V30 2456 C 231.023 0.605386 1.54675 0
M  V30 2457 O 232.208 0.843742 1.7113 0
M  V30 2458 C 229.348 1.92592 2.86361 0
M  V30 2459 C 228.461 3.20259 2.89928 0
M  V30 2460 C 227.596 3.26972 4.18644 0
M  V30 2461 C 226.635 4.48812 4.16214 0
M  V30 2462 N 225.772 4.52877 5.36514 0
M  V30 2463 H 230.612 2.6914 1.27935 0
M  V30 2464 H 228.149 1.33355 0.620871 0
M  V30 2465 H 230.107 2.0004 3.66115 0
M  V30 2466 H 228.737 1.03093 3.05895 0
M  V30 2467 H 227.789 3.21945 2.02621 0
M  V30 2468 H 229.101 4.10056 2.83999 0
M  V30 2469 H 228.255 3.33533 5.06794 0
M  V30 2470 H 226.994 2.35126 4.27278 0
M  V30 2471 H 225.999 4.4239 3.26453 0
M  V30 2472 H 227.224 5.41961 4.09213 0
M  V30 2473 H 225.17 3.63917 5.45802 0
M  V30 2474 H 225.087 5.36529 5.32609 0
M  V30 2475 H 226.355 4.63676 6.26597 0
M  V30 2476 N 230.584 -0.659388 1.43143 0
M  V30 2477 C 231.516 -1.7849 1.43784 0
M  V30 2478 C 232.529 -1.5932 0.334787 0
M  V30 2479 O 233.718 -1.68155 0.598842 0
M  V30 2480 C 230.818 -3.15828 1.22906 0
M  V30 2481 C 229.991 -3.61711 2.45934 0
M  V30 2482 C 229.05 -4.77831 2.20371 0
M  V30 2483 O 228.076 -4.87586 2.93681 0
M  V30 2484 N 229.278 -5.67611 1.21647 0
M  V30 2485 H 232.043 -1.7842 2.40803 0
M  V30 2486 H 229.604 -0.84302 1.3822 0
M  V30 2487 H 231.596 -3.91189 1.03697 0
M  V30 2488 H 230.166 -3.10707 0.343542 0
M  V30 2489 H 229.386 -2.76861 2.80609 0
M  V30 2490 H 230.674 -3.89112 3.27825 0
M  V30 2491 H 230.072 -5.62397 0.610449 0
M  V30 2492 H 228.629 -6.42719 1.08423 0
M  V30 2493 N 232.062 -1.29571 -0.897171 0
M  V30 2494 C 233.025 -1.14913 -1.98312 0
M  V30 2495 C 234.025 -0.0838629 -1.60581 0
M  V30 2496 O 235.215 -0.331006 -1.71026 0
M  V30 2497 C 232.347 -0.757835 -3.3237 0
M  V30 2498 H 233.54 -2.11377 -2.12743 0
M  V30 2499 H 231.093 -1.12793 -1.08201 0
M  V30 2500 H 231.828 0.206837 -3.2364 0
M  V30 2501 H 231.613 -1.52755 -3.61121 0
M  V30 2502 H 233.103 -0.678408 -4.12053 0
M  V30 2503 N 233.54 1.10788 -1.12088 0
M  V30 2504 C 234.488 2.19111 -0.780587 0
M  V30 2505 C 235.482 1.67818 0.230961 0
M  V30 2506 O 236.688 1.79777 0.0895427 0
M  V30 2507 H 233.063 0.714477 -0.234578 0
M  V30 2508 H 235.034 2.45055 -1.70266 0
M  V30 2509 C 233.783 3.46818 -0.24747 0
M  V30 2510 H 233.106 3.86646 -1.01712 0
M  V30 2511 H 234.546 4.23973 -0.0476291 0
M  V30 2512 C 233.005 3.20968 1.02378 0
M  V30 2513 O 233.535 3.42298 2.10226 0
M  V30 2514 N 231.741 2.74658 0.949271 0
M  V30 2515 H 231.288 2.57501 0.0715173 0
M  V30 2516 H 231.246 2.57739 1.80049 0
M  V30 2517 N 235.018 0.912232 1.28515 0
M  V30 2518 C 235.965 0.397954 2.27343 0
M  V30 2519 C 236.935 -0.526766 1.57526 0
M  V30 2520 O 238.12 -0.449292 1.85435 0
M  V30 2521 C 235.26 -0.357263 3.43246 0
M  V30 2522 C 234.373 0.599788 4.27816 0
M  V30 2523 C 233.508 -0.173725 5.30916 0
M  V30 2524 C 232.547 0.777039 6.07148 0
M  V30 2525 N 231.684 0.0371398 7.0209 0
M  V30 2526 H 236.524 1.24577 2.70711 0
M  V30 2527 H 234.061 0.625612 1.33133 0
M  V30 2528 H 236.019 -0.8113 4.09236 0
M  V30 2529 H 234.649 -1.16943 3.00872 0
M  V30 2530 H 233.701 1.17235 3.61884 0
M  V30 2531 H 235.013 1.32704 4.80823 0
M  V30 2532 H 234.167 -0.688394 6.02782 0
M  V30 2533 H 232.906 -0.934041 4.78672 0
M  V30 2534 H 231.911 1.3031 5.34134 0
M  V30 2535 H 233.136 1.53689 6.61481 0
M  V30 2536 H 231.082 -0.705213 6.52198 0
M  V30 2537 H 230.999 0.704249 7.52713 0
M  V30 2538 H 232.267 -0.457383 7.78157 0
M  V30 2539 N 236.496 -1.42363 0.676048 0
M  V30 2540 C 237.459 -2.29199 0.00766941 0
M  V30 2541 C 238.459 -1.43389 -0.727745 0
M  V30 2542 O 239.649 -1.64764 -0.56556 0
M  V30 2543 C 236.781 -3.2591 -0.999785 0
M  V30 2544 H 237.974 -2.89794 0.771988 0
M  V30 2545 H 235.527 -1.50024 0.438468 0
M  V30 2546 H 236.262 -2.70256 -1.79255 0
M  V30 2547 H 236.047 -3.89202 -0.475829 0
M  V30 2548 H 237.537 -3.91028 -1.46583 0
M  V30 2549 N 237.974 -0.419461 -1.51915 0
M  V30 2550 C 238.904 0.391813 -2.30189 0
M  V30 2551 C 239.885 1.03699 -1.34836 0
M  V30 2552 O 241.07 1.04403 -1.63748 0
M  V30 2553 C 238.2 1.50312 -3.13087 0
M  V30 2554 C 237.154 0.9824 -4.16573 0
M  V30 2555 C 236.48 2.18809 -4.8788 0
M  V30 2556 C 237.78 0.0292356 -5.22292 0
M  V30 2557 H 239.474 -0.26135 -2.98257 0
M  V30 2558 H 237.02 -0.127134 -1.43438 0
M  V30 2559 H 238.973 2.07773 -3.66617 0
M  V30 2560 H 237.697 2.18431 -2.42807 0
M  V30 2561 H 236.356 0.430119 -3.64068 0
M  V30 2562 H 236.004 2.85507 -4.14119 0
M  V30 2563 H 235.704 1.84615 -5.57845 0
M  V30 2564 H 237.228 2.76858 -5.44226 0
M  V30 2565 H 238.642 0.512976 -5.71 0
M  V30 2566 H 237.039 -0.2244 -5.9968 0
M  V30 2567 H 238.109 -0.912931 -4.76228 0
M  V30 2568 N 239.452 1.56882 -0.150215 0
M  V30 2569 C 240.362 2.20494 0.801222 0
M  V30 2570 C 241.378 1.19019 1.26927 0
M  V30 2571 O 242.554 1.51607 1.32579 0
M  V30 2572 C 239.619 2.81659 2.02161 0
M  V30 2573 C 238.68 3.9827 1.60249 0
M  V30 2574 C 237.913 4.56508 2.7647 0
M  V30 2575 O 238.136 4.13627 3.92771 0
M  V30 2576 O 237.07 5.46719 2.51757 0
M  V30 2577 H 240.896 3.02315 0.289717 0
M  V30 2578 H 238.481 1.49202 0.0769684 0
M  V30 2579 H 240.363 3.20522 2.73576 0
M  V30 2580 H 239.038 2.02849 2.52258 0
M  V30 2581 H 237.945 3.64117 0.858477 0
M  V30 2582 H 239.278 4.78609 1.14864 0
M  V30 2583 N 240.93 -0.123565 1.57115 0
M  V30 2584 C 241.877 -1.15177 2.00007 0
M  V30 2585 C 242.847 -1.41403 0.871454 0
M  V30 2586 O 244.032 -1.53346 1.13533 0
M  V30 2587 C 241.172 -2.47436 2.40561 0
M  V30 2588 C 240.285 -2.28184 3.66819 0
M  V30 2589 C 239.42 -3.53641 3.96373 0
M  V30 2590 C 238.459 -3.29528 5.15827 0
M  V30 2591 N 237.596 -4.47175 5.41275 0
M  V30 2592 H 242.436 -0.779008 2.87638 0
M  V30 2593 H 239.973 -0.373166 1.42288 0
M  V30 2594 H 241.931 -3.24584 2.62109 0
M  V30 2595 H 240.561 -2.82614 1.55978 0
M  V30 2596 H 239.613 -1.41976 3.52912 0
M  V30 2597 H 240.925 -2.0634 4.5412 0
M  V30 2598 H 240.079 -4.39209 4.18545 0
M  V30 2599 H 238.818 -3.78512 3.07538 0
M  V30 2600 H 237.823 -2.42349 4.93505 0
M  V30 2601 H 239.048 -3.06031 6.06236 0
M  V30 2602 H 236.994 -4.72175 4.55397 0
M  V30 2603 H 236.911 -4.28419 6.22891 0
M  V30 2604 H 238.179 -5.3389 5.67963 0
M  V30 2605 N 242.408 -1.52605 -0.393616 0
M  V30 2606 C 243.638 -1.71046 -1.15874 0
M  V30 2607 C 244.046 -0.426483 -1.84331 0
M  V30 2608 O 243.389 0.608513 -1.73329 0
M  V30 2609 C 243.451 -2.80118 -2.25332 0
M  V30 2610 C 243.115 -4.21381 -1.76881 0
M  V30 2611 C 244.112 -5.04697 -1.24808 0
M  V30 2612 C 241.797 -4.67683 -1.83244 0
M  V30 2613 C 243.791 -6.32393 -0.797387 0
M  V30 2614 C 241.478 -5.95364 -1.37787 0
M  V30 2615 C 242.476 -6.77549 -0.861208 0
M  V30 2616 O 242.164 -8.02837 -0.413252 0
M  V30 2617 H 241.896 -0.576155 -0.353583 0
M  V30 2618 H 244.45 -2.00018 -0.467123 0
M  V30 2619 H 242.68 -2.46557 -2.97904 0
M  V30 2620 H 244.369 -2.87006 -2.87023 0
M  V30 2621 H 245.135 -4.70111 -1.19252 0
M  V30 2622 H 241.014 -4.03805 -2.22401 0
M  V30 2623 H 244.558 -6.9649 -0.393437 0
M  V30 2624 H 240.455 -6.29455 -1.43026 0
M  V30 2625 H 241.223 -8.16749 -0.53515 0
M  V30 2626 N 243.887 0.651787 -1.4349 0
M  V30 2627 C 244.834 1.76462 -1.4876 0
M  V30 2628 C 245.804 1.62641 -0.337189 0
M  V30 2629 O 246.989 1.82864 -0.544544 0
M  V30 2630 C 244.129 3.14623 -1.41796 0
M  V30 2631 C 243.242 3.39568 -2.67053 0
M  V30 2632 C 242.377 4.67585 -2.52068 0
M  V30 2633 C 241.416 4.85639 -3.72587 0
M  V30 2634 N 240.553 6.04915 -3.56402 0
M  V30 2635 H 245.393 1.71293 -2.43849 0
M  V30 2636 H 242.93 0.835889 -1.21043 0
M  V30 2637 H 244.888 3.94496 -1.35753 0
M  V30 2638 H 243.518 3.18859 -0.50288 0
M  V30 2639 H 242.57 2.53783 -2.8337 0
M  V30 2640 H 243.882 3.48795 -3.56572 0
M  V30 2641 H 243.036 5.55586 -2.4374 0
M  V30 2642 H 241.775 4.60681 -1.60075 0
M  V30 2643 H 240.78 3.96073 -3.81321 0
M  V30 2644 H 242.005 4.94372 -4.65589 0
M  V30 2645 H 239.951 5.9914 -2.67146 0
M  V30 2646 H 239.868 6.15106 -4.39524 0
M  V30 2647 H 241.136 6.95533 -3.51929 0
M  V30 2648 N 245.365 1.30045 0.890287 0
M  V30 2649 C 246.275 1.17885 2.02831 0
M  V30 2650 C 247.291 0.0999609 1.73713 0
M  V30 2651 O 248.467 0.313867 1.98939 0
M  V30 2652 C 245.532 0.866079 3.35708 0
M  V30 2653 C 244.593 2.02979 3.78283 0
M  V30 2654 C 243.826 1.73184 5.0482 0
M  V30 2655 O 244.049 0.657237 5.66601 0
M  V30 2656 O 242.983 2.58267 5.43674 0
M  V30 2657 H 246.809 2.13474 2.16015 0
M  V30 2658 H 244.394 1.09587 1.01543 0
M  V30 2659 H 246.276 0.706623 4.15433 0
M  V30 2660 H 244.951 -0.0599443 3.23644 0
M  V30 2661 H 243.858 2.24454 2.99285 0
M  V30 2662 H 245.191 2.93734 3.94944 0
M  V30 2663 N 246.843 -1.10192 1.12674 0
M  V30 2664 C 247.753 -2.20172 0.810026 0
M  V30 2665 C 248.769 -1.72821 -0.202188 0
M  V30 2666 O 249.945 -2.01369 -0.0351691 0
M  V30 2667 C 247.01 -3.45631 0.272007 0
M  V30 2668 C 246.071 -4.07704 1.34447 0
M  V30 2669 C 245.304 -5.27175 0.832029 0
M  V30 2670 O 245.527 -5.69425 -0.333284 0
M  V30 2671 O 244.461 -5.80168 1.60277 0
M  V30 2672 H 248.287 -2.49701 1.72867 0
M  V30 2673 H 245.872 -1.18977 0.903597 0
M  V30 2674 H 247.754 -4.21394 -0.0230219 0
M  V30 2675 H 246.429 -3.17723 -0.619164 0
M  V30 2676 H 245.336 -3.33614 1.6927 0
M  V30 2677 H 246.669 -4.3982 2.2095 0
M  V30 2678 N 248.321 -0.919034 -1.28029 0
M  V30 2679 C 249.269 -0.401753 -2.29104 0
M  V30 2680 C 250.263 0.509354 -1.61561 0
M  V30 2681 O 251.469 0.390014 -1.75724 0
M  V30 2682 H 247.844 -0.111331 -0.743713 0
M  V30 2683 H 249.815 -1.2672 -2.70156 0
M  V30 2684 C 248.564 0.338148 -3.46052 0
M  V30 2685 H 247.887 -0.353732 -3.98232 0
M  V30 2686 H 249.327 0.664653 -4.18758 0
M  V30 2687 C 247.786 1.54798 -2.99231 0
M  V30 2688 O 248.316 2.64696 -3.02157 0
M  V30 2689 N 246.522 1.3968 -2.54829 0
M  V30 2690 H 246.069 0.502698 -2.52647 0
M  V30 2691 H 246.027 2.20755 -2.23863 0
M  V30 2692 N 249.799 1.42003 -0.683588 0
M  V30 2693 C 251.076 1.95112 -0.138075 0
M  V30 2694 C 251.456 1.62359 1.34918 0
M  V30 2695 O 250.804 0.924311 2.08971 0
M  V30 2696 C 251.014 3.46505 -0.416581 0
M  V30 2697 C 252.362 4.23254 -0.337834 0
M  V30 2698 O 253.386 3.54468 -0.35082 0
M  V30 2699 O 252.245 5.45743 -0.287596 0
M  V30 2700 H 249.339 0.826961 -0.00797996 0
M  V30 2701 H 251.885 1.51784 -0.758924 0
M  V30 2702 H 250.657 3.63582 -1.4465 0
M  V30 2703 H 250.28 3.969 0.235839 0
M  V30 2704 N 251.277 0.427512 1.51691 0
M  V30 2705 C 252.554 -0.201684 1.94557 0
M  V30 2706 C 252.934 -1.60981 1.36559 0
M  V30 2707 O 252.282 -2.21814 0.548702 0
M  V30 2708 C 252.492 -0.189394 3.48486 0
M  V30 2709 C 253.84 -0.39978 4.22714 0
M  V30 2710 O 254.864 -0.267945 3.55191 0
M  V30 2711 O 253.723 -0.661249 5.42485 0
M  V30 2712 H 250.817 -0.135261 0.815864 0
M  V30 2713 H 253.363 0.484782 1.62628 0
M  V30 2714 H 252.135 0.795431 3.8313 0
M  V30 2715 H 251.758 -0.919187 3.86829 0
M  V30 2716 N 252.755 -1.56801 0.158532 0
M  V30 2717 C 254.002 -1.9649 -0.489679 0
M  V30 2718 C 254.33 -1.04394 -1.6411 0
M  V30 2719 O 253.585 -0.0754401 -1.95555 0
M  V30 2720 C 253.884 -3.4235 -1.02623 0
M  V30 2721 C 253.55 -4.50899 0.00794526 0
M  V30 2722 C 252.212 -4.80312 0.292207 0
M  V30 2723 C 254.564 -5.16333 0.710584 0
M  V30 2724 C 251.892 -5.72461 1.28472 0
M  V30 2725 C 254.244 -6.09553 1.69199 0
M  V30 2726 C 252.908 -6.37339 1.98383 0
M  V30 2727 H 252.178 -0.719009 -0.179186 0
M  V30 2728 H 254.825 -1.8989 0.247798 0
M  V30 2729 H 253.13 -3.45838 -1.84128 0
M  V30 2730 H 254.827 -3.70393 -1.53656 0
M  V30 2731 H 251.417 -4.28015 -0.22379 0
M  V30 2732 H 255.601 -4.93732 0.504174 0
M  V30 2733 H 250.857 -5.92278 1.51714 0
M  V30 2734 H 255.031 -6.59327 2.24189 0
M  V30 2735 H 252.658 -7.08546 2.7544 0
M  V30 2736 N 254.233 0.115231 -1.57178 0
M  V30 2737 C 255.196 1.12526 -1.99676 0
M  V30 2738 C 256.196 1.34095 -0.88742 0
M  V30 2739 O 257.386 1.30548 -1.15337 0
M  V30 2740 C 254.518 2.4789 -2.34015 0
M  V30 2741 H 255.711 0.759912 -2.90113 0
M  V30 2742 H 253.264 0.359648 -1.52106 0
M  V30 2743 H 253.999 2.89339 -1.4647 0
M  V30 2744 H 253.784 2.33588 -3.14927 0
M  V30 2745 H 255.274 3.20575 -2.67622 0
M  V30 2746 N 255.711 1.52812 0.385517 0
M  V30 2747 C 256.936 1.72207 1.15583 0
M  V30 2748 C 257.361 0.441034 1.82857 0
M  V30 2749 O 256.719 -0.603465 1.70962 0
M  V30 2750 C 256.767 2.87476 2.17692 0
M  V30 2751 O 255.871 2.54693 3.24354 0
M  V30 2752 H 255.212 0.572526 0.336319 0
M  V30 2753 H 257.742 1.99618 0.448744 0
M  V30 2754 H 257.752 3.13072 2.6163 0
M  V30 2755 H 256.427 3.80408 1.68115 0
M  V30 2756 H 255.004 2.3985 2.85529 0
M  V30 2757 N 257.189 -0.644168 1.43834 0
M  V30 2758 C 258.436 -1.40395 1.4593 0
M  V30 2759 C 258.764 -1.94305 0.0869658 0
M  V30 2760 O 258.019 -1.73288 -0.909378 0
M  V30 2761 C 258.318 -2.59615 2.45631 0
M  V30 2762 C 257.984 -2.2407 3.91284 0
M  V30 2763 C 256.646 -2.14089 4.30952 0
M  V30 2764 C 258.998 -1.95775 4.83034 0
M  V30 2765 C 256.326 -1.73981 5.6031 0
M  V30 2766 C 258.678 -1.57163 6.12766 0
M  V30 2767 C 257.342 -1.45713 6.51402 0
M  V30 2768 H 256.612 -0.513741 0.533995 0
M  V30 2769 H 259.259 -0.731724 1.76969 0
M  V30 2770 H 257.564 -3.32011 2.08028 0
M  V30 2771 H 259.261 -3.17834 2.44504 0
M  V30 2772 H 255.851 -2.32753 3.59895 0
M  V30 2773 H 260.035 -2.02403 4.53152 0
M  V30 2774 H 255.291 -1.63709 5.89075 0
M  V30 2775 H 259.465 -1.34303 6.83327 0
M  V30 2776 H 257.092 -1.14406 7.51542 0
M  V30 2777 N 258.668 -1.30515 -0.883378 0
M  V30 2778 C 260.084 -1.08881 -1.16692 0
M  V30 2779 C 260.284 0.149409 -2.00945 0
M  V30 2780 O 259.34 0.84257 -2.38027 0
M  V30 2781 C 260.653 -2.35319 -1.87204 0
M  V30 2782 C 262.201 -2.40799 -1.99962 0
M  V30 2783 C 262.676 -3.67083 -2.73887 0
M  V30 2784 N 264.167 -3.679 -2.81432 0
M  V30 2785 C 264.902 -4.62303 -3.3921 0
M  V30 2786 N 264.398 -5.67052 -3.98025 0
M  V30 2787 N 266.191 -4.49845 -3.3704 0
M  V30 2788 H 258.342 -2.09951 -0.321633 0
M  V30 2789 H 260.605 -0.92556 -0.205043 0
M  V30 2790 H 260.311 -3.25689 -1.3274 0
M  V30 2791 H 260.185 -2.44089 -2.87577 0
M  V30 2792 H 262.572 -1.50907 -2.53597 0
M  V30 2793 H 262.653 -2.36003 -0.98673 0
M  V30 2794 H 262.297 -4.57334 -2.20925 0
M  V30 2795 H 262.227 -3.69141 -3.75556 0
M  V30 2796 H 264.718 -2.92171 -2.39676 0
M  V30 2797 H 265.031 -6.35184 -4.40183 0
M  V30 2798 H 263.376 -5.70842 -3.96439 0
M  V30 2799 H 266.567 -3.67194 -2.90321 0
M  V30 2800 H 266.74 -5.23597 -3.81772 0
M  V30 2801 N 260.146 1.09593 -1.13257 0
M  V30 2802 C 261.392 1.82003 -0.89458 0
M  V30 2803 C 261.725 1.85402 0.577906 0
M  V30 2804 O 261 1.32099 1.42759 0
M  V30 2805 C 261.283 3.28237 -1.48096 0
M  V30 2806 C 261.136 3.3312 -3.02244 0
M  V30 2807 C 262.455 4.24871 -1.14774 0
M  V30 2808 H 259.574 0.66077 -0.326424 0
M  V30 2809 H 262.216 1.28389 -1.40058 0
M  V30 2810 H 260.366 3.74024 -1.05062 0
M  V30 2811 H 262.038 2.95748 -3.54021 0
M  V30 2812 H 260.281 2.72756 -3.37323 0
M  V30 2813 H 260.952 4.3613 -3.38371 0
M  V30 2814 H 263.428 3.87361 -1.51957 0
M  V30 2815 H 262.304 5.25532 -1.58452 0
M  V30 2816 H 262.565 4.42058 -0.0611849 0
M  V30 2817 N 261.624 0.925811 1.2754 0
M  V30 2818 C 262.901 0.483726 1.89524 0
M  V30 2819 C 263.281 -1.03809 1.83812 0
M  V30 2820 O 262.629 -1.89143 1.28207 0
M  V30 2821 C 262.839 1.02769 3.33526 0
M  V30 2822 C 264.187 1.08703 4.10449 0
M  V30 2823 O 265.211 0.977175 3.42534 0
M  V30 2824 O 264.07 1.25599 5.31871 0
M  V30 2825 H 261.164 0.15529 0.812289 0
M  V30 2826 H 263.71 1.01738 1.35822 0
M  V30 2827 H 262.482 2.07155 3.31967 0
M  V30 2828 H 262.105 0.475567 3.94746 0
M  V30 2829 N 263.102 -1.41638 0.69111 0
M  V30 2830 C 264.518 -1.55435 0.362224 0
M  V30 2831 C 264.718 -1.66754 -1.13117 0
M  V30 2832 O 263.774 -1.64348 -1.91692 0
M  V30 2833 C 265.087 -2.79588 1.10684 0
M  V30 2834 C 266.635 -2.9338 1.09075 0
M  V30 2835 C 267.11 -4.20414 1.81703 0
M  V30 2836 N 268.601 -4.27362 1.7865 0
M  V30 2837 C 269.336 -5.24507 2.31689 0
M  V30 2838 N 268.832 -6.27708 2.93179 0
M  V30 2839 N 270.625 -5.16416 2.2197 0
M  V30 2840 H 262.776 -1.32536 1.65976 0
M  V30 2841 H 265.039 -0.639115 0.700168 0
M  V30 2842 H 264.745 -2.77419 2.16175 0
M  V30 2843 H 264.619 -3.70973 0.682545 0
M  V30 2844 H 267.006 -2.95067 0.0441238 0
M  V30 2845 H 267.087 -2.0318 1.55407 0
M  V30 2846 H 266.731 -4.19488 2.86343 0
M  V30 2847 H 266.661 -5.09578 1.32808 0
M  V30 2848 H 269.152 -3.53415 1.33815 0
M  V30 2849 H 269.465 -6.98217 3.31229 0
M  V30 2850 H 267.81 -6.28223 2.97255 0
M  V30 2851 H 271.001 -4.34716 1.73607 0
M  V30 2852 H 271.174 -5.91958 2.63609 0
M  V30 2853 N 264.58 -0.43555 -1.51462 0
M  V30 2854 C 265.829 0.133007 -2.01261 0
M  V30 2855 C 266.142 1.43942 -1.32439 0
M  V30 2856 O 267.348 2.09081 -1.73198 0
M  V30 2857 C 265.804 0.287581 -3.58749 0
M  V30 2858 C 265.412 -1.00829 -4.36506 0
M  V30 2859 C 267.156 0.810004 -4.167 0
M  V30 2860 C 265.063 -0.819454 -5.85695 0
M  V30 2861 H 263.993 0.0534822 -0.752101 0
M  V30 2862 H 266.644 -0.565038 -1.74584 0
M  V30 2863 H 265.026 1.04859 -3.81865 0
M  V30 2864 H 266.2 -1.77749 -4.25138 0
M  V30 2865 H 264.515 -1.45911 -3.89999 0
M  V30 2866 H 267.112 0.967743 -5.2587 0
M  V30 2867 H 267.455 1.79196 -3.75758 0
M  V30 2868 H 267.988 0.107357 -3.97655 0
M  V30 2869 H 264.727 -1.77374 -6.31046 0
M  V30 2870 H 264.247 -0.0900208 -5.99732 0
M  V30 2871 H 265.926 -0.471949 -6.45276 0
M  V30 2872 N 266.058 1.56714 -0.166846 0
M  V30 2873 C 266.968 2.21331 0.777791 0
M  V30 2874 C 267.984 1.20358 1.25658 0
M  V30 2875 O 269.16 1.53005 1.30964 0
M  V30 2876 C 266.225 2.83787 1.99163 0
M  V30 2877 C 265.286 3.99947 1.56016 0
M  V30 2878 C 264.519 4.59415 2.71613 0
M  V30 2879 O 264.742 4.17769 3.88362 0
M  V30 2880 O 263.676 5.49359 2.45945 0
M  V30 2881 H 267.502 3.02605 0.257636 0
M  V30 2882 H 265.087 1.49275 0.0611393 0
M  V30 2883 H 266.969 3.23405 2.70161 0
M  V30 2884 H 265.644 2.05513 2.50092 0
M  V30 2885 H 264.551 3.65007 0.819809 0
M  V30 2886 H 265.884 4.79801 1.09782 0
M  V30 2887 N 267.536 -0.106894 1.57237 0
M  V30 2888 C 268.952 -0.46078 1.52804 0
M  V30 2889 C 269.152 -1.81184 0.881746 0
M  V30 2890 O 268.208 -2.48102 0.469224 0
M  V30 2891 C 269.521 -0.434127 2.9755 0
M  V30 2892 C 271.069 -0.516821 3.08704 0
M  V30 2893 C 271.544 -0.520436 4.55033 0
M  V30 2894 N 273.035 -0.58153 4.59535 0
M  V30 2895 C 273.77 -0.605973 5.70189 0
M  V30 2896 N 273.266 -0.587331 6.90306 0
M  V30 2897 N 275.059 -0.649895 5.5833 0
M  V30 2898 H 267.21 0.778203 1.9763 0
M  V30 2899 H 269.473 0.288403 0.903066 0
M  V30 2900 H 269.179 0.491197 3.48253 0
M  V30 2901 H 269.053 -1.25748 3.55622 0
M  V30 2902 H 271.44 -1.43256 2.57995 0
M  V30 2903 H 271.521 0.334449 2.53604 0
M  V30 2904 H 271.165 0.391313 5.0639 0
M  V30 2905 H 271.095 -1.38876 5.07958 0
M  V30 2906 H 273.586 -0.60161 3.73081 0
M  V30 2907 H 273.899 -0.60894 7.70397 0
M  V30 2908 H 272.244 -0.554564 6.92784 0
M  V30 2909 H 275.435 -0.661907 4.63397 0
M  V30 2910 H 275.608 -0.665476 6.44574 0
M  V30 2911 N 269.014 -1.53014 -0.377408 0
M  V30 2912 C 270.26 -1.68872 -1.12294 0
M  V30 2913 C 270.593 -0.433224 -1.89306 0
M  V30 2914 O 269.868 0.569258 -1.85983 0
M  V30 2915 C 270.151 -2.93115 -2.09179 0
M  V30 2916 C 270.004 -4.28794 -1.35853 0
M  V30 2917 C 271.323 -3.12928 -3.09458 0
M  V30 2918 H 268.442 -0.614518 -0.406862 0
M  V30 2919 H 271.084 -1.85633 -0.40503 0
M  V30 2920 H 269.234 -2.78956 -2.70399 0
M  V30 2921 H 270.906 -4.54742 -0.775082 0
M  V30 2922 H 269.149 -4.28744 -0.660364 0
M  V30 2923 H 269.82 -5.11837 -2.06706 0
M  V30 2924 H 272.296 -3.26194 -2.58334 0
M  V30 2925 H 271.172 -4.01316 -3.74482 0
M  V30 2926 H 271.433 -2.27669 -3.78971 0
M  V30 2927 N 270.492 0.636531 -1.44174 0
M  V30 2928 C 271.455 1.73063 -1.50273 0
M  V30 2929 C 272.455 1.56113 -0.385397 0
M  V30 2930 O 273.645 1.61707 -0.64781 0
M  V30 2931 C 270.777 3.12096 -1.37145 0
M  V30 2932 H 271.97 1.69031 -2.47727 0
M  V30 2933 H 269.523 0.849706 -1.31186 0
M  V30 2934 H 270.258 3.21728 -0.407636 0
M  V30 2935 H 270.043 3.25805 -2.18159 0
M  V30 2936 H 271.533 3.91846 -1.44382 0
M  V30 2937 N 271.97 1.30982 0.876444 0
M  V30 2938 C 273.386 1.09498 1.16113 0
M  V30 2939 C 273.586 -0.13875 2.01022 0
M  V30 2940 O 272.642 -0.829935 2.38471 0
M  V30 2941 C 273.955 2.36308 1.85954 0
M  V30 2942 C 275.503 2.41856 1.98683 0
M  V30 2943 C 275.978 3.6853 2.71937 0
M  V30 2944 N 277.469 3.69387 2.79477 0
M  V30 2945 C 278.204 4.64096 3.36753 0
M  V30 2946 N 277.7 5.69155 3.95012 0
M  V30 2947 N 279.493 4.51626 3.3465 0
M  V30 2948 H 271.644 2.10118 0.310494 0
M  V30 2949 H 273.907 0.926634 0.200131 0
M  V30 2950 H 273.613 3.26388 1.31011 0
M  V30 2951 H 273.487 2.4561 2.86278 0
M  V30 2952 H 275.874 1.52249 2.52793 0
M  V30 2953 H 275.955 2.36523 0.9742 0
M  V30 2954 H 275.599 4.58499 2.18496 0
M  V30 2955 H 275.529 3.71127 3.73593 0
M  V30 2956 H 278.02 2.93438 2.38123 0
M  V30 2957 H 278.333 6.3751 4.36808 0
M  V30 2958 H 276.678 5.72937 3.93406 0
M  V30 2959 H 279.869 3.68728 2.8837 0
M  V30 2960 H 280.042 5.25614 3.7899 0
M  V30 2961 N 273.449 -1.08991 1.13837 0
M  V30 2962 C 274.695 -1.81526 0.90422 0
M  V30 2963 C 275.028 -1.85706 -0.568066 0
M  V30 2964 O 274.303 -1.32855 -1.42056 0
M  V30 2965 C 274.586 -3.27447 1.49835 0
M  V30 2966 C 274.439 -3.31512 3.04006 0
M  V30 2967 C 275.758 -4.24256 1.17025 0
M  V30 2968 H 272.877 -0.659029 0.329923 0
M  V30 2969 H 275.519 -1.27644 1.40737 0
M  V30 2970 H 273.669 -3.73462 1.07044 0
M  V30 2971 H 275.341 -2.93867 3.55584 0
M  V30 2972 H 273.584 -2.70963 3.38765 0
M  V30 2973 H 274.255 -4.34329 3.40679 0
M  V30 2974 H 276.731 -3.86549 1.54009 0
M  V30 2975 H 275.607 -5.24684 1.61237 0
M  V30 2976 H 275.868 -4.42019 0.0846274 0
M  V30 2977 N 274.927 -0.932562 -1.27047 0
M  V30 2978 C 276.343 -0.633544 -1.46487 0
M  V30 2979 C 276.543 0.815746 -1.84249 0
M  V30 2980 O 275.599 1.59319 -1.95892 0
M  V30 2981 C 276.912 -1.58758 -2.55375 0
M  V30 2982 C 278.46 -1.59634 -2.69232 0
M  V30 2983 C 278.935 -2.53747 -3.81283 0
M  V30 2984 N 280.426 -2.51982 -3.88664 0
M  V30 2985 C 281.161 -3.21491 -4.74796 0
M  V30 2986 N 280.657 -4.00395 -5.65381 0
M  V30 2987 N 282.45 -3.10485 -4.68568 0
M  V30 2988 H 274.601 -1.86946 -1.00821 0
M  V30 2989 H 276.864 -0.802897 -0.504044 0
M  V30 2990 H 276.57 -2.62172 -2.34432 0
M  V30 2991 H 276.444 -1.33301 -3.52861 0
M  V30 2992 H 278.831 -0.569488 -2.89553 0
M  V30 2993 H 278.912 -1.89142 -1.72218 0
M  V30 2994 H 278.556 -3.56545 -3.61715 0
M  V30 2995 H 278.486 -2.21532 -4.77735 0
M  V30 2996 H 280.977 -1.94681 -3.23895 0
M  V30 2997 H 281.29 -4.50406 -6.27976 0
M  V30 2998 H 279.635 -4.04498 -5.65161 0
M  V30 2999 H 282.826 -2.48331 -3.96799 0
M  V30 3000 H 282.999 -3.64925 -5.35475 0
M  V30 3001 N 276.405 1.4127 -0.698611 0
M  V30 3002 C 277.653 2.00782 -0.230409 0
M  V30 3003 C 277.974 1.5562 1.17505 0
M  V30 3004 O 277.244 0.78815 1.79346 0
M  V30 3005 H 275.824 0.742464 -0.0821944 0
M  V30 3006 H 278.486 1.72852 -0.90045 0
M  V30 3007 H 277.582 3.11095 -0.25021 0
M  V30 3008 N 277.883 0.443576 1.51229 0
M  V30 3009 C 279.131 -0.120557 2.0174 0
M  V30 3010 C 279.452 -1.42665 1.32935 0
M  V30 3011 O 278.722 -1.9028 0.465866 0
M  V30 3012 H 277.302 -0.0475426 0.745486 0
M  V30 3013 H 279.964 0.587711 1.85828 0
M  V30 3014 H 279.06 -0.291972 3.10731 0
M  V30 3015 N 279.361 -1.56624 0.175154 0
M  V30 3016 C 280.271 -2.21741 -0.766042 0
M  V30 3017 C 281.287 -1.21023 -1.25018 0
M  V30 3018 O 282.463 -1.53697 -1.3015 0
M  V30 3019 C 279.528 -2.84839 -1.97655 0
M  V30 3020 C 278.589 -4.00769 -1.53892 0
M  V30 3021 C 277.822 -4.60849 -2.69173 0
M  V30 3022 O 278.045 -4.19823 -3.86141 0
M  V30 3023 O 276.979 -5.50655 -2.43028 0
M  V30 3024 H 280.805 -3.02738 -0.241585 0
M  V30 3025 H 278.39 -1.49305 -0.053222 0
M  V30 3026 H 280.272 -3.24834 -2.68442 0
M  V30 3027 H 278.947 -2.06836 -2.48999 0
M  V30 3028 H 277.854 -3.65436 -0.80044 0
M  V30 3029 H 279.187 -4.80376 -1.07236 0
M  V30 3030 N 280.839 0.0985539 -1.57292 0
M  V30 3031 C 282.087 0.801092 -1.85545 0
M  V30 3032 C 282.408 1.79438 -0.763353 0
M  V30 3033 O 281.678 1.94763 0.21073 0
M  V30 3034 H 280.258 0.29884 -0.684619 0
M  V30 3035 H 282.92 0.0810064 -1.94732 0
M  V30 3036 H 282.016 1.3338 -2.82163 0
M  V30 3037 N 282.317 1.53212 0.369288 0
M  V30 3038 C 283.545 1.73119 1.13303 0
M  V30 3039 C 283.96 0.458455 1.83149 0
M  V30 3040 O 283.317 -0.568403 1.73423 0
M  V30 3041 C 283.368 2.89413 2.16616 0
M  V30 3042 O 283.089 4.11761 1.49614 0
M  V30 3043 C 284.59 3.21161 3.05566 0
M  V30 3044 H 281.81 0.579107 0.338934 0
M  V30 3045 H 284.354 1.99942 0.429338 0
M  V30 3046 H 282.509 2.64994 2.82589 0
M  V30 3047 H 282.923 4.76858 2.18419 0
M  V30 3048 H 284.397 4.05949 3.74045 0
M  V30 3049 H 284.874 2.36369 3.70171 0
M  V30 3050 H 285.48 3.47492 2.45213 0
M  V30 3051 N 283.795 -0.628877 1.44509 0
M  V30 3052 C 285.043 -1.38565 1.4712 0
M  V30 3053 C 285.364 -1.94712 0.105899 0
M  V30 3054 O 284.634 -1.75912 -0.862079 0
M  V30 3055 H 283.214 -0.514333 0.541729 0
M  V30 3056 H 285.876 -0.740018 1.80305 0
M  V30 3057 H 284.972 -2.21583 2.19789 0
M  V30 3058 N 285.273 -1.31445 -0.869486 0
M  V30 3059 C 286.503 -1.23942 -1.65294 0
M  V30 3060 C 286.911 0.197561 -1.88166 0
M  V30 3061 O 286.254 1.14019 -1.44033 0
M  V30 3062 C 286.316 -1.91385 -3.04322 0
M  V30 3063 C 285.98 -3.40726 -3.04557 0
M  V30 3064 C 286.977 -4.36464 -2.82481 0
M  V30 3065 C 284.662 -3.82425 -3.25663 0
M  V30 3066 C 286.656 -5.71876 -2.8149 0
M  V30 3067 C 284.343 -5.1795 -3.243 0
M  V30 3068 C 285.341 -6.12486 -3.02241 0
M  V30 3069 O 285.029 -7.45534 -3.00724 0
M  V30 3070 H 284.761 -0.429459 -0.522054 0
M  V30 3071 H 287.315 -1.73873 -1.0935 0
M  V30 3072 H 285.545 -1.36004 -3.61994 0
M  V30 3073 H 287.234 -1.77791 -3.64891 0
M  V30 3074 H 288 -4.05576 -2.65956 0
M  V30 3075 H 283.879 -3.09274 -3.41863 0
M  V30 3076 H 287.423 -6.45638 -2.64191 0
M  V30 3077 H 283.32 -5.48473 -3.40365 0
M  V30 3078 H 284.088 -7.54713 -3.16782 0
M  V30 3079 N 286.751 1.08385 -1.14413 0
M  V30 3080 C 287.998 1.80776 -0.912482 0
M  V30 3081 C 288.326 1.86236 0.560934 0
M  V30 3082 O 287.581 1.33431 1.43159 0
M  V30 3083 C 287.88 3.26273 -1.45879 0
M  V30 3084 C 287.546 3.4093 -2.95089 0
M  V30 3085 C 286.208 3.44638 -3.35824 0
M  V30 3086 C 288.56 3.44591 -3.91033 0
M  V30 3087 C 285.888 3.49597 -4.71167 0
M  V30 3088 C 288.24 3.51086 -5.26233 0
M  V30 3089 C 286.904 3.53067 -5.6648 0
M  V30 3090 H 286.174 0.661507 -0.333901 0
M  V30 3091 H 288.821 1.27613 -1.42784 0
M  V30 3092 H 287.126 3.82146 -0.864376 0
M  V30 3093 H 288.823 3.80839 -1.2555 0
M  V30 3094 H 285.413 3.38736 -2.62594 0
M  V30 3095 H 289.597 3.40957 -3.60641 0
M  V30 3096 H 284.853 3.49424 -5.0171 0
M  V30 3097 H 289.027 3.52864 -6.00383 0
M  V30 3098 H 286.654 3.56662 -6.71339 0
M  V30 3099 N 288.23 0.939286 1.26551 0
M  V30 3100 C 289.476 0.586715 1.94128 0
M  V30 3101 C 289.809 -0.8717 1.73537 0
M  V30 3102 O 289.084 -1.62339 1.07127 0
M  V30 3103 C 289.367 0.927497 3.4795 0
M  V30 3104 C 289.22 2.44052 3.77834 0
M  V30 3105 C 290.539 0.441569 4.37879 0
M  V30 3106 H 287.658 0.21463 0.705055 0
M  V30 3107 H 290.3 1.17316 1.49455 0
M  V30 3108 H 288.45 0.428431 3.8613 0
M  V30 3109 H 290.122 3.01216 3.4938 0
M  V30 3110 H 288.365 2.8848 3.23978 0
M  V30 3111 H 289.036 2.62947 4.85348 0
M  V30 3112 H 291.512 0.869448 4.06915 0
M  V30 3113 H 290.388 0.708856 5.44304 0
M  V30 3114 H 290.649 -0.658467 4.37169 0
M  V30 3115 N 289.708 -1.40897 0.706093 0
M  V30 3116 C 290.985 -1.94868 0.169099 0
M  V30 3117 C 291.365 -1.64485 -1.32318 0
M  V30 3118 O 290.713 -0.95744 -2.07474 0
M  V30 3119 C 290.923 -3.45798 0.471654 0
M  V30 3120 C 292.271 -4.22663 0.405127 0
M  V30 3121 O 293.295 -3.53865 0.407168 0
M  V30 3122 O 292.154 -5.45216 0.374383 0
M  V30 3123 H 289.248 -0.82673 0.0211352 0
M  V30 3124 H 291.794 -1.50558 0.782976 0
M  V30 3125 H 290.566 -3.61235 1.50416 0
M  V30 3126 H 290.189 -3.97225 -0.172666 0
M  V30 3127 N 291.186 -0.45159 -1.50991 0
M  V30 3128 C 292.433 0.110074 -2.02201 0
M  V30 3129 C 292.761 1.4146 -1.33489 0
M  V30 3130 O 292.016 1.90617 -0.443125 0
M  V30 3131 C 292.315 0.361728 -3.55565 0
M  V30 3132 C 291.981 -0.858717 -4.42648 0
M  V30 3133 C 290.643 -1.19338 -4.66167 0
M  V30 3134 C 292.995 -1.67221 -4.93646 0
M  V30 3135 C 290.323 -2.34195 -5.37931 0
M  V30 3136 C 292.675 -2.8119 -5.6667 0
M  V30 3137 C 291.339 -3.15094 -5.88449 0
M  V30 3138 H 290.609 0.040279 -0.739904 0
M  V30 3139 H 293.256 -0.601696 -1.81802 0
M  V30 3140 H 291.561 1.15554 -3.74372 0
M  V30 3141 H 293.258 0.80996 -3.92735 0
M  V30 3142 H 289.848 -0.58796 -4.24548 0
M  V30 3143 H 294.032 -1.42686 -4.75347 0
M  V30 3144 H 289.288 -2.6076 -5.53005 0
M  V30 3145 H 293.462 -3.44585 -6.05173 0
M  V30 3146 H 291.089 -4.04204 -6.43835 0
M  V30 3147 N 292.664 1.56529 -0.183458 0
M  V30 3148 C 293.889 2.02064 0.467428 0
M  V30 3149 C 294.314 1.06282 1.55196 0
M  V30 3150 O 293.672 0.0443565 1.81246 0
M  V30 3151 C 293.72 3.46122 1.01153 0
M  V30 3152 O 292.824 3.53437 2.12499 0
M  V30 3153 H 292.165 0.654726 0.110588 0
M  V30 3154 H 294.695 2.02521 -0.290917 0
M  V30 3155 H 294.705 3.85676 1.33108 0
M  V30 3156 H 293.38 4.15331 0.217533 0
M  V30 3157 H 291.957 3.2575 1.81497 0
M  V30 3158 N 294.142 -0.090211 1.57342 0
M  V30 3159 C 295.388 -0.793982 1.86611 0
M  V30 3160 C 295.721 -1.78142 0.773252 0
M  V30 3161 O 294.996 -1.93271 -0.218304 0
M  V30 3162 C 295.279 -1.51839 3.26523 0
M  V30 3163 C 295.132 -0.548609 4.46442 0
M  V30 3164 C 296.451 -2.46779 3.64401 0
M  V30 3165 H 293.57 -0.287186 0.678744 0
M  V30 3166 H 296.212 -0.0575076 1.89913 0
M  V30 3167 H 294.362 -2.14617 3.23839 0
M  V30 3168 H 296.034 0.0725513 4.61243 0
M  V30 3169 H 294.277 0.137614 4.33582 0
M  V30 3170 H 294.948 -1.09271 5.41076 0
M  V30 3171 H 297.424 -1.94089 3.68061 0
M  V30 3172 H 296.3 -2.94479 4.63221 0
M  V30 3173 H 296.561 -3.30758 2.93346 0
M  V30 3174 N 295.62 -1.53406 -0.361157 0
M  V30 3175 C 297.036 -1.43277 -0.703124 0
M  V30 3176 C 297.236 -0.575384 -1.9311 0
M  V30 3177 O 296.292 -0.0595362 -2.5243 0
M  V30 3178 C 297.605 -2.8653 -0.9122 0
M  V30 3179 C 299.153 -2.96191 -1.01193 0
M  V30 3180 C 299.628 -4.40514 -1.25345 0
M  V30 3181 N 301.119 -4.43962 -1.32105 0
M  V30 3182 C 301.854 -5.52746 -1.5251 0
M  V30 3183 N 301.35 -6.71567 -1.70203 0
M  V30 3184 N 303.143 -5.40331 -1.54916 0
M  V30 3185 H 295.294 -2.07654 0.446475 0
M  V30 3186 H 297.557 -0.937944 0.137715 0
M  V30 3187 H 297.263 -3.51605 -0.0816414 0
M  V30 3188 H 297.137 -3.30441 -1.81903 0
M  V30 3189 H 299.524 -2.31266 -1.83303 0
M  V30 3190 H 299.605 -2.55667 -0.0823929 0
M  V30 3191 H 299.249 -5.06014 -0.437346 0
M  V30 3192 H 299.179 -4.78614 -2.19627 0
M  V30 3193 H 301.67 -3.58332 -1.20028 0
M  V30 3194 H 301.983 -7.50241 -1.85359 0
M  V30 3195 H 300.328 -6.74545 -1.67373 0
M  V30 3196 H 303.519 -4.46465 -1.40663 0
M  V30 3197 H 303.692 -6.25173 -1.70477 0
M  V30 3198 N 297.098 0.621204 -1.44841 0
M  V30 3199 C 298.046 1.75385 -1.52784 0
M  V30 3200 C 299.04 1.64639 -0.398779 0
M  V30 3201 O 300.246 1.70598 -0.574137 0
M  V30 3202 H 296.621 0.579193 -0.479625 0
M  V30 3203 H 298.592 1.6581 -2.48092 0
M  V30 3204 C 297.341 3.13742 -1.4987 0
M  V30 3205 H 296.664 3.22663 -2.36069 0
M  V30 3206 H 298.104 3.92861 -1.59487 0
M  V30 3207 C 296.563 3.36175 -0.220973 0
M  V30 3208 O 297.093 3.95469 0.704782 0
M  V30 3209 N 295.299 2.90348 -0.120963 0
M  V30 3210 H 294.846 2.42278 -0.875162 0
M  V30 3211 H 294.804 3.05732 0.733168 0
M  V30 3212 N 298.576 1.31904 0.862503 0
M  V30 3213 C 299.816 1.23324 1.63004 0
M  V30 3214 C 300.18 -0.203724 1.90916 0
M  V30 3215 O 301.381 -0.413132 2.65606 0
M  V30 3216 C 299.652 2.06116 2.91978 0
M  V30 3217 S 301.211 2.14478 3.82812 0
M  V30 3218 H 298.029 0.439117 0.559193 0
M  V30 3219 H 300.631 1.66658 1.02202 0
M  V30 3220 H 299.335 3.09593 2.69407 0
M  V30 3221 H 298.866 1.6353 3.57801 0
M  V30 3222 H 300.881 1.28855 4.79177 0
M  V30 3223 N 300.054 -1.07777 1.14986 0
M  V30 3224 C 301.465 -1.61766 0.932127 0
M  V30 3225 C 301.816 -1.88974 -0.527581 0
M  V30 3226 O 300.941 -1.65198 -1.39781 0
M  V30 3227 C 301.536 -2.93891 1.68563 0
M  V30 3228 C 300.095 -3.44639 1.5133 0
M  V30 3229 C 299.242 -2.18767 1.704 0
M  V30 3230 H 302.193 -0.909201 1.30074 0
M  V30 3231 H 302.214 -3.62623 1.15259 0
M  V30 3232 H 301.726 -2.74057 2.74799 0
M  V30 3233 H 299.827 -3.69564 0.474702 0
M  V30 3234 H 299.94 -4.20966 2.28746 0
M  V30 3235 H 298.304 -2.28253 1.13016 0
M  V30 3236 H 299.087 -2.01433 2.77992 0
M  V30 3237 N 301.532 -0.945985 -1.26051 0
M  V30 3238 C 302.948 -0.649045 -1.45807 0
M  V30 3239 C 303.148 0.796158 -1.85104 0
M  V30 3240 O 302.204 1.57233 -1.97571 0
M  V30 3241 C 303.517 -1.61458 -2.53677 0
M  V30 3242 C 305.065 -1.62481 -2.67524 0
M  V30 3243 C 305.54 -2.57776 -3.7857 0
M  V30 3244 N 307.031 -2.5609 -3.85969 0
M  V30 3245 C 307.766 -3.26508 -4.7136 0
M  V30 3246 N 307.262 -4.0637 -5.61102 0
M  V30 3247 N 309.055 -3.15437 -4.65248 0
M  V30 3248 H 301.206 -1.88005 -0.988328 0
M  V30 3249 H 303.469 -0.808198 -0.4955 0
M  V30 3250 H 303.175 -2.64644 -2.31638 0
M  V30 3251 H 303.049 -1.37036 -3.51427 0
M  V30 3252 H 305.436 -0.600167 -2.88933 0
M  V30 3253 H 305.517 -1.90958 -1.70202 0
M  V30 3254 H 305.161 -3.60361 -3.57913 0
M  V30 3255 H 305.091 -2.26587 -4.75359 0
M  V30 3256 H 307.582 -1.98105 -3.21812 0
M  V30 3257 H 307.895 -4.57042 -6.23164 0
M  V30 3258 H 306.24 -4.10469 -5.60839 0
M  V30 3259 H 309.431 -2.52525 -3.94143 0
M  V30 3260 H 309.604 -3.70584 -5.31575 0
M  V30 3261 N 303.011 1.40521 -0.713556 0
M  V30 3262 C 303.961 2.27971 -0.036165 0
M  V30 3263 C 304.945 1.43151 0.734623 0
M  V30 3264 O 306.137 1.66261 0.607158 0
M  V30 3265 C 303.266 3.31661 0.886331 0
M  V30 3266 C 302.352 4.23955 0.110836 0
M  V30 3267 N 302.743 4.97641 -0.904847 0
M  V30 3268 C 301.041 4.44674 0.343692 0
M  V30 3269 C 301.742 5.65322 -1.37064 0
M  V30 3270 N 300.718 5.39162 -0.693168 0
M  V30 3271 H 304.52 2.82384 -0.814645 0
M  V30 3272 H 302.034 1.52948 -0.545963 0
M  V30 3273 H 304.031 3.93154 1.38692 0
M  V30 3274 H 302.691 2.78808 1.66421 0
M  V30 3275 H 303.702 5.01689 -1.28563 0
M  V30 3276 H 300.379 4.02801 1.09805 0
M  V30 3277 H 301.769 6.34359 -2.21447 0
M  V30 3278 N 304.489 0.459591 1.5075 0
M  V30 3279 C 305.439 -0.358926 2.25157 0
M  V30 3280 C 306.423 -0.971285 1.28276 0
M  V30 3281 O 307.615 -0.885739 1.53244 0
M  V30 3282 C 304.744 -1.44695 3.11317 0
M  V30 3283 C 303.83 -0.842894 4.15639 0
M  V30 3284 N 304.221 0.0299373 5.05791 0
M  V30 3285 C 302.519 -1.10809 4.32015 0
M  V30 3286 C 303.22 0.371563 5.80512 0
M  V30 3287 N 302.196 -0.250409 5.43023 0
M  V30 3288 H 305.998 0.313636 2.92222 0
M  V30 3289 H 303.512 0.273021 1.60089 0
M  V30 3290 H 305.509 -2.04641 3.63218 0
M  V30 3291 H 304.169 -2.12162 2.45799 0
M  V30 3292 H 305.18 0.39797 5.16369 0
M  V30 3293 H 301.857 -1.7786 3.77719 0
M  V30 3294 H 303.247 1.08319 6.63111 0
M  V30 3295 N 305.967 -1.56429 0.191757 0
M  V30 3296 C 307.214 -1.97485 -0.447891 0
M  V30 3297 C 307.542 -1.07852 -1.61859 0
M  V30 3298 O 306.797 -0.116903 -1.95351 0
M  V30 3299 C 307.096 -3.44449 -0.953384 0
M  V30 3300 C 306.762 -4.50781 0.103586 0
M  V30 3301 C 305.424 -4.79584 0.394023 0
M  V30 3302 C 307.776 -5.1471 0.819946 0
M  V30 3303 C 305.104 -5.69607 1.40585 0
M  V30 3304 C 307.456 -6.05827 1.8209 0
M  V30 3305 C 306.12 -6.32987 2.11857 0
M  V30 3306 H 305.39 -0.722648 -0.163895 0
M  V30 3307 H 308.037 -1.89322 0.28802 0
M  V30 3308 H 306.342 -3.49666 -1.76751 0
M  V30 3309 H 308.039 -3.73569 -1.45765 0
M  V30 3310 H 304.629 -4.28394 -0.132951 0
M  V30 3311 H 308.813 -4.92552 0.608789 0
M  V30 3312 H 304.069 -5.88926 1.64243 0
M  V30 3313 H 308.243 -6.54424 2.38123 0
M  V30 3314 H 305.87 -7.02544 2.90407 0
M  V30 3315 N 307.445 0.0818655 -1.57387 0
M  V30 3316 C 308.856 0.634871 -1.75574 0
M  V30 3317 C 309.207 1.78435 -0.815809 0
M  V30 3318 O 308.332 2.164 0.0025366 0
M  V30 3319 C 308.927 1.15845 -3.18379 0
M  V30 3320 C 307.486 1.65741 -3.37945 0
M  V30 3321 C 306.633 0.572549 -2.71325 0
M  V30 3322 H 309.584 -0.144268 -1.58043 0
M  V30 3323 H 309.605 2.02751 -3.21982 0
M  V30 3324 H 309.117 0.321631 -3.86765 0
M  V30 3325 H 307.218 2.51781 -2.74658 0
M  V30 3326 H 307.331 1.74129 -4.46336 0
M  V30 3327 H 305.695 1.01518 -2.33594 0
M  V30 3328 H 306.478 -0.253918 -3.4236 0
M  V30 3329 N 308.923 1.53595 0.353017 0
M  V30 3330 C 310.339 1.43648 0.695516 0
M  V30 3331 C 310.539 0.585617 1.92802 0
M  V30 3332 O 309.595 0.0729223 2.52395 0
M  V30 3333 C 310.908 2.8701 0.896991 0
M  V30 3334 C 312.456 2.96723 0.996209 0
M  V30 3335 C 312.931 4.41173 1.23007 0
M  V30 3336 N 314.422 4.44657 1.29749 0
M  V30 3337 C 315.157 5.53547 1.49577 0
M  V30 3338 N 314.653 6.72461 1.66639 0
M  V30 3339 N 316.446 5.41145 1.52048 0
M  V30 3340 H 308.597 2.07415 -0.457481 0
M  V30 3341 H 310.86 0.9372 -0.142687 0
M  V30 3342 H 310.566 3.51644 0.0629938 0
M  V30 3343 H 310.44 3.31401 1.80148 0
M  V30 3344 H 312.827 2.32235 1.82074 0
M  V30 3345 H 312.908 2.55707 0.0688331 0
M  V30 3346 H 312.552 5.06238 0.410505 0
M  V30 3347 H 312.482 4.79772 2.17086 0
M  V30 3348 H 314.973 3.58963 1.18126 0
M  V30 3349 H 315.286 7.51214 1.81378 0
M  V30 3350 H 313.631 6.75423 1.63794 0
M  V30 3351 H 316.822 4.47205 1.38294 0
M  V30 3352 H 316.995 6.26068 1.67159 0
M  V30 3353 N 310.401 -0.613514 1.45168 0
M  V30 3354 C 311.351 -1.71871 1.49815 0
M  V30 3355 C 312.335 -1.56774 0.362021 0
M  V30 3356 O 313.527 -1.66212 0.608493 0
M  V30 3357 C 310.656 -3.1061 1.46207 0
M  V30 3358 C 309.742 -3.31114 2.64999 0
M  V30 3359 N 310.133 -3.21904 3.90143 0
M  V30 3360 C 308.431 -3.61966 2.6057 0
M  V30 3361 C 309.132 -3.43577 4.69393 0
M  V30 3362 N 308.108 -3.67287 4.00751 0
M  V30 3363 H 311.91 -1.63235 2.444 0
M  V30 3364 H 309.424 -0.816577 1.40377 0
M  V30 3365 H 311.421 -3.8989 1.4762 0
M  V30 3366 H 310.081 -3.20399 0.52673 0
M  V30 3367 H 311.092 -3.00436 4.21852 0
M  V30 3368 H 307.769 -3.78629 1.75916 0
M  V30 3369 H 309.159 -3.41901 5.78406 0
M  V30 3370 N 311.879 -1.3236 -0.855495 0
M  V30 3371 C 313.29 -1.2056 -1.42556 0
M  V30 3372 C 313.641 0.182209 -1.95352 0
M  V30 3373 O 312.766 1.08088 -1.87472 0
M  V30 3374 C 313.361 -2.1826 -2.59129 0
M  V30 3375 C 311.92 -2.10351 -3.12137 0
M  V30 3376 C 311.067 -2.06674 -1.84882 0
M  V30 3377 H 314.018 -1.442 -0.662727 0
M  V30 3378 H 314.039 -1.78064 -3.36264 0
M  V30 3379 H 313.551 -3.19257 -2.20673 0
M  V30 3380 H 311.652 -1.12599 -3.55179 0
M  V30 3381 H 311.765 -3.00135 -3.73438 0
M  V30 3382 H 310.129 -1.51901 -2.04446 0
M  V30 3383 H 310.912 -3.09451 -1.48643 0
M  V30 3384 N 313.357 1.07166 -1.15556 0
M  V30 3385 C 314.305 2.16517 -0.8499 0
M  V30 3386 C 315.299 1.68468 0.177454 0
M  V30 3387 O 316.505 1.79971 0.0323026 0
M  V30 3388 H 312.88 0.706652 -0.25719 0
M  V30 3389 H 314.851 2.39514 -1.77976 0
M  V30 3390 C 313.6 3.45855 -0.357682 0
M  V30 3391 H 312.923 3.83214 -1.13961 0
M  V30 3392 H 314.363 4.23607 -0.182489 0
M  V30 3393 C 312.822 3.24062 0.921152 0
M  V30 3394 O 313.352 3.48813 1.9923 0
M  V30 3395 N 311.558 2.77539 0.86141 0
M  V30 3396 H 311.105 2.57598 -0.0104408 0
M  V30 3397 H 311.063 2.63337 1.71758 0
M  V30 3398 N 314.835 0.952656 1.25548 0
M  V30 3399 C 316.081 0.607272 1.93494 0
M  V30 3400 C 316.414 -0.853245 1.74452 0
M  V30 3401 O 315.689 -1.61194 1.08843 0
M  V30 3402 C 315.972 0.96435 3.46947 0
M  V30 3403 C 315.825 2.48045 3.75225 0
M  V30 3404 C 317.144 0.487987 4.37386 0
M  V30 3405 H 314.263 0.222096 0.702739 0
M  V30 3406 H 316.905 1.18895 1.48203 0
M  V30 3407 H 315.055 0.469361 3.85654 0
M  V30 3408 H 316.727 3.04905 3.46166 0
M  V30 3409 H 314.97 2.919 3.209 0
M  V30 3410 H 315.641 2.6808 4.82532 0
M  V30 3411 H 318.117 0.912558 4.0597 0
M  V30 3412 H 316.993 0.766547 5.43521 0
M  V30 3413 H 317.254 -0.612063 4.37843 0
M  V30 3414 N 316.313 -1.40141 0.720998 0
M  V30 3415 C 317.56 -2.00787 0.262842 0
M  V30 3416 C 317.888 -1.5718 -1.14563 0
M  V30 3417 O 317.143 -0.785391 -1.79249 0
M  V30 3418 C 317.442 -3.56165 0.296892 0
M  V30 3419 C 317.108 -4.19373 1.65641 0
M  V30 3420 C 315.77 -4.36352 2.02855 0
M  V30 3421 C 318.122 -4.54578 2.54968 0
M  V30 3422 C 315.45 -4.8582 3.28931 0
M  V30 3423 C 317.802 -5.05447 3.80402 0
M  V30 3424 C 316.466 -5.20635 4.17726 0
M  V30 3425 H 315.736 -0.734731 0.0961807 0
M  V30 3426 H 318.383 -1.67673 0.925093 0
M  V30 3427 H 316.688 -3.8922 -0.448932 0
M  V30 3428 H 318.385 -4.00929 -0.0755208 0
M  V30 3429 H 314.975 -4.06549 1.35704 0
M  V30 3430 H 319.159 -4.41091 2.27491 0
M  V30 3431 H 314.415 -4.95764 3.57811 0
M  V30 3432 H 318.589 -5.31663 4.49786 0
M  V30 3433 H 316.216 -5.58728 5.15487 0
M  V30 3434 N 317.792 -0.46758 -1.50504 0
M  V30 3435 C 319.04 0.0884469 -2.01906 0
M  V30 3436 C 319.361 1.40532 -1.35188 0
M  V30 3437 O 318.631 1.89515 -0.496079 0
M  V30 3438 H 317.211 0.0356765 -0.746148 0
M  V30 3439 H 319.873 -0.6172 -1.84869 0
M  V30 3440 H 318.969 0.2425 -3.11156 0
M  V30 3441 N 319.27 1.56325 -0.20005 0
M  V30 3442 C 320.517 1.97719 0.437411 0
M  V30 3443 C 320.845 1.08709 1.61284 0
M  V30 3444 O 320.1 0.127261 1.95286 0
M  V30 3445 C 320.399 3.4495 0.935103 0
M  V30 3446 C 320.065 4.5072 -0.12749 0
M  V30 3447 C 318.727 4.79368 -0.419451 0
M  V30 3448 C 321.079 5.14268 -0.847231 0
M  V30 3449 C 318.407 5.68854 -1.43604 0
M  V30 3450 C 320.759 6.04852 -1.85301 0
M  V30 3451 C 319.423 6.31855 -2.15211 0
M  V30 3452 H 318.693 0.723507 0.16006 0
M  V30 3453 H 321.34 1.89166 -0.298056 0
M  V30 3454 H 319.645 3.50599 1.74894 0
M  V30 3455 H 321.342 3.74337 1.43781 0
M  V30 3456 H 317.932 4.28458 0.11023 0
M  V30 3457 H 322.116 4.92222 -0.634901 0
M  V30 3458 H 317.372 5.88047 -1.67364 0
M  V30 3459 H 321.546 6.53152 -2.41591 0
M  V30 3460 H 319.173 7.00994 -2.94129 0
M  V30 3461 N 320.748 -0.0735177 1.57428 0
M  V30 3462 C 321.988 -0.778363 1.89 0
M  V30 3463 C 322.352 -1.7483 0.793634 0
M  V30 3464 O 323.553 -2.49811 0.992367 0
M  V30 3465 C 321.824 -1.46929 3.25802 0
M  V30 3466 S 323.383 -2.20943 3.79117 0
M  V30 3467 H 320.201 -0.258874 0.662197 0
M  V30 3468 H 322.803 -0.0345338 1.95469 0
M  V30 3469 H 321.507 -0.749532 4.03497 0
M  V30 3470 H 321.038 -2.25258 3.22525 0
M  V30 3471 H 323.053 -3.47435 3.54265 0
M  V30 3472 N 322.226 -1.5378 -0.344866 0
M  V30 3473 C 323.642 -1.44015 -0.687888 0
M  V30 3474 C 323.842 -0.595834 -1.92489 0
M  V30 3475 O 322.898 -0.0863064 -2.52352 0
M  V30 3476 C 324.211 -2.87481 -0.881758 0
M  V30 3477 C 325.759 -2.97247 -0.980459 0
M  V30 3478 C 326.234 -4.41819 -1.20665 0
M  V30 3479 N 327.725 -4.45339 -1.27389 0
M  V30 3480 C 328.46 -5.54333 -1.46639 0
M  V30 3481 N 327.956 -6.73335 -1.63071 0
M  V30 3482 N 329.749 -5.41944 -1.49176 0
M  V30 3483 H 321.9 -2.07169 0.468475 0
M  V30 3484 H 324.163 -0.93643 0.147655 0
M  V30 3485 H 323.869 -3.51672 -0.0443444 0
M  V30 3486 H 323.743 -3.32352 -1.78388 0
M  V30 3487 H 326.13 -2.33197 -1.8084 0
M  V30 3488 H 326.211 -2.5574 -0.0552713 0
M  V30 3489 H 325.855 -5.06449 -0.383652 0
M  V30 3490 H 325.785 -4.80917 -2.14539 0
M  V30 3491 H 328.276 -3.59585 -1.1622 0
M  V30 3492 H 328.589 -7.52165 -1.77391 0
M  V30 3493 H 326.934 -6.76282 -1.60209 0
M  V30 3494 H 330.125 -4.47932 -1.3592 0
M  V30 3495 H 330.298 -6.26946 -1.63837 0
M  V30 3496 N 323.704 0.605807 -1.45491 0
M  V30 3497 C 324.667 1.69836 -1.5391 0
M  V30 3498 C 325.667 1.55261 -0.418424 0
M  V30 3499 O 326.857 1.60296 -0.681965 0
M  V30 3500 C 323.989 3.09117 -1.43734 0
M  V30 3501 H 325.182 1.63738 -2.51257 0
M  V30 3502 H 322.735 0.821689 -1.32959 0
M  V30 3503 H 323.47 3.20791 -0.475788 0
M  V30 3504 H 323.255 3.21104 -2.25021 0
M  V30 3505 H 324.745 3.88696 -1.52661 0
M  V30 3506 N 325.182 1.32811 0.848464 0
M  V30 3507 C 326.459 1.14334 1.58704 0
M  V30 3508 C 326.839 -0.293948 2.09043 0
M  V30 3509 O 326.187 -1.29153 1.88499 0
M  V30 3510 C 326.397 2.17626 2.72837 0
M  V30 3511 C 327.745 2.51282 3.42261 0
M  V30 3512 O 328.769 2.16219 2.83068 0
M  V30 3513 O 327.628 3.11413 4.49093 0
M  V30 3514 H 324.722 0.441601 0.699226 0
M  V30 3515 H 327.268 1.44362 0.892053 0
M  V30 3516 H 326.04 3.14211 2.3321 0
M  V30 3517 H 325.663 1.88628 3.50008 0
M  V30 3518 N 326.66 -1.06551 1.16123 0
M  V30 3519 C 327.59 -2.15935 0.88851 0
M  V30 3520 C 328.571 -1.69306 -0.164135 0
M  V30 3521 O 329.756 -1.94193 -0.0167857 0
M  V30 3522 C 326.886 -3.45149 0.385942 0
M  V30 3523 C 325.84 -4.05271 1.3762 0
M  V30 3524 C 325.166 -5.29664 0.732137 0
M  V30 3525 C 326.466 -4.44355 2.74493 0
M  V30 3526 H 328.16 -2.39006 1.80323 0
M  V30 3527 H 325.706 -1.14866 0.868435 0
M  V30 3528 H 327.659 -4.21004 0.182647 0
M  V30 3529 H 326.383 -3.21689 -0.564274 0
M  V30 3530 H 325.042 -3.3147 1.56599 0
M  V30 3531 H 324.69 -5.02499 -0.224483 0
M  V30 3532 H 324.39 -5.70848 1.39307 0
M  V30 3533 H 325.914 -6.08218 0.538802 0
M  V30 3534 H 327.328 -5.11303 2.59311 0
M  V30 3535 H 325.725 -4.96515 3.37035 0
M  V30 3536 H 326.795 -3.55339 3.29943 0
M  V30 3537 N 328.138 -0.959301 -1.25041 0
M  V30 3538 C 329.385 -0.616611 -1.92884 0
M  V30 3539 C 329.713 0.847036 -1.75087 0
M  V30 3540 O 328.968 1.62374 -1.09239 0
M  V30 3541 C 329.267 -0.927136 -3.45165 0
M  V30 3542 C 328.933 -2.37757 -3.83122 0
M  V30 3543 C 327.595 -2.77402 -3.93194 0
M  V30 3544 C 329.947 -3.31929 -4.01836 0
M  V30 3545 C 327.275 -4.10277 -4.19392 0
M  V30 3546 C 329.627 -4.64423 -4.29528 0
M  V30 3547 C 328.291 -5.03857 -4.37818 0
M  V30 3548 H 327.561 -0.225634 -0.705812 0
M  V30 3549 H 330.208 -1.20921 -1.48493 0
M  V30 3550 H 328.513 -0.252195 -3.90987 0
M  V30 3551 H 330.21 -0.6405 -3.95852 0
M  V30 3552 H 326.8 -2.06013 -3.75841 0
M  V30 3553 H 330.984 -3.02488 -3.93465 0
M  V30 3554 H 326.24 -4.40467 -4.24027 0
M  V30 3555 H 330.414 -5.37369 -4.42953 0
M  V30 3556 H 328.041 -6.06843 -4.57871 0
M  V30 3557 N 329.616 1.39756 -0.72842 0
M  V30 3558 C 330.846 2.04651 -0.283117 0
M  V30 3559 C 331.254 1.5502 1.08469 0
M  V30 3560 O 330.597 0.707343 1.69536 0
M  V30 3561 C 330.659 3.58947 -0.199309 0
M  V30 3562 C 330.323 4.31525 -1.5045 0
M  V30 3563 C 331.32 4.5861 -2.44894 0
M  V30 3564 C 329.005 4.70195 -1.76698 0
M  V30 3565 C 330.999 5.23366 -3.63822 0
M  V30 3566 C 328.686 5.3468 -2.95906 0
M  V30 3567 C 329.684 5.61198 -3.89289 0
M  V30 3568 O 329.372 6.24347 -5.06404 0
M  V30 3569 H 329.104 0.664777 -0.122666 0
M  V30 3570 H 331.658 1.79913 -0.990987 0
M  V30 3571 H 329.888 3.82556 0.56461 0
M  V30 3572 H 331.577 4.0534 0.213125 0
M  V30 3573 H 332.343 4.29187 -2.25883 0
M  V30 3574 H 328.222 4.48916 -1.04859 0
M  V30 3575 H 331.766 5.4398 -4.36728 0
M  V30 3576 H 327.663 5.63524 -3.14819 0
M  V30 3577 H 328.431 6.42842 -5.06652 0
M  V30 3578 N 331.094 0.475555 1.50254 0
M  V30 3579 C 332.371 -0.139685 1.95101 0
M  V30 3580 C 332.751 -1.56555 1.41611 0
M  V30 3581 O 332.099 -2.19956 0.618993 0
M  V30 3582 C 332.309 -0.0784298 3.48912 0
M  V30 3583 C 333.657 -0.265095 4.23772 0
M  V30 3584 O 334.681 -0.154808 3.55863 0
M  V30 3585 O 333.54 -0.488327 5.44314 0
M  V30 3586 H 330.634 -0.109236 0.819754 0
M  V30 3587 H 333.18 0.536276 1.61004 0
M  V30 3588 H 331.952 0.916918 3.80405 0
M  V30 3589 H 331.575 -0.795655 3.89558 0
M  V30 3590 N 332.573 -1.56217 0.208337 0
M  V30 3591 C 333.819 -1.98242 -0.427552 0
M  V30 3592 C 334.152 -1.09554 -1.60348 0
M  V30 3593 O 333.427 -0.15035 -1.93918 0
M  V30 3594 C 333.71 -3.4931 -0.874907 0
M  V30 3595 C 333.563 -4.48773 0.303751 0
M  V30 3596 C 334.882 -4.04424 -1.73577 0
M  V30 3597 H 332.001 -0.720744 -0.153936 0
M  V30 3598 H 334.643 -1.87586 0.30192 0
M  V30 3599 H 332.793 -3.58522 -1.49648 0
M  V30 3600 H 334.465 -4.51586 0.941682 0
M  V30 3601 H 332.708 -4.23194 0.953375 0
M  V30 3602 H 333.379 -5.51976 -0.0519883 0
M  V30 3603 H 335.855 -3.98075 -1.21143 0
M  V30 3604 H 334.731 -5.1047 -2.01771 0
M  V30 3605 H 334.992 -3.50494 -2.69456 0
M  V30 3606 N 334.051 0.0651679 -1.57465 0
M  V30 3607 C 334.961 1.09448 -2.07505 0
M  V30 3608 C 335.977 1.41974 -1.00595 0
M  V30 3609 O 337.153 1.52018 -1.32107 0
M  V30 3610 C 334.218 2.38689 -2.51453 0
M  V30 3611 C 333.279 2.13073 -3.72691 0
M  V30 3612 C 332.512 3.36152 -4.14533 0
M  V30 3613 O 332.735 4.45517 -3.56189 0
M  V30 3614 O 331.669 3.23974 -5.07272 0
M  V30 3615 H 335.495 0.69935 -2.95538 0
M  V30 3616 H 333.08 0.279752 -1.46757 0
M  V30 3617 H 334.962 3.14736 -2.80212 0
M  V30 3618 H 333.637 2.77568 -1.66546 0
M  V30 3619 H 332.544 1.34709 -3.49005 0
M  V30 3620 H 333.877 1.79071 -4.5847 0
M  V30 3621 N 335.529 1.53961 0.336706 0
M  V30 3622 C 336.492 1.81724 1.39675 0
M  V30 3623 C 337.492 0.688532 1.45313 0
M  V30 3624 O 338.682 0.956829 1.45569 0
M  V30 3625 C 335.814 1.96543 2.78538 0
M  V30 3626 H 337.007 2.76424 1.16318 0
M  V30 3627 H 334.56 1.45478 0.571474 0
M  V30 3628 H 335.295 1.0401 3.07168 0
M  V30 3629 H 335.08 2.78665 2.75841 0
M  V30 3630 H 336.57 2.19516 3.5525 0
M  V30 3631 N 337.007 -0.598083 1.45811 0
M  V30 3632 C 337.937 -1.71873 1.58057 0
M  V30 3633 C 338.918 -1.64533 0.431615 0
M  V30 3634 O 340.103 -1.82787 0.65595 0
M  V30 3635 C 337.233 -3.10495 1.55597 0
M  V30 3636 C 336.187 -3.32654 2.69305 0
M  V30 3637 C 335.513 -4.71646 2.51902 0
M  V30 3638 C 336.813 -3.21981 4.11248 0
M  V30 3639 H 338.507 -1.61881 2.51863 0
M  V30 3640 H 336.053 -0.777372 1.21214 0
M  V30 3641 H 338.006 -3.88699 1.6276 0
M  V30 3642 H 336.73 -3.2135 0.583255 0
M  V30 3643 H 335.389 -2.56843 2.61586 0
M  V30 3644 H 335.037 -4.79246 1.52748 0
M  V30 3645 H 334.737 -4.87426 3.2816 0
M  V30 3646 H 336.261 -5.52038 2.60933 0
M  V30 3647 H 337.675 -3.90049 4.20161 0
M  V30 3648 H 336.072 -3.49289 4.87972 0
M  V30 3649 H 337.142 -2.1928 4.32486 0
M  V30 3650 N 338.485 -1.33259 -0.841409 0
M  V30 3651 C 339.762 -1.15174 -1.58096 0
M  V30 3652 C 340.142 0.282858 -2.09196 0
M  V30 3653 O 339.49 1.28151 -1.89181 0
M  V30 3654 C 339.7 -2.1907 -2.71679 0
M  V30 3655 C 341.048 -2.53093 -3.40924 0
M  V30 3656 O 342.072 -2.17717 -2.81918 0
M  V30 3657 O 340.931 -3.1379 -4.47435 0
M  V30 3658 H 338.025 -0.445303 -0.696875 0
M  V30 3659 H 340.571 -1.44833 -0.884385 0
M  V30 3660 H 339.343 -3.15443 -2.31541 0
M  V30 3661 H 338.966 -1.90481 -3.49002 0
M  V30 3662 N 339.963 1.05934 -1.16686 0
M  V30 3663 C 340.893 2.1546 -0.899949 0
M  V30 3664 C 341.874 1.69391 0.155154 0
M  V30 3665 O 343.059 1.94199 0.00648693 0
M  V30 3666 C 340.189 3.44939 -0.404241 0
M  V30 3667 C 339.143 4.04536 -1.39767 0
M  V30 3668 C 338.469 5.29268 -0.760216 0
M  V30 3669 C 339.769 4.42893 -2.76845 0
M  V30 3670 H 341.463 2.38046 -1.81588 0
M  V30 3671 H 339.009 1.14404 -0.874514 0
M  V30 3672 H 340.962 4.20901 -0.204971 0
M  V30 3673 H 339.686 3.21983 0.547206 0
M  V30 3674 H 338.345 3.30635 -1.58355 0
M  V30 3675 H 337.993 5.02611 0.197831 0
M  V30 3676 H 337.693 5.70101 -1.42332 0
M  V30 3677 H 339.217 6.07924 -0.57105 0
M  V30 3678 H 340.631 5.09921 -2.62019 0
M  V30 3679 H 339.028 4.94721 -3.39663 0
M  V30 3680 H 340.098 3.53584 -3.31823 0
M  V30 3681 N 341.441 0.965919 1.2453 0
M  V30 3682 C 342.351 0.502154 2.29163 0
M  V30 3683 C 343.367 -0.436017 1.68448 0
M  V30 3684 O 344.543 -0.309497 1.99008 0
M  V30 3685 C 341.608 -0.201956 3.46111 0
M  V30 3686 C 340.669 0.775821 4.22232 0
M  V30 3687 C 339.902 0.105217 5.33596 0
M  V30 3688 O 340.125 -1.10683 5.59558 0
M  V30 3689 O 339.059 0.796475 5.96607 0
M  V30 3690 H 342.885 1.37194 2.70946 0
M  V30 3691 H 340.47 0.732875 1.30189 0
M  V30 3692 H 342.352 -0.597564 4.17142 0
M  V30 3693 H 341.027 -1.04673 3.06309 0
M  V30 3694 H 339.934 1.22185 3.53584 0
M  V30 3695 H 341.267 1.58896 4.65846 0
M  V30 3696 N 342.919 -1.39368 0.735821 0
M  V30 3697 C 344.144 -2.05319 0.293052 0
M  V30 3698 C 344.569 -1.55115 -1.064 0
M  V30 3699 O 343.927 -0.695261 -1.67439 0
M  V30 3700 C 343.975 -3.59305 0.305323 0
M  V30 3701 O 343.079 -4.06299 -0.706761 0
M  V30 3702 H 342.42 -0.650529 0.13307 0
M  V30 3703 H 344.95 -1.78386 1.00197 0
M  V30 3704 H 344.96 -4.07724 0.149997 0
M  V30 3705 H 343.635 -3.95207 1.29553 0
M  V30 3706 H 342.212 -3.69292 -0.517504 0
M  V30 3707 N 344.397 -0.483516 -1.5 0
M  V30 3708 C 345.808 -0.0314176 -1.86674 0
M  V30 3709 C 346.159 1.37728 -1.39733 0
M  V30 3710 O 345.284 2.02327 -0.767635 0
M  V30 3711 C 345.879 -0.0502376 -3.38763 0
M  V30 3712 C 344.438 0.346442 -3.74802 0
M  V30 3713 C 343.585 -0.430366 -2.7394 0
M  V30 3714 H 346.536 -0.697182 -1.42566 0
M  V30 3715 H 346.557 0.749116 -3.73053 0
M  V30 3716 H 346.069 -1.07563 -3.72897 0
M  V30 3717 H 344.17 1.37572 -3.46273 0
M  V30 3718 H 344.283 0.0391486 -4.79084 0
M  V30 3719 H 342.647 0.117557 -2.54429 0
M  V30 3720 H 343.43 -1.4555 -3.10918 0
M  V30 3721 N 345.875 1.56104 -0.216619 0
M  V30 3722 C 346.822 2.2007 0.695531 0
M  V30 3723 C 347.792 1.15471 1.19397 0
M  V30 3724 O 348.977 1.43807 1.25396 0
M  V30 3725 C 346.117 2.88073 1.90021 0
M  V30 3726 C 345.23 4.07253 1.44113 0
M  V30 3727 C 344.365 4.63052 2.603 0
M  V30 3728 C 343.404 5.74545 2.11103 0
M  V30 3729 N 342.541 6.24656 3.20545 0
M  V30 3730 H 347.381 2.97655 0.143327 0
M  V30 3731 H 344.918 1.46982 0.0589934 0
M  V30 3732 H 346.876 3.25681 2.60745 0
M  V30 3733 H 345.506 2.13015 2.42538 0
M  V30 3734 H 344.558 3.75164 0.628999 0
M  V30 3735 H 345.87 4.8783 1.04036 0
M  V30 3736 H 345.024 5.03078 3.39113 0
M  V30 3737 H 343.763 3.81628 3.03663 0
M  V30 3738 H 342.768 5.34027 1.3075 0
M  V30 3739 H 343.993 6.57801 1.68746 0
M  V30 3740 H 341.939 5.46148 3.63399 0
M  V30 3741 H 341.856 7.00343 2.84704 0
M  V30 3742 H 343.124 6.69338 3.99508 0
M  V30 3743 N 347.353 -0.0568162 1.57498 0
M  V30 3744 C 348.301 -1.08452 2.05769 0
M  V30 3745 C 349.295 -1.39164 0.965903 0
M  V30 3746 O 350.501 -1.38395 1.15095 0
M  V30 3747 H 346.876 -0.367148 0.656282 0
M  V30 3748 H 348.847 -0.651368 2.91204 0
M  V30 3749 C 347.596 -2.38543 2.52968 0
M  V30 3750 H 346.919 -2.15765 3.36579 0
M  V30 3751 H 348.359 -3.08863 2.90481 0
M  V30 3752 C 346.818 -3.05562 1.41893 0
M  V30 3753 O 347.348 -3.94262 0.769442 0
M  V30 3754 N 345.554 -2.6643 1.16032 0
M  V30 3755 H 345.101 -1.94387 1.6903 0
M  V30 3756 H 345.059 -3.11593 0.419219 0
M  V30 3757 N 348.832 -1.54138 -0.328536 0
M  V30 3758 C 349.762 -1.86167 -1.40939 0
M  V30 3759 C 350.743 -0.718044 -1.54202 0
M  V30 3760 O 351.928 -0.971328 -1.68163 0
M  V30 3761 C 349.058 -2.08461 -2.77779 0
M  V30 3762 C 348.012 -3.24299 -2.7931 0
M  V30 3763 C 347.338 -3.31955 -4.19178 0
M  V30 3764 C 348.638 -4.62065 -2.43502 0
M  V30 3765 H 350.332 -2.76689 -1.14383 0
M  V30 3766 H 347.878 -1.33132 -0.548806 0
M  V30 3767 H 349.831 -2.29453 -3.53454 0
M  V30 3768 H 348.555 -1.14684 -3.05802 0
M  V30 3769 H 347.214 -3.03187 -2.0609 0
M  V30 3770 H 346.862 -2.35745 -4.44335 0
M  V30 3771 H 346.562 -4.09805 -4.2111 0
M  V30 3772 H 348.086 -3.55175 -4.96672 0
M  V30 3773 H 349.5 -4.8297 -3.08889 0
M  V30 3774 H 347.897 -5.42429 -2.56693 0
M  V30 3775 H 348.967 -4.64652 -1.38659 0
M  V30 3776 N 350.31 0.590341 -1.46126 0
M  V30 3777 C 351.556 1.35082 -1.51264 0
M  V30 3778 C 351.889 1.93534 -0.160711 0
M  V30 3779 O 351.164 1.76045 0.826956 0
M  V30 3780 C 351.447 2.48588 -2.6053 0
M  V30 3781 C 351.3 1.95221 -4.05227 0
M  V30 3782 C 352.619 3.50662 -2.6594 0
M  V30 3783 H 349.738 0.489803 -0.550692 0
M  V30 3784 H 352.38 0.663887 -1.78024 0
M  V30 3785 H 350.53 3.07186 -2.37843 0
M  V30 3786 H 352.202 1.41139 -4.39178 0
M  V30 3787 H 350.445 1.26101 -4.15068 0
M  V30 3788 H 351.116 2.77121 -4.77397 0
M  V30 3789 H 353.592 3.01934 -2.86313 0
M  V30 3790 H 352.468 4.27551 -3.44226 0
M  V30 3791 H 352.729 4.07399 -1.71694 0
M  V30 3792 N 351.788 1.33704 0.83433 0
M  V30 3793 C 353.037 1.24763 1.58484 0
M  V30 3794 C 353.35 -0.183775 1.94735 0
M  V30 3795 O 354.556 -0.395234 2.68608 0
M  V30 3796 C 353.012 2.18638 2.85876 0
M  V30 3797 C 352.62 3.66974 2.56971 0
M  V30 3798 C 354.364 2.18581 3.63899 0
M  V30 3799 C 352.271 4.5275 3.80488 0
M  V30 3800 H 351.201 0.463425 0.594772 0
M  V30 3801 H 353.852 1.58797 0.919551 0
M  V30 3802 H 352.234 1.77542 3.5397 0
M  V30 3803 H 353.408 4.16538 1.9706 0
M  V30 3804 H 351.723 3.69366 1.92244 0
M  V30 3805 H 354.32 2.79894 4.55591 0
M  V30 3806 H 354.663 1.18207 3.99165 0
M  V30 3807 H 355.196 2.58062 3.02735 0
M  V30 3808 H 351.935 5.54017 3.5035 0
M  V30 3809 H 351.455 4.07927 4.39722 0
M  V30 3810 H 353.134 4.66784 4.4802 0
M  V30 3811 N 353.266 -1.05314 1.17247 0
M  V30 3812 C 354.214 -2.15137 0.884238 0
M  V30 3813 C 355.208 -1.68729 -0.15063 0
M  V30 3814 O 356.414 -1.8 -0.00366673 0
M  V30 3815 H 352.789 -0.702471 0.2684 0
M  V30 3816 H 354.76 -2.36652 1.81764 0
M  V30 3817 C 353.509 -3.45243 0.412659 0
M  V30 3818 H 352.832 -3.81352 1.20043 0
M  V30 3819 H 354.272 -4.23263 0.249858 0
M  V30 3820 C 352.731 -3.25487 -0.86948 0
M  V30 3821 O 353.261 -3.51938 -1.93655 0
M  V30 3822 N 351.467 -2.78875 -0.817147 0
M  V30 3823 H 351.014 -2.57549 0.0514211 0
M  V30 3824 H 350.972 -2.66036 -1.67547 0
M  V30 3825 N 354.744 -0.972509 -1.24016 0
M  V30 3826 C 355.984 -0.644951 -1.93958 0
M  V30 3827 C 356.348 0.80559 -1.74282 0
M  V30 3828 O 357.549 1.2436 -2.38302 0
M  V30 3829 C 355.82 -1.01521 -3.42678 0
M  V30 3830 S 357.379 -0.802927 -4.31391 0
M  V30 3831 H 354.197 -0.236452 -0.670531 0
M  V30 3832 H 356.799 -1.25048 -1.50277 0
M  V30 3833 H 355.503 -2.06769 -3.54506 0
M  V30 3834 H 355.034 -0.400648 -3.91355 0
M  V30 3835 H 357.049 0.317256 -4.95185 0
M  V30 3836 N 356.222 1.38976 -0.743202 0
M  V30 3837 C 357.132 2.3434 -0.110399 0
M  V30 3838 C 358.148 1.58741 0.712559 0
M  V30 3839 O 359.324 1.9099 0.639125 0
M  V30 3840 C 356.389 3.37812 0.780012 0
M  V30 3841 C 355.45 4.29263 -0.0561319 0
M  V30 3842 C 354.683 5.27793 0.791875 0
M  V30 3843 O 354.906 5.33043 2.03031 0
M  V30 3844 O 353.84 6.01512 0.216183 0
M  V30 3845 H 357.666 2.90129 -0.897714 0
M  V30 3846 H 355.251 1.40643 -0.503966 0
M  V30 3847 H 357.133 4.01194 1.28923 0
M  V30 3848 H 355.808 2.84395 1.546 0
M  V30 3849 H 354.715 3.69076 -0.611056 0
M  V30 3850 H 356.048 4.85907 -0.784531 0
M  V30 3851 N 357.7 0.491464 1.49741 0
M  V30 3852 C 358.946 -0.0565092 2.02721 0
M  V30 3853 C 359.279 -1.37522 1.37118 0
M  V30 3854 O 358.554 -1.87866 0.503645 0
M  V30 3855 C 358.837 -0.219051 3.59433 0
M  V30 3856 C 358.69 1.12211 4.35579 0
M  V30 3857 C 360.009 -0.964157 4.29409 0
M  V30 3858 H 357.128 -0.0190627 0.736753 0
M  V30 3859 H 359.77 0.641021 1.7886 0
M  V30 3860 H 357.92 -0.813165 3.79895 0
M  V30 3861 H 359.592 1.75437 4.26637 0
M  V30 3862 H 357.835 1.71377 3.98513 0
M  V30 3863 H 358.506 0.961794 5.43556 0
M  V30 3864 H 360.982 -0.460378 4.13545 0
M  V30 3865 H 359.858 -1.04671 5.38828 0
M  V30 3866 H 360.119 -2.00563 3.93988 0
M  V30 3867 N 359.178 -1.55987 0.224894 0
M  V30 3868 C 360.425 -1.9839 -0.4059 0
M  V30 3869 C 360.753 -1.11261 -1.59535 0
M  V30 3870 O 360.008 -0.158314 -1.95059 0
M  V30 3871 C 360.307 -3.46394 -0.880106 0
M  V30 3872 C 359.973 -4.5046 0.19918 0
M  V30 3873 C 358.635 -4.7864 0.495661 0
M  V30 3874 C 360.987 -5.12855 0.928939 0
M  V30 3875 C 358.315 -5.66497 1.52636 0
M  V30 3876 C 360.667 -6.01828 1.949 0
M  V30 3877 C 359.331 -6.28351 2.25236 0
M  V30 3878 H 358.601 -0.725961 -0.148529 0
M  V30 3879 H 361.248 -1.88668 0.328113 0
M  V30 3880 H 359.553 -3.53337 -1.69294 0
M  V30 3881 H 361.25 -3.76577 -1.37808 0
M  V30 3882 H 357.84 -4.28579 -0.0420526 0
M  V30 3883 H 362.024 -4.9115 0.713129 0
M  V30 3884 H 357.28 -5.8531 1.76698 0
M  V30 3885 H 361.454 -6.49225 2.51951 0
M  V30 3886 H 359.081 -6.96226 3.05244 0
M  V30 3887 N 360.656 0.0484629 -1.57525 0
M  V30 3888 C 361.933 0.777447 -1.79486 0
M  V30 3889 C 362.313 1.94597 -0.818251 0
M  V30 3890 O 361.661 2.28047 0.143767 0
M  V30 3891 C 361.871 1.22864 -3.26658 0
M  V30 3892 C 363.219 1.65251 -3.91123 0
M  V30 3893 O 364.243 1.32372 -3.3069 0
M  V30 3894 O 363.102 2.26207 -4.97486 0
M  V30 3895 H 360.196 0.374357 -0.737419 0
M  V30 3896 H 362.742 0.0267359 -1.69679 0
M  V30 3897 H 361.514 0.393589 -3.89316 0
M  V30 3898 H 361.137 2.03996 -3.41279 0
M  V30 3899 N 362.134 1.5431 0.320358 0
M  V30 3900 C 363.545 1.63872 0.894594 0
M  V30 3901 C 363.896 0.534847 1.88769 0
M  V30 3902 O 363.021 -0.331732 2.13842 0
M  V30 3903 C 363.616 2.97049 1.62934 0
M  V30 3904 C 362.175 3.08796 2.15226 0
M  V30 3905 C 361.322 2.59456 0.978671 0
M  V30 3906 H 364.273 1.58398 0.0978544 0
M  V30 3907 H 364.294 2.87388 2.49376 0
M  V30 3908 H 363.806 3.7737 0.906302 0
M  V30 3909 H 361.907 2.33156 2.90636 0
M  V30 3910 H 362.02 4.14649 2.40006 0
M  V30 3911 H 360.384 2.1543 1.35875 0
M  V30 3912 H 361.167 3.42237 0.269895 0
M  V30 3913 N 363.613 -0.582584 1.46437 0
M  V30 3914 C 364.545 -1.70618 1.53043 0
M  V30 3915 C 365.558 -1.57322 0.418769 0
M  V30 3916 O 366.747 -1.64744 0.687136 0
M  V30 3917 C 363.847 -3.08869 1.39474 0
M  V30 3918 C 363.02 -3.48166 2.64762 0
M  V30 3919 C 362.079 -4.65478 2.4539 0
M  V30 3920 O 361.105 -4.71333 3.19114 0
M  V30 3921 N 362.307 -5.60365 1.51564 0
M  V30 3922 H 365.072 -1.65405 2.49923 0
M  V30 3923 H 362.633 -0.768567 1.42494 0
M  V30 3924 H 364.625 -3.85143 1.24287 0
M  V30 3925 H 363.195 -3.08449 0.507758 0
M  V30 3926 H 362.415 -2.61598 2.9489 0
M  V30 3927 H 363.703 -3.71188 3.4799 0
M  V30 3928 H 363.101 -5.5837 0.907705 0
M  V30 3929 H 361.658 -6.36068 1.4234 0
M  V30 3930 N 365.091 -1.34144 -0.827227 0
M  V30 3931 C 366.001 -1.27428 -1.96975 0
M  V30 3932 C 367.017 -0.182728 -1.73038 0
M  V30 3933 O 368.193 -0.408426 -1.97215 0
M  V30 3934 C 365.258 -1.02526 -3.31194 0
M  V30 3935 C 364.319 -2.20796 -3.68168 0
M  V30 3936 C 363.552 -1.97073 -4.95982 0
M  V30 3937 O 363.775 -0.926822 -5.6282 0
M  V30 3938 O 362.709 -2.83912 -5.30733 0
M  V30 3939 H 366.535 -2.23537 -2.05584 0
M  V30 3940 H 364.12 -1.14307 -0.961989 0
M  V30 3941 H 366.002 -0.904026 -4.11589 0
M  V30 3942 H 364.677 -0.0945389 -3.23562 0
M  V30 3943 H 363.584 -2.38477 -2.88235 0
M  V30 3944 H 364.917 -3.12243 -3.8048 0
M  V30 3945 N 366.569 1.04691 -1.17803 0
M  V30 3946 C 367.519 2.10856 -0.867391 0
M  V30 3947 C 368.503 1.601 0.160206 0
M  V30 3948 O 369.695 1.76948 -0.042947 0
M  V30 3949 C 366.824 3.411 -0.388012 0
M  V30 3950 C 365.91 3.9864 -1.44732 0
M  V30 3951 N 366.301 4.30075 -2.66212 0
M  V30 3952 C 364.599 4.26439 -1.30637 0
M  V30 3953 C 365.3 4.76033 -3.34317 0
M  V30 3954 N 364.276 4.76462 -2.61696 0
M  V30 3955 H 368.078 2.33029 -1.79094 0
M  V30 3956 H 365.592 1.22386 -1.0675 0
M  V30 3957 H 367.589 4.16641 -0.146994 0
M  V30 3958 H 366.249 3.20357 0.529271 0
M  V30 3959 H 367.26 4.19917 -3.03134 0
M  V30 3960 H 363.937 4.15056 -0.451129 0
M  V30 3961 H 365.327 5.09427 -4.38103 0
M  V30 3962 N 368.047 0.979072 1.23499 0
M  V30 3963 C 368.957 0.526431 2.28617 0
M  V30 3964 C 369.973 -0.418126 1.68901 0
M  V30 3965 O 371.149 -0.288372 1.99325 0
M  V30 3966 C 368.214 -0.165235 3.46306 0
M  V30 3967 C 367.275 0.82056 4.21385 0
M  V30 3968 C 366.508 0.161807 5.33455 0
M  V30 3969 O 366.731 -1.04742 5.60701 0
M  V30 3970 O 365.665 0.859708 5.95729 0
M  V30 3971 H 369.491 1.4006 2.69475 0
M  V30 3972 H 367.076 0.746643 1.29405 0
M  V30 3973 H 368.958 -0.553287 4.17752 0
M  V30 3974 H 367.633 -1.01419 3.07402 0
M  V30 3975 H 366.54 1.25929 3.52268 0
M  V30 3976 H 367.873 1.63828 4.64135 0
M  V30 3977 N 369.525 -1.3858 0.750561 0
M  V30 3978 C 370.473 -2.32339 0.110162 0
M  V30 3979 C 371.467 -1.53864 -0.708674 0
M  V30 3980 O 372.673 -1.69417 -0.608112 0
M  V30 3981 H 369.048 -0.751812 0.0168275 0
M  V30 3982 H 371.019 -2.83959 0.917053 0
M  V30 3983 C 369.768 -3.39043 -0.771067 0
M  V30 3984 H 369.091 -3.99517 -0.150374 0
M  V30 3985 H 370.531 -4.07061 -1.1865 0
M  V30 3986 C 368.99 -2.77365 -1.91234 0
M  V30 3987 O 369.52 -2.66434 -3.00626 0
M  V30 3988 N 367.726 -2.35219 -1.70646 0
M  V30 3989 H 367.273 -2.4431 -0.81673 0
M  V30 3990 H 367.231 -1.94294 -2.47178 0
M  V30 3991 N 371.003 -0.499398 -1.49478 0
M  V30 3992 C 372.252 0.0475259 -2.01644 0
M  V30 3993 C 372.565 1.38195 -1.38425 0
M  V30 3994 O 373.771 2.01547 -1.8191 0
M  V30 3995 C 372.227 0.135164 -3.59646 0
M  V30 3996 C 371.835 -1.19252 -4.31837 0
M  V30 3997 C 373.579 0.632538 -4.19761 0
M  V30 3998 C 371.486 -1.06713 -5.81693 0
M  V30 3999 H 370.416 0.0215349 -0.753692 0
M  V30 4000 H 373.067 -0.638577 -1.7203 0
M  V30 4001 H 371.449 0.885681 -3.85969 0
M  V30 4002 H 372.623 -1.9562 -4.17216 0
M  V30 4003 H 370.938 -1.62321 -3.83459 0
M  V30 4004 H 373.535 0.743833 -5.29501 0
M  V30 4005 H 373.878 1.63098 -3.83021 0
M  V30 4006 H 374.411 -0.0613987 -3.97753 0
M  V30 4007 H 371.15 -2.03979 -6.22955 0
M  V30 4008 H 370.67 -0.344307 -5.98811 0
M  V30 4009 H 372.349 -0.745208 -6.42694 0
M  V30 4010 N 372.481 1.55866 -0.233164 0
M  V30 4011 C 373.429 2.22176 0.68851 0
M  V30 4012 C 374.423 1.20487 1.19076 0
M  V30 4013 O 375.629 1.38536 1.14925 0
M  V30 4014 H 372.004 0.712511 0.240483 0
M  V30 4015 H 373.975 2.98212 0.105935 0
M  V30 4016 C 372.724 2.92446 1.88071 0
M  V30 4017 H 372.047 3.70458 1.50337 0
M  V30 4018 H 373.487 3.42226 2.50314 0
M  V30 4019 C 371.946 1.95555 2.74335 0
M  V30 4020 O 372.476 1.47986 3.73447 0
M  V30 4021 N 370.682 1.62953 2.40613 0
M  V30 4022 H 370.229 2.01831 1.60069 0
M  V30 4023 H 370.187 0.983886 2.98609 0
M  V30 4024 N 373.959 -0.0401083 1.57549 0
M  V30 4025 C 375.207 -0.731677 1.8839 0
M  V30 4026 C 375.528 -1.76481 0.829425 0
M  V30 4027 O 374.798 -1.95411 -0.1383 0
M  V30 4028 H 373.378 -0.273225 0.695239 0
M  V30 4029 H 376.04 -0.00867725 1.94898 0
M  V30 4030 H 375.136 -1.22816 2.86919 0
M  V30 4031 N 375.437 -1.54477 -0.31217 0
M  V30 4032 C 376.683 -1.73483 -1.0503 0
M  V30 4033 C 377.016 -0.513125 -1.87298 0
M  V30 4034 O 376.291 0.489864 -1.8823 0
M  V30 4035 C 376.574 -3.01723 -1.96558 0
M  V30 4036 C 376.427 -4.3417 -1.17545 0
M  V30 4037 C 377.746 -3.25772 -2.95907 0
M  V30 4038 H 374.865 -0.631222 -0.380432 0
M  V30 4039 H 377.507 -1.87184 -0.325932 0
M  V30 4040 H 375.657 -2.90174 -2.58324 0
M  V30 4041 H 377.329 -4.5762 -0.581513 0
M  V30 4042 H 375.572 -4.31159 -0.477925 0
M  V30 4043 H 376.243 -5.20143 -1.84811 0
M  V30 4044 H 378.719 -3.36857 -2.44267 0
M  V30 4045 H 377.595 -4.16838 -3.57123 0
M  V30 4046 H 377.856 -2.43537 -3.68974 0
M  V30 4047 N 376.915 0.57481 -1.46744 0
M  V30 4048 C 378.326 1.15695 -1.46532 0
M  V30 4049 C 378.677 1.95068 -0.210425 0
M  V30 4050 O 377.802 2.05241 0.685944 0
M  V30 4051 C 378.397 2.1048 -2.65487 0
M  V30 4052 C 376.956 2.64002 -2.68291 0
M  V30 4053 C 376.103 1.40026 -2.39349 0
M  V30 4054 H 379.054 0.362325 -1.54509 0
M  V30 4055 H 379.075 2.94074 -2.41455 0
M  V30 4056 H 378.587 1.52683 -3.56805 0
M  V30 4057 H 376.688 3.25646 -1.81067 0
M  V30 4058 H 376.801 3.06197 -3.68483 0
M  V30 4059 H 375.165 1.70106 -1.89568 0
M  V30 4060 H 375.948 0.840485 -3.32852 0
M  V30 4061 N 378.394 1.34581 0.820102 0
M  V30 4062 C 379.805 1.24298 1.39309 0
M  V30 4063 C 380.156 -0.130351 1.95767 0
M  V30 4064 O 379.281 -1.0308 1.90272 0
M  V30 4065 C 379.876 2.25054 2.53251 0
M  V30 4066 C 378.435 2.18552 3.0645 0
M  V30 4067 C 377.582 2.11503 1.79337 0
M  V30 4068 H 380.533 1.45906 0.624262 0
M  V30 4069 H 380.554 1.86917 3.31425 0
M  V30 4070 H 380.066 3.24996 2.1213 0
M  V30 4071 H 378.167 1.21976 3.52069 0
M  V30 4072 H 378.28 3.0993 3.65349 0
M  V30 4073 H 376.644 1.57268 2.00347 0
M  V30 4074 H 377.427 3.13284 1.40386 0
M  V30 4075 N 379.872 -1.04064 1.18357 0
M  V30 4076 C 380.822 -2.10393 0.878561 0
M  V30 4077 C 381.806 -1.60183 -0.151713 0
M  V30 4078 O 382.998 -1.76923 0.0523303 0
M  V30 4079 C 380.127 -3.4089 0.406096 0
M  V30 4080 C 379.213 -3.97866 1.46844 0
M  V30 4081 N 379.604 -4.28657 2.68489 0
M  V30 4082 C 377.902 -4.2574 1.32896 0
M  V30 4083 C 378.603 -4.74253 3.36836 0
M  V30 4084 N 377.579 -4.75068 2.64219 0
M  V30 4085 H 381.381 -2.32076 1.80327 0
M  V30 4086 H 378.895 -1.21818 1.07397 0
M  V30 4087 H 380.892 -4.16557 0.169088 0
M  V30 4088 H 379.552 -3.20633 -0.512275 0
M  V30 4089 H 380.563 -4.18304 3.05356 0
M  V30 4090 H 377.24 -4.1481 0.473134 0
M  V30 4091 H 378.63 -5.07096 4.40798 0
M  V30 4092 N 381.35 -0.985608 -1.22978 0
M  V30 4093 C 382.28 -0.549649 -2.26939 0
M  V30 4094 C 383.261 0.419803 -1.64838 0
M  V30 4095 O 384.446 0.31203 -1.91677 0
M  V30 4096 C 381.576 0.143652 -3.47003 0
M  V30 4097 C 380.53 -0.743606 -4.21491 0
M  V30 4098 C 379.856 0.0822027 -5.34637 0
M  V30 4099 C 381.156 -2.03694 -4.80943 0
M  V30 4100 H 382.85 -1.41862 -2.63658 0
M  V30 4101 H 380.396 -0.683571 -1.26741 0
M  V30 4102 H 382.349 0.459985 -4.18882 0
M  V30 4103 H 381.073 1.04711 -3.09359 0
M  V30 4104 H 379.732 -1.04347 -3.51436 0
M  V30 4105 H 379.38 0.986359 -4.93234 0
M  V30 4106 H 379.08 -0.508377 -5.85397 0
M  V30 4107 H 380.604 0.392797 -6.09335 0
M  V30 4108 H 382.018 -1.78504 -5.44802 0
M  V30 4109 H 380.415 -2.57573 -5.42011 0
M  V30 4110 H 381.485 -2.72042 -4.01399 0
M  V30 4111 N 382.828 1.3818 -0.7579 0
M  V30 4112 C 384.076 1.99624 -0.315361 0
M  V30 4113 C 384.397 1.60464 1.10799 0
M  V30 4114 O 383.667 0.863507 1.75842 0
M  V30 4115 H 382.247 0.73831 -0.113611 0
M  V30 4116 H 384.909 1.68878 -0.972952 0
M  V30 4117 H 384.005 3.09754 -0.381931 0
M  V30 4118 N 384.306 0.507319 1.49211 0
M  V30 4119 C 385.256 -0.287112 2.26185 0
M  V30 4120 C 386.24 -0.929983 1.31302 0
M  V30 4121 O 387.432 -0.836538 1.55984 0
M  V30 4122 C 384.561 -1.34718 3.15763 0
M  V30 4123 C 383.647 -0.710235 4.18111 0
M  V30 4124 N 384.038 0.190836 5.0544 0
M  V30 4125 C 382.336 -0.97009 4.35322 0
M  V30 4126 C 383.037 0.55606 5.79036 0
M  V30 4127 N 382.013 -0.0775232 5.43545 0
M  V30 4128 H 385.815 0.406445 2.91076 0
M  V30 4129 H 383.329 0.323814 1.59139 0
M  V30 4130 H 385.326 -1.92982 3.69545 0
M  V30 4131 H 383.986 -2.04235 2.52424 0
M  V30 4132 H 384.997 0.562047 5.14841 0
M  V30 4133 H 381.674 -1.65753 3.83187 0
M  V30 4134 H 383.064 1.2936 6.5933 0
M  V30 4135 N 385.784 -1.5574 0.241426 0
M  V30 4136 C 387.195 -1.84842 -0.262755 0
M  V30 4137 C 387.546 -1.16317 -1.58003 0
M  V30 4138 O 386.671 -0.439653 -2.11887 0
M  V30 4139 C 387.266 -3.35332 -0.483523 0
M  V30 4140 C 385.825 -3.6468 -0.931977 0
M  V30 4141 C 384.972 -2.77299 -0.0061151 0
M  V30 4142 H 387.923 -1.51761 0.464129 0
M  V30 4143 H 387.944 -3.56615 -1.32688 0
M  V30 4144 H 387.456 -3.85178 0.47537 0
M  V30 4145 H 385.557 -3.20307 -1.90353 0
M  V30 4146 H 385.67 -4.72498 -0.792628 0
M  V30 4147 H 384.034 -2.49408 -0.516503 0
M  V30 4148 H 384.817 -3.2995 0.948052 0
M  V30 4149 N 387.262 0.0317525 -1.57568 0
M  V30 4150 C 388.509 0.723104 -1.89149 0
M  V30 4151 C 388.837 1.75504 -0.838377 0
M  V30 4152 O 388.092 1.95037 0.160982 0
M  V30 4153 C 388.391 1.43167 -3.27472 0
M  V30 4154 C 388.057 0.535972 -4.47703 0
M  V30 4155 C 386.719 0.289262 -4.8033 0
M  V30 4156 C 389.071 -0.0826125 -5.21135 0
M  V30 4157 C 386.399 -0.584853 -5.83778 0
M  V30 4158 C 388.751 -0.944414 -6.25511 0
M  V30 4159 C 387.415 -1.20061 -6.56614 0
M  V30 4160 H 386.685 0.264602 -0.692146 0
M  V30 4161 H 389.332 -0.0169496 -1.91492 0
M  V30 4162 H 387.637 2.24497 -3.21105 0
M  V30 4163 H 389.334 1.97209 -3.49155 0
M  V30 4164 H 385.924 0.738414 -4.22191 0
M  V30 4165 H 390.108 0.0950302 -4.96209 0
M  V30 4166 H 385.364 -0.79168 -6.06253 0
M  V30 4167 H 389.538 -1.43026 -6.81554 0
M  V30 4168 H 387.165 -1.87967 -7.36595 0
M  V30 4169 N 388.74 1.54641 0.303973 0
M  V30 4170 C 389.69 1.8177 1.37636 0
M  V30 4171 C 390.674 0.674697 1.46071 0
M  V30 4172 O 391.866 0.935251 1.50273 0
M  V30 4173 C 388.995 2.06584 2.74186 0
M  V30 4174 C 388.081 3.2706 2.69986 0
M  V30 4175 N 388.472 4.47682 2.35402 0
M  V30 4176 C 386.77 3.29028 3.01092 0
M  V30 4177 C 387.471 5.29689 2.40426 0
M  V30 4178 N 386.447 4.67339 2.7766 0
M  V30 4179 H 390.249 2.72596 1.09857 0
M  V30 4180 H 387.763 1.541 0.51254 0
M  V30 4181 H 389.76 2.24166 3.51504 0
M  V30 4182 H 388.42 1.17024 3.02879 0
M  V30 4183 H 389.431 4.74336 2.07908 0
M  V30 4184 H 386.108 2.49565 3.34699 0
M  V30 4185 H 387.498 6.3606 2.16512 0
M  V30 4186 N 390.218 -0.567019 1.47046 0
M  V30 4187 C 391.464 -1.32434 1.54379 0
M  V30 4188 C 391.819 -1.91365 0.199276 0
M  V30 4189 O 391.112 -1.74378 -0.793915 0
M  V30 4190 C 391.306 -2.4623 2.59047 0
M  V30 4191 C 391.135 -1.98448 4.03545 0
M  V30 4192 C 389.905 -1.82741 4.71098 0
M  V30 4193 C 392.103 -1.53477 4.90866 0
M  V30 4194 N 390.085 -1.29196 6.00151 0
M  V30 4195 C 391.456 -1.1163 6.09868 0
M  V30 4196 C 393.511 -1.41438 4.77388 0
M  V30 4197 C 392.214 -0.589425 7.16881 0
M  V30 4198 C 394.24 -0.901528 5.84488 0
M  V30 4199 C 393.602 -0.492932 7.02673 0
M  V30 4200 H 389.701 -0.477005 0.61967 0
M  V30 4201 H 392.285 -0.643856 1.83746 0
M  V30 4202 H 390.456 -3.11821 2.31564 0
M  V30 4203 H 392.188 -3.13213 2.56281 0
M  V30 4204 H 388.943 -2.05162 4.26855 0
M  V30 4205 H 389.367 -1.0454 6.6888 0
M  V30 4206 H 394.009 -1.71643 3.86392 0
M  V30 4207 H 391.727 -0.274994 8.07632 0
M  V30 4208 H 395.313 -0.812071 5.76105 0
M  V30 4209 H 394.193 -0.102227 7.84133 0
M  V30 4210 N 391.696 -1.35014 -0.812953 0
M  V30 4211 C 392.944 -1.27678 -1.56661 0
M  V30 4212 C 393.265 0.150359 -1.94419 0
M  V30 4213 O 392.535 1.08532 -1.63088 0
M  V30 4214 H 391.115 -0.469602 -0.580933 0
M  V30 4215 H 393.777 -1.69043 -0.970076 0
M  V30 4216 H 392.873 -1.88833 -2.48492 0
M  V30 4217 N 393.175 1.03435 -1.18907 0
M  V30 4218 C 394.423 1.76394 -0.986382 0
M  V30 4219 C 394.744 1.88883 0.484567 0
M  V30 4220 O 394.014 1.41843 1.3512 0
M  V30 4221 H 392.594 0.65344 -0.361975 0
M  V30 4222 H 395.256 1.248 -1.49703 0
M  V30 4223 H 394.352 2.77424 -1.42978 0
M  V30 4224 N 394.653 0.992116 1.22453 0
M  V30 4225 C 395.603 0.512969 2.22155 0
M  V30 4226 C 396.587 -0.418416 1.55364 0
M  V30 4227 O 397.779 -0.245363 1.75291 0
M  V30 4228 C 394.908 -0.171822 3.4287 0
M  V30 4229 C 393.994 0.779822 4.16869 0
M  V30 4230 N 394.385 1.92734 4.6764 0
M  V30 4231 C 392.683 0.59554 4.42006 0
M  V30 4232 C 393.384 2.52458 5.24061 0
M  V30 4233 N 392.36 1.80735 5.12675 0
M  V30 4234 H 396.162 1.38817 2.5905 0
M  V30 4235 H 393.676 0.854277 1.38115 0
M  V30 4236 H 395.673 -0.532469 4.13486 0
M  V30 4237 H 394.333 -1.04317 3.07487 0
M  V30 4238 H 395.344 2.30816 4.63621 0
M  V30 4239 H 392.021 -0.229805 4.16867 0
M  V30 4240 H 393.411 3.49433 5.73887 0
M  V30 4241 N 396.131 -1.37776 0.765217 0
M  V30 4242 C 397.041 -2.34135 0.147666 0
M  V30 4243 C 398.057 -1.59854 -0.687215 0
M  V30 4244 O 399.233 -1.91983 -0.608659 0
M  V30 4245 C 396.298 -3.3901 -0.72617 0
M  V30 4246 C 395.359 -4.2912 0.124417 0
M  V30 4247 C 394.592 -5.28986 -0.707807 0
M  V30 4248 O 394.815 -5.36205 -1.94525 0
M  V30 4249 O 393.749 -6.01779 -0.12046 0
M  V30 4250 H 397.575 -2.88664 0.943758 0
M  V30 4251 H 395.16 -1.39824 0.526277 0
M  V30 4252 H 397.042 -4.03195 -1.22524 0
M  V30 4253 H 395.717 -2.86819 -1.50056 0
M  V30 4254 H 394.624 -3.68057 0.669696 0
M  V30 4255 H 395.957 -4.84598 0.861736 0
M  V30 4256 N 397.609 -0.515225 -1.4894 0
M  V30 4257 C 399.025 -0.172099 -1.58669 0
M  V30 4258 C 399.225 1.32405 -1.51892 0
M  V30 4259 O 398.281 2.10116 -1.40027 0
M  V30 4260 C 399.594 -0.761533 -2.90897 0
M  V30 4261 C 401.142 -0.728926 -3.04394 0
M  V30 4262 C 401.617 -1.29667 -4.39261 0
M  V30 4263 N 403.108 -1.25799 -4.4579 0
M  V30 4264 C 403.843 -1.66733 -5.48623 0
M  V30 4265 N 403.339 -2.15327 -6.58488 0
M  V30 4266 N 405.132 -1.58061 -5.39419 0
M  V30 4267 H 397.283 -1.48778 -1.51588 0
M  V30 4268 H 399.546 -0.617968 -0.718901 0
M  V30 4269 H 399.252 -1.81136 -3.01468 0
M  V30 4270 H 399.126 -0.230106 -3.76497 0
M  V30 4271 H 401.513 0.312098 -2.93445 0
M  V30 4272 H 401.594 -1.29766 -2.20442 0
M  V30 4273 H 401.238 -2.33655 -4.50963 0
M  V30 4274 H 401.168 -0.703752 -5.21876 0
M  V30 4275 H 403.659 -0.902102 -3.66975 0
M  V30 4276 H 403.972 -2.44594 -7.33071 0
M  V30 4277 H 402.317 -2.19311 -6.59491 0
M  V30 4278 H 405.508 -1.19906 -4.52482 0
M  V30 4279 H 405.681 -1.90284 -6.19432 0
M  V30 4280 N 399.087 1.5561 -0.249682 0
M  V30 4281 C 400.312 2.03865 0.381305 0
M  V30 4282 C 400.737 1.12769 1.50548 0
M  V30 4283 O 400.095 0.121189 1.80895 0
M  V30 4284 C 400.143 3.50101 0.863816 0
M  V30 4285 O 399.247 3.62132 1.97318 0
M  V30 4286 H 398.588 0.658827 0.0827194 0
M  V30 4287 H 401.118 2.01105 -0.376552 0
M  V30 4288 H 401.128 3.90975 1.1663 0
M  V30 4289 H 399.803 4.1588 0.0411816 0
M  V30 4290 H 398.38 3.33155 1.67517 0
M  V30 4291 N 400.565 -0.0233959 1.57583 0
M  V30 4292 C 401.79 -0.728376 1.94189 0
M  V30 4293 C 402.215 -1.67793 0.850119 0
M  V30 4294 O 401.573 -1.80262 -0.19371 0
M  V30 4295 C 401.621 -1.45669 3.29868 0
M  V30 4296 O 400.725 -2.57013 3.22518 0
M  V30 4297 H 400.066 -0.195493 0.63457 0
M  V30 4298 H 402.596 0.0228214 2.04587 0
M  V30 4299 H 402.606 -1.82535 3.6489 0
M  V30 4300 H 401.281 -0.760314 4.08891 0
M  V30 4301 H 399.858 -2.22648 2.99136 0
M  V30 4302 N 402.043 -1.548 -0.295768 0
M  V30 4303 C 403.271 -1.78327 -1.04914 0
M  V30 4304 C 403.686 -0.545316 -1.80753 0
M  V30 4305 O 403.043 0.485013 -1.75937 0
M  V30 4306 C 403.094 -2.99418 -2.02561 0
M  V30 4307 O 402.815 -4.18431 -1.29798 0
M  V30 4308 C 404.316 -3.35375 -2.89895 0
M  V30 4309 H 401.536 -0.594618 -0.310918 0
M  V30 4310 H 404.08 -2.01763 -0.333454 0
M  V30 4311 H 402.235 -2.78175 -2.69624 0
M  V30 4312 H 402.649 -4.86736 -1.95419 0
M  V30 4313 H 404.123 -4.23332 -3.54251 0
M  V30 4314 H 404.6 -2.53761 -3.58472 0
M  V30 4315 H 405.206 -3.58796 -2.28355 0
M  V30 4316 N 403.521 0.559213 -1.47345 0
M  V30 4317 C 404.749 1.34194 -1.57479 0
M  V30 4318 C 405.164 1.87463 -0.224261 0
M  V30 4319 O 404.521 1.64888 0.782185 0
M  V30 4320 C 404.572 2.51324 -2.59843 0
M  V30 4321 O 404.293 2.00256 -3.89653 0
M  V30 4322 C 405.794 3.43563 -2.80142 0
M  V30 4323 H 403.014 0.409136 -0.531835 0
M  V30 4324 H 405.558 0.677609 -1.92947 0
M  V30 4325 H 403.713 3.13699 -2.27314 0
M  V30 4326 H 404.127 2.76708 -4.4557 0
M  V30 4327 H 405.601 4.2217 -3.55635 0
M  V30 4328 H 406.078 3.9698 -1.87892 0
M  V30 4329 H 406.684 2.87005 -3.1386 0
M  V30 4330 N 404.999 1.35443 0.805782 0
M  V30 4331 C 405.946 1.28431 1.91766 0
M  V30 4332 C 406.916 0.156102 1.65365 0
M  V30 4333 O 408.101 0.339936 1.87747 0
M  V30 4334 C 405.241 1.06301 3.2832 0
M  V30 4335 C 404.354 2.2805 3.66902 0
M  V30 4336 C 403.489 1.99064 4.92491 0
M  V30 4337 C 402.528 3.16863 5.23703 0
M  V30 4338 N 401.665 2.87647 6.40471 0
M  V30 4339 H 406.505 2.23511 1.97096 0
M  V30 4340 H 404.042 1.11105 0.964054 0
M  V30 4341 H 406 0.915012 4.07042 0
M  V30 4342 H 404.63 0.148822 3.22457 0
M  V30 4343 H 403.682 2.53711 2.83434 0
M  V30 4344 H 404.994 3.1601 3.85927 0
M  V30 4345 H 404.148 1.81099 5.7904 0
M  V30 4346 H 402.887 1.0839 4.75503 0
M  V30 4347 H 401.892 3.35404 4.35642 0
M  V30 4348 H 403.117 4.08339 5.4262 0
M  V30 4349 H 401.063 1.99568 6.24907 0
M  V30 4350 H 400.98 3.69141 6.59751 0
M  V30 4351 H 402.248 2.73226 7.30047 0
M  V30 4352 N 406.477 -1.02803 1.19454 0
M  V30 4353 C 407.888 -1.57667 0.999899 0
M  V30 4354 C 408.239 -1.91041 -0.446956 0
M  V30 4355 O 407.364 -1.70978 -1.32648 0
M  V30 4356 C 407.959 -2.86477 1.80877 0
M  V30 4357 C 406.518 -3.37911 1.65811 0
M  V30 4358 C 405.665 -2.11343 1.79526 0
M  V30 4359 H 408.616 -0.853214 1.33813 0
M  V30 4360 H 408.637 -3.57408 1.30536 0
M  V30 4361 H 408.149 -2.62155 2.86175 0
M  V30 4362 H 406.25 -3.67218 0.63102 0
M  V30 4363 H 406.363 -4.10885 2.46395 0
M  V30 4364 H 404.727 -2.23254 1.22596 0
M  V30 4365 H 405.51 -1.89461 2.86285 0
M  V30 4366 N 407.956 -0.998596 -1.21925 0
M  V30 4367 C 409.367 -0.711939 -1.72593 0
M  V30 4368 C 409.718 0.770842 -1.80423 0
M  V30 4369 O 408.843 1.60237 -1.4544 0
M  V30 4370 C 409.438 -1.28567 -3.13458 0
M  V30 4371 C 407.997 -1.04828 -3.61508 0
M  V30 4372 C 407.144 -1.4024 -2.39224 0
M  V30 4373 H 410.095 -1.17027 -1.07193 0
M  V30 4374 H 410.116 -0.667098 -3.74607 0
M  V30 4375 H 409.628 -2.36486 -3.07727 0
M  V30 4376 H 407.729 0.0140383 -3.72597 0
M  V30 4377 H 407.842 -1.71566 -4.47328 0
M  V30 4378 H 406.206 -0.821077 -2.41103 0
M  V30 4379 H 406.989 -2.49176 -2.36149 0
M  V30 4380 N 409.434 1.37368 -0.772513 0
M  V30 4381 C 410.681 1.99673 -0.337182 0
M  V30 4382 C 411.009 1.61324 1.0865 0
M  V30 4383 O 410.264 0.851377 1.7621 0
M  V30 4384 C 410.563 3.54817 -0.428876 0
M  V30 4385 C 410.229 4.12936 -1.81092 0
M  V30 4386 C 408.891 4.28523 -2.1891 0
M  V30 4387 C 411.243 4.44801 -2.71664 0
M  V30 4388 C 408.571 4.73277 -3.46735 0
M  V30 4389 C 410.923 4.90981 -3.98899 0
M  V30 4390 C 409.587 5.04773 -4.36761 0
M  V30 4391 H 408.857 0.730656 -0.123384 0
M  V30 4392 H 411.504 1.64124 -0.986686 0
M  V30 4393 H 409.809 3.90618 0.304167 0
M  V30 4394 H 411.506 4.00933 -0.0733334 0
M  V30 4395 H 408.096 4.01233 -1.50699 0
M  V30 4396 H 412.28 4.32344 -2.43706 0
M  V30 4397 H 407.536 4.82142 -3.75964 0
M  V30 4398 H 411.71 5.14603 -4.69208 0
M  V30 4399 H 409.337 5.39211 -5.35868 0
M  V30 4400 N 410.912 0.523116 1.48665 0
M  V30 4401 C 411.859 -0.243398 2.29513 0
M  V30 4402 C 412.829 -0.940139 1.36933 0
M  V30 4403 O 414.014 -0.942503 1.65896 0
M  V30 4404 C 411.154 -1.28855 3.20141 0
M  V30 4405 C 410.267 -0.60135 4.27794 0
M  V30 4406 C 409.402 -1.62884 5.05611 0
M  V30 4407 C 408.441 -0.924726 6.05075 0
M  V30 4408 N 407.578 -1.89744 6.75975 0
M  V30 4409 H 412.418 0.452234 2.94549 0
M  V30 4410 H 409.955 0.234858 1.45213 0
M  V30 4411 H 411.913 -1.90674 3.71079 0
M  V30 4412 H 410.543 -1.95266 2.57043 0
M  V30 4413 H 409.595 0.130623 3.80176 0
M  V30 4414 H 410.907 -0.0481585 4.98777 0
M  V30 4415 H 410.061 -2.32149 5.60528 0
M  V30 4416 H 408.8 -2.21592 4.34452 0
M  V30 4417 H 407.805 -0.217966 5.49368 0
M  V30 4418 H 409.03 -0.343851 6.78229 0
M  V30 4419 H 406.976 -2.47373 6.07571 0
M  V30 4420 H 406.893 -1.3955 7.43009 0
M  V30 4421 H 408.161 -2.58229 7.35485 0
M  V30 4422 N 412.39 -1.55475 0.257931 0
M  V30 4423 C 413.801 -1.8511 -0.243135 0
M  V30 4424 C 414.152 -1.17986 -1.5676 0
M  V30 4425 O 413.277 -0.462102 -2.11409 0
M  V30 4426 C 413.872 -3.35826 -0.447929 0
M  V30 4427 C 412.431 -3.65647 -0.893245 0
M  V30 4428 C 411.578 -2.7729 0.0232965 0
M  V30 4429 H 414.529 -1.51261 0.480199 0
M  V30 4430 H 414.55 -3.58002 -1.28898 0
M  V30 4431 H 414.062 -3.84652 0.516196 0
M  V30 4432 H 412.163 -3.22308 -1.86945 0
M  V30 4433 H 412.276 -4.73312 -0.742469 0
M  V30 4434 H 410.64 -2.49942 -0.490021 0
M  V30 4435 H 411.423 -3.28926 0.982994 0
M  V30 4436 N 413.868 0.0150385 -1.57593 0
M  V30 4437 C 414.818 1.01943 -2.0394 0
M  V30 4438 C 415.802 1.31209 -0.931286 0
M  V30 4439 O 416.994 1.30559 -1.19513 0
M  V30 4440 C 414.123 2.31621 -2.53391 0
M  V30 4441 C 413.209 2.05384 -3.7105 0
M  V30 4442 N 413.6 1.49253 -4.83278 0
M  V30 4443 C 411.898 2.35601 -3.78693 0
M  V30 4444 C 412.599 1.39143 -5.64813 0
M  V30 4445 N 411.575 1.87187 -5.10355 0
M  V30 4446 H 415.377 0.57969 -2.88126 0
M  V30 4447 H 412.891 0.221056 -1.60888 0
M  V30 4448 H 414.888 3.044 -2.84862 0
M  V30 4449 H 413.548 2.76261 -1.70616 0
M  V30 4450 H 414.559 1.17334 -5.04433 0
M  V30 4451 H 411.236 2.8322 -3.06746 0
M  V30 4452 H 412.626 0.961153 -6.6499 0
M  V30 4453 N 415.346 1.54954 0.287554 0
M  V30 4454 C 416.594 1.74528 1.01904 0
M  V30 4455 C 416.915 0.541349 1.87335 0
M  V30 4456 O 416.185 -0.444108 1.908 0
M  V30 4457 H 414.765 0.643576 0.379235 0
M  V30 4458 H 417.427 1.92333 0.315294 0
M  V30 4459 H 416.523 2.64015 1.6644 0
M  V30 4460 N 416.824 -0.551391 1.4764 0
M  V30 4461 C 418.049 -1.33837 1.58437 0
M  V30 4462 C 418.474 -1.866 0.237063 0
M  V30 4463 O 417.832 -1.6328 -0.787994 0
M  V30 4464 C 417.88 -2.48014 2.61766 0
M  V30 4465 O 416.984 -3.50419 2.1744 0
M  V30 4466 H 416.325 -0.397299 0.532024 0
M  V30 4467 H 418.855 -0.665759 1.93465 0
M  V30 4468 H 418.865 -2.94503 2.82369 0
M  V30 4469 H 417.54 -2.08969 3.5959 0
M  V30 4470 H 416.117 -3.10196 2.06961 0
M  V30 4471 N 418.302 -1.35869 -0.798587 0
M  V30 4472 C 419.718 -1.16082 -1.09532 0
M  V30 4473 C 419.918 0.0213124 -2.01489 0
M  V30 4474 O 418.974 0.689488 -2.42904 0
M  V30 4475 C 420.287 -2.46748 -1.7186 0
M  V30 4476 C 421.835 -2.53028 -1.84244 0
M  V30 4477 C 422.31 -3.83758 -2.49988 0
M  V30 4478 N 423.801 -3.85053 -2.57465 0
M  V30 4479 C 424.536 -4.8294 -3.09122 0
M  V30 4480 N 424.032 -5.91217 -3.61157 0
M  V30 4481 N 425.825 -4.70369 -3.0775 0
M  V30 4482 H 417.976 -2.11571 -0.187461 0
M  V30 4483 H 420.239 -0.936726 -0.145765 0
M  V30 4484 H 419.945 -3.33471 -1.11759 0
M  V30 4485 H 419.819 -2.61883 -2.71472 0
M  V30 4486 H 422.206 -1.66729 -2.43486 0
M  V30 4487 H 422.287 -2.418 -0.834643 0
M  V30 4488 H 421.931 -4.70459 -1.91393 0
M  V30 4489 H 421.861 -3.92278 -3.5132 0
M  V30 4490 H 424.352 -3.06822 -2.20609 0
M  V30 4491 H 424.665 -6.61892 -3.98896 0
M  V30 4492 H 423.01 -5.94899 -3.59333 0
M  V30 4493 H 426.201 -3.84914 -2.66381 0
M  V30 4494 H 426.374 -5.46816 -3.47701 0
M  V30 4495 N 419.78 1.02168 -1.19998 0
M  V30 4496 C 421.057 1.72816 -0.916191 0
M  V30 4497 C 421.437 2.03081 0.576325 0
M  V30 4498 O 420.785 1.69122 1.53656 0
M  V30 4499 C 420.995 2.9997 -1.78378 0
M  V30 4500 C 422.343 3.73336 -2.02251 0
M  V30 4501 O 423.367 3.09914 -1.75589 0
M  V30 4502 O 422.226 4.87371 -2.47249 0
M  V30 4503 H 419.32 0.752924 -0.342103 0
M  V30 4504 H 421.866 1.08062 -1.30846 0
M  V30 4505 H 420.638 2.73888 -2.79466 0
M  V30 4506 H 420.261 3.72464 -1.39126 0
M  V30 4507 N 421.258 1.00505 1.21394 0
M  V30 4508 C 422.208 0.536503 2.21598 0
M  V30 4509 C 423.192 -0.401914 1.55799 0
M  V30 4510 O 424.384 -0.226757 1.75541 0
M  V30 4511 C 421.513 -0.135446 3.43033 0
M  V30 4512 C 420.599 0.823992 4.16018 0
M  V30 4513 N 420.99 1.97683 4.6557 0
M  V30 4514 C 419.288 0.642387 4.4135 0
M  V30 4515 C 419.989 2.58003 5.21354 0
M  V30 4516 N 418.965 1.86162 5.1073 0
M  V30 4517 H 422.767 1.41557 2.57563 0
M  V30 4518 H 420.281 0.868878 1.37202 0
M  V30 4519 H 422.278 -0.488584 4.14027 0
M  V30 4520 H 420.938 -1.01049 3.08576 0
M  V30 4521 H 421.949 2.3572 4.61147 0
M  V30 4522 H 418.626 -0.185578 4.17087 0
M  V30 4523 H 420.016 3.555 5.70149 0
M  V30 4524 N 422.737 -1.36956 0.779787 0
M  V30 4525 C 423.687 -2.27539 0.144892 0
M  V30 4526 C 424.671 -1.46493 -0.665488 0
M  V30 4527 O 425.863 -1.68968 -0.527141 0
M  V30 4528 C 422.992 -3.35512 -0.727082 0
M  V30 4529 C 422.078 -4.24001 0.0915642 0
M  V30 4530 N 422.469 -4.92757 1.14125 0
M  V30 4531 C 420.767 -4.45807 -0.131141 0
M  V30 4532 C 421.468 -5.58138 1.6388 0
M  V30 4533 N 420.444 -5.35241 0.94962 0
M  V30 4534 H 424.246 -2.78176 0.948446 0
M  V30 4535 H 421.76 -1.50169 0.618315 0
M  V30 4536 H 423.757 -3.99324 -1.19776 0
M  V30 4537 H 422.417 -2.86431 -1.52929 0
M  V30 4538 H 423.428 -4.94984 1.52353 0
M  V30 4539 H 420.105 -4.07582 -0.904621 0
M  V30 4540 H 421.495 -6.23071 2.51461 0
M  V30 4541 N 424.215 -0.530993 -1.48385 0
M  V30 4542 C 425.165 0.251092 -2.26613 0
M  V30 4543 C 426.149 0.908977 -1.32765 0
M  V30 4544 O 427.341 0.811616 -1.57295 0
M  V30 4545 C 424.47 1.29677 -3.17866 0
M  V30 4546 C 423.556 0.643627 -4.19188 0
M  V30 4547 N 423.947 -0.271223 -5.05072 0
M  V30 4548 C 422.245 0.900711 -4.3681 0
M  V30 4549 C 422.946 -0.648109 -5.78078 0
M  V30 4550 N 421.922 -0.00895987 -5.43599 0
M  V30 4551 H 425.724 -0.452702 -2.90393 0
M  V30 4552 H 423.238 -0.349091 -1.58604 0
M  V30 4553 H 425.235 1.87079 -3.72568 0
M  V30 4554 H 423.895 2.00193 -2.55642 0
M  V30 4555 H 424.906 -0.643883 -5.13882 0
M  V30 4556 H 421.583 1.59636 -3.85775 0
M  V30 4557 H 422.973 -1.39833 -6.57188 0
M  V30 4558 N 425.693 1.55336 -0.266172 0
M  V30 4559 C 427.104 1.85236 0.233315 0
M  V30 4560 C 427.455 1.18816 1.56132 0
M  V30 4561 O 426.58 0.473307 2.11161 0
M  V30 4562 C 427.175 3.36059 0.430113 0
M  V30 4563 C 425.734 3.66116 0.873842 0
M  V30 4564 C 424.881 2.77274 -0.0380016 0
M  V30 4565 H 427.832 1.51004 -0.488214 0
M  V30 4566 H 427.853 3.58681 1.26998 0
M  V30 4567 H 427.365 3.84373 -0.536588 0
M  V30 4568 H 425.466 3.23295 1.85233 0
M  V30 4569 H 425.579 4.73699 0.717358 0
M  V30 4570 H 423.943 2.50198 0.476759 0
M  V30 4571 H 424.726 3.284 -1.00042 0
M  V30 4572 N 427.171 -0.0066808 1.57599 0
M  V30 4573 C 428.121 -1.0086 2.04478 0
M  V30 4574 C 429.105 -1.30714 0.938231 0
M  V30 4575 O 430.297 -1.29924 1.20203 0
M  V30 4576 C 427.426 -2.30273 2.54615 0
M  V30 4577 C 426.512 -2.03413 3.72134 0
M  V30 4578 N 426.903 -1.46688 4.84062 0
M  V30 4579 C 425.201 -2.33589 3.79937 0
M  V30 4580 C 425.902 -1.36146 5.65543 0
M  V30 4581 N 424.878 -1.84477 5.1134 0
M  V30 4582 H 428.68 -0.564402 2.8843 0
M  V30 4583 H 426.194 -0.212521 1.61003 0
M  V30 4584 H 428.191 -3.02885 2.86472 0
M  V30 4585 H 426.851 -2.75352 1.72079 0
M  V30 4586 H 427.862 -1.14658 5.05049 0
M  V30 4587 H 424.539 -2.81589 3.08243 0
M  V30 4588 H 425.929 -0.925873 6.6549 0
M  V30 4589 N 428.649 -1.55105 -0.279332 0
M  V30 4590 C 429.596 -1.8755 -1.34513 0
M  V30 4591 C 430.566 -0.726384 -1.49375 0
M  V30 4592 O 431.751 -0.977063 -1.63884 0
M  V30 4593 C 428.891 -2.14738 -2.70151 0
M  V30 4594 C 428.004 -3.42285 -2.63562 0
M  V30 4595 C 427.139 -3.59206 -3.91337 0
M  V30 4596 C 426.178 -4.80467 -3.79233 0
M  V30 4597 N 425.315 -4.94079 -4.98829 0
M  V30 4598 H 430.155 -2.78456 -1.06143 0
M  V30 4599 H 427.692 -1.37867 -0.512936 0
M  V30 4600 H 429.65 -2.28501 -3.49061 0
M  V30 4601 H 428.28 -1.27075 -2.96735 0
M  V30 4602 H 427.332 -3.37029 -1.76397 0
M  V30 4603 H 428.644 -4.31328 -2.50515 0
M  V30 4604 H 427.798 -3.72751 -4.78687 0
M  V30 4605 H 426.537 -2.68337 -4.07243 0
M  V30 4606 H 425.542 -4.66932 -2.90266 0
M  V30 4607 H 426.767 -5.72765 -3.64852 0
M  V30 4608 H 424.713 -4.06139 -5.15158 0
M  V30 4609 H 424.63 -5.77156 -4.8829 0
M  V30 4610 H 425.898 -5.12003 -5.8777 0
M  V30 4611 N 430.127 0.543554 -1.4793 0
M  V30 4612 C 431.538 1.12561 -1.48953 0
M  V30 4613 C 431.889 1.94578 -0.251754 0
M  V30 4614 O 431.014 2.0665 0.642255 0
M  V30 4615 C 431.609 2.04801 -2.69892 0
M  V30 4616 C 430.168 2.58251 -2.73831 0
M  V30 4617 C 429.315 1.34918 -2.42265 0
M  V30 4618 H 432.266 0.32947 -1.55242 0
M  V30 4619 H 432.287 2.88886 -2.47639 0
M  V30 4620 H 431.799 1.4508 -3.59963 0
M  V30 4621 H 429.9 3.21732 -1.87934 0
M  V30 4622 H 430.013 2.98312 -3.74895 0
M  V30 4623 H 428.377 1.66046 -1.93134 0
M  V30 4624 H 429.16 0.769693 -3.3456 0
M  V30 4625 N 431.605 1.3629 0.791371 0
M  V30 4626 C 432.555 1.26988 1.89362 0
M  V30 4627 C 433.539 0.161795 1.60084 0
M  V30 4628 O 434.731 0.394426 1.72549 0
M  V30 4629 C 431.86 1.05944 3.26544 0
M  V30 4630 C 430.946 2.21211 3.61838 0
M  V30 4631 N 431.337 3.46518 3.68455 0
M  V30 4632 C 429.635 2.12933 3.91887 0
M  V30 4633 C 430.336 4.2241 3.99931 0
M  V30 4634 N 429.312 3.51329 4.14812 0
M  V30 4635 H 433.114 2.21908 1.92702 0
M  V30 4636 H 430.628 1.28982 0.986787 0
M  V30 4637 H 432.625 0.973666 4.05371 0
M  V30 4638 H 431.285 0.119223 3.24481 0
M  V30 4639 H 432.296 3.80677 3.51148 0
M  V30 4640 H 428.973 1.26855 3.97761 0
M  V30 4641 H 430.363 5.30767 4.1199 0
M  V30 4642 N 433.083 -1.0153 1.20538 0
M  V30 4643 C 433.993 -2.13557 0.971113 0
M  V30 4644 C 435.009 -1.73845 -0.0734366 0
M  V30 4645 O 436.185 -2.01075 0.114299 0
M  V30 4646 C 433.25 -3.42661 0.527639 0
M  V30 4647 C 432.311 -3.96608 1.64319 0
M  V30 4648 C 431.544 -5.1955 1.22078 0
M  V30 4649 O 431.767 -5.70329 0.0900198 0
M  V30 4650 O 430.701 -5.66681 2.02871 0
M  V30 4651 H 434.527 -2.3619 1.90913 0
M  V30 4652 H 432.112 -1.11946 0.989362 0
M  V30 4653 H 433.994 -4.20404 0.289621 0
M  V30 4654 H 432.669 -3.21441 -0.381779 0
M  V30 4655 H 431.576 -3.20139 1.93551 0
M  V30 4656 H 432.909 -4.22219 2.52966 0
M  V30 4657 N 434.561 -1.01147 -1.20859 0
M  V30 4658 C 435.511 -0.548247 -2.2131 0
M  V30 4659 C 436.495 0.393646 -1.5601 0
M  V30 4660 O 437.687 0.217445 -1.75659 0
M  V30 4661 C 434.816 0.117252 -3.431 0
M  V30 4662 C 433.902 -0.846043 -4.15575 0
M  V30 4663 N 434.293 -2.00149 -4.64515 0
M  V30 4664 C 432.591 -0.665783 -4.41003 0
M  V30 4665 C 433.292 -2.60764 -5.19978 0
M  V30 4666 N 432.268 -1.88868 -5.09735 0
M  V30 4667 H 436.07 -1.42921 -2.56809 0
M  V30 4668 H 433.584 -0.876142 -1.36739 0
M  V30 4669 H 435.581 0.46662 -4.1428 0
M  V30 4670 H 434.241 0.994115 -3.09107 0
M  V30 4671 H 435.252 -2.38162 -4.5989 0
M  V30 4672 H 431.929 0.163456 -4.1718 0
M  V30 4673 H 433.319 -3.58519 -5.68255 0
M  V30 4674 N 436.039 1.36541 -0.78704 0
M  V30 4675 C 437.287 1.98911 -0.357633 0
M  V30 4676 C 437.608 1.62778 1.07371 0
M  V30 4677 O 436.878 0.900612 1.73971 0
M  V30 4678 H 435.458 0.735734 -0.129246 0
M  V30 4679 H 438.12 1.66776 -1.00855 0
M  V30 4680 H 437.216 3.08874 -0.447549 0
M  V30 4681 N 437.518 0.538854 1.48102 0
M  V30 4682 C 438.929 0.100679 1.86428 0
M  V30 4683 C 439.28 -1.32447 1.44749 0
M  V30 4684 O 438.405 -1.99339 0.842199 0
M  V30 4685 C 439 0.175933 3.38343 0
M  V30 4686 C 437.559 -0.207098 3.7583 0
M  V30 4687 C 436.706 0.531741 2.72154 0
M  V30 4688 H 439.657 0.749614 1.3988 0
M  V30 4689 H 439.678 -0.610144 3.75576 0
M  V30 4690 H 439.19 1.21328 3.68648 0
M  V30 4691 H 437.291 -1.24626 3.5114 0
M  V30 4692 H 437.404 0.138687 4.78899 0
M  V30 4693 H 435.768 -0.0230462 2.5469 0
M  V30 4694 H 436.551 1.56989 3.05302 0
M  V30 4695 N 438.996 -1.55193 0.274407 0
M  V30 4696 C 440.407 -1.85358 -0.223488 0
M  V30 4697 C 440.758 -1.19642 -1.555 0
M  V30 4698 O 439.883 -0.484498 -2.10907 0
M  V30 4699 C 440.478 -3.36282 -0.412285 0
M  V30 4700 C 439.037 -3.66574 -0.854413 0
M  V30 4701 C 438.184 -2.7725 0.0527056 0
M  V30 4702 H 441.135 -1.50743 0.496215 0
M  V30 4703 H 441.156 -3.59349 -1.25094 0
M  V30 4704 H 440.668 -3.84083 0.556965 0
M  V30 4705 H 438.769 -3.24273 -1.83516 0
M  V30 4706 H 438.882 -4.74073 -0.692226 0
M  V30 4707 H 437.246 -2.50447 -0.463484 0
M  V30 4708 H 438.029 -3.27865 1.01783 0
M  V30 4709 N 440.474 -0.00167713 -1.576 0
M  V30 4710 C 441.885 0.54091 -1.78693 0
M  V30 4711 C 442.236 1.7386 -0.909247 0
M  V30 4712 O 441.361 2.16109 -0.112176 0
M  V30 4713 C 441.956 0.98806 -3.24072 0
M  V30 4714 C 440.515 1.47594 -3.46256 0
M  V30 4715 C 439.662 0.42792 -2.73978 0
M  V30 4716 H 442.613 -0.22784 -1.57056 0
M  V30 4717 H 442.634 1.85398 -3.32277 0
M  V30 4718 H 442.146 0.116164 -3.87926 0
M  V30 4719 H 440.247 2.36868 -2.87618 0
M  V30 4720 H 440.36 1.50225 -4.54939 0
M  V30 4721 H 438.724 0.889934 -2.38647 0
M  V30 4722 H 439.507 -0.435038 -3.40532 0
M  V30 4723 N 441.952 1.55251 0.271103 0
M  V30 4724 C 443.363 1.66635 0.842007 0
M  V30 4725 C 443.714 0.594631 1.86972 0
M  V30 4726 O 442.839 -0.263532 2.14789 0
M  V30 4727 C 443.434 3.02082 1.53401 0
M  V30 4728 C 441.993 3.15487 2.05293 0
M  V30 4729 C 441.14 2.62438 0.895631 0
M  V30 4730 H 444.091 1.58629 0.0474117 0
M  V30 4731 H 444.112 2.95176 2.40107 0
M  V30 4732 H 443.624 3.80062 0.785786 0
M  V30 4733 H 441.725 2.42284 2.83071 0
M  V30 4734 H 441.838 4.22075 2.26693 0
M  V30 4735 H 440.202 2.19644 1.28953 0
M  V30 4736 H 440.985 3.42923 0.160878 0
M  V30 4737 N 443.43 -0.535701 1.48216 0
M  V30 4738 C 444.841 -1.11769 1.49548 0
M  V30 4739 C 445.192 -1.94442 0.26207 0
M  V30 4740 O 444.317 -2.06987 -0.631287 0
M  V30 4741 C 444.912 -2.03367 2.70975 0
M  V30 4742 C 443.471 -2.56795 2.75196 0
M  V30 4743 C 442.618 -1.33631 2.42977 0
M  V30 4744 H 445.569 -0.321232 1.55415 0
M  V30 4745 H 445.59 -2.87569 2.49167 0
M  V30 4746 H 445.102 -1.43169 3.60727 0
M  V30 4747 H 443.203 -3.20731 1.89638 0
M  V30 4748 H 443.316 -2.9632 3.76472 0
M  V30 4749 H 441.68 -1.6502 1.94012 0
M  V30 4750 H 442.463 -0.75194 3.34964 0
M  V30 4751 N 444.908 -1.36708 -0.784132 0
M  V30 4752 C 446.185 -1.21776 -1.53069 0
M  V30 4753 C 446.565 0.193876 -2.10208 0
M  V30 4754 O 445.913 1.20012 -1.94446 0
M  V30 4755 C 446.123 -2.30395 -2.62143 0
M  V30 4756 C 447.471 -2.67325 -3.29882 0
M  V30 4757 O 448.495 -2.29478 -2.7243 0
M  V30 4758 O 447.354 -3.32485 -4.33724 0
M  V30 4759 H 444.448 -0.474459 -0.677361 0
M  V30 4760 H 446.994 -1.48454 -0.82216 0
M  V30 4761 H 445.766 -3.2498 -2.17953 0
M  V30 4762 H 445.389 -2.05112 -3.40609 0
M  V30 4763 N 446.386 1.0089 -1.21074 0
M  V30 4764 C 447.296 2.13039 -0.982425 0
M  V30 4765 C 448.312 1.73881 0.0642161 0
M  V30 4766 O 449.488 2.01012 -0.12496 0
M  V30 4767 C 446.553 3.42377 -0.545803 0
M  V30 4768 C 445.614 3.95731 -1.6642 0
M  V30 4769 C 444.847 5.18896 -1.24832 0
M  V30 4770 O 445.07 5.70273 -0.120265 0
M  V30 4771 O 444.004 5.65597 -2.05873 0
M  V30 4772 H 447.83 2.35175 -1.92163 0
M  V30 4773 H 445.415 1.1142 -0.995285 0
M  V30 4774 H 447.297 4.20244 -0.311912 0
M  V30 4775 H 445.972 3.21639 0.364727 0
M  V30 4776 H 444.879 3.19108 -1.95246 0
M  V30 4777 H 446.212 4.20872 -2.55201 0
M  V30 4778 N 447.864 1.01787 1.20321 0
M  V30 4779 C 449.28 0.732951 1.41774 0
M  V30 4780 C 449.48 -0.686883 1.89431 0
M  V30 4781 O 448.536 -1.45446 2.06402 0
M  V30 4782 C 449.849 1.75973 2.43832 0
M  V30 4783 C 451.397 1.77802 2.57596 0
M  V30 4784 C 451.872 2.7941 3.62897 0
M  V30 4785 N 453.363 2.78157 3.70382 0
M  V30 4786 C 454.098 3.53434 4.51521 0
M  V30 4787 N 453.594 4.38392 5.36455 0
M  V30 4788 N 455.387 3.42026 4.46066 0
M  V30 4789 H 447.538 1.93447 0.877035 0
M  V30 4790 H 449.801 0.835712 0.447536 0
M  V30 4791 H 449.507 2.77699 2.15815 0
M  V30 4792 H 449.381 1.57292 3.4284 0
M  V30 4793 H 451.768 0.767602 2.84942 0
M  V30 4794 H 451.849 2.00557 1.58779 0
M  V30 4795 H 451.493 3.80616 3.36295 0
M  V30 4796 H 451.423 2.53916 4.61339 0
M  V30 4797 H 453.914 2.16531 3.09714 0
M  V30 4798 H 454.227 4.92596 5.95457 0
M  V30 4799 H 452.572 4.4247 5.35953 0
M  V30 4800 H 455.763 2.75075 3.78749 0
M  V30 4801 H 455.936 4.00946 5.09064 0
M  V30 4802 N 449.342 -1.36122 0.79427 0
M  V30 4803 C 450.619 -1.93398 0.292685 0
M  V30 4804 C 450.999 -1.72567 -1.21589 0
M  V30 4805 O 450.347 -1.08745 -2.00965 0
M  V30 4806 C 450.557 -3.42099 0.690614 0
M  V30 4807 C 451.905 -4.19231 0.673105 0
M  V30 4808 O 452.929 -3.50559 0.631389 0
M  V30 4809 O 451.788 -5.41732 0.720362 0
M  V30 4810 H 448.882 -0.823712 0.0736693 0
M  V30 4811 H 451.428 -1.45273 0.87714 0
M  V30 4812 H 450.2 -3.50938 1.73085 0
M  V30 4813 H 449.823 -3.97519 0.0803036 0
M  V30 4814 N 450.82 -0.546701 -1.47814 0
M  V30 4815 C 451.77 0.227042 -2.26867 0
M  V30 4816 C 452.754 0.894844 -1.33721 0
M  V30 4817 O 453.946 0.794887 -1.58147 0
M  V30 4818 C 451.075 1.26299 -3.19223 0
M  V30 4819 C 450.161 0.59913 -4.19847 0
M  V30 4820 N 450.552 -0.324777 -5.04756 0
M  V30 4821 C 448.85 0.854331 -4.37741 0
M  V30 4822 C 449.551 -0.709386 -5.77358 0
M  V30 4823 N 448.527 -0.0666153 -5.43559 0
M  V30 4824 H 452.329 -0.483476 -2.89896 0
M  V30 4825 H 449.843 -0.365893 -1.58224 0
M  V30 4826 H 451.84 1.83116 -3.74532 0
M  V30 4827 H 450.5 1.97471 -2.57751 0
M  V30 4828 H 451.511 -0.698351 -5.1317 0
M  V30 4829 H 448.188 1.55536 -3.87447 0
M  V30 4830 H 449.578 -1.46796 -6.55668 0
M  V30 4831 N 452.299 1.55045 -0.282633 0
M  V30 4832 C 453.524 2.04628 0.337977 0
M  V30 4833 C 453.949 1.15937 1.48123 0
M  V30 4834 O 453.307 0.159532 1.80597 0
M  V30 4835 C 453.355 3.51854 0.78936 0
M  V30 4836 O 452.459 3.66236 1.89592 0
M  V30 4837 H 451.8 0.660434 0.0687261 0
M  V30 4838 H 454.33 2.00261 -0.419124 0
M  V30 4839 H 454.34 3.93361 1.08311 0
M  V30 4840 H 453.015 4.15873 -0.0470419 0
M  V30 4841 H 451.592 3.36633 1.60413 0
M  V30 4842 N 453.777 0.010035 1.57597 0
M  V30 4843 C 454.727 -0.986858 2.05536 0
M  V30 4844 C 455.711 -1.29711 0.952042 0
M  V30 4845 O 456.903 -1.28641 1.21575 0
M  V30 4846 C 454.032 -2.2756 2.57043 0
M  V30 4847 C 453.118 -1.99455 3.74271 0
M  V30 4848 N 453.509 -1.41546 4.85591 0
M  V30 4849 C 451.807 -2.29547 3.82393 0
M  V30 4850 C 452.508 -1.3014 5.66956 0
M  V30 4851 N 451.484 -1.79044 5.13268 0
M  V30 4852 H 455.286 -0.533778 2.89012 0
M  V30 4853 H 452.8 -0.195432 1.6122 0
M  V30 4854 H 454.797 -2.99829 2.89669 0
M  V30 4855 H 453.457 -2.73512 1.7499 0
M  V30 4856 H 454.468 -1.09294 5.06236 0
M  V30 4857 H 451.145 -2.78304 3.11213 0
M  V30 4858 H 452.535 -0.855237 6.66435 0
M  V30 4859 N 455.255 -1.55392 -0.262866 0
M  V30 4860 C 456.503 -1.76127 -0.991147 0
M  V30 4861 C 456.824 -0.571083 -1.8645 0
M  V30 4862 O 456.094 0.413698 -1.91482 0
M  V30 4863 H 454.674 -0.649528 -0.368948 0
M  V30 4864 H 457.336 -1.9281 -0.284655 0
M  V30 4865 H 456.432 -2.6663 -1.62219 0
M  V30 4866 N 456.733 0.527833 -1.48498 0
M  V30 4867 C 458.144 1.10975 -1.50138 0
M  V30 4868 C 458.495 1.943 -0.272378 0
M  V30 4869 O 457.62 2.07319 0.620301 0
M  V30 4870 C 458.215 2.01927 -2.72049 0
M  V30 4871 C 456.774 2.55332 -2.76554 0
M  V30 4872 C 455.921 1.32341 -2.43683 0
M  V30 4873 H 458.872 0.312986 -1.55583 0
M  V30 4874 H 458.893 2.86244 -2.50689 0
M  V30 4875 H 458.405 1.41254 -3.61481 0
M  V30 4876 H 456.506 3.19721 -1.91336 0
M  V30 4877 H 456.619 2.94319 -3.78038 0
M  V30 4878 H 454.983 1.63989 -1.94884 0
M  V30 4879 H 455.766 0.734165 -3.35358 0
M  V30 4880 N 458.211 1.37122 0.776871 0
M  V30 4881 C 459.622 1.28667 1.35284 0
M  V30 4882 C 459.973 -0.0680035 1.96082 0
M  V30 4883 O 459.098 -0.969743 1.93455 0
M  V30 4884 C 459.693 2.32997 2.45963 0
M  V30 4885 C 458.252 2.28191 2.99342 0
M  V30 4886 C 457.399 2.17101 1.72517 0
M  V30 4887 H 460.35 1.47819 0.577527 0
M  V30 4888 H 460.371 1.97366 3.2531 0
M  V30 4889 H 459.883 3.3158 2.01684 0
M  V30 4890 H 457.984 1.33115 3.4801 0
M  V30 4891 H 458.097 3.21397 3.55304 0
M  V30 4892 H 456.461 1.63562 1.95242 0
M  V30 4893 H 457.244 3.17591 1.30348 0
M  V30 4894 N 459.689 -1.00246 1.21608 0
M  V30 4895 C 460.619 -2.10921 1.00172 0
M  V30 4896 C 461.6 -1.69938 -0.0741587 0
M  V30 4897 O 462.785 -1.94009 0.0861753 0
M  V30 4898 C 459.915 -3.42618 0.568355 0
M  V30 4899 C 458.869 -3.97407 1.58909 0
M  V30 4900 C 458.195 -5.25038 1.01187 0
M  V30 4901 C 459.495 -4.2918 2.97661 0
M  V30 4902 H 461.189 -2.29112 1.92739 0
M  V30 4903 H 458.735 -1.10101 0.928102 0
M  V30 4904 H 460.688 -4.19444 0.405555 0
M  V30 4905 H 459.412 -3.24227 -0.392961 0
M  V30 4906 H 458.071 -3.22703 1.73949 0
M  V30 4907 H 457.719 -5.02982 0.0421965 0
M  V30 4908 H 457.419 -5.62661 1.6937 0
M  V30 4909 H 458.943 -6.04507 0.860448 0
M  V30 4910 H 460.357 -4.96839 2.86049 0
M  V30 4911 H 458.754 -4.77952 3.6288 0
M  V30 4912 H 459.824 -3.3735 3.48315 0
M  V30 4913 N 461.167 -1.02423 -1.1978 0
M  V30 4914 C 462.578 -0.748389 -1.71044 0
M  V30 4915 C 462.929 0.732398 -1.82017 0
M  V30 4916 O 462.054 1.57116 -1.48807 0
M  V30 4917 C 462.649 -1.35187 -3.1066 0
M  V30 4918 C 461.208 -1.12472 -3.59203 0
M  V30 4919 C 460.355 -1.45283 -2.36195 0
M  V30 4920 H 463.306 -1.19275 -1.04686 0
M  V30 4921 H 463.327 -0.746408 -3.73107 0
M  V30 4922 H 462.839 -2.4296 -3.02642 0
M  V30 4923 H 460.94 -0.0649983 -3.72543 0
M  V30 4924 H 461.053 -1.81016 -4.43588 0
M  V30 4925 H 459.417 -0.872034 -2.39307 0
M  V30 4926 H 460.2 -2.54129 -2.30811 0
M  V30 4927 N 462.645 1.35699 -0.801477 0
M  V30 4928 C 463.577 2.28598 -0.166028 0
M  V30 4929 C 464.59 1.50044 0.631721 0
M  V30 4930 O 465.779 1.72339 0.464921 0
M  V30 4931 C 462.879 3.29625 0.787451 0
M  V30 4932 C 462.052 4.37384 0.037171 0
M  V30 4933 C 461.111 5.183 0.908375 0
M  V30 4934 O 460.137 5.68053 0.361189 0
M  V30 4935 N 461.339 5.35912 2.23112 0
M  V30 4936 H 464.104 2.83771 -0.964071 0
M  V30 4937 H 461.665 1.47994 -0.656469 0
M  V30 4938 H 463.657 3.80648 1.37439 0
M  V30 4939 H 462.227 2.75004 1.48632 0
M  V30 4940 H 461.447 3.87364 -0.730935 0
M  V30 4941 H 462.735 5.0653 -0.480109 0
M  V30 4942 H 462.133 4.97125 2.69968 0
M  V30 4943 H 460.69 5.90133 2.76741 0
M  V30 4944 N 464.123 0.554532 1.47522 0
M  V30 4945 C 465.371 0.0294208 2.02079 0
M  V30 4946 C 465.692 -1.32411 1.43151 0
M  V30 4947 O 464.962 -1.863 0.605728 0
M  V30 4948 H 463.542 0.00788672 0.746958 0
M  V30 4949 H 466.204 0.723934 1.80956 0
M  V30 4950 H 465.3 -0.0606745 3.12041 0
M  V30 4951 N 465.601 -1.54893 0.290851 0
M  V30 4952 C 467.012 -1.85584 -0.203816 0
M  V30 4953 C 467.363 -1.21285 -1.54222 0
M  V30 4954 O 466.488 -0.506841 -2.10381 0
M  V30 4955 C 467.083 -3.367 -0.376595 0
M  V30 4956 C 465.642 -3.6746 -0.815485 0
M  V30 4957 C 464.789 -2.77178 0.0821087 0
M  V30 4958 H 467.74 -1.50208 0.512175 0
M  V30 4959 H 467.761 -3.60656 -1.21275 0
M  V30 4960 H 467.273 -3.8347 0.59767 0
M  V30 4961 H 465.374 -3.26201 -1.80066 0
M  V30 4962 H 465.487 -4.7478 -0.641905 0
M  V30 4963 H 463.851 -2.50925 -0.436895 0
M  V30 4964 H 464.634 -3.26767 1.05254 0
M  V30 4965 N 467.08 -0.0183926 -1.57589 0
M  V30 4966 C 468.491 0.521927 -1.79256 0
M  V30 4967 C 468.842 1.72885 -0.927636 0
M  V30 4968 O 467.967 2.15978 -0.135091 0
M  V30 4969 C 468.562 0.953632 -3.25102 0
M  V30 4970 C 467.121 1.43913 -3.47801 0
M  V30 4971 C 466.268 0.398837 -2.74417 0
M  V30 4972 H 469.219 -0.244485 -1.56805 0
M  V30 4973 H 469.24 1.81863 -3.34224 0
M  V30 4974 H 468.752 0.0750123 -3.88028 0
M  V30 4975 H 466.853 2.33804 -2.90115 0
M  V30 4976 H 466.966 1.45391 -4.56507 0
M  V30 4977 H 465.33 0.864572 -2.39577 0
M  V30 4978 H 466.113 -0.471132 -3.40052 0
M  V30 4979 N 468.558 1.5553 0.254621 0
M  V30 4980 C 469.969 1.67518 0.824286 0
M  V30 4981 C 470.32 0.614429 1.86331 0
M  V30 4982 O 469.445 -0.240736 2.15057 0
M  V30 4983 C 470.04 3.03692 1.50189 0
M  V30 4984 C 468.599 3.17646 2.01935 0
M  V30 4985 C 467.746 2.63373 0.867746 0
M  V30 4986 H 470.697 1.58671 0.0305843 0
M  V30 4987 H 470.718 2.97706 2.36962 0
M  V30 4988 H 470.23 3.80874 0.745431 0
M  V30 4989 H 468.331 2.45273 2.80485 0
M  V30 4990 H 468.444 4.24455 2.22204 0
M  V30 4991 H 466.808 2.20999 1.26616 0
M  V30 4992 H 467.591 3.43074 0.124498 0
M  V30 4993 N 470.036 -0.519951 1.48776 0
M  V30 4994 C 470.966 -1.63253 1.66945 0
M  V30 4995 C 471.947 -1.62014 0.518224 0
M  V30 4996 O 473.132 -1.79053 0.751919 0
M  V30 4997 C 470.262 -3.0181 1.71836 0
M  V30 4998 C 469.216 -3.17911 2.8656 0
M  V30 4999 C 468.542 -4.5763 2.76548 0
M  V30 5000 C 469.842 -2.99729 4.27738 0
M  V30 5001 H 471.536 -1.48302 2.6009 0
M  V30 5002 H 469.082 -0.712026 1.25165 0
M  V30 5003 H 471.035 -3.79525 1.83135 0
M  V30 5004 H 469.759 -3.17806 0.752775 0
M  V30 5005 H 468.418 -2.42616 2.74833 0
M  V30 5006 H 468.066 -4.70476 1.77937 0
M  V30 5007 H 467.766 -4.69346 3.53536 0
M  V30 5008 H 469.29 -5.37431 2.89828 0
M  V30 5009 H 470.704 -3.67228 4.40246 0
M  V30 5010 H 469.101 -3.22932 5.05801 0
M  V30 5011 H 470.171 -1.96047 4.43502 0
M  V30 5012 N 471.514 -1.37532 -0.769588 0
M  V30 5013 C 472.444 -1.36172 -1.89682 0
M  V30 5014 C 473.425 -0.23001 -1.68538 0
M  V30 5015 O 474.61 -0.43069 -1.89364 0
M  V30 5016 C 471.74 -1.1701 -3.26995 0
M  V30 5017 C 470.694 -2.27216 -3.62708 0
M  V30 5018 C 470.02 -1.93174 -4.98586 0
M  V30 5019 C 471.32 -3.6941 -3.69234 0
M  V30 5020 H 473.014 -2.30499 -1.91078 0
M  V30 5021 H 470.56 -1.10953 -0.917902 0
M  V30 5022 H 472.513 -1.14688 -4.05493 0
M  V30 5023 H 471.237 -0.191395 -3.26039 0
M  V30 5024 H 469.896 -2.28697 -2.86519 0
M  V30 5025 H 469.544 -0.938281 -4.94171 0
M  V30 5026 H 469.244 -2.66973 -5.23449 0
M  V30 5027 H 470.768 -1.92443 -5.79481 0
M  V30 5028 H 472.182 -3.70047 -4.37879 0
M  V30 5029 H 470.579 -4.4228 -4.05597 0
M  V30 5030 H 471.649 -4.0288 -2.69844 0
M  V30 5031 N 472.992 0.995999 -1.22138 0
M  V30 5032 C 474.403 1.54961 -1.04135 0
M  V30 5033 C 474.754 1.92159 0.396147 0
M  V30 5034 O 473.879 1.74435 1.28069 0
M  V30 5035 C 474.474 2.81581 -1.88408 0
M  V30 5036 C 473.033 3.33396 -1.74712 0
M  V30 5037 C 472.18 2.06509 -1.85066 0
M  V30 5038 H 475.131 0.817436 -1.36028 0
M  V30 5039 H 475.152 3.53822 -1.39966 0
M  V30 5040 H 474.664 2.54476 -2.93025 0
M  V30 5041 H 472.765 3.65416 -0.728159 0
M  V30 5042 H 472.878 4.04208 -2.57202 0
M  V30 5043 H 471.242 2.19925 -1.28472 0
M  V30 5044 H 472.025 1.81804 -2.91208 0
M  V30 5045 N 474.47 1.03057 1.19235 0
M  V30 5046 C 475.403 0.557384 2.21288 0
M  V30 5047 C 476.381 -0.402675 1.57535 0
M  V30 5048 O 477.565 -0.319376 1.85775 0
M  V30 5049 C 474.692 -0.187041 3.38183 0
M  V30 5050 C 473.738 0.72471 4.20298 0
M  V30 5051 S 474.571 2.20187 4.88137 0
M  V30 5052 C 475.727 1.46801 6.08441 0
M  V30 5053 H 475.96 1.42207 2.61083 0
M  V30 5054 H 473.493 0.840651 1.29508 0
M  V30 5055 H 475.451 -0.610405 4.05936 0
M  V30 5056 H 474.112 -1.02748 2.96819 0
M  V30 5057 H 473.305 0.149911 5.03777 0
M  V30 5058 H 472.907 1.08647 3.57871 0
M  V30 5059 H 475.199 0.755522 6.73274 0
M  V30 5060 H 476.142 2.27946 6.70407 0
M  V30 5061 H 476.55 0.964762 5.56195 0
M  V30 5062 N 475.948 -1.35272 0.808662 0
M  V30 5063 C 477.173 -2.03477 0.401475 0
M  V30 5064 C 477.598 -1.60537 -0.980279 0
M  V30 5065 O 476.956 -0.78304 -1.63518 0
M  V30 5066 C 477.004 -3.57181 0.495354 0
M  V30 5067 O 476.108 -4.09474 -0.490397 0
M  V30 5068 H 475.449 -0.642561 0.167366 0
M  V30 5069 H 477.979 -1.72824 1.09512 0
M  V30 5070 H 477.989 -4.06356 0.365912 0
M  V30 5071 H 476.664 -3.87784 1.5032 0
M  V30 5072 H 475.241 -3.71516 -0.321023 0
M  V30 5073 N 477.426 -0.562348 -1.47226 0
M  V30 5074 C 478.666 -0.0426374 -2.04356 0
M  V30 5075 C 479.03 1.28487 -1.42671 0
M  V30 5076 O 480.231 1.89259 -1.90878 0
M  V30 5077 C 478.502 0.0433826 -3.57374 0
M  V30 5078 S 480.061 0.508472 -4.35844 0
M  V30 5079 H 476.879 -0.0276234 -0.710463 0
M  V30 5080 H 479.481 -0.750245 -1.80531 0
M  V30 5081 H 478.185 -0.927072 -3.99792 0
M  V30 5082 H 477.716 0.774387 -3.85703 0
M  V30 5083 H 479.731 1.76719 -4.63665 0
M  V30 5084 N 478.904 1.54736 -0.299062 0
M  V30 5085 C 480.129 2.04975 0.316254 0
M  V30 5086 C 480.554 1.17501 1.46885 0
M  V30 5087 O 479.912 0.178678 1.80417 0
M  V30 5088 C 479.96 3.52672 0.751997 0
M  V30 5089 O 479.064 3.68226 1.85697 0
M  V30 5090 H 478.405 0.661126 0.0617175 0
M  V30 5091 H 480.935 1.99805 -0.440341 0
M  V30 5092 H 480.945 3.94488 1.04133 0
M  V30 5093 H 479.62 4.158 -0.0911482 0
M  V30 5094 H 478.197 3.38316 1.56834 0
M  V30 5095 N 480.382 0.0267497 1.57577 0
M  V30 5096 C 481.607 -0.666227 1.96408 0
M  V30 5097 C 482.032 -1.65004 0.903071 0
M  V30 5098 O 481.39 -1.80787 -0.136263 0
M  V30 5099 C 481.438 -1.35101 3.34335 0
M  V30 5100 O 480.542 -2.46623 3.30531 0
M  V30 5101 H 479.883 -0.175206 0.640468 0
M  V30 5102 H 482.413 0.0878977 2.04411 0
M  V30 5103 H 482.423 -1.70834 3.70513 0
M  V30 5104 H 481.098 -0.629844 4.11103 0
M  V30 5105 H 479.675 -2.13019 3.06068 0
M  V30 5106 N 481.861 -1.55662 -0.24637 0
M  V30 5107 C 483.101 -1.79283 -0.981685 0
M  V30 5108 C 483.465 -0.596356 -1.82504 0
M  V30 5109 O 484.666 -0.711342 -2.59217 0
M  V30 5110 C 482.937 -3.07648 -1.819 0
M  V30 5111 S 484.496 -3.52491 -2.61334 0
M  V30 5112 H 481.314 -0.629676 -0.330196 0
M  V30 5113 H 483.916 -1.93901 -0.249498 0
M  V30 5114 H 482.62 -3.92794 -1.18915 0
M  V30 5115 H 482.151 -2.95768 -2.59393 0
M  V30 5116 H 484.166 -3.13866 -3.84321 0
M  V30 5117 N 483.339 0.512053 -1.4905 0
M  V30 5118 C 484.271 1.63121 -1.6101 0
M  V30 5119 C 485.284 1.55145 -0.493352 0
M  V30 5120 O 486.473 1.61278 -0.764955 0
M  V30 5121 C 483.573 3.01863 -1.54052 0
M  V30 5122 C 482.746 3.35138 -2.81072 0
M  V30 5123 C 481.805 4.5324 -2.67319 0
M  V30 5124 O 480.831 4.55571 -3.41238 0
M  V30 5125 N 482.033 5.52495 -1.78127 0
M  V30 5126 H 484.798 1.53292 -2.5753 0
M  V30 5127 H 482.359 0.699706 -1.45999 0
M  V30 5128 H 484.351 3.78774 -1.42521 0
M  V30 5129 H 482.921 3.05675 -0.654345 0
M  V30 5130 H 482.141 2.4723 -3.07036 0
M  V30 5131 H 483.429 3.54162 -3.65304 0
M  V30 5132 H 482.827 5.53403 -1.17308 0
M  V30 5133 H 481.384 6.28553 -1.72525 0
M  V30 5134 N 484.817 1.37938 0.762283 0
M  V30 5135 C 485.767 1.30976 1.86626 0
M  V30 5136 C 486.751 0.195714 1.59705 0
M  V30 5137 O 487.943 0.430937 1.71674 0
M  V30 5138 C 485.072 1.12847 3.24223 0
M  V30 5139 C 484.158 2.28836 3.57064 0
M  V30 5140 N 484.549 3.54256 3.61022 0
M  V30 5141 C 482.847 2.21198 3.87282 0
M  V30 5142 C 483.548 4.30798 3.90881 0
M  V30 5143 N 482.524 3.60049 4.07266 0
M  V30 5144 H 486.326 2.25946 1.87951 0
M  V30 5145 H 483.84 1.31046 0.959206 0
M  V30 5146 H 485.837 1.05943 4.03214 0
M  V30 5147 H 484.497 0.188024 3.24155 0
M  V30 5148 H 485.508 3.8804 3.42995 0
M  V30 5149 H 482.185 1.35264 3.94981 0
M  V30 5150 H 483.575 5.39386 4.00639 0
M  V30 5151 N 486.295 -0.989507 1.22664 0
M  V30 5152 C 487.258 -2.06183 1.00106 0
M  V30 5153 C 488.258 -1.60765 -0.0337726 0
M  V30 5154 O 489.448 -1.72989 0.205072 0
M  V30 5155 C 486.58 -3.37021 0.51279 0
M  V30 5156 H 487.773 -2.27629 1.95256 0
M  V30 5157 H 485.326 -1.16158 1.0458 0
M  V30 5158 H 486.061 -3.21261 -0.442917 0
M  V30 5159 H 485.846 -3.71323 1.25942 0
M  V30 5160 H 487.336 -4.1591 0.375315 0
M  V30 5161 N 487.773 -1.03688 -1.18687 0
M  V30 5162 C 489.001 -0.757918 -1.92518 0
M  V30 5163 C 489.416 0.684398 -1.75959 0
M  V30 5164 O 488.773 1.46617 -1.08673 0
M  V30 5165 C 488.824 -1.10985 -3.44042 0
M  V30 5166 O 488.545 -2.49554 -3.60076 0
M  V30 5167 C 490.046 -0.854844 -4.3498 0
M  V30 5168 H 487.266 -0.276699 -0.611293 0
M  V30 5169 H 489.81 -1.38352 -1.50595 0
M  V30 5170 H 487.965 -0.529279 -3.83767 0
M  V30 5171 H 488.379 -2.6291 -4.53849 0
M  V30 5172 H 489.853 -1.15098 -5.39867 0
M  V30 5173 H 490.33 0.210507 -4.38695 0
M  V30 5174 H 490.936 -1.41853 -4.00946 0
M  V30 5175 N 489.251 1.34841 -0.815825 0
M  V30 5176 C 490.498 1.98499 -0.400535 0
M  V30 5177 C 490.826 1.64699 1.03463 0
M  V30 5178 O 490.081 0.907006 1.73412 0
M  V30 5179 C 490.38 3.53273 -0.541541 0
M  V30 5180 C 490.046 4.06966 -1.94138 0
M  V30 5181 C 488.708 4.21341 -2.32433 0
M  V30 5182 C 491.06 4.35933 -2.85677 0
M  V30 5183 C 488.388 4.62007 -3.61617 0
M  V30 5184 C 490.74 4.78042 -4.14317 0
M  V30 5185 C 489.404 4.90622 -4.52599 0
M  V30 5186 H 488.674 0.72636 -0.146566 0
M  V30 5187 H 491.321 1.60902 -1.0384 0
M  V30 5188 H 489.626 3.91387 0.179741 0
M  V30 5189 H 491.323 4.00497 -0.20085 0
M  V30 5190 H 487.913 3.96235 -1.63388 0
M  V30 5191 H 492.097 4.24372 -2.57337 0
M  V30 5192 H 487.353 4.69937 -3.91113 0
M  V30 5193 H 491.527 4.99415 -4.85342 0
M  V30 5194 H 489.154 5.2189 -5.52752 0
M  V30 5195 N 490.729 0.570148 1.46925 0
M  V30 5196 C 491.977 0.0508523 2.02036 0
M  V30 5197 C 492.298 -1.30885 1.44548 0
M  V30 5198 O 491.568 -1.85647 0.625453 0
M  V30 5199 H 490.148 0.0158088 0.746833 0
M  V30 5200 H 492.81 0.743086 1.80178 0
M  V30 5201 H 491.906 -0.027575 3.12088 0
M  V30 5202 N 492.207 -1.54576 0.307264 0
M  V30 5203 C 493.435 -2.04675 -0.302597 0
M  V30 5204 C 493.85 -1.18425 -1.47041 0
M  V30 5205 O 493.207 -0.211257 -1.81273 0
M  V30 5206 C 493.258 -3.53575 -0.752801 0
M  V30 5207 O 492.979 -4.36547 0.368536 0
M  V30 5208 C 494.48 -4.19699 -1.42717 0
M  V30 5209 H 491.7 -0.66786 -0.0648374 0
M  V30 5210 H 494.244 -1.99516 0.448716 0
M  V30 5211 H 492.399 -3.59074 -1.45412 0
M  V30 5212 H 492.813 -5.24497 0.0168937 0
M  V30 5213 H 494.287 -5.25388 -1.69327 0
M  V30 5214 H 494.764 -3.69815 -2.36925 0
M  V30 5215 H 495.37 -4.18293 -0.768856 0
M  V30 5216 N 493.685 -0.035106 -1.57561 0
M  V30 5217 C 494.633 0.962707 -2.11742 0
M  V30 5218 C 495.627 1.33296 -1.0454 0
M  V30 5219 O 496.833 1.31449 -1.22968 0
M  V30 5220 H 493.208 0.32826 -0.676572 0
M  V30 5221 H 495.179 0.48048 -2.94506 0
M  V30 5222 C 493.928 2.23388 -2.66445 0
M  V30 5223 H 493.251 1.95774 -3.48587 0
M  V30 5224 H 494.691 2.91402 -3.07995 0
M  V30 5225 C 493.15 2.96769 -1.59467 0
M  V30 5226 O 493.68 3.89105 -0.998 0
M  V30 5227 N 491.886 2.59212 -1.31369 0
M  V30 5228 H 491.433 1.84202 -1.80076 0
M  V30 5229 H 491.391 3.08618 -0.600173 0
M  V30 5230 N 495.163 1.55791 0.238111 0
M  V30 5231 C 496.411 1.77681 0.963001 0
M  V30 5232 C 496.732 0.600674 1.85518 0
M  V30 5233 O 496.002 -0.383182 1.92116 0
M  V30 5234 H 494.582 0.655315 0.358568 0
M  V30 5235 H 497.244 1.93239 0.253945 0
M  V30 5236 H 496.34 2.69177 1.57956 0
M  V30 5237 N 496.642 -0.504142 1.49319 0
M  V30 5238 C 497.605 -1.5883 1.65244 0
M  V30 5239 C 498.605 -1.52009 0.524386 0
M  V30 5240 O 499.795 -1.55218 0.79077 0
M  V30 5241 C 496.927 -2.98481 1.64687 0
M  V30 5242 H 498.12 -1.4604 2.61939 0
M  V30 5243 H 495.673 -0.728144 1.38303 0
M  V30 5244 H 496.408 -3.16751 0.695644 0
M  V30 5245 H 496.193 -3.0484 2.46607 0
M  V30 5246 H 497.683 -3.77256 1.79075 0
M  V30 5247 N 498.12 -1.38341 -0.754957 0
M  V30 5248 C 499.052 -1.31347 -1.87831 0
M  V30 5249 C 500.065 -0.225955 -1.61224 0
M  V30 5250 O 501.254 -0.48341 -1.7183 0
M  V30 5251 C 498.354 -1.01201 -3.23437 0
M  V30 5252 C 497.527 -2.20834 -3.77559 0
M  V30 5253 C 496.586 -1.87454 -4.91678 0
M  V30 5254 O 495.612 -2.59934 -5.06382 0
M  V30 5255 N 496.814 -0.828682 -5.74555 0
M  V30 5256 H 499.579 -2.28147 -1.94342 0
M  V30 5257 H 497.14 -1.32184 -0.934828 0
M  V30 5258 H 499.132 -0.769249 -3.97322 0
M  V30 5259 H 497.702 -0.132011 -3.12321 0
M  V30 5260 H 496.922 -2.61184 -2.95256 0
M  V30 5261 H 498.21 -3.00678 -4.10451 0
M  V30 5262 H 497.608 -0.227591 -5.65242 0
M  V30 5263 H 496.165 -0.645802 -6.48593 0
M  V30 5264 N 499.598 0.982988 -1.23187 0
M  V30 5265 C 501.014 1.2487 -0.993967 0
M  V30 5266 C 501.214 1.99155 0.306498 0
M  V30 5267 O 500.27 2.30688 1.0266 0
M  V30 5268 C 501.583 2.05078 -2.19917 0
M  V30 5269 C 503.131 2.18227 -2.2438 0
M  V30 5270 C 503.606 3.01825 -3.44479 0
M  V30 5271 N 505.097 3.09411 -3.44702 0
M  V30 5272 C 505.832 3.74412 -4.34285 0
M  V30 5273 N 505.328 4.41259 -5.341 0
M  V30 5274 N 507.121 3.71273 -4.22035 0
M  V30 5275 H 499.272 0.485253 -2.06783 0
M  V30 5276 H 501.535 0.276979 -0.906635 0
M  V30 5277 H 501.241 1.57867 -3.14279 0
M  V30 5278 H 501.115 3.05829 -2.2079 0
M  V30 5279 H 503.502 2.64648 -1.30559 0
M  V30 5280 H 503.583 1.16873 -2.2754 0
M  V30 5281 H 503.227 2.56102 -4.38605 0
M  V30 5282 H 503.157 4.03342 -3.38559 0
M  V30 5283 H 505.648 2.61845 -2.7248 0
M  V30 5284 H 505.961 4.88629 -5.98717 0
M  V30 5285 H 504.306 4.39975 -5.38002 0
M  V30 5286 H 507.497 3.18217 -3.43301 0
M  V30 5287 H 507.67 4.21649 -4.92053 0
M  V30 5288 N 501.076 1.04316 1.18135 0
M  V30 5289 C 502.026 0.606731 2.19779 0
M  V30 5290 C 503.01 -0.352144 1.56999 0
M  V30 5291 O 504.202 -0.170795 1.76174 0
M  V30 5292 C 501.331 -0.0262443 3.4329 0
M  V30 5293 C 500.417 0.955928 4.13186 0
M  V30 5294 N 500.808 2.12395 4.59045 0
M  V30 5295 C 499.106 0.782473 4.39082 0
M  V30 5296 C 499.807 2.74458 5.12882 0
M  V30 5297 N 498.783 2.02316 5.04548 0
M  V30 5298 H 502.585 1.49679 2.5293 0
M  V30 5299 H 500.099 0.912088 1.34368 0
M  V30 5300 H 502.096 -0.356617 4.15372 0
M  V30 5301 H 500.756 -0.911811 3.11635 0
M  V30 5302 H 501.767 2.50272 4.53414 0
M  V30 5303 H 498.444 -0.0527906 4.17467 0
M  V30 5304 H 499.834 3.73459 5.5855 0
M  V30 5305 N 502.554 -1.34406 0.822964 0
M  V30 5306 C 503.779 -2.0304 0.423034 0
M  V30 5307 C 504.204 -1.61568 -0.963196 0
M  V30 5308 O 503.562 -0.800339 -1.62678 0
M  V30 5309 C 503.61 -3.56636 0.53321 0
M  V30 5310 O 502.714 -4.09971 -0.446939 0
M  V30 5311 H 502.055 -0.64075 0.174171 0
M  V30 5312 H 504.585 -1.71653 1.11339 0
M  V30 5313 H 504.595 -4.05945 0.408991 0
M  V30 5314 H 503.27 -3.86168 1.54425 0
M  V30 5315 H 501.847 -3.71835 -0.281601 0
M  V30 5316 N 504.032 -0.577932 -1.46621 0
M  V30 5317 C 504.982 0.178869 -2.27297 0
M  V30 5318 C 505.966 0.866279 -1.35589 0
M  V30 5319 O 507.158 0.761163 -1.59798 0
M  V30 5320 C 504.287 1.19499 -3.2183 0
M  V30 5321 C 503.373 0.50994 -4.21023 0
M  V30 5322 N 503.764 -0.43177 -5.03954 0
M  V30 5323 C 502.062 0.761287 -4.39455 0
M  V30 5324 C 502.763 -0.831693 -5.75724 0
M  V30 5325 N 501.739 -0.181897 -5.43296 0
M  V30 5326 H 505.541 -0.544859 -2.88805 0
M  V30 5327 H 503.055 -0.399373 -1.57413 0
M  V30 5328 H 505.052 1.75131 -3.78332 0
M  V30 5329 H 503.712 1.91959 -2.61881 0
M  V30 5330 H 504.723 -0.807045 -5.11573 0
M  V30 5331 H 501.4 1.47282 -3.90659 0
M  V30 5332 H 502.79 -1.6067 -6.52407 0
M  V30 5333 N 505.51 1.54411 -0.315457 0
M  V30 5334 C 506.458 2.25514 0.569771 0
M  V30 5335 C 507.452 1.2663 1.12522 0
M  V30 5336 O 508.658 1.44434 1.07419 0
M  V30 5337 H 505.033 0.724257 0.202376 0
M  V30 5338 H 507.004 2.98354 -0.0522895 0
M  V30 5339 C 505.753 3.02004 1.72305 0
M  V30 5340 H 505.076 3.77906 1.30488 0
M  V30 5341 H 506.516 3.55014 2.31821 0
M  V30 5342 C 504.975 2.09822 2.63583 0
M  V30 5343 O 505.505 1.67574 3.65078 0
M  V30 5344 N 503.711 1.75478 2.31637 0
M  V30 5345 H 503.258 2.10032 1.49145 0
M  V30 5346 H 503.216 1.14079 2.92973 0
M  V30 5347 N 506.988 0.0434614 1.5754 0
M  V30 5348 C 507.936 -0.951465 2.1225 0
M  V30 5349 C 508.93 -1.3274 1.05245 0
M  V30 5350 O 510.136 -1.30795 1.23663 0
M  V30 5351 H 506.511 -0.324667 0.678303 0
M  V30 5352 H 508.482 -0.464855 2.94757 0
M  V30 5353 C 507.231 -2.21972 2.67626 0
M  V30 5354 H 506.554 -1.93923 3.4962 0
M  V30 5355 H 507.994 -2.89765 3.09536 0
M  V30 5356 C 506.453 -2.95919 1.61038 0
M  V30 5357 O 506.983 -3.8857 1.01862 0
M  V30 5358 N 505.189 -2.58511 1.32741 0
M  V30 5359 H 504.736 -1.83244 1.81051 0
M  V30 5360 H 504.694 -3.08296 0.616531 0
M  V30 5361 N 508.466 -1.55915 -0.229846 0
M  V30 5362 C 509.414 -1.9258 -1.30444 0
M  V30 5363 C 510.408 -0.806839 -1.48951 0
M  V30 5364 O 511.614 -0.991606 -1.50224 0
M  V30 5365 H 507.989 -0.611878 -0.437161 0
M  V30 5366 H 509.96 -2.82264 -0.96797 0
M  V30 5367 C 508.709 -2.25171 -2.6494 0
M  V30 5368 H 508.032 -3.10782 -2.51504 0
M  V30 5369 H 509.472 -2.54716 -3.38963 0
M  V30 5370 C 507.931 -1.07394 -3.19324 0
M  V30 5371 O 508.461 -0.330759 -4.00336 0
M  V30 5372 N 506.667 -0.859984 -2.77584 0
M  V30 5373 H 506.214 -1.46605 -2.11813 0
M  V30 5374 H 506.172 -0.0736671 -3.14314 0
M  V30 5375 N 509.944 0.496216 -1.49584 0
M  V30 5376 C 511.169 1.27865 -1.63295 0
M  V30 5377 C 511.594 1.85592 -0.306156 0
M  V30 5378 O 510.952 1.66092 0.726851 0
M  V30 5379 C 511 2.38128 -2.7079 0
M  V30 5380 O 510.104 3.42108 -2.30296 0
M  V30 5381 H 509.445 0.377279 -0.546403 0
M  V30 5382 H 511.975 0.593497 -1.95803 0
M  V30 5383 H 511.985 2.8382 -2.93104 0
M  V30 5384 H 510.66 1.95479 -3.67098 0
M  V30 5385 H 509.237 3.02301 -2.18331 0
M  V30 5386 N 511.423 1.38739 0.74761 0
M  V30 5387 C 512.648 1.38702 1.54197 0
M  V30 5388 C 513.073 -0.019664 1.8809 0
M  V30 5389 O 512.431 -1.00333 1.51006 0
M  V30 5390 C 512.479 2.25492 2.814 0
M  V30 5391 O 511.583 1.67613 3.76802 0
M  V30 5392 H 510.924 0.472863 0.466151 0
M  V30 5393 H 513.454 1.82577 0.923413 0
M  V30 5394 H 513.464 2.39561 3.30264 0
M  V30 5395 H 512.139 3.27727 2.56062 0
M  V30 5396 H 510.716 1.62718 3.35526 0
M  V30 5397 N 512.901 -0.976442 1.23707 0
M  V30 5398 C 514.178 -1.69296 0.979699 0
M  V30 5399 C 514.558 -2.0508 -0.500555 0
M  V30 5400 O 513.906 -1.74708 -1.47273 0
M  V30 5401 C 514.116 -2.93143 1.89389 0
M  V30 5402 C 515.464 -3.65572 2.15968 0
M  V30 5403 O 516.488 -3.03184 1.86971 0
M  V30 5404 O 515.347 -4.77859 2.65167 0
M  V30 5405 H 512.441 -0.739708 0.369812 0
M  V30 5406 H 514.987 -1.03131 1.34767 0
M  V30 5407 H 513.759 -2.63327 2.89439 0
M  V30 5408 H 513.382 -3.67044 1.52854 0
M  V30 5409 N 514.379 -1.04941 -1.1758 0
M  V30 5410 C 515.309 -0.669172 -2.23706 0
M  V30 5411 C 516.29 0.331835 -1.66832 0
M  V30 5412 O 517.475 0.209988 -1.93061 0
M  V30 5413 C 514.605 -0.0404889 -3.47276 0
M  V30 5414 C 513.559 -0.965983 -4.16957 0
M  V30 5415 C 512.885 -0.201312 -5.34321 0
M  V30 5416 C 514.185 -2.28902 -4.69469 0
M  V30 5417 H 515.879 -1.55639 -2.55767 0
M  V30 5418 H 513.425 -0.749793 -1.22939 0
M  V30 5419 H 515.378 0.237298 -4.20731 0
M  V30 5420 H 514.102 0.881658 -3.14475 0
M  V30 5421 H 512.761 -1.22829 -3.45411 0
M  V30 5422 H 512.409 0.723519 -4.97769 0
M  V30 5423 H 512.109 -0.817968 -5.81879 0
M  V30 5424 H 513.633 0.0692499 -6.10561 0
M  V30 5425 H 515.047 -2.07132 -5.34574 0
M  V30 5426 H 513.444 -2.85942 -5.27596 0
M  V30 5427 H 514.514 -2.92937 -3.86414 0
M  V30 5428 N 515.857 1.33968 -0.830081 0
M  V30 5429 C 516.807 2.26845 -0.229242 0
M  V30 5430 C 517.791 1.48862 0.610659 0
M  V30 5431 O 518.983 1.70808 0.464067 0
M  V30 5432 C 516.112 3.3798 0.602057 0
M  V30 5433 C 515.198 4.23369 -0.248866 0
M  V30 5434 N 515.589 4.88182 -1.32334 0
M  V30 5435 C 513.887 4.45987 -0.0344077 0
M  V30 5436 C 514.588 5.51671 -1.84482 0
M  V30 5437 N 513.564 5.31348 -1.14762 0
M  V30 5438 H 517.366 2.74464 -1.05104 0
M  V30 5439 H 514.88 1.4777 -0.673623 0
M  V30 5440 H 516.877 4.03494 1.04873 0
M  V30 5441 H 515.537 2.9191 1.42193 0
M  V30 5442 H 516.548 4.88988 -1.70619 0
M  V30 5443 H 513.225 4.10658 0.752727 0
M  V30 5444 H 514.615 6.13308 -2.74413 0
M  V30 5445 N 517.335 0.585699 1.46312 0
M  V30 5446 C 518.746 0.159938 1.86014 0
M  V30 5447 C 519.097 -1.27775 1.48889 0
M  V30 5448 O 518.222 -1.96559 0.90519 0
M  V30 5449 C 518.817 0.283485 3.37612 0
M  V30 5450 C 517.376 -0.0874256 3.76298 0
M  V30 5451 C 516.523 0.618055 2.70325 0
M  V30 5452 H 519.474 0.793737 1.37425 0
M  V30 5453 H 519.495 -0.490348 3.77327 0
M  V30 5454 H 519.007 1.32995 3.64601 0
M  V30 5455 H 517.108 -1.13391 3.54927 0
M  V30 5456 H 517.221 0.290975 4.78216 0
M  V30 5457 H 515.585 0.057993 2.54634 0
M  V30 5458 H 516.368 1.66623 3.00153 0
M  V30 5459 N 518.813 -1.54241 0.323641 0
M  V30 5460 C 519.763 -2.21071 -0.557833 0
M  V30 5461 C 520.747 -1.19126 -1.08157 0
M  V30 5462 O 521.939 -1.44755 -1.01857 0
M  V30 5463 C 519.068 -2.97208 -1.71821 0
M  V30 5464 C 518.154 -4.06491 -1.20936 0
M  V30 5465 N 518.545 -5.04052 -0.420202 0
M  V30 5466 C 516.843 -4.20443 -1.48808 0
M  V30 5467 C 517.544 -5.81516 -0.146413 0
M  V30 5468 N 516.52 -5.38641 -0.732562 0
M  V30 5469 H 520.322 -2.93853 0.0523921 0
M  V30 5470 H 517.836 -1.61883 0.129502 0
M  V30 5471 H 519.833 -3.4357 -2.36146 0
M  V30 5472 H 518.493 -2.25947 -2.33191 0
M  V30 5473 H 519.504 -5.17862 -0.0630401 0
M  V30 5474 H 516.181 -3.60396 -2.10762 0
M  V30 5475 H 517.571 -6.70119 0.488895 0
M  V30 5476 N 520.291 -0.0518155 -1.57515 0
M  V30 5477 C 521.238 0.922352 -2.11569 0
M  V30 5478 C 522.208 1.30842 -1.02321 0
M  V30 5479 O 523.393 1.39778 -1.29872 0
M  V30 5480 C 520.533 2.19167 -2.6657 0
M  V30 5481 C 519.646 1.86003 -3.89906 0
M  V30 5482 C 518.781 3.07398 -4.33221 0
M  V30 5483 C 517.82 2.70158 -5.49255 0
M  V30 5484 N 516.957 3.84248 -5.8762 0
M  V30 5485 H 521.797 0.454506 -2.94514 0
M  V30 5486 H 519.334 0.212718 -1.45554 0
M  V30 5487 H 521.292 2.93443 -2.96559 0
M  V30 5488 H 519.922 2.63528 -1.86421 0
M  V30 5489 H 518.974 1.01874 -3.66505 0
M  V30 5490 H 520.286 1.54592 -4.74239 0
M  V30 5491 H 519.44 3.89972 -4.64765 0
M  V30 5492 H 518.179 3.41988 -3.477 0
M  V30 5493 H 517.184 1.86001 -5.17382 0
M  V30 5494 H 518.409 2.36759 -6.36492 0
M  V30 5495 H 516.355 4.18638 -5.05053 0
M  V30 5496 H 516.272 3.56538 -6.66646 0
M  V30 5497 H 517.54 4.6746 -6.2378 0
M  V30 5498 N 521.769 1.56035 0.221574 0
M  V30 5499 C 522.719 1.8881 1.27807 0
M  V30 5500 C 523.703 0.751177 1.42289 0
M  V30 5501 O 524.895 1.01359 1.45104 0
M  V30 5502 C 522.024 2.20828 2.6285 0
M  V30 5503 C 521.11 3.40912 2.52269 0
M  V30 5504 N 521.501 4.59531 2.1134 0
M  V30 5505 C 519.799 3.44526 2.83228 0
M  V30 5506 C 520.5 5.41689 2.1201 0
M  V30 5507 N 519.476 4.814 2.52497 0
M  V30 5508 H 523.278 2.78036 0.952529 0
M  V30 5509 H 520.792 1.566 0.430134 0
M  V30 5510 H 522.789 2.42483 3.39127 0
M  V30 5511 H 521.449 1.32914 2.9625 0
M  V30 5512 H 522.46 4.8469 1.82472 0
M  V30 5513 H 519.137 2.66956 3.21 0
M  V30 5514 H 520.527 6.46643 1.82491 0
M  V30 5515 N 523.247 -0.488276 1.49845 0
M  V30 5516 C 524.197 -1.58556 1.63842 0
M  V30 5517 C 525.181 -1.53142 0.493586 0
M  V30 5518 O 526.373 -1.60457 0.747169 0
M  V30 5519 C 523.502 -2.97101 1.72005 0
M  V30 5520 C 522.588 -3.07463 2.92108 0
M  V30 5521 N 522.979 -2.87681 4.16021 0
M  V30 5522 C 521.277 -3.3858 2.90309 0
M  V30 5523 C 521.978 -3.0256 4.96822 0
M  V30 5524 N 520.954 -3.32002 4.30437 0
M  V30 5525 H 524.756 -1.41935 2.57355 0
M  V30 5526 H 522.27 -0.694668 1.46793 0
M  V30 5527 H 524.267 -3.75976 1.80132 0
M  V30 5528 H 522.927 -3.14782 0.796375 0
M  V30 5529 H 523.938 -2.63603 4.45796 0
M  V30 5530 H 520.615 -3.62357 2.07372 0
M  V30 5531 H 522.005 -2.9165 6.05301 0
M  V30 5532 N 524.725 -1.39134 -0.740242 0
M  V30 5533 C 525.95 -1.39518 -1.53459 0
M  V30 5534 C 526.375 0.00968883 -1.88098 0
M  V30 5535 O 525.733 0.995312 -1.51536 0
M  V30 5536 C 525.781 -2.26981 -2.802 0
M  V30 5537 O 524.885 -1.69609 -3.75908 0
M  V30 5538 H 524.226 -0.475328 -0.463637 0
M  V30 5539 H 526.756 -1.83064 -0.913717 0
M  V30 5540 H 526.766 -2.41309 -3.28989 0
M  V30 5541 H 525.441 -3.29081 -2.5432 0
M  V30 5542 H 524.018 -1.64495 -3.34658 0
M  V30 5543 N 526.204 0.969867 -1.24223 0
M  V30 5544 C 527.154 2.04913 -0.999732 0
M  V30 5545 C 528.138 1.60795 0.0580636 0
M  V30 5546 O 529.33 1.76317 -0.155392 0
M  V30 5547 C 526.459 3.37942 -0.604154 0
M  V30 5548 C 525.545 3.88628 -1.69791 0
M  V30 5549 N 525.936 4.12274 -2.93025 0
M  V30 5550 C 524.234 4.17268 -1.57492 0
M  V30 5551 C 524.935 4.53808 -3.63914 0
M  V30 5552 N 523.911 4.58855 -2.91468 0
M  V30 5553 H 527.713 2.21168 -1.93551 0
M  V30 5554 H 525.227 1.15349 -1.14317 0
M  V30 5555 H 527.224 4.14863 -0.411665 0
M  V30 5556 H 525.884 3.23075 0.324465 0
M  V30 5557 H 526.895 3.99789 -3.29225 0
M  V30 5558 H 523.572 4.11346 -0.714175 0
M  V30 5559 H 524.962 4.80534 -4.69614 0
M  V30 5560 N 527.682 1.05563 1.17022 0
M  V30 5561 C 528.592 0.670758 2.24807 0
M  V30 5562 C 529.608 -0.309865 1.71219 0
M  V30 5563 O 530.784 -0.161025 2.00755 0
M  V30 5564 C 527.849 0.055337 3.46656 0
M  V30 5565 C 526.91 1.08688 4.15314 0
M  V30 5566 C 526.143 0.500736 5.31346 0
M  V30 5567 O 526.366 -0.688718 5.66227 0
M  V30 5568 O 525.3 1.23683 5.89055 0
M  V30 5569 H 529.126 1.56914 2.60023 0
M  V30 5570 H 526.711 0.827428 1.24395 0
M  V30 5571 H 528.593 -0.286492 4.20425 0
M  V30 5572 H 527.268 -0.816638 3.13229 0
M  V30 5573 H 526.175 1.48077 3.43546 0
M  V30 5574 H 527.508 1.93014 4.52777 0
M  V30 5575 N 529.16 -1.33526 0.837174 0
M  V30 5576 C 530.092 -2.28077 0.226579 0
M  V30 5577 C 531.105 -1.51666 -0.591717 0
M  V30 5578 O 532.294 -1.73511 -0.419064 0
M  V30 5579 C 529.394 -3.31597 -0.69978 0
M  V30 5580 C 528.567 -4.37329 0.0788067 0
M  V30 5581 C 527.626 -5.20526 -0.770637 0
M  V30 5582 O 526.652 -5.68811 -0.210453 0
M  V30 5583 N 527.854 -5.41639 -2.08825 0
M  V30 5584 H 530.619 -2.81115 1.03897 0
M  V30 5585 H 528.18 -1.46201 0.695476 0
M  V30 5586 H 530.172 -3.84158 -1.27298 0
M  V30 5587 H 528.742 -2.78848 -1.41288 0
M  V30 5588 H 527.962 -3.8529 0.833381 0
M  V30 5589 H 529.25 -5.05079 0.614238 0
M  V30 5590 H 528.648 -5.04108 -2.56693 0
M  V30 5591 H 527.205 -5.97263 -2.60998 0
M  V30 5592 N 530.638 -0.59345 -1.46 0
M  V30 5593 C 531.588 0.154751 -2.27474 0
M  V30 5594 C 532.572 0.851849 -1.365 0
M  V30 5595 O 533.764 0.744171 -1.60596 0
M  V30 5596 C 530.893 1.16079 -3.2308 0
M  V30 5597 C 529.979 0.465256 -4.2154 0
M  V30 5598 N 530.37 -0.485197 -5.03467 0
M  V30 5599 C 528.668 0.714634 -4.40237 0
M  V30 5600 C 529.369 -0.892709 -5.74809 0
M  V30 5601 N 528.345 -0.239511 -5.43072 0
M  V30 5602 H 532.147 -0.57546 -2.88211 0
M  V30 5603 H 529.661 -0.416046 -1.5698 0
M  V30 5604 H 531.658 1.71108 -3.80168 0
M  V30 5605 H 530.318 1.89171 -2.63903 0
M  V30 5606 H 531.329 -0.861258 -5.10689 0
M  V30 5607 H 528.006 1.43131 -3.92199 0
M  V30 5608 H 529.396 -1.67581 -6.50666 0
M  V30 5609 N 532.116 1.54067 -0.331816 0
M  V30 5610 C 533.527 1.86059 0.15454 0
M  V30 5611 C 533.878 1.25331 1.50952 0
M  V30 5612 O 533.003 0.562441 2.08963 0
M  V30 5613 C 533.598 3.37581 0.287192 0
M  V30 5614 C 532.157 3.69493 0.717773 0
M  V30 5615 C 531.304 2.76863 -0.155569 0
M  V30 5616 H 534.255 1.48797 -0.55182 0
M  V30 5617 H 534.276 3.63744 1.11671 0
M  V30 5618 H 533.788 3.81751 -0.699131 0
M  V30 5619 H 531.889 3.3086 1.71354 0
M  V30 5620 H 532.002 4.76315 0.5158 0
M  V30 5621 H 530.366 2.51995 0.370213 0
M  V30 5622 H 531.149 3.23861 -1.13881 0
M  V30 5623 N 533.594 0.0601682 1.57485 0
M  V30 5624 C 534.544 -0.920969 2.08572 0
M  V30 5625 C 535.528 -1.26617 0.992827 0
M  V30 5626 O 536.72 -1.24708 1.25606 0
M  V30 5627 C 533.849 -2.19267 2.64153 0
M  V30 5628 C 532.935 -1.87447 3.80427 0
M  V30 5629 N 533.326 -1.26025 4.89848 0
M  V30 5630 C 531.624 -2.17265 3.89502 0
M  V30 5631 C 532.325 -1.12036 5.70809 0
M  V30 5632 N 531.301 -1.62624 5.18705 0
M  V30 5633 H 535.103 -0.441561 2.90564 0
M  V30 5634 H 532.617 -0.144043 1.6176 0
M  V30 5635 H 534.614 -2.90462 2.99061 0
M  V30 5636 H 533.274 -2.67806 1.83603 0
M  V30 5637 H 534.285 -0.931336 5.09457 0
M  V30 5638 H 530.962 -2.68262 3.19909 0
M  V30 5639 H 532.352 -0.642783 6.68818 0
M  V30 5640 N 535.072 -1.5615 -0.213296 0
M  V30 5641 C 536.32 -1.79191 -0.934612 0
M  V30 5642 C 536.641 -0.630112 -1.84539 0
M  V30 5643 O 535.911 0.35257 -1.92701 0
M  V30 5644 H 534.491 -0.660937 -0.348097 0
M  V30 5645 H 537.153 -1.93618 -0.22317 0
M  V30 5646 H 536.249 -2.71656 -1.53654 0
M  V30 5647 N 536.55 0.480323 -1.50102 0
M  V30 5648 C 537.5 1.57685 -1.6468 0
M  V30 5649 C 538.484 1.52878 -0.5017 0
M  V30 5650 O 539.676 1.60058 -0.755668 0
M  V30 5651 C 536.805 2.96185 -1.73578 0
M  V30 5652 C 535.891 3.0591 -2.93734 0
M  V30 5653 N 536.282 2.85471 -4.1754 0
M  V30 5654 C 534.58 3.37036 -2.92101 0
M  V30 5655 C 535.281 2.99921 -4.9842 0
M  V30 5656 N 534.257 3.29715 -4.32191 0
M  V30 5657 H 538.059 1.40568 -2.58104 0
M  V30 5658 H 535.573 0.686874 -1.47159 0
M  V30 5659 H 537.57 3.75015 -1.82124 0
M  V30 5660 H 536.23 3.14356 -0.813057 0
M  V30 5661 H 537.241 2.61235 -4.47188 0
M  V30 5662 H 533.918 3.61253 -2.09291 0
M  V30 5663 H 535.308 2.88436 -6.06839 0
M  V30 5664 N 538.028 1.39524 0.732853 0
M  V30 5665 C 538.978 1.34905 1.83806 0
M  V30 5666 C 539.962 0.229546 1.59254 0
M  V30 5667 O 541.154 0.467255 1.70721 0
M  V30 5668 C 538.283 1.19699 3.21756 0
M  V30 5669 C 537.369 2.36359 3.5213 0
M  V30 5670 N 537.76 3.61834 3.53426 0
M  V30 5671 C 536.058 2.29363 3.82503 0
M  V30 5672 C 536.759 4.38992 3.81655 0
M  V30 5673 N 535.735 3.68606 3.99538 0
M  V30 5674 H 539.537 2.29882 1.83116 0
M  V30 5675 H 537.051 1.33051 0.931194 0
M  V30 5676 H 539.048 1.14472 4.00876 0
M  V30 5677 H 537.708 0.256739 3.23683 0
M  V30 5678 H 538.719 3.95228 3.34686 0
M  V30 5679 H 535.396 1.43612 3.92023 0
M  V30 5680 H 536.786 5.47763 3.89108 0
M  V30 5681 N 539.506 -0.963266 1.24736 0
M  V30 5682 C 540.917 -1.52145 1.08207 0
M  V30 5683 C 541.268 -1.93142 -0.345061 0
M  V30 5684 O 540.393 -1.77769 -1.23399 0
M  V30 5685 C 540.988 -2.76486 1.95808 0
M  V30 5686 C 539.547 -3.28646 1.8349 0
M  V30 5687 C 538.694 -2.01529 1.90476 0
M  V30 5688 H 541.645 -0.781083 1.38148 0
M  V30 5689 H 541.666 -3.49986 1.49297 0
M  V30 5690 H 541.178 -2.46617 2.99669 0
M  V30 5691 H 539.279 -3.63357 0.824787 0
M  V30 5692 H 539.392 -3.97246 2.67829 0
M  V30 5693 H 537.756 -2.16442 1.34258 0
M  V30 5694 H 538.539 -1.7402 2.95926 0
M  V30 5695 N 540.985 -1.06182 -1.16461 0
M  V30 5696 C 541.935 -0.641619 -2.18786 0
M  V30 5697 C 542.919 0.327122 -1.5754 0
M  V30 5698 O 544.111 0.142746 -1.76423 0
M  V30 5699 C 541.24 -0.0283734 -3.43288 0
M  V30 5700 C 540.326 -1.02154 -4.11613 0
M  V30 5701 N 540.717 -2.19671 -4.55608 0
M  V30 5702 C 539.015 -0.852229 -4.37782 0
M  V30 5703 C 539.716 -2.82583 -5.0845 0
M  V30 5704 N 538.692 -2.10318 -5.01266 0
M  V30 5705 H 542.494 -1.53684 -2.50516 0
M  V30 5706 H 540.008 -0.933349 -1.329 0
M  V30 5707 H 542.005 0.29049 -4.15887 0
M  V30 5708 H 540.665 0.862118 -3.13046 0
M  V30 5709 H 541.676 -2.57453 -4.49375 0
M  V30 5710 H 538.353 -0.0136314 -4.17498 0
M  V30 5711 H 539.743 -3.82298 -5.52538 0
M  V30 5712 N 542.463 1.3308 -0.844243 0
M  V30 5713 C 543.426 2.27403 -0.286485 0
M  V30 5714 C 544.426 1.51179 0.547872 0
M  V30 5715 O 545.616 1.70421 0.360886 0
M  V30 5716 C 542.748 3.35653 0.595813 0
M  V30 5717 H 543.941 2.78248 -1.11885 0
M  V30 5718 H 541.494 1.43574 -0.617749 0
M  V30 5719 H 542.229 2.90058 1.4504 0
M  V30 5720 H 542.014 3.921 -0.00125994 0
M  V30 5721 H 543.504 4.05958 0.979168 0
M  V30 5722 N 543.941 0.601185 1.45683 0
M  V30 5723 C 544.891 -0.142686 2.27553 0
M  V30 5724 C 545.875 -0.844598 1.3695 0
M  V30 5725 O 547.067 -0.735644 1.60988 0
M  V30 5726 C 544.196 -1.14364 3.23691 0
M  V30 5727 C 543.282 -0.442894 4.21781 0
M  V30 5728 N 543.673 0.51189 5.03203 0
M  V30 5729 C 541.971 -0.691277 4.4061 0
M  V30 5730 C 542.672 0.92318 5.74328 0
M  V30 5731 N 541.648 0.268308 5.42937 0
M  V30 5732 H 545.45 0.590736 2.87902 0
M  V30 5733 H 542.964 0.424365 1.56757 0
M  V30 5734 H 544.961 -1.6909 3.8107 0
M  V30 5735 H 543.621 -1.87768 2.64902 0
M  V30 5736 H 544.632 0.888329 5.10225 0
M  V30 5737 H 541.309 -1.41049 3.92952 0
M  V30 5738 H 542.699 1.71029 6.49768 0
M  V30 5739 N 545.419 -1.53889 0.339982 0
M  V30 5740 C 546.369 -2.2165 -0.534354 0
M  V30 5741 C 547.353 -1.20266 -1.06887 0
M  V30 5742 O 548.545 -1.45827 -1.00316 0
M  V30 5743 C 545.674 -2.99014 -1.68659 0
M  V30 5744 C 544.76 -4.07751 -1.16618 0
M  V30 5745 N 545.151 -5.04469 -0.366717 0
M  V30 5746 C 543.449 -4.21998 -1.4434 0
M  V30 5747 C 544.15 -5.81638 -0.0847275 0
M  V30 5748 N 543.126 -5.39388 -0.675391 0
M  V30 5749 H 546.928 -2.93781 0.0835562 0
M  V30 5750 H 544.442 -1.61736 0.146665 0
M  V30 5751 H 546.439 -3.46056 -2.32489 0
M  V30 5752 H 545.099 -2.28408 -2.30781 0
M  V30 5753 H 546.11 -5.17899 -0.00811038 0
M  V30 5754 H 542.787 -3.62612 -2.06928 0
M  V30 5755 H 544.177 -6.69563 0.559943 0
M  V30 5756 N 546.897 -0.0685191 -1.57451 0
M  V30 5757 C 548.308 0.464634 -1.80826 0
M  V30 5758 C 548.659 1.69847 -0.982169 0
M  V30 5759 O 547.784 2.15439 -0.203734 0
M  V30 5760 C 548.379 0.849721 -3.27971 0
M  V30 5761 C 546.938 1.32776 -3.52204 0
M  V30 5762 C 546.085 0.311332 -2.75547 0
M  V30 5763 H 549.036 -0.294248 -1.55948 0
M  V30 5764 H 549.057 1.71138 -3.39841 0
M  V30 5765 H 548.569 -0.0484736 -3.8807 0
M  V30 5766 H 546.67 2.24456 -2.97406 0
M  V30 5767 H 546.783 1.30794 -4.60901 0
M  V30 5768 H 545.147 0.787915 -2.42206 0
M  V30 5769 H 545.93 -0.579078 -3.38381 0
M  V30 5770 N 548.375 1.56261 0.205012 0
M  V30 5771 C 549.325 1.90155 1.25798 0
M  V30 5772 C 550.309 0.766227 1.41484 0
M  V30 5773 O 551.501 1.02893 1.44021 0
M  V30 5774 C 548.63 2.23603 2.60493 0
M  V30 5775 C 547.716 3.43568 2.48639 0
M  V30 5776 N 548.107 4.61747 2.06455 0
M  V30 5777 C 546.405 3.4751 2.79558 0
M  V30 5778 C 547.106 5.43907 2.06253 0
M  V30 5779 N 546.082 4.84051 2.47377 0
M  V30 5780 H 549.884 2.79031 0.922986 0
M  V30 5781 H 547.398 1.57048 0.413501 0
M  V30 5782 H 549.395 2.46067 3.36537 0
M  V30 5783 H 548.055 1.36049 2.94823 0
M  V30 5784 H 549.066 4.86598 1.77321 0
M  V30 5785 H 545.743 2.70345 3.18151 0
M  V30 5786 H 547.133 6.48542 1.75622 0
M  V30 5787 N 549.853 -0.472356 1.50355 0
M  V30 5788 C 550.763 -1.59637 1.7191 0
M  V30 5789 C 551.779 -1.63247 0.602195 0
M  V30 5790 O 552.955 -1.81139 0.880369 0
M  V30 5791 C 550.02 -2.9586 1.80742 0
M  V30 5792 C 549.081 -3.02649 3.04471 0
M  V30 5793 C 548.314 -4.32374 3.12872 0
M  V30 5794 O 548.537 -5.22807 2.28099 0
M  V30 5795 O 547.471 -4.44728 4.05587 0
M  V30 5796 H 551.297 -1.44373 2.67189 0
M  V30 5797 H 548.882 -0.651717 1.34436 0
M  V30 5798 H 550.764 -3.7677 1.88739 0
M  V30 5799 H 549.439 -3.11325 0.88647 0
M  V30 5800 H 548.346 -2.20821 3.01975 0
M  V30 5801 H 549.679 -2.92119 3.9614 0
M  V30 5802 N 551.331 -1.39911 -0.725443 0
M  V30 5803 C 552.281 -1.35878 -1.83088 0
M  V30 5804 C 553.265 -0.237989 -1.5913 0
M  V30 5805 O 554.457 -0.476302 -1.70471 0
M  V30 5806 C 551.586 -1.21403 -3.21117 0
M  V30 5807 C 550.672 -2.38223 -3.50871 0
M  V30 5808 N 551.063 -3.63703 -3.51502 0
M  V30 5809 C 549.361 -2.31388 -3.81281 0
M  V30 5810 C 550.062 -4.4101 -3.79322 0
M  V30 5811 N 549.038 -3.7072 -3.97577 0
M  V30 5812 H 552.84 -2.3085 -1.81895 0
M  V30 5813 H 550.354 -1.33543 -0.924125 0
M  V30 5814 H 552.351 -1.16597 -4.00263 0
M  V30 5815 H 551.011 -0.273902 -3.23543 0
M  V30 5816 H 552.022 -3.96998 -3.32586 0
M  V30 5817 H 548.699 -1.45689 -3.91256 0
M  V30 5818 H 550.089 -5.49819 -3.86198 0
M  V30 5819 N 552.809 0.956637 -1.25245 0
M  V30 5820 C 554.086 1.67716 -1.00651 0
M  V30 5821 C 554.466 2.0585 0.467866 0
M  V30 5822 O 553.814 1.77029 1.44475 0
M  V30 5823 C 554.024 2.90093 -1.94028 0
M  V30 5824 C 555.372 3.6209 -2.21756 0
M  V30 5825 O 556.396 3.00171 -1.9177 0
M  V30 5826 O 555.255 4.7358 -2.72735 0
M  V30 5827 H 552.349 0.733731 -0.381533 0
M  V30 5828 H 554.895 1.00974 -1.3639 0
M  V30 5829 H 553.667 2.58689 -2.93591 0
M  V30 5830 H 553.29 3.64566 -1.58674 0
M  V30 5831 N 554.287 1.06798 1.15896 0
M  V30 5832 C 555.515 0.808694 1.90441 0
M  V30 5833 C 555.93 -0.637506 1.77711 0
M  V30 5834 O 555.287 -1.43684 1.12522 0
M  V30 5835 C 555.338 1.20068 3.40978 0
M  V30 5836 O 555.059 2.59013 3.53333 0
M  V30 5837 C 556.56 0.96987 4.3256 0
M  V30 5838 H 553.78 0.292809 0.603742 0
M  V30 5839 H 556.324 1.42296 1.46874 0
M  V30 5840 H 554.479 0.630842 3.82229 0
M  V30 5841 H 554.893 2.7485 4.46719 0
M  V30 5842 H 556.367 1.29371 5.36626 0
M  V30 5843 H 556.844 -0.0941209 4.39099 0
M  V30 5844 H 557.45 1.52433 3.97044 0
M  V30 5845 N 555.766 -1.3263 0.851289 0
M  V30 5846 C 556.716 -2.26451 0.265302 0
M  V30 5847 C 557.7 -1.49814 -0.586899 0
M  V30 5848 O 558.892 -1.71525 -0.436834 0
M  V30 5849 C 556.021 -3.38895 -0.548212 0
M  V30 5850 C 555.107 -4.2292 0.316189 0
M  V30 5851 N 555.498 -4.86014 1.40084 0
M  V30 5852 C 553.796 -4.45876 0.105356 0
M  V30 5853 C 554.497 -5.48667 1.93235 0
M  V30 5854 N 553.473 -5.29455 1.232 0
M  V30 5855 H 557.275 -2.72757 1.09457 0
M  V30 5856 H 554.789 -1.4668 0.697047 0
M  V30 5857 H 556.786 -4.05111 -0.984402 0
M  V30 5858 H 555.446 -2.94135 -1.37531 0
M  V30 5859 H 556.457 -4.86212 1.78377 0
M  V30 5860 H 553.134 -4.11804 -0.687299 0
M  V30 5861 H 554.524 -6.08865 2.84135 0
M  V30 5862 N 557.244 -0.608902 -1.45362 0
M  V30 5863 C 558.66 -0.272659 -1.57254 0
M  V30 5864 C 558.86 1.22477 -1.60005 0
M  V30 5865 O 557.916 2.00785 -1.53106 0
M  V30 5866 C 559.229 -0.944991 -2.85465 0
M  V30 5867 C 560.777 -0.921033 -2.99142 0
M  V30 5868 C 561.252 -1.5734 -4.30126 0
M  V30 5869 N 562.743 -1.53895 -4.36887 0
M  V30 5870 C 563.478 -2.01286 -5.36909 0
M  V30 5871 N 562.974 -2.56768 -6.43461 0
M  V30 5872 N 564.767 -1.92046 -5.28275 0
M  V30 5873 H 556.918 -1.58117 -1.4182 0
M  V30 5874 H 559.181 -0.662437 -0.678146 0
M  V30 5875 H 558.887 -1.99941 -2.89338 0
M  V30 5876 H 558.761 -0.469079 -3.74272 0
M  V30 5877 H 561.148 0.124846 -2.94836 0
M  V30 5878 H 561.229 -1.43522 -2.11743 0
M  V30 5879 H 560.873 -2.61862 -4.35191 0
M  V30 5880 H 560.803 -1.03422 -5.16344 0
M  V30 5881 H 563.294 -1.13366 -3.60495 0
M  V30 5882 H 563.607 -2.9072 -7.16032 0
M  V30 5883 H 561.952 -2.60808 -6.44208 0
M  V30 5884 H 565.143 -1.48439 -4.43941 0
M  V30 5885 H 565.316 -2.29293 -6.06077 0
M  V30 5886 N 558.722 1.53707 -0.348139 0
M  V30 5887 C 559.654 2.22725 0.540946 0
M  V30 5888 C 560.667 1.2354 1.06027 0
M  V30 5889 O 561.856 1.49867 0.96964 0
M  V30 5890 C 558.956 2.89756 1.75768 0
M  V30 5891 C 558.129 4.15297 1.37285 0
M  V30 5892 C 557.188 4.65697 2.44976 0
M  V30 5893 O 556.214 5.29798 2.08092 0
M  V30 5894 N 557.416 4.42017 3.763 0
M  V30 5895 H 560.181 2.99658 -0.0501592 0
M  V30 5896 H 557.742 1.60979 -0.17248 0
M  V30 5897 H 559.734 3.20388 2.47252 0
M  V30 5898 H 558.304 2.16382 2.25605 0
M  V30 5899 H 557.524 3.9116 0.488584 0
M  V30 5900 H 558.812 4.96948 1.09179 0
M  V30 5901 H 558.21 3.9076 4.09051 0
M  V30 5902 H 556.767 4.77242 4.4394 0
M  V30 5903 N 560.2 0.0768682 1.57412 0
M  V30 5904 C 561.15 -0.898795 2.09537 0
M  V30 5905 C 562.134 -1.25556 1.0062 0
M  V30 5906 O 563.326 -1.23369 1.26921 0
M  V30 5907 C 560.455 -2.16453 2.66464 0
M  V30 5908 C 559.541 -1.83401 3.82393 0
M  V30 5909 N 559.932 -1.20823 4.91157 0
M  V30 5910 C 558.23 -2.13121 3.91785 0
M  V30 5911 C 558.931 -1.05976 5.71965 0
M  V30 5912 N 557.907 -1.57113 5.204 0
M  V30 5913 H 561.709 -0.410718 2.91016 0
M  V30 5914 H 559.223 -0.126878 1.61904 0
M  V30 5915 H 561.22 -2.87274 3.02125 0
M  V30 5916 H 559.88 -2.65844 1.86433 0
M  V30 5917 H 560.891 -0.877249 5.10416 0
M  V30 5918 H 557.568 -2.64854 3.22736 0
M  V30 5919 H 558.958 -0.571809 6.69462 0
M  V30 5920 N 561.678 -1.56367 -0.196722 0
M  V30 5921 C 563.089 -1.70462 -0.761545 0
M  V30 5922 C 563.44 -0.683161 -1.83922 0
M  V30 5923 O 562.565 0.160753 -2.15802 0
M  V30 5924 C 563.16 -3.09057 -1.38814 0
M  V30 5925 C 561.719 -3.24922 -1.90007 0
M  V30 5926 C 560.866 -2.66412 -0.769399 0
M  V30 5927 H 563.817 -1.58675 0.0283263 0
M  V30 5928 H 563.838 -3.06296 -2.2575 0
M  V30 5929 H 563.35 -3.83378 -0.603559 0
M  V30 5930 H 561.451 -2.55514 -2.71189 0
M  V30 5931 H 561.564 -4.3241 -2.06297 0
M  V30 5932 H 559.928 -2.25546 -1.18326 0
M  V30 5933 H 560.711 -3.433 0.00291773 0
M  V30 5934 N 563.156 0.464375 -1.50603 0
M  V30 5935 C 564.106 1.55929 -1.66343 0
M  V30 5936 C 565.09 1.52338 -0.517887 0
M  V30 5937 O 566.282 1.59248 -0.772601 0
M  V30 5938 C 563.411 2.94327 -1.7671 0
M  V30 5939 C 562.497 3.02777 -2.96962 0
M  V30 5940 N 562.888 2.81026 -4.20545 0
M  V30 5941 C 561.186 3.33919 -2.95659 0
M  V30 5942 C 561.887 2.94618 -5.01573 0
M  V30 5943 N 560.863 3.25112 -4.35664 0
M  V30 5944 H 564.665 1.37822 -2.59581 0
M  V30 5945 H 562.179 0.671227 -1.47879 0
M  V30 5946 H 564.176 3.73063 -1.86091 0
M  V30 5947 H 562.836 3.13476 -0.846353 0
M  V30 5948 H 563.847 2.56477 -4.49933 0
M  V30 5949 H 560.524 3.59013 -2.13111 0
M  V30 5950 H 561.914 2.81984 -6.09865 0
M  V30 5951 N 564.634 1.40294 0.718013 0
M  V30 5952 C 565.882 1.38167 1.47494 0
M  V30 5953 C 566.203 -0.01607 1.94993 0
M  V30 5954 O 565.473 -0.970396 1.70177 0
M  V30 5955 H 564.053 0.508505 0.547203 0
M  V30 5956 H 566.715 1.75324 0.851322 0
M  V30 5957 H 565.811 2.05503 2.34894 0
M  V30 5958 N 566.112 -0.949982 1.2575 0
M  V30 5959 C 567.062 -2.03297 1.03221 0
M  V30 5960 C 568.046 -1.60867 -0.0324751 0
M  V30 5961 O 569.238 -1.76047 0.183423 0
M  V30 5962 C 566.367 -3.36938 0.657841 0
M  V30 5963 C 565.453 -3.85878 1.75952 0
M  V30 5964 N 565.844 -4.0756 2.99547 0
M  V30 5965 C 564.142 -4.14709 1.64111 0
M  V30 5966 C 564.843 -4.47961 3.71087 0
M  V30 5967 N 563.819 -4.5416 2.98731 0
M  V30 5968 H 567.621 -2.1806 1.97045 0
M  V30 5969 H 565.135 -1.13516 1.16138 0
M  V30 5970 H 567.132 -4.14155 0.477614 0
M  V30 5971 H 565.792 -3.2355 -0.273025 0
M  V30 5972 H 566.803 -3.94501 3.35544 0
M  V30 5973 H 563.48 -4.10158 0.779527 0
M  V30 5974 H 564.87 -4.73002 4.77199 0
M  V30 5975 N 567.59 -1.07411 -1.15328 0
M  V30 5976 C 568.54 -0.664788 -2.18093 0
M  V30 5977 C 569.524 0.310395 -1.57878 0
M  V30 5978 O 570.716 0.124026 -1.76565 0
M  V30 5979 C 567.845 -0.0647822 -3.43239 0
M  V30 5980 C 566.931 -1.06514 -4.10506 0
M  V30 5981 N 567.322 -2.24491 -4.53252 0
M  V30 5982 C 565.62 -0.898613 -4.36853 0
M  V30 5983 C 566.321 -2.8796 -5.05424 0
M  V30 5984 N 565.297 -2.15622 -4.99007 0
M  V30 5985 H 569.099 -1.56333 -2.48872 0
M  V30 5986 H 566.613 -0.947393 -1.31902 0
M  V30 5987 H 568.61 0.246363 -4.16171 0
M  V30 5988 H 567.27 0.828866 -3.13943 0
M  V30 5989 H 568.281 -2.62205 -4.46619 0
M  V30 5990 H 564.958 -0.0579118 -4.1746 0
M  V30 5991 H 566.348 -3.88137 -5.48452 0
M  V30 5992 N 569.068 1.32177 -0.85831 0
M  V30 5993 C 570.479 1.79381 -0.517621 0
M  V30 5994 C 570.83 1.70841 0.964769 0
M  V30 5995 O 569.955 1.26917 1.75274 0
M  V30 5996 C 570.55 3.25706 -0.932801 0
M  V30 5997 C 569.109 3.70851 -0.643953 0
M  V30 5998 C 568.256 2.53208 -1.13054 0
M  V30 5999 H 571.207 1.19424 -1.04516 0
M  V30 6000 H 571.228 3.79673 -0.250674 0
M  V30 6001 H 570.74 3.31889 -2.01174 0
M  V30 6002 H 568.841 3.70178 0.424112 0
M  V30 6003 H 568.954 4.63495 -1.21281 0
M  V30 6004 H 567.318 2.48676 -0.550679 0
M  V30 6005 H 568.101 2.62143 -2.21666 0
M  V30 6006 N 570.547 0.616602 1.45037 0
M  V30 6007 C 571.497 -0.118543 2.27692 0
M  V30 6008 C 572.481 -0.830025 1.37838 0
M  V30 6009 O 573.673 -0.718528 1.6176 0
M  V30 6010 C 570.802 -1.10924 3.24886 0
M  V30 6011 C 569.888 -0.398134 4.22227 0
M  V30 6012 N 570.279 0.565233 5.02632 0
M  V30 6013 C 568.577 -0.644506 4.41319 0
M  V30 6014 C 569.278 0.984043 5.73316 0
M  V30 6015 N 568.254 0.325879 5.42622 0
M  V30 6016 H 572.056 0.621239 2.87259 0
M  V30 6017 H 569.57 0.440968 1.56299 0
M  V30 6018 H 571.567 -1.65038 3.82842 0
M  V30 6019 H 570.227 -1.84948 2.66879 0
M  V30 6020 H 571.238 0.942395 5.09254 0
M  V30 6021 H 567.915 -1.36873 3.94426 0
M  V30 6022 H 569.305 1.77911 6.47918 0
M  V30 6023 N 572.025 -1.5352 0.356285 0
M  V30 6024 C 573.273 -2.00719 -0.235837 0
M  V30 6025 C 573.594 -1.24551 -1.5004 0
M  V30 6026 O 572.864 -0.356185 -1.92635 0
M  V30 6027 H 571.444 -0.741542 -0.0901366 0
M  V30 6028 H 574.106 -1.88887 0.480378 0
M  V30 6029 H 573.202 -3.08551 -0.469357 0
M  V30 6030 N 573.503 -0.0852151 -1.57369 0
M  V30 6031 C 574.453 0.88767 -2.10011 0
M  V30 6032 C 575.437 1.25021 -1.01285 0
M  V30 6033 O 576.629 1.22694 -1.27574 0
M  V30 6034 C 573.758 2.15037 -2.67608 0
M  V30 6035 C 572.844 1.81371 -3.83361 0
M  V30 6036 N 573.235 1.18216 -4.91791 0
M  V30 6037 C 571.533 2.11041 -3.92909 0
M  V30 6038 C 572.234 1.02941 -5.72519 0
M  V30 6039 N 571.21 1.54351 -5.21226 0
M  V30 6040 H 575.012 0.395279 -2.9123 0
M  V30 6041 H 572.526 0.11829 -1.61969 0
M  V30 6042 H 574.523 2.85667 -3.03644 0
M  V30 6043 H 573.183 2.64851 -1.8784 0
M  V30 6044 H 574.194 0.850168 -5.10874 0
M  V30 6045 H 570.871 2.63138 -3.24136 0
M  V30 6046 H 572.261 0.536298 -6.69756 0
M  V30 6047 N 574.981 1.5647 0.188427 0
M  V30 6048 C 575.931 1.91479 1.23774 0
M  V30 6049 C 576.915 0.78119 1.40664 0
M  V30 6050 O 578.107 1.04414 1.42922 0
M  V30 6051 C 575.236 2.26354 2.58106 0
M  V30 6052 C 574.322 3.46186 2.44981 0
M  V30 6053 N 574.713 4.63911 2.01546 0
M  V30 6054 C 573.011 3.50456 2.75856 0
M  V30 6055 C 573.712 5.46064 2.00472 0
M  V30 6056 N 572.688 4.86648 2.42229 0
M  V30 6057 H 576.49 2.79994 0.893339 0
M  V30 6058 H 574.004 1.57477 0.39682 0
M  V30 6059 H 576.001 2.49622 3.33908 0
M  V30 6060 H 574.661 1.39168 2.93364 0
M  V30 6061 H 575.672 4.88451 1.7215 0
M  V30 6062 H 572.349 2.73704 3.15265 0
M  V30 6063 H 573.739 6.50368 1.68734 0
M  V30 6064 N 576.459 -0.456382 1.50847 0
M  V30 6065 C 577.87 -1.03685 1.55262 0
M  V30 6066 C 578.221 -1.92779 0.364771 0
M  V30 6067 O 577.346 -2.10043 -0.52068 0
M  V30 6068 C 577.941 -1.88718 2.81374 0
M  V30 6069 C 576.5 -2.41847 2.88422 0
M  V30 6070 C 575.647 -1.20564 2.49719 0
M  V30 6071 H 578.598 -0.238399 1.56899 0
M  V30 6072 H 578.619 -2.73957 2.6406 0
M  V30 6073 H 578.131 -1.23847 3.67809 0
M  V30 6074 H 576.232 -3.10228 2.06372 0
M  V30 6075 H 576.345 -2.75947 3.9165 0
M  V30 6076 H 574.709 -1.54504 2.02486 0
M  V30 6077 H 575.492 -0.573326 3.38479 0
M  V30 6078 N 577.937 -1.40673 -0.710563 0
M  V30 6079 C 578.887 -1.37812 -1.81636 0
M  V30 6080 C 579.871 -0.254853 -1.58869 0
M  V30 6081 O 581.063 -0.494356 -1.69956 0
M  V30 6082 C 578.192 -1.24802 -3.19811 0
M  V30 6083 C 577.278 -2.41931 -3.48325 0
M  V30 6084 N 577.669 -3.67411 -3.47625 0
M  V30 6085 C 575.967 -2.35419 -3.78806 0
M  V30 6086 C 576.668 -4.45008 -3.74623 0
M  V30 6087 N 575.644 -3.74916 -3.93623 0
M  V30 6088 H 579.446 -2.32766 -1.79436 0
M  V30 6089 H 576.96 -1.34516 -0.909909 0
M  V30 6090 H 578.957 -1.20835 -3.99004 0
M  V30 6091 H 577.617 -0.308202 -3.23234 0
M  V30 6092 H 578.628 -4.00503 -3.28356 0
M  V30 6093 H 575.305 -1.4983 -3.89689 0
M  V30 6094 H 576.695 -5.53884 -3.80344 0
M  V30 6095 N 579.415 0.9433 -1.26252 0
M  V30 6096 C 580.663 1.68592 -1.11451 0
M  V30 6097 C 580.984 1.91957 0.343123 0
M  V30 6098 O 580.254 1.51475 1.24226 0
M  V30 6099 H 578.834 0.624789 -0.409448 0
M  V30 6100 H 581.496 1.13351 -1.58548 0
M  V30 6101 H 580.592 2.66054 -1.63162 0
M  V30 6102 N 580.893 1.08022 1.14757 0
M  V30 6103 C 581.843 0.676345 2.17737 0
M  V30 6104 C 582.827 -0.302018 1.5804 0
M  V30 6105 O 584.019 -0.11466 1.76628 0
M  V30 6106 C 581.148 0.082984 3.432 0
M  V30 6107 C 580.234 1.0869 4.09936 0
M  V30 6108 N 580.625 2.26891 4.52055 0
M  V30 6109 C 578.923 0.921768 4.36371 0
M  V30 6110 C 579.624 2.90636 5.0389 0
M  V30 6111 N 578.6 2.18266 4.97856 0
M  V30 6112 H 582.402 1.5765 2.4804 0
M  V30 6113 H 579.916 0.954374 1.31398 0
M  V30 6114 H 581.913 -0.224289 4.16296 0
M  V30 6115 H 580.573 -0.812206 3.14378 0
M  V30 6116 H 581.584 2.6457 4.45223 0
M  V30 6117 H 578.261 0.0800499 4.17423 0
M  V30 6118 H 579.651 3.9104 5.46386 0
M  V30 6119 N 582.371 -1.3172 0.865308 0
M  V30 6120 C 583.321 -2.26157 0.289305 0
M  V30 6121 C 584.305 -1.50428 -0.570977 0
M  V30 6122 O 585.497 -1.71978 -0.418617 0
M  V30 6123 C 582.626 -3.39457 -0.512237 0
M  V30 6124 C 581.712 -4.22561 0.361028 0
M  V30 6125 N 582.103 -4.84501 1.45231 0
M  V30 6126 C 580.401 -4.45739 0.152641 0
M  V30 6127 C 581.102 -5.46586 1.99043 0
M  V30 6128 N 580.078 -5.28119 1.28809 0
M  V30 6129 H 583.88 -2.71581 1.12344 0
M  V30 6130 H 581.394 -1.45932 0.712565 0
M  V30 6131 H 583.391 -4.06133 -0.941379 0
M  V30 6132 H 582.051 -2.95577 -1.34404 0
M  V30 6133 H 583.062 -4.84293 1.83524 0
M  V30 6134 H 579.739 -4.1251 -0.643583 0
M  V30 6135 H 581.129 -6.05817 2.90577 0
M  V30 6136 N 583.85 -0.624285 -1.44708 0
M  V30 6137 C 585.26 -0.2092 -1.85524 0
M  V30 6138 C 585.611 1.23783 -1.52225 0
M  V30 6139 O 584.736 1.94089 -0.956986 0
M  V30 6140 C 585.332 -0.372897 -3.36742 0
M  V30 6141 C 583.891 -0.012374 -3.76398 0
M  V30 6142 C 583.038 -0.68951 -2.68591 0
M  V30 6143 H 585.989 -0.829894 -1.35272 0
M  V30 6144 H 586.01 0.390134 -3.78495 0
M  V30 6145 H 585.522 -1.42615 -3.60947 0
M  V30 6146 H 583.623 1.03941 -3.57809 0
M  V30 6147 H 583.736 -0.417663 -4.77276 0
M  V30 6148 H 582.1 -0.125484 -2.54391 0
M  V30 6149 H 582.883 -1.74522 -2.9563 0
M  V30 6150 N 585.328 1.53329 -0.364422 0
M  V30 6151 C 586.278 2.22472 0.499024 0
M  V30 6152 C 587.262 1.21952 1.0496 0
M  V30 6153 O 588.454 1.47405 0.979836 0
M  V30 6154 C 585.583 3.01659 1.6388 0
M  V30 6155 C 584.669 4.09555 1.10116 0
M  V30 6156 N 585.06 5.04988 0.286414 0
M  V30 6157 C 583.358 4.2424 1.37608 0
M  V30 6158 C 584.059 5.81699 -0.00781682 0
M  V30 6159 N 583.035 5.40394 0.589494 0
M  V30 6160 H 586.837 2.93611 -0.130284 0
M  V30 6161 H 584.351 1.61483 -0.172377 0
M  V30 6162 H 586.348 3.4971 2.26954 0
M  V30 6163 H 585.008 2.32051 2.27118 0
M  V30 6164 H 586.019 5.17847 -0.0742839 0
M  V30 6165 H 582.696 3.65858 2.01133 0
M  V30 6166 H 584.086 6.68587 -0.666394 0
M  V30 6167 N 586.806 0.0935595 1.57322 0
M  V30 6168 C 588.054 -0.569383 1.93913 0
M  V30 6169 C 588.375 -1.68817 0.976009 0
M  V30 6170 O 587.645 -1.9588 0.0278099 0
M  V30 6171 H 586.225 -0.21332 0.715894 0
M  V30 6172 H 588.887 0.156531 1.9427 0
M  V30 6173 H 587.983 -0.980577 2.96296 0
M  V30 6174 N 588.284 -1.56567 -0.180126 0
M  V30 6175 C 589.234 -1.92132 -1.22756 0
M  V30 6176 C 590.218 -0.788639 -1.40247 0
M  V30 6177 O 591.41 -1.05171 -1.42366 0
M  V30 6178 C 588.539 -2.27719 -2.56902 0
M  V30 6179 C 587.625 -3.47481 -2.43142 0
M  V30 6180 N 588.016 -4.64973 -1.99082 0
M  V30 6181 C 586.314 -3.51914 -2.73994 0
M  V30 6182 C 587.015 -5.47119 -1.97574 0
M  V30 6183 N 585.991 -4.87925 -2.39645 0
M  V30 6184 H 589.793 -2.80464 -0.878478 0
M  V30 6185 H 587.307 -1.57686 -0.388463 0
M  V30 6186 H 589.304 -2.51389 -3.32579 0
M  V30 6187 H 587.964 -1.40722 -2.92621 0
M  V30 6188 H 588.975 -4.89358 -1.69557 0
M  V30 6189 H 585.652 -2.75372 -3.13809 0
M  V30 6190 H 587.042 -6.51254 -1.65282 0
M  V30 6191 N 589.762 0.448376 -1.51087 0
M  V30 6192 C 590.712 1.54156 -1.67988 0
M  V30 6193 C 591.696 1.5178 -0.534015 0
M  V30 6194 O 592.888 1.58419 -0.789448 0
M  V30 6195 C 590.017 2.92437 -1.79822 0
M  V30 6196 C 589.103 2.99611 -3.00157 0
M  V30 6197 N 589.494 2.7655 -4.23502 0
M  V30 6198 C 587.792 3.30764 -2.99184 0
M  V30 6199 C 588.493 2.89281 -5.0467 0
M  V30 6200 N 587.469 3.20473 -4.39088 0
M  V30 6201 H 591.271 1.35061 -2.61028 0
M  V30 6202 H 588.785 0.655504 -1.48583 0
M  V30 6203 H 590.782 3.71068 -1.90037 0
M  V30 6204 H 589.442 3.1256 -0.879554 0
M  V30 6205 H 590.453 2.5169 -4.52628 0
M  V30 6206 H 587.13 3.56732 -2.16907 0
M  V30 6207 H 588.52 2.75499 -6.12821 0
M  V30 6208 N 591.24 1.41047 0.703093 0
M  V30 6209 C 592.651 1.35657 1.28274 0
M  V30 6210 C 593.002 0.0360309 1.96167 0
M  V30 6211 O 592.127 -0.865833 1.98324 0
M  V30 6212 C 592.722 2.45707 2.33267 0
M  V30 6213 C 591.281 2.43738 2.86825 0
M  V30 6214 C 590.428 2.25941 1.60767 0
M  V30 6215 H 593.379 1.50672 0.49836 0
M  V30 6216 H 593.4 2.14333 3.14391 0
M  V30 6217 H 592.912 3.41805 1.83824 0
M  V30 6218 H 591.013 1.51375 3.40465 0
M  V30 6219 H 591.126 3.39779 3.37768 0
M  V30 6220 H 589.49 1.73681 1.86298 0
M  V30 6221 H 590.273 3.24054 1.1333 0
M  V30 6222 N 592.718 -0.936591 1.26751 0
M  V30 6223 C 593.668 -2.0219 1.05371 0
M  V30 6224 C 594.652 -1.60893 -0.0154112 0
M  V30 6225 O 595.844 -1.75843 0.202085 0
M  V30 6226 C 592.973 -3.36222 0.693541 0
M  V30 6227 C 592.059 -3.8399 1.80035 0
M  V30 6228 N 592.45 -4.0436 3.03852 0
M  V30 6229 C 590.748 -4.12945 1.685 0
M  V30 6230 C 591.449 -4.44 3.75818 0
M  V30 6231 N 590.425 -4.50966 3.03531 0
M  V30 6232 H 594.227 -2.15958 1.99347 0
M  V30 6233 H 591.741 -1.12277 1.17335 0
M  V30 6234 H 593.738 -4.13625 0.521513 0
M  V30 6235 H 592.398 -3.23821 -0.238693 0
M  V30 6236 H 593.409 -3.9092 3.39709 0
M  V30 6237 H 590.086 -4.09308 0.822986 0
M  V30 6238 H 591.476 -4.67914 4.82189 0
M  V30 6239 N 594.196 -1.08629 -1.14182 0
M  V30 6240 C 595.444 -0.815731 -1.84906 0
M  V30 6241 C 595.765 0.660441 -1.83475 0
M  V30 6242 O 595.035 1.47888 -1.28476 0
M  V30 6243 H 593.615 -0.298773 -0.684648 0
M  V30 6244 H 596.277 -1.37274 -1.38354 0
M  V30 6245 H 595.373 -1.16193 -2.89665 0
M  V30 6246 N 595.674 1.31259 -0.872281 0
M  V30 6247 C 596.624 2.26 -0.301295 0
M  V30 6248 C 597.608 1.50729 0.562991 0
M  V30 6249 O 598.8 1.72198 0.40949 0
M  V30 6250 C 595.929 3.39724 0.494227 0
M  V30 6251 C 595.015 4.22363 -0.383432 0
M  V30 6252 N 595.406 4.83724 -1.47799 0
M  V30 6253 C 593.704 4.45652 -0.176278 0
M  V30 6254 C 594.405 5.45523 -2.01939 0
M  V30 6255 N 593.381 5.27428 -1.31608 0
M  V30 6256 H 597.183 2.70981 -1.13782 0
M  V30 6257 H 594.697 1.45552 -0.720294 0
M  V30 6258 H 596.694 4.06626 0.919828 0
M  V30 6259 H 595.354 2.96286 1.32834 0
M  V30 6260 H 596.365 4.83313 -1.8609 0
M  V30 6261 H 593.042 4.12845 0.621698 0
M  V30 6262 H 594.432 6.04268 -2.93786 0
M  V30 6263 N 597.152 0.631951 1.44375 0
M  V30 6264 C 598.102 -0.0943862 2.27805 0
M  V30 6265 C 599.086 -0.815359 1.38711 0
M  V30 6266 O 600.278 -0.701331 1.62513 0
M  V30 6267 C 597.407 -1.07472 3.26044 0
M  V30 6268 C 596.493 -0.353329 4.22626 0
M  V30 6269 N 596.884 0.618512 5.02004 0
M  V30 6270 C 595.182 -0.597662 4.41977 0
M  V30 6271 C 595.883 1.0448 5.7224 0
M  V30 6272 N 594.859 0.383413 5.42246 0
M  V30 6273 H 598.661 0.651672 2.86584 0
M  V30 6274 H 596.175 0.45752 1.55822 0
M  V30 6275 H 598.172 -1.60969 3.84571 0
M  V30 6276 H 596.832 -1.82107 2.68825 0
M  V30 6277 H 597.843 0.996356 5.08226 0
M  V30 6278 H 594.52 -1.32682 3.95856 0
M  V30 6279 H 595.91 1.84773 6.45994 0
M  V30 6280 N 598.631 -1.53133 0.372548 0
M  V30 6281 C 600.042 -1.86404 -0.105155 0
M  V30 6282 C 600.393 -1.29289 -1.47576 0
M  V30 6283 O 599.518 -0.617646 -2.07398 0
M  V30 6284 C 600.113 -3.38223 -0.197588 0
M  V30 6285 C 598.672 -3.71266 -0.619556 0
M  V30 6286 C 597.819 -2.76353 0.228919 0
M  V30 6287 H 600.77 -1.47282 0.591077 0
M  V30 6288 H 600.791 -3.66577 -1.01987 0
M  V30 6289 H 600.303 -3.79763 0.800099 0
M  V30 6290 H 598.404 -3.35287 -1.62522 0
M  V30 6291 H 598.517 -4.77515 -0.389332 0
M  V30 6292 H 596.881 -2.52888 -0.303271 0
M  V30 6293 H 597.664 -3.20728 1.22428 0
M  V30 6294 N 600.109 -0.101901 -1.5727 0
M  V30 6295 C 601.059 0.865346 -2.1094 0
M  V30 6296 C 602.043 1.2394 -1.02605 0
M  V30 6297 O 603.235 1.21334 -1.28868 0
M  V30 6298 C 600.364 2.12187 -2.69874 0
M  V30 6299 C 599.45 1.77295 -3.85263 0
M  V30 6300 N 599.841 1.12993 -4.93017 0
M  V30 6301 C 598.139 2.06862 -3.95126 0
M  V30 6302 C 598.84 0.968631 -5.73579 0
M  V30 6303 N 597.816 1.48814 -5.22834 0
M  V30 6304 H 601.618 0.364368 -2.91633 0
M  V30 6305 H 599.132 0.101104 -1.62085 0
M  V30 6306 H 601.129 2.82431 -3.06657 0
M  V30 6307 H 599.789 2.62844 -1.90639 0
M  V30 6308 H 600.8 0.795935 -5.11747 0
M  V30 6309 H 597.477 2.59686 -3.26909 0
M  V30 6310 H 598.867 0.465231 -6.70287 0
M  V30 6311 N 601.587 1.56661 0.17182 0
M  V30 6312 C 602.827 1.83762 0.895029 0
M  V30 6313 C 603.191 0.682752 1.79451 0
M  V30 6314 O 604.392 0.834208 2.55528 0
M  V30 6315 C 602.663 3.15976 1.67015 0
M  V30 6316 S 604.222 3.64558 2.44219 0
M  V30 6317 H 601.04 0.644713 0.299778 0
M  V30 6318 H 603.642 1.94871 0.156701 0
M  V30 6319 H 602.346 3.98021 1.00039 0
M  V30 6320 H 601.877 3.07807 2.44986 0
M  V30 6321 H 603.892 3.31845 3.68909 0
M  V30 6322 N 603.065 -0.440357 1.51323 0
M  V30 6323 C 604.015 -1.53263 1.68803 0
M  V30 6324 C 604.999 -1.51494 0.542057 0
M  V30 6325 O 606.191 -1.57999 0.797839 0
M  V30 6326 C 603.32 -2.91479 1.8137 0
M  V30 6327 C 602.406 -2.98015 3.01742 0
M  V30 6328 N 602.797 -2.743 4.24962 0
M  V30 6329 C 601.095 -3.29173 3.00934 0
M  V30 6330 C 601.796 -2.86601 5.06197 0
M  V30 6331 N 600.772 -3.1814 4.40781 0
M  V30 6332 H 604.574 -1.33675 2.61741 0
M  V30 6333 H 602.088 -0.647616 1.48929 0
M  V30 6334 H 604.085 -3.70055 1.92002 0
M  V30 6335 H 602.745 -3.12089 0.896117 0
M  V30 6336 H 603.756 -2.49287 4.53957 0
M  V30 6337 H 600.433 -3.55577 2.18796 0
M  V30 6338 H 601.823 -2.72246 6.14274 0
M  V30 6339 N 604.543 -1.41418 -0.695603 0
M  V30 6340 C 605.82 -1.31264 -1.45014 0
M  V30 6341 C 606.2 0.0597994 -2.11015 0
M  V30 6342 O 605.548 1.07403 -2.01685 0
M  V30 6343 C 605.758 -2.466 -2.4696 0
M  V30 6344 C 607.106 -2.87763 -3.12214 0
M  V30 6345 O 608.13 -2.46339 -2.57285 0
M  V30 6346 O 606.989 -3.59395 -4.11701 0
M  V30 6347 H 604.083 -0.516576 -0.645816 0
M  V30 6348 H 606.629 -1.53382 -0.726084 0
M  V30 6349 H 605.401 -3.38183 -1.96845 0
M  V30 6350 H 605.024 -2.26358 -3.26876 0
M  V30 6351 N 606.021 0.929856 -1.27246 0
M  V30 6352 C 607.268 1.67731 -1.13457 0
M  V30 6353 C 607.596 1.9185 0.319998 0
M  V30 6354 O 606.851 1.50524 1.25064 0
M  V30 6355 C 607.15 3.05116 -1.86115 0
M  V30 6356 C 606.816 3.00715 -3.35978 0
M  V30 6357 C 605.478 2.99222 -3.76855 0
M  V30 6358 C 607.83 2.92168 -4.3161 0
M  V30 6359 C 605.158 2.86962 -5.11732 0
M  V30 6360 C 607.51 2.81449 -5.66542 0
M  V30 6361 C 606.174 2.78305 -6.06715 0
M  V30 6362 H 605.444 0.613772 -0.415168 0
M  V30 6363 H 608.091 1.08456 -1.57827 0
M  V30 6364 H 606.396 3.68083 -1.34246 0
M  V30 6365 H 608.093 3.61822 -1.72876 0
M  V30 6366 H 604.683 3.02664 -3.03468 0
M  V30 6367 H 608.867 2.92421 -4.01003 0
M  V30 6368 H 604.123 2.82913 -5.42006 0
M  V30 6369 H 608.297 2.738 -6.40317 0
M  V30 6370 H 605.924 2.68561 -7.11181 0
M  V30 6371 N 607.499 1.09233 1.13605 0
M  V30 6372 C 608.431 0.687794 2.18637 0
M  V30 6373 C 609.444 -0.26936 1.60556 0
M  V30 6374 O 610.633 -0.0557162 1.78413 0
M  V30 6375 C 607.733 -0.00751901 3.38899 0
M  V30 6376 C 606.906 0.97067 4.26494 0
M  V30 6377 C 605.965 0.309129 5.25291 0
M  V30 6378 O 604.991 0.956149 5.61112 0
M  V30 6379 N 606.193 -0.937555 5.72879 0
M  V30 6380 H 608.958 1.59141 2.53957 0
M  V30 6381 H 606.519 0.979515 1.28907 0
M  V30 6382 H 608.511 -0.461238 4.02063 0
M  V30 6383 H 607.081 -0.813353 3.01833 0
M  V30 6384 H 606.301 1.603 3.60135 0
M  V30 6385 H 607.589 1.63323 4.81875 0
M  V30 6386 H 606.987 -1.48281 5.4592 0
M  V30 6387 H 605.544 -1.33463 6.3799 0
M  V30 6388 N 608.977 -1.30795 0.87923 0
M  V30 6389 C 610.254 -1.91145 0.415086 0
M  V30 6390 C 610.634 -1.7995 -1.10368 0
M  V30 6391 O 609.982 -1.21305 -1.93642 0
M  V30 6392 C 610.192 -3.37014 0.906778 0
M  V30 6393 C 611.54 -4.14101 0.938358 0
M  V30 6394 O 612.564 -3.45834 0.853053 0
M  V30 6395 O 611.423 -5.36054 1.06342 0
M  V30 6396 H 608.517 -0.81736 0.125905 0
M  V30 6397 H 611.063 -1.39401 0.967753 0
M  V30 6398 H 609.835 -3.3922 1.95053 0
M  V30 6399 H 609.458 -3.96204 0.332948 0
M  V30 6400 N 610.455 -0.639598 -1.44038 0
M  V30 6401 C 611.685 -0.154586 -2.06021 0
M  V30 6402 C 612.093 1.17951 -1.47933 0
M  V30 6403 O 611.436 1.73627 -0.59994 0
M  V30 6404 C 611.498 0.0255459 -3.59491 0
M  V30 6405 C 611.162 -1.2317 -4.40089 0
M  V30 6406 C 612.159 -2.15735 -4.73027 0
M  V30 6407 C 609.844 -1.46949 -4.80324 0
M  V30 6408 C 611.838 -3.30382 -5.45093 0
M  V30 6409 C 609.525 -2.61891 -5.52138 0
M  V30 6410 C 610.523 -3.53433 -5.84443 0
M  V30 6411 O 610.211 -4.6637 -6.54793 0
M  V30 6412 H 609.943 -0.0808543 -0.671147 0
M  V30 6413 H 612.497 -0.876541 -1.85758 0
M  V30 6414 H 610.727 0.802733 -3.78276 0
M  V30 6415 H 612.416 0.466184 -4.03214 0
M  V30 6416 H 613.182 -1.98602 -4.42473 0
M  V30 6417 H 609.061 -0.765815 -4.54595 0
M  V30 6418 H 612.605 -4.01856 -5.70226 0
M  V30 6419 H 608.502 -2.78964 -5.82108 0
M  V30 6420 H 609.27 -4.6546 -6.73267 0
M  V30 6421 N 611.933 1.52934 -0.380664 0
M  V30 6422 C 613.181 2.01069 0.203874 0
M  V30 6423 C 613.502 1.26922 1.4804 0
M  V30 6424 O 612.772 0.386787 1.92044 0
M  V30 6425 H 611.352 0.742882 0.0783279 0
M  V30 6426 H 614.014 1.88099 -0.510368 0
M  V30 6427 H 613.11 3.09258 0.42021 0
M  V30 6428 N 613.412 0.11024 1.57214 0
M  V30 6429 C 614.823 -0.416527 1.81994 0
M  V30 6430 C 615.174 -1.67183 1.02686 0
M  V30 6431 O 614.299 -2.14823 0.260782 0
M  V30 6432 C 614.894 -0.762466 3.30109 0
M  V30 6433 C 613.453 -1.23391 3.556 0
M  V30 6434 C 612.6 -0.238166 2.76275 0
M  V30 6435 H 615.551 0.335491 1.55113 0
M  V30 6436 H 615.572 -1.62068 3.44259 0
M  V30 6437 H 615.084 0.151346 3.87805 0
M  V30 6438 H 613.185 -2.16492 3.03253 0
M  V30 6439 H 613.298 -1.18528 4.64207 0
M  V30 6440 H 611.662 -0.723421 2.4421 0
M  V30 6441 H 612.445 0.668591 3.36727 0
M  V30 6442 N 614.89 -1.56749 -0.16351 0
M  V30 6443 C 616.13 -1.84234 -0.885271 0
M  V30 6444 C 616.494 -0.692259 -1.79086 0
M  V30 6445 O 617.695 -0.847747 -2.55082 0
M  V30 6446 C 615.966 -3.16857 -1.65337 0
M  V30 6447 S 617.525 -3.65848 -2.42282 0
M  V30 6448 H 614.343 -0.646293 -0.296354 0
M  V30 6449 H 616.945 -1.94951 -0.146365 0
M  V30 6450 H 615.649 -3.98546 -0.979266 0
M  V30 6451 H 615.18 -3.09102 -2.4335 0
M  V30 6452 H 617.195 -3.33796 -3.67143 0
M  V30 6453 N 616.368 0.432326 -1.51554 0
M  V30 6454 C 617.645 1.19288 -1.55015 0
M  V30 6455 C 618.025 2.08701 -0.317375 0
M  V30 6456 O 617.373 2.17602 0.697243 0
M  V30 6457 C 617.583 1.99037 -2.86679 0
M  V30 6458 C 618.931 2.55907 -3.38817 0
M  V30 6459 O 619.955 2.09243 -2.88263 0
M  V30 6460 O 618.814 3.41029 -4.27038 0
M  V30 6461 H 615.908 0.543369 -0.623441 0
M  V30 6462 H 618.454 0.440988 -1.6387 0
M  V30 6463 H 617.226 1.33397 -3.6786 0
M  V30 6464 H 616.849 2.81281 -2.8101 0
M  V30 6465 N 617.846 1.41785 0.688094 0
M  V30 6466 C 619.257 1.3701 1.26828 0
M  V30 6467 C 619.608 0.056835 1.96118 0
M  V30 6468 O 618.733 -0.84475 1.99231 0
M  V30 6469 C 619.328 2.48168 2.30648 0
M  V30 6470 C 617.887 2.46766 2.84224 0
M  V30 6471 C 617.034 2.27633 1.58361 0
M  V30 6472 H 619.985 1.51192 0.482351 0
M  V30 6473 H 620.006 2.17655 3.121 0
M  V30 6474 H 619.518 3.43735 1.80188 0
M  V30 6475 H 617.619 1.54978 3.3884 0
M  V30 6476 H 617.732 3.43342 3.34145 0
M  V30 6477 H 616.096 1.75648 1.84445 0
M  V30 6478 H 616.879 3.25238 1.09887 0
M  V30 6479 N 619.324 -0.923095 1.27737 0
M  V30 6480 C 620.735 -1.48626 1.12993 0
M  V30 6481 C 621.086 -1.94142 -0.283439 0
M  V30 6482 O 620.211 -1.81605 -1.17681 0
M  V30 6483 C 620.806 -2.70117 2.04505 0
M  V30 6484 C 619.365 -3.22642 1.93853 0
M  V30 6485 C 618.512 -1.95368 1.96791 0
M  V30 6486 H 621.463 -0.736737 1.40563 0
M  V30 6487 H 621.484 -3.4506 1.60356 0
M  V30 6488 H 620.996 -2.36959 3.07363 0
M  V30 6489 H 619.097 -3.60549 0.939968 0
M  V30 6490 H 619.21 -3.88525 2.80331 0
M  V30 6491 H 617.574 -2.12061 1.41076 0
M  V30 6492 H 618.357 -1.64517 3.01312 0
M  V30 6493 N 620.802 -1.09834 -1.13024 0
M  V30 6494 C 622.213 -0.855651 -1.65938 0
M  V30 6495 C 622.564 0.615159 -1.86307 0
M  V30 6496 O 621.689 1.47335 -1.58497 0
M  V30 6497 C 622.284 -1.5467 -3.01434 0
M  V30 6498 C 620.843 -1.35088 -3.51323 0
M  V30 6499 C 619.99 -1.6001 -2.26478 0
M  V30 6500 H 622.941 -1.25691 -0.968889 0
M  V30 6501 H 622.962 -0.982179 -3.67605 0
M  V30 6502 H 622.474 -2.61715 -2.86578 0
M  V30 6503 H 620.575 -0.30179 -3.71376 0
M  V30 6504 H 620.688 -2.0886 -4.31178 0
M  V30 6505 H 619.052 -1.02246 -2.33276 0
M  V30 6506 H 619.835 -2.68293 -2.14182 0
M  V30 6507 N 622.28 1.30327 -0.886154 0
M  V30 6508 C 623.23 2.25668 -0.325248 0
M  V30 6509 C 624.214 1.51318 0.546972 0
M  V30 6510 O 625.406 1.72623 0.391203 0
M  V30 6511 C 622.535 3.40229 0.458167 0
M  V30 6512 C 621.621 4.21933 -0.428208 0
M  V30 6513 N 622.012 4.82129 -1.52921 0
M  V30 6514 C 620.31 4.45439 -0.223535 0
M  V30 6515 C 621.011 5.43351 -2.07714 0
M  V30 6516 N 619.987 5.26002 -1.37195 0
M  V30 6517 H 623.789 2.69759 -1.1665 0
M  V30 6518 H 621.303 1.4478 -0.735691 0
M  V30 6519 H 623.3 4.07579 0.876648 0
M  V30 6520 H 621.96 2.97678 1.29684 0
M  V30 6521 H 622.971 4.81312 -1.91205 0
M  V30 6522 H 619.648 4.13481 0.577875 0
M  V30 6523 H 621.038 6.01118 -3.00178 0
M  V30 6524 N 623.758 0.647228 1.43697 0
M  V30 6525 C 624.706 -0.0600105 2.32523 0
M  V30 6526 C 625.7 -0.819277 1.48271 0
M  V30 6527 O 626.906 -0.730356 1.64517 0
M  V30 6528 H 623.281 -0.0381872 0.75103 0
M  V30 6529 H 625.252 0.706978 2.89904 0
M  V30 6530 C 624.001 -1.0169 3.32497 0
M  V30 6531 H 623.324 -0.442083 3.97348 0
M  V30 6532 H 624.764 -1.48095 3.97296 0
M  V30 6533 C 623.223 -2.11002 2.6264 0
M  V30 6534 O 623.753 -3.19302 2.4374 0
M  V30 6535 N 621.959 -1.87388 2.22113 0
M  V30 6536 H 621.506 -0.993174 2.37684 0
M  V30 6537 H 621.464 -2.60723 1.75701 0
M  V30 6538 N 625.236 -1.5273 0.388769 0
M  V30 6539 C 626.168 -2.24081 -0.481704 0
M  V30 6540 C 627.181 -1.26307 -1.02715 0
M  V30 6541 O 628.37 -1.52386 -0.929565 0
M  V30 6542 C 625.47 -2.94315 -1.68024 0
M  V30 6543 C 624.643 -4.18791 -1.26226 0
M  V30 6544 C 623.702 -4.72028 -2.32542 0
M  V30 6545 O 622.728 -5.35129 -1.93972 0
M  V30 6546 N 623.93 -4.51838 -3.64448 0
M  V30 6547 H 626.695 -2.9942 0.129591 0
M  V30 6548 H 624.256 -1.60465 0.2151 0
M  V30 6549 H 626.248 -3.26831 -2.38671 0
M  V30 6550 H 624.818 -2.22287 -2.19789 0
M  V30 6551 H 624.038 -3.92318 -0.384703 0
M  V30 6552 H 625.326 -4.99668 -0.959647 0
M  V30 6553 H 624.724 -4.01468 -3.98547 0
M  V30 6554 H 623.281 -4.88845 -4.31131 0
M  V30 6555 N 626.714 -0.118576 -1.57153 0
M  V30 6556 C 627.962 0.538461 -1.94795 0
M  V30 6557 C 628.283 1.67243 -1.00274 0
M  V30 6558 O 627.553 1.95811 -0.0589692 0
M  V30 6559 H 626.133 0.201904 -0.719197 0
M  V30 6560 H 628.795 -0.187418 -1.93997 0
M  V30 6561 H 627.891 0.933315 -2.97818 0
M  V30 6562 N 628.193 1.56834 0.155195 0
M  V30 6563 C 629.143 1.94061 1.19684 0
M  V30 6564 C 630.127 0.810851 1.38975 0
M  V30 6565 O 631.319 1.07422 1.40675 0
M  V30 6566 C 628.448 2.31778 2.53247 0
M  V30 6567 C 627.534 3.51305 2.37583 0
M  V30 6568 N 627.925 4.68081 1.9166 0
M  V30 6569 C 626.223 3.56228 2.6836 0
M  V30 6570 C 626.924 5.50193 1.88845 0
M  V30 6571 N 625.9 4.91676 2.31852 0
M  V30 6572 H 629.702 2.81826 0.833747 0
M  V30 6573 H 627.216 1.58284 0.363328 0
M  V30 6574 H 629.213 2.56649 3.28538 0
M  V30 6575 H 627.873 1.4536 2.90346 0
M  V30 6576 H 628.884 4.91993 1.6175 0
M  V30 6577 H 625.561 2.8033 3.09389 0
M  V30 6578 H 626.951 6.53801 1.54901 0
M  V30 6579 N 629.671 -0.424282 1.51781 0
M  V30 6580 C 630.911 -1.18194 1.66762 0
M  V30 6581 C 631.275 -1.88164 0.381857 0
M  V30 6582 O 632.476 -2.65692 0.407586 0
M  V30 6583 C 630.747 -2.16173 2.84612 0
M  V30 6584 S 632.306 -3.0025 3.19993 0
M  V30 6585 H 629.124 -0.400626 0.587384 0
M  V30 6586 H 631.726 -0.471499 1.89729 0
M  V30 6587 H 630.43 -1.6343 3.76455 0
M  V30 6588 H 629.961 -2.91778 2.63873 0
M  V30 6589 H 631.976 -4.1796 2.67439 0
M  V30 6590 N 631.149 -1.42148 -0.680565 0
M  V30 6591 C 632.389 -1.4379 -1.45271 0
M  V30 6592 C 632.753 -0.0504426 -1.91934 0
M  V30 6593 O 633.954 0.0583916 -2.68737 0
M  V30 6594 C 632.225 -2.42904 -2.62168 0
M  V30 6595 S 633.784 -2.63201 -3.51099 0
M  V30 6596 H 630.602 -0.509185 -0.496237 0
M  V30 6597 H 633.204 -1.78706 -0.792744 0
M  V30 6598 H 631.908 -3.4249 -2.26116 0
M  V30 6599 H 631.439 -2.09394 -3.33043 0
M  V30 6600 H 633.454 -1.91068 -4.57938 0
M  V30 6601 N 632.627 0.916307 -1.28225 0
M  V30 6602 C 633.577 2.00488 -1.08574 0
M  V30 6603 C 634.561 1.60897 -0.0101874 0
M  V30 6604 O 635.753 1.75499 -0.230034 0
M  V30 6605 C 632.882 3.35076 -0.746943 0
M  V30 6606 C 631.968 3.81077 -1.86121 0
M  V30 6607 N 632.359 3.99475 -3.10247 0
M  V30 6608 C 630.657 4.10212 -1.75048 0
M  V30 6609 C 631.358 4.37965 -3.82834 0
M  V30 6610 N 630.334 4.4608 -3.10667 0
M  V30 6611 H 634.136 2.1276 -2.02757 0
M  V30 6612 H 631.65 1.10397 -1.19107 0
M  V30 6613 H 633.647 4.12743 -0.587252 0
M  V30 6614 H 632.307 3.2416 0.187146 0
M  V30 6615 H 633.318 3.85466 -3.45885 0
M  V30 6616 H 629.995 4.07947 -0.887999 0
M  V30 6617 H 631.385 4.60183 -4.89572 0
M  V30 6618 N 634.105 1.10431 1.1244 0
M  V30 6619 C 635.353 0.845045 1.83585 0
M  V30 6620 C 635.674 -0.631168 1.84503 0
M  V30 6621 O 634.944 -1.45825 1.30813 0
M  V30 6622 H 633.524 0.309628 0.679809 0
M  V30 6623 H 636.186 1.39458 1.36153 0
M  V30 6624 H 635.282 1.20786 2.8778 0
M  V30 6625 N 635.583 -1.29855 0.893053 0
M  V30 6626 C 636.533 -2.25493 0.337211 0
M  V30 6627 C 637.517 -1.51606 -0.53894 0
M  V30 6628 O 638.709 -1.72828 -0.382043 0
M  V30 6629 C 635.838 -3.40467 -0.440117 0
M  V30 6630 C 634.924 -4.217 0.450578 0
M  V30 6631 N 635.315 -4.81312 1.55476 0
M  V30 6632 C 633.613 -4.45315 0.247154 0
M  V30 6633 C 634.314 -5.42241 2.10593 0
M  V30 6634 N 633.29 -5.25267 1.39982 0
M  V30 6635 H 637.092 -2.69137 1.18079 0
M  V30 6636 H 634.606 -1.44388 0.743359 0
M  V30 6637 H 636.603 -4.08038 -0.855021 0
M  V30 6638 H 635.263 -2.98361 -1.28104 0
M  V30 6639 H 636.274 -4.80291 1.93755 0
M  V30 6640 H 632.951 -4.13782 -0.555939 0
M  V30 6641 H 634.341 -5.99517 3.03362 0
M  V30 6642 N 637.061 -0.65484 -1.43351 0
M  V30 6643 C 638.309 -0.168559 -2.01396 0
M  V30 6644 C 638.63 1.22235 -1.51933 0
M  V30 6645 O 637.9 1.81685 -0.732627 0
M  V30 6646 H 636.48 -0.0593244 -0.744641 0
M  V30 6647 H 639.142 -0.846871 -1.75539 0
M  V30 6648 H 638.238 -0.154428 -3.11718 0
M  V30 6649 N 638.539 1.52521 -0.396863 0
M  V30 6650 C 639.95 1.86547 0.0754868 0
M  V30 6651 C 640.301 1.31621 1.45501 0
M  V30 6652 O 639.426 0.650563 2.0639 0
M  V30 6653 C 640.021 3.38495 0.143754 0
M  V30 6654 C 638.58 3.72205 0.560413 0
M  V30 6655 C 637.727 2.75954 -0.272856 0
M  V30 6656 H 640.678 1.46323 -0.614434 0
M  V30 6657 H 640.699 3.68153 0.961425 0
M  V30 6658 H 640.211 3.78442 -0.860415 0
M  V30 6659 H 638.312 3.3783 1.57167 0
M  V30 6660 H 638.425 4.78074 0.313314 0
M  V30 6661 H 636.789 2.53339 0.263 0
M  V30 6662 H 637.572 3.1874 -1.27515 0
M  V30 6663 N 640.017 0.126909 1.57088 0
M  V30 6664 C 641.428 -0.397201 1.82426 0
M  V30 6665 C 641.779 -1.66084 1.04453 0
M  V30 6666 O 640.904 -2.14534 0.283552 0
M  V30 6667 C 641.499 -0.727411 3.30899 0
M  V30 6668 C 640.058 -1.19612 3.56889 0
M  V30 6669 C 639.205 -0.20885 2.76512 0
M  V30 6670 H 642.156 0.351924 1.54749 0
M  V30 6671 H 642.177 -1.58407 3.45959 0
M  V30 6672 H 641.689 0.19247 3.87622 0
M  V30 6673 H 639.79 -2.13263 3.05532 0
M  V30 6674 H 639.903 -1.13598 4.65438 0
M  V30 6675 H 638.267 -0.697479 2.44964 0
M  V30 6676 H 639.05 0.704267 3.35998 0
M  V30 6677 N 641.495 -1.56914 -0.146875 0
M  V30 6678 C 642.906 -1.72799 -0.706928 0
M  V30 6679 C 643.257 -0.741329 -1.81656 0
M  V30 6680 O 642.382 0.0920162 -2.16204 0
M  V30 6681 C 642.977 -3.13317 -1.28911 0
M  V30 6682 C 641.536 -3.30803 -1.79573 0
M  V30 6683 C 640.683 -2.68725 -0.684252 0
M  V30 6684 H 643.634 -1.58504 0.0787931 0
M  V30 6685 H 643.655 -3.13323 -2.15891 0
M  V30 6686 H 643.167 -3.85104 -0.481284 0
M  V30 6687 H 641.268 -2.64012 -2.62923 0
M  V30 6688 H 641.381 -4.38754 -1.92436 0
M  V30 6689 H 639.745 -2.29196 -1.11091 0
M  V30 6690 H 640.528 -3.43117 0.112134 0
M  V30 6691 N 642.974 0.416227 -1.52004 0
M  V30 6692 C 644.222 1.16153 -1.65387 0
M  V30 6693 C 644.543 1.91208 -0.382669 0
M  V30 6694 O 643.813 1.86413 0.602231 0
M  V30 6695 H 642.393 0.431765 -0.60958 0
M  V30 6696 H 645.055 0.475151 -1.89019 0
M  V30 6697 H 644.151 1.87952 -2.4916 0
M  V30 6698 N 644.452 1.42507 0.673017 0
M  V30 6699 C 645.402 1.4258 1.77919 0
M  V30 6700 C 646.386 0.296885 1.58137 0
M  V30 6701 O 647.578 0.539243 1.68586 0
M  V30 6702 C 644.707 1.33238 3.1639 0
M  V30 6703 C 643.793 2.51081 3.41788 0
M  V30 6704 N 644.184 3.76498 3.37761 0
M  V30 6705 C 642.482 2.4538 3.72431 0
M  V30 6706 C 643.183 4.54784 3.62693 0
M  V30 6707 N 642.159 3.8522 3.83544 0
M  V30 6708 H 645.961 2.37442 1.73201 0
M  V30 6709 H 643.475 1.36881 0.873924 0
M  V30 6710 H 645.472 1.31372 3.9566 0
M  V30 6711 H 644.132 0.393794 3.22303 0
M  V30 6712 H 645.143 4.09068 3.17622 0
M  V30 6713 H 641.82 1.60109 3.85579 0
M  V30 6714 H 643.21 5.63774 3.65525 0
M  V30 6715 N 645.93 -0.909495 1.28709 0
M  V30 6716 C 646.86 -2.0291 1.15542 0
M  V30 6717 C 647.841 -1.7002 0.0521017 0
M  V30 6718 O 649.026 -1.92835 0.229849 0
M  V30 6719 C 646.156 -3.37458 0.820935 0
M  V30 6720 C 645.11 -3.84524 1.87949 0
M  V30 6721 C 644.436 -5.16086 1.39854 0
M  V30 6722 C 645.736 -4.05918 3.28676 0
M  V30 6723 H 647.43 -2.14183 2.09203 0
M  V30 6724 H 644.976 -1.02913 1.00722 0
M  V30 6725 H 646.929 -4.1528 0.715571 0
M  V30 6726 H 645.653 -3.26249 -0.151374 0
M  V30 6727 H 644.312 -3.08911 1.97408 0
M  V30 6728 H 643.96 -5.01284 0.41518 0
M  V30 6729 H 643.66 -5.48547 2.1064 0
M  V30 6730 H 645.184 -5.96459 1.30649 0
M  V30 6731 H 646.598 -4.74252 3.22115 0
M  V30 6732 H 644.995 -4.49717 3.97334 0
M  V30 6733 H 646.065 -3.10583 3.72379 0
M  V30 6734 N 647.408 -1.11026 -1.11852 0
M  V30 6735 C 648.824 -0.843294 -1.35502 0
M  V30 6736 C 649.024 0.534179 -1.9429 0
M  V30 6737 O 648.08 1.28585 -2.17307 0
M  V30 6738 C 649.393 -1.94793 -2.29077 0
M  V30 6739 C 650.941 -1.97709 -2.42652 0
M  V30 6740 C 651.416 -3.07364 -3.39546 0
M  V30 6741 N 652.907 -3.0671 -3.47107 0
M  V30 6742 C 653.642 -3.88197 -4.22008 0
M  V30 6743 N 653.138 -4.79635 -4.99922 0
M  V30 6744 N 654.931 -3.76391 -4.17476 0
M  V30 6745 H 647.082 -1.99805 -0.720538 0
M  V30 6746 H 649.345 -0.868633 -0.379711 0
M  V30 6747 H 649.051 -2.93971 -1.93065 0
M  V30 6748 H 648.925 -1.84039 -3.29256 0
M  V30 6749 H 651.312 -0.991604 -2.77941 0
M  V30 6750 H 651.393 -2.1254 -1.4234 0
M  V30 6751 H 651.037 -4.06136 -3.04985 0
M  V30 6752 H 650.967 -2.89774 -4.39703 0
M  V30 6753 H 653.458 -2.40457 -2.91528 0
M  V30 6754 H 653.771 -5.38357 -5.54429 0
M  V30 6755 H 652.116 -4.8366 -4.99097 0
M  V30 6756 H 655.307 -3.04303 -3.55693 0
M  V30 6757 H 655.48 -4.40131 -4.75593 0
M  V30 6758 N 648.886 1.2938 -0.899927 0
M  V30 6759 C 650.302 1.48052 -0.596059 0
M  V30 6760 C 650.502 1.82114 0.862372 0
M  V30 6761 O 649.558 1.91774 1.64253 0
M  V30 6762 C 650.871 2.59332 -1.52208 0
M  V30 6763 C 652.419 2.73208 -1.5273 0
M  V30 6764 C 652.894 3.87617 -2.43961 0
M  V30 6765 N 654.385 3.9495 -2.42009 0
M  V30 6766 C 655.12 4.82824 -3.09303 0
M  V30 6767 N 654.616 5.75387 -3.85877 0
M  V30 6768 N 656.409 4.76317 -2.98459 0
M  V30 6769 H 648.56 1.05546 -1.8432 0
M  V30 6770 H 650.823 0.524314 -0.78981 0
M  V30 6771 H 650.529 2.41029 -2.56121 0
M  V30 6772 H 650.403 3.56139 -1.24278 0
M  V30 6773 H 652.79 2.90908 -0.495614 0
M  V30 6774 H 652.871 1.76975 -1.84698 0
M  V30 6775 H 652.515 3.70672 -3.47224 0
M  V30 6776 H 652.445 4.83218 -2.09303 0
M  V30 6777 H 654.936 3.28744 -1.86375 0
M  V30 6778 H 655.249 6.39235 -4.34279 0
M  V30 6779 H 653.594 5.75272 -3.89984 0
M  V30 6780 H 656.785 4.0299 -2.38152 0
M  V30 6781 H 656.958 5.44589 -3.51179 0
M  V30 6782 N 650.364 0.662433 1.43002 0
M  V30 6783 C 651.78 0.330835 1.56133 0
M  V30 6784 C 651.98 -1.16454 1.64441 0
M  V30 6785 O 651.036 -1.94964 1.60453 0
M  V30 6786 C 652.349 1.05029 2.81761 0
M  V30 6787 C 653.897 1.03142 2.95518 0
M  V30 6788 C 654.372 1.73196 4.2399 0
M  V30 6789 N 655.863 1.70004 4.30875 0
M  V30 6790 C 656.598 2.21074 5.29069 0
M  V30 6791 N 656.094 2.80473 6.33488 0
M  V30 6792 N 657.887 2.1152 5.20784 0
M  V30 6793 H 650.038 1.63272 1.35853 0
M  V30 6794 H 652.301 0.687149 0.653092 0
M  V30 6795 H 652.007 2.10542 2.81718 0
M  V30 6796 H 651.881 0.607664 3.72273 0
M  V30 6797 H 654.268 -0.0153339 2.95096 0
M  V30 6798 H 654.349 1.51282 2.0627 0
M  V30 6799 H 653.993 2.77833 4.25172 0
M  V30 6800 H 653.923 1.22515 5.1215 0
M  V30 6801 H 656.414 1.26667 3.56039 0
M  V30 6802 H 656.727 3.17094 7.04749 0
M  V30 6803 H 655.072 2.84538 6.34085 0
M  V30 6804 H 658.263 1.64814 4.38126 0
M  V30 6805 H 658.436 2.51629 5.97149 0
M  V30 6806 N 651.842 -1.52309 0.404946 0
M  V30 6807 C 653.09 -2.01368 -0.17186 0
M  V30 6808 C 653.411 -1.29261 -1.46002 0
M  V30 6809 O 652.681 -0.41729 -1.91404 0
M  V30 6810 H 651.261 -0.744034 -0.0664993 0
M  V30 6811 H 653.923 -1.87263 0.540228 0
M  V30 6812 H 653.019 -3.09888 -0.370957 0
M  V30 6813 N 653.32 -0.135238 -1.57019 0
M  V30 6814 C 654.731 0.387521 -1.82634 0
M  V30 6815 C 655.082 1.65528 -1.05332 0
M  V30 6816 O 654.207 2.14381 -0.294926 0
M  V30 6817 C 654.802 0.709852 -3.3128 0
M  V30 6818 C 653.361 1.17718 -3.57518 0
M  V30 6819 C 652.508 0.194183 -2.76619 0
M  V30 6820 H 655.459 -0.360126 -1.5456 0
M  V30 6821 H 655.48 1.5657 -3.46794 0
M  V30 6822 H 654.992 -0.213024 -3.87515 0
M  V30 6823 H 653.093 2.1164 -3.06658 0
M  V30 6824 H 653.206 1.11128 -4.66034 0
M  V30 6825 H 651.57 0.684478 -2.4533 0
M  V30 6826 H 652.353 -0.722076 -3.3562 0
M  V30 6827 N 654.798 1.5699 0.138552 0
M  V30 6828 C 656.046 1.83446 0.848053 0
M  V30 6829 C 656.367 0.71744 1.81322 0
M  V30 6830 O 655.637 -0.260228 1.94164 0
M  V30 6831 H 654.217 0.676792 0.316166 0
M  V30 6832 H 656.879 1.94462 0.130538 0
M  V30 6833 H 655.975 2.78677 1.40518 0
M  V30 6834 N 656.276 -0.40816 1.52223 0
M  V30 6835 C 657.223 -1.49737 1.75635 0
M  V30 6836 C 658.193 -1.5493 0.598824 0
M  V30 6837 O 659.378 -1.71487 0.83648 0
M  V30 6838 C 656.518 -2.87174 1.91376 0
M  V30 6839 C 655.631 -2.91283 3.19027 0
M  V30 6840 C 654.766 -4.20026 3.25195 0
M  V30 6841 C 653.805 -4.18113 4.47044 0
M  V30 6842 N 652.942 -5.38429 4.50598 0
M  V30 6843 H 657.782 -1.29075 2.68596 0
M  V30 6844 H 655.319 -0.626518 1.33091 0
M  V30 6845 H 657.277 -3.66959 1.98486 0
M  V30 6846 H 655.907 -3.06329 1.01795 0
M  V30 6847 H 654.959 -2.03984 3.21084 0
M  V30 6848 H 656.271 -2.85734 4.08849 0
M  V30 6849 H 655.425 -5.08204 3.31382 0
M  V30 6850 H 654.164 -4.28271 2.33313 0
M  V30 6851 H 653.169 -3.28325 4.41002 0
M  V30 6852 H 654.394 -4.11507 5.40221 0
M  V30 6853 H 652.34 -5.4734 3.616 0
M  V30 6854 H 652.257 -5.34879 5.34266 0
M  V30 6855 H 653.525 -6.28557 4.61016 0
M  V30 6856 N 657.755 -1.42862 -0.66545 0
M  V30 6857 C 659.003 -1.43546 -1.42264 0
M  V30 6858 C 659.324 -0.0563116 -1.94919 0
M  V30 6859 O 658.594 0.906568 -1.73661 0
M  V30 6860 H 657.174 -0.528464 -0.527953 0
M  V30 6861 H 659.836 -1.78363 -0.785665 0
M  V30 6862 H 658.932 -2.14079 -2.27105 0
M  V30 6863 N 659.233 0.902656 -1.29189 0
M  V30 6864 C 660.644 1.46809 -1.15343 0
M  V30 6865 C 660.995 1.94568 0.252517 0
M  V30 6866 O 660.12 1.83454 1.14777 0
M  V30 6867 C 660.715 2.66829 -2.08776 0
M  V30 6868 C 659.274 3.19518 -1.98961 0
M  V30 6869 C 658.421 1.92212 -1.99874 0
M  V30 6870 H 661.372 0.714282 -1.41717 0
M  V30 6871 H 661.393 3.42465 -1.65826 0
M  V30 6872 H 660.905 2.32039 -3.11094 0
M  V30 6873 H 659.006 3.59008 -0.99721 0
M  V30 6874 H 659.119 3.84016 -2.86477 0
M  V30 6875 H 657.483 2.0979 -1.44431 0
M  V30 6876 H 658.266 1.59702 -3.03891 0
M  V30 6877 N 660.711 1.11618 1.11262 0
M  V30 6878 C 662.127 0.850468 1.35053 0
M  V30 6879 C 662.327 -0.523868 1.94571 0
M  V30 6880 O 661.383 -1.2743 2.17986 0
M  V30 6881 C 662.696 1.96005 2.28041 0
M  V30 6882 C 664.244 1.98993 2.416 0
M  V30 6883 C 664.719 3.0916 3.37911 0
M  V30 6884 N 666.21 3.08547 3.45475 0
M  V30 6885 C 666.945 3.9043 4.19943 0
M  V30 6886 N 666.441 4.8228 4.97371 0
M  V30 6887 N 668.234 3.786 4.15474 0
M  V30 6888 H 660.385 2.00184 0.709932 0
M  V30 6889 H 662.648 0.870635 0.375099 0
M  V30 6890 H 662.354 2.9499 1.91503 0
M  V30 6891 H 662.228 1.85782 3.28275 0
M  V30 6892 H 664.615 1.00633 2.77411 0
M  V30 6893 H 664.696 2.13292 1.4121 0
M  V30 6894 H 664.34 4.07748 3.02827 0
M  V30 6895 H 664.27 2.92102 4.3816 0
M  V30 6896 H 666.761 2.42 2.90249 0
M  V30 6897 H 667.074 5.41289 5.51567 0
M  V30 6898 H 665.419 4.863 4.96525 0
M  V30 6899 H 668.61 3.06185 3.54074 0
M  V30 6900 H 668.783 4.42647 4.73253 0
M  V30 6901 N 662.189 -1.289 0.906776 0
M  V30 6902 C 663.6 -1.77336 0.58384 0
M  V30 6903 C 663.951 -1.74304 -0.900697 0
M  V30 6904 O 663.076 -1.33335 -1.70443 0
M  V30 6905 C 663.671 -3.22019 1.05304 0
M  V30 6906 C 662.23 -3.68205 0.781148 0
M  V30 6907 C 661.377 -2.48837 1.22373 0
M  V30 6908 H 664.328 -1.15462 1.08877 0
M  V30 6909 H 664.349 -3.78481 0.391414 0
M  V30 6910 H 663.861 -3.24194 2.13353 0
M  V30 6911 H 661.962 -3.71497 -0.28643 0
M  V30 6912 H 662.075 -4.58675 1.384 0
M  V30 6913 H 660.439 -2.46461 0.642594 0
M  V30 6914 H 661.222 -2.53736 2.31242 0
M  V30 6915 N 663.667 -0.670007 -1.42649 0
M  V30 6916 C 664.914 -0.190286 -2.01604 0
M  V30 6917 C 665.242 1.20155 -1.52948 0
M  V30 6918 O 664.497 1.81964 -0.72026 0
M  V30 6919 C 664.796 -0.168298 -3.57004 0
M  V30 6920 C 664.462 -1.50415 -4.25072 0
M  V30 6921 C 663.124 -1.86992 -4.43382 0
M  V30 6922 C 665.476 -2.38414 -4.63474 0
M  V30 6923 C 662.804 -3.11203 -4.97363 0
M  V30 6924 C 665.156 -3.61933 -5.18833 0
M  V30 6925 C 663.82 -3.98685 -5.35356 0
M  V30 6926 H 663.09 -0.0696305 -0.737721 0
M  V30 6927 H 665.737 -0.864044 -1.70899 0
M  V30 6928 H 664.042 0.588958 -3.87348 0
M  V30 6929 H 665.739 0.22001 -4.00396 0
M  V30 6930 H 662.329 -1.20959 -4.11177 0
M  V30 6931 H 666.513 -2.11442 -4.49006 0
M  V30 6932 H 661.769 -3.39705 -5.08341 0
M  V30 6933 H 665.943 -4.30326 -5.47533 0
M  V30 6934 H 663.57 -4.95009 -5.76949 0
M  V30 6935 N 665.145 1.52092 -0.413018 0
M  V30 6936 C 666.095 2.23947 0.427993 0
M  V30 6937 C 667.079 1.25229 1.01027 0
M  V30 6938 O 668.271 1.50448 0.932444 0
M  V30 6939 C 665.4 3.0672 1.542 0
M  V30 6940 C 664.486 4.12851 0.970307 0
M  V30 6941 N 664.877 5.05644 0.125611 0
M  V30 6942 C 663.175 4.28404 1.24042 0
M  V30 6943 C 663.876 5.8138 -0.192876 0
M  V30 6944 N 662.852 5.41996 0.417273 0
M  V30 6945 H 666.654 2.93048 -0.223628 0
M  V30 6946 H 664.168 1.60852 -0.223664 0
M  V30 6947 H 666.165 3.56754 2.15714 0
M  V30 6948 H 664.825 2.39159 2.19621 0
M  V30 6949 H 665.836 5.17348 -0.238995 0
M  V30 6950 H 662.513 3.72071 1.89391 0
M  V30 6951 H 663.903 6.66129 -0.878762 0
M  V30 6952 N 666.623 0.143563 1.56945 0
M  V30 6953 C 667.863 -0.511198 1.97904 0
M  V30 6954 C 668.227 -1.62262 1.0264 0
M  V30 6955 O 669.428 -2.338 1.32631 0
M  V30 6956 C 667.699 -1.00753 3.42905 0
M  V30 6957 S 669.258 -1.66737 4.05887 0
M  V30 6958 H 666.076 -0.165399 0.691494 0
M  V30 6959 H 668.678 0.234464 1.94089 0
M  V30 6960 H 667.382 -0.187817 4.0997 0
M  V30 6961 H 666.913 -1.7879 3.50425 0
M  V30 6962 H 668.928 -2.95444 3.98657 0
M  V30 6963 N 668.101 -1.57061 -0.130224 0
M  V30 6964 C 669.517 -1.52103 -0.483413 0
M  V30 6965 C 669.717 -0.854752 -1.82473 0
M  V30 6966 O 668.773 -0.432342 -2.48771 0
M  V30 6967 C 670.086 -2.96872 -0.47825 0
M  V30 6968 C 671.634 -3.07902 -0.562592 0
M  V30 6969 C 672.109 -4.54211 -0.587929 0
M  V30 6970 N 673.6 -4.58621 -0.649684 0
M  V30 6971 C 674.335 -5.69227 -0.690551 0
M  V30 6972 N 673.831 -6.89358 -0.689743 0
M  V30 6973 N 675.624 -5.57304 -0.732708 0
M  V30 6974 H 667.775 -1.98764 0.748779 0
M  V30 6975 H 670.038 -0.907248 0.274965 0
M  V30 6976 H 669.744 -3.48944 0.439444 0
M  V30 6977 H 669.618 -3.53716 -1.31013 0
M  V30 6978 H 672.005 -2.5584 -1.47071 0
M  V30 6979 H 672.086 -2.54073 0.296764 0
M  V30 6980 H 671.73 -5.06915 0.316096 0
M  V30 6981 H 671.66 -5.0584 -1.46401 0
M  V30 6982 H 674.151 -3.72146 -0.656927 0
M  V30 6983 H 674.464 -7.69408 -0.723239 0
M  V30 6984 H 672.809 -6.91884 -0.657347 0
M  V30 6985 H 676 -4.62363 -0.730625 0
M  V30 6986 H 676.173 -6.43515 -0.76109 0
M  V30 6987 N 669.579 0.400081 -1.52437 0
M  V30 6988 C 670.511 1.50729 -1.72666 0
M  V30 6989 C 671.524 1.51058 -0.607075 0
M  V30 6990 O 672.713 1.5516 -0.88248 0
M  V30 6991 C 669.813 2.89604 -1.76019 0
M  V30 6992 C 668.986 3.13365 -3.05157 0
M  V30 6993 C 668.045 4.32163 -3.00203 0
M  V30 6994 O 667.071 4.29004 -3.74092 0
M  V30 6995 N 668.273 5.3776 -2.18619 0
M  V30 6996 H 671.038 1.33767 -2.68191 0
M  V30 6997 H 668.599 0.58948 -1.50787 0
M  V30 6998 H 670.591 3.67159 -1.70225 0
M  V30 6999 H 669.161 2.99979 -0.879284 0
M  V30 7000 H 668.381 2.23774 -3.24529 0
M  V30 7001 H 669.669 3.26089 -3.90568 0
M  V30 7002 H 669.067 5.43177 -1.58035 0
M  V30 7003 H 667.624 6.14023 -2.18674 0
M  V30 7004 N 671.057 1.43213 0.657864 0
M  V30 7005 C 672.306 1.43871 1.41365 0
M  V30 7006 C 672.619 0.064898 1.95492 0
M  V30 7007 O 673.825 -0.0510796 2.71452 0
M  V30 7008 C 672.281 2.53158 2.55811 0
M  V30 7009 C 671.889 3.96624 2.08311 0
M  V30 7010 C 673.633 2.63004 3.3321 0
M  V30 7011 C 671.54 4.97385 3.1994 0
M  V30 7012 H 670.47 0.535174 0.531136 0
M  V30 7013 H 673.121 1.69185 0.710543 0
M  V30 7014 H 671.503 2.21037 3.2857 0
M  V30 7015 H 672.677 4.38182 1.42593 0
M  V30 7016 H 670.992 3.90781 1.43804 0
M  V30 7017 H 673.589 3.3546 4.16378 0
M  V30 7018 H 673.932 1.67918 3.80932 0
M  V30 7019 H 674.465 2.94403 2.67529 0
M  V30 7020 H 671.204 5.94007 2.77192 0
M  V30 7021 H 670.724 4.60444 3.84385 0
M  V30 7022 H 672.403 5.19877 3.85145 0
M  V30 7023 N 672.536 -0.895792 1.29666 0
M  V30 7024 C 673.784 -1.64339 1.17631 0
M  V30 7025 C 674.105 -1.93099 -0.271643 0
M  V30 7026 O 673.375 -1.55981 -1.18518 0
M  V30 7027 H 671.955 -0.609162 0.432354 0
M  V30 7028 H 674.617 -1.07389 1.62646 0
M  V30 7029 H 673.713 -2.59815 1.72924 0
M  V30 7030 N 674.014 -1.12206 -1.10668 0
M  V30 7031 C 675.239 -0.898938 -1.86906 0
M  V30 7032 C 675.664 0.546346 -1.79991 0
M  V30 7033 O 675.022 1.38655 -1.1681 0
M  V30 7034 C 675.07 -1.37529 -3.33344 0
M  V30 7035 O 674.174 -0.55218 -4.08687 0
M  V30 7036 H 673.515 -0.323163 -0.580053 0
M  V30 7037 H 676.045 -1.49355 -1.39837 0
M  V30 7038 H 676.055 -1.3733 -3.84193 0
M  V30 7039 H 674.73 -2.42767 -3.37693 0
M  V30 7040 H 673.307 -0.620947 -3.67694 0
M  V30 7041 N 675.492 1.28418 -0.913599 0
M  V30 7042 C 676.738 1.9527 -0.547484 0
M  V30 7043 C 677.071 1.71745 0.906486 0
M  V30 7044 O 676.346 1.03834 1.64465 0
M  V30 7045 C 676.629 3.49748 -0.857205 0
M  V30 7046 C 676.482 3.82675 -2.3639 0
M  V30 7047 C 677.801 4.3868 -0.353258 0
M  V30 7048 H 674.92 0.709236 -0.200381 0
M  V30 7049 H 677.562 1.51789 -1.14281 0
M  V30 7050 H 675.712 3.86915 -0.350548 0
M  V30 7051 H 677.384 3.55378 -2.94116 0
M  V30 7052 H 675.627 3.29724 -2.81894 0
M  V30 7053 H 676.298 4.90547 -2.53115 0
M  V30 7054 H 678.774 4.08584 -0.787288 0
M  V30 7055 H 677.65 5.45621 -0.599049 0
M  V30 7056 H 677.911 4.35753 0.746413 0
M  V30 7057 N 676.97 0.677563 1.42291 0
M  V30 7058 C 678.2 0.209155 2.05539 0
M  V30 7059 C 678.608 -1.13987 1.51009 0
M  V30 7060 O 677.951 -1.71976 0.645764 0
M  V30 7061 C 678.013 0.0697758 3.59432 0
M  V30 7062 C 677.677 1.34795 4.36668 0
M  V30 7063 C 678.674 2.28201 4.67141 0
M  V30 7064 C 676.359 1.59632 4.76259 0
M  V30 7065 C 678.353 3.44718 5.36142 0
M  V30 7066 C 676.04 2.76437 5.45 0
M  V30 7067 C 677.038 3.68805 5.74867 0
M  V30 7068 O 676.726 4.83567 6.42198 0
M  V30 7069 H 676.458 0.0986202 0.668768 0
M  V30 7070 H 679.012 0.925483 1.83368 0
M  V30 7071 H 677.242 -0.702157 3.80272 0
M  V30 7072 H 678.931 -0.359115 4.04308 0
M  V30 7073 H 679.697 2.10264 4.37052 0
M  V30 7074 H 675.576 0.886073 4.52404 0
M  V30 7075 H 679.12 4.16833 5.59371 0
M  V30 7076 H 675.017 2.94299 5.74507 0
M  V30 7077 H 675.785 4.83147 6.6069 0
M  V30 7078 N 678.448 -1.51871 0.421078 0
M  V30 7079 C 679.864 -1.59435 0.0725398 0
M  V30 7080 C 680.064 -1.43315 -1.41644 0
M  V30 7081 O 679.12 -1.26614 -2.18461 0
M  V30 7082 C 680.433 -2.9509 0.578132 0
M  V30 7083 C 681.981 -3.08356 0.537149 0
M  V30 7084 C 682.456 -4.4651 1.01945 0
M  V30 7085 N 683.947 -4.52784 0.976758 0
M  V30 7086 C 684.682 -5.57976 1.32099 0
M  V30 7087 N 684.178 -6.70664 1.73727 0
M  V30 7088 N 685.971 -5.48248 1.2402 0
M  V30 7089 H 678.122 -1.60595 1.39007 0
M  V30 7090 H 680.385 -0.756138 0.571803 0
M  V30 7091 H 680.091 -3.12205 1.61929 0
M  V30 7092 H 679.965 -3.772 -0.00578374 0
M  V30 7093 H 682.352 -2.90919 -0.494991 0
M  V30 7094 H 682.433 -2.28125 1.15727 0
M  V30 7095 H 682.077 -4.64692 2.04997 0
M  V30 7096 H 682.007 -5.25256 0.376023 0
M  V30 7097 H 684.498 -3.71898 0.670851 0
M  V30 7098 H 684.811 -7.46932 1.98274 0
M  V30 7099 H 683.156 -6.71914 1.77641 0
M  V30 7100 H 686.347 -4.59095 0.913756 0
M  V30 7101 H 686.52 -6.30119 1.51176 0
M  V30 7102 N 679.926 -0.151884 -1.56866 0
M  V30 7103 C 680.856 0.781943 -2.20018 0
M  V30 7104 C 681.837 1.25347 -1.14987 0
M  V30 7105 O 683.022 1.31015 -1.43348 0
M  V30 7106 C 680.152 2.01928 -2.82564 0
M  V30 7107 C 679.106 1.68434 -3.93464 0
M  V30 7108 C 678.432 2.99472 -4.42968 0
M  V30 7109 C 679.732 0.927244 -5.14003 0
M  V30 7110 H 681.426 0.255607 -2.98307 0
M  V30 7111 H 678.972 0.121502 -1.43486 0
M  V30 7112 H 680.925 2.67741 -3.25411 0
M  V30 7113 H 679.649 2.56943 -2.01614 0
M  V30 7114 H 678.308 1.04998 -3.51242 0
M  V30 7115 H 677.956 3.52488 -3.58834 0
M  V30 7116 H 677.656 2.77823 -5.17772 0
M  V30 7117 H 679.18 3.66348 -4.88489 0
M  V30 7118 H 680.594 1.48756 -5.53665 0
M  V30 7119 H 678.991 0.810513 -5.94601 0
M  V30 7120 H 680.061 -0.0801163 -4.84834 0
M  V30 7121 N 681.404 1.57128 0.121893 0
M  V30 7122 C 682.815 1.73902 0.679348 0
M  V30 7123 C 683.166 0.770135 1.80453 0
M  V30 7124 O 682.291 -0.0576083 2.16323 0
M  V30 7125 C 682.886 3.15328 1.2391 0
M  V30 7126 C 681.445 3.33618 1.74288 0
M  V30 7127 C 680.592 2.6978 0.641414 0
M  V30 7128 H 683.543 1.58359 -0.104 0
M  V30 7129 H 683.564 3.16718 2.10879 0
M  V30 7130 H 683.076 3.85821 0.419957 0
M  V30 7131 H 681.177 2.68162 2.58689 0
M  V30 7132 H 681.29 4.4176 1.85432 0
M  V30 7133 H 679.654 2.30935 1.0743 0
M  V30 7134 H 680.437 3.42895 -0.166707 0
M  V30 7135 N 682.882 -0.391992 1.52647 0
M  V30 7136 C 684.293 -0.970064 1.5952 0
M  V30 7137 C 684.644 -1.91059 0.446207 0
M  V30 7138 O 683.769 -2.12062 -0.431125 0
M  V30 7139 C 684.364 -1.76614 2.89125 0
M  V30 7140 C 682.923 -2.29396 2.9842 0
M  V30 7141 C 682.07 -1.09864 2.54608 0
M  V30 7142 H 685.021 -0.171638 1.57769 0
M  V30 7143 H 685.042 -2.62511 2.75442 0
M  V30 7144 H 684.554 -1.08135 3.72731 0
M  V30 7145 H 682.655 -3.01196 2.19344 0
M  V30 7146 H 682.768 -2.59088 4.03002 0
M  V30 7147 H 681.132 -1.45777 2.08857 0
M  V30 7148 H 681.915 -0.429249 3.40606 0
M  V30 7149 N 684.36 -1.4356 -0.65026 0
M  V30 7150 C 685.29 -1.51758 -1.77459 0
M  V30 7151 C 686.271 -0.372019 -1.65982 0
M  V30 7152 O 687.456 -0.589627 -1.85033 0
M  V30 7153 C 684.586 -1.44302 -3.15902 0
M  V30 7154 C 683.54 -2.57138 -3.42146 0
M  V30 7155 C 682.866 -2.34735 -4.8042 0
M  V30 7156 C 684.166 -3.99373 -3.36598 0
M  V30 7157 H 685.86 -2.45863 -1.70855 0
M  V30 7158 H 683.406 -1.18333 -0.820566 0
M  V30 7159 H 685.359 -1.48641 -3.94314 0
M  V30 7160 H 684.083 -0.467026 -3.23244 0
M  V30 7161 H 682.742 -2.52157 -2.66106 0
M  V30 7162 H 682.39 -1.35372 -4.84441 0
M  V30 7163 H 682.09 -3.10375 -4.9894 0
M  V30 7164 H 683.614 -2.40862 -5.61086 0
M  V30 7165 H 685.028 -4.05826 -4.04942 0
M  V30 7166 H 683.425 -4.75063 -3.66654 0
M  V30 7167 H 684.495 -4.243 -2.34729 0
M  V30 7168 N 685.838 0.888903 -1.30139 0
M  V30 7169 C 687.254 1.17153 -1.08385 0
M  V30 7170 C 687.454 2.0088 0.157925 0
M  V30 7171 O 686.51 2.37668 0.852652 0
M  V30 7172 C 687.823 1.882 -2.34523 0
M  V30 7173 C 689.371 2.00981 -2.39949 0
M  V30 7174 C 689.846 2.75441 -3.65918 0
M  V30 7175 N 691.337 2.82989 -3.66704 0
M  V30 7176 C 692.072 3.41167 -4.60861 0
M  V30 7177 N 691.568 4.00425 -5.6536 0
M  V30 7178 N 693.361 3.38944 -4.48412 0
M  V30 7179 H 685.512 0.33053 -2.09812 0
M  V30 7180 H 687.775 0.208964 -0.924683 0
M  V30 7181 H 687.481 1.34119 -3.25123 0
M  V30 7182 H 687.355 2.88609 -2.42868 0
M  V30 7183 H 689.742 2.54234 -1.4983 0
M  V30 7184 H 689.823 0.996725 -2.35582 0
M  V30 7185 H 689.467 2.22861 -4.56394 0
M  V30 7186 H 689.397 3.77118 -3.67546 0
M  V30 7187 H 691.888 2.40912 -2.91153 0
M  V30 7188 H 692.201 4.42871 -6.33313 0
M  V30 7189 H 690.546 3.98856 -5.69157 0
M  V30 7190 H 693.737 2.91875 -3.6596 0
M  V30 7191 H 693.91 3.83989 -5.21974 0
M  V30 7192 N 687.317 1.12792 1.10072 0
M  V30 7193 C 688.264 0.79921 2.16521 0
M  V30 7194 C 689.234 -0.235726 1.64419 0
M  V30 7195 O 690.419 -0.109457 1.90486 0
M  V30 7196 C 687.559 0.264091 3.44088 0
M  V30 7197 C 686.672 1.35729 4.10124 0
M  V30 7198 C 685.807 0.781212 5.25424 0
M  V30 7199 C 684.846 1.85327 5.8337 0
M  V30 7200 N 683.983 1.29564 6.90042 0
M  V30 7201 H 688.823 1.71105 2.43981 0
M  V30 7202 H 686.36 0.854225 1.19756 0
M  V30 7203 H 688.318 -0.0642423 4.17151 0
M  V30 7204 H 686.948 -0.610901 3.16967 0
M  V30 7205 H 686 1.80234 3.34993 0
M  V30 7206 H 687.312 2.16782 4.4923 0
M  V30 7207 H 686.466 0.403769 6.05355 0
M  V30 7208 H 685.205 -0.0604686 4.87663 0
M  V30 7209 H 684.21 2.23986 5.02106 0
M  V30 7210 H 685.435 2.69824 6.23195 0
M  V30 7211 H 683.381 0.475844 6.54272 0
M  V30 7212 H 683.298 2.04271 7.2788 0
M  V30 7213 H 684.566 0.945545 7.73744 0
M  V30 7214 N 688.795 -1.27931 0.920396 0
M  V30 7215 C 690.043 -1.94304 0.555906 0
M  V30 7216 C 690.364 -1.72753 -0.904519 0
M  V30 7217 O 689.634 -1.07104 -1.64029 0
M  V30 7218 H 688.214 -0.719001 0.202599 0
M  V30 7219 H 690.876 -1.55785 1.1712 0
M  V30 7220 H 689.972 -3.02806 0.755981 0
M  V30 7221 N 690.273 -0.685099 -1.4193 0
M  V30 7222 C 691.183 -0.013404 -2.34596 0
M  V30 7223 C 692.199 0.777589 -1.55658 0
M  V30 7224 O 693.375 0.717553 -1.88184 0
M  V30 7225 C 690.44 0.919031 -3.34297 0
M  V30 7226 C 689.501 0.121417 -4.29128 0
M  V30 7227 C 688.734 1.00944 -5.24067 0
M  V30 7228 O 688.957 2.24898 -5.24192 0
M  V30 7229 O 687.891 0.464724 -6.00103 0
M  V30 7230 H 691.717 -0.776978 -2.93593 0
M  V30 7231 H 689.302 -0.445379 -1.42607 0
M  V30 7232 H 691.184 1.45402 -3.9552 0
M  V30 7233 H 689.859 1.66228 -2.77759 0
M  V30 7234 H 688.766 -0.45792 -3.71287 0
M  V30 7235 H 690.099 -0.582937 -4.88736 0
M  V30 7236 N 691.751 1.51645 -0.429126 0
M  V30 7237 C 692.997 2.02314 0.140286 0
M  V30 7238 C 693.33 1.31314 1.43074 0
M  V30 7239 O 692.605 0.425531 1.89788 0
M  V30 7240 C 692.888 3.5822 0.36749 0
M  V30 7241 C 692.741 4.39846 -0.941039 0
M  V30 7242 C 694.06 4.25055 1.14089 0
M  V30 7243 H 691.179 0.735335 0.0495112 0
M  V30 7244 H 693.821 1.81358 -0.566514 0
M  V30 7245 H 691.971 3.76207 0.969556 0
M  V30 7246 H 693.643 4.33527 -1.57646 0
M  V30 7247 H 691.886 4.05259 -1.54751 0
M  V30 7248 H 692.557 5.47069 -0.73621 0
M  V30 7249 H 695.033 4.11288 0.630986 0
M  V30 7250 H 693.909 5.34038 1.26863 0
M  V30 7251 H 694.17 3.85358 2.16683 0
M  V30 7252 N 693.229 0.160201 1.56784 0
M  V30 7253 C 694.159 -0.770264 2.2043 0
M  V30 7254 C 695.14 -1.24736 1.15651 0
M  V30 7255 O 696.325 -1.30253 1.44041 0
M  V30 7256 C 693.455 -2.00427 2.83631 0
M  V30 7257 C 692.409 -1.66345 3.94352 0
M  V30 7258 C 691.735 -2.97119 4.4455 0
M  V30 7259 C 693.035 -0.899972 5.14488 0
M  V30 7260 H 694.729 -0.239783 2.98438 0
M  V30 7261 H 692.275 -0.113891 1.43549 0
M  V30 7262 H 694.228 -2.66012 3.26827 0
M  V30 7263 H 692.952 -2.5587 2.02973 0
M  V30 7264 H 691.611 -1.03133 3.51794 0
M  V30 7265 H 691.259 -3.5058 3.60698 0
M  V30 7266 H 690.959 -2.75073 5.19238 0
M  V30 7267 H 692.483 -3.63753 4.90425 0
M  V30 7268 H 693.897 -1.45818 5.54446 0
M  V30 7269 H 692.294 -0.778968 5.95023 0
M  V30 7270 H 693.364 0.105827 4.84785 0
M  V30 7271 N 694.707 -1.5719 -0.113559 0
M  V30 7272 C 696.118 -1.74259 -0.670116 0
M  V30 7273 C 696.469 -0.779694 -1.80042 0
M  V30 7274 O 695.594 0.0461353 -2.16351 0
M  V30 7275 C 696.189 -3.15981 -1.22236 0
M  V30 7276 C 694.748 -3.34537 -1.72516 0
M  V30 7277 C 693.895 -2.70116 -0.627098 0
M  V30 7278 H 696.846 -1.58301 0.112396 0
M  V30 7279 H 696.867 -3.17832 -2.09197 0
M  V30 7280 H 696.379 -3.86038 -0.39949 0
M  V30 7281 H 694.48 -2.6953 -2.57263 0
M  V30 7282 H 694.593 -4.42737 -1.83086 0
M  V30 7283 H 692.957 -2.31501 -1.06204 0
M  V30 7284 H 693.74 -3.42802 0.184889 0
M  V30 7285 N 696.185 0.383891 -1.52853 0
M  V30 7286 C 697.115 1.47559 -1.80965 0
M  V30 7287 C 698.096 1.5669 -0.661986 0
M  V30 7288 O 699.281 1.71556 -0.910072 0
M  V30 7289 C 696.411 2.85114 -1.98312 0
M  V30 7290 C 695.365 2.9082 -3.14019 0
M  V30 7291 C 694.691 4.30873 -3.16627 0
M  V30 7292 C 695.991 2.60001 -4.52986 0
M  V30 7293 H 697.685 1.24283 -2.72386 0
M  V30 7294 H 695.231 0.596445 -1.31067 0
M  V30 7295 H 697.184 3.61496 -2.16561 0
M  V30 7296 H 695.908 3.09738 -1.03585 0
M  V30 7297 H 694.567 2.16886 -2.9556 0
M  V30 7298 H 694.215 4.52545 -2.19573 0
M  V30 7299 H 693.915 4.3561 -3.94357 0
M  V30 7300 H 695.439 5.09154 -3.37038 0
M  V30 7301 H 696.853 3.261 -4.71521 0
M  V30 7302 H 695.25 2.76081 -5.32822 0
M  V30 7303 H 696.32 1.5532 -4.59351 0
M  V30 7304 N 697.663 1.43903 0.642637 0
M  V30 7305 C 699.074 1.40975 1.22404 0
M  V30 7306 C 699.425 0.1192 1.95838 0
M  V30 7307 O 698.55 -0.780939 2.01818 0
M  V30 7308 C 699.145 2.5538 2.22636 0
M  V30 7309 C 697.704 2.55684 2.76229 0
M  V30 7310 C 696.851 2.32556 1.51039 0
M  V30 7311 H 699.802 1.5265 0.434006 0
M  V30 7312 H 699.823 2.27474 3.05017 0
M  V30 7313 H 699.335 3.49294 1.69161 0
M  V30 7314 H 697.436 1.65679 3.33738 0
M  V30 7315 H 697.549 3.53799 3.23053 0
M  V30 7316 H 695.913 1.81427 1.78764 0
M  V30 7317 H 696.696 3.28569 0.99484 0
M  V30 7318 N 699.141 -0.881989 1.30609 0
M  V30 7319 C 700.051 -2.02076 1.19174 0
M  V30 7320 C 701.067 -1.73645 0.11102 0
M  V30 7321 O 702.243 -1.98735 0.326528 0
M  V30 7322 C 699.308 -3.3515 0.887438 0
M  V30 7323 C 698.369 -3.76983 2.05383 0
M  V30 7324 C 697.602 -5.03707 1.76395 0
M  V30 7325 O 697.825 -5.66171 0.693302 0
M  V30 7326 O 696.759 -5.42019 2.61723 0
M  V30 7327 H 700.585 -2.14652 2.14845 0
M  V30 7328 H 698.17 -1.00843 1.10232 0
M  V30 7329 H 700.052 -4.14975 0.73306 0
M  V30 7330 H 698.727 -3.23676 -0.0393354 0
M  V30 7331 H 697.634 -2.97849 2.26355 0
M  V30 7332 H 698.967 -3.93066 2.96243 0
M  V30 7333 N 700.619 -1.13374 -1.09472 0
M  V30 7334 C 701.582 -0.813639 -2.14272 0
M  V30 7335 C 702.582 0.176677 -1.59826 0
M  V30 7336 O 703.772 -0.0503441 -1.74127 0
M  V30 7337 C 700.904 -0.210897 -3.40247 0
M  V30 7338 H 702.097 -1.74229 -2.44099 0
M  V30 7339 H 699.65 -0.938304 -1.25002 0
M  V30 7340 H 700.385 0.726998 -3.16046 0
M  V30 7341 H 700.17 -0.924048 -3.81056 0
M  V30 7342 H 701.66 -0.00377603 -4.176 0
M  V30 7343 N 702.098 1.27442 -0.927168 0
M  V30 7344 C 703.046 2.28844 -0.416333 0
M  V30 7345 C 704.04 1.61882 0.499057 0
M  V30 7346 O 705.246 1.75969 0.378817 0
M  V30 7347 H 701.621 0.742989 -0.116065 0
M  V30 7348 H 703.592 2.69344 -1.28438 0
M  V30 7349 C 702.341 3.4626 0.316107 0
M  V30 7350 H 701.664 3.97999 -0.379082 0
M  V30 7351 H 703.104 4.19173 0.637975 0
M  V30 7352 C 701.563 3.00211 1.5289 0
M  V30 7353 O 702.093 3.03837 2.62766 0
M  V30 7354 N 700.299 2.55713 1.38054 0
M  V30 7355 H 699.846 2.52962 0.4866 0
M  V30 7356 H 699.804 2.25264 2.19325 0
M  V30 7357 N 703.576 0.692616 1.41565 0
M  V30 7358 C 704.823 0.222335 2.01276 0
M  V30 7359 C 705.151 -1.17706 1.5484 0
M  V30 7360 O 704.406 -1.80795 0.749118 0
M  V30 7361 C 704.705 0.225073 3.56691 0
M  V30 7362 C 704.371 1.57158 4.22625 0
M  V30 7363 C 703.033 1.94022 4.40351 0
M  V30 7364 C 705.385 2.45758 4.59622 0
M  V30 7365 C 702.713 3.19076 4.92349 0
M  V30 7366 C 705.065 3.70141 5.13009 0
M  V30 7367 C 703.729 4.07152 5.28946 0
M  V30 7368 H 702.999 0.0813581 0.73652 0
M  V30 7369 H 705.646 0.891123 1.69503 0
M  V30 7370 H 703.951 -0.527259 3.88236 0
M  V30 7371 H 705.648 -0.156283 4.00695 0
M  V30 7372 H 702.238 1.27486 4.09201 0
M  V30 7373 H 706.422 2.18558 4.45585 0
M  V30 7374 H 701.678 3.4775 5.02872 0
M  V30 7375 H 705.852 4.38983 5.40617 0
M  V30 7376 H 703.479 5.04125 5.69001 0
M  V30 7377 N 705.054 -1.51416 0.437162 0
M  V30 7378 C 706.465 -1.86682 -0.0260005 0
M  V30 7379 C 706.816 -1.35432 -1.4196 0
M  V30 7380 O 705.941 -0.705055 -2.04592 0
M  V30 7381 C 706.536 -3.38757 -0.0539577 0
M  V30 7382 C 705.095 -3.7356 -0.461532 0
M  V30 7383 C 704.242 -2.75134 0.345924 0
M  V30 7384 H 707.193 -1.44642 0.653013 0
M  V30 7385 H 707.214 -3.70573 -0.863478 0
M  V30 7386 H 706.726 -3.76028 0.96045 0
M  V30 7387 H 704.827 -3.41878 -1.48155 0
M  V30 7388 H 704.94 -4.78737 -0.186451 0
M  V30 7389 H 703.304 -2.53947 -0.195739 0
M  V30 7390 H 704.087 -3.15247 1.35921 0
M  V30 7391 N 706.532 -0.168513 -1.56696 0
M  V30 7392 C 707.757 0.486688 -2.01609 0
M  V30 7393 C 708.182 1.56203 -1.04796 0
M  V30 7394 O 707.54 1.8128 -0.0270596 0
M  V30 7395 C 707.588 1.04451 -3.45141 0
M  V30 7396 O 706.692 2.15862 -3.51393 0
M  V30 7397 H 706.033 0.116831 -0.653641 0
M  V30 7398 H 708.563 -0.271579 -2.0279 0
M  V30 7399 H 708.573 1.36782 -3.84389 0
M  V30 7400 H 707.248 0.257155 -4.15104 0
M  V30 7401 H 705.825 1.84597 -3.24004 0
M  V30 7402 N 708.01 1.57248 0.105221 0
M  V30 7403 C 709.257 1.8557 0.810552 0
M  V30 7404 C 709.585 0.755595 1.79223 0
M  V30 7405 O 708.84 -0.251788 1.94073 0
M  V30 7406 C 709.139 3.20437 1.58287 0
M  V30 7407 C 708.805 4.44716 0.744235 0
M  V30 7408 C 707.467 4.78458 0.513013 0
M  V30 7409 C 709.819 5.20953 0.160578 0
M  V30 7410 C 707.147 5.8587 -0.311894 0
M  V30 7411 C 709.499 6.29235 -0.651596 0
M  V30 7412 C 708.163 6.615 -0.893005 0
M  V30 7413 H 707.433 0.67905 0.296602 0
M  V30 7414 H 710.08 1.91363 0.0723968 0
M  V30 7415 H 708.385 3.10283 2.39232 0
M  V30 7416 H 710.082 3.39576 2.13282 0
M  V30 7417 H 706.672 4.18287 0.934555 0
M  V30 7418 H 710.856 4.95226 0.3264 0
M  V30 7419 H 706.112 6.09286 -0.508012 0
M  V30 7420 H 710.286 6.87484 -1.11077 0
M  V30 7421 H 707.913 7.44562 -1.53401 0
M  V30 7422 N 709.488 -0.375779 1.53054 0
M  V30 7423 C 710.899 -0.95309 1.6054 0
M  V30 7424 C 711.25 -1.90575 0.466446 0
M  V30 7425 O 710.375 -2.12507 -0.408609 0
M  V30 7426 C 710.97 -1.73537 2.90982 0
M  V30 7427 C 709.529 -2.26218 3.00836 0
M  V30 7428 C 708.676 -1.07157 2.55759 0
M  V30 7429 H 711.627 -0.154895 1.57942 0
M  V30 7430 H 711.648 -2.59574 2.78211 0
M  V30 7431 H 711.16 -1.04176 3.73857 0
M  V30 7432 H 709.261 -2.98852 2.22527 0
M  V30 7433 H 709.374 -2.54799 4.05727 0
M  V30 7434 H 707.738 -1.43553 2.10391 0
M  V30 7435 H 708.521 -0.393099 3.41042 0
M  V30 7436 N 710.966 -1.44241 -0.634997 0
M  V30 7437 C 711.896 -1.53632 -1.7584 0
M  V30 7438 C 712.877 -0.389603 -1.65578 0
M  V30 7439 O 714.062 -0.609219 -1.84397 0
M  V30 7440 C 711.192 -1.47644 -3.14354 0
M  V30 7441 C 710.146 -2.60752 -3.394 0
M  V30 7442 C 709.472 -2.39817 -4.77904 0
M  V30 7443 C 710.772 -4.02921 -3.32343 0
M  V30 7444 H 712.466 -2.47662 -1.68238 0
M  V30 7445 H 710.012 -1.19197 -0.807969 0
M  V30 7446 H 711.965 -1.52815 -3.92716 0
M  V30 7447 H 710.689 -0.501284 -3.2273 0
M  V30 7448 H 709.348 -2.54965 -2.63417 0
M  V30 7449 H 708.996 -1.40502 -4.82978 0
M  V30 7450 H 708.696 -3.15649 -4.9562 0
M  V30 7451 H 710.22 -2.46799 -5.585 0
M  V30 7452 H 711.634 -4.10098 -4.00615 0
M  V30 7453 H 710.031 -4.78925 -3.61595 0
M  V30 7454 H 711.101 -4.26766 -2.30215 0
M  V30 7455 N 712.444 0.87505 -1.31075 0
M  V30 7456 C 713.855 1.4433 -1.18431 0
M  V30 7457 C 714.206 1.9506 0.211189 0
M  V30 7458 O 713.331 1.85847 1.10859 0
M  V30 7459 C 713.926 2.62341 -2.14389 0
M  V30 7460 C 712.485 3.15225 -2.05694 0
M  V30 7461 C 711.632 1.87929 -2.03907 0
M  V30 7462 H 714.583 0.684061 -1.432 0
M  V30 7463 H 714.604 3.3887 -1.73053 0
M  V30 7464 H 714.116 2.25388 -3.15946 0
M  V30 7465 H 712.217 3.56812 -1.07314 0
M  V30 7466 H 712.33 3.77853 -2.94558 0
M  V30 7467 H 710.694 2.06679 -1.48849 0
M  V30 7468 H 711.477 1.53221 -3.07211 0
M  V30 7469 N 713.922 1.13953 1.08869 0
M  V30 7470 C 714.872 0.790812 2.13846 0
M  V30 7471 C 715.856 -0.217819 1.59419 0
M  V30 7472 O 717.048 -0.0208723 1.76988 0
M  V30 7473 C 714.177 0.26479 3.42277 0
M  V30 7474 C 713.263 1.30267 4.03598 0
M  V30 7475 N 713.654 2.50535 4.39393 0
M  V30 7476 C 711.952 1.15178 4.30871 0
M  V30 7477 C 712.653 3.16938 4.87776 0
M  V30 7478 N 711.629 2.44349 4.85587 0
M  V30 7479 H 715.431 1.70577 2.39334 0
M  V30 7480 H 712.945 1.02268 1.26154 0
M  V30 7481 H 714.942 -0.00330398 4.169 0
M  V30 7482 H 713.602 -0.644419 3.18241 0
M  V30 7483 H 714.613 2.87798 4.30572 0
M  V30 7484 H 711.29 0.301204 4.16412 0
M  V30 7485 H 712.68 4.19453 5.2489 0
M  V30 7486 N 715.4 -1.26948 0.933913 0
M  V30 7487 C 716.35 -2.24306 0.408779 0
M  V30 7488 C 717.334 -1.53243 -0.490435 0
M  V30 7489 O 718.526 -1.73956 -0.326866 0
M  V30 7490 C 715.655 -3.41695 -0.331578 0
M  V30 7491 C 714.741 -4.20053 0.58451 0
M  V30 7492 N 715.132 -4.76122 1.70709 0
M  V30 7493 C 713.43 -4.44303 0.388703 0
M  V30 7494 C 714.131 -5.35267 2.27737 0
M  V30 7495 N 713.107 -5.20548 1.56622 0
M  V30 7496 H 716.909 -2.65244 1.26582 0
M  V30 7497 H 714.423 -1.4195 0.788919 0
M  V30 7498 H 716.42 -4.10552 -0.724774 0
M  V30 7499 H 715.08 -3.02286 -1.18547 0
M  V30 7500 H 716.091 -4.73884 2.08937 0
M  V30 7501 H 712.768 -4.15341 -0.424016 0
M  V30 7502 H 714.158 -5.89563 3.22282 0
M  V30 7503 N 716.879 -0.700114 -1.41195 0
M  V30 7504 C 717.826 -0.0376652 -2.30769 0
M  V30 7505 C 718.796 0.766544 -1.47354 0
M  V30 7506 O 719.981 0.73365 -1.76131 0
M  V30 7507 C 717.121 0.889452 -3.33441 0
M  V30 7508 C 716.234 0.076373 -4.31932 0
M  V30 7509 C 715.369 1.00155 -5.21673 0
M  V30 7510 C 714.408 0.181644 -6.1183 0
M  V30 7511 N 713.545 1.06087 -6.94039 0
M  V30 7512 H 718.385 -0.80726 -2.86858 0
M  V30 7513 H 715.922 -0.409798 -1.41277 0
M  V30 7514 H 717.88 1.44107 -3.91522 0
M  V30 7515 H 716.51 1.6254 -2.78892 0
M  V30 7516 H 715.562 -0.592223 -3.75762 0
M  V30 7517 H 716.874 -0.559076 -4.95657 0
M  V30 7518 H 716.028 1.62223 -5.8461 0
M  V30 7519 H 714.767 1.67085 -4.58186 0
M  V30 7520 H 713.772 -0.452085 -5.47938 0
M  V30 7521 H 714.997 -0.483925 -6.77374 0
M  V30 7522 H 712.943 1.7161 -6.33156 0
M  V30 7523 H 712.86 0.481094 -7.54468 0
M  V30 7524 H 714.128 1.66822 -7.6144 0
M  V30 7525 N 718.357 1.51182 -0.445186 0
M  V30 7526 C 719.307 2.24804 0.380394 0
M  V30 7527 C 720.291 1.27344 0.983482 0
M  V30 7528 O 721.483 1.52392 0.900322 0
M  V30 7529 C 718.612 3.09922 1.4766 0
M  V30 7530 C 717.698 4.14816 0.882517 0
M  V30 7531 N 718.089 5.05797 0.0183278 0
M  V30 7532 C 716.387 4.30938 1.14927 0
M  V30 7533 C 717.088 5.8084 -0.316152 0
M  V30 7534 N 716.064 5.42759 0.302214 0
M  V30 7535 H 719.866 2.92508 -0.285737 0
M  V30 7536 H 717.38 1.60342 -0.257733 0
M  V30 7537 H 719.377 3.61249 2.08098 0
M  V30 7538 H 718.037 2.43763 2.14498 0
M  V30 7539 H 719.048 5.16725 -0.348679 0
M  V30 7540 H 715.725 3.76005 1.81457 0
M  V30 7541 H 717.115 6.64115 -1.01986 0
M  V30 7542 N 719.835 0.176821 1.56605 0
M  V30 7543 C 721.246 -0.338963 1.83597 0
M  V30 7544 C 721.597 -1.62677 1.09684 0
M  V30 7545 O 720.722 -2.13524 0.351661 0
M  V30 7546 C 721.317 -0.62177 3.33046 0
M  V30 7547 C 719.876 -1.08198 3.60514 0
M  V30 7548 C 719.023 -0.120774 2.77037 0
M  V30 7549 H 721.974 0.400978 1.53551 0
M  V30 7550 H 721.995 -1.47321 3.50823 0
M  V30 7551 H 721.507 0.315692 3.86814 0
M  V30 7552 H 719.608 -2.03435 3.12162 0
M  V30 7553 H 719.721 -0.987329 4.68816 0
M  V30 7554 H 718.085 -0.619192 2.47059 0
M  V30 7555 H 718.868 0.810806 3.33588 0
M  V30 7556 N 721.313 -1.57302 -0.09688 0
M  V30 7557 C 722.243 -2.0497 -1.11846 0
M  V30 7558 C 723.224 -0.938278 -1.41882 0
M  V30 7559 O 724.409 -1.20943 -1.51942 0
M  V30 7560 C 721.539 -2.47264 -2.43881 0
M  V30 7561 C 720.493 -3.62053 -2.28257 0
M  V30 7562 C 719.819 -3.90318 -3.65453 0
M  V30 7563 C 721.119 -4.93005 -1.72461 0
M  V30 7564 H 722.813 -2.90567 -0.721888 0
M  V30 7565 H 720.359 -1.39786 -0.345803 0
M  V30 7566 H 722.312 -2.7922 -3.15617 0
M  V30 7567 H 721.036 -1.58664 -2.8547 0
M  V30 7568 H 719.695 -3.30341 -1.58967 0
M  V30 7569 H 719.343 -2.98889 -4.04567 0
M  V30 7570 H 719.043 -4.67597 -3.55846 0
M  V30 7571 H 720.567 -4.24747 -4.3866 0
M  V30 7572 H 721.981 -5.23354 -2.34036 0
M  V30 7573 H 720.378 -5.74436 -1.73618 0
M  V30 7574 H 721.448 -4.80053 -0.683898 0
M  V30 7575 N 722.791 0.367657 -1.53252 0
M  V30 7576 C 723.738 1.45028 -1.79543 0
M  V30 7577 C 724.708 1.53288 -0.63969 0
M  V30 7578 O 725.893 1.69209 -0.881653 0
M  V30 7579 C 723.033 2.82 -1.98923 0
M  V30 7580 C 722.146 2.82722 -3.26638 0
M  V30 7581 C 721.281 4.11257 -3.36216 0
M  V30 7582 C 720.32 4.06113 -4.57972 0
M  V30 7583 N 719.457 5.26293 -4.64715 0
M  V30 7584 H 724.297 1.21908 -2.71923 0
M  V30 7585 H 721.834 0.591011 -1.34705 0
M  V30 7586 H 723.792 3.61568 -2.08146 0
M  V30 7587 H 722.422 3.03523 -1.09881 0
M  V30 7588 H 721.474 1.95399 -3.26379 0
M  V30 7589 H 722.786 2.74794 -4.16281 0
M  V30 7590 H 721.94 4.99239 -3.44739 0
M  V30 7591 H 720.679 4.21935 -2.44586 0
M  V30 7592 H 719.684 3.16517 -4.49552 0
M  V30 7593 H 720.909 3.97039 -5.50942 0
M  V30 7594 H 718.855 5.37561 -3.75985 0
M  V30 7595 H 718.772 5.20526 -5.4826 0
M  V30 7596 H 720.04 6.16113 -4.77519 0
M  V30 7597 N 724.269 1.44576 0.627338 0
M  V30 7598 C 725.68 1.42266 1.20902 0
M  V30 7599 C 726.031 0.139964 1.957 0
M  V30 7600 O 725.156 -0.759489 2.02634 0
M  V30 7601 C 725.751 2.57727 2.19914 0
M  V30 7602 C 724.31 2.58599 2.73502 0
M  V30 7603 C 723.457 2.34145 1.48564 0
M  V30 7604 H 726.408 1.53102 0.417791 0
M  V30 7605 H 726.429 2.30697 3.02588 0
M  V30 7606 H 725.941 3.51068 1.65447 0
M  V30 7607 H 724.042 1.6921 3.31962 0
M  V30 7608 H 724.155 3.57205 3.19282 0
M  V30 7609 H 722.519 1.83313 1.76829 0
M  V30 7610 H 723.302 3.29606 0.959935 0
M  V30 7611 N 725.747 -0.868086 1.31537 0
M  V30 7612 C 727.024 -1.60384 1.11965 0
M  V30 7613 C 727.404 -2.08584 -0.324949 0
M  V30 7614 O 726.752 -1.86561 -1.31937 0
M  V30 7615 C 726.962 -2.76038 2.13551 0
M  V30 7616 C 728.31 -3.45954 2.46173 0
M  V30 7617 O 729.334 -2.86247 2.11993 0
M  V30 7618 O 728.193 -4.53666 3.04711 0
M  V30 7619 H 725.287 -0.705705 0.431172 0
M  V30 7620 H 727.833 -0.913385 1.43022 0
M  V30 7621 H 726.605 -2.37849 3.10714 0
M  V30 7622 H 726.228 -3.52769 1.83411 0
M  V30 7623 N 727.225 -1.14528 -1.08264 0
M  V30 7624 C 728.173 -0.829201 -2.17318 0
M  V30 7625 C 729.167 0.193521 -1.68291 0
M  V30 7626 O 730.373 0.0494744 -1.79932 0
M  V30 7627 H 726.748 -0.250435 -0.709074 0
M  V30 7628 H 728.719 -1.75683 -2.41201 0
M  V30 7629 C 727.468 -0.324663 -3.46181 0
M  V30 7630 H 726.791 -1.10299 -3.84284 0
M  V30 7631 H 728.231 -0.142059 -4.23762 0
M  V30 7632 C 726.69 0.952033 -3.23169 0
M  V30 7633 O 727.22 2.02549 -3.46896 0
M  V30 7634 N 725.426 0.887854 -2.76705 0
M  V30 7635 H 724.973 0.0141402 -2.57596 0
M  V30 7636 H 724.931 1.74263 -2.61686 0
M  V30 7637 N 728.703 1.26451 -0.940633 0
M  V30 7638 C 729.635 2.25556 -0.407104 0
M  V30 7639 C 730.648 1.55888 0.469324 0
M  V30 7640 O 731.837 1.76292 0.279858 0
M  V30 7641 C 728.937 3.36109 0.434064 0
M  V30 7642 C 728.11 4.3532 -0.426082 0
M  V30 7643 C 727.169 5.25004 0.354563 0
M  V30 7644 O 726.195 5.68684 -0.242219 0
M  V30 7645 N 727.397 5.5652 1.65123 0
M  V30 7646 H 730.162 2.7197 -1.25907 0
M  V30 7647 H 727.723 1.40212 -0.809456 0
M  V30 7648 H 729.715 3.93059 0.963684 0
M  V30 7649 H 728.285 2.89194 1.18683 0
M  V30 7650 H 727.505 3.77449 -1.13692 0
M  V30 7651 H 728.793 4.986 -1.01366 0
M  V30 7652 H 728.191 5.22912 2.15822 0
M  V30 7653 H 726.748 6.16115 2.12711 0
M  V30 7654 N 730.181 0.707592 1.40822 0
M  V30 7655 C 731.592 0.317011 1.83989 0
M  V30 7656 C 731.943 -1.14697 1.59182 0
M  V30 7657 O 731.068 -1.8818 1.06852 0
M  V30 7658 C 731.663 0.568593 3.33995 0
M  V30 7659 C 730.222 0.231804 3.75686 0
M  V30 7660 C 729.369 0.844933 2.64114 0
M  V30 7661 H 732.32 0.907349 1.30203 0
M  V30 7662 H 732.341 -0.168798 3.80125 0
M  V30 7663 H 731.853 1.63417 3.52018 0
M  V30 7664 H 729.954 -0.82903 3.6326 0
M  V30 7665 H 730.067 0.695219 4.74029 0
M  V30 7666 H 728.431 0.273588 2.53226 0
M  V30 7667 H 729.214 1.91462 2.84951 0
M  V30 7668 N 731.66 -1.50943 0.453197 0
M  V30 7669 C 732.907 -2.02212 -0.107922 0
M  V30 7670 C 733.235 -1.33639 -1.41318 0
M  V30 7671 O 732.49 -0.445154 -1.9057 0
M  V30 7672 C 732.789 -3.55603 -0.357944 0
M  V30 7673 C 732.455 -4.42556 0.863427 0
M  V30 7674 C 731.117 -4.6604 1.19834 0
M  V30 7675 C 733.469 -4.93468 1.67747 0
M  V30 7676 C 730.797 -5.37681 2.34768 0
M  V30 7677 C 733.149 -5.6637 2.81793 0
M  V30 7678 C 731.813 -5.88113 3.1572 0
M  V30 7679 H 731.083 -0.739947 -0.0394916 0
M  V30 7680 H 733.73 -1.81738 0.60363 0
M  V30 7681 H 732.035 -3.74495 -1.15156 0
M  V30 7682 H 733.732 -3.92821 -0.805781 0
M  V30 7683 H 730.322 -4.24485 0.592478 0
M  V30 7684 H 734.506 -4.75194 1.43192 0
M  V30 7685 H 729.762 -5.52727 2.61348 0
M  V30 7686 H 733.936 -6.04806 3.45229 0
M  V30 7687 H 731.563 -6.43404 4.04889 0
M  V30 7688 N 733.138 -0.185124 -1.56509 0
M  V30 7689 C 734.549 0.329221 -1.83774 0
M  V30 7690 C 734.9 1.62093 -1.10545 0
M  V30 7691 O 734.025 2.13334 -0.36298 0
M  V30 7692 C 734.62 0.604099 -3.33371 0
M  V30 7693 C 733.179 1.06284 -3.61083 0
M  V30 7694 C 732.326 0.10608 -2.77097 0
M  V30 7695 H 735.277 -0.409116 -1.53336 0
M  V30 7696 H 735.298 1.45458 -3.51599 0
M  V30 7697 H 734.81 -0.336201 -3.86641 0
M  V30 7698 H 732.911 2.01777 -3.13236 0
M  V30 7699 H 733.024 0.962453 -4.69333 0
M  V30 7700 H 731.388 0.606082 -2.47384 0
M  V30 7701 H 732.171 -0.828486 -3.33153 0
M  V30 7702 N 734.616 1.57351 0.0885366 0
M  V30 7703 C 735.548 1.99221 1.13329 0
M  V30 7704 C 736.561 0.895705 1.35945 0
M  V30 7705 O 737.75 1.17376 1.34481 0
M  V30 7706 C 734.85 2.3016 2.48756 0
M  V30 7707 C 734.023 3.61444 2.46327 0
M  V30 7708 C 733.082 3.80244 3.63732 0
M  V30 7709 O 732.108 4.52024 3.45924 0
M  V30 7710 N 733.31 3.2132 4.8346 0
M  V30 7711 H 736.075 2.89456 0.776862 0
M  V30 7712 H 733.636 1.59505 0.277428 0
M  V30 7713 H 735.628 2.39925 3.25911 0
M  V30 7714 H 734.198 1.459 2.76464 0
M  V30 7715 H 733.418 3.62588 1.54673 0
M  V30 7716 H 734.706 4.47678 2.41789 0
M  V30 7717 H 734.104 2.63028 5.00832 0
M  V30 7718 H 732.661 3.3656 5.58185 0
M  V30 7719 N 736.094 -0.359525 1.53444 0
M  V30 7720 C 737.319 -1.12644 1.74144 0
M  V30 7721 C 737.744 -1.82082 0.472007 0
M  V30 7722 O 737.102 -1.71962 -0.57436 0
M  V30 7723 C 737.15 -2.12781 2.9113 0
M  V30 7724 O 736.254 -3.19984 2.60162 0
M  V30 7725 H 735.595 -0.326553 0.578152 0
M  V30 7726 H 738.125 -0.414798 2.00351 0
M  V30 7727 H 738.135 -2.56278 3.17467 0
M  V30 7728 H 736.81 -1.61634 3.83207 0
M  V30 7729 H 735.387 -2.81417 2.44661 0
M  V30 7730 N 737.572 -1.44907 -0.619662 0
M  V30 7731 C 738.818 -1.48512 -1.38102 0
M  V30 7732 C 739.151 -0.121686 -1.93818 0
M  V30 7733 O 738.426 0.862256 -1.74343 0
M  V30 7734 C 738.709 -2.55469 -2.53787 0
M  V30 7735 C 738.562 -4.01212 -2.03345 0
M  V30 7736 C 739.881 -2.58821 -3.55949 0
M  V30 7737 H 737 -0.540712 -0.500799 0
M  V30 7738 H 739.642 -1.7665 -0.69962 0
M  V30 7739 H 737.792 -2.31606 -3.11915 0
M  V30 7740 H 739.464 -4.36245 -1.49959 0
M  V30 7741 H 737.707 -4.12443 -1.34438 0
M  V30 7742 H 738.378 -4.71717 -2.86683 0
M  V30 7743 H 740.854 -2.80172 -3.07641 0
M  V30 7744 H 739.73 -3.35542 -4.34399 0
M  V30 7745 H 739.991 -1.63451 -4.10775 0
M  V30 7746 N 739.05 0.861098 -1.31996 0
M  V30 7747 C 740.275 1.65264 -1.2531 0
M  V30 7748 C 740.7 1.87265 0.177007 0
M  V30 7749 O 740.058 1.4208 1.12619 0
M  V30 7750 C 740.106 2.99284 -2.0115 0
M  V30 7751 O 739.21 3.89508 -1.3549 0
M  V30 7752 H 738.551 0.50409 -0.432192 0
M  V30 7753 H 741.081 1.07297 -1.74208 0
M  V30 7754 H 741.091 3.49154 -2.11081 0
M  V30 7755 H 739.766 2.82591 -3.05148 0
M  V30 7756 H 738.343 3.47966 -1.34066 0
M  V30 7757 N 740.528 1.15101 1.07655 0
M  V30 7758 C 741.438 0.858869 2.18313 0
M  V30 7759 C 742.454 -0.163641 1.73229 0
M  V30 7760 O 743.63 0.00969541 2.01398 0
M  V30 7761 C 740.695 0.34893 3.4494 0
M  V30 7762 C 739.756 1.43495 4.04608 0
M  V30 7763 C 738.989 0.949253 5.2519 0
M  V30 7764 O 739.212 -0.20636 5.70027 0
M  V30 7765 O 738.146 1.73161 5.76454 0
M  V30 7766 H 741.972 1.78386 2.45788 0
M  V30 7767 H 739.557 0.929876 1.16934 0
M  V30 7768 H 741.439 0.070851 4.2134 0
M  V30 7769 H 740.114 -0.548237 3.19024 0
M  V30 7770 H 739.021 1.7666 3.29761 0
M  V30 7771 H 740.354 2.30692 4.3479 0
M  V30 7772 N 742.006 -1.2595 0.947325 0
M  V30 7773 C 743.231 -1.98083 0.614633 0
M  V30 7774 C 743.656 -1.70013 -0.804815 0
M  V30 7775 O 743.014 -0.95175 -1.54309 0
M  V30 7776 C 743.062 -3.4993 0.870706 0
M  V30 7777 O 742.166 -4.12364 -0.0541451 0
M  V30 7778 H 741.507 -0.621232 0.234451 0
M  V30 7779 H 744.037 -1.60259 1.27193 0
M  V30 7780 H 744.047 -4.00198 0.794051 0
M  V30 7781 H 742.722 -3.69691 1.90529 0
M  V30 7782 H 741.299 -3.72826 0.0740917 0
M  V30 7783 N 743.484 -0.715051 -1.40445 0
M  V30 7784 C 744.724 -0.258742 -2.02756 0
M  V30 7785 C 745.088 1.12661 -1.55472 0
M  V30 7786 O 746.289 1.67988 -2.09842 0
M  V30 7787 C 744.56 -0.335201 -3.55825 0
M  V30 7788 S 746.119 0.044201 -4.38778 0
M  V30 7789 H 742.937 -0.102683 -0.703546 0
M  V30 7790 H 745.539 -0.937151 -1.71574 0
M  V30 7791 H 744.243 -1.34511 -3.87731 0
M  V30 7792 H 743.774 0.361705 -3.91734 0
M  V30 7793 H 745.789 1.26639 -4.79768 0
M  V30 7794 N 744.962 1.50701 -0.461195 0
M  V30 7795 C 746.373 1.867 -0.00370227 0
M  V30 7796 C 746.724 1.37673 1.39787 0
M  V30 7797 O 745.849 0.737515 2.03445 0
M  V30 7798 C 746.444 3.388 5.75786e-05 0
M  V30 7799 C 745.003 3.74247 0.402044 0
M  V30 7800 C 744.15 2.74549 -0.389652 0
M  V30 7801 H 747.101 1.43585 -0.675942 0
M  V30 7802 H 747.122 3.719 0.804414 0
M  V30 7803 H 746.634 3.74452 -1.02015 0
M  V30 7804 H 744.735 3.44192 1.42697 0
M  V30 7805 H 744.848 4.78973 0.110265 0
M  V30 7806 H 743.212 2.54226 0.155314 0
M  V30 7807 H 743.995 3.13044 -1.40919 0
M  V30 7808 N 746.441 0.193421 1.56409 0
M  V30 7809 C 747.689 -0.444908 1.97142 0
M  V30 7810 C 748.01 -1.62268 1.08139 0
M  V30 7811 O 747.28 -1.95307 0.152326 0
M  V30 7812 H 745.86 -0.16736 0.728011 0
M  V30 7813 H 748.522 0.279763 1.92882 0
M  V30 7814 H 747.618 -0.790159 3.01932 0
M  V30 7815 N 747.919 -1.57396 -0.0801906 0
M  V30 7816 C 748.866 -2.03107 -1.09618 0
M  V30 7817 C 749.836 -0.910118 -1.38946 0
M  V30 7818 O 751.021 -1.17719 -1.50156 0
M  V30 7819 C 748.161 -2.47293 -2.40708 0
M  V30 7820 C 747.274 -3.72972 -2.17982 0
M  V30 7821 C 746.409 -4.05975 -3.42576 0
M  V30 7822 C 745.448 -5.24719 -3.15177 0
M  V30 7823 N 744.585 -5.53401 -4.32078 0
M  V30 7824 H 749.425 -2.89677 -0.69939 0
M  V30 7825 H 746.962 -1.43263 -0.333785 0
M  V30 7826 H 748.92 -2.7096 -3.17232 0
M  V30 7827 H 747.55 -1.63713 -2.78205 0
M  V30 7828 H 746.602 -3.56693 -1.32189 0
M  V30 7829 H 747.914 -4.59638 -1.93738 0
M  V30 7830 H 747.068 -4.30498 -4.275 0
M  V30 7831 H 745.807 -3.17859 -3.69887 0
M  V30 7832 H 744.812 -5 -2.28648 0
M  V30 7833 H 746.037 -6.14445 -2.89197 0
M  V30 7834 H 743.983 -4.68245 -4.59437 0
M  V30 7835 H 743.9 -6.34469 -4.11078 0
M  V30 7836 H 745.168 -5.8247 -5.18024 0
M  V30 7837 N 749.397 0.351382 -1.53633 0
M  V30 7838 C 750.644 1.0925 -1.70502 0
M  V30 7839 C 750.972 1.88881 -0.464123 0
M  V30 7840 O 750.227 1.87693 0.554077 0
M  V30 7841 C 750.526 2.06744 -2.91533 0
M  V30 7842 C 750.192 1.43484 -4.27461 0
M  V30 7843 C 748.854 1.2596 -4.64422 0
M  V30 7844 C 751.206 0.978436 -5.11934 0
M  V30 7845 C 748.534 0.614017 -5.83478 0
M  V30 7846 C 750.886 0.346795 -6.31649 0
M  V30 7847 C 749.55 0.15917 -6.6731 0
M  V30 7848 H 748.82 0.399773 -0.623909 0
M  V30 7849 H 751.467 0.372656 -1.87839 0
M  V30 7850 H 749.772 2.85082 -2.68767 0
M  V30 7851 H 751.469 2.64066 -3.01778 0
M  V30 7852 H 748.059 1.5812 -3.98367 0
M  V30 7853 H 752.243 1.1017 -4.83918 0
M  V30 7854 H 747.499 0.457194 -6.09688 0
M  V30 7855 H 751.673 -0.0149864 -6.96398 0
M  V30 7856 H 749.3 -0.343129 -7.59425 0
M  V30 7857 N 750.875 1.45233 0.611969 0
M  V30 7858 C 751.822 1.5357 1.72293 0
M  V30 7859 C 752.792 0.381912 1.6165 0
M  V30 7860 O 753.977 0.594765 1.81293 0
M  V30 7861 C 751.117 1.50419 3.10593 0
M  V30 7862 C 750.23 2.76316 3.32074 0
M  V30 7863 C 749.365 2.64866 4.60456 0
M  V30 7864 C 748.404 3.85838 4.7518 0
M  V30 7865 N 747.541 3.72949 5.94856 0
M  V30 7866 H 752.381 2.4848 1.64504 0
M  V30 7867 H 749.918 1.23302 0.802191 0
M  V30 7868 H 751.876 1.4658 3.90602 0
M  V30 7869 H 750.506 0.590621 3.17351 0
M  V30 7870 H 749.558 2.90261 2.45872 0
M  V30 7871 H 750.87 3.66055 3.38829 0
M  V30 7872 H 750.024 2.58969 5.48653 0
M  V30 7873 H 748.763 1.72719 4.56092 0
M  V30 7874 H 747.768 3.92099 3.85407 0
M  V30 7875 H 748.993 4.79045 4.81344 0
M  V30 7876 H 746.939 2.83567 5.91545 0
M  V30 7877 H 746.856 4.56319 6.02751 0
M  V30 7878 H 748.124 3.70976 6.85563 0
M  V30 7879 N 752.353 -0.854086 1.3245 0
M  V30 7880 C 753.578 -1.64597 1.26185 0
M  V30 7881 C 754.003 -1.87357 -0.167074 0
M  V30 7882 O 753.361 -1.42675 -1.11864 0
M  V30 7883 C 753.409 -2.98213 2.02734 0
M  V30 7884 O 752.513 -3.88784 1.37554 0
M  V30 7885 H 751.854 -0.50179 0.434859 0
M  V30 7886 H 754.384 -1.06372 1.74775 0
M  V30 7887 H 754.394 -3.4803 2.1293 0
M  V30 7888 H 753.069 -2.80969 3.06642 0
M  V30 7889 H 751.646 -3.4725 1.3591 0
M  V30 7890 N 753.831 -1.1567 -1.07043 0
M  V30 7891 C 755.079 -0.931673 -1.79344 0
M  V30 7892 C 755.4 0.542421 -1.87304 0
M  V30 7893 O 754.67 1.39418 -1.37621 0
M  V30 7894 H 753.25 -0.34171 -0.664262 0
M  V30 7895 H 755.912 -1.45795 -1.29344 0
M  V30 7896 H 755.008 -1.34379 -2.81689 0
M  V30 7897 N 755.309 1.25446 -0.953992 0
M  V30 7898 C 756.556 1.93143 -0.608429 0
M  V30 7899 C 756.884 1.74727 0.854451 0
M  V30 7900 O 756.139 1.0855 1.62836 0
M  V30 7901 C 756.438 3.45555 -0.912496 0
M  V30 7902 C 756.104 3.84126 -2.36131 0
M  V30 7903 C 754.766 3.94367 -2.75732 0
M  V30 7904 C 757.118 4.0324 -3.30223 0
M  V30 7905 C 754.446 4.21127 -4.08496 0
M  V30 7906 C 756.798 4.31493 -4.62598 0
M  V30 7907 C 755.462 4.3995 -5.01996 0
M  V30 7908 H 754.732 0.706762 -0.22264 0
M  V30 7909 H 757.379 1.49005 -1.20291 0
M  V30 7910 H 755.684 3.91091 -0.235618 0
M  V30 7911 H 757.381 3.9612 -0.623714 0
M  V30 7912 H 753.971 3.76711 -2.04418 0
M  V30 7913 H 758.155 3.94744 -3.00817 0
M  V30 7914 H 753.411 4.2589 -4.38665 0
M  V30 7915 H 757.585 4.45227 -5.35486 0
M  V30 7916 H 755.212 4.60439 -6.04896 0
M  V30 7917 N 756.787 0.722489 1.40064 0
M  V30 7918 C 758.198 0.336507 1.83642 0
M  V30 7919 C 758.549 -1.13002 1.6039 0
M  V30 7920 O 757.674 -1.87036 1.08842 0
M  V30 7921 C 758.269 0.603985 3.33373 0
M  V30 7922 C 756.828 0.271637 3.75419 0
M  V30 7923 C 755.975 0.872898 2.63203 0
M  V30 7924 H 758.926 0.921108 1.29233 0
M  V30 7925 H 758.947 -0.128471 3.80283 0
M  V30 7926 H 758.459 1.67141 3.50265 0
M  V30 7927 H 756.56 -0.790455 3.64119 0
M  V30 7928 H 756.673 0.745457 4.73265 0
M  V30 7929 H 755.037 0.300431 2.52922 0
M  V30 7930 H 755.82 1.94473 2.82905 0
M  V30 7931 N 758.265 -1.50454 0.469181 0
M  V30 7932 C 759.197 -2.26319 -0.362247 0
M  V30 7933 C 760.21 -1.31574 -0.958751 0
M  V30 7934 O 761.399 -1.57099 -0.847482 0
M  V30 7935 C 758.499 -3.02808 -1.52187 0
M  V30 7936 C 757.672 -4.24893 -1.03849 0
M  V30 7937 C 756.731 -4.83691 -2.07194 0
M  V30 7938 O 755.757 -5.44659 -1.65333 0
M  V30 7939 N 756.959 -4.70522 -3.39985 0
M  V30 7940 H 759.724 -2.98312 0.288124 0
M  V30 7941 H 757.285 -1.59099 0.299856 0
M  V30 7942 H 759.277 -3.39023 -2.21011 0
M  V30 7943 H 757.847 -2.33625 -2.07697 0
M  V30 7944 H 757.067 -3.93806 -0.176203 0
M  V30 7945 H 758.355 -5.04053 -0.693435 0
M  V30 7946 H 757.753 -4.2203 -3.76706 0
M  V30 7947 H 756.31 -5.11011 -4.04612 0
M  V30 7948 N 759.743 -0.201713 -1.56304 0
M  V30 7949 C 760.989 0.435952 -1.98059 0
M  V30 7950 C 761.322 1.60811 -1.08873 0
M  V30 7951 O 760.597 1.9398 -0.142128 0
M  V30 7952 C 760.88 0.889706 -3.48936 0
M  V30 7953 C 760.733 -0.284725 -4.48898 0
M  V30 7954 C 762.052 1.7529 -4.03685 0
M  V30 7955 H 759.171 0.15699 -0.720085 0
M  V30 7956 H 761.813 -0.293965 -1.87712 0
M  V30 7957 H 759.963 1.51166 -3.57884 0
M  V30 7958 H 761.635 -0.922531 -4.51981 0
M  V30 7959 H 759.878 -0.935427 -4.23594 0
M  V30 7960 H 760.549 0.0753865 -5.51949 0
M  V30 7961 H 763.025 1.2283 -3.97558 0
M  V30 7962 H 761.901 2.03933 -5.0961 0
M  V30 7963 H 762.162 2.70939 -3.49348 0
M  V30 7964 N 761.222 1.57436 0.0718424 0
M  V30 7965 C 762.447 1.91858 0.787745 0
M  V30 7966 C 762.872 0.798119 1.70328 0
M  V30 7967 O 762.23 -0.24905 1.79581 0
M  V30 7968 C 762.278 3.25232 1.55744 0
M  V30 7969 O 761.382 3.14462 2.6681 0
M  V30 7970 H 760.723 0.628258 0.214914 0
M  V30 7971 H 763.253 2.04561 0.0401012 0
M  V30 7972 H 763.263 3.59105 1.9367 0
M  V30 7973 H 761.938 4.0636 0.885691 0
M  V30 7974 H 760.515 2.92148 2.31741 0
M  V30 7975 N 762.7 -0.34323 1.53817 0
M  V30 7976 C 763.633 -1.44472 1.76644 0
M  V30 7977 C 764.611 -1.50498 0.615556 0
M  V30 7978 O 765.795 -1.6821 0.850751 0
M  V30 7979 C 762.922 -2.82705 1.86536 0
M  V30 7980 C 761.968 -2.94302 3.08688 0
M  V30 7981 S 762.801 -2.60739 4.67735 0
M  V30 7982 C 763.957 -4.01079 4.80506 0
M  V30 7983 H 764.19 -1.24893 2.69794 0
M  V30 7984 H 761.723 -0.538915 1.4469 0
M  V30 7985 H 763.681 -3.62342 1.92921 0
M  V30 7986 H 762.342 -2.9958 0.943975 0
M  V30 7987 H 761.535 -3.95593 3.12286 0
M  V30 7988 H 761.137 -2.22614 3.00531 0
M  V30 7989 H 763.429 -4.95603 4.61935 0
M  V30 7990 H 764.372 -4.02475 5.82597 0
M  V30 7991 H 764.78 -3.89119 4.08958 0
M  V30 7992 N 764.178 -1.45556 -0.604258 0
M  V30 7993 C 765.425 -1.49746 -1.36317 0
M  V30 7994 C 765.753 -0.140516 -1.93992 0
M  V30 7995 O 765.008 0.861244 -1.7573 0
M  V30 7996 C 765.307 -2.52697 -2.52743 0
M  V30 7997 C 764.973 -3.97315 -2.13195 0
M  V30 7998 C 763.635 -4.36692 -2.02123 0
M  V30 7999 C 765.987 -4.88249 -1.8238 0
M  V30 8000 C 763.315 -5.64895 -1.58463 0
M  V30 8001 C 765.667 -6.16867 -1.40205 0
M  V30 8002 C 764.331 -6.55172 -1.27694 0
M  V30 8003 H 763.601 -0.54796 -0.49882 0
M  V30 8004 H 766.248 -1.7892 -0.682643 0
M  V30 8005 H 764.553 -2.17105 -3.26148 0
M  V30 8006 H 766.25 -2.53176 -3.10971 0
M  V30 8007 H 762.84 -3.66176 -2.22739 0
M  V30 8008 H 767.024 -4.58561 -1.89829 0
M  V30 8009 H 762.28 -5.93365 -1.47402 0
M  V30 8010 H 766.454 -6.86771 -1.15408 0
M  V30 8011 H 764.081 -7.54411 -0.936375 0
M  V30 8012 N 765.656 0.84705 -1.32902 0
M  V30 8013 C 766.903 1.60176 -1.23894 0
M  V30 8014 C 767.231 1.93496 0.197341 0
M  V30 8015 O 766.486 1.58173 1.15238 0
M  V30 8016 C 766.785 2.92663 -2.05142 0
M  V30 8017 C 766.451 2.7874 -3.54422 0
M  V30 8018 C 765.113 2.7465 -3.95121 0
M  V30 8019 C 767.465 2.64128 -4.49317 0
M  V30 8020 C 764.793 2.53837 -5.28946 0
M  V30 8021 C 767.145 2.44849 -5.83294 0
M  V30 8022 C 765.809 2.39156 -6.23186 0
M  V30 8023 H 765.079 0.586127 -0.453361 0
M  V30 8024 H 767.726 0.981994 -1.64405 0
M  V30 8025 H 766.031 3.588 -1.57383 0
M  V30 8026 H 767.728 3.50095 -1.95537 0
M  V30 8027 H 764.318 2.82751 -3.22102 0
M  V30 8028 H 768.502 2.66327 -4.18788 0
M  V30 8029 H 763.758 2.4787 -5.58901 0
M  V30 8030 H 767.932 2.32524 -6.56434 0
M  V30 8031 H 765.559 2.22789 -7.26821 0
M  V30 8032 N 767.134 1.16236 1.06428 0
M  V30 8033 C 768.362 0.967184 1.82902 0
M  V30 8034 C 768.777 -0.484601 1.82475 0
M  V30 8035 O 768.134 -1.33631 1.24294 0
M  V30 8036 C 768.185 1.48534 3.29576 0
M  V30 8037 O 767.906 2.88026 3.3011 0
M  V30 8038 C 769.407 1.33298 4.22784 0
M  V30 8039 H 766.627 0.342923 0.576754 0
M  V30 8040 H 769.171 1.54232 1.34286 0
M  V30 8041 H 767.326 0.952513 3.75508 0
M  V30 8042 H 767.74 3.11721 4.21818 0
M  V30 8043 H 769.214 1.74385 5.23731 0
M  V30 8044 H 769.691 0.278356 4.38317 0
M  V30 8045 H 770.297 1.85535 3.82697 0
M  V30 8046 N 768.612 -1.24939 0.960631 0
M  V30 8047 C 769.562 -2.23388 0.456266 0
M  V30 8048 C 770.546 -1.54249 -0.45782 0
M  V30 8049 O 771.738 -1.7461 -0.289894 0
M  V30 8050 C 768.867 -3.42321 -0.259024 0
M  V30 8051 C 767.953 -4.18718 0.673478 0
M  V30 8052 N 768.344 -4.72394 1.8077 0
M  V30 8053 C 766.642 -4.43378 0.482859 0
M  V30 8054 C 767.343 -5.30316 2.3904 0
M  V30 8055 N 766.319 -5.17109 1.67629 0
M  V30 8056 H 770.121 -2.62499 1.32179 0
M  V30 8057 H 767.635 -1.40245 0.818851 0
M  V30 8058 H 769.632 -4.11997 -0.637527 0
M  V30 8059 H 768.292 -3.04732 -1.12108 0
M  V30 8060 H 769.303 -4.69345 2.18942 0
M  V30 8061 H 765.98 -4.16147 -0.335821 0
M  V30 8062 H 767.37 -5.82594 3.34715 0
M  V30 8063 N 770.09 -0.729906 -1.39679 0
M  V30 8064 C 771.318 -0.285709 -2.04918 0
M  V30 8065 C 771.733 1.07765 -1.55023 0
M  V30 8066 O 771.09 1.67999 -0.712923 0
M  V30 8067 C 771.141 -0.272793 -3.60469 0
M  V30 8068 O 770.862 -1.58233 -4.08527 0
M  V30 8069 C 772.363 0.188199 -4.429 0
M  V30 8070 H 769.583 -0.125758 -0.65911 0
M  V30 8071 H 772.127 -0.992129 -1.78821 0
M  V30 8072 H 770.282 0.384699 -3.85485 0
M  V30 8073 H 770.696 -1.49245 -5.02818 0
M  V30 8074 H 772.17 0.14608 -5.51807 0
M  V30 8075 H 772.647 1.2326 -4.21549 0
M  V30 8076 H 773.253 -0.439541 -4.23023 0
M  V30 8077 N 771.568 1.50203 -0.477153 0
M  V30 8078 C 772.815 2.02358 0.0757385 0
M  V30 8079 C 773.143 1.3587 1.39174 0
M  V30 8080 O 772.398 0.475415 1.89838 0
M  V30 8081 C 772.697 3.56127 0.301325 0
M  V30 8082 C 772.363 4.41126 -0.933725 0
M  V30 8083 C 771.025 4.64075 -1.27233 0
M  V30 8084 C 773.377 4.90737 -1.75576 0
M  V30 8085 C 770.705 5.33878 -2.43292 0
M  V30 8086 C 773.057 5.61816 -2.90768 0
M  V30 8087 C 771.721 5.83016 -3.25036 0
M  V30 8088 H 770.991 0.740482 0.0277147 0
M  V30 8089 H 773.638 1.80754 -0.632467 0
M  V30 8090 H 771.943 3.76279 1.09183 0
M  V30 8091 H 773.64 3.94053 0.743184 0
M  V30 8092 H 770.23 4.23489 -0.659935 0
M  V30 8093 H 774.414 4.72856 -1.50734 0
M  V30 8094 H 769.67 5.48499 -2.70109 0
M  V30 8095 H 773.844 5.99237 -3.54807 0
M  V30 8096 H 771.471 6.36881 -4.15074 0
M  V30 8097 N 773.046 0.209999 1.56195 0
M  V30 8098 C 774.457 -0.299943 1.84275 0
M  V30 8099 C 774.808 -1.60314 1.1311 0
M  V30 8100 O 773.933 -2.1273 0.396874 0
M  V30 8101 C 774.528 -0.550986 3.3429 0
M  V30 8102 C 773.087 -1.00526 3.62728 0
M  V30 8103 C 772.234 -0.0619828 2.77231 0
M  V30 8104 H 775.185 0.433458 1.52666 0
M  V30 8105 H 775.206 -1.39846 3.53869 0
M  V30 8106 H 774.718 0.397669 3.86057 0
M  V30 8107 H 772.819 -1.96768 3.16407 0
M  V30 8108 H 772.932 -0.887664 4.70805 0
M  V30 8109 H 771.296 -0.566648 2.48317 0
M  V30 8110 H 772.079 0.881383 3.31793 0
M  V30 8111 N 774.524 -1.57472 -0.0634922 0
M  V30 8112 C 775.471 -2.04258 -1.07457 0
M  V30 8113 C 776.441 -0.924804 -1.37973 0
M  V30 8114 O 777.626 -1.19305 -1.48899 0
M  V30 8115 C 774.766 -2.49832 -2.38071 0
M  V30 8116 C 773.879 -3.75263 -2.14014 0
M  V30 8117 C 773.014 -4.09585 -3.38251 0
M  V30 8118 C 772.053 -5.28032 -3.09594 0
M  V30 8119 N 771.19 -5.57953 -4.26185 0
M  V30 8120 H 776.03 -2.90402 -0.668626 0
M  V30 8121 H 773.567 -1.43609 -0.318572 0
M  V30 8122 H 775.525 -2.7431 -3.14341 0
M  V30 8123 H 774.155 -1.66654 -2.76453 0
M  V30 8124 H 773.207 -3.58075 -1.28399 0
M  V30 8125 H 774.519 -4.61667 -1.88852 0
M  V30 8126 H 773.673 -4.35008 -4.2291 0
M  V30 8127 H 772.412 -3.21765 -3.66495 0
M  V30 8128 H 771.417 -5.02397 -2.23332 0
M  V30 8129 H 772.642 -6.17477 -2.82663 0
M  V30 8130 H 770.588 -4.73092 -4.54445 0
M  V30 8131 H 770.505 -6.38793 -4.04326 0
M  V30 8132 H 771.773 -5.87931 -5.11817 0
M  V30 8133 O 776.041 0.206959 -1.60168 0
M  V30 8134 H 776.732 0.846889 -1.74205 0
M  V30 END ATOM
M  V30 BEGIN BOND
M  V30 END BOND
M  V30 END CTAB
M  END
$$$$
