drugbank_target|P04164 Cytochrome c-552 (DB02949; DB03224)
 OpenBabel12092120003D

  0  0  0     0  0            999 V3000
M  V30 BEGIN CTAB
M  V30 COUNTS 2041 2058 0 0 0
M  V30 BEGIN ATOM
M  V30 1 H -0.908 1.98254 -0.117106 0
M  V30 2 N 0 1.576 0 0
M  V30 3 C 0.932 2.05273 1.01958 0
M  V30 4 C 1.945 0.970662 1.30698 0
M  V30 5 O 3.134 1.24746 1.27674 0
M  V30 6 C 0.234 2.43771 2.35433 0
M  V30 7 C -0.593 3.74711 2.25633 0
M  V30 8 C -1.534 4.00077 3.41796 0
M  V30 9 O -2.508 4.70743 3.19984 0
M  V30 10 N -1.306 3.47973 4.64645 0
M  V30 11 H 1.459 2.93363 0.613025 0
M  V30 12 H -0.98 1.60812 0.187383 0
M  V30 13 H 1.012 2.57855 3.11918 0
M  V30 14 H -0.418 1.612 2.67831 0
M  V30 15 H -1.198 3.70705 1.34059 0
M  V30 16 H 0.09 4.60554 2.16258 0
M  V30 17 H -0.512 2.90748 4.85265 0
M  V30 18 H -1.955 3.67386 5.38396 0
M  V30 19 N 1.4781 -0.272755 1.55222 0
M  V30 20 C 2.4411 -1.32041 1.87344 0
M  V30 21 C 3.4411 -1.42342 0.74803 0
M  V30 22 O 4.6311 -1.41488 1.0162 0
M  V30 23 C 1.7631 -2.70173 2.07893 0
M  V30 24 H 2.9561 -1.04789 2.80997 0
M  V30 25 H 0.5091 -0.51083 1.47717 0
M  V30 26 H 1.2441 -3.02605 1.16622 0
M  V30 27 H 1.0291 -2.64082 2.89833 0
M  V30 28 H 2.5191 -3.45869 2.34017 0
M  V30 29 N 2.9562 -1.48159 -0.537278 0
M  V30 30 C 4.2332 -1.46291 -1.29839 0
M  V30 31 C 4.6132 -0.170613 -2.10409 0
M  V30 32 O 3.9612 0.847746 -2.12192 0
M  V30 33 C 4.1712 -2.72055 -2.18603 0
M  V30 34 C 5.5192 -3.20087 -2.7898 0
M  V30 35 O 6.5432 -2.72921 -2.28894 0
M  V30 36 O 5.4022 -4.02138 -3.70064 0
M  V30 37 H 2.4962 -0.583906 -0.585647 0
M  V30 38 H 5.0422 -1.60384 -0.554534 0
M  V30 39 H 3.8142 -3.57628 -1.58801 0
M  V30 40 H 3.4372 -2.60646 -3.00249 0
M  V30 41 N 4.4343 0.785586 -1.36625 0
M  V30 42 C 5.6823 1.54057 -1.30808 0
M  V30 43 C 6.0033 1.94683 0.111157 0
M  V30 44 O 5.2733 1.65241 1.05224 0
M  V30 45 H 3.8533 0.571354 -0.481211 0
M  V30 46 H 6.5153 0.935821 -1.70963 0
M  V30 47 H 5.6113 2.44637 -1.93801 0
M  V30 48 N 5.9124 1.20967 1.01018 0
M  V30 49 C 6.8754 0.965918 2.07853 0
M  V30 50 C 7.8754 -0.0610545 1.60684 0
M  V30 51 O 9.0654 0.175681 1.73312 0
M  V30 52 C 6.1974 0.455513 3.37843 0
M  V30 53 H 7.3904 1.91365 2.3091 0
M  V30 54 H 4.9434 1.02594 1.17916 0
M  V30 55 H 5.6784 -0.497381 3.20463 0
M  V30 56 H 5.4634 1.19622 3.73407 0
M  V30 57 H 6.9534 0.304667 4.16487 0
M  V30 58 N 7.3905 -1.2043 1.01659 0
M  V30 59 C 8.3375 -2.23215 0.586822 0
M  V30 60 C 9.3075 -1.61382 -0.393085 0
M  V30 61 O 10.4925 -1.88544 -0.292525 0
M  V30 62 C 7.6325 -3.45032 -0.0687464 0
M  V30 63 C 6.7455 -4.21296 0.955724 0
M  V30 64 C 5.8805 -5.30507 0.271208 0
M  V30 65 C 4.9195 -5.98515 1.28244 0
M  V30 66 N 4.0565 -6.99316 0.62459 0
M  V30 67 H 8.8965 -2.59336 1.46796 0
M  V30 68 H 6.4335 -1.27431 0.734836 0
M  V30 69 H 8.3915 -4.1459 -0.465965 0
M  V30 70 H 7.0215 -3.09604 -0.913529 0
M  V30 71 H 6.0735 -3.50803 1.4711 0
M  V30 72 H 7.3855 -4.6803 1.72479 0
M  V30 73 H 6.5395 -6.06428 -0.18151 0
M  V30 74 H 5.2785 -4.8481 -0.530163 0
M  V30 75 H 4.2835 -5.21355 1.74554 0
M  V30 76 H 5.5085 -6.46298 2.08509 0
M  V30 77 H 3.4545 -6.55812 -0.156914 0
M  V30 78 H 3.3715 -7.44178 1.33172 0
M  V30 79 H 4.6395 -7.79255 0.195462 0
M  V30 80 N 8.8686 -0.792821 -1.36206 0
M  V30 81 C 10.1176 -0.363353 -1.984 0
M  V30 82 C 10.4306 1.07172 -1.63626 0
M  V30 83 O 11.6366 1.60362 -2.19081 0
M  V30 84 C 10.0926 -0.59872 -3.54885 0
M  V30 85 C 9.7006 -2.04543 -3.9858 0
M  V30 86 C 11.4446 -0.233926 -4.23855 0
M  V30 87 C 9.3516 -2.22727 -5.47856 0
M  V30 88 H 8.2816 -0.13212 -0.742334 0
M  V30 89 H 10.9326 -0.974935 -1.55458 0
M  V30 90 H 9.3146 0.0826222 -3.95914 0
M  V30 91 H 10.4886 -2.76345 -3.68741 0
M  V30 92 H 8.8036 -2.36879 -3.42458 0
M  V30 93 H 11.4006 -0.348027 -5.33566 0
M  V30 94 H 11.7436 0.818351 -4.08177 0
M  V30 95 H 12.2766 -0.868639 -3.882 0
M  V30 96 H 9.0156 -3.2635 -5.68486 0
M  V30 97 H 8.5356 -1.55434 -5.7931 0
M  V30 98 H 10.2146 -2.03607 -6.14128 0
M  V30 99 N 10.3467 1.47872 -0.545128 0
M  V30 100 C 11.5767 2.06589 -0.0210534 0
M  V30 101 C 11.9847 1.39997 1.27269 0
M  V30 102 O 11.3277 0.486421 1.77143 0
M  V30 103 C 11.3897 3.58574 0.257933 0
M  V30 104 C 11.0537 4.47132 -0.944573 0
M  V30 105 C 12.0507 4.85986 -1.84699 0
M  V30 106 C 9.7357 4.88821 -1.15584 0
M  V30 107 C 11.7297 5.65314 -2.94446 0
M  V30 108 C 9.4167 5.67916 -2.25642 0
M  V30 109 C 10.4147 6.06073 -3.14905 0
M  V30 110 O 10.1027 6.83578 -4.23057 0
M  V30 111 H 9.8347 0.674971 -0.0372899 0
M  V30 112 H 12.3887 1.91037 -0.754599 0
M  V30 113 H 10.6187 3.72295 1.04564 0
M  V30 114 H 12.3077 3.99356 0.72592 0
M  V30 115 H 13.0737 4.54388 -1.69577 0
M  V30 116 H 8.9527 4.58595 -0.470279 0
M  V30 117 H 12.4967 5.95016 -3.64145 0
M  V30 118 H 8.3937 5.98927 -2.40742 0
M  V30 119 H 9.1617 7.01954 -4.20954 0
M  V30 120 N 11.8248 0.280983 1.55075 0
M  V30 121 C 12.7878 -0.590896 2.21452 0
M  V30 122 C 13.7878 -1.07682 1.19421 0
M  V30 123 O 14.9778 -0.97605 1.44288 0
M  V30 124 C 12.1098 -1.81587 2.88511 0
M  V30 125 H 13.3028 -0.0112554 2.99898 0
M  V30 126 H 10.8558 0.0316438 1.56268 0
M  V30 127 H 11.5908 -2.43587 2.14093 0
M  V30 128 H 11.3758 -1.4753 3.63287 0
M  V30 129 H 12.8658 -2.43575 3.39206 0
M  V30 130 N 13.3029 -1.57598 0.00835791 0
M  V30 131 C 14.2349 -2.05811 -1.00868 0
M  V30 132 C 15.2479 -0.977579 -1.30182 0
M  V30 133 O 16.4369 -1.25421 -1.27011 0
M  V30 134 C 13.5369 -2.45016 -2.34137 0
M  V30 135 C 12.7099 -3.75903 -2.23643 0
M  V30 136 C 11.7689 -4.01884 -3.3967 0
M  V30 137 O 10.7949 -4.72433 -3.17483 0
M  V30 138 N 11.9969 -3.50432 -4.62793 0
M  V30 139 H 14.7619 -2.93684 -0.597458 0
M  V30 140 H 12.3229 -1.60909 -0.178852 0
M  V30 141 H 14.3149 -2.59506 -3.10546 0
M  V30 142 H 12.8849 -1.62618 -2.66972 0
M  V30 143 H 12.1049 -3.7141 -1.32091 0
M  V30 144 H 13.3929 -4.61695 -2.13812 0
M  V30 145 H 12.7909 -2.93317 -4.83716 0
M  V30 146 H 11.3479 -3.70236 -5.3644 0
M  V30 147 N 14.781 0.264519 -1.55364 0
M  V30 148 C 16.021 1.00254 -1.78125 0
M  V30 149 C 16.385 1.83187 -0.575017 0
M  V30 150 O 17.586 2.60029 -0.681042 0
M  V30 151 C 15.857 1.85478 -3.05504 0
M  V30 152 S 17.416 2.6543 -3.49417 0
M  V30 153 H 14.234 0.337522 -0.625779 0
M  V30 154 H 16.836 0.272111 -1.93597 0
M  V30 155 H 15.54 1.23491 -3.9138 0
M  V30 156 H 15.071 2.62827 -2.92721 0
M  V30 157 H 17.086 3.87958 -3.09359 0
M  V30 158 N 16.2591 1.48442 0.529413 0
M  V30 159 C 17.2221 1.62524 1.61612 0
M  V30 160 C 18.2221 0.498509 1.52877 0
M  V30 161 O 19.4121 0.76431 1.56537 0
M  V30 162 C 16.5441 1.59597 3.01233 0
M  V30 163 H 17.7371 2.59423 1.50465 0
M  V30 164 H 15.2901 1.37047 0.751514 0
M  V30 165 H 16.0251 0.641781 3.17886 0
M  V30 166 H 15.8101 2.41397 3.08982 0
M  V30 167 H 17.3001 1.72646 3.80241 0
M  V30 168 N 17.7372 -0.778329 1.37039 0
M  V30 169 C 18.9852 -1.53361 1.31623 0
M  V30 170 C 19.3062 -1.94739 -0.100831 0
M  V30 171 O 18.5762 -1.65797 -1.04347 0
M  V30 172 H 17.1562 -0.568794 0.484234 0
M  V30 173 H 19.8182 -0.926742 1.71457 0
M  V30 174 H 18.9142 -2.43606 1.95096 0
M  V30 175 N 19.2153 -1.21501 -1.00376 0
M  V30 176 C 20.4553 -1.04444 -1.75701 0
M  V30 177 C 20.8193 0.414644 -1.87469 0
M  V30 178 O 22.0203 0.705763 -2.59369 0
M  V30 179 C 20.2913 -1.72389 -3.13077 0
M  V30 180 S 21.8503 -1.70604 -4.04277 0
M  V30 181 H 18.6683 -0.374249 -0.604532 0
M  V30 182 H 21.2703 -1.54267 -1.20091 0
M  V30 183 H 19.9743 -2.77734 -3.02146 0
M  V30 184 H 19.5053 -1.22751 -3.73759 0
M  V30 185 H 21.5203 -0.748012 -4.9053 0
M  V30 186 N 20.6934 1.19889 -1.02296 0
M  V30 187 C 21.6434 2.20777 -0.56934 0
M  V30 188 C 22.6274 1.56379 0.378741 0
M  V30 189 O 23.8194 1.75859 0.200673 0
M  V30 190 C 20.9484 3.43196 0.0845077 0
M  V30 191 C 20.0344 4.14749 -0.88566 0
M  V30 192 N 20.4254 4.62584 -2.04573 0
M  V30 193 C 18.7234 4.40347 -0.707835 0
M  V30 194 C 19.4244 5.17466 -2.65714 0
M  V30 195 N 18.4004 5.0791 -1.93723 0
M  V30 196 H 22.2024 2.55434 -1.45365 0
M  V30 197 H 19.7164 1.35897 -0.88915 0
M  V30 198 H 21.7134 4.14707 0.427067 0
M  V30 199 H 20.3734 3.10042 0.964574 0
M  V30 200 H 21.3844 4.57597 -2.4254 0
M  V30 201 H 18.0614 4.17317 0.12364 0
M  V30 202 H 19.4514 5.64808 -3.63925 0
M  V30 203 N 22.1715 0.800033 1.35784 0
M  V30 204 C 23.1035 0.163596 2.28615 0
M  V30 205 C 24.1165 -0.633317 1.49976 0
M  V30 206 O 25.3055 -0.466754 1.72289 0
M  V30 207 C 22.4055 -0.790958 3.29541 0
M  V30 208 C 21.5785 -0.0418255 4.3738 0
M  V30 209 C 20.6375 -0.91389 5.18203 0
M  V30 210 O 19.6635 -0.367234 5.68014 0
M  V30 211 N 20.8655 -2.23682 5.35674 0
M  V30 212 H 23.6305 0.96105 2.83873 0
M  V30 213 H 21.1915 0.654894 1.48063 0
M  V30 214 H 23.1835 -1.37844 3.80501 0
M  V30 215 H 21.7535 -1.48925 2.74846 0
M  V30 216 H 20.9735 0.726813 3.87442 0
M  V30 217 H 22.2615 0.474719 5.06581 0
M  V30 218 H 21.6595 -2.70497 4.96838 0
M  V30 219 H 20.2165 -2.77369 5.89839 0
M  V30 220 N 23.6496 -1.47581 0.552962 0
M  V30 221 C 24.5816 -2.27997 -0.234533 0
M  V30 222 C 25.5946 -1.36753 -0.883321 0
M  V30 223 O 26.7836 -1.61612 -0.757889 0
M  V30 224 C 23.8836 -3.10879 -1.34935 0
M  V30 225 C 23.0566 -4.30056 -0.798158 0
M  V30 226 C 22.1156 -4.94567 -1.79694 0
M  V30 227 O 21.1416 -5.53087 -1.34474 0
M  V30 228 N 22.3436 -4.88878 -3.13015 0
M  V30 229 H 25.1086 -2.96222 0.455255 0
M  V30 230 H 22.6696 -1.57163 0.388761 0
M  V30 231 H 24.6616 -3.50903 -2.01616 0
M  V30 232 H 23.2316 -2.44924 -1.94244 0
M  V30 233 H 22.4516 -3.94174 0.0453079 0
M  V30 234 H 23.7396 -5.07152 -0.409173 0
M  V30 235 H 23.1376 -4.42526 -3.52402 0
M  V30 236 H 21.6946 -5.32934 -3.75266 0
M  V30 237 N 25.1277 -0.289203 -1.54924 0
M  V30 238 C 26.0757 0.607966 -2.24514 0
M  V30 239 C 27.0697 1.14655 -1.24702 0
M  V30 240 O 28.2757 1.09856 -1.4259 0
M  V30 241 H 24.6507 0.21464 -0.720718 0
M  V30 242 H 26.6217 -0.00164182 -2.984 0
M  V30 243 C 25.3707 1.77406 -2.99036 0
M  V30 244 H 24.6937 1.36884 -3.75637 0
M  V30 245 H 26.1337 2.37814 -3.51028 0
M  V30 246 C 24.5927 2.67107 -2.05318 0
M  V30 247 O 25.1227 3.6787 -1.61353 0
M  V30 248 N 23.3287 2.34582 -1.71521 0
M  V30 249 H 22.8757 1.52688 -2.07471 0
M  V30 250 H 22.8337 2.94867 -1.0909 0
M  V30 251 N 26.6058 1.57591 -0.0167156 0
M  V30 252 C 27.8538 1.90906 0.663285 0
M  V30 253 C 28.1748 0.892509 1.73376 0
M  V30 254 O 27.4448 -0.0677623 1.95783 0
M  V30 255 H 26.0248 0.704637 0.247983 0
M  V30 256 H 28.6868 1.94803 -0.0615909 0
M  V30 257 H 27.7828 2.9116 1.12393 0
M  V30 258 N 28.0839 -0.256276 1.55502 0
M  V30 259 C 29.0159 -1.33981 1.85962 0
M  V30 260 C 30.0289 -1.44743 0.745212 0
M  V30 261 O 31.2179 -1.4626 1.02324 0
M  V30 262 C 28.3179 -2.7194 2.02242 0
M  V30 263 C 27.4909 -2.83562 3.33033 0
M  V30 264 C 26.5499 -4.02304 3.39172 0
M  V30 265 O 25.5759 -3.92273 4.12444 0
M  V30 266 N 26.7779 -5.15045 2.67784 0
M  V30 267 H 29.5429 -1.08191 2.7949 0
M  V30 268 H 27.1039 -0.446388 1.55624 0
M  V30 269 H 29.0959 -3.49697 2.03701 0
M  V30 270 H 27.6659 -2.90479 1.15502 0
M  V30 271 H 26.8859 -1.92555 3.43971 0
M  V30 272 H 28.1739 -2.88271 4.19258 0
M  V30 273 H 27.5719 -5.26085 2.07968 0
M  V30 274 H 26.1289 -5.90972 2.74947 0
M  V30 275 N 29.562 -1.4872 -0.521534 0
M  V30 276 C 30.81 -1.56857 -1.27437 0
M  V30 277 C 31.131 -0.247982 -1.93417 0
M  V30 278 O 30.401 0.731151 -1.81744 0
M  V30 279 H 28.981 -0.577885 -0.473347 0
M  V30 280 H 31.643 -1.85233 -0.606205 0
M  V30 281 H 30.739 -2.35402 -2.0492 0
M  V30 282 N 31.0401 0.771051 -1.3745 0
M  V30 283 C 32.2891 1.52491 -1.3202 0
M  V30 284 C 32.6021 1.9538 0.0927347 0
M  V30 285 O 33.8081 2.70159 0.269503 0
M  V30 286 C 32.2641 2.75366 -2.31736 0
M  V30 287 C 31.8721 2.39573 -3.78562 0
M  V30 288 C 33.6161 3.53307 -2.35318 0
M  V30 289 C 31.5231 3.58954 -4.70007 0
M  V30 290 H 30.4531 0.572506 -0.490666 0
M  V30 291 H 33.1041 0.844474 -1.62914 0
M  V30 292 H 31.4861 3.45303 -1.93861 0
M  V30 293 H 32.6601 1.77415 -4.25277 0
M  V30 294 H 30.9751 1.74805 -3.77932 0
M  V30 295 H 33.5721 4.42039 -3.00842 0
M  V30 296 H 33.9151 3.93217 -1.36698 0
M  V30 297 H 34.4481 2.90367 -2.71904 0
M  V30 298 H 31.1871 3.24125 -5.69757 0
M  V30 299 H 30.7071 4.20214 -4.27996 0
M  V30 300 H 32.3861 4.25758 -4.87175 0
M  V30 301 N 32.5182 1.22032 0.997298 0
M  V30 302 C 33.9292 1.0397 1.55071 0
M  V30 303 C 34.2802 -0.398192 1.92117 0
M  V30 304 O 33.4052 -1.28254 1.74298 0
M  V30 305 C 34.0002 1.88109 2.81781 0
M  V30 306 C 32.5592 1.74357 3.33581 0
M  V30 307 C 31.7062 1.84846 2.06706 0
M  V30 308 H 34.6572 1.35941 0.818883 0
M  V30 309 H 34.6782 1.39589 3.53971 0
M  V30 310 H 34.1902 2.92754 2.54787 0
M  V30 311 H 32.2912 0.72427 3.65493 0
M  V30 312 H 32.4042 2.56772 4.04481 0
M  V30 313 H 30.7682 1.28238 2.20062 0
M  V30 314 H 31.5512 2.91014 1.82114 0
M  V30 315 N 33.9963 -1.19345 1.0293 0
M  V30 316 C 35.2443 -1.88665 0.724574 0
M  V30 317 C 35.5653 -1.80036 -0.749144 0
M  V30 318 O 34.8353 -1.2111 -1.53978 0
M  V30 319 H 33.4153 -0.698406 0.265025 0
M  V30 320 H 36.0773 -1.44885 1.30362 0
M  V30 321 H 35.1733 -2.94987 1.01926 0
M  V30 322 N 35.4744 -0.807222 -1.35358 0
M  V30 323 C 36.4374 -0.223665 -2.28106 0
M  V30 324 C 37.4374 0.589354 -1.4961 0
M  V30 325 O 38.6274 0.407745 -1.69361 0
M  V30 326 C 35.7594 0.688149 -3.33882 0
M  V30 327 H 36.9524 -1.04169 -2.81227 0
M  V30 328 H 34.5054 -0.577921 -1.45223 0
M  V30 329 H 35.2404 1.52984 -2.85948 0
M  V30 330 H 35.0254 0.10687 -3.91954 0
M  V30 331 H 36.5154 1.09075 -4.03104 0
M  V30 332 N 36.9525 1.47285 -0.560781 0
M  V30 333 C 38.1995 2.02464 -0.038062 0
M  V30 334 C 38.5275 1.43474 1.31322 0
M  V30 335 O 37.7825 0.581311 1.86867 0
M  V30 336 C 38.0815 3.57258 0.100784 0
M  V30 337 C 37.7475 4.35184 -1.18007 0
M  V30 338 C 36.4095 4.56194 -1.53103 0
M  V30 339 C 38.7615 4.80098 -2.02867 0
M  V30 340 C 36.0895 5.19367 -2.729 0
M  V30 341 C 38.4415 5.44593 -3.21871 0
M  V30 342 C 37.1055 5.63835 -3.57276 0
M  V30 343 H 36.3755 0.740869 -0.0139279 0
M  V30 344 H 39.0225 1.76916 -0.733012 0
M  V30 345 H 37.3275 3.81819 0.878724 0
M  V30 346 H 39.0245 3.97606 0.520639 0
M  V30 347 H 35.6145 4.19113 -0.8968 0
M  V30 348 H 39.7985 4.63642 -1.7706 0
M  V30 349 H 35.0545 5.32459 -3.00496 0
M  V30 350 H 39.2285 5.78358 -3.87911 0
M  V30 351 H 36.8555 6.12557 -4.50197 0
M  V30 352 N 38.4306 0.297415 1.54768 0
M  V30 353 C 39.8416 -0.195947 1.85669 0
M  V30 354 C 40.1926 -1.53707 1.21937 0
M  V30 355 O 39.3176 -2.10164 0.515754 0
M  V30 356 C 39.9126 -0.362318 3.36857 0
M  V30 357 C 38.4716 -0.799901 3.67802 0
M  V30 358 C 37.6186 0.0938578 2.77141 0
M  V30 359 H 40.5696 0.518538 1.4999 0
M  V30 360 H 40.5906 -1.19745 3.61167 0
M  V30 361 H 40.1026 0.613921 3.83214 0
M  V30 362 H 38.2036 -1.78682 3.26961 0
M  V30 363 H 38.3166 -0.621773 4.75048 0
M  V30 364 H 36.6806 -0.426254 2.51108 0
M  V30 365 H 37.4636 1.06639 3.26318 0
M  V30 366 N 39.9087 -1.5758 0.0250728 0
M  V30 367 C 41.3197 -1.79476 -0.514323 0
M  V30 368 C 41.6707 -0.934956 -1.72491 0
M  V30 369 O 40.7957 -0.144245 -2.15919 0
M  V30 370 C 41.3907 -3.25503 -0.939842 0
M  V30 371 C 39.9497 -3.48408 -1.42438 0
M  V30 372 C 39.0967 -2.74583 -0.387201 0
M  V30 373 H 42.0477 -1.567 0.25113 0
M  V30 374 H 42.0687 -3.34992 -1.80445 0
M  V30 375 H 41.5807 -3.88056 -0.0585628 0
M  V30 376 H 39.6817 -2.91103 -2.32572 0
M  V30 377 H 39.7947 -4.57119 -1.43455 0
M  V30 378 H 38.1587 -2.39942 -0.854409 0
M  V30 379 H 38.9417 -3.39849 0.485543 0
M  V30 380 N 41.3868 0.248026 -1.55636 0
M  V30 381 C 42.3168 1.31079 -1.93237 0
M  V30 382 C 43.2978 1.50264 -0.797174 0
M  V30 383 O 44.4828 1.62891 -1.05737 0
M  V30 384 C 41.6128 2.66575 -2.22609 0
M  V30 385 C 40.5668 2.62087 -3.3837 0
M  V30 386 C 39.8928 4.01369 -3.53281 0
M  V30 387 C 41.1928 2.19171 -4.7409 0
M  V30 388 H 42.8868 0.998556 -2.82257 0
M  V30 389 H 40.4328 0.47891 -1.35803 0
M  V30 390 H 42.3858 3.41057 -2.47503 0
M  V30 391 H 41.1098 2.99432 -1.30414 0
M  V30 392 H 39.7688 1.90063 -3.13483 0
M  V30 393 H 39.4168 4.31489 -2.58508 0
M  V30 394 H 39.1168 3.99254 -4.31127 0
M  V30 395 H 40.6408 4.77552 -3.80495 0
M  V30 396 H 42.0548 2.83384 -4.98363 0
M  V30 397 H 40.4518 2.2817 -5.5503 0
M  V30 398 H 41.5218 1.14336 -4.71227 0
M  V30 399 N 42.8649 1.48995 0.513639 0
M  V30 400 C 43.8279 1.64229 1.59879 0
M  V30 401 C 44.8279 0.514696 1.5234 0
M  V30 402 O 46.0179 0.78087 1.55718 0
M  V30 403 C 43.1499 1.62783 2.99524 0
M  V30 404 H 44.3429 2.61004 1.47705 0
M  V30 405 H 41.8959 1.37837 0.736936 0
M  V30 406 H 42.6309 0.675461 3.17188 0
M  V30 407 H 42.4159 2.4466 3.06404 0
M  V30 408 H 43.9059 1.76669 3.78388 0
M  V30 409 N 44.343 -0.763751 1.37857 0
M  V30 410 C 45.591 -1.51957 1.33243 0
M  V30 411 C 45.912 -1.94835 -0.0801709 0
M  V30 412 O 45.182 -1.66894 -1.02582 0
M  V30 413 H 43.762 -0.563626 0.49024 0
M  V30 414 H 46.424 -0.908504 1.7243 0
M  V30 415 H 45.52 -2.41523 1.97669 0
M  V30 416 N 45.8211 -1.22559 -0.990812 0
M  V30 417 C 46.7711 -0.964807 -2.0658 0
M  V30 418 C 47.7551 0.0853472 -1.60673 0
M  V30 419 O 48.9471 -0.125443 -1.76555 0
M  V30 420 C 46.0761 -0.546707 -3.38919 0
M  V30 421 C 45.1621 -1.6317 -3.91454 0
M  V30 422 N 45.5531 -2.85985 -4.17189 0
M  V30 423 C 43.8511 -1.50387 -4.19881 0
M  V30 424 C 44.5521 -3.56159 -4.59919 0
M  V30 425 N 43.5281 -2.83637 -4.63736 0
M  V30 426 H 47.3301 -1.89769 -2.24421 0
M  V30 427 H 44.8441 -1.12343 -1.17273 0
M  V30 428 H 46.8411 -0.34119 -4.15502 0
M  V30 429 H 45.5011 0.379254 -3.22478 0
M  V30 430 H 46.5121 -3.22392 -4.05319 0
M  V30 431 H 43.1891 -0.644254 -4.12499 0
M  V30 432 H 44.5791 -4.6139 -4.88435 0
M  V30 433 N 47.2992 1.18797 -1.03562 0
M  V30 434 C 48.5452 1.8893 -0.737113 0
M  V30 435 C 48.8782 1.79837 0.732956 0
M  V30 436 O 48.1532 1.19525 1.5344 0
M  V30 437 C 48.4362 3.39607 -1.19745 0
M  V30 438 C 48.2892 3.57537 -2.72924 0
M  V30 439 C 49.6082 4.33069 -0.783526 0
M  V30 440 H 46.7272 0.686057 -0.269249 0
M  V30 441 H 49.3692 1.39797 -1.28673 0
M  V30 442 H 47.5192 3.81583 -0.729855 0
M  V30 443 H 49.1912 3.24688 -3.27682 0
M  V30 444 H 47.4342 3.00363 -3.12993 0
M  V30 445 H 48.1052 4.63238 -3.00191 0
M  V30 446 H 50.5812 3.98846 -1.18581 0
M  V30 447 H 49.4572 5.3707 -1.13343 0
M  V30 448 H 49.7182 4.40986 0.313681 0
M  V30 449 N 48.7773 0.814389 1.34928 0
M  V30 450 C 49.7403 0.235759 2.27984 0
M  V30 451 C 50.7403 -0.581412 1.49921 0
M  V30 452 O 51.9303 -0.398758 1.69575 0
M  V30 453 C 49.0623 -0.670433 3.34242 0
M  V30 454 H 50.2553 1.05659 2.80671 0
M  V30 455 H 47.8083 0.585614 1.44915 0
M  V30 456 H 48.5433 -1.51466 2.86755 0
M  V30 457 H 48.3283 -0.0860822 3.92005 0
M  V30 458 H 49.8183 -1.06935 4.03676 0
M  V30 459 N 50.2554 -1.46986 0.568584 0
M  V30 460 C 51.1654 -2.33942 -0.17555 0
M  V30 461 C 52.1814 -1.48891 -0.90041 0
M  V30 462 O 53.3574 -1.81794 -0.86676 0
M  V30 463 C 50.4224 -3.25811 -1.18524 0
M  V30 464 C 49.4834 -4.26757 -0.466582 0
M  V30 465 C 48.7164 -5.14236 -1.42817 0
M  V30 466 O 48.9394 -5.04379 -2.66379 0
M  V30 467 O 47.8734 -5.94412 -0.946453 0
M  V30 468 H 51.6994 -2.98896 0.538036 0
M  V30 469 H 49.2844 -1.4573 0.329097 0
M  V30 470 H 51.1664 -3.82527 -1.76779 0
M  V30 471 H 49.8414 -2.63471 -1.88055 0
M  V30 472 H 48.7484 -3.73769 0.157451 0
M  V30 473 H 50.0814 -4.91843 0.187485 0
M  V30 474 N 51.7335 -0.305618 -1.54608 0
M  V30 475 C 52.9825 0.303098 -1.9941 0
M  V30 476 C 53.2955 1.54648 -1.19764 0
M  V30 477 O 54.5015 2.23007 -1.54855 0
M  V30 478 C 52.9575 0.590588 -3.55021 0
M  V30 479 C 52.5655 -0.634719 -4.43481 0
M  V30 480 C 54.3095 1.16025 -4.08336 0
M  V30 481 C 52.2165 -0.320126 -5.90533 0
M  V30 482 H 51.1465 0.117031 -0.744862 0
M  V30 483 H 53.7975 -0.415045 -1.78745 0
M  V30 484 H 52.1795 1.36845 -3.71604 0
M  V30 485 H 53.3535 -1.41079 -4.38672 0
M  V30 486 H 51.6685 -1.12333 -4.00962 0
M  V30 487 H 54.2655 1.40994 -5.15776 0
M  V30 488 H 54.6085 2.10397 -3.5922 0
M  V30 489 H 55.1415 0.443985 -3.95315 0
M  V30 490 H 51.8805 -1.23254 -6.43808 0
M  V30 491 H 51.4005 0.418579 -5.98338 0
M  V30 492 H 53.0795 0.0766241 -6.46955 0
M  V30 493 N 53.2116 1.57565 -0.0334293 0
M  V30 494 C 54.1416 2.13511 0.945265 0
M  V30 495 C 55.1226 1.05231 1.33643 0
M  V30 496 O 56.3076 1.33084 1.41429 0
M  V30 497 C 53.4376 2.6657 2.22616 0
M  V30 498 C 52.3916 3.79676 1.97561 0
M  V30 499 C 51.7176 4.1918 3.31952 0
M  V30 500 C 53.0176 5.0557 1.31135 0
M  V30 501 H 54.7116 2.95538 0.479325 0
M  V30 502 H 52.2576 1.42166 0.229115 0
M  V30 503 H 54.2106 3.04344 2.91466 0
M  V30 504 H 52.9346 1.8171 2.71384 0
M  V30 505 H 51.5936 3.42347 1.31127 0
M  V30 506 H 51.2416 3.31296 3.78487 0
M  V30 507 H 50.9416 4.95402 3.15992 0
M  V30 508 H 52.4656 4.59541 4.02063 0
M  V30 509 H 53.8796 5.40903 1.89992 0
M  V30 510 H 52.2766 5.86818 1.25559 0
M  V30 511 H 53.3466 4.84062 0.284894 0
M  V30 512 N 54.6897 -0.239769 1.55765 0
M  V30 513 C 55.6527 -1.28038 1.90103 0
M  V30 514 C 56.6527 -1.40723 0.778055 0
M  V30 515 O 57.8427 -1.39301 1.04599 0
M  V30 516 C 54.9747 -2.65702 2.13577 0
M  V30 517 H 56.1677 -0.988048 2.83157 0
M  V30 518 H 53.7207 -0.479382 1.48767 0
M  V30 519 H 54.4557 -3.00063 1.23015 0
M  V30 520 H 54.2407 -2.57875 2.95369 0
M  V30 521 H 55.7307 -3.40828 2.41301 0
M  V30 522 N 56.1678 -1.49265 -0.50573 0
M  V30 523 C 57.1148 -1.65585 -1.6078 0
M  V30 524 C 58.0848 -0.497396 -1.58478 0
M  V30 525 O 59.2698 -0.72385 -1.76536 0
M  V30 526 C 56.4098 -1.72408 -2.98948 0
M  V30 527 C 55.5228 -2.99525 -3.11301 0
M  V30 528 C 54.6578 -2.97356 -4.40174 0
M  V30 529 C 53.6968 -4.19074 -4.46143 0
M  V30 530 N 52.8338 -4.14841 -5.66437 0
M  V30 531 H 57.6738 -2.59688 -1.46172 0
M  V30 532 H 55.2108 -1.28761 -0.711261 0
M  V30 533 H 57.1688 -1.74344 -3.79025 0
M  V30 534 H 55.7988 -0.817753 -3.1227 0
M  V30 535 H 54.8508 -3.07222 -2.24318 0
M  V30 536 H 56.1628 -3.89518 -3.11572 0
M  V30 537 H 55.3168 -2.97829 -5.28567 0
M  V30 538 H 54.0558 -2.05133 -4.42461 0
M  V30 539 H 53.0608 -4.1885 -3.56153 0
M  V30 540 H 54.2858 -5.12483 -4.45575 0
M  V30 541 H 52.2318 -3.25453 -5.69575 0
M  V30 542 H 52.1488 -4.98564 -5.68304 0
M  V30 543 H 53.4168 -4.1941 -6.57051 0
M  V30 544 N 57.6459 0.756429 -1.3826 0
M  V30 545 C 58.5559 1.9009 -1.37488 0
M  V30 546 C 59.5719 1.71855 -0.272366 0
M  V30 547 O 60.7479 1.94827 -0.510318 0
M  V30 548 C 57.8129 3.25421 -1.19592 0
M  V30 549 C 56.8739 3.56202 -2.39622 0
M  V30 550 C 56.1069 4.85075 -2.2257 0
M  V30 551 O 56.3299 5.57246 -1.21793 0
M  V30 552 O 55.2639 5.15269 -3.11098 0
M  V30 553 H 59.0899 1.93695 -2.33914 0
M  V30 554 H 56.6749 0.901313 -1.1915 0
M  V30 555 H 58.5569 4.06337 -1.11661 0
M  V30 556 H 57.2319 3.22634 -0.262486 0
M  V30 557 H 56.1389 2.75458 -2.53128 0
M  V30 558 H 57.4719 3.63747 -3.31586 0
M  V30 559 N 59.124 1.23083 0.984299 0
M  V30 560 C 60.372 1.05848 1.72165 0
M  V30 561 C 60.693 -0.406049 1.90726 0
M  V30 562 O 59.963 -1.29139 1.47309 0
M  V30 563 H 58.543 0.388685 0.637913 0
M  V30 564 H 61.205 1.54736 1.18503 0
M  V30 565 H 60.301 1.54327 2.71274 0
M  V30 566 N 60.6021 -1.18246 1.0419 0
M  V30 567 C 61.8501 -1.87886 0.744543 0
M  V30 568 C 62.1711 -1.8082 -0.730006 0
M  V30 569 O 61.4411 -1.22736 -1.52685 0
M  V30 570 H 60.0211 -0.695556 0.272417 0
M  V30 571 H 62.6831 -1.43494 1.31892 0
M  V30 572 H 61.7791 -2.9389 1.05049 0
M  V30 573 N 62.0802 -0.821533 -1.34494 0
M  V30 574 C 63.4962 -0.507117 -1.51329 0
M  V30 575 C 63.6962 0.968964 -1.76673 0
M  V30 576 O 62.7522 1.75348 -1.81685 0
M  V30 577 C 64.0652 -1.36544 -2.67911 0
M  V30 578 C 65.6132 -1.36242 -2.81793 0
M  V30 579 C 66.0882 -2.2052 -4.01416 0
M  V30 580 N 67.5792 -2.18136 -4.08621 0
M  V30 581 C 68.3142 -2.80095 -5.00334 0
M  V30 582 N 67.8102 -3.51039 -5.9728 0
M  V30 583 N 69.6032 -2.69656 -4.93196 0
M  V30 584 H 61.7542 -1.77729 -1.16302 0
M  V30 585 H 64.0172 -0.757291 -0.570276 0
M  V30 586 H 63.7232 -2.41361 -2.55808 0
M  V30 587 H 63.5972 -1.02917 -3.62888 0
M  V30 588 H 65.9842 -0.322041 -2.93338 0
M  V30 589 H 66.0652 -1.73866 -1.87628 0
M  V30 590 H 65.7092 -3.24607 -3.90631 0
M  V30 591 H 65.6392 -1.80247 -4.94791 0
M  V30 592 H 68.1302 -1.6653 -3.39229 0
M  V30 593 H 68.4432 -3.95565 -6.63889 0
M  V30 594 H 66.7882 -3.55145 -5.97409 0
M  V30 595 H 69.9792 -2.13808 -4.16418 0
M  V30 596 H 70.1522 -3.1823 -5.64476 0
M  V30 597 N 63.5583 1.46682 -0.576371 0
M  V30 598 C 64.4683 2.34032 0.163141 0
M  V30 599 C 65.4843 1.49367 0.892501 0
M  V30 600 O 66.6603 1.82252 0.857106 0
M  V30 601 C 63.7253 3.26435 1.16795 0
M  V30 602 C 62.7863 4.26998 0.443944 0
M  V30 603 C 62.0193 5.14986 1.40088 0
M  V30 604 O 62.2423 5.05785 2.637 0
M  V30 605 O 61.1763 5.94906 0.914917 0
M  V30 606 H 65.0023 2.98607 -0.55388 0
M  V30 607 H 62.5873 1.45554 -0.336821 0
M  V30 608 H 64.4693 3.83459 1.74748 0
M  V30 609 H 63.1443 2.64465 1.86655 0
M  V30 610 H 62.0513 3.7368 -0.177271 0
M  V30 611 H 63.3843 4.91736 -0.213566 0
M  V30 612 N 65.0364 0.313813 1.54444 0
M  V30 613 C 66.2664 -0.293491 2.04505 0
M  V30 614 C 66.6744 -1.47086 1.19005 0
M  V30 615 O 66.0174 -1.82481 0.211257 0
M  V30 616 C 66.0794 -0.800455 3.50475 0
M  V30 617 C 65.7434 0.253322 4.56297 0
M  V30 618 C 66.7404 1.08612 5.08428 0
M  V30 619 C 64.4254 0.398708 5.00715 0
M  V30 620 C 66.4194 2.05013 6.0353 0
M  V30 621 C 64.1064 1.36614 5.95634 0
M  V30 622 C 65.1044 2.19033 6.46926 0
M  V30 623 O 64.7924 3.14134 7.39983 0
M  V30 624 H 64.5244 -0.0658325 0.672787 0
M  V30 625 H 67.0784 0.455177 2.00293 0
M  V30 626 H 65.3084 -1.59987 3.52053 0
M  V30 627 H 66.9974 -1.32504 3.83663 0
M  V30 628 H 67.7634 0.984736 4.74898 0
M  V30 629 H 63.6424 -0.23289 4.60411 0
M  V30 630 H 67.1864 2.69382 6.4349 0
M  V30 631 H 63.0834 1.4682 6.28581 0
M  V30 632 H 63.8514 3.0926 7.57826 0
M  V30 633 N 66.5145 -1.57545 0.0417849 0
M  V30 634 C 67.4445 -2.14009 -0.933929 0
M  V30 635 C 68.4255 -1.05938 -1.33083 0
M  V30 636 O 69.6105 -1.33833 -1.40721 0
M  V30 637 C 66.7405 -2.67747 -2.21199 0
M  V30 638 C 65.6945 -3.80718 -1.95544 0
M  V30 639 C 65.0205 -4.20935 -3.29724 0
M  V30 640 C 66.3205 -5.06258 -1.28452 0
M  V30 641 H 68.0145 -2.95788 -0.463645 0
M  V30 642 H 65.5605 -1.42285 -0.221573 0
M  V30 643 H 67.5135 -3.05886 -2.89848 0
M  V30 644 H 66.2375 -1.83147 -2.70416 0
M  V30 645 H 64.8965 -3.43037 -1.2931 0
M  V30 646 H 64.5445 -3.33298 -3.76724 0
M  V30 647 H 64.2445 -4.9707 -3.13361 0
M  V30 648 H 65.7685 -4.61666 -3.9962 0
M  V30 649 H 67.1825 -5.41903 -1.8712 0
M  V30 650 H 65.5795 -5.87475 -1.22445 0
M  V30 651 H 66.6495 -4.84207 -0.259219 0
M  V30 652 N 67.9926 0.231505 -1.5589 0
M  V30 653 C 69.2416 0.955346 -1.7764 0
M  V30 654 C 69.5546 1.85893 -0.608546 0
M  V30 655 O 70.7606 2.62067 -0.70943 0
M  V30 656 C 69.2166 1.74886 -3.14552 0
M  V30 657 C 68.8246 0.891915 -4.39032 0
M  V30 658 C 70.5686 2.46452 -3.45633 0
M  V30 659 C 68.4756 1.68221 -5.66971 0
M  V30 660 H 67.4056 0.360446 -0.662265 0
M  V30 661 H 70.0566 0.209516 -1.823 0
M  V30 662 H 68.4386 2.53723 -3.04041 0
M  V30 663 H 69.6126 0.144793 -4.60572 0
M  V30 664 H 67.9276 0.288863 -4.15397 0
M  V30 665 H 70.5246 3.06061 -4.38441 0
M  V30 666 H 70.8676 3.18841 -2.67668 0
M  V30 667 H 71.4006 1.74613 -3.57428 0
M  V30 668 H 68.1396 1.00178 -6.478 0
M  V30 669 H 67.6596 2.4042 -5.49507 0
M  V30 670 H 69.3386 2.24544 -6.06786 0
M  V30 671 N 69.4707 1.49531 0.497807 0
M  V30 672 C 70.4007 1.6935 1.60757 0
M  V30 673 C 71.3817 0.542218 1.61227 0
M  V30 674 O 72.5667 0.778417 1.77917 0
M  V30 675 C 69.6967 1.76298 2.99226 0
M  V30 676 C 68.6507 2.91248 3.13622 0
M  V30 677 C 67.9767 2.83312 4.53474 0
M  V30 678 C 69.2767 4.3214 2.93346 0
M  V30 679 H 70.9707 2.62263 1.44425 0
M  V30 680 H 68.5167 1.26208 0.693367 0
M  V30 681 H 70.4697 1.88749 3.76765 0
M  V30 682 H 69.1937 0.799871 3.16654 0
M  V30 683 H 67.8527 2.78404 2.38509 0
M  V30 684 H 67.5007 1.84902 4.67782 0
M  V30 685 H 67.2007 3.60465 4.64046 0
M  V30 686 H 68.7247 2.97775 5.33069 0
M  V30 687 H 70.1387 4.45649 3.60652 0
M  V30 688 H 68.5357 5.1054 3.15387 0
M  V30 689 H 69.6057 4.46363 1.89441 0
M  V30 690 N 70.9488 -0.749086 1.3866 0
M  V30 691 C 72.1948 -1.51056 1.35314 0
M  V30 692 C 72.5278 -1.94121 -0.0553751 0
M  V30 693 O 71.8028 -1.65763 -1.01749 0
M  V30 694 C 72.0858 -2.76003 2.31288 0
M  V30 695 C 71.9388 -2.39047 3.8102 0
M  V30 696 C 73.2578 -3.78046 2.2532 0
M  V30 697 H 70.3768 -0.547972 0.492844 0
M  V30 698 H 73.0188 -0.857628 1.69543 0
M  V30 699 H 71.1688 -3.31716 2.02229 0
M  V30 700 H 72.8408 -1.89074 4.20771 0
M  V30 701 H 71.0838 -1.71449 3.98482 0
M  V30 702 H 71.7548 -3.28462 4.4364 0
M  V30 703 H 74.2308 -3.31884 2.50983 0
M  V30 704 H 73.1068 -4.63159 2.94576 0
M  V30 705 H 73.3678 -4.23957 1.25352 0
M  V30 706 N 72.4269 -1.23603 -0.977757 0
M  V30 707 C 73.3569 -1.04401 -2.0886 0
M  V30 708 C 74.3379 0.0399052 -1.70053 0
M  V30 709 O 75.5229 -0.125246 -1.93796 0
M  V30 710 C 72.6529 -0.637269 -3.41403 0
M  V30 711 C 71.6069 -1.66883 -3.94124 0
M  V30 712 C 70.9329 -1.11745 -5.22893 0
M  V30 713 C 72.2329 -3.06247 -4.23096 0
M  V30 714 H 73.9269 -1.97316 -2.25182 0
M  V30 715 H 71.4729 -0.950096 -1.08209 0
M  V30 716 H 73.4259 -0.48998 -4.18542 0
M  V30 717 H 72.1499 0.327557 -3.24953 0
M  V30 718 H 70.8089 -1.80416 -3.19133 0
M  V30 719 H 70.4569 -0.143527 -5.02795 0
M  V30 720 H 70.1569 -1.80672 -5.59134 0
M  V30 721 H 71.6809 -0.982067 -6.02651 0
M  V30 722 H 73.0949 -2.96001 -4.90975 0
M  V30 723 H 71.4919 -3.72436 -4.70544 0
M  V30 724 H 72.5619 -3.55041 -3.30263 0
M  V30 725 N 73.905 1.17692 -1.04816 0
M  V30 726 C 74.835 2.23777 -0.666791 0
M  V30 727 C 75.816 1.66796 0.33361 0
M  V30 728 O 77.001 1.93039 0.212042 0
M  V30 729 C 74.131 3.47281 -0.0367933 0
M  V30 730 C 73.085 4.17059 -0.961546 0
M  V30 731 C 72.411 5.34342 -0.195626 0
M  V30 732 C 73.711 4.69713 -2.28402 0
M  V30 733 H 75.405 2.55933 -1.55367 0
M  V30 734 H 72.951 1.23019 -0.748484 0
M  V30 735 H 74.904 4.20706 0.241775 0
M  V30 736 H 73.628 3.14381 0.885004 0
M  V30 737 H 72.287 3.45541 -1.22462 0
M  V30 738 H 71.935 4.97692 0.728816 0
M  V30 739 H 71.635 5.81966 -0.811775 0
M  V30 740 H 73.159 6.10553 0.0757473 0
M  V30 741 H 74.573 5.34794 -2.06563 0
M  V30 742 H 72.97 5.279 -2.8538 0
M  V30 743 H 74.04 3.86726 -2.92525 0
M  V30 744 N 75.3831 0.828654 1.34056 0
M  V30 745 C 76.6131 0.431993 2.02033 0
M  V30 746 C 77.0211 -0.96844 1.62536 0
M  V30 747 O 76.3641 -1.6391 0.829408 0
M  V30 748 C 76.4261 0.461224 3.56529 0
M  V30 749 C 76.0901 1.81599 4.1937 0
M  V30 750 C 77.0871 2.7777 4.39477 0
M  V30 751 C 74.7721 2.10604 4.56017 0
M  V30 752 C 76.7661 4.01115 4.95364 0
M  V30 753 C 74.4531 3.34207 5.11614 0
M  V30 754 C 75.4511 4.2928 5.31232 0
M  V30 755 O 75.1391 5.50699 5.8565 0
M  V30 756 H 74.8711 0.170943 0.654029 0
M  V30 757 H 77.4251 1.11988 1.72185 0
M  V30 758 H 75.6551 -0.283388 3.8566 0
M  V30 759 H 77.3441 0.0838149 4.05813 0
M  V30 760 H 78.1101 2.56659 4.11523 0
M  V30 761 H 73.9891 1.37402 4.40047 0
M  V30 762 H 77.5331 4.75333 5.10592 0
M  V30 763 H 73.4301 3.55179 5.38997 0
M  V30 764 H 74.1981 5.52298 6.04077 0
M  V30 765 N 76.8612 -1.46375 0.584142 0
M  V30 766 C 78.1092 -2.01978 0.0701287 0
M  V30 767 C 78.4302 -1.4579 -1.295 0
M  V30 768 O 77.7002 -0.64314 -1.85042 0
M  V30 769 H 76.2802 -0.746648 0.0229345 0
M  V30 770 H 78.9422 -1.79461 0.760245 0
M  V30 771 H 78.0382 -3.121 0.0022064 0
M  V30 772 N 78.3393 -0.321999 -1.54275 0
M  V30 773 C 79.2693 0.537411 -2.27231 0
M  V30 774 C 80.2503 1.12064 -1.27968 0
M  V30 775 O 81.4353 1.14606 -1.56777 0
M  V30 776 C 78.5653 1.69919 -3.02894 0
M  V30 777 C 77.5193 1.24534 -4.09482 0
M  V30 778 C 76.8453 2.49394 -4.72977 0
M  V30 779 C 78.1453 0.361335 -5.21049 0
M  V30 780 H 79.8393 -0.0711406 -2.99315 0
M  V30 781 H 77.3853 -0.0356555 -1.43956 0
M  V30 782 H 79.3383 2.30668 -3.52662 0
M  V30 783 H 78.0623 2.33431 -2.28424 0
M  V30 784 H 76.7213 0.660782 -3.60596 0
M  V30 785 H 76.3693 3.11265 -3.95124 0
M  V30 786 H 76.0693 2.19718 -5.44975 0
M  V30 787 H 77.5933 3.10908 -5.25517 0
M  V30 788 H 79.0073 0.875072 -5.66582 0
M  V30 789 H 77.4043 0.157428 -5.99893 0
M  V30 790 H 78.4743 -0.60822 -4.8107 0
M  V30 791 N 79.8174 1.5752 -0.0501392 0
M  V30 792 C 80.7494 2.08413 0.95376 0
M  V30 793 C 81.7624 1.01175 1.27544 0
M  V30 794 O 82.9514 1.28744 1.23641 0
M  V30 795 C 80.0514 2.51138 2.27559 0
M  V30 796 C 79.2244 3.817 2.13598 0
M  V30 797 C 78.2834 4.10749 3.28895 0
M  V30 798 O 77.3094 4.80685 3.04845 0
M  V30 799 N 78.5114 3.62579 4.5334 0
M  V30 800 H 81.2764 2.95165 0.519383 0
M  V30 801 H 78.8374 1.61327 0.136127 0
M  V30 802 H 80.8294 2.67648 3.03557 0
M  V30 803 H 79.3994 1.6964 2.62567 0
M  V30 804 H 78.6194 3.74782 1.22197 0
M  V30 805 H 79.9074 4.67201 2.01496 0
M  V30 806 H 79.3054 3.06039 4.75769 0
M  V30 807 H 77.8624 3.84329 5.26436 0
M  V30 808 N 81.2955 -0.223234 1.56011 0
M  V30 809 C 82.5435 -0.946003 1.78592 0
M  V30 810 C 82.8645 -1.84936 0.618349 0
M  V30 811 O 82.1345 -1.92473 -0.364833 0
M  V30 812 H 80.7145 -0.352298 0.658707 0
M  V30 813 H 83.3765 -0.235494 1.93472 0
M  V30 814 H 82.4725 -1.55381 2.70672 0
M  V30 815 N 82.7736 -1.49793 -0.48987 0
M  V30 816 C 83.7056 -1.63413 -1.60713 0
M  V30 817 C 84.7186 -0.516329 -1.54395 0
M  V30 818 O 85.9076 -0.788812 -1.60125 0
M  V30 819 C 83.0076 -1.58516 -2.99543 0
M  V30 820 C 82.1806 -2.86016 -3.30928 0
M  V30 821 C 81.2396 -2.74018 -4.49222 0
M  V30 822 O 80.2656 -3.47964 -4.50455 0
M  V30 823 N 81.4676 -1.86309 -5.4979 0
M  V30 824 H 84.2326 -2.59777 -1.49452 0
M  V30 825 H 81.7936 -1.47022 -0.677955 0
M  V30 826 H 83.7856 -1.48128 -3.76617 0
M  V30 827 H 82.3556 -0.69965 -3.0467 0
M  V30 828 H 81.5756 -3.10672 -2.42645 0
M  V30 829 H 82.8636 -3.70521 -3.487 0
M  V30 830 H 82.2616 -1.2551 -5.51601 0
M  V30 831 H 80.8186 -1.81837 -6.25922 0
M  V30 832 N 84.2517 0.741722 -1.39055 0
M  V30 833 C 85.5007 1.49656 -1.35225 0
M  V30 834 C 85.8137 1.95533 0.0512708 0
M  V30 835 O 87.0197 2.7067 0.212138 0
M  V30 836 C 85.4757 2.70389 -2.37525 0
M  V30 837 C 85.0837 2.31489 -3.83558 0
M  V30 838 C 86.8277 3.48236 -2.42759 0
M  V30 839 C 84.7347 3.48903 -4.77515 0
M  V30 840 H 83.6647 0.56197 -0.502699 0
M  V30 841 H 86.3157 0.809727 -1.64668 0
M  V30 842 H 84.6977 3.41113 -2.01142 0
M  V30 843 H 85.8717 1.68354 -4.28945 0
M  V30 844 H 84.1867 1.66749 -3.81554 0
M  V30 845 H 86.7837 4.35558 -3.1015 0
M  V30 846 H 87.1267 3.90229 -1.45008 0
M  V30 847 H 87.6597 2.84535 -2.78002 0
M  V30 848 H 84.3987 3.11966 -5.76504 0
M  V30 849 H 83.9187 4.11041 -4.36813 0
M  V30 850 H 85.5977 4.15328 -4.96096 0
M  V30 851 N 85.7298 1.2412 0.971189 0
M  V30 852 C 86.6398 1.04747 2.09917 0
M  V30 853 C 87.6558 -0.0107162 1.73997 0
M  V30 854 O 88.8318 0.186714 2.00533 0
M  V30 855 C 85.8968 0.650828 3.40537 0
M  V30 856 C 84.9578 1.7851 3.90426 0
M  V30 857 C 84.1908 1.40729 5.14812 0
M  V30 858 O 84.4138 0.29557 5.69634 0
M  V30 859 O 83.3478 2.23168 5.58999 0
M  V30 860 H 87.1738 1.99304 2.29154 0
M  V30 861 H 84.7588 1.02908 1.08307 0
M  V30 862 H 86.6408 0.440992 4.19086 0
M  V30 863 H 85.3158 -0.265649 3.22608 0
M  V30 864 H 84.2228 2.04966 3.12953 0
M  V30 865 H 85.5558 2.68023 4.12825 0
M  V30 866 N 87.2079 -1.17134 1.05439 0
M  V30 867 C 88.4539 -1.87733 0.767077 0
M  V30 868 C 88.7869 -1.8098 -0.704253 0
M  V30 869 O 88.0619 -1.21951 -1.5152 0
M  V30 870 C 88.3449 -3.37659 1.25133 0
M  V30 871 C 88.1979 -3.53149 2.78578 0
M  V30 872 C 89.5169 -4.31768 0.852324 0
M  V30 873 H 86.6359 -0.681687 0.280129 0
M  V30 874 H 89.2779 -1.37732 1.30881 0
M  V30 875 H 87.4279 -3.80373 0.790469 0
M  V30 876 H 89.0999 -3.19434 3.32806 0
M  V30 877 H 87.3429 -2.95345 3.17732 0
M  V30 878 H 88.0139 -4.58403 3.07523 0
M  V30 879 H 90.4899 -3.96909 1.24911 0
M  V30 880 H 89.3659 -5.35199 1.21873 0
M  V30 881 H 89.6269 -4.41429 -0.243485 0
M  V30 882 N 88.686 -0.835752 -1.33615 0
M  V30 883 C 89.633 -0.26473 -2.29277 0
M  V30 884 C 90.603 0.617712 -1.54187 0
M  V30 885 O 91.788 0.556641 -1.825 0
M  V30 886 C 88.928 0.556777 -3.40579 0
M  V30 887 C 88.041 -0.349339 -4.30585 0
M  V30 888 C 87.176 0.482969 -5.29 0
M  V30 889 C 86.215 -0.421732 -6.10645 0
M  V30 890 N 85.352 0.372262 -7.01112 0
M  V30 891 H 90.192 -1.08582 -2.77514 0
M  V30 892 H 87.729 -0.546927 -1.36554 0
M  V30 893 H 89.687 1.04852 -4.03809 0
M  V30 894 H 88.317 1.34286 -2.93542 0
M  V30 895 H 87.369 -0.959372 -3.68104 0
M  V30 896 H 88.681 -1.04445 -4.87742 0
M  V30 897 H 87.835 1.03866 -5.97743 0
M  V30 898 H 86.574 1.21153 -4.72412 0
M  V30 899 H 85.579 -0.989464 -5.40823 0
M  V30 900 H 86.804 -1.14861 -6.69316 0
M  V30 901 H 84.75 1.08426 -6.46977 0
M  V30 902 H 84.667 -0.264198 -7.55538 0
M  V30 903 H 85.935 0.910293 -7.74167 0
M  V30 904 N 90.1641 1.46063 -0.591896 0
M  V30 905 C 91.4121 2.01938 -0.0808391 0
M  V30 906 C 91.7331 1.46475 1.28725 0
M  V30 907 O 91.0031 0.652944 1.84698 0
M  V30 908 H 89.5831 0.746516 -0.0268938 0
M  V30 909 H 92.2451 1.79055 -0.769752 0
M  V30 910 H 91.3411 3.12094 -0.0187578 0
M  V30 911 N 91.6422 0.330177 1.54103 0
M  V30 912 C 92.5752 -0.575477 2.20825 0
M  V30 913 C 93.5532 -1.11064 1.18758 0
M  V30 914 O 94.7372 -1.17341 1.47524 0
M  V30 915 C 91.8642 -1.79032 2.87516 0
M  V30 916 C 90.9102 -1.38581 4.03358 0
M  V30 917 S 91.7432 -0.416911 5.33875 0
M  V30 918 C 92.8992 -1.63889 6.04062 0
M  V30 919 H 93.1322 -0.00872114 2.97299 0
M  V30 920 H 90.6652 0.114254 1.53977 0
M  V30 921 H 92.6232 -2.48734 3.2656 0
M  V30 922 H 91.2842 -2.32827 2.10832 0
M  V30 923 H 90.4772 -2.29123 4.48908 0
M  V30 924 H 90.0792 -0.768419 3.66021 0
M  V30 925 H 92.3712 -2.57536 6.26643 0
M  V30 926 H 93.3142 -1.22542 6.97416 0
M  V30 927 H 93.7222 -1.82887 5.34053 0
M  V30 928 N 93.1203 -1.57491 0.0584922 0
M  V30 929 C 94.0673 -2.11958 -0.913376 0
M  V30 930 C 95.0373 -1.02875 -1.30407 0
M  V30 931 O 96.2223 -1.30464 -1.39226 0
M  V30 932 C 93.3623 -2.67497 -2.18035 0
M  V30 933 C 92.4753 -3.90691 -1.84349 0
M  V30 934 C 91.6103 -4.3452 -3.05559 0
M  V30 935 C 90.6493 -5.50395 -2.67827 0
M  V30 936 N 89.7863 -5.89244 -3.81754 0
M  V30 937 H 94.6263 -2.94704 -0.442017 0
M  V30 938 H 92.1633 -1.45643 -0.206545 0
M  V30 939 H 94.1213 -2.978 -2.92183 0
M  V30 940 H 92.7513 -1.87537 -2.62735 0
M  V30 941 H 91.8033 -3.66934 -1.00319 0
M  V30 942 H 93.1153 -4.7489 -1.5258 0
M  V30 943 H 92.2693 -4.66414 -3.87998 0
M  V30 944 H 91.0083 -3.49147 -3.40511 0
M  V30 945 H 90.0133 -5.18165 -1.83806 0
M  V30 946 H 91.2383 -6.3749 -2.34059 0
M  V30 947 H 89.1843 -5.06823 -4.16493 0
M  V30 948 H 89.1013 -6.68151 -3.53708 0
M  V30 949 H 90.3693 -6.25756 -4.64811 0
M  V30 950 N 94.5984 0.214957 -1.56127 0
M  V30 951 C 95.8284 0.953707 -1.8327 0
M  V30 952 C 96.2364 1.78181 -0.636262 0
M  V30 953 O 95.5794 1.79191 0.404516 0
M  V30 954 C 95.6414 1.91516 -3.0424 0
M  V30 955 C 95.3054 1.27094 -4.38972 0
M  V30 956 C 96.3024 0.657575 -5.15725 0
M  V30 957 C 93.9874 1.28073 -4.85698 0
M  V30 958 C 95.9814 0.0625968 -6.37369 0
M  V30 959 C 93.6684 0.681914 -6.07283 0
M  V30 960 C 94.6664 0.0739046 -6.8296 0
M  V30 961 O 94.3544 -0.515582 -8.02245 0
M  V30 962 H 94.0864 0.284764 -0.613095 0
M  V30 963 H 96.6404 0.233283 -2.04071 0
M  V30 964 H 94.8704 2.67475 -2.79274 0
M  V30 965 H 96.5594 2.52001 -3.18198 0
M  V30 966 H 97.3254 0.642288 -4.80728 0
M  V30 967 H 93.2044 1.74337 -4.26764 0
M  V30 968 H 96.7484 -0.412593 -6.96379 0
M  V30 969 H 92.6454 0.694636 -6.41752 0
M  V30 970 H 93.4134 -0.410544 -8.1747 0
M  V30 971 N 96.0765 1.50051 0.48192 0
M  V30 972 C 97.0245 1.68635 1.60203 0
M  V30 973 C 98.0185 0.552184 1.60148 0
M  V30 974 O 99.2245 0.732377 1.64427 0
M  V30 975 H 95.5995 0.532081 0.531407 0
M  V30 976 H 97.5705 2.62616 1.41688 0
M  V30 977 C 96.3195 1.78775 2.9822 0
M  V30 978 H 95.6425 2.6543 2.98976 0
M  V30 979 H 97.0825 1.95806 3.7608 0
M  V30 980 C 95.5415 0.536849 3.32595 0
M  V30 981 O 96.0715 -0.328897 4.00351 0
M  V30 982 N 94.2775 0.394091 2.87915 0
M  V30 983 H 93.8245 1.09962 2.32951 0
M  V30 984 H 93.7825 -0.441737 3.11281 0
M  V30 985 N 97.5546 -0.734337 1.39446 0
M  V30 986 C 98.8026 -1.49096 1.36436 0
M  V30 987 C 99.1236 -1.94961 -0.0388255 0
M  V30 988 O 98.3936 -1.69033 -0.990191 0
M  V30 989 H 96.9736 -0.5531 0.502085 0
M  V30 990 H 99.6356 -0.871725 1.74319 0
M  V30 991 H 98.7316 -2.37276 2.02747 0
M  V30 992 N 99.0327 -1.24633 -0.964593 0
M  V30 993 C 100.279 -1.08949 -1.71049 0
M  V30 994 C 100.612 0.370302 -1.90637 0
M  V30 995 O 99.8867 1.27349 -1.47011 0
M  V30 996 C 100.17 -1.83329 -3.0994 0
M  V30 997 C 100.023 -3.37077 -2.97824 0
M  V30 998 C 101.342 -1.60846 -4.09654 0
M  V30 999 H 98.4607 -0.397178 -0.620821 0
M  V30 1000 H 101.103 -1.5334 -1.12191 0
M  V30 1001 H 99.2527 -1.45597 -3.60186 0
M  V30 1002 H 100.925 -3.84425 -2.5498 0
M  V30 1003 H 99.1677 -3.65298 -2.33965 0
M  V30 1004 H 99.8387 -3.84324 -3.96231 0
M  V30 1005 H 102.315 -1.93674 -3.68279 0
M  V30 1006 H 101.191 -2.1534 -5.04896 0
M  V30 1007 H 101.452 -0.547434 -4.38698 0
M  V30 1008 N 100.511 1.16574 -1.06058 0
M  V30 1009 C 101.444 2.19798 -0.61352 0
M  V30 1010 C 102.422 1.58509 0.362453 0
M  V30 1011 O 103.606 1.86527 0.271994 0
M  V30 1012 C 100.733 3.3855 0.100915 0
M  V30 1013 C 99.7788 4.18317 -0.831438 0
M  V30 1014 S 100.612 4.82375 -2.32539 0
M  V30 1015 C 101.768 6.04508 -1.62238 0
M  V30 1016 H 102.001 2.5738 -1.48805 0
M  V30 1017 H 99.5338 1.27327 -0.873338 0
M  V30 1018 H 101.492 4.07358 0.506898 0
M  V30 1019 H 100.153 2.99338 0.951604 0
M  V30 1020 H 99.3458 5.03232 -0.278071 0
M  V30 1021 H 98.9478 3.5499 -1.17719 0
M  V30 1022 H 101.24 6.71133 -0.926622 0
M  V30 1023 H 102.183 6.64389 -2.44934 0
M  V30 1024 H 102.591 5.53559 -1.106 0
M  V30 1025 N 101.989 0.842826 1.3317 0
M  V30 1026 C 103.214 0.453129 2.02389 0
M  V30 1027 C 103.639 -0.939105 1.6298 0
M  V30 1028 O 102.997 -1.61472 0.8244 0
M  V30 1029 C 103.045 0.586094 3.55805 0
M  V30 1030 O 102.149 -0.386029 4.10589 0
M  V30 1031 H 101.49 0.183664 0.638094 0
M  V30 1032 H 104.02 1.13875 1.69981 0
M  V30 1033 H 104.03 0.469209 4.05293 0
M  V30 1034 H 102.705 1.6014 3.83833 0
M  V30 1035 H 101.282 -0.226371 3.72212 0
M  V30 1036 N 103.467 -1.45747 0.599634 0
M  V30 1037 C 104.692 -2.07178 0.0960198 0
M  V30 1038 C 105.117 -1.44268 -1.207 0
M  V30 1039 O 104.475 -0.532503 -1.73303 0
M  V30 1040 C 104.523 -3.60579 -0.0385348 0
M  V30 1041 O 103.627 -3.97713 -1.0908 0
M  V30 1042 H 102.968 -0.660251 0.0704593 0
M  V30 1043 H 105.498 -1.87124 0.827385 0
M  V30 1044 H 105.508 -4.07298 -0.239304 0
M  V30 1045 H 104.183 -4.05756 0.912947 0
M  V30 1046 H 102.76 -3.62678 -0.867135 0
M  V30 1047 N 104.945 -0.338344 -1.53925 0
M  V30 1048 C 106.192 0.259758 -2.00827 0
M  V30 1049 C 106.52 1.50973 -1.22628 0
M  V30 1050 O 105.775 1.93379 -0.300509 0
M  V30 1051 C 106.074 0.62448 -3.51902 0
M  V30 1052 C 105.74 -0.528006 -4.47798 0
M  V30 1053 C 104.402 -0.844298 -4.73735 0
M  V30 1054 C 106.754 -1.30143 -5.0469 0
M  V30 1055 C 104.082 -1.93648 -5.53821 0
M  V30 1056 C 106.434 -2.38382 -5.85967 0
M  V30 1057 C 105.098 -2.70576 -6.10201 0
M  V30 1058 H 104.368 0.0950523 -0.734878 0
M  V30 1059 H 107.015 -0.465182 -1.85764 0
M  V30 1060 H 105.32 1.43006 -3.64769 0
M  V30 1061 H 107.017 1.09905 -3.85645 0
M  V30 1062 H 103.607 -0.271421 -4.2774 0
M  V30 1063 H 107.791 -1.07033 -4.84621 0
M  V30 1064 H 103.047 -2.19021 -5.70824 0
M  V30 1065 H 107.221 -2.98746 -6.29066 0
M  V30 1066 H 104.848 -3.55333 -6.72044 0
M  V30 1067 N 106.423 1.57458 -0.0668435 0
M  V30 1068 C 107.386 2.11323 0.887422 0
M  V30 1069 C 108.386 1.03618 1.22964 0
M  V30 1070 O 109.576 1.29626 1.16373 0
M  V30 1071 C 106.708 2.61048 2.19242 0
M  V30 1072 H 107.901 2.96942 0.420194 0
M  V30 1073 H 105.454 1.55239 0.181793 0
M  V30 1074 H 106.189 1.78868 2.70512 0
M  V30 1075 H 105.974 3.39769 1.95702 0
M  V30 1076 H 107.464 3.02814 2.87565 0
M  V30 1077 N 107.901 -0.206675 1.56239 0
M  V30 1078 C 108.833 -1.27997 1.9013 0
M  V30 1079 C 109.846 -1.42299 0.790883 0
M  V30 1080 O 111.035 -1.42931 1.06925 0
M  V30 1081 C 108.135 -2.65368 2.10792 0
M  V30 1082 C 107.308 -2.72824 3.41886 0
M  V30 1083 C 106.367 -3.9131 3.51799 0
M  V30 1084 O 105.393 -3.78953 4.24716 0
M  V30 1085 N 106.595 -5.06265 2.84035 0
M  V30 1086 H 109.36 -0.992444 2.82791 0
M  V30 1087 H 106.921 -0.396652 1.56966 0
M  V30 1088 H 108.913 -3.43039 2.14724 0
M  V30 1089 H 107.483 -2.86657 1.24685 0
M  V30 1090 H 106.703 -1.81515 3.49923 0
M  V30 1091 H 107.991 -2.74786 4.28217 0
M  V30 1092 H 107.389 -5.19203 2.246 0
M  V30 1093 H 105.946 -5.81925 2.93609 0
M  V30 1094 N 109.379 -1.50304 -0.473955 0
M  V30 1095 C 110.309 -1.71886 -1.58042 0
M  V30 1096 C 111.29 -0.567799 -1.60344 0
M  V30 1097 O 112.475 -0.806623 -1.76656 0
M  V30 1098 C 109.605 -1.81036 -2.96384 0
M  V30 1099 C 108.559 -2.962 -3.08949 0
M  V30 1100 C 107.885 -2.9049 -4.48909 0
M  V30 1101 C 109.185 -4.36752 -2.86434 0
M  V30 1102 H 110.879 -2.64527 -1.40234 0
M  V30 1103 H 108.425 -1.27295 -0.673201 0
M  V30 1104 H 110.378 -1.94719 -3.73714 0
M  V30 1105 H 109.102 -0.850147 -3.15341 0
M  V30 1106 H 107.761 -2.82164 -2.3405 0
M  V30 1107 H 107.409 -1.92321 -4.64781 0
M  V30 1108 H 107.109 -3.67802 -4.58253 0
M  V30 1109 H 108.633 -3.06218 -5.28264 0
M  V30 1110 H 110.047 -4.5133 -3.53517 0
M  V30 1111 H 108.444 -5.15493 -3.07225 0
M  V30 1112 H 109.514 -4.49321 -1.82316 0
M  V30 1113 N 110.857 0.726932 -1.39834 0
M  V30 1114 C 111.804 1.841 -1.39197 0
M  V30 1115 C 112.774 1.642 -0.250502 0
M  V30 1116 O 113.959 1.85494 -0.446846 0
M  V30 1117 C 111.099 3.21697 -1.24919 0
M  V30 1118 C 110.212 3.53247 -2.48678 0
M  V30 1119 C 109.347 4.80289 -2.26928 0
M  V30 1120 C 108.386 5.04707 -3.4632 0
M  V30 1121 N 107.523 6.22956 -3.23836 0
M  V30 1122 H 112.363 1.83979 -2.34427 0
M  V30 1123 H 109.9 0.898876 -1.16442 0
M  V30 1124 H 111.858 4.01137 -1.1465 0
M  V30 1125 H 110.488 3.21076 -0.333153 0
M  V30 1126 H 109.54 2.68447 -2.69519 0
M  V30 1127 H 110.852 3.67205 -3.37582 0
M  V30 1128 H 110.006 5.67725 -2.13947 0
M  V30 1129 H 108.745 4.68519 -1.35431 0
M  V30 1130 H 107.75 4.1573 -3.5979 0
M  V30 1131 H 108.975 5.18357 -4.38729 0
M  V30 1132 H 106.921 6.12459 -2.35011 0
M  V30 1133 H 106.838 6.37539 -4.063 0
M  V30 1134 H 108.106 7.1321 -3.14566 0
M  V30 1135 N 112.336 1.25143 0.95797 0
M  V30 1136 C 113.613 1.00472 1.67823 0
M  V30 1137 C 113.993 -0.470056 2.058 0
M  V30 1138 O 113.341 -1.44663 1.76875 0
M  V30 1139 C 113.551 1.9372 2.90299 0
M  V30 1140 C 114.899 2.21371 3.62326 0
M  V30 1141 O 115.923 1.91451 3.00375 0
M  V30 1142 O 114.782 2.72231 4.7387 0
M  V30 1143 H 111.876 0.380752 0.734137 0
M  V30 1144 H 114.422 1.36283 1.01119 0
M  V30 1145 H 113.194 2.93316 2.59001 0
M  V30 1146 H 112.817 1.58286 3.64735 0
M  V30 1147 N 113.814 -1.1601 1.06675 0
M  V30 1148 C 114.724 -2.24156 0.692179 0
M  V30 1149 C 115.74 -1.71507 -0.293513 0
M  V30 1150 O 116.916 -2.009 -0.141861 0
M  V30 1151 C 113.981 -3.46587 0.0884131 0
M  V30 1152 C 113.042 -4.14257 1.12646 0
M  V30 1153 C 112.275 -5.30844 0.551416 0
M  V30 1154 O 112.498 -5.66858 -0.634656 0
M  V30 1155 O 111.432 -5.87848 1.29298 0
M  V30 1156 H 115.258 -2.58513 1.59388 0
M  V30 1157 H 112.843 -1.23599 0.83926 0
M  V30 1158 H 114.725 -4.20679 -0.246361 0
M  V30 1159 H 113.4 -3.13994 -0.786712 0
M  V30 1160 H 112.307 -3.42118 1.51348 0
M  V30 1161 H 113.64 -4.50914 1.97325 0
M  V30 1162 N 115.292 -0.849877 -1.32721 0
M  V30 1163 C 116.202 -0.293791 -2.32753 0
M  V30 1164 C 117.218 0.585906 -1.63839 0
M  V30 1165 O 118.394 0.487413 -1.95413 0
M  V30 1166 C 115.459 0.512752 -3.42887 0
M  V30 1167 C 114.52 -0.39252 -4.27502 0
M  V30 1168 C 113.753 0.375625 -5.32377 0
M  V30 1169 O 113.976 1.60613 -5.4732 0
M  V30 1170 O 112.91 -0.256094 -6.01355 0
M  V30 1171 H 116.736 -1.12242 -2.82197 0
M  V30 1172 H 114.321 -0.612685 -1.36259 0
M  V30 1173 H 116.203 0.970704 -4.10067 0
M  V30 1174 H 114.878 1.31826 -2.95641 0
M  V30 1175 H 113.785 -0.898547 -3.63149 0
M  V30 1176 H 115.118 -1.16309 -4.7826 0
M  V30 1177 N 116.77 1.45427 -0.607355 0
M  V30 1178 C 118.019 2.01452 -0.100036 0
M  V30 1179 C 118.332 1.48159 1.27704 0
M  V30 1180 O 119.538 1.96159 1.87707 0
M  V30 1181 C 117.994 3.59672 -0.128158 0
M  V30 1182 C 117.602 4.21962 -1.50507 0
M  V30 1183 C 119.346 4.23262 0.323932 0
M  V30 1184 C 117.253 5.72333 -1.48959 0
M  V30 1185 H 116.183 0.75325 -0.0336299 0
M  V30 1186 H 118.834 1.66901 -0.76265 0
M  V30 1187 H 117.216 3.91411 0.601105 0
M  V30 1188 H 118.39 4.01796 -2.25602 0
M  V30 1189 H 116.705 3.70565 -1.89923 0
M  V30 1190 H 119.302 5.33522 0.354691 0
M  V30 1191 H 119.645 3.93921 1.34656 0
M  V30 1192 H 120.178 3.96239 -0.352056 0
M  V30 1193 H 116.917 6.06373 -2.48981 0
M  V30 1194 H 116.437 5.94691 -0.781214 0
M  V30 1195 H 118.116 6.35525 -1.21313 0
M  V30 1196 N 118.248 0.346503 1.53744 0
M  V30 1197 C 119.211 -0.496439 2.23759 0
M  V30 1198 C 120.211 -1.0252 1.2388 0
M  V30 1199 O 121.401 -0.913974 1.48297 0
M  V30 1200 C 118.533 -1.69187 2.95954 0
M  V30 1201 H 119.726 0.115952 2.99676 0
M  V30 1202 H 117.279 0.0978939 1.55993 0
M  V30 1203 H 118.014 -2.34288 2.24231 0
M  V30 1204 H 117.799 -1.31989 3.69217 0
M  V30 1205 H 119.289 -2.28969 3.49232 0
M  V30 1206 N 119.726 -1.57421 0.075193 0
M  V30 1207 C 120.689 -2.11791 -0.876203 0
M  V30 1208 C 121.689 -1.04268 -1.22412 0
M  V30 1209 O 122.879 -1.30242 -1.15684 0
M  V30 1210 C 120.011 -2.62207 -2.17854 0
M  V30 1211 H 121.204 -2.9716 -0.40444 0
M  V30 1212 H 118.757 -1.55333 -0.173557 0
M  V30 1213 H 119.492 -1.803 -2.6956 0
M  V30 1214 H 119.277 -3.40802 -1.93897 0
M  V30 1215 H 120.767 -3.04335 -2.85955 0
M  V30 1216 N 121.204 0.198386 -1.56346 0
M  V30 1217 C 122.45 0.920648 -1.80698 0
M  V30 1218 C 122.783 1.83045 -0.648697 0
M  V30 1219 O 122.058 1.91308 0.350925 0
M  V30 1220 C 122.341 1.73971 -3.15287 0
M  V30 1221 C 122.194 0.85485 -4.41602 0
M  V30 1222 C 123.513 2.71296 -3.46535 0
M  V30 1223 H 120.632 0.333261 -0.657348 0
M  V30 1224 H 123.274 0.188198 -1.89066 0
M  V30 1225 H 121.424 2.36416 -3.08285 0
M  V30 1226 H 123.096 0.245362 -4.60647 0
M  V30 1227 H 121.339 0.161398 -4.335 0
M  V30 1228 H 122.01 1.46286 -5.32264 0
M  V30 1229 H 124.486 2.18983 -3.53816 0
M  V30 1230 H 123.362 3.2569 -4.41834 0
M  V30 1231 H 123.623 3.5018 -2.69864 0
M  V30 1232 N 122.682 1.50554 0.465978 0
M  V30 1233 C 123.612 1.72722 1.57128 0
M  V30 1234 C 124.593 0.576294 1.6004 0
M  V30 1235 O 125.778 0.81598 1.76225 0
M  V30 1236 C 122.908 1.82605 2.95419 0
M  V30 1237 C 121.862 2.97835 3.07373 0
M  V30 1238 C 121.188 2.92867 4.47363 0
M  V30 1239 C 122.488 4.38265 2.84114 0
M  V30 1240 H 124.182 2.65267 1.38829 0
M  V30 1241 H 121.728 1.2765 0.666441 0
M  V30 1242 H 123.681 1.96698 3.72677 0
M  V30 1243 H 122.405 0.866858 3.14886 0
M  V30 1244 H 121.064 2.83401 2.3255 0
M  V30 1245 H 120.712 1.94783 4.63755 0
M  V30 1246 H 120.412 3.70227 4.56296 0
M  V30 1247 H 121.936 3.09015 5.26633 0
M  V30 1248 H 123.35 4.53198 3.51118 0
M  V30 1249 H 121.747 5.17115 3.04487 0
M  V30 1250 H 122.817 4.50281 1.7993 0
M  V30 1251 N 124.16 -0.719506 1.40217 0
M  V30 1252 C 125.108 -1.85493 1.40339 0
M  V30 1253 C 126.102 -1.66995 0.284415 0
M  V30 1254 O 127.308 -1.74148 0.455252 0
M  V30 1255 H 123.683 -0.610857 0.438586 0
M  V30 1256 H 125.654 -1.82506 2.36081 0
M  V30 1257 C 124.403 -3.23321 1.27901 0
M  V30 1258 H 123.726 -3.38159 2.1328 0
M  V30 1259 H 125.166 -4.02914 1.32045 0
M  V30 1260 C 123.625 -3.36898 -0.0111355 0
M  V30 1261 O 124.155 -3.89674 -0.975538 0
M  V30 1262 N 122.361 -2.90492 -0.0793393 0
M  V30 1263 H 121.908 -2.47731 0.706183 0
M  V30 1264 H 121.866 -2.99955 -0.942038 0
M  V30 1265 N 125.638 -1.25649 -0.95132 0
M  V30 1266 C 126.588 -1.03004 -2.03406 0
M  V30 1267 C 127.572 0.034187 -1.60864 0
M  V30 1268 O 128.764 -0.181549 -1.76066 0
M  V30 1269 C 125.893 -0.654255 -3.37008 0
M  V30 1270 C 124.979 -1.75542 -3.86065 0
M  V30 1271 N 125.37 -2.99113 -4.07879 0
M  V30 1272 C 123.668 -1.63669 -4.14884 0
M  V30 1273 C 124.369 -3.70611 -4.48356 0
M  V30 1274 N 123.345 -2.98247 -4.54477 0
M  V30 1275 H 127.147 -1.96813 -2.1827 0
M  V30 1276 H 124.661 -1.16017 -1.13639 0
M  V30 1277 H 126.658 -0.473206 -4.14206 0
M  V30 1278 H 125.318 0.276468 -3.23521 0
M  V30 1279 H 126.329 -3.35124 -3.94857 0
M  V30 1280 H 123.006 -0.775161 -4.10241 0
M  V30 1281 H 124.396 -4.76695 -4.73509 0
M  V30 1282 N 127.117 1.15442 -1.07289 0
M  V30 1283 C 128.366 1.85557 -0.790669 0
M  V30 1284 C 128.679 1.83186 0.685739 0
M  V30 1285 O 129.885 2.48977 1.0827 0
M  V30 1286 C 128.341 3.33038 -1.36433 0
M  V30 1287 C 127.949 3.43856 -2.8717 0
M  V30 1288 C 129.693 4.0834 -1.1601 0
M  V30 1289 C 127.6 4.85482 -3.3773 0
M  V30 1290 H 126.53 0.695122 -0.292098 0
M  V30 1291 H 129.181 1.30219 -1.29287 0
M  V30 1292 H 127.563 3.88043 -0.789864 0
M  V30 1293 H 128.737 2.98961 -3.50655 0
M  V30 1294 H 127.052 2.81998 -3.06376 0
M  V30 1295 H 129.649 5.12859 -1.51262 0
M  V30 1296 H 129.992 4.16182 -0.0991007 0
M  V30 1297 H 130.525 3.59603 -1.70089 0
M  V30 1298 H 127.264 4.82823 -4.43353 0
M  V30 1299 H 126.784 5.30961 -2.78999 0
M  V30 1300 H 128.463 5.54335 -3.33648 0
M  V30 1301 N 128.595 0.856903 1.32268 0
M  V30 1302 C 129.558 0.308171 2.27119 0
M  V30 1303 C 130.558 -0.533421 1.51695 0
M  V30 1304 O 131.748 -0.344607 1.70757 0
M  V30 1305 C 128.88 -0.563757 3.36206 0
M  V30 1306 H 130.073 1.14535 2.77167 0
M  V30 1307 H 127.626 0.631421 1.42978 0
M  V30 1308 H 128.361 -1.42266 2.91429 0
M  V30 1309 H 128.146 0.0386749 3.92081 0
M  V30 1310 H 129.636 -0.940386 4.06874 0
M  V30 1311 N 130.073 -1.45103 0.615059 0
M  V30 1312 C 131.301 -2.06553 0.11977 0
M  V30 1313 C 131.716 -1.45842 -1.19898 0
M  V30 1314 O 131.073 -0.575325 -1.73194 0
M  V30 1315 C 131.124 -3.61495 -0.018364 0
M  V30 1316 O 130.845 -4.19942 1.24822 0
M  V30 1317 C 132.346 -4.39947 -0.544237 0
M  V30 1318 H 129.566 -0.667096 0.0722739 0
M  V30 1319 H 132.11 -1.8623 0.84491 0
M  V30 1320 H 130.265 -3.81135 -0.693865 0
M  V30 1321 H 130.679 -5.13204 1.0827 0
M  V30 1322 H 132.153 -5.48838 -0.589953 0
M  V30 1323 H 132.63 -4.10255 -1.56805 0
M  V30 1324 H 133.236 -4.25188 0.0974703 0
M  V30 1325 N 131.551 -0.354651 -1.53558 0
M  V30 1326 C 132.514 0.484566 -2.24019 0
M  V30 1327 C 133.514 1.01861 -1.24422 0
M  V30 1328 O 134.704 0.906097 -1.4878 0
M  V30 1329 C 131.836 1.67615 -2.96847 0
M  V30 1330 H 133.029 -0.131843 -2.9961 0
M  V30 1331 H 130.582 -0.106165 -1.55939 0
M  V30 1332 H 131.317 2.33095 -2.25471 0
M  V30 1333 H 131.102 1.30029 -3.69912 0
M  V30 1334 H 132.592 2.27114 -3.50441 0
M  V30 1335 N 133.029 1.57378 -0.0835403 0
M  V30 1336 C 134.275 1.95025 0.577664 0
M  V30 1337 C 134.63 0.964049 1.66505 0
M  V30 1338 O 133.923 -0.0118235 1.91596 0
M  V30 1339 C 134.117 3.37063 1.1884 0
M  V30 1340 C 133.946 4.49409 0.16171 0
M  V30 1341 C 132.716 5.04642 -0.257756 0
M  V30 1342 C 134.914 5.10722 -0.605634 0
M  V30 1343 N 132.896 6.00537 -1.27393 0
M  V30 1344 C 134.267 6.02225 -1.47395 0
M  V30 1345 C 136.322 4.93501 -0.660418 0
M  V30 1346 C 135.025 6.78355 -2.39221 0
M  V30 1347 C 137.051 5.70283 -1.56623 0
M  V30 1348 C 136.413 6.61444 -2.4222 0
M  V30 1349 H 132.512 0.760512 0.182058 0
M  V30 1350 H 135.096 1.94013 -0.163419 0
M  V30 1351 H 133.267 3.3879 1.89936 0
M  V30 1352 H 134.999 3.61917 1.81103 0
M  V30 1353 H 131.754 4.73428 0.127702 0
M  V30 1354 H 132.178 6.53184 -1.77987 0
M  V30 1355 H 136.82 4.22798 -0.0128221 0
M  V30 1356 H 134.538 7.48327 -3.05011 0
M  V30 1357 H 138.124 5.58976 -1.61361 0
M  V30 1358 H 137.004 7.1982 -3.11174 0
M  V30 1359 N 134.507 -0.190092 1.56449 0
M  V30 1360 C 135.755 -0.907908 1.80559 0
M  V30 1361 C 136.076 -1.83583 0.657438 0
M  V30 1362 O 135.346 -1.93203 -0.323924 0
M  V30 1363 H 133.926 -0.338247 0.666032 0
M  V30 1364 H 136.588 -0.194403 1.93928 0
M  V30 1365 H 135.684 -1.49604 2.73907 0
M  V30 1366 N 135.985 -1.50799 -0.457987 0
M  V30 1367 C 137.262 -1.52968 -1.21902 0
M  V30 1368 C 137.642 -0.281906 -2.09209 0
M  V30 1369 O 136.99 0.734076 -2.16388 0
M  V30 1370 C 137.2 -2.8326 -2.03875 0
M  V30 1371 C 138.548 -3.34425 -2.6162 0
M  V30 1372 O 139.572 -2.8467 -2.14106 0
M  V30 1373 O 138.431 -4.21188 -3.48228 0
M  V30 1374 H 135.525 -0.614129 -0.553873 0
M  V30 1375 H 138.071 -1.63098 -0.468739 0
M  V30 1376 H 136.843 -3.65543 -1.39621 0
M  V30 1377 H 136.466 -2.76195 -2.8601 0
M  V30 1378 N 137.463 0.71206 -1.40597 0
M  V30 1379 C 138.426 1.80785 -1.40888 0
M  V30 1380 C 139.426 1.57937 -0.302103 0
M  V30 1381 O 140.616 1.64913 -0.561182 0
M  V30 1382 C 137.748 3.18927 -1.20409 0
M  V30 1383 H 138.941 1.81924 -2.38419 0
M  V30 1384 H 136.494 0.91805 -1.26497 0
M  V30 1385 H 137.229 3.23436 -0.236522 0
M  V30 1386 H 137.014 3.36911 -2.00582 0
M  V30 1387 H 138.504 3.98949 -1.23408 0
M  V30 1388 N 138.941 1.26152 0.944643 0
M  V30 1389 C 139.888 1.07408 2.04285 0
M  V30 1390 C 140.858 -0.0198413 1.66088 0
M  V30 1391 O 142.043 0.139264 1.90291 0
M  V30 1392 C 139.183 0.70945 3.37729 0
M  V30 1393 C 138.296 1.87926 3.88983 0
M  V30 1394 C 137.431 1.45807 5.10797 0
M  V30 1395 C 136.47 2.5964 5.54305 0
M  V30 1396 N 135.607 2.18226 6.67324 0
M  V30 1397 H 140.447 2.01389 2.1965 0
M  V30 1398 H 137.984 1.00275 1.07626 0
M  V30 1399 H 139.942 0.478948 4.14442 0
M  V30 1400 H 138.572 -0.193389 3.2222 0
M  V30 1401 H 137.624 2.22279 3.08701 0
M  V30 1402 H 138.936 2.73377 4.17213 0
M  V30 1403 H 138.09 1.18781 5.94959 0
M  V30 1404 H 136.829 0.574414 4.84305 0
M  V30 1405 H 135.834 2.87399 4.68702 0
M  V30 1406 H 137.059 3.48599 5.828 0
M  V30 1407 H 135.005 1.3229 6.42523 0
M  V30 1408 H 134.922 2.97221 6.95123 0
M  V30 1409 H 136.19 1.94403 7.54869 0
M  V30 1410 N 140.419 -1.14872 1.07899 0
M  V30 1411 C 141.366 -2.19791 0.704319 0
M  V30 1412 C 142.336 -1.63238 -0.306987 0
M  V30 1413 O 143.521 -1.8983 -0.192171 0
M  V30 1414 C 140.661 -3.44911 0.114244 0
M  V30 1415 C 139.774 -4.15637 1.1777 0
M  V30 1416 C 138.909 -5.28324 0.552037 0
M  V30 1417 C 137.948 -5.90875 1.59789 0
M  V30 1418 N 137.085 -6.95022 0.994404 0
M  V30 1419 H 141.925 -2.5119 1.60336 0
M  V30 1420 H 139.462 -1.23356 0.801352 0
M  V30 1421 H 141.42 -4.16477 -0.245544 0
M  V30 1422 H 140.05 -3.14011 -0.74813 0
M  V30 1423 H 139.102 -3.42512 1.65499 0
M  V30 1424 H 140.414 -4.5823 1.97046 0
M  V30 1425 H 139.568 -6.06538 0.1402 0
M  V30 1426 H 138.307 -4.86939 -0.272431 0
M  V30 1427 H 137.312 -5.11369 2.01945 0
M  V30 1428 H 138.537 -6.34337 2.42474 0
M  V30 1429 H 136.483 -6.55722 0.190939 0
M  V30 1430 H 136.4 -7.36073 1.72432 0
M  V30 1431 H 137.668 -7.77123 0.608253 0
M  V30 1432 N 141.898 -0.863906 -1.31812 0
M  V30 1433 C 143.144 -0.472535 -1.97218 0
M  V30 1434 C 143.477 0.971394 -1.68159 0
M  V30 1435 O 142.752 1.68309 -0.974798 0
M  V30 1436 C 143.035 -0.723054 -3.52766 0
M  V30 1437 C 142.888 -2.21608 -3.91421 0
M  V30 1438 C 144.207 -0.185522 -4.39709 0
M  V30 1439 H 141.326 -0.173158 -0.71637 0
M  V30 1440 H 143.968 -1.08403 -1.56041 0
M  V30 1441 H 142.118 -0.202577 -3.87971 0
M  V30 1442 H 143.79 -2.80334 -3.66347 0
M  V30 1443 H 142.033 -2.691 -3.40246 0
M  V30 1444 H 142.704 -2.34203 -4.99853 0
M  V30 1445 H 145.18 -0.630726 -4.11292 0
M  V30 1446 H 144.056 -0.390306 -5.47511 0
M  V30 1447 H 144.317 0.912229 -4.32586 0
M  V30 1448 N 143.376 1.44774 -0.622745 0
M  V30 1449 C 144.323 2.30635 0.0871679 0
M  V30 1450 C 145.293 1.42994 0.845097 0
M  V30 1451 O 146.478 1.71907 0.827812 0
M  V30 1452 C 143.618 3.28144 1.06844 0
M  V30 1453 C 142.731 4.30888 0.309809 0
M  V30 1454 C 141.866 5.15494 1.28215 0
M  V30 1455 C 140.905 6.09953 0.512198 0
M  V30 1456 N 140.042 6.87287 1.43458 0
M  V30 1457 H 144.882 2.90803 -0.650974 0
M  V30 1458 H 142.419 1.43286 -0.33281 0
M  V30 1459 H 144.377 3.83157 1.65066 0
M  V30 1460 H 143.007 2.69695 1.77382 0
M  V30 1461 H 142.059 3.78414 -0.388181 0
M  V30 1462 H 143.371 4.97955 -0.290254 0
M  V30 1463 H 142.525 5.74983 1.93596 0
M  V30 1464 H 141.264 4.48481 1.91614 0
M  V30 1465 H 140.269 5.49581 -0.155151 0
M  V30 1466 H 141.494 6.78999 -0.116958 0
M  V30 1467 H 139.44 6.2295 2.05594 0
M  V30 1468 H 139.357 7.50763 0.888335 0
M  V30 1469 H 140.625 7.51306 2.07749 0
M  V30 1470 N 144.854 0.36279 1.53368 0
M  V30 1471 C 146.102 -0.227326 2.00817 0
M  V30 1472 C 146.423 -1.49511 1.25186 0
M  V30 1473 O 145.693 -1.92482 0.364348 0
M  V30 1474 H 144.273 -0.0869923 0.741917 0
M  V30 1475 H 146.935 0.488381 1.88682 0
M  V30 1476 H 146.031 -0.456273 3.08747 0
M  V30 1477 N 146.332 -1.57332 0.0918853 0
M  V30 1478 C 147.579 -1.94236 -0.572577 0
M  V30 1479 C 147.907 -0.973398 -1.6839 0
M  V30 1480 O 147.162 0.00756912 -1.95699 0
M  V30 1481 C 147.461 -3.37689 -1.17051 0
M  V30 1482 C 147.127 -4.50527 -0.183304 0
M  V30 1483 C 145.789 -4.81119 0.0882276 0
M  V30 1484 C 148.141 -5.18883 0.49095 0
M  V30 1485 C 145.469 -5.77395 1.04076 0
M  V30 1486 C 147.821 -6.1618 1.43193 0
M  V30 1487 C 146.485 -6.45179 1.71173 0
M  V30 1488 H 145.755 -0.710762 -0.209521 0
M  V30 1489 H 148.402 -1.9077 0.167036 0
M  V30 1490 H 146.707 -3.37718 -1.9863 0
M  V30 1491 H 148.404 -3.63543 -1.69227 0
M  V30 1492 H 144.994 -4.26681 -0.405124 0
M  V30 1493 H 149.178 -4.95427 0.294312 0
M  V30 1494 H 144.434 -5.98179 1.26457 0
M  V30 1495 H 148.608 -6.68243 1.96023 0
M  V30 1496 H 146.235 -7.1959 2.4514 0
M  V30 1497 N 147.81 0.181792 -1.56548 0
M  V30 1498 C 148.757 1.22521 -1.95595 0
M  V30 1499 C 149.727 1.4454 -0.818373 0
M  V30 1500 O 150.912 1.57454 -1.07763 0
M  V30 1501 C 148.052 2.56193 -2.31212 0
M  V30 1502 C 147.165 2.41641 -3.58097 0
M  V30 1503 C 146.3 3.68108 -3.82975 0
M  V30 1504 C 145.339 3.48445 -5.03242 0
M  V30 1505 N 144.476 4.66956 -5.24306 0
M  V30 1506 H 149.316 0.885226 -2.84548 0
M  V30 1507 H 146.853 0.425718 -1.40805 0
M  V30 1508 H 148.811 3.34088 -2.49882 0
M  V30 1509 H 147.441 2.88208 -1.45382 0
M  V30 1510 H 146.493 1.54976 -3.474 0
M  V30 1511 H 147.805 2.23052 -4.46149 0
M  V30 1512 H 146.959 4.54441 -4.01956 0
M  V30 1513 H 145.698 3.89666 -2.93278 0
M  V30 1514 H 144.703 2.60499 -4.8417 0
M  V30 1515 H 145.928 3.2832 -5.9446 0
M  V30 1516 H 143.874 4.88752 -4.37559 0
M  V30 1517 H 143.791 4.51242 -6.06561 0
M  V30 1518 H 145.059 5.54602 -5.47756 0
M  V30 1519 N 149.288 1.51039 0.449983 0
M  V30 1520 C 150.699 1.557 1.03026 0
M  V30 1521 C 151.05 0.372939 1.92623 0
M  V30 1522 O 150.175 -0.511771 2.10261 0
M  V30 1523 C 150.77 2.82171 1.87523 0
M  V30 1524 C 149.329 2.89444 2.40622 0
M  V30 1525 C 148.476 2.50228 1.19504 0
M  V30 1526 H 151.427 1.56999 0.231745 0
M  V30 1527 H 151.448 2.65219 2.72835 0
M  V30 1528 H 150.96 3.68331 1.22286 0
M  V30 1529 H 149.061 2.07685 3.0935 0
M  V30 1530 H 149.174 3.92816 2.74285 0
M  V30 1531 H 147.538 2.03139 1.53644 0
M  V30 1532 H 148.321 3.38719 0.558972 0
M  V30 1533 N 150.766 -0.704594 1.40972 0
M  V30 1534 C 152.013 -1.46458 1.39844 0
M  V30 1535 C 152.341 -1.94499 0.00447594 0
M  V30 1536 O 151.596 -1.69275 -0.982057 0
M  V30 1537 C 151.895 -2.698 2.34399 0
M  V30 1538 C 151.561 -2.40464 3.81429 0
M  V30 1539 C 150.223 -2.32174 4.21484 0
M  V30 1540 C 152.575 -2.16086 4.74296 0
M  V30 1541 C 149.903 -1.97589 5.52427 0
M  V30 1542 C 152.255 -1.83011 6.05549 0
M  V30 1543 C 150.919 -1.7321 6.44635 0
M  V30 1544 H 150.189 -0.535927 0.511725 0
M  V30 1545 H 152.836 -0.806124 1.73706 0
M  V30 1546 H 151.141 -3.40536 1.93759 0
M  V30 1547 H 152.838 -3.27919 2.30804 0
M  V30 1548 H 149.428 -2.47808 3.49699 0
M  V30 1549 H 153.612 -2.2144 4.4416 0
M  V30 1550 H 148.868 -1.88547 5.81601 0
M  V30 1551 H 153.042 -1.63164 6.77016 0
M  V30 1552 H 150.669 -1.46179 7.46013 0
M  V30 1553 N 152.244 -1.26651 -0.937939 0
M  V30 1554 C 153.472 -1.15173 -1.7188 0
M  V30 1555 C 153.887 0.292668 -1.86518 0
M  V30 1556 O 153.244 1.20014 -1.37488 0
M  V30 1557 C 153.295 -1.81925 -3.12387 0
M  V30 1558 O 153.016 -3.2072 -2.98446 0
M  V30 1559 C 154.517 -1.76442 -4.06673 0
M  V30 1560 H 151.737 -0.400911 -0.538063 0
M  V30 1561 H 154.281 -1.67332 -1.1756 0
M  V30 1562 H 152.436 -1.33696 -3.63599 0
M  V30 1563 H 152.85 -3.53802 -3.872 0
M  V30 1564 H 154.324 -2.27781 -5.02812 0
M  V30 1565 H 154.801 -0.731608 -4.33064 0
M  V30 1566 H 155.407 -2.24238 -3.61382 0
M  V30 1567 N 153.722 1.14298 -1.08507 0
M  V30 1568 C 154.685 2.17607 -0.719711 0
M  V30 1569 C 155.685 1.58907 0.245997 0
M  V30 1570 O 156.875 1.74181 0.0254081 0
M  V30 1571 C 154.007 3.40842 -0.0627695 0
M  V30 1572 H 155.2 2.51443 -1.63452 0
M  V30 1573 H 152.753 1.28963 -0.88307 0
M  V30 1574 H 153.488 3.12587 0.863716 0
M  V30 1575 H 153.273 3.84713 -0.757504 0
M  V30 1576 H 154.763 4.17221 0.177786 0
M  V30 1577 N 155.201 0.870884 1.31352 0
M  V30 1578 C 156.111 0.330783 2.32256 0
M  V30 1579 C 157.127 -0.559767 1.6475 0
M  V30 1580 O 158.303 -0.456263 1.96164 0
M  V30 1581 C 155.368 -0.458137 3.4366 0
M  V30 1582 C 154.429 0.460482 4.26823 0
M  V30 1583 C 153.662 -0.290881 5.32907 0
M  V30 1584 O 153.885 -1.51885 5.49806 0
M  V30 1585 O 152.819 0.351732 6.00871 0
M  V30 1586 H 156.645 1.16718 2.80376 0
M  V30 1587 H 154.23 0.634285 1.35267 0
M  V30 1588 H 156.112 -0.905343 4.1156 0
M  V30 1589 H 154.787 -1.27106 2.97701 0
M  V30 1590 H 153.694 0.956207 3.61673 0
M  V30 1591 H 155.027 1.23903 4.7635 0
M  V30 1592 N 156.679 -1.44442 0.630414 0
M  V30 1593 C 157.589 -2.34476 -0.0761693 0
M  V30 1594 C 158.605 -1.52576 -0.836449 0
M  V30 1595 O 159.781 -1.85307 -0.788874 0
M  V30 1596 C 156.846 -3.30545 -1.04599 0
M  V30 1597 C 155.907 -4.28352 -0.28516 0
M  V30 1598 C 155.14 -5.19831 -1.20878 0
M  V30 1599 O 155.363 -5.15223 -2.44747 0
M  V30 1600 O 154.297 -5.97892 -0.693491 0
M  V30 1601 H 158.123 -2.96345 0.664324 0
M  V30 1602 H 155.708 -1.44203 0.39061 0
M  V30 1603 H 157.59 -3.89681 -1.60396 0
M  V30 1604 H 156.265 -2.7121 -1.76711 0
M  V30 1605 H 155.172 -3.72764 0.315837 0
M  V30 1606 H 156.505 -4.90605 0.395924 0
M  V30 1607 N 158.157 -0.370918 -1.53173 0
M  V30 1608 C 159.403 0.217423 -2.01631 0
M  V30 1609 C 159.736 1.47983 -1.25756 0
M  V30 1610 O 159.011 1.91274 -0.352764 0
M  V30 1611 C 159.294 0.503982 -3.56556 0
M  V30 1612 C 159.147 -0.77243 -4.43118 0
M  V30 1613 C 160.466 1.30234 -4.20389 0
M  V30 1614 H 157.585 0.0775486 -0.732909 0
M  V30 1615 H 160.227 -0.496863 -1.83388 0
M  V30 1616 H 158.377 1.11248 -3.72231 0
M  V30 1617 H 160.049 -1.4098 -4.39229 0
M  V30 1618 H 158.292 -1.39167 -4.10871 0
M  V30 1619 H 158.963 -0.526815 -5.4948 0
M  V30 1620 H 161.439 0.787546 -4.08579 0
M  V30 1621 H 160.315 1.47158 -5.28806 0
M  V30 1622 H 160.576 2.31237 -3.76805 0
M  V30 1623 N 159.635 1.57281 -0.100228 0
M  V30 1624 C 160.582 2.14305 0.856858 0
M  V30 1625 C 161.552 1.06296 1.27634 0
M  V30 1626 O 162.737 1.34109 1.35718 0
M  V30 1627 C 159.877 2.73184 2.10866 0
M  V30 1628 C 158.99 3.95442 1.73925 0
M  V30 1629 C 158.125 4.42468 2.93931 0
M  V30 1630 C 157.164 5.57303 2.5314 0
M  V30 1631 N 156.301 5.99158 3.65997 0
M  V30 1632 H 161.141 2.95772 0.363726 0
M  V30 1633 H 158.678 1.46139 0.167858 0
M  V30 1634 H 160.636 3.05442 2.84185 0
M  V30 1635 H 159.266 1.94437 2.57671 0
M  V30 1636 H 158.318 3.69464 0.905554 0
M  V30 1637 H 159.63 4.78769 1.39935 0
M  V30 1638 H 158.784 4.76537 3.75496 0
M  V30 1639 H 157.523 3.58052 3.31134 0
M  V30 1640 H 156.528 5.22857 1.70003 0
M  V30 1641 H 157.753 6.43471 2.17075 0
M  V30 1642 H 155.699 5.17687 4.02909 0
M  V30 1643 H 155.616 6.77295 3.35869 0
M  V30 1644 H 156.884 6.3786 4.48057 0
M  V30 1645 N 161.113 -0.173488 1.56642 0
M  V30 1646 C 162.06 -1.21482 1.96242 0
M  V30 1647 C 163.03 -1.44104 0.826027 0
M  V30 1648 O 164.215 -1.5688 1.08597 0
M  V30 1649 C 161.355 -2.54964 2.32567 0
M  V30 1650 C 160.468 -2.39739 3.59373 0
M  V30 1651 C 159.603 -3.66072 3.84921 0
M  V30 1652 C 158.642 -3.45771 5.05083 0
M  V30 1653 N 157.779 -4.64169 5.26775 0
M  V30 1654 H 162.619 -0.870123 2.85014 0
M  V30 1655 H 160.156 -0.418245 1.41029 0
M  V30 1656 H 162.114 -3.32758 2.5165 0
M  V30 1657 H 160.744 -2.87433 1.46908 0
M  V30 1658 H 159.796 -1.53131 3.48217 0
M  V30 1659 H 161.108 -2.20683 4.47326 0
M  V30 1660 H 160.262 -4.52303 4.0436 0
M  V30 1661 H 159.001 -3.88105 2.9534 0
M  V30 1662 H 158.006 -2.57927 4.85545 0
M  V30 1663 H 159.231 -3.25163 5.96193 0
M  V30 1664 H 157.177 -4.86425 4.40144 0
M  V30 1665 H 157.094 -4.48019 6.08946 0
M  V30 1666 H 158.362 -5.51689 5.5069 0
M  V30 1667 N 162.591 -1.51276 -0.441967 0
M  V30 1668 C 163.521 -1.752 -1.54361 0
M  V30 1669 C 164.502 -0.601682 -1.59103 0
M  V30 1670 O 165.687 -0.843913 -1.74905 0
M  V30 1671 C 162.817 -1.87282 -2.92477 0
M  V30 1672 C 161.771 -3.02687 -3.02596 0
M  V30 1673 C 161.097 -2.99947 -4.42647 0
M  V30 1674 C 162.397 -4.4273 -2.77106 0
M  V30 1675 H 164.091 -2.67442 -1.34592 0
M  V30 1676 H 161.637 -1.28694 -0.646048 0
M  V30 1677 H 163.59 -2.02602 -3.695 0
M  V30 1678 H 162.314 -0.916844 -3.13467 0
M  V30 1679 H 160.973 -2.87065 -2.28012 0
M  V30 1680 H 160.621 -2.02136 -4.60597 0
M  V30 1681 H 160.321 -3.77439 -4.50348 0
M  V30 1682 H 161.845 -3.17354 -5.2165 0
M  V30 1683 H 163.259 -4.58727 -3.43864 0
M  V30 1684 H 161.656 -5.21893 -2.96222 0
M  V30 1685 H 162.726 -4.53087 -1.72744 0
M  V30 1686 N 164.069 0.697108 -1.41344 0
M  V30 1687 C 165.485 1.00751 -1.2378 0
M  V30 1688 C 165.685 2.01105 -0.126066 0
M  V30 1689 O 164.741 2.47295 0.51004 0
M  V30 1690 C 166.054 1.53359 -2.58653 0
M  V30 1691 C 167.602 1.6525 -2.65822 0
M  V30 1692 C 168.077 2.2126 -4.01009 0
M  V30 1693 N 169.568 2.28622 -4.02847 0
M  V30 1694 C 170.303 2.72984 -5.04249 0
M  V30 1695 N 169.799 3.16962 -6.16041 0
M  V30 1696 N 171.592 2.72534 -4.91611 0
M  V30 1697 H 163.743 0.0322662 -2.12375 0
M  V30 1698 H 166.006 0.0768853 -0.944877 0
M  V30 1699 H 165.712 0.870773 -3.4075 0
M  V30 1700 H 165.586 2.51597 -2.81032 0
M  V30 1701 H 167.973 2.30644 -1.84086 0
M  V30 1702 H 168.054 0.655614 -2.47256 0
M  V30 1703 H 167.698 1.56482 -4.83193 0
M  V30 1704 H 167.628 3.21698 -4.16915 0
M  V30 1705 H 170.119 1.97585 -3.22131 0
M  V30 1706 H 170.432 3.49434 -6.89287 0
M  V30 1707 H 168.777 3.14875 -6.1958 0
M  V30 1708 H 171.968 2.37525 -4.0336 0
M  V30 1709 H 172.141 3.06789 -5.70775 0
M  V30 1710 N 165.547 1.27147 0.931209 0
M  V30 1711 C 166.51 1.09615 2.01289 0
M  V30 1712 C 167.51 0.0412581 1.60747 0
M  V30 1713 O 168.7 0.285545 1.71844 0
M  V30 1714 C 165.832 0.669447 3.34262 0
M  V30 1715 H 167.025 2.05662 2.18273 0
M  V30 1716 H 164.578 1.09885 1.11153 0
M  V30 1717 H 165.313 -0.292572 3.22978 0
M  V30 1718 H 165.098 1.43127 3.65044 0
M  V30 1719 H 166.588 0.568921 4.13706 0
M  V30 1720 N 167.025 -1.13721 1.09112 0
M  V30 1721 C 167.972 -2.19031 0.727591 0
M  V30 1722 C 168.942 -1.63555 -0.289656 0
M  V30 1723 O 170.127 -1.90023 -0.172026 0
M  V30 1724 C 167.267 -3.4477 0.15082 0
M  V30 1725 C 166.38 -4.14365 1.22172 0
M  V30 1726 C 165.515 -5.27709 0.608042 0
M  V30 1727 C 164.554 -5.89147 1.66047 0
M  V30 1728 N 163.691 -6.93929 1.06806 0
M  V30 1729 H 168.531 -2.49475 1.62991 0
M  V30 1730 H 166.068 -1.22499 0.81439 0
M  V30 1731 H 168.026 -4.16714 -0.201358 0
M  V30 1732 H 166.656 -3.14787 -0.714783 0
M  V30 1733 H 165.708 -3.40737 1.69122 0
M  V30 1734 H 167.02 -4.56114 2.01895 0
M  V30 1735 H 166.174 -6.06355 0.204523 0
M  V30 1736 H 164.913 -4.872 -0.220769 0
M  V30 1737 H 163.918 -5.09198 2.07357 0
M  V30 1738 H 165.143 -6.31729 2.49189 0
M  V30 1739 H 163.089 -6.55483 0.260476 0
M  V30 1740 H 163.006 -7.34202 1.8023 0
M  V30 1741 H 164.274 -7.76434 0.690644 0
M  V30 1742 N 168.503 -0.877838 -1.30888 0
M  V30 1743 C 169.45 -0.337538 -2.28318 0
M  V30 1744 C 170.42 0.568346 -1.56074 0
M  V30 1745 O 171.605 0.498298 -1.84178 0
M  V30 1746 C 168.745 0.448142 -3.42178 0
M  V30 1747 C 167.858 -0.48615 -4.29256 0
M  V30 1748 C 166.993 0.314427 -5.30269 0
M  V30 1749 C 166.032 -0.615791 -6.08995 0
M  V30 1750 N 165.169 0.14902 -7.01942 0
M  V30 1751 H 170.009 -1.17356 -2.73919 0
M  V30 1752 H 167.546 -0.590094 -1.34745 0
M  V30 1753 H 169.504 0.919517 -4.06941 0
M  V30 1754 H 168.134 1.24879 -2.97666 0
M  V30 1755 H 167.186 -1.076 -3.64865 0
M  V30 1756 H 168.498 -1.19909 -4.84173 0
M  V30 1757 H 167.652 0.847969 -6.00745 0
M  V30 1758 H 166.391 1.06062 -4.76027 0
M  V30 1759 H 165.396 -1.16102 -5.37401 0
M  V30 1760 H 166.621 -1.36097 -6.65323 0
M  V30 1761 H 164.567 0.877884 -6.50099 0
M  V30 1762 H 164.484 -0.504433 -7.54315 0
M  V30 1763 H 165.752 0.663537 -7.76671 0
M  V30 1764 N 169.982 1.44106 -0.638065 0
M  V30 1765 C 170.912 2.33448 0.0494287 0
M  V30 1766 C 171.893 1.48606 0.827672 0
M  V30 1767 O 173.078 1.77308 0.792173 0
M  V30 1768 C 170.208 3.31771 1.02691 0
M  V30 1769 C 169.162 4.26485 0.359823 0
M  V30 1770 C 168.488 5.14729 1.44769 0
M  V30 1771 C 169.788 5.17056 -0.738296 0
M  V30 1772 H 171.482 2.91183 -0.696636 0
M  V30 1773 H 169.028 1.40014 -0.336456 0
M  V30 1774 H 170.981 3.93161 1.51666 0
M  V30 1775 H 169.705 2.7226 1.80395 0
M  V30 1776 H 168.364 3.66437 -0.10934 0
M  V30 1777 H 168.012 4.51566 2.21578 0
M  V30 1778 H 167.712 5.78913 1.00668 0
M  V30 1779 H 169.236 5.78991 1.93911 0
M  V30 1780 H 170.65 5.72342 -0.331354 0
M  V30 1781 H 169.047 5.89879 -1.10286 0
M  V30 1782 H 170.117 4.57652 -1.60258 0
M  V30 1783 N 171.46 0.379036 1.52974 0
M  V30 1784 C 172.688 -0.20679 2.05864 0
M  V30 1785 C 173.103 -1.41356 1.25155 0
M  V30 1786 O 172.46 -1.8009 0.295588 0
M  V30 1787 C 172.511 -0.587045 3.56702 0
M  V30 1788 O 172.232 0.571776 4.34353 0
M  V30 1789 C 173.733 -1.22983 4.25899 0
M  V30 1790 H 170.953 -0.0336123 0.670158 0
M  V30 1791 H 173.497 0.541298 1.97206 0
M  V30 1792 H 171.652 -1.28504 3.65466 0
M  V30 1793 H 172.066 0.261544 5.23847 0
M  V30 1794 H 173.54 -1.44635 5.32715 0
M  V30 1795 H 174.017 -2.19416 3.80465 0
M  V30 1796 H 174.623 -0.572892 4.21424 0
M  V30 1797 N 172.938 -1.57226 0.108567 0
M  V30 1798 C 174.349 -1.8195 -0.418464 0
M  V30 1799 C 174.7 -1.02508 -1.67292 0
M  V30 1800 O 173.825 -0.258496 -2.14851 0
M  V30 1801 C 174.42 -3.30028 -0.765979 0
M  V30 1802 C 172.979 -3.55469 -1.23769 0
M  V30 1803 C 172.126 -2.7625 -0.241106 0
M  V30 1804 H 175.077 -1.55149 0.33384 0
M  V30 1805 H 175.098 -3.44086 -1.62434 0
M  V30 1806 H 174.61 -3.87821 0.147219 0
M  V30 1807 H 172.711 -3.03022 -2.16814 0
M  V30 1808 H 172.824 -4.6408 -1.19022 0
M  V30 1809 H 171.188 -2.44133 -0.72602 0
M  V30 1810 H 171.971 -3.36797 0.665007 0
M  V30 1811 N 174.416 0.165178 -1.56732 0
M  V30 1812 C 175.348 1.22911 -1.93457 0
M  V30 1813 C 176.361 1.40152 -0.828333 0
M  V30 1814 O 177.55 1.40046 -1.10677 0
M  V30 1815 C 174.65 2.59686 -2.17753 0
M  V30 1816 C 173.823 2.63663 -3.48999 0
M  V30 1817 C 172.882 3.81845 -3.62051 0
M  V30 1818 O 171.908 3.67559 -4.34613 0
M  V30 1819 N 173.11 4.98557 -2.97357 0
M  V30 1820 H 175.875 0.917118 -2.85323 0
M  V30 1821 H 173.436 0.354895 -1.57962 0
M  V30 1822 H 175.428 3.37225 -2.23743 0
M  V30 1823 H 173.998 2.83251 -1.32242 0
M  V30 1824 H 173.218 1.72173 -3.54612 0
M  V30 1825 H 174.506 2.63336 -4.35352 0
M  V30 1826 H 173.904 5.13065 -2.38287 0
M  V30 1827 H 172.461 5.73936 -3.08934 0
M  V30 1828 N 175.894 1.51508 0.433938 0
M  V30 1829 C 176.826 1.69266 1.54537 0
M  V30 1830 C 177.839 0.573276 1.52373 0
M  V30 1831 O 179.028 0.847698 1.57087 0
M  V30 1832 C 176.128 1.69524 2.93453 0
M  V30 1833 C 175.301 2.98101 3.20085 0
M  V30 1834 C 174.36 2.90502 4.38742 0
M  V30 1835 O 173.386 3.64442 4.3723 0
M  V30 1836 N 174.588 2.06586 5.42496 0
M  V30 1837 H 177.353 2.65145 1.39708 0
M  V30 1838 H 174.914 1.49437 0.622922 0
M  V30 1839 H 176.906 1.62004 3.70859 0
M  V30 1840 H 175.476 0.812245 3.01863 0
M  V30 1841 H 174.696 3.19464 2.30947 0
M  V30 1842 H 175.984 3.83207 3.34708 0
M  V30 1843 H 175.382 1.45896 5.46563 0
M  V30 1844 H 173.939 2.04943 6.18742 0
M  V30 1845 N 177.372 -0.689602 1.41712 0
M  V30 1846 C 178.618 -1.45181 1.41599 0
M  V30 1847 C 178.951 -1.94181 0.0270081 0
M  V30 1848 O 178.226 -1.6993 -0.946265 0
M  V30 1849 C 178.509 -2.65945 2.42787 0
M  V30 1850 C 178.362 -2.22672 3.90816 0
M  V30 1851 C 179.681 -3.68149 2.41151 0
M  V30 1852 H 176.8 -0.526576 0.515642 0
M  V30 1853 H 179.442 -0.784947 1.73028 0
M  V30 1854 H 177.592 -3.2284 2.16116 0
M  V30 1855 H 179.264 -1.71058 4.28412 0
M  V30 1856 H 177.507 -1.54394 4.05395 0
M  V30 1857 H 178.178 -3.0935 4.57172 0
M  V30 1858 H 180.654 -3.2094 2.64834 0
M  V30 1859 H 179.53 -4.50248 3.13955 0
M  V30 1860 H 179.791 -4.18259 1.43221 0
M  V30 1861 N 178.85 -1.27639 -0.924453 0
M  V30 1862 C 179.78 -1.13166 -2.04244 0
M  V30 1863 C 180.761 -0.032256 -1.70069 0
M  V30 1864 O 181.946 -0.207328 -1.9309 0
M  V30 1865 C 179.076 -0.781496 -3.38393 0
M  V30 1866 C 178.03 -1.83449 -3.86692 0
M  V30 1867 C 177.356 -1.33822 -5.17683 0
M  V30 1868 C 178.656 -3.23917 -4.09726 0
M  V30 1869 H 180.35 -2.06689 -2.1661 0
M  V30 1870 H 177.896 -0.995136 -1.04082 0
M  V30 1871 H 179.849 -0.667057 -4.16087 0
M  V30 1872 H 178.573 0.189439 -3.2605 0
M  V30 1873 H 177.232 -1.93789 -3.11193 0
M  V30 1874 H 176.88 -0.35665 -5.01734 0
M  V30 1875 H 176.58 -2.04224 -5.50968 0
M  V30 1876 H 178.104 -1.23679 -5.97943 0
M  V30 1877 H 179.518 -3.16559 -4.77978 0
M  V30 1878 H 177.915 -3.92059 -4.54324 0
M  V30 1879 H 178.985 -3.68729 -3.14908 0
M  V30 1880 N 180.328 1.1314 -1.09713 0
M  V30 1881 C 181.291 2.16831 -0.742751 0
M  V30 1882 C 182.291 1.59159 0.229129 0
M  V30 1883 O 183.481 1.74199 0.00693237 0
M  V30 1884 C 180.613 3.40756 -0.0989168 0
M  V30 1885 H 181.806 2.49695 -1.66109 0
M  V30 1886 H 179.359 1.2802 -0.896699 0
M  V30 1887 H 180.094 3.13485 0.830514 0
M  V30 1888 H 179.879 3.83888 -0.798265 0
M  V30 1889 H 181.369 4.17386 0.133524 0
M  V30 1890 N 181.806 0.884767 1.30421 0
M  V30 1891 C 182.716 0.355398 2.31892 0
M  V30 1892 C 183.732 -0.542261 1.65335 0
M  V30 1893 O 184.908 -0.435432 1.96637 0
M  V30 1894 C 181.973 -0.421661 3.44126 0
M  V30 1895 C 181.034 0.505727 4.26311 0
M  V30 1896 C 180.267 -0.234343 5.33185 0
M  V30 1897 O 180.49 -1.46045 5.51386 0
M  V30 1898 O 179.424 0.415443 6.00465 0
M  V30 1899 H 183.25 1.19685 2.79122 0
M  V30 1900 H 180.835 0.648596 1.34587 0
M  V30 1901 H 182.717 -0.861641 4.12497 0
M  V30 1902 H 181.392 -1.23942 2.99032 0
M  V30 1903 H 180.299 0.994513 3.60639 0
M  V30 1904 H 181.632 1.28948 4.75009 0
M  V30 1905 N 183.284 -1.43765 0.645699 0
M  V30 1906 C 184.7 -1.56509 0.312591 0
M  V30 1907 C 184.9 -1.6307 -1.18365 0
M  V30 1908 O 183.956 -1.58167 -1.96824 0
M  V30 1909 C 185.269 -2.82968 1.01733 0
M  V30 1910 C 186.817 -2.96701 0.996865 0
M  V30 1911 C 187.292 -4.25982 1.68236 0
M  V30 1912 N 188.783 -4.32829 1.64964 0
M  V30 1913 C 189.518 -5.31613 2.14885 0
M  V30 1914 N 189.014 -6.36718 2.73061 0
M  V30 1915 N 190.807 -5.23217 2.05428 0
M  V30 1916 H 182.958 -1.3775 1.61675 0
M  V30 1917 H 185.221 -0.661067 0.679481 0
M  V30 1918 H 184.927 -2.84156 2.0724 0
M  V30 1919 H 184.801 -3.72957 0.564177 0
M  V30 1920 H 187.188 -2.95058 -0.0497719 0
M  V30 1921 H 187.269 -2.08022 1.48865 0
M  V30 1922 H 186.913 -4.28386 2.72852 0
M  V30 1923 H 186.843 -5.13545 1.16529 0
M  V30 1924 H 189.334 -3.57493 1.22503 0
M  V30 1925 H 189.647 -7.08401 3.08848 0
M  V30 1926 H 187.992 -6.37362 2.77118 0
M  V30 1927 H 191.183 -4.40019 1.59689 0
M  V30 1928 H 191.356 -6.00045 2.44643 0
M  V30 1929 N 184.763 -0.387143 -1.52771 0
M  V30 1930 C 185.71 0.449048 -2.26389 0
M  V30 1931 C 186.68 1.05961 -1.27912 0
M  V30 1932 O 187.865 1.08804 -1.56737 0
M  V30 1933 C 185.005 1.57155 -3.0724 0
M  V30 1934 C 184.118 0.984066 -4.20643 0
M  V30 1935 C 183.253 2.07745 -4.88892 0
M  V30 1936 C 182.292 1.46574 -5.94292 0
M  V30 1937 N 181.429 2.49834 -6.56146 0
M  V30 1938 H 186.269 -0.185205 -2.97424 0
M  V30 1939 H 183.806 -0.103164 -1.46738 0
M  V30 1940 H 185.764 2.23309 -3.52405 0
M  V30 1941 H 184.394 2.17615 -2.38419 0
M  V30 1942 H 183.446 0.212193 -3.79808 0
M  V30 1943 H 184.758 0.497029 -4.96318 0
M  V30 1944 H 183.912 2.81673 -5.3735 0
M  V30 1945 H 182.651 2.59807 -4.12737 0
M  V30 1946 H 181.656 0.711696 -5.45174 0
M  V30 1947 H 182.881 0.953088 -6.72379 0
M  V30 1948 H 180.827 3.0107 -5.82832 0
M  V30 1949 H 180.744 2.05879 -7.27427 0
M  V30 1950 H 182.012 3.23399 -7.09249 0
M  V30 1951 N 186.241 1.57166 -0.116904 0
M  V30 1952 C 187.188 2.15202 0.83408 0
M  V30 1953 C 188.158 1.07644 1.26499 0
M  V30 1954 O 189.343 1.35541 1.34288 0
M  V30 1955 C 186.483 2.75405 2.07957 0
M  V30 1956 C 185.596 3.97264 1.69721 0
M  V30 1957 C 184.731 4.45561 2.89221 0
M  V30 1958 C 183.77 5.59956 2.47215 0
M  V30 1959 N 182.907 6.03006 3.59622 0
M  V30 1960 H 187.747 2.96141 0.332335 0
M  V30 1961 H 185.284 1.46309 0.152349 0
M  V30 1962 H 187.242 3.08439 2.80929 0
M  V30 1963 H 185.872 1.97159 2.55594 0
M  V30 1964 H 184.924 3.70404 0.866316 0
M  V30 1965 H 186.236 4.80226 1.34849 0
M  V30 1966 H 185.39 4.80493 3.7042 0
M  V30 1967 H 184.129 3.61544 3.27318 0
M  V30 1968 H 183.134 5.2463 1.64448 0
M  V30 1969 H 184.359 6.45738 2.10238 0
M  V30 1970 H 182.305 5.21931 3.97396 0
M  V30 1971 H 182.222 6.80819 3.28667 0
M  V30 1972 H 183.49 6.42576 4.41267 0
M  V30 1973 N 187.719 -0.156864 1.56817 0
M  V30 1974 C 188.649 -1.19589 2.00551 0
M  V30 1975 C 189.63 -1.4536 0.883426 0
M  V30 1976 O 190.815 -1.56449 1.15054 0
M  V30 1977 C 187.945 -2.53143 2.37773 0
M  V30 1978 C 186.899 -2.41913 3.53075 0
M  V30 1979 C 186.225 -3.80088 3.76081 0
M  V30 1980 C 187.525 -1.91157 4.86062 0
M  V30 1981 H 189.219 -0.832293 2.87599 0
M  V30 1982 H 186.765 -0.398918 1.38364 0
M  V30 1983 H 188.718 -3.26047 2.66967 0
M  V30 1984 H 187.442 -2.91319 1.4765 0
M  V30 1985 H 186.101 -1.71462 3.24031 0
M  V30 1986 H 185.749 -4.15683 2.83225 0
M  V30 1987 H 185.449 -3.73439 4.53671 0
M  V30 1988 H 186.973 -4.54556 4.0769 0
M  V30 1989 H 188.387 -2.53846 5.14038 0
M  V30 1990 H 186.784 -1.95422 5.67389 0
M  V30 1991 H 187.854 -0.866673 4.77092 0
M  V30 1992 N 189.197 -1.51736 -0.425897 0
M  V30 1993 C 190.445 -1.64644 -1.17204 0
M  V30 1994 C 190.766 -0.370486 -1.91448 0
M  V30 1995 O 190.036 0.614088 -1.86026 0
M  V30 1996 H 188.616 -0.606819 -0.435638 0
M  V30 1997 H 191.278 -1.88713 -0.487177 0
M  V30 1998 H 190.374 -2.47958 -1.89534 0
M  V30 1999 N 190.675 0.682077 -1.42076 0
M  V30 2000 C 191.605 1.80796 -1.47767 0
M  V30 2001 C 192.586 1.6677 -0.334954 0
M  V30 2002 O 193.771 1.863 -0.548264 0
M  V30 2003 C 190.901 3.19038 -1.37229 0
M  V30 2004 C 189.855 3.47789 -2.49453 0
M  V30 2005 C 189.181 4.8553 -2.23975 0
M  V30 2006 C 190.481 3.45411 -3.91776 0
M  V30 2007 H 192.175 1.7629 -2.41997 0
M  V30 2008 H 189.721 0.846721 -1.16476 0
M  V30 2009 H 191.674 3.97528 -1.39821 0
M  V30 2010 H 190.398 3.24204 -0.394907 0
M  V30 2011 H 189.057 2.71657 -2.46166 0
M  V30 2012 H 188.705 4.87337 -1.24547 0
M  V30 2013 H 188.405 5.0573 -2.99184 0
M  V30 2014 H 189.929 5.66312 -2.28304 0
M  V30 2015 H 191.343 4.13882 -3.96705 0
M  V30 2016 H 189.74 3.77145 -4.66778 0
M  V30 2017 H 190.81 2.44122 -4.18966 0
M  V30 2018 N 192.153 1.28127 0.917671 0
M  V30 2019 C 193.1 1.11717 2.0196 0
M  V30 2020 C 194.07 0.0153929 1.66093 0
M  V30 2021 O 195.255 0.179596 1.89953 0
M  V30 2022 C 192.395 0.780927 3.36148 0
M  V30 2023 C 191.508 1.96135 3.84909 0
M  V30 2024 C 190.643 1.56609 5.0759 0
M  V30 2025 C 189.682 2.71339 5.48673 0
M  V30 2026 N 188.819 2.32332 6.62545 0
M  V30 2027 H 193.659 2.06003 2.15329 0
M  V30 2028 H 191.196 1.02535 1.05475 0
M  V30 2029 H 193.154 0.56675 4.13333 0
M  V30 2030 H 191.784 -0.124998 3.22558 0
M  V30 2031 H 190.836 2.28777 3.03916 0
M  V30 2032 H 192.148 2.82165 4.1132 0
M  V30 2033 H 191.302 1.31374 5.92305 0
M  V30 2034 H 190.041 0.677014 4.82978 0
M  V30 2035 H 189.046 2.97276 4.62501 0
M  V30 2036 H 190.271 3.60882 5.75274 0
M  V30 2037 H 188.217 1.45889 6.39572 0
M  V30 2038 H 188.134 3.11899 6.88662 0
M  V30 2039 H 189.402 2.10371 7.50576 0
M  V30 2040 O 193.67 -1.05238 1.22504 0
M  V30 2041 H 194.361 -1.6643 0.990999 0
M  V30 END ATOM
M  V30 BEGIN BOND
M  V30 END BOND
M  V30 END CTAB
M  END
$$$$
