drugbank_target|P04155 Trefoil factor 1 (DB00481; DB04468)
 OpenBabel12092121063D

  0  0  0     0  0            999 V3000
M  V30 BEGIN CTAB
M  V30 COUNTS 1244 1257 0 0 0
M  V30 BEGIN ATOM
M  V30 1 H -0.908 1.98254 -0.117106 0
M  V30 2 N 0 1.576 0 0
M  V30 3 C 0.933 2.03868 1.02534 0
M  V30 4 C 1.911 0.928543 1.3348 0
M  V30 5 O 3.095 1.19667 1.45644 0
M  V30 6 C 0.222 2.43627 2.35294 0
M  V30 7 C -0.732 3.65373 2.2001 0
M  V30 8 S 0.101 5.13292 1.52614 0
M  V30 9 C 1.257 5.56322 2.86805 0
M  V30 10 H 1.49 2.90518 0.631377 0
M  V30 11 H -0.977 1.52953 0.210867 0
M  V30 12 H 0.981 2.67203 3.11629 0
M  V30 13 H -0.358 1.57376 2.7183 0
M  V30 14 H -1.165 3.90944 3.18086 0
M  V30 15 H -1.563 3.418 1.51819 0
M  V30 16 H 0.729 5.58782 3.83104 0
M  V30 17 H 1.672 6.56266 2.65933 0
M  V30 18 H 2.08 4.83886 2.90714 0
M  V30 19 N 1.4781 -0.272755 1.55222 0
M  V30 20 C 2.4411 -1.32041 1.87344 0
M  V30 21 C 3.4411 -1.42342 0.74803 0
M  V30 22 O 4.6311 -1.41488 1.0162 0
M  V30 23 C 1.7631 -2.70173 2.07893 0
M  V30 24 H 2.9561 -1.04789 2.80997 0
M  V30 25 H 0.5091 -0.51083 1.47717 0
M  V30 26 H 1.2441 -3.02605 1.16622 0
M  V30 27 H 1.0291 -2.64082 2.89833 0
M  V30 28 H 2.5191 -3.45869 2.34017 0
M  V30 29 N 2.9562 -1.48159 -0.537278 0
M  V30 30 C 4.1842 -1.59454 -1.31841 0
M  V30 31 C 4.5992 -0.252065 -1.8711 0
M  V30 32 O 3.9562 0.757621 -1.66031 0
M  V30 33 C 4.0072 -2.63546 -2.47439 0
M  V30 34 O 3.7282 -3.92583 -1.94449 0
M  V30 35 C 5.2292 -2.85212 -3.39366 0
M  V30 36 H 2.4492 -0.53785 -0.401196 0
M  V30 37 H 4.9932 -1.93932 -0.648891 0
M  V30 38 H 3.1482 -2.31946 -3.1029 0
M  V30 39 H 3.5622 -4.49629 -2.70063 0
M  V30 40 H 5.0362 -3.61863 -4.16844 0
M  V30 41 H 5.5132 -1.93765 -3.94147 0
M  V30 42 H 6.1192 -3.18086 -2.82314 0
M  V30 43 N 4.4343 0.785586 -1.36625 0
M  V30 44 C 5.3673 1.90509 -1.25625 0
M  V30 45 C 6.3453 1.62 -0.139607 0
M  V30 46 O 7.5293 1.8591 -0.31141 0
M  V30 47 C 4.6563 3.25419 -0.939158 0
M  V30 48 C 3.7023 3.72856 -2.07077 0
M  V30 49 S 4.5353 3.88162 -3.68904 0
M  V30 50 C 5.6913 5.25942 -3.39317 0
M  V30 51 H 5.9243 1.99549 -2.20381 0
M  V30 52 H 3.4573 0.945226 -1.22085 0
M  V30 53 H 5.4153 4.03346 -0.763029 0
M  V30 54 H 4.0763 3.14099 -0.00931402 0
M  V30 55 H 3.2693 4.70624 -1.80357 0
M  V30 56 H 2.8713 3.01989 -2.20632 0
M  V30 57 H 5.1633 6.10651 -2.93447 0
M  V30 58 H 6.1063 5.57668 -4.36363 0
M  V30 59 H 6.5143 4.93224 -2.74573 0
M  V30 60 N 5.9124 1.20967 1.01018 0
M  V30 61 C 6.8224 0.980157 2.13143 0
M  V30 62 C 7.8384 -0.0660665 1.73875 0
M  V30 63 O 9.0144 0.122821 2.01025 0
M  V30 64 C 6.0794 0.54216 3.42435 0
M  V30 65 C 5.1404 1.65999 3.95908 0
M  V30 66 C 4.3734 1.2428 5.19028 0
M  V30 67 O 4.5964 0.114196 5.70286 0
M  V30 68 O 3.5304 2.05271 5.65816 0
M  V30 69 H 7.3564 1.91913 2.35379 0
M  V30 70 H 4.9414 0.994099 1.11526 0
M  V30 71 H 6.8234 0.30744 4.20277 0
M  V30 72 H 5.4984 -0.36815 3.216 0
M  V30 73 H 4.4054 1.94906 3.19316 0
M  V30 74 H 5.7384 2.54753 4.21143 0
M  V30 75 N 7.3905 -1.2043 1.01659 0
M  V30 76 C 8.3385 -2.25249 0.580143 0
M  V30 77 C 9.3325 -1.65057 -0.381115 0
M  V30 78 O 10.5385 -1.78241 -0.251039 0
M  V30 79 H 6.9135 -0.732695 0.169299 0
M  V30 80 H 8.8845 -2.59389 1.47512 0
M  V30 81 C 7.6335 -3.47638 -0.065788 0
M  V30 82 H 6.9565 -3.94233 0.664874 0
M  V30 83 H 8.3965 -4.2268 -0.334282 0
M  V30 84 C 6.8555 -3.10447 -1.3086 0
M  V30 85 O 7.3855 -3.21981 -2.4019 0
M  V30 86 N 5.5915 -2.64996 -1.1927 0
M  V30 87 H 5.1385 -2.55811 -0.303064 0
M  V30 88 H 5.0965 -2.40482 -2.02523 0
M  V30 89 N 8.8686 -0.792821 -1.36206 0
M  V30 90 C 9.8156 -0.191653 -2.30003 0
M  V30 91 C 10.7856 0.666453 -1.52143 0
M  V30 92 O 11.9706 0.61442 -1.80636 0
M  V30 93 C 9.1106 0.664848 -3.38635 0
M  V30 94 C 8.2236 -0.212175 -4.31479 0
M  V30 95 C 7.3586 0.651022 -5.27196 0
M  V30 96 C 6.3976 -0.227247 -6.11678 0
M  V30 97 N 5.5346 0.595127 -6.99573 0
M  V30 98 H 10.3746 -0.996978 -2.80828 0
M  V30 99 H 7.9116 -0.503206 -1.38225 0
M  V30 100 H 9.8696 1.17645 -4.00269 0
M  V30 101 H 8.4996 1.43557 -2.89122 0
M  V30 102 H 7.5516 -0.841777 -3.70969 0
M  V30 103 H 8.8636 -0.888751 -4.90818 0
M  V30 104 H 8.0176 1.2283 -5.94136 0
M  V30 105 H 6.7566 1.36121 -4.68319 0
M  V30 106 H 5.7616 -0.816904 -5.43697 0
M  V30 107 H 6.9866 -0.93509 -6.72631 0
M  V30 108 H 4.9326 1.28955 -6.432 0
M  V30 109 H 4.8496 -0.0236952 -7.55996 0
M  V30 110 H 6.1176 1.15613 -7.70879 0
M  V30 111 N 10.3467 1.47872 -0.545128 0
M  V30 112 C 11.5927 2.02793 -0.0166104 0
M  V30 113 C 11.9257 1.41987 1.32489 0
M  V30 114 O 11.2007 0.571045 1.85928 0
M  V30 115 C 11.4837 3.59989 0.0893294 0
M  V30 116 C 11.3367 4.3125 -1.27841 0
M  V30 117 C 12.6557 4.32606 0.808724 0
M  V30 118 H 9.7747 0.736962 -0.00751035 0
M  V30 119 H 12.4167 1.76433 -0.705085 0
M  V30 120 H 10.5667 3.82579 0.675681 0
M  V30 121 H 12.2387 4.20035 -1.90704 0
M  V30 122 H 10.4817 3.92076 -1.85632 0
M  V30 123 H 11.1527 5.39736 -1.15713 0
M  V30 124 H 13.6287 4.14936 0.310992 0
M  V30 125 H 12.5047 5.42251 0.851782 0
M  V30 126 H 12.7657 4.00963 1.86229 0
M  V30 127 N 11.8248 0.280983 1.55075 0
M  V30 128 C 13.0738 -0.334784 1.98902 0
M  V30 129 C 13.3868 -1.56534 1.17288 0
M  V30 130 O 14.5928 -2.25443 1.51287 0
M  V30 131 C 13.0488 -0.646994 3.54037 0
M  V30 132 C 12.6568 0.564085 4.44435 0
M  V30 133 C 14.4008 -1.22506 4.06439 0
M  V30 134 C 12.3078 0.226137 5.90967 0
M  V30 135 H 11.2378 -0.128866 0.742906 0
M  V30 136 H 13.8888 0.386556 1.79382 0
M  V30 137 H 12.2708 -1.42739 3.6938 0
M  V30 138 H 13.4448 1.34082 4.40861 0
M  V30 139 H 11.7598 1.0594 4.02698 0
M  V30 140 H 14.3568 -1.49182 5.13468 0
M  V30 141 H 14.6998 -2.16085 3.55827 0
M  V30 142 H 15.2328 -0.50682 3.94558 0
M  V30 143 H 11.9718 1.12996 6.45687 0
M  V30 144 H 11.4918 -0.513717 5.97596 0
M  V30 145 H 13.1708 -0.179539 6.46751 0
M  V30 146 N 13.3029 -1.57598 0.00835791 0
M  V30 147 C 14.5429 -1.92788 -0.679136 0
M  V30 148 C 14.9069 -0.883378 -1.70471 0
M  V30 149 O 16.1079 -1.12079 -2.44319 0
M  V30 150 C 14.3789 -3.32994 -1.29807 0
M  V30 151 S 15.9379 -3.90082 -2.00952 0
M  V30 152 H 12.7559 -0.67475 -0.224127 0
M  V30 153 H 15.3579 -1.95385 0.0670497 0
M  V30 154 H 14.0619 -4.06846 -0.538922 0
M  V30 155 H 13.5929 -3.33791 -2.082 0
M  V30 156 H 15.6079 -3.71834 -3.28563 0
M  V30 157 N 14.781 0.264519 -1.55364 0
M  V30 158 C 15.744 1.31046 -1.88042 0
M  V30 159 C 16.744 1.41943 -0.755569 0
M  V30 160 O 17.934 1.40947 -1.02369 0
M  V30 161 C 15.066 2.69067 -2.09323 0
M  V30 162 H 16.259 1.03297 -2.81549 0
M  V30 163 H 13.812 0.502989 -1.47986 0
M  V30 164 H 14.547 3.01982 -1.18226 0
M  V30 165 H 14.332 2.62542 -2.91229 0
M  V30 166 H 15.822 3.44623 -2.35848 0
M  V30 167 N 16.2591 1.48442 0.529413 0
M  V30 168 C 17.1891 1.65902 1.64313 0
M  V30 169 C 18.1701 0.507897 1.6234 0
M  V30 170 O 19.3551 0.740503 1.79528 0
M  V30 171 C 16.4851 1.69911 3.02898 0
M  V30 172 C 15.4391 2.8453 3.19729 0
M  V30 173 C 14.7651 2.73629 4.59381 0
M  V30 174 C 16.0651 4.25821 3.02447 0
M  V30 175 H 17.7591 2.5914 1.49955 0
M  V30 176 H 15.3051 1.24709 0.719982 0
M  V30 177 H 17.2581 1.80715 3.80684 0
M  V30 178 H 15.9821 0.732524 3.18279 0
M  V30 179 H 14.6411 2.73283 2.44361 0
M  V30 180 H 14.2891 1.74938 4.71599 0
M  V30 181 H 13.9891 3.50541 4.71588 0
M  V30 182 H 15.5131 2.86401 5.39265 0
M  V30 183 H 16.9271 4.37898 3.70024 0
M  V30 184 H 15.3241 5.03735 3.26146 0
M  V30 185 H 16.3941 4.42244 1.98867 0
M  V30 186 N 17.7372 -0.778329 1.37039 0
M  V30 187 C 18.9832 -1.53892 1.32079 0
M  V30 188 C 19.3162 -1.9396 -0.0965386 0
M  V30 189 O 18.5912 -1.63568 -1.05242 0
M  V30 190 C 18.8742 -2.80847 2.25382 0
M  V30 191 C 18.7272 -2.47076 3.75864 0
M  V30 192 C 20.0462 -3.82741 2.1725 0
M  V30 193 H 17.1652 -0.558303 0.48111 0
M  V30 194 H 19.8072 -0.893397 1.67685 0
M  V30 195 H 17.9572 -3.35931 1.95148 0
M  V30 196 H 19.6292 -1.97957 4.16666 0
M  V30 197 H 17.8722 -1.79863 3.94755 0
M  V30 198 H 18.5432 -3.37798 4.36574 0
M  V30 199 H 21.0192 -3.37133 2.43887 0
M  V30 200 H 19.8952 -4.69303 2.84686 0
M  V30 201 H 20.1562 -4.2652 1.16331 0
M  V30 202 N 19.2153 -1.21501 -1.00376 0
M  V30 203 C 20.1453 -0.999478 -2.11028 0
M  V30 204 C 21.1263 0.0759671 -1.6993 0
M  V30 205 O 22.3113 -0.0841106 -1.94018 0
M  V30 206 C 19.4413 -0.564709 -3.42678 0
M  V30 207 C 18.3953 -1.58486 -3.97576 0
M  V30 208 C 17.7213 -1.00628 -5.25146 0
M  V30 209 C 19.0213 -2.97204 -4.29496 0
M  V30 210 H 20.7153 -1.92495 -2.29317 0
M  V30 211 H 18.2613 -0.92693 -1.102 0
M  V30 212 H 20.2143 -0.401091 -4.19487 0
M  V30 213 H 18.9383 0.396411 -3.24185 0
M  V30 214 H 17.5973 -1.73606 -3.22888 0
M  V30 215 H 17.2453 -0.0368439 -5.02987 0
M  V30 216 H 16.9453 -1.68771 -5.62841 0
M  V30 217 H 18.4693 -0.854015 -6.04598 0
M  V30 218 H 19.8833 -2.8552 -4.97143 0
M  V30 219 H 18.2803 -3.62372 -4.78338 0
M  V30 220 H 19.3503 -3.47956 -3.3772 0
M  V30 221 N 20.6934 1.19889 -1.02296 0
M  V30 222 C 21.9394 1.89701 -0.717033 0
M  V30 223 C 22.2724 1.7905 0.751989 0
M  V30 224 O 21.5474 1.17891 1.547 0
M  V30 225 C 21.8304 3.40858 -1.16136 0
M  V30 226 C 21.6834 3.60411 -2.69117 0
M  V30 227 C 23.0024 4.33876 -0.737549 0
M  V30 228 H 20.1214 0.688874 -0.261957 0
M  V30 229 H 22.7634 1.41154 -1.27183 0
M  V30 230 H 20.9134 3.82335 -0.689342 0
M  V30 231 H 22.5854 3.28145 -3.2422 0
M  V30 232 H 20.8284 3.03665 -3.0979 0
M  V30 233 H 21.4994 4.66396 -2.95261 0
M  V30 234 H 23.9754 4.00081 -1.14344 0
M  V30 235 H 22.8514 5.38242 -1.0764 0
M  V30 236 H 23.1124 4.40628 0.360436 0
M  V30 237 N 22.1715 0.800033 1.35784 0
M  V30 238 C 23.3965 0.388511 2.03729 0
M  V30 239 C 23.8215 -0.990481 1.5991 0
M  V30 240 O 23.1795 -1.64013 0.772612 0
M  V30 241 C 23.2275 0.4726 3.5749 0
M  V30 242 O 22.3315 -0.51646 4.09153 0
M  V30 243 H 21.6725 0.163271 0.643614 0
M  V30 244 H 24.2025 1.0841 1.73518 0
M  V30 245 H 24.2125 0.34003 4.06581 0
M  V30 246 H 22.8875 1.47848 3.88734 0
M  V30 247 H 21.4645 -0.344673 3.71304 0
M  V30 248 N 23.6496 -1.47581 0.552962 0
M  V30 249 C 24.5826 -2.26883 -0.244857 0
M  V30 250 C 25.5606 -1.33784 -0.924147 0
M  V30 251 O 26.7446 -1.6316 -0.943981 0
M  V30 252 C 23.8716 -3.10695 -1.34856 0
M  V30 253 C 22.9176 -4.19339 -0.778268 0
M  V30 254 S 23.7506 -5.34207 0.37184 0
M  V30 255 C 24.9066 -6.21584 -0.733779 0
M  V30 256 H 25.1396 -2.94202 0.428087 0
M  V30 257 H 22.6726 -1.50628 0.339197 0
M  V30 258 H 24.6306 -3.59555 -1.98066 0
M  V30 259 H 23.2916 -2.42746 -1.99332 0
M  V30 260 H 22.4846 -4.77695 -1.60696 0
M  V30 261 H 22.0866 -3.73338 -0.222422 0
M  V30 262 H 24.3786 -6.57676 -1.62692 0
M  V30 263 H 25.3216 -7.07851 -0.187668 0
M  V30 264 H 25.7296 -5.55125 -1.02454 0
M  V30 265 N 25.1277 -0.289203 -1.54924 0
M  V30 266 C 26.0577 0.58549 -2.2604 0
M  V30 267 C 27.0387 1.14753 -1.25562 0
M  V30 268 O 28.2237 1.17906 -1.54311 0
M  V30 269 C 25.3537 1.76305 -2.99222 0
M  V30 270 C 24.3077 1.33191 -4.06748 0
M  V30 271 C 23.6337 2.5937 -4.6758 0
M  V30 272 C 24.9337 0.471775 -5.20165 0
M  V30 273 H 26.6277 -0.00763532 -2.99399 0
M  V30 274 H 24.1737 -0.00511229 -1.43999 0
M  V30 275 H 26.1267 2.38097 -3.47689 0
M  V30 276 H 24.8507 2.38223 -2.23422 0
M  V30 277 H 23.5097 0.737121 -3.59113 0
M  V30 278 H 23.1577 3.19576 -3.88433 0
M  V30 279 H 22.8577 2.31228 -5.40192 0
M  V30 280 H 24.3817 3.21985 -5.18804 0
M  V30 281 H 25.7957 0.995056 -5.64599 0
M  V30 282 H 24.1927 0.284639 -5.99425 0
M  V30 283 H 25.2627 -0.506041 -4.82252 0
M  V30 284 N 26.6058 1.57591 -0.0167156 0
M  V30 285 C 27.5688 2.08393 0.954204 0
M  V30 286 C 28.5688 0.996531 1.26198 0
M  V30 287 O 29.7588 1.25858 1.20438 0
M  V30 288 C 26.8908 2.5394 2.27436 0
M  V30 289 H 28.0838 2.95455 0.514451 0
M  V30 290 H 25.6368 1.54582 0.231089 0
M  V30 291 H 26.3718 1.70171 2.76066 0
M  V30 292 H 26.1568 3.33371 2.06412 0
M  V30 293 H 27.6468 2.93512 2.97053 0
M  V30 294 N 28.0839 -0.256276 1.55502 0
M  V30 295 C 29.0139 -1.32102 1.92539 0
M  V30 296 C 29.9949 -1.50684 0.789194 0
M  V30 297 O 31.1799 -1.63449 1.04872 0
M  V30 298 C 28.3099 -2.67752 2.21192 0
M  V30 299 C 27.2639 -2.63878 3.36975 0
M  V30 300 C 26.5899 -4.03236 3.51147 0
M  V30 301 C 27.8899 -2.21682 4.72921 0
M  V30 302 H 29.5839 -1.01351 2.81724 0
M  V30 303 H 27.1299 -0.486105 1.35547 0
M  V30 304 H 29.0829 -3.42365 2.45691 0
M  V30 305 H 27.8069 -3.0012 1.28824 0
M  V30 306 H 26.4659 -1.91722 3.12471 0
M  V30 307 H 26.1139 -4.32854 2.56216 0
M  V30 308 H 25.8139 -4.01535 4.29003 0
M  V30 309 H 27.3379 -4.79563 3.77957 0
M  V30 310 H 28.7519 -2.86023 4.96854 0
M  V30 311 H 27.1489 -2.3111 5.53812 0
M  V30 312 H 28.2189 -1.16833 4.70615 0
M  V30 313 N 29.562 -1.4872 -0.521534 0
M  V30 314 C 30.81 -1.56857 -1.27437 0
M  V30 315 C 31.131 -0.247982 -1.93417 0
M  V30 316 O 30.401 0.731151 -1.81744 0
M  V30 317 H 28.981 -0.577885 -0.473347 0
M  V30 318 H 31.643 -1.85233 -0.606205 0
M  V30 319 H 30.739 -2.35402 -2.0492 0
M  V30 320 N 31.0401 0.771051 -1.3745 0
M  V30 321 C 32.2681 1.56015 -1.35893 0
M  V30 322 C 32.6831 1.88718 0.0555523 0
M  V30 323 O 32.0401 1.51502 1.01752 0
M  V30 324 C 32.0911 2.87001 -2.19801 0
M  V30 325 O 31.8121 2.557 -3.55738 0
M  V30 326 C 33.3131 3.81228 -2.26231 0
M  V30 327 H 30.5331 0.483317 -0.465453 0
M  V30 328 H 33.0771 0.955611 -1.80799 0
M  V30 329 H 31.2321 3.43877 -1.78402 0
M  V30 330 H 31.6461 3.39584 -3.99729 0
M  V30 331 H 33.1201 4.70139 -2.89263 0
M  V30 332 H 33.5971 4.20409 -1.27093 0
M  V30 333 H 34.2031 3.30281 -2.67945 0
M  V30 334 N 32.5182 1.22032 0.997298 0
M  V30 335 C 33.4482 1.01065 2.10495 0
M  V30 336 C 34.4292 -0.0669542 1.69968 0
M  V30 337 O 35.6142 0.0943987 1.9397 0
M  V30 338 C 32.7442 0.582874 3.42374 0
M  V30 339 C 31.6982 1.60592 3.96729 0
M  V30 340 C 31.0242 1.03412 5.24605 0
M  V30 341 C 32.3242 2.99478 4.27914 0
M  V30 342 H 34.0182 1.93708 2.28292 0
M  V30 343 H 31.5642 0.932761 1.09707 0
M  V30 344 H 33.5172 0.423332 4.19268 0
M  V30 345 H 32.2412 -0.379213 3.24391 0
M  V30 346 H 30.9002 1.75316 3.21963 0
M  V30 347 H 30.5482 0.063518 5.0296 0
M  V30 348 H 30.2482 1.71754 5.61938 0
M  V30 349 H 31.7722 0.886066 6.04137 0
M  V30 350 H 33.1862 2.88153 4.95622 0
M  V30 351 H 31.5832 3.64903 4.76409 0
M  V30 352 H 32.6532 3.49742 3.3587 0
M  V30 353 N 33.9963 -1.19345 1.0293 0
M  V30 354 C 34.9593 -2.20793 0.615069 0
M  V30 355 C 35.9593 -1.57553 -0.321533 0
M  V30 356 O 37.1493 -1.73862 -0.108483 0
M  V30 357 C 34.2813 -3.40754 -0.0999222 0
M  V30 358 H 35.4743 -2.58955 1.51269 0
M  V30 359 H 33.0273 -1.3303 0.820534 0
M  V30 360 H 33.7623 -3.0811 -1.01187 0
M  V30 361 H 33.5473 -3.87889 0.57309 0
M  V30 362 H 35.0373 -4.15898 -0.376645 0
M  V30 363 N 35.4744 -0.807222 -1.35358 0
M  V30 364 C 36.3844 -0.219594 -2.3357 0
M  V30 365 C 37.4004 0.637734 -1.61892 0
M  V30 366 O 38.5764 0.549336 -1.93763 0
M  V30 367 C 35.6414 0.62158 -3.41083 0
M  V30 368 C 34.7024 -0.256315 -4.28534 0
M  V30 369 C 33.9354 0.544807 -5.30912 0
M  V30 370 O 34.1584 1.77944 -5.41934 0
M  V30 371 O 33.0924 -0.0646478 -6.01865 0
M  V30 372 H 36.9184 -1.03208 -2.85625 0
M  V30 373 H 34.5034 -0.569025 -1.38139 0
M  V30 374 H 36.3854 1.10067 -4.06772 0
M  V30 375 H 35.0604 1.41165 -2.91297 0
M  V30 376 H 33.9674 -0.782559 -3.65823 0
M  V30 377 H 35.3004 -1.01034 -4.81719 0
M  V30 378 N 36.9525 1.47285 -0.560781 0
M  V30 379 C 37.9155 2.28535 0.174488 0
M  V30 380 C 38.9155 1.37153 0.839388 0
M  V30 381 O 40.1055 1.59748 0.694702 0
M  V30 382 C 37.2375 3.16934 1.25561 0
M  V30 383 H 38.4305 2.95012 -0.539262 0
M  V30 384 H 35.9835 1.53034 -0.317865 0
M  V30 385 H 36.7185 2.55157 2.00164 0
M  V30 386 H 36.5035 3.8419 0.783604 0
M  V30 387 H 37.9935 3.78143 1.77193 0
M  V30 388 N 38.4306 0.297415 1.54768 0
M  V30 389 C 39.3626 -0.613881 2.20826 0
M  V30 390 C 40.3756 -1.10032 1.19987 0
M  V30 391 O 41.5646 -1.01839 1.46598 0
M  V30 392 C 38.6646 -1.852 2.83821 0
M  V30 393 C 37.8376 -1.50865 4.10559 0
M  V30 394 C 36.8966 -2.60154 4.57391 0
M  V30 395 O 35.9226 -2.25398 5.2267 0
M  V30 396 N 37.1246 -3.90629 4.29406 0
M  V30 397 H 39.8896 -0.048389 2.99661 0
M  V30 398 H 37.4506 0.11946 1.61459 0
M  V30 399 H 39.4426 -2.57652 3.12086 0
M  V30 400 H 38.0126 -2.32597 2.08847 0
M  V30 401 H 37.2326 -0.616925 3.89343 0
M  V30 402 H 38.5206 -1.25458 4.9309 0
M  V30 403 H 37.9186 -4.21677 3.77101 0
M  V30 404 H 36.4756 -4.59391 4.62388 0
M  V30 405 N 39.9087 -1.5758 0.0250728 0
M  V30 406 C 41.1367 -1.9593 -0.664747 0
M  V30 407 C 41.5517 -0.901352 -1.65895 0
M  V30 408 O 40.9087 0.117255 -1.82123 0
M  V30 409 C 40.9597 -3.34342 -1.37468 0
M  V30 410 O 40.6807 -4.36079 -0.420324 0
M  V30 411 C 42.1817 -3.873 -2.1567 0
M  V30 412 H 39.4017 -0.645405 -0.183557 0
M  V30 413 H 41.9457 -2.04329 0.0836372 0
M  V30 414 H 40.1007 -3.27175 -2.0745 0
M  V30 415 H 40.5147 -5.16297 -0.923991 0
M  V30 416 H 41.9887 -4.86504 -2.60803 0
M  V30 417 H 42.4657 -3.21331 -2.99405 0
M  V30 418 H 43.0717 -3.97723 -1.50654 0
M  V30 419 N 41.3868 0.248026 -1.55636 0
M  V30 420 C 42.2968 1.32859 -1.93354 0
M  V30 421 C 43.3128 1.52719 -0.833838 0
M  V30 422 O 44.4888 1.66363 -1.13513 0
M  V30 423 C 41.5538 2.66337 -2.21958 0
M  V30 424 C 40.6148 2.55008 -3.45354 0
M  V30 425 C 39.8478 3.82121 -3.72584 0
M  V30 426 O 40.0708 4.83951 -3.01907 0
M  V30 427 O 39.0048 3.80822 -4.6611 0
M  V30 428 H 42.8308 1.03862 -2.85388 0
M  V30 429 H 40.4158 0.448686 -1.42503 0
M  V30 430 H 42.2978 3.45216 -2.4167 0
M  V30 431 H 40.9728 2.95068 -1.33103 0
M  V30 432 H 39.8798 1.7442 -3.30951 0
M  V30 433 H 41.2128 2.31222 -4.34508 0
M  V30 434 N 42.8649 1.48995 0.513639 0
M  V30 435 C 44.0929 1.61531 1.29288 0
M  V30 436 C 44.5079 0.281801 1.86685 0
M  V30 437 O 43.8649 -0.731111 1.67215 0
M  V30 438 C 43.9159 2.67449 2.43215 0
M  V30 439 O 43.6369 3.95626 1.88179 0
M  V30 440 C 45.1379 2.90575 3.34785 0
M  V30 441 H 42.3579 0.544165 0.392588 0
M  V30 442 H 44.9019 1.9494 0.617956 0
M  V30 443 H 43.0569 2.36853 3.0656 0
M  V30 444 H 43.4709 4.53868 2.62876 0
M  V30 445 H 44.9449 3.68449 4.11035 0
M  V30 446 H 45.4219 2.00011 3.91015 0
M  V30 447 H 46.0279 3.22538 2.77218 0
M  V30 448 N 44.343 -0.763751 1.37857 0
M  V30 449 C 45.583 -1.53551 1.34913 0
M  V30 450 C 45.947 -1.91895 -0.0635882 0
M  V30 451 O 47.148 -2.67916 -0.217825 0
M  V30 452 C 45.419 -2.76126 2.26912 0
M  V30 453 S 46.978 -3.66105 2.41893 0
M  V30 454 H 43.796 -0.52559 0.478828 0
M  V30 455 H 46.398 -0.897435 1.73685 0
M  V30 456 H 45.102 -2.4605 3.28463 0
M  V30 457 H 44.633 -3.44887 1.89253 0
M  V30 458 H 46.648 -4.68473 1.63545 0
M  V30 459 N 45.8211 -1.22559 -0.990812 0
M  V30 460 C 47.0491 -1.07779 -1.76611 0
M  V30 461 C 47.4641 0.371513 -1.85109 0
M  V30 462 O 46.8211 1.25737 -1.32274 0
M  V30 463 C 46.8721 -1.68512 -3.19822 0
M  V30 464 O 46.5931 -3.07774 -3.1178 0
M  V30 465 C 48.0941 -1.59035 -4.13791 0
M  V30 466 H 45.3141 -0.377729 -0.554583 0
M  V30 467 H 47.8581 -1.62195 -1.24551 0
M  V30 468 H 46.0131 -1.18154 -3.68942 0
M  V30 469 H 46.4271 -3.37062 -4.01858 0
M  V30 470 H 47.9011 -2.0625 -5.1202 0
M  V30 471 H 48.3781 -0.547273 -4.35777 0
M  V30 472 H 48.9841 -2.08709 -3.70568 0
M  V30 473 N 47.2992 1.18797 -1.03562 0
M  V30 474 C 48.5452 1.8893 -0.737113 0
M  V30 475 C 48.8782 1.79837 0.732956 0
M  V30 476 O 48.1532 1.19525 1.5344 0
M  V30 477 C 48.4362 3.39607 -1.19745 0
M  V30 478 C 48.2892 3.57537 -2.72924 0
M  V30 479 C 49.6082 4.33069 -0.783526 0
M  V30 480 H 46.7272 0.686057 -0.269249 0
M  V30 481 H 49.3692 1.39797 -1.28673 0
M  V30 482 H 47.5192 3.81583 -0.729855 0
M  V30 483 H 49.1912 3.24688 -3.27682 0
M  V30 484 H 47.4342 3.00363 -3.12993 0
M  V30 485 H 48.1052 4.63238 -3.00191 0
M  V30 486 H 50.5812 3.98846 -1.18581 0
M  V30 487 H 49.4572 5.3707 -1.13343 0
M  V30 488 H 49.7182 4.40986 0.313681 0
M  V30 489 N 48.7773 0.814389 1.34928 0
M  V30 490 C 49.7403 0.235759 2.27984 0
M  V30 491 C 50.7403 -0.581412 1.49921 0
M  V30 492 O 51.9303 -0.398758 1.69575 0
M  V30 493 C 49.0623 -0.670433 3.34242 0
M  V30 494 H 50.2553 1.05659 2.80671 0
M  V30 495 H 47.8083 0.585614 1.44915 0
M  V30 496 H 48.5433 -1.51466 2.86755 0
M  V30 497 H 48.3283 -0.0860822 3.92005 0
M  V30 498 H 49.8183 -1.06935 4.03676 0
M  V30 499 N 50.2554 -1.46986 0.568584 0
M  V30 500 C 51.6664 -1.86188 0.138219 0
M  V30 501 C 52.0174 -1.47388 -1.29504 0
M  V30 502 O 51.1424 -0.88219 -1.97602 0
M  V30 503 C 51.7374 -3.3792 0.244065 0
M  V30 504 C 50.2964 -3.76171 -0.131335 0
M  V30 505 C 49.4434 -2.71027 0.586465 0
M  V30 506 H 52.3944 -1.38342 0.777645 0
M  V30 507 H 52.4154 -3.76729 -0.534351 0
M  V30 508 H 51.9274 -3.66128 1.28731 0
M  V30 509 H 50.0284 -3.5358 -1.17526 0
M  V30 510 H 50.1414 -4.78523 0.235146 0
M  V30 511 H 48.5054 -2.54684 0.0282722 0
M  V30 512 H 49.2884 -3.02077 1.63109 0
M  V30 513 N 51.7335 -0.305618 -1.54608 0
M  V30 514 C 53.1495 0.0476228 -1.59529 0
M  V30 515 C 53.3495 1.52025 -1.32252 0
M  V30 516 O 52.4055 2.27368 -1.09818 0
M  V30 517 C 53.7185 -0.354471 -2.98603 0
M  V30 518 C 55.2665 -0.303622 -3.11524 0
M  V30 519 C 55.7415 -0.680608 -4.52915 0
M  V30 520 N 57.2325 -0.63332 -4.5885 0
M  V30 521 C 57.9675 -0.897432 -5.66334 0
M  V30 522 N 57.4635 -1.22775 -6.81834 0
M  V30 523 N 59.2565 -0.824186 -5.56025 0
M  V30 524 H 51.4075 -1.2653 -1.70599 0
M  V30 525 H 53.6705 -0.513291 -0.797017 0
M  V30 526 H 53.3765 -1.3798 -3.23503 0
M  V30 527 H 53.2505 0.289568 -3.76087 0
M  V30 528 H 55.6375 0.712472 -2.8637 0
M  V30 529 H 55.7185 -0.982348 -2.36185 0
M  V30 530 H 55.3625 -1.69453 -4.78799 0
M  V30 531 H 55.2925 0.0202385 -5.26596 0
M  V30 532 H 57.7835 -0.389138 -3.75891 0
M  V30 533 H 58.0965 -1.41513 -7.59733 0
M  V30 534 H 56.4415 -1.26583 -6.83375 0
M  V30 535 H 59.6325 -0.565748 -4.64669 0
M  V30 536 H 59.8055 -1.03338 -6.39707 0
M  V30 537 N 53.2116 1.57565 -0.0334293 0
M  V30 538 C 54.1216 2.13943 0.962572 0
M  V30 539 C 55.1376 1.09276 1.35406 0
M  V30 540 O 56.3136 1.41355 1.4346 0
M  V30 541 C 53.3786 2.65887 2.22497 0
M  V30 542 C 52.4396 3.85286 1.8935 0
M  V30 543 C 51.6726 4.34743 3.09571 0
M  V30 544 O 51.8956 3.83352 4.22371 0
M  V30 545 O 50.8296 5.26538 2.91618 0
M  V30 546 H 54.6556 2.99333 0.513169 0
M  V30 547 H 52.2406 1.4822 0.18743 0
M  V30 548 H 54.1226 2.99346 2.96598 0
M  V30 549 H 52.7976 1.83578 2.6661 0
M  V30 550 H 51.7046 3.56746 1.1262 0
M  V30 551 H 53.0376 4.68771 1.5005 0
M  V30 552 N 54.6897 -0.239769 1.55765 0
M  V30 553 C 56.1057 -0.588624 1.48349 0
M  V30 554 C 56.3057 -1.88005 0.72502 0
M  V30 555 O 55.3617 -2.51186 0.257269 0
M  V30 556 C 56.6747 -0.68474 2.928 0
M  V30 557 C 58.2227 -0.77659 3.03213 0
M  V30 558 C 58.6977 -0.904207 4.48986 0
M  V30 559 N 60.1887 -0.968896 4.52953 0
M  V30 560 C 60.9237 -1.08703 5.63002 0
M  V30 561 N 60.4197 -1.17026 6.82845 0
M  V30 562 N 62.2127 -1.12074 5.50814 0
M  V30 563 H 54.3637 0.607911 2.03515 0
M  V30 564 H 56.6267 0.21083 0.924259 0
M  V30 565 H 56.3327 0.194284 3.51163 0
M  V30 566 H 56.2067 -1.55435 3.43686 0
M  V30 567 H 58.5937 -1.64606 2.44926 0
M  V30 568 H 58.6747 0.118315 2.55526 0
M  V30 569 H 58.3187 -0.0392633 5.07885 0
M  V30 570 H 58.2487 -1.81426 4.9436 0
M  V30 571 H 60.7397 -0.915633 3.6664 0
M  V30 572 H 61.0527 -1.25966 7.62465 0
M  V30 573 H 59.3977 -1.13971 6.85591 0
M  V30 574 H 62.5887 -1.05226 4.5612 0
M  V30 575 H 62.7617 -1.20936 6.36615 0
M  V30 576 N 56.1678 -1.49265 -0.50573 0
M  V30 577 C 57.0998 -1.617 -1.62437 0
M  V30 578 C 58.1128 -0.499924 -1.54934 0
M  V30 579 O 59.3018 -0.771785 -1.60953 0
M  V30 580 C 56.4018 -1.5533 -3.01207 0
M  V30 581 C 55.5748 -2.8249 -3.33943 0
M  V30 582 C 54.6338 -2.69238 -4.52103 0
M  V30 583 O 53.6598 -3.43167 -4.5412 0
M  V30 584 N 54.8618 -1.80468 -5.51735 0
M  V30 585 H 57.6268 -2.58177 -1.52199 0
M  V30 586 H 55.1878 -1.46294 -0.693511 0
M  V30 587 H 57.1798 -1.44125 -3.78167 0
M  V30 588 H 55.7498 -0.667297 -3.05395 0
M  V30 589 H 54.9698 -3.08081 -2.45926 0
M  V30 590 H 56.2578 -3.66802 -3.5261 0
M  V30 591 H 55.6558 -1.19653 -5.52901 0
M  V30 592 H 54.2128 -1.75188 -6.27816 0
M  V30 593 N 57.6459 0.756429 -1.3826 0
M  V30 594 C 58.5939 1.89149 -1.35372 0
M  V30 595 C 59.5879 1.67691 -0.24004 0
M  V30 596 O 60.7939 1.75294 -0.408919 0
M  V30 597 H 57.1689 0.622271 -0.422236 0
M  V30 598 H 59.1399 1.88701 -2.31159 0
M  V30 599 C 57.8889 3.26599 -1.19284 0
M  V30 600 H 57.2119 3.43695 -2.0424 0
M  V30 601 H 58.6519 4.06274 -1.21316 0
M  V30 602 C 57.1109 3.3675 0.100454 0
M  V30 603 O 57.6409 3.86951 1.07851 0
M  V30 604 N 55.8469 2.90179 0.15633 0
M  V30 605 H 55.3939 2.49517 -0.640253 0
M  V30 606 H 55.3519 2.97352 1.02123 0
M  V30 607 N 59.124 1.23083 0.984299 0
M  V30 608 C 60.364 1.07226 1.74017 0
M  V30 609 C 60.728 -0.384766 1.88105 0
M  V30 610 O 61.929 -0.664411 2.60459 0
M  V30 611 C 60.2 1.77348 3.10294 0
M  V30 612 S 61.759 1.77014 4.01512 0
M  V30 613 H 58.577 0.383819 0.598502 0
M  V30 614 H 61.179 1.56158 1.17622 0
M  V30 615 H 59.883 2.82506 2.97689 0
M  V30 616 H 59.414 1.28682 3.71759 0
M  V30 617 H 61.429 0.825956 4.89277 0
M  V30 618 N 60.6021 -1.18246 1.0419 0
M  V30 619 C 61.8501 -1.87886 0.744543 0
M  V30 620 C 62.1711 -1.8082 -0.730006 0
M  V30 621 O 61.4411 -1.22736 -1.52685 0
M  V30 622 H 60.0211 -0.695556 0.272417 0
M  V30 623 H 62.6831 -1.43494 1.31892 0
M  V30 624 H 61.7791 -2.9389 1.05049 0
M  V30 625 N 62.0802 -0.821533 -1.34494 0
M  V30 626 C 63.3272 -0.408946 -1.98328 0
M  V30 627 C 63.6552 1.02764 -1.65136 0
M  V30 628 O 62.9102 1.73026 -0.914349 0
M  V30 629 C 63.2092 -0.556512 -3.53041 0
M  V30 630 C 62.8752 -1.95861 -4.0614 0
M  V30 631 C 61.5372 -2.34217 -4.20352 0
M  V30 632 C 63.8892 -2.87523 -4.34718 0
M  V30 633 C 61.2172 -3.63572 -4.6047 0
M  V30 634 C 63.5692 -4.1634 -4.76281 0
M  V30 635 C 62.2332 -4.54675 -4.88699 0
M  V30 636 H 61.5032 -0.149644 -0.725732 0
M  V30 637 H 64.1502 -1.04521 -1.6046 0
M  V30 638 H 62.4552 0.163148 -3.9146 0
M  V30 639 H 64.1522 -0.217826 -4.00408 0
M  V30 640 H 60.7422 -1.65066 -3.95539 0
M  V30 641 H 64.9262 -2.59133 -4.23277 0
M  V30 642 H 60.1822 -3.93101 -4.68275 0
M  V30 643 H 64.3562 -4.87455 -4.97354 0
M  V30 644 H 61.9832 -5.54959 -5.19542 0
M  V30 645 N 63.5583 1.46682 -0.576371 0
M  V30 646 C 64.9693 1.86112 -0.148091 0
M  V30 647 C 65.3203 1.48073 1.2872 0
M  V30 648 O 64.4453 0.892656 1.97131 0
M  V30 649 C 65.0403 3.37786 -0.261982 0
M  V30 650 C 63.5993 3.76235 0.111384 0
M  V30 651 C 62.7463 2.70713 -0.60083 0
M  V30 652 H 65.6973 1.37927 -0.78497 0
M  V30 653 H 65.7183 3.77007 0.514364 0
M  V30 654 H 65.2303 3.6544 -1.30671 0
M  V30 655 H 63.3313 3.54198 1.15649 0
M  V30 656 H 63.4443 4.78391 -0.26052 0
M  V30 657 H 61.8083 2.54666 -0.0417783 0
M  V30 658 H 62.5913 3.01208 -1.64708 0
M  V30 659 N 65.0364 0.313813 1.54444 0
M  V30 660 C 66.2844 -0.291099 1.99993 0
M  V30 661 C 66.6054 -1.53418 1.20366 0
M  V30 662 O 65.8754 -1.93544 0.302927 0
M  V30 663 H 64.4554 -0.110552 0.738774 0
M  V30 664 H 67.1174 0.428106 1.9014 0
M  V30 665 H 66.2134 -0.554268 3.07139 0
M  V30 666 N 66.5145 -1.57545 0.0417849 0
M  V30 667 C 67.7605 -1.92601 -0.635021 0
M  V30 668 C 68.0935 -0.919627 -1.71045 0
M  V30 669 O 67.3685 0.0557892 -1.9442 0
M  V30 670 C 67.6515 -3.38085 -1.23979 0
M  V30 671 C 67.5045 -4.49467 -0.173057 0
M  V30 672 C 68.8235 -3.83776 -2.15416 0
M  V30 673 H 65.9425 -0.700397 -0.229374 0
M  V30 674 H 68.5845 -1.89728 0.101633 0
M  V30 675 H 66.7345 -3.40664 -1.86762 0
M  V30 676 H 68.4065 -4.59018 0.458312 0
M  V30 677 H 66.6495 -4.30909 0.499996 0
M  V30 678 H 67.3205 -5.48323 -0.636054 0
M  V30 679 H 69.7965 -3.83013 -1.62605 0
M  V30 680 H 68.6725 -4.8624 -2.54679 0
M  V30 681 H 68.9335 -3.19998 -3.05047 0
M  V30 682 N 67.9926 0.231505 -1.5589 0
M  V30 683 C 69.2206 0.974505 -1.82513 0
M  V30 684 C 69.6356 1.78344 -0.619591 0
M  V30 685 O 68.9926 1.77792 0.411848 0
M  V30 686 C 69.0436 1.90007 -3.07538 0
M  V30 687 O 68.7646 1.12385 -4.2344 0
M  V30 688 C 70.2656 2.75779 -3.47075 0
M  V30 689 H 67.4856 0.286065 -0.606966 0
M  V30 690 H 70.0296 0.249739 -2.02969 0
M  V30 691 H 68.1846 2.57891 -2.89086 0
M  V30 692 H 68.5986 1.75125 -4.944 0
M  V30 693 H 70.0726 3.36443 -4.37619 0
M  V30 694 H 70.5496 3.47672 -2.68367 0
M  V30 695 H 71.1556 2.13323 -3.67931 0
M  V30 696 N 69.4707 1.49531 0.497807 0
M  V30 697 C 70.8817 1.52344 1.07927 0
M  V30 698 C 71.2327 0.311469 1.93712 0
M  V30 699 O 70.3577 -0.578405 2.08527 0
M  V30 700 C 70.9527 2.76062 1.96405 0
M  V30 701 C 69.5117 2.81643 2.49709 0
M  V30 702 C 68.6587 2.46299 1.27404 0
M  V30 703 H 71.6097 1.56182 0.281576 0
M  V30 704 H 71.6307 2.56405 2.81135 0
M  V30 705 H 71.1427 3.64254 1.33943 0
M  V30 706 H 69.2437 1.97739 3.15801 0
M  V30 707 H 69.3567 3.83891 2.86643 0
M  V30 708 H 67.7207 1.98148 1.60029 0
M  V30 709 H 68.5037 3.36769 0.66645 0
M  V30 710 N 70.9488 -0.749086 1.3866 0
M  V30 711 C 72.1738 -1.54344 1.38538 0
M  V30 712 C 72.5988 -1.88088 -0.0216655 0
M  V30 713 O 71.9568 -1.50899 -1.00494 0
M  V30 714 C 72.0048 -2.8164 2.25192 0
M  V30 715 O 71.1088 -3.7698 1.67212 0
M  V30 716 H 70.4498 -0.466654 0.472367 0
M  V30 717 H 72.9798 -0.925355 1.82478 0
M  V30 718 H 72.9898 -3.30519 2.3921 0
M  V30 719 H 71.6648 -2.56411 3.27454 0
M  V30 720 H 70.2418 -3.35699 1.6236 0
M  V30 721 N 72.4269 -1.23603 -0.977757 0
M  V30 722 C 73.3589 -0.977369 -2.07317 0
M  V30 723 C 74.3719 0.0495845 -1.62724 0
M  V30 724 O 75.5609 -0.186261 -1.77526 0
M  V30 725 C 72.6609 -0.451216 -3.35883 0
M  V30 726 C 71.8339 -1.53896 -4.09432 0
M  V30 727 C 70.8929 -1.01721 -5.16274 0
M  V30 728 O 69.9189 -1.70676 -5.43009 0
M  V30 729 N 71.1209 0.153594 -5.80297 0
M  V30 730 H 73.8859 -1.92047 -2.30082 0
M  V30 731 H 71.4469 -1.14497 -1.14465 0
M  V30 732 H 73.4389 -0.0871574 -4.04606 0
M  V30 733 H 72.0089 0.397368 -3.10064 0
M  V30 734 H 71.2289 -2.07566 -3.35127 0
M  V30 735 H 72.5169 -2.27037 -4.55337 0
M  V30 736 H 71.9149 0.730323 -5.60966 0
M  V30 737 H 70.4719 0.458892 -6.50183 0
M  V30 738 N 73.905 1.17692 -1.04816 0
M  V30 739 C 75.145 1.89545 -0.764979 0
M  V30 740 C 75.509 1.78979 0.695028 0
M  V30 741 O 76.71 2.45613 1.09215 0
M  V30 742 C 74.981 3.35659 -1.22751 0
M  V30 743 S 76.54 4.25526 -1.07112 0
M  V30 744 H 73.358 0.654432 -0.27792 0
M  V30 745 H 75.96 1.42163 -1.34201 0
M  V30 746 H 74.664 3.40882 -2.28533 0
M  V30 747 H 74.195 3.88083 -0.644594 0
M  V30 748 H 76.21 4.962 0.00697508 0
M  V30 749 N 75.3831 0.828654 1.34056 0
M  V30 750 C 76.3461 0.259927 2.27721 0
M  V30 751 C 77.3461 -0.565478 1.50529 0
M  V30 752 O 78.5361 -0.38075 1.69988 0
M  V30 753 C 75.6681 -0.634944 3.34935 0
M  V30 754 H 76.8611 1.0863 2.79534 0
M  V30 755 H 74.4141 0.600951 1.44285 0
M  V30 756 H 75.1491 -1.48416 2.88346 0
M  V30 757 H 74.9341 -0.0444999 3.92075 0
M  V30 758 H 76.4241 -1.02648 4.04788 0
M  V30 759 N 76.8612 -1.46375 0.584142 0
M  V30 760 C 77.8092 -2.32042 -0.161047 0
M  V30 761 C 78.8032 -1.44569 -0.882966 0
M  V30 762 O 80.0092 -1.61186 -0.801191 0
M  V30 763 H 76.3842 -0.748659 -0.0708033 0
M  V30 764 H 78.3552 -2.92704 0.580269 0
M  V30 765 C 77.1042 -3.27762 -1.1605 0
M  V30 766 H 76.4272 -3.95051 -0.614419 0
M  V30 767 H 77.8672 -3.90481 -1.65228 0
M  V30 768 C 76.3262 -2.53218 -2.22221 0
M  V30 769 O 76.8562 -2.29628 -3.29597 0
M  V30 770 N 75.0622 -2.13756 -1.96868 0
M  V30 771 H 74.6092 -2.33142 -1.09557 0
M  V30 772 H 74.5672 -1.642 -2.68115 0
M  V30 773 N 78.3393 -0.321999 -1.54275 0
M  V30 774 C 79.2863 0.544664 -2.24281 0
M  V30 775 C 80.2563 1.1129 -1.23303 0
M  V30 776 O 81.4413 1.15354 -1.51981 0
M  V30 777 C 78.5813 1.70045 -3.00298 0
M  V30 778 C 77.6943 1.16159 -4.1609 0
M  V30 779 C 76.8293 2.28293 -4.79641 0
M  V30 780 C 75.8683 1.71648 -5.8754 0
M  V30 781 N 75.0053 2.77438 -6.44959 0
M  V30 782 H 79.8453 -0.0588907 -2.97942 0
M  V30 783 H 77.3823 -0.0408345 -1.47043 0
M  V30 784 H 79.3403 2.38054 -3.42616 0
M  V30 785 H 77.9703 2.27531 -2.28975 0
M  V30 786 H 77.0223 0.373092 -3.78566 0
M  V30 787 H 78.3343 0.707087 -4.93763 0
M  V30 788 H 77.4883 3.0421 -5.2492 0
M  V30 789 H 76.2273 2.77079 -4.01346 0
M  V30 790 H 75.2323 0.942282 -5.41665 0
M  V30 791 H 76.4573 1.23741 -6.67731 0
M  V30 792 H 74.4033 3.25519 -5.69538 0
M  V30 793 H 74.3203 2.36547 -7.1804 0
M  V30 794 H 75.5883 3.53189 -6.94894 0
M  V30 795 N 79.8174 1.5752 -0.0501392 0
M  V30 796 C 81.0654 1.9227 0.622642 0
M  V30 797 C 81.3864 0.929083 1.71444 0
M  V30 798 O 80.6564 -0.0262186 1.95882 0
M  V30 799 H 79.2364 0.709739 0.232981 0
M  V30 800 H 81.8984 1.94628 -0.102898 0
M  V30 801 H 80.9944 2.93479 1.06191 0
M  V30 802 N 81.2955 -0.223234 1.56011 0
M  V30 803 C 82.5355 -0.954962 1.8072 0
M  V30 804 C 82.8995 -1.81598 0.623384 0
M  V30 805 O 84.1005 -2.58132 0.749745 0
M  V30 806 C 82.3715 -1.77313 3.10314 0
M  V30 807 S 83.9305 -2.56073 3.56332 0
M  V30 808 H 80.7485 -0.320812 0.634508 0
M  V30 809 H 83.3505 -0.220686 1.9425 0
M  V30 810 H 82.0545 -1.13071 3.94516 0
M  V30 811 H 81.5855 -2.54974 2.99586 0
M  V30 812 H 83.6005 -3.79619 3.19536 0
M  V30 813 N 82.7736 -1.49793 -0.48987 0
M  V30 814 C 84.0136 -1.61466 -1.25332 0
M  V30 815 C 84.3776 -0.299688 -1.89647 0
M  V30 816 O 85.5786 -0.291687 -2.67213 0
M  V30 817 C 83.8496 -2.74944 -2.28343 0
M  V30 818 S 85.4086 -3.06637 -3.13878 0
M  V30 819 H 82.2266 -0.569411 -0.425784 0
M  V30 820 H 84.8286 -1.875 -0.553541 0
M  V30 821 H 83.5326 -3.68994 -1.79643 0
M  V30 822 H 83.0636 -2.50938 -3.02975 0
M  V30 823 H 85.0786 -2.49015 -4.29192 0
M  V30 824 N 84.2517 0.741722 -1.39055 0
M  V30 825 C 85.4987 1.50114 -1.35912 0
M  V30 826 C 85.8267 1.94443 0.0470937 0
M  V30 827 O 85.0817 1.66612 1.02659 0
M  V30 828 C 85.3807 2.7592 -2.27163 0
M  V30 829 C 85.0467 2.50493 -3.74919 0
M  V30 830 C 83.7087 2.43267 -4.1518 0
M  V30 831 C 86.0607 2.28585 -4.684 0
M  V30 832 C 83.3887 2.12166 -5.46994 0
M  V30 833 C 85.7407 1.99002 -6.00484 0
M  V30 834 C 84.4047 1.90241 -6.39816 0
M  V30 835 H 83.6747 0.549306 -0.497336 0
M  V30 836 H 86.3217 0.851896 -1.71508 0
M  V30 837 H 84.6267 3.45553 -1.84663 0
M  V30 838 H 86.3237 3.33923 -2.22028 0
M  V30 839 H 82.9137 2.56992 -3.43006 0
M  V30 840 H 87.0977 2.33139 -4.38132 0
M  V30 841 H 82.3537 2.03901 -5.76398 0
M  V30 842 H 86.5277 1.81057 -6.72452 0
M  V30 843 H 84.1547 1.65907 -7.41875 0
M  V30 844 N 85.7298 1.2412 0.971189 0
M  V30 845 C 87.0068 0.986867 1.6888 0
M  V30 846 C 87.3868 -0.491857 2.0529 0
M  V30 847 O 86.7348 -1.46531 1.75331 0
M  V30 848 C 86.9448 1.9063 2.92338 0
M  V30 849 C 88.2928 2.17515 3.64654 0
M  V30 850 O 89.3168 1.88254 3.02388 0
M  V30 851 O 88.1758 2.6719 4.7673 0
M  V30 852 H 85.2698 0.372944 0.738134 0
M  V30 853 H 87.8158 1.35203 1.02559 0
M  V30 854 H 86.5878 2.90552 2.62097 0
M  V30 855 H 86.2108 1.54408 3.66393 0
M  V30 856 N 87.2079 -1.17134 1.05439 0
M  V30 857 C 88.4849 -1.83411 0.679699 0
M  V30 858 C 88.8649 -1.9368 -0.839726 0
M  V30 859 O 88.2129 -1.47325 -1.74664 0
M  V30 860 C 88.4229 -3.20918 1.37159 0
M  V30 861 C 89.7709 -3.96796 1.51123 0
M  V30 862 O 90.7949 -3.30406 1.3308 0
M  V30 863 O 89.6539 -5.15778 1.80651 0
M  V30 864 H 86.7479 -0.79154 0.239569 0
M  V30 865 H 89.2939 -1.24411 1.15413 0
M  V30 866 H 88.0659 -3.08428 2.40807 0
M  V30 867 H 87.6889 -3.87587 0.886674 0
M  V30 868 N 88.686 -0.835752 -1.33615 0
M  V30 869 C 89.914 -0.443344 -2.02094 0
M  V30 870 C 90.329 0.954522 -1.62894 0
M  V30 871 O 89.686 1.61982 -0.840723 0
M  V30 872 C 89.737 -0.550775 -3.5728 0
M  V30 873 O 89.458 -1.89356 -3.95065 0
M  V30 874 C 90.959 -0.154919 -4.43029 0
M  V30 875 H 88.179 -0.176359 -0.647409 0
M  V30 876 H 90.723 -1.12746 -1.70612 0
M  V30 877 H 88.878 0.0853997 -3.87306 0
M  V30 878 H 89.292 -1.87687 -4.89769 0
M  V30 879 H 90.766 -0.281144 -5.51284 0
M  V30 880 H 91.243 0.902863 -4.2982 0
M  V30 881 H 91.849 -0.765404 -4.18356 0
M  V30 882 N 90.1641 1.46063 -0.591896 0
M  V30 883 C 91.4101 2.02638 -0.0811191 0
M  V30 884 C 91.7431 1.4613 1.27905 0
M  V30 885 O 91.0181 0.629908 1.84017 0
M  V30 886 C 91.3011 3.60091 -0.0252436 0
M  V30 887 C 91.1541 4.26965 -1.41496 0
M  V30 888 C 92.4731 4.3496 0.670685 0
M  V30 889 H 89.5921 0.73635 -0.0309524 0
M  V30 890 H 92.2341 1.741 -0.760859 0
M  V30 891 H 90.3841 3.84535 0.553624 0
M  V30 892 H 92.0561 4.13756 -2.0397 0
M  V30 893 H 90.2991 3.85971 -1.98011 0
M  V30 894 H 90.9701 5.35781 -1.32825 0
M  V30 895 H 93.4461 4.15716 0.178825 0
M  V30 896 H 92.3221 5.44686 0.678837 0
M  V30 897 H 92.5831 4.06685 1.73379 0
M  V30 898 N 91.6422 0.330177 1.54103 0
M  V30 899 C 93.0582 -0.0222371 1.59585 0
M  V30 900 C 93.2582 -1.49902 1.34654 0
M  V30 901 O 92.3142 -2.25592 1.13421 0
M  V30 902 C 93.6272 0.401932 2.98002 0
M  V30 903 C 95.1752 0.353145 3.11001 0
M  V30 904 C 95.6502 0.752576 4.51775 0
M  V30 905 N 97.1412 0.706239 4.57784 0
M  V30 906 C 97.8762 0.987417 5.64834 0
M  V30 907 N 97.3722 1.33607 6.79795 0
M  V30 908 N 99.1652 0.91254 5.54643 0
M  V30 909 H 91.3162 1.29228 1.68564 0
M  V30 910 H 93.5792 0.525906 0.78875 0
M  V30 911 H 93.2852 1.4311 3.21267 0
M  V30 912 H 93.1592 -0.229699 3.765 0
M  V30 913 H 95.5462 -0.666822 2.87467 0
M  V30 914 H 95.6272 1.0198 2.34593 0
M  V30 915 H 95.2712 1.77049 4.76042 0
M  V30 916 H 95.2012 0.0635409 5.26562 0
M  V30 917 H 97.6922 0.44889 3.75224 0
M  V30 918 H 98.0052 1.53582 7.57385 0
M  V30 919 H 96.3502 1.37439 6.81275 0
M  V30 920 H 99.5412 0.639601 4.6371 0
M  V30 921 H 99.7142 1.13503 6.37982 0
M  V30 922 N 93.1203 -1.57491 0.0584922 0
M  V30 923 C 94.3683 -1.92597 -0.612436 0
M  V30 924 C 94.6893 -0.938162 -1.70949 0
M  V30 925 O 93.9593 0.0158301 -1.95894 0
M  V30 926 H 92.5393 -0.710964 -0.229214 0
M  V30 927 H 95.2013 -1.94571 0.113218 0
M  V30 928 H 94.2973 -2.94038 -1.04633 0
M  V30 929 N 94.5984 0.214957 -1.56127 0
M  V30 930 C 95.8444 0.939762 -1.79712 0
M  V30 931 C 96.1774 1.83723 -0.629247 0
M  V30 932 O 95.4524 1.90925 0.371197 0
M  V30 933 C 95.7354 1.77306 -3.13424 0
M  V30 934 C 95.5884 0.90164 -4.40671 0
M  V30 935 C 96.9074 2.74956 -3.43638 0
M  V30 936 H 94.0264 0.340214 -0.653776 0
M  V30 937 H 96.6684 0.20824 -1.88855 0
M  V30 938 H 94.8184 2.39673 -3.0576 0
M  V30 939 H 96.4904 0.294206 -4.60361 0
M  V30 940 H 94.7334 0.207368 -4.33304 0
M  V30 941 H 95.4044 1.51923 -5.30682 0
M  V30 942 H 97.8804 2.22724 -3.51473 0
M  V30 943 H 96.7564 3.30358 -4.38355 0
M  V30 944 H 97.0174 3.53023 -2.66134 0
M  V30 945 N 96.0765 1.50051 0.48192 0
M  V30 946 C 97.4875 1.5348 1.06305 0
M  V30 947 C 97.8385 0.331997 1.93371 0
M  V30 948 O 96.9635 -0.556256 2.09129 0
M  V30 949 C 97.5585 2.7813 1.93466 0
M  V30 950 C 96.1175 2.84275 2.46707 0
M  V30 951 C 95.2645 2.47637 1.24785 0
M  V30 952 H 98.2155 1.56472 0.264995 0
M  V30 953 H 98.2365 2.59372 2.78399 0
M  V30 954 H 97.7485 3.65654 1.30072 0
M  V30 955 H 95.8495 2.01077 3.13686 0
M  V30 956 H 95.9625 3.8691 2.82555 0
M  V30 957 H 94.3265 1.99835 1.57918 0
M  V30 958 H 95.1095 3.37457 0.630694 0
M  V30 959 N 97.5546 -0.734337 1.39446 0
M  V30 960 C 98.8006 -1.49505 1.37913 0
M  V30 961 C 99.1556 -1.92384 -0.0248416 0
M  V30 962 O 98.4486 -1.6395 -0.991506 0
M  V30 963 C 98.6426 -2.74711 2.28623 0
M  V30 964 C 98.4716 -2.44075 3.777 0
M  V30 965 C 97.2416 -2.36338 4.46623 0
M  V30 966 C 99.4396 -2.09574 4.69663 0
M  V30 967 N 97.4216 -1.9818 5.81032 0
M  V30 968 C 98.7926 -1.81865 5.92727 0
M  V30 969 C 100.848 -1.96048 4.57678 0
M  V30 970 C 99.5506 -1.41992 7.05146 0
M  V30 971 C 101.577 -1.57579 5.7002 0
M  V30 972 C 100.939 -1.30754 6.92158 0
M  V30 973 H 97.0376 -0.545896 0.55993 0
M  V30 974 H 99.6216 -0.853373 1.75002 0
M  V30 975 H 97.7926 -3.36657 1.93692 0
M  V30 976 H 99.5246 -3.40916 2.18078 0
M  V30 977 H 96.2796 -2.53456 4.00071 0
M  V30 978 H 96.7036 -1.81691 6.52163 0
M  V30 979 H 101.346 -2.15455 3.63784 0
M  V30 980 H 99.0636 -1.21327 7.9894 0
M  V30 981 H 102.65 -1.47718 5.62735 0
M  V30 982 H 101.53 -1.01432 7.77612 0
M  V30 983 N 99.0327 -1.24633 -0.964593 0
M  V30 984 C 100.273 -1.09981 -1.72289 0
M  V30 985 C 100.637 0.354792 -1.88693 0
M  V30 986 O 101.838 0.62289 -2.61483 0
M  V30 987 C 100.109 -1.82262 -3.07434 0
M  V30 988 S 101.668 -1.83379 -3.98645 0
M  V30 989 H 98.4857 -0.393292 -0.59232 0
M  V30 990 H 101.088 -1.58009 -1.15123 0
M  V30 991 H 99.7917 -2.87206 -2.93157 0
M  V30 992 H 99.3227 -1.3458 -3.69664 0
M  V30 993 H 101.338 -0.903691 -4.87901 0
M  V30 994 N 100.511 1.16574 -1.06058 0
M  V30 995 C 101.758 1.87047 -0.775873 0
M  V30 996 C 102.086 1.81562 0.697534 0
M  V30 997 O 101.341 1.22445 1.52662 0
M  V30 998 C 101.64 3.36195 -1.21275 0
M  V30 999 C 101.306 3.6188 -2.68986 0
M  V30 1000 C 99.9678 3.68599 -3.09335 0
M  V30 1001 C 102.32 3.72648 -3.64394 0
M  V30 1002 C 99.6478 3.83584 -4.43937 0
M  V30 1003 C 102 3.89154 -4.98741 0
M  V30 1004 C 100.664 3.94114 -5.3873 0
M  V30 1005 H 99.9338 0.684452 -0.283912 0
M  V30 1006 H 102.581 1.37853 -1.32925 0
M  V30 1007 H 100.886 3.87505 -0.578528 0
M  V30 1008 H 102.583 3.89103 -0.969542 0
M  V30 1009 H 99.1728 3.57281 -2.36744 0
M  V30 1010 H 103.357 3.66769 -3.34356 0
M  V30 1011 H 98.6128 3.85677 -4.74409 0
M  V30 1012 H 102.787 3.96427 -5.72554 0
M  V30 1013 H 100.414 4.05478 -6.43033 0
M  V30 1014 N 101.989 0.842826 1.3317 0
M  V30 1015 C 103.219 0.453397 2.01564 0
M  V30 1016 C 103.627 -0.951147 1.63554 0
M  V30 1017 O 102.97 -1.63021 0.846746 0
M  V30 1018 C 103.032 0.499013 3.5602 0
M  V30 1019 C 102.696 1.86037 4.1742 0
M  V30 1020 C 103.693 2.82416 4.36506 0
M  V30 1021 C 101.378 2.15428 4.53757 0
M  V30 1022 C 103.372 4.06346 4.91082 0
M  V30 1023 C 101.059 3.39615 5.0804 0
M  V30 1024 C 102.057 4.3489 5.26649 0
M  V30 1025 O 101.745 5.5688 5.79776 0
M  V30 1026 H 101.477 0.177871 0.652179 0
M  V30 1027 H 104.031 1.13808 1.70988 0
M  V30 1028 H 102.261 -0.242467 3.85939 0
M  V30 1029 H 103.95 0.126852 4.05702 0
M  V30 1030 H 104.716 2.6101 4.08777 0
M  V30 1031 H 100.595 1.42061 4.38565 0
M  V30 1032 H 104.139 4.80722 5.05522 0
M  V30 1033 H 100.036 3.60876 5.352 0
M  V30 1034 H 100.804 5.58674 5.98185 0
M  V30 1035 N 103.467 -1.45747 0.599634 0
M  V30 1036 C 104.878 -1.85853 0.177681 0
M  V30 1037 C 105.229 -1.50102 -1.26348 0
M  V30 1038 O 104.354 -0.923905 -1.95686 0
M  V30 1039 C 104.949 -3.37326 0.315688 0
M  V30 1040 C 103.508 -3.76365 -0.0515144 0
M  V30 1041 C 102.655 -2.69722 0.643822 0
M  V30 1042 H 105.606 -1.36661 0.806814 0
M  V30 1043 H 105.627 -3.77778 -0.454321 0
M  V30 1044 H 105.139 -3.63315 1.36468 0
M  V30 1045 H 103.24 -3.55993 -1.09999 0
M  V30 1046 H 103.353 -4.77916 0.336594 0
M  V30 1047 H 101.717 -2.54567 0.0822881 0
M  V30 1048 H 102.5 -2.98549 1.6948 0
M  V30 1049 N 104.945 -0.338344 -1.53925 0
M  V30 1050 C 105.893 0.536231 -2.26335 0
M  V30 1051 C 106.887 1.1063 -1.28286 0
M  V30 1052 O 108.093 1.05264 -1.46012 0
M  V30 1053 H 104.468 0.191602 -0.727181 0
M  V30 1054 H 106.439 -0.0965747 -2.98244 0
M  V30 1055 C 105.188 1.67803 -3.04528 0
M  V30 1056 H 104.511 1.24864 -3.79801 0
M  V30 1057 H 105.951 2.26526 -3.58416 0
M  V30 1058 C 104.41 2.60439 -2.13712 0
M  V30 1059 O 104.94 3.6255 -1.72975 0
M  V30 1060 N 103.146 2.29006 -1.78898 0
M  V30 1061 H 102.693 1.46011 -2.12223 0
M  V30 1062 H 102.651 2.91248 -1.18416 0
M  V30 1063 N 106.423 1.57458 -0.0668435 0
M  V30 1064 C 107.651 1.97624 0.612565 0
M  V30 1065 C 108.066 0.94502 1.63447 0
M  V30 1066 O 107.423 -0.0689276 1.8237 0
M  V30 1067 C 107.474 3.37869 1.28555 0
M  V30 1068 O 107.195 4.3704 0.304557 0
M  V30 1069 C 108.696 3.92882 2.05325 0
M  V30 1070 H 105.916 0.650045 0.166381 0
M  V30 1071 H 108.46 2.04035 -0.137782 0
M  V30 1072 H 106.615 3.3256 1.98702 0
M  V30 1073 H 107.029 5.18565 0.786779 0
M  V30 1074 H 108.503 4.93247 2.47812 0
M  V30 1075 H 108.98 3.29156 2.9078 0
M  V30 1076 H 109.586 4.01577 1.40056 0
M  V30 1077 N 107.901 -0.206675 1.56239 0
M  V30 1078 C 109.15 -0.926964 1.79138 0
M  V30 1079 C 109.463 -1.84901 0.638043 0
M  V30 1080 O 110.669 -2.60906 0.751033 0
M  V30 1081 C 109.125 -1.6986 3.17294 0
M  V30 1082 C 108.733 -0.821956 4.40395 0
M  V30 1083 C 110.477 -2.40922 3.4951 0
M  V30 1084 C 108.384 -1.59179 5.69575 0
M  V30 1085 H 107.314 -0.349864 0.667915 0
M  V30 1086 H 109.965 -0.180487 1.8261 0
M  V30 1087 H 108.347 -2.48853 3.08039 0
M  V30 1088 H 109.521 -0.0715019 4.60745 0
M  V30 1089 H 107.836 -0.222741 4.15804 0
M  V30 1090 H 110.433 -2.99047 4.43255 0
M  V30 1091 H 110.776 -3.14542 2.72707 0
M  V30 1092 H 111.309 -1.68905 3.60161 0
M  V30 1093 H 108.048 -0.898589 6.49312 0
M  V30 1094 H 107.568 -2.31648 5.53262 0
M  V30 1095 H 109.247 -2.14862 6.10281 0
M  V30 1096 N 109.379 -1.50304 -0.473955 0
M  V30 1097 C 110.656 -1.51667 -1.23518 0
M  V30 1098 C 111.036 -0.259701 -2.09496 0
M  V30 1099 O 110.384 0.756986 -2.15597 0
M  V30 1100 C 110.594 -2.81082 -2.06868 0
M  V30 1101 C 111.942 -3.31631 -2.65153 0
M  V30 1102 O 112.966 -2.82384 -2.17113 0
M  V30 1103 O 111.825 -4.17471 -3.52675 0
M  V30 1104 H 108.919 -0.60822 -0.560355 0
M  V30 1105 H 111.465 -1.62592 -0.486011 0
M  V30 1106 H 110.237 -3.64041 -1.4349 0
M  V30 1107 H 109.86 -2.73146 -2.88924 0
M  V30 1108 N 110.857 0.726932 -1.39834 0
M  V30 1109 C 112.103 1.48884 -1.377 0
M  V30 1110 C 112.436 1.94185 0.0244852 0
M  V30 1111 O 111.711 1.67361 0.990986 0
M  V30 1112 C 111.994 2.72288 -2.3565 0
M  V30 1113 C 111.847 2.32956 -3.84775 0
M  V30 1114 C 113.166 3.74414 -2.31306 0
M  V30 1115 H 110.285 0.540062 -0.5015 0
M  V30 1116 H 112.927 0.830547 -1.70886 0
M  V30 1117 H 111.077 3.28457 -2.07481 0
M  V30 1118 H 112.749 1.82356 -4.23726 0
M  V30 1119 H 110.992 1.65088 -4.01159 0
M  V30 1120 H 111.663 3.21362 -4.4881 0
M  V30 1121 H 114.139 3.27849 -2.56231 0
M  V30 1122 H 113.015 4.58414 -3.01907 0
M  V30 1123 H 113.276 4.21909 -1.32081 0
M  V30 1124 N 112.336 1.25143 0.95797 0
M  V30 1125 C 113.747 1.08851 1.51685 0
M  V30 1126 C 114.098 -0.33687 1.93286 0
M  V30 1127 O 113.223 -1.22644 1.7829 0
M  V30 1128 C 113.818 1.96978 2.75654 0
M  V30 1129 C 112.377 1.84881 3.27866 0
M  V30 1130 C 111.524 1.91329 2.0072 0
M  V30 1131 H 114.475 1.38478 0.77522 0
M  V30 1132 H 114.496 1.5078 3.4935 0
M  V30 1133 H 114.008 3.00712 2.45345 0
M  V30 1134 H 112.109 0.840182 3.63004 0
M  V30 1135 H 112.222 2.6951 3.96107 0
M  V30 1136 H 110.586 1.35174 2.15871 0
M  V30 1137 H 111.369 2.96661 1.72764 0
M  V30 1138 N 113.814 -1.1601 1.06675 0
M  V30 1139 C 115.225 -1.68235 0.809565 0
M  V30 1140 C 115.576 -1.8454 -0.666303 0
M  V30 1141 O 114.701 -1.54374 -1.5165 0
M  V30 1142 C 115.296 -3.05585 1.46299 0
M  V30 1143 C 113.855 -3.54915 1.25349 0
M  V30 1144 C 113.002 -2.30804 1.53703 0
M  V30 1145 H 115.953 -1.00318 1.22971 0
M  V30 1146 H 115.974 -3.70174 0.880431 0
M  V30 1147 H 115.486 -2.93686 2.53713 0
M  V30 1148 H 113.587 -3.72067 0.199261 0
M  V30 1149 H 113.7 -4.36774 1.9689 0
M  V30 1150 H 112.064 -2.36007 0.957739 0
M  V30 1151 H 112.847 -2.21499 2.62284 0
M  V30 1152 N 115.292 -0.849877 -1.32721 0
M  V30 1153 C 116.202 -0.293791 -2.32753 0
M  V30 1154 C 117.218 0.585906 -1.63839 0
M  V30 1155 O 118.394 0.487413 -1.95413 0
M  V30 1156 C 115.459 0.512752 -3.42887 0
M  V30 1157 C 114.52 -0.39252 -4.27502 0
M  V30 1158 C 113.753 0.375625 -5.32377 0
M  V30 1159 O 113.976 1.60613 -5.4732 0
M  V30 1160 O 112.91 -0.256094 -6.01355 0
M  V30 1161 H 116.736 -1.12242 -2.82197 0
M  V30 1162 H 114.321 -0.612685 -1.36259 0
M  V30 1163 H 116.203 0.970704 -4.10067 0
M  V30 1164 H 114.878 1.31826 -2.95641 0
M  V30 1165 H 113.785 -0.898547 -3.63149 0
M  V30 1166 H 115.118 -1.16309 -4.7826 0
M  V30 1167 N 116.77 1.45427 -0.607355 0
M  V30 1168 C 117.68 2.34325 0.113463 0
M  V30 1169 C 118.696 1.51226 0.860617 0
M  V30 1170 O 119.872 1.84029 0.818255 0
M  V30 1171 C 116.937 3.28839 1.09844 0
M  V30 1172 C 115.998 4.27844 0.353271 0
M  V30 1173 C 115.231 5.17842 1.29133 0
M  V30 1174 O 115.454 5.11264 2.52913 0
M  V30 1175 O 114.388 5.96713 0.788523 0
M  V30 1176 H 118.214 2.97364 -0.617094 0
M  V30 1177 H 115.799 1.44807 -0.367619 0
M  V30 1178 H 117.681 3.8708 1.66575 0
M  V30 1179 H 116.356 2.68365 1.81003 0
M  V30 1180 H 115.263 3.7322 -0.256494 0
M  V30 1181 H 116.596 4.91173 -0.317822 0
M  V30 1182 N 118.248 0.346503 1.53744 0
M  V30 1183 C 119.158 -0.517293 2.28826 0
M  V30 1184 C 120.174 -1.10935 1.3405 0
M  V30 1185 O 121.35 -1.1244 1.6709 0
M  V30 1186 C 118.415 -1.65098 3.04866 0
M  V30 1187 C 117.476 -1.0884 4.15274 0
M  V30 1188 C 116.709 -2.16806 4.87679 0
M  V30 1189 O 116.932 -3.3758 4.59778 0
M  V30 1190 O 115.866 -1.80934 5.74061 0
M  V30 1191 H 119.692 0.0931396 3.03557 0
M  V30 1192 H 117.277 0.111458 1.48984 0
M  V30 1193 H 119.159 -2.31053 3.5241 0
M  V30 1194 H 117.834 -2.24717 2.32989 0
M  V30 1195 H 116.741 -0.3933 3.72027 0
M  V30 1196 H 118.074 -0.537036 4.89261 0
M  V30 1197 N 119.726 -1.57421 0.075193 0
M  V30 1198 C 120.966 -1.95495 -0.596757 0
M  V30 1199 C 121.33 -0.954886 -1.66571 0
M  V30 1200 O 122.531 -1.22341 -2.39345 0
M  V30 1201 C 120.802 -3.382 -1.15566 0
M  V30 1202 S 122.361 -3.98254 -1.84226 0
M  V30 1203 H 119.179 -0.683649 -0.195307 0
M  V30 1204 H 121.781 -1.94925 0.149859 0
M  V30 1205 H 120.485 -4.08766 -0.36588 0
M  V30 1206 H 120.016 -3.42321 -1.93856 0
M  V30 1207 H 122.031 -3.85435 -3.12497 0
M  V30 1208 N 121.204 0.198386 -1.56346 0
M  V30 1209 C 122.114 1.2664 -1.97483 0
M  V30 1210 C 123.13 1.49989 -0.882002 0
M  V30 1211 O 124.306 1.62668 -1.18748 0
M  V30 1212 C 121.371 2.59141 -2.30319 0
M  V30 1213 C 120.432 2.43892 -3.53292 0
M  V30 1214 C 119.665 3.70074 -3.84553 0
M  V30 1215 O 119.888 4.74101 -3.1715 0
M  V30 1216 O 118.822 3.658 -4.7799 0
M  V30 1217 H 122.648 0.947304 -2.88548 0
M  V30 1218 H 120.233 0.403123 -1.43859 0
M  V30 1219 H 122.115 3.37352 -2.5253 0
M  V30 1220 H 120.79 2.90684 -1.42423 0
M  V30 1221 H 119.697 1.63803 -3.36332 0
M  V30 1222 H 121.03 2.17282 -4.41644 0
M  V30 1223 N 122.682 1.50554 0.465978 0
M  V30 1224 C 123.929 1.61798 1.21768 0
M  V30 1225 C 124.257 0.320696 1.91838 0
M  V30 1226 O 123.512 -0.693724 1.82992 0
M  V30 1227 C 123.811 2.75152 2.28093 0
M  V30 1228 C 123.477 4.15454 1.75239 0
M  V30 1229 C 122.139 4.53628 1.60546 0
M  V30 1230 C 124.491 5.03121 1.36083 0
M  V30 1231 C 121.819 5.77204 1.05128 0
M  V30 1232 C 124.171 6.27249 0.821056 0
M  V30 1233 C 122.835 6.64221 0.660795 0
M  V30 1234 H 122.105 0.592063 0.445582 0
M  V30 1235 H 124.752 1.84503 0.512927 0
M  V30 1236 H 123.057 2.46556 3.04496 0
M  V30 1237 H 124.754 2.81055 2.86023 0
M  V30 1238 H 121.344 3.85341 1.87644 0
M  V30 1239 H 125.528 4.74257 1.46267 0
M  V30 1240 H 120.784 6.0452 0.91462 0
M  V30 1241 H 124.958 6.94537 0.509018 0
M  V30 1242 H 122.585 7.59854 0.229226 0
M  V30 1243 O 124.199 -0.611556 1.49473 0
M  V30 1244 H 124.89 -1.26607 1.46596 0
M  V30 END ATOM
M  V30 BEGIN BOND
M  V30 END BOND
M  V30 END CTAB
M  END
$$$$
