drugbank_target|P04141 Granulocyte-macrophage colony-stimulating factor (DB05194)
 OpenBabel12092120223D

  0  0  0     0  0            999 V3000
M  V30 BEGIN CTAB
M  V30 COUNTS 2279 2305 0 0 0
M  V30 BEGIN ATOM
M  V30 1 H -0.908 1.98254 -0.117106 0
M  V30 2 N 0 1.576 0 0
M  V30 3 C 0.933 2.03868 1.02534 0
M  V30 4 C 1.911 0.928543 1.3348 0
M  V30 5 O 3.095 1.19667 1.45644 0
M  V30 6 C 0.222 2.43627 2.35294 0
M  V30 7 C -0.732 3.65373 2.2001 0
M  V30 8 S 0.101 5.13292 1.52614 0
M  V30 9 C 1.257 5.56322 2.86805 0
M  V30 10 H 1.49 2.90518 0.631377 0
M  V30 11 H -0.977 1.52953 0.210867 0
M  V30 12 H 0.981 2.67203 3.11629 0
M  V30 13 H -0.358 1.57376 2.7183 0
M  V30 14 H -1.165 3.90944 3.18086 0
M  V30 15 H -1.563 3.418 1.51819 0
M  V30 16 H 0.729 5.58782 3.83104 0
M  V30 17 H 1.672 6.56266 2.65933 0
M  V30 18 H 2.08 4.83886 2.90714 0
M  V30 19 N 1.4781 -0.272755 1.55222 0
M  V30 20 C 2.7241 -1.00172 1.77023 0
M  V30 21 C 3.0791 -1.83928 0.564633 0
M  V30 22 O 2.3721 -1.86416 -0.442674 0
M  V30 23 C 2.5661 -1.91642 3.01675 0
M  V30 24 C 2.3951 -1.16888 4.34243 0
M  V30 25 C 1.1651 -0.884464 4.97499 0
M  V30 26 C 3.3631 -0.55919 5.11251 0
M  V30 27 N 1.3451 -0.11015 6.13801 0
M  V30 28 C 2.7161 0.0809469 6.19947 0
M  V30 29 C 4.7711 -0.467058 4.95705 0
M  V30 30 C 3.4741 0.804335 7.14789 0
M  V30 31 C 5.5001 0.242739 5.90902 0
M  V30 32 C 4.8621 0.871613 6.98987 0
M  V30 33 H 0.9611 -0.348529 0.700037 0
M  V30 34 H 3.5451 -0.277365 1.92714 0
M  V30 35 H 1.7161 -2.61303 2.87359 0
M  V30 36 H 3.4481 -2.57901 3.1188 0
M  V30 37 H 0.2031 -1.18979 4.58411 0
M  V30 38 H 0.6271 0.264344 6.76484 0
M  V30 39 H 5.2691 -0.93894 4.12242 0
M  V30 40 H 2.9871 1.2879 7.97771 0
M  V30 41 H 6.5731 0.314347 5.8095 0
M  V30 42 H 5.4531 1.4121 7.71381 0
M  V30 43 N 2.9562 -1.48159 -0.537278 0
M  V30 44 C 3.8862 -1.65029 -1.6519 0
M  V30 45 C 4.8672 -0.499281 -1.62607 0
M  V30 46 O 6.0522 -0.730972 -1.79918 0
M  V30 47 C 3.1822 -1.68303 -3.03795 0
M  V30 48 C 2.1362 -2.8283 -3.21234 0
M  V30 49 C 1.4622 -2.71189 -4.60826 0
M  V30 50 C 2.7622 -4.24211 -3.04701 0
M  V30 51 H 4.4562 -2.58341 -1.51328 0
M  V30 52 H 2.0022 -1.24325 -0.726585 0
M  V30 53 H 3.9552 -1.78693 -3.81637 0
M  V30 54 H 2.6792 -0.715635 -3.18663 0
M  V30 55 H 1.3382 -2.71983 -2.45807 0
M  V30 56 H 0.9862 -1.72435 -4.7252 0
M  V30 57 H 0.6862 -3.48035 -4.7344 0
M  V30 58 H 2.2102 -2.83537 -5.40777 0
M  V30 59 H 3.6242 -4.3593 -3.72341 0
M  V30 60 H 2.0212 -5.01998 -3.28813 0
M  V30 61 H 3.0912 -4.41184 -2.01209 0
M  V30 62 N 4.4343 0.785586 -1.36625 0
M  V30 63 C 5.3663 1.90711 -1.2713 0
M  V30 64 C 6.3793 1.61688 -0.189986 0
M  V30 65 O 7.5683 1.72864 -0.445014 0
M  V30 66 C 4.6683 3.25611 -0.939713 0
M  V30 67 C 3.8413 3.82385 -2.12369 0
M  V30 68 C 2.9003 4.95732 -1.76456 0
M  V30 69 O 1.9263 5.12047 -2.48589 0
M  V30 70 N 3.1283 5.76258 -0.700492 0
M  V30 71 H 5.8933 1.99376 -2.23762 0
M  V30 72 H 3.4543 0.964041 -1.30069 0
M  V30 73 H 5.4463 3.98937 -0.680554 0
M  V30 74 H 4.0163 3.12538 -0.0624074 0
M  V30 75 H 3.2363 3.01001 -2.54543 0
M  V30 76 H 4.5243 4.17047 -2.9146 0
M  V30 77 H 3.9223 5.65609 -0.101624 0
M  V30 78 H 2.4793 6.4987 -0.501165 0
M  V30 79 N 5.9124 1.20967 1.01018 0
M  V30 80 C 7.1374 1.0503 1.78839 0
M  V30 81 C 7.5624 -0.395752 1.8389 0
M  V30 82 O 6.9204 -1.28529 1.27867 0
M  V30 83 C 6.9684 1.64602 3.2084 0
M  V30 84 O 6.0724 0.887988 4.02726 0
M  V30 85 H 5.4134 0.369987 0.551367 0
M  V30 86 H 7.9434 1.60399 1.27018 0
M  V30 87 H 7.9534 1.68607 3.71532 0
M  V30 88 H 6.6284 2.69841 3.16479 0
M  V30 89 H 5.2054 0.922648 3.61305 0
M  V30 90 N 7.3905 -1.2043 1.01659 0
M  V30 91 C 8.3205 -2.25466 0.607226 0
M  V30 92 C 9.3015 -1.65853 -0.377716 0
M  V30 93 O 10.4865 -1.92409 -0.263149 0
M  V30 94 C 7.6165 -3.47256 -0.0552949 0
M  V30 95 C 6.5705 -4.19462 0.850632 0
M  V30 96 C 5.8965 -5.34673 0.0538859 0
M  V30 97 C 7.1965 -4.75603 2.15868 0
M  V30 98 H 8.8905 -2.59962 1.48526 0
M  V30 99 H 6.4365 -1.2496 0.715605 0
M  V30 100 H 8.3895 -4.19917 -0.353233 0
M  V30 101 H 7.1135 -3.11924 -0.968045 0
M  V30 102 H 5.7725 -3.48667 1.13257 0
M  V30 103 H 5.4205 -4.95585 -0.860514 0
M  V30 104 H 5.1205 -5.83913 0.657192 0
M  V30 105 H 6.6445 -6.10138 -0.237598 0
M  V30 106 H 8.0585 -5.40083 1.92311 0
M  V30 107 H 6.4555 -5.3528 2.71284 0
M  V30 108 H 7.5255 -3.94346 2.82169 0
M  V30 109 N 8.8686 -0.792821 -1.36206 0
M  V30 110 C 9.7986 -0.207853 -2.32573 0
M  V30 111 C 10.7796 0.659055 -1.56813 0
M  V30 112 O 11.9646 0.592176 -1.84951 0
M  V30 113 C 9.0946 0.655449 -3.41059 0
M  V30 114 C 8.0486 -0.111842 -4.27854 0
M  V30 115 C 7.3746 0.872274 -5.27537 0
M  V30 116 C 8.6746 -1.30299 -5.05786 0
M  V30 117 H 10.3686 -1.01294 -2.81744 0
M  V30 118 H 7.9146 -0.48854 -1.3546 0
M  V30 119 H 9.8676 1.07464 -4.07467 0
M  V30 120 H 8.5916 1.49328 -2.90463 0
M  V30 121 H 7.2506 -0.512053 -3.63006 0
M  V30 122 H 6.8986 1.70523 -4.73214 0
M  V30 123 H 6.5986 0.363291 -5.86476 0
M  V30 124 H 8.1226 1.28996 -5.96818 0
M  V30 125 H 9.5366 -0.959379 -5.65216 0
M  V30 126 H 7.9336 -1.7455 -5.74154 0
M  V30 127 H 9.0036 -2.09663 -4.37229 0
M  V30 128 N 10.3467 1.47872 -0.545128 0
M  V30 129 C 11.2767 2.32661 0.197793 0
M  V30 130 C 12.2577 1.43041 0.920504 0
M  V30 131 O 13.4427 1.71912 0.90333 0
M  V30 132 C 10.5727 3.24569 1.23582 0
M  V30 133 C 9.5267 4.23333 0.630323 0
M  V30 134 C 8.8527 5.0448 1.77211 0
M  V30 135 C 10.1527 5.20704 -0.407974 0
M  V30 136 H 11.8467 2.95024 -0.510045 0
M  V30 137 H 9.3927 1.4187 -0.246731 0
M  V30 138 H 11.3457 3.8272 1.76362 0
M  V30 139 H 10.0697 2.60236 1.97344 0
M  V30 140 H 8.7287 3.6639 0.123922 0
M  V30 141 H 8.3767 4.36561 2.49847 0
M  V30 142 H 8.0767 5.71339 1.37281 0
M  V30 143 H 9.6007 5.65487 2.3034 0
M  V30 144 H 11.0147 5.7329 0.033305 0
M  V30 145 H 9.4117 5.95699 -0.725486 0
M  V30 146 H 10.4817 4.66917 -1.30828 0
M  V30 147 N 11.8248 0.280983 1.55075 0
M  V30 148 C 12.7548 -0.597469 2.25727 0
M  V30 149 C 13.7358 -1.15417 1.24952 0
M  V30 150 O 14.9208 -1.18722 1.53684 0
M  V30 151 C 12.0508 -1.7789 2.98283 0
M  V30 152 C 11.0048 -1.35347 4.06036 0
M  V30 153 C 10.3308 -2.61846 4.66198 0
M  V30 154 C 11.6308 -0.499354 5.19907 0
M  V30 155 H 13.3248 -0.00824265 2.99399 0
M  V30 156 H 10.8708 -0.0025244 1.44 0
M  V30 157 H 12.8238 -2.39937 3.46422 0
M  V30 158 H 11.5478 -2.39405 2.22155 0
M  V30 159 H 10.2068 -0.756156 3.58717 0
M  V30 160 H 9.8548 -3.21632 3.86732 0
M  V30 161 H 9.5548 -2.3409 5.38958 0
M  V30 162 H 11.0788 -3.24732 5.1709 0
M  V30 163 H 12.4928 -1.02498 5.64063 0
M  V30 164 H 10.8898 -0.316424 5.99265 0
M  V30 165 H 11.9598 0.480459 4.82514 0
M  V30 166 N 13.3029 -1.57598 0.00835791 0
M  V30 167 C 14.5509 -1.90551 -0.6734 0
M  V30 168 C 14.8719 -0.883301 -1.73847 0
M  V30 169 O 14.1419 0.0781442 -1.95744 0
M  V30 170 H 12.7219 -0.703312 -0.251717 0
M  V30 171 H 15.3839 -1.94833 0.0512592 0
M  V30 172 H 14.4799 -2.9056 -1.13935 0
M  V30 173 N 14.781 0.264519 -1.55364 0
M  V30 174 C 16.009 1.013 -1.80405 0
M  V30 175 C 16.424 1.79618 -0.581622 0
M  V30 176 O 15.781 1.76879 0.449468 0
M  V30 177 C 15.832 1.96487 -3.03439 0
M  V30 178 O 15.553 1.21341 -4.20961 0
M  V30 179 C 17.054 2.83079 -3.41147 0
M  V30 180 H 14.274 0.298875 -0.600762 0
M  V30 181 H 16.818 0.292736 -2.02394 0
M  V30 182 H 14.973 2.63965 -2.83551 0
M  V30 183 H 15.387 1.85573 -4.90574 0
M  V30 184 H 16.861 3.4565 -4.30384 0
M  V30 185 H 17.338 3.53286 -2.60932 0
M  V30 186 H 17.944 2.2108 -3.63323 0
M  V30 187 N 16.2591 1.48442 0.529413 0
M  V30 188 C 17.5051 1.5672 1.28711 0
M  V30 189 C 17.8381 0.2406 1.92704 0
M  V30 190 O 17.1131 -0.753454 1.79313 0
M  V30 191 C 17.3961 2.70587 2.37603 0
M  V30 192 C 17.2491 4.12953 1.78297 0
M  V30 193 C 18.5681 2.80212 3.39366 0
M  V30 194 H 15.6871 0.570474 0.466613 0
M  V30 195 H 18.3291 1.80617 0.589706 0
M  V30 196 H 16.4791 2.50342 2.97088 0
M  V30 197 H 18.1511 4.44639 1.22858 0
M  V30 198 H 16.3941 4.19927 1.0883 0
M  V30 199 H 17.0651 4.88448 2.57144 0
M  V30 200 H 19.5411 2.98553 2.89836 0
M  V30 201 H 18.4171 3.61611 4.12951 0
M  V30 202 H 18.6781 1.88393 3.99951 0
M  V30 203 N 17.7372 -0.778329 1.37039 0
M  V30 204 C 18.7002 -1.87301 1.32102 0
M  V30 205 C 19.7002 -1.59198 0.226405 0
M  V30 206 O 20.8902 -1.67403 0.481861 0
M  V30 207 C 18.0222 -3.24309 1.05055 0
M  V30 208 H 19.2152 -1.93093 2.29467 0
M  V30 209 H 16.7682 -0.977358 1.21973 0
M  V30 210 H 17.5032 -3.24196 0.0819373 0
M  V30 211 H 17.2882 -3.46098 1.84279 0
M  V30 212 H 18.7782 -4.04382 1.04234 0
M  V30 213 N 19.2153 -1.21501 -1.00376 0
M  V30 214 C 20.4553 -1.04444 -1.75701 0
M  V30 215 C 20.8193 0.414644 -1.87469 0
M  V30 216 O 22.0203 0.705763 -2.59369 0
M  V30 217 C 20.2913 -1.72389 -3.13077 0
M  V30 218 S 21.8503 -1.70604 -4.04277 0
M  V30 219 H 18.6683 -0.374249 -0.604532 0
M  V30 220 H 21.2703 -1.54267 -1.20091 0
M  V30 221 H 19.9743 -2.77734 -3.02146 0
M  V30 222 H 19.5053 -1.22751 -3.73759 0
M  V30 223 H 21.5203 -0.748012 -4.9053 0
M  V30 224 N 20.6934 1.19889 -1.02296 0
M  V30 225 C 21.9184 1.9393 -0.735237 0
M  V30 226 C 22.3434 1.74639 0.698782 0
M  V30 227 O 21.7014 1.04481 1.48167 0
M  V30 228 C 21.7494 3.43916 -1.08417 0
M  V30 229 O 20.8534 4.11917 -0.199446 0
M  V30 230 H 20.1944 0.605645 -0.272196 0
M  V30 231 H 22.7244 1.52137 -1.36804 0
M  V30 232 H 22.7344 3.9456 -1.03856 0
M  V30 233 H 21.4094 3.5728 -2.12894 0
M  V30 234 H 19.9864 3.71666 -0.303136 0
M  V30 235 N 22.1715 0.800033 1.35784 0
M  V30 236 C 23.4205 0.37387 1.98205 0
M  V30 237 C 23.7335 -1.06302 1.64193 0
M  V30 238 O 24.9395 -1.59198 2.19928 0
M  V30 239 C 23.3955 0.617532 3.54562 0
M  V30 240 C 23.0035 2.06654 3.9749 0
M  V30 241 C 24.7475 0.256401 4.23725 0
M  V30 242 C 22.6545 2.2563 5.46667 0
M  V30 243 H 21.5845 0.136055 0.741623 0
M  V30 244 H 24.2355 0.983166 1.54939 0
M  V30 245 H 22.6175 -0.0616248 3.95952 0
M  V30 246 H 23.7915 2.78296 3.67271 0
M  V30 247 H 22.1065 2.38691 3.41197 0
M  V30 248 H 24.7035 0.376318 5.33374 0
M  V30 249 H 25.0465 -0.796692 4.08606 0
M  V30 250 H 25.5795 0.889214 3.87734 0
M  V30 251 H 22.3185 3.2936 5.66747 0
M  V30 252 H 21.8385 1.58504 5.78478 0
M  V30 253 H 23.5175 2.06861 6.1304 0
M  V30 254 N 23.6496 -1.47581 0.552962 0
M  V30 255 C 24.8746 -2.07378 0.0300593 0
M  V30 256 C 25.2996 -1.40355 -1.25229 0
M  V30 257 O 24.6576 -0.477099 -1.7491 0
M  V30 258 C 24.7056 -3.60274 -0.153231 0
M  V30 259 O 23.8096 -3.94041 -1.21678 0
M  V30 260 H 23.1506 -0.662158 0.0494182 0
M  V30 261 H 25.6806 -1.89662 0.767434 0
M  V30 262 H 25.6906 -4.0633 -0.368761 0
M  V30 263 H 24.3656 -4.08455 0.783397 0
M  V30 264 H 22.9426 -3.59735 -0.982079 0
M  V30 265 N 25.1277 -0.289203 -1.54924 0
M  V30 266 C 26.0907 0.579144 -2.21762 0
M  V30 267 C 27.0907 1.07047 -1.1999 0
M  V30 268 O 28.2807 0.968384 -1.44803 0
M  V30 269 C 25.4127 1.80055 -2.8947 0
M  V30 270 H 26.6057 -0.00464908 -2.999 0
M  V30 271 H 24.1587 -0.0399306 -1.56249 0
M  V30 272 H 24.8937 2.42449 -2.15381 0
M  V30 273 H 24.6787 1.45602 -3.64064 0
M  V30 274 H 26.1687 2.41773 -3.40493 0
M  V30 275 N 26.6058 1.57591 -0.0167156 0
M  V30 276 C 28.0168 1.79201 0.523834 0
M  V30 277 C 28.3678 0.925796 1.72984 0
M  V30 278 O 27.4928 0.132792 2.15992 0
M  V30 279 C 28.0878 3.25 0.957091 0
M  V30 280 C 26.6468 3.47648 1.44283 0
M  V30 281 C 25.7938 2.74374 0.401757 0
M  V30 282 H 28.7448 1.56831 -0.242816 0
M  V30 283 H 28.7658 3.34031 1.82219 0
M  V30 284 H 28.2778 3.88019 0.0791415 0
M  V30 285 H 26.3788 2.89866 2.34113 0
M  V30 286 H 26.4918 4.56352 1.45877 0
M  V30 287 H 24.8558 2.39485 0.867121 0
M  V30 288 H 25.6388 3.40102 -0.467513 0
M  V30 289 N 28.0839 -0.256276 1.55502 0
M  V30 290 C 29.0469 -1.30047 1.88734 0
M  V30 291 C 30.0469 -1.4154 0.763086 0
M  V30 292 O 31.2369 -1.40403 1.03115 0
M  V30 293 C 28.3689 -2.67953 2.10747 0
M  V30 294 H 29.5619 -1.01802 2.82093 0
M  V30 295 H 27.1149 -0.495134 1.4825 0
M  V30 296 H 27.8499 -3.01351 1.19825 0
M  V30 297 H 27.6349 -2.60993 2.92617 0
M  V30 298 H 29.1249 -3.43368 2.37673 0
M  V30 299 N 29.562 -1.4872 -0.521534 0
M  V30 300 C 30.978 -1.35028 -0.850855 0
M  V30 301 C 31.178 -0.367712 -1.98116 0
M  V30 302 O 30.234 0.208037 -2.51642 0
M  V30 303 C 31.547 -2.75263 -1.21041 0
M  V30 304 C 33.095 -2.83813 -1.31981 0
M  V30 305 C 33.57 -4.24769 -1.71276 0
M  V30 306 N 35.061 -4.27482 -1.78363 0
M  V30 307 C 35.796 -5.33494 -2.1017 0
M  V30 308 N 35.292 -6.49775 -2.40343 0
M  V30 309 N 37.085 -5.20894 -2.11248 0
M  V30 310 H 29.236 -2.11214 0.22413 0
M  V30 311 H 31.499 -0.947252 0.0376439 0
M  V30 312 H 31.205 -3.48765 -0.453415 0
M  V30 313 H 31.079 -3.09327 -2.15863 0
M  V30 314 H 33.466 -2.10561 -2.06756 0
M  V30 315 H 33.547 -2.53358 -0.352596 0
M  V30 316 H 33.191 -4.9854 -0.970588 0
M  V30 317 H 33.121 -4.52673 -2.69062 0
M  V30 318 H 35.612 -3.43611 -1.57288 0
M  V30 319 H 35.925 -7.26402 -2.63743 0
M  V30 320 H 34.27 -6.53035 -2.37844 0
M  V30 321 H 37.461 -4.29065 -1.87139 0
M  V30 322 H 37.634 -6.03612 -2.35704 0
M  V30 323 N 31.0401 0.771051 -1.3745 0
M  V30 324 C 32.2651 1.56529 -1.36065 0
M  V30 325 C 32.6901 1.88029 0.0515859 0
M  V30 326 O 32.0481 1.49282 1.02882 0
M  V30 327 C 32.0961 2.85187 -2.20683 0
M  V30 328 O 31.2001 3.79593 -1.61193 0
M  V30 329 H 30.5411 0.47411 -0.464883 0
M  V30 330 H 33.0711 0.954269 -1.80983 0
M  V30 331 H 33.0811 3.34283 -2.33921 0
M  V30 332 H 31.7561 2.61588 -3.23334 0
M  V30 333 H 30.3331 3.38239 -1.56999 0
M  V30 334 N 32.5182 1.22032 0.997298 0
M  V30 335 C 33.9292 1.0397 1.55071 0
M  V30 336 C 34.2802 -0.398192 1.92117 0
M  V30 337 O 33.4052 -1.28254 1.74298 0
M  V30 338 C 34.0002 1.88109 2.81781 0
M  V30 339 C 32.5592 1.74357 3.33581 0
M  V30 340 C 31.7062 1.84846 2.06706 0
M  V30 341 H 34.6572 1.35941 0.818883 0
M  V30 342 H 34.6782 1.39589 3.53971 0
M  V30 343 H 34.1902 2.92754 2.54787 0
M  V30 344 H 32.2912 0.72427 3.65493 0
M  V30 345 H 32.4042 2.56772 4.04481 0
M  V30 346 H 30.7682 1.28238 2.20062 0
M  V30 347 H 31.5512 2.91014 1.82114 0
M  V30 348 N 33.9963 -1.19345 1.0293 0
M  V30 349 C 35.2213 -1.93538 0.745511 0
M  V30 350 C 35.6463 -1.75007 -0.689511 0
M  V30 351 O 35.0043 -1.05265 -1.47611 0
M  V30 352 C 35.0523 -3.43336 1.10239 0
M  V30 353 O 34.1563 -4.11806 0.221289 0
M  V30 354 H 33.4973 -0.604193 0.275404 0
M  V30 355 H 36.0273 -1.5141 1.37609 0
M  V30 356 H 36.0373 -3.94004 1.05947 0
M  V30 357 H 34.7123 -3.56146 2.14786 0
M  V30 358 H 33.2893 -3.715 0.322842 0
M  V30 359 N 35.4744 -0.807222 -1.35358 0
M  V30 360 C 36.8854 -0.44876 -1.81226 0
M  V30 361 C 37.2364 1.02929 -1.67033 0
M  V30 362 O 36.3614 1.79991 -1.20133 0
M  V30 363 C 36.9564 -0.807774 -3.2903 0
M  V30 364 C 35.5154 -0.501901 -3.73039 0
M  V30 365 C 34.6624 -1.03304 -2.57339 0
M  V30 366 H 37.6134 -0.998808 -1.23327 0
M  V30 367 H 37.6344 -0.10554 -3.80354 0
M  V30 368 H 37.1464 -1.88357 -3.39328 0
M  V30 369 H 35.2474 0.565128 -3.68289 0
M  V30 370 H 35.3604 -1.03497 -4.67787 0
M  V30 371 H 33.7244 -0.455339 -2.50597 0
M  V30 372 H 34.5074 -2.11496 -2.70415 0
M  V30 373 N 36.9525 1.47285 -0.560781 0
M  V30 374 C 38.1775 2.07359 -0.0410566 0
M  V30 375 C 38.6025 1.41017 1.24483 0
M  V30 376 O 37.9605 0.486368 1.74654 0
M  V30 377 C 38.0085 3.6035 0.134123 0
M  V30 378 O 37.1125 3.94681 1.19587 0
M  V30 379 H 36.4535 0.661887 -0.0529291 0
M  V30 380 H 38.9835 1.89252 -0.777482 0
M  V30 381 H 38.9935 4.0652 0.347207 0
M  V30 382 H 37.6685 4.08034 -0.805047 0
M  V30 383 H 36.2455 3.60251 0.962987 0
M  V30 384 N 38.4306 0.297415 1.54768 0
M  V30 385 C 39.6586 -0.315623 2.04478 0
M  V30 386 C 40.0736 -1.47792 1.17486 0
M  V30 387 O 39.4306 -1.81404 0.19971 0
M  V30 388 C 39.4816 -0.7753 3.53088 0
M  V30 389 O 39.2026 0.340732 4.36773 0
M  V30 390 C 40.7036 -1.45386 4.18781 0
M  V30 391 H 37.9236 -0.0690887 0.667434 0
M  V30 392 H 40.4676 0.436003 1.99798 0
M  V30 393 H 38.6226 -1.47696 3.58141 0
M  V30 394 H 39.0366 -0.0165035 5.24497 0
M  V30 395 H 40.5106 -1.72669 5.24299 0
M  V30 396 H 40.9876 -2.39275 3.68299 0
M  V30 397 H 41.5936 -0.795475 4.17795 0
M  V30 398 N 39.9087 -1.5758 0.0250728 0
M  V30 399 C 40.8407 -2.06869 -0.986796 0
M  V30 400 C 41.8537 -0.991332 -1.29137 0
M  V30 401 O 43.0427 -1.26761 -1.25674 0
M  V30 402 C 40.1427 -2.47486 -2.31525 0
M  V30 403 C 39.3157 -3.78253 -2.19643 0
M  V30 404 C 38.3747 -4.05464 -3.35388 0
M  V30 405 O 37.4007 -4.75774 -3.12454 0
M  V30 406 N 38.6027 -3.55321 -4.59051 0
M  V30 407 H 41.3677 -2.94302 -0.566276 0
M  V30 408 H 38.9287 -1.6109 -0.161776 0
M  V30 409 H 40.9207 -2.62785 -3.07776 0
M  V30 410 H 39.4907 -1.65441 -2.65232 0
M  V30 411 H 38.7107 -3.7279 -1.28144 0
M  V30 412 H 39.9987 -4.63936 -2.08903 0
M  V30 413 H 39.3967 -2.98431 -4.80578 0
M  V30 414 H 37.9537 -3.75905 -5.32483 0
M  V30 415 N 41.3868 0.248026 -1.55636 0
M  V30 416 C 42.7978 0.817177 -1.67866 0
M  V30 417 C 43.1488 1.86069 -0.622322 0
M  V30 418 O 42.2738 2.15157 0.231618 0
M  V30 419 C 42.8688 1.489 -3.04326 0
M  V30 420 C 41.4278 2.00587 -3.185 0
M  V30 421 C 40.5748 0.856573 -2.63739 0
M  V30 422 H 43.5258 0.0238579 -1.58682 0
M  V30 423 H 43.5468 2.35698 -2.98708 0
M  V30 424 H 43.0588 0.729279 -3.81186 0
M  V30 425 H 41.1598 2.79443 -2.4646 0
M  V30 426 H 41.2728 2.20402 -4.25393 0
M  V30 427 H 39.6368 1.25678 -2.21534 0
M  V30 428 H 40.4198 0.109953 -3.43124 0
M  V30 429 N 42.8649 1.48995 0.513639 0
M  V30 430 C 44.1109 1.59053 1.26783 0
M  V30 431 C 44.4659 0.268136 1.90522 0
M  V30 432 O 43.7589 -0.730534 1.77126 0
M  V30 433 C 43.9529 2.67756 2.36731 0
M  V30 434 C 43.7819 4.10437 1.83771 0
M  V30 435 C 42.5519 4.7738 1.65639 0
M  V30 436 C 44.7499 4.9608 1.35681 0
M  V30 437 N 42.7319 6.04419 1.07476 0
M  V30 438 C 44.1029 6.13496 0.895715 0
M  V30 439 C 46.1579 4.82177 1.24136 0
M  V30 440 C 44.8609 7.1854 0.3306 0
M  V30 441 C 46.8869 5.87358 0.690229 0
M  V30 442 C 46.2489 7.03993 0.239292 0
M  V30 443 H 42.3479 0.636463 0.454355 0
M  V30 444 H 44.9319 1.85948 0.577196 0
M  V30 445 H 43.1029 2.42655 3.03271 0
M  V30 446 H 44.8349 2.67406 3.0377 0
M  V30 447 H 41.5899 4.33974 1.8964 0
M  V30 448 H 42.0139 6.72214 0.803579 0
M  V30 449 H 46.6559 3.92329 1.57601 0
M  V30 450 H 44.3739 8.08098 -0.0163435 0
M  V30 451 H 47.9599 5.78658 0.603852 0
M  V30 452 H 46.8399 7.83992 -0.180526 0
M  V30 453 N 44.343 -0.763751 1.37857 0
M  V30 454 C 45.253 -1.90817 1.36478 0
M  V30 455 C 46.269 -1.71997 0.263248 0
M  V30 456 O 47.445 -1.95095 0.499979 0
M  V30 457 C 44.51 -3.2605 1.17864 0
M  V30 458 C 43.571 -3.57467 2.3773 0
M  V30 459 C 42.804 -4.86249 2.19995 0
M  V30 460 O 43.027 -5.57884 1.18836 0
M  V30 461 O 41.961 -5.16911 3.08361 0
M  V30 462 H 45.787 -1.94933 2.32884 0
M  V30 463 H 43.372 -0.907619 1.1867 0
M  V30 464 H 45.254 -4.06924 1.09504 0
M  V30 465 H 43.929 -3.22769 0.245372 0
M  V30 466 H 42.836 -2.76796 2.51664 0
M  V30 467 H 44.169 -3.655 3.29652 0
M  V30 468 N 45.8211 -1.22559 -0.990812 0
M  V30 469 C 46.7711 -0.964807 -2.0658 0
M  V30 470 C 47.7551 0.0853472 -1.60673 0
M  V30 471 O 48.9471 -0.125443 -1.76555 0
M  V30 472 C 46.0761 -0.546707 -3.38919 0
M  V30 473 C 45.1621 -1.6317 -3.91454 0
M  V30 474 N 45.5531 -2.85985 -4.17189 0
M  V30 475 C 43.8511 -1.50387 -4.19881 0
M  V30 476 C 44.5521 -3.56159 -4.59919 0
M  V30 477 N 43.5281 -2.83637 -4.63736 0
M  V30 478 H 47.3301 -1.89769 -2.24421 0
M  V30 479 H 44.8441 -1.12343 -1.17273 0
M  V30 480 H 46.8411 -0.34119 -4.15502 0
M  V30 481 H 45.5011 0.379254 -3.22478 0
M  V30 482 H 46.5121 -3.22392 -4.05319 0
M  V30 483 H 43.1891 -0.644254 -4.12499 0
M  V30 484 H 44.5791 -4.6139 -4.88435 0
M  V30 485 N 47.2992 1.18797 -1.03562 0
M  V30 486 C 48.5452 1.8893 -0.737113 0
M  V30 487 C 48.8782 1.79837 0.732956 0
M  V30 488 O 48.1532 1.19525 1.5344 0
M  V30 489 C 48.4362 3.39607 -1.19745 0
M  V30 490 C 48.2892 3.57537 -2.72924 0
M  V30 491 C 49.6082 4.33069 -0.783526 0
M  V30 492 H 46.7272 0.686057 -0.269249 0
M  V30 493 H 49.3692 1.39797 -1.28673 0
M  V30 494 H 47.5192 3.81583 -0.729855 0
M  V30 495 H 49.1912 3.24688 -3.27682 0
M  V30 496 H 47.4342 3.00363 -3.12993 0
M  V30 497 H 48.1052 4.63238 -3.00191 0
M  V30 498 H 50.5812 3.98846 -1.18581 0
M  V30 499 H 49.4572 5.3707 -1.13343 0
M  V30 500 H 49.7182 4.40986 0.313681 0
M  V30 501 N 48.7773 0.814389 1.34928 0
M  V30 502 C 49.7253 0.218424 2.31572 0
M  V30 503 C 50.7193 -0.636128 1.57002 0
M  V30 504 O 51.9253 -0.52842 1.72069 0
M  V30 505 H 48.3003 0.0518799 0.750208 0
M  V30 506 H 50.2713 1.04852 2.79372 0
M  V30 507 C 49.0203 -0.61207 3.4227 0
M  V30 508 H 48.3433 0.0361578 3.99784 0
M  V30 509 H 49.7833 -0.995317 4.12152 0
M  V30 510 C 48.2423 -1.78087 2.85984 0
M  V30 511 O 48.7723 -2.8787 2.80168 0
M  V30 512 N 46.9783 -1.59488 2.42924 0
M  V30 513 H 46.5253 -0.701874 2.47854 0
M  V30 514 H 46.4833 -2.37846 2.05613 0
M  V30 515 N 50.2554 -1.46986 0.568584 0
M  V30 516 C 51.2184 -2.28624 -0.162366 0
M  V30 517 C 52.2184 -1.37596 -0.832103 0
M  V30 518 O 53.4084 -1.60115 -0.68622 0
M  V30 519 C 50.5404 -3.17596 -1.23878 0
M  V30 520 H 51.7334 -2.94722 0.554899 0
M  V30 521 H 49.2864 -1.52863 0.325976 0
M  V30 522 H 50.0214 -2.56214 -1.98808 0
M  V30 523 H 49.8064 -3.846 -0.763219 0
M  V30 524 H 51.2964 -3.79078 -1.75185 0
M  V30 525 N 51.7335 -0.305618 -1.54608 0
M  V30 526 C 52.9825 0.303098 -1.9941 0
M  V30 527 C 53.2955 1.54648 -1.19764 0
M  V30 528 O 54.5015 2.23007 -1.54855 0
M  V30 529 C 52.9575 0.590588 -3.55021 0
M  V30 530 C 52.5655 -0.634719 -4.43481 0
M  V30 531 C 54.3095 1.16025 -4.08336 0
M  V30 532 C 52.2165 -0.320126 -5.90533 0
M  V30 533 H 51.1465 0.117031 -0.744862 0
M  V30 534 H 53.7975 -0.415045 -1.78745 0
M  V30 535 H 52.1795 1.36845 -3.71604 0
M  V30 536 H 53.3535 -1.41079 -4.38672 0
M  V30 537 H 51.6685 -1.12333 -4.00962 0
M  V30 538 H 54.2655 1.40994 -5.15776 0
M  V30 539 H 54.6085 2.10397 -3.5922 0
M  V30 540 H 55.1415 0.443985 -3.95315 0
M  V30 541 H 51.8805 -1.23254 -6.43808 0
M  V30 542 H 51.4005 0.418579 -5.98338 0
M  V30 543 H 53.0795 0.0766241 -6.46955 0
M  V30 544 N 53.2116 1.57565 -0.0334293 0
M  V30 545 C 54.1436 2.0739 0.975811 0
M  V30 546 C 55.1566 0.998166 1.2861 0
M  V30 547 O 56.3456 1.27426 1.25 0
M  V30 548 C 53.4456 2.4871 2.30209 0
M  V30 549 C 52.6186 3.79413 2.17634 0
M  V30 550 C 51.6776 4.07237 3.33233 0
M  V30 551 O 50.7036 4.77425 3.09927 0
M  V30 552 N 51.9056 3.5775 4.5716 0
M  V30 553 H 54.6706 2.94598 0.55066 0
M  V30 554 H 52.2316 1.61173 0.15323 0
M  V30 555 H 54.2236 2.64413 3.06378 0
M  V30 556 H 52.7936 1.66845 2.64351 0
M  V30 557 H 52.0136 3.73465 1.26165 0
M  V30 558 H 53.3016 4.65038 2.0644 0
M  V30 559 H 52.6996 3.00976 4.78989 0
M  V30 560 H 51.2566 3.78724 5.30482 0
M  V30 561 N 54.6897 -0.239769 1.55765 0
M  V30 562 C 55.5997 -1.31831 1.94056 0
M  V30 563 C 56.6157 -1.52275 0.841925 0
M  V30 564 O 57.7917 -1.65759 1.14394 0
M  V30 565 C 54.8567 -2.65156 2.23368 0
M  V30 566 C 53.9177 -2.53173 3.46701 0
M  V30 567 C 53.1507 -3.8014 3.74606 0
M  V30 568 O 53.3737 -4.82343 3.04469 0
M  V30 569 O 52.3077 -3.78344 4.68123 0
M  V30 570 H 56.1337 -1.02347 2.85935 0
M  V30 571 H 53.7187 -0.441123 1.42739 0
M  V30 572 H 55.6007 -3.43929 2.43497 0
M  V30 573 H 54.2757 -2.94358 1.34666 0
M  V30 574 H 53.1827 -1.72662 3.31871 0
M  V30 575 H 54.5157 -2.28915 4.35728 0
M  V30 576 N 56.1678 -1.49265 -0.50573 0
M  V30 577 C 57.1308 -1.65075 -1.59006 0
M  V30 578 C 58.1308 -0.522768 -1.52065 0
M  V30 579 O 59.3208 -0.789117 -1.55302 0
M  V30 580 C 56.4528 -1.64369 -2.98656 0
M  V30 581 H 57.6458 -2.61784 -1.46319 0
M  V30 582 H 55.1988 -1.38226 -0.729616 0
M  V30 583 H 55.9338 -0.692272 -3.16825 0
M  V30 584 H 55.7188 -2.46282 -3.05103 0
M  V30 585 H 57.2088 -1.78674 -3.77446 0
M  V30 586 N 57.6459 0.756429 -1.3826 0
M  V30 587 C 59.0619 1.0591 -1.19395 0
M  V30 588 C 59.2619 2.01459 -0.0406567 0
M  V30 589 O 58.3179 2.44909 0.614467 0
M  V30 590 C 59.6309 1.64191 -2.51916 0
M  V30 591 C 61.1789 1.76376 -2.58574 0
M  V30 592 C 61.6539 2.38069 -3.91264 0
M  V30 593 N 63.1449 2.45503 -3.92788 0
M  V30 594 C 63.8799 2.94126 -4.92217 0
M  V30 595 N 63.3759 3.42805 -6.02043 0
M  V30 596 N 65.1689 2.9314 -4.7961 0
M  V30 597 H 57.3199 0.122313 -2.12048 0
M  V30 598 H 59.5829 0.116892 -0.940766 0
M  V30 599 H 59.2889 1.01451 -3.3675 0
M  V30 600 H 59.1629 2.6329 -2.70108 0
M  V30 601 H 61.5499 2.38244 -1.74137 0
M  V30 602 H 61.6309 0.759894 -2.44252 0
M  V30 603 H 61.2749 1.76835 -4.76121 0
M  V30 604 H 61.2049 3.39091 -4.02895 0
M  V30 605 H 63.6959 2.1107 -3.13461 0
M  V30 606 H 64.0089 3.78354 -6.73846 0
M  V30 607 H 62.3539 3.4087 -6.05667 0
M  V30 608 H 65.5449 2.54419 -3.92923 0
M  V30 609 H 65.7179 3.30721 -5.5725 0
M  V30 610 N 59.124 1.23083 0.984299 0
M  V30 611 C 60.54 0.992637 1.24975 0
M  V30 612 C 60.74 -0.308618 1.99123 0
M  V30 613 O 59.796 -1.02905 2.30579 0
M  V30 614 C 61.109 2.19698 2.05312 0
M  V30 615 C 62.657 2.24147 2.18465 0
M  V30 616 C 63.132 3.44157 3.02192 0
M  V30 617 N 64.623 3.44372 3.09777 0
M  V30 618 C 65.358 4.33886 3.74874 0
M  V30 619 N 64.854 5.3363 4.41827 0
M  V30 620 N 66.647 4.21639 3.71721 0
M  V30 621 H 58.798 2.06731 0.487453 0
M  V30 622 H 61.061 0.906339 0.277944 0
M  V30 623 H 60.767 3.1411 1.58201 0
M  V30 624 H 60.641 2.20465 3.06064 0
M  V30 625 H 63.028 1.30277 2.64786 0
M  V30 626 H 63.109 2.27415 1.17115 0
M  V30 627 H 62.753 4.38332 2.56568 0
M  V30 628 H 62.683 3.3813 4.03702 0
M  V30 629 H 65.174 2.72201 2.62135 0
M  V30 630 H 65.487 5.98196 4.89266 0
M  V30 631 H 63.832 5.37534 4.40548 0
M  V30 632 H 67.023 3.42962 3.18582 0
M  V30 633 H 67.196 4.91604 4.22173 0
M  V30 634 N 60.6021 -1.18246 1.0419 0
M  V30 635 C 61.5321 -2.24127 0.654914 0
M  V30 636 C 62.5131 -1.66617 -0.342451 0
M  V30 637 O 63.6981 -1.92924 -0.222277 0
M  V30 638 C 60.8281 -3.47295 0.0183757 0
M  V30 639 C 59.7821 -4.17563 0.939414 0
M  V30 640 C 59.1081 -5.34438 0.167286 0
M  V30 641 C 60.4081 -4.70917 2.25908 0
M  V30 642 H 62.1021 -2.56753 1.54007 0
M  V30 643 H 59.6481 -1.23414 0.74195 0
M  V30 644 H 61.6011 -4.20572 -0.264082 0
M  V30 645 H 60.3251 -3.13907 -0.901664 0
M  V30 646 H 58.9841 -3.46186 1.20628 0
M  V30 647 H 58.6321 -4.97298 -0.7552 0
M  V30 648 H 58.3321 -5.82388 0.780901 0
M  V30 649 H 59.8561 -6.10504 -0.108125 0
M  V30 650 H 61.2701 -5.35882 2.03724 0
M  V30 651 H 59.6671 -5.29406 2.82577 0
M  V30 652 H 60.7371 -3.88272 2.9047 0
M  V30 653 N 62.0802 -0.821533 -1.34494 0
M  V30 654 C 63.0102 -0.257138 -2.3208 0
M  V30 655 C 63.9912 0.625645 -1.58176 0
M  V30 656 O 65.1762 0.552811 -1.86166 0
M  V30 657 C 62.3062 0.582958 -3.42372 0
M  V30 658 C 61.2602 -0.202571 -4.2752 0
M  V30 659 C 60.5862 0.760179 -5.29269 0
M  V30 660 C 61.8862 -1.40998 -5.02908 0
M  V30 661 H 63.5802 -1.07247 -2.79532 0
M  V30 662 H 61.1262 -0.517163 -1.34393 0
M  V30 663 H 63.0792 0.987972 -4.09655 0
M  V30 664 H 61.8032 1.43133 -2.93565 0
M  V30 665 H 60.4622 -0.588936 -3.61838 0
M  V30 666 H 60.1102 1.60447 -4.76724 0
M  V30 667 H 59.8102 0.238809 -5.87115 0
M  V30 668 H 61.3342 1.16308 -5.9942 0
M  V30 669 H 62.7482 -1.07905 -5.63054 0
M  V30 670 H 61.1452 -1.86689 -5.70322 0
M  V30 671 H 62.2152 -2.1889 -4.32684 0
M  V30 672 N 63.5583 1.46682 -0.576371 0
M  V30 673 C 64.5063 2.31953 0.17335 0
M  V30 674 C 65.5003 1.44098 0.89062 0
M  V30 675 O 66.7063 1.60759 0.809728 0
M  V30 676 H 63.0813 0.748273 0.0747727 0
M  V30 677 H 65.0523 2.93007 -0.564738 0
M  V30 678 C 63.8013 3.27142 1.17786 0
M  V30 679 H 63.1243 3.94719 0.635361 0
M  V30 680 H 64.5643 3.896 1.67296 0
M  V30 681 C 63.0233 2.52036 2.23561 0
M  V30 682 O 63.5533 2.27877 3.3081 0
M  V30 683 N 61.7593 2.12709 1.97998 0
M  V30 684 H 61.3063 2.32557 1.10792 0
M  V30 685 H 61.2643 1.62776 2.68982 0
M  V30 686 N 65.0364 0.313813 1.54444 0
M  V30 687 C 65.9664 -0.549454 2.26943 0
M  V30 688 C 66.9474 -1.12741 1.27372 0
M  V30 689 O 68.1324 -1.15436 1.56167 0
M  V30 690 C 65.2624 -1.71523 3.01989 0
M  V30 691 C 64.2164 -1.26703 4.08816 0
M  V30 692 C 63.5424 -2.51898 4.71647 0
M  V30 693 C 64.8424 -0.388962 5.2085 0
M  V30 694 H 66.5364 0.0552661 2.99349 0
M  V30 695 H 64.0824 0.0280207 1.43973 0
M  V30 696 H 66.0354 -2.32535 3.51433 0
M  V30 697 H 64.7594 -2.34639 2.27183 0
M  V30 698 H 63.4184 -0.679896 3.6024 0
M  V30 699 H 63.0664 -3.13356 3.93468 0
M  V30 700 H 62.7664 -2.22605 5.43802 0
M  V30 701 H 64.2904 -3.1369 5.23861 0
M  V30 702 H 65.7044 -0.905107 5.6611 0
M  V30 703 H 64.1014 -0.18924 5.99802 0
M  V30 704 H 65.1714 0.582699 4.81386 0
M  V30 705 N 66.5145 -1.57545 0.0417849 0
M  V30 706 C 67.7395 -1.97035 -0.647455 0
M  V30 707 C 68.1645 -0.918775 -1.64135 0
M  V30 708 O 67.5225 0.119006 -1.80909 0
M  V30 709 C 67.5705 -3.35609 -1.31905 0
M  V30 710 O 66.6745 -3.3287 -2.43457 0
M  V30 711 H 66.0155 -0.64211 -0.169086 0
M  V30 712 H 68.5455 -2.04318 0.107399 0
M  V30 713 H 68.5555 -3.72126 -1.67291 0
M  V30 714 H 67.2305 -4.11685 -0.590586 0
M  V30 715 H 65.8075 -3.08087 -2.10088 0
M  V30 716 N 67.9926 0.231505 -1.5589 0
M  V30 717 C 69.4086 0.580748 -1.48659 0
M  V30 718 C 69.6086 1.87617 -0.73498 0
M  V30 719 O 68.6646 2.51046 -0.270586 0
M  V30 720 C 69.9776 0.669202 -2.93159 0
M  V30 721 C 71.5256 0.760499 -3.03621 0
M  V30 722 C 72.0006 0.880383 -4.49459 0
M  V30 723 N 73.4916 0.944861 -4.53461 0
M  V30 724 C 74.2266 1.05716 -5.63571 0
M  V30 725 N 73.7226 1.13403 -6.83456 0
M  V30 726 N 75.5156 1.09152 -5.514 0
M  V30 727 H 67.6666 -0.618695 -2.03189 0
M  V30 728 H 69.9296 -0.215728 -0.923128 0
M  V30 729 H 69.6356 -0.212904 -3.51055 0
M  V30 730 H 69.5096 1.5361 -3.44505 0
M  V30 731 H 71.8966 1.63305 -2.45796 0
M  V30 732 H 71.9776 -0.131864 -2.5546 0
M  V30 733 H 71.6216 0.0123284 -5.07899 0
M  V30 734 H 71.5516 1.78802 -4.95316 0
M  V30 735 H 74.0426 0.896176 -3.6712 0
M  V30 736 H 74.3556 1.21921 -7.63122 0
M  V30 737 H 72.7006 1.10333 -6.86186 0
M  V30 738 H 75.8916 1.02805 -4.56671 0
M  V30 739 H 76.0646 1.17558 -6.37247 0
M  V30 740 N 69.4707 1.49531 0.497807 0
M  V30 741 C 70.7477 1.49682 1.25915 0
M  V30 742 C 71.1277 0.226339 2.09883 0
M  V30 743 O 70.4757 -0.791189 2.14365 0
M  V30 744 C 70.6857 2.77755 2.11313 0
M  V30 745 C 72.0337 3.27371 2.70395 0
M  V30 746 O 73.0577 2.78894 2.21578 0
M  V30 747 O 71.9167 4.11808 3.59272 0
M  V30 748 H 69.0107 0.599228 0.56996 0
M  V30 749 H 71.5567 1.61798 0.511816 0
M  V30 750 H 70.3287 3.61713 1.49264 0
M  V30 751 H 69.9517 2.68515 2.93233 0
M  V30 752 N 70.9488 -0.749086 1.3866 0
M  V30 753 C 72.1768 -1.53834 1.38358 0
M  V30 754 C 72.5918 -1.88783 -0.0255219 0
M  V30 755 O 71.9488 -1.53101 -0.993292 0
M  V30 756 C 71.9998 -2.83468 2.2434 0
M  V30 757 O 71.7208 -2.50008 3.5976 0
M  V30 758 C 73.2218 -3.7758 2.32267 0
M  V30 759 H 70.4418 -0.47585 0.473083 0
M  V30 760 H 72.9858 -0.926726 1.82297 0
M  V30 761 H 71.1408 -3.40995 1.83851 0
M  V30 762 H 71.5548 -3.33182 4.05081 0
M  V30 763 H 73.0288 -4.65478 2.96706 0
M  V30 764 H 73.5058 -4.18334 1.33765 0
M  V30 765 H 74.1118 -3.25976 2.73166 0
M  V30 766 N 72.4269 -1.23603 -0.977757 0
M  V30 767 C 73.3899 -1.02069 -2.05218 0
M  V30 768 C 74.3899 0.0184305 -1.60789 0
M  V30 769 O 75.5799 -0.221569 -1.72785 0
M  V30 770 C 72.7119 -0.544926 -3.36517 0
M  V30 771 H 73.9049 -1.9742 -2.25755 0
M  V30 772 H 71.4579 -1.05684 -1.15155 0
M  V30 773 H 72.1929 0.412241 -3.21669 0
M  V30 774 H 71.9779 -1.2948 -3.70105 0
M  V30 775 H 73.4679 -0.414985 -4.15533 0
M  V30 776 N 73.905 1.17692 -1.04816 0
M  V30 777 C 74.868 2.19787 -0.650117 0
M  V30 778 C 75.868 1.58044 0.296427 0
M  V30 779 O 77.058 1.74012 0.0808097 0
M  V30 780 C 74.19 3.40869 0.0456987 0
M  V30 781 H 75.383 2.56516 -1.5537 0
M  V30 782 H 72.936 1.31708 -0.841594 0
M  V30 783 H 73.671 3.09681 0.962726 0
M  V30 784 H 73.456 3.86928 -0.634727 0
M  V30 785 H 74.946 4.16445 0.310432 0
M  V30 786 N 75.3831 0.828654 1.34056 0
M  V30 787 C 76.2931 0.256725 2.33191 0
M  V30 788 C 77.3091 -0.611898 1.62886 0
M  V30 789 O 78.4851 -0.51844 1.94613 0
M  V30 790 C 75.5501 -0.567238 3.42028 0
M  V30 791 C 74.6111 0.324458 4.28072 0
M  V30 792 C 73.8441 -0.460274 5.31712 0
M  V30 793 O 74.0671 -1.693 5.44696 0
M  V30 794 O 73.0011 0.160391 6.01686 0
M  V30 795 H 76.8271 1.07739 2.83947 0
M  V30 796 H 74.4121 0.59093 1.37217 0
M  V30 797 H 76.2941 -1.03582 4.08471 0
M  V30 798 H 74.9691 -1.36513 2.93506 0
M  V30 799 H 73.8761 0.840659 3.64532 0
M  V30 800 H 75.2091 1.08685 4.8005 0
M  V30 801 N 76.8612 -1.46375 0.584142 0
M  V30 802 C 77.7942 -2.27351 -0.196676 0
M  V30 803 C 78.7722 -1.35715 -0.895561 0
M  V30 804 O 79.9562 -1.65126 -0.90916 0
M  V30 805 C 77.0832 -3.13486 -1.28235 0
M  V30 806 C 76.1292 -4.20896 -0.689145 0
M  V30 807 S 76.9622 -5.33299 0.48507 0
M  V30 808 C 78.1182 -6.23 -0.601767 0
M  V30 809 H 78.3512 -2.93228 0.490395 0
M  V30 810 H 75.8842 -1.49875 0.371071 0
M  V30 811 H 77.8422 -3.63676 -1.90395 0
M  V30 812 H 76.5032 -2.4692 -1.94138 0
M  V30 813 H 75.6962 -4.80997 -1.50527 0
M  V30 814 H 75.2982 -3.73726 -0.143181 0
M  V30 815 H 77.5902 -6.60979 -1.48705 0
M  V30 816 H 78.5332 -7.0809 -0.0374799 0
M  V30 817 H 78.9412 -5.57173 -0.906557 0
M  V30 818 N 78.3393 -0.321999 -1.54275 0
M  V30 819 C 79.2873 0.560206 -2.25753 0
M  V30 820 C 80.2813 1.11984 -1.27106 0
M  V30 821 O 81.4873 1.06806 -1.44888 0
M  V30 822 H 77.8623 0.199304 -0.725108 0
M  V30 823 H 79.8333 -0.0649365 -2.98329 0
M  V30 824 C 78.5823 1.71023 -3.02731 0
M  V30 825 H 77.9053 1.28885 -3.78456 0
M  V30 826 H 79.3453 2.30314 -3.55993 0
M  V30 827 C 77.8043 2.62692 -2.10938 0
M  V30 828 O 78.3343 3.64364 -1.6912 0
M  V30 829 N 76.5403 2.30891 -1.76459 0
M  V30 830 H 76.0873 1.48253 -2.10663 0
M  V30 831 H 76.0453 2.92487 -1.1532 0
M  V30 832 N 79.8174 1.5752 -0.0501392 0
M  V30 833 C 80.7274 2.14952 0.939827 0
M  V30 834 C 81.7434 1.10706 1.34239 0
M  V30 835 O 82.9194 1.42869 1.41952 0
M  V30 836 C 79.9844 2.68232 2.19665 0
M  V30 837 C 79.0454 3.87272 1.85253 0
M  V30 838 C 78.2784 4.38002 3.04943 0
M  V30 839 O 78.5014 3.87811 4.18281 0
M  V30 840 O 77.4354 5.29602 2.86017 0
M  V30 841 H 81.2614 2.9986 0.481392 0
M  V30 842 H 78.8464 1.4841 0.171699 0
M  V30 843 H 80.7284 3.02475 2.93406 0
M  V30 844 H 79.4034 1.86395 2.64648 0
M  V30 845 H 78.3104 3.5792 1.0883 0
M  V30 846 H 79.6434 4.70336 1.4507 0
M  V30 847 N 81.2955 -0.223234 1.56011 0
M  V30 848 C 82.5235 -0.964812 1.83027 0
M  V30 849 C 82.9385 -1.78013 0.62904 0
M  V30 850 O 82.2955 -1.78008 -0.402414 0
M  V30 851 C 82.3465 -1.88373 3.08542 0
M  V30 852 O 82.0675 -1.10137 4.2403 0
M  V30 853 C 83.5685 -2.73934 3.48533 0
M  V30 854 H 80.7885 -0.282842 0.608475 0
M  V30 855 H 83.3325 -0.238971 2.03099 0
M  V30 856 H 81.4875 -2.56354 2.9045 0
M  V30 857 H 81.9015 -1.72501 4.95322 0
M  V30 858 H 83.3755 -3.34117 4.39397 0
M  V30 859 H 83.8525 -3.46244 2.70207 0
M  V30 860 H 84.4585 -2.11369 3.69057 0
M  V30 861 N 82.7736 -1.49793 -0.48987 0
M  V30 862 C 84.0196 -1.60078 -1.24511 0
M  V30 863 C 84.3526 -0.291608 -1.91998 0
M  V30 864 O 83.6276 0.705647 -1.81248 0
M  V30 865 C 83.9106 -2.76791 -2.30345 0
M  V30 866 C 83.7636 -4.17535 -1.67286 0
M  V30 867 C 85.0826 -2.89111 -3.31817 0
M  V30 868 H 82.2016 -0.582645 -0.451324 0
M  V30 869 H 84.8436 -1.82117 -0.541612 0
M  V30 870 H 82.9936 -2.5813 -2.90346 0
M  V30 871 H 84.6656 -4.4774 -1.11026 0
M  V30 872 H 82.9086 -4.22665 -0.976577 0
M  V30 873 H 83.5796 -4.95094 -2.44103 0
M  V30 874 H 86.0556 -3.06133 -2.81819 0
M  V30 875 H 84.9316 -3.72433 -4.03219 0
M  V30 876 H 85.1926 -1.9893 -3.94815 0
M  V30 877 N 84.2517 0.741722 -1.39055 0
M  V30 878 C 85.1617 1.88621 -1.39496 0
M  V30 879 C 86.1777 1.71557 -0.290578 0
M  V30 880 O 87.3537 1.94275 -0.530954 0
M  V30 881 C 84.4187 3.24134 -1.23037 0
M  V30 882 C 83.4797 3.5364 -2.43387 0
M  V30 883 C 82.7127 4.82687 -2.27703 0
M  V30 884 O 82.9357 5.55922 -1.27696 0
M  V30 885 O 81.8697 5.1194 -3.16545 0
M  V30 886 H 85.6957 1.91203 -2.35956 0
M  V30 887 H 83.2807 0.888625 -1.20099 0
M  V30 888 H 85.1627 4.0513 -1.15964 0
M  V30 889 H 83.8377 3.22337 -0.296691 0
M  V30 890 H 82.7447 2.72758 -2.56035 0
M  V30 891 H 84.0777 3.60209 -3.35425 0
M  V30 892 N 85.7298 1.2412 0.971189 0
M  V30 893 C 86.9758 1.08041 1.71625 0
M  V30 894 C 87.3088 -0.380407 1.90438 0
M  V30 895 O 86.5838 -1.28127 1.46334 0
M  V30 896 C 86.8668 1.81682 3.10908 0
M  V30 897 C 86.7198 3.35493 2.99608 0
M  V30 898 C 88.0388 1.58671 4.10501 0
M  V30 899 H 85.1578 0.39388 0.622919 0
M  V30 900 H 87.7998 1.52743 1.13003 0
M  V30 901 H 85.9498 1.43684 3.60953 0
M  V30 902 H 87.6218 3.83068 2.57015 0
M  V30 903 H 85.8648 3.64052 2.35899 0
M  V30 904 H 86.5358 3.82217 3.98264 0
M  V30 905 H 89.0118 1.91719 3.69301 0
M  V30 906 H 87.8878 2.1266 5.06031 0
M  V30 907 H 88.1488 0.524161 4.38982 0
M  V30 908 N 87.2079 -1.17134 1.05439 0
M  V30 909 C 88.4569 -1.86791 0.761049 0
M  V30 910 C 88.7699 -1.82072 -0.714795 0
M  V30 911 O 89.9759 -2.47223 -1.12218 0
M  V30 912 C 88.4319 -3.35166 1.31117 0
M  V30 913 C 88.0399 -3.48381 2.81664 0
M  V30 914 C 89.7839 -4.10134 1.09499 0
M  V30 915 C 87.6909 -4.90793 3.29964 0
M  V30 916 H 86.6209 -0.699681 0.281002 0
M  V30 917 H 89.2719 -1.3226 1.27199 0
M  V30 918 H 87.6539 -3.8925 0.72803 0
M  V30 919 H 88.8279 -3.04502 3.45855 0
M  V30 920 H 87.1429 -2.86836 3.01851 0
M  V30 921 H 89.7399 -5.152 1.43084 0
M  V30 922 H 90.0829 -4.16287 0.0328772 0
M  V30 923 H 90.6159 -3.62264 1.64346 0
M  V30 924 H 87.3549 -4.89816 4.35616 0
M  V30 925 H 86.8749 -5.35333 2.70516 0
M  V30 926 H 88.5539 -5.59573 3.24787 0
M  V30 927 N 88.686 -0.835752 -1.33615 0
M  V30 928 C 89.911 -0.442389 -2.02627 0
M  V30 929 C 90.336 0.947735 -1.62479 0
M  V30 930 O 89.694 1.61907 -0.815826 0
M  V30 931 C 89.742 -0.567216 -3.56111 0
M  V30 932 O 88.846 0.407799 -4.10379 0
M  V30 933 H 88.187 -0.180278 -0.639059 0
M  V30 934 H 90.717 -1.12972 -1.70583 0
M  V30 935 H 90.727 -0.447708 -4.05536 0
M  V30 936 H 89.402 -1.58103 -3.84677 0
M  V30 937 H 87.979 0.246107 -3.72087 0
M  V30 938 N 90.1641 1.46063 -0.591896 0
M  V30 939 C 91.0741 2.34192 0.13831 0
M  V30 940 C 92.0901 1.50305 0.876608 0
M  V30 941 O 93.2661 1.8315 0.837728 0
M  V30 942 C 90.3311 3.27656 1.13326 0
M  V30 943 C 89.3921 4.27445 0.39863 0
M  V30 944 C 88.6251 5.16443 1.34618 0
M  V30 945 O 88.8481 5.08553 2.58321 0
M  V30 946 O 87.7821 5.95843 0.851768 0
M  V30 947 H 91.6081 2.98002 -0.58552 0
M  V30 948 H 89.1931 1.45188 -0.352239 0
M  V30 949 H 91.0751 3.85291 1.70671 0
M  V30 950 H 89.7501 2.6643 1.83839 0
M  V30 951 H 88.6571 3.73471 -0.216895 0
M  V30 952 H 89.9901 4.91482 -0.265709 0
M  V30 953 N 91.6422 0.330177 1.54103 0
M  V30 954 C 92.5752 -0.575477 2.20825 0
M  V30 955 C 93.5532 -1.11064 1.18758 0
M  V30 956 O 94.7372 -1.17341 1.47524 0
M  V30 957 C 91.8642 -1.79032 2.87516 0
M  V30 958 C 90.9102 -1.38581 4.03358 0
M  V30 959 S 91.7432 -0.416911 5.33875 0
M  V30 960 C 92.8992 -1.63889 6.04062 0
M  V30 961 H 93.1322 -0.00872114 2.97299 0
M  V30 962 H 90.6652 0.114254 1.53977 0
M  V30 963 H 92.6232 -2.48734 3.2656 0
M  V30 964 H 91.2842 -2.32827 2.10832 0
M  V30 965 H 90.4772 -2.29123 4.48908 0
M  V30 966 H 90.0792 -0.768419 3.66021 0
M  V30 967 H 92.3712 -2.57536 6.26643 0
M  V30 968 H 93.3142 -1.22542 6.97416 0
M  V30 969 H 93.7222 -1.82887 5.34053 0
M  V30 970 N 93.1203 -1.57491 0.0584922 0
M  V30 971 C 94.3673 -1.92978 -0.613648 0
M  V30 972 C 94.6953 -0.937461 -1.70417 0
M  V30 973 O 93.9503 0.049078 -1.95638 0
M  V30 974 C 94.2493 -3.3513 -1.24188 0
M  V30 975 C 93.9153 -4.50037 -0.278826 0
M  V30 976 C 92.5773 -4.81198 -0.0138447 0
M  V30 977 C 94.9293 -5.19807 0.380777 0
M  V30 978 C 92.2573 -5.79473 0.918052 0
M  V30 979 C 94.6093 -6.19079 1.30091 0
M  V30 980 C 93.2733 -6.48665 1.57449 0
M  V30 981 H 92.5433 -0.706157 -0.22455 0
M  V30 982 H 95.1903 -1.91082 0.126533 0
M  V30 983 H 93.4953 -3.33429 -2.05749 0
M  V30 984 H 95.1923 -3.59871 -1.769 0
M  V30 985 H 91.7823 -4.25726 -0.495539 0
M  V30 986 H 95.9663 -4.95939 0.189158 0
M  V30 987 H 91.2223 -6.00727 1.1374 0
M  V30 988 H 95.3963 -6.7225 1.81804 0
M  V30 989 H 93.0233 -7.24628 2.29822 0
M  V30 990 N 94.5984 0.214957 -1.56127 0
M  V30 991 C 95.8754 0.963093 -1.70247 0
M  V30 992 C 96.2554 2.02166 -0.60764 0
M  V30 993 O 95.6034 2.25244 0.384385 0
M  V30 994 C 95.8134 1.56756 -3.11815 0
M  V30 995 C 97.1614 2.0573 -3.7143 0
M  V30 996 O 98.1854 1.66637 -3.14818 0
M  V30 997 O 97.0444 2.77603 -4.70743 0
M  V30 998 H 94.1384 0.450321 -0.693643 0
M  V30 999 H 96.6844 0.206219 -1.68442 0
M  V30 1000 H 95.4564 0.803533 -3.82961 0
M  V30 1001 H 95.0794 2.3898 -3.17765 0
M  V30 1002 N 96.0765 1.50051 0.48192 0
M  V30 1003 C 97.0065 1.71046 1.58951 0
M  V30 1004 C 97.9875 0.559288 1.60642 0
M  V30 1005 O 99.1725 0.797243 1.77081 0
M  V30 1006 C 96.3025 1.79462 2.97339 0
M  V30 1007 C 95.2565 2.94558 3.10515 0
M  V30 1008 C 94.5825 2.88105 4.50444 0
M  V30 1009 C 95.8825 4.35227 2.88747 0
M  V30 1010 H 97.5765 2.6378 1.41635 0
M  V30 1011 H 95.1225 1.26936 0.679942 0
M  V30 1012 H 97.0755 1.92734 3.74742 0
M  V30 1013 H 95.7995 0.833412 3.15788 0
M  V30 1014 H 94.4585 2.80918 2.35543 0
M  V30 1015 H 94.1065 1.89853 4.65795 0
M  V30 1016 H 93.8065 3.65366 4.60197 0
M  V30 1017 H 95.3305 3.03412 5.29881 0
M  V30 1018 H 96.7445 4.49449 3.55905 0
M  V30 1019 H 95.1415 5.13856 3.09955 0
M  V30 1020 H 96.2115 4.48347 1.84696 0
M  V30 1021 N 97.5546 -0.734337 1.39446 0
M  V30 1022 C 98.4866 -1.85861 1.34121 0
M  V30 1023 C 99.4996 -1.60871 0.249864 0
M  V30 1024 O 100.689 -1.71093 0.508865 0
M  V30 1025 C 97.7886 -3.21899 1.05991 0
M  V30 1026 C 96.9616 -3.74239 2.26415 0
M  V30 1027 C 96.0206 -4.88841 1.94733 0
M  V30 1028 O 95.0466 -5.02468 2.67422 0
M  V30 1029 N 96.2486 -5.73261 0.913884 0
M  V30 1030 H 99.0136 -1.90934 2.31007 0
M  V30 1031 H 96.5746 -0.915102 1.33557 0
M  V30 1032 H 98.5666 -3.96136 0.828147 0
M  V30 1033 H 97.1366 -3.12091 0.178361 0
M  V30 1034 H 96.3566 -2.91347 2.65539 0
M  V30 1035 H 97.6446 -4.05942 3.06738 0
M  V30 1036 H 97.0426 -5.64842 0.311476 0
M  V30 1037 H 95.5996 -6.47563 0.742015 0
M  V30 1038 N 99.0327 -1.24633 -0.964593 0
M  V30 1039 C 99.9427 -1.05859 -2.09359 0
M  V30 1040 C 100.959 0.00148855 -1.74 0
M  V30 1041 O 102.135 -0.197346 -2.00431 0
M  V30 1042 C 99.1997 -0.668879 -3.40187 0
M  V30 1043 C 98.2607 -1.80578 -3.89474 0
M  V30 1044 C 97.4937 -1.43457 -5.14058 0
M  V30 1045 O 97.7167 -0.325775 -5.69469 0
M  V30 1046 O 96.6507 -2.2613 -5.57807 0
M  V30 1047 H 100.477 -2.00516 -2.28094 0
M  V30 1048 H 98.0617 -1.03481 -1.0776 0
M  V30 1049 H 99.9437 -0.463211 -4.18846 0
M  V30 1050 H 98.6187 0.248536 -3.22744 0
M  V30 1051 H 97.5257 -2.06623 -3.11862 0
M  V30 1052 H 98.8587 -2.70208 -4.11398 0
M  V30 1053 N 100.511 1.16574 -1.06058 0
M  V30 1054 C 101.922 1.68662 -0.800632 0
M  V30 1055 C 102.273 1.84184 0.67608 0
M  V30 1056 O 101.398 1.53568 1.52466 0
M  V30 1057 C 101.993 3.06356 -1.44676 0
M  V30 1058 C 100.552 3.55575 -1.23465 0
M  V30 1059 C 99.6988 2.31616 -1.52477 0
M  V30 1060 H 102.65 1.00969 -1.22438 0
M  V30 1061 H 102.671 3.70636 -0.860788 0
M  V30 1062 H 102.183 2.95027 -2.52152 0
M  V30 1063 H 100.284 3.72167 -0.179527 0
M  V30 1064 H 100.397 4.37812 -1.94571 0
M  V30 1065 H 98.7608 2.36512 -0.945209 0
M  V30 1066 H 99.5438 2.22887 -2.61106 0
M  V30 1067 N 101.989 0.842826 1.3317 0
M  V30 1068 C 103.217 0.454055 2.01856 0
M  V30 1069 C 103.632 -0.94587 1.63397 0
M  V30 1070 O 102.989 -1.61534 0.849302 0
M  V30 1071 C 103.04 0.569715 3.56982 0
M  V30 1072 O 102.761 1.91448 3.94055 0
M  V30 1073 C 104.262 0.178412 4.42941 0
M  V30 1074 H 101.482 0.17979 0.646465 0
M  V30 1075 H 104.026 1.1365 1.70012 0
M  V30 1076 H 102.181 -0.0648587 3.87346 0
M  V30 1077 H 102.595 1.90282 4.88767 0
M  V30 1078 H 104.069 0.310376 5.51127 0
M  V30 1079 H 104.546 -0.880056 4.30293 0
M  V30 1080 H 105.152 0.787579 4.17944 0
M  V30 1081 N 103.467 -1.45747 0.599634 0
M  V30 1082 C 104.707 -2.04181 0.0946309 0
M  V30 1083 C 105.071 -1.45895 -1.24815 0
M  V30 1084 O 106.272 -1.95633 -1.8434 0
M  V30 1085 C 104.543 -3.57368 0.047581 0
M  V30 1086 S 106.102 -4.36997 -0.397387 0
M  V30 1087 H 102.92 -0.70953 0.0456954 0
M  V30 1088 H 105.522 -1.78564 0.795946 0
M  V30 1089 H 104.226 -3.97303 1.02852 0
M  V30 1090 H 103.757 -3.87549 -0.675977 0
M  V30 1091 H 105.772 -4.68012 -1.64862 0
M  V30 1092 N 104.945 -0.338344 -1.53925 0
M  V30 1093 C 105.875 0.51328 -2.27789 0
M  V30 1094 C 106.856 1.107 -1.29149 0
M  V30 1095 O 108.041 1.12937 -1.57984 0
M  V30 1096 C 105.171 1.66697 -3.04679 0
M  V30 1097 C 104.125 1.20183 -4.1078 0
M  V30 1098 C 103.451 2.44363 -4.75595 0
M  V30 1099 C 104.751 0.30605 -5.21403 0
M  V30 1100 H 106.445 -0.102883 -2.99223 0
M  V30 1101 H 103.991 -0.0509219 -1.4391 0
M  V30 1102 H 105.944 2.26915 -3.55088 0
M  V30 1103 H 104.668 2.30995 -2.30887 0
M  V30 1104 H 103.327 0.622499 -3.61276 0
M  V30 1105 H 102.975 3.07057 -3.98403 0
M  V30 1106 H 102.675 2.13925 -5.47275 0
M  V30 1107 H 104.199 3.05317 -5.28786 0
M  V30 1108 H 105.613 0.814929 -5.67478 0
M  V30 1109 H 104.01 0.0937929 -6.00027 0
M  V30 1110 H 105.08 -0.65921 -4.80398 0
M  V30 1111 N 106.423 1.57458 -0.0668435 0
M  V30 1112 C 107.355 2.09413 0.931601 0
M  V30 1113 C 108.368 1.02522 1.26464 0
M  V30 1114 O 109.557 1.30049 1.22269 0
M  V30 1115 C 106.657 2.53537 2.24882 0
M  V30 1116 C 105.83 3.83944 2.09537 0
M  V30 1117 C 104.889 4.14214 3.2452 0
M  V30 1118 O 103.915 4.83891 2.9973 0
M  V30 1119 N 105.117 3.67367 4.49469 0
M  V30 1120 H 107.882 2.95699 0.488048 0
M  V30 1121 H 105.443 1.61462 0.119009 0
M  V30 1122 H 107.435 2.70853 3.00701 0
M  V30 1123 H 106.005 1.72415 2.60753 0
M  V30 1124 H 105.225 3.76057 1.18215 0
M  V30 1125 H 106.513 4.69312 1.96529 0
M  V30 1126 H 105.911 3.11068 4.72497 0
M  V30 1127 H 104.468 3.89891 5.2233 0
M  V30 1128 N 107.901 -0.206675 1.56239 0
M  V30 1129 C 109.129 -0.945345 1.8404 0
M  V30 1130 C 109.544 -1.77336 0.647885 0
M  V30 1131 O 108.901 -1.78425 -0.383511 0
M  V30 1132 C 108.952 -1.8509 3.10522 0
M  V30 1133 O 108.673 -1.05634 4.25174 0
M  V30 1134 C 110.174 -2.70222 3.51418 0
M  V30 1135 H 107.394 -0.276372 0.61144 0
M  V30 1136 H 109.938 -0.217417 2.03341 0
M  V30 1137 H 108.093 -2.53259 2.93153 0
M  V30 1138 H 108.507 -1.67238 4.97124 0
M  V30 1139 H 109.981 -3.29438 4.42916 0
M  V30 1140 H 110.458 -3.43358 2.73864 0
M  V30 1141 H 111.064 -2.07443 3.71278 0
M  V30 1142 N 109.379 -1.50304 -0.473955 0
M  V30 1143 C 110.795 -1.37667 -0.807466 0
M  V30 1144 C 110.995 -0.430555 -1.96846 0
M  V30 1145 O 110.051 0.127874 -2.52176 0
M  V30 1146 C 111.364 -2.78974 -1.12223 0
M  V30 1147 C 112.912 -2.87868 -1.22885 0
M  V30 1148 C 113.387 -4.30003 -1.57676 0
M  V30 1149 N 114.878 -4.3294 -1.64673 0
M  V30 1150 C 115.613 -5.3991 -1.93091 0
M  V30 1151 N 115.109 -6.57092 -2.1955 0
M  V30 1152 N 116.902 -5.27351 -1.94569 0
M  V30 1153 H 109.053 -2.10394 0.291212 0
M  V30 1154 H 111.316 -0.945575 0.0677609 0
M  V30 1155 H 111.022 -3.50031 -0.342229 0
M  V30 1156 H 110.896 -3.16038 -2.05913 0
M  V30 1157 H 113.283 -2.17032 -1.99953 0
M  V30 1158 H 113.364 -2.54352 -0.271814 0
M  V30 1159 H 113.008 -5.01375 -0.81149 0
M  V30 1160 H 112.938 -4.61004 -2.54525 0
M  V30 1161 H 115.429 -3.48441 -1.46277 0
M  V30 1162 H 115.742 -7.34425 -2.405 0
M  V30 1163 H 114.087 -6.60272 -2.16948 0
M  V30 1164 H 117.278 -4.34801 -1.73394 0
M  V30 1165 H 117.451 -6.10805 -2.16381 0
M  V30 1166 N 110.857 0.726932 -1.39834 0
M  V30 1167 C 111.787 1.85405 -1.41941 0
M  V30 1168 C 112.768 1.67751 -0.281728 0
M  V30 1169 O 113.953 1.8795 -0.488717 0
M  V30 1170 C 111.083 3.23243 -1.2701 0
M  V30 1171 C 110.037 3.55549 -2.38262 0
M  V30 1172 C 109.363 4.9241 -2.08415 0
M  V30 1173 C 110.663 3.577 -3.80589 0
M  V30 1174 H 112.357 1.83899 -2.36266 0
M  V30 1175 H 109.903 0.883349 -1.13723 0
M  V30 1176 H 111.856 4.01775 -1.27103 0
M  V30 1177 H 110.58 3.25296 -0.291564 0
M  V30 1178 H 109.239 2.79351 -2.37399 0
M  V30 1179 H 108.887 4.91052 -1.0898 0
M  V30 1180 H 108.587 5.14992 -2.82943 0
M  V30 1181 H 110.111 5.73289 -2.10171 0
M  V30 1182 H 111.525 4.26293 -3.83337 0
M  V30 1183 H 109.922 3.91804 -4.54543 0
M  V30 1184 H 110.992 2.57328 -4.10987 0
M  V30 1185 N 112.336 1.25143 0.95797 0
M  V30 1186 C 113.246 1.06968 2.08794 0
M  V30 1187 C 114.262 0.00773911 1.73998 0
M  V30 1188 O 115.438 0.207972 2.00323 0
M  V30 1189 C 112.503 0.68691 3.39827 0
M  V30 1190 C 111.564 1.82641 3.88511 0
M  V30 1191 C 110.797 1.46181 5.1329 0
M  V30 1192 O 111.02 0.355971 5.69288 0
M  V30 1193 O 109.954 2.29085 5.566 0
M  V30 1194 H 113.78 2.01723 2.27027 0
M  V30 1195 H 111.365 1.04051 1.07209 0
M  V30 1196 H 113.247 0.485417 4.18595 0
M  V30 1197 H 111.922 -0.231417 3.22872 0
M  V30 1198 H 110.829 2.08274 3.10762 0
M  V30 1199 H 112.162 2.72386 4.09959 0
M  V30 1200 N 113.814 -1.1601 1.06675 0
M  V30 1201 C 114.744 -2.22688 0.702307 0
M  V30 1202 C 115.725 -1.67306 -0.307032 0
M  V30 1203 O 116.91 -1.93352 -0.181305 0
M  V30 1204 C 114.04 -3.47178 0.092038 0
M  V30 1205 C 112.994 -4.15477 1.02777 0
M  V30 1206 C 112.32 -5.33963 0.28061 0
M  V30 1207 C 113.62 -4.66019 2.35846 0
M  V30 1208 H 115.314 -2.53429 1.59419 0
M  V30 1209 H 112.86 -1.21813 0.767961 0
M  V30 1210 H 114.813 -4.21037 -0.174814 0
M  V30 1211 H 113.537 -3.15749 -0.834877 0
M  V30 1212 H 112.196 -3.43549 1.27944 0
M  V30 1213 H 111.844 -4.98788 -0.649545 0
M  V30 1214 H 111.544 -5.806 0.904258 0
M  V30 1215 H 113.068 -6.10596 0.021396 0
M  V30 1216 H 114.482 -5.3144 2.15045 0
M  V30 1217 H 112.879 -5.23293 2.93743 0
M  V30 1218 H 113.949 -3.82023 2.98641 0
M  V30 1219 N 115.292 -0.849877 -1.32721 0
M  V30 1220 C 116.522 -0.46408 -2.0132 0
M  V30 1221 C 116.93 0.94246 -1.64056 0
M  V30 1222 O 116.273 1.6257 -0.855379 0
M  V30 1223 C 116.335 -0.517887 -3.5575 0
M  V30 1224 C 115.999 -1.88248 -4.16427 0
M  V30 1225 C 116.996 -2.84726 -4.35002 0
M  V30 1226 C 114.681 -2.17832 -4.52609 0
M  V30 1227 C 116.675 -4.08945 -4.8892 0
M  V30 1228 C 114.362 -3.42304 -5.06232 0
M  V30 1229 C 115.36 -4.37677 -5.24335 0
M  V30 1230 O 115.048 -5.59946 -5.76815 0
M  V30 1231 H 114.78 -0.181327 -0.651227 0
M  V30 1232 H 117.334 -1.14713 -1.70382 0
M  V30 1233 H 115.564 0.221997 -3.86062 0
M  V30 1234 H 117.253 -0.148366 -4.05629 0
M  V30 1235 H 118.019 -2.63174 -4.07388 0
M  V30 1236 H 113.898 -1.44385 -4.37806 0
M  V30 1237 H 117.442 -4.83396 -5.02966 0
M  V30 1238 H 113.339 -3.63709 -5.33278 0
M  V30 1239 H 114.107 -5.61838 -5.95214 0
M  V30 1240 N 116.77 1.45427 -0.607355 0
M  V30 1241 C 117.717 2.3053 0.111625 0
M  V30 1242 C 118.687 1.4209 0.860216 0
M  V30 1243 O 119.872 1.71019 0.845998 0
M  V30 1244 C 117.012 3.26992 1.10319 0
M  V30 1245 C 116.125 4.30535 0.355493 0
M  V30 1246 C 115.26 5.14105 1.33676 0
M  V30 1247 C 114.299 6.09376 0.576862 0
M  V30 1248 N 113.436 6.85727 1.5074 0
M  V30 1249 H 118.276 2.91477 -0.620093 0
M  V30 1250 H 115.813 1.43631 -0.317594 0
M  V30 1251 H 117.771 3.81385 1.6912 0
M  V30 1252 H 116.401 2.67799 1.80232 0
M  V30 1253 H 115.453 3.78805 -0.348023 0
M  V30 1254 H 116.765 4.98235 -0.237423 0
M  V30 1255 H 115.919 5.72897 1.99684 0
M  V30 1256 H 114.658 4.46423 1.9636 0
M  V30 1257 H 113.663 5.49715 -0.0968519 0
M  V30 1258 H 114.888 6.79085 -0.0449341 0
M  V30 1259 H 112.834 6.20735 2.12189 0
M  V30 1260 H 112.751 7.49778 0.967913 0
M  V30 1261 H 114.019 7.4906 2.15706 0
M  V30 1262 N 118.248 0.346503 1.53744 0
M  V30 1263 C 119.18 -0.543316 2.22667 0
M  V30 1264 C 120.193 -1.06159 1.23427 0
M  V30 1265 O 121.382 -0.971235 1.49764 0
M  V30 1266 C 118.482 -1.76076 2.89569 0
M  V30 1267 C 117.655 -1.37727 4.15151 0
M  V30 1268 C 116.714 -2.45471 4.65436 0
M  V30 1269 O 115.74 -2.08655 5.29577 0
M  V30 1270 N 116.942 -3.7677 4.41616 0
M  V30 1271 H 119.707 0.0469703 2.99663 0
M  V30 1272 H 117.268 0.170766 1.60997 0
M  V30 1273 H 119.26 -2.47593 3.20125 0
M  V30 1274 H 117.83 -2.25835 2.16142 0
M  V30 1275 H 117.05 -0.492746 3.91108 0
M  V30 1276 H 118.338 -1.09708 4.96832 0
M  V30 1277 H 117.736 -4.09467 3.90325 0
M  V30 1278 H 116.293 -4.44448 4.7677 0
M  V30 1279 N 119.726 -1.57421 0.075193 0
M  V30 1280 C 120.974 -1.93236 -0.591974 0
M  V30 1281 C 121.295 -0.956241 -1.69944 0
M  V30 1282 O 120.565 -0.00494792 -1.95899 0
M  V30 1283 H 119.145 -0.713355 -0.22166 0
M  V30 1284 H 121.807 -1.9444 0.133848 0
M  V30 1285 H 120.903 -2.95131 -1.01509 0
M  V30 1286 N 121.204 0.198386 -1.56346 0
M  V30 1287 C 122.134 1.24865 -1.9731 0
M  V30 1288 C 123.115 1.47651 -0.844576 0
M  V30 1289 O 124.3 1.59444 -1.10866 0
M  V30 1290 C 121.43 2.59358 -2.30977 0
M  V30 1291 C 120.384 2.5119 -3.46537 0
M  V30 1292 C 119.71 3.89926 -3.65871 0
M  V30 1293 C 121.01 2.03977 -4.80823 0
M  V30 1294 H 122.704 0.908252 -2.85291 0
M  V30 1295 H 120.25 0.435462 -1.37258 0
M  V30 1296 H 122.203 3.33011 -2.58228 0
M  V30 1297 H 120.927 2.95132 -1.39874 0
M  V30 1298 H 119.586 1.79993 -3.19371 0
M  V30 1299 H 119.234 4.23046 -2.72105 0
M  V30 1300 H 118.934 3.85336 -4.4361 0
M  V30 1301 H 120.458 4.65205 -3.95495 0
M  V30 1302 H 121.872 2.67386 -5.07127 0
M  V30 1303 H 120.269 2.10397 -5.62008 0
M  V30 1304 H 121.339 0.992861 -4.74626 0
M  V30 1305 N 122.682 1.50554 0.465978 0
M  V30 1306 C 124.098 1.38093 0.800154 0
M  V30 1307 C 124.298 0.440988 1.96615 0
M  V30 1308 O 123.354 -0.114499 2.5224 0
M  V30 1309 C 124.667 2.79565 1.10742 0
M  V30 1310 C 126.215 2.88516 1.21357 0
M  V30 1311 C 126.69 4.30833 1.55393 0
M  V30 1312 N 128.181 4.33807 1.62375 0
M  V30 1313 C 128.916 5.40927 1.90225 0
M  V30 1314 N 128.412 6.58247 2.16062 0
M  V30 1315 N 130.205 5.28376 1.9177 0
M  V30 1316 H 122.356 2.10237 -0.302366 0
M  V30 1317 H 124.619 0.945203 -0.0727746 0
M  V30 1318 H 124.325 3.50208 0.323661 0
M  V30 1319 H 124.199 3.17125 2.04234 0
M  V30 1320 H 126.586 2.1809 1.98799 0
M  V30 1321 H 126.667 2.54492 0.258321 0
M  V30 1322 H 126.311 5.01799 0.784889 0
M  V30 1323 H 126.241 4.62347 2.52076 0
M  V30 1324 H 128.732 3.49212 1.44427 0
M  V30 1325 H 129.045 7.3569 2.36601 0
M  V30 1326 H 127.39 6.61413 2.13444 0
M  V30 1327 H 130.581 4.35715 1.71085 0
M  V30 1328 H 130.754 6.11944 2.13139 0
M  V30 1329 N 124.16 -0.719506 1.40217 0
M  V30 1330 C 125.408 -1.47641 1.3801 0
M  V30 1331 C 125.729 -1.94992 -0.018145 0
M  V30 1332 O 124.999 -1.70073 -0.972207 0
M  V30 1333 H 123.579 -0.547744 0.507923 0
M  V30 1334 H 126.241 -0.853187 1.75233 0
M  V30 1335 H 125.337 -2.35112 2.05253 0
M  V30 1336 N 125.638 -1.25649 -0.95132 0
M  V30 1337 C 126.863 -1.13443 -1.73624 0
M  V30 1338 C 127.288 0.307565 -1.85568 0
M  V30 1339 O 126.646 1.22282 -1.33854 0
M  V30 1340 C 126.694 -1.79723 -3.12621 0
M  V30 1341 O 125.798 -1.07912 -3.98031 0
M  V30 1342 H 125.139 -0.395872 -0.533086 0
M  V30 1343 H 127.669 -1.66276 -1.1922 0
M  V30 1344 H 127.679 -1.86141 -3.63064 0
M  V30 1345 H 126.354 -2.84633 -3.03244 0
M  V30 1346 H 124.931 -1.09398 -3.56492 0
M  V30 1347 N 127.117 1.15442 -1.07289 0
M  V30 1348 C 128.047 2.22312 -0.714107 0
M  V30 1349 C 129.028 1.67467 0.298155 0
M  V30 1350 O 130.213 1.93445 0.171048 0
M  V30 1351 C 127.343 3.47124 -0.110448 0
M  V30 1352 C 126.297 4.14926 -1.04979 0
M  V30 1353 C 125.623 5.33807 -0.308924 0
M  V30 1354 C 126.923 4.64762 -2.38314 0
M  V30 1355 H 128.617 2.5258 -1.6076 0
M  V30 1356 H 126.163 1.21404 -0.77441 0
M  V30 1357 H 128.116 4.21124 0.152482 0
M  V30 1358 H 126.84 3.16187 0.81812 0
M  V30 1359 H 125.499 3.42866 -1.29764 0
M  V30 1360 H 125.147 4.99126 0.623084 0
M  V30 1361 H 124.847 5.80113 -0.935036 0
M  V30 1362 H 126.371 6.10576 -0.0537771 0
M  V30 1363 H 127.785 5.30292 -2.1786 0
M  V30 1364 H 126.182 5.21728 -2.96514 0
M  V30 1365 H 127.252 3.80434 -3.00663 0
M  V30 1366 N 128.595 0.856903 1.32268 0
M  V30 1367 C 129.823 0.475439 2.01363 0
M  V30 1368 C 130.238 -0.928486 1.64392 0
M  V30 1369 O 129.595 -1.60624 0.866387 0
M  V30 1370 C 129.646 0.607545 3.56358 0
M  V30 1371 O 129.367 1.95617 3.92002 0
M  V30 1372 C 130.868 0.225382 4.42727 0
M  V30 1373 H 128.088 0.186636 0.644521 0
M  V30 1374 H 130.632 1.15446 1.68797 0
M  V30 1375 H 128.787 -0.0237719 3.87393 0
M  V30 1376 H 129.201 1.95455 4.86721 0
M  V30 1377 H 130.675 0.368813 5.50767 0
M  V30 1378 H 131.152 -0.834369 4.31202 0
M  V30 1379 H 131.758 0.831864 4.17085 0
M  V30 1380 N 130.073 -1.45103 0.615059 0
M  V30 1381 C 131.02 -2.30586 -0.0993978 0
M  V30 1382 C 131.99 -1.42544 -0.852669 0
M  V30 1383 O 133.175 -1.71465 -0.836917 0
M  V30 1384 C 130.315 -3.27572 -1.08583 0
M  V30 1385 C 129.428 -4.30717 -0.332656 0
M  V30 1386 C 128.563 -5.14807 -1.30947 0
M  V30 1387 C 127.602 -6.09673 -0.544538 0
M  V30 1388 N 126.739 -6.86517 -1.47101 0
M  V30 1389 H 131.579 -2.91144 0.635542 0
M  V30 1390 H 129.116 -1.4346 0.325206 0
M  V30 1391 H 131.074 -3.82276 -1.67095 0
M  V30 1392 H 129.704 -2.68751 -1.78809 0
M  V30 1393 H 128.756 -3.78615 0.368107 0
M  V30 1394 H 130.068 -4.98102 0.263842 0
M  V30 1395 H 129.222 -5.73948 -1.96643 0
M  V30 1396 H 127.961 -4.47458 -1.9399 0
M  V30 1397 H 126.966 -5.49656 0.126003 0
M  V30 1398 H 128.191 -6.79052 0.080947 0
M  V30 1399 H 126.137 -6.21851 -2.08895 0
M  V30 1400 H 126.054 -7.50281 -0.928137 0
M  V30 1401 H 127.322 -7.50194 -2.11731 0
M  V30 1402 N 131.551 -0.354651 -1.53558 0
M  V30 1403 C 132.481 0.489091 -2.2832 0
M  V30 1404 C 133.462 1.09324 -1.30316 0
M  V30 1405 O 134.647 1.11255 -1.59173 0
M  V30 1406 C 131.777 1.63456 -3.0643 0
M  V30 1407 C 130.731 1.1582 -4.12031 0
M  V30 1408 C 130.057 2.39305 -4.7816 0
M  V30 1409 C 131.357 0.250731 -5.21698 0
M  V30 1410 H 133.051 -0.134614 -2.99097 0
M  V30 1411 H 130.597 -0.0661826 -1.43848 0
M  V30 1412 H 132.55 2.23136 -3.57475 0
M  V30 1413 H 131.274 2.28533 -2.33325 0
M  V30 1414 H 129.933 0.584146 -3.61916 0
M  V30 1415 H 129.581 3.02814 -4.01637 0
M  V30 1416 H 129.281 2.08109 -5.49513 0
M  V30 1417 H 130.805 2.99691 -5.31994 0
M  V30 1418 H 132.219 0.754695 -5.68311 0
M  V30 1419 H 130.616 0.0301468 -6.00092 0
M  V30 1420 H 131.686 -0.710125 -4.79672 0
M  V30 1421 N 133.029 1.57378 -0.0835403 0
M  V30 1422 C 133.976 2.13384 0.879539 0
M  V30 1423 C 134.946 1.04936 1.28754 0
M  V30 1424 O 136.131 1.32662 1.37133 0
M  V30 1425 C 133.271 2.70932 2.13752 0
M  V30 1426 C 132.384 3.93575 1.7811 0
M  V30 1427 C 131.519 4.39326 2.98607 0
M  V30 1428 C 130.558 5.54587 2.59037 0
M  V30 1429 N 129.695 5.95243 3.72331 0
M  V30 1430 H 134.535 2.9537 0.395076 0
M  V30 1431 H 132.072 1.45953 0.183349 0
M  V30 1432 H 134.03 3.02411 2.87408 0
M  V30 1433 H 132.66 1.91693 2.59718 0
M  V30 1434 H 131.712 3.68483 0.94469 0
M  V30 1435 H 133.024 4.77258 1.45005 0
M  V30 1436 H 132.178 4.72528 3.80529 0
M  V30 1437 H 130.917 3.5452 3.34913 0
M  V30 1438 H 129.922 5.21024 1.75539 0
M  V30 1439 H 131.147 6.41133 2.23887 0
M  V30 1440 H 129.093 5.13385 4.08378 0
M  V30 1441 H 129.01 6.73694 3.43034 0
M  V30 1442 H 130.278 6.33072 4.54797 0
M  V30 1443 N 134.507 -0.190092 1.56449 0
M  V30 1444 C 135.755 -0.907908 1.80559 0
M  V30 1445 C 136.076 -1.83583 0.657438 0
M  V30 1446 O 135.346 -1.93203 -0.323924 0
M  V30 1447 H 133.926 -0.338247 0.666032 0
M  V30 1448 H 136.588 -0.194403 1.93928 0
M  V30 1449 H 135.684 -1.49604 2.73907 0
M  V30 1450 N 135.985 -1.50799 -0.457987 0
M  V30 1451 C 137.396 -1.55152 -1.0385 0
M  V30 1452 C 137.747 -0.362719 -1.92818 0
M  V30 1453 O 136.872 0.522915 -2.09987 0
M  V30 1454 C 137.467 -2.81173 -1.89017 0
M  V30 1455 C 136.026 -2.88164 -2.42154 0
M  V30 1456 C 135.173 -2.49591 -1.20829 0
M  V30 1457 H 138.124 -1.56874 -0.240068 0
M  V30 1458 H 138.145 -2.63769 -2.74238 0
M  V30 1459 H 137.657 -3.67677 -1.24238 0
M  V30 1460 H 135.758 -2.06042 -3.10447 0
M  V30 1461 H 135.871 -3.91356 -2.76364 0
M  V30 1462 H 134.235 -2.02322 -1.54719 0
M  V30 1463 H 135.018 -3.38418 -0.576927 0
M  V30 1464 N 137.463 0.71206 -1.40597 0
M  V30 1465 C 138.393 1.83889 -1.43899 0
M  V30 1466 C 139.374 1.67442 -0.299504 0
M  V30 1467 O 140.559 1.87421 -0.508624 0
M  V30 1468 C 137.689 3.21877 -1.30431 0
M  V30 1469 C 136.643 3.53002 -2.42019 0
M  V30 1470 C 135.969 4.90172 -2.13626 0
M  V30 1471 C 137.269 3.53643 -3.84362 0
M  V30 1472 H 138.963 1.81383 -2.38203 0
M  V30 1473 H 136.509 0.871237 -1.14654 0
M  V30 1474 H 138.462 4.00404 -1.31357 0
M  V30 1475 H 137.186 3.24968 -0.326049 0
M  V30 1476 H 135.845 2.76818 -2.40349 0
M  V30 1477 H 135.493 4.89869 -1.14182 0
M  V30 1478 H 135.193 5.11962 -2.88389 0
M  V30 1479 H 136.717 5.71028 -2.1624 0
M  V30 1480 H 138.131 4.22203 -3.87837 0
M  V30 1481 H 136.528 3.86961 -4.58673 0
M  V30 1482 H 137.598 2.52954 -4.13693 0
M  V30 1483 N 138.941 1.26152 0.944643 0
M  V30 1484 C 140.169 1.14259 1.72489 0
M  V30 1485 C 140.584 -0.302555 1.8636 0
M  V30 1486 O 139.941 -1.20741 1.36849 0
M  V30 1487 C 139.992 1.80266 3.13347 0
M  V30 1488 O 139.713 3.19133 3.00143 0
M  V30 1489 C 141.214 1.74283 4.07603 0
M  V30 1490 H 138.434 0.398051 0.540181 0
M  V30 1491 H 140.978 1.66706 1.18446 0
M  V30 1492 H 139.133 1.31766 3.64303 0
M  V30 1493 H 139.547 3.51744 3.89071 0
M  V30 1494 H 141.021 2.25111 5.04013 0
M  V30 1495 H 141.498 0.708631 4.33446 0
M  V30 1496 H 142.104 2.22319 3.62567 0
M  V30 1497 N 140.419 -1.14872 1.07899 0
M  V30 1498 C 141.352 -2.18794 0.64841 0
M  V30 1499 C 142.33 -1.59065 -0.337189 0
M  V30 1500 O 143.514 -1.86936 -0.242284 0
M  V30 1501 C 140.641 -3.38667 -0.0470417 0
M  V30 1502 C 139.687 -4.16942 0.897884 0
M  V30 1503 S 140.52 -4.78615 2.40183 0
M  V30 1504 C 141.676 -6.0185 1.71834 0
M  V30 1505 H 141.909 -2.5498 1.52881 0
M  V30 1506 H 139.442 -1.25922 0.893484 0
M  V30 1507 H 141.4 -4.08113 -0.442027 0
M  V30 1508 H 140.061 -3.00814 -0.903861 0
M  V30 1509 H 139.254 -5.02726 0.358096 0
M  V30 1510 H 138.856 -3.53073 1.23352 0
M  V30 1511 H 141.148 -6.69574 1.03328 0
M  V30 1512 H 142.091 -6.60408 2.55473 0
M  V30 1513 H 142.499 -5.5173 1.19392 0
M  V30 1514 N 141.898 -0.863906 -1.31812 0
M  V30 1515 C 142.831 -0.259963 -2.26714 0
M  V30 1516 C 143.809 0.607392 -1.50829 0
M  V30 1517 O 144.993 0.562155 -1.79922 0
M  V30 1518 C 142.12 0.632456 -3.32743 0
M  V30 1519 C 141.166 -0.162743 -4.26189 0
M  V30 1520 S 141.999 -1.53726 -5.12961 0
M  V30 1521 C 143.155 -0.650803 -6.22507 0
M  V30 1522 H 143.388 -1.06445 -2.77591 0
M  V30 1523 H 140.921 -0.662071 -1.39485 0
M  V30 1524 H 142.879 1.14167 -3.94305 0
M  V30 1525 H 141.54 1.41083 -2.80632 0
M  V30 1526 H 140.733 0.517366 -5.01338 0
M  V30 1527 H 140.335 -0.60385 -3.69093 0
M  V30 1528 H 142.627 0.141134 -6.77353 0
M  V30 1529 H 143.57 -1.37322 -6.94657 0
M  V30 1530 H 143.978 -0.221041 -5.64067 0
M  V30 1531 N 143.376 1.44774 -0.622745 0
M  V30 1532 C 144.339 2.29069 0.0774015 0
M  V30 1533 C 145.339 1.4059 0.780461 0
M  V30 1534 O 146.529 1.62551 0.626322 0
M  V30 1535 C 143.661 3.21974 1.12006 0
M  V30 1536 H 144.854 2.92459 -0.663901 0
M  V30 1537 H 142.407 1.51548 -0.382486 0
M  V30 1538 H 143.142 2.63417 1.89162 0
M  V30 1539 H 142.927 3.87168 0.619951 0
M  V30 1540 H 144.417 3.85318 1.60995 0
M  V30 1541 N 144.854 0.36279 1.53368 0
M  V30 1542 C 146.079 -0.231226 2.06107 0
M  V30 1543 C 146.504 -1.419 1.23474 0
M  V30 1544 O 145.862 -1.79524 0.253128 0
M  V30 1545 C 145.91 -0.605523 3.5548 0
M  V30 1546 O 145.014 -1.70312 3.7559 0
M  V30 1547 H 144.355 -0.034327 0.663112 0
M  V30 1548 H 146.885 0.522584 1.97814 0
M  V30 1549 H 146.895 -0.877314 3.98456 0
M  V30 1550 H 145.57 0.263004 4.15068 0
M  V30 1551 H 144.147 -1.4271 3.44512 0
M  V30 1552 N 146.332 -1.57332 0.0918853 0
M  V30 1553 C 147.282 -2.10385 -0.87876 0
M  V30 1554 C 148.266 -1.01814 -1.24591 0
M  V30 1555 O 149.458 -1.28093 -1.22152 0
M  V30 1556 C 146.587 -2.68517 -2.13901 0
M  V30 1557 C 145.673 -3.84126 -1.79744 0
M  V30 1558 N 146.064 -4.92288 -1.1613 0
M  V30 1559 C 144.362 -3.93801 -2.09373 0
M  V30 1560 C 145.063 -5.7295 -1.00513 0
M  V30 1561 N 144.039 -5.21876 -1.5214 0
M  V30 1562 H 147.841 -2.91395 -0.38293 0
M  V30 1563 H 145.355 -1.62017 -0.111423 0
M  V30 1564 H 147.352 -3.04852 -2.84378 0
M  V30 1565 H 146.012 -1.88961 -2.64053 0
M  V30 1566 H 147.023 -5.1123 -0.828504 0
M  V30 1567 H 143.7 -3.25249 -2.61762 0
M  V30 1568 H 145.09 -6.69978 -0.507902 0
M  V30 1569 N 147.81 0.181792 -1.56548 0
M  V30 1570 C 149.04 0.914618 -1.85252 0
M  V30 1571 C 149.448 1.76791 -0.673914 0
M  V30 1572 O 148.791 1.80009 0.366416 0
M  V30 1573 C 148.853 1.85019 -3.08234 0
M  V30 1574 C 148.517 1.17754 -4.41569 0
M  V30 1575 C 149.514 0.548035 -5.17003 0
M  V30 1576 C 147.199 1.17742 -4.88305 0
M  V30 1577 C 149.193 -0.0726128 -6.37359 0
M  V30 1578 C 146.88 0.552946 -6.08593 0
M  V30 1579 C 147.878 -0.070978 -6.82963 0
M  V30 1580 O 147.566 -0.685635 -8.00971 0
M  V30 1581 H 147.298 0.271695 -0.618998 0
M  V30 1582 H 149.852 0.189944 -2.0452 0
M  V30 1583 H 148.082 2.61491 -2.84885 0
M  V30 1584 H 149.771 2.45195 -3.23472 0
M  V30 1585 H 150.537 0.540174 -4.81982 0
M  V30 1586 H 146.416 1.65246 -4.30366 0
M  V30 1587 H 149.96 -0.560213 -6.95347 0
M  V30 1588 H 145.857 0.558354 -6.43081 0
M  V30 1589 H 146.625 -0.58385 -8.16415 0
M  V30 1590 N 149.288 1.51039 0.449983 0
M  V30 1591 C 150.235 1.71439 1.54523 0
M  V30 1592 C 151.205 0.555871 1.56522 0
M  V30 1593 O 152.39 0.788871 1.73728 0
M  V30 1594 C 149.53 1.83384 2.92343 0
M  V30 1595 C 148.643 3.10873 2.9997 0
M  V30 1596 C 147.778 3.13488 4.28834 0
M  V30 1597 C 146.817 4.35343 4.30282 0
M  V30 1598 N 145.954 4.35579 5.5065 0
M  V30 1599 H 150.794 2.64934 1.36433 0
M  V30 1600 H 148.331 1.31312 0.662982 0
M  V30 1601 H 150.289 1.88291 3.72293 0
M  V30 1602 H 148.919 0.933086 3.0902 0
M  V30 1603 H 147.971 3.15336 2.12761 0
M  V30 1604 H 149.283 4.00814 2.96901 0
M  V30 1605 H 148.437 3.17241 5.17149 0
M  V30 1606 H 147.176 2.21414 4.34543 0
M  V30 1607 H 146.181 4.3178 3.40362 0
M  V30 1608 H 147.406 5.28668 4.26248 0
M  V30 1609 H 145.352 3.46369 5.57104 0
M  V30 1610 H 145.269 5.19313 5.49409 0
M  V30 1611 H 146.537 4.43507 6.41032 0
M  V30 1612 N 150.766 -0.704594 1.40972 0
M  V30 1613 C 151.698 -1.82974 1.38033 0
M  V30 1614 C 152.711 -1.60305 0.283931 0
M  V30 1615 O 153.9 -1.69975 0.545042 0
M  V30 1616 C 151 -3.19578 1.12795 0
M  V30 1617 C 150.173 -3.69352 2.34302 0
M  V30 1618 C 149.232 -4.84601 2.05058 0
M  V30 1619 O 148.258 -4.96682 2.7802 0
M  V30 1620 N 149.46 -5.71194 1.03528 0
M  V30 1621 H 152.225 -1.85991 2.35005 0
M  V30 1622 H 149.786 -0.886567 1.35468 0
M  V30 1623 H 151.778 -3.9429 0.911987 0
M  V30 1624 H 150.348 -3.11642 0.24452 0
M  V30 1625 H 149.568 -2.85649 2.71659 0
M  V30 1626 H 150.856 -3.99345 3.1528 0
M  V30 1627 H 150.254 -5.64054 0.431217 0
M  V30 1628 H 148.811 -6.45843 0.879205 0
M  V30 1629 N 152.244 -1.26651 -0.937939 0
M  V30 1630 C 153.194 -1.05156 -2.02302 0
M  V30 1631 C 154.178 0.0171233 -1.60891 0
M  V30 1632 O 155.37 -0.200213 -1.75864 0
M  V30 1633 C 152.499 -0.689962 -3.36295 0
M  V30 1634 C 151.585 -1.79626 -3.84181 0
M  V30 1635 N 151.976 -3.03422 -4.04684 0
M  V30 1636 C 150.274 -1.6806 -4.13124 0
M  V30 1637 C 150.975 -3.75345 -4.444 0
M  V30 1638 N 149.951 -3.03051 -4.51288 0
M  V30 1639 H 153.753 -1.99117 -2.1617 0
M  V30 1640 H 151.267 -1.17216 -1.12402 0
M  V30 1641 H 153.264 -0.517112 -4.13681 0
M  V30 1642 H 151.924 0.242139 -3.23796 0
M  V30 1643 H 152.935 -3.39293 -3.91281 0
M  V30 1644 H 149.612 -0.818629 -4.09396 0
M  V30 1645 H 151.002 -4.81691 -4.68427 0
M  V30 1646 N 153.722 1.14298 -1.08507 0
M  V30 1647 C 154.962 1.87016 -0.824894 0
M  V30 1648 C 155.326 1.81099 0.637735 0
M  V30 1649 O 156.527 2.48963 1.01345 0
M  V30 1650 C 154.798 3.31584 -1.33368 0
M  V30 1651 S 156.357 4.21903 -1.20596 0
M  V30 1652 H 153.175 0.645259 -0.2986 0
M  V30 1653 H 155.777 1.37822 -1.38656 0
M  V30 1654 H 154.481 3.33439 -2.39262 0
M  V30 1655 H 154.012 3.85836 -0.767734 0
M  V30 1656 H 156.027 4.95971 -0.150891 0
M  V30 1657 N 155.201 0.870884 1.31352 0
M  V30 1658 C 156.612 0.534714 1.78879 0
M  V30 1659 C 156.963 -0.948423 1.71754 0
M  V30 1660 O 156.088 -1.74055 1.28584 0
M  V30 1661 C 156.683 0.963839 3.24801 0
M  V30 1662 C 155.242 0.679311 3.70219 0
M  V30 1663 C 154.389 1.15465 2.52117 0
M  V30 1664 H 157.34 1.05651 1.18421 0
M  V30 1665 H 157.361 0.286892 3.79417 0
M  V30 1666 H 156.873 2.04332 3.29955 0
M  V30 1667 H 154.974 -0.388769 3.70566 0
M  V30 1668 H 155.087 1.25698 4.62317 0
M  V30 1669 H 153.451 0.574383 2.48139 0
M  V30 1670 H 154.234 2.24157 2.60016 0
M  V30 1671 N 156.679 -1.44442 0.630414 0
M  V30 1672 C 158.09 -1.85434 0.217063 0
M  V30 1673 C 158.441 -1.52748 -1.23136 0
M  V30 1674 O 157.566 -0.965205 -1.93682 0
M  V30 1675 C 158.161 -3.36581 0.387168 0
M  V30 1676 C 156.72 -3.76389 0.0283297 0
M  V30 1677 C 155.867 -2.68296 0.700889 0
M  V30 1678 H 158.818 -1.34919 0.83562 0
M  V30 1679 H 158.839 -3.78657 -0.374086 0
M  V30 1680 H 158.351 -3.60339 1.44144 0
M  V30 1681 H 156.452 -3.58246 -1.02423 0
M  V30 1682 H 156.565 -4.77095 0.437892 0
M  V30 1683 H 154.929 -2.54335 0.136267 0
M  V30 1684 H 155.712 -2.94887 1.75774 0
M  V30 1685 N 158.157 -0.370918 -1.53173 0
M  V30 1686 C 159.385 0.217704 -2.05751 0
M  V30 1687 C 159.8 1.42018 -1.24404 0
M  V30 1688 O 159.157 1.80245 -0.286033 0
M  V30 1689 C 159.208 0.605954 -3.56385 0
M  V30 1690 O 158.929 -0.548734 -4.3465 0
M  V30 1691 C 160.43 1.2524 -4.25241 0
M  V30 1692 H 157.65 0.0371659 -0.66997 0
M  V30 1693 H 160.194 -0.530832 -1.9749 0
M  V30 1694 H 158.349 1.3044 -3.6478 0
M  V30 1695 H 158.763 -0.23376 -5.23979 0
M  V30 1696 H 160.237 1.47458 -5.3194 0
M  V30 1697 H 160.714 2.2143 -3.79296 0
M  V30 1698 H 161.32 0.595233 -4.21114 0
M  V30 1699 N 159.635 1.57281 -0.100228 0
M  V30 1700 C 161.046 1.81725 0.428107 0
M  V30 1701 C 161.397 1.01619 1.67833 0
M  V30 1702 O 160.522 0.247098 2.14985 0
M  V30 1703 C 161.117 3.29617 0.78347 0
M  V30 1704 C 159.676 3.54808 1.25653 0
M  V30 1705 C 158.823 2.76118 0.255752 0
M  V30 1706 H 161.774 1.55324 -0.325608 0
M  V30 1707 H 161.795 3.4322 1.64256 0
M  V30 1708 H 161.307 3.87893 -0.12665 0
M  V30 1709 H 159.408 3.01868 2.18418 0
M  V30 1710 H 159.521 4.63443 1.21482 0
M  V30 1711 H 157.885 2.43745 0.738956 0
M  V30 1712 H 158.668 3.37145 -0.647136 0
M  V30 1713 N 161.113 -0.173488 1.56642 0
M  V30 1714 C 162.023 -1.23482 1.99473 0
M  V30 1715 C 163.039 -1.48567 0.905752 0
M  V30 1716 O 164.215 -1.60758 1.21321 0
M  V30 1717 C 161.28 -2.55444 2.34413 0
M  V30 1718 C 160.341 -2.38241 3.57127 0
M  V30 1719 C 159.574 -3.63909 3.90392 0
M  V30 1720 O 159.797 -4.68996 3.24653 0
M  V30 1721 O 158.731 -3.58149 4.83749 0
M  V30 1722 H 162.557 -0.901279 2.90018 0
M  V30 1723 H 160.142 -0.380185 1.44482 0
M  V30 1724 H 162.024 -3.33292 2.57865 0
M  V30 1725 H 160.699 -2.88382 1.4703 0
M  V30 1726 H 159.606 -1.58431 3.38896 0
M  V30 1727 H 160.939 -2.10228 4.45045 0
M  V30 1728 N 162.591 -1.51276 -0.441967 0
M  V30 1729 C 163.819 -1.67516 -1.21434 0
M  V30 1730 C 164.234 -0.37055 -1.85128 0
M  V30 1731 O 163.591 0.650498 -1.70513 0
M  V30 1732 C 163.642 -2.78748 -2.30177 0
M  V30 1733 O 163.363 -4.04154 -1.69089 0
M  V30 1734 C 164.864 -3.06217 -3.20541 0
M  V30 1735 H 162.084 -0.562276 -0.366178 0
M  V30 1736 H 164.628 -1.97666 -0.524244 0
M  V30 1737 H 162.783 -2.5121 -2.94911 0
M  V30 1738 H 163.197 -4.65894 -2.40922 0
M  V30 1739 H 164.671 -3.8764 -3.92987 0
M  V30 1740 H 165.148 -2.18439 -3.81026 0
M  V30 1741 H 165.754 -3.35397 -2.61513 0
M  V30 1742 N 164.069 0.697108 -1.41344 0
M  V30 1743 C 165.294 1.49096 -1.44171 0
M  V30 1744 C 165.719 1.88038 -0.0481568 0
M  V30 1745 O 165.077 1.54525 0.948243 0
M  V30 1746 C 165.125 2.73088 -2.3549 0
M  V30 1747 O 164.229 3.70514 -1.81088 0
M  V30 1748 H 163.57 0.448801 -0.489361 0
M  V30 1749 H 166.1 0.856992 -1.85787 0
M  V30 1750 H 166.11 3.21413 -2.51312 0
M  V30 1751 H 164.785 2.44081 -3.36745 0
M  V30 1752 H 163.362 3.29441 -1.74708 0
M  V30 1753 N 165.547 1.27147 0.931209 0
M  V30 1754 C 166.787 1.14511 1.69312 0
M  V30 1755 C 167.151 -0.304638 1.89568 0
M  V30 1756 O 168.352 -0.553343 2.63043 0
M  V30 1757 C 166.623 1.90349 3.02493 0
M  V30 1758 S 168.182 1.93884 3.93642 0
M  V30 1759 H 165 0.408858 0.581684 0
M  V30 1760 H 167.602 1.61006 1.10893 0
M  V30 1761 H 166.306 2.94877 2.85439 0
M  V30 1762 H 165.837 1.44333 3.65966 0
M  V30 1763 H 167.852 1.03273 4.85334 0
M  V30 1764 N 167.025 -1.13721 1.09112 0
M  V30 1765 C 167.988 -2.17222 0.731241 0
M  V30 1766 C 168.988 -1.59035 -0.237566 0
M  V30 1767 O 170.178 -1.74192 -0.0161704 0
M  V30 1768 C 167.31 -3.40804 0.0808443 0
M  V30 1769 H 168.503 -2.50573 1.64783 0
M  V30 1770 H 166.056 -1.28493 0.889897 0
M  V30 1771 H 166.791 -3.1304 -0.847127 0
M  V30 1772 H 166.576 -3.84306 0.777896 0
M  V30 1773 H 168.066 -4.1731 -0.155657 0
M  V30 1774 N 168.503 -0.877838 -1.30888 0
M  V30 1775 C 169.731 -0.507414 -2.00581 0
M  V30 1776 C 170.146 0.902216 -1.65848 0
M  V30 1777 O 169.503 1.59225 -0.891831 0
M  V30 1778 C 169.554 -0.664162 -3.55347 0
M  V30 1779 O 169.275 -2.01829 -3.8884 0
M  V30 1780 C 170.776 -0.295787 -4.42312 0
M  V30 1781 H 167.996 -0.196866 -0.641471 0
M  V30 1782 H 170.54 -1.18117 -1.66939 0
M  V30 1783 H 168.695 -0.0378619 -3.87381 0
M  V30 1784 H 169.109 -2.03174 -4.8355 0
M  V30 1785 H 170.583 -0.456388 -5.5011 0
M  V30 1786 H 171.06 0.765663 -4.32475 0
M  V30 1787 H 171.666 -0.898113 -4.15709 0
M  V30 1788 N 169.982 1.44106 -0.638065 0
M  V30 1789 C 170.914 2.28976 0.101205 0
M  V30 1790 C 171.927 1.4167 0.802088 0
M  V30 1791 O 173.116 1.65755 0.662375 0
M  V30 1792 C 170.216 3.18217 1.16581 0
M  V30 1793 C 169.389 4.33978 0.546066 0
M  V30 1794 C 168.448 5.04202 1.50554 0
M  V30 1795 O 167.474 5.59986 1.01999 0
M  V30 1796 N 168.676 5.06296 2.8398 0
M  V30 1797 H 171.441 2.93064 -0.627186 0
M  V30 1798 H 169.002 1.54629 -0.479731 0
M  V30 1799 H 170.994 3.62061 1.80815 0
M  V30 1800 H 169.564 2.55833 1.79634 0
M  V30 1801 H 168.784 3.93239 -0.275046 0
M  V30 1802 H 170.072 5.08675 0.112793 0
M  V30 1803 H 169.47 4.62319 3.26002 0
M  V30 1804 H 168.027 5.53907 3.43556 0
M  V30 1805 N 171.46 0.379036 1.52974 0
M  V30 1806 C 172.709 -0.207612 2.00629 0
M  V30 1807 C 173.022 -1.48758 1.27006 0
M  V30 1808 O 174.228 -2.15365 1.65318 0
M  V30 1809 C 172.684 -0.42053 3.57435 0
M  V30 1810 C 172.292 0.845587 4.39948 0
M  V30 1811 C 174.036 -0.964102 4.13407 0
M  V30 1812 C 171.943 0.601513 5.88333 0
M  V30 1813 H 170.873 -0.0813591 0.749598 0
M  V30 1814 H 173.524 0.499853 1.76561 0
M  V30 1815 H 171.906 -1.18959 3.7771 0
M  V30 1816 H 173.08 1.61848 4.31442 0
M  V30 1817 H 171.395 1.31336 3.95145 0
M  V30 1818 H 173.992 -1.16225 5.21916 0
M  V30 1819 H 174.335 -1.93019 3.68849 0
M  V30 1820 H 174.868 -0.25487 3.96983 0
M  V30 1821 H 171.607 1.53831 6.37194 0
M  V30 1822 H 171.127 -0.132628 5.99653 0
M  V30 1823 H 172.806 0.232134 6.46583 0
M  V30 1824 N 172.938 -1.57226 0.108567 0
M  V30 1825 C 174.187 -1.94008 -0.551703 0
M  V30 1826 C 174.5 -0.993442 -1.68494 0
M  V30 1827 O 175.706 -1.25551 -2.40726 0
M  V30 1828 C 174.162 -3.44763 -1.03279 0
M  V30 1829 C 173.77 -4.47943 0.0714193 0
M  V30 1830 C 175.514 -3.90483 -1.66503 0
M  V30 1831 C 173.421 -5.89865 -0.425779 0
M  V30 1832 H 172.351 -0.724206 -0.209863 0
M  V30 1833 H 175.002 -1.82547 0.186741 0
M  V30 1834 H 173.384 -3.51422 -1.82533 0
M  V30 1835 H 174.558 -4.52942 0.847365 0
M  V30 1836 H 172.873 -4.11913 0.609669 0
M  V30 1837 H 175.47 -4.93925 -2.04798 0
M  V30 1838 H 175.813 -3.29877 -2.53942 0
M  V30 1839 H 176.346 -3.86581 -0.938074 0
M  V30 1840 H 173.085 -6.54202 0.412316 0
M  V30 1841 H 172.605 -5.88309 -1.16843 0
M  V30 1842 H 174.284 -6.40844 -0.890397 0
M  V30 1843 N 174.416 0.165178 -1.56732 0
M  V30 1844 C 175.644 0.896218 -1.86482 0
M  V30 1845 C 176.059 1.75555 -0.694675 0
M  V30 1846 O 175.416 1.79379 0.33607 0
M  V30 1847 C 175.467 1.76792 -3.1532 0
M  V30 1848 O 175.188 0.943239 -4.27825 0
M  V30 1849 C 176.689 2.6081 -3.58459 0
M  V30 1850 H 173.909 0.260064 -0.618553 0
M  V30 1851 H 176.453 0.163428 -2.03846 0
M  V30 1852 H 174.608 2.45398 -2.99764 0
M  V30 1853 H 175.022 1.53998 -5.01383 0
M  V30 1854 H 176.496 3.17579 -4.51495 0
M  V30 1855 H 176.973 3.35977 -2.82872 0
M  V30 1856 H 177.579 1.97526 -3.76648 0
M  V30 1857 N 175.894 1.51508 0.433938 0
M  V30 1858 C 177.141 1.64345 1.18309 0
M  V30 1859 C 177.469 0.361315 1.91115 0
M  V30 1860 O 176.724 -0.654753 1.84422 0
M  V30 1861 C 177.023 2.79928 2.22205 0
M  V30 1862 C 176.689 4.19078 1.66387 0
M  V30 1863 C 175.351 4.56932 1.50887 0
M  V30 1864 C 177.703 5.05894 1.25381 0
M  V30 1865 C 175.031 5.79305 0.928608 0
M  V30 1866 C 177.383 6.2885 0.687823 0
M  V30 1867 C 176.047 6.65473 0.519755 0
M  V30 1868 H 175.317 0.601381 0.432923 0
M  V30 1869 H 177.964 1.85549 0.473676 0
M  V30 1870 H 176.269 2.52959 2.99197 0
M  V30 1871 H 177.966 2.87059 2.79997 0
M  V30 1872 H 174.556 3.89234 1.79428 0
M  V30 1873 H 178.74 4.77253 1.36175 0
M  V30 1874 H 173.996 6.06324 0.786186 0
M  V30 1875 H 178.17 6.95461 0.361581 0
M  V30 1876 H 175.797 7.6017 0.0679979 0
M  V30 1877 N 177.372 -0.689602 1.41712 0
M  V30 1878 C 178.282 -1.83314 1.46401 0
M  V30 1879 C 179.298 -1.7036 0.35405 0
M  V30 1880 O 180.474 -1.92171 0.602692 0
M  V30 1881 C 177.539 -3.19344 1.34982 0
M  V30 1882 C 176.6 -3.44363 2.56344 0
M  V30 1883 C 175.833 -4.73904 2.45461 0
M  V30 1884 O 176.056 -5.508 1.48241 0
M  V30 1885 O 174.99 -4.99839 3.35328 0
M  V30 1886 H 178.816 -1.82314 2.42889 0
M  V30 1887 H 176.401 -0.843438 1.23315 0
M  V30 1888 H 178.283 -4.00547 1.3092 0
M  V30 1889 H 176.958 -3.21014 0.41612 0
M  V30 1890 H 175.865 -2.63067 2.65982 0
M  V30 1891 H 177.198 -3.47512 3.48563 0
M  V30 1892 N 178.85 -1.27639 -0.924453 0
M  V30 1893 C 180.075 -1.17101 -1.71179 0
M  V30 1894 C 180.5 0.268134 -1.86179 0
M  V30 1895 O 179.858 1.19415 -1.36418 0
M  V30 1896 C 179.906 -1.86313 -3.08739 0
M  V30 1897 O 179.01 -1.16331 -3.95652 0
M  V30 1898 H 178.351 -0.407091 -0.524569 0
M  V30 1899 H 180.881 -1.68767 -1.15666 0
M  V30 1900 H 180.891 -1.938 -3.59034 0
M  V30 1901 H 179.566 -2.91001 -2.97138 0
M  V30 1902 H 178.143 -1.16935 -3.54091 0
M  V30 1903 N 180.328 1.1314 -1.09713 0
M  V30 1904 C 181.575 1.84484 -0.834987 0
M  V30 1905 C 181.903 1.83689 0.639418 0
M  V30 1906 O 181.158 1.2724 1.4869 0
M  V30 1907 C 181.457 3.32167 -1.3191 0
M  V30 1908 C 181.123 3.53139 -2.80363 0
M  V30 1909 C 179.785 3.58571 -3.20905 0
M  V30 1910 C 182.137 3.60866 -3.76065 0
M  V30 1911 C 179.465 3.69267 -4.55916 0
M  V30 1912 C 181.817 3.73089 -5.10869 0
M  V30 1913 C 180.481 3.76775 -5.50996 0
M  V30 1914 H 179.751 0.675073 -0.305544 0
M  V30 1915 H 182.398 1.33554 -1.37243 0
M  V30 1916 H 180.703 3.85469 -0.701517 0
M  V30 1917 H 182.4 3.85821 -1.09284 0
M  V30 1918 H 178.99 3.49569 -2.47991 0
M  V30 1919 H 183.174 3.55946 -3.45855 0
M  V30 1920 H 178.43 3.70388 -4.86438 0
M  V30 1921 H 182.604 3.78011 -5.84877 0
M  V30 1922 H 180.231 3.84815 -6.55608 0
M  V30 1923 N 181.806 0.884767 1.30421 0
M  V30 1924 C 182.753 0.349642 2.28136 0
M  V30 1925 C 183.723 -0.560061 1.56373 0
M  V30 1926 O 184.908 -0.488524 1.8444 0
M  V30 1927 C 182.048 -0.42999 3.42411 0
M  V30 1928 C 181.161 0.508907 4.28992 0
M  V30 1929 C 180.296 -0.286301 5.30428 0
M  V30 1930 C 179.335 0.648079 6.08659 0
M  V30 1931 N 178.472 -0.111792 7.02011 0
M  V30 1932 H 183.312 1.18807 2.73293 0
M  V30 1933 H 180.849 0.597231 1.3443 0
M  V30 1934 H 182.807 -0.897923 4.07423 0
M  V30 1935 H 181.437 -1.23299 2.98324 0
M  V30 1936 H 180.489 1.09533 3.64289 0
M  V30 1937 H 181.801 1.22475 4.8353 0
M  V30 1938 H 180.955 -0.816098 6.01186 0
M  V30 1939 H 179.694 -1.03536 4.76583 0
M  V30 1940 H 178.699 1.18951 5.36778 0
M  V30 1941 H 179.924 1.39623 6.64592 0
M  V30 1942 H 177.87 -0.843395 6.50556 0
M  V30 1943 H 177.787 0.544429 7.54037 0
M  V30 1944 H 179.055 -0.622339 7.77012 0
M  V30 1945 N 183.284 -1.43765 0.645699 0
M  V30 1946 C 184.194 -2.34544 -0.0512957 0
M  V30 1947 C 185.21 -1.53455 -0.82022 0
M  V30 1948 O 186.386 -1.86133 -0.769176 0
M  V30 1949 C 183.451 -3.31636 -1.01087 0
M  V30 1950 C 182.512 -4.2863 -0.239712 0
M  V30 1951 C 181.745 -5.21084 -1.15358 0
M  V30 1952 O 181.968 -5.1779 -2.39269 0
M  V30 1953 O 180.902 -5.98593 -0.630038 0
M  V30 1954 H 184.728 -2.95624 0.695718 0
M  V30 1955 H 182.313 -1.43781 0.405882 0
M  V30 1956 H 184.195 -3.9136 -1.56254 0
M  V30 1957 H 182.87 -2.73069 -1.73824 0
M  V30 1958 H 181.777 -3.72408 0.355356 0
M  V30 1959 H 183.11 -4.90157 0.447936 0
M  V30 1960 N 184.763 -0.387143 -1.52771 0
M  V30 1961 C 185.711 0.463953 -2.27926 0
M  V30 1962 C 186.705 1.06493 -1.31741 0
M  V30 1963 O 187.911 1.00565 -1.49287 0
M  V30 1964 H 184.286 0.16837 -0.732909 0
M  V30 1965 H 186.257 -0.19141 -2.97785 0
M  V30 1966 C 185.006 1.5803 -3.09713 0
M  V30 1967 H 184.329 1.12718 -3.83581 0
M  V30 1968 H 185.769 2.15008 -3.65442 0
M  V30 1969 C 184.228 2.53509 -2.2189 0
M  V30 1970 O 184.758 3.56863 -1.84422 0
M  V30 1971 N 182.964 2.23199 -1.86093 0
M  V30 1972 H 182.511 1.39185 -2.16761 0
M  V30 1973 H 182.469 2.87333 -1.27621 0
M  V30 1974 N 186.241 1.57166 -0.116904 0
M  V30 1975 C 187.171 2.18222 0.830759 0
M  V30 1976 C 188.152 1.12167 1.27877 0
M  V30 1977 O 189.337 1.40394 1.34176 0
M  V30 1978 C 186.467 2.77996 2.08172 0
M  V30 1979 C 185.421 3.89614 1.77157 0
M  V30 1980 C 184.747 4.36187 3.09265 0
M  V30 1981 C 186.047 5.1181 1.04151 0
M  V30 1982 H 187.741 2.97664 0.321992 0
M  V30 1983 H 185.287 1.4318 0.153434 0
M  V30 1984 H 187.24 3.19366 2.74924 0
M  V30 1985 H 185.964 1.9584 2.6137 0
M  V30 1986 H 184.623 3.48816 1.12796 0
M  V30 1987 H 184.271 3.50893 3.60393 0
M  V30 1988 H 183.971 5.11455 2.89288 0
M  V30 1989 H 185.495 4.80207 3.77139 0
M  V30 1990 H 186.909 5.50214 1.61052 0
M  V30 1991 H 185.306 5.92648 0.942762 0
M  V30 1992 H 186.376 4.84892 0.0279022 0
M  V30 1993 N 187.719 -0.156864 1.56817 0
M  V30 1994 C 188.666 -1.19394 1.97519 0
M  V30 1995 C 189.636 -1.4322 0.841265 0
M  V30 1996 O 190.821 -1.55719 1.10255 0
M  V30 1997 C 187.961 -2.52483 2.35258 0
M  V30 1998 C 187.074 -2.35914 3.61896 0
M  V30 1999 C 186.209 -3.61969 3.88782 0
M  V30 2000 C 185.248 -3.40395 5.08722 0
M  V30 2001 N 184.385 -4.58556 5.31668 0
M  V30 2002 H 189.225 -0.839845 2.85921 0
M  V30 2003 H 186.762 -0.403264 1.41464 0
M  V30 2004 H 188.72 -3.30071 2.55165 0
M  V30 2005 H 187.35 -2.85859 1.49949 0
M  V30 2006 H 186.402 -1.49429 3.49821 0
M  V30 2007 H 187.714 -2.15926 4.49641 0
M  V30 2008 H 186.868 -4.47989 4.09135 0
M  V30 2009 H 185.607 -3.84951 2.9944 0
M  V30 2010 H 184.612 -2.52763 4.88253 0
M  V30 2011 H 185.837 -3.18822 5.99608 0
M  V30 2012 H 183.783 -4.81729 4.45279 0
M  V30 2013 H 183.7 -4.41535 6.13664 0
M  V30 2014 H 184.968 -5.45817 5.5651 0
M  V30 2015 N 189.197 -1.51736 -0.425897 0
M  V30 2016 C 190.474 -1.55519 -1.1863 0
M  V30 2017 C 190.854 -0.326219 -2.08564 0
M  V30 2018 O 190.202 0.688012 -2.17896 0
M  V30 2019 C 190.412 -2.87521 -1.9782 0
M  V30 2020 C 191.76 -3.39899 -2.54468 0
M  V30 2021 O 192.784 -2.89148 -2.08019 0
M  V30 2022 O 191.643 -4.2848 -3.39215 0
M  V30 2023 H 188.737 -0.625739 -0.540721 0
M  V30 2024 H 191.283 -1.64055 -0.434038 0
M  V30 2025 H 190.055 -3.68422 -1.31836 0
M  V30 2026 H 189.678 -2.822 -2.80088 0
M  V30 2027 N 190.675 0.682077 -1.42076 0
M  V30 2028 C 191.922 1.44215 -1.42156 0
M  V30 2029 C 192.25 1.94468 -0.0354186 0
M  V30 2030 O 191.505 1.70816 0.955002 0
M  V30 2031 C 191.804 2.66036 -2.38662 0
M  V30 2032 C 191.47 2.34366 -3.85206 0
M  V30 2033 C 190.132 2.25439 -4.25124 0
M  V30 2034 C 192.484 2.08513 -4.77673 0
M  V30 2035 C 189.812 1.88775 -5.55501 0
M  V30 2036 C 192.164 1.73354 -6.08384 0
M  V30 2037 C 190.828 1.62933 -6.47309 0
M  V30 2038 H 190.098 0.527718 -0.520187 0
M  V30 2039 H 192.745 0.778387 -1.74967 0
M  V30 2040 H 191.05 3.3741 -1.99152 0
M  V30 2041 H 192.747 3.24205 -2.35991 0
M  V30 2042 H 189.337 2.42213 -3.53597 0
M  V30 2043 H 193.521 2.14346 -4.47626 0
M  V30 2044 H 188.777 1.7927 -5.84527 0
M  V30 2045 H 192.951 1.52373 -6.79526 0
M  V30 2046 H 190.578 1.34292 -7.48244 0
M  V30 2047 N 192.153 1.28127 0.917671 0
M  V30 2048 C 193.083 1.14248 2.03641 0
M  V30 2049 C 194.064 0.0412748 1.7005 0
M  V30 2050 O 195.249 0.217566 1.92977 0
M  V30 2051 C 192.379 0.799431 3.37974 0
M  V30 2052 C 191.333 1.85497 3.85713 0
M  V30 2053 C 190.659 1.36565 5.16966 0
M  V30 2054 C 191.959 3.26085 4.08002 0
M  V30 2055 H 193.653 2.07835 2.15511 0
M  V30 2056 H 191.199 1.00064 1.03553 0
M  V30 2057 H 193.152 0.689114 4.15727 0
M  V30 2058 H 191.876 -0.172145 3.26146 0
M  V30 2059 H 190.535 1.95437 3.10161 0
M  V30 2060 H 190.183 0.383253 5.01538 0
M  V30 2061 H 189.883 2.07143 5.49878 0
M  V30 2062 H 191.407 1.26848 5.97279 0
M  V30 2063 H 192.821 3.19089 4.76293 0
M  V30 2064 H 191.218 3.94462 4.52238 0
M  V30 2065 H 192.288 3.70394 3.12948 0
M  V30 2066 N 193.631 -1.12557 1.10312 0
M  V30 2067 C 194.561 -2.20341 0.772798 0
M  V30 2068 C 195.542 -1.68198 -0.25365 0
M  V30 2069 O 196.727 -1.93831 -0.119699 0
M  V30 2070 C 193.857 -3.46709 0.202443 0
M  V30 2071 C 192.811 -4.11996 1.15943 0
M  V30 2072 C 192.137 -5.328 0.450345 0
M  V30 2073 C 193.437 -4.5828 2.50552 0
M  V30 2074 H 195.131 -2.48229 1.674 0
M  V30 2075 H 192.677 -1.19308 0.806326 0
M  V30 2076 H 194.63 -4.2138 -0.0407752 0
M  V30 2077 H 193.354 -3.18245 -0.734001 0
M  V30 2078 H 192.013 -3.39305 1.38808 0
M  V30 2079 H 191.661 -5.00602 -0.490531 0
M  V30 2080 H 191.361 -5.7743 1.08851 0
M  V30 2081 H 192.885 -6.10219 0.215642 0
M  V30 2082 H 194.299 -5.2433 2.31843 0
M  V30 2083 H 192.696 -5.13683 3.10242 0
M  V30 2084 H 193.766 -3.72329 3.10643 0
M  V30 2085 N 195.109 -0.891671 -1.2995 0
M  V30 2086 C 196.355 -0.514261 -1.96171 0
M  V30 2087 C 196.688 0.935506 -1.70182 0
M  V30 2088 O 195.963 1.66204 -1.01028 0
M  V30 2089 C 196.246 -0.797719 -3.51153 0
M  V30 2090 C 196.099 -2.2986 -3.86632 0
M  V30 2091 C 197.418 -0.278749 -4.39216 0
M  V30 2092 H 194.537 -0.188314 -0.712535 0
M  V30 2093 H 197.179 -1.11689 -1.53706 0
M  V30 2094 H 195.329 -0.284826 -3.87455 0
M  V30 2095 H 197.001 -2.88042 -3.60319 0
M  V30 2096 H 195.244 -2.76257 -3.34462 0
M  V30 2097 H 195.915 -2.44753 -4.94773 0
M  V30 2098 H 198.391 -0.717825 -4.09862 0
M  V30 2099 H 197.267 -0.506353 -5.46559 0
M  V30 2100 H 197.528 0.820266 -4.34424 0
M  V30 2101 N 196.587 1.43421 -0.653314 0
M  V30 2102 C 197.836 2.01032 -0.164076 0
M  V30 2103 C 198.149 1.52147 1.22926 0
M  V30 2104 O 199.355 2.02031 1.81371 0
M  V30 2105 C 197.811 3.59082 -0.24252 0
M  V30 2106 C 197.419 4.1696 -1.63855 0
M  V30 2107 C 199.163 4.24079 0.18911 0
M  V30 2108 C 197.07 5.67304 -1.67092 0
M  V30 2109 H 196 0.751798 -0.0575769 0
M  V30 2110 H 198.651 1.6439 -0.815362 0
M  V30 2111 H 197.033 3.93125 0.476276 0
M  V30 2112 H 198.207 3.94416 -2.38271 0
M  V30 2113 H 196.522 3.64335 -2.01616 0
M  V30 2114 H 199.119 5.34381 0.184775 0
M  V30 2115 H 199.462 3.98005 1.22056 0
M  V30 2116 H 199.995 3.94918 -0.477938 0
M  V30 2117 H 196.734 5.98145 -2.68146 0
M  V30 2118 H 196.254 5.91904 -0.970014 0
M  V30 2119 H 197.933 6.31344 -1.4147 0
M  V30 2120 N 198.065 0.39524 1.52563 0
M  V30 2121 C 199.476 -0.0774719 1.86539 0
M  V30 2122 C 199.827 -1.45641 1.31466 0
M  V30 2123 O 198.952 -2.06459 0.648367 0
M  V30 2124 C 199.547 -0.147356 3.38479 0
M  V30 2125 C 198.106 -0.564373 3.72145 0
M  V30 2126 C 197.253 0.269919 2.75983 0
M  V30 2127 H 200.204 0.612876 1.46388 0
M  V30 2128 H 200.225 -0.965343 3.68051 0
M  V30 2129 H 199.737 0.856387 3.78534 0
M  V30 2130 H 197.838 -1.57527 3.37663 0
M  V30 2131 H 197.951 -0.318402 4.78041 0
M  V30 2132 H 196.315 -0.265696 2.5331 0
M  V30 2133 H 197.098 1.27175 3.18875 0
M  V30 2134 N 199.544 -1.57102 0.125237 0
M  V30 2135 C 200.791 -1.95407 -0.531248 0
M  V30 2136 C 201.119 -1.0089 -1.66287 0
M  V30 2137 O 200.374 -0.0339431 -1.95671 0
M  V30 2138 C 200.673 -3.40096 -1.09862 0
M  V30 2139 C 200.339 -4.50815 -0.0876989 0
M  V30 2140 C 199.001 -4.80824 0.19026 0
M  V30 2141 C 201.353 -5.17724 0.600902 0
M  V30 2142 C 198.681 -5.75058 1.163 0
M  V30 2143 C 201.033 -6.13005 1.56231 0
M  V30 2144 C 199.697 -6.41403 1.8482 0
M  V30 2145 H 198.967 -0.715046 -0.194397 0
M  V30 2146 H 201.614 -1.90373 0.207463 0
M  V30 2147 H 199.919 -3.41855 -1.91422 0
M  V30 2148 H 201.616 -3.6705 -1.61478 0
M  V30 2149 H 198.206 -4.27444 -0.314528 0
M  V30 2150 H 202.39 -4.94691 0.399333 0
M  V30 2151 H 197.646 -5.95362 1.39117 0
M  V30 2152 H 201.82 -6.63934 2.10153 0
M  V30 2153 H 199.447 -7.14229 2.60349 0
M  V30 2154 N 201.022 0.148545 -1.56898 0
M  V30 2155 C 202.299 0.890019 -1.74178 0
M  V30 2156 C 202.679 1.99407 -0.692839 0
M  V30 2157 O 202.027 2.26671 0.288505 0
M  V30 2158 C 202.237 1.43389 -3.18183 0
M  V30 2159 C 203.585 1.89791 -3.79822 0
M  V30 2160 O 204.609 1.53134 -3.21603 0
M  V30 2161 O 203.468 2.57387 -4.82093 0
M  V30 2162 H 200.562 0.420496 -0.712118 0
M  V30 2163 H 203.108 0.134591 -1.69165 0
M  V30 2164 H 201.88 0.640383 -3.86024 0
M  V30 2165 H 201.503 2.25287 -3.27615 0
M  V30 2166 N 202.5 1.5196 0.417844 0
M  V30 2167 C 203.74 1.67262 1.17486 0
M  V30 2168 C 204.104 0.38983 1.88001 0
M  V30 2169 O 205.305 0.418845 2.65517 0
M  V30 2170 C 203.576 2.85526 2.14965 0
M  V30 2171 S 205.135 3.21263 2.98891 0
M  V30 2172 H 201.953 0.589077 0.398132 0
M  V30 2173 H 204.555 1.89927 0.463452 0
M  V30 2174 H 203.259 3.77145 1.61833 0
M  V30 2175 H 202.79 2.65107 2.90657 0
M  V30 2176 H 204.805 2.69208 4.16823 0
M  V30 2177 N 203.978 -0.674533 1.42435 0
M  V30 2178 C 205.224 -1.43521 1.4413 0
M  V30 2179 C 205.579 -1.92316 0.0567773 0
M  V30 2180 O 204.872 -1.68008 -0.921076 0
M  V30 2181 C 205.066 -2.64767 2.40069 0
M  V30 2182 C 204.895 -2.27836 3.87713 0
M  V30 2183 C 203.665 -2.17183 4.56245 0
M  V30 2184 C 205.863 -1.89466 4.78129 0
M  V30 2185 N 203.845 -1.73358 5.88915 0
M  V30 2186 C 205.216 -1.56561 5.99907 0
M  V30 2187 C 207.271 -1.7646 4.65582 0
M  V30 2188 C 205.974 -1.11957 7.10534 0
M  V30 2189 C 208 -1.3326 5.76191 0
M  V30 2190 C 207.362 -1.0128 6.97081 0
M  V30 2191 H 203.461 -0.521656 0.582579 0
M  V30 2192 H 206.045 -0.778381 1.78464 0
M  V30 2193 H 204.216 -3.28139 2.07796 0
M  V30 2194 H 205.948 -3.3136 2.32342 0
M  V30 2195 H 202.703 -2.3626 4.10461 0
M  V30 2196 H 203.127 -1.53867 6.59283 0
M  V30 2197 H 207.769 -1.99831 3.72595 0
M  V30 2198 H 205.487 -0.873318 8.03367 0
M  V30 2199 H 209.073 -1.23717 5.68494 0
M  V30 2200 H 207.953 -0.683597 7.81215 0
M  V30 2201 N 205.456 -1.28612 -0.910864 0
M  V30 2202 C 206.366 -1.14643 -2.0468 0
M  V30 2203 C 207.382 -0.0723121 -1.7385 0
M  V30 2204 O 208.558 -0.282178 -1.99413 0
M  V30 2205 C 205.623 -0.812561 -3.37044 0
M  V30 2206 C 204.684 -1.96935 -3.81465 0
M  V30 2207 C 203.917 -1.65131 -5.07511 0
M  V30 2208 O 204.14 -0.567013 -5.67575 0
M  V30 2209 O 203.074 -2.49585 -5.47714 0
M  V30 2210 H 206.9 -2.1001 -2.19384 0
M  V30 2211 H 204.485 -1.07958 -1.03274 0
M  V30 2212 H 206.367 -0.640441 -4.16505 0
M  V30 2213 H 205.042 0.111426 -3.23508 0
M  V30 2214 H 203.949 -2.19664 -3.02818 0
M  V30 2215 H 205.282 -2.87414 -3.99567 0
M  V30 2216 N 206.934 1.1197 -1.10907 0
M  V30 2217 C 208.345 1.65114 -0.871446 0
M  V30 2218 C 208.696 1.86885 0.597353 0
M  V30 2219 O 207.821 1.59896 1.45816 0
M  V30 2220 C 208.416 2.99944 -1.5754 0
M  V30 2221 C 206.975 3.50018 -1.38435 0
M  V30 2222 C 206.122 2.24941 -1.62164 0
M  V30 2223 H 209.073 0.956851 -1.2661 0
M  V30 2224 H 209.094 3.66651 -1.01721 0
M  V30 2225 H 208.606 2.84067 -2.64438 0
M  V30 2226 H 206.707 3.71071 -0.337214 0
M  V30 2227 H 206.82 4.29165 -2.12965 0
M  V30 2228 H 205.184 2.3229 -1.04467 0
M  V30 2229 H 205.967 2.11612 -2.70324 0
M  V30 2230 N 208.412 0.89855 1.29475 0
M  V30 2231 C 209.658 0.524658 1.95896 0
M  V30 2232 C 209.991 -0.926468 1.70676 0
M  V30 2233 O 209.266 -1.65665 1.01908 0
M  V30 2234 C 209.549 0.81633 3.50725 0
M  V30 2235 C 209.402 2.31907 3.85408 0
M  V30 2236 C 210.721 0.302038 4.39062 0
M  V30 2237 H 207.84 0.19209 0.711527 0
M  V30 2238 H 210.482 1.12502 1.53112 0
M  V30 2239 H 208.632 0.305369 3.87298 0
M  V30 2240 H 210.304 2.89949 3.58786 0
M  V30 2241 H 208.547 2.78027 3.32992 0
M  V30 2242 H 209.218 2.47373 4.93468 0
M  V30 2243 H 211.694 0.739551 4.09475 0
M  V30 2244 H 210.57 0.535331 5.46283 0
M  V30 2245 H 210.831 -0.797216 4.34853 0
M  V30 2246 N 209.89 -1.43072 0.660911 0
M  V30 2247 C 210.822 -2.29108 -0.0647641 0
M  V30 2248 C 211.835 -1.42928 -0.779448 0
M  V30 2249 O 213.024 -1.66788 -0.635921 0
M  V30 2250 C 210.124 -3.20032 -1.11503 0
M  V30 2251 C 209.297 -4.34792 -0.476955 0
M  V30 2252 C 208.356 -5.06534 -1.42513 0
M  V30 2253 O 207.382 -5.61538 -0.930771 0
M  V30 2254 N 208.584 -5.1075 -2.75889 0
M  V30 2255 H 211.349 -2.92029 0.673731 0
M  V30 2256 H 208.91 -1.53846 0.50427 0
M  V30 2257 H 210.902 -3.64892 -1.75032 0
M  V30 2258 H 209.472 -2.58658 -1.75541 0
M  V30 2259 H 208.692 -3.92752 0.337572 0
M  V30 2260 H 209.98 -5.0879 -0.0318525 0
M  V30 2261 H 209.378 -4.67447 -3.18606 0
M  V30 2262 H 207.935 -5.59302 -3.347 0
M  V30 2263 N 211.368 -0.403325 -1.52352 0
M  V30 2264 C 212.278 0.432009 -2.30588 0
M  V30 2265 C 213.294 1.05884 -1.38075 0
M  V30 2266 O 214.47 1.06161 -1.71148 0
M  V30 2267 C 211.535 1.53669 -3.10784 0
M  V30 2268 C 210.596 0.933525 -4.19027 0
M  V30 2269 C 209.829 1.98557 -4.9539 0
M  V30 2270 O 210.052 3.20283 -4.71991 0
M  V30 2271 O 208.986 1.59504 -5.80381 0
M  V30 2272 H 212.812 -0.205739 -3.03002 0
M  V30 2273 H 210.397 -0.166675 -1.48467 0
M  V30 2274 H 212.279 2.17814 -3.60742 0
M  V30 2275 H 210.954 2.15915 -2.41169 0
M  V30 2276 H 209.861 0.254954 -3.7323 0
M  V30 2277 H 211.194 0.35508 -4.90918 0
M  V30 2278 O 212.885 1.59156 -0.274172 0
M  V30 2279 H 213.576 1.91425 0.295987 0
M  V30 END ATOM
M  V30 BEGIN BOND
M  V30 END BOND
M  V30 END CTAB
M  END
$$$$
