drugbank_target|P04217 Alpha-1B-glycoprotein (DB01593; DB09130; DB14487)
 OpenBabel12092121073D

  0  0  0     0  0            999 V3000
M  V30 BEGIN CTAB
M  V30 COUNTS 7584 7689 0 0 0
M  V30 BEGIN ATOM
M  V30 1 H -0.908 1.98254 -0.117106 0
M  V30 2 N 0 1.576 0 0
M  V30 3 C 0.933 2.03868 1.02534 0
M  V30 4 C 1.911 0.928543 1.3348 0
M  V30 5 O 3.095 1.19667 1.45644 0
M  V30 6 C 0.222 2.43627 2.35294 0
M  V30 7 C -0.732 3.65373 2.2001 0
M  V30 8 S 0.101 5.13292 1.52614 0
M  V30 9 C 1.257 5.56322 2.86805 0
M  V30 10 H 1.49 2.90518 0.631377 0
M  V30 11 H -0.977 1.52953 0.210867 0
M  V30 12 H 0.981 2.67203 3.11629 0
M  V30 13 H -0.358 1.57376 2.7183 0
M  V30 14 H -1.165 3.90944 3.18086 0
M  V30 15 H -1.563 3.418 1.51819 0
M  V30 16 H 0.729 5.58782 3.83104 0
M  V30 17 H 1.672 6.56266 2.65933 0
M  V30 18 H 2.08 4.83886 2.90714 0
M  V30 19 N 1.4781 -0.272755 1.55222 0
M  V30 20 C 2.7031 -1.02683 1.80197 0
M  V30 21 C 3.1281 -1.79142 0.573551 0
M  V30 22 O 2.4861 -1.74917 -0.476849 0
M  V30 23 C 2.5341 -1.9609 3.02624 0
M  V30 24 O 1.6381 -3.04863 2.77727 0
M  V30 25 H 0.9791 -0.293557 0.595584 0
M  V30 26 H 3.5091 -0.30159 2.02365 0
M  V30 27 H 3.5191 -2.38039 3.31363 0
M  V30 28 H 2.1941 -1.39851 3.91682 0
M  V30 29 H 0.7711 -2.67228 2.60084 0
M  V30 30 N 2.9562 -1.48159 -0.537278 0
M  V30 31 C 3.8892 -1.567 -1.65893 0
M  V30 32 C 4.8672 -0.41787 -1.57139 0
M  V30 33 O 6.0512 -0.628461 -1.77715 0
M  V30 34 C 3.1782 -1.48818 -3.04255 0
M  V30 35 C 2.2242 -2.68482 -3.31391 0
M  V30 36 S 3.0572 -4.30516 -3.1846 0
M  V30 37 C 4.2132 -4.2522 -4.59281 0
M  V30 38 H 4.4462 -2.5159 -1.58397 0
M  V30 39 H 1.9792 -1.36602 -0.719672 0
M  V30 40 H 3.9372 -1.44958 -3.84054 0
M  V30 41 H 2.5982 -0.552777 -3.09198 0
M  V30 42 H 1.7912 -2.59085 -4.32309 0
M  V30 43 H 1.3932 -2.69567 -2.59248 0
M  V30 44 H 3.6852 -3.94703 -5.5065 0
M  V30 45 H 4.6282 -5.26292 -4.73732 0
M  V30 46 H 5.0362 -3.55791 -4.38261 0
M  V30 47 N 4.4343 0.785586 -1.36625 0
M  V30 48 C 5.3643 1.91259 -1.33949 0
M  V30 49 C 6.3453 1.68795 -0.210325 0
M  V30 50 O 7.5303 1.89854 -0.408561 0
M  V30 51 C 4.6603 3.28339 -1.13186 0
M  V30 52 C 3.6143 3.65335 -2.22967 0
M  V30 53 C 2.9403 5.00806 -1.87342 0
M  V30 54 C 4.2403 3.7352 -3.65075 0
M  V30 55 H 5.9343 1.93755 -2.28253 0
M  V30 56 H 3.4803 0.930788 -1.09874 0
M  V30 57 H 5.4333 4.06804 -1.09948 0
M  V30 58 H 4.1573 3.2624 -0.153332 0
M  V30 59 H 2.8163 2.89169 -2.25337 0
M  V30 60 H 2.4643 4.95233 -0.880545 0
M  V30 61 H 2.1643 5.26529 -2.60846 0
M  V30 62 H 3.6883 5.81687 -1.85667 0
M  V30 63 H 5.1023 4.42168 -3.64911 0
M  V30 64 H 3.4993 4.10731 -4.37516 0
M  V30 65 H 4.5693 2.74527 -3.99703 0
M  V30 66 N 5.9124 1.20967 1.01018 0
M  V30 67 C 7.1584 1.02526 1.74975 0
M  V30 68 C 7.4914 -0.4408 1.89131 0
M  V30 69 O 6.7664 -1.32718 1.42184 0
M  V30 70 C 7.0494 1.71699 3.1653 0
M  V30 71 C 6.9024 3.25791 3.10129 0
M  V30 72 C 8.2214 1.45531 4.15342 0
M  V30 73 H 5.3404 0.373863 0.635134 0
M  V30 74 H 7.9824 1.49071 1.17805 0
M  V30 75 H 6.1324 1.32128 3.65341 0
M  V30 76 H 7.8044 3.74697 2.69072 0
M  V30 77 H 6.0474 3.56363 2.47362 0
M  V30 78 H 6.7184 3.69353 4.10222 0
M  V30 79 H 9.1944 1.79872 3.75213 0
M  V30 80 H 8.0704 1.96453 5.1254 0
M  V30 81 H 8.3314 0.384237 4.40427 0
M  V30 82 N 7.3905 -1.2043 1.01659 0
M  V30 83 C 8.6365 -1.90079 0.706963 0
M  V30 84 C 8.9695 -1.78648 -0.761474 0
M  V30 85 O 8.2445 -1.17069 -1.55323 0
M  V30 86 C 8.5275 -3.41469 1.14327 0
M  V30 87 C 8.3805 -3.61833 2.67201 0
M  V30 88 C 9.6995 -4.34261 0.714529 0
M  V30 89 H 6.8185 -0.690254 0.2583 0
M  V30 90 H 9.4605 -1.41826 1.26433 0
M  V30 91 H 7.6105 -3.82696 0.669056 0
M  V30 92 H 9.2825 -3.2986 3.22475 0
M  V30 93 H 7.5255 -3.05304 3.08175 0
M  V30 94 H 8.1965 -4.67955 2.92783 0
M  V30 95 H 10.6725 -4.00682 1.12221 0
M  V30 96 H 9.5485 -5.38806 1.04784 0
M  V30 97 H 9.8095 -4.40431 -0.383799 0
M  V30 98 N 8.8686 -0.792821 -1.36206 0
M  V30 99 C 10.1156 -0.366786 -1.99151 0
M  V30 100 C 10.4436 1.06243 -1.62919 0
M  V30 101 O 9.6986 1.74927 -0.877442 0
M  V30 102 C 9.9976 -0.481501 -3.54142 0
M  V30 103 C 9.6636 -1.87202 -4.10203 0
M  V30 104 C 8.3256 -2.25248 -4.25226 0
M  V30 105 C 10.6776 -2.78237 -4.40719 0
M  V30 106 C 8.0056 -3.53723 -4.68078 0
M  V30 107 C 10.3576 -4.06144 -4.85005 0
M  V30 108 C 9.0216 -4.44207 -4.98234 0
M  V30 109 H 8.2916 -0.134217 -0.728743 0
M  V30 110 H 10.9386 -1.01094 -1.62641 0
M  V30 111 H 9.2436 0.246146 -3.91026 0
M  V30 112 H 10.9406 -0.132844 -4.0078 0
M  V30 113 H 7.5306 -1.56639 -3.98951 0
M  V30 114 H 11.7146 -2.50097 -4.28679 0
M  V30 115 H 6.9706 -3.8308 -4.76508 0
M  V30 116 H 11.1446 -4.76796 -5.07581 0
M  V30 117 H 8.7716 -5.43814 -5.31197 0
M  V30 118 N 10.3467 1.47872 -0.545128 0
M  V30 119 C 11.2767 2.32661 0.197793 0
M  V30 120 C 12.2577 1.43041 0.920504 0
M  V30 121 O 13.4427 1.71912 0.90333 0
M  V30 122 C 10.5727 3.24569 1.23582 0
M  V30 123 C 9.5267 4.23333 0.630323 0
M  V30 124 C 8.8527 5.0448 1.77211 0
M  V30 125 C 10.1527 5.20704 -0.407974 0
M  V30 126 H 11.8467 2.95024 -0.510045 0
M  V30 127 H 9.3927 1.4187 -0.246731 0
M  V30 128 H 11.3457 3.8272 1.76362 0
M  V30 129 H 10.0697 2.60236 1.97344 0
M  V30 130 H 8.7287 3.6639 0.123922 0
M  V30 131 H 8.3767 4.36561 2.49847 0
M  V30 132 H 8.0767 5.71339 1.37281 0
M  V30 133 H 9.6007 5.65487 2.3034 0
M  V30 134 H 11.0147 5.7329 0.033305 0
M  V30 135 H 9.4117 5.95699 -0.725486 0
M  V30 136 H 10.4817 4.66917 -1.30828 0
M  V30 137 N 11.8248 0.280983 1.55075 0
M  V30 138 C 12.7548 -0.597469 2.25727 0
M  V30 139 C 13.7358 -1.15417 1.24952 0
M  V30 140 O 14.9208 -1.18722 1.53684 0
M  V30 141 C 12.0508 -1.7789 2.98283 0
M  V30 142 C 11.0048 -1.35347 4.06036 0
M  V30 143 C 10.3308 -2.61846 4.66198 0
M  V30 144 C 11.6308 -0.499354 5.19907 0
M  V30 145 H 13.3248 -0.00824265 2.99399 0
M  V30 146 H 10.8708 -0.0025244 1.44 0
M  V30 147 H 12.8238 -2.39937 3.46422 0
M  V30 148 H 11.5478 -2.39405 2.22155 0
M  V30 149 H 10.2068 -0.756156 3.58717 0
M  V30 150 H 9.8548 -3.21632 3.86732 0
M  V30 151 H 9.5548 -2.3409 5.38958 0
M  V30 152 H 11.0788 -3.24732 5.1709 0
M  V30 153 H 12.4928 -1.02498 5.64063 0
M  V30 154 H 10.8898 -0.316424 5.99265 0
M  V30 155 H 11.9598 0.480459 4.82514 0
M  V30 156 N 13.3029 -1.57598 0.00835791 0
M  V30 157 C 14.2329 -2.1198 -0.979113 0
M  V30 158 C 15.2139 -1.03091 -1.35301 0
M  V30 159 O 16.3989 -1.30818 -1.43528 0
M  V30 160 C 13.5289 -2.62995 -2.26828 0
M  V30 161 C 12.4829 -3.76485 -2.03576 0
M  V30 162 C 11.8089 -4.13846 -3.38579 0
M  V30 163 C 13.1089 -5.0342 -1.39161 0
M  V30 164 H 14.8029 -2.94738 -0.526281 0
M  V30 165 H 12.3489 -1.41783 -0.251704 0
M  V30 166 H 14.3019 -2.99669 -2.96271 0
M  V30 167 H 13.0259 -1.7737 -2.7424 0
M  V30 168 H 11.6849 -3.40217 -1.36557 0
M  V30 169 H 11.3329 -3.25232 -3.83709 0
M  V30 170 H 11.0329 -4.90312 -3.23834 0
M  V30 171 H 12.5569 -4.53086 -4.09323 0
M  V30 172 H 13.9709 -5.37812 -1.98573 0
M  V30 173 H 12.3679 -5.84746 -1.34878 0
M  V30 174 H 13.4379 -4.83548 -0.361868 0
M  V30 175 N 14.781 0.264519 -1.55364 0
M  V30 176 C 16.027 0.992314 -1.77552 0
M  V30 177 C 16.382 1.83626 -0.574379 0
M  V30 178 O 15.675 1.86648 0.432782 0
M  V30 179 C 15.869 1.9004 -3.02687 0
M  V30 180 C 15.698 1.14583 -4.34857 0
M  V30 181 C 14.468 0.858068 -4.97961 0
M  V30 182 C 16.666 0.532069 -5.1154 0
M  V30 183 N 14.648 0.0775974 -6.13851 0
M  V30 184 C 16.019 -0.113823 -6.19896 0
M  V30 185 C 18.074 0.440763 -4.95945 0
M  V30 186 C 16.777 -0.842231 -7.14352 0
M  V30 187 C 18.803 -0.274072 -5.90765 0
M  V30 188 C 18.165 -0.90867 -6.98515 0
M  V30 189 H 14.264 0.344811 -0.701875 0
M  V30 190 H 16.848 0.267141 -1.92859 0
M  V30 191 H 15.019 2.59775 -2.88741 0
M  V30 192 H 16.751 2.56243 -3.13243 0
M  V30 193 H 13.506 1.16547 -4.59036 0
M  V30 194 H 13.93 -0.300216 -6.76334 0
M  V30 195 H 18.572 0.917064 -4.12735 0
M  V30 196 H 16.29 -1.33019 -7.97077 0
M  V30 197 H 19.876 -0.345151 -5.80775 0
M  V30 198 H 18.756 -1.45299 -7.70622 0
M  V30 199 N 16.2591 1.48442 0.529413 0
M  V30 200 C 17.5071 1.56179 1.28267 0
M  V30 201 C 17.8281 0.237721 1.93546 0
M  V30 202 O 17.0981 -0.740779 1.81354 0
M  V30 203 H 15.6781 0.575367 0.476405 0
M  V30 204 H 18.3401 1.84909 0.61602 0
M  V30 205 H 17.4361 2.34312 2.06165 0
M  V30 206 N 17.7372 -0.778329 1.37039 0
M  V30 207 C 18.9832 -1.53892 1.32079 0
M  V30 208 C 19.3162 -1.9396 -0.0965386 0
M  V30 209 O 18.5912 -1.63568 -1.05242 0
M  V30 210 C 18.8742 -2.80847 2.25382 0
M  V30 211 C 18.7272 -2.47076 3.75864 0
M  V30 212 C 20.0462 -3.82741 2.1725 0
M  V30 213 H 17.1652 -0.558303 0.48111 0
M  V30 214 H 19.8072 -0.893397 1.67685 0
M  V30 215 H 17.9572 -3.35931 1.95148 0
M  V30 216 H 19.6292 -1.97957 4.16666 0
M  V30 217 H 17.8722 -1.79863 3.94755 0
M  V30 218 H 18.5432 -3.37798 4.36574 0
M  V30 219 H 21.0192 -3.37133 2.43887 0
M  V30 220 H 19.8952 -4.69303 2.84686 0
M  V30 221 H 20.1562 -4.2652 1.16331 0
M  V30 222 N 19.2153 -1.21501 -1.00376 0
M  V30 223 C 20.4433 -1.059 -1.77744 0
M  V30 224 C 20.8583 0.391125 -1.84704 0
M  V30 225 O 20.2153 1.27133 -1.30933 0
M  V30 226 C 20.2663 -1.65111 -3.21591 0
M  V30 227 O 19.9873 -3.0445 -3.15027 0
M  V30 228 C 21.4883 -1.54637 -4.15454 0
M  V30 229 H 18.7083 -0.371825 -0.558558 0
M  V30 230 H 21.2523 -1.60865 -1.26264 0
M  V30 231 H 19.4073 -1.14235 -3.70175 0
M  V30 232 H 19.8213 -3.3278 -4.0541 0
M  V30 233 H 21.2953 -2.00808 -5.14179 0
M  V30 234 H 21.7723 -0.501022 -4.36333 0
M  V30 235 H 22.3783 -2.04767 -3.72761 0
M  V30 236 N 20.6934 1.19889 -1.02296 0
M  V30 237 C 21.9394 1.89973 -0.726759 0
M  V30 238 C 22.2944 1.7776 0.73614 0
M  V30 239 O 21.5874 1.15523 1.52856 0
M  V30 240 C 21.7814 3.39883 -1.10518 0
M  V30 241 C 21.6104 3.66684 -2.60332 0
M  V30 242 C 20.3804 3.85045 -3.27213 0
M  V30 243 C 22.5784 3.68727 -3.58532 0
M  V30 244 N 20.5604 3.99422 -4.66192 0
M  V30 245 C 21.9314 3.88604 -4.83101 0
M  V30 246 C 23.9864 3.51722 -3.52414 0
M  V30 247 C 22.6894 3.9324 -6.02292 0
M  V30 248 C 24.7154 3.57632 -4.71013 0
M  V30 249 C 24.0774 3.77988 -5.94394 0
M  V30 250 H 20.1764 0.714551 -0.317712 0
M  V30 251 H 22.7604 1.44123 -1.30907 0
M  V30 252 H 20.9314 3.8447 -0.551142 0
M  V30 253 H 22.6634 3.97464 -0.761853 0
M  V30 254 H 19.4184 3.83689 -2.77632 0
M  V30 255 H 19.8424 4.10473 -5.38368 0
M  V30 256 H 24.4844 3.34945 -2.58015 0
M  V30 257 H 22.2024 4.08811 -6.97065 0
M  V30 258 H 25.7884 3.45773 -4.67902 0
M  V30 259 H 24.6684 3.82428 -6.8463 0
M  V30 260 N 22.1715 0.800033 1.35784 0
M  V30 261 C 23.4195 0.376597 1.9856 0
M  V30 262 C 23.7405 -1.05812 1.63795 0
M  V30 263 O 23.0105 -1.73103 0.917171 0
M  V30 264 H 21.5905 0.136261 0.734467 0
M  V30 265 H 24.2525 1.02442 1.65806 0
M  V30 266 H 23.3485 0.477002 3.08433 0
M  V30 267 N 23.6496 -1.47581 0.552962 0
M  V30 268 C 25.0606 -1.86324 0.118463 0
M  V30 269 C 25.4116 -1.46006 -1.3106 0
M  V30 270 O 24.5366 -0.861182 -1.98526 0
M  V30 271 C 25.1316 -3.3816 0.20821 0
M  V30 272 C 23.6906 -3.7601 -0.171226 0
M  V30 273 C 22.8376 -2.71634 0.557686 0
M  V30 274 H 25.7886 -1.39159 0.762928 0
M  V30 275 H 25.8096 -3.76141 -0.574278 0
M  V30 276 H 25.3216 -3.67473 1.24841 0
M  V30 277 H 23.4226 -3.52313 -1.21269 0
M  V30 278 H 23.5356 -4.78745 0.184379 0
M  V30 279 H 21.8996 -2.547 0.00125792 0
M  V30 280 H 22.6826 -3.0379 1.59896 0
M  V30 281 N 25.1277 -0.289203 -1.54924 0
M  V30 282 C 26.3737 0.323998 -2.00195 0
M  V30 283 C 26.7067 1.54441 -1.17735 0
M  V30 284 O 25.9817 1.92875 -0.250878 0
M  V30 285 C 26.2647 0.692276 -3.53383 0
M  V30 286 C 26.1177 -0.536457 -4.46589 0
M  V30 287 C 27.4367 1.52335 -4.12895 0
M  V30 288 H 24.5557 0.116289 -0.727768 0
M  V30 289 H 27.1977 -0.398954 -1.85764 0
M  V30 290 H 25.3477 1.30822 -3.65811 0
M  V30 291 H 27.0197 -1.17499 -4.46085 0
M  V30 292 H 25.2627 -1.17192 -4.1767 0
M  V30 293 H 25.9337 -0.234806 -5.515 0
M  V30 294 H 28.4097 1.00302 -4.0383 0
M  V30 295 H 27.2857 1.74982 -5.20262 0
M  V30 296 H 27.5467 2.50886 -3.64018 0
M  V30 297 N 26.6058 1.57591 -0.0167156 0
M  V30 298 C 27.8338 1.95575 0.675128 0
M  V30 299 C 28.2488 0.892542 1.6637 0
M  V30 300 O 27.6058 -0.126912 1.82058 0
M  V30 301 C 27.6568 3.33608 1.39239 0
M  V30 302 O 27.3778 4.3585 0.443444 0
M  V30 303 C 28.8788 3.86151 2.17721 0
M  V30 304 H 26.0988 0.644423 0.186978 0
M  V30 305 H 28.6428 2.0437 -0.0728 0
M  V30 306 H 26.7978 3.2607 2.09182 0
M  V30 307 H 27.2118 5.158 0.951358 0
M  V30 308 H 28.6858 4.85114 2.63379 0
M  V30 309 H 29.1628 3.19738 3.01105 0
M  V30 310 H 29.7688 3.96918 1.52761 0
M  V30 311 N 28.0839 -0.256276 1.55502 0
M  V30 312 C 28.9939 -1.33882 1.92647 0
M  V30 313 C 30.0099 -1.53159 0.825727 0
M  V30 314 O 31.1859 -1.66963 1.12629 0
M  V30 315 C 28.2509 -2.6751 2.20543 0
M  V30 316 C 27.3119 -2.56836 3.43997 0
M  V30 317 C 26.5449 -3.84092 3.70553 0
M  V30 318 O 26.7679 -4.85545 2.99336 0
M  V30 319 O 25.7019 -3.83288 4.64084 0
M  V30 320 H 29.5279 -1.05374 2.84833 0
M  V30 321 H 27.1129 -0.456237 1.42263 0
M  V30 322 H 28.9949 -3.46492 2.39835 0
M  V30 323 H 27.6699 -2.9577 1.31536 0
M  V30 324 H 26.5769 -1.76172 3.30021 0
M  V30 325 H 27.9099 -2.33523 4.33275 0
M  V30 326 N 29.562 -1.4872 -0.521534 0
M  V30 327 C 30.525 -1.63379 -1.60748 0
M  V30 328 C 31.525 -0.50661 -1.52611 0
M  V30 329 O 32.715 -0.772601 -1.5613 0
M  V30 330 C 29.847 -1.61192 -3.00383 0
M  V30 331 H 31.04 -2.60217 -1.49087 0
M  V30 332 H 28.593 -1.37444 -0.744235 0
M  V30 333 H 29.328 -0.65863 -3.17541 0
M  V30 334 H 29.113 -2.43032 -3.07698 0
M  V30 335 H 30.603 -1.7466 -3.7932 0
M  V30 336 N 31.0401 0.771051 -1.3745 0
M  V30 337 C 32.0031 1.86598 -1.33093 0
M  V30 338 C 33.0031 1.59076 -0.234845 0
M  V30 339 O 34.1931 1.67145 -0.490732 0
M  V30 340 C 31.3251 3.23747 -1.06773 0
M  V30 341 H 32.5181 1.91873 -2.30488 0
M  V30 342 H 30.0711 0.970876 -1.2249 0
M  V30 343 H 30.8061 3.24148 -0.099129 0
M  V30 344 H 30.5911 3.45115 -1.86112 0
M  V30 345 H 32.0811 4.03824 -1.06377 0
M  V30 346 N 32.5182 1.22032 0.997298 0
M  V30 347 C 33.7672 1.03637 1.73038 0
M  V30 348 C 34.0802 -0.429475 1.90827 0
M  V30 349 O 35.2862 -0.732995 2.61418 0
M  V30 350 C 33.7422 1.80582 3.11317 0
M  V30 351 C 33.3502 3.31387 3.01474 0
M  V30 352 C 35.0942 1.70621 3.88701 0
M  V30 353 C 33.0012 4.00791 4.3488 0
M  V30 354 H 31.9312 0.384179 0.648785 0
M  V30 355 H 34.5822 1.4584 1.11368 0
M  V30 356 H 32.9642 1.31175 3.73643 0
M  V30 357 H 34.1382 3.88155 2.4834 0
M  V30 358 H 32.4532 3.41976 2.37575 0
M  V30 359 H 35.0502 2.19799 4.87434 0
M  V30 360 H 35.3932 0.665823 4.10941 0
M  V30 361 H 35.9262 2.17547 3.33044 0
M  V30 362 H 32.6652 5.05064 4.1784 0
M  V30 363 H 32.1852 3.48811 4.87945 0
M  V30 364 H 33.8642 4.06139 5.03647 0
M  V30 365 N 33.9963 -1.19345 1.0293 0
M  V30 366 C 35.2433 -1.89038 0.726008 0
M  V30 367 C 35.5713 -1.79649 -0.745427 0
M  V30 368 O 34.8263 -1.18354 -1.55855 0
M  V30 369 C 35.1253 -3.39292 1.12319 0
M  V30 370 C 34.7913 -3.68885 2.59297 0
M  V30 371 C 33.4533 -3.76671 2.99453 0
M  V30 372 C 35.8053 -3.82178 3.54386 0
M  V30 373 C 33.1333 -3.9522 4.33611 0
M  V30 374 C 35.4853 -4.0224 4.88248 0
M  V30 375 C 34.1493 -4.08259 5.28092 0
M  V30 376 H 33.4193 -0.691739 0.265665 0
M  V30 377 H 36.0663 -1.41328 1.29223 0
M  V30 378 H 34.3713 -3.88903 0.475584 0
M  V30 379 H 36.0683 -3.91536 0.866037 0
M  V30 380 H 32.6583 -3.63433 2.27189 0
M  V30 381 H 36.8423 -3.75505 3.24514 0
M  V30 382 H 32.0983 -3.98119 4.64016 0
M  V30 383 H 36.2723 -4.11468 5.61843 0
M  V30 384 H 33.8993 -4.22384 6.32057 0
M  V30 385 N 35.4744 -0.807222 -1.35358 0
M  V30 386 C 36.7044 -0.399796 -2.02695 0
M  V30 387 C 37.1124 0.994176 -1.60974 0
M  V30 388 O 36.4554 1.65209 -0.803226 0
M  V30 389 C 36.5174 -0.404445 -3.57218 0
M  V30 390 C 36.1814 -1.74904 -4.22206 0
M  V30 391 C 37.1784 -2.70743 -4.4384 0
M  V30 392 C 34.8634 -2.03322 -4.5931 0
M  V30 393 C 36.8574 -3.93183 -5.01683 0
M  V30 394 C 34.5444 -3.26026 -5.16866 0
M  V30 395 C 35.5424 -4.20774 -5.37994 0
M  V30 396 O 35.2304 -5.41312 -5.94337 0
M  V30 397 H 34.9624 -0.160517 -0.656666 0
M  V30 398 H 37.5164 -1.09235 -1.73945 0
M  V30 399 H 35.7464 0.344707 -3.85161 0
M  V30 400 H 37.4354 -0.0192429 -4.05895 0
M  V30 401 H 38.2014 -2.5008 -4.15554 0
M  V30 402 H 34.0804 -1.30384 -4.42178 0
M  V30 403 H 37.6244 -4.6715 -5.1809 0
M  V30 404 H 33.5214 -3.46559 -5.44579 0
M  V30 405 H 34.2894 -5.42618 -6.12787 0
M  V30 406 N 36.9525 1.47285 -0.560781 0
M  V30 407 C 37.8625 2.33846 0.187954 0
M  V30 408 C 38.8785 1.48412 0.908293 0
M  V30 409 O 40.0545 1.81332 0.876388 0
M  V30 410 C 37.1195 3.25178 1.2025 0
M  V30 411 C 36.1805 4.26504 0.489208 0
M  V30 412 C 35.4135 5.13472 1.45542 0
M  V30 413 O 35.6365 5.02959 2.6905 0
M  V30 414 O 34.5705 5.93902 0.977963 0
M  V30 415 H 38.3965 2.99177 -0.522177 0
M  V30 416 H 35.9815 1.45903 -0.321364 0
M  V30 417 H 37.8635 3.81584 1.78805 0
M  V30 418 H 36.5385 2.6247 1.89449 0
M  V30 419 H 35.4455 3.73847 -0.137627 0
M  V30 420 H 36.7785 4.91935 -0.161399 0
M  V30 421 N 38.4306 0.297415 1.54768 0
M  V30 422 C 39.6586 -0.315623 2.04478 0
M  V30 423 C 40.0736 -1.47792 1.17486 0
M  V30 424 O 39.4306 -1.81404 0.19971 0
M  V30 425 C 39.4816 -0.7753 3.53088 0
M  V30 426 O 39.2026 0.340732 4.36773 0
M  V30 427 C 40.7036 -1.45386 4.18781 0
M  V30 428 H 37.9236 -0.0690887 0.667434 0
M  V30 429 H 40.4676 0.436003 1.99798 0
M  V30 430 H 38.6226 -1.47696 3.58141 0
M  V30 431 H 39.0366 -0.0165035 5.24497 0
M  V30 432 H 40.5106 -1.72669 5.24299 0
M  V30 433 H 40.9876 -2.39275 3.68299 0
M  V30 434 H 41.5936 -0.795475 4.17795 0
M  V30 435 N 39.9087 -1.5758 0.0250728 0
M  V30 436 C 40.8407 -2.06869 -0.986796 0
M  V30 437 C 41.8537 -0.991332 -1.29137 0
M  V30 438 O 43.0427 -1.26761 -1.25674 0
M  V30 439 C 40.1427 -2.47486 -2.31525 0
M  V30 440 C 39.3157 -3.78253 -2.19643 0
M  V30 441 C 38.3747 -4.05464 -3.35388 0
M  V30 442 O 37.4007 -4.75774 -3.12454 0
M  V30 443 N 38.6027 -3.55321 -4.59051 0
M  V30 444 H 41.3677 -2.94302 -0.566276 0
M  V30 445 H 38.9287 -1.6109 -0.161776 0
M  V30 446 H 40.9207 -2.62785 -3.07776 0
M  V30 447 H 39.4907 -1.65441 -2.65232 0
M  V30 448 H 38.7107 -3.7279 -1.28144 0
M  V30 449 H 39.9987 -4.63936 -2.08903 0
M  V30 450 H 39.3967 -2.98431 -4.80578 0
M  V30 451 H 37.9537 -3.75905 -5.32483 0
M  V30 452 N 41.3868 0.248026 -1.55636 0
M  V30 453 C 42.7978 0.817177 -1.67866 0
M  V30 454 C 43.1488 1.86069 -0.622322 0
M  V30 455 O 42.2738 2.15157 0.231618 0
M  V30 456 C 42.8688 1.489 -3.04326 0
M  V30 457 C 41.4278 2.00587 -3.185 0
M  V30 458 C 40.5748 0.856573 -2.63739 0
M  V30 459 H 43.5258 0.0238579 -1.58682 0
M  V30 460 H 43.5468 2.35698 -2.98708 0
M  V30 461 H 43.0588 0.729279 -3.81186 0
M  V30 462 H 41.1598 2.79443 -2.4646 0
M  V30 463 H 41.2728 2.20402 -4.25393 0
M  V30 464 H 39.6368 1.25678 -2.21534 0
M  V30 465 H 40.4198 0.109953 -3.43124 0
M  V30 466 N 42.8649 1.48995 0.513639 0
M  V30 467 C 44.0899 1.61792 1.29762 0
M  V30 468 C 44.5149 0.284475 1.85936 0
M  V30 469 O 43.8729 -0.746185 1.65232 0
M  V30 470 C 43.9209 2.67993 2.41272 0
M  V30 471 O 43.0249 2.26287 3.44772 0
M  V30 472 H 42.3659 0.541963 0.38363 0
M  V30 473 H 44.8959 1.95097 0.616307 0
M  V30 474 H 44.9059 2.89772 2.87221 0
M  V30 475 H 43.5809 3.64791 1.9975 0
M  V30 476 H 42.1579 2.14788 3.04829 0
M  V30 477 N 44.343 -0.763751 1.37857 0
M  V30 478 C 45.273 -1.89103 1.36975 0
M  V30 479 C 46.254 -1.68439 0.237152 0
M  V30 480 O 47.439 -1.8918 0.438713 0
M  V30 481 C 44.569 -3.26496 1.18395 0
M  V30 482 C 43.523 -3.61741 2.28751 0
M  V30 483 C 42.849 -4.97762 1.95286 0
M  V30 484 C 44.149 -3.67665 3.70972 0
M  V30 485 H 45.843 -1.90099 2.31307 0
M  V30 486 H 43.389 -0.91319 1.11341 0
M  V30 487 H 45.342 -4.05003 1.16406 0
M  V30 488 H 44.066 -3.25955 0.205215 0
M  V30 489 H 42.725 -2.85547 2.29909 0
M  V30 490 H 42.373 -4.93769 0.959221 0
M  V30 491 H 42.073 -5.22313 2.69189 0
M  V30 492 H 43.597 -5.7866 1.94898 0
M  V30 493 H 45.011 -4.36307 3.719 0
M  V30 494 H 43.408 -4.03718 4.43995 0
M  V30 495 H 44.478 -2.68134 4.0402 0
M  V30 496 N 45.8211 -1.22559 -0.990812 0
M  V30 497 C 47.0671 -1.06303 -1.73411 0
M  V30 498 C 47.4221 0.397442 -1.8825 0
M  V30 499 O 46.7151 1.29062 -1.41611 0
M  V30 500 C 46.9091 -1.71011 -3.13831 0
M  V30 501 C 46.7381 -3.232 -3.12685 0
M  V30 502 C 45.5081 -3.92314 -3.18461 0
M  V30 503 C 47.7061 -4.20107 -2.96673 0
M  V30 504 N 45.6881 -5.31571 -3.07091 0
M  V30 505 C 47.0591 -5.46208 -2.93354 0
M  V30 506 C 49.1141 -4.10973 -2.8108 0
M  V30 507 C 47.8171 -6.64225 -2.76039 0
M  V30 508 C 49.8431 -5.28642 -2.65126 0
M  V30 509 C 49.2051 -6.53663 -2.62496 0
M  V30 510 H 45.3041 -0.443441 -0.644115 0
M  V30 511 H 47.8881 -1.55131 -1.17654 0
M  V30 512 H 46.0591 -1.2473 -3.67827 0
M  V30 513 H 47.7911 -1.47828 -3.76735 0
M  V30 514 H 44.5461 -3.43326 -3.26227 0
M  V30 515 H 44.9701 -6.0455 -3.0471 0
M  V30 516 H 49.6121 -3.15098 -2.8191 0
M  V30 517 H 47.3301 -7.60246 -2.73954 0
M  V30 518 H 50.9161 -5.23407 -2.54039 0
M  V30 519 H 49.7961 -7.43182 -2.50302 0
M  V30 520 N 47.2992 1.18797 -1.03562 0
M  V30 521 C 48.2622 2.20464 -0.626769 0
M  V30 522 C 49.2622 1.57721 0.313173 0
M  V30 523 O 50.4522 1.73917 0.0992615 0
M  V30 524 C 47.5842 3.40802 0.0818498 0
M  V30 525 H 48.7772 2.58149 -1.5264 0
M  V30 526 H 46.3302 1.32593 -0.827578 0
M  V30 527 H 47.0652 3.08642 0.995518 0
M  V30 528 H 46.8502 3.8758 -0.593652 0
M  V30 529 H 48.3402 4.16092 0.354584 0
M  V30 530 N 48.7773 0.814389 1.34928 0
M  V30 531 C 49.6873 0.231978 2.3345 0
M  V30 532 C 50.7033 -0.629139 1.62228 0
M  V30 533 O 51.8793 -0.539052 1.94052 0
M  V30 534 C 48.9443 -0.603482 3.41407 0
M  V30 535 C 48.0053 0.279037 4.28392 0
M  V30 536 C 47.2383 -0.516643 5.31193 0
M  V30 537 O 47.4613 -1.75068 5.4287 0
M  V30 538 O 46.3953 0.0965652 6.01823 0
M  V30 539 H 50.2213 1.04721 2.85074 0
M  V30 540 H 47.8063 0.576343 1.37836 0
M  V30 541 H 49.6883 -1.07908 4.0735 0
M  V30 542 H 48.3633 -1.39618 2.92042 0
M  V30 543 H 47.2703 0.801948 3.65403 0
M  V30 544 H 48.6033 1.03588 4.81176 0
M  V30 545 N 50.2554 -1.46986 0.568584 0
M  V30 546 C 51.4804 -2.07335 0.0520528 0
M  V30 547 C 51.9054 -1.41675 -1.23733 0
M  V30 548 O 51.2634 -0.495623 -1.74394 0
M  V30 549 C 51.3114 -3.60417 -0.11501 0
M  V30 550 O 50.4154 -3.95309 -1.17492 0
M  V30 551 H 49.7564 -0.661597 0.0564385 0
M  V30 552 H 52.2864 -1.88837 0.787507 0
M  V30 553 H 52.2964 -4.06698 -0.325644 0
M  V30 554 H 50.9714 -4.07601 0.826675 0
M  V30 555 H 49.5484 -3.60757 -0.943869 0
M  V30 556 N 51.7335 -0.305618 -1.54608 0
M  V30 557 C 52.6435 0.57778 -2.27374 0
M  V30 558 C 53.6595 1.14451 -1.31061 0
M  V30 559 O 54.8355 1.16831 -1.6405 0
M  V30 560 C 51.9005 1.73123 -3.00382 0
M  V30 561 C 50.9615 1.19812 -4.12242 0
M  V30 562 C 50.1945 2.2966 -4.81759 0
M  V30 563 O 50.4175 3.49651 -4.50666 0
M  V30 564 O 49.3515 1.96091 -5.69062 0
M  V30 565 H 53.1775 -0.012624 -3.03697 0
M  V30 566 H 50.7625 -0.0719184 -1.49227 0
M  V30 567 H 52.6445 2.40315 -3.4616 0
M  V30 568 H 51.3195 2.30815 -2.26949 0
M  V30 569 H 50.2265 0.491798 -3.70853 0
M  V30 570 H 51.5595 0.666566 -4.87666 0
M  V30 571 N 53.2116 1.57565 -0.0334293 0
M  V30 572 C 54.4366 1.96689 0.657895 0
M  V30 573 C 54.8616 0.910057 1.64619 0
M  V30 574 O 54.2196 -0.128598 1.80843 0
M  V30 575 C 54.2676 3.34905 1.33683 0
M  V30 576 O 53.3716 3.31574 2.45219 0
M  V30 577 H 52.7126 0.641205 0.172489 0
M  V30 578 H 55.2426 2.04372 -0.0965621 0
M  V30 579 H 55.2526 3.71234 1.69262 0
M  V30 580 H 53.9276 4.11366 0.612411 0
M  V30 581 H 52.5046 3.06968 2.11719 0
M  V30 582 N 54.6897 -0.239769 1.55765 0
M  V30 583 C 55.6197 -1.30052 1.9393 0
M  V30 584 C 56.6007 -1.49839 0.805132 0
M  V30 585 O 57.7857 -1.62328 1.06599 0
M  V30 586 C 54.9157 -2.65391 2.2402 0
M  V30 587 C 53.8697 -2.60289 3.39755 0
M  V30 588 C 53.1957 -3.99489 3.55405 0
M  V30 589 C 54.4957 -2.16654 4.75246 0
M  V30 590 H 56.1897 -0.983573 2.82783 0
M  V30 591 H 53.7357 -0.471701 1.36055 0
M  V30 592 H 55.6887 -3.3974 2.49308 0
M  V30 593 H 54.4127 -2.98736 1.32 0
M  V30 594 H 53.0717 -1.88398 3.14487 0
M  V30 595 H 52.7197 -4.30112 2.60793 0
M  V30 596 H 52.4197 -3.96962 4.33238 0
M  V30 597 H 53.9437 -4.75528 3.83022 0
M  V30 598 H 55.3577 -2.80737 4.99859 0
M  V30 599 H 53.7547 -2.25223 5.56232 0
M  V30 600 H 54.8247 -1.11835 4.71827 0
M  V30 601 N 56.1678 -1.49265 -0.50573 0
M  V30 602 C 57.0978 -1.68495 -1.61653 0
M  V30 603 C 58.0788 -0.53366 -1.61512 0
M  V30 604 O 59.2638 -0.76897 -1.78327 0
M  V30 605 C 56.3938 -1.74709 -3.00157 0
M  V30 606 C 55.3478 -2.89581 -3.15162 0
M  V30 607 C 54.6738 -2.80903 -4.5497 0
M  V30 608 C 55.9738 -4.30578 -2.95634 0
M  V30 609 H 57.6678 -2.61493 -1.45814 0
M  V30 610 H 55.2138 -1.25838 -0.70005 0
M  V30 611 H 57.1668 -1.86748 -3.77761 0
M  V30 612 H 55.8908 -0.783067 -3.17074 0
M  V30 613 H 54.5498 -2.77136 -2.39982 0
M  V30 614 H 54.1978 -1.82419 -4.68756 0
M  V30 615 H 53.8978 -3.57999 -4.65951 0
M  V30 616 H 55.4218 -2.94944 -5.34641 0
M  V30 617 H 56.8358 -4.4373 -3.63011 0
M  V30 618 H 55.2328 -5.0886 -3.18091 0
M  V30 619 H 56.3028 -4.45352 -1.91806 0
M  V30 620 N 57.6459 0.756429 -1.3826 0
M  V30 621 C 58.5929 1.87011 -1.35261 0
M  V30 622 C 59.5629 1.64695 -0.215616 0
M  V30 623 O 60.7479 1.864 -0.407399 0
M  V30 624 C 57.8879 3.24275 -1.18068 0
M  V30 625 C 57.0009 3.58442 -2.41129 0
M  V30 626 C 56.1359 4.84994 -2.16689 0
M  V30 627 C 55.1749 5.11939 -3.35537 0
M  V30 628 N 54.3119 6.29685 -3.10549 0
M  V30 629 H 59.1519 1.8891 -2.30472 0
M  V30 630 H 56.6889 0.923373 -1.14509 0
M  V30 631 H 58.6469 4.03479 -1.06116 0
M  V30 632 H 57.2769 3.21711 -0.264973 0
M  V30 633 H 56.3289 2.74103 -2.63764 0
M  V30 634 H 57.6409 3.74283 -3.29717 0
M  V30 635 H 56.7949 5.72135 -2.01857 0
M  V30 636 H 55.5339 4.71286 -1.25462 0
M  V30 637 H 54.5389 4.23268 -3.50891 0
M  V30 638 H 55.7639 5.27546 -4.27635 0
M  V30 639 H 53.7099 6.17306 -2.21967 0
M  V30 640 H 53.6269 6.46014 -3.92686 0
M  V30 641 H 54.8949 7.19722 -2.99367 0
M  V30 642 N 59.124 1.23083 0.984299 0
M  V30 643 C 60.535 1.05609 1.5396 0
M  V30 644 C 60.886 -0.377793 1.92528 0
M  V30 645 O 60.011 -1.26398 1.75649 0
M  V30 646 C 60.606 1.91087 2.7977 0
M  V30 647 C 59.165 1.77885 3.31713 0
M  V30 648 C 58.312 1.87028 2.04733 0
M  V30 649 H 61.263 1.36802 0.804419 0
M  V30 650 H 61.284 1.43336 3.5247 0
M  V30 651 H 60.796 2.9544 2.51668 0
M  V30 652 H 58.897 0.762995 3.64704 0
M  V30 653 H 59.01 2.61047 4.01735 0
M  V30 654 H 57.374 1.30565 2.18689 0
M  V30 655 H 58.157 2.92929 1.79017 0
M  V30 656 N 60.6021 -1.18246 1.0419 0
M  V30 657 C 61.5321 -2.24127 0.654914 0
M  V30 658 C 62.5131 -1.66617 -0.342451 0
M  V30 659 O 63.6981 -1.92924 -0.222277 0
M  V30 660 C 60.8281 -3.47295 0.0183757 0
M  V30 661 C 59.7821 -4.17563 0.939414 0
M  V30 662 C 59.1081 -5.34438 0.167286 0
M  V30 663 C 60.4081 -4.70917 2.25908 0
M  V30 664 H 62.1021 -2.56753 1.54007 0
M  V30 665 H 59.6481 -1.23414 0.74195 0
M  V30 666 H 61.6011 -4.20572 -0.264082 0
M  V30 667 H 60.3251 -3.13907 -0.901664 0
M  V30 668 H 58.9841 -3.46186 1.20628 0
M  V30 669 H 58.6321 -4.97298 -0.7552 0
M  V30 670 H 58.3321 -5.82388 0.780901 0
M  V30 671 H 59.8561 -6.10504 -0.108125 0
M  V30 672 H 61.2701 -5.35882 2.03724 0
M  V30 673 H 59.6671 -5.29406 2.82577 0
M  V30 674 H 60.7371 -3.88272 2.9047 0
M  V30 675 N 62.0802 -0.821533 -1.34494 0
M  V30 676 C 63.0432 -0.247847 -2.27856 0
M  V30 677 C 64.0432 0.573453 -1.50227 0
M  V30 678 O 65.2332 0.389759 -1.69784 0
M  V30 679 C 62.3652 0.652698 -3.34593 0
M  V30 680 H 63.5582 -1.07146 -2.80107 0
M  V30 681 H 61.1112 -0.593291 -1.44602 0
M  V30 682 H 61.8462 1.49943 -2.87555 0
M  V30 683 H 61.6312 0.065292 -3.92046 0
M  V30 684 H 63.1212 1.04793 -4.04238 0
M  V30 685 N 63.5583 1.46682 -0.576371 0
M  V30 686 C 64.5063 2.31953 0.17335 0
M  V30 687 C 65.5003 1.44098 0.89062 0
M  V30 688 O 66.7063 1.60759 0.809728 0
M  V30 689 H 63.0813 0.748273 0.0747727 0
M  V30 690 H 65.0523 2.93007 -0.564738 0
M  V30 691 C 63.8013 3.27142 1.17786 0
M  V30 692 H 63.1243 3.94719 0.635361 0
M  V30 693 H 64.5643 3.896 1.67296 0
M  V30 694 C 63.0233 2.52036 2.23561 0
M  V30 695 O 63.5533 2.27877 3.3081 0
M  V30 696 N 61.7593 2.12709 1.97998 0
M  V30 697 H 61.3063 2.32557 1.10792 0
M  V30 698 H 61.2643 1.62776 2.68982 0
M  V30 699 N 65.0364 0.313813 1.54444 0
M  V30 700 C 66.2824 -0.292108 2.00685 0
M  V30 701 C 66.6154 -1.52548 1.20177 0
M  V30 702 O 65.8904 -1.92452 0.281531 0
M  V30 703 C 66.1734 -0.635968 3.5444 0
M  V30 704 C 66.0264 0.607437 4.4568 0
M  V30 705 C 67.3454 -1.45747 4.15266 0
M  V30 706 H 64.4644 -0.104697 0.729526 0
M  V30 707 H 67.1064 0.428457 1.85106 0
M  V30 708 H 65.2564 -1.24986 3.67846 0
M  V30 709 H 66.9284 1.24581 4.44159 0
M  V30 710 H 65.1714 1.23822 4.15753 0
M  V30 711 H 65.8424 0.322515 5.51057 0
M  V30 712 H 68.3184 -0.938645 4.05375 0
M  V30 713 H 67.1944 -1.66683 5.2298 0
M  V30 714 H 67.4554 -2.45063 3.67963 0
M  V30 715 N 66.5145 -1.57545 0.0417849 0
M  V30 716 C 67.7425 -1.96624 -0.643928 0
M  V30 717 C 68.1575 -0.918897 -1.64929 0
M  V30 718 O 67.5145 0.0979323 -1.82237 0
M  V30 719 C 67.5655 -3.35781 -1.33914 0
M  V30 720 O 67.2865 -4.365 -0.374048 0
M  V30 721 C 68.7875 -3.89566 -2.1155 0
M  V30 722 H 66.0075 -0.647316 -0.176702 0
M  V30 723 H 68.5515 -2.04229 0.105304 0
M  V30 724 H 66.7065 -3.29357 -2.03968 0
M  V30 725 H 67.1205 -5.17248 -0.869179 0
M  V30 726 H 68.5945 -4.89242 -2.55628 0
M  V30 727 H 69.0715 -3.24488 -2.9598 0
M  V30 728 H 69.6775 -3.99298 -1.46427 0
M  V30 729 N 67.9926 0.231505 -1.5589 0
M  V30 730 C 68.9226 1.29022 -1.94617 0
M  V30 731 C 69.9036 1.4941 -0.813067 0
M  V30 732 O 71.0886 1.6176 -1.07459 0
M  V30 733 C 68.2186 2.64199 -2.25424 0
M  V30 734 C 67.1726 2.58484 -3.41131 0
M  V30 735 C 66.4986 3.97599 -3.57518 0
M  V30 736 C 67.7986 2.1413 -4.76388 0
M  V30 737 H 69.4926 0.968563 -2.83301 0
M  V30 738 H 67.0386 0.464479 -1.36303 0
M  V30 739 H 68.9916 3.38413 -2.51107 0
M  V30 740 H 67.7156 2.98032 -1.33583 0
M  V30 741 H 66.3746 1.86727 -3.15481 0
M  V30 742 H 66.0226 4.28723 -2.6307 0
M  V30 743 H 65.7226 3.94659 -4.35337 0
M  V30 744 H 67.2466 4.7349 -3.85538 0
M  V30 745 H 68.6606 2.78083 -5.01341 0
M  V30 746 H 67.0576 2.2227 -5.57419 0
M  V30 747 H 68.1276 1.09331 -4.72414 0
M  V30 748 N 69.4707 1.49531 0.497807 0
M  V30 749 C 70.6987 1.62893 1.27567 0
M  V30 750 C 71.1137 0.301585 1.86376 0
M  V30 751 O 70.4707 -0.713335 1.67982 0
M  V30 752 C 70.5217 2.70013 2.40364 0
M  V30 753 O 70.2427 3.976 1.83972 0
M  V30 754 C 71.7437 2.94109 3.31685 0
M  V30 755 H 68.9637 0.548298 0.386794 0
M  V30 756 H 71.5077 1.95584 0.597245 0
M  V30 757 H 69.6627 2.40092 3.04031 0
M  V30 758 H 70.0767 4.56631 2.58047 0
M  V30 759 H 71.5507 3.72788 4.07104 0
M  V30 760 H 72.0277 2.04147 3.88871 0
M  V30 761 H 72.6337 3.2546 2.73781 0
M  V30 762 N 70.9488 -0.749086 1.3866 0
M  V30 763 C 72.1888 -1.52112 1.36534 0
M  V30 764 C 72.5528 -1.91951 -0.0432316 0
M  V30 765 O 73.7538 -2.68132 -0.189396 0
M  V30 766 C 72.0248 -2.73704 2.29828 0
M  V30 767 S 73.5838 -3.63519 2.45763 0
M  V30 768 H 70.4018 -0.520482 0.484375 0
M  V30 769 H 73.0038 -0.878963 1.74627 0
M  V30 770 H 71.7078 -2.42552 3.31054 0
M  V30 771 H 71.2388 -3.4286 1.929 0
M  V30 772 H 73.2538 -4.66712 1.68505 0
M  V30 773 N 72.4269 -1.23603 -0.977757 0
M  V30 774 C 73.3589 -0.977369 -2.07317 0
M  V30 775 C 74.3719 0.0495845 -1.62724 0
M  V30 776 O 75.5609 -0.186261 -1.77526 0
M  V30 777 C 72.6609 -0.451216 -3.35883 0
M  V30 778 C 71.8339 -1.53896 -4.09432 0
M  V30 779 C 70.8929 -1.01721 -5.16274 0
M  V30 780 O 69.9189 -1.70676 -5.43009 0
M  V30 781 N 71.1209 0.153594 -5.80297 0
M  V30 782 H 73.8859 -1.92047 -2.30082 0
M  V30 783 H 71.4469 -1.14497 -1.14465 0
M  V30 784 H 73.4389 -0.0871574 -4.04606 0
M  V30 785 H 72.0089 0.397368 -3.10064 0
M  V30 786 H 71.2289 -2.07566 -3.35127 0
M  V30 787 H 72.5169 -2.27037 -4.55337 0
M  V30 788 H 71.9149 0.730323 -5.60966 0
M  V30 789 H 70.4719 0.458892 -6.50183 0
M  V30 790 N 73.905 1.17692 -1.04816 0
M  V30 791 C 74.868 2.19787 -0.650117 0
M  V30 792 C 75.868 1.58044 0.296427 0
M  V30 793 O 77.058 1.74012 0.0808097 0
M  V30 794 C 74.19 3.40869 0.0456987 0
M  V30 795 H 75.383 2.56516 -1.5537 0
M  V30 796 H 72.936 1.31708 -0.841594 0
M  V30 797 H 73.671 3.09681 0.962726 0
M  V30 798 H 73.456 3.86928 -0.634727 0
M  V30 799 H 74.946 4.16445 0.310432 0
M  V30 800 N 75.3831 0.828654 1.34056 0
M  V30 801 C 76.3331 0.226828 2.26869 0
M  V30 802 C 77.3171 -0.612243 1.48796 0
M  V30 803 O 78.5091 -0.465884 1.70759 0
M  V30 804 C 75.6381 -0.605654 3.37915 0
M  V30 805 C 74.7241 0.244361 4.23395 0
M  V30 806 N 75.1151 1.31815 4.88322 0
M  V30 807 C 73.4131 0.0296616 4.4599 0
M  V30 808 C 74.1141 1.83895 5.51867 0
M  V30 809 N 73.0901 1.14196 5.3147 0
M  V30 810 H 76.8921 1.04811 2.74576 0
M  V30 811 H 74.4061 0.67205 1.47842 0
M  V30 812 H 76.4031 -1.05302 4.03382 0
M  V30 813 H 75.0631 -1.42504 2.91758 0
M  V30 814 H 76.0741 1.70099 4.8917 0
M  V30 815 H 72.7511 -0.757097 4.10578 0
M  V30 816 H 74.1411 2.7376 6.136 0
M  V30 817 N 76.8612 -1.46375 0.584142 0
M  V30 818 C 77.7912 -2.33103 -0.136037 0
M  V30 819 C 78.7722 -1.45431 -0.882255 0
M  V30 820 O 79.9572 -1.74246 -0.857434 0
M  V30 821 C 77.0872 -3.27731 -1.14933 0
M  V30 822 C 76.0412 -4.24855 -0.517862 0
M  V30 823 C 75.3672 -5.09001 -1.63773 0
M  V30 824 C 76.6672 -5.19439 0.545886 0
M  V30 825 H 78.3612 -2.93568 0.588086 0
M  V30 826 H 75.9072 -1.41166 0.284259 0
M  V30 827 H 77.8602 -3.87261 -1.66153 0
M  V30 828 H 76.5842 -2.65377 -1.90375 0
M  V30 829 H 75.2432 -3.6659 -0.0267361 0
M  V30 830 H 74.8912 -4.43031 -2.38185 0
M  V30 831 H 74.5912 -5.74777 -1.22085 0
M  V30 832 H 76.1152 -5.71396 -2.15266 0
M  V30 833 H 77.5292 -5.73177 0.118704 0
M  V30 834 H 75.9262 -5.93566 0.88317 0
M  V30 835 H 76.9962 -4.63285 1.43162 0
M  V30 836 N 78.3393 -0.321999 -1.54275 0
M  V30 837 C 79.2493 0.553631 -2.27974 0
M  V30 838 C 80.2653 1.13054 -1.32268 0
M  V30 839 O 81.4413 1.15084 -1.6528 0
M  V30 840 C 78.5063 1.69927 -3.02201 0
M  V30 841 C 77.5673 1.15433 -4.1349 0
M  V30 842 C 76.8003 2.24537 -4.84168 0
M  V30 843 O 77.0233 3.44852 -4.5435 0
M  V30 844 O 75.9573 1.90044 -5.7111 0
M  V30 845 H 79.7833 -0.0448345 -3.03667 0
M  V30 846 H 77.3683 -0.0877418 -1.49142 0
M  V30 847 H 79.2503 2.3663 -3.48689 0
M  V30 848 H 77.9253 2.28395 -2.29385 0
M  V30 849 H 76.8323 0.452436 -3.71354 0
M  V30 850 H 78.1653 0.614805 -4.88345 0
M  V30 851 N 79.8174 1.5752 -0.0501392 0
M  V30 852 C 81.0454 1.96963 0.633492 0
M  V30 853 C 81.4604 0.927631 1.6444 0
M  V30 854 O 80.8174 -0.0882665 1.82286 0
M  V30 855 C 80.8684 3.36487 1.32132 0
M  V30 856 O 80.5894 4.36693 0.350894 0
M  V30 857 C 82.0904 3.90682 2.09481 0
M  V30 858 H 79.3104 0.648244 0.173266 0
M  V30 859 H 81.8544 2.0417 -0.116134 0
M  V30 860 H 80.0094 3.30434 2.02218 0
M  V30 861 H 80.4234 5.17702 0.841735 0
M  V30 862 H 81.8974 4.90591 2.5303 0
M  V30 863 H 82.3744 3.26053 2.94255 0
M  V30 864 H 82.9804 4.00069 1.44307 0
M  V30 865 N 81.2955 -0.223234 1.56011 0
M  V30 866 C 82.7065 -0.790368 1.69145 0
M  V30 867 C 83.0575 -1.85055 0.651845 0
M  V30 868 O 82.1825 -2.15498 -0.197359 0
M  V30 869 C 82.7775 -1.4404 3.06656 0
M  V30 870 C 81.3365 -1.95494 3.2165 0
M  V30 871 C 80.4835 -0.814506 2.65068 0
M  V30 872 H 83.4345 0.00139011 1.587 0
M  V30 873 H 83.4555 -2.30916 3.0242 0
M  V30 874 H 82.9675 -0.668543 3.82298 0
M  V30 875 H 81.0685 -2.75487 2.50874 0
M  V30 876 H 81.1815 -2.13607 4.28846 0
M  V30 877 H 79.5455 -1.22137 2.23505 0
M  V30 878 H 80.3285 -0.0553515 3.43255 0
M  V30 879 N 82.7736 -1.49793 -0.48987 0
M  V30 880 C 84.0506 -1.50348 -1.25119 0
M  V30 881 C 84.4306 -0.237466 -2.0976 0
M  V30 882 O 83.7786 0.77981 -2.14782 0
M  V30 883 C 83.9886 -2.78872 -2.09837 0
M  V30 884 C 85.3366 -3.288 -2.68655 0
M  V30 885 O 86.3606 -2.80065 -2.20096 0
M  V30 886 O 85.2196 -4.13707 -3.57083 0
M  V30 887 H 82.3136 -0.602242 -0.566775 0
M  V30 888 H 84.8596 -1.62067 -0.503229 0
M  V30 889 H 83.6316 -3.62499 -1.47343 0
M  V30 890 H 83.2546 -2.70066 -2.91805 0
M  V30 891 N 84.2517 0.741722 -1.39055 0
M  V30 892 C 85.4987 1.50114 -1.35912 0
M  V30 893 C 85.8267 1.94443 0.0470937 0
M  V30 894 O 85.0817 1.66612 1.02659 0
M  V30 895 C 85.3807 2.7592 -2.27163 0
M  V30 896 C 85.0467 2.50493 -3.74919 0
M  V30 897 C 83.7087 2.43267 -4.1518 0
M  V30 898 C 86.0607 2.28585 -4.684 0
M  V30 899 C 83.3887 2.12166 -5.46994 0
M  V30 900 C 85.7407 1.99002 -6.00484 0
M  V30 901 C 84.4047 1.90241 -6.39816 0
M  V30 902 H 83.6747 0.549306 -0.497336 0
M  V30 903 H 86.3217 0.851896 -1.71508 0
M  V30 904 H 84.6267 3.45553 -1.84663 0
M  V30 905 H 86.3237 3.33923 -2.22028 0
M  V30 906 H 82.9137 2.56992 -3.43006 0
M  V30 907 H 87.0977 2.33139 -4.38132 0
M  V30 908 H 82.3537 2.03901 -5.76398 0
M  V30 909 H 86.5277 1.81057 -6.72452 0
M  V30 910 H 84.1547 1.65907 -7.41875 0
M  V30 911 N 85.7298 1.2412 0.971189 0
M  V30 912 C 86.6618 0.988349 2.06795 0
M  V30 913 C 87.6748 -0.0409541 1.62748 0
M  V30 914 O 88.8638 0.195673 1.77424 0
M  V30 915 C 85.9638 0.469023 3.35639 0
M  V30 916 C 85.1368 1.56065 4.08611 0
M  V30 917 C 84.1958 1.04458 5.15728 0
M  V30 918 O 83.2218 1.73553 5.42096 0
M  V30 919 N 84.4238 -0.122817 5.8037 0
M  V30 920 H 87.1888 1.93265 2.29061 0
M  V30 921 H 84.7498 1.15102 1.13856 0
M  V30 922 H 86.7418 0.108613 4.04554 0
M  V30 923 H 85.3118 -0.380919 3.1027 0
M  V30 924 H 84.5318 2.09341 3.34021 0
M  V30 925 H 85.8198 2.29449 4.54126 0
M  V30 926 H 85.2178 -0.700563 5.61345 0
M  V30 927 H 83.7748 -0.424404 6.50417 0
M  V30 928 N 87.2079 -1.17134 1.05439 0
M  V30 929 C 88.1379 -2.2342 0.678649 0
M  V30 930 C 89.1189 -1.66971 -0.32476 0
M  V30 931 O 90.3039 -1.93149 -0.201802 0
M  V30 932 C 87.4339 -3.47256 0.0552099 0
M  V30 933 C 86.3879 -4.16543 0.98365 0
M  V30 934 C 85.7139 -5.34231 0.223961 0
M  V30 935 C 87.0139 -4.68495 2.3089 0
M  V30 936 H 88.7079 -2.55105 1.56722 0
M  V30 937 H 86.2539 -1.2262 0.754998 0
M  V30 938 H 88.2069 -4.20828 -0.21946 0
M  V30 939 H 86.9309 -3.14846 -0.868319 0
M  V30 940 H 85.5899 -3.44887 1.24293 0
M  V30 941 H 85.2379 -4.98071 -0.702412 0
M  V30 942 H 84.9379 -5.81527 0.842627 0
M  V30 943 H 86.4619 -6.10585 -0.0433671 0
M  V30 944 H 87.8759 -5.33691 2.09396 0
M  V30 945 H 86.2729 -5.26379 2.88176 0
M  V30 946 H 87.3429 -3.85169 2.94572 0
M  V30 947 N 88.686 -0.835752 -1.33615 0
M  V30 948 C 89.933 -0.429959 -1.97883 0
M  V30 949 C 90.261 1.01006 -1.66217 0
M  V30 950 O 89.516 1.72047 -0.93265 0
M  V30 951 C 89.815 -0.593925 -3.52431 0
M  V30 952 C 89.481 -2.00158 -4.04039 0
M  V30 953 C 88.143 -2.38662 -4.17844 0
M  V30 954 C 90.495 -2.92117 -4.31644 0
M  V30 955 C 87.823 -3.68435 -4.56588 0
M  V30 956 C 90.175 -4.21368 -4.71838 0
M  V30 957 C 88.839 -4.59833 -4.83849 0
M  V30 958 H 88.109 -0.157333 -0.724104 0
M  V30 959 H 90.756 -1.06217 -1.59343 0
M  V30 960 H 89.061 0.121619 -3.91611 0
M  V30 961 H 90.758 -0.260282 -4.00154 0
M  V30 962 H 87.348 -1.69252 -3.93766 0
M  V30 963 H 91.532 -2.63608 -4.20505 0
M  V30 964 H 86.788 -3.98046 -4.64079 0
M  V30 965 H 90.962 -4.92703 -4.92155 0
M  V30 966 H 88.589 -5.60438 -5.13627 0
M  V30 967 N 90.1641 1.46063 -0.591896 0
M  V30 968 C 91.1111 2.30399 0.136069 0
M  V30 969 C 92.0811 1.41169 0.875238 0
M  V30 970 O 93.2661 1.70112 0.86409 0
M  V30 971 C 90.4061 3.25804 1.13781 0
M  V30 972 C 89.5191 4.30134 0.401137 0
M  V30 973 C 88.6541 5.12659 1.39121 0
M  V30 974 C 87.6931 6.0873 0.641462 0
M  V30 975 N 86.8301 6.8409 1.58004 0
M  V30 976 H 91.6701 2.92118 -0.589144 0
M  V30 977 H 89.2071 1.43959 -0.302342 0
M  V30 978 H 91.1651 3.79569 1.73156 0
M  V30 979 H 89.7951 2.65872 1.83062 0
M  V30 980 H 88.8471 3.79152 -0.307826 0
M  V30 981 H 90.1591 4.98458 -0.184565 0
M  V30 982 H 89.3131 5.70747 2.05749 0
M  V30 983 H 88.0521 4.44316 2.01084 0
M  V30 984 H 87.0571 5.49786 -0.0385419 0
M  V30 985 H 88.2821 6.79095 0.0270945 0
M  V30 986 H 86.2281 6.18449 2.18761 0
M  V30 987 H 86.1451 7.48709 1.04738 0
M  V30 988 H 87.4131 7.4673 2.23639 0
M  V30 989 N 91.6422 0.330177 1.54103 0
M  V30 990 C 92.5902 -0.548226 2.26047 0
M  V30 991 C 93.5842 -1.11309 1.27698 0
M  V30 992 O 94.7902 -1.06036 1.45452 0
M  V30 993 H 91.1652 -0.195456 0.726155 0
M  V30 994 H 93.1362 0.0807567 2.98291 0
M  V30 995 C 91.8852 -1.69415 3.03634 0
M  V30 996 H 91.2082 -1.26876 3.79134 0
M  V30 997 H 92.6482 -2.28423 3.5721 0
M  V30 998 C 91.1072 -2.61569 2.12328 0
M  V30 999 O 91.6372 -3.63462 1.7105 0
M  V30 1000 N 89.8432 -2.29952 1.77681 0
M  V30 1001 H 89.3902 -1.47134 2.11446 0
M  V30 1002 H 89.3482 -2.91871 1.16869 0
M  V30 1003 N 93.1203 -1.57491 0.0584922 0
M  V30 1004 C 94.3683 -1.92597 -0.612436 0
M  V30 1005 C 94.6893 -0.938162 -1.70949 0
M  V30 1006 O 93.9593 0.0158301 -1.95894 0
M  V30 1007 H 92.5393 -0.710964 -0.229214 0
M  V30 1008 H 95.2013 -1.94571 0.113218 0
M  V30 1009 H 94.2973 -2.94038 -1.04633 0
M  V30 1010 N 94.5984 0.214957 -1.56127 0
M  V30 1011 C 95.8444 0.939762 -1.79712 0
M  V30 1012 C 96.1774 1.83723 -0.629247 0
M  V30 1013 O 95.4524 1.90925 0.371197 0
M  V30 1014 C 95.7354 1.77306 -3.13424 0
M  V30 1015 C 95.5884 0.90164 -4.40671 0
M  V30 1016 C 96.9074 2.74956 -3.43638 0
M  V30 1017 H 94.0264 0.340214 -0.653776 0
M  V30 1018 H 96.6684 0.20824 -1.88855 0
M  V30 1019 H 94.8184 2.39673 -3.0576 0
M  V30 1020 H 96.4904 0.294206 -4.60361 0
M  V30 1021 H 94.7334 0.207368 -4.33304 0
M  V30 1022 H 95.4044 1.51923 -5.30682 0
M  V30 1023 H 97.8804 2.22724 -3.51473 0
M  V30 1024 H 96.7564 3.30358 -4.38355 0
M  V30 1025 H 97.0174 3.53023 -2.66134 0
M  V30 1026 N 96.0765 1.50051 0.48192 0
M  V30 1027 C 97.0395 1.67584 1.5636 0
M  V30 1028 C 98.0395 0.546894 1.51214 0
M  V30 1029 O 99.2295 0.813725 1.54026 0
M  V30 1030 C 96.3615 1.691 2.96003 0
M  V30 1031 H 97.5545 2.64078 1.42136 0
M  V30 1032 H 95.1075 1.39369 0.707533 0
M  V30 1033 H 95.8425 0.742589 3.15684 0
M  V30 1034 H 95.6275 2.51105 3.01146 0
M  V30 1035 H 97.1175 1.84656 3.74556 0
M  V30 1036 N 97.5546 -0.734337 1.39446 0
M  V30 1037 C 98.4866 -1.85861 1.34121 0
M  V30 1038 C 99.4996 -1.60871 0.249864 0
M  V30 1039 O 100.689 -1.71093 0.508865 0
M  V30 1040 C 97.7886 -3.21899 1.05991 0
M  V30 1041 C 96.9616 -3.74239 2.26415 0
M  V30 1042 C 96.0206 -4.88841 1.94733 0
M  V30 1043 O 95.0466 -5.02468 2.67422 0
M  V30 1044 N 96.2486 -5.73261 0.913884 0
M  V30 1045 H 99.0136 -1.90934 2.31007 0
M  V30 1046 H 96.5746 -0.915102 1.33557 0
M  V30 1047 H 98.5666 -3.96136 0.828147 0
M  V30 1048 H 97.1366 -3.12091 0.178361 0
M  V30 1049 H 96.3566 -2.91347 2.65539 0
M  V30 1050 H 97.6446 -4.05942 3.06738 0
M  V30 1051 H 97.0426 -5.64842 0.311476 0
M  V30 1052 H 95.5996 -6.47563 0.742015 0
M  V30 1053 N 99.0327 -1.24633 -0.964593 0
M  V30 1054 C 99.9427 -1.05859 -2.09359 0
M  V30 1055 C 100.959 0.00148855 -1.74 0
M  V30 1056 O 102.135 -0.197346 -2.00431 0
M  V30 1057 C 99.1997 -0.668879 -3.40187 0
M  V30 1058 C 98.2607 -1.80578 -3.89474 0
M  V30 1059 C 97.4937 -1.43457 -5.14058 0
M  V30 1060 O 97.7167 -0.325775 -5.69469 0
M  V30 1061 O 96.6507 -2.2613 -5.57807 0
M  V30 1062 H 100.477 -2.00516 -2.28094 0
M  V30 1063 H 98.0617 -1.03481 -1.0776 0
M  V30 1064 H 99.9437 -0.463211 -4.18846 0
M  V30 1065 H 98.6187 0.248536 -3.22744 0
M  V30 1066 H 97.5257 -2.06623 -3.11862 0
M  V30 1067 H 98.8587 -2.70208 -4.11398 0
M  V30 1068 N 100.511 1.16574 -1.06058 0
M  V30 1069 C 101.922 1.68662 -0.800632 0
M  V30 1070 C 102.273 1.84184 0.67608 0
M  V30 1071 O 101.398 1.53568 1.52466 0
M  V30 1072 C 101.993 3.06356 -1.44676 0
M  V30 1073 C 100.552 3.55575 -1.23465 0
M  V30 1074 C 99.6988 2.31616 -1.52477 0
M  V30 1075 H 102.65 1.00969 -1.22438 0
M  V30 1076 H 102.671 3.70636 -0.860788 0
M  V30 1077 H 102.183 2.95027 -2.52152 0
M  V30 1078 H 100.284 3.72167 -0.179527 0
M  V30 1079 H 100.397 4.37812 -1.94571 0
M  V30 1080 H 98.7608 2.36512 -0.945209 0
M  V30 1081 H 99.5438 2.22887 -2.61106 0
M  V30 1082 N 101.989 0.842826 1.3317 0
M  V30 1083 C 103.235 0.441099 1.97945 0
M  V30 1084 C 103.568 -0.998024 1.66593 0
M  V30 1085 O 102.843 -1.69839 0.947898 0
M  V30 1086 C 103.126 0.666841 3.53872 0
M  V30 1087 C 102.979 2.15352 3.94897 0
M  V30 1088 C 104.298 0.115544 4.39948 0
M  V30 1089 H 101.417 0.161739 0.719034 0
M  V30 1090 H 104.059 1.05907 1.57746 0
M  V30 1091 H 102.209 0.140828 3.88245 0
M  V30 1092 H 103.881 2.7447 3.70761 0
M  V30 1093 H 102.124 2.63653 3.44484 0
M  V30 1094 H 102.795 2.26221 5.03516 0
M  V30 1095 H 105.271 0.565213 4.12243 0
M  V30 1096 H 104.147 0.303152 5.48062 0
M  V30 1097 H 104.408 -0.980935 4.3108 0
M  V30 1098 N 103.467 -1.45747 0.599634 0
M  V30 1099 C 104.417 -2.27538 -0.145107 0
M  V30 1100 C 105.401 -1.3686 -0.846055 0
M  V30 1101 O 106.593 -1.6091 -0.737357 0
M  V30 1102 C 103.722 -3.23569 -1.14708 0
M  V30 1103 C 102.808 -4.21734 -0.447383 0
M  V30 1104 N 103.199 -5.03257 0.506535 0
M  V30 1105 C 101.497 -4.40536 -0.695966 0
M  V30 1106 C 102.198 -5.74426 0.917068 0
M  V30 1107 N 101.174 -5.42966 0.26253 0
M  V30 1108 H 104.976 -2.87965 0.587672 0
M  V30 1109 H 102.49 -1.56803 0.422697 0
M  V30 1110 H 104.487 -3.8089 -1.69495 0
M  V30 1111 H 103.147 -2.64702 -1.8805 0
M  V30 1112 H 104.158 -5.10319 0.882899 0
M  V30 1113 H 100.835 -3.92802 -1.41467 0
M  V30 1114 H 102.225 -6.4995 1.70338 0
M  V30 1115 N 104.945 -0.338344 -1.53925 0
M  V30 1116 C 105.875 0.51328 -2.27789 0
M  V30 1117 C 106.856 1.107 -1.29149 0
M  V30 1118 O 108.041 1.12937 -1.57984 0
M  V30 1119 C 105.171 1.66697 -3.04679 0
M  V30 1120 C 104.125 1.20183 -4.1078 0
M  V30 1121 C 103.451 2.44363 -4.75595 0
M  V30 1122 C 104.751 0.30605 -5.21403 0
M  V30 1123 H 106.445 -0.102883 -2.99223 0
M  V30 1124 H 103.991 -0.0509219 -1.4391 0
M  V30 1125 H 105.944 2.26915 -3.55088 0
M  V30 1126 H 104.668 2.30995 -2.30887 0
M  V30 1127 H 103.327 0.622499 -3.61276 0
M  V30 1128 H 102.975 3.07057 -3.98403 0
M  V30 1129 H 102.675 2.13925 -5.47275 0
M  V30 1130 H 104.199 3.05317 -5.28786 0
M  V30 1131 H 105.613 0.814929 -5.67478 0
M  V30 1132 H 104.01 0.0937929 -6.00027 0
M  V30 1133 H 105.08 -0.65921 -4.80398 0
M  V30 1134 N 106.423 1.57458 -0.0668435 0
M  V30 1135 C 107.7 1.8469 0.644132 0
M  V30 1136 C 108.08 0.958343 1.88093 0
M  V30 1137 O 107.428 0.0233579 2.28488 0
M  V30 1138 C 107.638 3.34767 0.986509 0
M  V30 1139 C 108.986 4.02159 1.36212 0
M  V30 1140 O 110.01 3.39484 1.07839 0
M  V30 1141 O 108.869 5.12694 1.89227 0
M  V30 1142 H 105.963 0.762816 0.319437 0
M  V30 1143 H 108.509 1.6942 -0.0973986 0
M  V30 1144 H 107.281 3.91151 0.107883 0
M  V30 1145 H 106.904 3.55281 1.78497 0
M  V30 1146 N 107.901 -0.206675 1.56239 0
M  V30 1147 C 109.126 -0.949474 1.8439 0
M  V30 1148 C 109.551 -1.76549 0.649016 0
M  V30 1149 O 108.909 -1.76782 -0.402231 0
M  V30 1150 C 108.957 -1.83078 3.10668 0
M  V30 1151 O 108.061 -2.9281 2.90407 0
M  V30 1152 H 107.402 -0.268033 0.607499 0
M  V30 1153 H 109.932 -0.215488 2.03462 0
M  V30 1154 H 109.942 -2.2377 3.41161 0
M  V30 1155 H 108.617 -1.23112 3.97261 0
M  V30 1156 H 107.194 -2.55956 2.71184 0
M  V30 1157 N 109.379 -1.50304 -0.473955 0
M  V30 1158 C 110.79 -1.54042 -1.0549 0
M  V30 1159 C 111.141 -0.342248 -1.93192 0
M  V30 1160 O 110.266 0.545157 -2.09421 0
M  V30 1161 C 110.861 -2.79152 -1.91989 0
M  V30 1162 C 109.42 -2.8558 -2.45196 0
M  V30 1163 C 108.567 -2.48295 -1.2347 0
M  V30 1164 H 111.518 -1.5661 -0.256693 0
M  V30 1165 H 111.539 -2.60845 -2.7702 0
M  V30 1166 H 111.051 -3.66339 -1.28131 0
M  V30 1167 H 109.152 -2.02738 -3.12615 0
M  V30 1168 H 109.265 -3.88403 -2.80499 0
M  V30 1169 H 107.629 -2.00669 -1.56856 0
M  V30 1170 H 108.412 -3.37787 -0.612789 0
M  V30 1171 N 110.857 0.726932 -1.39834 0
M  V30 1172 C 111.82 1.82269 -1.38962 0
M  V30 1173 C 112.82 1.58248 -0.285334 0
M  V30 1174 O 114.01 1.65499 -0.54366 0
M  V30 1175 C 111.142 3.20186 -1.17019 0
M  V30 1176 H 112.335 1.84443 -2.36476 0
M  V30 1177 H 109.888 0.931416 -1.25516 0
M  V30 1178 H 110.623 3.23669 -0.202204 0
M  V30 1179 H 110.408 3.3902 -1.96998 0
M  V30 1180 H 111.898 4.00235 -1.1917 0
M  V30 1181 N 112.336 1.25143 0.95797 0
M  V30 1182 C 113.585 1.0909 1.69654 0
M  V30 1183 C 113.898 -0.368548 1.92097 0
M  V30 1184 O 115.104 -0.649455 2.63618 0
M  V30 1185 C 113.56 1.90395 3.05414 0
M  V30 1186 C 113.168 3.4081 2.90779 0
M  V30 1187 C 114.912 1.82901 3.83076 0
M  V30 1188 C 112.819 4.14423 4.21909 0
M  V30 1189 H 111.749 0.404625 0.636235 0
M  V30 1190 H 114.4 1.4931 1.06672 0
M  V30 1191 H 112.782 1.42996 3.69281 0
M  V30 1192 H 113.956 3.95859 2.35865 0
M  V30 1193 H 112.271 3.49361 2.26575 0
M  V30 1194 H 114.868 2.35196 4.80195 0
M  V30 1195 H 115.211 0.796224 4.08615 0
M  V30 1196 H 115.744 2.28033 3.25954 0
M  V30 1197 H 112.483 5.18102 4.01561 0
M  V30 1198 H 112.003 3.64159 4.76601 0
M  V30 1199 H 113.682 4.21956 4.90471 0
M  V30 1200 N 113.814 -1.1601 1.06675 0
M  V30 1201 C 114.761 -2.20525 0.680967 0
M  V30 1202 C 115.731 -1.62904 -0.324283 0
M  V30 1203 O 116.916 -1.89615 -0.212294 0
M  V30 1204 C 114.056 -3.45013 0.0776551 0
M  V30 1205 C 113.169 -4.16863 1.13355 0
M  V30 1206 C 112.304 -5.2888 0.49597 0
M  V30 1207 C 111.343 -5.92537 1.53513 0
M  V30 1208 N 110.48 -6.96038 0.920631 0
M  V30 1209 H 115.32 -2.52876 1.57663 0
M  V30 1210 H 112.857 -1.24199 0.788223 0
M  V30 1211 H 114.815 -4.16193 -0.289704 0
M  V30 1212 H 113.445 -3.132 -0.781393 0
M  V30 1213 H 112.497 -3.44248 1.61857 0
M  V30 1214 H 113.809 -4.60294 1.92174 0
M  V30 1215 H 112.963 -6.06653 0.0758604 0
M  V30 1216 H 111.702 -4.86622 -0.324062 0
M  V30 1217 H 110.707 -5.13482 1.9651 0
M  V30 1218 H 111.932 -6.36873 2.35733 0
M  V30 1219 H 109.878 -6.55888 0.12138 0
M  V30 1220 H 109.795 -7.3786 1.64616 0
M  V30 1221 H 111.063 -7.77725 0.525795 0
M  V30 1222 N 115.292 -0.849877 -1.32721 0
M  V30 1223 C 116.242 -0.262892 -2.26479 0
M  V30 1224 C 117.226 0.588493 -1.49752 0
M  V30 1225 O 118.418 0.438659 -1.71478 0
M  V30 1226 C 115.547 0.551818 -3.38836 0
M  V30 1227 C 114.633 -0.311689 -4.22953 0
M  V30 1228 N 115.024 -1.39567 -4.86163 0
M  V30 1229 C 113.322 -0.100611 -4.45887 0
M  V30 1230 C 114.023 -1.92651 -5.48872 0
M  V30 1231 N 112.999 -1.22637 -5.29586 0
M  V30 1232 H 116.801 -1.09166 -2.72873 0
M  V30 1233 H 114.315 -0.695486 -1.46754 0
M  V30 1234 H 116.312 0.988713 -4.05006 0
M  V30 1235 H 114.972 1.37844 -2.93988 0
M  V30 1236 H 115.983 -1.77859 -4.86402 0
M  V30 1237 H 112.66 0.691681 -4.11731 0
M  V30 1238 H 114.05 -2.83487 -6.09167 0
M  V30 1239 N 116.77 1.45427 -0.607355 0
M  V30 1240 C 117.702 2.2871 0.149752 0
M  V30 1241 C 118.715 1.39937 0.831958 0
M  V30 1242 O 119.904 1.64313 0.697385 0
M  V30 1243 C 117.004 3.15673 1.23304 0
M  V30 1244 C 116.177 4.32722 0.637996 0
M  V30 1245 C 115.236 5.00895 1.61215 0
M  V30 1246 O 114.262 5.57697 1.13854 0
M  V30 1247 N 115.464 5.00159 2.94655 0
M  V30 1248 H 118.229 2.94328 -0.564882 0
M  V30 1249 H 115.79 1.55612 -0.446823 0
M  V30 1250 H 117.782 3.58144 1.88454 0
M  V30 1251 H 116.352 2.51965 1.8502 0
M  V30 1252 H 115.572 3.93734 -0.191572 0
M  V30 1253 H 116.86 5.08321 0.220665 0
M  V30 1254 H 116.258 4.553 3.35735 0
M  V30 1255 H 114.815 5.46495 3.55228 0
M  V30 1256 N 118.248 0.346503 1.53744 0
M  V30 1257 C 119.495 -0.249104 2.00962 0
M  V30 1258 C 119.823 -1.5032 1.23426 0
M  V30 1259 O 119.078 -1.93217 0.310761 0
M  V30 1260 C 119.377 -0.605809 3.52228 0
M  V30 1261 C 119.043 0.551747 4.47512 0
M  V30 1262 C 117.705 0.86941 4.73281 0
M  V30 1263 C 120.057 1.32818 5.03993 0
M  V30 1264 C 117.385 1.96582 5.52786 0
M  V30 1265 C 119.737 2.41486 5.84694 0
M  V30 1266 C 118.401 2.73808 6.08757 0
M  V30 1267 H 117.671 -0.0911538 0.735372 0
M  V30 1268 H 120.318 0.475027 1.85515 0
M  V30 1269 H 118.623 -1.4107 3.65522 0
M  V30 1270 H 120.32 -1.07858 3.86222 0
M  V30 1271 H 116.91 0.294102 4.2759 0
M  V30 1272 H 121.094 1.09602 4.84047 0
M  V30 1273 H 116.35 2.22045 5.69654 0
M  V30 1274 H 120.524 3.02078 6.27473 0
M  V30 1275 H 118.151 3.58892 6.7015 0
M  V30 1276 N 119.726 -1.57421 0.075193 0
M  V30 1277 C 120.656 -2.15942 -0.888324 0
M  V30 1278 C 121.637 -1.08737 -1.30806 0
M  V30 1279 O 122.822 -1.36787 -1.37851 0
M  V30 1280 C 119.952 -2.72379 -2.1547 0
M  V30 1281 C 118.906 -3.8478 -1.87425 0
M  V30 1282 C 118.232 -4.27834 -3.20721 0
M  V30 1283 C 119.532 -5.08869 -1.17684 0
M  V30 1284 H 121.226 -2.96705 -0.400799 0
M  V30 1285 H 118.772 -1.42723 -0.191342 0
M  V30 1286 H 120.725 -3.11965 -2.83295 0
M  V30 1287 H 119.449 -1.88841 -2.6647 0
M  V30 1288 H 118.108 -3.45703 -1.22004 0
M  V30 1289 H 117.756 -3.41214 -3.6957 0
M  V30 1290 H 117.456 -5.03605 -3.02746 0
M  V30 1291 H 118.98 -4.70039 -3.89738 0
M  V30 1292 H 120.394 -5.4575 -1.75584 0
M  V30 1293 H 118.791 -5.8994 -1.09956 0
M  V30 1294 H 119.861 -4.84648 -0.156453 0
M  V30 1295 N 121.204 0.198386 -1.56346 0
M  V30 1296 C 122.134 1.24865 -1.9731 0
M  V30 1297 C 123.115 1.47651 -0.844576 0
M  V30 1298 O 124.3 1.59444 -1.10866 0
M  V30 1299 C 121.43 2.59358 -2.30977 0
M  V30 1300 C 120.384 2.5119 -3.46537 0
M  V30 1301 C 119.71 3.89926 -3.65871 0
M  V30 1302 C 121.01 2.03977 -4.80823 0
M  V30 1303 H 122.704 0.908252 -2.85291 0
M  V30 1304 H 120.25 0.435462 -1.37258 0
M  V30 1305 H 122.203 3.33011 -2.58228 0
M  V30 1306 H 120.927 2.95132 -1.39874 0
M  V30 1307 H 119.586 1.79993 -3.19371 0
M  V30 1308 H 119.234 4.23046 -2.72105 0
M  V30 1309 H 118.934 3.85336 -4.4361 0
M  V30 1310 H 120.458 4.65205 -3.95495 0
M  V30 1311 H 121.872 2.67386 -5.07127 0
M  V30 1312 H 120.269 2.10397 -5.62008 0
M  V30 1313 H 121.339 0.992861 -4.74626 0
M  V30 1314 N 122.682 1.50554 0.465978 0
M  V30 1315 C 123.91 1.65563 1.24083 0
M  V30 1316 C 124.325 0.341051 1.85694 0
M  V30 1317 O 123.682 -0.677543 1.69457 0
M  V30 1318 C 123.733 2.75051 2.34583 0
M  V30 1319 O 123.454 4.01413 1.75497 0
M  V30 1320 C 124.955 3.01078 3.25372 0
M  V30 1321 H 122.175 0.55638 0.375077 0
M  V30 1322 H 124.719 1.96807 0.555624 0
M  V30 1323 H 122.874 2.46486 2.9887 0
M  V30 1324 H 123.288 4.62002 2.48303 0
M  V30 1325 H 124.762 3.81339 3.99105 0
M  V30 1326 H 125.239 2.12349 3.84453 0
M  V30 1327 H 125.845 3.31194 2.66816 0
M  V30 1328 N 124.16 -0.719506 1.40217 0
M  V30 1329 C 125.408 -1.47641 1.3801 0
M  V30 1330 C 125.729 -1.94992 -0.018145 0
M  V30 1331 O 124.999 -1.70073 -0.972207 0
M  V30 1332 H 123.579 -0.547744 0.507923 0
M  V30 1333 H 126.241 -0.853187 1.75233 0
M  V30 1334 H 125.337 -2.35112 2.05253 0
M  V30 1335 N 125.638 -1.25649 -0.95132 0
M  V30 1336 C 126.915 -1.01361 -1.67288 0
M  V30 1337 C 127.295 0.459135 -2.06046 0
M  V30 1338 O 126.643 1.43723 -1.7764 0
M  V30 1339 C 126.853 -1.95256 -2.89268 0
M  V30 1340 C 128.201 -2.23289 -3.61147 0
M  V30 1341 O 129.225 -1.93041 -2.99355 0
M  V30 1342 O 128.084 -2.74741 -4.72419 0
M  V30 1343 H 125.178 -0.38464 -0.732107 0
M  V30 1344 H 127.724 -1.36817 -1.00395 0
M  V30 1345 H 126.496 -2.94685 -2.57442 0
M  V30 1346 H 126.119 -1.60218 -3.6389 0
M  V30 1347 N 127.117 1.15442 -1.07289 0
M  V30 1348 C 128.345 1.90096 -0.81676 0
M  V30 1349 C 128.76 1.7798 0.629966 0
M  V30 1350 O 128.117 1.1313 1.43206 0
M  V30 1351 C 128.168 3.40466 -1.21512 0
M  V30 1352 O 127.889 3.52232 -2.60508 0
M  V30 1353 C 129.39 4.32145 -0.988198 0
M  V30 1354 H 126.61 0.602495 -0.295366 0
M  V30 1355 H 129.154 1.4627 -1.42918 0
M  V30 1356 H 127.309 3.81958 -0.647039 0
M  V30 1357 H 127.723 4.45549 -2.76742 0
M  V30 1358 H 129.197 5.36072 -1.31645 0
M  V30 1359 H 129.674 4.39135 0.0755063 0
M  V30 1360 H 130.28 3.96395 -1.54115 0
M  V30 1361 N 128.595 0.856903 1.32268 0
M  V30 1362 C 129.527 0.260412 2.27716 0
M  V30 1363 C 130.54 -0.569137 1.52528 0
M  V30 1364 O 131.729 -0.39326 1.74114 0
M  V30 1365 C 128.829 -0.650477 3.32599 0
M  V30 1366 C 128.002 0.14372 4.37164 0
M  V30 1367 C 127.061 -0.69328 5.21613 0
M  V30 1368 O 126.087 -0.12599 5.69061 0
M  V30 1369 N 127.289 -2.00761 5.44679 0
M  V30 1370 H 130.054 1.08059 2.79541 0
M  V30 1371 H 127.615 0.717103 1.45152 0
M  V30 1372 H 129.607 -1.21581 3.86005 0
M  V30 1373 H 128.177 -1.37133 2.80915 0
M  V30 1374 H 127.397 0.890486 3.8401 0
M  V30 1375 H 128.685 0.68915 5.04111 0
M  V30 1376 H 128.083 -2.49181 5.07863 0
M  V30 1377 H 126.64 -2.52103 6.01072 0
M  V30 1378 N 130.073 -1.45103 0.615059 0
M  V30 1379 C 131.321 -2.01784 0.112955 0
M  V30 1380 C 131.642 -1.48504 -1.26378 0
M  V30 1381 O 130.912 -0.682245 -1.83636 0
M  V30 1382 H 129.492 -0.745993 0.0387668 0
M  V30 1383 H 132.154 -1.77808 0.798141 0
M  V30 1384 H 131.25 -3.12025 0.0684069 0
M  V30 1385 N 131.551 -0.354651 -1.53558 0
M  V30 1386 C 132.967 -0.00315426 -1.596 0
M  V30 1387 C 133.167 1.47741 -1.37021 0
M  V30 1388 O 132.223 2.23759 -1.16996 0
M  V30 1389 C 133.536 -0.44929 -2.97325 0
M  V30 1390 C 135.084 -0.402578 -3.104 0
M  V30 1391 C 135.559 -0.824355 -4.5052 0
M  V30 1392 N 137.05 -0.778979 -4.56603 0
M  V30 1393 C 137.785 -1.07715 -5.63192 0
M  V30 1394 N 137.281 -1.44405 -6.77583 0
M  V30 1395 N 139.074 -1.00066 -5.53121 0
M  V30 1396 H 131.225 -1.31893 -1.66487 0
M  V30 1397 H 133.488 -0.538388 -0.780284 0
M  V30 1398 H 133.194 -1.48202 -3.1895 0
M  V30 1399 H 133.068 0.169772 -3.76818 0
M  V30 1400 H 135.455 0.621004 -2.88492 0
M  V30 1401 H 135.536 -1.05699 -2.32941 0
M  V30 1402 H 135.18 -1.846 -4.73165 0
M  V30 1403 H 135.11 -0.147304 -5.26394 0
M  V30 1404 H 137.601 -0.508528 -3.74463 0
M  V30 1405 H 137.914 -1.65612 -7.54846 0
M  V30 1406 H 136.259 -1.4826 -6.79002 0
M  V30 1407 H 139.45 -0.713293 -4.62633 0
M  V30 1408 H 139.623 -1.23638 -6.36096 0
M  V30 1409 N 133.029 1.57378 -0.0835403 0
M  V30 1410 C 134.259 1.97975 0.590713 0
M  V30 1411 C 134.667 0.961083 1.62972 0
M  V30 1412 O 134.01 -0.0590879 1.83605 0
M  V30 1413 C 134.072 3.34915 1.3066 0
M  V30 1414 C 133.736 4.55069 0.419698 0
M  V30 1415 C 134.733 5.18868 -0.32749 0
M  V30 1416 C 132.418 5.0114 0.341137 0
M  V30 1417 C 134.412 6.27098 -1.14134 0
M  V30 1418 C 132.099 6.0924 -0.476374 0
M  V30 1419 C 133.097 6.72083 -1.21627 0
M  V30 1420 O 132.785 7.781 -2.02028 0
M  V30 1421 H 132.517 0.655818 0.163947 0
M  V30 1422 H 135.071 2.04807 -0.156021 0
M  V30 1423 H 133.301 3.24733 2.09966 0
M  V30 1424 H 134.99 3.60037 1.87424 0
M  V30 1425 H 135.756 4.84211 -0.276459 0
M  V30 1426 H 131.635 4.51996 0.90668 0
M  V30 1427 H 135.179 6.7608 -1.71935 0
M  V30 1428 H 131.076 6.43329 -0.528927 0
M  V30 1429 H 131.844 7.95034 -1.94586 0
M  V30 1430 N 134.507 -0.190092 1.56449 0
M  V30 1431 C 135.923 -0.54113 1.50146 0
M  V30 1432 C 136.123 -1.85603 0.784465 0
M  V30 1433 O 135.179 -2.5024 0.337051 0
M  V30 1434 C 136.492 -0.591241 2.9483 0
M  V30 1435 C 138.04 -0.679732 3.0553 0
M  V30 1436 C 138.515 -0.760908 4.51635 0
M  V30 1437 N 140.006 -0.824302 4.55806 0
M  V30 1438 C 140.741 -0.907365 5.66175 0
M  V30 1439 N 140.237 -0.952422 6.86222 0
M  V30 1440 N 142.03 -0.94494 5.541 0
M  V30 1441 H 134.181 0.67235 2.01478 0
M  V30 1442 H 136.444 0.240127 0.917084 0
M  V30 1443 H 136.15 0.305905 3.50367 0
M  V30 1444 H 136.024 -1.44422 3.48457 0
M  V30 1445 H 138.411 -1.56731 2.50039 0
M  V30 1446 H 138.492 0.199549 2.5502 0
M  V30 1447 H 138.136 0.122336 5.07753 0
M  V30 1448 H 138.066 -1.65606 4.99882 0
M  V30 1449 H 140.557 -0.798526 3.69367 0
M  V30 1450 H 140.87 -1.01645 7.66086 0
M  V30 1451 H 139.215 -0.921014 6.8887 0
M  V30 1452 H 142.406 -0.906612 4.59236 0
M  V30 1453 H 142.579 -1.00622 6.4014 0
M  V30 1454 N 135.985 -1.50799 -0.457987 0
M  V30 1455 C 137.225 -1.64088 -1.21879 0
M  V30 1456 C 137.589 -0.339848 -1.88968 0
M  V30 1457 O 138.79 -0.348301 -2.66534 0
M  V30 1458 C 137.061 -2.79726 -2.2246 0
M  V30 1459 S 138.62 -3.13225 -3.07303 0
M  V30 1460 H 135.438 -0.578314 -0.41361 0
M  V30 1461 H 138.04 -1.88632 -0.513645 0
M  V30 1462 H 136.744 -3.72722 -1.71775 0
M  V30 1463 H 136.275 -2.57308 -2.97584 0
M  V30 1464 H 138.29 -2.58062 -4.23814 0
M  V30 1465 N 137.463 0.71206 -1.40597 0
M  V30 1466 C 138.879 1.02058 -1.22704 0
M  V30 1467 C 139.079 2.01228 -0.104729 0
M  V30 1468 O 138.135 2.4674 0.53624 0
M  V30 1469 C 139.448 1.56094 -2.57012 0
M  V30 1470 C 140.996 1.6806 -2.64054 0
M  V30 1471 C 141.471 2.25501 -3.9864 0
M  V30 1472 N 142.962 2.32882 -4.004 0
M  V30 1473 C 143.697 2.78317 -5.01325 0
M  V30 1474 N 143.193 3.23478 -6.12645 0
M  V30 1475 N 144.986 2.77733 -4.88693 0
M  V30 1476 H 137.137 0.0547896 -2.12329 0
M  V30 1477 H 139.4 0.0869027 -0.944008 0
M  V30 1478 H 139.106 0.906865 -3.39807 0
M  V30 1479 H 138.98 2.54564 -2.78347 0
M  V30 1480 H 141.367 2.32583 -1.81629 0
M  V30 1481 H 141.448 0.681802 -2.46546 0
M  V30 1482 H 141.092 1.61598 -4.81506 0
M  V30 1483 H 141.022 3.26102 -4.13479 0
M  V30 1484 H 143.513 2.00991 -3.20017 0
M  V30 1485 H 143.826 3.56725 -6.85542 0
M  V30 1486 H 142.171 3.21429 -6.16205 0
M  V30 1487 H 145.362 2.4179 -4.00818 0
M  V30 1488 H 145.535 3.12826 -5.67489 0
M  V30 1489 N 138.941 1.26152 0.944643 0
M  V30 1490 C 140.166 1.14363 1.7302 0
M  V30 1491 C 140.591 -0.29772 1.85729 0
M  V30 1492 O 139.949 -1.2157 1.34501 0
M  V30 1493 C 139.997 1.81378 3.11664 0
M  V30 1494 O 139.101 1.10022 3.97453 0
M  V30 1495 H 138.442 0.398694 0.53098 0
M  V30 1496 H 140.972 1.66906 1.18337 0
M  V30 1497 H 140.982 1.88064 3.62072 0
M  V30 1498 H 139.657 2.86237 3.0173 0
M  V30 1499 H 138.234 1.11287 3.55907 0
M  V30 1500 N 140.419 -1.14872 1.07899 0
M  V30 1501 C 141.667 -1.85422 0.803941 0
M  V30 1502 C 141.988 -1.83051 -0.67211 0
M  V30 1503 O 141.258 -1.27532 -1.48703 0
M  V30 1504 H 139.838 -0.686537 0.294408 0
M  V30 1505 H 142.5 -1.39226 1.3639 0
M  V30 1506 H 141.596 -2.90399 1.14346 0
M  V30 1507 N 141.898 -0.863906 -1.31812 0
M  V30 1508 C 142.828 -0.330843 -2.31144 0
M  V30 1509 C 143.809 0.575005 -1.60087 0
M  V30 1510 O 144.994 0.493304 -1.8783 0
M  V30 1511 C 142.124 0.47374 -3.44054 0
M  V30 1512 C 141.078 -0.338481 -4.26659 0
M  V30 1513 C 140.404 0.591412 -5.31419 0
M  V30 1514 C 141.704 -1.56926 -4.98168 0
M  V30 1515 H 143.398 -1.16086 -2.75979 0
M  V30 1516 H 140.944 -0.559657 -1.32679 0
M  V30 1517 H 142.897 0.857143 -4.12591 0
M  V30 1518 H 141.621 1.33721 -2.9797 0
M  V30 1519 H 140.28 -0.703754 -3.59782 0
M  V30 1520 H 139.928 1.45199 -4.81587 0
M  V30 1521 H 139.628 0.0519022 -5.87577 0
M  V30 1522 H 141.152 0.97179 -6.02817 0
M  V30 1523 H 142.566 -1.25764 -5.59336 0
M  V30 1524 H 140.963 -2.04739 -5.64094 0
M  V30 1525 H 142.033 -2.32544 -4.25501 0
M  V30 1526 N 143.376 1.44774 -0.622745 0
M  V30 1527 C 144.601 2.06999 -0.128968 0
M  V30 1528 C 145.026 1.4617 1.1839 0
M  V30 1529 O 144.384 0.560007 1.72434 0
M  V30 1530 C 144.432 3.60595 -0.0188351 0
M  V30 1531 O 143.536 3.99398 1.02739 0
M  V30 1532 H 142.877 0.659047 -0.0809544 0
M  V30 1533 H 145.407 1.85784 -0.85705 0
M  V30 1534 H 145.417 4.07627 0.174476 0
M  V30 1535 H 144.092 4.04252 -0.977384 0
M  V30 1536 H 142.669 3.64011 0.809326 0
M  V30 1537 N 144.854 0.36279 1.53368 0
M  V30 1538 C 146.082 -0.228613 2.05633 0
M  V30 1539 C 146.497 -1.42676 1.23649 0
M  V30 1540 O 145.854 -1.80394 0.27647 0
M  V30 1541 C 145.905 -0.624845 3.56059 0
M  V30 1542 O 145.626 0.525675 4.34935 0
M  V30 1543 C 147.127 -1.27493 4.24571 0
M  V30 1544 H 144.347 -0.0407183 0.669763 0
M  V30 1545 H 146.891 0.520352 1.97769 0
M  V30 1546 H 145.046 -1.32373 3.64083 0
M  V30 1547 H 145.46 0.205969 5.24095 0
M  V30 1548 H 146.934 -1.50277 5.31151 0
M  V30 1549 H 147.411 -2.23439 3.78116 0
M  V30 1550 H 148.017 -0.617558 4.20792 0
M  V30 1551 N 146.332 -1.57332 0.0918853 0
M  V30 1552 C 147.58 -1.93853 -0.571446 0
M  V30 1553 C 147.901 -0.974212 -1.6892 0
M  V30 1554 O 147.171 -0.0257254 -1.95883 0
M  V30 1555 H 145.751 -0.715666 -0.214082 0
M  V30 1556 H 148.413 -1.94287 0.154464 0
M  V30 1557 H 147.509 -2.96191 -0.983729 0
M  V30 1558 N 147.81 0.181792 -1.56548 0
M  V30 1559 C 149.056 0.896803 -1.82562 0
M  V30 1560 C 149.411 1.80324 -0.670908 0
M  V30 1561 O 148.704 1.8868 0.333235 0
M  V30 1562 C 148.898 1.73728 -3.12335 0
M  V30 1563 C 148.727 0.913714 -4.4032 0
M  V30 1564 C 147.497 0.592903 -5.01809 0
M  V30 1565 C 149.695 0.260164 -5.13642 0
M  V30 1566 N 147.677 -0.247901 -6.13399 0
M  V30 1567 C 149.048 -0.442256 -6.18421 0
M  V30 1568 C 151.103 0.177253 -4.97584 0
M  V30 1569 C 149.806 -1.21971 -7.08883 0
M  V30 1570 C 151.832 -0.586839 -5.88481 0
M  V30 1571 C 151.194 -1.27766 -6.92716 0
M  V30 1572 H 147.293 0.307122 -0.719166 0
M  V30 1573 H 149.877 0.164535 -1.94004 0
M  V30 1574 H 148.048 2.44105 -3.02105 0
M  V30 1575 H 149.78 2.39279 -3.26386 0
M  V30 1576 H 146.535 0.920502 -4.64568 0
M  V30 1577 H 146.959 -0.658304 -6.73792 0
M  V30 1578 H 151.601 0.696993 -4.17015 0
M  V30 1579 H 149.319 -1.75083 -7.88905 0
M  V30 1580 H 152.905 -0.652522 -5.78129 0
M  V30 1581 H 151.785 -1.85943 -7.61836 0
M  V30 1582 N 149.288 1.51039 0.449983 0
M  V30 1583 C 150.516 1.66869 1.2232 0
M  V30 1584 C 150.931 0.360727 1.85322 0
M  V30 1585 O 150.288 -0.659531 1.70166 0
M  V30 1586 C 150.339 2.77524 2.31652 0
M  V30 1587 O 150.06 4.03252 1.7123 0
M  V30 1588 C 151.561 3.04512 3.2216 0
M  V30 1589 H 148.781 0.560326 0.369155 0
M  V30 1590 H 151.325 1.97385 0.534719 0
M  V30 1591 H 149.48 2.49642 2.96239 0
M  V30 1592 H 149.894 4.64609 2.43389 0
M  V30 1593 H 151.368 3.85551 3.95038 0
M  V30 1594 H 151.845 2.16415 3.8218 0
M  V30 1595 H 152.451 3.34005 2.63288 0
M  V30 1596 N 150.766 -0.704594 1.40972 0
M  V30 1597 C 151.698 -1.82974 1.38033 0
M  V30 1598 C 152.711 -1.60305 0.283931 0
M  V30 1599 O 153.9 -1.69975 0.545042 0
M  V30 1600 C 151 -3.19578 1.12795 0
M  V30 1601 C 150.173 -3.69352 2.34302 0
M  V30 1602 C 149.232 -4.84601 2.05058 0
M  V30 1603 O 148.258 -4.96682 2.7802 0
M  V30 1604 N 149.46 -5.71194 1.03528 0
M  V30 1605 H 152.225 -1.85991 2.35005 0
M  V30 1606 H 149.786 -0.886567 1.35468 0
M  V30 1607 H 151.778 -3.9429 0.911987 0
M  V30 1608 H 150.348 -3.11642 0.24452 0
M  V30 1609 H 149.568 -2.85649 2.71659 0
M  V30 1610 H 150.856 -3.99345 3.1528 0
M  V30 1611 H 150.254 -5.64054 0.431217 0
M  V30 1612 H 148.811 -6.45843 0.879205 0
M  V30 1613 N 152.244 -1.26651 -0.937939 0
M  V30 1614 C 153.174 -1.10993 -2.05433 0
M  V30 1615 C 154.155 -0.0142161 -1.70094 0
M  V30 1616 O 155.34 -0.186837 -1.93299 0
M  V30 1617 C 152.47 -0.745561 -3.39203 0
M  V30 1618 C 151.424 -1.79337 -3.88616 0
M  V30 1619 C 150.75 -1.28324 -5.19073 0
M  V30 1620 C 152.05 -3.19553 -4.13138 0
M  V30 1621 H 153.744 -2.0438 -2.1879 0
M  V30 1622 H 151.29 -0.984041 -1.05131 0
M  V30 1623 H 153.243 -0.622888 -4.16771 0
M  V30 1624 H 151.967 0.22401 -3.25831 0
M  V30 1625 H 150.626 -1.90477 -3.13231 0
M  V30 1626 H 150.274 -0.303414 -5.02084 0
M  V30 1627 H 149.974 -1.98369 -5.53103 0
M  V30 1628 H 151.498 -1.1733 -5.99221 0
M  V30 1629 H 152.912 -3.11471 -4.81309 0
M  V30 1630 H 151.309 -3.87218 -4.58457 0
M  V30 1631 H 152.379 -3.65368 -3.18801 0
M  V30 1632 N 153.722 1.14298 -1.08507 0
M  V30 1633 C 154.947 1.8976 -0.837001 0
M  V30 1634 C 155.372 1.78097 0.605228 0
M  V30 1635 O 154.73 1.12188 1.4242 0
M  V30 1636 C 154.778 3.37685 -1.26495 0
M  V30 1637 O 153.882 4.10281 -0.417514 0
M  V30 1638 H 153.223 0.590365 -0.303917 0
M  V30 1639 H 155.753 1.44672 -1.44676 0
M  V30 1640 H 155.763 3.88501 -1.24625 0
M  V30 1641 H 154.438 3.45492 -2.31534 0
M  V30 1642 H 153.015 3.69536 -0.499722 0
M  V30 1643 N 155.201 0.870884 1.31352 0
M  V30 1644 C 156.148 0.325425 2.28494 0
M  V30 1645 C 157.118 -0.576615 1.5577 0
M  V30 1646 O 158.303 -0.508059 1.83911 0
M  V30 1647 C 155.443 -0.466283 3.41935 0
M  V30 1648 C 154.556 0.463378 4.29508 0
M  V30 1649 C 153.691 -0.342544 5.30094 0
M  V30 1650 C 152.73 0.583486 6.09313 0
M  V30 1651 N 151.867 -0.186244 7.01853 0
M  V30 1652 H 156.707 1.15901 2.74538 0
M  V30 1653 H 154.244 0.58294 1.35056 0
M  V30 1654 H 156.202 -0.941085 4.06447 0
M  V30 1655 H 154.832 -1.26456 2.97 0
M  V30 1656 H 153.884 1.05663 3.65431 0
M  V30 1657 H 155.196 1.1734 4.84802 0
M  V30 1658 H 154.35 -0.879816 6.00287 0
M  V30 1659 H 153.089 -1.08585 4.75458 0
M  V30 1660 H 152.094 1.13251 5.3801 0
M  V30 1661 H 153.319 1.32566 6.66035 0
M  V30 1662 H 151.265 -0.912348 6.49625 0
M  V30 1663 H 151.182 0.464422 7.54572 0
M  V30 1664 H 152.45 -0.704716 7.76308 0
M  V30 1665 N 156.679 -1.44442 0.630414 0
M  V30 1666 C 157.609 -2.33418 -0.0618083 0
M  V30 1667 C 158.59 -1.48165 -0.835541 0
M  V30 1668 O 159.775 -1.76886 -0.801564 0
M  V30 1669 C 156.905 -3.31222 -1.04449 0
M  V30 1670 C 155.859 -4.26288 -0.382436 0
M  V30 1671 C 155.185 -5.13954 -1.47497 0
M  V30 1672 C 156.485 -5.1744 0.710865 0
M  V30 1673 H 158.179 -2.91548 0.681184 0
M  V30 1674 H 155.725 -1.40191 0.329026 0
M  V30 1675 H 157.678 -3.92351 -1.53748 0
M  V30 1676 H 156.402 -2.71299 -1.81836 0
M  V30 1677 H 155.061 -3.6649 0.0899054 0
M  V30 1678 H 154.709 -4.50385 -2.2397 0
M  V30 1679 H 154.409 -5.7837 -1.03737 0
M  V30 1680 H 155.933 -5.77955 -1.96979 0
M  V30 1681 H 157.347 -5.72509 0.300996 0
M  V30 1682 H 155.744 -5.90455 1.07156 0
M  V30 1683 H 156.814 -4.58496 1.57829 0
M  V30 1684 N 158.157 -0.370918 -1.53173 0
M  V30 1685 C 159.087 0.464847 -2.28826 0
M  V30 1686 C 160.068 1.07936 -1.31468 0
M  V30 1687 O 161.253 1.0956 -1.60344 0
M  V30 1688 C 158.383 1.60196 -3.08147 0
M  V30 1689 C 157.337 1.11443 -4.13237 0
M  V30 1690 C 156.663 2.3422 -4.80672 0
M  V30 1691 C 157.963 0.195384 -5.21934 0
M  V30 1692 H 159.657 -0.166329 -2.98938 0
M  V30 1693 H 157.203 -0.0814359 -1.4377 0
M  V30 1694 H 159.156 2.19332 -3.59822 0
M  V30 1695 H 157.88 2.26045 -2.35735 0
M  V30 1696 H 156.539 0.545727 -3.62515 0
M  V30 1697 H 156.187 2.98537 -4.04827 0
M  V30 1698 H 155.887 2.02269 -5.51689 0
M  V30 1699 H 157.411 2.94032 -5.35143 0
M  V30 1700 H 158.825 0.694375 -5.69079 0
M  V30 1701 H 157.222 -0.0335027 -6.00091 0
M  V30 1702 H 158.292 -0.760961 -4.78892 0
M  V30 1703 N 159.635 1.57281 -0.100228 0
M  V30 1704 C 160.545 2.17833 0.870965 0
M  V30 1705 C 161.561 1.14921 1.30649 0
M  V30 1706 O 162.737 1.47313 1.37335 0
M  V30 1707 C 159.802 2.75085 2.1102 0
M  V30 1708 C 158.863 3.9297 1.72838 0
M  V30 1709 C 158.096 4.47482 2.90854 0
M  V30 1710 O 158.319 4.00922 4.05731 0
M  V30 1711 O 157.253 5.38433 2.69023 0
M  V30 1712 H 161.079 3.0124 0.38575 0
M  V30 1713 H 158.664 1.48881 0.124397 0
M  V30 1714 H 160.546 3.11656 2.83634 0
M  V30 1715 H 159.221 1.94721 2.58584 0
M  V30 1716 H 158.128 3.61201 0.973883 0
M  V30 1717 H 159.461 4.74713 1.30033 0
M  V30 1718 N 161.113 -0.173488 1.56642 0
M  V30 1719 C 162.043 -1.2171 1.99271 0
M  V30 1720 C 163.024 -1.46289 0.867959 0
M  V30 1721 O 164.209 -1.5766 1.13388 0
M  V30 1722 C 161.339 -2.55651 2.35074 0
M  V30 1723 C 160.293 -2.45645 3.50489 0
M  V30 1724 C 159.619 -3.84056 3.72028 0
M  V30 1725 C 160.919 -1.96302 4.84007 0
M  V30 1726 H 162.613 -0.86275 2.867 0
M  V30 1727 H 160.159 -0.413571 1.37933 0
M  V30 1728 H 162.112 -3.2886 2.63494 0
M  V30 1729 H 160.836 -2.92869 1.44552 0
M  V30 1730 H 159.495 -1.7489 3.22194 0
M  V30 1731 H 159.143 -4.18664 2.788 0
M  V30 1732 H 158.843 -3.7823 4.49684 0
M  V30 1733 H 160.367 -4.58854 4.02846 0
M  V30 1734 H 161.781 -2.59284 5.11317 0
M  V30 1735 H 160.178 -2.01429 5.65284 0
M  V30 1736 H 161.248 -0.917226 4.76146 0
M  V30 1737 N 162.591 -1.51276 -0.441967 0
M  V30 1738 C 163.819 -1.67516 -1.21434 0
M  V30 1739 C 164.234 -0.37055 -1.85128 0
M  V30 1740 O 163.591 0.650498 -1.70513 0
M  V30 1741 C 163.642 -2.78748 -2.30177 0
M  V30 1742 O 163.363 -4.04154 -1.69089 0
M  V30 1743 C 164.864 -3.06217 -3.20541 0
M  V30 1744 H 162.084 -0.562276 -0.366178 0
M  V30 1745 H 164.628 -1.97666 -0.524244 0
M  V30 1746 H 162.783 -2.5121 -2.94911 0
M  V30 1747 H 163.197 -4.65894 -2.40922 0
M  V30 1748 H 164.671 -3.8764 -3.92987 0
M  V30 1749 H 165.148 -2.18439 -3.81026 0
M  V30 1750 H 165.754 -3.35397 -2.61513 0
M  V30 1751 N 164.069 0.697108 -1.41344 0
M  V30 1752 C 165.317 1.45426 -1.40341 0
M  V30 1753 C 165.638 1.94996 -0.0128787 0
M  V30 1754 O 164.908 1.71599 0.945027 0
M  V30 1755 H 163.488 0.539594 -0.516573 0
M  V30 1756 H 166.15 0.825201 -1.76569 0
M  V30 1757 H 165.246 2.31817 -2.08967 0
M  V30 1758 N 165.547 1.27147 0.931209 0
M  V30 1759 C 166.958 1.12044 1.49342 0
M  V30 1760 C 167.309 -0.295795 1.93957 0
M  V30 1761 O 166.434 -1.18835 1.80852 0
M  V30 1762 C 167.029 2.02781 2.71414 0
M  V30 1763 C 165.588 1.91794 3.2387 0
M  V30 1764 C 164.735 1.95543 1.96617 0
M  V30 1765 H 167.686 1.40091 0.745672 0
M  V30 1766 H 167.707 1.58156 3.46074 0
M  V30 1767 H 167.219 3.05848 2.38911 0
M  V30 1768 H 165.32 0.916992 3.6114 0
M  V30 1769 H 165.433 2.77852 3.90302 0
M  V30 1770 H 163.797 1.39722 2.12955 0
M  V30 1771 H 164.58 3.00259 1.66432 0
M  V30 1772 N 167.025 -1.13721 1.09112 0
M  V30 1773 C 167.972 -2.19031 0.727591 0
M  V30 1774 C 168.942 -1.63555 -0.289656 0
M  V30 1775 O 170.127 -1.90023 -0.172026 0
M  V30 1776 C 167.267 -3.4477 0.15082 0
M  V30 1777 C 166.38 -4.14365 1.22172 0
M  V30 1778 C 165.515 -5.27709 0.608042 0
M  V30 1779 C 164.554 -5.89147 1.66047 0
M  V30 1780 N 163.691 -6.93929 1.06806 0
M  V30 1781 H 168.531 -2.49475 1.62991 0
M  V30 1782 H 166.068 -1.22499 0.81439 0
M  V30 1783 H 168.026 -4.16714 -0.201358 0
M  V30 1784 H 166.656 -3.14787 -0.714783 0
M  V30 1785 H 165.708 -3.40737 1.69122 0
M  V30 1786 H 167.02 -4.56114 2.01895 0
M  V30 1787 H 166.174 -6.06355 0.204523 0
M  V30 1788 H 164.913 -4.872 -0.220769 0
M  V30 1789 H 163.918 -5.09198 2.07357 0
M  V30 1790 H 165.143 -6.31729 2.49189 0
M  V30 1791 H 163.089 -6.55483 0.260476 0
M  V30 1792 H 163.006 -7.34202 1.8023 0
M  V30 1793 H 164.274 -7.76434 0.690644 0
M  V30 1794 N 168.503 -0.877838 -1.30888 0
M  V30 1795 C 169.728 -0.506629 -2.01117 0
M  V30 1796 C 170.153 0.895564 -1.65412 0
M  V30 1797 O 169.511 1.5923 -0.866922 0
M  V30 1798 C 169.559 -0.680223 -3.54126 0
M  V30 1799 O 168.663 0.277033 -4.11468 0
M  V30 1800 H 168.004 -0.200518 -0.633 0
M  V30 1801 H 170.534 -1.18342 -1.66902 0
M  V30 1802 H 170.544 -0.5765 -4.03907 0
M  V30 1803 H 169.219 -1.70261 -3.79452 0
M  V30 1804 H 167.796 0.127606 -3.72682 0
M  V30 1805 N 169.982 1.44106 -0.638065 0
M  V30 1806 C 170.912 2.33448 0.0494287 0
M  V30 1807 C 171.893 1.48606 0.827672 0
M  V30 1808 O 173.078 1.77308 0.792173 0
M  V30 1809 C 170.208 3.31771 1.02691 0
M  V30 1810 C 169.162 4.26485 0.359823 0
M  V30 1811 C 168.488 5.14729 1.44769 0
M  V30 1812 C 169.788 5.17056 -0.738296 0
M  V30 1813 H 171.482 2.91183 -0.696636 0
M  V30 1814 H 169.028 1.40014 -0.336456 0
M  V30 1815 H 170.981 3.93161 1.51666 0
M  V30 1816 H 169.705 2.7226 1.80395 0
M  V30 1817 H 168.364 3.66437 -0.10934 0
M  V30 1818 H 168.012 4.51566 2.21578 0
M  V30 1819 H 167.712 5.78913 1.00668 0
M  V30 1820 H 169.236 5.78991 1.93911 0
M  V30 1821 H 170.65 5.72342 -0.331354 0
M  V30 1822 H 169.047 5.89879 -1.10286 0
M  V30 1823 H 170.117 4.57652 -1.60258 0
M  V30 1824 N 171.46 0.379036 1.52974 0
M  V30 1825 C 172.871 -0.0972525 1.86447 0
M  V30 1826 C 173.222 -1.47027 1.29914 0
M  V30 1827 O 172.347 -2.07135 0.626433 0
M  V30 1828 C 172.942 -0.183248 3.38304 0
M  V30 1829 C 171.501 -0.603812 3.71525 0
M  V30 1830 C 170.648 0.240632 2.76254 0
M  V30 1831 H 173.599 0.597316 1.4703 0
M  V30 1832 H 173.62 -1.00432 3.67006 0
M  V30 1833 H 173.132 0.816191 3.79421 0
M  V30 1834 H 171.233 -1.61099 3.35973 0
M  V30 1835 H 171.346 -0.369086 4.77676 0
M  V30 1836 H 169.71 -0.292548 2.53014 0
M  V30 1837 H 170.493 1.23786 3.20206 0
M  V30 1838 N 172.938 -1.57226 0.108567 0
M  V30 1839 C 173.901 -2.13602 -0.831082 0
M  V30 1840 C 174.901 -1.06841 -1.20173 0
M  V30 1841 O 176.091 -1.32666 -1.12895 0
M  V30 1842 C 173.223 -2.66769 -2.12243 0
M  V30 1843 H 174.416 -2.97951 -0.341317 0
M  V30 1844 H 171.969 -1.55667 -0.14057 0
M  V30 1845 H 172.704 -1.85977 -2.65675 0
M  V30 1846 H 172.489 -3.44839 -1.86625 0
M  V30 1847 H 173.979 -3.10332 -2.79435 0
M  V30 1848 N 174.416 0.165178 -1.56732 0
M  V30 1849 C 175.827 0.727046 -1.71962 0
M  V30 1850 C 176.178 1.82508 -0.720078 0
M  V30 1851 O 175.303 2.16082 0.117242 0
M  V30 1852 C 175.898 1.32559 -3.11791 0
M  V30 1853 C 174.457 1.83422 -3.28684 0
M  V30 1854 C 173.604 0.715567 -2.67908 0
M  V30 1855 H 176.555 -0.0602896 -1.58585 0
M  V30 1856 H 176.576 2.19533 -3.10782 0
M  V30 1857 H 176.088 0.526195 -3.84516 0
M  V30 1858 H 174.189 2.65986 -2.60926 0
M  V30 1859 H 174.302 1.97543 -4.36478 0
M  V30 1860 H 172.666 1.13758 -2.27884 0
M  V30 1861 H 173.449 -0.0720836 -3.43224 0
M  V30 1862 N 175.894 1.51508 0.433938 0
M  V30 1863 C 177.14 1.65549 1.18173 0
M  V30 1864 C 177.495 0.368751 1.88833 0
M  V30 1865 O 176.788 -0.635616 1.8075 0
M  V30 1866 C 176.982 2.79928 2.22205 0
M  V30 1867 C 176.811 4.19601 1.61756 0
M  V30 1868 C 175.581 4.85489 1.40101 0
M  V30 1869 C 177.779 5.02574 1.09194 0
M  V30 1870 N 175.761 6.09266 0.752859 0
M  V30 1871 C 177.132 6.17381 0.569255 0
M  V30 1872 C 179.187 4.88079 0.984025 0
M  V30 1873 C 177.89 7.19282 -0.0507472 0
M  V30 1874 C 179.916 5.90191 0.377912 0
M  V30 1875 C 179.278 7.04272 -0.134216 0
M  V30 1876 H 175.377 0.659653 0.419979 0
M  V30 1877 H 177.961 1.88746 0.477818 0
M  V30 1878 H 176.132 2.5839 2.89982 0
M  V30 1879 H 177.864 2.83132 2.89168 0
M  V30 1880 H 174.619 4.43417 1.66369 0
M  V30 1881 H 175.043 6.75528 0.446123 0
M  V30 1882 H 179.685 4.00131 1.36583 0
M  V30 1883 H 177.403 8.06876 -0.444676 0
M  V30 1884 H 180.989 5.81045 0.296269 0
M  V30 1885 H 179.869 7.81933 -0.59585 0
M  V30 1886 N 177.372 -0.689602 1.41712 0
M  V30 1887 C 178.302 -1.81577 1.46806 0
M  V30 1888 C 179.283 -1.66945 0.326105 0
M  V30 1889 O 180.468 -1.86588 0.538377 0
M  V30 1890 C 177.598 -3.19762 1.35535 0
M  V30 1891 C 176.552 -3.49107 2.47605 0
M  V30 1892 C 175.878 -4.86711 2.21397 0
M  V30 1893 C 177.178 -3.47483 3.89939 0
M  V30 1894 H 178.872 -1.7757 2.41058 0
M  V30 1895 H 176.418 -0.852887 1.16025 0
M  V30 1896 H 178.371 -3.98263 1.3771 0
M  V30 1897 H 177.095 -3.24409 0.377708 0
M  V30 1898 H 175.754 -2.72959 2.44722 0
M  V30 1899 H 175.402 -4.8799 1.21961 0
M  V30 1900 H 175.102 -5.0731 2.96497 0
M  V30 1901 H 176.626 -5.67515 2.25297 0
M  V30 1902 H 178.04 -4.1598 3.94505 0
M  V30 1903 H 176.437 -3.79615 4.64771 0
M  V30 1904 H 177.507 -2.46341 4.17665 0
M  V30 1905 N 178.85 -1.27639 -0.924453 0
M  V30 1906 C 180.075 -1.17101 -1.71179 0
M  V30 1907 C 180.5 0.268134 -1.86179 0
M  V30 1908 O 179.858 1.19415 -1.36418 0
M  V30 1909 C 179.906 -1.86313 -3.08739 0
M  V30 1910 O 179.01 -1.16331 -3.95652 0
M  V30 1911 H 178.351 -0.407091 -0.524569 0
M  V30 1912 H 180.881 -1.68767 -1.15666 0
M  V30 1913 H 180.891 -1.938 -3.59034 0
M  V30 1914 H 179.566 -2.91001 -2.97138 0
M  V30 1915 H 178.143 -1.16935 -3.54091 0
M  V30 1916 N 180.328 1.1314 -1.09713 0
M  V30 1917 C 181.261 2.17735 -0.683137 0
M  V30 1918 C 182.239 1.59582 0.311841 0
M  V30 1919 O 183.423 1.87298 0.212514 0
M  V30 1920 C 180.55 3.38699 -0.00684324 0
M  V30 1921 C 179.596 4.1546 -0.964102 0
M  V30 1922 S 180.429 4.74733 -2.47767 0
M  V30 1923 C 181.585 5.9904 -1.81387 0
M  V30 1924 H 181.818 2.52515 -1.56918 0
M  V30 1925 H 179.351 1.24484 -0.913404 0
M  V30 1926 H 181.309 4.08765 0.377044 0
M  V30 1927 H 179.97 3.02214 0.85589 0
M  V30 1928 H 179.163 5.02093 -0.43803 0
M  V30 1929 H 178.765 3.51066 -1.28953 0
M  V30 1930 H 181.057 6.67846 -1.13967 0
M  V30 1931 H 182 6.56261 -2.65947 0
M  V30 1932 H 182.408 5.4976 -1.28155 0
M  V30 1933 N 181.806 0.884767 1.30421 0
M  V30 1934 C 182.769 0.356277 2.26414 0
M  V30 1935 C 183.769 -0.501124 1.52792 0
M  V30 1936 O 184.959 -0.30831 1.7145 0
M  V30 1937 C 182.091 -0.492316 3.37326 0
M  V30 1938 H 183.284 1.20389 2.74675 0
M  V30 1939 H 180.837 0.661607 1.41607 0
M  V30 1940 H 181.572 -1.36052 2.94381 0
M  V30 1941 H 181.357 0.121832 3.91911 0
M  V30 1942 H 182.847 -0.853871 4.08777 0
M  V30 1943 N 183.284 -1.43765 0.645699 0
M  V30 1944 C 184.695 -1.85193 0.236719 0
M  V30 1945 C 185.046 -1.54045 -1.21509 0
M  V30 1946 O 184.171 -0.985694 -1.92647 0
M  V30 1947 C 184.766 -3.36151 0.422845 0
M  V30 1948 C 183.325 -3.76338 0.0682492 0
M  V30 1949 C 182.472 -2.67538 0.729306 0
M  V30 1950 H 185.423 -1.34025 0.849883 0
M  V30 1951 H 185.444 -3.79032 -0.333904 0
M  V30 1952 H 184.956 -3.5879 1.47958 0
M  V30 1953 H 183.057 -3.59312 -0.986179 0
M  V30 1954 H 183.17 -4.76603 0.488469 0
M  V30 1955 H 181.534 -2.54176 0.163235 0
M  V30 1956 H 182.317 -2.93006 1.78892 0
M  V30 1957 N 184.763 -0.387143 -1.52771 0
M  V30 1958 C 186.009 0.196025 -2.0185 0
M  V30 1959 C 186.342 1.46641 -1.27319 0
M  V30 1960 O 185.617 1.90889 -0.373032 0
M  V30 1961 C 185.9 0.466136 -3.5707 0
M  V30 1962 C 185.753 -0.819385 -4.42274 0
M  V30 1963 C 187.072 1.25768 -4.21747 0
M  V30 1964 H 184.191 0.0697708 -0.73369 0
M  V30 1965 H 186.833 -0.516286 -1.82851 0
M  V30 1966 H 184.983 1.07293 -3.7339 0
M  V30 1967 H 186.655 -1.4563 -4.37709 0
M  V30 1968 H 184.898 -1.43517 -4.09372 0
M  V30 1969 H 185.569 -0.585065 -5.48891 0
M  V30 1970 H 188.045 0.744167 -4.09391 0
M  V30 1971 H 186.921 1.41541 -5.30337 0
M  V30 1972 H 187.182 2.27228 -3.79236 0
M  V30 1973 N 186.241 1.57166 -0.116904 0
M  V30 1974 C 187.466 1.999 0.55271 0
M  V30 1975 C 187.891 0.996039 1.59564 0
M  V30 1976 O 187.249 -0.032556 1.81271 0
M  V30 1977 C 187.297 3.4152 1.15742 0
M  V30 1978 O 186.401 3.44106 2.27299 0
M  V30 1979 H 185.742 0.649447 0.138258 0
M  V30 1980 H 188.272 2.03573 -0.204759 0
M  V30 1981 H 188.282 3.79684 1.49346 0
M  V30 1982 H 186.957 4.14034 0.393493 0
M  V30 1983 H 185.534 3.17759 1.9515 0
M  V30 1984 N 187.719 -0.156864 1.56817 0
M  V30 1985 C 188.965 -0.867645 1.83966 0
M  V30 1986 C 189.32 -1.79233 0.699511 0
M  V30 1987 O 188.613 -1.89186 -0.303176 0
M  V30 1988 C 188.807 -1.68737 3.1506 0
M  V30 1989 C 188.636 -0.843548 4.41718 0
M  V30 1990 C 187.406 -0.512994 5.02689 0
M  V30 1991 C 189.604 -0.178416 5.1399 0
M  V30 1992 N 187.586 0.345456 6.12927 0
M  V30 1993 C 188.957 0.540586 6.17639 0
M  V30 1994 C 191.012 -0.0980696 4.97803 0
M  V30 1995 C 189.715 1.33233 7.06853 0
M  V30 1996 C 191.741 0.680387 5.87473 0
M  V30 1997 C 191.103 1.3877 6.90596 0
M  V30 1998 H 187.202 -0.295642 0.723961 0
M  V30 1999 H 189.786 -0.13365 1.94241 0
M  V30 2000 H 187.957 -2.39268 3.0595 0
M  V30 2001 H 189.689 -2.34056 3.30151 0
M  V30 2002 H 186.444 -0.846476 4.65974 0
M  V30 2003 H 186.868 0.765415 6.72659 0
M  V30 2004 H 191.51 -0.630562 4.18071 0
M  V30 2005 H 189.228 1.87612 7.8602 0
M  V30 2006 H 192.814 0.744415 5.77018 0
M  V30 2007 H 191.694 1.9804 7.58782 0
M  V30 2008 N 189.197 -1.51736 -0.425897 0
M  V30 2009 C 190.446 -1.64201 -1.17136 0
M  V30 2010 C 190.759 -0.369705 -1.92074 0
M  V30 2011 O 191.965 -0.373898 -2.68913 0
M  V30 2012 C 190.421 -2.90035 -2.13091 0
M  V30 2013 C 190.029 -4.24312 -1.43747 0
M  V30 2014 C 191.773 -3.1186 -2.87999 0
M  V30 2015 C 189.68 -5.41285 -2.38253 0
M  V30 2016 H 188.61 -0.611624 -0.440944 0
M  V30 2017 H 191.261 -1.78212 -0.437328 0
M  V30 2018 H 189.643 -2.69684 -2.89977 0
M  V30 2019 H 190.817 -4.55086 -0.723408 0
M  V30 2020 H 189.132 -4.08456 -0.809465 0
M  V30 2021 H 191.729 -3.96427 -3.58817 0
M  V30 2022 H 192.072 -2.25403 -3.49999 0
M  V30 2023 H 192.605 -3.32605 -2.18217 0
M  V30 2024 H 189.344 -6.30037 -1.80925 0
M  V30 2025 H 188.864 -5.14872 -3.0768 0
M  V30 2026 H 190.543 -5.73694 -2.99139 0
M  V30 2027 N 190.675 0.682077 -1.42076 0
M  V30 2028 C 191.903 1.47057 -1.4554 0
M  V30 2029 C 192.318 1.8869 -0.0645779 0
M  V30 2030 O 191.675 1.57666 0.919115 0
M  V30 2031 C 191.726 2.72442 -2.37609 0
M  V30 2032 O 191.447 2.32559 -3.71279 0
M  V30 2033 C 192.948 3.66069 -2.50017 0
M  V30 2034 H 190.168 0.452737 -0.495248 0
M  V30 2035 H 192.712 0.838695 -1.8651 0
M  V30 2036 H 190.867 3.31835 -1.9991 0
M  V30 2037 H 191.281 3.13475 -4.20516 0
M  V30 2038 H 192.755 4.50792 -3.18576 0
M  V30 2039 H 193.232 4.11476 -1.53572 0
M  V30 2040 H 193.838 3.12572 -2.88407 0
M  V30 2041 N 192.153 1.28127 0.917671 0
M  V30 2042 C 193.564 1.13622 1.48145 0
M  V30 2043 C 193.915 -0.275207 1.9426 0
M  V30 2044 O 193.04 -1.1691 1.82102 0
M  V30 2045 C 193.635 2.05648 2.69248 0
M  V30 2046 C 192.194 1.95219 3.21818 0
M  V30 2047 C 191.341 1.97618 1.94532 0
M  V30 2048 H 194.292 1.40874 0.730772 0
M  V30 2049 H 194.313 1.61818 3.44377 0
M  V30 2050 H 193.825 3.08365 2.35653 0
M  V30 2051 H 191.926 0.955244 3.60147 0
M  V30 2052 H 192.039 2.81976 3.87333 0
M  V30 2053 H 190.403 1.41973 2.11461 0
M  V30 2054 H 191.186 3.02007 1.63238 0
M  V30 2055 N 193.631 -1.12557 1.10312 0
M  V30 2056 C 194.879 -1.83675 0.843091 0
M  V30 2057 C 195.2 -1.84435 -0.633131 0
M  V30 2058 O 194.47 -1.30657 -1.45964 0
M  V30 2059 H 193.05 -0.680138 0.308904 0
M  V30 2060 H 195.712 -1.36301 1.39313 0
M  V30 2061 H 194.808 -2.87908 1.2048 0
M  V30 2062 N 195.109 -0.891671 -1.2995 0
M  V30 2063 C 196.039 -0.379797 -2.30391 0
M  V30 2064 C 197.02 0.540919 -1.6127 0
M  V30 2065 O 198.205 0.453352 -1.88834 0
M  V30 2066 C 195.335 0.400654 -3.44981 0
M  V30 2067 C 194.289 -0.428905 -4.25846 0
M  V30 2068 C 193.615 0.478557 -5.32554 0
M  V30 2069 C 194.915 -1.67458 -4.94727 0
M  V30 2070 H 196.609 -1.21914 -2.73454 0
M  V30 2071 H 194.155 -0.587675 -1.31462 0
M  V30 2072 H 196.108 0.769434 -4.14316 0
M  V30 2073 H 194.832 1.27371 -3.0074 0
M  V30 2074 H 193.491 -0.779911 -3.58208 0
M  V30 2075 H 193.139 1.34951 -4.84559 0
M  V30 2076 H 192.839 -0.0727433 -5.87555 0
M  V30 2077 H 194.363 0.843705 -6.04743 0
M  V30 2078 H 195.777 -1.376 -5.56542 0
M  V30 2079 H 194.174 -2.16659 -5.59624 0
M  V30 2080 H 195.244 -2.41518 -4.20473 0
M  V30 2081 N 196.587 1.43421 -0.653314 0
M  V30 2082 C 197.534 2.30768 0.0382271 0
M  V30 2083 C 198.504 1.44755 0.814576 0
M  V30 2084 O 199.689 1.73624 0.791162 0
M  V30 2085 C 196.829 3.30336 0.998599 0
M  V30 2086 C 195.942 4.31448 0.218342 0
M  V30 2087 C 195.077 5.18098 1.17252 0
M  V30 2088 C 194.116 6.10902 0.382702 0
M  V30 2089 N 193.253 6.90176 1.28848 0
M  V30 2090 H 198.093 2.89357 -0.712511 0
M  V30 2091 H 195.63 1.42548 -0.363128 0
M  V30 2092 H 197.588 3.86572 1.56901 0
M  V30 2093 H 196.218 2.73397 1.71621 0
M  V30 2094 H 195.27 3.77506 -0.46836 0
M  V30 2095 H 196.582 4.97227 -0.395812 0
M  V30 2096 H 195.736 5.7896 1.81356 0
M  V30 2097 H 194.475 4.52444 1.82058 0
M  V30 2098 H 193.48 5.49128 -0.27169 0
M  V30 2099 H 194.705 6.78598 -0.260957 0
M  V30 2100 H 192.651 6.27171 1.92334 0
M  V30 2101 H 192.568 7.52478 0.728887 0
M  V30 2102 H 193.836 7.55543 1.91766 0
M  V30 2103 N 198.065 0.39524 1.52563 0
M  V30 2104 C 199.293 -0.184943 2.06072 0
M  V30 2105 C 199.708 -1.40021 1.26647 0
M  V30 2106 O 199.065 -1.79767 0.314672 0
M  V30 2107 C 199.116 -0.549179 3.57304 0
M  V30 2108 O 198.837 0.617813 4.33722 0
M  V30 2109 C 200.338 -1.18459 4.2718 0
M  V30 2110 H 197.558 -0.0265025 0.670476 0
M  V30 2111 H 200.102 0.562184 1.96621 0
M  V30 2112 H 198.257 -1.2462 3.66809 0
M  V30 2113 H 198.671 0.317091 5.23541 0
M  V30 2114 H 200.145 -1.38976 5.34219 0
M  V30 2115 H 200.622 -2.15368 3.82771 0
M  V30 2116 H 201.228 -0.528163 4.22008 0
M  V30 2117 N 199.544 -1.57102 0.125237 0
M  V30 2118 C 200.772 -1.99761 -0.538797 0
M  V30 2119 C 201.187 -1.00503 -1.59827 0
M  V30 2120 O 200.544 0.00119474 -1.825 0
M  V30 2121 C 200.595 -3.42408 -1.15927 0
M  V30 2122 O 200.316 -4.37869 -0.142143 0
M  V30 2123 C 201.817 -4.00232 -1.90602 0
M  V30 2124 H 199.037 -0.655772 -0.14214 0
M  V30 2125 H 201.581 -2.03383 0.213413 0
M  V30 2126 H 199.736 -3.39706 -1.86223 0
M  V30 2127 H 200.15 -5.21128 -0.593775 0
M  V30 2128 H 201.624 -5.02105 -2.29335 0
M  V30 2129 H 202.101 -3.39721 -2.78363 0
M  V30 2130 H 202.707 -4.06499 -1.25055 0
M  V30 2131 N 201.022 0.148545 -1.56898 0
M  V30 2132 C 201.985 1.16736 -1.97244 0
M  V30 2133 C 202.985 1.35947 -0.858777 0
M  V30 2134 O 204.175 1.32966 -1.12542 0
M  V30 2135 C 201.307 2.52798 -2.28705 0
M  V30 2136 H 202.5 0.821279 -2.88435 0
M  V30 2137 H 200.053 0.391831 -1.51309 0
M  V30 2138 H 200.788 2.92381 -1.403 0
M  V30 2139 H 200.573 2.40216 -3.09901 0
M  V30 2140 H 202.063 3.26179 -2.60762 0
M  V30 2141 N 202.5 1.5196 0.417844 0
M  V30 2142 C 203.746 1.65836 1.16732 0
M  V30 2143 C 204.079 0.382881 1.90388 0
M  V30 2144 O 203.354 -0.618368 1.84408 0
M  V30 2145 C 203.637 2.87466 2.16876 0
M  V30 2146 C 203.49 4.25041 1.47174 0
M  V30 2147 C 204.809 3.04613 3.17646 0
M  V30 2148 H 201.928 0.603515 0.423011 0
M  V30 2149 H 204.57 1.84494 0.454105 0
M  V30 2150 H 202.72 2.71689 2.777 0
M  V30 2151 H 204.392 4.52527 0.895376 0
M  V30 2152 H 202.635 4.26843 0.773806 0
M  V30 2153 H 203.306 5.06176 2.20204 0
M  V30 2154 H 205.782 3.1923 2.66892 0
M  V30 2155 H 204.658 3.91247 3.8499 0
M  V30 2156 H 204.919 2.17541 3.84874 0
M  V30 2157 N 203.978 -0.674533 1.42435 0
M  V30 2158 C 205.218 -1.4466 1.44405 0
M  V30 2159 C 205.582 -1.91911 0.0585784 0
M  V30 2160 O 206.783 -2.68759 -0.0469991 0
M  V30 2161 C 205.054 -2.61136 2.44013 0
M  V30 2162 S 206.613 -3.49981 2.64687 0
M  V30 2163 H 203.431 -0.494074 0.511284 0
M  V30 2164 H 206.033 -0.785162 1.7904 0
M  V30 2165 H 204.737 -2.24662 3.43446 0
M  V30 2166 H 204.268 -3.32153 2.10803 0
M  V30 2167 H 206.283 -4.57124 1.93007 0
M  V30 2168 N 205.456 -1.28612 -0.910864 0
M  V30 2169 C 206.872 -1.06381 -1.18976 0
M  V30 2170 C 207.072 0.191998 -2.00583 0
M  V30 2171 O 206.128 0.892869 -2.36187 0
M  V30 2172 C 207.441 -2.31295 -1.92154 0
M  V30 2173 C 208.989 -2.36503 -2.05025 0
M  V30 2174 C 209.464 -3.61191 -2.81612 0
M  V30 2175 N 210.955 -3.61847 -2.89172 0
M  V30 2176 C 211.69 -4.55004 -3.4894 0
M  V30 2177 N 211.186 -5.58482 -4.09963 0
M  V30 2178 N 212.979 -4.42594 -3.46506 0
M  V30 2179 H 205.13 -2.09221 -0.366094 0
M  V30 2180 H 207.393 -0.921003 -0.224629 0
M  V30 2181 H 207.099 -3.228 -1.39618 0
M  V30 2182 H 206.973 -2.37934 -2.9269 0
M  V30 2183 H 209.36 -1.45494 -2.5674 0
M  V30 2184 H 209.441 -2.33857 -1.03657 0
M  V30 2185 H 209.085 -4.52545 -2.30576 0
M  V30 2186 H 209.015 -3.61092 -3.83302 0
M  V30 2187 H 211.506 -2.87022 -2.45819 0
M  V30 2188 H 211.819 -6.25704 -4.53557 0
M  V30 2189 H 210.164 -5.62305 -4.08459 0
M  V30 2190 H 213.355 -3.60953 -2.98045 0
M  V30 2191 H 213.528 -5.15381 -3.92793 0
M  V30 2192 N 206.934 1.1197 -1.10907 0
M  V30 2193 C 208.182 1.83225 -0.852819 0
M  V30 2194 C 208.503 1.84769 0.623341 0
M  V30 2195 O 207.773 1.3143 1.45269 0
M  V30 2196 H 206.353 0.67849 -0.312507 0
M  V30 2197 H 209.015 1.3556 -1.40033 0
M  V30 2198 H 208.111 2.87265 -1.22005 0
M  V30 2199 N 208.412 0.89855 1.29475 0
M  V30 2200 C 209.658 0.524658 1.95896 0
M  V30 2201 C 209.991 -0.926468 1.70676 0
M  V30 2202 O 209.266 -1.65665 1.01908 0
M  V30 2203 C 209.549 0.81633 3.50725 0
M  V30 2204 C 209.402 2.31907 3.85408 0
M  V30 2205 C 210.721 0.302038 4.39062 0
M  V30 2206 H 207.84 0.19209 0.711527 0
M  V30 2207 H 210.482 1.12502 1.53112 0
M  V30 2208 H 208.632 0.305369 3.87298 0
M  V30 2209 H 210.304 2.89949 3.58786 0
M  V30 2210 H 208.547 2.78027 3.32992 0
M  V30 2211 H 209.218 2.47373 4.93468 0
M  V30 2212 H 211.694 0.739551 4.09475 0
M  V30 2213 H 210.57 0.535331 5.46283 0
M  V30 2214 H 210.831 -0.797216 4.34853 0
M  V30 2215 N 209.89 -1.43072 0.660911 0
M  V30 2216 C 210.82 -2.33497 -0.0122829 0
M  V30 2217 C 211.801 -1.49903 -0.803925 0
M  V30 2218 O 212.986 -1.78546 -0.763864 0
M  V30 2219 C 210.116 -3.33363 -0.973994 0
M  V30 2220 C 209.07 -4.27003 -0.291928 0
M  V30 2221 C 208.396 -5.16967 -1.36562 0
M  V30 2222 C 209.696 -5.15816 0.820462 0
M  V30 2223 H 211.39 -2.90038 0.742873 0
M  V30 2224 H 208.936 -1.39461 0.358688 0
M  V30 2225 H 210.889 -3.95524 -1.45392 0
M  V30 2226 H 209.613 -2.75095 -1.7604 0
M  V30 2227 H 208.272 -3.66217 0.167623 0
M  V30 2228 H 207.92 -4.55034 -2.14366 0
M  V30 2229 H 207.62 -5.80441 -0.914454 0
M  V30 2230 H 209.144 -5.82003 -1.84675 0
M  V30 2231 H 210.558 -5.71742 0.422366 0
M  V30 2232 H 208.955 -5.8805 1.19656 0
M  V30 2233 H 210.025 -4.55045 1.67518 0
M  V30 2234 N 211.368 -0.403325 -1.52352 0
M  V30 2235 C 212.784 -0.0539281 -1.59509 0
M  V30 2236 C 212.984 1.43307 -1.41652 0
M  V30 2237 O 212.04 2.19924 -1.24056 0
M  V30 2238 C 213.353 -0.543654 -2.95745 0
M  V30 2239 C 214.901 -0.501125 -3.08962 0
M  V30 2240 C 215.376 -0.967267 -4.47669 0
M  V30 2241 N 216.867 -0.923849 -4.53893 0
M  V30 2242 C 217.602 -1.25578 -5.5948 0
M  V30 2243 N 217.098 -1.65889 -6.72646 0
M  V30 2244 N 218.891 -1.17613 -5.49658 0
M  V30 2245 H 211.042 -1.37123 -1.62206 0
M  V30 2246 H 213.305 -0.56294 -0.76276 0
M  V30 2247 H 213.011 -1.58275 -3.14073 0
M  V30 2248 H 212.885 0.0498042 -3.77167 0
M  V30 2249 H 215.272 0.528909 -2.90321 0
M  V30 2250 H 215.353 -1.13056 -2.2946 0
M  V30 2251 H 214.997 -1.9956 -4.67053 0
M  V30 2252 H 214.927 -0.314698 -5.25659 0
M  V30 2253 H 217.418 -0.627403 -3.72655 0
M  V30 2254 H 217.731 -1.89543 -7.49195 0
M  V30 2255 H 216.076 -1.69787 -6.73942 0
M  V30 2256 H 219.267 -0.860115 -4.6013 0
M  V30 2257 H 219.44 -1.43812 -6.3184 0
M  V30 2258 N 212.846 1.57033 -0.133567 0
M  V30 2259 C 214.094 1.953 0.519848 0
M  V30 2260 C 214.415 1.01866 1.66278 0
M  V30 2261 O 213.685 0.0776513 1.95746 0
M  V30 2262 H 212.265 0.721091 0.195032 0
M  V30 2263 H 214.927 1.93809 -0.205921 0
M  V30 2264 H 214.023 2.98695 0.904854 0
M  V30 2265 N 214.325 -0.140222 1.56975 0
M  V30 2266 C 215.571 -0.852949 1.83991 0
M  V30 2267 C 215.904 -1.80512 0.716187 0
M  V30 2268 O 215.179 -1.92479 -0.279681 0
M  V30 2269 C 215.462 -1.6215 3.21527 0
M  V30 2270 C 215.315 -0.690363 4.4447 0
M  V30 2271 C 216.634 -2.58247 3.56366 0
M  V30 2272 H 213.753 -0.308634 0.669264 0
M  V30 2273 H 216.395 -0.117898 1.89634 0
M  V30 2274 H 214.545 -2.24812 3.16847 0
M  V30 2275 H 216.217 -0.0742264 4.6124 0
M  V30 2276 H 214.46 -0.000396433 4.338 0
M  V30 2277 H 215.131 -1.2643 5.37326 0
M  V30 2278 H 217.607 -2.05701 3.61699 0
M  V30 2279 H 216.483 -3.09067 4.53617 0
M  V30 2280 H 216.744 -3.39923 2.82674 0
M  V30 2281 N 215.803 -1.52179 -0.40978 0
M  V30 2282 C 217.031 -1.70054 -1.17853 0
M  V30 2283 C 217.446 -0.409735 -1.843 0
M  V30 2284 O 216.803 0.614183 -1.71855 0
M  V30 2285 C 216.854 -2.83568 -2.24213 0
M  V30 2286 O 216.575 -4.0765 -1.60478 0
M  V30 2287 C 218.076 -3.12947 -3.13973 0
M  V30 2288 H 215.296 -0.569917 -0.354169 0
M  V30 2289 H 217.84 -1.98734 -0.482198 0
M  V30 2290 H 215.995 -2.57409 -2.89516 0
M  V30 2291 H 216.409 -4.70899 -2.30986 0
M  V30 2292 H 217.883 -3.95889 -3.84677 0
M  V30 2293 H 218.36 -2.26472 -3.76307 0
M  V30 2294 H 218.966 -3.40868 -2.5434 0
M  V30 2295 N 217.281 0.66697 -1.42791 0
M  V30 2296 C 218.528 1.42699 -1.43678 0
M  V30 2297 C 218.856 1.94419 -0.0560425 0
M  V30 2298 O 218.111 1.7182 0.936831 0
M  V30 2299 C 218.41 2.6349 -2.4147 0
M  V30 2300 C 218.076 2.30267 -3.8767 0
M  V30 2301 C 216.738 2.20918 -4.27491 0
M  V30 2302 C 219.09 2.03435 -4.79858 0
M  V30 2303 C 216.418 1.82873 -5.57471 0
M  V30 2304 C 218.77 1.66892 -6.10188 0
M  V30 2305 C 217.434 1.56058 -6.49001 0
M  V30 2306 H 216.704 0.522171 -0.525755 0
M  V30 2307 H 219.351 0.759785 -1.75783 0
M  V30 2308 H 217.656 3.35279 -2.0272 0
M  V30 2309 H 219.353 3.21684 -2.39417 0
M  V30 2310 H 215.943 2.38449 -3.56146 0
M  V30 2311 H 220.127 2.09586 -4.49875 0
M  V30 2312 H 215.383 1.7306 -5.86396 0
M  V30 2313 H 219.557 1.45157 -6.81104 0
M  V30 2314 H 217.184 1.26348 -7.49627 0
M  V30 2315 N 218.759 1.29093 0.90403 0
M  V30 2316 C 219.689 1.16401 2.02418 0
M  V30 2317 C 220.67 0.0593085 1.69997 0
M  V30 2318 O 221.855 0.238021 1.92736 0
M  V30 2319 C 218.985 0.835233 3.37107 0
M  V30 2320 C 217.939 1.89578 3.83724 0
M  V30 2321 C 217.265 1.42041 5.15489 0
M  V30 2322 C 218.565 3.30394 4.04521 0
M  V30 2323 H 220.259 2.10109 2.13295 0
M  V30 2324 H 217.805 1.01157 1.02486 0
M  V30 2325 H 219.758 0.733169 4.14973 0
M  V30 2326 H 218.482 -0.137543 3.2631 0
M  V30 2327 H 217.141 1.98715 3.08071 0
M  V30 2328 H 216.789 0.436426 5.01103 0
M  V30 2329 H 216.489 2.12964 5.4765 0
M  V30 2330 H 218.013 1.33176 5.959 0
M  V30 2331 H 219.427 3.24123 4.72882 0
M  V30 2332 H 217.824 3.99237 4.48029 0
M  V30 2333 H 218.894 3.73692 3.09002 0
M  V30 2334 N 220.237 -1.11381 1.11499 0
M  V30 2335 C 221.167 -2.19509 0.796125 0
M  V30 2336 C 222.148 -1.68458 -0.235796 0
M  V30 2337 O 223.333 -1.93947 -0.0991344 0
M  V30 2338 C 220.463 -3.46475 0.239205 0
M  V30 2339 C 219.417 -4.10744 1.20307 0
M  V30 2340 C 218.743 -5.32293 0.50683 0
M  V30 2341 C 220.043 -4.55597 2.55399 0
M  V30 2342 H 221.737 -2.46439 1.70024 0
M  V30 2343 H 219.283 -1.18446 0.818935 0
M  V30 2344 H 221.236 -4.214 0.00392006 0
M  V30 2345 H 219.96 -3.19006 -0.700206 0
M  V30 2346 H 218.619 -3.37813 1.42399 0
M  V30 2347 H 218.267 -5.01095 -0.437408 0
M  V30 2348 H 217.967 -5.76243 1.1497 0
M  V30 2349 H 219.491 -6.09956 0.280351 0
M  V30 2350 H 220.905 -5.21841 2.37391 0
M  V30 2351 H 219.302 -5.10363 3.15673 0
M  V30 2352 H 220.372 -3.69013 3.14575 0
M  V30 2353 N 221.715 -0.905404 -1.28997 0
M  V30 2354 C 223.131 -0.60233 -1.47798 0
M  V30 2355 C 223.331 0.854645 -1.82478 0
M  V30 2356 O 222.387 1.63439 -1.92468 0
M  V30 2357 C 223.7 -1.53306 -2.58685 0
M  V30 2358 C 225.248 -1.53887 -2.72558 0
M  V30 2359 C 225.723 -2.45602 -3.86579 0
M  V30 2360 N 227.214 -2.43681 -3.93921 0
M  V30 2361 C 227.949 -3.11347 -4.81509 0
M  V30 2362 N 227.445 -3.88313 -5.73746 0
M  V30 2363 N 229.238 -3.00476 -4.75048 0
M  V30 2364 H 221.389 -1.84765 -1.04764 0
M  V30 2365 H 223.652 -0.792025 -0.520961 0
M  V30 2366 H 223.358 -2.57141 -2.39941 0
M  V30 2367 H 223.232 -1.25787 -3.55609 0
M  V30 2368 H 225.619 -0.507941 -2.90696 0
M  V30 2369 H 225.7 -1.85447 -1.76191 0
M  V30 2370 H 225.344 -3.48792 -3.69197 0
M  V30 2371 H 225.274 -2.11349 -4.82327 0
M  V30 2372 H 227.765 -1.87767 -3.27951 0
M  V30 2373 H 228.078 -4.36985 -6.37389 0
M  V30 2374 H 226.423 -3.92419 -5.73614 0
M  V30 2375 H 229.614 -2.39858 -4.01977 0
M  V30 2376 H 229.787 -3.53485 -5.43095 0
M  V30 2377 N 223.193 1.4272 -0.668489 0
M  V30 2378 C 224.609 1.55992 -0.33745 0
M  V30 2379 C 224.809 1.64933 1.15756 0
M  V30 2380 O 223.865 1.61278 1.94282 0
M  V30 2381 C 225.178 2.81314 -1.06222 0
M  V30 2382 C 226.726 2.95078 -1.04394 0
M  V30 2383 C 227.201 4.23252 -1.74991 0
M  V30 2384 N 228.692 4.3015 -1.71829 0
M  V30 2385 C 229.427 5.28127 -2.23315 0
M  V30 2386 N 228.923 6.32293 -2.83156 0
M  V30 2387 N 230.716 5.19882 -2.13726 0
M  V30 2388 H 222.867 1.3516 -1.63846 0
M  V30 2389 H 225.13 0.650174 -0.689912 0
M  V30 2390 H 224.836 2.80823 -2.11734 0
M  V30 2391 H 224.71 3.72012 -0.62344 0
M  V30 2392 H 227.097 2.951 0.0028244 0
M  V30 2393 H 227.178 2.05627 -1.52155 0
M  V30 2394 H 226.822 4.2399 -2.79633 0
M  V30 2395 H 226.752 5.11626 -1.24685 0
M  V30 2396 H 229.243 3.55499 -1.28175 0
M  V30 2397 H 229.556 7.03398 -3.20079 0
M  V30 2398 H 227.901 6.32873 -2.87223 0
M  V30 2399 H 231.092 4.37423 -1.66669 0
M  V30 2400 H 231.265 5.96077 -2.54158 0
M  V30 2401 N 224.671 0.411399 1.52136 0
M  V30 2402 C 225.581 -0.419774 2.30814 0
M  V30 2403 C 226.597 -1.0515 1.38634 0
M  V30 2404 O 227.773 -1.05252 1.71709 0
M  V30 2405 C 224.838 -1.52019 3.11594 0
M  V30 2406 C 223.899 -0.91129 4.19516 0
M  V30 2407 C 223.132 -1.95927 4.96436 0
M  V30 2408 O 223.355 -3.17775 4.73683 0
M  V30 2409 O 222.289 -1.56423 5.81219 0
M  V30 2410 H 226.115 0.221805 3.02889 0
M  V30 2411 H 223.7 0.174547 1.48377 0
M  V30 2412 H 225.582 -2.15898 3.61892 0
M  V30 2413 H 224.257 -2.14633 2.42311 0
M  V30 2414 H 223.164 -0.235157 3.7336 0
M  V30 2415 H 224.497 -0.32904 4.91099 0
M  V30 2416 N 226.149 -1.5696 0.141893 0
M  V30 2417 C 227.397 -1.95573 -0.509484 0
M  V30 2418 C 227.718 -1.02746 -1.65736 0
M  V30 2419 O 226.988 -0.0880311 -1.95702 0
M  V30 2420 H 225.568 -0.722115 -0.191205 0
M  V30 2421 H 228.23 -1.93697 0.216196 0
M  V30 2422 H 227.326 -2.99171 -0.889 0
M  V30 2423 N 227.627 0.131896 -1.57047 0
M  V30 2424 C 228.904 0.871495 -1.75112 0
M  V30 2425 C 229.284 1.9866 -0.713949 0
M  V30 2426 O 228.632 2.26965 0.264447 0
M  V30 2427 C 228.842 1.40007 -3.19686 0
M  V30 2428 C 230.19 1.85752 -3.81813 0
M  V30 2429 O 231.214 1.49715 -3.23209 0
M  V30 2430 O 230.073 2.5226 -4.84796 0
M  V30 2431 H 227.167 0.412919 -0.716538 0
M  V30 2432 H 229.713 0.116641 -1.69299 0
M  V30 2433 H 228.485 0.599404 -3.86682 0
M  V30 2434 H 228.108 2.218 -3.29986 0
M  V30 2435 N 229.106 1.52395 0.401703 0
M  V30 2436 C 230.056 1.72649 1.48917 0
M  V30 2437 C 231.04 0.580436 1.50066 0
M  V30 2438 O 232.232 0.83779 1.55917 0
M  V30 2439 C 229.361 1.88729 2.86769 0
M  V30 2440 C 228.447 3.09228 2.90239 0
M  V30 2441 N 228.838 4.31805 2.63396 0
M  V30 2442 C 227.136 3.09214 3.21408 0
M  V30 2443 C 227.837 5.13326 2.73625 0
M  V30 2444 N 226.813 4.48735 3.06819 0
M  V30 2445 H 230.615 2.65058 1.26971 0
M  V30 2446 H 228.129 1.50528 0.609504 0
M  V30 2447 H 230.126 2.01358 3.65049 0
M  V30 2448 H 228.786 0.975252 3.09708 0
M  V30 2449 H 229.797 4.60154 2.37653 0
M  V30 2450 H 226.474 2.27774 3.49893 0
M  V30 2451 H 227.864 6.21003 2.56524 0
M  V30 2452 N 230.584 -0.659388 1.43143 0
M  V30 2453 C 231.494 -1.80167 1.50256 0
M  V30 2454 C 232.51 -1.69571 0.390106 0
M  V30 2455 O 233.686 -1.90849 0.643319 0
M  V30 2456 C 230.751 -3.16409 1.41725 0
M  V30 2457 C 229.812 -3.38848 2.63591 0
M  V30 2458 C 229.045 -4.68591 2.55458 0
M  V30 2459 O 229.268 -5.47532 1.59891 0
M  V30 2460 O 228.202 -4.92614 3.45854 0
M  V30 2461 H 232.028 -1.77121 2.46702 0
M  V30 2462 H 229.613 -0.817092 1.25076 0
M  V30 2463 H 231.495 -3.9768 1.39387 0
M  V30 2464 H 230.17 -3.20059 0.484118 0
M  V30 2465 H 229.077 -2.57366 2.71502 0
M  V30 2466 H 230.41 -3.4004 3.55856 0
M  V30 2467 N 232.062 -1.29571 -0.897171 0
M  V30 2468 C 233.309 -1.17689 -1.6479 0
M  V30 2469 C 233.637 0.27107 -1.92602 0
M  V30 2470 O 232.892 1.21193 -1.53658 0
M  V30 2471 C 233.191 -1.9382 -3.00281 0
M  V30 2472 C 232.857 -3.43522 -2.92068 0
M  V30 2473 C 231.519 -3.84348 -2.89535 0
M  V30 2474 C 233.871 -4.38906 -2.81089 0
M  V30 2475 C 231.199 -5.18869 -2.73846 0
M  V30 2476 C 233.551 -5.73521 -2.66939 0
M  V30 2477 C 232.215 -6.13601 -2.62774 0
M  V30 2478 H 231.485 -0.430654 -0.603008 0
M  V30 2479 H 234.132 -1.60536 -1.04404 0
M  V30 2480 H 232.437 -1.4357 -3.64547 0
M  V30 2481 H 234.134 -1.82028 -3.57305 0
M  V30 2482 H 230.724 -3.11072 -2.94842 0
M  V30 2483 H 234.908 -4.08315 -2.82121 0
M  V30 2484 H 230.164 -5.4903 -2.69027 0
M  V30 2485 H 234.338 -6.47078 -2.57416 0
M  V30 2486 H 231.965 -7.17786 -2.50375 0
M  V30 2487 N 233.54 1.10788 -1.12088 0
M  V30 2488 C 234.47 2.19083 -0.807755 0
M  V30 2489 C 235.451 1.6858 0.226859 0
M  V30 2490 O 236.636 1.93997 0.0888475 0
M  V30 2491 C 233.766 3.46344 -0.257576 0
M  V30 2492 C 232.72 4.101 -1.22483 0
M  V30 2493 C 232.046 5.32016 -0.535052 0
M  V30 2494 C 233.346 4.54236 -2.57811 0
M  V30 2495 H 235.04 2.45534 -1.71328 0
M  V30 2496 H 232.586 1.1801 -0.825205 0
M  V30 2497 H 234.539 4.21392 -0.0262679 0
M  V30 2498 H 233.263 3.19373 0.683278 0
M  V30 2499 H 231.922 3.37054 -1.44189 0
M  V30 2500 H 231.57 5.01319 0.410827 0
M  V30 2501 H 231.27 5.75625 -1.18024 0
M  V30 2502 H 232.794 6.09799 -0.312695 0
M  V30 2503 H 234.208 5.20575 -2.40155 0
M  V30 2504 H 232.605 5.08682 -3.18375 0
M  V30 2505 H 233.675 3.6734 -3.16528 0
M  V30 2506 N 235.018 0.912232 1.28515 0
M  V30 2507 C 235.928 0.404506 2.31086 0
M  V30 2508 C 236.944 -0.50707 1.66448 0
M  V30 2509 O 238.12 -0.393624 1.97516 0
M  V30 2510 C 235.185 -0.348572 3.44943 0
M  V30 2511 C 234.246 0.59604 4.25142 0
M  V30 2512 C 233.479 -0.121194 5.33562 0
M  V30 2513 O 233.702 -1.34317 5.5436 0
M  V30 2514 O 232.636 0.542716 5.99448 0
M  V30 2515 H 236.462 1.25579 2.76521 0
M  V30 2516 H 234.047 0.676998 1.33181 0
M  V30 2517 H 235.929 -0.77395 4.14232 0
M  V30 2518 H 234.604 -1.17571 3.01594 0
M  V30 2519 H 233.511 1.07079 3.58448 0
M  V30 2520 H 234.844 1.38995 4.72167 0
M  V30 2521 N 236.496 -1.42363 0.676048 0
M  V30 2522 C 237.742 -2.0182 0.199125 0
M  V30 2523 C 238.075 -1.53339 -1.19168 0
M  V30 2524 O 237.35 -0.736124 -1.80032 0
M  V30 2525 C 237.633 -3.59331 0.235144 0
M  V30 2526 C 237.486 -4.17989 1.66149 0
M  V30 2527 C 238.805 -4.3813 -0.41595 0
M  V30 2528 H 235.924 -0.733293 0.0738311 0
M  V30 2529 H 238.566 -1.69368 0.86107 0
M  V30 2530 H 236.716 -3.87109 -0.328487 0
M  V30 2531 H 238.388 -4.0116 2.27747 0
M  V30 2532 H 236.631 -3.7377 2.20178 0
M  V30 2533 H 237.302 -5.27126 1.63837 0
M  V30 2534 H 239.778 -4.16051 0.0638529 0
M  V30 2535 H 238.654 -5.47717 -0.360115 0
M  V30 2536 H 238.915 -4.16101 -1.49373 0
M  V30 2537 N 237.974 -0.419461 -1.51915 0
M  V30 2538 C 239.385 0.0477853 -1.86639 0
M  V30 2539 C 239.736 1.43531 -1.33766 0
M  V30 2540 O 238.861 2.05401 -0.68113 0
M  V30 2541 C 239.456 0.0934885 -3.38671 0
M  V30 2542 C 238.015 0.505097 -3.72996 0
M  V30 2543 C 237.162 -0.313792 -2.75519 0
M  V30 2544 H 240.113 -0.636088 -1.45395 0
M  V30 2545 H 240.134 0.906667 -3.6954 0
M  V30 2546 H 239.646 -0.916501 -3.77123 0
M  V30 2547 H 237.747 1.52135 -3.40126 0
M  V30 2548 H 237.86 0.242309 -4.78487 0
M  V30 2549 H 236.224 0.225363 -2.53701 0
M  V30 2550 H 237.007 -1.32232 -3.16812 0
M  V30 2551 N 239.452 1.56882 -0.150215 0
M  V30 2552 C 240.362 2.20494 0.801222 0
M  V30 2553 C 241.378 1.19019 1.26927 0
M  V30 2554 O 242.554 1.51607 1.32579 0
M  V30 2555 C 239.619 2.81659 2.02161 0
M  V30 2556 C 238.68 3.9827 1.60249 0
M  V30 2557 C 237.913 4.56508 2.7647 0
M  V30 2558 O 238.136 4.13627 3.92771 0
M  V30 2559 O 237.07 5.46719 2.51757 0
M  V30 2560 H 240.896 3.02315 0.289717 0
M  V30 2561 H 238.481 1.49202 0.0769684 0
M  V30 2562 H 240.363 3.20522 2.73576 0
M  V30 2563 H 239.038 2.02849 2.52258 0
M  V30 2564 H 237.945 3.64117 0.858477 0
M  V30 2565 H 239.278 4.78609 1.14864 0
M  V30 2566 N 240.93 -0.123565 1.57115 0
M  V30 2567 C 241.893 -1.13583 1.99076 0
M  V30 2568 C 242.893 -1.34564 0.880296 0
M  V30 2569 O 244.083 -1.31158 1.14644 0
M  V30 2570 C 241.215 -2.49128 2.32698 0
M  V30 2571 H 242.408 -0.775287 2.89706 0
M  V30 2572 H 239.961 -0.36771 1.51913 0
M  V30 2573 H 240.696 -2.90111 1.44934 0
M  V30 2574 H 240.481 -2.35255 3.13684 0
M  V30 2575 H 241.971 -3.2199 2.65918 0
M  V30 2576 N 242.408 -1.52605 -0.393616 0
M  V30 2577 C 243.34 -1.73303 -1.49995 0
M  V30 2578 C 244.353 -0.613473 -1.50799 0
M  V30 2579 O 245.542 -0.889049 -1.54784 0
M  V30 2580 C 242.642 -1.77245 -2.88855 0
M  V30 2581 C 241.815 -3.06483 -3.12069 0
M  V30 2582 C 240.874 -3.02033 -4.30886 0
M  V30 2583 O 239.9 -3.75907 -4.27414 0
M  V30 2584 N 241.102 -2.20897 -5.36828 0
M  V30 2585 H 243.867 -2.68756 -1.32629 0
M  V30 2586 H 241.428 -1.51036 -0.583083 0
M  V30 2587 H 243.42 -1.7178 -3.66434 0
M  V30 2588 H 241.99 -0.891993 -2.99603 0
M  V30 2589 H 241.21 -3.25474 -2.22396 0
M  V30 2590 H 242.498 -3.91947 -3.2443 0
M  V30 2591 H 241.896 -1.60336 -5.42502 0
M  V30 2592 H 240.453 -2.21275 -6.13091 0
M  V30 2593 N 243.887 0.651787 -1.4349 0
M  V30 2594 C 244.797 1.79368 -1.5121 0
M  V30 2595 C 245.813 1.69361 -0.399093 0
M  V30 2596 O 246.989 1.90505 -0.653431 0
M  V30 2597 C 244.054 3.15653 -1.43401 0
M  V30 2598 C 243.115 3.37446 -2.65384 0
M  V30 2599 C 242.348 4.67229 -2.57939 0
M  V30 2600 O 242.571 5.46676 -1.62792 0
M  V30 2601 O 241.505 4.90773 -3.48462 0
M  V30 2602 H 245.331 1.7581 -2.47638 0
M  V30 2603 H 242.916 0.810447 -1.25507 0
M  V30 2604 H 244.798 3.96935 -1.41494 0
M  V30 2605 H 243.473 3.19798 -0.501085 0
M  V30 2606 H 242.38 2.55923 -2.72863 0
M  V30 2607 H 243.713 3.38148 -3.57654 0
M  V30 2608 N 245.365 1.30045 0.890287 0
M  V30 2609 C 246.642 1.09227 1.62262 0
M  V30 2610 C 247.022 -0.360305 2.08002 0
M  V30 2611 O 246.37 -1.35084 1.84295 0
M  V30 2612 C 246.58 2.08835 2.79623 0
M  V30 2613 C 247.928 2.40266 3.50082 0
M  V30 2614 O 248.952 2.07104 2.89804 0
M  V30 2615 O 247.811 2.96967 4.58773 0
M  V30 2616 H 244.905 0.419132 0.712922 0
M  V30 2617 H 247.451 1.41451 0.937529 0
M  V30 2618 H 246.223 3.06633 2.43089 0
M  V30 2619 H 245.846 1.77397 3.55832 0
M  V30 2620 N 246.843 -1.10192 1.12674 0
M  V30 2621 C 248.089 -1.82475 0.884915 0
M  V30 2622 C 248.422 -1.85093 -0.58773 0
M  V30 2623 O 247.697 -1.3134 -1.43457 0
M  V30 2624 C 247.98 -3.29018 1.46353 0
M  V30 2625 C 247.833 -3.34718 3.00473 0
M  V30 2626 C 249.152 -4.25473 1.12519 0
M  V30 2627 H 246.271 -0.662492 0.322915 0
M  V30 2628 H 248.913 -1.2913 1.39375 0
M  V30 2629 H 247.063 -3.74576 1.03077 0
M  V30 2630 H 248.735 -2.97622 3.52447 0
M  V30 2631 H 246.978 -2.74541 3.35872 0
M  V30 2632 H 247.649 -4.37918 3.36053 0
M  V30 2633 H 250.125 -3.88161 1.499 0
M  V30 2634 H 249.001 -5.26365 1.55663 0
M  V30 2635 H 249.262 -4.42084 0.0377407 0
M  V30 2636 N 248.321 -0.919034 -1.28029 0
M  V30 2637 C 249.231 -0.416756 -2.30869 0
M  V30 2638 C 250.247 0.498235 -1.66714 0
M  V30 2639 O 251.423 0.383144 -1.97722 0
M  V30 2640 C 248.488 0.330274 -3.45123 0
M  V30 2641 C 247.549 -0.618578 -4.2482 0
M  V30 2642 C 246.782 0.0928959 -5.33619 0
M  V30 2643 O 247.005 1.31375 -5.55065 0
M  V30 2644 O 245.939 -0.574499 -5.99152 0
M  V30 2645 H 249.765 -1.27043 -2.75851 0
M  V30 2646 H 247.35 -0.684052 -1.3282 0
M  V30 2647 H 249.232 0.751972 -4.14636 0
M  V30 2648 H 247.907 1.1597 -3.02213 0
M  V30 2649 H 246.814 -1.08978 -3.57875 0
M  V30 2650 H 248.147 -1.41497 -4.71423 0
M  V30 2651 N 249.799 1.42003 -0.683588 0
M  V30 2652 C 250.762 2.29191 -0.0198243 0
M  V30 2653 C 251.762 1.43773 0.72013 0
M  V30 2654 O 252.952 1.65061 0.556815 0
M  V30 2655 C 250.084 3.26435 0.982487 0
M  V30 2656 H 251.277 2.8938 -0.787345 0
M  V30 2657 H 248.83 1.49789 -0.446418 0
M  V30 2658 H 249.565 2.71203 1.77819 0
M  V30 2659 H 249.35 3.89449 0.455182 0
M  V30 2660 H 250.84 3.918 1.44508 0
M  V30 2661 N 251.277 0.427512 1.51691 0
M  V30 2662 C 252.505 -0.141191 2.06418 0
M  V30 2663 C 252.92 -1.37303 1.29589 0
M  V30 2664 O 252.277 -1.79059 0.352732 0
M  V30 2665 C 252.328 -0.473266 3.58389 0
M  V30 2666 O 252.049 0.709673 4.32314 0
M  V30 2667 C 253.55 -1.09371 4.29596 0
M  V30 2668 H 250.77 -0.0122747 0.670888 0
M  V30 2669 H 253.314 0.603764 1.95384 0
M  V30 2670 H 251.469 -1.16812 3.69369 0
M  V30 2671 H 251.883 0.42807 5.2275 0
M  V30 2672 H 253.357 -1.27613 5.37046 0
M  V30 2673 H 253.834 -2.072 3.87253 0
M  V30 2674 H 254.44 -0.43853 4.23033 0
M  V30 2675 N 252.755 -1.56801 0.158532 0
M  V30 2676 C 254.002 -1.9649 -0.489679 0
M  V30 2677 C 254.33 -1.04394 -1.6411 0
M  V30 2678 O 253.585 -0.0754401 -1.95555 0
M  V30 2679 C 253.884 -3.4235 -1.02623 0
M  V30 2680 C 253.55 -4.50899 0.00794526 0
M  V30 2681 C 252.212 -4.80312 0.292207 0
M  V30 2682 C 254.564 -5.16333 0.710584 0
M  V30 2683 C 251.892 -5.72461 1.28472 0
M  V30 2684 C 254.244 -6.09553 1.69199 0
M  V30 2685 C 252.908 -6.37339 1.98383 0
M  V30 2686 H 252.178 -0.719009 -0.179186 0
M  V30 2687 H 254.825 -1.8989 0.247798 0
M  V30 2688 H 253.13 -3.45838 -1.84128 0
M  V30 2689 H 254.827 -3.70393 -1.53656 0
M  V30 2690 H 251.417 -4.28015 -0.22379 0
M  V30 2691 H 255.601 -4.93732 0.504174 0
M  V30 2692 H 250.857 -5.92278 1.51714 0
M  V30 2693 H 255.031 -6.59327 2.24189 0
M  V30 2694 H 252.658 -7.08546 2.7544 0
M  V30 2695 N 254.233 0.115231 -1.57178 0
M  V30 2696 C 255.644 0.67197 -1.74188 0
M  V30 2697 C 255.995 1.80125 -0.777777 0
M  V30 2698 O 255.12 2.16346 0.0484376 0
M  V30 2699 C 255.715 1.22573 -3.1585 0
M  V30 2700 C 254.274 1.72872 -3.34353 0
M  V30 2701 C 253.421 0.629972 -2.70049 0
M  V30 2702 H 256.372 -0.110712 -1.58313 0
M  V30 2703 H 256.393 2.09535 -3.17609 0
M  V30 2704 H 255.905 0.403598 -3.85996 0
M  V30 2705 H 254.006 2.5755 -2.69256 0
M  V30 2706 H 254.119 1.83557 -4.42542 0
M  V30 2707 H 252.483 1.0645 -2.31388 0
M  V30 2708 H 253.266 -0.181241 -3.42821 0
M  V30 2709 N 255.711 1.52812 0.385517 0
M  V30 2710 C 256.957 1.68275 1.13188 0
M  V30 2711 C 257.29 0.423179 1.89533 0
M  V30 2712 O 256.565 -0.579113 1.85679 0
M  V30 2713 C 256.848 2.92001 2.1073 0
M  V30 2714 C 256.701 4.28067 1.38125 0
M  V30 2715 C 258.02 3.11283 3.11113 0
M  V30 2716 H 255.139 0.612352 0.410115 0
M  V30 2717 H 257.781 1.85415 0.414869 0
M  V30 2718 H 255.931 2.77519 2.71874 0
M  V30 2719 H 257.603 4.54324 0.799187 0
M  V30 2720 H 255.846 4.28388 0.683092 0
M  V30 2721 H 256.517 5.10733 2.09417 0
M  V30 2722 H 258.993 3.2482 2.6006 0
M  V30 2723 H 257.869 3.99325 3.76605 0
M  V30 2724 H 258.13 2.25656 3.80173 0
M  V30 2725 N 257.189 -0.644168 1.43834 0
M  V30 2726 C 258.139 -1.7501 1.46135 0
M  V30 2727 C 259.123 -1.57507 0.328685 0
M  V30 2728 O 260.315 -1.67465 0.5731 0
M  V30 2729 C 257.444 -3.13641 1.39585 0
M  V30 2730 C 256.53 -3.3666 2.57916 0
M  V30 2731 N 256.921 -3.30107 3.83227 0
M  V30 2732 C 255.219 -3.67411 2.52834 0
M  V30 2733 C 255.92 -3.53456 4.61999 0
M  V30 2734 N 254.896 -3.75705 3.9287 0
M  V30 2735 H 258.698 -1.68382 2.40883 0
M  V30 2736 H 256.212 -0.846169 1.38614 0
M  V30 2737 H 258.209 -3.92933 1.39317 0
M  V30 2738 H 256.869 -3.21444 0.45865 0
M  V30 2739 H 257.88 -3.09316 4.15384 0
M  V30 2740 H 254.557 -3.82275 1.67845 0
M  V30 2741 H 255.947 -3.54093 5.71024 0
M  V30 2742 N 258.668 -1.30515 -0.883378 0
M  V30 2743 C 259.6 -1.12846 -1.99496 0
M  V30 2744 C 260.613 -0.0712571 -1.62644 0
M  V30 2745 O 261.802 -0.317432 -1.75655 0
M  V30 2746 C 258.902 -0.699123 -3.3161 0
M  V30 2747 C 258.075 -1.83842 -3.96889 0
M  V30 2748 C 257.134 -1.39737 -5.07307 0
M  V30 2749 O 256.16 -2.10485 -5.28852 0
M  V30 2750 N 257.362 -0.277279 -5.79837 0
M  V30 2751 H 260.127 -2.08585 -2.15203 0
M  V30 2752 H 257.688 -1.22672 -1.05656 0
M  V30 2753 H 259.68 -0.387044 -4.02845 0
M  V30 2754 H 258.25 0.166276 -3.12157 0
M  V30 2755 H 257.47 -2.31853 -3.18807 0
M  V30 2756 H 258.758 -2.60187 -4.37241 0
M  V30 2757 H 258.156 0.3122 -5.64838 0
M  V30 2758 H 256.713 -0.0246623 -6.51795 0
M  V30 2759 N 260.146 1.09593 -1.13257 0
M  V30 2760 C 261.557 1.63229 -0.906274 0
M  V30 2761 C 261.908 1.8811 0.557578 0
M  V30 2762 O 261.033 1.62953 1.42391 0
M  V30 2763 C 261.628 2.96535 -1.63867 0
M  V30 2764 C 260.187 3.47003 -1.45828 0
M  V30 2765 C 259.334 2.2145 -1.66898 0
M  V30 2766 H 262.285 0.92978 -1.28611 0
M  V30 2767 H 262.306 3.64411 -1.09476 0
M  V30 2768 H 261.818 2.78394 -2.70404 0
M  V30 2769 H 259.919 3.70272 -0.415848 0
M  V30 2770 H 260.032 4.24551 -2.2202 0
M  V30 2771 H 258.396 2.30022 -1.09371 0
M  V30 2772 H 259.179 2.0583 -2.74752 0
M  V30 2773 N 261.624 0.925811 1.2754 0
M  V30 2774 C 262.872 0.564138 1.94067 0
M  V30 2775 C 263.193 -0.897188 1.73134 0
M  V30 2776 O 262.463 -1.63573 1.07799 0
M  V30 2777 H 261.043 0.205645 0.718136 0
M  V30 2778 H 263.705 1.1778 1.55287 0
M  V30 2779 H 262.801 0.76881 3.02483 0
M  V30 2780 N 263.102 -1.41638 0.69111 0
M  V30 2781 C 264.05 -2.32597 0.0115199 0
M  V30 2782 C 265.044 -1.5072 -0.773296 0
M  V30 2783 O 266.25 -1.66685 -0.67942 0
M  V30 2784 H 262.625 -0.751849 -0.0150746 0
M  V30 2785 H 264.596 -2.87593 0.795791 0
M  V30 2786 C 263.345 -3.35467 -0.914172 0
M  V30 2787 H 262.668 -3.9852 -0.319687 0
M  V30 2788 H 264.108 -4.01662 -1.35808 0
M  V30 2789 C 262.567 -2.69004 -2.02826 0
M  V30 2790 O 263.097 -2.53444 -3.11655 0
M  V30 2791 N 261.303 -2.2777 -1.80469 0
M  V30 2792 H 260.85 -2.40626 -0.919615 0
M  V30 2793 H 260.808 -1.83635 -2.55197 0
M  V30 2794 N 264.58 -0.43555 -1.51462 0
M  V30 2795 C 265.81 0.130053 -2.0619 0
M  V30 2796 C 266.218 1.37164 -1.30317 0
M  V30 2797 O 265.561 1.80225 -0.355598 0
M  V30 2798 C 265.623 0.519418 -3.55728 0
M  V30 2799 C 265.287 -0.615119 -4.52841 0
M  V30 2800 C 266.284 -1.48671 -4.9819 0
M  V30 2801 C 263.969 -0.795341 -4.95963 0
M  V30 2802 C 265.963 -2.52324 -5.8533 0
M  V30 2803 C 263.65 -1.83514 -5.82894 0
M  V30 2804 C 264.648 -2.69748 -6.27475 0
M  V30 2805 O 264.336 -3.71944 -7.1268 0
M  V30 2806 H 264.068 0.0121612 -0.675891 0
M  V30 2807 H 266.622 -0.6129 -1.96043 0
M  V30 2808 H 264.852 1.31505 -3.63653 0
M  V30 2809 H 266.541 1.01597 -3.92979 0
M  V30 2810 H 267.307 -1.359 -4.65571 0
M  V30 2811 H 263.186 -0.133713 -4.60806 0
M  V30 2812 H 266.73 -3.19665 -6.20048 0
M  V30 2813 H 262.627 -1.96306 -6.14926 0
M  V30 2814 H 263.395 -3.68503 -7.30854 0
M  V30 2815 N 266.058 1.56714 -0.166846 0
M  V30 2816 C 267.283 2.01557 0.488833 0
M  V30 2817 C 267.708 1.0463 1.56314 0
M  V30 2818 O 267.066 0.0251304 1.81283 0
M  V30 2819 C 267.114 3.4503 1.04818 0
M  V30 2820 O 266.218 3.51163 2.16236 0
M  V30 2821 H 265.559 0.653516 0.117526 0
M  V30 2822 H 268.089 2.02818 -0.269421 0
M  V30 2823 H 268.099 3.84243 1.37191 0
M  V30 2824 H 266.774 4.15077 0.261572 0
M  V30 2825 H 265.351 3.23807 1.84942 0
M  V30 2826 N 267.536 -0.106894 1.57237 0
M  V30 2827 C 268.776 -0.818277 1.87306 0
M  V30 2828 C 269.14 -1.76474 0.756371 0
M  V30 2829 O 270.341 -2.5186 0.939155 0
M  V30 2830 C 268.612 -1.53806 3.22612 0
M  V30 2831 S 270.171 -2.28935 3.74345 0
M  V30 2832 H 266.989 -0.272862 0.656557 0
M  V30 2833 H 269.591 -0.075988 1.95352 0
M  V30 2834 H 268.295 -0.834951 4.01817 0
M  V30 2835 H 267.826 -2.32049 3.17674 0
M  V30 2836 H 269.841 -3.54871 3.46815 0
M  V30 2837 N 269.014 -1.53014 -0.377408 0
M  V30 2838 C 270.239 -1.72818 -1.14668 0
M  V30 2839 C 270.664 -0.450725 -1.8262 0
M  V30 2840 O 270.022 0.59439 -1.7128 0
M  V30 2841 C 270.07 -2.88627 -2.16164 0
M  V30 2842 O 269.174 -2.56409 -3.22998 0
M  V30 2843 H 268.515 -0.574301 -0.333278 0
M  V30 2844 H 271.045 -1.99853 -0.438152 0
M  V30 2845 H 271.055 -3.14455 -2.59966 0
M  V30 2846 H 269.73 -3.81294 -1.66095 0
M  V30 2847 H 268.307 -2.4136 -2.84253 0
M  V30 2848 N 270.492 0.636531 -1.44174 0
M  V30 2849 C 271.722 1.42146 -1.49927 0
M  V30 2850 C 272.13 1.88812 -0.121063 0
M  V30 2851 O 271.473 1.61126 0.882267 0
M  V30 2852 C 271.535 2.67883 -2.39748 0
M  V30 2853 C 271.199 2.43048 -3.8701 0
M  V30 2854 C 272.196 2.05216 -4.77684 0
M  V30 2855 C 269.881 2.56856 -4.3166 0
M  V30 2856 C 271.875 1.81512 -6.11009 0
M  V30 2857 C 269.562 2.32766 -5.65034 0
M  V30 2858 C 270.56 1.95152 -6.54526 0
M  V30 2859 O 270.248 1.71326 -7.85431 0
M  V30 2860 H 269.98 0.442567 -0.51099 0
M  V30 2861 H 272.534 0.786158 -1.8976 0
M  V30 2862 H 270.764 3.34032 -1.94832 0
M  V30 2863 H 272.453 3.29874 -2.36513 0
M  V30 2864 H 273.219 1.94111 -4.44462 0
M  V30 2865 H 269.098 2.85104 -3.62266 0
M  V30 2866 H 272.642 1.52077 -6.80822 0
M  V30 2867 H 268.539 2.43479 -5.97819 0
M  V30 2868 H 269.307 1.85616 -7.97176 0
M  V30 2869 N 271.97 1.30982 0.876444 0
M  V30 2870 C 273.386 1.09498 1.16113 0
M  V30 2871 C 273.586 -0.13875 2.01022 0
M  V30 2872 O 272.642 -0.829935 2.38471 0
M  V30 2873 C 273.955 2.36308 1.85954 0
M  V30 2874 C 275.503 2.41856 1.98683 0
M  V30 2875 C 275.978 3.6853 2.71937 0
M  V30 2876 N 277.469 3.69387 2.79477 0
M  V30 2877 C 278.204 4.64096 3.36753 0
M  V30 2878 N 277.7 5.69155 3.95012 0
M  V30 2879 N 279.493 4.51626 3.3465 0
M  V30 2880 H 271.644 2.10118 0.310494 0
M  V30 2881 H 273.907 0.926634 0.200131 0
M  V30 2882 H 273.613 3.26388 1.31011 0
M  V30 2883 H 273.487 2.4561 2.86278 0
M  V30 2884 H 275.874 1.52249 2.52793 0
M  V30 2885 H 275.955 2.36523 0.9742 0
M  V30 2886 H 275.599 4.58499 2.18496 0
M  V30 2887 H 275.529 3.71127 3.73593 0
M  V30 2888 H 278.02 2.93438 2.38123 0
M  V30 2889 H 278.333 6.3751 4.36808 0
M  V30 2890 H 276.678 5.72937 3.93406 0
M  V30 2891 H 279.869 3.68728 2.8837 0
M  V30 2892 H 280.042 5.25614 3.7899 0
M  V30 2893 N 273.449 -1.08991 1.13837 0
M  V30 2894 C 274.677 -1.85011 0.926202 0
M  V30 2895 C 275.092 -1.8135 -0.525127 0
M  V30 2896 O 274.449 -1.21287 -1.36366 0
M  V30 2897 C 274.5 -3.32802 1.41155 0
M  V30 2898 O 274.221 -3.36444 2.80601 0
M  V30 2899 C 275.722 -4.25649 1.23847 0
M  V30 2900 H 272.942 -0.584249 0.32999 0
M  V30 2901 H 275.486 -1.37688 1.51202 0
M  V30 2902 H 273.641 -3.77536 0.868631 0
M  V30 2903 H 274.055 -4.28657 3.02248 0
M  V30 2904 H 275.529 -5.27485 1.62675 0
M  V30 2905 H 276.006 -4.38828 0.18065 0
M  V30 2906 H 276.612 -3.86735 1.76964 0
M  V30 2907 N 274.927 -0.932562 -1.27047 0
M  V30 2908 C 276.204 -0.49377 -1.89265 0
M  V30 2909 C 276.584 1.02833 -1.8436 0
M  V30 2910 O 275.932 1.88461 -1.29209 0
M  V30 2911 C 276.142 -1.04536 -3.32976 0
M  V30 2912 C 277.49 -1.10879 -4.09867 0
M  V30 2913 O 278.514 -0.995327 -3.42011 0
M  V30 2914 O 277.373 -1.28417 -5.31198 0
M  V30 2915 H 274.467 -0.159596 -0.811454 0
M  V30 2916 H 277.013 -1.02457 -1.3528 0
M  V30 2917 H 275.785 -2.08913 -3.30864 0
M  V30 2918 H 275.408 -0.496494 -3.94488 0
M  V30 2919 N 276.405 1.4127 -0.698611 0
M  V30 2920 C 277.653 2.00782 -0.230409 0
M  V30 2921 C 277.974 1.5562 1.17505 0
M  V30 2922 O 277.244 0.78815 1.79346 0
M  V30 2923 H 275.824 0.742464 -0.0821944 0
M  V30 2924 H 278.486 1.72852 -0.90045 0
M  V30 2925 H 277.582 3.11095 -0.25021 0
M  V30 2926 N 277.883 0.443576 1.51229 0
M  V30 2927 C 278.793 -0.370721 2.31652 0
M  V30 2928 C 279.809 -1.02186 1.40833 0
M  V30 2929 O 280.985 -1.01586 1.73903 0
M  V30 2930 C 278.05 -1.45376 3.14749 0
M  V30 2931 C 277.111 -0.822099 4.21355 0
M  V30 2932 C 276.344 -1.85353 5.0048 0
M  V30 2933 O 276.567 -3.07656 4.80316 0
M  V30 2934 O 275.501 -1.4406 5.84406 0
M  V30 2935 H 279.327 0.286002 3.0235 0
M  V30 2936 H 276.912 0.20598 1.47973 0
M  V30 2937 H 278.794 -2.08173 3.66391 0
M  V30 2938 H 277.469 -2.09445 2.46809 0
M  V30 2939 H 276.376 -0.155909 3.73775 0
M  V30 2940 H 277.709 -0.224797 4.91686 0
M  V30 2941 N 279.361 -1.56624 0.175154 0
M  V30 2942 C 280.609 -1.96609 -0.467885 0
M  V30 2943 C 280.93 -1.06238 -1.63519 0
M  V30 2944 O 280.2 -0.129523 -1.95471 0
M  V30 2945 H 278.78 -0.726008 -0.175845 0
M  V30 2946 H 281.442 -1.93195 0.257234 0
M  V30 2947 H 280.538 -3.00989 -0.825342 0
M  V30 2948 N 280.839 0.0985539 -1.57292 0
M  V30 2949 C 281.802 1.10402 -2.00858 0
M  V30 2950 C 282.802 1.33146 -0.901593 0
M  V30 2951 O 283.992 1.29318 -1.16716 0
M  V30 2952 C 281.124 2.45394 -2.36632 0
M  V30 2953 H 282.317 0.729099 -2.90902 0
M  V30 2954 H 279.87 0.343495 -1.52479 0
M  V30 2955 H 280.605 2.87769 -1.49531 0
M  V30 2956 H 280.39 2.30235 -3.17387 0
M  V30 2957 H 281.88 3.17718 -2.71007 0
M  V30 2958 N 282.317 1.53212 0.369288 0
M  V30 2959 C 283.247 1.82365 1.45826 0
M  V30 2960 C 284.228 0.676907 1.56051 0
M  V30 2961 O 285.413 0.926401 1.70679 0
M  V30 2962 C 282.543 2.01023 2.83208 0
M  V30 2963 C 281.497 3.1678 2.8781 0
M  V30 2964 C 280.823 3.20724 4.27832 0
M  V30 2965 C 282.123 4.55447 2.55667 0
M  V30 2966 H 283.817 2.73559 1.21678 0
M  V30 2967 H 281.363 1.3163 0.583911 0
M  V30 2968 H 283.316 2.20001 3.59413 0
M  V30 2969 H 282.04 1.06536 3.08736 0
M  V30 2970 H 280.699 2.97616 2.14056 0
M  V30 2971 H 280.347 2.23882 4.50429 0
M  V30 2972 H 280.047 3.98496 4.31827 0
M  V30 2973 H 281.571 3.41881 5.05915 0
M  V30 2974 H 282.985 4.74611 3.21586 0
M  V30 2975 H 281.382 5.35432 2.70984 0
M  V30 2976 H 282.452 4.60812 1.5093 0
M  V30 2977 N 283.795 -0.628877 1.44509 0
M  V30 2978 C 285.02 -1.42048 1.5112 0
M  V30 2979 C 285.445 -1.87594 0.137818 0
M  V30 2980 O 284.803 -1.58873 -0.873437 0
M  V30 2981 C 284.851 -2.61541 2.48251 0
M  V30 2982 O 283.955 -3.61453 1.98559 0
M  V30 2983 H 283.296 -0.424942 0.510216 0
M  V30 2984 H 285.826 -0.767374 1.89664 0
M  V30 2985 H 285.836 -3.09057 2.66361 0
M  V30 2986 H 284.511 -2.27736 3.48007 0
M  V30 2987 H 283.088 -3.20731 1.90227 0
M  V30 2988 N 285.273 -1.31445 -0.869486 0
M  V30 2989 C 286.183 -1.21097 -2.0093 0
M  V30 2990 C 287.199 -0.127584 -1.73532 0
M  V30 2991 O 288.375 -0.345477 -1.98415 0
M  V30 2992 C 285.44 -0.919378 -3.34288 0
M  V30 2993 C 284.501 -2.08971 -3.75006 0
M  V30 2994 C 283.734 -1.81194 -5.02001 0
M  V30 2995 O 283.957 -0.747296 -5.65484 0
M  V30 2996 O 282.891 -2.66883 -5.39497 0
M  V30 2997 H 286.717 -2.16883 -2.12592 0
M  V30 2998 H 284.302 -1.11189 -0.997868 0
M  V30 2999 H 286.184 -0.772625 -4.14257 0
M  V30 3000 H 284.859 0.00844772 -3.23699 0
M  V30 3001 H 283.766 -2.29187 -2.95676 0
M  V30 3002 H 285.099 -2.9998 -3.90221 0
M  V30 3003 N 286.751 1.08385 -1.14413 0
M  V30 3004 C 288.162 1.62258 -0.923535 0
M  V30 3005 C 288.513 1.88691 0.537595 0
M  V30 3006 O 287.638 1.64454 1.40655 0
M  V30 3007 C 288.233 2.94781 -1.67002 0
M  V30 3008 C 286.792 3.45437 -1.495 0
M  V30 3009 C 285.939 2.19668 -1.69238 0
M  V30 3010 H 288.89 0.916086 -1.2959 0
M  V30 3011 H 288.911 3.63229 -1.13334 0
M  V30 3012 H 288.423 2.7551 -2.73342 0
M  V30 3013 H 286.524 3.6981 -0.455097 0
M  V30 3014 H 286.637 4.22173 -2.2651 0
M  V30 3015 H 285.001 2.28849 -1.11804 0
M  V30 3016 H 285.784 2.02905 -2.7692 0
M  V30 3017 N 288.23 0.939286 1.26551 0
M  V30 3018 C 289.455 0.602008 1.98471 0
M  V30 3019 C 289.88 -0.815624 1.69497 0
M  V30 3020 O 289.238 -1.54912 0.941905 0
M  V30 3021 C 289.286 0.848407 3.50477 0
M  V30 3022 O 288.39 -0.0804009 4.12322 0
M  V30 3023 H 287.731 0.23049 0.622712 0
M  V30 3024 H 290.261 1.2617 1.61066 0
M  V30 3025 H 290.271 0.768553 4.00696 0
M  V30 3026 H 288.946 1.88171 3.70897 0
M  V30 3027 H 287.523 0.0503508 3.72866 0
M  V30 3028 N 289.708 -1.40897 0.706093 0
M  V30 3029 C 290.671 -2.29131 0.0562841 0
M  V30 3030 C 291.671 -1.44901 -0.697166 0
M  V30 3031 O 292.861 -1.65926 -0.530484 0
M  V30 3032 C 289.993 -3.27957 -0.93043 0
M  V30 3033 H 291.186 -2.88091 0.833284 0
M  V30 3034 H 288.739 -1.4906 0.470192 0
M  V30 3035 H 289.474 -2.73997 -1.73482 0
M  V30 3036 H 289.259 -3.90124 -0.393166 0
M  V30 3037 H 290.749 -3.94049 -1.38256 0
M  V30 3038 N 291.186 -0.45159 -1.50991 0
M  V30 3039 C 292.414 0.108334 -2.06616 0
M  V30 3040 C 292.829 1.35224 -1.31757 0
M  V30 3041 O 292.186 1.78475 -0.381174 0
M  V30 3042 C 292.237 0.41619 -3.59096 0
M  V30 3043 O 291.958 -0.778361 -4.3113 0
M  V30 3044 C 293.459 1.02523 -4.31282 0
M  V30 3045 H 290.679 0.00159995 -0.670998 0
M  V30 3046 H 293.223 -0.634771 -1.94399 0
M  V30 3047 H 291.378 1.10921 -3.71181 0
M  V30 3048 H 291.792 -0.511181 -5.22003 0
M  V30 3049 H 293.266 1.19053 -5.39009 0
M  V30 3050 H 293.743 2.01013 -3.905 0
M  V30 3051 H 294.349 0.371173 -4.23677 0
M  V30 3052 N 292.664 1.56529 -0.183458 0
M  V30 3053 C 293.91 1.97537 0.459036 0
M  V30 3054 C 294.243 1.06989 1.62071 0
M  V30 3055 O 293.518 0.11948 1.94133 0
M  V30 3056 C 293.801 3.47874 0.930368 0
M  V30 3057 C 293.654 4.492 -0.232317 0
M  V30 3058 C 294.973 4.01612 1.79989 0
M  V30 3059 H 292.092 0.718204 0.165383 0
M  V30 3060 H 294.734 1.88042 -0.272038 0
M  V30 3061 H 292.884 3.56095 1.55333 0
M  V30 3062 H 294.556 4.53027 -0.86972 0
M  V30 3063 H 292.799 4.24657 -0.885928 0
M  V30 3064 H 293.47 5.51823 0.139796 0
M  V30 3065 H 295.946 3.96097 1.27461 0
M  V30 3066 H 294.822 5.07195 2.09867 0
M  V30 3067 H 295.083 3.46163 2.74998 0
M  V30 3068 N 294.142 -0.090211 1.57342 0
M  V30 3069 C 295.37 -0.806224 1.90546 0
M  V30 3070 C 295.785 -1.72041 0.777644 0
M  V30 3071 O 295.142 -1.80778 -0.250103 0
M  V30 3072 C 295.193 -1.61546 3.23396 0
M  V30 3073 O 294.914 -0.738043 4.31839 0
M  V30 3074 C 296.415 -2.4341 3.70495 0
M  V30 3075 H 293.635 -0.230256 0.630257 0
M  V30 3076 H 296.179 -0.0659843 2.04394 0
M  V30 3077 H 294.334 -2.30816 3.11131 0
M  V30 3078 H 294.748 -1.29901 5.08159 0
M  V30 3079 H 296.222 -2.95676 4.66133 0
M  V30 3080 H 296.699 -3.22098 2.98579 0
M  V30 3081 H 297.305 -1.79331 3.85643 0
M  V30 3082 N 295.62 -1.53406 -0.361157 0
M  V30 3083 C 296.869 -1.69022 -1.10066 0
M  V30 3084 C 297.182 -0.450838 -1.90333 0
M  V30 3085 O 298.388 -0.487617 -2.67085 0
M  V30 3086 C 296.844 -2.98812 -2.00598 0
M  V30 3087 C 296.452 -4.30027 -1.25621 0
M  V30 3088 C 298.196 -3.23795 -2.74513 0
M  V30 3089 C 296.103 -5.50903 -2.1508 0
M  V30 3090 H 295.033 -0.629776 -0.414606 0
M  V30 3091 H 297.684 -1.79907 -0.361348 0
M  V30 3092 H 296.066 -2.8174 -2.78278 0
M  V30 3093 H 297.24 -4.57745 -0.529739 0
M  V30 3094 H 295.555 -4.11522 -0.635496 0
M  V30 3095 H 298.152 -4.11289 -3.41681 0
M  V30 3096 H 298.495 -2.40045 -3.40123 0
M  V30 3097 H 299.028 -3.41561 -2.03914 0
M  V30 3098 H 295.767 -6.37143 -1.54041 0
M  V30 3099 H 295.287 -5.27459 -2.85565 0
M  V30 3100 H 296.966 -5.85865 -2.74538 0
M  V30 3101 N 297.098 0.621204 -1.44841 0
M  V30 3102 C 298.008 1.7612 -1.5498 0
M  V30 3103 C 299.024 1.68477 -0.434927 0
M  V30 3104 O 300.2 1.89076 -0.693693 0
M  V30 3105 C 297.265 3.1254 -1.50065 0
M  V30 3106 C 296.326 3.31741 -2.72482 0
M  V30 3107 C 295.559 4.61653 -2.67792 0
M  V30 3108 O 295.782 5.431 -1.74352 0
M  V30 3109 O 294.716 4.83271 -3.58794 0
M  V30 3110 H 298.542 1.70518 -2.51311 0
M  V30 3111 H 296.127 0.783643 -1.27198 0
M  V30 3112 H 298.009 3.93844 -1.49882 0
M  V30 3113 H 296.684 3.18663 -0.568806 0
M  V30 3114 H 295.591 2.50077 -2.7823 0
M  V30 3115 H 296.924 3.30486 -3.64746 0
M  V30 3116 N 298.576 1.31904 0.862503 0
M  V30 3117 C 299.486 1.22161 2.00285 0
M  V30 3118 C 300.502 0.136785 1.73462 0
M  V30 3119 O 301.678 0.355994 1.98229 0
M  V30 3120 C 298.743 0.937093 3.33796 0
M  V30 3121 C 297.804 2.10957 3.73893 0
M  V30 3122 C 297.037 1.83853 5.01033 0
M  V30 3123 O 297.26 0.777274 5.65079 0
M  V30 3124 O 296.194 2.69741 5.38074 0
M  V30 3125 H 300.02 2.18008 2.11439 0
M  V30 3126 H 297.605 1.11716 0.991957 0
M  V30 3127 H 299.487 0.794583 4.13841 0
M  V30 3128 H 298.162 0.00871894 3.23699 0
M  V30 3129 H 297.069 2.30752 2.94456 0
M  V30 3130 H 298.402 3.02046 3.88625 0
M  V30 3131 N 300.054 -1.07777 1.14986 0
M  V30 3132 C 300.984 -2.16865 0.865557 0
M  V30 3133 C 301.965 -1.69123 -0.182083 0
M  V30 3134 O 303.15 -1.94164 -0.0373815 0
M  V30 3135 C 300.28 -3.45539 0.349313 0
M  V30 3136 C 299.234 -4.06708 1.33313 0
M  V30 3137 C 298.56 -5.30411 0.675918 0
M  V30 3138 C 299.86 -4.47241 2.69764 0
M  V30 3139 H 301.554 -2.40905 1.77778 0
M  V30 3140 H 299.1 -1.15781 0.856203 0
M  V30 3141 H 301.053 -4.21174 0.137983 0
M  V30 3142 H 299.777 -3.21072 -0.598362 0
M  V30 3143 H 298.436 -3.33112 1.53075 0
M  V30 3144 H 298.084 -5.02232 -0.277767 0
M  V30 3145 H 297.784 -5.72293 1.33244 0
M  V30 3146 H 299.308 -6.08755 0.474262 0
M  V30 3147 H 300.722 -5.14025 2.53873 0
M  V30 3148 H 299.119 -5.00062 3.3175 0
M  V30 3149 H 300.189 -3.58818 3.26156 0
M  V30 3150 N 301.532 -0.945985 -1.26051 0
M  V30 3151 C 302.495 -0.463897 -2.24456 0
M  V30 3152 C 303.495 0.427655 -1.55009 0
M  V30 3153 O 304.685 0.226157 -1.72726 0
M  V30 3154 C 301.817 0.330812 -3.39291 0
M  V30 3155 H 303.01 -1.33357 -2.68619 0
M  V30 3156 H 300.563 -0.728416 -1.38289 0
M  V30 3157 H 301.298 1.21852 -3.00537 0
M  V30 3158 H 301.083 -0.308679 -3.90883 0
M  V30 3159 H 302.573 0.657865 -4.12386 0
M  V30 3160 N 303.011 1.40521 -0.713556 0
M  V30 3161 C 303.974 2.29098 -0.0684347 0
M  V30 3162 C 304.974 1.45268 0.689472 0
M  V30 3163 O 306.164 1.66205 0.521677 0
M  V30 3164 C 303.296 3.28446 0.913024 0
M  V30 3165 H 304.489 2.87645 -0.84855 0
M  V30 3166 H 302.042 1.48809 -0.47809 0
M  V30 3167 H 302.777 2.74913 1.72027 0
M  V30 3168 H 302.562 3.90327 0.372472 0
M  V30 3169 H 304.052 3.94777 1.36165 0
M  V30 3170 N 304.489 0.459591 1.5075 0
M  V30 3171 C 305.9 0.00171547 1.867 0
M  V30 3172 C 306.251 -1.39934 1.37525 0
M  V30 3173 O 305.376 -2.03523 0.735349 0
M  V30 3174 C 305.971 -0.00366298 3.388 0
M  V30 3175 C 304.53 -0.406026 3.74204 0
M  V30 3176 C 303.677 0.38673 2.7459 0
M  V30 3177 H 306.628 0.674413 1.43657 0
M  V30 3178 H 306.649 -0.808371 3.71814 0
M  V30 3179 H 306.161 1.01617 3.74561 0
M  V30 3180 H 304.262 -1.43063 3.4404 0
M  V30 3181 H 304.375 -0.115362 4.78961 0
M  V30 3182 H 302.739 -0.158019 2.54209 0
M  V30 3183 H 303.522 1.40585 3.13194 0
M  V30 3184 N 305.967 -1.56429 0.191757 0
M  V30 3185 C 307.378 -1.83912 -0.321428 0
M  V30 3186 C 307.729 -1.11231 -1.61623 0
M  V30 3187 O 306.854 -0.37202 -2.13178 0
M  V30 3188 C 307.449 -3.33624 -0.589961 0
M  V30 3189 C 306.008 -3.6153 -1.04753 0
M  V30 3190 C 305.155 -2.7714 -0.0943327 0
M  V30 3191 H 308.106 -1.53161 0.415612 0
M  V30 3192 H 308.127 -3.52213 -1.43966 0
M  V30 3193 H 307.639 -3.86495 0.352588 0
M  V30 3194 H 305.74 -3.14089 -2.00447 0
M  V30 3195 H 305.853 -4.69737 -0.942549 0
M  V30 3196 H 304.217 -2.47638 -0.595589 0
M  V30 3197 H 305 -3.32799 0.842601 0
M  V30 3198 N 307.445 0.0818655 -1.57387 0
M  V30 3199 C 308.856 0.634871 -1.75574 0
M  V30 3200 C 309.207 1.78435 -0.815809 0
M  V30 3201 O 308.332 2.164 0.0025366 0
M  V30 3202 C 308.927 1.15845 -3.18379 0
M  V30 3203 C 307.486 1.65741 -3.37945 0
M  V30 3204 C 306.633 0.572549 -2.71325 0
M  V30 3205 H 309.584 -0.144268 -1.58043 0
M  V30 3206 H 309.605 2.02751 -3.21982 0
M  V30 3207 H 309.117 0.321631 -3.86765 0
M  V30 3208 H 307.218 2.51781 -2.74658 0
M  V30 3209 H 307.331 1.74129 -4.46336 0
M  V30 3210 H 305.695 1.01518 -2.33594 0
M  V30 3211 H 306.478 -0.253918 -3.4236 0
M  V30 3212 N 308.923 1.53595 0.353017 0
M  V30 3213 C 310.334 1.61937 0.929153 0
M  V30 3214 C 310.685 0.494686 1.89861 0
M  V30 3215 O 309.81 -0.377017 2.1309 0
M  V30 3216 C 310.405 2.93526 1.69199 0
M  V30 3217 C 308.964 3.04161 2.21727 0
M  V30 3218 C 308.111 2.57322 1.03348 0
M  V30 3219 H 311.062 1.58155 0.131431 0
M  V30 3220 H 311.083 2.82034 2.55416 0
M  V30 3221 H 310.595 3.75362 0.986144 0
M  V30 3222 H 308.696 2.26938 2.95516 0
M  V30 3223 H 308.809 4.09465 2.48748 0
M  V30 3224 H 307.173 2.12499 1.40414 0
M  V30 3225 H 307.956 3.41588 0.342428 0
M  V30 3226 N 310.401 -0.613514 1.45168 0
M  V30 3227 C 311.647 -1.37471 1.49096 0
M  V30 3228 C 311.98 -1.93765 0.129901 0
M  V30 3229 O 311.255 -1.74707 -0.854858 0
M  V30 3230 C 311.538 -2.52701 2.56542 0
M  V30 3231 C 311.391 -2.01643 4.0207 0
M  V30 3232 C 312.71 -3.54849 2.60327 0
M  V30 3233 H 309.829 -0.498502 0.54283 0
M  V30 3234 H 312.471 -0.692125 1.76945 0
M  V30 3235 H 310.621 -3.10931 2.32926 0
M  V30 3236 H 312.293 -1.48108 4.36877 0
M  V30 3237 H 310.536 -1.32688 4.13009 0
M  V30 3238 H 311.207 -2.84681 4.72928 0
M  V30 3239 H 313.683 -3.0645 2.81474 0
M  V30 3240 H 312.559 -4.32973 3.37381 0
M  V30 3241 H 312.82 -4.10079 1.6519 0
M  V30 3242 N 311.879 -1.3236 -0.855495 0
M  V30 3243 C 312.809 -1.23833 -1.97958 0
M  V30 3244 C 313.79 -0.122361 -1.69659 0
M  V30 3245 O 314.975 -0.30939 -1.9172 0
M  V30 3246 C 312.105 -0.959772 -3.33775 0
M  V30 3247 C 311.059 -2.03689 -3.76424 0
M  V30 3248 C 310.385 -1.61075 -5.09862 0
M  V30 3249 C 311.685 -3.4518 -3.9198 0
M  V30 3250 H 313.379 -2.1788 -2.0535 0
M  V30 3251 H 310.925 -1.04891 -0.986605 0
M  V30 3252 H 312.878 -0.886678 -4.11966 0
M  V30 3253 H 311.602 0.0163404 -3.26596 0
M  V30 3254 H 310.261 -2.10012 -3.00484 0
M  V30 3255 H 309.909 -0.622107 -4.99138 0
M  V30 3256 H 309.609 -2.33143 -5.39368 0
M  V30 3257 H 311.133 -1.55201 -5.90546 0
M  V30 3258 H 312.547 -3.4145 -4.60526 0
M  V30 3259 H 310.944 -4.1559 -4.32903 0
M  V30 3260 H 312.014 -3.84903 -2.94919 0
M  V30 3261 N 313.357 1.07166 -1.15556 0
M  V30 3262 C 314.29 2.13808 -0.797593 0
M  V30 3263 C 315.268 1.6101 0.226812 0
M  V30 3264 O 316.452 1.88161 0.112932 0
M  V30 3265 C 313.579 3.38187 -0.186371 0
M  V30 3266 C 312.625 4.09766 -1.18297 0
M  V30 3267 S 313.458 4.60932 -2.72584 0
M  V30 3268 C 314.614 5.88583 -2.12886 0
M  V30 3269 H 314.847 2.43843 -1.70083 0
M  V30 3270 H 312.38 1.19467 -0.978106 0
M  V30 3271 H 314.338 4.10189 0.159837 0
M  V30 3272 H 312.999 3.06326 0.694489 0
M  V30 3273 H 312.192 4.99065 -0.703562 0
M  V30 3274 H 311.794 3.43736 -1.47381 0
M  V30 3275 H 314.086 6.60866 -1.49208 0
M  V30 3276 H 315.029 6.41241 -3.0036 0
M  V30 3277 H 315.437 5.42194 -1.57116 0
M  V30 3278 N 314.835 0.952656 1.25548 0
M  V30 3279 C 315.785 0.442033 2.23674 0
M  V30 3280 C 316.769 -0.467632 1.53955 0
M  V30 3281 O 317.961 -0.301006 1.74422 0
M  V30 3282 C 315.09 -0.280816 3.4215 0
M  V30 3283 C 314.176 0.646803 4.19139 0
M  V30 3284 N 314.567 1.77759 4.73535 0
M  V30 3285 C 312.865 0.454617 4.43677 0
M  V30 3286 C 313.566 2.35658 5.31827 0
M  V30 3287 N 312.542 1.64333 5.18166 0
M  V30 3288 H 316.344 1.30505 2.63336 0
M  V30 3289 H 313.858 0.809904 1.40763 0
M  V30 3290 H 315.855 -0.663747 4.11582 0
M  V30 3291 H 314.515 -1.14046 3.04012 0
M  V30 3292 H 315.526 2.15949 4.7073 0
M  V30 3293 H 312.203 -0.362312 4.15925 0
M  V30 3294 H 313.593 3.30998 5.84713 0
M  V30 3295 N 316.313 -1.40141 0.720998 0
M  V30 3296 C 317.263 -2.27949 0.0482544 0
M  V30 3297 C 318.247 -1.43538 -0.727021 0
M  V30 3298 O 319.439 -1.6658 -0.598332 0
M  V30 3299 C 316.568 -3.32126 -0.868729 0
M  V30 3300 C 315.654 -4.24008 -0.0883515 0
M  V30 3301 N 316.045 -4.97154 0.931226 0
M  V30 3302 C 314.343 -4.4485 -0.320105 0
M  V30 3303 C 315.044 -5.64587 1.4006 0
M  V30 3304 N 314.02 -5.38787 0.721752 0
M  V30 3305 H 317.822 -2.81948 0.829609 0
M  V30 3306 H 315.336 -1.52656 0.554067 0
M  V30 3307 H 317.333 -3.93884 -1.36605 0
M  V30 3308 H 315.993 -2.79687 -1.6494 0
M  V30 3309 H 317.004 -5.01 1.31222 0
M  V30 3310 H 313.681 -4.03378 -1.07668 0
M  V30 3311 H 315.071 -6.33175 2.24808 0
M  V30 3312 N 317.792 -0.46758 -1.50504 0
M  V30 3313 C 319.04 0.0884469 -2.01906 0
M  V30 3314 C 319.361 1.40532 -1.35188 0
M  V30 3315 O 318.631 1.89515 -0.496079 0
M  V30 3316 H 317.211 0.0356765 -0.746148 0
M  V30 3317 H 319.873 -0.6172 -1.84869 0
M  V30 3318 H 318.969 0.2425 -3.11156 0
M  V30 3319 N 319.27 1.56325 -0.20005 0
M  V30 3320 C 320.18 2.22931 0.730668 0
M  V30 3321 C 321.196 1.22997 1.23076 0
M  V30 3322 O 322.372 1.55748 1.27689 0
M  V30 3323 C 319.437 2.87948 1.93098 0
M  V30 3324 C 318.498 4.03166 1.47497 0
M  V30 3325 C 317.731 4.65073 2.61807 0
M  V30 3326 O 317.954 4.25913 3.79413 0
M  V30 3327 O 316.888 5.54452 2.34237 0
M  V30 3328 H 320.714 3.03084 0.193391 0
M  V30 3329 H 318.299 1.49371 0.0294621 0
M  V30 3330 H 320.181 3.29063 2.6324 0
M  V30 3331 H 318.856 2.10771 2.45677 0
M  V30 3332 H 317.763 3.66664 0.742201 0
M  V30 3333 H 319.096 4.82022 0.995796 0
M  V30 3334 N 320.748 -0.0735177 1.57428 0
M  V30 3335 C 321.973 -0.789787 1.91774 0
M  V30 3336 C 322.398 -1.70413 0.796306 0
M  V30 3337 O 321.756 -1.79555 -0.250961 0
M  V30 3338 C 321.804 -1.5609 3.25067 0
M  V30 3339 O 320.908 -2.67144 3.14178 0
M  V30 3340 H 320.249 -0.215582 0.628029 0
M  V30 3341 H 322.779 -0.0422781 2.04556 0
M  V30 3342 H 322.789 -1.94052 3.58898 0
M  V30 3343 H 321.464 -0.890015 4.06265 0
M  V30 3344 H 320.041 -2.32052 2.91901 0
M  V30 3345 N 322.226 -1.5378 -0.344866 0
M  V30 3346 C 323.451 -1.75211 -1.10977 0
M  V30 3347 C 323.876 -0.48936 -1.81623 0
M  V30 3348 O 323.234 0.557925 -1.72502 0
M  V30 3349 C 323.282 -2.93147 -2.09993 0
M  V30 3350 O 322.386 -2.63203 -3.17487 0
M  V30 3351 H 321.727 -0.581241 -0.321021 0
M  V30 3352 H 324.257 -2.00738 -0.395661 0
M  V30 3353 H 324.267 -3.19898 -2.53237 0
M  V30 3354 H 322.942 -3.84731 -1.5797 0
M  V30 3355 H 321.519 -2.47336 -2.79069 0
M  V30 3356 N 323.704 0.605807 -1.45491 0
M  V30 3357 C 324.636 1.73031 -1.5031 0
M  V30 3358 C 325.649 1.57968 -0.393687 0
M  V30 3359 O 326.838 1.65817 -0.660839 0
M  V30 3360 C 323.938 3.11049 -1.34543 0
M  V30 3361 C 323.111 3.52334 -2.59189 0
M  V30 3362 C 322.17 4.69323 -2.37954 0
M  V30 3363 O 321.196 4.7635 -3.11575 0
M  V30 3364 N 322.398 5.62705 -1.4263 0
M  V30 3365 H 325.163 1.6936 -2.4726 0
M  V30 3366 H 322.724 0.79114 -1.41254 0
M  V30 3367 H 324.716 3.87071 -1.18144 0
M  V30 3368 H 323.286 3.09217 -0.458623 0
M  V30 3369 H 322.506 2.66256 -2.90691 0
M  V30 3370 H 323.794 3.76677 -3.42041 0
M  V30 3371 H 323.192 5.59744 -0.818758 0
M  V30 3372 H 321.749 6.38252 -1.32202 0
M  V30 3373 N 325.182 1.32811 0.848464 0
M  V30 3374 C 326.428 1.23907 1.60546 0
M  V30 3375 C 326.761 -0.197161 1.93197 0
M  V30 3376 O 326.036 -1.13596 1.5788 0
M  V30 3377 C 326.319 2.10489 2.92175 0
M  V30 3378 C 326.172 3.62522 2.66266 0
M  V30 3379 C 327.491 1.97075 3.93509 0
M  V30 3380 H 324.61 0.451459 0.58254 0
M  V30 3381 H 327.252 1.62818 0.979296 0
M  V30 3382 H 325.402 1.77434 3.45614 0
M  V30 3383 H 327.074 4.05821 2.19334 0
M  V30 3384 H 325.317 3.84879 2.00126 0
M  V30 3385 H 325.988 4.18437 3.6002 0
M  V30 3386 H 328.464 2.26045 3.49346 0
M  V30 3387 H 327.34 2.59923 4.83457 0
M  V30 3388 H 327.601 0.940186 4.31987 0
M  V30 3389 N 326.66 -1.06551 1.16123 0
M  V30 3390 C 327.59 -2.15935 0.88851 0
M  V30 3391 C 328.571 -1.69306 -0.164135 0
M  V30 3392 O 329.756 -1.94193 -0.0167857 0
M  V30 3393 C 326.886 -3.45149 0.385942 0
M  V30 3394 C 325.84 -4.05271 1.3762 0
M  V30 3395 C 325.166 -5.29664 0.732137 0
M  V30 3396 C 326.466 -4.44355 2.74493 0
M  V30 3397 H 328.16 -2.39006 1.80323 0
M  V30 3398 H 325.706 -1.14866 0.868435 0
M  V30 3399 H 327.659 -4.21004 0.182647 0
M  V30 3400 H 326.383 -3.21689 -0.564274 0
M  V30 3401 H 325.042 -3.3147 1.56599 0
M  V30 3402 H 324.69 -5.02499 -0.224483 0
M  V30 3403 H 324.39 -5.70848 1.39307 0
M  V30 3404 H 325.914 -6.08218 0.538802 0
M  V30 3405 H 327.328 -5.11303 2.59311 0
M  V30 3406 H 325.725 -4.96515 3.37035 0
M  V30 3407 H 326.795 -3.55339 3.29943 0
M  V30 3408 N 328.138 -0.959301 -1.25041 0
M  V30 3409 C 329.088 -0.453888 -2.23436 0
M  V30 3410 C 330.072 0.459461 -1.542 0
M  V30 3411 O 331.264 0.291752 -1.74579 0
M  V30 3412 C 328.393 0.262667 -3.42294 0
M  V30 3413 C 327.479 -0.669022 -4.1879 0
M  V30 3414 N 327.87 -1.80267 -4.72586 0
M  V30 3415 C 326.168 -0.47814 -4.4343 0
M  V30 3416 C 326.869 -2.38475 -5.3057 0
M  V30 3417 N 325.845 -1.67078 -5.17287 0
M  V30 3418 H 329.647 -1.319 -2.6264 0
M  V30 3419 H 327.161 -0.817358 -1.40332 0
M  V30 3420 H 329.158 0.641911 -4.11929 0
M  V30 3421 H 327.818 1.12432 -3.04613 0
M  V30 3422 H 328.829 -2.18442 -4.69578 0
M  V30 3423 H 325.506 0.340249 -4.16111 0
M  V30 3424 H 326.896 -3.34094 -5.8295 0
M  V30 3425 N 329.616 1.39756 -0.72842 0
M  V30 3426 C 331.027 1.83498 -0.344289 0
M  V30 3427 C 331.378 1.60868 1.12321 0
M  V30 3428 O 330.503 1.09634 1.86573 0
M  V30 3429 C 331.098 3.33114 -0.618112 0
M  V30 3430 C 329.657 3.753 -0.287549 0
M  V30 3431 C 328.804 2.62831 -0.884048 0
M  V30 3432 H 331.755 1.28842 -0.926578 0
M  V30 3433 H 331.776 3.80334 0.112349 0
M  V30 3434 H 331.288 3.49553 -1.68625 0
M  V30 3435 H 329.389 3.64451 0.775012 0
M  V30 3436 H 329.502 4.72945 -0.765512 0
M  V30 3437 H 327.866 2.52792 -0.311149 0
M  V30 3438 H 328.649 2.82078 -1.95671 0
M  V30 3439 N 331.094 0.475555 1.50254 0
M  V30 3440 C 332.342 -0.077738 2.0195 0
M  V30 3441 C 332.663 -1.39813 1.35931 0
M  V30 3442 O 331.933 -1.89249 0.506123 0
M  V30 3443 H 330.513 -0.031719 0.746326 0
M  V30 3444 H 333.175 0.626995 1.84539 0
M  V30 3445 H 332.271 -0.225995 3.11281 0
M  V30 3446 N 332.573 -1.56217 0.208337 0
M  V30 3447 C 333.521 -2.21053 -0.723769 0
M  V30 3448 C 334.515 -1.18578 -1.20978 0
M  V30 3449 O 335.721 -1.36691 -1.17114 0
M  V30 3450 H 332.096 -0.708595 -0.251788 0
M  V30 3451 H 334.067 -2.98006 -0.153365 0
M  V30 3452 C 332.816 -2.89417 -1.927 0
M  V30 3453 H 332.139 -3.68019 -1.56212 0
M  V30 3454 H 333.579 -3.38201 -2.55727 0
M  V30 3455 C 332.038 -1.91166 -2.77411 0
M  V30 3456 O 332.568 -1.42026 -3.75754 0
M  V30 3457 N 330.774 -1.59105 -2.43175 0
M  V30 3458 H 330.321 -1.99259 -1.63259 0
M  V30 3459 H 330.279 -0.936255 -3.00136 0
M  V30 3460 N 334.051 0.0651679 -1.57465 0
M  V30 3461 C 334.998 1.07675 -2.04144 0
M  V30 3462 C 335.968 1.38071 -0.923335 0
M  V30 3463 O 337.153 1.49026 -1.19146 0
M  V30 3464 C 334.293 2.38337 -2.49579 0
M  V30 3465 C 333.406 2.14413 -3.75035 0
M  V30 3466 C 332.541 3.38686 -4.09225 0
M  V30 3467 C 331.58 3.10156 -5.27702 0
M  V30 3468 N 330.717 4.26778 -5.57499 0
M  V30 3469 H 335.557 0.671716 -2.90331 0
M  V30 3470 H 333.094 0.3201 -1.43575 0
M  V30 3471 H 335.052 3.14632 -2.73975 0
M  V30 3472 H 333.682 2.7663 -1.6636 0
M  V30 3473 H 332.734 1.2878 -3.57939 0
M  V30 3474 H 334.046 1.89344 -4.61466 0
M  V30 3475 H 333.2 4.23373 -4.34558 0
M  V30 3476 H 331.939 3.66837 -3.21374 0
M  V30 3477 H 330.944 2.23866 -5.02159 0
M  V30 3478 H 332.169 2.8332 -6.17176 0
M  V30 3479 H 330.115 4.54948 -4.72608 0
M  V30 3480 H 330.032 4.05005 -6.38362 0
M  V30 3481 H 331.3 5.12443 -5.87386 0
M  V30 3482 N 335.529 1.53961 0.336706 0
M  V30 3483 C 336.775 1.7179 1.07777 0
M  V30 3484 C 337.108 0.483263 1.88091 0
M  V30 3485 O 336.383 -0.519747 1.87427 0
M  V30 3486 C 336.666 2.98558 2.01334 0
M  V30 3487 C 336.519 4.32245 1.24437 0
M  V30 3488 C 337.838 3.21023 3.01052 0
M  V30 3489 H 334.957 0.625089 0.390426 0
M  V30 3490 H 337.599 1.86641 0.35567 0
M  V30 3491 H 335.749 2.86028 2.62908 0
M  V30 3492 H 337.421 4.56637 0.654243 0
M  V30 3493 H 335.664 4.30344 0.546458 0
M  V30 3494 H 336.335 5.17137 1.93063 0
M  V30 3495 H 338.811 3.32929 2.49595 0
M  V30 3496 H 337.687 4.11104 3.6371 0
M  V30 3497 H 337.948 2.37637 3.72802 0
M  V30 3498 N 337.007 -0.598083 1.45811 0
M  V30 3499 C 338.235 -1.38322 1.53866 0
M  V30 3500 C 338.65 -1.87992 0.174479 0
M  V30 3501 O 338.007 -1.62756 -0.825627 0
M  V30 3502 C 338.058 -2.58125 2.53089 0
M  V30 3503 O 337.779 -2.10516 3.84206 0
M  V30 3504 C 339.28 -3.50869 2.70935 0
M  V30 3505 H 336.5 -0.423093 0.520801 0
M  V30 3506 H 339.044 -0.728527 1.91083 0
M  V30 3507 H 337.199 -3.19615 2.18917 0
M  V30 3508 H 337.613 -2.88425 4.38077 0
M  V30 3509 H 339.087 -4.31451 3.44317 0
M  V30 3510 H 339.564 -4.01822 1.77301 0
M  V30 3511 H 340.17 -2.95225 3.06141 0
M  V30 3512 N 338.485 -1.33259 -0.841409 0
M  V30 3513 C 339.415 -1.25926 -1.96634 0
M  V30 3514 C 340.396 -0.140349 -1.6952 0
M  V30 3515 O 341.581 -0.329707 -1.91381 0
M  V30 3516 C 338.711 -0.99512 -3.32738 0
M  V30 3517 C 337.665 -2.0767 -3.74242 0
M  V30 3518 C 336.991 -1.66474 -5.08125 0
M  V30 3519 C 338.291 -3.49318 -3.88297 0
M  V30 3520 H 339.985 -2.20046 -2.03027 0
M  V30 3521 H 337.531 -1.05931 -0.975425 0
M  V30 3522 H 339.484 -0.930323 -4.11002 0
M  V30 3523 H 338.208 -0.0183004 -3.26595 0
M  V30 3524 H 336.867 -2.13187 -2.98239 0
M  V30 3525 H 336.515 -0.675012 -4.9845 0
M  V30 3526 H 336.215 -2.3885 -5.36865 0
M  V30 3527 H 337.739 -1.61455 -5.88867 0
M  V30 3528 H 339.153 -3.46316 -4.56879 0
M  V30 3529 H 337.55 -4.20158 -4.28471 0
M  V30 3530 H 338.62 -3.8801 -2.9082 0
M  V30 3531 N 339.963 1.05934 -1.16686 0
M  V30 3532 C 341.191 1.8249 -0.974929 0
M  V30 3533 C 341.606 1.82679 0.476861 0
M  V30 3534 O 340.963 1.2486 1.33103 0
M  V30 3535 C 341.014 3.28943 -1.49929 0
M  V30 3536 O 340.735 3.28886 -2.89423 0
M  V30 3537 C 342.236 4.22215 -1.35089 0
M  V30 3538 H 339.456 0.575295 -0.345365 0
M  V30 3539 H 342 1.33631 -1.548 0
M  V30 3540 H 340.155 3.751 -0.968423 0
M  V30 3541 H 340.569 4.20493 -3.13506 0
M  V30 3542 H 342.043 5.22987 -1.76603 0
M  V30 3543 H 342.52 4.38195 -0.296935 0
M  V30 3544 H 343.126 3.81907 -1.87155 0
M  V30 3545 N 341.441 0.965919 1.2453 0
M  V30 3546 C 342.681 0.634656 1.94297 0
M  V30 3547 C 343.045 -0.814822 1.73852 0
M  V30 3548 O 344.246 -1.25622 2.3764 0
M  V30 3549 C 342.517 0.99702 3.43212 0
M  V30 3550 S 344.076 0.780038 4.31811 0
M  V30 3551 H 340.894 0.232893 0.671775 0
M  V30 3552 H 343.496 1.24249 1.50938 0
M  V30 3553 H 342.2 2.04886 3.55598 0
M  V30 3554 H 341.731 0.379888 3.91562 0
M  V30 3555 H 343.746 -0.343512 4.9501 0
M  V30 3556 N 342.919 -1.39368 0.735821 0
M  V30 3557 C 344.165 -2.00794 0.284544 0
M  V30 3558 C 344.498 -1.58255 -1.12557 0
M  V30 3559 O 343.773 -0.811819 -1.76748 0
M  V30 3560 C 344.056 -3.58011 0.387337 0
M  V30 3561 C 343.909 -4.10566 1.83728 0
M  V30 3562 C 345.228 -4.395 -0.22975 0
M  V30 3563 H 342.347 -0.729501 0.104866 0
M  V30 3564 H 344.989 -1.65564 0.93213 0
M  V30 3565 H 343.139 -3.88154 -0.164006 0
M  V30 3566 H 344.811 -3.91139 2.44556 0
M  V30 3567 H 343.054 -3.64095 2.35833 0
M  V30 3568 H 343.725 -5.19702 1.86047 0
M  V30 3569 H 346.201 -4.15406 0.240257 0
M  V30 3570 H 345.077 -5.48752 -0.127485 0
M  V30 3571 H 345.338 -4.22062 -1.3159 0
M  V30 3572 N 344.397 -0.483516 -1.5 0
M  V30 3573 C 345.36 0.292965 -2.2732 0
M  V30 3574 C 346.36 0.909499 -1.32608 0
M  V30 3575 O 347.55 0.776745 -1.55924 0
M  V30 3576 C 344.682 1.41854 -3.09984 0
M  V30 3577 H 345.875 -0.385289 -2.97415 0
M  V30 3578 H 343.428 -0.237942 -1.54478 0
M  V30 3579 H 344.163 2.13148 -2.44414 0
M  V30 3580 H 343.948 0.982114 -3.79601 0
M  V30 3581 H 345.438 1.96597 -3.68429 0
M  V30 3582 N 345.875 1.56104 -0.216619 0
M  V30 3583 C 347.286 1.844 0.292128 0
M  V30 3584 C 347.637 1.13788 1.59833 0
M  V30 3585 O 346.762 0.405888 2.12559 0
M  V30 3586 C 347.357 3.3452 0.53681 0
M  V30 3587 C 345.916 3.63151 0.989876 0
M  V30 3588 C 345.063 2.77255 0.0502302 0
M  V30 3589 H 348.014 1.52481 -0.439926 0
M  V30 3590 H 348.035 3.54459 1.38345 0
M  V30 3591 H 347.547 3.85885 -0.414031 0
M  V30 3592 H 345.648 3.17238 1.95425 0
M  V30 3593 H 345.761 4.71177 0.867698 0
M  V30 3594 H 344.125 2.48555 0.556117 0
M  V30 3595 H 344.908 3.31416 -0.89544 0
M  V30 3596 N 347.353 -0.0568162 1.57498 0
M  V30 3597 C 348.283 -1.06593 2.0775 0
M  V30 3598 C 349.264 -1.39448 0.974082 0
M  V30 3599 O 350.449 -1.48815 1.24771 0
M  V30 3600 C 347.579 -2.37509 2.5339 0
M  V30 3601 C 346.533 -2.1897 3.67745 0
M  V30 3602 C 345.859 -3.55402 3.99492 0
M  V30 3603 C 347.159 -1.59859 4.97235 0
M  V30 3604 H 348.853 -0.647706 2.9231 0
M  V30 3605 H 346.399 -0.310116 1.40621 0
M  V30 3606 H 348.352 -3.08409 2.87162 0
M  V30 3607 H 347.076 -2.8134 1.65878 0
M  V30 3608 H 345.735 -1.50508 3.3428 0
M  V30 3609 H 345.383 -3.9683 3.09088 0
M  V30 3610 H 345.083 -3.43831 4.76502 0
M  V30 3611 H 346.607 -4.27708 4.35773 0
M  V30 3612 H 348.021 -2.20642 5.29141 0
M  V30 3613 H 346.418 -1.58942 5.78669 0
M  V30 3614 H 347.488 -0.561506 4.81638 0
M  V30 3615 N 348.832 -1.54138 -0.328536 0
M  V30 3616 C 350.057 -1.76378 -1.09112 0
M  V30 3617 C 350.482 -0.508596 -1.81094 0
M  V30 3618 O 349.84 0.539598 -1.73084 0
M  V30 3619 C 349.888 -2.95358 -2.06872 0
M  V30 3620 O 348.992 -2.66556 -3.14677 0
M  V30 3621 H 348.333 -0.584614 -0.314838 0
M  V30 3622 H 350.863 -2.01146 -0.374348 0
M  V30 3623 H 350.873 -3.22566 -2.4983 0
M  V30 3624 H 349.548 -3.86385 -1.5388 0
M  V30 3625 H 348.125 -2.50282 -2.7643 0
M  V30 3626 N 350.31 0.590341 -1.46126 0
M  V30 3627 C 351.558 1.34616 -1.50742 0
M  V30 3628 C 351.879 1.94363 -0.157486 0
M  V30 3629 O 351.149 1.78136 0.815136 0
M  V30 3630 H 349.729 0.499789 -0.555175 0
M  V30 3631 H 352.391 0.691953 -1.82203 0
M  V30 3632 H 351.487 2.15678 -2.25587 0
M  V30 3633 N 351.788 1.33704 0.83433 0
M  V30 3634 C 353.034 1.25603 1.59222 0
M  V30 3635 C 353.367 -0.176659 1.93395 0
M  V30 3636 O 352.642 -1.11915 1.59076 0
M  V30 3637 C 352.925 2.13576 2.89926 0
M  V30 3638 C 352.778 3.65326 2.62406 0
M  V30 3639 C 354.097 2.01238 3.91397 0
M  V30 3640 H 351.216 0.457613 0.577719 0
M  V30 3641 H 353.858 1.63848 0.961972 0
M  V30 3642 H 352.008 1.8109 3.43713 0
M  V30 3643 H 353.68 4.08124 2.15017 0
M  V30 3644 H 351.923 3.8698 1.96033 0
M  V30 3645 H 352.594 4.22232 3.55562 0
M  V30 3646 H 355.07 2.29738 3.46929 0
M  V30 3647 H 353.946 2.65036 4.80673 0
M  V30 3648 H 354.207 0.985951 4.30966 0
M  V30 3649 N 353.266 -1.05314 1.17247 0
M  V30 3650 C 354.543 -1.75184 0.87005 0
M  V30 3651 C 354.923 -2.01481 -0.629965 0
M  V30 3652 O 354.271 -1.64988 -1.58086 0
M  V30 3653 C 354.481 -3.04594 1.70363 0
M  V30 3654 C 355.829 -3.78567 1.92281 0
M  V30 3655 O 356.853 -3.14461 1.67311 0
M  V30 3656 O 355.712 -4.93755 2.3424 0
M  V30 3657 H 352.806 -0.761729 0.322021 0
M  V30 3658 H 355.352 -1.11493 1.27935 0
M  V30 3659 H 354.124 -2.81201 2.72106 0
M  V30 3660 H 353.747 -3.76022 1.29202 0
M  V30 3661 N 354.744 -0.972509 -1.24016 0
M  V30 3662 C 355.991 -0.637034 -1.92219 0
M  V30 3663 C 356.319 0.828418 -1.75976 0
M  V30 3664 O 355.574 1.61206 -1.10955 0
M  V30 3665 C 355.873 -0.963694 -3.44162 0
M  V30 3666 C 355.539 -2.41807 -3.80579 0
M  V30 3667 C 354.201 -2.81556 -3.9023 0
M  V30 3668 C 356.553 -3.36172 -3.98293 0
M  V30 3669 C 353.881 -4.14702 -4.15017 0
M  V30 3670 C 356.233 -4.68952 -4.24578 0
M  V30 3671 C 354.897 -5.08472 -4.32449 0
M  V30 3672 H 354.167 -0.233107 -0.703379 0
M  V30 3673 H 356.814 -1.2249 -1.47202 0
M  V30 3674 H 355.119 -0.29365 -3.90698 0
M  V30 3675 H 356.816 -0.682449 -3.9515 0
M  V30 3676 H 353.406 -2.09988 -3.73635 0
M  V30 3677 H 357.59 -3.06644 -3.90234 0
M  V30 3678 H 352.846 -4.4494 -4.19331 0
M  V30 3679 H 357.02 -5.42037 -4.37229 0
M  V30 3680 H 354.647 -6.11665 -4.51409 0
M  V30 3681 N 356.222 1.38976 -0.743202 0
M  V30 3682 C 357.154 2.29096 -0.0689228 0
M  V30 3683 C 358.167 1.47229 0.694791 0
M  V30 3684 O 359.356 1.70212 0.537597 0
M  V30 3685 C 356.456 3.25988 0.926548 0
M  V30 3686 C 355.629 4.36833 0.222647 0
M  V30 3687 C 354.688 5.13981 1.12739 0
M  V30 3688 O 353.714 5.6601 0.601795 0
M  V30 3689 N 354.916 5.25966 2.45641 0
M  V30 3690 H 357.681 2.87604 -0.842846 0
M  V30 3691 H 355.242 1.50645 -0.593109 0
M  V30 3692 H 357.234 3.74476 1.5346 0
M  V30 3693 H 355.804 2.68453 1.60162 0
M  V30 3694 H 355.024 3.90116 -0.565983 0
M  V30 3695 H 356.312 5.0811 -0.264841 0
M  V30 3696 H 355.71 4.85228 2.9081 0
M  V30 3697 H 354.267 5.77865 3.01522 0
M  V30 3698 N 357.7 0.491464 1.49741 0
M  V30 3699 C 358.63 -0.28154 2.31796 0
M  V30 3700 C 359.611 -0.971473 1.3963 0
M  V30 3701 O 360.796 -0.964719 1.68543 0
M  V30 3702 C 357.926 -1.35203 3.19902 0
M  V30 3703 C 356.88 -0.782529 4.20786 0
M  V30 3704 C 356.206 -1.95283 4.97764 0
M  V30 3705 C 357.506 0.21999 5.21837 0
M  V30 3706 H 359.2 0.403355 2.96671 0
M  V30 3707 H 356.746 0.195425 1.42668 0
M  V30 3708 H 358.699 -1.90045 3.76113 0
M  V30 3709 H 357.423 -2.06598 2.52953 0
M  V30 3710 H 356.082 -0.255928 3.65706 0
M  V30 3711 H 355.73 -2.65423 4.2727 0
M  V30 3712 H 355.43 -1.57789 5.66018 0
M  V30 3713 H 356.954 -2.50577 5.56816 0
M  V30 3714 H 358.368 -0.23996 5.72798 0
M  V30 3715 H 356.765 0.51026 5.97927 0
M  V30 3716 H 357.835 1.13911 4.7133 0
M  V30 3717 N 359.178 -1.55987 0.224894 0
M  V30 3718 C 360.594 -1.59066 -0.130426 0
M  V30 3719 C 360.794 -1.24176 -1.5869 0
M  V30 3720 O 359.85 -0.978592 -2.32766 0
M  V30 3721 C 361.163 -3.00042 0.198883 0
M  V30 3722 C 362.711 -3.1268 0.141391 0
M  V30 3723 C 363.186 -4.55839 0.444422 0
M  V30 3724 N 364.677 -4.6152 0.394115 0
M  V30 3725 C 365.412 -5.70231 0.602038 0
M  V30 3726 N 364.908 -6.87291 0.871914 0
M  V30 3727 N 366.701 -5.59555 0.534245 0
M  V30 3728 H 358.852 -1.76941 1.17497 0
M  V30 3729 H 361.115 -0.822604 0.471197 0
M  V30 3730 H 360.821 -3.30234 1.2099 0
M  V30 3731 H 360.695 -3.74075 -0.484535 0
M  V30 3732 H 363.082 -2.82283 -0.860265 0
M  V30 3733 H 363.163 -2.40969 0.858335 0
M  V30 3734 H 362.807 -4.86954 1.44353 0
M  V30 3735 H 362.737 -5.2578 -0.293752 0
M  V30 3736 H 365.228 -3.77405 0.193356 0
M  V30 3737 H 365.541 -7.66058 1.01858 0
M  V30 3738 H 363.886 -6.89028 0.909145 0
M  V30 3739 H 367.077 -4.6698 0.323612 0
M  V30 3740 H 367.25 -6.44211 0.699693 0
M  V30 3741 N 360.656 0.0484629 -1.57525 0
M  V30 3742 C 362.072 0.40375 -1.54409 0
M  V30 3743 C 362.272 1.77786 -0.948384 0
M  V30 3744 O 361.328 2.46189 -0.560983 0
M  V30 3745 C 362.641 0.323394 -2.98956 0
M  V30 3746 C 364.189 0.401892 -3.10409 0
M  V30 3747 C 364.664 0.351195 -4.56652 0
M  V30 3748 N 366.155 0.410576 -4.61377 0
M  V30 3749 C 366.89 0.393933 -5.72045 0
M  V30 3750 N 366.386 0.330724 -6.9201 0
M  V30 3751 N 368.179 0.442227 -5.60358 0
M  V30 3752 H 360.33 -0.851016 -1.94606 0
M  V30 3753 H 362.593 -0.321721 -0.89174 0
M  V30 3754 H 362.299 -0.62011 -3.4619 0
M  V30 3755 H 362.173 1.12463 -3.60044 0
M  V30 3756 H 364.56 1.33582 -2.63134 0
M  V30 3757 H 364.641 -0.428342 -2.52188 0
M  V30 3758 H 364.285 -0.578987 -5.04589 0
M  V30 3759 H 364.215 1.19928 -5.12762 0
M  V30 3760 H 366.706 0.462729 -3.75056 0
M  V30 3761 H 367.019 0.322592 -7.72126 0
M  V30 3762 H 365.364 0.29706 -6.94365 0
M  V30 3763 H 368.555 0.489464 -4.65534 0
M  V30 3764 H 368.728 0.425788 -6.466 0
M  V30 3765 N 362.134 1.5431 0.320358 0
M  V30 3766 C 363.382 1.72327 1.05583 0
M  V30 3767 C 363.703 0.50149 1.88441 0
M  V30 3768 O 362.973 -0.48448 1.89815 0
M  V30 3769 H 361.553 0.635387 0.3928 0
M  V30 3770 H 364.215 1.91621 0.356019 0
M  V30 3771 H 363.311 2.60426 1.72003 0
M  V30 3772 N 363.613 -0.582584 1.46437 0
M  V30 3773 C 364.523 -1.71949 1.59595 0
M  V30 3774 C 365.539 -1.67264 0.479443 0
M  V30 3775 O 366.715 -1.87171 0.743579 0
M  V30 3776 C 363.78 -3.08452 1.58298 0
M  V30 3777 C 362.841 -3.244 2.81182 0
M  V30 3778 C 362.074 -4.54391 2.79937 0
M  V30 3779 O 362.297 -5.38287 1.8869 0
M  V30 3780 O 361.231 -4.73588 3.71481 0
M  V30 3781 H 365.057 -1.63795 2.55744 0
M  V30 3782 H 362.642 -0.749643 1.29231 0
M  V30 3783 H 364.524 -3.89732 1.60271 0
M  V30 3784 H 363.199 -3.17043 0.653094 0
M  V30 3785 H 362.106 -2.42613 2.84763 0
M  V30 3786 H 363.439 -3.20699 3.7338 0
M  V30 3787 N 365.091 -1.34144 -0.827227 0
M  V30 3788 C 366.038 -1.25364 -1.93785 0
M  V30 3789 C 367.008 -0.129774 -1.65592 0
M  V30 3790 O 368.193 -0.310024 -1.88264 0
M  V30 3791 C 365.333 -1.01064 -3.2997 0
M  V30 3792 C 364.446 -2.22185 -3.70484 0
M  V30 3793 C 363.581 -1.91203 -4.95595 0
M  V30 3794 C 362.62 -3.08491 -5.28677 0
M  V30 3795 N 361.757 -2.77421 -6.44967 0
M  V30 3796 H 366.597 -2.20347 -2.00627 0
M  V30 3797 H 364.134 -1.09558 -0.981608 0
M  V30 3798 H 366.092 -0.850139 -4.08446 0
M  V30 3799 H 364.722 -0.0975026 -3.22653 0
M  V30 3800 H 363.774 -2.4917 -2.87434 0
M  V30 3801 H 365.086 -3.0983 -3.90905 0
M  V30 3802 H 364.24 -1.71864 -5.81848 0
M  V30 3803 H 362.979 -1.00812 -4.77167 0
M  V30 3804 H 361.984 -3.28431 -4.40923 0
M  V30 3805 H 363.209 -3.99655 -5.49047 0
M  V30 3806 H 361.155 -1.89601 -6.28003 0
M  V30 3807 H 361.072 -3.58598 -6.6554 0
M  V30 3808 H 362.34 -2.61577 -7.34301 0
M  V30 3809 N 366.569 1.04691 -1.17803 0
M  V30 3810 C 367.479 2.16057 -0.914151 0
M  V30 3811 C 368.495 1.73589 0.119503 0
M  V30 3812 O 369.671 2.01308 -0.0609468 0
M  V30 3813 C 366.736 3.4394 -0.436603 0
M  V30 3814 C 365.797 4.00825 -1.53746 0
M  V30 3815 C 365.03 5.22604 -1.0826 0
M  V30 3816 O 365.253 5.70367 0.0612244 0
M  V30 3817 O 364.187 5.7186 -1.87775 0
M  V30 3818 H 368.013 2.41169 -1.84584 0
M  V30 3819 H 365.598 1.1453 -0.959334 0
M  V30 3820 H 367.48 4.21024 -0.178057 0
M  V30 3821 H 366.155 3.20316 0.466869 0
M  V30 3822 H 365.062 3.25158 -1.84995 0
M  V30 3823 H 366.395 4.28778 -2.41683 0
M  V30 3824 N 368.047 0.979072 1.23499 0
M  V30 3825 C 368.977 0.537606 2.27227 0
M  V30 3826 C 369.958 -0.428539 1.64613 0
M  V30 3827 O 371.143 -0.322191 1.91509 0
M  V30 3828 C 368.273 -0.162052 3.46922 0
M  V30 3829 C 367.227 0.721242 4.21879 0
M  V30 3830 C 366.553 -0.110555 5.34586 0
M  V30 3831 C 367.853 2.01141 4.82016 0
M  V30 3832 H 369.547 1.40462 2.64406 0
M  V30 3833 H 367.093 0.67684 1.27102 0
M  V30 3834 H 369.046 -0.482192 4.18632 0
M  V30 3835 H 367.77 -1.06351 3.08799 0
M  V30 3836 H 366.429 1.02482 3.51984 0
M  V30 3837 H 366.077 -1.0125 4.92704 0
M  V30 3838 H 365.777 0.477325 5.85658 0
M  V30 3839 H 367.301 -0.425107 6.09118 0
M  V30 3840 H 368.715 1.75612 5.45741 0
M  V30 3841 H 367.112 2.54695 5.43369 0
M  V30 3842 H 368.182 2.69909 4.02836 0
M  V30 3843 N 369.525 -1.3858 0.750561 0
M  V30 3844 C 370.455 -2.33102 0.136237 0
M  V30 3845 C 371.436 -1.54713 -0.706965 0
M  V30 3846 O 372.621 -1.83043 -0.648769 0
M  V30 3847 C 369.751 -3.38882 -0.760017 0
M  V30 3848 C 368.705 -4.27995 -0.0197785 0
M  V30 3849 C 368.031 -5.24605 -1.03408 0
M  V30 3850 C 369.331 -5.09554 1.14684 0
M  V30 3851 H 371.025 -2.84726 0.925822 0
M  V30 3852 H 368.571 -1.36898 0.446654 0
M  V30 3853 H 370.524 -4.0397 -1.19943 0
M  V30 3854 H 369.248 -2.85734 -1.58189 0
M  V30 3855 H 367.907 -3.64409 0.400184 0
M  V30 3856 H 367.555 -4.67746 -1.84994 0
M  V30 3857 H 367.255 -5.85081 -0.543464 0
M  V30 3858 H 368.779 -5.9257 -1.47288 0
M  V30 3859 H 370.193 -5.67899 0.785118 0
M  V30 3860 H 368.59 -5.7925 1.56812 0
M  V30 3861 H 369.66 -4.4347 1.96118 0
M  V30 3862 N 371.003 -0.499398 -1.49478 0
M  V30 3863 C 372.249 0.0457576 -2.02748 0
M  V30 3864 C 372.582 1.36793 -1.37846 0
M  V30 3865 O 371.857 1.87596 -0.513601 0
M  V30 3866 C 372.14 0.199986 -3.59544 0
M  V30 3867 C 371.993 -1.1452 -4.34977 0
M  V30 3868 C 373.312 0.94137 -4.29914 0
M  V30 3869 H 370.431 0.0151552 -0.736844 0
M  V30 3870 H 373.073 -0.650498 -1.78518 0
M  V30 3871 H 371.223 0.793007 -3.8032 0
M  V30 3872 H 372.895 -1.77697 -4.25701 0
M  V30 3873 H 371.138 -1.73488 -3.97598 0
M  V30 3874 H 371.809 -0.990607 -5.43039 0
M  V30 3875 H 374.285 0.43844 -4.13784 0
M  V30 3876 H 373.161 1.01812 -5.39375 0
M  V30 3877 H 373.422 1.98471 -3.95046 0
M  V30 3878 N 372.481 1.55866 -0.233164 0
M  V30 3879 C 373.892 1.847 0.272554 0
M  V30 3880 C 374.243 1.15477 1.58617 0
M  V30 3881 O 373.368 0.42841 2.12117 0
M  V30 3882 C 373.963 3.35071 0.501299 0
M  V30 3883 C 372.522 3.6418 0.951304 0
M  V30 3884 C 371.669 2.77292 0.0208209 0
M  V30 3885 H 374.62 1.52005 -0.456074 0
M  V30 3886 H 374.641 3.55906 1.34577 0
M  V30 3887 H 374.153 3.85424 -0.454936 0
M  V30 3888 H 372.254 3.19293 1.92049 0
M  V30 3889 H 372.367 4.72071 0.817675 0
M  V30 3890 H 370.731 2.49131 0.529723 0
M  V30 3891 H 371.514 3.30448 -0.93054 0
M  V30 3892 N 373.959 -0.0401083 1.57549 0
M  V30 3893 C 375.375 -0.395556 1.54621 0
M  V30 3894 C 375.575 -1.77281 0.957799 0
M  V30 3895 O 374.631 -2.45888 0.574031 0
M  V30 3896 C 375.944 -0.307535 2.99123 0
M  V30 3897 C 377.492 -0.385425 3.10618 0
M  V30 3898 C 377.967 -0.326973 4.56831 0
M  V30 3899 N 379.458 -0.386102 4.61588 0
M  V30 3900 C 380.193 -0.363591 5.72246 0
M  V30 3901 N 379.689 -0.29402 6.92176 0
M  V30 3902 N 381.482 -0.412503 5.60584 0
M  V30 3903 H 373.633 0.861325 1.94152 0
M  V30 3904 H 375.896 0.326445 0.890021 0
M  V30 3905 H 375.602 0.638461 3.45856 0
M  V30 3906 H 375.476 -1.10552 3.60636 0
M  V30 3907 H 377.863 -1.32185 2.63839 0
M  V30 3908 H 377.944 0.44171 2.51957 0
M  V30 3909 H 377.588 0.605738 5.04275 0
M  V30 3910 H 377.518 -1.17207 5.13391 0
M  V30 3911 H 380.009 -0.442832 3.75296 0
M  V30 3912 H 380.322 -0.28164 7.72287 0
M  V30 3913 H 378.667 -0.260232 6.94513 0
M  V30 3914 H 381.858 -0.464769 4.65787 0
M  V30 3915 H 382.031 -0.391492 6.46816 0
M  V30 3916 N 375.437 -1.54477 -0.31217 0
M  V30 3917 C 376.662 -1.77526 -1.07235 0
M  V30 3918 C 377.087 -0.527775 -1.80544 0
M  V30 3919 O 376.445 0.52121 -1.73646 0
M  V30 3920 C 376.493 -2.97535 -2.03728 0
M  V30 3921 O 375.597 -2.69878 -3.11833 0
M  V30 3922 H 374.938 -0.58792 -0.30862 0
M  V30 3923 H 377.468 -2.01532 -0.352993 0
M  V30 3924 H 377.478 -3.25198 -2.46395 0
M  V30 3925 H 376.153 -3.87996 -1.49774 0
M  V30 3926 H 374.73 -2.53199 -2.7376 0
M  V30 3927 N 376.915 0.57481 -1.46744 0
M  V30 3928 C 378.14 1.36341 -1.56288 0
M  V30 3929 C 378.565 1.86954 -0.207347 0
M  V30 3930 O 377.923 1.62006 0.813871 0
M  V30 3931 C 377.971 2.52147 -2.57787 0
M  V30 3932 O 377.075 3.53834 -2.11838 0
M  V30 3933 H 376.416 0.405713 -0.525636 0
M  V30 3934 H 378.946 0.696453 -1.92382 0
M  V30 3935 H 378.956 2.98958 -2.77648 0
M  V30 3936 H 377.631 2.14663 -3.5622 0
M  V30 3937 H 376.208 3.1345 -2.01999 0
M  V30 3938 N 378.394 1.34581 0.820102 0
M  V30 3939 C 379.622 1.3018 1.60813 0
M  V30 3940 C 380.037 -0.123551 1.88395 0
M  V30 3941 O 379.394 -1.07148 1.47735 0
M  V30 3942 C 379.445 2.09312 2.94739 0
M  V30 3943 O 379.166 3.46288 2.68358 0
M  V30 3944 C 380.667 2.1234 3.89136 0
M  V30 3945 H 377.887 0.447726 0.499782 0
M  V30 3946 H 380.431 1.77237 1.02017 0
M  V30 3947 H 378.586 1.65889 3.50085 0
M  V30 3948 H 379 3.87227 3.53774 0
M  V30 3949 H 380.474 2.72126 4.80262 0
M  V30 3950 H 380.951 1.11854 4.24718 0
M  V30 3951 H 381.557 2.55864 3.39726 0
M  V30 3952 N 379.872 -1.04064 1.18357 0
M  V30 3953 C 381.097 -1.81454 1.00445 0
M  V30 3954 C 381.522 -1.82823 -0.442423 0
M  V30 3955 O 380.88 -1.24555 -1.31741 0
M  V30 3956 C 380.928 -3.24925 1.56384 0
M  V30 3957 O 380.032 -4.04856 0.785209 0
M  V30 3958 H 379.373 -0.560604 0.355835 0
M  V30 3959 H 381.903 -1.31059 1.57114 0
M  V30 3960 H 381.913 -3.75702 1.59097 0
M  V30 3961 H 380.588 -3.23244 2.61699 0
M  V30 3962 H 379.165 -3.63537 0.830399 0
M  V30 3963 N 381.35 -0.985608 -1.22978 0
M  V30 3964 C 382.761 -0.693593 -1.73338 0
M  V30 3965 C 383.112 0.789935 -1.79595 0
M  V30 3966 O 382.237 1.61771 -1.43733 0
M  V30 3967 C 382.832 -1.25235 -3.14804 0
M  V30 3968 C 381.391 -1.00987 -3.626 0
M  V30 3969 C 380.538 -1.37695 -2.40698 0
M  V30 3970 H 383.489 -1.15884 -1.08428 0
M  V30 3971 H 383.51 -0.627329 -3.75293 0
M  V30 3972 H 383.022 -2.33209 -3.10218 0
M  V30 3973 H 381.123 0.0535565 -3.72562 0
M  V30 3974 H 381.236 -1.66812 -4.49122 0
M  V30 3975 H 379.6 -0.795459 -2.4196 0
M  V30 3976 H 380.383 -2.46657 -2.38779 0
M  V30 3977 N 382.828 1.3818 -0.7579 0
M  V30 3978 C 384.105 1.94106 -0.241306 0
M  V30 3979 C 384.485 1.69282 1.26122 0
M  V30 3980 O 383.833 1.03378 2.03777 0
M  V30 3981 C 384.043 3.43809 -0.59967 0
M  V30 3982 C 385.391 4.20868 -0.561717 0
M  V30 3983 O 386.415 3.5211 -0.538222 0
M  V30 3984 O 385.274 5.43451 -0.576478 0
M  V30 3985 H 382.368 0.825376 -0.0518042 0
M  V30 3986 H 384.914 1.47548 -0.838315 0
M  V30 3987 H 383.686 3.55403 -1.6372 0
M  V30 3988 H 383.309 3.97592 0.0251197 0
M  V30 3989 N 384.306 0.507319 1.49211 0
M  V30 3990 C 385.722 0.163682 1.58758 0
M  V30 3991 C 385.922 -1.33208 1.51188 0
M  V30 3992 O 384.978 -2.10855 1.38911 0
M  V30 3993 C 386.291 0.746095 2.91297 0
M  V30 3994 C 387.839 0.712773 3.04776 0
M  V30 3995 C 388.314 1.27336 4.39943 0
M  V30 3996 N 389.805 1.23433 4.46451 0
M  V30 3997 C 390.54 1.63821 5.495 0
M  V30 3998 N 390.036 2.11832 6.5962 0
M  V30 3999 N 391.829 1.55198 5.4025 0
M  V30 4000 H 383.98 1.47972 1.52375 0
M  V30 4001 H 386.243 0.614147 0.722168 0
M  V30 4002 H 385.949 1.79534 3.02424 0
M  V30 4003 H 385.823 0.210137 3.76614 0
M  V30 4004 H 388.21 -0.327656 2.93275 0
M  V30 4005 H 388.291 1.28595 2.21127 0
M  V30 4006 H 387.935 2.3126 4.52196 0
M  V30 4007 H 387.865 0.676066 5.22242 0
M  V30 4008 H 390.356 0.882627 3.67448 0
M  V30 4009 H 390.669 2.40703 7.34358 0
M  V30 4010 H 389.014 2.1581 6.60644 0
M  V30 4011 H 392.205 1.17505 4.53112 0
M  V30 4012 H 392.378 1.86997 6.20432 0
M  V30 4013 N 385.784 -1.5574 0.241426 0
M  V30 4014 C 387.033 -1.97986 -0.385295 0
M  V30 4015 C 387.346 -1.13267 -1.59468 0
M  V30 4016 O 388.552 -1.45501 -2.2922 0
M  V30 4017 C 387.008 -3.52275 -0.736884 0
M  V30 4018 C 386.616 -4.45726 0.450796 0
M  V30 4019 C 388.36 -4.03189 -1.3281 0
M  V30 4020 C 386.267 -5.91352 0.0756662 0
M  V30 4021 H 385.197 -0.739386 -0.147731 0
M  V30 4022 H 387.848 -1.80308 0.340779 0
M  V30 4023 H 386.23 -3.65628 -1.52094 0
M  V30 4024 H 387.404 -4.44131 1.22819 0
M  V30 4025 H 385.719 -4.05264 0.956573 0
M  V30 4026 H 388.316 -5.09505 -1.62201 0
M  V30 4027 H 388.659 -3.50212 -2.25071 0
M  V30 4028 H 389.192 -3.93141 -0.607069 0
M  V30 4029 H 385.931 -6.48354 0.965272 0
M  V30 4030 H 385.451 -5.96095 -0.665635 0
M  V30 4031 H 387.13 -6.46084 -0.344075 0
M  V30 4032 N 387.262 0.0317525 -1.57568 0
M  V30 4033 C 388.509 0.723104 -1.89149 0
M  V30 4034 C 388.837 1.75504 -0.838377 0
M  V30 4035 O 388.092 1.95037 0.160982 0
M  V30 4036 C 388.391 1.43167 -3.27472 0
M  V30 4037 C 388.057 0.535972 -4.47703 0
M  V30 4038 C 386.719 0.289262 -4.8033 0
M  V30 4039 C 389.071 -0.0826125 -5.21135 0
M  V30 4040 C 386.399 -0.584853 -5.83778 0
M  V30 4041 C 388.751 -0.944414 -6.25511 0
M  V30 4042 C 387.415 -1.20061 -6.56614 0
M  V30 4043 H 386.685 0.264602 -0.692146 0
M  V30 4044 H 389.332 -0.0169496 -1.91492 0
M  V30 4045 H 387.637 2.24497 -3.21105 0
M  V30 4046 H 389.334 1.97209 -3.49155 0
M  V30 4047 H 385.924 0.738414 -4.22191 0
M  V30 4048 H 390.108 0.0950302 -4.96209 0
M  V30 4049 H 385.364 -0.79168 -6.06253 0
M  V30 4050 H 389.538 -1.43026 -6.81554 0
M  V30 4051 H 387.165 -1.87967 -7.36595 0
M  V30 4052 N 388.74 1.54641 0.303973 0
M  V30 4053 C 389.987 1.7378 1.03955 0
M  V30 4054 C 390.315 0.521986 1.87365 0
M  V30 4055 O 389.57 -0.496099 1.89308 0
M  V30 4056 C 389.869 2.97753 1.97681 0
M  V30 4057 C 389.535 4.31671 1.30271 0
M  V30 4058 C 388.197 4.68075 1.11619 0
M  V30 4059 C 390.549 5.147 0.82055 0
M  V30 4060 C 387.877 5.8509 0.434304 0
M  V30 4061 C 390.229 6.32416 0.152395 0
M  V30 4062 C 388.893 6.67484 -0.0461067 0
M  V30 4063 H 388.163 0.635908 0.380398 0
M  V30 4064 H 390.81 1.88896 0.314718 0
M  V30 4065 H 389.115 2.77406 2.76682 0
M  V30 4066 H 390.812 3.09756 2.54661 0
M  V30 4067 H 387.402 4.03041 1.45795 0
M  V30 4068 H 391.586 4.87077 0.952374 0
M  V30 4069 H 386.842 6.10806 0.269495 0
M  V30 4070 H 391.016 6.96023 -0.229126 0
M  V30 4071 H 388.643 7.58011 -0.576494 0
M  V30 4072 N 390.218 -0.567019 1.47046 0
M  V30 4073 C 391.168 -1.67018 1.55207 0
M  V30 4074 C 392.152 -1.55543 0.411714 0
M  V30 4075 O 393.344 -1.64192 0.661064 0
M  V30 4076 C 390.473 -3.05801 1.56014 0
M  V30 4077 C 389.559 -3.22515 2.75399 0
M  V30 4078 N 389.95 -3.09329 4.00186 0
M  V30 4079 C 388.248 -3.53493 2.71954 0
M  V30 4080 C 388.949 -3.2847 4.80086 0
M  V30 4081 N 387.925 -3.54352 4.12233 0
M  V30 4082 H 391.727 -1.55377 2.4947 0
M  V30 4083 H 389.241 -0.771503 1.42904 0
M  V30 4084 H 391.238 -3.84996 1.59949 0
M  V30 4085 H 389.898 -3.18561 0.628396 0
M  V30 4086 H 390.909 -2.86863 4.31196 0
M  V30 4087 H 387.586 -3.7284 1.87873 0
M  V30 4088 H 388.976 -3.23326 5.88991 0
M  V30 4089 N 391.696 -1.35014 -0.812953 0
M  V30 4090 C 392.626 -1.30069 -1.93919 0
M  V30 4091 C 393.607 -0.176275 -1.69184 0
M  V30 4092 O 394.792 -0.370227 -1.90638 0
M  V30 4093 C 391.922 -1.06547 -3.30552 0
M  V30 4094 C 390.876 -2.15561 -3.69753 0
M  V30 4095 C 390.202 -1.77214 -5.04479 0
M  V30 4096 C 391.502 -3.57476 -3.808 0
M  V30 4097 H 393.196 -2.24303 -1.98314 0
M  V30 4098 H 390.742 -1.07977 -0.952736 0
M  V30 4099 H 392.695 -1.01729 -4.08937 0
M  V30 4100 H 391.419 -0.0875719 -3.26483 0
M  V30 4101 H 390.078 -2.19466 -2.9365 0
M  V30 4102 H 389.726 -0.780589 -4.96906 0
M  V30 4103 H 389.426 -2.50184 -5.31678 0
M  V30 4104 H 390.95 -1.7391 -5.8531 0
M  V30 4105 H 392.364 -3.55929 -4.4943 0
M  V30 4106 H 390.761 -4.29152 -4.19462 0
M  V30 4107 H 391.831 -3.94091 -2.82525 0
M  V30 4108 N 393.175 1.03435 -1.18907 0
M  V30 4109 C 394.123 2.13703 -0.918353 0
M  V30 4110 C 395.117 1.68947 0.123767 0
M  V30 4111 O 396.323 1.79983 -0.0249701 0
M  V30 4112 H 392.698 0.698112 -0.279542 0
M  V30 4113 H 394.669 2.33731 -1.85506 0
M  V30 4114 C 393.418 3.44542 -0.467532 0
M  V30 4115 H 392.741 3.79394 -1.26095 0
M  V30 4116 H 394.181 4.22812 -0.317164 0
M  V30 4117 C 392.64 3.26829 0.817588 0
M  V30 4118 O 393.17 3.54975 1.88031 0
M  V30 4119 N 391.376 2.80139 0.772677 0
M  V30 4120 H 390.923 2.57434 -0.0923883 0
M  V30 4121 H 390.881 2.68668 1.63294 0
M  V30 4122 N 394.653 0.992116 1.22453 0
M  V30 4123 C 395.616 0.546883 2.2258 0
M  V30 4124 C 396.616 -0.369829 1.56489 0
M  V30 4125 O 397.806 -0.161896 1.73446 0
M  V30 4126 C 394.938 -0.204659 3.40285 0
M  V30 4127 H 396.131 1.43234 2.63484 0
M  V30 4128 H 393.684 0.779239 1.3549 0
M  V30 4129 H 394.419 -1.10614 3.04853 0
M  V30 4130 H 394.204 0.45354 3.89468 0
M  V30 4131 H 395.694 -0.504358 4.14543 0
M  V30 4132 N 396.131 -1.37776 0.765217 0
M  V30 4133 C 397.377 -2.00145 0.327072 0
M  V30 4134 C 397.71 -1.60607 -1.09175 0
M  V30 4135 O 396.985 -0.849127 -1.74986 0
M  V30 4136 C 397.268 -3.57109 0.46319 0
M  V30 4137 C 397.121 -4.06576 1.92395 0
M  V30 4138 C 398.44 -4.39888 -0.136473 0
M  V30 4139 H 395.559 -0.727113 0.120316 0
M  V30 4140 H 398.201 -1.63549 0.967039 0
M  V30 4141 H 396.351 -3.88414 -0.0816358 0
M  V30 4142 H 398.023 -3.85864 2.52798 0
M  V30 4143 H 396.266 -3.59011 2.43503 0
M  V30 4144 H 396.937 -5.15639 1.97028 0
M  V30 4145 H 399.413 -4.14803 0.328317 0
M  V30 4146 H 398.289 -5.48899 -0.0110582 0
M  V30 4147 H 398.55 -4.24758 -1.22608 0
M  V30 4148 N 397.609 -0.515225 -1.4894 0
M  V30 4149 C 398.572 0.244681 -2.2789 0
M  V30 4150 C 399.572 0.881166 -1.34507 0
M  V30 4151 O 400.762 0.743497 -1.57537 0
M  V30 4152 C 397.894 1.35247 -3.12923 0
M  V30 4153 H 399.087 -0.448289 -2.96531 0
M  V30 4154 H 396.64 -0.270656 -1.53939 0
M  V30 4155 H 397.375 2.07916 -2.48881 0
M  V30 4156 H 397.16 0.901374 -3.81599 0
M  V30 4157 H 398.65 1.88737 -3.72516 0
M  V30 4158 N 399.087 1.5561 -0.249682 0
M  V30 4159 C 400.017 2.24477 0.642826 0
M  V30 4160 C 400.998 1.22601 1.17911 0
M  V30 4161 O 402.183 1.5126 1.21795 0
M  V30 4162 C 399.313 2.94638 1.83863 0
M  V30 4163 C 398.267 4.03227 1.435 0
M  V30 4164 C 397.593 4.60828 2.71186 0
M  V30 4165 C 398.893 5.18796 0.604002 0
M  V30 4166 H 400.587 2.99321 0.0685625 0
M  V30 4167 H 398.133 1.43965 0.0315363 0
M  V30 4168 H 400.086 3.41517 2.46868 0
M  V30 4169 H 398.81 2.17287 2.43832 0
M  V30 4170 H 397.469 3.57121 0.828275 0
M  V30 4171 H 397.117 3.80174 3.29358 0
M  V30 4172 H 396.817 5.34132 2.44901 0
M  V30 4173 H 398.341 5.10442 3.35084 0
M  V30 4174 H 399.755 5.61883 1.13842 0
M  V30 4175 H 398.152 5.98506 0.437097 0
M  V30 4176 H 399.222 4.83384 -0.383147 0
M  V30 4177 N 400.565 -0.0233959 1.57583 0
M  V30 4178 C 401.813 -0.711654 1.89156 0
M  V30 4179 C 402.134 -1.75591 0.848096 0
M  V30 4180 O 401.404 -1.95547 -0.117566 0
M  V30 4181 H 399.984 -0.265835 0.698098 0
M  V30 4182 H 402.646 0.0119948 1.94896 0
M  V30 4183 H 401.742 -1.19766 2.88206 0
M  V30 4184 N 402.043 -1.548 -0.295768 0
M  V30 4185 C 403.32 -1.65014 -1.05023 0
M  V30 4186 C 403.7 -0.501805 -2.05049 0
M  V30 4187 O 403.048 0.500869 -2.22943 0
M  V30 4188 C 403.258 -3.03252 -1.72741 0
M  V30 4189 C 404.606 -3.60242 -2.24746 0
M  V30 4190 O 405.63 -3.05737 -1.82765 0
M  V30 4191 O 404.489 -4.55687 -3.01681 0
M  V30 4192 H 401.583 -0.669314 -0.485744 0
M  V30 4193 H 404.129 -1.67144 -0.293438 0
M  V30 4194 H 402.901 -3.7827 -1.00138 0
M  V30 4195 H 402.524 -3.04922 -2.55163 0
M  V30 4196 N 403.521 0.559213 -1.47345 0
M  V30 4197 C 404.769 1.31388 -1.53563 0
M  V30 4198 C 405.09 1.93985 -0.198678 0
M  V30 4199 O 404.36 1.79825 0.777167 0
M  V30 4200 H 402.94 0.487901 -0.565652 0
M  V30 4201 H 405.602 0.65315 -1.8363 0
M  V30 4202 H 404.698 2.10844 -2.30111 0
M  V30 4203 N 404.999 1.35443 0.805782 0
M  V30 4204 C 406.247 1.28507 1.55982 0
M  V30 4205 C 406.568 -0.140046 1.94496 0
M  V30 4206 O 405.838 -1.07666 1.63661 0
M  V30 4207 H 404.418 0.472676 0.578434 0
M  V30 4208 H 407.08 1.69555 0.961098 0
M  V30 4209 H 406.176 1.90148 2.47488 0
M  V30 4210 N 406.477 -1.02803 1.19454 0
M  V30 4211 C 407.427 -2.0945 0.900827 0
M  V30 4212 C 408.411 -1.60335 -0.134715 0
M  V30 4213 O 409.603 -1.76857 0.0710924 0
M  V30 4214 C 406.732 -3.4044 0.442229 0
M  V30 4215 C 405.818 -3.96286 1.51056 0
M  V30 4216 N 406.209 -4.25785 2.73021 0
M  V30 4217 C 404.507 -4.24307 1.37404 0
M  V30 4218 C 405.208 -4.70654 3.41848 0
M  V30 4219 N 404.184 -4.72238 2.69243 0
M  V30 4220 H 407.986 -2.3015 1.82779 0
M  V30 4221 H 405.5 -1.20672 1.08683 0
M  V30 4222 H 407.497 -4.16354 0.21326 0
M  V30 4223 H 406.157 -3.21159 -0.478238 0
M  V30 4224 H 407.168 -4.15041 3.09776 0
M  V30 4225 H 403.845 -4.14285 0.517103 0
M  V30 4226 H 405.235 -5.02392 4.46152 0
M  V30 4227 N 407.956 -0.998596 -1.21925 0
M  V30 4228 C 409.186 -0.695276 -1.94549 0
M  V30 4229 C 409.594 0.745079 -1.73911 0
M  V30 4230 O 408.937 1.51507 -1.03881 0
M  V30 4231 C 408.999 -0.928485 -3.47303 0
M  V30 4232 C 408.663 -2.35443 -3.91683 0
M  V30 4233 C 409.66 -3.33428 -3.98901 0
M  V30 4234 C 407.345 -2.69038 -4.24174 0
M  V30 4235 C 409.339 -4.63079 -4.37992 0
M  V30 4236 C 407.026 -3.98906 -4.62944 0
M  V30 4237 C 408.024 -4.95738 -4.69822 0
M  V30 4238 O 407.712 -6.23285 -5.07711 0
M  V30 4239 H 407.444 -0.255902 -0.625692 0
M  V30 4240 H 409.998 -1.33767 -1.5587 0
M  V30 4241 H 408.228 -0.228917 -3.86022 0
M  V30 4242 H 409.917 -0.619539 -4.01144 0
M  V30 4243 H 410.683 -3.08807 -3.73983 0
M  V30 4244 H 406.562 -1.94367 -4.18022 0
M  V30 4245 H 410.106 -5.38658 -4.43275 0
M  V30 4246 H 406.003 -4.23314 -4.87314 0
M  V30 4247 H 406.771 -6.27306 -5.25766 0
M  V30 4248 N 409.434 1.37368 -0.772513 0
M  V30 4249 C 410.662 2.03942 -0.348588 0
M  V30 4250 C 411.077 1.58264 1.02947 0
M  V30 4251 O 410.434 0.764246 1.65727 0
M  V30 4252 C 410.485 3.5946 -0.38351 0
M  V30 4253 O 410.206 4.03468 -1.70721 0
M  V30 4254 C 411.707 4.4327 0.0519152 0
M  V30 4255 H 408.927 0.654931 -0.145966 0
M  V30 4256 H 411.471 1.75686 -1.04665 0
M  V30 4257 H 409.626 3.86486 0.265978 0
M  V30 4258 H 410.04 4.97991 -1.64636 0
M  V30 4259 H 411.514 5.51995 -0.0236733 0
M  V30 4260 H 411.991 4.2514 1.10238 0
M  V30 4261 H 412.597 4.21471 -0.569415 0
M  V30 4262 N 410.912 0.523116 1.48665 0
M  V30 4263 C 412.152 -0.0115588 2.04397 0
M  V30 4264 C 412.516 -1.32225 1.39214 0
M  V30 4265 O 413.717 -1.94253 1.85793 0
M  V30 4266 C 411.988 -0.138119 3.57133 0
M  V30 4267 S 413.547 -0.623849 4.34343 0
M  V30 4268 H 410.365 0.00877706 0.710946 0
M  V30 4269 H 412.967 0.702116 1.82457 0
M  V30 4270 H 411.671 0.820748 4.02109 0
M  V30 4271 H 411.202 -0.876377 3.83514 0
M  V30 4272 H 413.217 -1.8895 4.58816 0
M  V30 4273 N 412.39 -1.55475 0.257931 0
M  V30 4274 C 413.806 -1.59307 -0.0966563 0
M  V30 4275 C 414.006 -1.27514 -1.5602 0
M  V30 4276 O 413.062 -1.02774 -2.30637 0
M  V30 4277 C 414.375 -2.99552 0.262481 0
M  V30 4278 C 415.923 -3.1231 0.207683 0
M  V30 4279 C 416.398 -4.54793 0.541012 0
M  V30 4280 N 417.889 -4.6058 0.491921 0
M  V30 4281 C 418.624 -5.68825 0.722857 0
M  V30 4282 N 418.12 -6.85287 1.0175 0
M  V30 4283 N 419.913 -5.58296 0.652815 0
M  V30 4284 H 412.064 -1.74409 1.21224 0
M  V30 4285 H 414.327 -0.812424 0.48854 0
M  V30 4286 H 414.033 -3.27593 1.27967 0
M  V30 4287 H 413.907 -3.75019 -0.40508 0
M  V30 4288 H 416.294 -2.84044 -0.800195 0
M  V30 4289 H 416.375 -2.39095 0.909255 0
M  V30 4290 H 416.019 -4.83783 1.5465 0
M  V30 4291 H 415.949 -5.26285 -0.18216 0
M  V30 4292 H 418.44 -3.7691 0.273366 0
M  V30 4293 H 418.753 -7.63725 1.18084 0
M  V30 4294 H 417.098 -6.86945 1.05509 0
M  V30 4295 H 420.289 -4.66189 0.422592 0
M  V30 4296 H 420.462 -6.42582 0.836182 0
M  V30 4297 N 413.868 0.0150385 -1.57593 0
M  V30 4298 C 415.098 0.713359 -1.93894 0
M  V30 4299 C 415.506 1.68663 -0.857289 0
M  V30 4300 O 414.849 1.82876 0.173788 0
M  V30 4301 C 414.911 1.51348 -3.26089 0
M  V30 4302 C 414.575 0.703451 -4.51554 0
M  V30 4303 C 415.572 -0.00237924 -5.199 0
M  V30 4304 C 413.257 0.653854 -4.98026 0
M  V30 4305 C 415.251 -0.746955 -6.33008 0
M  V30 4306 C 412.938 -0.0944578 -6.11027 0
M  V30 4307 C 413.936 -0.793609 -6.78374 0
M  V30 4308 O 413.624 -1.52974 -7.89211 0
M  V30 4309 H 413.356 0.204637 -0.644282 0
M  V30 4310 H 415.91 -0.0276411 -2.05381 0
M  V30 4311 H 414.14 2.29862 -3.10967 0
M  V30 4312 H 415.829 2.09572 -3.47612 0
M  V30 4313 H 416.595 0.0268803 -4.84993 0
M  V30 4314 H 412.474 1.18756 -4.45441 0
M  V30 4315 H 416.018 -1.2932 -6.85509 0
M  V30 4316 H 411.915 -0.125591 -6.45378 0
M  V30 4317 H 412.683 -1.44488 -8.05646 0
M  V30 4318 N 415.346 1.54954 0.287554 0
M  V30 4319 C 416.762 1.46469 0.633964 0
M  V30 4320 C 416.962 0.666865 1.90145 0
M  V30 4321 O 416.018 0.179906 2.51858 0
M  V30 4322 C 417.331 2.90556 0.774454 0
M  V30 4323 C 418.879 3.00681 0.869462 0
M  V30 4324 C 419.354 4.45993 1.04184 0
M  V30 4325 N 420.845 4.4976 1.10772 0
M  V30 4326 C 421.58 5.59393 1.25964 0
M  V30 4327 N 421.076 6.78923 1.37968 0
M  V30 4328 N 422.869 5.47107 1.28959 0
M  V30 4329 H 415.02 2.05288 -0.545041 0
M  V30 4330 H 417.283 0.930305 -0.182308 0
M  V30 4331 H 416.989 3.51594 -0.086207 0
M  V30 4332 H 416.863 3.38743 1.6593 0
M  V30 4333 H 419.25 2.39749 1.7206 0
M  V30 4334 H 419.331 2.55769 -0.0396831 0
M  V30 4335 H 418.975 5.07524 0.195422 0
M  V30 4336 H 418.905 4.88548 1.96542 0
M  V30 4337 H 421.396 3.63651 1.02794 0
M  V30 4338 H 421.709 7.58231 1.49353 0
M  V30 4339 H 420.054 6.81763 1.34999 0
M  V30 4340 H 423.245 4.52668 1.19202 0
M  V30 4341 H 423.418 6.32595 1.40455 0
M  V30 4342 N 416.824 -0.551391 1.4764 0
M  V30 4343 C 417.754 -1.66757 1.63445 0
M  V30 4344 C 418.735 -1.63077 0.483742 0
M  V30 4345 O 419.92 -1.80607 0.71377 0
M  V30 4346 C 417.05 -3.05387 1.65396 0
M  V30 4347 C 416.004 -3.23918 2.79752 0
M  V30 4348 C 415.33 -4.63393 2.66779 0
M  V30 4349 C 416.63 -3.08735 4.21284 0
M  V30 4350 H 418.324 -1.53786 2.56886 0
M  V30 4351 H 415.87 -0.738415 1.23626 0
M  V30 4352 H 417.823 -3.83325 1.75043 0
M  V30 4353 H 416.547 -3.19332 0.685195 0
M  V30 4354 H 415.206 -2.48391 2.69625 0
M  V30 4355 H 414.854 -4.74144 1.67918 0
M  V30 4356 H 414.554 -4.7674 3.43501 0
M  V30 4357 H 416.078 -5.43458 2.78364 0
M  V30 4358 H 417.492 -3.76484 4.32357 0
M  V30 4359 H 415.889 -3.33588 4.98838 0
M  V30 4360 H 416.959 -2.0541 4.39243 0
M  V30 4361 N 418.302 -1.35869 -0.798587 0
M  V30 4362 C 419.252 -1.25982 -1.90033 0
M  V30 4363 C 420.236 -0.153303 -1.60168 0
M  V30 4364 O 421.428 -0.38527 -1.72756 0
M  V30 4365 C 418.557 -1.04211 -3.27101 0
M  V30 4366 C 417.643 -2.19289 -3.63006 0
M  V30 4367 N 418.034 -3.44559 -3.70287 0
M  V30 4368 C 416.332 -2.10852 -3.93011 0
M  V30 4369 C 417.033 -4.20283 -4.02166 0
M  V30 4370 N 416.009 -3.49124 -4.16669 0
M  V30 4371 H 419.811 -2.20883 -1.93876 0
M  V30 4372 H 417.325 -1.28457 -0.993614 0
M  V30 4373 H 419.322 -0.952155 -4.05881 0
M  V30 4374 H 417.982 -0.102013 -3.2454 0
M  V30 4375 H 418.993 -3.7881 -3.53162 0
M  V30 4376 H 415.67 -1.24744 -3.98428 0
M  V30 4377 H 417.06 -5.28575 -4.14799 0
M  V30 4378 N 419.78 1.02168 -1.19998 0
M  V30 4379 C 421.057 1.72816 -0.916191 0
M  V30 4380 C 421.437 2.03081 0.576325 0
M  V30 4381 O 420.785 1.69122 1.53656 0
M  V30 4382 C 420.995 2.9997 -1.78378 0
M  V30 4383 C 422.343 3.73336 -2.02251 0
M  V30 4384 O 423.367 3.09914 -1.75589 0
M  V30 4385 O 422.226 4.87371 -2.47249 0
M  V30 4386 H 419.32 0.752924 -0.342103 0
M  V30 4387 H 421.866 1.08062 -1.30846 0
M  V30 4388 H 420.638 2.73888 -2.79466 0
M  V30 4389 H 420.261 3.72464 -1.39126 0
M  V30 4390 N 421.258 1.00505 1.21394 0
M  V30 4391 C 422.206 0.558623 2.25792 0
M  V30 4392 C 423.2 -0.396848 1.64686 0
M  V30 4393 O 424.406 -0.268035 1.77993 0
M  V30 4394 H 420.781 0.1623 0.734277 0
M  V30 4395 H 422.752 1.4503 2.60785 0
M  V30 4396 C 421.501 -0.0989574 3.47559 0
M  V30 4397 H 420.824 0.627225 3.94849 0
M  V30 4398 H 422.264 -0.3746 4.22342 0
M  V30 4399 C 420.723 -1.33817 3.09184 0
M  V30 4400 O 421.253 -2.43252 3.19674 0
M  V30 4401 N 419.459 -1.21793 2.63846 0
M  V30 4402 H 419.006 -0.32746 2.5551 0
M  V30 4403 H 418.964 -2.04809 2.38539 0
M  V30 4404 N 422.737 -1.36956 0.779787 0
M  V30 4405 C 423.669 -2.28833 0.129639 0
M  V30 4406 C 424.682 -1.4902 -0.655511 0
M  V30 4407 O 425.871 -1.71578 -0.492279 0
M  V30 4408 C 422.971 -3.2833 -0.839792 0
M  V30 4409 C 422.144 -4.3727 -0.10675 0
M  V30 4410 C 421.203 -5.16789 -0.990717 0
M  V30 4411 O 420.229 -5.67406 -0.451516 0
M  V30 4412 N 421.431 -5.32294 -2.3161 0
M  V30 4413 H 424.196 -2.85268 0.918803 0
M  V30 4414 H 421.757 -1.49019 0.632841 0
M  V30 4415 H 423.749 -3.78413 -1.43477 0
M  V30 4416 H 422.319 -2.72605 -1.52988 0
M  V30 4417 H 421.539 -3.88478 0.669216 0
M  V30 4418 H 422.827 -5.07229 0.399464 0
M  V30 4419 H 422.225 -4.92768 -2.77843 0
M  V30 4420 H 420.782 -5.85656 -2.86095 0
M  V30 4421 N 424.215 -0.530993 -1.48385 0
M  V30 4422 C 425.163 0.244595 -2.3131 0
M  V30 4423 C 426.157 0.93451 -1.41291 0
M  V30 4424 O 427.363 0.85878 -1.58193 0
M  V30 4425 H 423.738 0.0977472 -0.74562 0
M  V30 4426 H 425.709 -0.474369 -2.94605 0
M  V30 4427 C 424.458 1.2779 -3.23365 0
M  V30 4428 H 423.781 0.756439 -3.92579 0
M  V30 4429 H 425.221 1.79198 -3.84271 0
M  V30 4430 C 423.68 2.31205 -2.45042 0
M  V30 4431 O 424.21 3.37661 -2.17596 0
M  V30 4432 N 422.416 2.04446 -2.0652 0
M  V30 4433 H 421.963 1.17891 -2.2904 0
M  V30 4434 H 421.921 2.73861 -1.54427 0
M  V30 4435 N 425.693 1.55336 -0.266172 0
M  V30 4436 C 426.941 1.99003 0.35246 0
M  V30 4437 C 427.262 1.15591 1.57047 0
M  V30 4438 O 426.532 0.243268 1.94384 0
M  V30 4439 H 425.112 0.735025 0.133217 0
M  V30 4440 H 427.774 1.91367 -0.369434 0
M  V30 4441 H 426.87 3.05289 0.648453 0
M  V30 4442 N 427.171 -0.0066808 1.57599 0
M  V30 4443 C 428.417 -0.68835 1.91398 0
M  V30 4444 C 428.772 -1.7175 0.86716 0
M  V30 4445 O 428.065 -1.91215 -0.121475 0
M  V30 4446 C 428.259 -1.37939 3.29708 0
M  V30 4447 C 428.088 -0.418689 4.47747 0
M  V30 4448 C 426.858 -0.031526 5.0529 0
M  V30 4449 C 429.056 0.312301 5.13351 0
M  V30 4450 N 427.038 0.928088 6.06844 0
M  V30 4451 C 428.409 1.12682 6.09674 0
M  V30 4452 C 430.464 0.376853 4.96472 0
M  V30 4453 C 429.167 2 6.90936 0
M  V30 4454 C 431.193 1.23723 5.78314 0
M  V30 4455 C 430.555 2.03962 6.74225 0
M  V30 4456 H 426.654 -0.225292 0.748844 0
M  V30 4457 H 429.238 0.0520973 1.9463 0
M  V30 4458 H 427.409 -2.09017 3.27363 0
M  V30 4459 H 429.141 -2.01522 3.50957 0
M  V30 4460 H 425.896 -0.398485 4.71921 0
M  V30 4461 H 426.32 1.40307 6.62301 0
M  V30 4462 H 430.962 -0.22921 4.22178 0
M  V30 4463 H 428.68 2.61676 7.64559 0
M  V30 4464 H 432.266 1.291 5.67296 0
M  V30 4465 H 431.146 2.69461 7.36451 0
M  V30 4466 N 428.649 -1.55105 -0.279332 0
M  V30 4467 C 429.874 -1.7976 -1.03446 0
M  V30 4468 C 430.299 -0.565952 -1.79384 0
M  V30 4469 O 429.657 0.484259 -1.74713 0
M  V30 4470 C 429.705 -3.0179 -1.97371 0
M  V30 4471 O 428.809 -2.76432 -3.06038 0
M  V30 4472 H 428.15 -0.594334 -0.29608 0
M  V30 4473 H 430.68 -2.02235 -0.310165 0
M  V30 4474 H 430.69 -3.30351 -2.39441 0
M  V30 4475 H 429.365 -3.91085 -1.4151 0
M  V30 4476 H 427.942 -2.58949 -2.68328 0
M  V30 4477 N 430.127 0.543554 -1.4793 0
M  V30 4478 C 431.375 1.29752 -1.54948 0
M  V30 4479 C 431.696 1.93764 -0.219242 0
M  V30 4480 O 430.966 1.80639 0.75805 0
M  V30 4481 H 429.546 0.481874 -0.570795 0
M  V30 4482 H 432.208 0.633636 -1.84312 0
M  V30 4483 H 431.304 2.08392 -2.32334 0
M  V30 4484 N 431.605 1.3629 0.791371 0
M  V30 4485 C 432.882 1.20962 1.53712 0
M  V30 4486 C 433.262 -0.205021 2.10102 0
M  V30 4487 O 432.61 -1.21042 1.93807 0
M  V30 4488 C 432.82 2.29002 2.63361 0
M  V30 4489 C 434.168 2.65572 3.31295 0
M  V30 4490 O 435.192 2.2803 2.73643 0
M  V30 4491 O 434.051 3.3018 4.35481 0
M  V30 4492 H 431.145 0.47086 0.679867 0
M  V30 4493 H 433.691 1.48016 0.830021 0
M  V30 4494 H 432.463 3.2382 2.19674 0
M  V30 4495 H 432.086 2.03303 3.41692 0
M  V30 4496 N 433.083 -1.0153 1.20538 0
M  V30 4497 C 434.308 -1.79283 1.04271 0
M  V30 4498 C 434.733 -1.8372 -0.403544 0
M  V30 4499 O 434.091 -1.27321 -1.2907 0
M  V30 4500 C 434.139 -3.21535 1.63241 0
M  V30 4501 O 433.243 -4.03099 0.870908 0
M  V30 4502 H 432.584 -0.55293 0.367647 0
M  V30 4503 H 435.114 -1.27696 1.59859 0
M  V30 4504 H 435.124 -3.72243 1.6703 0
M  V30 4505 H 433.799 -3.1762 2.68497 0
M  V30 4506 H 432.376 -3.61693 0.907323 0
M  V30 4507 N 434.561 -1.01147 -1.20859 0
M  V30 4508 C 435.524 -0.582224 -2.21682 0
M  V30 4509 C 436.524 0.344887 -1.57058 0
M  V30 4510 O 437.714 0.134281 -1.73682 0
M  V30 4511 C 434.846 0.150496 -3.40568 0
M  V30 4512 H 436.039 -1.47408 -2.61172 0
M  V30 4513 H 433.592 -0.800695 -1.34233 0
M  V30 4514 H 434.327 1.0575 -3.06574 0
M  V30 4515 H 434.112 -0.515444 -3.88697 0
M  V30 4516 H 435.602 0.438344 -4.15293 0
M  V30 4517 N 436.039 1.36541 -0.78704 0
M  V30 4518 C 437.45 1.81873 -0.421807 0
M  V30 4519 C 437.801 1.65487 1.05397 0
M  V30 4520 O 436.926 1.17448 1.81755 0
M  V30 4521 C 437.521 3.30192 -0.758841 0
M  V30 4522 C 436.08 3.73743 -0.446468 0
M  V30 4523 C 435.227 2.58844 -0.994728 0
M  V30 4524 H 438.178 1.24796 -0.98039 0
M  V30 4525 H 438.199 3.80468 -0.0490648 0
M  V30 4526 H 437.711 3.42087 -1.83299 0
M  V30 4527 H 435.812 3.6741 0.619739 0
M  V30 4528 H 435.925 4.69272 -0.965415 0
M  V30 4529 H 434.289 2.51245 -0.418087 0
M  V30 4530 H 435.072 2.73525 -2.07458 0
M  V30 4531 N 437.518 0.538854 1.48102 0
M  V30 4532 C 438.764 0.00801365 2.02798 0
M  V30 4533 C 439.097 -1.3309 1.41424 0
M  V30 4534 O 438.372 -1.86169 0.563158 0
M  V30 4535 C 438.655 -0.104589 3.59948 0
M  V30 4536 C 438.508 1.26012 4.31788 0
M  V30 4537 C 439.827 -0.827055 4.32259 0
M  V30 4538 H 436.946 0.00438624 0.736987 0
M  V30 4539 H 439.588 0.6976 1.7673 0
M  V30 4540 H 437.738 -0.691893 3.82289 0
M  V30 4541 H 439.41 1.88922 4.2084 0
M  V30 4542 H 437.653 1.83968 3.92859 0
M  V30 4543 H 438.324 1.13424 5.40221 0
M  V30 4544 H 440.8 -0.328578 4.14801 0
M  V30 4545 H 439.676 -0.87476 5.41885 0
M  V30 4546 H 439.937 -1.87927 4.0017 0
M  V30 4547 N 438.996 -1.55193 0.274407 0
M  V30 4548 C 439.906 -2.26164 -0.623473 0
M  V30 4549 C 440.922 -1.28729 -1.17068 0
M  V30 4550 O 442.098 -1.61663 -1.20112 0
M  V30 4551 C 439.163 -2.96833 -1.7914 0
M  V30 4552 C 438.224 -4.09745 -1.28093 0
M  V30 4553 C 437.457 -4.77034 -2.3932 0
M  V30 4554 O 437.68 -4.4353 -3.5866 0
M  V30 4555 O 436.614 -5.64996 -2.07516 0
M  V30 4556 H 440.44 -3.03661 -0.0485661 0
M  V30 4557 H 438.025 -1.49341 0.0418382 0
M  V30 4558 H 439.907 -3.41248 -2.4724 0
M  V30 4559 H 438.582 -2.22253 -2.35341 0
M  V30 4560 H 437.489 -3.69787 -0.566416 0
M  V30 4561 H 438.822 -4.86224 -0.764683 0
M  V30 4562 N 440.474 -0.00167713 -1.576 0
M  V30 4563 C 441.404 0.988091 -2.11563 0
M  V30 4564 C 442.385 1.35736 -1.02517 0
M  V30 4565 O 443.57 1.44082 -1.30208 0
M  V30 4566 C 440.7 2.27941 -2.62031 0
M  V30 4567 C 439.654 2.0517 -3.75619 0
M  V30 4568 C 438.98 3.4033 -4.12407 0
M  V30 4569 C 440.28 1.41294 -5.02825 0
M  V30 4570 H 441.974 0.538771 -2.94513 0
M  V30 4571 H 439.52 0.257712 -1.41675 0
M  V30 4572 H 441.473 2.97539 -2.9841 0
M  V30 4573 H 440.197 2.74989 -1.76205 0
M  V30 4574 H 438.856 1.37998 -3.39635 0
M  V30 4575 H 438.504 3.85085 -3.23603 0
M  V30 4576 H 438.204 3.25909 -4.88935 0
M  V30 4577 H 439.728 4.1124 -4.51347 0
M  V30 4578 H 441.142 2.00851 -5.36965 0
M  V30 4579 H 439.539 1.37356 -5.84169 0
M  V30 4580 H 440.609 0.382362 -4.8339 0
M  V30 4581 N 441.952 1.55251 0.271103 0
M  V30 4582 C 443.201 1.75151 1.00025 0
M  V30 4583 C 443.514 0.561041 1.87381 0
M  V30 4584 O 444.72 0.642506 2.63788 0
M  V30 4585 C 443.176 3.09999 1.82835 0
M  V30 4586 C 442.784 4.3662 1.00336 0
M  V30 4587 C 444.528 3.39249 2.55168 0
M  V30 4588 C 442.435 5.62506 1.82595 0
M  V30 4589 H 441.365 0.652877 0.377183 0
M  V30 4590 H 444.016 1.81708 0.255843 0
M  V30 4591 H 442.398 2.97485 2.61378 0
M  V30 4592 H 443.572 4.60055 0.261959 0
M  V30 4593 H 441.887 4.14527 0.394486 0
M  V30 4594 H 444.484 4.3051 3.1712 0
M  V30 4595 H 444.827 2.59467 3.2555 0
M  V30 4596 H 445.36 3.52869 1.83653 0
M  V30 4597 H 442.099 6.45041 1.16631 0
M  V30 4598 H 441.619 5.43211 2.54327 0
M  V30 4599 H 443.298 6.00875 2.39913 0
M  V30 4600 N 443.43 -0.535701 1.48216 0
M  V30 4601 C 444.36 -1.65014 1.65204 0
M  V30 4602 C 445.341 -1.62554 0.501011 0
M  V30 4603 O 446.526 -1.7984 0.732886 0
M  V30 4604 C 443.656 -3.03616 1.68626 0
M  V30 4605 C 442.61 -3.20932 2.83172 0
M  V30 4606 C 441.936 -4.60537 2.71679 0
M  V30 4607 C 443.236 -3.04249 4.24535 0
M  V30 4608 H 444.93 -1.51053 2.58502 0
M  V30 4609 H 442.476 -0.725262 1.24402 0
M  V30 4610 H 444.429 -3.81446 1.79099 0
M  V30 4611 H 443.153 -3.18587 0.719026 0
M  V30 4612 H 441.812 -2.45517 2.72244 0
M  V30 4613 H 441.46 -4.72336 1.72937 0
M  V30 4614 H 441.16 -4.73069 3.48538 0
M  V30 4615 H 442.684 -5.40475 2.84112 0
M  V30 4616 H 444.098 -3.71877 4.36326 0
M  V30 4617 H 442.495 -3.28278 5.02348 0
M  V30 4618 H 443.565 -2.00739 4.41397 0
M  V30 4619 N 444.908 -1.36708 -0.784132 0
M  V30 4620 C 446.133 -1.34565 -1.5782 0
M  V30 4621 C 446.558 0.0695257 -1.87971 0
M  V30 4622 O 445.916 1.04302 -1.48293 0
M  V30 4623 C 445.964 -2.17952 -2.87279 0
M  V30 4624 O 445.068 -1.57563 -3.81114 0
M  V30 4625 H 444.409 -0.460337 -0.478524 0
M  V30 4626 H 446.939 -1.80064 -0.971495 0
M  V30 4627 H 446.949 -2.30721 -3.365 0
M  V30 4628 H 445.624 -3.20823 -2.64661 0
M  V30 4629 H 444.201 -1.53764 -3.39722 0
M  V30 4630 N 446.386 1.0089 -1.21074 0
M  V30 4631 C 447.663 1.71834 -0.934469 0
M  V30 4632 C 448.043 2.0368 0.554753 0
M  V30 4633 O 447.391 1.70742 1.51854 0
M  V30 4634 C 447.601 2.98061 -1.8155 0
M  V30 4635 C 448.949 3.7117 -2.06199 0
M  V30 4636 O 449.973 3.08034 -1.78867 0
M  V30 4637 O 448.832 4.84721 -2.52404 0
M  V30 4638 H 445.926 0.749253 -0.35007 0
M  V30 4639 H 448.472 1.06668 -1.31985 0
M  V30 4640 H 447.244 2.70908 -2.82355 0
M  V30 4641 H 446.867 3.70968 -1.43068 0
M  V30 4642 N 447.864 1.01787 1.20321 0
M  V30 4643 C 448.774 0.598898 2.26827 0
M  V30 4644 C 449.79 -0.36418 1.70146 0
M  V30 4645 O 450.966 -0.224812 2.00141 0
M  V30 4646 C 448.031 -0.0549769 3.46656 0
M  V30 4647 C 447.092 0.954205 4.18561 0
M  V30 4648 C 446.325 0.331439 5.3267 0
M  V30 4649 O 446.548 -0.86851 5.63749 0
M  V30 4650 O 445.482 1.0488 5.92692 0
M  V30 4651 H 449.308 1.48562 2.64883 0
M  V30 4652 H 446.893 0.787434 1.26964 0
M  V30 4653 H 448.775 -0.420102 4.19301 0
M  V30 4654 H 447.45 -0.915876 3.10473 0
M  V30 4655 H 446.357 1.37072 3.48083 0
M  V30 4656 H 447.69 1.78511 4.58688 0
M  V30 4657 N 449.342 -1.36122 0.79427 0
M  V30 4658 C 450.57 -2.03362 0.380989 0
M  V30 4659 C 450.985 -1.59881 -1.00416 0
M  V30 4660 O 450.342 -0.790515 -1.6449 0
M  V30 4661 C 450.393 -3.58804 0.440649 0
M  V30 4662 O 450.114 -4.007 1.77118 0
M  V30 4663 C 451.615 -4.43296 0.0186117 0
M  V30 4664 H 448.835 -0.652526 0.156367 0
M  V30 4665 H 451.379 -1.73998 1.07447 0
M  V30 4666 H 449.534 -3.8686 -0.204458 0
M  V30 4667 H 449.948 -4.95309 1.72538 0
M  V30 4668 H 451.422 -5.51887 0.111488 0
M  V30 4669 H 451.899 -4.2684 -1.03461 0
M  V30 4670 H 452.505 -4.20512 0.636395 0
M  V30 4671 N 450.82 -0.546701 -1.47814 0
M  V30 4672 C 451.75 0.195317 -2.32682 0
M  V30 4673 C 452.731 0.918981 -1.43139 0
M  V30 4674 O 453.916 0.901501 -1.72008 0
M  V30 4675 C 451.046 1.23237 -3.247 0
M  V30 4676 C 450 0.625818 -4.234 0
M  V30 4677 C 449.326 1.76674 -5.04669 0
M  V30 4678 C 450.626 -0.413515 -5.2066 0
M  V30 4679 H 452.32 -0.513184 -2.94969 0
M  V30 4680 H 449.866 -0.248241 -1.41844 0
M  V30 4681 H 451.819 1.75955 -3.82907 0
M  V30 4682 H 450.543 1.97067 -2.60446 0
M  V30 4683 H 449.202 0.120023 -3.66403 0
M  V30 4684 H 448.85 2.49383 -4.36826 0
M  V30 4685 H 448.55 1.36673 -5.71484 0
M  V30 4686 H 450.074 2.29738 -5.65732 0
M  V30 4687 H 451.488 0.0272042 -5.73294 0
M  V30 4688 H 449.885 -0.731825 -5.95621 0
M  V30 4689 H 450.955 -1.31325 -4.66778 0
M  V30 4690 N 452.299 1.55045 -0.282633 0
M  V30 4691 C 453.71 1.85473 0.213655 0
M  V30 4692 C 454.061 1.20465 1.54863 0
M  V30 4693 O 453.186 0.495676 2.10647 0
M  V30 4694 C 453.781 3.36496 0.394445 0
M  V30 4695 C 452.34 3.67022 0.834961 0
M  V30 4696 C 451.487 2.77218 -0.0674081 0
M  V30 4697 H 454.438 1.50478 -0.504202 0
M  V30 4698 H 454.459 3.60007 1.23186 0
M  V30 4699 H 453.971 3.83782 -0.577326 0
M  V30 4700 H 452.072 3.25241 1.81794 0
M  V30 4701 H 452.185 4.74433 0.667075 0
M  V30 4702 H 450.549 2.5069 0.450196 0
M  V30 4703 H 451.332 3.2732 -1.0352 0
M  V30 4704 N 453.777 0.010035 1.57597 0
M  V30 4705 C 454.74 -0.963029 2.07986 0
M  V30 4706 C 455.74 -1.26619 0.991173 0
M  V30 4707 O 456.93 -1.2097 1.25347 0
M  V30 4708 C 454.062 -2.2851 2.52974 0
M  V30 4709 H 455.255 -0.526971 2.95234 0
M  V30 4710 H 452.808 -0.237639 1.54483 0
M  V30 4711 H 453.543 -2.76784 1.69 0
M  V30 4712 H 453.328 -2.07824 3.32493 0
M  V30 4713 H 454.818 -2.98294 2.9225 0
M  V30 4714 N 455.255 -1.55392 -0.262866 0
M  V30 4715 C 456.666 -1.67079 -0.833158 0
M  V30 4716 C 457.017 -0.604539 -1.86654 0
M  V30 4717 O 456.142 0.252138 -2.14926 0
M  V30 4718 C 456.737 -3.02891 -1.51797 0
M  V30 4719 C 455.296 -3.16571 -2.03617 0
M  V30 4720 C 454.443 -2.62909 -0.881701 0
M  V30 4721 H 457.394 -1.58652 -0.0389986 0
M  V30 4722 H 457.415 -2.96445 -2.38538 0
M  V30 4723 H 456.927 -3.80473 -0.765619 0
M  V30 4724 H 455.028 -2.43782 -2.81782 0
M  V30 4725 H 455.141 -4.23271 -2.24452 0
M  V30 4726 H 453.505 -2.20324 -1.27786 0
M  V30 4727 H 454.288 -3.43003 -0.14269 0
M  V30 4728 N 456.733 0.527833 -1.48498 0
M  V30 4729 C 457.643 1.65907 -1.65867 0
M  V30 4730 C 458.659 1.6537 -0.541192 0
M  V30 4731 O 459.835 1.84282 -0.812534 0
M  V30 4732 C 456.9 3.02364 -1.69637 0
M  V30 4733 C 455.961 3.1374 -2.93028 0
M  V30 4734 C 455.194 4.43688 -2.96609 0
M  V30 4735 O 455.417 5.30913 -2.08538 0
M  V30 4736 O 454.351 4.59475 -3.88802 0
M  V30 4737 H 458.177 1.5419 -2.61647 0
M  V30 4738 H 455.762 0.701163 -1.31924 0
M  V30 4739 H 457.644 3.83515 -1.74625 0
M  V30 4740 H 456.319 3.14401 -0.770312 0
M  V30 4741 H 455.226 2.31877 -2.93571 0
M  V30 4742 H 456.559 3.06621 -3.85026 0
M  V30 4743 N 458.211 1.37122 0.776871 0
M  V30 4744 C 459.458 1.32047 1.53524 0
M  V30 4745 C 459.786 -0.0965631 1.9426 0
M  V30 4746 O 459.041 -1.06866 1.63945 0
M  V30 4747 C 459.34 2.20068 2.81611 0
M  V30 4748 C 459.006 3.68423 2.59953 0
M  V30 4749 C 457.668 4.08854 2.53755 0
M  V30 4750 C 460.02 4.62431 2.40431 0
M  V30 4751 C 457.348 5.41417 2.26018 0
M  V30 4752 C 459.7 5.95225 2.14219 0
M  V30 4753 C 458.364 6.34767 2.06462 0
M  V30 4754 H 457.634 0.483196 0.561785 0
M  V30 4755 H 460.281 1.69284 0.895268 0
M  V30 4756 H 458.586 1.75809 3.50141 0
M  V30 4757 H 460.283 2.13458 3.39465 0
M  V30 4758 H 456.873 3.36354 2.65638 0
M  V30 4759 H 461.057 4.32057 2.44213 0
M  V30 4760 H 456.313 5.71022 2.18504 0
M  V30 4761 H 460.487 6.67626 1.98112 0
M  V30 4762 H 458.114 7.37413 1.84733 0
M  V30 4763 N 459.689 -1.00246 1.21608 0
M  V30 4764 C 460.914 -1.78167 1.06167 0
M  V30 4765 C 461.339 -1.84138 -0.384035 0
M  V30 4766 O 460.697 -1.28683 -1.27712 0
M  V30 4767 C 460.745 -3.19786 1.66642 0
M  V30 4768 O 459.849 -4.02153 0.913613 0
M  V30 4769 H 459.19 -0.549 0.37349 0
M  V30 4770 H 461.72 -1.25994 1.61204 0
M  V30 4771 H 461.73 -3.70451 1.70969 0
M  V30 4772 H 460.405 -3.14754 2.7185 0
M  V30 4773 H 458.982 -3.60711 0.945635 0
M  V30 4774 N 461.167 -1.02423 -1.1978 0
M  V30 4775 C 462.578 -0.748389 -1.71044 0
M  V30 4776 C 462.929 0.732398 -1.82017 0
M  V30 4777 O 462.054 1.57116 -1.48807 0
M  V30 4778 C 462.649 -1.35187 -3.1066 0
M  V30 4779 C 461.208 -1.12472 -3.59203 0
M  V30 4780 C 460.355 -1.45283 -2.36195 0
M  V30 4781 H 463.306 -1.19275 -1.04686 0
M  V30 4782 H 463.327 -0.746408 -3.73107 0
M  V30 4783 H 462.839 -2.4296 -3.02642 0
M  V30 4784 H 460.94 -0.0649983 -3.72543 0
M  V30 4785 H 461.053 -1.81016 -4.43588 0
M  V30 4786 H 459.417 -0.872034 -2.39307 0
M  V30 4787 H 460.2 -2.54129 -2.30811 0
M  V30 4788 N 462.645 1.35699 -0.801477 0
M  V30 4789 C 463.555 2.33661 -0.209691 0
M  V30 4790 C 464.571 1.6162 0.644591 0
M  V30 4791 O 465.747 1.93529 0.557545 0
M  V30 4792 C 462.812 3.40816 0.636033 0
M  V30 4793 C 461.873 4.28639 -0.238147 0
M  V30 4794 C 461.106 5.30676 0.567307 0
M  V30 4795 O 461.329 5.41174 1.8024 0
M  V30 4796 O 460.263 6.01887 -0.0391336 0
M  V30 4797 H 464.089 2.8606 -1.01996 0
M  V30 4798 H 461.674 1.38379 -0.563164 0
M  V30 4799 H 463.556 4.06301 1.11791 0
M  V30 4800 H 462.231 2.90696 1.42399 0
M  V30 4801 H 461.138 3.66152 -0.767044 0
M  V30 4802 H 462.471 4.82143 -0.989915 0
M  V30 4803 N 464.123 0.554532 1.47522 0
M  V30 4804 C 465.534 0.120446 1.86311 0
M  V30 4805 C 465.885 -1.30904 1.46145 0
M  V30 4806 O 465.01 -1.98434 0.863294 0
M  V30 4807 C 465.605 0.211808 3.38137 0
M  V30 4808 C 464.164 -0.167224 3.76028 0
M  V30 4809 C 463.311 0.560576 2.71575 0
M  V30 4810 H 466.262 0.764408 1.39077 0
M  V30 4811 H 466.283 -0.570275 3.76202 0
M  V30 4812 H 465.795 1.25232 3.6734 0
M  V30 4813 H 463.896 -1.20894 3.52442 0
M  V30 4814 H 464.009 0.189473 4.78725 0
M  V30 4815 H 462.373 0.00396836 2.547 0
M  V30 4816 H 463.156 1.60219 3.0362 0
M  V30 4817 N 465.601 -1.54893 0.290851 0
M  V30 4818 C 466.511 -2.26812 -0.59945 0
M  V30 4819 C 467.527 -1.29963 -1.15696 0
M  V30 4820 O 468.703 -1.62928 -1.18391 0
M  V30 4821 C 465.768 -2.98716 -1.75982 0
M  V30 4822 C 464.829 -4.1108 -1.2374 0
M  V30 4823 C 464.062 -4.79546 -2.34246 0
M  V30 4824 O 464.285 -4.47309 -3.53936 0
M  V30 4825 O 463.219 -5.67165 -2.01512 0
M  V30 4826 H 467.045 -3.03696 -0.0163561 0
M  V30 4827 H 464.63 -1.49289 0.0576755 0
M  V30 4828 H 466.512 -3.43851 -2.43607 0
M  V30 4829 H 465.187 -2.24737 -2.3297 0
M  V30 4830 H 464.094 -3.70367 -0.527163 0
M  V30 4831 H 465.427 -4.87007 -0.71307 0
M  V30 4832 N 467.08 -0.0183926 -1.57589 0
M  V30 4833 C 468.305 0.676634 -1.96052 0
M  V30 4834 C 468.73 1.6548 -0.894307 0
M  V30 4835 O 468.088 1.80712 0.145849 0
M  V30 4836 C 468.136 1.36872 -3.33614 0
M  V30 4837 O 467.24 2.48372 -3.29219 0
M  V30 4838 H 466.581 0.1786 -0.63953 0
M  V30 4839 H 469.111 -0.077056 -2.04455 0
M  V30 4840 H 469.121 1.72797 -3.69601 0
M  V30 4841 H 467.796 0.651636 -4.10763 0
M  V30 4842 H 466.373 2.14639 -3.04934 0
M  V30 4843 N 468.558 1.5553 0.254621 0
M  V30 4844 C 469.806 1.7665 0.981793 0
M  V30 4845 C 470.127 0.580963 1.86145 0
M  V30 4846 O 469.397 -0.403537 1.91699 0
M  V30 4847 H 467.977 0.651475 0.365498 0
M  V30 4848 H 470.639 1.92958 0.274426 0
M  V30 4849 H 469.735 2.67486 1.60802 0
M  V30 4850 N 470.036 -0.519951 1.48776 0
M  V30 4851 C 471.452 -0.849418 1.35119 0
M  V30 4852 C 471.652 -1.98077 0.36982 0
M  V30 4853 O 470.708 -2.51664 -0.205359 0
M  V30 4854 C 472.021 -1.20748 2.75391 0
M  V30 4855 C 473.569 -1.31679 2.83954 0
M  V30 4856 C 474.044 -1.70824 4.24951 0
M  V30 4857 N 475.535 -1.77908 4.27672 0
M  V30 4858 C 476.27 -2.09603 5.33717 0
M  V30 4859 N 475.766 -2.39652 6.5003 0
M  V30 4860 N 477.559 -2.10694 5.21119 0
M  V30 4861 H 469.71 0.226377 2.1119 0
M  V30 4862 H 471.973 0.0386519 0.947212 0
M  V30 4863 H 471.679 -0.449703 3.48813 0
M  V30 4864 H 471.553 -2.15534 3.09556 0
M  V30 4865 H 473.94 -2.06532 2.10781 0
M  V30 4866 H 474.021 -0.3499 2.53396 0
M  V30 4867 H 473.665 -0.965282 4.98643 0
M  V30 4868 H 473.595 -2.6858 4.52959 0
M  V30 4869 H 476.086 -1.56923 3.43779 0
M  V30 4870 H 476.399 -2.6297 7.26682 0
M  V30 4871 H 474.744 -2.37149 6.53288 0
M  V30 4872 H 477.935 -1.86682 4.29264 0
M  V30 4873 H 478.108 -2.35062 6.03863 0
M  V30 4874 N 471.514 -1.37532 -0.769588 0
M  V30 4875 C 472.477 -1.33292 -1.86456 0
M  V30 4876 C 473.477 -0.236537 -1.59051 0
M  V30 4877 O 474.667 -0.492511 -1.67093 0
M  V30 4878 C 471.799 -1.07118 -3.23633 0
M  V30 4879 H 472.992 -2.30692 -1.91628 0
M  V30 4880 H 470.545 -1.22593 -0.969572 0
M  V30 4881 H 471.28 -0.102578 -3.24138 0
M  V30 4882 H 471.065 -1.86479 -3.44917 0
M  V30 4883 H 472.555 -1.06806 -4.03711 0
M  V30 4884 N 472.992 0.995999 -1.22138 0
M  V30 4885 C 473.922 2.10387 -1.01289 0
M  V30 4886 C 474.903 1.69975 0.0651454 0
M  V30 4887 O 476.088 1.9396 -0.0964628 0
M  V30 4888 C 473.218 3.42312 -0.586517 0
M  V30 4889 C 472.172 3.96558 -1.61014 0
M  V30 4890 C 471.498 5.24494 -1.0397 0
M  V30 4891 C 472.798 4.27595 -2.99933 0
M  V30 4892 H 474.492 2.28086 -1.93951 0
M  V30 4893 H 472.038 1.09607 -0.933928 0
M  V30 4894 H 473.991 4.19223 -0.427793 0
M  V30 4895 H 472.715 3.24431 0.375761 0
M  V30 4896 H 471.374 3.21776 -1.75658 0
M  V30 4897 H 471.022 5.02953 -0.0688703 0
M  V30 4898 H 470.722 5.61755 -1.72352 0
M  V30 4899 H 472.246 6.04042 -0.892494 0
M  V30 4900 H 473.66 4.95315 -2.8868 0
M  V30 4901 H 472.057 4.76021 -3.6541 0
M  V30 4902 H 473.127 3.35498 -3.50099 0
M  V30 4903 N 474.47 1.03057 1.19235 0
M  V30 4904 C 475.886 0.747947 1.40989 0
M  V30 4905 C 476.086 -0.666752 1.90149 0
M  V30 4906 O 475.142 -1.43249 2.07933 0
M  V30 4907 C 476.455 1.7855 2.41951 0
M  V30 4908 C 478.003 1.80524 2.55695 0
M  V30 4909 C 478.478 2.83243 3.59913 0
M  V30 4910 N 479.969 2.8207 3.67411 0
M  V30 4911 C 480.704 3.58204 4.47747 0
M  V30 4912 N 480.2 4.44057 5.31775 0
M  V30 4913 N 481.993 3.46738 4.42413 0
M  V30 4914 H 474.144 1.94367 0.856468 0
M  V30 4915 H 476.407 0.840412 0.438647 0
M  V30 4916 H 476.113 2.79973 2.12857 0
M  V30 4917 H 475.987 1.6092 3.41152 0
M  V30 4918 H 478.374 0.79778 2.84112 0
M  V30 4919 H 478.455 2.02229 1.56643 0
M  V30 4920 H 478.099 3.84161 3.32239 0
M  V30 4921 H 478.029 2.58795 4.5862 0
M  V30 4922 H 480.52 2.19803 3.074 0
M  V30 4923 H 480.833 4.98884 5.90199 0
M  V30 4924 H 479.178 4.48129 5.3123 0
M  V30 4925 H 482.369 2.79077 3.75811 0
M  V30 4926 H 482.542 4.06322 5.04783 0
M  V30 4927 N 475.948 -1.35272 0.808662 0
M  V30 4928 C 476.878 -2.32315 0.234981 0
M  V30 4929 C 477.859 -1.57572 -0.64071 0
M  V30 4930 O 479.044 -1.8563 -0.570551 0
M  V30 4931 C 476.174 -3.41801 -0.615601 0
M  V30 4932 C 475.128 -4.27694 0.161767 0
M  V30 4933 C 474.454 -5.28519 -0.810649 0
M  V30 4934 C 475.754 -5.04231 1.36193 0
M  V30 4935 H 477.448 -2.80543 1.04575 0
M  V30 4936 H 474.994 -1.3488 0.504315 0
M  V30 4937 H 476.947 -4.08693 -1.02702 0
M  V30 4938 H 475.671 -2.92186 -1.45928 0
M  V30 4939 H 474.33 -3.62384 0.554382 0
M  V30 4940 H 473.978 -4.75171 -1.64988 0
M  V30 4941 H 473.678 -5.8686 -0.294822 0
M  V30 4942 H 475.202 -5.98283 -1.22023 0
M  V30 4943 H 476.616 -5.64058 1.02528 0
M  V30 4944 H 475.013 -5.72077 1.81239 0
M  V30 4945 H 476.083 -4.34753 2.14751 0
M  V30 4946 N 477.426 -0.562348 -1.47226 0
M  V30 4947 C 478.842 -0.222492 -1.58042 0
M  V30 4948 C 479.042 1.27505 -1.56028 0
M  V30 4949 O 478.098 2.05555 -1.46641 0
M  V30 4950 C 479.411 -0.853694 -2.88327 0
M  V30 4951 C 480.959 -0.825397 -3.01921 0
M  V30 4952 C 481.434 -1.43576 -4.34914 0
M  V30 4953 N 482.925 -1.39918 -4.41562 0
M  V30 4954 C 483.66 -1.84103 -5.43041 0
M  V30 4955 N 483.156 -2.36167 -6.51304 0
M  V30 4956 N 484.949 -1.75142 -5.34118 0
M  V30 4957 H 477.1 -1.53525 -1.46778 0
M  V30 4958 H 479.363 -0.640527 -0.698877 0
M  V30 4959 H 479.069 -1.90635 -2.95552 0
M  V30 4960 H 478.943 -0.34977 -3.75575 0
M  V30 4961 H 481.33 0.218583 -2.94289 0
M  V30 4962 H 481.411 -1.36713 -2.16202 0
M  V30 4963 H 481.055 -2.47884 -4.43301 0
M  V30 4964 H 480.985 -0.869427 -5.19373 0
M  V30 4965 H 483.476 -1.0184 -3.63919 0
M  V30 4966 H 483.789 -2.67793 -7.24919 0
M  V30 4967 H 482.134 -2.40181 -6.52179 0
M  V30 4968 H 485.325 -1.34241 -4.48439 0
M  V30 4969 H 485.498 -2.09895 -6.13065 0
M  V30 4970 N 478.904 1.54736 -0.299062 0
M  V30 4971 C 480.144 2.0201 0.31168 0
M  V30 4972 C 480.508 1.18281 1.5124 0
M  V30 4973 O 481.709 1.55243 2.19438 0
M  V30 4974 C 479.98 3.5123 0.661227 0
M  V30 4975 S 481.539 4.20467 1.2551 0
M  V30 4976 H 478.357 0.704523 0.0957517 0
M  V30 4977 H 480.959 1.90791 -0.426482 0
M  V30 4978 H 479.663 4.09804 -0.221171 0
M  V30 4979 H 479.194 3.66481 1.43023 0
M  V30 4980 H 481.209 4.26083 2.54298 0
M  V30 4981 N 480.382 0.0267497 1.57577 0
M  V30 4982 C 481.312 -0.954308 2.13108 0
M  V30 4983 C 482.293 -1.34088 1.04663 0
M  V30 4984 O 483.478 -1.41992 1.32484 0
M  V30 4985 C 480.608 -2.23744 2.65624 0
M  V30 4986 C 479.562 -1.99168 3.78835 0
M  V30 4987 C 478.888 -3.33726 4.17769 0
M  V30 4988 C 480.188 -1.33277 5.0501 0
M  V30 4989 H 481.882 -0.491848 2.95332 0
M  V30 4990 H 479.428 -0.23514 1.42067 0
M  V30 4991 H 481.381 -2.92754 3.03106 0
M  V30 4992 H 480.105 -2.72151 1.80558 0
M  V30 4993 H 478.764 -1.32577 3.41788 0
M  V30 4994 H 478.412 -3.79888 3.29688 0
M  V30 4995 H 478.112 -3.18089 4.94058 0
M  V30 4996 H 479.636 -4.04008 4.57832 0
M  V30 4997 H 481.05 -1.92283 5.40093 0
M  V30 4998 H 479.447 -1.28045 5.8628 0
M  V30 4999 H 480.517 -0.305411 4.83937 0
M  V30 5000 N 481.861 -1.55662 -0.24637 0
M  V30 5001 C 482.824 -1.89558 -1.28842 0
M  V30 5002 C 483.824 -0.772082 -1.41052 0
M  V30 5003 O 485.014 -1.04007 -1.39743 0
M  V30 5004 C 482.146 -2.12449 -2.66605 0
M  V30 5005 H 483.339 -2.82735 -1.00004 0
M  V30 5006 H 480.892 -1.48562 -0.485684 0
M  V30 5007 H 481.627 -1.21742 -3.00582 0
M  V30 5008 H 481.412 -2.94273 -2.59125 0
M  V30 5009 H 482.902 -2.39854 -3.41847 0
M  V30 5010 N 483.339 0.512053 -1.4905 0
M  V30 5011 C 484.75 1.09376 -1.51307 0
M  V30 5012 C 485.101 1.94 -0.292971 0
M  V30 5013 O 484.226 2.07965 0.598277 0
M  V30 5014 C 484.821 1.99031 -2.74176 0
M  V30 5015 C 483.38 2.52385 -2.79247 0
M  V30 5016 C 482.527 1.29749 -2.45073 0
M  V30 5017 H 485.478 0.296467 -1.55906 0
M  V30 5018 H 485.499 2.83569 -2.53711 0
M  V30 5019 H 485.011 1.37412 -3.62959 0
M  V30 5020 H 483.112 3.17673 -1.94716 0
M  V30 5021 H 483.225 2.90293 -3.81139 0
M  V30 5022 H 481.589 1.61912 -1.96612 0
M  V30 5023 H 482.372 0.698555 -3.36118 0
M  V30 5024 N 484.817 1.37938 0.762283 0
M  V30 5025 C 485.747 1.37176 1.88958 0
M  V30 5026 C 486.728 0.238945 1.68413 0
M  V30 5027 O 487.913 0.440726 1.89133 0
M  V30 5028 C 485.043 1.18742 3.2637 0
M  V30 5029 C 483.997 2.29136 3.61498 0
M  V30 5030 C 483.323 1.95816 4.97554 0
M  V30 5031 C 484.623 3.71363 3.6727 0
M  V30 5032 H 486.317 2.31509 1.89853 0
M  V30 5033 H 483.863 1.11438 0.912005 0
M  V30 5034 H 485.816 1.16837 4.04879 0
M  V30 5035 H 484.54 0.208683 3.25933 0
M  V30 5036 H 483.199 2.30213 2.85303 0
M  V30 5037 H 482.847 0.964475 4.93667 0
M  V30 5038 H 482.547 2.69745 5.22026 0
M  V30 5039 H 484.071 1.95513 5.78452 0
M  V30 5040 H 485.485 3.72364 4.35911 0
M  V30 5041 H 483.882 4.44425 4.03245 0
M  V30 5042 H 484.952 4.04305 2.67704 0
M  V30 5043 N 486.295 -0.989507 1.22664 0
M  V30 5044 C 487.205 -2.11449 1.01619 0
M  V30 5045 C 488.221 -1.73962 -0.036545 0
M  V30 5046 O 489.397 -2.00788 0.156924 0
M  V30 5047 C 486.462 -3.41465 0.600204 0
M  V30 5048 C 485.523 -3.93033 1.72695 0
M  V30 5049 C 484.756 -5.16844 1.33071 0
M  V30 5050 O 484.979 -5.7001 0.210975 0
M  V30 5051 O 483.913 -5.6225 2.14845 0
M  V30 5052 H 487.739 -2.32088 1.9588 0
M  V30 5053 H 485.324 -1.09823 1.01289 0
M  V30 5054 H 487.206 -4.19695 0.37873 0
M  V30 5055 H 485.881 -3.22178 -0.313511 0
M  V30 5056 H 484.788 -3.15961 2.00298 0
M  V30 5057 H 486.121 -4.16758 2.61865 0
M  V30 5058 N 487.773 -1.03688 -1.18687 0
M  V30 5059 C 489.021 -0.736572 -1.88199 0
M  V30 5060 C 489.342 0.737665 -1.80509 0
M  V30 5061 O 488.612 1.53204 -1.22088 0
M  V30 5062 H 487.192 -0.269466 -0.696704 0
M  V30 5063 H 489.854 -1.31282 -1.44052 0
M  V30 5064 H 488.95 -1.03802 -2.94332 0
M  V30 5065 N 489.251 1.34841 -0.815825 0
M  V30 5066 C 490.214 2.27959 -0.238185 0
M  V30 5067 C 491.214 1.49983 0.579816 0
M  V30 5068 O 492.404 1.69617 0.396953 0
M  V30 5069 C 489.536 3.34314 0.666876 0
M  V30 5070 H 490.729 2.80558 -1.05958 0
M  V30 5071 H 488.282 1.44852 -0.587156 0
M  V30 5072 H 489.017 2.86916 1.5116 0
M  V30 5073 H 488.802 3.92014 0.0819106 0
M  V30 5074 H 490.292 4.0379 1.06506 0
M  V30 5075 N 490.729 0.570148 1.46925 0
M  V30 5076 C 492.145 0.23087 1.57921 0
M  V30 5077 C 492.345 -1.26676 1.56702 0
M  V30 5078 O 491.401 -2.04774 1.47729 0
M  V30 5079 C 492.714 0.868973 2.8787 0
M  V30 5080 C 494.262 0.841397 3.01479 0
M  V30 5081 C 494.737 1.45881 4.34146 0
M  V30 5082 N 496.228 1.42258 4.40814 0
M  V30 5083 C 496.963 1.8698 5.42057 0
M  V30 5084 N 496.459 2.39618 6.50042 0
M  V30 5085 N 498.252 1.77972 5.33181 0
M  V30 5086 H 490.403 1.54301 1.45962 0
M  V30 5087 H 492.666 0.644224 0.69547 0
M  V30 5088 H 492.372 1.922 2.94537 0
M  V30 5089 H 492.246 0.369682 3.75384 0
M  V30 5090 H 494.633 -0.202973 2.94401 0
M  V30 5091 H 494.714 1.37858 2.15474 0
M  V30 5092 H 494.358 2.50231 4.4198 0
M  V30 5093 H 494.288 0.896958 5.18905 0
M  V30 5094 H 496.779 1.03768 3.63374 0
M  V30 5095 H 497.092 2.71633 7.23488 0
M  V30 5096 H 495.437 2.43636 6.50897 0
M  V30 5097 H 498.628 1.36617 4.4772 0
M  V30 5098 H 498.801 2.13143 6.11943 0
M  V30 5099 N 492.207 -1.54576 0.307264 0
M  V30 5100 C 493.454 -2.00263 -0.300167 0
M  V30 5101 C 493.782 -1.19561 -1.53413 0
M  V30 5102 O 493.037 -0.261487 -1.93945 0
M  V30 5103 C 493.336 -3.50572 -0.695253 0
M  V30 5104 C 493.002 -4.48771 0.437679 0
M  V30 5105 C 491.664 -4.7534 0.748681 0
M  V30 5106 C 494.016 -5.0721 1.19949 0
M  V30 5107 C 491.344 -5.5761 1.8245 0
M  V30 5108 C 493.696 -5.90651 2.26527 0
M  V30 5109 C 492.36 -6.15528 2.58227 0
M  V30 5110 H 491.63 -0.732814 -0.109839 0
M  V30 5111 H 494.277 -1.86664 0.427661 0
M  V30 5112 H 492.582 -3.61814 -1.50326 0
M  V30 5113 H 494.279 -3.83352 -1.17653 0
M  V30 5114 H 490.869 -4.282 0.185187 0
M  V30 5115 H 495.053 -4.86679 0.972474 0
M  V30 5116 H 490.309 -5.75121 2.07476 0
M  V30 5117 H 494.483 -6.34957 2.86011 0
M  V30 5118 H 492.11 -6.79066 3.4172 0
M  V30 5119 N 493.685 -0.035106 -1.57561 0
M  V30 5120 C 494.648 0.929819 -2.09492 0
M  V30 5121 C 495.648 1.25026 -1.01119 0
M  V30 5122 O 496.838 1.18961 -1.27255 0
M  V30 5123 C 493.97 2.24457 -2.56577 0
M  V30 5124 H 495.163 0.479935 -2.96035 0
M  V30 5125 H 492.716 0.213033 -1.54841 0
M  V30 5126 H 493.451 2.74061 -1.73382 0
M  V30 5127 H 493.236 2.02508 -3.35757 0
M  V30 5128 H 494.726 2.93607 -2.96959 0
M  V30 5129 N 495.163 1.55791 0.238111 0
M  V30 5130 C 496.093 1.94068 1.29846 0
M  V30 5131 C 497.074 0.806726 1.49753 0
M  V30 5132 O 498.259 1.06772 1.62214 0
M  V30 5133 C 495.389 2.24302 2.65153 0
M  V30 5134 C 494.343 3.40032 2.59927 0
M  V30 5135 C 493.669 3.55829 3.99111 0
M  V30 5136 C 494.969 4.75476 2.16148 0
M  V30 5137 H 496.663 2.82887 0.980563 0
M  V30 5138 H 494.209 1.36105 0.470253 0
M  V30 5139 H 496.162 2.4967 3.39475 0
M  V30 5140 H 494.886 1.32318 2.98596 0
M  V30 5141 H 493.545 3.14687 1.88063 0
M  V30 5142 H 493.193 2.6125 4.29834 0
M  V30 5143 H 492.893 4.3366 3.96501 0
M  V30 5144 H 494.417 3.83528 4.7512 0
M  V30 5145 H 495.831 5.00158 2.80205 0
M  V30 5146 H 494.228 5.56472 2.24631 0
M  V30 5147 H 495.298 4.71946 1.11333 0
M  V30 5148 N 496.642 -0.504142 1.49319 0
M  V30 5149 C 497.888 -1.26033 1.58882 0
M  V30 5150 C 498.221 -1.92268 0.273274 0
M  V30 5151 O 497.496 -1.80567 -0.72291 0
M  V30 5152 C 497.779 -2.32976 2.7458 0
M  V30 5153 C 497.632 -1.71263 4.1592 0
M  V30 5154 C 498.951 -3.34561 2.85932 0
M  V30 5155 H 496.07 -0.456863 0.578312 0
M  V30 5156 H 498.712 -0.558965 1.81592 0
M  V30 5157 H 496.862 -2.92796 2.55348 0
M  V30 5158 H 498.534 -1.15294 4.4666 0
M  V30 5159 H 496.777 -1.01686 4.21714 0
M  V30 5160 H 497.448 -2.48816 4.92742 0
M  V30 5161 H 499.924 -2.84727 3.0343 0
M  V30 5162 H 498.8 -4.06754 3.68568 0
M  V30 5163 H 499.061 -3.96695 1.95154 0
M  V30 5164 N 498.12 -1.38341 -0.754957 0
M  V30 5165 C 499.536 -1.19508 -1.05783 0
M  V30 5166 C 499.736 -0.0428005 -2.01455 0
M  V30 5167 O 498.792 0.611861 -2.44975 0
M  V30 5168 C 500.105 -2.52091 -1.63923 0
M  V30 5169 C 501.653 -2.58762 -1.76101 0
M  V30 5170 C 502.128 -3.91517 -2.37652 0
M  V30 5171 N 503.619 -3.93049 -2.45085 0
M  V30 5172 C 504.354 -4.9253 -2.93602 0
M  V30 5173 N 503.85 -6.02408 -3.42165 0
M  V30 5174 N 505.643 -4.79921 -2.92629 0
M  V30 5175 H 497.794 -2.1206 -0.120056 0
M  V30 5176 H 500.057 -0.94089 -0.11589 0
M  V30 5177 H 499.763 -3.36858 -1.01093 0
M  V30 5178 H 499.637 -2.70388 -2.63003 0
M  V30 5179 H 502.024 -1.74391 -2.38058 0
M  V30 5180 H 502.105 -2.44333 -0.757294 0
M  V30 5181 H 501.749 -4.76309 -1.76329 0
M  V30 5182 H 501.679 -4.03256 -3.38662 0
M  V30 5183 H 504.17 -3.13685 -2.10736 0
M  V30 5184 H 504.483 -6.74248 -3.77637 0
M  V30 5185 H 502.828 -6.0603 -3.40225 0
M  V30 5186 H 506.019 -3.93194 -2.54001 0
M  V30 5187 H 506.192 -5.57601 -3.30128 0
M  V30 5188 N 499.598 0.982988 -1.23187 0
M  V30 5189 C 500.508 2.10907 -1.02739 0
M  V30 5190 C 501.524 1.73979 0.0273188 0
M  V30 5191 O 502.7 2.00702 -0.16757 0
M  V30 5192 C 499.765 3.41142 -0.618304 0
M  V30 5193 C 498.826 3.92112 -1.74777 0
M  V30 5194 C 498.059 5.16131 -1.3581 0
M  V30 5195 O 498.282 5.6989 -0.241201 0
M  V30 5196 O 497.216 5.61103 -2.17824 0
M  V30 5197 H 501.042 2.31046 -1.97108 0
M  V30 5198 H 498.627 1.09284 -1.01869 0
M  V30 5199 H 500.509 4.19488 -0.400982 0
M  V30 5200 H 499.184 3.2234 0.296421 0
M  V30 5201 H 498.091 3.14895 -2.0197 0
M  V30 5202 H 499.424 4.15364 -2.64071 0
M  V30 5203 N 501.076 1.04316 1.18135 0
M  V30 5204 C 502.353 0.662166 1.84051 0
M  V30 5205 C 502.733 -0.858169 1.9287 0
M  V30 5206 O 502.081 -1.76062 1.45652 0
M  V30 5207 C 502.291 1.3409 3.22212 0
M  V30 5208 C 503.639 1.4733 3.9822 0
M  V30 5209 O 504.663 1.29921 3.31661 0
M  V30 5210 O 503.522 1.75722 5.17479 0
M  V30 5211 H 500.616 0.232005 0.79379 0
M  V30 5212 H 503.162 1.1422 1.25506 0
M  V30 5213 H 501.934 2.37853 3.10711 0
M  V30 5214 H 501.557 0.849649 3.88416 0
M  V30 5215 N 502.554 -1.34406 0.822964 0
M  V30 5216 C 503.97 -1.51275 0.508727 0
M  V30 5217 C 504.17 -1.76776 -0.967083 0
M  V30 5218 O 503.226 -1.81871 -1.75155 0
M  V30 5219 C 504.539 -2.67765 1.36829 0
M  V30 5220 C 506.087 -2.81647 1.36542 0
M  V30 5221 C 506.562 -4.01181 2.20947 0
M  V30 5222 N 508.053 -4.08388 2.18571 0
M  V30 5223 C 508.788 -5.00036 2.80627 0
M  V30 5224 N 508.284 -5.96906 3.51674 0
M  V30 5225 N 510.077 -4.92908 2.70181 0
M  V30 5226 H 502.228 -1.16113 1.77852 0
M  V30 5227 H 504.491 -0.56947 0.757897 0
M  V30 5228 H 504.197 -2.55551 2.41633 0
M  V30 5229 H 504.071 -3.62779 1.03303 0
M  V30 5230 H 506.458 -2.93303 0.325163 0
M  V30 5231 H 506.539 -1.87443 1.74066 0
M  V30 5232 H 506.183 -3.90286 3.25022 0
M  V30 5233 H 506.113 -4.94599 1.80774 0
M  V30 5234 H 508.604 -3.39051 1.66891 0
M  V30 5235 H 508.917 -6.63468 3.96271 0
M  V30 5236 H 507.262 -5.9703 3.5578 0
M  V30 5237 H 510.453 -4.1619 2.14251 0
M  V30 5238 H 510.626 -5.64137 3.18831 0
M  V30 5239 N 504.032 -0.577932 -1.46621 0
M  V30 5240 C 505.28 -0.061566 -2.02006 0
M  V30 5241 C 505.601 1.30117 -1.4524 0
M  V30 5242 O 504.871 1.85313 -0.63529 0
M  V30 5243 H 503.451 -0.0197692 -0.746738 0
M  V30 5244 H 506.113 -0.752631 -1.79782 0
M  V30 5245 H 505.209 0.0110238 -3.12098 0
M  V30 5246 N 505.51 1.54411 -0.315457 0
M  V30 5247 C 506.758 2.00023 0.288971 0
M  V30 5248 C 507.079 1.20529 1.5329 0
M  V30 5249 O 506.349 0.304986 1.93511 0
M  V30 5250 H 504.929 0.738891 0.109766 0
M  V30 5251 H 507.591 1.90094 -0.430129 0
M  V30 5252 H 506.687 3.07198 0.550999 0
M  V30 5253 N 506.988 0.0434614 1.5754 0
M  V30 5254 C 508.404 -0.313039 1.565 0
M  V30 5255 C 508.604 -1.71954 1.05043 0
M  V30 5256 O 507.66 -2.425 0.703564 0
M  V30 5257 C 508.973 -0.148544 3.00333 0
M  V30 5258 C 510.521 -0.220231 3.12224 0
M  V30 5259 C 510.996 -0.0843565 4.57922 0
M  V30 5260 N 512.487 -0.140881 4.62986 0
M  V30 5261 C 513.222 -0.0597443 5.73369 0
M  V30 5262 N 512.718 0.0733004 6.92761 0
M  V30 5263 N 514.511 -0.11477 5.61983 0
M  V30 5264 H 506.662 0.96303 1.89313 0
M  V30 5265 H 508.925 0.373164 0.871466 0
M  V30 5266 H 508.631 0.820894 3.41986 0
M  V30 5267 H 508.505 -0.912798 3.65989 0
M  V30 5268 H 510.892 -1.18014 2.70475 0
M  V30 5269 H 510.973 0.574646 2.49262 0
M  V30 5270 H 510.617 0.872192 5.00355 0
M  V30 5271 H 510.547 -0.898281 5.18882 0
M  V30 5272 H 513.038 -0.243273 3.77116 0
M  V30 5273 H 513.351 0.128128 7.72694 0
M  V30 5274 H 511.696 0.10828 6.94916 0
M  V30 5275 H 514.887 -0.217212 4.67596 0
M  V30 5276 H 515.06 -0.0480779 6.47982 0
M  V30 5277 N 508.466 -1.55915 -0.229846 0
M  V30 5278 C 509.882 -1.48721 -0.579166 0
M  V30 5279 C 510.082 -0.736976 -1.87539 0
M  V30 5280 O 509.138 -0.273258 -2.51017 0
M  V30 5281 C 510.451 -2.9323 -0.666082 0
M  V30 5282 C 511.999 -3.03701 -0.757267 0
M  V30 5283 C 512.474 -4.49552 -0.8756 0
M  V30 5284 N 513.965 -4.53561 -0.940035 0
M  V30 5285 C 514.7 -5.63683 -1.05116 0
M  V30 5286 N 514.196 -6.83576 -1.12675 0
M  V30 5287 N 515.989 -5.51516 -1.08565 0
M  V30 5288 H 508.14 -2.03123 0.620857 0
M  V30 5289 H 510.403 -0.922898 0.21671 0
M  V30 5290 H 510.109 -3.51032 0.21664 0
M  V30 5291 H 509.983 -3.44668 -1.53243 0
M  V30 5292 H 512.37 -2.45969 -1.63043 0
M  V30 5293 H 512.451 -2.55446 0.134583 0
M  V30 5294 H 512.095 -5.079 -0.00692351 0
M  V30 5295 H 512.025 -4.95506 -1.78274 0
M  V30 5296 H 514.516 -3.67215 -0.892269 0
M  V30 5297 H 514.829 -7.63251 -1.21109 0
M  V30 5298 H 513.174 -6.86303 -1.09603 0
M  V30 5299 H 516.365 -4.5678 -1.02319 0
M  V30 5300 H 516.538 -6.37372 -1.1688 0
M  V30 5301 N 509.944 0.496216 -1.49584 0
M  V30 5302 C 511.19 1.25189 -1.59548 0
M  V30 5303 C 511.523 1.9212 -0.283466 0
M  V30 5304 O 510.798 1.80947 0.713324 0
M  V30 5305 C 511.081 2.31516 -2.75812 0
M  V30 5306 C 510.934 1.69054 -4.16822 0
M  V30 5307 C 512.253 3.3304 -2.87702 0
M  V30 5308 H 509.372 0.45379 -0.580727 0
M  V30 5309 H 512.014 0.549327 -1.81886 0
M  V30 5310 H 510.164 2.91438 -2.56897 0
M  V30 5311 H 511.836 1.12923 -4.47265 0
M  V30 5312 H 510.079 0.994485 -4.22247 0
M  V30 5313 H 510.75 2.462 -4.94054 0
M  V30 5314 H 513.226 2.83114 -3.04936 0
M  V30 5315 H 512.102 4.04794 -3.7072 0
M  V30 5316 H 512.363 3.95655 -1.97255 0
M  V30 5317 N 511.423 1.38739 0.74761 0
M  V30 5318 C 512.373 1.32948 1.85226 0
M  V30 5319 C 513.357 0.212642 1.59489 0
M  V30 5320 O 514.549 0.449121 1.71207 0
M  V30 5321 C 511.678 1.16279 3.23008 0
M  V30 5322 C 510.764 2.32611 3.54617 0
M  V30 5323 N 511.155 3.58065 3.57244 0
M  V30 5324 C 509.453 2.25293 3.84914 0
M  V30 5325 C 510.154 4.34919 3.8629 0
M  V30 5326 N 509.13 3.64348 4.03425 0
M  V30 5327 H 512.932 2.27927 1.85544 0
M  V30 5328 H 510.446 1.32056 0.945253 0
M  V30 5329 H 512.443 1.10214 4.02068 0
M  V30 5330 H 511.103 0.222394 3.23937 0
M  V30 5331 H 512.114 3.91656 3.3886 0
M  V30 5332 H 508.791 1.39446 3.93524 0
M  V30 5333 H 510.181 5.43605 3.94896 0
M  V30 5334 N 512.901 -0.976442 1.23707 0
M  V30 5335 C 514.317 -1.24341 1.00058 0
M  V30 5336 C 514.517 -1.99315 -0.295932 0
M  V30 5337 O 513.573 -2.3123 -1.01435 0
M  V30 5338 C 514.886 -2.03909 2.21001 0
M  V30 5339 C 516.434 -2.17034 2.25534 0
M  V30 5340 C 516.909 -2.99994 3.46075 0
M  V30 5341 N 518.4 -3.07578 3.46338 0
M  V30 5342 C 519.135 -3.72104 4.36264 0
M  V30 5343 N 518.631 -4.3842 5.36432 0
M  V30 5344 N 520.424 -3.69029 4.23998 0
M  V30 5345 H 512.575 -0.47428 2.07037 0
M  V30 5346 H 514.838 -0.272167 0.908091 0
M  V30 5347 H 514.544 -1.56198 3.15111 0
M  V30 5348 H 514.418 -3.04654 2.22409 0
M  V30 5349 H 516.805 -2.63951 1.31961 0
M  V30 5350 H 516.886 -1.15664 2.28156 0
M  V30 5351 H 516.53 -2.53772 4.39957 0
M  V30 5352 H 516.46 -4.01541 3.40694 0
M  V30 5353 H 518.951 -2.60397 2.73865 0
M  V30 5354 H 519.264 -4.85447 6.013 0
M  V30 5355 H 517.609 -4.37116 5.40328 0
M  V30 5356 H 520.8 -3.16392 3.44984 0
M  V30 5357 H 520.973 -4.19034 4.94282 0
M  V30 5358 N 514.379 -1.04941 -1.1758 0
M  V30 5359 C 515.626 -0.757989 -1.87779 0
M  V30 5360 C 515.954 0.714827 -1.80888 0
M  V30 5361 O 515.209 1.53824 -1.20982 0
M  V30 5362 C 515.508 -1.18062 -3.37337 0
M  V30 5363 C 515.174 -2.65521 -3.6443 0
M  V30 5364 C 513.836 -3.05804 -3.71534 0
M  V30 5365 C 516.188 -3.60822 -3.76108 0
M  V30 5366 C 513.516 -4.40256 -3.87803 0
M  V30 5367 C 515.868 -4.95005 -3.93895 0
M  V30 5368 C 514.532 -5.34945 -3.99237 0
M  V30 5369 H 513.802 -0.277368 -0.68713 0
M  V30 5370 H 516.449 -1.31603 -1.39115 0
M  V30 5371 H 514.754 -0.541525 -3.8804 0
M  V30 5372 H 516.451 -0.932368 -3.9001 0
M  V30 5373 H 513.041 -2.33324 -3.59524 0
M  V30 5374 H 517.225 -3.30841 -3.69943 0
M  V30 5375 H 512.481 -4.70707 -3.90186 0
M  V30 5376 H 516.655 -5.68746 -4.01872 0
M  V30 5377 H 514.282 -6.39135 -4.11596 0
M  V30 5378 N 515.857 1.33968 -0.830081 0
M  V30 5379 C 516.789 2.28194 -0.21448 0
M  V30 5380 C 517.802 1.5135 0.599752 0
M  V30 5381 O 518.991 1.73286 0.42826 0
M  V30 5382 C 516.091 3.31221 0.717356 0
M  V30 5383 C 515.264 4.37365 -0.055613 0
M  V30 5384 C 514.323 5.2011 0.798231 0
M  V30 5385 O 513.349 5.68691 0.240616 0
M  V30 5386 N 514.551 5.40523 2.11695 0
M  V30 5387 H 517.316 2.81662 -1.02405 0
M  V30 5388 H 514.877 1.46568 -0.687713 0
M  V30 5389 H 516.869 3.83477 1.29334 0
M  V30 5390 H 515.439 2.78095 1.42765 0
M  V30 5391 H 514.659 3.85727 -0.812936 0
M  V30 5392 H 515.947 5.05397 -0.587444 0
M  V30 5393 H 515.345 5.0274 2.59363 0
M  V30 5394 H 513.902 5.95871 2.64162 0
M  V30 5395 N 517.335 0.585699 1.46312 0
M  V30 5396 C 518.56 0.0762461 2.0726 0
M  V30 5397 C 518.985 -1.22071 1.43109 0
M  V30 5398 O 518.343 -1.73804 0.515942 0
M  V30 5399 C 518.391 -0.0729404 3.60526 0
M  V30 5400 O 517.495 -1.1287 3.96654 0
M  V30 5401 H 516.836 0.0641558 0.660893 0
M  V30 5402 H 519.366 0.809492 1.87905 0
M  V30 5403 H 519.376 -0.278158 4.07051 0
M  V30 5404 H 518.051 0.874188 4.06609 0
M  V30 5405 H 516.628 -0.901703 3.61834 0
M  V30 5406 N 518.813 -1.54241 0.323641 0
M  V30 5407 C 520.224 -1.85975 -0.164405 0
M  V30 5408 C 520.575 -1.24529 -1.51615 0
M  V30 5409 O 519.7 -0.551351 -2.09258 0
M  V30 5410 C 520.295 -3.37424 -0.305091 0
M  V30 5411 C 518.854 -3.69107 -0.737358 0
M  V30 5412 C 518.001 -2.76942 0.140884 0
M  V30 5413 H 520.952 -1.49088 0.543922 0
M  V30 5414 H 520.973 -3.63147 -1.13598 0
M  V30 5415 H 520.485 -3.82116 0.678876 0
M  V30 5416 H 518.586 -3.29947 -1.73107 0
M  V30 5417 H 518.699 -4.76035 -0.541053 0
M  V30 5418 H 517.063 -2.51795 -0.383572 0
M  V30 5419 H 517.846 -3.24461 1.12162 0
M  V30 5420 N 520.291 -0.0518155 -1.57515 0
M  V30 5421 C 521.254 0.907547 -2.10467 0
M  V30 5422 C 522.254 1.23947 -1.02439 0
M  V30 5423 O 523.444 1.17604 -1.2851 0
M  V30 5424 C 520.576 2.21723 -2.58944 0
M  V30 5425 H 521.769 0.44851 -2.96527 0
M  V30 5426 H 519.322 0.196598 -1.55059 0
M  V30 5427 H 520.057 2.72206 -1.76279 0
M  V30 5428 H 519.842 1.98935 -3.37886 0
M  V30 5429 H 521.332 2.90441 -3.00056 0
M  V30 5430 N 521.769 1.56035 0.221574 0
M  V30 5431 C 523.017 1.78693 0.944102 0
M  V30 5432 C 523.338 0.620317 1.8487 0
M  V30 5433 O 522.608 -0.362784 1.92512 0
M  V30 5434 H 521.188 0.659082 0.351597 0
M  V30 5435 H 523.85 1.93497 0.233435 0
M  V30 5436 H 522.946 2.70837 1.55093 0
M  V30 5437 N 523.247 -0.488276 1.49845 0
M  V30 5438 C 524.475 -1.26527 1.63702 0
M  V30 5439 C 524.89 -1.8618 0.313447 0
M  V30 5440 O 524.247 -1.68432 -0.702624 0
M  V30 5441 C 524.298 -2.3864 2.71538 0
M  V30 5442 O 524.019 -1.81437 3.98763 0
M  V30 5443 C 525.52 -3.29805 2.96215 0
M  V30 5444 H 522.74 -0.383295 0.55075 0
M  V30 5445 H 525.284 -0.584779 1.95961 0
M  V30 5446 H 523.439 -3.02496 2.42023 0
M  V30 5447 H 523.853 -2.55135 4.58265 0
M  V30 5448 H 525.327 -4.04722 3.75372 0
M  V30 5449 H 525.804 -3.87563 2.06619 0
M  V30 5450 H 526.41 -2.71703 3.27196 0
M  V30 5451 N 524.725 -1.39134 -0.740242 0
M  V30 5452 C 525.635 -1.39697 -1.88473 0
M  V30 5453 C 526.651 -0.292403 -1.71526 0
M  V30 5454 O 527.827 -0.533021 -1.94219 0
M  V30 5455 C 524.892 -1.23382 -3.24003 0
M  V30 5456 C 523.953 -2.43763 -3.53381 0
M  V30 5457 C 523.186 -2.28216 -4.82445 0
M  V30 5458 O 523.409 -1.28288 -5.55786 0
M  V30 5459 O 522.343 -3.1709 -5.11603 0
M  V30 5460 H 526.169 -2.36159 -1.90952 0
M  V30 5461 H 523.754 -1.20194 -0.887346 0
M  V30 5462 H 525.636 -1.16395 -4.05006 0
M  V30 5463 H 524.311 -0.300121 -3.22306 0
M  V30 5464 H 523.218 -2.56325 -2.72485 0
M  V30 5465 H 524.551 -3.35808 -3.59852 0
M  V30 5466 N 526.204 0.969867 -1.24223 0
M  V30 5467 C 527.167 2.04564 -1.03373 0
M  V30 5468 C 528.167 1.60798 0.00819206 0
M  V30 5469 O 529.357 1.72641 -0.232567 0
M  V30 5470 C 526.489 3.36163 -0.566343 0
M  V30 5471 H 527.682 2.24494 -1.98853 0
M  V30 5472 H 525.235 1.1448 -1.06415 0
M  V30 5473 H 525.97 3.21925 0.391751 0
M  V30 5474 H 525.755 3.69273 -1.31834 0
M  V30 5475 H 527.245 4.1526 -0.441435 0
M  V30 5476 N 527.682 1.05563 1.17022 0
M  V30 5477 C 528.612 0.681026 2.23348 0
M  V30 5478 C 529.593 -0.322983 1.67005 0
M  V30 5479 O 530.778 -0.199746 1.9317 0
M  V30 5480 C 527.908 0.0589053 3.4725 0
M  V30 5481 C 526.862 0.988082 4.16438 0
M  V30 5482 C 526.188 0.229646 5.34207 0
M  V30 5483 C 527.488 2.31388 4.68249 0
M  V30 5484 H 529.182 1.56993 2.54938 0
M  V30 5485 H 526.728 0.756302 1.2254 0
M  V30 5486 H 528.681 -0.214982 4.20851 0
M  V30 5487 H 527.405 -0.864968 3.14938 0
M  V30 5488 H 526.064 1.24659 3.44754 0
M  V30 5489 H 525.712 -0.697111 4.98146 0
M  V30 5490 H 525.412 0.848815 5.81437 0
M  V30 5491 H 526.936 -0.0368694 6.10589 0
M  V30 5492 H 528.35 2.09964 5.33468 0
M  V30 5493 H 526.747 2.88736 5.26072 0
M  V30 5494 H 527.817 2.94982 3.84855 0
M  V30 5495 N 529.16 -1.33526 0.837174 0
M  V30 5496 C 530.407 -1.97837 0.432064 0
M  V30 5497 C 530.735 -1.66324 -1.00829 0
M  V30 5498 O 529.99 -0.93448 -1.71948 0
M  V30 5499 C 530.289 -3.52367 0.597675 0
M  V30 5500 C 529.955 -4.03826 2.00587 0
M  V30 5501 C 528.617 -4.1759 2.39106 0
M  V30 5502 C 530.969 -4.31333 2.92576 0
M  V30 5503 C 528.297 -4.56195 3.68921 0
M  V30 5504 C 530.649 -4.7139 4.2187 0
M  V30 5505 C 529.313 -4.8336 4.60347 0
M  V30 5506 H 528.583 -0.723937 0.158104 0
M  V30 5507 H 531.23 -1.5923 1.06387 0
M  V30 5508 H 529.535 -3.91624 -0.117452 0
M  V30 5509 H 531.232 -4.00126 0.26454 0
M  V30 5510 H 527.822 -3.93586 1.69671 0
M  V30 5511 H 532.006 -4.20224 2.64056 0
M  V30 5512 H 527.262 -4.63655 3.9854 0
M  V30 5513 H 531.436 -4.91631 4.93226 0
M  V30 5514 H 529.063 -5.1303 5.60985 0
M  V30 5515 N 530.638 -0.59345 -1.46 0
M  V30 5516 C 531.548 0.135817 -2.34207 0
M  V30 5517 C 532.564 0.875008 -1.50398 0
M  V30 5518 O 533.74 0.835778 -1.83239 0
M  V30 5519 C 530.805 1.12977 -3.27776 0
M  V30 5520 C 529.866 0.394081 -4.27487 0
M  V30 5521 C 529.099 1.34068 -5.16586 0
M  V30 5522 O 529.322 2.5778 -5.08828 0
M  V30 5523 O 528.256 0.845426 -5.95933 0
M  V30 5524 H 532.082 -0.588691 -2.9794 0
M  V30 5525 H 529.667 -0.353784 -1.45151 0
M  V30 5526 H 531.549 1.70261 -3.85473 0
M  V30 5527 H 530.224 1.83556 -2.66625 0
M  V30 5528 H 529.131 -0.220869 -3.73447 0
M  V30 5529 H 530.464 -0.270939 -4.91454 0
M  V30 5530 N 532.116 1.54067 -0.331816 0
M  V30 5531 C 533.046 2.27569 0.522932 0
M  V30 5532 C 534.027 1.28679 1.11247 0
M  V30 5533 O 535.212 1.57504 1.13605 0
M  V30 5534 C 532.342 3.0397 1.67987 0
M  V30 5535 C 531.296 4.10267 1.21924 0
M  V30 5536 C 530.622 4.74555 2.46377 0
M  V30 5537 C 531.922 5.21268 0.32815 0
M  V30 5538 H 533.616 2.99264 -0.0901977 0
M  V30 5539 H 531.162 1.4393 -0.044821 0
M  V30 5540 H 533.115 3.54123 2.28418 0
M  V30 5541 H 531.839 2.29906 2.31971 0
M  V30 5542 H 530.498 3.61009 0.637809 0
M  V30 5543 H 530.146 3.97098 3.08743 0
M  V30 5544 H 529.846 5.46363 2.16243 0
M  V30 5545 H 531.37 5.27487 3.07555 0
M  V30 5546 H 532.784 5.67128 0.838978 0
M  V30 5547 H 531.181 5.99982 0.119228 0
M  V30 5548 H 532.251 4.80673 -0.638839 0
M  V30 5549 N 533.594 0.0601682 1.57485 0
M  V30 5550 C 534.544 -0.920969 2.08572 0
M  V30 5551 C 535.528 -1.26617 0.992827 0
M  V30 5552 O 536.72 -1.24708 1.25606 0
M  V30 5553 C 533.849 -2.19267 2.64153 0
M  V30 5554 C 532.935 -1.87447 3.80427 0
M  V30 5555 N 533.326 -1.26025 4.89848 0
M  V30 5556 C 531.624 -2.17265 3.89502 0
M  V30 5557 C 532.325 -1.12036 5.70809 0
M  V30 5558 N 531.301 -1.62624 5.18705 0
M  V30 5559 H 535.103 -0.441561 2.90564 0
M  V30 5560 H 532.617 -0.144043 1.6176 0
M  V30 5561 H 534.614 -2.90462 2.99061 0
M  V30 5562 H 533.274 -2.67806 1.83603 0
M  V30 5563 H 534.285 -0.931336 5.09457 0
M  V30 5564 H 530.962 -2.68262 3.19909 0
M  V30 5565 H 532.352 -0.642783 6.68818 0
M  V30 5566 N 535.072 -1.5615 -0.213296 0
M  V30 5567 C 536.02 -1.93953 -1.28394 0
M  V30 5568 C 537.014 -0.822592 -1.48087 0
M  V30 5569 O 538.22 -1.00748 -1.49164 0
M  V30 5570 H 534.595 -0.61648 -0.430646 0
M  V30 5571 H 536.566 -2.83275 -0.937977 0
M  V30 5572 C 535.315 -2.27969 -2.62537 0
M  V30 5573 H 534.638 -3.13432 -2.48194 0
M  V30 5574 H 536.078 -2.58297 -3.36242 0
M  V30 5575 C 534.537 -1.10775 -3.18167 0
M  V30 5576 O 535.067 -0.373201 -3.99963 0
M  V30 5577 N 533.273 -0.889377 -2.76656 0
M  V30 5578 H 532.82 -1.48843 -2.10246 0
M  V30 5579 H 532.778 -0.107 -3.14218 0
M  V30 5580 N 536.55 0.480323 -1.50102 0
M  V30 5581 C 537.799 1.22979 -1.59872 0
M  V30 5582 C 538.112 1.93282 -0.30022 0
M  V30 5583 O 539.318 2.70086 -0.276709 0
M  V30 5584 C 537.774 2.23408 -2.82164 0
M  V30 5585 C 537.382 1.5895 -4.18854 0
M  V30 5586 C 539.126 2.99055 -3.01275 0
M  V30 5587 C 537.033 2.57611 -5.32344 0
M  V30 5588 H 535.963 0.462707 -0.59533 0
M  V30 5589 H 538.614 0.501291 -1.7652 0
M  V30 5590 H 536.996 2.99511 -2.59055 0
M  V30 5591 H 538.17 0.887 -4.52182 0
M  V30 5592 H 536.485 0.956191 -4.05273 0
M  V30 5593 H 539.082 3.72876 -3.83233 0
M  V30 5594 H 539.425 3.57897 -2.12639 0
M  V30 5595 H 539.958 2.30066 -3.24522 0
M  V30 5596 H 536.697 2.03521 -6.23105 0
M  V30 5597 H 536.217 3.26041 -5.03445 0
M  V30 5598 H 537.896 3.19627 -5.62537 0
M  V30 5599 N 538.028 1.39524 0.732853 0
M  V30 5600 C 539.253 1.40329 1.52717 0
M  V30 5601 C 539.678 0.000286574 1.881 0
M  V30 5602 O 539.036 -0.987262 1.52062 0
M  V30 5603 C 539.084 2.28464 2.78992 0
M  V30 5604 O 538.188 1.716 3.75003 0
M  V30 5605 H 537.529 0.47778 0.461109 0
M  V30 5606 H 540.059 1.83546 0.903996 0
M  V30 5607 H 540.069 2.43051 3.27705 0
M  V30 5608 H 538.744 3.30425 2.52572 0
M  V30 5609 H 537.321 1.66267 3.33781 0
M  V30 5610 N 539.506 -0.963266 1.24736 0
M  V30 5611 C 540.752 -1.70933 1.09131 0
M  V30 5612 C 541.085 -1.90676 -0.368273 0
M  V30 5613 O 540.36 -1.47147 -1.27193 0
M  V30 5614 C 540.643 -3.09744 1.83658 0
M  V30 5615 C 540.496 -2.97465 3.37394 0
M  V30 5616 C 541.815 -4.09483 1.61282 0
M  V30 5617 H 538.934 -0.620398 0.397838 0
M  V30 5618 H 541.576 -1.12028 1.53459 0
M  V30 5619 H 539.726 -3.60031 1.4598 0
M  V30 5620 H 541.398 -2.54571 3.84696 0
M  V30 5621 H 539.641 -2.33576 3.65547 0
M  V30 5622 H 540.312 -3.95822 3.84745 0
M  V30 5623 H 542.788 -3.68073 1.94066 0
M  V30 5624 H 541.664 -5.04666 2.15878 0
M  V30 5625 H 541.925 -4.38639 0.552102 0
M  V30 5626 N 540.985 -1.06182 -1.16461 0
M  V30 5627 C 541.948 -0.675723 -2.19013 0
M  V30 5628 C 542.948 0.277963 -1.58379 0
M  V30 5629 O 544.138 0.0604962 -1.74095 0
M  V30 5630 C 541.27 0.00591459 -3.40899 0
M  V30 5631 H 542.463 -1.58353 -2.54685 0
M  V30 5632 H 540.016 -0.856908 -1.30716 0
M  V30 5633 H 540.751 0.92652 -3.10783 0
M  V30 5634 H 540.536 -0.67984 -3.86161 0
M  V30 5635 H 542.026 0.26181 -4.16778 0
M  V30 5636 N 542.463 1.3308 -0.844243 0
M  V30 5637 C 543.74 1.92178 -0.364261 0
M  V30 5638 C 544.12 1.76961 1.15101 0
M  V30 5639 O 543.468 1.16128 1.9679 0
M  V30 5640 C 543.678 3.393 -0.817106 0
M  V30 5641 C 545.026 4.16444 -0.828236 0
M  V30 5642 O 546.05 3.47975 -0.761062 0
M  V30 5643 O 544.909 5.38685 -0.920926 0
M  V30 5644 H 542.003 0.820411 -0.10419 0
M  V30 5645 H 544.549 1.41918 -0.930453 0
M  V30 5646 H 543.321 3.44272 -1.85991 0
M  V30 5647 H 542.944 3.96947 -0.227785 0
M  V30 5648 N 543.941 0.601185 1.45683 0
M  V30 5649 C 545.166 0.0982245 2.07167 0
M  V30 5650 C 545.591 -1.20546 1.44396 0
M  V30 5651 O 544.949 -1.73247 0.534347 0
M  V30 5652 C 544.997 -0.0346976 3.60583 0
M  V30 5653 O 544.101 -1.08657 3.97828 0
M  V30 5654 H 543.442 0.0711618 0.660176 0
M  V30 5655 H 545.972 0.829376 1.87036 0
M  V30 5656 H 545.982 -0.234969 4.07323 0
M  V30 5657 H 544.657 0.917265 4.05659 0
M  V30 5658 H 543.234 -0.863275 3.6277 0
M  V30 5659 N 545.419 -1.53889 0.339982 0
M  V30 5660 C 546.382 -2.23547 -0.50592 0
M  V30 5661 C 547.382 -1.23445 -1.03044 0
M  V30 5662 O 548.572 -1.47909 -0.920253 0
M  V30 5663 C 545.704 -2.95234 -1.7044 0
M  V30 5664 H 546.897 -2.99722 0.103247 0
M  V30 5665 H 544.45 -1.56033 0.0912804 0
M  V30 5666 H 545.185 -2.23236 -2.35236 0
M  V30 5667 H 544.97 -3.68654 -1.33553 0
M  V30 5668 H 546.46 -3.48258 -2.30447 0
M  V30 5669 N 546.897 -0.0685191 -1.57451 0
M  V30 5670 C 547.845 0.917577 -2.13736 0
M  V30 5671 C 548.839 1.31049 -1.07344 0
M  V30 5672 O 550.045 1.28811 -1.25728 0
M  V30 5673 H 546.42 0.313835 -0.683382 0
M  V30 5674 H 548.391 0.417903 -2.95459 0
M  V30 5675 C 547.14 2.17686 -2.71123 0
M  V30 5676 H 546.463 1.88336 -3.52661 0
M  V30 5677 H 547.903 2.84803 -3.14107 0
M  V30 5678 C 546.362 2.9332 -1.65726 0
M  V30 5679 O 546.892 3.86901 -1.08031 0
M  V30 5680 N 545.098 2.56367 -1.36837 0
M  V30 5681 H 544.645 1.80341 -1.83943 0
M  V30 5682 H 544.603 3.07276 -0.665501 0
M  V30 5683 N 548.375 1.56261 0.205012 0
M  V30 5684 C 549.605 1.83874 0.942018 0
M  V30 5685 C 550.013 0.647595 1.77772 0
M  V30 5686 O 549.356 -0.393098 1.79445 0
M  V30 5687 C 549.418 3.05453 1.89575 0
M  V30 5688 C 549.082 4.39772 1.24296 0
M  V30 5689 C 550.079 5.16133 0.624724 0
M  V30 5690 C 547.764 4.86504 1.24978 0
M  V30 5691 C 549.758 6.37396 0.0220117 0
M  V30 5692 C 547.445 6.07705 0.643232 0
M  V30 5693 C 548.443 6.82993 0.0304164 0
M  V30 5694 O 548.131 8.019 -0.566654 0
M  V30 5695 H 547.863 0.614896 0.280854 0
M  V30 5696 H 550.417 2.04215 0.220285 0
M  V30 5697 H 548.647 2.80972 2.65691 0
M  V30 5698 H 550.336 3.19797 2.4997 0
M  V30 5699 H 551.102 4.81127 0.611666 0
M  V30 5700 H 546.981 4.27865 1.71616 0
M  V30 5701 H 550.525 6.96102 -0.456926 0
M  V30 5702 H 546.422 6.42181 0.653759 0
M  V30 5703 H 547.19 8.17192 -0.462588 0
M  V30 5704 N 549.853 -0.472356 1.50355 0
M  V30 5705 C 551.078 -1.25251 1.65309 0
M  V30 5706 C 551.503 -1.85081 0.335643 0
M  V30 5707 O 550.861 -1.67227 -0.700335 0
M  V30 5708 C 550.909 -2.3379 2.74544 0
M  V30 5709 O 550.013 -3.38401 2.35709 0
M  V30 5710 H 549.354 -0.368539 0.552336 0
M  V30 5711 H 551.884 -0.562271 1.96722 0
M  V30 5712 H 551.894 -2.79121 2.97583 0
M  V30 5713 H 550.569 -1.89614 3.70161 0
M  V30 5714 H 549.146 -2.9879 2.23112 0
M  V30 5715 N 551.331 -1.39911 -0.725443 0
M  V30 5716 C 552.571 -1.39096 -1.49772 0
M  V30 5717 C 552.935 0.0106452 -1.91997 0
M  V30 5718 O 554.136 0.143859 -2.68415 0
M  V30 5719 C 552.407 -2.34441 -2.69764 0
M  V30 5720 S 553.966 -2.51898 -3.59295 0
M  V30 5721 H 550.784 -0.49314 -0.512186 0
M  V30 5722 H 553.386 -1.76093 -0.849197 0
M  V30 5723 H 552.09 -3.35123 -2.36898 0
M  V30 5724 H 551.621 -1.98692 -3.39537 0
M  V30 5725 H 553.636 -1.76402 -4.63785 0
M  V30 5726 N 552.809 0.956637 -1.25245 0
M  V30 5727 C 554.055 1.70352 -1.10036 0
M  V30 5728 C 554.388 1.90869 0.358156 0
M  V30 5729 O 553.663 1.47819 1.26411 0
M  V30 5730 C 553.946 3.08766 -1.85298 0
M  V30 5731 C 553.799 2.95672 -3.38966 0
M  V30 5732 C 555.118 4.08622 -1.63451 0
M  V30 5733 H 552.237 0.618279 -0.401123 0
M  V30 5734 H 554.879 1.11212 -1.54051 0
M  V30 5735 H 553.029 3.59252 -1.47887 0
M  V30 5736 H 554.701 2.52527 -3.86041 0
M  V30 5737 H 552.944 2.31634 -3.6678 0
M  V30 5738 H 553.615 3.93776 -3.86839 0
M  V30 5739 H 556.091 3.67038 -1.96015 0
M  V30 5740 H 554.967 5.03514 -2.18551 0
M  V30 5741 H 555.228 4.3834 -0.575357 0
M  V30 5742 N 554.287 1.06798 1.15896 0
M  V30 5743 C 555.517 0.807522 1.90165 0
M  V30 5744 C 555.925 -0.642417 1.7796 0
M  V30 5745 O 555.268 -1.45193 1.12537 0
M  V30 5746 C 555.33 1.12939 3.41299 0
M  V30 5747 C 554.994 2.57879 3.7729 0
M  V30 5748 C 555.991 3.56118 3.78782 0
M  V30 5749 C 553.676 2.93311 4.07767 0
M  V30 5750 C 555.67 4.87827 4.10248 0
M  V30 5751 C 553.357 4.25219 4.38899 0
M  V30 5752 C 554.355 5.22287 4.4012 0
M  V30 5753 O 554.043 6.51826 4.70508 0
M  V30 5754 H 553.775 0.291946 0.609708 0
M  V30 5755 H 556.329 1.42627 1.47806 0
M  V30 5756 H 554.559 0.45359 3.84031 0
M  V30 5757 H 556.248 0.852363 3.9685 0
M  V30 5758 H 557.014 3.30086 3.55342 0
M  V30 5759 H 552.893 2.18409 4.05979 0
M  V30 5760 H 556.437 5.63586 4.11116 0
M  V30 5761 H 552.334 4.51006 4.61805 0
M  V30 5762 H 553.102 6.56893 4.88298 0
M  V30 5763 N 555.766 -1.3263 0.851289 0
M  V30 5764 C 557.012 -1.9766 0.453694 0
M  V30 5765 C 557.345 -1.67225 -0.987396 0
M  V30 5766 O 556.62 -0.958693 -1.69232 0
M  V30 5767 C 556.903 -3.5344 0.68936 0
M  V30 5768 C 556.756 -3.93517 2.17862 0
M  V30 5769 C 558.075 -4.39866 0.143555 0
M  V30 5770 H 555.194 -0.717989 0.166314 0
M  V30 5771 H 557.836 -1.57068 1.06909 0
M  V30 5772 H 555.986 -3.88147 0.165546 0
M  V30 5773 H 557.658 -3.69006 2.76826 0
M  V30 5774 H 555.901 -3.42798 2.65841 0
M  V30 5775 H 556.572 -5.02065 2.29422 0
M  V30 5776 H 559.048 -4.11875 0.591451 0
M  V30 5777 H 557.924 -5.47858 0.338043 0
M  V30 5778 H 558.185 -4.31696 -0.953466 0
M  V30 5779 N 557.244 -0.608902 -1.45362 0
M  V30 5780 C 558.521 -0.0365378 -1.95566 0
M  V30 5781 C 558.901 1.43169 -1.55131 0
M  V30 5782 O 558.249 2.1349 -0.814513 0
M  V30 5783 C 558.459 -0.236026 -3.48201 0
M  V30 5784 C 559.807 -0.117518 -4.24437 0
M  V30 5785 O 560.831 -0.166217 -3.55812 0
M  V30 5786 O 559.69 -0.00372127 -5.465 0
M  V30 5787 H 556.784 0.0349874 -0.82626 0
M  V30 5788 H 559.33 -0.679055 -1.55521 0
M  V30 5789 H 558.102 -1.25569 -3.70605 0
M  V30 5790 H 557.725 0.441691 -3.95139 0
M  V30 5791 N 558.722 1.53707 -0.348139 0
M  V30 5792 C 559.652 2.28111 0.498766 0
M  V30 5793 C 560.633 1.29851 1.09876 0
M  V30 5794 O 561.818 1.587 1.11928 0
M  V30 5795 C 558.948 3.05735 1.64753 0
M  V30 5796 C 557.902 4.11537 1.17565 0
M  V30 5797 C 557.228 4.77142 2.4133 0
M  V30 5798 C 558.528 5.21587 0.272844 0
M  V30 5799 H 560.222 2.99152 -0.121934 0
M  V30 5800 H 557.768 1.43875 -0.0600842 0
M  V30 5801 H 559.721 3.56526 2.24649 0
M  V30 5802 H 558.445 2.32354 2.2952 0
M  V30 5803 H 557.104 3.61665 0.599483 0
M  V30 5804 H 556.752 4.0035 3.04514 0
M  V30 5805 H 556.452 5.48626 2.10436 0
M  V30 5806 H 557.976 5.30719 3.01943 0
M  V30 5807 H 559.39 5.67986 0.778779 0
M  V30 5808 H 557.787 6.00074 0.0555849 0
M  V30 5809 H 558.857 4.79969 -0.689785 0
M  V30 5810 N 560.2 0.0768682 1.57412 0
M  V30 5811 C 561.147 -0.888577 2.13009 0
M  V30 5812 C 562.117 -1.29198 1.0439 0
M  V30 5813 O 563.302 -1.37694 1.3208 0
M  V30 5814 C 560.442 -2.14899 2.70023 0
M  V30 5815 C 559.555 -1.79777 3.92816 0
M  V30 5816 C 558.69 -3.00467 4.38056 0
M  V30 5817 C 557.729 -2.61385 5.53484 0
M  V30 5818 N 556.866 -3.74851 5.93659 0
M  V30 5819 H 561.706 -0.407593 2.95199 0
M  V30 5820 H 559.243 -0.189534 1.45874 0
M  V30 5821 H 561.201 -2.88688 3.0119 0
M  V30 5822 H 559.831 -2.60529 1.9059 0
M  V30 5823 H 558.883 -0.960301 3.68079 0
M  V30 5824 H 560.195 -1.47027 4.76639 0
M  V30 5825 H 559.349 -3.82529 4.7091 0
M  V30 5826 H 558.088 -3.36413 3.53097 0
M  V30 5827 H 557.093 -1.77746 5.20275 0
M  V30 5828 H 558.318 -2.26603 6.40178 0
M  V30 5829 H 556.264 -4.1055 5.11649 0
M  V30 5830 H 556.181 -3.45887 6.72234 0
M  V30 5831 H 557.449 -4.57477 6.31138 0
M  V30 5832 N 561.678 -1.56367 -0.196722 0
M  V30 5833 C 563.089 -1.70462 -0.761545 0
M  V30 5834 C 563.44 -0.683161 -1.83922 0
M  V30 5835 O 562.565 0.160753 -2.15802 0
M  V30 5836 C 563.16 -3.09057 -1.38814 0
M  V30 5837 C 561.719 -3.24922 -1.90007 0
M  V30 5838 C 560.866 -2.66412 -0.769399 0
M  V30 5839 H 563.817 -1.58675 0.0283263 0
M  V30 5840 H 563.838 -3.06296 -2.2575 0
M  V30 5841 H 563.35 -3.83378 -0.603559 0
M  V30 5842 H 561.451 -2.55514 -2.71189 0
M  V30 5843 H 561.564 -4.3241 -2.06297 0
M  V30 5844 H 559.928 -2.25546 -1.18326 0
M  V30 5845 H 560.711 -3.433 0.00291773 0
M  V30 5846 N 563.156 0.464375 -1.50603 0
M  V30 5847 C 564.567 1.04507 -1.5471 0
M  V30 5848 C 564.918 1.9297 -0.354542 0
M  V30 5849 O 564.043 2.09763 0.531812 0
M  V30 5850 C 564.638 1.90207 -2.80369 0
M  V30 5851 C 563.197 2.43373 -2.87135 0
M  V30 5852 C 562.344 1.21886 -2.49076 0
M  V30 5853 H 565.295 0.246716 -1.56771 0
M  V30 5854 H 565.316 2.75353 -2.62604 0
M  V30 5855 H 564.828 1.25796 -3.67147 0
M  V30 5856 H 562.929 3.11318 -2.04724 0
M  V30 5857 H 563.042 2.7802 -3.90181 0
M  V30 5858 H 561.406 1.55575 -2.01664 0
M  V30 5859 H 562.189 0.591268 -3.3817 0
M  V30 5860 N 564.634 1.40294 0.718013 0
M  V30 5861 C 565.881 1.3844 1.47786 0
M  V30 5862 C 566.209 -0.0140838 1.94495 0
M  V30 5863 O 565.464 -0.998165 1.68331 0
M  V30 5864 C 565.763 2.31814 2.72024 0
M  V30 5865 C 565.429 3.79117 2.44093 0
M  V30 5866 C 564.091 4.19249 2.36185 0
M  V30 5867 C 566.443 4.72212 2.20602 0
M  V30 5868 C 563.771 5.50516 2.02851 0
M  V30 5869 C 566.123 6.03775 1.88781 0
M  V30 5870 C 564.787 6.42953 1.79354 0
M  V30 5871 H 564.057 0.506588 0.540786 0
M  V30 5872 H 566.704 1.72929 0.822663 0
M  V30 5873 H 565.009 1.90501 3.42369 0
M  V30 5874 H 566.706 2.27664 3.30106 0
M  V30 5875 H 563.296 3.47318 2.51133 0
M  V30 5876 H 567.48 4.42026 2.25669 0
M  V30 5877 H 562.736 5.79776 1.94088 0
M  V30 5878 H 566.91 6.75428 1.69617 0
M  V30 5879 H 564.537 7.44584 1.53291 0
M  V30 5880 N 566.112 -0.949982 1.2575 0
M  V30 5881 C 567.36 -1.6918 1.10555 0
M  V30 5882 C 567.681 -1.91773 -0.353298 0
M  V30 5883 O 566.951 -1.50814 -1.25027 0
M  V30 5884 H 565.531 -0.626952 0.406129 0
M  V30 5885 H 568.193 -1.1419 1.57945 0
M  V30 5886 H 567.289 -2.66915 1.61749 0
M  V30 5887 N 567.59 -1.07411 -1.15328 0
M  V30 5888 C 568.838 -0.796073 -1.85761 0
M  V30 5889 C 569.159 0.679864 -1.82764 0
M  V30 5890 O 568.429 1.49242 -1.269 0
M  V30 5891 H 567.009 -0.291495 -0.687779 0
M  V30 5892 H 569.671 -1.35799 -1.39802 0
M  V30 5893 H 568.767 -1.13114 -2.90881 0
M  V30 5894 N 569.068 1.32177 -0.85831 0
M  V30 5895 C 570.293 2.01847 -0.476718 0
M  V30 5896 C 570.718 1.64065 0.920021 0
M  V30 5897 O 570.076 0.843189 1.60499 0
M  V30 5898 C 570.124 3.55097 -0.627578 0
M  V30 5899 O 569.228 4.11012 0.338086 0
M  V30 5900 H 568.569 0.635907 -0.191099 0
M  V30 5901 H 571.099 1.68641 -1.15851 0
M  V30 5902 H 571.109 4.04718 -0.516476 0
M  V30 5903 H 569.784 3.81938 -1.64609 0
M  V30 5904 H 568.361 3.72451 0.182917 0
M  V30 5905 N 570.547 0.616602 1.45037 0
M  V30 5906 C 571.51 -0.0871112 2.29034 0
M  V30 5907 C 572.51 -0.786414 1.40258 0
M  V30 5908 O 573.7 -0.633207 1.62284 0
M  V30 5909 C 570.832 -1.13369 3.21497 0
M  V30 5910 H 572.025 0.651497 2.92738 0
M  V30 5911 H 569.578 0.376058 1.51709 0
M  V30 5912 H 570.313 -1.90277 2.62612 0
M  V30 5913 H 570.098 -0.636358 3.86902 0
M  V30 5914 H 571.588 -1.62627 3.84633 0
M  V30 5915 N 572.025 -1.5352 0.356285 0
M  V30 5916 C 573.436 -1.86282 -0.12492 0
M  V30 5917 C 573.787 -1.27717 -1.48939 0
M  V30 5918 O 572.912 -0.595614 -2.08042 0
M  V30 5919 C 573.507 -3.37995 -0.23345 0
M  V30 5920 C 572.066 -3.70588 -0.658899 0
M  V30 5921 C 571.213 -2.76581 0.199596 0
M  V30 5922 H 574.164 -1.47901 0.575423 0
M  V30 5923 H 574.185 -3.65475 -1.0587 0
M  V30 5924 H 573.697 -3.8059 0.759776 0
M  V30 5925 H 571.798 -3.33544 -1.66069 0
M  V30 5926 H 571.911 -4.77076 -0.439957 0
M  V30 5927 H 570.275 -2.52552 -0.330076 0
M  V30 5928 H 571.058 -3.22008 1.19019 0
M  V30 5929 N 573.503 -0.0852151 -1.57369 0
M  V30 5930 C 574.728 0.592872 -1.98746 0
M  V30 5931 C 575.153 1.61538 -0.963689 0
M  V30 5932 O 574.511 1.81168 0.069071 0
M  V30 5933 C 574.559 1.22599 -3.39119 0
M  V30 5934 O 573.663 2.34185 -3.39457 0
M  V30 5935 H 573.004 0.151314 -0.646529 0
M  V30 5936 H 575.534 -0.163703 -2.03944 0
M  V30 5937 H 575.544 1.56965 -3.76598 0
M  V30 5938 H 574.219 0.476831 -4.13158 0
M  V30 5939 H 572.796 2.01512 -3.13763 0
M  V30 5940 N 574.981 1.5647 0.188427 0
M  V30 5941 C 575.891 1.98285 1.2538 0
M  V30 5942 C 576.907 0.891535 1.49424 0
M  V30 5943 O 578.083 1.19782 1.61908 0
M  V30 5944 C 575.148 2.31965 2.57669 0
M  V30 5945 C 574.209 3.54838 2.41638 0
M  V30 5946 C 573.442 3.86901 3.67618 0
M  V30 5947 O 573.665 3.20163 4.72072 0
M  V30 5948 O 572.599 4.80309 3.62749 0
M  V30 5949 H 576.425 2.89145 0.928912 0
M  V30 5950 H 574.01 1.44112 0.393955 0
M  V30 5951 H 575.892 2.54673 3.35737 0
M  V30 5952 H 574.567 1.44271 2.89771 0
M  V30 5953 H 573.474 3.37369 1.61658 0
M  V30 5954 H 574.807 4.43019 2.14465 0
M  V30 5955 N 576.459 -0.456382 1.50847 0
M  V30 5956 C 577.875 -0.791345 1.386 0
M  V30 5957 C 578.075 -1.9633 0.453498 0
M  V30 5958 O 577.131 -2.52308 -0.0984353 0
M  V30 5959 C 578.444 -1.08959 2.80265 0
M  V30 5960 C 579.992 -1.19517 2.89283 0
M  V30 5961 C 580.467 -1.52647 4.31814 0
M  V30 5962 N 581.958 -1.59609 4.34832 0
M  V30 5963 C 582.693 -1.86777 5.42127 0
M  V30 5964 N 582.189 -2.11866 6.59609 0
M  V30 5965 N 583.982 -1.88402 5.29586 0
M  V30 5966 H 576.133 0.315746 2.1004 0
M  V30 5967 H 578.396 0.0787916 0.94472 0
M  V30 5968 H 578.102 -0.301355 3.50407 0
M  V30 5969 H 577.976 -2.02211 3.18419 0
M  V30 5970 H 580.363 -1.97406 2.19351 0
M  V30 5971 H 580.444 -0.242111 2.54652 0
M  V30 5972 H 580.088 -0.752922 5.02288 0
M  V30 5973 H 580.018 -2.49127 4.63943 0
M  V30 5974 H 582.509 -1.42201 3.50125 0
M  V30 5975 H 582.822 -2.31912 7.37182 0
M  V30 5976 H 581.167 -2.09228 6.62758 0
M  V30 5977 H 584.358 -1.68307 4.36795 0
M  V30 5978 H 584.531 -2.09238 6.13289 0
M  V30 5979 N 577.937 -1.40673 -0.710563 0
M  V30 5980 C 578.867 -1.44095 -1.83736 0
M  V30 5981 C 579.848 -0.301286 -1.67411 0
M  V30 5982 O 581.033 -0.510618 -1.87367 0
M  V30 5983 C 578.163 -1.30773 -3.21738 0
M  V30 5984 C 577.117 -2.42395 -3.52745 0
M  V30 5985 C 576.443 -2.14147 -4.89944 0
M  V30 5986 C 577.743 -3.84738 -3.53234 0
M  V30 5987 H 579.437 -2.38396 -1.81129 0
M  V30 5988 H 576.983 -1.14746 -0.870017 0
M  V30 5989 H 578.936 -1.31783 -4.00264 0
M  V30 5990 H 577.66 -0.329507 -3.24934 0
M  V30 5991 H 576.319 -2.40643 -2.76562 0
M  V30 5992 H 575.967 -1.14703 -4.89747 0
M  V30 5993 H 575.667 -2.88934 -5.11655 0
M  V30 5994 H 577.191 -2.16848 -5.70797 0
M  V30 5995 H 578.605 -3.88286 -4.2179 0
M  V30 5996 H 577.002 -4.59085 -3.86473 0
M  V30 5997 H 578.072 -4.13962 -2.52514 0
M  V30 5998 N 579.415 0.9433 -1.26252 0
M  V30 5999 C 580.325 2.07532 -1.09397 0
M  V30 6000 C 581.341 1.73977 -0.0280449 0
M  V30 6001 O 582.517 2.00067 -0.231337 0
M  V30 6002 C 579.582 3.39002 -0.726523 0
M  V30 6003 C 578.643 3.86353 -1.87163 0
M  V30 6004 C 577.876 5.11549 -1.52162 0
M  V30 6005 O 578.099 5.68834 -0.422385 0
M  V30 6006 O 577.033 5.53889 -2.35565 0
M  V30 6007 H 580.859 2.24658 -2.04359 0
M  V30 6008 H 578.444 1.05988 -1.05295 0
M  V30 6009 H 580.326 4.18 -0.534236 0
M  V30 6010 H 579.001 3.2312 0.193721 0
M  V30 6011 H 577.908 3.0831 -2.11886 0
M  V30 6012 H 579.241 4.06752 -2.77152 0
M  V30 6013 N 580.893 1.08022 1.14757 0
M  V30 6014 C 581.823 0.728248 2.21853 0
M  V30 6015 C 582.804 -0.287486 1.67653 0
M  V30 6016 O 583.989 -0.158727 1.9355 0
M  V30 6017 C 581.119 0.132549 3.47047 0
M  V30 6018 C 580.073 1.07619 4.14249 0
M  V30 6019 C 579.399 0.342907 5.33599 0
M  V30 6020 C 580.699 2.41268 4.63235 0
M  V30 6021 H 582.393 1.62365 2.51551 0
M  V30 6022 H 579.939 0.782125 1.20908 0
M  V30 6023 H 581.892 -0.125665 4.21213 0
M  V30 6024 H 580.616 -0.797971 3.16702 0
M  V30 6025 H 579.275 1.31944 3.42033 0
M  V30 6026 H 578.923 -0.59129 4.99513 0
M  V30 6027 H 578.623 0.971955 5.79506 0
M  V30 6028 H 580.147 0.0926538 6.1053 0
M  V30 6029 H 581.561 2.21232 5.28894 0
M  V30 6030 H 579.958 2.9983 5.19829 0
M  V30 6031 H 581.028 3.03079 3.78512 0
M  V30 6032 N 582.371 -1.3172 0.865308 0
M  V30 6033 C 583.321 -2.26157 0.289305 0
M  V30 6034 C 584.305 -1.50428 -0.570977 0
M  V30 6035 O 585.497 -1.71978 -0.418617 0
M  V30 6036 C 582.626 -3.39457 -0.512237 0
M  V30 6037 C 581.712 -4.22561 0.361028 0
M  V30 6038 N 582.103 -4.84501 1.45231 0
M  V30 6039 C 580.401 -4.45739 0.152641 0
M  V30 6040 C 581.102 -5.46586 1.99043 0
M  V30 6041 N 580.078 -5.28119 1.28809 0
M  V30 6042 H 583.88 -2.71581 1.12344 0
M  V30 6043 H 581.394 -1.45932 0.712565 0
M  V30 6044 H 583.391 -4.06133 -0.941379 0
M  V30 6045 H 582.051 -2.95577 -1.34404 0
M  V30 6046 H 583.062 -4.84293 1.83524 0
M  V30 6047 H 579.739 -4.1251 -0.643583 0
M  V30 6048 H 581.129 -6.05817 2.90577 0
M  V30 6049 N 583.85 -0.624285 -1.44708 0
M  V30 6050 C 585.096 -0.126237 -2.02407 0
M  V30 6051 C 585.428 1.24618 -1.48943 0
M  V30 6052 O 584.704 1.82569 -0.670742 0
M  V30 6053 C 584.986 -0.105449 -3.59946 0
M  V30 6054 C 584.84 -1.50972 -4.23707 0
M  V30 6055 C 586.159 0.573629 -4.36346 0
M  V30 6056 H 583.278 -0.0473472 -0.735478 0
M  V30 6057 H 585.92 -0.799452 -1.72362 0
M  V30 6058 H 584.07 0.46783 -3.85673 0
M  V30 6059 H 585.742 -2.13136 -4.0911 0
M  V30 6060 H 583.985 -2.0656 -3.81465 0
M  V30 6061 H 584.656 -1.44727 -5.32689 0
M  V30 6062 H 587.132 0.0861787 -4.16011 0
M  V30 6063 H 586.008 0.557338 -5.46063 0
M  V30 6064 H 586.269 1.64276 -4.10446 0
M  V30 6065 N 585.328 1.53329 -0.364422 0
M  V30 6066 C 586.605 1.93557 0.281962 0
M  V30 6067 C 586.985 1.29786 1.6649 0
M  V30 6068 O 586.333 0.456512 2.23893 0
M  V30 6069 C 586.543 3.47405 0.333331 0
M  V30 6070 C 587.891 4.20699 0.574231 0
M  V30 6071 O 588.915 3.53779 0.414588 0
M  V30 6072 O 587.774 5.39287 0.885002 0
M  V30 6073 H 584.868 0.809573 0.168881 0
M  V30 6074 H 587.414 1.64494 -0.417121 0
M  V30 6075 H 586.186 3.86091 -0.636326 0
M  V30 6076 H 585.809 3.82697 1.07836 0
M  V30 6077 N 586.806 0.0935595 1.57322 0
M  V30 6078 C 588.054 -0.569383 1.93913 0
M  V30 6079 C 588.375 -1.68817 0.976009 0
M  V30 6080 O 587.645 -1.9588 0.0278099 0
M  V30 6081 H 586.225 -0.21332 0.715894 0
M  V30 6082 H 588.887 0.156531 1.9427 0
M  V30 6083 H 587.983 -0.980577 2.96296 0
M  V30 6084 N 588.284 -1.56567 -0.180126 0
M  V30 6085 C 589.695 -1.7126 -0.743422 0
M  V30 6086 C 590.046 -0.70263 -1.83187 0
M  V30 6087 O 589.171 0.137856 -2.1596 0
M  V30 6088 C 589.766 -3.10512 -1.35528 0
M  V30 6089 C 588.325 -3.26919 -1.8655 0
M  V30 6090 C 587.472 -2.67213 -0.741099 0
M  V30 6091 H 590.423 -1.58636 0.0451543 0
M  V30 6092 H 590.444 -3.08673 -2.22489 0
M  V30 6093 H 589.956 -3.83997 -0.562862 0
M  V30 6094 H 588.057 -2.58376 -2.68464 0
M  V30 6095 H 588.17 -4.34574 -2.01699 0
M  V30 6096 H 586.534 -2.26788 -1.15927 0
M  V30 6097 H 587.317 -3.43277 0.0393291 0
M  V30 6098 N 589.762 0.448376 -1.51087 0
M  V30 6099 C 591.173 1.0286 -1.5581 0
M  V30 6100 C 591.524 1.92583 -0.374989 0
M  V30 6101 O 590.649 2.10316 0.509533 0
M  V30 6102 C 591.244 1.87223 -2.8237 0
M  V30 6103 C 589.803 2.40314 -2.897 0
M  V30 6104 C 588.95 1.19238 -2.50355 0
M  V30 6105 H 591.901 0.230075 -1.57023 0
M  V30 6106 H 591.922 2.72553 -2.6551 0
M  V30 6107 H 591.434 1.21894 -3.68461 0
M  V30 6108 H 589.535 3.09129 -2.08014 0
M  V30 6109 H 589.648 2.73866 -3.93108 0
M  V30 6110 H 588.012 1.53428 -2.03303 0
M  V30 6111 H 588.795 0.555367 -3.38778 0
M  V30 6112 N 591.24 1.41047 0.703093 0
M  V30 6113 C 592.651 1.35657 1.28274 0
M  V30 6114 C 593.002 0.0360309 1.96167 0
M  V30 6115 O 592.127 -0.865833 1.98324 0
M  V30 6116 C 592.722 2.45707 2.33267 0
M  V30 6117 C 591.281 2.43738 2.86825 0
M  V30 6118 C 590.428 2.25941 1.60767 0
M  V30 6119 H 593.379 1.50672 0.49836 0
M  V30 6120 H 593.4 2.14333 3.14391 0
M  V30 6121 H 592.912 3.41805 1.83824 0
M  V30 6122 H 591.013 1.51375 3.40465 0
M  V30 6123 H 591.126 3.39779 3.37768 0
M  V30 6124 H 589.49 1.73681 1.86298 0
M  V30 6125 H 590.273 3.24054 1.1333 0
M  V30 6126 N 592.718 -0.936591 1.26751 0
M  V30 6127 C 594.134 -1.21095 1.03963 0
M  V30 6128 C 594.334 -2.00156 -0.232372 0
M  V30 6129 O 593.39 -2.3434 -0.940274 0
M  V30 6130 C 594.703 -1.96775 2.27377 0
M  V30 6131 C 596.251 -2.09749 2.32324 0
M  V30 6132 C 596.726 -2.88832 3.55443 0
M  V30 6133 N 598.217 -2.96404 3.55948 0
M  V30 6134 C 598.952 -3.58036 4.47881 0
M  V30 6135 N 598.448 -4.21132 5.50109 0
M  V30 6136 N 600.241 -3.55353 4.35523 0
M  V30 6137 H 592.392 -0.408173 2.08441 0
M  V30 6138 H 594.655 -0.243139 0.91629 0
M  V30 6139 H 594.361 -1.46094 3.19921 0
M  V30 6140 H 594.235 -2.97424 2.31989 0
M  V30 6141 H 596.622 -2.5962 1.40291 0
M  V30 6142 H 596.703 -1.08347 2.31721 0
M  V30 6143 H 596.347 -2.39647 4.47808 0
M  V30 6144 H 596.277 -3.90499 3.53296 0
M  V30 6145 H 598.768 -2.51552 2.82011 0
M  V30 6146 H 599.081 -4.66071 6.16439 0
M  V30 6147 H 597.426 -4.19705 5.53961 0
M  V30 6148 H 600.617 -3.05256 3.54875 0
M  V30 6149 H 600.79 -4.03097 5.07363 0
M  V30 6150 N 594.196 -1.08629 -1.14182 0
M  V30 6151 C 595.607 -0.838003 -1.66836 0
M  V30 6152 C 595.958 0.634885 -1.85644 0
M  V30 6153 O 595.083 1.49008 -1.56926 0
M  V30 6154 C 595.678 -1.51465 -3.03058 0
M  V30 6155 C 594.237 -1.31355 -3.52736 0
M  V30 6156 C 593.384 -1.57599 -2.28162 0
M  V30 6157 H 596.335 -1.24656 -0.982165 0
M  V30 6158 H 596.356 -0.943134 -3.68626 0
M  V30 6159 H 595.868 -2.58661 -2.89337 0
M  V30 6160 H 593.969 -0.262384 -3.71675 0
M  V30 6161 H 594.082 -2.04275 -4.33369 0
M  V30 6162 H 592.446 -0.997659 -2.34348 0
M  V30 6163 H 593.229 -2.66006 -2.17015 0
M  V30 6164 N 595.674 1.31259 -0.872281 0
M  V30 6165 C 596.606 2.27396 -0.28697 0
M  V30 6166 C 597.619 1.53181 0.551297 0
M  V30 6167 O 598.808 1.74561 0.372914 0
M  V30 6168 C 595.908 3.33335 0.611617 0
M  V30 6169 C 595.081 4.36966 -0.194729 0
M  V30 6170 C 594.14 5.22387 0.632358 0
M  V30 6171 O 593.166 5.69169 0.0595691 0
M  V30 6172 N 594.368 5.46985 1.94391 0
M  V30 6173 H 597.133 2.78261 -1.11314 0
M  V30 6174 H 594.694 1.44306 -0.733994 0
M  V30 6175 H 596.686 3.87398 1.17068 0
M  V30 6176 H 595.256 2.82496 1.33846 0
M  V30 6177 H 594.476 3.82945 -0.935241 0
M  V30 6178 H 595.764 5.03273 -0.747935 0
M  V30 6179 H 595.162 5.10737 2.43237 0
M  V30 6180 H 593.719 6.03973 2.45071 0
M  V30 6181 N 597.152 0.631951 1.44375 0
M  V30 6182 C 598.082 -0.0593243 2.33425 0
M  V30 6183 C 599.063 -0.833964 1.48253 0
M  V30 6184 O 600.248 -0.799682 1.76971 0
M  V30 6185 C 597.378 -1.04096 3.31333 0
M  V30 6186 C 596.332 -0.377899 4.26328 0
M  V30 6187 C 595.658 -1.4695 5.14111 0
M  V30 6188 C 596.958 0.716371 5.17364 0
M  V30 6189 H 598.652 0.684287 2.91475 0
M  V30 6190 H 596.198 0.330518 1.40156 0
M  V30 6191 H 598.151 -1.53331 3.92514 0
M  V30 6192 H 596.875 -1.81547 2.71493 0
M  V30 6193 H 595.534 0.0938054 3.6648 0
M  V30 6194 H 595.182 -2.2349 4.50623 0
M  V30 6195 H 594.882 -1.03121 5.78481 0
M  V30 6196 H 596.406 -1.96363 5.78164 0
M  V30 6197 H 597.82 0.307089 5.72477 0
M  V30 6198 H 596.217 1.07784 5.90341 0
M  V30 6199 H 597.287 1.58316 4.58327 0
M  V30 6200 N 598.631 -1.53133 0.372548 0
M  V30 6201 C 600.047 -1.59585 0.02178 0
M  V30 6202 C 600.247 -1.38736 -1.46132 0
M  V30 6203 O 599.303 -1.19599 -2.22379 0
M  V30 6204 C 600.616 -2.9678 0.483959 0
M  V30 6205 C 602.164 -3.09909 0.438775 0
M  V30 6206 C 602.639 -4.49527 0.876876 0
M  V30 6207 N 604.13 -4.55663 0.832214 0
M  V30 6208 C 604.865 -5.61896 1.14281 0
M  V30 6209 N 604.361 -6.75852 1.52303 0
M  V30 6210 N 606.154 -5.51916 1.06515 0
M  V30 6211 H 598.305 -1.64936 1.33827 0
M  V30 6212 H 600.568 -0.773947 0.547458 0
M  V30 6213 H 600.274 -3.17198 1.51915 0
M  V30 6214 H 600.148 -3.7699 -0.125784 0
M  V30 6215 H 602.535 -2.89197 -0.587294 0
M  V30 6216 H 602.616 -2.31691 1.0841 0
M  V30 6217 H 602.26 -4.70979 1.90109 0
M  V30 6218 H 602.19 -5.26186 0.208727 0
M  V30 6219 H 604.681 -3.73844 0.552195 0
M  V30 6220 H 604.994 -7.52862 1.7441 0
M  V30 6221 H 603.339 -6.77226 1.56175 0
M  V30 6222 H 606.53 -4.6177 0.767235 0
M  V30 6223 H 606.703 -6.34609 1.31053 0
M  V30 6224 N 600.109 -0.101901 -1.5727 0
M  V30 6225 C 601.072 0.840129 -2.13247 0
M  V30 6226 C 602.072 1.20625 -1.06331 0
M  V30 6227 O 603.262 1.13456 -1.32186 0
M  V30 6228 C 600.394 2.13372 -2.65867 0
M  V30 6229 H 601.587 0.353945 -2.97804 0
M  V30 6230 H 599.14 0.147167 -1.55606 0
M  V30 6231 H 599.875 2.66461 -1.84849 0
M  V30 6232 H 599.66 1.88085 -3.44044 0
M  V30 6233 H 601.15 2.80748 -3.09145 0
M  V30 6234 N 601.587 1.56661 0.17182 0
M  V30 6235 C 602.815 1.861 0.904115 0
M  V30 6236 C 603.23 0.687227 1.75848 0
M  V30 6237 O 602.587 -0.343671 1.79235 0
M  V30 6238 C 602.638 3.14568 1.78127 0
M  V30 6239 O 602.359 4.27422 0.961366 0
M  V30 6240 C 603.86 3.5735 2.62327 0
M  V30 6241 H 601.08 0.617445 0.262684 0
M  V30 6242 H 603.624 2.03775 0.172068 0
M  V30 6243 H 601.779 2.98721 2.46666 0
M  V30 6244 H 602.193 5.00725 1.56123 0
M  V30 6245 H 603.667 4.50144 3.1949 0
M  V30 6246 H 604.144 2.81445 3.37173 0
M  V30 6247 H 604.75 3.75807 1.99121 0
M  V30 6248 N 603.065 -0.440357 1.51323 0
M  V30 6249 C 604.311 -1.18874 1.65047 0
M  V30 6250 C 604.666 -1.88988 0.360742 0
M  V30 6251 O 603.959 -1.80479 -0.643272 0
M  V30 6252 C 604.153 -2.2339 2.78984 0
M  V30 6253 C 603.982 -1.63534 4.18911 0
M  V30 6254 C 602.752 -1.42158 4.84891 0
M  V30 6255 C 604.95 -1.11324 5.02107 0
M  V30 6256 N 602.932 -0.778679 6.08942 0
M  V30 6257 C 604.303 -0.595421 6.17134 0
M  V30 6258 C 606.358 -1.00471 4.87658 0
M  V30 6259 C 605.061 0.0202557 7.19297 0
M  V30 6260 C 607.087 -0.402928 5.90026 0
M  V30 6261 C 606.449 0.10436 7.04323 0
M  V30 6262 H 602.548 -0.422771 0.657866 0
M  V30 6263 H 605.132 -0.485814 1.88542 0
M  V30 6264 H 603.303 -2.91074 2.57158 0
M  V30 6265 H 605.035 -2.90366 2.81904 0
M  V30 6266 H 601.79 -1.68247 4.42707 0
M  V30 6267 H 602.214 -0.474755 6.75333 0
M  V30 6268 H 606.856 -1.38278 3.99548 0
M  V30 6269 H 604.574 0.410468 8.07057 0
M  V30 6270 H 608.16 -0.320897 5.80914 0
M  V30 6271 H 607.04 0.562697 7.82179 0
M  V30 6272 N 604.543 -1.41418 -0.695603 0
M  V30 6273 C 605.768 -1.44329 -1.48942 0
M  V30 6274 C 606.193 -0.0501579 -1.88033 0
M  V30 6275 O 605.551 0.946598 -1.54626 0
M  V30 6276 C 605.599 -2.3578 -2.72837 0
M  V30 6277 O 604.703 -1.81482 -3.70322 0
M  V30 6278 H 604.044 -0.489838 -0.44828 0
M  V30 6279 H 606.574 -1.85878 -0.855014 0
M  V30 6280 H 606.584 -2.51654 -3.21145 0
M  V30 6281 H 605.259 -3.37005 -2.43722 0
M  V30 6282 H 603.836 -1.75058 -3.29255 0
M  V30 6283 N 606.021 0.929856 -1.27246 0
M  V30 6284 C 607.269 1.674 -1.13233 0
M  V30 6285 C 607.59 1.92311 0.322744 0
M  V30 6286 O 606.86 1.52784 1.22612 0
M  V30 6287 H 605.44 0.620411 -0.416052 0
M  V30 6288 H 608.102 1.11663 -1.59741 0
M  V30 6289 H 607.198 2.64308 -1.65975 0
M  V30 6290 N 607.499 1.09233 1.13605 0
M  V30 6291 C 608.462 0.733553 2.17144 0
M  V30 6292 C 609.462 -0.235873 1.59061 0
M  V30 6293 O 610.652 -0.0143167 1.74194 0
M  V30 6294 C 607.784 0.084471 3.40795 0
M  V30 6295 H 608.977 1.65049 2.50397 0
M  V30 6296 H 606.53 0.891264 1.28399 0
M  V30 6297 H 607.265 -0.843795 3.1313 0
M  V30 6298 H 607.05 0.781985 3.84223 0
M  V30 6299 H 608.54 -0.151216 4.17326 0
M  V30 6300 N 608.977 -1.30795 0.87923 0
M  V30 6301 C 610.223 -1.96653 0.495519 0
M  V30 6302 C 610.556 -1.69282 -0.951703 0
M  V30 6303 O 609.831 -0.994374 -1.6716 0
M  V30 6304 C 610.114 -3.51898 0.764174 0
M  V30 6305 C 609.967 -3.88808 2.2616 0
M  V30 6306 C 611.286 -4.39462 0.236825 0
M  V30 6307 H 608.405 -0.7143 0.181507 0
M  V30 6308 H 611.047 -1.54765 1.10217 0
M  V30 6309 H 609.197 -3.87709 0.247841 0
M  V30 6310 H 610.869 -3.63051 2.8459 0
M  V30 6311 H 609.112 -3.37082 2.73053 0
M  V30 6312 H 609.783 -4.97086 2.4002 0
M  V30 6313 H 612.259 -4.10528 0.678683 0
M  V30 6314 H 611.135 -5.47018 0.454176 0
M  V30 6315 H 611.396 -4.33621 -0.861683 0
M  V30 6316 N 610.455 -0.639598 -1.44038 0
M  V30 6317 C 611.385 0.0469443 -2.33453 0
M  V30 6318 C 612.366 0.82609 -1.48694 0
M  V30 6319 O 613.551 0.790285 -1.77393 0
M  V30 6320 C 610.681 1.02338 -3.3188 0
M  V30 6321 C 609.635 0.355284 -4.26523 0
M  V30 6322 C 608.961 1.44221 -5.14883 0
M  V30 6323 C 610.261 -0.743798 -5.16977 0
M  V30 6324 H 611.955 -0.699735 -2.91108 0
M  V30 6325 H 609.501 -0.337946 -1.39978 0
M  V30 6326 H 611.454 1.51247 -3.93322 0
M  V30 6327 H 610.178 1.80105 -2.72451 0
M  V30 6328 H 608.837 -0.113239 -3.66425 0
M  V30 6329 H 608.485 2.21097 -4.51802 0
M  V30 6330 H 608.185 1.00052 -5.79019 0
M  V30 6331 H 609.709 1.93295 -5.79197 0
M  V30 6332 H 611.123 -0.337444 -5.72306 0
M  V30 6333 H 609.52 -1.10914 -5.89761 0
M  V30 6334 H 610.59 -1.60745 -4.57481 0
M  V30 6335 N 611.933 1.52934 -0.380664 0
M  V30 6336 C 612.896 2.24809 0.446473 0
M  V30 6337 C 613.896 1.26133 0.997347 0
M  V30 6338 O 615.086 1.50297 0.880714 0
M  V30 6339 C 612.218 2.99649 1.62553 0
M  V30 6340 H 613.411 2.99343 -0.182677 0
M  V30 6341 H 610.964 1.55736 -0.132618 0
M  V30 6342 H 611.699 2.29395 2.29235 0
M  V30 6343 H 611.484 3.72066 1.23732 0
M  V30 6344 H 612.974 3.54246 2.21133 0
M  V30 6345 N 613.412 0.11024 1.57214 0
M  V30 6346 C 614.66 -0.548783 1.94506 0
M  V30 6347 C 614.981 -1.67772 0.99386 0
M  V30 6348 O 614.251 -1.9584 0.0485841 0
M  V30 6349 H 612.831 -0.205715 0.718116 0
M  V30 6350 H 615.493 0.177127 1.94093 0
M  V30 6351 H 614.589 -0.949096 2.97319 0
M  V30 6352 N 614.89 -1.56749 -0.16351 0
M  V30 6353 C 616.306 -1.51043 -0.515567 0
M  V30 6354 C 616.506 -0.815855 -1.84245 0
M  V30 6355 O 615.562 -0.379477 -2.49632 0
M  V30 6356 C 616.875 -2.95791 -0.541114 0
M  V30 6357 C 618.423 -3.0664 -0.627776 0
M  V30 6358 C 618.898 -4.52861 -0.684141 0
M  V30 6359 N 620.389 -4.5714 -0.746818 0
M  V30 6360 C 621.124 -5.67634 -0.811137 0
M  V30 6361 N 620.62 -6.8774 -0.835811 0
M  V30 6362 N 622.413 -5.55624 -0.850756 0
M  V30 6363 H 614.564 -2.00307 0.70645 0
M  V30 6364 H 616.827 -0.912876 0.255659 0
M  V30 6365 H 616.533 -3.49797 0.365329 0
M  V30 6366 H 616.407 -3.50858 -1.38487 0
M  V30 6367 H 618.794 -2.52663 -1.52464 0
M  V30 6368 H 618.875 -2.54645 0.242805 0
M  V30 6369 H 618.519 -5.07472 0.2085 0
M  V30 6370 H 618.449 -5.02621 -1.57098 0
M  V30 6371 H 620.94 -3.70669 -0.735717 0
M  V30 6372 H 621.253 -7.67701 -0.886279 0
M  V30 6373 H 619.598 -6.90334 -0.803958 0
M  V30 6374 H 622.789 -4.60709 -0.828535 0
M  V30 6375 H 622.962 -6.41756 -0.897418 0
M  V30 6376 N 616.368 0.432326 -1.51554 0
M  V30 6377 C 617.645 1.19288 -1.55015 0
M  V30 6378 C 618.025 2.08701 -0.317375 0
M  V30 6379 O 617.373 2.17602 0.697243 0
M  V30 6380 C 617.583 1.99037 -2.86679 0
M  V30 6381 C 618.931 2.55907 -3.38817 0
M  V30 6382 O 619.955 2.09243 -2.88263 0
M  V30 6383 O 618.814 3.41029 -4.27038 0
M  V30 6384 H 615.908 0.543369 -0.623441 0
M  V30 6385 H 618.454 0.440988 -1.6387 0
M  V30 6386 H 617.226 1.33397 -3.6786 0
M  V30 6387 H 616.849 2.81281 -2.8101 0
M  V30 6388 N 617.846 1.41785 0.688094 0
M  V30 6389 C 618.809 1.43936 1.78368 0
M  V30 6390 C 619.809 0.328866 1.57401 0
M  V30 6391 O 620.999 0.589093 1.63937 0
M  V30 6392 C 618.131 1.25804 3.16838 0
M  V30 6393 H 619.324 2.41472 1.77852 0
M  V30 6394 H 616.877 1.28037 0.896448 0
M  V30 6395 H 617.612 0.291386 3.22988 0
M  V30 6396 H 617.397 2.06272 3.33458 0
M  V30 6397 H 618.887 1.30162 3.96797 0
M  V30 6398 N 619.324 -0.923095 1.27737 0
M  V30 6399 C 620.57 -1.67375 1.14514 0
M  V30 6400 C 620.903 -1.91751 -0.307424 0
M  V30 6401 O 620.178 -1.51119 -1.22447 0
M  V30 6402 C 620.461 -3.03745 1.9342 0
M  V30 6403 C 620.314 -2.86581 3.46686 0
M  V30 6404 C 621.633 -4.04144 1.74228 0
M  V30 6405 H 618.752 -0.607427 0.417374 0
M  V30 6406 H 621.394 -1.07089 1.56946 0
M  V30 6407 H 619.544 -3.55204 1.5736 0
M  V30 6408 H 621.216 -2.42203 3.92601 0
M  V30 6409 H 619.459 -2.21829 3.72793 0
M  V30 6410 H 620.13 -3.83381 3.97143 0
M  V30 6411 H 622.606 -3.61712 2.05678 0
M  V30 6412 H 621.482 -4.97543 2.31824 0
M  V30 6413 H 621.743 -4.36661 0.691373 0
M  V30 6414 N 620.802 -1.09834 -1.13024 0
M  V30 6415 C 621.732 -0.763451 -2.20666 0
M  V30 6416 C 622.713 0.260778 -1.68089 0
M  V30 6417 O 623.898 0.127915 -1.93778 0
M  V30 6418 C 621.028 -0.187744 -3.46792 0
M  V30 6419 C 619.982 -1.14196 -4.12484 0
M  V30 6420 C 619.308 -0.427755 -5.32986 0
M  V30 6421 C 620.608 -2.48607 -4.59338 0
M  V30 6422 H 622.302 -1.66347 -2.48936 0
M  V30 6423 H 619.848 -0.801261 -1.19649 0
M  V30 6424 H 621.801 0.0586375 -4.21359 0
M  V30 6425 H 620.525 0.747485 -3.17931 0
M  V30 6426 H 619.184 -1.37369 -3.3989 0
M  V30 6427 H 618.832 0.511747 -5.0039 0
M  V30 6428 H 618.532 -1.06403 -5.77886 0
M  V30 6429 H 620.056 -0.189772 -6.10305 0
M  V30 6430 H 621.47 -2.29618 -5.25308 0
M  V30 6431 H 619.867 -3.08062 -5.14993 0
M  V30 6432 H 620.937 -3.09062 -3.73642 0
M  V30 6433 N 622.28 1.30327 -0.886154 0
M  V30 6434 C 623.696 1.48676 -0.580323 0
M  V30 6435 C 623.896 1.81189 0.881639 0
M  V30 6436 O 622.952 1.90021 1.66278 0
M  V30 6437 C 624.265 2.60932 -1.49449 0
M  V30 6438 C 625.813 2.74812 -1.49824 0
M  V30 6439 C 626.288 3.90183 -2.39836 0
M  V30 6440 N 627.779 3.97495 -2.37806 0
M  V30 6441 C 628.514 4.86078 -3.04165 0
M  V30 6442 N 628.01 5.79448 -3.79753 0
M  V30 6443 N 629.803 4.79456 -2.93391 0
M  V30 6444 H 621.954 1.07495 -1.8319 0
M  V30 6445 H 624.217 0.532661 -0.784204 0
M  V30 6446 H 623.923 2.43731 -2.5355 0
M  V30 6447 H 623.797 3.57437 -1.20494 0
M  V30 6448 H 626.184 2.91418 -0.464731 0
M  V30 6449 H 626.265 1.78924 -1.82811 0
M  V30 6450 H 625.909 3.74334 -3.43273 0
M  V30 6451 H 625.839 4.85411 -2.04166 0
M  V30 6452 H 628.33 3.30703 -1.82877 0
M  V30 6453 H 628.643 6.43805 -4.27475 0
M  V30 6454 H 626.988 5.79376 -3.8386 0
M  V30 6455 H 630.179 4.05494 -2.33864 0
M  V30 6456 H 630.352 5.48283 -3.45383 0
M  V30 6457 N 623.758 0.647228 1.43697 0
M  V30 6458 C 624.998 0.16171 2.03759 0
M  V30 6459 C 625.362 -1.19951 1.49919 0
M  V30 6460 O 626.563 -1.77808 2.01588 0
M  V30 6461 C 624.834 0.16505 3.57019 0
M  V30 6462 S 626.393 -0.253497 4.38067 0
M  V30 6463 H 623.211 0.0689985 0.707644 0
M  V30 6464 H 625.813 0.854224 1.7585 0
M  V30 6465 H 624.517 1.15858 3.93707 0
M  V30 6466 H 624.048 -0.548194 3.89562 0
M  V30 6467 H 626.063 -1.49385 4.73179 0
M  V30 6468 N 625.236 -1.5273 0.388769 0
M  V30 6469 C 626.146 -2.30165 -0.453993 0
M  V30 6470 C 627.162 -1.37058 -1.07197 0
M  V30 6471 O 628.338 -1.70127 -1.0779 0
M  V30 6472 C 625.403 -3.09303 -1.56628 0
M  V30 6473 C 624.464 -4.18117 -0.973467 0
M  V30 6474 C 623.697 -4.93472 -2.03275 0
M  V30 6475 O 623.92 -4.68913 -3.24772 0
M  V30 6476 O 622.854 -5.78833 -1.65034 0
M  V30 6477 H 626.68 -3.03185 0.176816 0
M  V30 6478 H 624.265 -1.4862 0.152501 0
M  V30 6479 H 626.147 -3.58648 -2.21246 0
M  V30 6480 H 624.822 -2.39098 -2.18206 0
M  V30 6481 H 623.729 -3.7297 -0.290556 0
M  V30 6482 H 625.062 -4.90556 -0.401908 0
M  V30 6483 N 626.714 -0.118576 -1.57153 0
M  V30 6484 C 627.962 0.538461 -1.94795 0
M  V30 6485 C 628.283 1.67243 -1.00274 0
M  V30 6486 O 627.553 1.95811 -0.0589692 0
M  V30 6487 H 626.133 0.201904 -0.719197 0
M  V30 6488 H 628.795 -0.187418 -1.93997 0
M  V30 6489 H 627.891 0.933315 -2.97818 0
M  V30 6490 N 628.193 1.56834 0.155195 0
M  V30 6491 C 629.604 1.72421 0.716082 0
M  V30 6492 C 629.955 0.731685 1.82046 0
M  V30 6493 O 629.08 -0.103481 2.16152 0
M  V30 6494 C 629.675 3.12629 1.30571 0
M  V30 6495 C 628.234 3.29846 1.81325 0
M  V30 6496 C 627.381 2.68359 0.698494 0
M  V30 6497 H 630.332 1.58544 -0.0703861 0
M  V30 6498 H 630.353 3.12174 2.1755 0
M  V30 6499 H 629.865 3.84844 0.501701 0
M  V30 6500 H 627.966 2.62614 2.64319 0
M  V30 6501 H 628.079 4.37727 1.9476 0
M  V30 6502 H 626.443 2.28604 1.12305 0
M  V30 6503 H 627.226 3.43171 -0.0939366 0
M  V30 6504 N 629.671 -0.424282 1.51781 0
M  V30 6505 C 630.92 -1.16961 1.64326 0
M  V30 6506 C 631.233 -1.92035 0.371749 0
M  V30 6507 O 632.439 -2.68873 0.37676 0
M  V30 6508 C 630.895 -2.12782 2.90262 0
M  V30 6509 C 630.503 -1.43295 4.24465 0
M  V30 6510 C 632.247 -2.87667 3.12166 0
M  V30 6511 C 630.154 -2.37676 5.41538 0
M  V30 6512 H 629.084 -0.440293 0.612093 0
M  V30 6513 H 631.735 -0.435431 1.78259 0
M  V30 6514 H 630.117 -2.8969 2.69992 0
M  V30 6515 H 631.291 -0.718564 4.55163 0
M  V30 6516 H 629.606 -0.805118 4.08542 0
M  V30 6517 H 632.203 -3.58395 3.96808 0
M  V30 6518 H 632.546 -3.49758 2.25776 0
M  V30 6519 H 633.079 -2.17863 3.32837 0
M  V30 6520 H 629.818 -1.80255 6.30229 0
M  V30 6521 H 629.338 -3.07132 5.15199 0
M  V30 6522 H 631.017 -2.98529 5.74012 0
M  V30 6523 N 631.149 -1.42148 -0.680565 0
M  V30 6524 C 632.56 -1.3768 -1.26099 0
M  V30 6525 C 632.911 -0.0672348 -1.96085 0
M  V30 6526 O 632.036 0.834172 -1.99676 0
M  V30 6527 C 632.631 -2.49387 -2.29328 0
M  V30 6528 C 631.19 -2.4827 -2.82911 0
M  V30 6529 C 630.337 -2.2847 -1.57152 0
M  V30 6530 H 633.288 -1.51446 -0.474326 0
M  V30 6531 H 633.309 -2.19307 -3.10941 0
M  V30 6532 H 632.821 -3.44686 -1.78363 0
M  V30 6533 H 630.922 -1.56773 -3.38013 0
M  V30 6534 H 631.035 -3.45109 -3.3232 0
M  V30 6535 H 629.399 -1.76623 -1.83511 0
M  V30 6536 H 630.182 -3.25816 -1.0816 0
M  V30 6537 N 632.627 0.916307 -1.28225 0
M  V30 6538 C 633.904 1.64429 -1.05936 0
M  V30 6539 C 634.284 2.07234 0.402139 0
M  V30 6540 O 633.632 1.81535 1.3877 0
M  V30 6541 C 633.842 2.83773 -2.03159 0
M  V30 6542 C 635.19 3.54852 -2.33164 0
M  V30 6543 O 636.214 2.93918 -2.01223 0
M  V30 6544 O 635.073 4.64663 -2.87664 0
M  V30 6545 H 632.167 0.721221 -0.404683 0
M  V30 6546 H 634.713 0.965838 -1.39534 0
M  V30 6547 H 633.485 2.49217 -3.01673 0
M  V30 6548 H 633.108 3.59333 -1.70192 0
M  V30 6549 N 634.105 1.10431 1.1244 0
M  V30 6550 C 635.351 0.847972 1.84221 0
M  V30 6551 C 635.684 -0.624903 1.83871 0
M  V30 6552 O 634.959 -1.46074 1.28423 0
M  V30 6553 C 635.242 1.39695 3.319 0
M  V30 6554 C 635.095 2.93668 3.40704 0
M  V30 6555 C 636.414 1.03924 4.27654 0
M  V30 6556 H 633.533 0.309502 0.668863 0
M  V30 6557 H 636.175 1.36745 1.31912 0
M  V30 6558 H 634.325 0.955095 3.76577 0
M  V30 6559 H 635.997 3.46379 3.04662 0
M  V30 6560 H 634.24 3.30272 2.81252 0
M  V30 6561 H 634.911 3.27162 4.446 0
M  V30 6562 H 637.387 1.42049 3.91102 0
M  V30 6563 H 636.263 1.45027 5.29394 0
M  V30 6564 H 636.524 -0.051336 4.4207 0
M  V30 6565 N 635.583 -1.29855 0.893053 0
M  V30 6566 C 636.811 -1.99976 0.530788 0
M  V30 6567 C 637.226 -1.66889 -0.882799 0
M  V30 6568 O 636.583 -0.910352 -1.58173 0
M  V30 6569 C 636.634 -3.54547 0.705587 0
M  V30 6570 O 636.355 -3.86458 2.06353 0
M  V30 6571 C 637.856 -4.41937 0.347387 0
M  V30 6572 H 635.076 -0.639129 0.204339 0
M  V30 6573 H 637.62 -1.65549 1.20057 0
M  V30 6574 H 635.775 -3.87311 0.0830685 0
M  V30 6575 H 636.189 -4.81146 2.08803 0
M  V30 6576 H 637.663 -5.4954 0.520557 0
M  V30 6577 H 638.14 -4.33339 -0.715139 0
M  V30 6578 H 638.746 -4.14633 0.946567 0
M  V30 6579 N 637.061 -0.65484 -1.43351 0
M  V30 6580 C 638.308 -0.168892 -2.01794 0
M  V30 6581 C 638.636 1.2177 -1.51665 0
M  V30 6582 O 637.891 1.82717 -0.70092 0
M  V30 6583 C 638.19 -0.130424 -3.57162 0
M  V30 6584 C 637.856 -1.45898 -4.26643 0
M  V30 6585 C 636.518 -1.82279 -4.4534 0
M  V30 6586 C 638.87 -2.33485 -4.65976 0
M  V30 6587 C 636.198 -3.0591 -5.00635 0
M  V30 6588 C 638.55 -3.5641 -5.22642 0
M  V30 6589 C 637.214 -3.92985 -5.39555 0
M  V30 6590 H 636.484 -0.061802 -0.738418 0
M  V30 6591 H 639.131 -0.845869 -1.71806 0
M  V30 6592 H 637.436 0.630008 -3.86702 0
M  V30 6593 H 639.133 0.262465 -4.0014 0
M  V30 6594 H 635.723 -1.16591 -4.12437 0
M  V30 6595 H 639.907 -2.06668 -4.51223 0
M  V30 6596 H 635.163 -3.34295 -5.11915 0
M  V30 6597 H 639.337 -4.24495 -5.52066 0
M  V30 6598 H 636.964 -4.88862 -5.82167 0
M  V30 6599 N 638.539 1.52521 -0.396863 0
M  V30 6600 C 639.449 2.30403 0.44178 0
M  V30 6601 C 640.465 1.37625 1.06468 0
M  V30 6602 O 641.641 1.70697 1.06886 0
M  V30 6603 C 638.706 3.1013 1.54986 0
M  V30 6604 C 637.767 4.18628 0.951279 0
M  V30 6605 C 637 4.94543 2.00655 0
M  V30 6606 O 637.223 4.70629 3.22281 0
M  V30 6607 O 636.157 5.797 1.61962 0
M  V30 6608 H 639.983 3.03087 -0.192892 0
M  V30 6609 H 637.568 1.48537 -0.16038 0
M  V30 6610 H 639.45 3.59816 2.19341 0
M  V30 6611 H 638.125 2.40251 2.16935 0
M  V30 6612 H 637.032 3.73119 0.270773 0
M  V30 6613 H 638.365 4.90763 0.375887 0
M  V30 6614 N 640.017 0.126909 1.57088 0
M  V30 6615 C 640.947 -0.816847 2.18746 0
M  V30 6616 C 641.928 -1.27161 1.12979 0
M  V30 6617 O 643.113 -1.33279 1.41246 0
M  V30 6618 C 640.243 -2.06398 2.79315 0
M  V30 6619 C 639.197 -1.74673 3.90735 0
M  V30 6620 C 638.523 -3.06482 4.38147 0
M  V30 6621 C 639.823 -1.0089 5.12463 0
M  V30 6622 H 641.517 -0.303032 2.97863 0
M  V30 6623 H 639.063 -0.144314 1.43275 0
M  V30 6624 H 641.016 -2.72885 3.2111 0
M  V30 6625 H 639.74 -2.60118 1.975 0
M  V30 6626 H 638.399 -1.10572 3.49527 0
M  V30 6627 H 638.047 -3.58152 3.5318 0
M  V30 6628 H 637.747 -2.86025 5.13287 0
M  V30 6629 H 639.271 -3.74073 4.82599 0
M  V30 6630 H 640.685 -1.57546 5.51228 0
M  V30 6631 H 639.082 -0.905006 5.93237 0
M  V30 6632 H 640.152 0.00297335 4.849 0
M  V30 6633 N 641.495 -1.56914 -0.146875 0
M  V30 6634 C 642.425 -2.01308 -1.1831 0
M  V30 6635 C 643.406 -0.892664 -1.44795 0
M  V30 6636 O 644.591 -1.16048 -1.55713 0
M  V30 6637 C 641.721 -2.3938 -2.51624 0
M  V30 6638 C 640.675 -3.54608 -2.3966 0
M  V30 6639 C 640.001 -3.78493 -3.77686 0
M  V30 6640 C 641.301 -4.87269 -1.88058 0
M  V30 6641 H 642.995 -2.88123 -0.813964 0
M  V30 6642 H 640.541 -1.38615 -0.3901 0
M  V30 6643 H 642.494 -2.69037 -3.24341 0
M  V30 6644 H 641.218 -1.49502 -2.90373 0
M  V30 6645 H 639.877 -3.25116 -1.69396 0
M  V30 6646 H 639.525 -2.85866 -4.13871 0
M  V30 6647 H 639.225 -4.56039 -3.70543 0
M  V30 6648 H 640.749 -4.10576 -4.51951 0
M  V30 6649 H 642.163 -5.15644 -2.50568 0
M  V30 6650 H 640.56 -5.68622 -1.91805 0
M  V30 6651 H 641.63 -4.77634 -0.836277 0
M  V30 6652 N 642.974 0.416227 -1.52004 0
M  V30 6653 C 644.39 0.754319 -1.40649 0
M  V30 6654 C 644.59 1.95059 -0.505392 0
M  V30 6655 O 643.646 2.5248 0.0315057 0
M  V30 6656 C 644.959 1.0149 -2.83055 0
M  V30 6657 C 646.507 1.11805 -2.9235 0
M  V30 6658 C 646.982 1.41144 -4.35709 0
M  V30 6659 N 648.473 1.48024 -4.38911 0
M  V30 6660 C 649.208 1.72338 -5.46889 0
M  V30 6661 N 648.704 1.94303 -6.64995 0
M  V30 6662 N 650.497 1.74294 -5.34395 0
M  V30 6663 H 642.648 -0.371324 -2.09129 0
M  V30 6664 H 644.911 -0.103811 -0.942299 0
M  V30 6665 H 644.617 0.208345 -3.51082 0
M  V30 6666 H 644.491 1.93697 -3.23668 0
M  V30 6667 H 646.878 1.91521 -2.24508 0
M  V30 6668 H 646.959 0.17451 -2.55204 0
M  V30 6669 H 646.603 0.619484 -5.04108 0
M  V30 6670 H 646.533 2.36739 -4.70385 0
M  V30 6671 H 649.024 1.32868 -3.53772 0
M  V30 6672 H 649.337 2.12286 -7.43071 0
M  V30 6673 H 647.682 1.91582 -6.68073 0
M  V30 6674 H 650.873 1.56667 -4.41104 0
M  V30 6675 H 651.046 1.92904 -6.18621 0
M  V30 6676 N 644.452 1.42507 0.673017 0
M  V30 6677 C 645.362 1.4853 1.81593 0
M  V30 6678 C 646.378 0.373907 1.69935 0
M  V30 6679 O 647.554 0.625078 1.91454 0
M  V30 6680 C 644.619 1.387 3.17747 0
M  V30 6681 C 643.68 2.60346 3.41348 0
M  V30 6682 C 642.913 2.50975 4.71007 0
M  V30 6683 O 643.136 1.54659 5.49033 0
M  V30 6684 O 642.07 3.41138 4.95892 0
M  V30 6685 H 645.896 2.45001 1.79467 0
M  V30 6686 H 643.481 1.2429 0.82899 0
M  V30 6687 H 645.363 1.35586 3.98992 0
M  V30 6688 H 644.038 0.453555 3.20507 0
M  V30 6689 H 642.945 2.69034 2.59945 0
M  V30 6690 H 644.278 3.52595 3.43421 0
M  V30 6691 N 645.93 -0.909495 1.28709 0
M  V30 6692 C 647.178 -1.65577 1.15882 0
M  V30 6693 C 647.499 -1.928 -0.292108 0
M  V30 6694 O 646.769 -1.54716 -1.20166 0
M  V30 6695 H 645.349 -0.613714 0.425869 0
M  V30 6696 H 648.011 -1.09108 1.61498 0
M  V30 6697 H 647.107 -2.61634 1.70159 0
M  V30 6698 N 647.408 -1.11026 -1.11852 0
M  V30 6699 C 648.318 -0.777252 -2.2135 0
M  V30 6700 C 649.334 0.227821 -1.72502 0
M  V30 6701 O 650.51 0.0650587 -2.01295 0
M  V30 6702 C 647.575 -0.220668 -3.45997 0
M  V30 6703 C 646.636 -1.2838 -4.09655 0
M  V30 6704 C 645.869 -0.753678 -5.28352 0
M  V30 6705 O 646.092 0.417779 -5.68868 0
M  V30 6706 O 645.026 -1.51647 -5.82483 0
M  V30 6707 H 648.852 -1.69141 -2.5224 0
M  V30 6708 H 646.437 -0.885836 -1.20305 0
M  V30 6709 H 648.319 0.0855756 -4.21313 0
M  V30 6710 H 646.994 0.666262 -3.16769 0
M  V30 6711 H 645.901 -1.64299 -3.3609 0
M  V30 6712 H 647.234 -2.14396 -4.43052 0
M  V30 6713 N 648.886 1.2938 -0.899927 0
M  V30 6714 C 650.114 1.99691 -0.541386 0
M  V30 6715 C 650.529 1.67355 0.873936 0
M  V30 6716 O 649.886 0.918728 1.57688 0
M  V30 6717 C 649.937 3.54168 -0.72438 0
M  V30 6718 O 649.658 3.85359 -2.08399 0
M  V30 6719 C 651.159 4.41746 -0.370819 0
M  V30 6720 H 648.379 0.638037 -0.207726 0
M  V30 6721 H 650.923 1.6491 -1.20934 0
M  V30 6722 H 649.078 3.87261 -0.103607 0
M  V30 6723 H 649.492 4.80032 -2.11352 0
M  V30 6724 H 650.966 5.49256 -0.549693 0
M  V30 6725 H 651.443 4.33712 0.692148 0
M  V30 6726 H 652.049 4.14125 -0.968543 0
M  V30 6727 N 650.364 0.662433 1.43002 0
M  V30 6728 C 651.311 -0.0235324 2.30788 0
M  V30 6729 C 652.281 -0.805342 1.4527 0
M  V30 6730 O 653.466 -0.78009 1.74124 0
M  V30 6731 C 650.606 -0.977545 3.30965 0
M  V30 6732 C 649.719 -0.190865 4.31578 0
M  V30 6733 C 648.854 -1.13951 5.18834 0
M  V30 6734 C 647.893 -0.343796 6.11134 0
M  V30 6735 N 647.03 -1.2445 6.90982 0
M  V30 6736 H 651.87 0.730921 2.88897 0
M  V30 6737 H 649.407 0.372197 1.42313 0
M  V30 6738 H 651.365 -1.54437 3.87563 0
M  V30 6739 H 649.995 -1.69877 2.74484 0
M  V30 6740 H 649.047 0.492388 3.772 0
M  V30 6741 H 650.359 0.427464 4.96965 0
M  V30 6742 H 649.513 -1.77666 5.80103 0
M  V30 6743 H 648.252 -1.79174 4.53595 0
M  V30 6744 H 647.257 0.30665 5.48944 0
M  V30 6745 H 648.482 0.304161 6.78419 0
M  V30 6746 H 646.428 -1.88336 6.28383 0
M  V30 6747 H 646.345 -0.680959 7.52927 0
M  V30 6748 H 647.613 -1.86952 7.56749 0
M  V30 6749 N 651.842 -1.52309 0.404946 0
M  V30 6750 C 652.805 -2.25491 -0.410651 0
M  V30 6751 C 653.805 -1.27704 -0.977154 0
M  V30 6752 O 654.995 -1.51679 -0.856691 0
M  V30 6753 C 652.127 -3.02197 -1.57765 0
M  V30 6754 H 653.32 -2.99015 0.230277 0
M  V30 6755 H 650.873 -1.55506 0.157377 0
M  V30 6756 H 651.608 -2.33013 -2.25556 0
M  V30 6757 H 651.393 -3.73987 -1.17797 0
M  V30 6758 H 652.883 -3.57719 -2.15469 0
M  V30 6759 N 653.32 -0.135238 -1.57019 0
M  V30 6760 C 654.566 0.519563 -1.96032 0
M  V30 6761 C 654.899 1.65284 -1.01955 0
M  V30 6762 O 654.174 1.94408 -0.059727 0
M  V30 6763 C 654.457 1.0369 -3.44848 0
M  V30 6764 C 654.31 -0.0940754 -4.49702 0
M  V30 6765 C 655.629 1.92254 -3.95887 0
M  V30 6766 H 652.748 0.18739 -0.712779 0
M  V30 6767 H 655.39 -0.214086 -1.8879 0
M  V30 6768 H 653.54 1.66209 -3.5115 0
M  V30 6769 H 655.212 -0.73 -4.55487 0
M  V30 6770 H 653.455 -0.754924 -4.27181 0
M  V30 6771 H 654.126 0.309419 -5.51132 0
M  V30 6772 H 656.602 1.39581 -3.9199 0
M  V30 6773 H 655.478 2.25364 -5.00502 0
M  V30 6774 H 655.739 2.85513 -3.37543 0
M  V30 6775 N 654.798 1.5699 0.138552 0
M  V30 6776 C 655.745 1.98899 1.17081 0
M  V30 6777 C 656.715 0.857922 1.42228 0
M  V30 6778 O 657.9 1.12065 1.54422 0
M  V30 6779 C 655.04 2.38189 2.4972 0
M  V30 6780 C 654.153 3.64624 2.31674 0
M  V30 6781 C 653.288 3.9298 3.57407 0
M  V30 6782 C 652.327 5.1266 3.34435 0
M  V30 6783 N 651.464 5.36983 4.5232 0
M  V30 6784 H 656.304 2.86881 0.80642 0
M  V30 6785 H 653.841 1.41925 0.386727 0
M  V30 6786 H 655.799 2.59 3.2707 0
M  V30 6787 H 654.429 1.53275 2.84089 0
M  V30 6788 H 653.481 3.51542 1.45337 0
M  V30 6789 H 654.793 4.52131 2.10664 0
M  V30 6790 H 653.947 4.14335 4.43183 0
M  V30 6791 H 652.686 3.03912 3.8143 0
M  V30 6792 H 651.691 4.9117 2.47048 0
M  V30 6793 H 652.916 6.03288 3.11802 0
M  V30 6794 H 650.862 4.50871 4.76499 0
M  V30 6795 H 650.779 6.18775 4.34343 0
M  V30 6796 H 652.047 5.62842 5.39285 0
M  V30 6797 N 656.276 -0.40816 1.52223 0
M  V30 6798 C 657.504 -1.17672 1.70179 0
M  V30 6799 C 657.919 -1.84257 0.411696 0
M  V30 6800 O 657.276 -1.7192 -0.612354 0
M  V30 6801 C 657.327 -2.23911 2.83806 0
M  V30 6802 O 657.048 -1.60044 4.0782 0
M  V30 6803 C 658.549 -3.1364 3.13281 0
M  V30 6804 H 655.769 -0.353562 0.570293 0
M  V30 6805 H 658.313 -0.480083 1.98785 0
M  V30 6806 H 656.468 -2.89242 2.57717 0
M  V30 6807 H 656.882 -2.30484 4.71145 0
M  V30 6808 H 658.356 -3.84255 3.96298 0
M  V30 6809 H 658.833 -3.76066 2.26872 0
M  V30 6810 H 659.439 -2.53977 3.41139 0
M  V30 6811 N 657.755 -1.42862 -0.66545 0
M  V30 6812 C 659.001 -1.44043 -1.42757 0
M  V30 6813 C 659.334 -0.0599629 -1.94107 0
M  V30 6814 O 658.609 0.917286 -1.71511 0
M  V30 6815 C 658.892 -2.47266 -2.61786 0
M  V30 6816 C 658.745 -3.94539 -2.16007 0
M  V30 6817 C 660.064 -2.47365 -3.64003 0
M  V30 6818 H 657.183 -0.524506 -0.517748 0
M  V30 6819 H 659.825 -1.74335 -0.755466 0
M  V30 6820 H 657.975 -2.21565 -3.19126 0
M  V30 6821 H 659.647 -4.31254 -1.63762 0
M  V30 6822 H 657.89 -4.07957 -1.47491 0
M  V30 6823 H 658.561 -4.62357 -3.01546 0
M  V30 6824 H 661.037 -2.70243 -3.16399 0
M  V30 6825 H 659.913 -3.21552 -4.44854 0
M  V30 6826 H 660.174 -1.50299 -4.15767 0
M  V30 6827 N 659.233 0.902656 -1.29189 0
M  V30 6828 C 660.649 1.18296 -1.07137 0
M  V30 6829 C 660.849 2.00701 0.179223 0
M  V30 6830 O 659.905 2.3675 0.877812 0
M  V30 6831 C 661.218 1.90677 -2.32514 0
M  V30 6832 C 662.766 2.03515 -2.37804 0
M  V30 6833 C 663.241 2.79307 -3.62976 0
M  V30 6834 N 664.732 2.86862 -3.63681 0
M  V30 6835 C 665.467 3.46035 -4.57217 0
M  V30 6836 N 664.963 4.06399 -5.61081 0
M  V30 6837 N 666.756 3.43681 -4.44792 0
M  V30 6838 H 658.907 0.352765 -2.0945 0
M  V30 6839 H 661.17 0.21876 -0.922414 0
M  V30 6840 H 660.876 1.3756 -3.23682 0
M  V30 6841 H 660.75 2.91169 -2.39793 0
M  V30 6842 H 663.137 2.55809 -1.47125 0
M  V30 6843 H 663.218 1.02166 -2.34512 0
M  V30 6844 H 662.862 2.2769 -4.54004 0
M  V30 6845 H 662.792 3.80995 -3.63525 0
M  V30 6846 H 665.283 2.43987 -2.88581 0
M  V30 6847 H 665.596 4.49564 -6.2858 0
M  V30 6848 H 663.941 4.0487 -5.64894 0
M  V30 6849 H 667.132 2.9574 -3.62843 0
M  V30 6850 H 667.305 3.89503 -5.17872 0
M  V30 6851 N 660.711 1.11618 1.11262 0
M  V30 6852 C 661.939 0.888739 1.8684 0
M  V30 6853 C 662.354 -0.561558 1.80255 0
M  V30 6854 O 661.711 -1.38782 1.18515 0
M  V30 6855 C 661.762 1.34422 3.35579 0
M  V30 6856 O 661.483 2.73766 3.42029 0
M  V30 6857 C 662.984 1.15246 4.28058 0
M  V30 6858 H 660.204 0.318152 0.590779 0
M  V30 6859 H 662.748 1.48398 1.40707 0
M  V30 6860 H 660.903 0.79239 3.7921 0
M  V30 6861 H 661.317 2.9355 4.34659 0
M  V30 6862 H 662.791 1.52015 5.30656 0
M  V30 6863 H 663.268 0.0922007 4.39103 0
M  V30 6864 H 663.874 1.69136 3.90222 0
M  V30 6865 N 662.189 -1.289 0.906776 0
M  V30 6866 C 663.6 -1.77336 0.58384 0
M  V30 6867 C 663.951 -1.74304 -0.900697 0
M  V30 6868 O 663.076 -1.33335 -1.70443 0
M  V30 6869 C 663.671 -3.22019 1.05304 0
M  V30 6870 C 662.23 -3.68205 0.781148 0
M  V30 6871 C 661.377 -2.48837 1.22373 0
M  V30 6872 H 664.328 -1.15462 1.08877 0
M  V30 6873 H 664.349 -3.78481 0.391414 0
M  V30 6874 H 663.861 -3.24194 2.13353 0
M  V30 6875 H 661.962 -3.71497 -0.28643 0
M  V30 6876 H 662.075 -4.58675 1.384 0
M  V30 6877 H 660.439 -2.46461 0.642594 0
M  V30 6878 H 661.222 -2.53736 2.31242 0
M  V30 6879 N 663.667 -0.670007 -1.42649 0
M  V30 6880 C 664.915 -0.18991 -2.01206 0
M  V30 6881 C 665.236 1.20617 -1.53221 0
M  V30 6882 O 664.506 1.80898 -0.751856 0
M  V30 6883 H 663.086 -0.0672189 -0.743969 0
M  V30 6884 H 665.748 -0.865442 -1.74631 0
M  V30 6885 H 664.844 -0.187481 -3.11536 0
M  V30 6886 N 665.145 1.52092 -0.413018 0
M  V30 6887 C 666.108 2.25706 0.398687 0
M  V30 6888 C 667.108 1.28221 0.970368 0
M  V30 6889 O 668.298 1.52131 0.848635 0
M  V30 6890 C 665.43 3.03029 1.5616 0
M  V30 6891 H 666.623 2.98888 -0.246131 0
M  V30 6892 H 664.176 1.5542 -0.165622 0
M  V30 6893 H 664.911 2.34205 2.24317 0
M  V30 6894 H 664.696 3.74606 1.15812 0
M  V30 6895 H 666.186 3.58857 2.13569 0
M  V30 6896 N 666.623 0.143563 1.56945 0
M  V30 6897 C 667.586 -0.783295 2.154 0
M  V30 6898 C 668.586 -1.17763 1.09492 0
M  V30 6899 O 669.776 -1.09912 1.35148 0
M  V30 6900 C 666.908 -2.06248 2.7143 0
M  V30 6901 H 668.101 -0.274863 2.98638 0
M  V30 6902 H 665.654 -0.105859 1.55941 0
M  V30 6903 H 666.389 -2.61466 1.91849 0
M  V30 6904 H 666.174 -1.78897 3.4891 0
M  V30 6905 H 667.664 -2.72453 3.16479 0
M  V30 6906 N 668.101 -1.57061 -0.130224 0
M  V30 6907 C 669.064 -1.98593 -1.14426 0
M  V30 6908 C 670.064 -0.874584 -1.34936 0
M  V30 6909 O 671.254 -1.14086 -1.31643 0
M  V30 6910 C 668.386 -2.31639 -2.50112 0
M  V30 6911 H 669.579 -2.89374 -0.787561 0
M  V30 6912 H 667.132 -1.51756 -0.374146 0
M  V30 6913 H 667.867 -1.43703 -2.90723 0
M  V30 6914 H 667.652 -3.12684 -2.36583 0
M  V30 6915 H 669.142 -2.64551 -3.23114 0
M  V30 6916 N 669.579 0.400081 -1.52437 0
M  V30 6917 C 670.527 1.50851 -1.7705 0
M  V30 6918 C 671.521 1.56928 -0.637969 0
M  V30 6919 O 672.727 1.60226 -0.820212 0
M  V30 6920 H 669.102 0.50186 -0.560036 0
M  V30 6921 H 671.073 1.27281 -2.69893 0
M  V30 6922 C 669.822 2.88117 -1.94638 0
M  V30 6923 H 669.145 2.84187 -2.81208 0
M  V30 6924 H 670.585 3.64942 -2.15855 0
M  V30 6925 C 669.044 3.29206 -0.715899 0
M  V30 6926 O 669.574 4.01544 0.111944 0
M  V30 6927 N 667.78 2.85363 -0.549191 0
M  V30 6928 H 667.327 2.26664 -1.22397 0
M  V30 6929 H 667.285 3.13214 0.27278 0
M  V30 6930 N 671.057 1.43213 0.657864 0
M  V30 6931 C 671.987 1.50815 1.78262 0
M  V30 6932 C 672.968 0.363211 1.66177 0
M  V30 6933 O 674.153 0.579806 1.85343 0
M  V30 6934 C 671.283 1.42625 3.16663 0
M  V30 6935 C 670.237 2.5532 3.43505 0
M  V30 6936 C 669.563 2.32184 4.81658 0
M  V30 6937 C 670.863 3.97583 3.38711 0
M  V30 6938 H 672.557 2.44954 1.72157 0
M  V30 6939 H 670.103 1.17896 0.82683 0
M  V30 6940 H 672.056 1.46548 3.95097 0
M  V30 6941 H 670.78 0.449877 3.23487 0
M  V30 6942 H 669.439 2.50742 2.6744 0
M  V30 6943 H 669.087 1.32801 4.85153 0
M  V30 6944 H 668.787 3.07724 5.00579 0
M  V30 6945 H 670.311 2.37883 5.62356 0
M  V30 6946 H 671.725 4.03673 4.07089 0
M  V30 6947 H 670.122 4.73112 3.69168 0
M  V30 6948 H 671.192 4.23049 2.36976 0
M  V30 6949 N 672.536 -0.895792 1.29666 0
M  V30 6950 C 673.446 -2.03329 1.17024 0
M  V30 6951 C 674.462 -1.73753 0.0925962 0
M  V30 6952 O 675.638 -1.99071 0.305431 0
M  V30 6953 C 672.703 -3.36072 0.851841 0
M  V30 6954 C 671.764 -3.7914 2.01373 0
M  V30 6955 C 670.997 -5.05549 1.71043 0
M  V30 6956 O 671.22 -5.66874 0.633213 0
M  V30 6957 O 670.154 -5.44764 2.5596 0
M  V30 6958 H 673.98 -2.16918 2.12556 0
M  V30 6959 H 671.565 -1.02007 1.09156 0
M  V30 6960 H 673.447 -4.15729 0.689006 0
M  V30 6961 H 672.122 -3.23616 -0.0736634 0
M  V30 6962 H 671.029 -3.00233 2.23183 0
M  V30 6963 H 672.362 -3.96186 2.92058 0
M  V30 6964 N 674.014 -1.12206 -1.10668 0
M  V30 6965 C 674.944 -0.810086 -2.18997 0
M  V30 6966 C 675.925 0.225065 -1.68604 0
M  V30 6967 O 677.11 0.086783 -1.94006 0
M  V30 6968 C 674.24 -0.261262 -3.46316 0
M  V30 6969 C 673.194 -1.2292 -4.09969 0
M  V30 6970 C 672.52 -0.540713 -5.31959 0
M  V30 6971 C 673.82 -2.58295 -4.53962 0
M  V30 6972 H 675.514 -1.7159 -2.45352 0
M  V30 6973 H 673.06 -0.82646 -1.17922 0
M  V30 6974 H 675.013 -0.0307522 -4.21389 0
M  V30 6975 H 673.737 0.679879 -3.19445 0
M  V30 6976 H 672.396 -1.44548 -3.369 0
M  V30 6977 H 672.044 0.405492 -5.01363 0
M  V30 6978 H 671.744 -1.18637 -5.75499 0
M  V30 6979 H 673.268 -0.319184 -6.09765 0
M  V30 6980 H 674.682 -2.40709 -5.20319 0
M  V30 6981 H 673.079 -3.18916 -5.08343 0
M  V30 6982 H 674.149 -3.16918 -3.67002 0
M  V30 6983 N 675.492 1.28418 -0.913599 0
M  V30 6984 C 676.741 1.94265 -0.542572 0
M  V30 6985 C 677.054 1.72709 0.918207 0
M  V30 6986 O 678.26 2.32778 1.39738 0
M  V30 6987 C 676.716 3.47956 -0.919507 0
M  V30 6988 C 676.324 3.78291 -2.4 0
M  V30 6989 C 678.068 4.19962 -0.619057 0
M  V30 6990 C 675.975 5.2529 -2.71707 0
M  V30 6991 H 674.905 0.727213 -0.199192 0
M  V30 6992 H 677.556 1.45931 -1.11249 0
M  V30 6993 H 675.938 3.9502 -0.278372 0
M  V30 6994 H 677.112 3.42035 -3.08786 0
M  V30 6995 H 675.427 3.19456 -2.67089 0
M  V30 6996 H 678.024 5.28178 -0.832623 0
M  V30 6997 H 678.367 4.13935 0.443126 0
M  V30 6998 H 678.9 3.78674 -1.21865 0
M  V30 6999 H 675.639 5.36394 -3.76778 0
M  V30 7000 H 675.159 5.62743 -2.07559 0
M  V30 7001 H 676.838 5.93027 -2.58703 0
M  V30 7002 N 676.97 0.677563 1.42291 0
M  V30 7003 C 678.217 0.200975 2.015 0
M  V30 7004 C 678.545 -1.19342 1.53583 0
M  V30 7005 O 677.8 -1.81579 0.7299 0
M  V30 7006 C 678.099 0.187229 3.56909 0
M  V30 7007 C 677.765 1.52667 4.24268 0
M  V30 7008 C 676.427 1.89341 4.42384 0
M  V30 7009 C 678.779 2.40869 4.62203 0
M  V30 7010 C 676.107 3.13836 4.95705 0
M  V30 7011 C 678.459 3.64679 5.16906 0
M  V30 7012 C 677.123 4.01519 5.33234 0
M  V30 7013 H 676.393 0.0735418 0.737342 0
M  V30 7014 H 679.04 0.873095 1.70439 0
M  V30 7015 H 677.345 -0.568407 3.87655 0
M  V30 7016 H 679.042 -0.198773 4.00507 0
M  V30 7017 H 675.632 1.23138 4.1053 0
M  V30 7018 H 679.816 2.1382 4.47878 0
M  V30 7019 H 675.072 3.42396 5.06532 0
M  V30 7020 H 679.246 4.33224 5.45243 0
M  V30 7021 H 676.873 4.98062 5.74316 0
M  V30 7022 N 678.448 -1.51871 0.421078 0
M  V30 7023 C 679.694 -2.02237 -0.151014 0
M  V30 7024 C 680.027 -1.30554 -1.43768 0
M  V30 7025 O 679.302 -0.41546 -1.90011 0
M  V30 7026 C 679.585 -3.5802 -0.386482 0
M  V30 7027 C 679.438 -4.40339 0.9177 0
M  V30 7028 C 680.757 -4.24444 -1.16342 0
M  V30 7029 H 677.876 -0.735062 -0.0534102 0
M  V30 7030 H 680.518 -1.81656 0.556888 0
M  V30 7031 H 678.668 -3.75688 -0.989494 0
M  V30 7032 H 680.34 -4.34357 1.55344 0
M  V30 7033 H 678.583 -4.06073 1.526 0
M  V30 7034 H 679.254 -5.47451 0.707187 0
M  V30 7035 H 681.73 -4.10948 -0.652788 0
M  V30 7036 H 680.606 -5.33358 -1.29693 0
M  V30 7037 H 680.867 -3.84204 -2.18724 0
M  V30 7038 N 679.926 -0.151884 -1.56866 0
M  V30 7039 C 681.174 0.497021 -1.95893 0
M  V30 7040 C 681.495 1.65078 -1.03799 0
M  V30 7041 O 680.765 1.95642 -0.10049 0
M  V30 7042 H 679.345 0.186603 -0.723318 0
M  V30 7043 H 682.007 -0.228525 -1.93556 0
M  V30 7044 H 681.103 0.869933 -2.99731 0
M  V30 7045 N 681.404 1.57128 0.121893 0
M  V30 7046 C 682.815 1.73902 0.679348 0
M  V30 7047 C 683.166 0.770135 1.80453 0
M  V30 7048 O 682.291 -0.0576083 2.16323 0
M  V30 7049 C 682.886 3.15328 1.2391 0
M  V30 7050 C 681.445 3.33618 1.74288 0
M  V30 7051 C 680.592 2.6978 0.641414 0
M  V30 7052 H 683.543 1.58359 -0.104 0
M  V30 7053 H 683.564 3.16718 2.10879 0
M  V30 7054 H 683.076 3.85821 0.419957 0
M  V30 7055 H 681.177 2.68162 2.58689 0
M  V30 7056 H 681.29 4.4176 1.85432 0
M  V30 7057 H 679.654 2.30935 1.0743 0
M  V30 7058 H 680.437 3.42895 -0.166707 0
M  V30 7059 N 682.882 -0.391992 1.52647 0
M  V30 7060 C 683.814 -1.49811 1.73463 0
M  V30 7061 C 684.827 -1.50734 0.615078 0
M  V30 7062 O 686.016 -1.5469 0.890696 0
M  V30 7063 C 683.116 -2.88667 1.77552 0
M  V30 7064 C 682.289 -3.11743 3.06815 0
M  V30 7065 C 681.348 -4.30564 3.02491 0
M  V30 7066 O 680.374 -4.27014 3.76361 0
M  V30 7067 N 681.576 -5.36593 2.21468 0
M  V30 7068 H 684.341 -1.32343 2.68897 0
M  V30 7069 H 681.902 -0.581475 1.51098 0
M  V30 7070 H 683.894 -3.66251 1.7217 0
M  V30 7071 H 682.464 -2.99508 0.895181 0
M  V30 7072 H 681.684 -2.2205 3.25711 0
M  V30 7073 H 682.972 -3.24013 3.92292 0
M  V30 7074 H 682.37 -5.42332 1.60913 0
M  V30 7075 H 680.927 -6.12855 2.21928 0
M  V30 7076 N 684.36 -1.4356 -0.65026 0
M  V30 7077 C 685.31 -1.45392 -1.75628 0
M  V30 7078 C 686.294 -0.322006 -1.57645 0
M  V30 7079 O 687.486 -0.565996 -1.67707 0
M  V30 7080 C 684.615 -1.38254 -3.1423 0
M  V30 7081 C 683.701 -2.56487 -3.3775 0
M  V30 7082 N 684.092 -3.81824 -3.31729 0
M  V30 7083 C 682.39 -2.51274 -3.6848 0
M  V30 7084 C 683.091 -4.60497 -3.55412 0
M  V30 7085 N 682.067 -3.91274 -3.77367 0
M  V30 7086 H 685.869 -2.40167 -1.69402 0
M  V30 7087 H 683.383 -1.38254 -0.852037 0
M  V30 7088 H 685.38 -1.3765 -3.9352 0
M  V30 7089 H 684.04 -0.445019 -3.21636 0
M  V30 7090 H 685.051 -4.14069 -3.11074 0
M  V30 7091 H 681.728 -1.66223 -3.82983 0
M  V30 7092 H 683.118 -5.69518 -3.5651 0
M  V30 7093 N 685.838 0.888903 -1.30139 0
M  V30 7094 C 686.801 1.97576 -1.16174 0
M  V30 7095 C 687.801 1.60525 -0.094086 0
M  V30 7096 O 688.991 1.70812 -0.341889 0
M  V30 7097 C 686.123 3.3188 -0.778983 0
M  V30 7098 H 687.316 2.11393 -2.12728 0
M  V30 7099 H 684.869 1.0748 -1.1348 0
M  V30 7100 H 685.604 3.23765 0.186225 0
M  V30 7101 H 685.389 3.60141 -1.55051 0
M  V30 7102 H 686.879 4.11612 -0.704631 0
M  V30 7103 N 687.317 1.12792 1.10072 0
M  V30 7104 C 688.565 0.883796 1.81751 0
M  V30 7105 C 688.886 -0.591891 1.858 0
M  V30 7106 O 688.156 -1.43017 1.33876 0
M  V30 7107 H 686.736 0.323978 0.673088 0
M  V30 7108 H 689.398 1.42314 1.33164 0
M  V30 7109 H 688.494 1.26863 2.85153 0
M  V30 7110 N 688.795 -1.27931 0.920396 0
M  V30 7111 C 689.743 -2.29061 0.404191 0
M  V30 7112 C 690.737 -1.61615 -0.507634 0
M  V30 7113 O 691.943 -1.75765 -0.388144 0
M  V30 7114 H 688.318 -0.743594 0.112123 0
M  V30 7115 H 690.289 -2.70021 1.27008 0
M  V30 7116 C 689.038 -3.46088 -0.334466 0
M  V30 7117 H 688.361 -3.98194 0.35797 0
M  V30 7118 H 689.801 -4.18829 -0.660196 0
M  V30 7119 C 688.26 -2.99396 -1.54479 0
M  V30 7120 O 688.79 -3.02439 -2.64374 0
M  V30 7121 N 686.996 -2.54978 -1.39408 0
M  V30 7122 H 686.543 -2.52701 -0.500009 0
M  V30 7123 H 686.501 -2.24098 -2.20516 0
M  V30 7124 N 690.273 -0.685099 -1.4193 0
M  V30 7125 C 691.503 -0.220052 -2.05425 0
M  V30 7126 C 691.911 1.13185 -1.51611 0
M  V30 7127 O 691.254 1.71631 -0.654875 0
M  V30 7128 C 691.316 -0.0888364 -3.5939 0
M  V30 7129 C 690.98 -1.37109 -4.35947 0
M  V30 7130 C 691.977 -2.30675 -4.65924 0
M  V30 7131 C 689.662 -1.62155 -4.75406 0
M  V30 7132 C 691.656 -3.47556 -5.34306 0
M  V30 7133 C 689.343 -2.79324 -5.43527 0
M  V30 7134 C 690.341 -3.71848 -5.72903 0
M  V30 7135 O 690.029 -4.86966 -6.39624 0
M  V30 7136 H 689.761 -0.102165 -0.668235 0
M  V30 7137 H 692.315 -0.935194 -1.82875 0
M  V30 7138 H 690.545 0.681981 -3.80639 0
M  V30 7139 H 692.234 0.337669 -4.04493 0
M  V30 7140 H 693 -2.12579 -4.3593 0
M  V30 7141 H 688.879 -0.910053 -4.51928 0
M  V30 7142 H 692.423 -4.19794 -5.57153 0
M  V30 7143 H 688.32 -2.97342 -5.72938 0
M  V30 7144 H 689.088 -4.86644 -6.58118 0
M  V30 7145 N 691.751 1.51645 -0.429126 0
M  V30 7146 C 693.167 1.59394 -0.080994 0
M  V30 7147 C 693.367 1.44064 1.40882 0
M  V30 7148 O 692.423 1.27771 2.17786 0
M  V30 7149 C 693.736 2.94779 -0.593773 0
M  V30 7150 C 695.284 3.08067 -0.553494 0
M  V30 7151 C 695.759 4.45963 -1.04311 0
M  V30 7152 N 697.25 4.5226 -1.00076 0
M  V30 7153 C 697.985 5.57268 -1.35056 0
M  V30 7154 N 697.481 6.69734 -1.77282 0
M  V30 7155 N 699.274 5.47582 -1.26925 0
M  V30 7156 H 691.425 1.59856 -1.39857 0
M  V30 7157 H 693.688 0.753095 -0.575805 0
M  V30 7158 H 693.394 3.11342 -1.63583 0
M  V30 7159 H 693.268 3.77197 -0.0142202 0
M  V30 7160 H 695.655 2.91177 0.479556 0
M  V30 7161 H 695.736 2.27508 -1.16935 0
M  V30 7162 H 695.38 4.63598 -2.07459 0
M  V30 7163 H 695.31 5.25049 -0.403873 0
M  V30 7164 H 697.801 3.71537 -0.690564 0
M  V30 7165 H 698.114 7.4587 -2.02232 0
M  V30 7166 H 696.459 6.70963 -1.81202 0
M  V30 7167 H 699.65 4.58604 -0.93809 0
M  V30 7168 H 699.823 6.29308 -1.54516 0
M  V30 7169 N 693.229 0.160201 1.56784 0
M  V30 7170 C 694.469 -0.490179 1.98435 0
M  V30 7171 C 694.833 -1.61164 1.04355 0
M  V30 7172 O 696.034 -2.3238 1.35103 0
M  V30 7173 C 694.305 -0.971106 3.43954 0
M  V30 7174 S 695.864 -1.62423 4.07632 0
M  V30 7175 H 692.682 -0.158056 0.693209 0
M  V30 7176 H 695.284 0.255036 1.93829 0
M  V30 7177 H 693.988 -0.144323 4.10146 0
M  V30 7178 H 693.519 -1.75063 3.52302 0
M  V30 7179 H 695.534 -2.91199 4.01768 0
M  V30 7180 N 694.707 -1.5719 -0.113559 0
M  V30 7181 C 696.123 -1.52607 -0.467253 0
M  V30 7182 C 696.323 -0.874058 -1.81556 0
M  V30 7183 O 695.379 -0.458703 -2.48299 0
M  V30 7184 C 696.692 -2.97363 -0.446736 0
M  V30 7185 C 698.24 -3.08482 -0.529903 0
M  V30 7186 C 698.715 -4.54809 -0.539721 0
M  V30 7187 N 700.206 -4.59284 -0.601005 0
M  V30 7188 C 700.941 -5.69927 -0.630138 0
M  V30 7189 N 700.437 -6.90051 -0.616589 0
M  V30 7190 N 702.23 -5.5805 -0.673558 0
M  V30 7191 H 694.381 -1.97958 0.769819 0
M  V30 7192 H 696.644 -0.90428 0.284572 0
M  V30 7193 H 696.35 -3.48458 0.47643 0
M  V30 7194 H 696.224 -3.55086 -1.27254 0
M  V30 7195 H 698.611 -2.57386 -1.44349 0
M  V30 7196 H 698.692 -2.53744 0.323695 0
M  V30 7197 H 698.336 -5.06552 0.369843 0
M  V30 7198 H 698.266 -5.07364 -1.41028 0
M  V30 7199 H 700.757 -3.72822 -0.617419 0
M  V30 7200 H 701.07 -7.70132 -0.641592 0
M  V30 7201 H 699.415 -6.92543 -0.583927 0
M  V30 7202 H 702.606 -4.63112 -0.681544 0
M  V30 7203 H 702.779 -6.44286 -0.692794 0
M  V30 7204 N 696.185 0.383891 -1.52853 0
M  V30 7205 C 697.415 1.14783 -1.7178 0
M  V30 7206 C 697.823 1.84055 -0.438211 0
M  V30 7207 O 697.166 1.73713 0.597465 0
M  V30 7208 C 697.228 2.23543 -2.81547 0
M  V30 7209 C 696.892 1.74195 -4.22499 0
M  V30 7210 C 697.889 1.21591 -5.05481 0
M  V30 7211 C 695.574 1.80262 -4.6884 0
M  V30 7212 C 697.568 0.757104 -6.32888 0
M  V30 7213 C 695.255 1.33993 -5.96229 0
M  V30 7214 C 696.253 0.818049 -6.78083 0
M  V30 7215 O 695.941 0.362123 -8.03084 0
M  V30 7216 H 695.673 0.349908 -0.578395 0
M  V30 7217 H 698.227 0.454377 -2.00311 0
M  V30 7218 H 696.457 2.96328 -2.48449 0
M  V30 7219 H 698.146 2.8519 -2.88828 0
M  V30 7220 H 698.912 1.16257 -4.7086 0
M  V30 7221 H 694.791 2.19825 -4.05213 0
M  V30 7222 H 698.335 0.34908 -6.96726 0
M  V30 7223 H 694.232 1.39015 -6.30353 0
M  V30 7224 H 695 0.483134 -8.17073 0
M  V30 7225 N 697.663 1.43903 0.642637 0
M  V30 7226 C 699.079 1.27536 0.959519 0
M  V30 7227 C 699.279 0.202751 2.00477 0
M  V30 7228 O 698.335 -0.415256 2.49062 0
M  V30 7229 C 699.648 2.6432 1.43372 0
M  V30 7230 C 701.196 2.71937 1.54981 0
M  V30 7231 C 701.671 4.09164 2.05789 0
M  V30 7232 N 703.162 4.11282 2.13076 0
M  V30 7233 C 703.897 5.14303 2.53534 0
M  V30 7234 N 703.393 6.27693 2.93212 0
M  V30 7235 N 705.186 5.01657 2.53567 0
M  V30 7236 H 697.337 2.12344 -0.0488376 0
M  V30 7237 H 699.6 0.947124 0.0407559 0
M  V30 7238 H 699.306 3.43826 0.740048 0
M  V30 7239 H 699.18 2.90432 2.40685 0
M  V30 7240 H 701.567 1.92757 2.23448 0
M  V30 7241 H 701.648 2.49578 0.560739 0
M  V30 7242 H 701.292 4.88815 1.37921 0
M  V30 7243 H 701.222 4.28893 3.05546 0
M  V30 7244 H 703.713 3.2944 1.85143 0
M  V30 7245 H 704.026 7.02125 3.22863 0
M  V30 7246 H 702.371 6.31149 2.90991 0
M  V30 7247 H 705.562 4.12134 2.21952 0
M  V30 7248 H 705.735 5.82072 2.84774 0
M  V30 7249 N 699.141 -0.881989 1.30609 0
M  V30 7250 C 700.366 -1.67236 1.22665 0
M  V30 7251 C 700.791 -1.8696 -0.206777 0
M  V30 7252 O 700.149 -1.4027 -1.14865 0
M  V30 7253 C 700.197 -3.02446 1.96363 0
M  V30 7254 O 699.301 -3.91614 1.29276 0
M  V30 7255 H 698.642 -0.510902 0.424117 0
M  V30 7256 H 701.172 -1.10055 1.72479 0
M  V30 7257 H 701.182 -3.52468 2.055 0
M  V30 7258 H 699.857 -2.8741 3.00613 0
M  V30 7259 H 698.434 -3.50055 1.28514 0
M  V30 7260 N 700.619 -1.13374 -1.09472 0
M  V30 7261 C 701.865 -0.906459 -1.82085 0
M  V30 7262 C 702.22 0.5614 -1.84027 0
M  V30 7263 O 701.513 1.41012 -1.29716 0
M  V30 7264 C 701.707 -1.42759 -3.2765 0
M  V30 7265 C 701.536 -2.94459 -3.39888 0
M  V30 7266 C 700.306 -3.62798 -3.51718 0
M  V30 7267 C 702.504 -3.92398 -3.32457 0
M  V30 7268 N 700.486 -5.02516 -3.52635 0
M  V30 7269 C 701.857 -5.18304 -3.40237 0
M  V30 7270 C 703.912 -3.84671 -3.16122 0
M  V30 7271 C 702.615 -6.37386 -3.33364 0
M  V30 7272 C 704.641 -5.03287 -3.10574 0
M  V30 7273 C 704.003 -6.28055 -3.18945 0
M  V30 7274 H 700.102 -0.385097 -0.680606 0
M  V30 7275 H 702.686 -1.44187 -1.30836 0
M  V30 7276 H 700.857 -0.919102 -3.77369 0
M  V30 7277 H 702.589 -1.14136 -3.88272 0
M  V30 7278 H 699.344 -3.13317 -3.55147 0
M  V30 7279 H 699.768 -5.75421 -3.56679 0
M  V30 7280 H 704.41 -2.89094 -3.0852 0
M  V30 7281 H 702.128 -7.33219 -3.3973 0
M  V30 7282 H 705.714 -4.99047 -2.9907 0
M  V30 7283 H 704.594 -7.18299 -3.14668 0
M  V30 7284 N 702.098 1.27442 -0.927168 0
M  V30 7285 C 703.344 1.94679 -0.568164 0
M  V30 7286 C 703.677 1.72697 0.888219 0
M  V30 7287 O 702.952 1.05573 1.63354 0
M  V30 7288 C 703.235 3.4882 -0.894253 0
M  V30 7289 C 703.088 3.80146 -2.40435 0
M  V30 7290 C 704.407 4.38281 -0.399766 0
M  V30 7291 H 701.526 0.707071 -0.207892 0
M  V30 7292 H 704.168 1.50568 -1.15885 0
M  V30 7293 H 702.318 3.86522 -0.391566 0
M  V30 7294 H 703.99 3.52238 -2.97869 0
M  V30 7295 H 702.233 3.26716 -2.85375 0
M  V30 7296 H 702.904 4.87835 -2.58304 0
M  V30 7297 H 705.38 4.07726 -0.83058 0
M  V30 7298 H 704.256 5.44955 -0.656885 0
M  V30 7299 H 704.517 4.36521 0.700153 0
M  V30 7300 N 703.576 0.692616 1.41565 0
M  V30 7301 C 704.987 0.297478 1.84315 0
M  V30 7302 C 705.338 -1.16379 1.57957 0
M  V30 7303 O 704.463 -1.89303 1.0485 0
M  V30 7304 C 705.058 0.533136 3.34579 0
M  V30 7305 C 703.617 0.191944 3.7591 0
M  V30 7306 C 702.764 0.816873 2.64995 0
M  V30 7307 H 705.715 0.893488 1.31158 0
M  V30 7308 H 705.736 -0.209105 3.79925 0
M  V30 7309 H 705.248 1.59674 3.53731 0
M  V30 7310 H 703.349 -0.867512 3.6236 0
M  V30 7311 H 703.462 0.644902 4.7474 0
M  V30 7312 H 701.826 0.246715 2.53502 0
M  V30 7313 H 702.609 1.88429 2.86966 0
M  V30 7314 N 705.054 -1.51416 0.437162 0
M  V30 7315 C 706.004 -2.24599 -0.392311 0
M  V30 7316 C 706.988 -1.2682 -0.990221 0
M  V30 7317 O 708.18 -1.51912 -0.908391 0
M  V30 7318 C 705.309 -3.09134 -1.49301 0
M  V30 7319 C 704.395 -4.14342 -0.904503 0
M  V30 7320 N 704.786 -5.0578 -0.0451511 0
M  V30 7321 C 703.084 -4.30323 -1.1721 0
M  V30 7322 C 703.785 -5.81 0.285344 0
M  V30 7323 N 702.761 -5.42591 -0.330993 0
M  V30 7324 H 706.563 -2.92655 0.270221 0
M  V30 7325 H 704.077 -1.60476 0.249226 0
M  V30 7326 H 706.074 -3.6014 -2.10011 0
M  V30 7327 H 704.734 -2.42622 -2.15788 0
M  V30 7328 H 705.745 -5.16903 0.321271 0
M  V30 7329 H 702.422 -3.75037 -1.83448 0
M  V30 7330 H 703.812 -6.64646 0.984626 0
M  V30 7331 N 706.532 -0.168513 -1.56696 0
M  V30 7332 C 707.76 0.483503 -2.01171 0
M  V30 7333 C 708.175 1.56994 -1.04872 0
M  V30 7334 O 707.532 1.82434 -0.0491337 0
M  V30 7335 C 707.583 1.0644 -3.45475 0
M  V30 7336 O 707.304 0.0213375 -4.38095 0
M  V30 7337 C 708.805 1.79493 -4.05336 0
M  V30 7338 H 706.025 0.124002 -0.659443 0
M  V30 7339 H 708.569 -0.269419 -2.02717 0
M  V30 7340 H 706.724 1.76784 -3.44712 0
M  V30 7341 H 707.138 0.449837 -5.22567 0
M  V30 7342 H 708.612 2.15401 -5.08238 0
M  V30 7343 H 709.089 2.68889 -3.47269 0
M  V30 7344 H 709.695 1.13798 -4.09793 0
M  V30 7345 N 708.01 1.57248 0.105221 0
M  V30 7346 C 709.257 1.8557 0.810552 0
M  V30 7347 C 709.585 0.755595 1.79223 0
M  V30 7348 O 708.84 -0.251788 1.94073 0
M  V30 7349 C 709.139 3.20437 1.58287 0
M  V30 7350 C 708.805 4.44716 0.744235 0
M  V30 7351 C 707.467 4.78458 0.513013 0
M  V30 7352 C 709.819 5.20953 0.160578 0
M  V30 7353 C 707.147 5.8587 -0.311894 0
M  V30 7354 C 709.499 6.29235 -0.651596 0
M  V30 7355 C 708.163 6.615 -0.893005 0
M  V30 7356 H 707.433 0.67905 0.296602 0
M  V30 7357 H 710.08 1.91363 0.0723968 0
M  V30 7358 H 708.385 3.10283 2.39232 0
M  V30 7359 H 710.082 3.39576 2.13282 0
M  V30 7360 H 706.672 4.18287 0.934555 0
M  V30 7361 H 710.856 4.95226 0.3264 0
M  V30 7362 H 706.112 6.09286 -0.508012 0
M  V30 7363 H 710.286 6.87484 -1.11077 0
M  V30 7364 H 707.913 7.44562 -1.53401 0
M  V30 7365 N 709.488 -0.375779 1.53054 0
M  V30 7366 C 710.398 -1.48381 1.81715 0
M  V30 7367 C 711.414 -1.59087 0.704795 0
M  V30 7368 O 712.59 -1.75174 0.993785 0
M  V30 7369 C 709.655 -2.83767 1.99192 0
M  V30 7370 C 708.716 -2.82673 3.23102 0
M  V30 7371 C 707.949 -4.11601 3.39736 0
M  V30 7372 O 708.172 -5.07243 2.60885 0
M  V30 7373 O 707.106 -4.18034 4.33049 0
M  V30 7374 H 710.932 -1.27089 2.7583 0
M  V30 7375 H 708.517 -0.564902 1.38308 0
M  V30 7376 H 710.399 -3.64004 2.12318 0
M  V30 7377 H 709.074 -3.05057 1.08267 0
M  V30 7378 H 707.981 -2.0117 3.15407 0
M  V30 7379 H 709.314 -2.66335 4.13916 0
M  V30 7380 N 710.966 -1.44241 -0.634997 0
M  V30 7381 C 712.191 -1.50516 -1.42687 0
M  V30 7382 C 712.616 -0.129864 -1.87651 0
M  V30 7383 O 711.974 0.880164 -1.58502 0
M  V30 7384 C 712.022 -2.4714 -2.62591 0
M  V30 7385 O 711.126 -1.97025 -3.62291 0
M  V30 7386 H 710.467 -0.50841 -0.427101 0
M  V30 7387 H 712.997 -1.89337 -0.775408 0
M  V30 7388 H 713.007 -2.65048 -3.10183 0
M  V30 7389 H 711.682 -3.47039 -2.29209 0
M  V30 7390 H 710.259 -1.88866 -3.21534 0
M  V30 7391 N 712.444 0.87505 -1.31075 0
M  V30 7392 C 713.354 2.01441 -1.20244 0
M  V30 7393 C 714.37 1.73584 -0.120227 0
M  V30 7394 O 715.546 1.98559 -0.337063 0
M  V30 7395 C 712.611 3.34675 -0.905199 0
M  V30 7396 C 711.672 3.75889 -2.0738 0
M  V30 7397 C 710.905 5.02764 -1.79064 0
M  V30 7398 O 711.128 5.65795 -0.723318 0
M  V30 7399 O 710.062 5.40623 -2.64594 0
M  V30 7400 H 713.888 2.13509 -2.1598 0
M  V30 7401 H 711.473 1.00257 -1.10765 0
M  V30 7402 H 713.355 4.1458 -0.755057 0
M  V30 7403 H 712.03 3.23692 0.0221695 0
M  V30 7404 H 710.937 2.96645 -2.27931 0
M  V30 7405 H 712.27 3.91489 -2.98324 0
M  V30 7406 N 713.922 1.13953 1.08869 0
M  V30 7407 C 714.852 0.844824 2.17681 0
M  V30 7408 C 715.833 -0.198213 1.68941 0
M  V30 7409 O 717.018 -0.0559073 1.9412 0
M  V30 7410 C 714.148 0.316325 3.45856 0
M  V30 7411 C 713.102 1.29426 4.07962 0
M  V30 7412 C 712.428 0.625275 5.31031 0
M  V30 7413 C 713.728 2.65484 4.49795 0
M  V30 7414 H 715.422 1.75471 2.42591 0
M  V30 7415 H 712.968 0.845116 1.16592 0
M  V30 7416 H 714.921 0.0977876 4.21287 0
M  V30 7417 H 713.645 -0.628972 3.20486 0
M  V30 7418 H 712.304 1.49889 3.34558 0
M  V30 7419 H 711.952 -0.325678 5.01945 0
M  V30 7420 H 711.652 1.27777 5.73539 0
M  V30 7421 H 713.176 0.416152 6.0918 0
M  V30 7422 H 714.59 2.48957 5.16424 0
M  V30 7423 H 712.987 3.26963 5.03205 0
M  V30 7424 H 714.057 3.22717 3.61914 0
M  V30 7425 N 715.4 -1.26948 0.933913 0
M  V30 7426 C 716.625 -1.98724 0.593589 0
M  V30 7427 C 717.05 -1.6915 -0.822801 0
M  V30 7428 O 716.408 -0.93533 -1.5531 0
M  V30 7429 C 716.456 -3.50834 0.833542 0
M  V30 7430 O 715.56 -4.12284 -0.0978788 0
M  V30 7431 H 714.901 -0.623683 0.227849 0
M  V30 7432 H 717.431 -1.61599 1.25486 0
M  V30 7433 H 717.441 -4.01018 0.75156 0
M  V30 7434 H 716.116 -3.71691 1.86597 0
M  V30 7435 H 714.693 -3.72884 0.0345443 0
M  V30 7436 N 716.879 -0.700114 -1.41195 0
M  V30 7437 C 718.156 -0.160836 -1.94938 0
M  V30 7438 C 718.536 1.33014 -1.63922 0
M  V30 7439 O 717.884 2.07878 -0.948636 0
M  V30 7440 C 718.094 -0.456991 -3.45995 0
M  V30 7441 C 719.442 -0.387207 -4.22831 0
M  V30 7442 O 720.466 -0.392164 -3.54035 0
M  V30 7443 O 719.325 -0.351267 -5.4537 0
M  V30 7444 H 716.419 -0.0176304 -0.826812 0
M  V30 7445 H 718.965 -0.776586 -1.50888 0
M  V30 7446 H 717.737 -1.48884 -3.61869 0
M  V30 7447 H 717.36 0.189503 -3.97148 0
M  V30 7448 N 718.357 1.51182 -0.445186 0
M  V30 7449 C 719.768 1.86693 0.0160999 0
M  V30 7450 C 720.119 1.36183 1.4124 0
M  V30 7451 O 719.244 0.715895 2.04215 0
M  V30 7452 C 719.839 3.38781 0.0359918 0
M  V30 7453 C 718.398 3.73799 0.441715 0
M  V30 7454 C 717.545 2.74947 -0.360511 0
M  V30 7455 H 720.496 1.44294 -0.660674 0
M  V30 7456 H 720.517 3.71026 0.843813 0
M  V30 7457 H 720.029 3.75513 -0.980378 0
M  V30 7458 H 718.13 3.42659 1.4634 0
M  V30 7459 H 718.243 4.78829 0.16106 0
M  V30 7460 H 716.607 2.54047 0.182269 0
M  V30 7461 H 717.39 3.14521 -1.3759 0
M  V30 7462 N 719.835 0.176821 1.56605 0
M  V30 7463 C 721.081 -0.467406 1.9734 0
M  V30 7464 C 721.414 -1.62523 1.06301 0
M  V30 7465 O 720.689 -1.94182 0.11125 0
M  V30 7466 C 720.972 -0.945106 3.47476 0
M  V30 7467 C 720.825 0.213273 4.49294 0
M  V30 7468 C 722.144 -1.8169 4.00845 0
M  V30 7469 H 719.263 -0.168426 0.717497 0
M  V30 7470 H 721.905 0.264065 1.88156 0
M  V30 7471 H 720.055 -1.56841 3.55434 0
M  V30 7472 H 721.727 0.850508 4.53392 0
M  V30 7473 H 719.97 0.867918 4.25029 0
M  V30 7474 H 720.641 -0.163187 5.51759 0
M  V30 7475 H 723.117 -1.29139 3.95553 0
M  V30 7476 H 721.993 -2.12015 5.06301 0
M  V30 7477 H 722.254 -2.76463 3.44994 0
M  V30 7478 N 721.313 -1.57302 -0.09688 0
M  V30 7479 C 722.223 -2.05258 -1.13606 0
M  V30 7480 C 723.239 -0.977137 -1.43972 0
M  V30 7481 O 724.415 -1.29018 -1.54649 0
M  V30 7482 C 721.48 -2.46593 -2.43706 0
M  V30 7483 C 720.541 -3.68322 -2.20538 0
M  V30 7484 C 719.774 -4.07676 -3.44435 0
M  V30 7485 O 719.997 -3.47141 -4.52603 0
M  V30 7486 O 718.931 -5.00641 -3.34129 0
M  V30 7487 H 722.757 -2.94069 -0.758752 0
M  V30 7488 H 720.342 -1.46164 -0.309263 0
M  V30 7489 H 722.224 -2.73814 -3.20318 0
M  V30 7490 H 720.899 -1.6092 -2.80867 0
M  V30 7491 H 719.806 -3.4622 -1.41713 0
M  V30 7492 H 721.139 -4.54769 -1.88271 0
M  V30 7493 N 722.791 0.367657 -1.53252 0
M  V30 7494 C 723.721 1.45632 -1.8252 0
M  V30 7495 C 724.702 1.55979 -0.678568 0
M  V30 7496 O 725.887 1.70581 -0.928217 0
M  V30 7497 C 723.017 2.82994 -2.01325 0
M  V30 7498 C 721.971 2.87473 -3.17086 0
M  V30 7499 C 721.297 4.2749 -3.21179 0
M  V30 7500 C 722.597 2.55182 -4.55719 0
M  V30 7501 H 724.291 1.21387 -2.73689 0
M  V30 7502 H 721.837 0.58251 -1.31692 0
M  V30 7503 H 723.79 3.59179 -2.20383 0
M  V30 7504 H 722.514 3.08622 -1.06864 0
M  V30 7505 H 721.173 2.13739 -2.97844 0
M  V30 7506 H 720.821 4.5019 -2.24361 0
M  V30 7507 H 720.521 4.31403 -3.98955 0
M  V30 7508 H 722.045 5.0555 -3.42419 0
M  V30 7509 H 723.459 3.21081 -4.74953 0
M  V30 7510 H 721.856 2.70414 -5.3572 0
M  V30 7511 H 722.926 1.5044 -4.60973 0
M  V30 7512 N 724.269 1.44576 0.627338 0
M  V30 7513 C 725.199 1.54562 1.75022 0
M  V30 7514 C 726.18 0.398378 1.65369 0
M  V30 7515 O 727.365 0.61899 1.84071 0
M  V30 7516 C 724.495 1.49309 3.13567 0
M  V30 7517 C 723.449 2.62549 3.38012 0
M  V30 7518 C 722.775 2.42348 4.76625 0
M  V30 7519 C 724.075 4.04678 3.30202 0
M  V30 7520 H 725.769 2.4855 1.66922 0
M  V30 7521 H 723.315 1.19624 0.801636 0
M  V30 7522 H 725.268 1.54895 3.919 0
M  V30 7523 H 723.992 0.518392 3.2246 0
M  V30 7524 H 722.651 2.56358 2.62061 0
M  V30 7525 H 722.299 1.43062 4.82226 0
M  V30 7526 H 721.999 3.18273 4.93939 0
M  V30 7527 H 723.523 2.49758 5.57183 0
M  V30 7528 H 724.937 4.12217 3.98435 0
M  V30 7529 H 723.334 4.80836 3.5905 0
M  V30 7530 H 724.404 4.2798 2.27949 0
M  V30 7531 N 725.747 -0.868086 1.31537 0
M  V30 7532 C 726.993 -1.62367 1.2151 0
M  V30 7533 C 727.326 -1.92883 -0.225819 0
M  V30 7534 O 726.601 -1.56176 -1.15927 0
M  V30 7535 C 726.884 -2.95268 2.06129 0
M  V30 7536 C 726.737 -2.71619 3.58529 0
M  V30 7537 C 728.056 -3.96391 1.91212 0
M  V30 7538 H 725.175 -0.589178 0.442762 0
M  V30 7539 H 727.817 -1.00336 1.61347 0
M  V30 7540 H 725.967 -3.4821 1.72284 0
M  V30 7541 H 727.639 -2.25334 4.0252 0
M  V30 7542 H 725.882 -2.05817 3.81866 0
M  V30 7543 H 726.553 -3.66192 4.13047 0
M  V30 7544 H 729.029 -3.52663 2.20834 0
M  V30 7545 H 727.905 -4.87263 2.52718 0
M  V30 7546 H 728.166 -4.33335 0.875953 0
M  V30 7547 N 727.225 -1.14528 -1.08264 0
M  V30 7548 C 728.188 -0.83632 -2.13397 0
M  V30 7549 C 729.188 0.159715 -1.60005 0
M  V30 7550 O 730.378 -0.0688098 -1.74064 0
M  V30 7551 C 727.51 -0.246973 -3.40004 0
M  V30 7552 H 728.703 -1.76808 -2.42237 0
M  V30 7553 H 726.256 -0.951509 -1.24 0
M  V30 7554 H 726.991 0.693436 -3.168 0
M  V30 7555 H 726.776 -0.964412 -3.80055 0
M  V30 7556 H 728.266 -0.0480679 -4.17572 0
M  V30 7557 N 728.703 1.26451 -0.940633 0
M  V30 7558 C 729.613 2.30128 -0.455881 0
M  V30 7559 C 730.629 1.67536 0.469867 0
M  V30 7560 O 731.805 1.98344 0.349529 0
M  V30 7561 C 728.87 3.45634 0.271648 0
M  V30 7562 C 727.931 4.23709 -0.690594 0
M  V30 7563 C 727.164 5.337 0.00231047 0
M  V30 7564 O 727.387 5.57215 1.21935 0
M  V30 7565 O 726.321 5.98091 -0.676111 0
M  V30 7566 H 730.147 2.73655 -1.31707 0
M  V30 7567 H 727.732 1.3164 -0.706497 0
M  V30 7568 H 729.614 4.15853 0.681486 0
M  V30 7569 H 728.289 3.04138 1.10824 0
M  V30 7570 H 727.196 3.55974 -1.15037 0
M  V30 7571 H 728.529 4.68953 -1.49478 0
M  V30 7572 N 730.181 0.707592 1.40822 0
M  V30 7573 C 731.406 0.251626 2.05868 0
M  V30 7574 C 731.831 -1.09503 1.5294 0
M  V30 7575 O 731.189 -1.68806 0.661385 0
M  V30 7576 C 731.237 0.23287 3.59847 0
M  V30 7577 O 730.341 -0.788477 4.04792 0
M  V30 7578 H 729.682 0.119936 0.653078 0
M  V30 7579 H 732.212 0.96583 1.80369 0
M  V30 7580 H 732.222 0.0678204 4.07944 0
M  V30 7581 H 730.897 1.21565 3.97737 0
M  V30 7582 H 729.474 -0.591802 3.68174 0
M  V30 7583 O 731.698 -1.50133 0.595165 0
M  V30 7584 H 732.389 -1.93424 0.103425 0
M  V30 END ATOM
M  V30 BEGIN BOND
M  V30 END BOND
M  V30 END CTAB
M  END
$$$$
