drugbank_target|P04264 Keratin, type II cytoskeletal 1 (DB01593; DB09130; DB14487)
 OpenBabel12092121073D

  0  0  0     0  0            999 V3000
M  V30 BEGIN CTAB
M  V30 COUNTS 9069 9126 0 0 0
M  V30 BEGIN ATOM
M  V30 1 H -0.908 1.98254 -0.117106 0
M  V30 2 N 0 1.576 0 0
M  V30 3 C 0.933 2.03868 1.02534 0
M  V30 4 C 1.911 0.928543 1.3348 0
M  V30 5 O 3.095 1.19667 1.45644 0
M  V30 6 C 0.222 2.43627 2.35294 0
M  V30 7 C -0.732 3.65373 2.2001 0
M  V30 8 S 0.101 5.13292 1.52614 0
M  V30 9 C 1.257 5.56322 2.86805 0
M  V30 10 H 1.49 2.90518 0.631377 0
M  V30 11 H -0.977 1.52953 0.210867 0
M  V30 12 H 0.981 2.67203 3.11629 0
M  V30 13 H -0.358 1.57376 2.7183 0
M  V30 14 H -1.165 3.90944 3.18086 0
M  V30 15 H -1.563 3.418 1.51819 0
M  V30 16 H 0.729 5.58782 3.83104 0
M  V30 17 H 1.672 6.56266 2.65933 0
M  V30 18 H 2.08 4.83886 2.90714 0
M  V30 19 N 1.4781 -0.272755 1.55222 0
M  V30 20 C 2.7031 -1.02683 1.80197 0
M  V30 21 C 3.1281 -1.79142 0.573551 0
M  V30 22 O 2.4861 -1.74917 -0.476849 0
M  V30 23 C 2.5341 -1.9609 3.02624 0
M  V30 24 O 1.6381 -3.04863 2.77727 0
M  V30 25 H 0.9791 -0.293557 0.595584 0
M  V30 26 H 3.5091 -0.30159 2.02365 0
M  V30 27 H 3.5191 -2.38039 3.31363 0
M  V30 28 H 2.1941 -1.39851 3.91682 0
M  V30 29 H 0.7711 -2.67228 2.60084 0
M  V30 30 N 2.9562 -1.48159 -0.537278 0
M  V30 31 C 4.3722 -1.34118 -0.865129 0
M  V30 32 C 4.5722 -0.346678 -1.98495 0
M  V30 33 O 3.6282 0.234715 -2.51407 0
M  V30 34 C 4.9412 -2.73963 -1.23954 0
M  V30 35 C 6.4892 -2.82397 -1.34984 0
M  V30 36 C 6.9642 -4.22928 -1.75772 0
M  V30 37 N 8.4552 -4.25566 -1.82887 0
M  V30 38 C 9.1902 -5.31235 -2.15817 0
M  V30 39 N 8.6862 -6.47189 -2.47222 0
M  V30 40 N 10.4792 -5.18624 -2.16761 0
M  V30 41 H 2.6302 -2.1144 0.201715 0
M  V30 42 H 4.8932 -0.947598 0.0275949 0
M  V30 43 H 4.5992 -3.48264 -0.490381 0
M  V30 44 H 4.4732 -3.0702 -2.19132 0
M  V30 45 H 6.8602 -2.08356 -2.08978 0
M  V30 46 H 6.9412 -2.5297 -0.379448 0
M  V30 47 H 6.5852 -4.97482 -1.02341 0
M  V30 48 H 6.5152 -4.49794 -2.73848 0
M  V30 49 H 9.0062 -3.41924 -1.60924 0
M  V30 50 H 9.3192 -7.23564 -2.71433 0
M  V30 51 H 7.6642 -6.50476 -2.44757 0
M  V30 52 H 10.8552 -4.27056 -1.91679 0
M  V30 53 H 11.0282 -6.01078 -2.42093 0
M  V30 54 N 4.4343 0.785586 -1.36625 0
M  V30 55 C 5.3663 1.90711 -1.2713 0
M  V30 56 C 6.3793 1.61688 -0.189986 0
M  V30 57 O 7.5683 1.72864 -0.445014 0
M  V30 58 C 4.6683 3.25611 -0.939713 0
M  V30 59 C 3.8413 3.82385 -2.12369 0
M  V30 60 C 2.9003 4.95732 -1.76456 0
M  V30 61 O 1.9263 5.12047 -2.48589 0
M  V30 62 N 3.1283 5.76258 -0.700492 0
M  V30 63 H 5.8933 1.99376 -2.23762 0
M  V30 64 H 3.4543 0.964041 -1.30069 0
M  V30 65 H 5.4463 3.98937 -0.680554 0
M  V30 66 H 4.0163 3.12538 -0.0624074 0
M  V30 67 H 3.2363 3.01001 -2.54543 0
M  V30 68 H 4.5243 4.17047 -2.9146 0
M  V30 69 H 3.9223 5.65609 -0.101624 0
M  V30 70 H 2.4793 6.4987 -0.501165 0
M  V30 71 N 5.9124 1.20967 1.01018 0
M  V30 72 C 7.1594 1.02374 1.74716 0
M  V30 73 C 7.4874 -0.443375 1.89379 0
M  V30 74 O 6.7424 -1.34535 1.42123 0
M  V30 75 C 7.0414 1.65997 3.16512 0
M  V30 76 C 6.7074 3.15831 3.2181 0
M  V30 77 C 5.3694 3.56719 3.22963 0
M  V30 78 C 7.7214 4.11816 3.19464 0
M  V30 79 C 5.0494 4.92107 3.19449 0
M  V30 80 C 7.4014 5.47158 3.17491 0
M  V30 81 C 6.0654 5.87451 3.16951 0
M  V30 82 H 5.3354 0.374614 0.639332 0
M  V30 83 H 7.9824 1.50485 1.18434 0
M  V30 84 H 6.2874 1.10166 3.75993 0
M  V30 85 H 7.9844 1.49119 3.72242 0
M  V30 86 H 4.5744 2.83263 3.21652 0
M  V30 87 H 8.7584 3.81257 3.17737 0
M  V30 88 H 4.0144 5.22579 3.17366 0
M  V30 89 H 8.1884 6.21274 3.14629 0
M  V30 90 H 5.8154 6.92329 3.13983 0
M  V30 91 N 7.3905 -1.2043 1.01659 0
M  V30 92 C 8.6155 -1.94318 0.724942 0
M  V30 93 C 9.0405 -1.74266 -0.708034 0
M  V30 94 O 8.3985 -1.03694 -1.48719 0
M  V30 95 C 8.4465 -3.44486 1.06591 0
M  V30 96 O 7.5505 -4.12017 0.177599 0
M  V30 97 H 6.8915 -0.60708 0.26898 0
M  V30 98 H 9.4215 -1.52861 1.35995 0
M  V30 99 H 9.4315 -3.95106 1.01762 0
M  V30 100 H 8.1065 -3.58404 2.10997 0
M  V30 101 H 6.6835 -3.71821 0.283421 0
M  V30 102 N 8.8686 -0.792821 -1.36206 0
M  V30 103 C 10.0936 -0.377701 -2.03932 0
M  V30 104 C 10.5186 0.998947 -1.59382 0
M  V30 105 O 9.8766 1.64421 -0.763903 0
M  V30 106 C 9.9246 -0.453635 -3.57735 0
M  V30 107 O 9.0286 0.538151 -4.08874 0
M  V30 108 H 8.3696 -0.159855 -0.644471 0
M  V30 109 H 10.8996 -1.07488 -1.7409 0
M  V30 110 H 10.9096 -0.318464 -4.06755 0
M  V30 111 H 9.5846 -1.45784 -3.89512 0
M  V30 112 H 8.1616 0.364359 -3.71116 0
M  V30 113 N 10.3467 1.47872 -0.545128 0
M  V30 114 C 11.7627 1.5829 -0.204032 0
M  V30 115 C 11.9627 1.54529 1.29317 0
M  V30 116 O 11.0187 1.44232 2.07252 0
M  V30 117 C 12.3317 2.89304 -0.819987 0
M  V30 118 C 13.8797 3.02864 -0.790105 0
M  V30 119 C 14.3547 4.3656 -1.38491 0
M  V30 120 N 15.8457 4.43165 -1.34755 0
M  V30 121 C 16.5807 5.45153 -1.77753 0
M  V30 122 N 16.0767 6.54016 -2.2855 0
M  V30 123 N 17.8697 5.36125 -1.68897 0
M  V30 124 H 10.0207 1.4856 -1.51802 0
M  V30 125 H 12.2837 0.706305 -0.632327 0
M  V30 126 H 11.9897 2.97757 -1.87173 0
M  V30 127 H 11.8637 3.75957 -0.305915 0
M  V30 128 H 14.2507 2.94014 0.252913 0
M  V30 129 H 14.3317 2.17782 -1.34181 0
M  V30 130 H 13.9757 4.46164 -2.42693 0
M  V30 131 H 13.9057 5.20353 -0.808754 0
M  V30 132 H 16.3967 3.65083 -0.975855 0
M  V30 133 H 16.7097 7.27994 -2.59314 0
M  V30 134 H 15.0547 6.54938 -2.32553 0
M  V30 135 H 18.2457 4.49975 -1.28998 0
M  V30 136 H 18.4187 6.15472 -2.02726 0
M  V30 137 N 11.8248 0.280983 1.55075 0
M  V30 138 C 13.0498 -0.340154 2.04592 0
M  V30 139 C 13.4748 -1.48246 1.15779 0
M  V30 140 O 12.8328 -1.80614 0.15761 0
M  V30 141 C 12.8808 -0.793104 3.5177 0
M  V30 142 O 11.9848 -1.89981 3.66034 0
M  V30 143 H 11.3258 -0.0694289 0.66036 0
M  V30 144 H 13.8558 0.416993 2.00306 0
M  V30 145 H 13.8658 -1.08729 3.93245 0
M  V30 146 H 12.5408 0.0426163 4.15878 0
M  V30 147 H 11.1178 -1.60771 3.36463 0
M  V30 148 N 13.3029 -1.57598 0.00835791 0
M  V30 149 C 14.5509 -1.90551 -0.6734 0
M  V30 150 C 14.8719 -0.883301 -1.73847 0
M  V30 151 O 14.1419 0.0781442 -1.95744 0
M  V30 152 H 12.7219 -0.703312 -0.251717 0
M  V30 153 H 15.3839 -1.94833 0.0512592 0
M  V30 154 H 14.4799 -2.9056 -1.13935 0
M  V30 155 N 14.781 0.264519 -1.55364 0
M  V30 156 C 16.011 1.01153 -1.80143 0
M  V30 157 C 16.419 1.80115 -0.579253 0
M  V30 158 O 15.762 1.77813 0.46132 0
M  V30 159 C 15.824 2.01098 -2.97993 0
M  V30 160 C 15.488 1.40995 -4.34706 0
M  V30 161 C 16.485 0.821316 -5.13372 0
M  V30 162 C 14.17 1.43461 -4.81378 0
M  V30 163 C 16.164 0.265339 -6.36847 0
M  V30 164 C 13.851 0.874771 -6.04807 0
M  V30 165 C 14.849 0.291146 -6.82379 0
M  V30 166 O 14.537 -0.260093 -8.03479 0
M  V30 167 H 14.269 0.304125 -0.603725 0
M  V30 168 H 16.823 0.298089 -2.03225 0
M  V30 169 H 15.053 2.76224 -2.70623 0
M  V30 170 H 16.742 2.61997 -3.1002 0
M  V30 171 H 17.508 0.794903 -4.78442 0
M  V30 172 H 13.387 1.87826 -4.21002 0
M  V30 173 H 16.931 -0.190837 -6.97339 0
M  V30 174 H 12.828 0.898452 -6.39217 0
M  V30 175 H 13.596 -0.150265 -8.18362 0
M  V30 176 N 16.2591 1.48442 0.529413 0
M  V30 177 C 17.6751 1.34575 0.858004 0
M  V30 178 C 17.8751 0.3572 1.98309 0
M  V30 179 O 16.9311 -0.221379 2.51528 0
M  V30 180 C 18.2441 2.74617 1.22499 0
M  V30 181 C 19.7921 2.83109 1.33484 0
M  V30 182 C 20.2671 4.23854 1.73526 0
M  V30 183 N 21.7581 4.2653 1.80628 0
M  V30 184 C 22.4931 5.32372 2.12997 0
M  V30 185 N 21.9891 6.48491 2.43786 0
M  V30 186 N 23.7821 5.19766 2.14008 0
M  V30 187 H 15.9331 2.1133 -0.212925 0
M  V30 188 H 18.1961 0.947439 -0.0326199 0
M  V30 189 H 17.9021 3.4852 0.471905 0
M  V30 190 H 17.7761 3.08177 2.17501 0
M  V30 191 H 20.1631 2.09462 2.0787 0
M  V30 192 H 20.2441 2.53168 0.366027 0
M  V30 193 H 19.8881 4.98018 0.997013 0
M  V30 194 H 19.8181 4.5124 2.71459 0
M  V30 195 H 22.3091 3.42772 1.59108 0
M  V30 196 H 22.6221 7.24993 2.67592 0
M  V30 197 H 20.9671 6.51765 2.41304 0
M  V30 198 H 24.1581 4.28066 1.89412 0
M  V30 199 H 24.3311 6.02354 2.38902 0
M  V30 200 N 17.7372 -0.778329 1.37039 0
M  V30 201 C 18.9622 -1.57248 1.35233 0
M  V30 202 C 19.3872 -1.87999 -0.0615568 0
M  V30 203 O 18.7452 -1.48734 -1.03672 0
M  V30 204 C 18.7932 -2.86353 2.19167 0
M  V30 205 O 17.8972 -3.80442 1.59178 0
M  V30 206 H 17.2382 -0.476569 0.462362 0
M  V30 207 H 19.7682 -0.963853 1.80474 0
M  V30 208 H 19.7782 -3.35519 2.32145 0
M  V30 209 H 18.4532 -2.63299 3.21942 0
M  V30 210 H 17.0302 -3.39067 1.55203 0
M  V30 211 N 19.2153 -1.21501 -1.00376 0
M  V30 212 C 20.4633 -1.03095 -1.73827 0
M  V30 213 C 20.7843 0.436341 -1.90055 0
M  V30 214 O 20.0543 1.31466 -1.45236 0
M  V30 215 H 18.6343 -0.378487 -0.644016 0
M  V30 216 H 21.2963 -1.52831 -1.20949 0
M  V30 217 H 20.3923 -1.49991 -2.73695 0
M  V30 218 N 20.6934 1.19889 -1.02296 0
M  V30 219 C 21.9414 1.89046 -0.714558 0
M  V30 220 C 22.2624 1.79636 0.758681 0
M  V30 221 O 21.5324 1.20292 1.54618 0
M  V30 222 H 20.1124 0.699802 -0.261317 0
M  V30 223 H 22.7744 1.45574 -1.29592 0
M  V30 224 H 21.8704 2.95524 -1.0036 0
M  V30 225 N 22.1715 0.800033 1.35784 0
M  V30 226 C 23.4195 0.376597 1.9856 0
M  V30 227 C 23.7405 -1.05812 1.63795 0
M  V30 228 O 23.0105 -1.73103 0.917171 0
M  V30 229 H 21.5905 0.136261 0.734467 0
M  V30 230 H 24.2525 1.02442 1.65806 0
M  V30 231 H 23.3485 0.477002 3.08433 0
M  V30 232 N 23.6496 -1.47581 0.552962 0
M  V30 233 C 24.8966 -2.02482 0.0273243 0
M  V30 234 C 25.2246 -1.42776 -1.32081 0
M  V30 235 O 24.4796 -0.571393 -1.87173 0
M  V30 236 C 24.7786 -3.57199 -0.119728 0
M  V30 237 C 24.4446 -4.35804 1.15697 0
M  V30 238 C 23.1066 -4.57 1.50681 0
M  V30 239 C 25.4586 -4.81167 2.00319 0
M  V30 240 C 22.7866 -5.20807 2.70142 0
M  V30 241 C 25.1386 -5.46293 3.18978 0
M  V30 242 C 23.8026 -5.65722 3.54281 0
M  V30 243 H 23.0726 -0.740933 0.00999866 0
M  V30 244 H 25.7196 -1.77302 0.72362 0
M  V30 245 H 24.0246 -3.81348 -0.89896 0
M  V30 246 H 25.7216 -3.97324 -0.541718 0
M  V30 247 H 22.3116 -4.19582 0.874561 0
M  V30 248 H 26.4956 -4.64574 1.74599 0
M  V30 249 H 21.7516 -5.34045 2.97668 0
M  V30 250 H 25.9256 -5.80407 3.84838 0
M  V30 251 H 23.5526 -6.14936 4.46942 0
M  V30 252 N 25.1277 -0.289203 -1.54924 0
M  V30 253 C 26.3527 0.329299 -2.04769 0
M  V30 254 C 26.7777 1.4763 -1.16564 0
M  V30 255 O 26.1357 1.80527 -0.167186 0
M  V30 256 C 26.1837 0.774438 -3.52186 0
M  V30 257 O 25.2877 1.88038 -3.67036 0
M  V30 258 H 24.6287 0.0659259 -0.660719 0
M  V30 259 H 27.1587 -0.42761 -2.00082 0
M  V30 260 H 27.1687 1.06642 -3.93816 0
M  V30 261 H 25.8437 -0.0646707 -4.1585 0
M  V30 262 H 24.4207 1.58985 -3.3731 0
M  V30 263 N 26.6058 1.57591 -0.0167156 0
M  V30 264 C 27.8308 1.9598 0.67872 0
M  V30 265 C 28.2558 0.892546 1.65575 0
M  V30 266 O 27.6138 -0.147772 1.80697 0
M  V30 267 C 27.6618 3.33468 1.37227 0
M  V30 268 O 26.7658 3.28954 2.48722 0
M  V30 269 H 26.1068 0.639339 0.17928 0
M  V30 270 H 28.6368 2.04463 -0.0748802 0
M  V30 271 H 28.6468 3.69417 1.7319 0
M  V30 272 H 27.3218 4.10694 0.656007 0
M  V30 273 H 25.8988 3.04705 2.14963 0
M  V30 274 N 28.0839 -0.256276 1.55502 0
M  V30 275 C 29.3319 -0.983672 1.76545 0
M  V30 276 C 29.6529 -1.86206 0.578982 0
M  V30 277 O 28.9229 -1.91656 -0.405577 0
M  V30 278 H 27.5029 -0.366191 0.651086 0
M  V30 279 H 30.1649 -0.276479 1.92929 0
M  V30 280 H 29.2609 -1.61087 2.67315 0
M  V30 281 N 29.562 -1.4872 -0.521534 0
M  V30 282 C 30.787 -1.61101 -1.30618 0
M  V30 283 C 31.212 -0.274611 -1.86085 0
M  V30 284 O 30.57 0.754937 -1.64834 0
M  V30 285 C 30.618 -2.66709 -2.4269 0
M  V30 286 O 29.722 -2.24456 -3.45967 0
M  V30 287 H 29.063 -0.539921 -0.386499 0
M  V30 288 H 31.593 -1.94767 -0.626645 0
M  V30 289 H 31.603 -2.88245 -2.88754 0
M  V30 290 H 30.278 -3.63727 -2.01682 0
M  V30 291 H 28.855 -2.13168 -3.05964 0
M  V30 292 N 31.0401 0.771051 -1.3745 0
M  V30 293 C 32.0031 1.86598 -1.33093 0
M  V30 294 C 33.0031 1.59076 -0.234845 0
M  V30 295 O 34.1931 1.67145 -0.490732 0
M  V30 296 C 31.3251 3.23747 -1.06773 0
M  V30 297 H 32.5181 1.91873 -2.30488 0
M  V30 298 H 30.0711 0.970876 -1.2249 0
M  V30 299 H 30.8061 3.24148 -0.099129 0
M  V30 300 H 30.5911 3.45115 -1.86112 0
M  V30 301 H 32.0811 4.03824 -1.06377 0
M  V30 302 N 32.5182 1.22032 0.997298 0
M  V30 303 C 33.7662 1.04016 1.73278 0
M  V30 304 C 34.0872 -0.426255 1.90284 0
M  V30 305 O 33.3572 -1.30694 1.45931 0
M  V30 306 H 31.9372 0.381897 0.642 0
M  V30 307 H 34.5992 1.5347 1.20137 0
M  V30 308 H 33.6952 1.51441 2.72896 0
M  V30 309 N 33.9963 -1.19345 1.0293 0
M  V30 310 C 35.2453 -1.88363 0.721256 0
M  V30 311 C 35.5583 -1.80514 -0.753254 0
M  V30 312 O 36.7643 -2.44788 -1.17436 0
M  V30 313 C 35.2203 -3.37872 1.23978 0
M  V30 314 C 34.8283 -3.54278 2.74211 0
M  V30 315 C 36.5723 -4.12365 1.00775 0
M  V30 316 C 34.4793 -4.97682 3.19479 0
M  V30 317 H 33.4093 -0.705484 0.266098 0
M  V30 318 H 36.0603 -1.34928 1.24365 0
M  V30 319 H 34.4423 -3.90707 0.6453 0
M  V30 320 H 35.6163 -3.11769 3.39318 0
M  V30 321 H 33.9313 -2.93174 2.95699 0
M  V30 322 H 36.5283 -5.18119 1.32123 0
M  V30 323 H 36.8713 -4.16263 -0.0554308 0
M  V30 324 H 37.4043 -3.65668 1.56625 0
M  V30 325 H 34.1433 -4.98945 4.25128 0
M  V30 326 H 33.6633 -5.4095 2.591 0
M  V30 327 H 35.3423 -5.66337 3.12845 0
M  V30 328 N 35.4744 -0.807222 -1.35358 0
M  V30 329 C 36.7234 -0.384376 -1.98004 0
M  V30 330 C 37.0364 1.0543 -1.64754 0
M  V30 331 O 38.2424 1.58029 -2.20769 0
M  V30 332 C 36.6984 -0.636326 -3.5423 0
M  V30 333 C 36.3064 -2.08759 -3.96388 0
M  V30 334 C 38.0504 -0.278869 -4.23583 0
M  V30 335 C 35.9574 -2.28525 -5.45463 0
M  V30 336 H 34.8874 -0.139986 -0.740891 0
M  V30 337 H 37.5384 -0.991369 -1.54415 0
M  V30 338 H 35.9204 0.0406256 -3.95979 0
M  V30 339 H 37.0944 -2.8024 -3.6579 0
M  V30 340 H 35.4094 -2.40497 -3.39926 0
M  V30 341 H 38.0064 -0.404599 -5.33167 0
M  V30 342 H 38.3494 0.775012 -4.09022 0
M  V30 343 H 38.8824 -0.909764 -3.87257 0
M  V30 344 H 35.6214 -3.32361 -5.64992 0
M  V30 345 H 35.1414 -1.61569 -5.77629 0
M  V30 346 H 36.8204 -2.10109 -6.11934 0
M  V30 347 N 36.9525 1.47285 -0.560781 0
M  V30 348 C 37.9005 2.31756 0.197942 0
M  V30 349 C 38.8945 1.43146 0.905854 0
M  V30 350 O 40.1005 1.59891 0.826733 0
M  V30 351 H 36.4755 0.747438 0.0827049 0
M  V30 352 H 38.4465 2.9359 -0.533629 0
M  V30 353 C 37.1955 3.25874 1.21249 0
M  V30 354 H 36.5185 3.94023 0.67719 0
M  V30 355 H 37.9585 3.87803 1.71419 0
M  V30 356 C 36.4175 2.49651 2.26221 0
M  V30 357 O 36.9475 2.24355 3.33208 0
M  V30 358 N 35.1535 2.10597 2.00243 0
M  V30 359 H 34.7005 2.31369 1.13252 0
M  V30 360 H 34.6585 1.59913 2.70694 0
M  V30 361 N 38.4306 0.297415 1.54768 0
M  V30 362 C 39.6606 -0.315165 2.04182 0
M  V30 363 C 40.0686 -1.4834 1.17439 0
M  V30 364 O 39.4116 -1.82695 0.191891 0
M  V30 365 C 39.4736 -0.837583 3.49607 0
M  V30 366 C 39.1376 0.204912 4.5654 0
M  V30 367 C 40.1346 1.03214 5.09552 0
M  V30 368 C 37.8196 0.345578 5.0111 0
M  V30 369 C 39.8136 1.986 6.05671 0
M  V30 370 C 37.5006 1.30289 5.97049 0
M  V30 371 C 38.4986 2.12159 6.49213 0
M  V30 372 O 38.1866 3.06268 7.43273 0
M  V30 373 H 37.9186 -0.0729646 0.672051 0
M  V30 374 H 40.4726 0.433907 2.00765 0
M  V30 375 H 38.7026 -1.63712 3.50336 0
M  V30 376 H 40.3916 -1.36566 3.82236 0
M  V30 377 H 41.1576 0.934312 4.75916 0
M  V30 378 H 37.0366 -0.28171 4.60138 0
M  V30 379 H 40.5806 2.62542 6.46311 0
M  V30 380 H 36.4776 1.40145 6.30103 0
M  V30 381 H 37.2456 3.01205 7.61064 0
M  V30 382 N 39.9087 -1.5758 0.0250728 0
M  V30 383 C 40.8407 -2.06869 -0.986796 0
M  V30 384 C 41.8537 -0.991332 -1.29137 0
M  V30 385 O 43.0427 -1.26761 -1.25674 0
M  V30 386 C 40.1427 -2.47486 -2.31525 0
M  V30 387 C 39.3157 -3.78253 -2.19643 0
M  V30 388 C 38.3747 -4.05464 -3.35388 0
M  V30 389 O 37.4007 -4.75774 -3.12454 0
M  V30 390 N 38.6027 -3.55321 -4.59051 0
M  V30 391 H 41.3677 -2.94302 -0.566276 0
M  V30 392 H 38.9287 -1.6109 -0.161776 0
M  V30 393 H 40.9207 -2.62785 -3.07776 0
M  V30 394 H 39.4907 -1.65441 -2.65232 0
M  V30 395 H 38.7107 -3.7279 -1.28144 0
M  V30 396 H 39.9987 -4.63936 -2.08903 0
M  V30 397 H 39.3967 -2.98431 -4.80578 0
M  V30 398 H 37.9537 -3.75905 -5.32483 0
M  V30 399 N 41.3868 0.248026 -1.55636 0
M  V30 400 C 42.8028 0.596483 -1.48035 0
M  V30 401 C 43.0028 1.88386 -0.715039 0
M  V30 402 O 42.0588 2.51319 -0.243944 0
M  V30 403 C 43.3718 0.700258 -2.92433 0
M  V30 404 C 44.9198 0.792659 -3.02797 0
M  V30 405 C 45.3948 0.928005 -4.485 0
M  V30 406 N 46.8858 0.992903 -4.52433 0
M  V30 407 C 47.6208 1.11687 -5.62418 0
M  V30 408 N 47.1168 1.20645 -6.82214 0
M  V30 409 N 48.9098 1.14994 -5.50212 0
M  V30 410 H 41.0608 -0.597109 -2.03834 0
M  V30 411 H 43.3238 -0.205925 -0.925364 0
M  V30 412 H 43.0298 -0.175658 -3.51261 0
M  V30 413 H 42.9038 1.57255 -3.42857 0
M  V30 414 H 45.2908 1.65903 -2.4405 0
M  V30 415 H 45.3718 -0.104762 -2.55585 0
M  V30 416 H 45.0158 0.0661971 -5.07857 0
M  V30 417 H 44.9458 1.84045 -4.93391 0
M  V30 418 H 47.4368 0.935064 -3.66149 0
M  V30 419 H 47.7498 1.30008 -7.61786 0
M  V30 420 H 46.0948 1.17605 -6.84977 0
M  V30 421 H 49.2858 1.07643 -4.55555 0
M  V30 422 H 49.4588 1.24311 -6.35965 0
M  V30 423 N 42.8649 1.48995 0.513639 0
M  V30 424 C 44.2809 1.35478 0.843682 0
M  V30 425 C 44.4809 0.378213 1.97919 0
M  V30 426 O 43.5369 -0.194689 2.51748 0
M  V30 427 C 44.8499 2.75901 1.1958 0
M  V30 428 C 46.3979 2.84509 1.30474 0
M  V30 429 C 46.8729 4.25671 1.69021 0
M  V30 430 N 48.3639 4.28422 1.76094 0
M  V30 431 C 49.0989 5.34601 2.07338 0
M  V30 432 N 48.5949 6.5104 2.36894 0
M  V30 433 N 50.3879 5.22007 2.08483 0
M  V30 434 H 42.5389 2.11092 -0.235328 0
M  V30 435 H 44.8019 0.947039 -0.0426669 0
M  V30 436 H 44.5079 3.49001 0.434913 0
M  V30 437 H 44.3819 3.10467 2.1422 0
M  V30 438 H 46.7689 2.11655 2.05637 0
M  V30 439 H 46.8499 2.53542 0.339155 0
M  V30 440 H 46.4939 4.99048 0.944135 0
M  V30 441 H 46.4239 4.54094 2.66658 0
M  V30 442 H 48.9149 3.44441 1.55464 0
M  V30 443 H 49.2279 7.2779 2.59887 0
M  V30 444 H 47.5729 6.54287 2.34378 0
M  V30 445 H 50.7639 4.30051 1.84861 0
M  V30 446 H 50.9369 6.04854 2.325 0
M  V30 447 N 44.343 -0.763751 1.37857 0
M  V30 448 C 45.571 -1.55293 1.36718 0
M  V30 449 C 45.986 -1.88745 -0.0455434 0
M  V30 450 O 45.343 -1.52039 -1.00947 0
M  V30 451 C 45.394 -2.85831 2.2132 0
M  V30 452 O 45.115 -2.5381 3.57089 0
M  V30 453 C 46.616 -3.80023 2.28249 0
M  V30 454 H 43.836 -0.480841 0.468009 0
M  V30 455 H 46.38 -0.946009 1.81303 0
M  V30 456 H 44.535 -3.42926 1.80223 0
M  V30 457 H 44.949 -3.37459 4.01524 0
M  V30 458 H 46.423 -4.68599 2.91752 0
M  V30 459 H 46.9 -4.1973 1.2932 0
M  V30 460 H 47.506 -3.28855 2.69693 0
M  V30 461 N 45.8211 -1.22559 -0.990812 0
M  V30 462 C 47.0491 -1.07779 -1.76611 0
M  V30 463 C 47.4641 0.371513 -1.85109 0
M  V30 464 O 46.8211 1.25737 -1.32274 0
M  V30 465 C 46.8721 -1.68512 -3.19822 0
M  V30 466 O 46.5931 -3.07774 -3.1178 0
M  V30 467 C 48.0941 -1.59035 -4.13791 0
M  V30 468 H 45.3141 -0.377729 -0.554583 0
M  V30 469 H 47.8581 -1.62195 -1.24551 0
M  V30 470 H 46.0131 -1.18154 -3.68942 0
M  V30 471 H 46.4271 -3.37062 -4.01858 0
M  V30 472 H 47.9011 -2.0625 -5.1202 0
M  V30 473 H 48.3781 -0.547273 -4.35777 0
M  V30 474 H 48.9841 -2.08709 -3.70568 0
M  V30 475 N 47.2992 1.18797 -1.03562 0
M  V30 476 C 48.5242 1.9314 -0.755764 0
M  V30 477 C 48.9492 1.7537 0.68022 0
M  V30 478 O 48.3072 1.06046 1.47051 0
M  V30 479 C 48.3552 3.42747 -1.12058 0
M  V30 480 O 47.4592 4.11683 -0.243124 0
M  V30 481 H 46.8002 0.602724 -0.278604 0
M  V30 482 H 49.3302 1.50678 -1.3841 0
M  V30 483 H 49.3402 3.93437 -1.08035 0
M  V30 484 H 48.0152 3.55002 -2.16672 0
M  V30 485 H 46.5922 3.71323 -0.342539 0
M  V30 486 N 48.7773 0.814389 1.34928 0
M  V30 487 C 50.0023 0.410097 2.03305 0
M  V30 488 C 50.4273 -0.973464 1.60951 0
M  V30 489 O 49.7853 -1.63185 0.789964 0
M  V30 490 C 49.8333 0.51049 3.56968 0
M  V30 491 O 48.9373 -0.473035 4.09678 0
M  V30 492 H 48.2783 0.170088 0.641846 0
M  V30 493 H 50.8083 1.10244 1.72358 0
M  V30 494 H 50.8183 0.383135 4.06197 0
M  V30 495 H 49.4933 1.51963 3.87144 0
M  V30 496 H 48.0703 -0.305272 3.71648 0
M  V30 497 N 50.2554 -1.46986 0.568584 0
M  V30 498 C 51.4804 -2.07335 0.0520528 0
M  V30 499 C 51.9054 -1.41675 -1.23733 0
M  V30 500 O 51.2634 -0.495623 -1.74394 0
M  V30 501 C 51.3114 -3.60417 -0.11501 0
M  V30 502 O 50.4154 -3.95309 -1.17492 0
M  V30 503 H 49.7564 -0.661597 0.0564385 0
M  V30 504 H 52.2864 -1.88837 0.787507 0
M  V30 505 H 52.2964 -4.06698 -0.325644 0
M  V30 506 H 50.9714 -4.07601 0.826675 0
M  V30 507 H 49.5484 -3.60757 -0.943869 0
M  V30 508 N 51.7335 -0.305618 -1.54608 0
M  V30 509 C 52.9615 0.304775 -2.04643 0
M  V30 510 C 53.3765 1.47167 -1.18268 0
M  V30 511 O 52.7335 1.81296 -0.209328 0
M  V30 512 C 52.7845 0.756564 -3.53495 0
M  V30 513 O 52.5055 -0.36389 -4.36586 0
M  V30 514 C 54.0065 1.43163 -4.19546 0
M  V30 515 H 51.2265 0.0655481 -0.667791 0
M  V30 516 H 53.7705 -0.446592 -1.99564 0
M  V30 517 H 51.9255 1.45794 -3.58919 0
M  V30 518 H 52.3395 -0.0113121 -5.24499 0
M  V30 519 H 53.8135 1.69886 -5.25207 0
M  V30 520 H 54.2905 2.37318 -3.69563 0
M  V30 521 H 54.8965 0.773307 -4.18211 0
M  V30 522 N 53.2116 1.57565 -0.0334293 0
M  V30 523 C 54.6276 1.56297 0.322997 0
M  V30 524 C 54.8276 1.03945 1.7262 0
M  V30 525 O 53.8836 0.688109 2.42943 0
M  V30 526 C 55.1966 3.00232 0.167664 0
M  V30 527 C 56.7446 3.12078 0.240107 0
M  V30 528 C 57.2196 4.57859 0.113513 0
M  V30 529 N 58.7106 4.62887 0.170359 0
M  V30 530 C 59.4456 5.73319 0.0962517 0
M  V30 531 N 58.9416 6.92794 -0.0291881 0
M  V30 532 N 60.7346 5.61898 0.150551 0
M  V30 533 H 52.8856 1.89923 -0.950956 0
M  V30 534 H 55.1486 0.873824 -0.367608 0
M  V30 535 H 54.8546 3.42501 -0.799102 0
M  V30 536 H 54.7286 3.654 0.936083 0
M  V30 537 H 57.1156 2.69718 1.19733 0
M  V30 538 H 57.1966 2.49623 -0.558763 0
M  V30 539 H 56.8406 5.009 -0.840314 0
M  V30 540 H 56.7706 5.18299 0.931302 0
M  V30 541 H 59.2616 3.76954 0.26728 0
M  V30 542 H 59.5746 7.7276 -0.0789252 0
M  V30 543 H 57.9196 6.94971 -0.0640299 0
M  V30 544 H 61.1106 4.67448 0.246981 0
M  V30 545 H 61.2836 6.47938 0.0893365 0
M  V30 546 N 54.6897 -0.239769 1.55765 0
M  V30 547 C 56.1057 -0.588624 1.48349 0
M  V30 548 C 56.3057 -1.88005 0.72502 0
M  V30 549 O 55.3617 -2.51186 0.257269 0
M  V30 550 C 56.6747 -0.68474 2.928 0
M  V30 551 C 58.2227 -0.77659 3.03213 0
M  V30 552 C 58.6977 -0.904207 4.48986 0
M  V30 553 N 60.1887 -0.968896 4.52953 0
M  V30 554 C 60.9237 -1.08703 5.63002 0
M  V30 555 N 60.4197 -1.17026 6.82845 0
M  V30 556 N 62.2127 -1.12074 5.50814 0
M  V30 557 H 54.3637 0.607911 2.03515 0
M  V30 558 H 56.6267 0.21083 0.924259 0
M  V30 559 H 56.3327 0.194284 3.51163 0
M  V30 560 H 56.2067 -1.55435 3.43686 0
M  V30 561 H 58.5937 -1.64606 2.44926 0
M  V30 562 H 58.6747 0.118315 2.55526 0
M  V30 563 H 58.3187 -0.0392633 5.07885 0
M  V30 564 H 58.2487 -1.81426 4.9436 0
M  V30 565 H 60.7397 -0.915633 3.6664 0
M  V30 566 H 61.0527 -1.25966 7.62465 0
M  V30 567 H 59.3977 -1.13971 6.85591 0
M  V30 568 H 62.5887 -1.05226 4.5612 0
M  V30 569 H 62.7617 -1.20936 6.36615 0
M  V30 570 N 56.1678 -1.49265 -0.50573 0
M  V30 571 C 57.3928 -1.62478 -1.28902 0
M  V30 572 C 57.8178 -0.294332 -1.85783 0
M  V30 573 O 57.1758 0.737412 -1.65626 0
M  V30 574 C 57.2238 -2.69268 -2.39848 0
M  V30 575 O 56.3278 -2.28113 -3.43567 0
M  V30 576 H 55.6688 -0.54399 -0.380751 0
M  V30 577 H 58.1988 -1.95421 -0.605952 0
M  V30 578 H 58.2088 -2.91291 -2.85681 0
M  V30 579 H 56.8838 -3.65846 -1.97812 0
M  V30 580 H 55.4608 -2.16401 -3.03685 0
M  V30 581 N 57.6459 0.756429 -1.3826 0
M  V30 582 C 58.8939 1.51248 -1.34047 0
M  V30 583 C 59.2149 1.94875 0.0698372 0
M  V30 584 O 58.4849 1.67436 1.01696 0
M  V30 585 H 57.0649 0.561018 -0.493222 0
M  V30 586 H 59.7269 0.899347 -1.7291 0
M  V30 587 H 58.8229 2.40472 -1.98947 0
M  V30 588 N 59.124 1.23083 0.984299 0
M  V30 589 C 60.372 1.05848 1.72165 0
M  V30 590 C 60.693 -0.406049 1.90726 0
M  V30 591 O 59.963 -1.29139 1.47309 0
M  V30 592 H 58.543 0.388685 0.637913 0
M  V30 593 H 61.205 1.54736 1.18503 0
M  V30 594 H 60.301 1.54327 2.71274 0
M  V30 595 N 60.6021 -1.18246 1.0419 0
M  V30 596 C 61.8501 -1.87886 0.744543 0
M  V30 597 C 62.1711 -1.8082 -0.730006 0
M  V30 598 O 61.4411 -1.22736 -1.52685 0
M  V30 599 H 60.0211 -0.695556 0.272417 0
M  V30 600 H 62.6831 -1.43494 1.31892 0
M  V30 601 H 61.7791 -2.9389 1.05049 0
M  V30 602 N 62.0802 -0.821533 -1.34494 0
M  V30 603 C 63.3282 -0.408139 -1.97936 0
M  V30 604 C 63.6492 1.03193 -1.65457 0
M  V30 605 O 62.9192 1.71622 -0.944595 0
M  V30 606 H 61.4992 -0.147928 -0.732206 0
M  V30 607 H 64.1612 -1.05067 -1.64155 0
M  V30 608 H 63.2572 -0.52601 -3.07635 0
M  V30 609 N 63.5583 1.46682 -0.576371 0
M  V30 610 C 64.8063 2.02013 -0.0594163 0
M  V30 611 C 65.1273 1.45101 1.30271 0
M  V30 612 O 64.3973 0.633317 1.8538 0
M  V30 613 H 62.9773 0.746759 -0.0189745 0
M  V30 614 H 65.6393 1.79862 -0.750717 0
M  V30 615 H 64.7353 3.12097 0.014345 0
M  V30 616 N 65.0364 0.313813 1.54444 0
M  V30 617 C 66.4524 -0.0391619 1.59552 0
M  V30 618 C 66.6524 -1.51322 1.33056 0
M  V30 619 O 65.7084 -2.26782 1.11022 0
M  V30 620 C 67.0214 0.370302 2.98411 0
M  V30 621 C 68.5694 0.320139 3.11358 0
M  V30 622 C 69.0444 0.704617 4.52547 0
M  V30 623 N 70.5354 0.657645 4.58508 0
M  V30 624 C 71.2704 0.927453 5.6585 0
M  V30 625 N 70.7664 1.26389 6.81174 0
M  V30 626 N 72.5594 0.853662 5.5558 0
M  V30 627 H 64.7104 1.27433 1.69925 0
M  V30 628 H 66.9734 0.517511 0.794284 0
M  V30 629 H 66.6794 1.39694 3.22767 0
M  V30 630 H 66.5534 -0.269619 3.76235 0
M  V30 631 H 68.9404 -0.697275 2.86744 0
M  V30 632 H 69.0214 0.99486 2.35661 0
M  V30 633 H 68.6654 1.7199 4.77893 0
M  V30 634 H 68.5954 0.00768843 5.26599 0
M  V30 635 H 71.0864 0.409067 3.75679 0
M  V30 636 H 71.3994 1.4554 7.58972 0
M  V30 637 H 69.7444 1.30206 6.82694 0
M  V30 638 H 72.9354 0.590383 4.64362 0
M  V30 639 H 73.1084 1.0673 6.3915 0
M  V30 640 N 66.5145 -1.57545 0.0417849 0
M  V30 641 C 67.7615 -1.92317 -0.634082 0
M  V30 642 C 68.0895 -0.919334 -1.71402 0
M  V30 643 O 67.3445 0.0698253 -1.95575 0
M  V30 644 C 67.6435 -3.33794 -1.27735 0
M  V30 645 C 67.3095 -4.49716 -0.326543 0
M  V30 646 C 65.9715 -4.81156 -0.0648814 0
M  V30 647 C 68.3235 -5.20182 0.325623 0
M  V30 648 C 65.6515 -5.80414 0.856539 0
M  V30 649 C 68.0035 -6.20424 1.23518 0
M  V30 650 C 66.6675 -6.50298 1.5056 0
M  V30 651 H 65.9375 -0.703736 -0.232027 0
M  V30 652 H 68.5845 -1.91205 0.106259 0
M  V30 653 H 66.8895 -3.31228 -2.09274 0
M  V30 654 H 68.5865 -3.57975 -1.80707 0
M  V30 655 H 65.1765 -4.25176 -0.540665 0
M  V30 656 H 69.3605 -4.96112 0.136546 0
M  V30 657 H 64.6165 -6.019 1.07363 0
M  V30 658 H 68.7905 -6.74141 1.74664 0
M  V30 659 H 66.4175 -7.27025 2.22123 0
M  V30 660 N 67.9926 0.231505 -1.5589 0
M  V30 661 C 69.2176 0.978689 -1.82856 0
M  V30 662 C 69.6426 1.77559 -0.620846 0
M  V30 663 O 69.0006 1.76119 0.430305 0
M  V30 664 C 69.0486 1.87997 -3.07716 0
M  V30 665 O 68.1526 2.97393 -2.85712 0
M  V30 666 H 67.4936 0.277663 -0.603158 0
M  V30 667 H 70.0236 0.24783 -2.03093 0
M  V30 668 H 70.0336 2.2917 -3.37558 0
M  V30 669 H 68.7086 1.29417 -3.95252 0
M  V30 670 H 67.2856 2.60238 -2.67078 0
M  V30 671 N 69.4707 1.49531 0.497807 0
M  V30 672 C 70.6957 1.63159 1.28039 0
M  V30 673 C 71.1207 0.30418 1.85624 0
M  V30 674 O 70.4787 -0.728618 1.66015 0
M  V30 675 C 70.5267 2.70537 2.38416 0
M  V30 676 O 69.6307 2.29931 3.42353 0
M  V30 677 H 68.9717 0.546001 0.377861 0
M  V30 678 H 71.5017 1.9574 0.59558 0
M  V30 679 H 71.5117 2.92802 2.84132 0
M  V30 680 H 70.1867 3.6689 1.95869 0
M  V30 681 H 68.7637 2.18009 3.02533 0
M  V30 682 N 70.9488 -0.749086 1.3866 0
M  V30 683 C 72.1888 -1.52112 1.36534 0
M  V30 684 C 72.5528 -1.91951 -0.0432316 0
M  V30 685 O 73.7538 -2.68132 -0.189396 0
M  V30 686 C 72.0248 -2.73704 2.29828 0
M  V30 687 S 73.5838 -3.63519 2.45763 0
M  V30 688 H 70.4018 -0.520482 0.484375 0
M  V30 689 H 73.0038 -0.878963 1.74627 0
M  V30 690 H 71.7078 -2.42552 3.31054 0
M  V30 691 H 71.2388 -3.4286 1.929 0
M  V30 692 H 73.2538 -4.66712 1.68505 0
M  V30 693 N 72.4269 -1.23603 -0.977757 0
M  V30 694 C 73.6749 -1.06759 -1.71601 0
M  V30 695 C 73.9959 0.395929 -1.90938 0
M  V30 696 O 73.2659 1.28356 -1.47992 0
M  V30 697 H 71.8459 -0.392062 -0.635843 0
M  V30 698 H 74.5079 -1.55362 -1.1768 0
M  V30 699 H 73.6039 -1.55763 -2.70452 0
M  V30 700 N 73.905 1.17692 -1.04816 0
M  V30 701 C 75.153 1.87488 -0.754497 0
M  V30 702 C 75.474 1.81205 0.720407 0
M  V30 703 O 74.744 1.23544 1.52032 0
M  V30 704 H 73.324 0.694101 -0.276102 0
M  V30 705 H 75.986 1.42793 -1.32651 0
M  V30 706 H 75.082 2.93328 -1.06606 0
M  V30 707 N 75.3831 0.828654 1.34056 0
M  V30 708 C 76.6311 0.41863 1.97717 0
M  V30 709 C 76.9521 -1.02314 1.66002 0
M  V30 710 O 76.2221 -1.71119 0.953683 0
M  V30 711 H 74.8021 0.151809 0.731412 0
M  V30 712 H 77.4641 1.05936 1.63596 0
M  V30 713 H 76.5601 0.542318 3.07352 0
M  V30 714 N 76.8612 -1.46375 0.584142 0
M  V30 715 C 78.1092 -2.01978 0.0701287 0
M  V30 716 C 78.4302 -1.4579 -1.295 0
M  V30 717 O 77.7002 -0.64314 -1.85042 0
M  V30 718 H 76.2802 -0.746648 0.0229345 0
M  V30 719 H 78.9422 -1.79461 0.760245 0
M  V30 720 H 78.0382 -3.121 0.0022064 0
M  V30 721 N 78.3393 -0.321999 -1.54275 0
M  V30 722 C 79.5873 0.280489 -2.00144 0
M  V30 723 C 79.9083 1.52777 -1.21178 0
M  V30 724 O 79.1783 1.9338 -0.313187 0
M  V30 725 H 77.7583 0.106632 -0.73935 0
M  V30 726 H 80.4203 -0.438184 -1.8991 0
M  V30 727 H 79.5163 0.537972 -3.07428 0
M  V30 728 N 79.8174 1.5752 -0.0501392 0
M  V30 729 C 81.0424 1.97376 0.636997 0
M  V30 730 C 81.4674 0.927466 1.63645 0
M  V30 731 O 80.8254 -0.10941 1.8097 0
M  V30 732 C 80.8734 3.36304 1.30123 0
M  V30 733 O 79.9774 3.34156 2.41689 0
M  V30 734 H 79.3184 0.642998 0.165679 0
M  V30 735 H 81.8484 2.04258 -0.118233 0
M  V30 736 H 81.8584 3.73008 1.65315 0
M  V30 737 H 80.5334 4.11993 0.568746 0
M  V30 738 H 79.1104 3.09196 2.08451 0
M  V30 739 N 81.2955 -0.223234 1.56011 0
M  V30 740 C 82.5425 -0.947875 1.78946 0
M  V30 741 C 82.8705 -1.844 0.618608 0
M  V30 742 O 82.1255 -1.91629 -0.397093 0
M  V30 743 C 82.4245 -1.81948 3.0762 0
M  V30 744 C 82.0905 -1.07672 4.37856 0
M  V30 745 C 80.7525 -0.871544 4.73242 0
M  V30 746 C 83.1045 -0.552081 5.18268 0
M  V30 747 C 80.4325 -0.129791 5.86556 0
M  V30 748 C 82.7845 0.17632 6.32354 0
M  V30 749 C 81.4485 0.39277 6.66343 0
M  V30 750 H 80.7185 -0.346852 0.654809 0
M  V30 751 H 83.3655 -0.216171 1.90276 0
M  V30 752 H 81.6705 -2.61899 2.91404 0
M  V30 753 H 83.3675 -2.38227 3.22566 0
M  V30 754 H 79.9575 -1.24662 4.1007 0
M  V30 755 H 84.1415 -0.698076 4.91366 0
M  V30 756 H 79.3975 0.048153 6.11381 0
M  V30 757 H 83.5715 0.590367 6.93893 0
M  V30 758 H 81.1985 0.969466 7.53993 0
M  V30 759 N 82.7736 -1.49793 -0.48987 0
M  V30 760 C 84.0216 -1.59525 -1.24081 0
M  V30 761 C 84.3426 -0.288953 -1.92847 0
M  V30 762 O 83.6126 0.692436 -1.83254 0
M  V30 763 H 82.1926 -0.587796 -0.460983 0
M  V30 764 H 84.8546 -1.86477 -0.566778 0
M  V30 765 H 83.9506 -2.39696 -1.99881 0
M  V30 766 N 84.2517 0.741722 -1.39055 0
M  V30 767 C 85.2147 1.83733 -1.37021 0
M  V30 768 C 86.2147 1.58542 -0.268534 0
M  V30 769 O 87.4047 1.66067 -0.526076 0
M  V30 770 C 84.5367 3.2141 -1.13617 0
M  V30 771 H 85.7297 1.86941 -2.34506 0
M  V30 772 H 83.2827 0.944676 -1.24521 0
M  V30 773 H 84.0177 3.23865 -0.167863 0
M  V30 774 H 83.8027 3.4109 -1.93391 0
M  V30 775 H 85.2927 4.01477 -1.14918 0
M  V30 776 N 85.7298 1.2412 0.971189 0
M  V30 777 C 86.9778 1.07668 1.71032 0
M  V30 778 C 87.2988 -0.385797 1.91146 0
M  V30 779 O 86.5688 -1.27569 1.4867 0
M  V30 780 H 85.1488 0.395429 0.633755 0
M  V30 781 H 87.8108 1.55984 1.16855 0
M  V30 782 H 86.9068 1.57195 2.69622 0
M  V30 783 N 87.2079 -1.17134 1.05439 0
M  V30 784 C 88.4559 -1.87085 0.764429 0
M  V30 785 C 88.7769 -1.81584 -0.710787 0
M  V30 786 O 88.0469 -1.24349 -1.51374 0
M  V30 787 H 86.6269 -0.692627 0.279779 0
M  V30 788 H 89.2889 -1.42087 1.33406 0
M  V30 789 H 88.3849 -2.92759 1.0816 0
M  V30 790 N 88.686 -0.835752 -1.33615 0
M  V30 791 C 89.934 -0.429109 -1.97492 0
M  V30 792 C 90.255 1.01433 -1.66543 0
M  V30 793 O 89.525 1.70611 -0.962744 0
M  V30 794 H 88.105 -0.155686 -0.730596 0
M  V30 795 H 90.767 -1.06802 -1.63031 0
M  V30 796 H 89.863 -0.55861 -3.0706 0
M  V30 797 N 90.1641 1.46063 -0.591896 0
M  V30 798 C 91.4111 2.02338 -0.0809991 0
M  V30 799 C 91.7391 1.46228 1.28249 0
M  V30 800 O 90.9941 0.620818 1.85592 0
M  V30 801 C 91.2931 3.57391 0.0249813 0
M  V30 802 C 90.9591 4.32583 -1.27211 0
M  V30 803 C 89.6211 4.52844 -1.62745 0
M  V30 804 C 91.9731 4.75687 -2.13005 0
M  V30 805 C 89.3011 5.13462 -2.83855 0
M  V30 806 C 91.6531 5.37644 -3.3335 0
M  V30 807 C 90.3171 5.5613 -3.69155 0
M  V30 808 H 89.5871 0.740407 -0.0296397 0
M  V30 809 H 92.2341 1.75321 -0.770374 0
M  V30 810 H 90.5391 3.83597 0.797537 0
M  V30 811 H 92.2361 3.98621 0.436184 0
M  V30 812 H 88.8261 4.17116 -0.985499 0
M  V30 813 H 93.0101 4.59782 -1.86855 0
M  V30 814 H 88.2661 5.25965 -3.11722 0
M  V30 815 H 92.4401 5.7 -4.00092 0
M  V30 816 H 90.0671 6.0287 -4.63089 0
M  V30 817 N 91.6422 0.330177 1.54103 0
M  V30 818 C 92.8902 -0.269871 2.0029 0
M  V30 819 C 93.2112 -1.52133 1.21986 0
M  V30 820 O 92.4812 -1.93212 0.323438 0
M  V30 821 H 91.0612 -0.10271 0.739905 0
M  V30 822 H 93.7232 0.448249 1.89675 0
M  V30 823 H 92.8192 -0.52166 3.07709 0
M  V30 824 N 93.1203 -1.57491 0.0584922 0
M  V30 825 C 94.3453 -1.97711 -0.62652 0
M  V30 826 C 94.7703 -0.936132 -1.63151 0
M  V30 827 O 94.1283 0.099811 -1.81025 0
M  V30 828 C 94.1763 -3.36989 -1.28338 0
M  V30 829 O 93.2803 -3.35433 -2.39913 0
M  V30 830 H 92.6213 -0.643868 -0.162266 0
M  V30 831 H 95.1513 -2.04193 0.129064 0
M  V30 832 H 95.1613 -3.73879 -1.63335 0
M  V30 833 H 93.8363 -4.12289 -0.546889 0
M  V30 834 H 92.4133 -3.10298 -2.06809 0
M  V30 835 N 94.5984 0.214957 -1.56127 0
M  V30 836 C 96.0144 0.564948 -1.49267 0
M  V30 837 C 96.2144 1.86827 -0.754838 0
M  V30 838 O 95.2704 2.50745 -0.297198 0
M  V30 839 C 96.5834 0.638071 -2.93852 0
M  V30 840 C 98.1314 0.728253 -3.0441 0
M  V30 841 C 98.6064 0.832663 -4.50367 0
M  V30 842 N 100.097 0.896712 -4.54437 0
M  V30 843 C 100.832 0.997324 -5.6466 0
M  V30 844 N 100.328 1.06147 -6.8462 0
M  V30 845 N 102.121 1.03297 -5.52527 0
M  V30 846 H 94.2724 -0.640211 -2.02522 0
M  V30 847 H 96.5354 -0.225507 -0.920788 0
M  V30 848 H 96.2414 -0.250126 -3.50809 0
M  V30 849 H 96.1154 1.49947 -3.46115 0
M  V30 850 H 98.5024 1.60689 -2.47514 0
M  V30 851 H 98.5834 -0.158952 -2.55306 0
M  V30 852 H 98.2274 -0.0415417 -5.07883 0
M  V30 853 H 98.1574 1.73538 -4.97184 0
M  V30 854 H 100.648 0.857188 -3.6805 0
M  V30 855 H 100.961 1.1382 -7.64372 0
M  V30 856 H 99.3064 1.03049 -6.87318 0
M  V30 857 H 102.497 0.979558 -4.57736 0
M  V30 858 H 102.67 1.10793 -6.38458 0
M  V30 859 N 96.0765 1.50051 0.48192 0
M  V30 860 C 97.3015 1.64508 1.26301 0
M  V30 861 C 97.7265 0.323851 1.85291 0
M  V30 862 O 97.0845 -0.710969 1.66778 0
M  V30 863 C 97.1325 2.7305 2.35533 0
M  V30 864 O 96.2365 2.3355 3.39895 0
M  V30 865 H 95.5775 0.549978 0.372048 0
M  V30 866 H 98.1075 1.9636 0.574786 0
M  V30 867 H 98.1175 2.95799 2.8101 0
M  V30 868 H 96.7925 3.68946 1.91967 0
M  V30 869 H 95.3695 2.21205 3.00204 0
M  V30 870 N 97.5546 -0.734337 1.39446 0
M  V30 871 C 98.4846 -1.86155 1.40955 0
M  V30 872 C 99.4656 -1.67898 0.272827 0
M  V30 873 O 100.651 -1.88207 0.478743 0
M  V30 874 C 97.7806 -3.23912 1.25294 0
M  V30 875 C 96.7346 -3.56808 2.36373 0
M  V30 876 C 96.0606 -4.93508 2.058 0
M  V30 877 C 97.3606 -3.59713 3.78687 0
M  V30 878 H 99.0546 -1.8515 2.35287 0
M  V30 879 H 96.6006 -0.889367 1.13253 0
M  V30 880 H 98.5536 -4.02443 1.2497 0
M  V30 881 H 97.2776 -3.25446 0.274308 0
M  V30 882 H 95.9366 -2.80606 2.35914 0
M  V30 883 H 95.5846 -4.91623 1.06374 0
M  V30 884 H 95.2846 -5.16486 2.80208 0
M  V30 885 H 96.8086 -5.74396 2.07128 0
M  V30 886 H 98.2226 -4.2832 3.81071 0
M  V30 887 H 96.6196 -3.94209 4.52459 0
M  V30 888 H 97.6896 -2.59504 4.09617 0
M  V30 889 N 99.0327 -1.24633 -0.964593 0
M  V30 890 C 100.279 -1.08949 -1.71049 0
M  V30 891 C 100.612 0.370302 -1.90637 0
M  V30 892 O 99.8867 1.27349 -1.47011 0
M  V30 893 C 100.17 -1.83329 -3.0994 0
M  V30 894 C 100.023 -3.37077 -2.97824 0
M  V30 895 C 101.342 -1.60846 -4.09654 0
M  V30 896 H 98.4607 -0.397178 -0.620821 0
M  V30 897 H 101.103 -1.5334 -1.12191 0
M  V30 898 H 99.2527 -1.45597 -3.60186 0
M  V30 899 H 100.925 -3.84425 -2.5498 0
M  V30 900 H 99.1677 -3.65298 -2.33965 0
M  V30 901 H 99.8387 -3.84324 -3.96231 0
M  V30 902 H 102.315 -1.93674 -3.68279 0
M  V30 903 H 101.191 -2.1534 -5.04896 0
M  V30 904 H 101.452 -0.547434 -4.38698 0
M  V30 905 N 100.511 1.16574 -1.06058 0
M  V30 906 C 101.459 2.22941 -0.663343 0
M  V30 907 C 102.453 1.66358 0.319593 0
M  V30 908 O 103.659 1.7905 0.184713 0
M  V30 909 H 100.034 0.725907 -0.196376 0
M  V30 910 H 102.005 2.53736 -1.57037 0
M  V30 911 C 100.754 3.47642 -0.0632808 0
M  V30 912 H 100.077 3.91493 -0.810733 0
M  V30 913 H 101.517 4.2363 0.177177 0
M  V30 914 C 99.9758 3.1509 1.19248 0
M  V30 915 O 100.506 3.30673 2.28075 0
M  V30 916 N 98.7118 2.6924 1.09353 0
M  V30 917 H 98.2588 2.5676 0.207912 0
M  V30 918 H 98.2168 2.47833 1.93458 0
M  V30 919 N 101.989 0.842826 1.3317 0
M  V30 920 C 102.919 0.294028 2.31641 0
M  V30 921 C 103.9 -0.600401 1.59151 0
M  V30 922 O 105.085 -0.523124 1.87022 0
M  V30 923 C 102.215 -0.528416 3.43257 0
M  V30 924 C 101.169 0.27056 4.27144 0
M  V30 925 C 100.495 -0.675881 5.30411 0
M  V30 926 C 101.795 1.48981 5.00602 0
M  V30 927 H 103.489 1.11681 2.77791 0
M  V30 928 H 101.035 0.538478 1.33553 0
M  V30 929 H 102.988 -0.922674 4.11175 0
M  V30 930 H 101.712 -1.38445 2.95805 0
M  V30 931 H 100.371 0.646427 3.60856 0
M  V30 932 H 100.019 -1.52842 4.79216 0
M  V30 933 H 99.7189 -0.145374 5.8742 0
M  V30 934 H 101.243 -1.06757 6.01195 0
M  V30 935 H 102.657 1.16849 5.61266 0
M  V30 936 H 101.054 1.95739 5.6728 0
M  V30 937 H 102.124 2.25746 4.29147 0
M  V30 938 N 103.467 -1.45747 0.599634 0
M  V30 939 C 104.715 -2.01893 0.0915472 0
M  V30 940 C 105.036 -1.47155 -1.27946 0
M  V30 941 O 104.306 -0.66273 -1.84349 0
M  V30 942 H 102.886 -0.746363 0.0308524 0
M  V30 943 H 105.548 -1.78645 0.779237 0
M  V30 944 H 104.644 -3.1208 0.0353086 0
M  V30 945 N 104.945 -0.338344 -1.53925 0
M  V30 946 C 106.193 0.259245 -2.0043 0
M  V30 947 C 106.514 1.51484 -1.22791 0
M  V30 948 O 105.784 1.93037 -0.33368 0
M  V30 949 H 104.364 0.0987845 -0.740439 0
M  V30 950 H 107.026 -0.458302 -1.89435 0
M  V30 951 H 106.122 0.505334 -3.07982 0
M  V30 952 N 106.423 1.57458 -0.0668435 0
M  V30 953 C 107.648 1.9804 0.616027 0
M  V30 954 C 108.073 0.944771 1.62652 0
M  V30 955 O 107.431 -0.0902094 1.81075 0
M  V30 956 C 107.479 3.37665 1.26549 0
M  V30 957 O 106.583 3.36701 2.38131 0
M  V30 958 H 105.924 0.644719 0.158849 0
M  V30 959 H 108.454 2.04121 -0.139891 0
M  V30 960 H 108.464 3.7474 1.6135 0
M  V30 961 H 107.139 4.12573 0.525016 0
M  V30 962 H 105.716 3.1139 2.0516 0
M  V30 963 N 107.901 -0.206675 1.56239 0
M  V30 964 C 108.848 -1.25617 1.93621 0
M  V30 965 C 109.818 -1.45824 0.795274 0
M  V30 966 O 111.003 -1.59148 1.05245 0
M  V30 967 C 108.143 -2.59839 2.27107 0
M  V30 968 C 107.256 -2.47308 3.54207 0
M  V30 969 C 106.391 -3.74155 3.7707 0
M  V30 970 C 105.43 -3.56407 4.97635 0
M  V30 971 N 104.567 -4.75238 5.1681 0
M  V30 972 H 109.407 -0.930383 2.83104 0
M  V30 973 H 106.944 -0.448065 1.4011 0
M  V30 974 H 108.902 -3.38021 2.44535 0
M  V30 975 H 107.532 -2.90485 1.40778 0
M  V30 976 H 106.584 -1.60483 3.4489 0
M  V30 977 H 107.896 -2.30122 4.42544 0
M  V30 978 H 107.05 -4.60778 3.94675 0
M  V30 979 H 105.789 -3.94282 2.87042 0
M  V30 980 H 104.794 -2.68168 4.79964 0
M  V30 981 H 106.019 -3.37736 5.89161 0
M  V30 982 H 103.965 -4.95651 4.29728 0
M  V30 983 H 103.882 -4.60835 5.99306 0
M  V30 984 H 105.15 -5.63246 5.38864 0
M  V30 985 N 109.379 -1.50304 -0.473955 0
M  V30 986 C 110.604 -1.65175 -1.25427 0
M  V30 987 C 111.029 -0.333673 -1.85117 0
M  V30 988 O 110.387 0.702114 -1.67153 0
M  V30 989 C 110.435 -2.74295 -2.34082 0
M  V30 990 O 109.539 -2.35349 -3.38651 0
M  V30 991 H 108.88 -0.551944 -0.369126 0
M  V30 992 H 111.41 -1.96662 -0.564364 0
M  V30 993 H 111.42 -2.97285 -2.79438 0
M  V30 994 H 110.095 -3.69959 -1.90008 0
M  V30 995 H 108.672 -2.22794 -2.99027 0
M  V30 996 N 110.857 0.726932 -1.39834 0
M  V30 997 C 112.106 1.48214 -1.36805 0
M  V30 998 C 112.419 1.95576 0.0305291 0
M  V30 999 O 113.625 2.7088 0.183417 0
M  V30 1000 C 112.081 2.67854 -2.40379 0
M  V30 1001 C 111.689 2.27408 -3.85992 0
M  V30 1002 C 113.433 3.45641 -2.46439 0
M  V30 1003 C 111.34 3.43819 -4.81189 0
M  V30 1004 H 110.27 0.556606 -0.508631 0
M  V30 1005 H 112.921 0.792216 -1.65518 0
M  V30 1006 H 111.303 3.3896 -2.04749 0
M  V30 1007 H 112.477 1.63795 -4.30706 0
M  V30 1008 H 110.792 1.62692 -3.83302 0
M  V30 1009 H 113.389 4.32244 -3.14753 0
M  V30 1010 H 113.732 3.88669 -1.49139 0
M  V30 1011 H 114.265 2.8157 -2.81004 0
M  V30 1012 H 111.004 3.05834 -5.79781 0
M  V30 1013 H 110.524 4.06385 -4.41148 0
M  V30 1014 H 112.203 4.10043 -5.00474 0
M  V30 1015 N 112.336 1.25143 0.95797 0
M  V30 1016 C 113.561 1.12521 1.74223 0
M  V30 1017 C 113.986 -0.317402 1.85403 0
M  V30 1018 O 113.344 -1.2299 1.33204 0
M  V30 1019 C 113.392 1.78062 3.1357 0
M  V30 1020 O 112.496 1.058 3.98598 0
M  V30 1021 H 111.837 0.39304 0.535178 0
M  V30 1022 H 114.367 1.65641 1.201 0
M  V30 1023 H 114.377 1.84213 3.64046 0
M  V30 1024 H 113.052 2.83021 3.04749 0
M  V30 1025 H 111.629 1.07506 3.57067 0
M  V30 1026 N 113.814 -1.1601 1.06675 0
M  V30 1027 C 115.063 -1.85973 0.780818 0
M  V30 1028 C 115.376 -1.82819 -0.695444 0
M  V30 1029 O 116.582 -2.484 -1.09589 0
M  V30 1030 C 115.038 -3.33757 1.34665 0
M  V30 1031 C 114.646 -3.45374 2.85343 0
M  V30 1032 C 116.39 -4.0895 1.13843 0
M  V30 1033 C 114.297 -4.87266 3.35151 0
M  V30 1034 H 113.227 -0.696661 0.288407 0
M  V30 1035 H 115.878 -1.30903 1.28595 0
M  V30 1036 H 114.26 -3.88456 0.769274 0
M  V30 1037 H 115.434 -3.00816 3.49065 0
M  V30 1038 H 113.749 -2.83619 3.04876 0
M  V30 1039 H 116.346 -5.13654 1.4854 0
M  V30 1040 H 116.689 -4.16229 0.0770282 0
M  V30 1041 H 117.222 -3.605 1.68179 0
M  V30 1042 H 113.961 -4.85168 4.40786 0
M  V30 1043 H 113.481 -5.32433 2.76179 0
M  V30 1044 H 115.16 -5.56097 3.30704 0
M  V30 1045 N 115.292 -0.849877 -1.32721 0
M  V30 1046 C 116.517 -0.463856 -2.02146 0
M  V30 1047 C 116.942 0.930449 -1.63476 0
M  V30 1048 O 116.3 1.61033 -0.832952 0
M  V30 1049 C 116.348 -0.604955 -3.55489 0
M  V30 1050 O 115.452 0.36425 -4.10788 0
M  V30 1051 H 114.793 -0.187046 -0.637111 0
M  V30 1052 H 117.323 -1.14775 -1.69375 0
M  V30 1053 H 117.333 -0.490696 -4.05038 0
M  V30 1054 H 116.008 -1.62174 -3.82978 0
M  V30 1055 H 114.585 0.206628 -3.72327 0
M  V30 1056 N 116.77 1.45427 -0.607355 0
M  V30 1057 C 118.016 2.0254 -0.102607 0
M  V30 1058 C 118.349 1.47478 1.26348 0
M  V30 1059 O 117.624 0.64939 1.83339 0
M  V30 1060 C 117.907 3.60044 -0.0634347 0
M  V30 1061 C 117.76 4.2544 -1.46017 0
M  V30 1062 C 119.079 4.35646 0.624514 0
M  V30 1063 H 116.198 0.73598 -0.0387607 0
M  V30 1064 H 118.84 1.73284 -0.779282 0
M  V30 1065 H 116.99 3.85101 0.512808 0
M  V30 1066 H 118.662 4.11569 -2.08347 0
M  V30 1067 H 116.905 3.83849 -2.02094 0
M  V30 1068 H 117.576 5.34342 -1.385 0
M  V30 1069 H 120.052 4.15882 0.134723 0
M  V30 1070 H 118.928 5.45376 0.621028 0
M  V30 1071 H 119.189 4.08501 1.69055 0
M  V30 1072 N 118.248 0.346503 1.53744 0
M  V30 1073 C 119.211 -0.496439 2.23759 0
M  V30 1074 C 120.211 -1.0252 1.2388 0
M  V30 1075 O 121.401 -0.913974 1.48297 0
M  V30 1076 C 118.533 -1.69187 2.95954 0
M  V30 1077 H 119.726 0.115952 2.99676 0
M  V30 1078 H 117.279 0.0978939 1.55993 0
M  V30 1079 H 118.014 -2.34288 2.24231 0
M  V30 1080 H 117.799 -1.31989 3.69217 0
M  V30 1081 H 119.289 -2.28969 3.49232 0
M  V30 1082 N 119.726 -1.57421 0.075193 0
M  V30 1083 C 121.142 -1.57099 -0.281444 0
M  V30 1084 C 121.342 -1.08486 -1.69803 0
M  V30 1085 O 120.398 -0.752279 -2.41033 0
M  V30 1086 C 121.711 -3.00571 -0.0880041 0
M  V30 1087 C 123.259 -3.12605 -0.157281 0
M  V30 1088 C 123.734 -4.57999 0.0079207 0
M  V30 1089 N 125.225 -4.63176 -0.0475725 0
M  V30 1090 C 125.96 -5.73373 0.0557876 0
M  V30 1091 N 125.456 -6.92473 0.21286 0
M  V30 1092 N 127.249 -5.621 -0.00152098 0
M  V30 1093 H 119.4 -1.87335 1.00098 0
M  V30 1094 H 121.663 -0.86377 0.390646 0
M  V30 1095 H 121.369 -3.40262 0.889629 0
M  V30 1096 H 121.243 -3.67754 -0.838875 0
M  V30 1097 H 123.63 -2.72798 -1.1254 0
M  V30 1098 H 123.711 -2.48053 0.62475 0
M  V30 1099 H 123.355 -4.98496 0.972824 0
M  V30 1100 H 123.285 -5.20586 -0.793556 0
M  V30 1101 H 125.776 -3.7753 -0.167244 0
M  V30 1102 H 126.089 -7.72279 0.283781 0
M  V30 1103 H 124.434 -6.94556 0.248267 0
M  V30 1104 H 127.625 -4.67938 -0.122958 0
M  V30 1105 H 127.798 -6.47948 0.0824844 0
M  V30 1106 N 121.204 0.198386 -1.56346 0
M  V30 1107 C 122.452 0.91747 -1.80075 0
M  V30 1108 C 122.773 1.83929 -0.647692 0
M  V30 1109 O 122.043 1.93029 0.334166 0
M  V30 1110 H 120.623 0.341774 -0.664228 0
M  V30 1111 H 123.285 0.204684 -1.93822 0
M  V30 1112 H 122.381 1.51055 -2.7311 0
M  V30 1113 N 122.682 1.50554 0.465978 0
M  V30 1114 C 123.93 1.61479 1.21528 0
M  V30 1115 C 124.251 0.319596 1.92363 0
M  V30 1116 O 123.521 -0.663194 1.84333 0
M  V30 1117 H 122.101 0.595055 0.451573 0
M  V30 1118 H 124.763 1.87355 0.53704 0
M  V30 1119 H 123.859 2.42846 1.96042 0
M  V30 1120 N 124.16 -0.719506 1.40217 0
M  V30 1121 C 125.408 -1.47641 1.3801 0
M  V30 1122 C 125.729 -1.94992 -0.018145 0
M  V30 1123 O 124.999 -1.70073 -0.972207 0
M  V30 1124 H 123.579 -0.547744 0.507923 0
M  V30 1125 H 126.241 -0.853187 1.75233 0
M  V30 1126 H 125.337 -2.35112 2.05253 0
M  V30 1127 N 125.638 -1.25649 -0.95132 0
M  V30 1128 C 127.054 -1.02542 -1.223 0
M  V30 1129 C 127.254 0.255715 -1.99871 0
M  V30 1130 O 126.31 0.967558 -2.33226 0
M  V30 1131 C 127.623 -2.25065 -1.99415 0
M  V30 1132 C 129.171 -2.29861 -2.12446 0
M  V30 1133 C 129.646 -3.52048 -2.92961 0
M  V30 1134 N 131.137 -3.52465 -3.00538 0
M  V30 1135 C 131.872 -4.43672 -3.63239 0
M  V30 1136 N 131.368 -5.45157 -4.27523 0
M  V30 1137 N 133.161 -4.31346 -3.60412 0
M  V30 1138 H 125.312 -2.07951 -0.432471 0
M  V30 1139 H 127.575 -0.91339 -0.253816 0
M  V30 1140 H 127.281 -3.18194 -1.49817 0
M  V30 1141 H 127.155 -2.28502 -3.00111 0
M  V30 1142 H 129.542 -1.37252 -2.61239 0
M  V30 1143 H 129.623 -2.3044 -1.11044 0
M  V30 1144 H 129.267 -4.44981 -2.44856 0
M  V30 1145 H 129.197 -3.48715 -3.94596 0
M  V30 1146 H 131.688 -2.79056 -2.54826 0
M  V30 1147 H 132.001 -6.10958 -4.73234 0
M  V30 1148 H 130.346 -5.49025 -4.26141 0
M  V30 1149 H 133.537 -3.51288 -3.09377 0
M  V30 1150 H 133.71 -5.02624 -4.0899 0
M  V30 1151 N 127.117 1.15442 -1.07289 0
M  V30 1152 C 128.365 1.85845 -0.794096 0
M  V30 1153 C 128.686 1.82692 0.681809 0
M  V30 1154 O 127.956 1.26741 1.49377 0
M  V30 1155 H 126.536 0.688089 -0.290763 0
M  V30 1156 H 129.198 1.39947 -1.3565 0
M  V30 1157 H 128.294 2.91001 -1.12804 0
M  V30 1158 N 128.595 0.856903 1.32268 0
M  V30 1159 C 129.82 0.474569 2.01897 0
M  V30 1160 C 130.245 -0.921766 1.63967 0
M  V30 1161 O 129.603 -1.60589 0.84148 0
M  V30 1162 C 129.651 0.623799 3.55164 0
M  V30 1163 O 128.755 -0.342459 4.10976 0
M  V30 1164 H 128.096 0.190422 0.63611 0
M  V30 1165 H 130.626 1.15672 1.68764 0
M  V30 1166 H 130.636 0.512169 4.04773 0
M  V30 1167 H 129.311 1.64202 3.82113 0
M  V30 1168 H 127.888 -0.18688 3.72431 0
M  V30 1169 N 130.073 -1.45103 0.615059 0
M  V30 1170 C 131.321 -2.01784 0.112955 0
M  V30 1171 C 131.642 -1.48504 -1.26378 0
M  V30 1172 O 130.912 -0.682245 -1.83636 0
M  V30 1173 H 129.492 -0.745993 0.0387668 0
M  V30 1174 H 132.154 -1.77808 0.798141 0
M  V30 1175 H 131.25 -3.12025 0.0684069 0
M  V30 1176 N 131.551 -0.354651 -1.53558 0
M  V30 1177 C 132.798 0.238443 -2.01091 0
M  V30 1178 C 133.126 1.49663 -1.24222 0
M  V30 1179 O 132.381 1.93049 -0.321003 0
M  V30 1180 C 132.68 0.587121 -3.52545 0
M  V30 1181 C 132.346 -0.575472 -4.47213 0
M  V30 1182 C 131.008 -0.894497 -4.72813 0
M  V30 1183 C 133.36 -1.35489 -5.03281 0
M  V30 1184 C 130.688 -1.99511 -5.51736 0
M  V30 1185 C 133.04 -2.44583 -5.83405 0
M  V30 1186 C 131.704 -2.77033 -6.07296 0
M  V30 1187 H 130.974 0.0872526 -0.735845 0
M  V30 1188 H 133.621 -0.484859 -1.8526 0
M  V30 1189 H 131.926 1.39129 -3.66265 0
M  V30 1190 H 133.623 1.05809 -3.86789 0
M  V30 1191 H 130.213 -0.316774 -4.27428 0
M  V30 1192 H 134.397 -1.12167 -4.83459 0
M  V30 1193 H 129.653 -2.25063 -5.68469 0
M  V30 1194 H 133.827 -3.05401 -6.25862 0
M  V30 1195 H 131.454 -3.6244 -6.68237 0
M  V30 1196 N 133.029 1.57378 -0.0835403 0
M  V30 1197 C 134.277 1.93547 0.581718 0
M  V30 1198 C 134.598 0.96524 1.69435 0
M  V30 1199 O 133.868 0.0153369 1.95894 0
M  V30 1200 H 132.448 0.714521 0.217874 0
M  V30 1201 H 135.11 1.94366 -0.144158 0
M  V30 1202 H 134.206 2.95665 0.999423 0
M  V30 1203 N 134.507 -0.190092 1.56449 0
M  V30 1204 C 135.755 -0.907908 1.80559 0
M  V30 1205 C 136.076 -1.83583 0.657438 0
M  V30 1206 O 135.346 -1.93203 -0.323924 0
M  V30 1207 H 133.926 -0.338247 0.666032 0
M  V30 1208 H 136.588 -0.194403 1.93928 0
M  V30 1209 H 135.684 -1.49604 2.73907 0
M  V30 1210 N 135.985 -1.50799 -0.457987 0
M  V30 1211 C 137.233 -1.62121 -1.2067 0
M  V30 1212 C 137.554 -0.329793 -1.92191 0
M  V30 1213 O 136.824 0.653409 -1.84682 0
M  V30 1214 H 135.404 -0.597441 -0.448411 0
M  V30 1215 H 138.066 -1.87637 -0.527096 0
M  V30 1216 H 137.162 -2.43882 -1.94751 0
M  V30 1217 N 137.463 0.71206 -1.40597 0
M  V30 1218 C 138.693 1.49894 -1.42181 0
M  V30 1219 C 139.101 1.89189 -0.0208078 0
M  V30 1220 O 138.444 1.56223 0.966436 0
M  V30 1221 C 138.506 2.80215 -2.25211 0
M  V30 1222 C 138.17 2.63221 -3.73582 0
M  V30 1223 C 139.167 2.30249 -4.66135 0
M  V30 1224 C 136.852 2.79376 -4.17438 0
M  V30 1225 C 138.846 2.13645 -6.00529 0
M  V30 1226 C 136.533 2.6239 -5.51901 0
M  V30 1227 C 137.531 2.29573 -6.43262 0
M  V30 1228 O 137.219 2.12719 -7.75246 0
M  V30 1229 H 136.951 0.469031 -0.486812 0
M  V30 1230 H 139.505 0.88564 -1.85326 0
M  V30 1231 H 137.735 3.4389 -1.76852 0
M  V30 1232 H 139.424 3.41947 -2.18694 0
M  V30 1233 H 140.19 2.17398 -4.33547 0
M  V30 1234 H 136.069 3.03906 -3.46644 0
M  V30 1235 H 139.613 1.87953 -6.71803 0
M  V30 1236 H 135.51 2.74826 -5.84073 0
M  V30 1237 H 136.278 2.27611 -7.86216 0
M  V30 1238 N 138.941 1.26152 0.944643 0
M  V30 1239 C 140.189 1.11271 1.6871 0
M  V30 1240 C 140.51 -0.345166 1.91921 0
M  V30 1241 O 139.78 -1.24387 1.51343 0
M  V30 1242 H 138.36 0.408783 0.625224 0
M  V30 1243 H 141.022 1.58427 1.1352 0
M  V30 1244 H 140.118 1.62879 2.66227 0
M  V30 1245 N 140.419 -1.14872 1.07899 0
M  V30 1246 C 141.667 -1.85422 0.803941 0
M  V30 1247 C 141.988 -1.83051 -0.67211 0
M  V30 1248 O 141.258 -1.27532 -1.48703 0
M  V30 1249 H 139.838 -0.686537 0.294408 0
M  V30 1250 H 142.5 -1.39226 1.3639 0
M  V30 1251 H 141.596 -2.90399 1.14346 0
M  V30 1252 N 141.898 -0.863906 -1.31812 0
M  V30 1253 C 143.146 -0.470904 -1.96537 0
M  V30 1254 C 143.467 0.978771 -1.68657 0
M  V30 1255 O 142.737 1.6853 -0.998717 0
M  V30 1256 H 141.317 -0.171148 -0.72713 0
M  V30 1257 H 143.979 -1.10236 -1.60729 0
M  V30 1258 H 143.075 -0.623616 -3.05806 0
M  V30 1259 N 143.376 1.44774 -0.622745 0
M  V30 1260 C 144.624 2.01721 -0.123655 0
M  V30 1261 C 144.945 1.49172 1.25589 0
M  V30 1262 O 144.215 0.691974 1.83272 0
M  V30 1263 H 142.795 0.745777 -0.0427225 0
M  V30 1264 H 145.457 1.77382 -0.807559 0
M  V30 1265 H 144.553 3.11984 -0.0849534 0
M  V30 1266 N 144.854 0.36279 1.53368 0
M  V30 1267 C 146.101 -0.227776 2.01215 0
M  V30 1268 C 146.429 -1.49003 1.25014 0
M  V30 1269 O 145.684 -1.92876 0.331236 0
M  V30 1270 C 145.983 -0.568417 3.52851 0
M  V30 1271 C 145.649 0.59918 4.46901 0
M  V30 1272 C 144.311 0.919559 4.72332 0
M  V30 1273 C 146.663 1.38156 5.02556 0
M  V30 1274 C 143.991 2.02434 5.5067 0
M  V30 1275 C 146.343 2.47674 5.821 0
M  V30 1276 C 145.007 2.8025 6.05819 0
M  V30 1277 H 144.277 -0.083349 0.736297 0
M  V30 1278 H 146.924 0.494677 1.85001 0
M  V30 1279 H 145.229 -1.37185 3.66998 0
M  V30 1280 H 146.926 -1.03756 3.87344 0
M  V30 1281 H 143.516 0.339437 4.27254 0
M  V30 1282 H 147.7 1.14729 4.82857 0
M  V30 1283 H 142.956 2.28075 5.67267 0
M  V30 1284 H 147.13 3.08716 6.24234 0
M  V30 1285 H 144.757 3.65979 6.66306 0
M  V30 1286 N 146.332 -1.57332 0.0918853 0
M  V30 1287 C 147.58 -1.93853 -0.571446 0
M  V30 1288 C 147.901 -0.974212 -1.6892 0
M  V30 1289 O 147.171 -0.0257254 -1.95883 0
M  V30 1290 H 145.751 -0.715666 -0.214082 0
M  V30 1291 H 148.413 -1.94287 0.154464 0
M  V30 1292 H 147.509 -2.96191 -0.983729 0
M  V30 1293 N 147.81 0.181792 -1.56548 0
M  V30 1294 C 149.058 0.89832 -1.81038 0
M  V30 1295 C 149.379 1.83232 -0.667164 0
M  V30 1296 O 148.649 1.93372 0.313673 0
M  V30 1297 H 147.229 0.33471 -0.667816 0
M  V30 1298 H 149.891 0.184116 -1.94028 0
M  V30 1299 H 148.987 1.4815 -2.74696 0
M  V30 1300 N 149.288 1.51039 0.449983 0
M  V30 1301 C 150.536 1.62759 1.19808 0
M  V30 1302 C 150.857 0.339981 1.92013 0
M  V30 1303 O 150.127 -0.643606 1.85026 0
M  V30 1304 H 148.707 0.599811 0.445237 0
M  V30 1305 H 151.369 1.87914 0.517138 0
M  V30 1306 H 150.465 2.44911 1.93455 0
M  V30 1307 N 150.766 -0.704594 1.40972 0
M  V30 1308 C 152.014 -1.46169 1.39568 0
M  V30 1309 C 152.335 -1.95 0.00253745 0
M  V30 1310 O 151.605 -1.71095 -0.954114 0
M  V30 1311 H 150.185 -0.542326 0.513704 0
M  V30 1312 H 152.847 -0.834553 1.76128 0
M  V30 1313 H 151.943 -2.32922 2.07735 0
M  V30 1314 N 152.244 -1.26651 -0.937939 0
M  V30 1315 C 153.491 -1.12387 -1.6845 0
M  V30 1316 C 153.819 0.332208 -1.91642 0
M  V30 1317 O 153.074 1.2602 -1.49725 0
M  V30 1318 C 153.373 -1.84168 -3.06295 0
M  V30 1319 C 153.039 -3.34056 -3.02849 0
M  V30 1320 C 151.701 -3.74942 -3.01616 0
M  V30 1321 C 154.053 -4.29741 -2.9491 0
M  V30 1322 C 151.381 -5.09894 -2.90215 0
M  V30 1323 C 153.733 -5.64738 -2.8505 0
M  V30 1324 C 152.397 -6.0493 -2.82162 0
M  V30 1325 H 151.667 -0.411252 -0.616403 0
M  V30 1326 H 154.314 -1.57134 -1.09459 0
M  V30 1327 H 152.619 -1.319 -3.6893 0
M  V30 1328 H 154.316 -1.70569 -3.62915 0
M  V30 1329 H 150.906 -3.01534 -3.0459 0
M  V30 1330 H 155.09 -3.99133 -2.94969 0
M  V30 1331 H 150.346 -5.40194 -2.86358 0
M  V30 1332 H 154.52 -6.38561 -2.77872 0
M  V30 1333 H 152.147 -7.09457 -2.73084 0
M  V30 1334 N 153.722 1.14298 -1.08507 0
M  V30 1335 C 154.97 1.84993 -0.813763 0
M  V30 1336 C 155.291 1.83405 0.662393 0
M  V30 1337 O 154.561 1.28319 1.48024 0
M  V30 1338 H 153.141 0.684966 -0.298045 0
M  V30 1339 H 155.803 1.385 -1.37126 0
M  V30 1340 H 154.899 2.89788 -1.15884 0
M  V30 1341 N 155.201 0.870884 1.31352 0
M  V30 1342 C 156.449 0.48132 1.96285 0
M  V30 1343 C 156.77 -0.969813 1.69173 0
M  V30 1344 O 156.04 -1.67998 1.00764 0
M  V30 1345 H 154.62 0.175002 0.726212 0
M  V30 1346 H 157.282 1.11087 1.60143 0
M  V30 1347 H 156.378 0.639825 3.05471 0
M  V30 1348 N 156.679 -1.44442 0.630414 0
M  V30 1349 C 157.927 -2.01653 0.134351 0
M  V30 1350 C 158.248 -1.49836 -1.24796 0
M  V30 1351 O 157.518 -0.701684 -1.82902 0
M  V30 1352 H 156.098 -0.74554 0.0466769 0
M  V30 1353 H 158.76 -1.76952 0.816955 0
M  V30 1354 H 157.856 -3.11935 0.101498 0
M  V30 1355 N 158.157 -0.370918 -1.53173 0
M  V30 1356 C 159.405 0.216673 -2.00935 0
M  V30 1357 C 159.726 1.48845 -1.25977 0
M  V30 1358 O 158.996 1.92286 -0.374551 0
M  V30 1359 H 157.576 0.0830565 -0.742368 0
M  V30 1360 H 160.238 -0.49838 -1.8842 0
M  V30 1361 H 159.334 0.439893 -3.08984 0
M  V30 1362 N 159.635 1.57281 -0.100228 0
M  V30 1363 C 160.882 1.94537 0.562268 0
M  V30 1364 C 161.21 0.982315 1.67871 0
M  V30 1365 O 160.465 0.00280936 1.957 0
M  V30 1366 C 160.764 3.38305 1.15259 0
M  V30 1367 C 160.43 4.50618 0.159409 0
M  V30 1368 C 159.092 4.81066 -0.113741 0
M  V30 1369 C 161.444 5.18615 -0.518461 0
M  V30 1370 C 158.772 5.76835 -1.07137 0
M  V30 1371 C 161.124 6.15412 -1.46459 0
M  V30 1372 C 159.788 6.44262 -1.74592 0
M  V30 1373 H 159.058 0.711863 0.205748 0
M  V30 1374 H 161.705 1.90679 -0.17715 0
M  V30 1375 H 160.01 3.38766 1.96836 0
M  V30 1376 H 161.707 3.64435 1.67297 0
M  V30 1377 H 158.297 4.2689 0.382491 0
M  V30 1378 H 162.481 4.95264 -0.320581 0
M  V30 1379 H 157.737 5.975 -1.29628 0
M  V30 1380 H 161.911 6.67194 -1.99564 0
M  V30 1381 H 159.538 7.1828 -2.48953 0
M  V30 1382 N 161.113 -0.173488 1.56642 0
M  V30 1383 C 162.361 -0.888706 1.81512 0
M  V30 1384 C 162.682 -1.82875 0.676872 0
M  V30 1385 O 161.952 -1.93536 -0.303414 0
M  V30 1386 H 160.532 -0.331164 0.669582 0
M  V30 1387 H 163.194 -0.173823 1.94123 0
M  V30 1388 H 162.29 -1.46691 2.75478 0
M  V30 1389 N 162.591 -1.51276 -0.441967 0
M  V30 1390 C 163.839 -1.63392 -1.18943 0
M  V30 1391 C 164.16 -0.350159 -1.9183 0
M  V30 1392 O 163.43 0.633784 -1.85364 0
M  V30 1393 H 162.01 -0.602164 -0.442049 0
M  V30 1394 H 164.672 -1.88186 -0.507165 0
M  V30 1395 H 163.768 -2.45934 -1.92154 0
M  V30 1396 N 164.069 0.697108 -1.41344 0
M  V30 1397 C 165.317 1.45426 -1.40341 0
M  V30 1398 C 165.638 1.94996 -0.0128787 0
M  V30 1399 O 164.908 1.71599 0.945027 0
M  V30 1400 H 163.488 0.539594 -0.516573 0
M  V30 1401 H 166.15 0.825201 -1.76569 0
M  V30 1402 H 165.246 2.31817 -2.08967 0
M  V30 1403 N 165.547 1.27147 0.931209 0
M  V30 1404 C 166.795 1.13055 1.6752 0
M  V30 1405 C 167.116 -0.324791 1.92276 0
M  V30 1406 O 166.386 -1.22775 1.52654 0
M  V30 1407 H 164.966 0.415391 0.620854 0
M  V30 1408 H 167.628 1.59623 1.11833 0
M  V30 1409 H 166.724 1.65694 2.64485 0
M  V30 1410 N 167.025 -1.13721 1.09112 0
M  V30 1411 C 168.274 -1.84275 0.82009 0
M  V30 1412 C 168.587 -1.84253 -0.656509 0
M  V30 1413 O 169.793 -2.50668 -1.04296 0
M  V30 1414 C 168.249 -3.30825 1.41714 0
M  V30 1415 C 167.857 -3.39244 2.92605 0
M  V30 1416 C 169.601 -4.06443 1.22492 0
M  V30 1417 C 167.508 -4.80047 3.45411 0
M  V30 1418 H 166.438 -0.690387 0.30312 0
M  V30 1419 H 169.089 -1.28146 1.31343 0
M  V30 1420 H 167.471 -3.86737 0.851498 0
M  V30 1421 H 168.645 -2.93344 3.55367 0
M  V30 1422 H 166.96 -2.77088 3.10823 0
M  V30 1423 H 169.557 -5.10387 1.59402 0
M  V30 1424 H 169.9 -4.15972 0.165299 0
M  V30 1425 H 170.433 -3.56852 1.75788 0
M  V30 1426 H 167.172 -4.75709 4.50978 0
M  V30 1427 H 166.692 -5.26455 2.87411 0
M  V30 1428 H 168.371 -5.48957 3.42425 0
M  V30 1429 N 168.503 -0.877838 -1.30888 0
M  V30 1430 C 169.751 -0.491723 -1.96027 0
M  V30 1431 C 170.072 0.960827 -1.69685 0
M  V30 1432 O 169.342 1.67462 -1.01654 0
M  V30 1433 H 167.922 -0.17885 -0.725273 0
M  V30 1434 H 170.584 -1.11935 -1.59551 0
M  V30 1435 H 169.68 -0.656016 -3.05128 0
M  V30 1436 N 169.982 1.44106 -0.638065 0
M  V30 1437 C 171.23 2.01579 -0.145043 0
M  V30 1438 C 171.551 1.50496 1.24 0
M  V30 1439 O 170.821 0.711374 1.82527 0
M  V30 1440 H 169.401 0.745282 -0.05063 0
M  V30 1441 H 172.063 1.76516 -0.826327 0
M  V30 1442 H 171.159 3.11877 -0.118039 0
M  V30 1443 N 171.46 0.379036 1.52974 0
M  V30 1444 C 172.708 -0.206014 2.01047 0
M  V30 1445 C 173.029 -1.48175 1.26765 0
M  V30 1446 O 172.299 -1.92085 0.384743 0
M  V30 1447 H 170.879 -0.0791184 0.742798 0
M  V30 1448 H 173.541 0.508366 1.88153 0
M  V30 1449 H 172.637 -0.423501 3.09213 0
M  V30 1450 N 172.938 -1.57226 0.108567 0
M  V30 1451 C 174.186 -1.94448 -0.550853 0
M  V30 1452 C 174.507 -0.992074 -1.67878 0
M  V30 1453 O 173.777 -0.0465 -1.95845 0
M  V30 1454 H 172.357 -0.717897 -0.206479 0
M  V30 1455 H 175.019 -1.94112 0.175062 0
M  V30 1456 H 174.115 -2.97218 -0.952259 0
M  V30 1457 N 174.416 0.165178 -1.56732 0
M  V30 1458 C 175.663 0.880807 -1.8234 0
M  V30 1459 C 175.991 1.81977 -0.686621 0
M  V30 1460 O 175.246 1.92971 0.325697 0
M  V30 1461 C 175.545 1.70405 -3.1416 0
M  V30 1462 C 175.211 0.913475 -4.4155 0
M  V30 1463 C 173.873 0.695303 -4.7615 0
M  V30 1464 C 176.225 0.359349 -5.1996 0
M  V30 1465 C 173.553 -0.0879947 -5.86634 0
M  V30 1466 C 175.905 -0.410893 -6.31264 0
M  V30 1467 C 174.569 -0.639808 -6.64427 0
M  V30 1468 H 173.839 0.32231 -0.667231 0
M  V30 1469 H 176.486 0.145402 -1.90947 0
M  V30 1470 H 174.791 2.50903 -3.00923 0
M  V30 1471 H 176.488 2.26091 -3.31186 0
M  V30 1472 H 173.078 1.09357 -4.14414 0
M  V30 1473 H 177.262 0.515228 -4.93618 0
M  V30 1474 H 172.518 -0.27503 -6.10781 0
M  V30 1475 H 176.692 -0.847494 -6.91224 0
M  V30 1476 H 174.319 -1.24864 -7.49875 0
M  V30 1477 N 175.894 1.51508 0.433938 0
M  V30 1478 C 177.142 1.6402 1.18075 0
M  V30 1479 C 177.463 0.360328 1.91642 0
M  V30 1480 O 176.733 -0.623945 1.85698 0
M  V30 1481 H 175.313 0.6045 0.43885 0
M  V30 1482 H 177.975 1.88452 0.497178 0
M  V30 1483 H 177.071 2.46949 1.90847 0
M  V30 1484 N 177.372 -0.689602 1.41712 0
M  V30 1485 C 178.62 -1.4468 1.4111 0
M  V30 1486 C 178.941 -1.94986 0.0232196 0
M  V30 1487 O 178.211 -1.72097 -0.935913 0
M  V30 1488 H 176.791 -0.536847 0.519427 0
M  V30 1489 H 179.453 -0.815825 1.77004 0
M  V30 1490 H 178.549 -2.30706 2.10193 0
M  V30 1491 N 178.85 -1.27639 -0.924453 0
M  V30 1492 C 180.097 -1.14167 -1.67249 0
M  V30 1493 C 180.425 0.311863 -1.91984 0
M  V30 1494 O 179.68 1.24425 -1.51053 0
M  V30 1495 C 179.979 -1.87407 -3.04325 0
M  V30 1496 C 179.645 -3.37249 -2.99289 0
M  V30 1497 C 178.307 -3.7812 -2.97622 0
M  V30 1498 C 180.659 -4.32845 -2.90336 0
M  V30 1499 C 177.987 -5.12944 -2.8479 0
M  V30 1500 C 180.339 -5.6773 -2.79045 0
M  V30 1501 C 179.003 -6.07889 -2.7573 0
M  V30 1502 H 178.273 -0.417766 -0.612007 0
M  V30 1503 H 180.92 -1.58286 -1.07786 0
M  V30 1504 H 179.225 -1.35805 -3.67511 0
M  V30 1505 H 180.922 -1.74408 -3.61086 0
M  V30 1506 H 177.512 -3.04748 -3.01374 0
M  V30 1507 H 181.696 -4.02239 -2.90719 0
M  V30 1508 H 176.952 -5.432 -2.80612 0
M  V30 1509 H 181.126 -6.41472 -2.71083 0
M  V30 1510 H 178.753 -7.12314 -2.65544 0
M  V30 1511 N 180.328 1.1314 -1.09713 0
M  V30 1512 C 181.576 1.84119 -0.833338 0
M  V30 1513 C 181.897 1.84097 0.642904 0
M  V30 1514 O 181.167 1.29881 1.46655 0
M  V30 1515 H 179.747 0.681766 -0.305293 0
M  V30 1516 H 182.409 1.37038 -1.38588 0
M  V30 1517 H 181.505 2.88543 -1.18951 0
M  V30 1518 N 181.806 0.884767 1.30421 0
M  V30 1519 C 183.031 0.517288 2.00845 0
M  V30 1520 C 183.456 -0.886779 1.65885 0
M  V30 1521 O 182.814 -1.58768 0.875354 0
M  V30 1522 C 182.862 0.698994 3.5376 0
M  V30 1523 O 181.966 -0.255208 4.1161 0
M  V30 1524 H 181.307 0.203872 0.631927 0
M  V30 1525 H 183.837 1.19225 1.66272 0
M  V30 1526 H 183.847 0.597912 4.03595 0
M  V30 1527 H 182.522 1.72271 3.78544 0
M  V30 1528 H 181.099 -0.10784 3.72744 0
M  V30 1529 N 183.284 -1.43765 0.645699 0
M  V30 1530 C 184.532 -2.01499 0.155731 0
M  V30 1531 C 184.853 -1.51151 -1.232 0
M  V30 1532 O 184.123 -0.721044 -1.82148 0
M  V30 1533 H 182.703 -0.745003 0.0545817 0
M  V30 1534 H 185.365 -1.76075 0.835677 0
M  V30 1535 H 184.461 -3.1181 0.134577 0
M  V30 1536 N 184.763 -0.387143 -1.52771 0
M  V30 1537 C 186.011 0.195349 -2.01154 0
M  V30 1538 C 186.332 1.475 -1.27549 0
M  V30 1539 O 185.602 1.91878 -0.394924 0
M  V30 1540 H 184.182 0.075178 -0.743207 0
M  V30 1541 H 186.844 -0.518337 -1.87881 0
M  V30 1542 H 185.94 0.407096 -3.09434 0
M  V30 1543 N 186.241 1.57166 -0.116904 0
M  V30 1544 C 187.489 1.94737 0.540533 0
M  V30 1545 C 187.81 1.00096 1.67349 0
M  V30 1546 O 187.08 0.0568854 1.95817 0
M  V30 1547 H 185.66 0.718981 0.202669 0
M  V30 1548 H 188.322 1.94017 -0.185353 0
M  V30 1549 H 187.418 2.97719 0.936483 0
M  V30 1550 N 187.719 -0.156864 1.56817 0
M  V30 1551 C 188.967 -0.869404 1.82444 0
M  V30 1552 C 189.288 -1.82147 0.69623 0
M  V30 1553 O 188.558 -1.93847 -0.28287 0
M  V30 1554 H 187.138 -0.324043 0.673056 0
M  V30 1555 H 189.8 -0.153224 1.94297 0
M  V30 1556 H 188.896 -1.43761 2.77019 0
M  V30 1557 N 189.197 -1.51736 -0.425897 0
M  V30 1558 C 190.444 -1.6497 -1.17436 0
M  V30 1559 C 190.772 -0.371445 -1.9092 0
M  V30 1560 O 190.027 0.644963 -1.84767 0
M  V30 1561 C 190.326 -2.81103 -2.20717 0
M  V30 1562 C 189.992 -4.19954 -1.64162 0
M  V30 1563 C 188.654 -4.57725 -1.48462 0
M  V30 1564 C 191.006 -5.06552 -1.22696 0
M  V30 1565 C 188.334 -5.79789 -0.897873 0
M  V30 1566 C 190.686 -6.29205 -0.654464 0
M  V30 1567 C 189.35 -6.6574 -0.484456 0
M  V30 1568 H 188.62 -0.603668 -0.429727 0
M  V30 1569 H 191.267 -1.85798 -0.463829 0
M  V30 1570 H 189.572 -2.54542 -2.97852 0
M  V30 1571 H 191.269 -2.8854 -2.78471 0
M  V30 1572 H 187.859 -3.90181 -1.77361 0
M  V30 1573 H 192.043 -4.77968 -1.33642 0
M  V30 1574 H 187.299 -6.06733 -0.75402 0
M  V30 1575 H 191.473 -6.95643 -0.324694 0
M  V30 1576 H 189.1 -7.60195 -0.0276833 0
M  V30 1577 N 190.675 0.682077 -1.42076 0
M  V30 1578 C 191.923 1.4393 -1.41876 0
M  V30 1579 C 192.244 1.94971 -0.0335599 0
M  V30 1580 O 191.514 1.72591 0.926773 0
M  V30 1581 H 190.094 0.534085 -0.522267 0
M  V30 1582 H 192.756 0.806427 -1.77434 0
M  V30 1583 H 191.852 2.29588 -2.11414 0
M  V30 1584 N 192.153 1.28127 0.917671 0
M  V30 1585 C 193.401 1.14825 1.66312 0
M  V30 1586 C 193.722 -0.304379 1.9261 0
M  V30 1587 O 192.992 -1.21149 1.53947 0
M  V30 1588 H 191.572 0.421953 0.616413 0
M  V30 1589 H 194.234 1.608 1.10134 0
M  V30 1590 H 193.33 1.68489 2.62712 0
M  V30 1591 N 193.631 -1.12557 1.10312 0
M  V30 1592 C 194.879 -1.83675 0.843091 0
M  V30 1593 C 195.2 -1.84435 -0.633131 0
M  V30 1594 O 194.47 -1.30657 -1.45964 0
M  V30 1595 H 193.05 -0.680138 0.308904 0
M  V30 1596 H 195.712 -1.36301 1.39313 0
M  V30 1597 H 194.808 -2.87908 1.2048 0
M  V30 1598 N 195.109 -0.891671 -1.2995 0
M  V30 1599 C 196.357 -0.512486 -1.95494 0
M  V30 1600 C 196.678 0.942776 -1.70695 0
M  V30 1601 O 195.948 1.66374 -1.03424 0
M  V30 1602 H 194.528 -0.186533 -0.723336 0
M  V30 1603 H 197.19 -1.13621 -1.58355 0
M  V30 1604 H 196.286 -0.688342 -3.04415 0
M  V30 1605 N 196.587 1.43421 -0.653314 0
M  V30 1606 C 197.834 2.01812 -0.166745 0
M  V30 1607 C 198.162 1.51535 1.21931 0
M  V30 1608 O 197.417 0.698975 1.82792 0
M  V30 1609 C 197.716 3.57176 -0.126623 0
M  V30 1610 C 197.382 4.26798 -1.45444 0
M  V30 1611 C 196.044 4.45534 -1.81805 0
M  V30 1612 C 198.396 4.66225 -2.32989 0
M  V30 1613 C 195.724 5.00961 -3.05377 0
M  V30 1614 C 198.076 5.23021 -3.55853 0
M  V30 1615 C 196.74 5.39973 -3.9241 0
M  V30 1616 H 196.01 0.738484 -0.0610162 0
M  V30 1617 H 198.657 1.71896 -0.84404 0
M  V30 1618 H 196.962 3.86634 0.634123 0
M  V30 1619 H 198.659 4.00112 0.266723 0
M  V30 1620 H 195.249 4.12561 -1.16153 0
M  V30 1621 H 199.433 4.51443 -2.06187 0
M  V30 1622 H 194.689 5.12271 -3.3375 0
M  V30 1623 H 198.863 5.52518 -4.23907 0
M  V30 1624 H 196.49 5.82687 -4.88242 0
M  V30 1625 N 198.065 0.39524 1.52563 0
M  V30 1626 C 199.313 -0.184678 2.01254 0
M  V30 1627 C 199.634 -1.46822 1.28329 0
M  V30 1628 O 198.904 -1.91666 0.405094 0
M  V30 1629 H 197.484 -0.0712355 0.743596 0
M  V30 1630 H 200.146 0.528293 1.87603 0
M  V30 1631 H 199.242 -0.390681 3.09645 0
M  V30 1632 N 199.544 -1.57102 0.125237 0
M  V30 1633 C 200.792 -1.95021 -0.530198 0
M  V30 1634 C 201.113 -1.00982 -1.66816 0
M  V30 1635 O 200.383 -0.0672693 -1.95784 0
M  V30 1636 H 198.963 -0.720046 -0.198853 0
M  V30 1637 H 201.625 -1.93916 0.19564 0
M  V30 1638 H 200.721 -2.98211 -0.920681 0
M  V30 1639 N 201.022 0.148545 -1.56898 0
M  V30 1640 C 202.27 0.859717 -1.82902 0
M  V30 1641 C 202.591 1.81775 -0.70588 0
M  V30 1642 O 201.861 1.93994 0.272586 0
M  V30 1643 H 200.441 0.320469 -0.674766 0
M  V30 1644 H 203.103 0.142918 -1.94375 0
M  V30 1645 H 202.199 1.4229 -2.77777 0
M  V30 1646 N 202.5 1.5196 0.417844 0
M  V30 1647 C 203.748 1.65263 1.16329 0
M  V30 1648 C 204.069 0.380634 1.91249 0
M  V30 1649 O 203.339 -0.604214 1.86349 0
M  V30 1650 H 201.919 0.60912 0.432414 0
M  V30 1651 H 204.581 1.88969 0.477162 0
M  V30 1652 H 203.677 2.4896 1.88217 0
M  V30 1653 N 203.978 -0.674533 1.42435 0
M  V30 1654 C 205.208 -1.46071 1.46105 0
M  V30 1655 C 205.616 -1.89067 0.0709605 0
M  V30 1656 O 204.959 -1.58731 -0.924677 0
M  V30 1657 C 205.021 -2.74145 2.32561 0
M  V30 1658 C 204.685 -2.53224 3.8043 0
M  V30 1659 C 205.682 -2.17809 4.72075 0
M  V30 1660 C 203.367 -2.6821 4.24698 0
M  V30 1661 C 205.361 -1.97648 6.05982 0
M  V30 1662 C 203.048 -2.47665 5.58664 0
M  V30 1663 C 204.046 -2.12437 6.49122 0
M  V30 1664 O 203.734 -1.9209 7.80613 0
M  V30 1665 H 203.466 -0.455959 0.499076 0
M  V30 1666 H 206.02 -0.836193 1.87609 0
M  V30 1667 H 204.25 -3.3908 1.85908 0
M  V30 1668 H 205.939 -3.36028 2.27683 0
M  V30 1669 H 206.705 -2.05826 4.39159 0
M  V30 1670 H 202.584 -2.94609 3.54579 0
M  V30 1671 H 206.128 -1.70075 6.7655 0
M  V30 1672 H 202.025 -2.59244 5.91154 0
M  V30 1673 H 202.793 -2.06686 7.91974 0
M  V30 1674 N 205.456 -1.28612 -0.910864 0
M  V30 1675 C 206.704 -1.15705 -1.65701 0
M  V30 1676 C 207.025 0.29416 -1.92769 0
M  V30 1677 O 206.295 1.20331 -1.54588 0
M  V30 1678 H 204.875 -0.425216 -0.614167 0
M  V30 1679 H 207.537 -1.61381 -1.0928 0
M  V30 1680 H 206.633 -1.6988 -2.61815 0
M  V30 1681 N 206.934 1.1197 -1.10907 0
M  V30 1682 C 208.182 1.83225 -0.852819 0
M  V30 1683 C 208.503 1.84769 0.623341 0
M  V30 1684 O 207.773 1.3143 1.45269 0
M  V30 1685 H 206.353 0.67849 -0.312507 0
M  V30 1686 H 209.015 1.3556 -1.40033 0
M  V30 1687 H 208.111 2.87265 -1.22005 0
M  V30 1688 N 208.412 0.89855 1.29475 0
M  V30 1689 C 209.66 0.522847 1.9522 0
M  V30 1690 C 209.981 -0.93371 1.71192 0
M  V30 1691 O 209.251 -1.65823 1.04305 0
M  V30 1692 H 207.831 0.190366 0.722336 0
M  V30 1693 H 210.493 1.14459 1.5775 0
M  V30 1694 H 209.589 0.704476 3.04045 0
M  V30 1695 N 209.89 -1.43072 0.660911 0
M  V30 1696 C 211.12 -2.05769 0.185153 0
M  V30 1697 C 211.528 -1.49668 -1.15742 0
M  V30 1698 O 210.871 -0.625649 -1.72717 0
M  V30 1699 C 210.933 -3.59489 0.0278237 0
M  V30 1700 C 210.597 -4.38212 1.2969 0
M  V30 1701 C 211.594 -4.69772 2.22734 0
M  V30 1702 C 209.279 -4.7809 1.54063 0
M  V30 1703 C 211.273 -5.40129 3.38437 0
M  V30 1704 C 208.96 -5.4819 2.70058 0
M  V30 1705 C 209.958 -5.79132 3.62071 0
M  V30 1706 O 209.646 -6.47798 4.76039 0
M  V30 1707 H 209.378 -0.669873 0.0908086 0
M  V30 1708 H 211.932 -1.84436 0.90402 0
M  V30 1709 H 210.162 -3.79426 -0.746489 0
M  V30 1710 H 211.851 -4.03862 -0.406275 0
M  V30 1711 H 212.617 -4.39476 2.05149 0
M  V30 1712 H 208.496 -4.53408 0.833215 0
M  V30 1713 H 212.04 -5.64198 4.10277 0
M  V30 1714 H 207.937 -5.77902 2.87574 0
M  V30 1715 H 208.705 -6.66283 4.75404 0
M  V30 1716 N 211.368 -0.403325 -1.52352 0
M  V30 1717 C 212.616 0.174003 -2.0135 0
M  V30 1718 C 212.937 1.46139 -1.29106 0
M  V30 1719 O 212.207 1.91448 -0.415253 0
M  V30 1720 H 210.787 0.0672911 -0.743963 0
M  V30 1721 H 213.449 -0.538235 -1.87321 0
M  V30 1722 H 212.545 0.374254 -3.09848 0
M  V30 1723 N 212.846 1.57033 -0.133567 0
M  V30 1724 C 214.257 1.82593 0.389464 0
M  V30 1725 C 214.608 1.05156 1.6564 0
M  V30 1726 O 213.733 0.292644 2.14412 0
M  V30 1727 C 214.328 3.31204 0.713377 0
M  V30 1728 C 212.887 3.57393 1.18098 0
M  V30 1729 C 212.034 2.76598 0.197126 0
M  V30 1730 H 214.985 1.54598 -0.358481 0
M  V30 1731 H 215.006 3.46627 1.56939 0
M  V30 1732 H 214.518 3.87537 -0.2089 0
M  V30 1733 H 212.619 3.06433 2.11966 0
M  V30 1734 H 212.732 4.65915 1.11624 0
M  V30 1735 H 211.096 2.45257 0.687088 0
M  V30 1736 H 211.879 3.35697 -0.718504 0
M  V30 1737 N 214.325 -0.140222 1.56975 0
M  V30 1738 C 215.571 -0.852949 1.83991 0
M  V30 1739 C 215.904 -1.80512 0.716187 0
M  V30 1740 O 215.179 -1.92479 -0.279681 0
M  V30 1741 C 215.462 -1.6215 3.21527 0
M  V30 1742 C 215.315 -0.690363 4.4447 0
M  V30 1743 C 216.634 -2.58247 3.56366 0
M  V30 1744 H 213.753 -0.308634 0.669264 0
M  V30 1745 H 216.395 -0.117898 1.89634 0
M  V30 1746 H 214.545 -2.24812 3.16847 0
M  V30 1747 H 216.217 -0.0742264 4.6124 0
M  V30 1748 H 214.46 -0.000396433 4.338 0
M  V30 1749 H 215.131 -1.2643 5.37326 0
M  V30 1750 H 217.607 -2.05701 3.61699 0
M  V30 1751 H 216.483 -3.09067 4.53617 0
M  V30 1752 H 216.744 -3.39923 2.82674 0
M  V30 1753 N 215.803 -1.52179 -0.40978 0
M  V30 1754 C 217.043 -1.67882 -1.16597 0
M  V30 1755 C 217.407 -0.399795 -1.87791 0
M  V30 1756 O 218.608 -0.43292 -2.65291 0
M  V30 1757 C 216.879 -2.86662 -2.13448 0
M  V30 1758 S 218.438 -3.22843 -2.97183 0
M  V30 1759 H 215.256 -0.59118 -0.395002 0
M  V30 1760 H 217.858 -1.9017 -0.453373 0
M  V30 1761 H 216.562 -3.77998 -1.59831 0
M  V30 1762 H 216.093 -2.66645 -2.89247 0
M  V30 1763 H 218.108 -2.71415 -4.15389 0
M  V30 1764 N 217.281 0.66697 -1.42791 0
M  V30 1765 C 218.692 1.2478 -1.38877 0
M  V30 1766 C 219.043 1.96012 -0.0859426 0
M  V30 1767 O 218.168 2.00463 0.815081 0
M  V30 1768 C 218.763 2.26938 -2.51564 0
M  V30 1769 C 217.322 2.80529 -2.50959 0
M  V30 1770 C 216.469 1.54965 -2.29959 0
M  V30 1771 H 219.42 0.459853 -1.51892 0
M  V30 1772 H 219.441 3.08834 -2.22265 0
M  V30 1773 H 218.953 1.75065 -3.46372 0
M  V30 1774 H 217.054 3.36502 -1.59991 0
M  V30 1775 H 217.167 3.29012 -3.48265 0
M  V30 1776 H 215.531 1.81817 -1.78366 0
M  V30 1777 H 216.314 1.05047 -3.26833 0
M  V30 1778 N 218.759 1.29093 0.90403 0
M  V30 1779 C 220.17 1.15186 1.46932 0
M  V30 1780 C 220.521 -0.254587 1.94541 0
M  V30 1781 O 219.646 -1.14972 1.83332 0
M  V30 1782 C 220.241 2.08492 2.67051 0
M  V30 1783 C 218.8 1.98621 3.19729 0
M  V30 1784 C 217.947 1.9967 1.92425 0
M  V30 1785 H 220.898 1.41641 0.715789 0
M  V30 1786 H 220.919 1.65461 3.42641 0
M  V30 1787 H 220.431 3.10847 2.3237 0
M  V30 1788 H 218.532 0.993389 3.59114 0
M  V30 1789 H 218.645 2.86068 3.8432 0
M  V30 1790 H 217.009 1.44208 2.09943 0
M  V30 1791 H 217.792 3.03721 1.60026 0
M  V30 1792 N 220.237 -1.11381 1.11499 0
M  V30 1793 C 221.485 -1.8277 0.862524 0
M  V30 1794 C 221.806 -1.85097 -0.613534 0
M  V30 1795 O 221.076 -1.32198 -1.4457 0
M  V30 1796 H 219.656 -0.676823 0.316101 0
M  V30 1797 H 222.318 -1.34816 1.4075 0
M  V30 1798 H 221.414 -2.86614 1.23527 0
M  V30 1799 N 221.715 -0.905404 -1.28997 0
M  V30 1800 C 222.963 -0.533192 -1.9494 0
M  V30 1801 C 223.284 0.924618 -1.71685 0
M  V30 1802 O 222.554 1.65268 -1.05183 0
M  V30 1803 H 221.134 -0.194194 -0.721317 0
M  V30 1804 H 223.796 -1.15294 -1.57141 0
M  V30 1805 H 222.892 -0.72059 -3.03667 0
M  V30 1806 N 223.193 1.4272 -0.668489 0
M  V30 1807 C 224.442 2.00846 -0.185389 0
M  V30 1808 C 224.755 1.53442 1.21305 0
M  V30 1809 O 225.961 2.03944 1.79218 0
M  V30 1810 C 224.417 3.58805 -0.280591 0
M  V30 1811 C 224.025 4.15198 -1.68268 0
M  V30 1812 C 225.769 4.24255 0.14412 0
M  V30 1813 C 223.676 5.655 -1.73099 0
M  V30 1814 H 222.606 0.751145 -0.0655475 0
M  V30 1815 H 225.257 1.63516 -0.832752 0
M  V30 1816 H 223.639 3.93608 0.434553 0
M  V30 1817 H 224.813 3.91866 -2.42441 0
M  V30 1818 H 223.128 3.62176 -2.05469 0
M  V30 1819 H 225.725 5.34547 0.128086 0
M  V30 1820 H 226.068 3.99277 1.17827 0
M  V30 1821 H 226.601 3.94389 -0.519798 0
M  V30 1822 H 223.34 5.95268 -2.74475 0
M  V30 1823 H 222.86 5.90842 -1.03274 0
M  V30 1824 H 224.539 6.29808 -1.48158 0
M  V30 1825 N 224.671 0.411399 1.52136 0
M  V30 1826 C 225.603 -0.448386 2.24771 0
M  V30 1827 C 226.616 -1.00828 1.27818 0
M  V30 1828 O 227.805 -0.906841 1.53749 0
M  V30 1829 C 224.905 -1.63636 2.96777 0
M  V30 1830 C 224.078 -1.19995 4.20618 0
M  V30 1831 C 223.137 -2.25509 4.75428 0
M  V30 1832 O 222.163 -1.86007 5.3795 0
M  V30 1833 N 223.365 -3.577 4.57199 0
M  V30 1834 H 226.13 0.174025 2.99194 0
M  V30 1835 H 223.691 0.238897 1.60128 0
M  V30 1836 H 225.683 -2.33793 3.30338 0
M  V30 1837 H 224.253 -2.16465 2.25526 0
M  V30 1838 H 223.473 -0.326421 3.92846 0
M  V30 1839 H 224.761 -0.885365 5.01038 0
M  V30 1840 H 224.159 -3.92543 4.07341 0
M  V30 1841 H 222.716 -4.23827 4.95191 0
M  V30 1842 N 226.149 -1.5696 0.141893 0
M  V30 1843 C 227.059 -2.20066 -0.812905 0
M  V30 1844 C 228.075 -1.18344 -1.27557 0
M  V30 1845 O 229.251 -1.50902 -1.33381 0
M  V30 1846 C 226.316 -2.80583 -2.03652 0
M  V30 1847 C 225.377 -3.97414 -1.62359 0
M  V30 1848 C 224.61 -4.55036 -2.78887 0
M  V30 1849 O 224.833 -4.11538 -3.94959 0
M  V30 1850 O 223.767 -5.45376 -2.54653 0
M  V30 1851 H 227.593 -3.02157 -0.305746 0
M  V30 1852 H 225.178 -1.49159 -0.0848799 0
M  V30 1853 H 227.06 -3.19067 -2.75272 0
M  V30 1854 H 225.735 -2.01508 -2.5333 0
M  V30 1855 H 224.642 -3.63656 -0.877775 0
M  V30 1856 H 225.975 -4.77994 -1.17401 0
M  V30 1857 N 227.627 0.131896 -1.57047 0
M  V30 1858 C 228.873 0.843179 -1.84441 0
M  V30 1859 C 229.206 1.80129 -0.725749 0
M  V30 1860 O 228.481 1.92624 0.269469 0
M  V30 1861 C 228.764 1.60442 -3.22382 0
M  V30 1862 C 228.617 0.666782 -4.4483 0
M  V30 1863 C 229.936 2.56354 -3.5773 0
M  V30 1864 H 227.055 0.305081 -0.670891 0
M  V30 1865 H 229.697 0.107839 -1.89694 0
M  V30 1866 H 227.847 2.23128 -3.18035 0
M  V30 1867 H 229.519 0.0497646 -4.61273 0
M  V30 1868 H 227.762 -0.022609 -4.33794 0
M  V30 1869 H 228.433 1.23579 -5.37989 0
M  V30 1870 H 230.909 2.0378 -3.62785 0
M  V30 1871 H 229.785 3.06657 -4.5525 0
M  V30 1872 H 230.046 3.38419 -2.84473 0
M  V30 1873 N 229.106 1.52395 0.401703 0
M  V30 1874 C 230.334 1.70676 1.16949 0
M  V30 1875 C 230.749 0.419503 1.8408 0
M  V30 1876 O 230.106 -0.605061 1.72178 0
M  V30 1877 C 230.157 2.84753 2.22706 0
M  V30 1878 O 229.878 4.08495 1.58314 0
M  V30 1879 C 231.379 3.14608 3.12309 0
M  V30 1880 H 228.599 0.571787 0.351142 0
M  V30 1881 H 231.143 1.98987 0.471652 0
M  V30 1882 H 229.298 2.58941 2.88147 0
M  V30 1883 H 229.712 4.72117 2.28485 0
M  V30 1884 H 231.186 3.97923 3.82572 0
M  V30 1885 H 231.663 2.28464 3.75101 0
M  V30 1886 H 232.269 3.42212 2.52529 0
M  V30 1887 N 230.584 -0.659388 1.43143 0
M  V30 1888 C 231.833 -1.41518 1.43721 0
M  V30 1889 C 232.146 -1.95499 0.0628176 0
M  V30 1890 O 233.352 -2.71446 -0.0539683 0
M  V30 1891 C 231.808 -2.5608 2.52885 0
M  V30 1892 C 231.416 -2.08733 3.96402 0
M  V30 1893 C 233.16 -3.3349 2.62649 0
M  V30 1894 C 231.067 -3.20469 4.97045 0
M  V30 1895 H 229.997 -0.531705 0.534608 0
M  V30 1896 H 232.648 -0.712343 1.69109 0
M  V30 1897 H 231.03 -3.28805 2.20688 0
M  V30 1898 H 232.204 -1.43059 4.3803 0
M  V30 1899 H 230.519 -1.44219 3.90627 0
M  V30 1900 H 233.116 -4.16734 3.35017 0
M  V30 1901 H 233.459 -3.8111 1.67513 0
M  V30 1902 H 233.992 -2.67842 2.94118 0
M  V30 1903 H 230.731 -2.77824 5.93712 0
M  V30 1904 H 230.251 -3.84874 4.60034 0
M  V30 1905 H 231.93 -3.85698 5.19467 0
M  V30 1906 N 232.062 -1.29571 -0.897171 0
M  V30 1907 C 233.01 -1.14802 -2.02295 0
M  V30 1908 C 234.004 -0.0629637 -1.69283 0
M  V30 1909 O 235.21 -0.222945 -1.78614 0
M  V30 1910 H 231.585 -0.354692 -0.663097 0
M  V30 1911 H 233.556 -2.10108 -2.11889 0
M  V30 1912 C 232.305 -0.843966 -3.37302 0
M  V30 1913 H 231.628 -1.67093 -3.63208 0
M  V30 1914 H 233.068 -0.780672 -4.16751 0
M  V30 1915 C 231.527 0.452843 -3.33843 0
M  V30 1916 O 232.057 1.47813 -3.73516 0
M  V30 1917 N 230.263 0.459601 -2.86943 0
M  V30 1918 H 229.81 -0.375213 -2.54853 0
M  V30 1919 H 229.768 1.32726 -2.85011 0
M  V30 1920 N 233.54 1.10788 -1.12088 0
M  V30 1921 C 234.472 2.16816 -0.743213 0
M  V30 1922 C 235.485 1.6119 0.228412 0
M  V30 1923 O 236.674 1.78497 0.0102931 0
M  V30 1924 C 233.774 3.38809 -0.0787313 0
M  V30 1925 C 232.947 4.23885 -1.0789 0
M  V30 1926 C 232.006 5.24334 -0.442713 0
M  V30 1927 O 231.032 5.58497 -1.09864 0
M  V30 1928 N 232.234 5.75079 0.791457 0
M  V30 1929 H 234.999 2.49825 -1.65552 0
M  V30 1930 H 232.56 1.26373 -1.012 0
M  V30 1931 H 234.552 4.03107 0.358766 0
M  V30 1932 H 233.122 3.03805 0.736275 0
M  V30 1933 H 232.342 3.55939 -1.69414 0
M  V30 1934 H 233.63 4.77562 -1.75533 0
M  V30 1935 H 233.028 5.49517 1.3434 0
M  V30 1936 H 231.585 6.4118 1.17183 0
M  V30 1937 N 235.018 0.912232 1.28515 0
M  V30 1938 C 236.243 0.559774 1.99703 0
M  V30 1939 C 236.668 -0.851393 1.67729 0
M  V30 1940 O 236.026 -1.56875 0.908834 0
M  V30 1941 C 236.074 0.773874 3.52198 0
M  V30 1942 O 235.178 -0.167842 4.12058 0
M  V30 1943 H 234.519 0.21723 0.627461 0
M  V30 1944 H 237.049 1.22725 1.63706 0
M  V30 1945 H 237.059 0.683386 4.02236 0
M  V30 1946 H 235.734 1.80261 3.74805 0
M  V30 1947 H 234.311 -0.0287509 3.72889 0
M  V30 1948 N 236.496 -1.42363 0.676048 0
M  V30 1949 C 237.426 -2.33497 0.0124832 0
M  V30 1950 C 238.407 -1.50748 -0.787981 0
M  V30 1951 O 239.592 -1.79346 -0.744884 0
M  V30 1952 C 236.722 -3.34377 -0.938582 0
M  V30 1953 C 235.676 -4.27289 -0.246622 0
M  V30 1954 C 235.002 -5.18386 -1.31071 0
M  V30 1955 C 236.302 -5.14916 0.875125 0
M  V30 1956 H 237.996 -2.89233 0.773593 0
M  V30 1957 H 235.542 -1.39073 0.37346 0
M  V30 1958 H 237.495 -3.97044 -1.41188 0
M  V30 1959 H 236.219 -2.76947 -1.73113 0
M  V30 1960 H 234.878 -3.66018 0.206456 0
M  V30 1961 H 234.526 -4.57282 -2.09528 0
M  V30 1962 H 234.226 -5.81378 -0.852839 0
M  V30 1963 H 235.75 -5.83929 -1.78492 0
M  V30 1964 H 237.164 -5.71262 0.482983 0
M  V30 1965 H 235.561 -5.86747 1.25887 0
M  V30 1966 H 236.631 -4.53242 1.72335 0
M  V30 1967 N 237.974 -0.419461 -1.51915 0
M  V30 1968 C 238.904 0.391813 -2.30189 0
M  V30 1969 C 239.885 1.03699 -1.34836 0
M  V30 1970 O 241.07 1.04403 -1.63748 0
M  V30 1971 C 238.2 1.50312 -3.13087 0
M  V30 1972 C 237.154 0.9824 -4.16573 0
M  V30 1973 C 236.48 2.18809 -4.8788 0
M  V30 1974 C 237.78 0.0292356 -5.22292 0
M  V30 1975 H 239.474 -0.26135 -2.98257 0
M  V30 1976 H 237.02 -0.127134 -1.43438 0
M  V30 1977 H 238.973 2.07773 -3.66617 0
M  V30 1978 H 237.697 2.18431 -2.42807 0
M  V30 1979 H 236.356 0.430119 -3.64068 0
M  V30 1980 H 236.004 2.85507 -4.14119 0
M  V30 1981 H 235.704 1.84615 -5.57845 0
M  V30 1982 H 237.228 2.76858 -5.44226 0
M  V30 1983 H 238.642 0.512976 -5.71 0
M  V30 1984 H 237.039 -0.2244 -5.9968 0
M  V30 1985 H 238.109 -0.912931 -4.76228 0
M  V30 1986 N 239.452 1.56882 -0.150215 0
M  V30 1987 C 240.384 2.14057 0.819286 0
M  V30 1988 C 241.397 1.09082 1.20851 0
M  V30 1989 O 242.586 1.36347 1.15203 0
M  V30 1990 C 239.686 2.65102 2.11127 0
M  V30 1991 C 238.859 3.94511 1.88891 0
M  V30 1992 C 237.918 4.30834 3.02107 0
M  V30 1993 O 236.944 4.99099 2.73659 0
M  V30 1994 N 238.146 3.90676 4.29363 0
M  V30 1995 H 240.911 2.97871 0.330618 0
M  V30 1996 H 238.472 1.61866 0.0332538 0
M  V30 1997 H 240.464 2.86411 2.85921 0
M  V30 1998 H 239.034 1.85994 2.51247 0
M  V30 1999 H 238.254 3.81795 0.981152 0
M  V30 2000 H 239.542 4.7907 1.71376 0
M  V30 2001 H 238.94 3.35677 4.55343 0
M  V30 2002 H 237.497 4.1703 5.00928 0
M  V30 2003 N 240.93 -0.123565 1.57115 0
M  V30 2004 C 242.341 -0.681198 1.73829 0
M  V30 2005 C 242.692 -1.80535 0.768214 0
M  V30 2006 O 241.817 -2.16317 -0.0599103 0
M  V30 2007 C 242.412 -1.24246 3.15196 0
M  V30 2008 C 240.971 -1.74643 3.33432 0
M  V30 2009 C 240.118 -0.644284 2.69711 0
M  V30 2010 H 243.069 0.102315 1.5837 0
M  V30 2011 H 243.09 -2.11216 3.16493 0
M  V30 2012 H 242.602 -0.424062 3.85776 0
M  V30 2013 H 240.703 -2.58974 2.67886 0
M  V30 2014 H 240.816 -1.85902 4.41562 0
M  V30 2015 H 239.18 -1.07676 2.3082 0
M  V30 2016 H 239.963 0.163058 3.42913 0
M  V30 2017 N 242.408 -1.52605 -0.393616 0
M  V30 2018 C 243.338 -1.80022 -1.48709 0
M  V30 2019 C 244.319 -0.651995 -1.57108 0
M  V30 2020 O 245.504 -0.89913 -1.72132 0
M  V30 2021 C 242.634 -1.96492 -2.86371 0
M  V30 2022 C 241.588 -3.12161 -2.92813 0
M  V30 2023 C 240.914 -3.13877 -4.3288 0
M  V30 2024 C 242.214 -4.51322 -2.6288 0
M  V30 2025 H 243.908 -2.71589 -1.26015 0
M  V30 2026 H 241.454 -1.30684 -0.604778 0
M  V30 2027 H 243.407 -2.14255 -3.62867 0
M  V30 2028 H 242.131 -1.01611 -3.10391 0
M  V30 2029 H 240.79 -2.94173 -2.18764 0
M  V30 2030 H 240.438 -2.16687 -4.53933 0
M  V30 2031 H 240.138 -3.91576 -4.38112 0
M  V30 2032 H 241.662 -3.33789 -5.1129 0
M  V30 2033 H 243.076 -4.69435 -3.29096 0
M  V30 2034 H 241.473 -5.31053 -2.79468 0
M  V30 2035 H 242.543 -4.58353 -1.58242 0
M  V30 2036 N 243.887 0.651787 -1.4349 0
M  V30 2037 C 244.835 1.78586 -1.49029 0
M  V30 2038 C 245.829 1.65448 -0.363767 0
M  V30 2039 O 247.035 1.71777 -0.537821 0
M  V30 2040 H 243.41 0.589236 -0.467231 0
M  V30 2041 H 245.381 1.71035 -2.44519 0
M  V30 2042 C 244.13 3.16851 -1.43181 0
M  V30 2043 H 243.453 3.27598 -2.29171 0
M  V30 2044 H 244.893 3.96156 -1.51118 0
M  V30 2045 C 243.352 3.36568 -0.149616 0
M  V30 2046 O 243.882 3.93885 0.788509 0
M  V30 2047 N 242.088 2.90539 -0.0593484 0
M  V30 2048 H 241.635 2.4408 -0.823575 0
M  V30 2049 H 241.593 3.04108 0.797853 0
M  V30 2050 N 245.365 1.30045 0.890287 0
M  V30 2051 C 246.611 1.18737 1.64406 0
M  V30 2052 C 246.944 -0.258525 1.92472 0
M  V30 2053 O 246.219 -1.18562 1.54186 0
M  V30 2054 C 246.502 2.01087 2.98724 0
M  V30 2055 C 246.355 3.53867 2.77665 0
M  V30 2056 C 247.674 1.84457 3.9958 0
M  V30 2057 H 244.793 0.432698 0.596608 0
M  V30 2058 H 247.435 1.5962 1.0306 0
M  V30 2059 H 245.585 1.66349 3.51084 0
M  V30 2060 H 247.257 3.98637 2.32133 0
M  V30 2061 H 245.5 3.78318 2.12269 0
M  V30 2062 H 246.171 4.06772 3.7315 0
M  V30 2063 H 248.647 2.14817 3.56361 0
M  V30 2064 H 247.523 2.44411 4.91482 0
M  V30 2065 H 247.784 0.802276 4.3476 0
M  V30 2066 N 246.843 -1.10192 1.12674 0
M  V30 2067 C 247.753 -2.20172 0.810026 0
M  V30 2068 C 248.769 -1.72821 -0.202188 0
M  V30 2069 O 249.945 -2.01369 -0.0351691 0
M  V30 2070 C 247.01 -3.45631 0.272007 0
M  V30 2071 C 246.071 -4.07704 1.34447 0
M  V30 2072 C 245.304 -5.27175 0.832029 0
M  V30 2073 O 245.527 -5.69425 -0.333284 0
M  V30 2074 O 244.461 -5.80168 1.60277 0
M  V30 2075 H 248.287 -2.49701 1.72867 0
M  V30 2076 H 245.872 -1.18977 0.903597 0
M  V30 2077 H 247.754 -4.21394 -0.0230219 0
M  V30 2078 H 246.429 -3.17723 -0.619164 0
M  V30 2079 H 245.336 -3.33614 1.6927 0
M  V30 2080 H 246.669 -4.3982 2.2095 0
M  V30 2081 N 248.321 -0.919034 -1.28029 0
M  V30 2082 C 249.57 -0.550802 -1.94034 0
M  V30 2083 C 249.883 0.910877 -1.73096 0
M  V30 2084 O 251.089 1.3875 -2.33368 0
M  V30 2085 C 249.545 -0.934249 -3.47563 0
M  V30 2086 C 249.153 -2.41602 -3.7727 0
M  V30 2087 C 250.897 -0.636854 -4.19696 0
M  V30 2088 C 248.804 -2.73932 -5.24133 0
M  V30 2089 H 247.734 -0.202273 -0.726362 0
M  V30 2090 H 250.385 -1.11867 -1.45458 0
M  V30 2091 H 248.767 -0.295115 -3.94899 0
M  V30 2092 H 249.941 -3.10233 -3.40723 0
M  V30 2093 H 248.256 -2.68441 -3.18321 0
M  V30 2094 H 250.853 -0.855005 -5.2782 0
M  V30 2095 H 251.196 0.425575 -4.14119 0
M  V30 2096 H 251.729 -1.23469 -3.78154 0
M  V30 2097 H 248.468 -3.79049 -5.34792 0
M  V30 2098 H 247.988 -2.09942 -5.61858 0
M  V30 2099 H 249.667 -2.61215 -5.91925 0
M  V30 2100 N 249.799 1.42003 -0.683588 0
M  V30 2101 C 251.076 1.95112 -0.138075 0
M  V30 2102 C 251.456 1.62359 1.34918 0
M  V30 2103 O 250.804 0.924311 2.08971 0
M  V30 2104 C 251.014 3.46505 -0.416581 0
M  V30 2105 C 252.362 4.23254 -0.337834 0
M  V30 2106 O 253.386 3.54468 -0.35082 0
M  V30 2107 O 252.245 5.45743 -0.287596 0
M  V30 2108 H 249.339 0.826961 -0.00797996 0
M  V30 2109 H 251.885 1.51784 -0.758924 0
M  V30 2110 H 250.657 3.63582 -1.4465 0
M  V30 2111 H 250.28 3.969 0.235839 0
M  V30 2112 N 251.277 0.427512 1.51691 0
M  V30 2113 C 252.688 -0.0378867 1.86662 0
M  V30 2114 C 253.039 -1.42819 1.34525 0
M  V30 2115 O 252.164 -2.05037 0.692014 0
M  V30 2116 C 252.759 -0.0755266 3.38716 0
M  V30 2117 C 251.318 -0.485309 3.73258 0
M  V30 2118 C 250.465 0.328399 2.75349 0
M  V30 2119 H 253.416 0.64379 1.45055 0
M  V30 2120 H 253.437 -0.887056 3.70016 0
M  V30 2121 H 252.949 0.936487 3.76632 0
M  V30 2122 H 251.05 -1.50329 3.40928 0
M  V30 2123 H 251.163 -0.21693 4.78609 0
M  V30 2124 H 249.527 -0.211905 2.53817 0
M  V30 2125 H 250.31 1.3391 3.16106 0
M  V30 2126 N 252.755 -1.56801 0.158532 0
M  V30 2127 C 253.665 -2.20916 -0.789518 0
M  V30 2128 C 254.681 -1.1969 -1.26294 0
M  V30 2129 O 255.857 -1.52308 -1.31773 0
M  V30 2130 C 252.922 -2.82727 -2.00665 0
M  V30 2131 C 251.983 -3.99114 -1.58134 0
M  V30 2132 C 251.216 -4.57968 -2.74045 0
M  V30 2133 O 251.439 -4.15704 -3.90572 0
M  V30 2134 O 250.373 -5.48047 -2.48855 0
M  V30 2135 H 254.199 -3.02464 -0.273681 0
M  V30 2136 H 251.784 -1.4924 -0.0690548 0
M  V30 2137 H 253.666 -3.21968 -2.71872 0
M  V30 2138 H 252.341 -2.04184 -2.51179 0
M  V30 2139 H 251.248 -3.64567 -0.839155 0
M  V30 2140 H 252.581 -4.79212 -1.12325 0
M  V30 2141 N 254.233 0.115231 -1.57178 0
M  V30 2142 C 255.482 0.820945 -1.84237 0
M  V30 2143 C 255.795 1.80866 -0.744761 0
M  V30 2144 O 257.001 2.56083 -0.901871 0
M  V30 2145 C 255.457 1.51072 -3.26658 0
M  V30 2146 C 255.065 0.563795 -4.44438 0
M  V30 2147 C 256.809 2.20134 -3.62962 0
M  V30 2148 C 254.716 1.25701 -5.77887 0
M  V30 2149 H 253.646 0.310328 -0.687177 0
M  V30 2150 H 256.297 0.0737134 -1.83352 0
M  V30 2151 H 254.679 2.30471 -3.22024 0
M  V30 2152 H 255.853 -0.197247 -4.60378 0
M  V30 2153 H 254.168 -0.0200638 -4.16395 0
M  V30 2154 H 256.765 2.72696 -4.59936 0
M  V30 2155 H 257.108 2.98107 -2.90582 0
M  V30 2156 H 257.641 1.47619 -3.69396 0
M  V30 2157 H 254.38 0.518493 -6.53446 0
M  V30 2158 H 253.9 1.98997 -5.65827 0
M  V30 2159 H 255.579 1.78915 -6.2177 0
M  V30 2160 N 255.711 1.52812 0.385517 0
M  V30 2161 C 256.643 1.74096 1.49074 0
M  V30 2162 C 257.656 0.621462 1.50472 0
M  V30 2163 O 258.845 0.897245 1.54311 0
M  V30 2164 C 255.945 1.78774 2.87911 0
M  V30 2165 C 255.118 3.08134 3.10439 0
M  V30 2166 C 254.177 3.04313 4.29278 0
M  V30 2167 O 253.203 3.78168 4.25415 0
M  V30 2168 N 254.405 2.23741 5.35649 0
M  V30 2169 H 257.17 2.69455 1.31202 0
M  V30 2170 H 254.731 1.51343 0.575065 0
M  V30 2171 H 256.723 1.73721 3.65518 0
M  V30 2172 H 255.293 0.907869 2.99126 0
M  V30 2173 H 254.513 3.26649 2.20667 0
M  V30 2174 H 255.801 3.93662 3.22347 0
M  V30 2175 H 255.199 1.63211 5.41645 0
M  V30 2176 H 253.756 2.24524 6.11909 0
M  V30 2177 N 257.189 -0.644168 1.43834 0
M  V30 2178 C 258.136 -1.75671 1.49694 0
M  V30 2179 C 259.106 -1.6246 0.345809 0
M  V30 2180 O 260.291 -1.82573 0.554234 0
M  V30 2181 C 257.431 -3.13867 1.43463 0
M  V30 2182 C 256.544 -3.38147 2.6885 0
M  V30 2183 C 255.679 -4.66241 2.54544 0
M  V30 2184 C 254.718 -4.83657 3.75157 0
M  V30 2185 N 253.855 -6.03016 3.59605 0
M  V30 2186 H 258.695 -1.69998 2.44754 0
M  V30 2187 H 256.232 -0.829458 1.21484 0
M  V30 2188 H 258.19 -3.9377 1.37843 0
M  V30 2189 H 256.82 -3.18588 0.519783 0
M  V30 2190 H 255.872 -2.52276 2.84712 0
M  V30 2191 H 257.184 -3.46899 3.58417 0
M  V30 2192 H 256.338 -5.54285 2.46683 0
M  V30 2193 H 255.077 -4.59826 1.62516 0
M  V30 2194 H 254.082 -3.94046 3.83416 0
M  V30 2195 H 255.307 -4.91896 4.68204 0
M  V30 2196 H 253.253 -5.97715 2.7032 0
M  V30 2197 H 253.17 -6.12766 4.42779 0
M  V30 2198 H 254.438 -6.93657 3.55613 0
M  V30 2199 N 258.668 -1.30515 -0.883378 0
M  V30 2200 C 259.914 -1.19607 -1.63774 0
M  V30 2201 C 260.247 0.248314 -1.92606 0
M  V30 2202 O 259.522 1.17742 -1.54813 0
M  V30 2203 C 259.805 -2.02669 -2.97653 0
M  V30 2204 C 259.658 -3.55335 -2.75784 0
M  V30 2205 C 260.977 -1.86573 -3.98596 0
M  V30 2206 H 258.096 -0.435856 -0.594305 0
M  V30 2207 H 260.738 -1.60165 -1.02212 0
M  V30 2208 H 258.888 -1.68208 -3.50197 0
M  V30 2209 H 260.56 -3.99863 -2.30016 0
M  V30 2210 H 258.803 -3.79438 -2.1026 0
M  V30 2211 H 259.474 -4.08745 -3.70988 0
M  V30 2212 H 261.95 -2.16703 -3.55217 0
M  V30 2213 H 260.826 -2.47014 -4.90179 0
M  V30 2214 H 261.087 -0.825321 -4.34328 0
M  V30 2215 N 260.146 1.09593 -1.13257 0
M  V30 2216 C 261.093 2.1618 -0.808381 0
M  V30 2217 C 262.063 1.64517 0.228754 0
M  V30 2218 O 263.248 1.9053 0.101381 0
M  V30 2219 C 260.388 3.43973 -0.278675 0
M  V30 2220 C 259.501 4.09545 -1.37466 0
M  V30 2221 C 258.636 5.25088 -0.803479 0
M  V30 2222 C 257.675 5.82579 -1.87799 0
M  V30 2223 N 256.812 6.89486 -1.32488 0
M  V30 2224 H 261.652 2.43254 -1.72138 0
M  V30 2225 H 259.189 1.19392 -0.859294 0
M  V30 2226 H 261.147 4.17174 0.0465583 0
M  V30 2227 H 259.777 3.17223 0.597459 0
M  V30 2228 H 258.829 3.34226 -1.81652 0
M  V30 2229 H 260.141 4.48307 -2.18684 0
M  V30 2230 H 259.295 6.05178 -0.429427 0
M  V30 2231 H 258.034 4.87684 0.0397956 0
M  V30 2232 H 257.039 5.01152 -2.26113 0
M  V30 2233 H 258.264 6.22045 -2.72463 0
M  V30 2234 H 256.21 6.54064 -0.503575 0
M  V30 2235 H 256.127 7.27007 -2.07355 0
M  V30 2236 H 257.395 7.73336 -0.978336 0
M  V30 2237 N 261.624 0.925811 1.2754 0
M  V30 2238 C 262.849 0.580924 1.99098 0
M  V30 2239 C 263.274 -0.833555 1.68622 0
M  V30 2240 O 262.632 -1.55903 0.925422 0
M  V30 2241 C 262.68 0.811186 3.51358 0
M  V30 2242 O 261.784 -0.124129 4.12213 0
M  V30 2243 H 261.125 0.223873 0.625122 0
M  V30 2244 H 263.655 1.24455 1.62395 0
M  V30 2245 H 263.665 0.72601 4.01489 0
M  V30 2246 H 262.34 1.84227 3.72872 0
M  V30 2247 H 260.917 0.0108006 3.72898 0
M  V30 2248 N 263.102 -1.41638 0.69111 0
M  V30 2249 C 264.518 -1.55435 0.362224 0
M  V30 2250 C 264.718 -1.66754 -1.13117 0
M  V30 2251 O 263.774 -1.64348 -1.91692 0
M  V30 2252 C 265.087 -2.79588 1.10684 0
M  V30 2253 C 266.635 -2.9338 1.09075 0
M  V30 2254 C 267.11 -4.20414 1.81703 0
M  V30 2255 N 268.601 -4.27362 1.7865 0
M  V30 2256 C 269.336 -5.24507 2.31689 0
M  V30 2257 N 268.832 -6.27708 2.93179 0
M  V30 2258 N 270.625 -5.16416 2.2197 0
M  V30 2259 H 262.776 -1.32536 1.65976 0
M  V30 2260 H 265.039 -0.639115 0.700168 0
M  V30 2261 H 264.745 -2.77419 2.16175 0
M  V30 2262 H 264.619 -3.70973 0.682545 0
M  V30 2263 H 267.006 -2.95067 0.0441238 0
M  V30 2264 H 267.087 -2.0318 1.55407 0
M  V30 2265 H 266.731 -4.19488 2.86343 0
M  V30 2266 H 266.661 -5.09578 1.32808 0
M  V30 2267 H 269.152 -3.53415 1.33815 0
M  V30 2268 H 269.465 -6.98217 3.31229 0
M  V30 2269 H 267.81 -6.28223 2.97255 0
M  V30 2270 H 271.001 -4.34716 1.73607 0
M  V30 2271 H 271.174 -5.91958 2.63609 0
M  V30 2272 N 264.58 -0.43555 -1.51462 0
M  V30 2273 C 265.49 0.383001 -2.31453 0
M  V30 2274 C 266.506 1.02931 -1.4029 0
M  V30 2275 O 267.682 1.02507 -1.73362 0
M  V30 2276 C 264.747 1.47043 -3.13973 0
M  V30 2277 C 263.808 0.844433 -4.20913 0
M  V30 2278 C 263.041 1.88004 -4.9949 0
M  V30 2279 O 263.264 3.10199 -4.78678 0
M  V30 2280 O 262.198 1.47157 -5.83634 0
M  V30 2281 H 266.024 -0.269964 -3.02498 0
M  V30 2282 H 263.609 -0.19813 -1.4808 0
M  V30 2283 H 265.491 2.10113 -3.65281 0
M  V30 2284 H 264.166 2.10751 -2.45695 0
M  V30 2285 H 263.073 0.175729 -3.73687 0
M  V30 2286 H 264.406 0.250869 -4.9156 0
M  V30 2287 N 266.058 1.56714 -0.166846 0
M  V30 2288 C 267.474 1.58473 0.189372 0
M  V30 2289 C 267.674 1.18201 1.63189 0
M  V30 2290 O 266.73 0.891528 2.36237 0
M  V30 2291 C 268.043 3.00573 -0.0873872 0
M  V30 2292 C 269.591 3.1299 -0.0252443 0
M  V30 2293 C 270.066 4.57174 -0.274934 0
M  V30 2294 N 271.557 4.62665 -0.222553 0
M  V30 2295 C 272.292 5.72072 -0.389985 0
M  V30 2296 N 271.788 6.90054 -0.616229 0
M  V30 2297 N 273.581 5.61153 -0.326202 0
M  V30 2298 H 265.732 1.8118 -1.10849 0
M  V30 2299 H 267.995 0.839525 -0.440342 0
M  V30 2300 H 267.701 3.34497 -1.0865 0
M  V30 2301 H 267.575 3.72019 0.623037 0
M  V30 2302 H 269.962 2.78895 0.96444 0
M  V30 2303 H 270.043 2.43989 -0.768309 0
M  V30 2304 H 269.687 4.91976 -1.26181 0
M  V30 2305 H 269.617 5.24328 0.48869 0
M  V30 2306 H 272.108 3.77863 -0.0531512 0
M  V30 2307 H 272.421 7.69311 -0.733559 0
M  V30 2308 H 270.766 6.91927 -0.652791 0
M  V30 2309 H 273.957 4.67859 -0.150072 0
M  V30 2310 H 274.13 6.46364 -0.460116 0
M  V30 2311 N 267.536 -0.106894 1.57237 0
M  V30 2312 C 268.446 -1.14911 2.0453 0
M  V30 2313 C 269.462 -1.44592 0.96795 0
M  V30 2314 O 270.638 -1.55468 1.2803 0
M  V30 2315 C 267.703 -2.45272 2.45036 0
M  V30 2316 C 266.764 -2.22879 3.66911 0
M  V30 2317 C 265.997 -3.47024 4.05475 0
M  V30 2318 O 266.22 -4.54804 3.44252 0
M  V30 2319 O 265.154 -3.3731 4.98504 0
M  V30 2320 H 268.98 -0.777461 2.9358 0
M  V30 2321 H 266.565 -0.318563 1.45964 0
M  V30 2322 H 268.447 -3.22055 2.71769 0
M  V30 2323 H 267.122 -2.81886 1.59129 0
M  V30 2324 H 266.029 -1.43915 3.45311 0
M  V30 2325 H 267.362 -1.91163 4.53561 0
M  V30 2326 N 269.014 -1.53014 -0.377408 0
M  V30 2327 C 269.946 -1.74884 -1.48149 0
M  V30 2328 C 270.959 -0.629433 -1.5014 0
M  V30 2329 O 272.148 -0.905416 -1.53833 0
M  V30 2330 C 269.248 -1.80299 -2.86959 0
M  V30 2331 C 268.421 -3.09776 -3.08801 0
M  V30 2332 C 267.48 -3.06586 -4.27658 0
M  V30 2333 O 266.506 -3.80419 -4.23403 0
M  V30 2334 N 267.708 -2.26578 -5.34455 0
M  V30 2335 H 270.473 -2.70147 -1.29771 0
M  V30 2336 H 268.034 -1.51646 -0.56703 0
M  V30 2337 H 270.026 -1.75657 -3.64591 0
M  V30 2338 H 268.596 -0.92372 -2.98641 0
M  V30 2339 H 267.816 -3.27815 -2.18931 0
M  V30 2340 H 269.104 -3.95366 -3.20255 0
M  V30 2341 H 268.502 -1.66081 -5.40771 0
M  V30 2342 H 267.059 -2.27766 -6.10709 0
M  V30 2343 N 270.492 0.636531 -1.44174 0
M  V30 2344 C 271.741 1.39213 -1.45954 0
M  V30 2345 C 272.054 1.95374 -0.0939119 0
M  V30 2346 O 273.26 2.71498 0.0107767 0
M  V30 2347 C 271.716 2.52025 -2.56927 0
M  V30 2348 C 271.324 2.024 -3.99673 0
M  V30 2349 C 273.068 3.29269 -2.67922 0
M  V30 2350 C 270.975 3.12521 -5.0208 0
M  V30 2351 H 269.905 0.523132 -0.542999 0
M  V30 2352 H 272.556 0.685349 -1.70221 0
M  V30 2353 H 270.938 3.25253 -2.25891 0
M  V30 2354 H 272.112 1.36073 -4.40251 0
M  V30 2355 H 270.427 1.37987 -3.92872 0
M  V30 2356 H 273.024 4.11352 -3.41605 0
M  V30 2357 H 273.367 3.78397 -1.73555 0
M  V30 2358 H 273.9 2.63129 -2.98342 0
M  V30 2359 H 270.639 2.68343 -5.98057 0
M  V30 2360 H 270.159 3.77507 -4.66099 0
M  V30 2361 H 271.838 3.77385 -5.25538 0
M  V30 2362 N 271.97 1.30982 0.876444 0
M  V30 2363 C 272.917 1.18085 1.98304 0
M  V30 2364 C 273.887 0.0682263 1.6596 0
M  V30 2365 O 275.072 0.239937 1.89285 0
M  V30 2366 C 272.212 0.887475 3.33493 0
M  V30 2367 C 271.325 2.08281 3.78475 0
M  V30 2368 C 270.46 1.72678 5.0235 0
M  V30 2369 C 269.499 2.88657 5.39762 0
M  V30 2370 N 268.636 2.53292 6.54819 0
M  V30 2371 H 273.476 2.1275 2.08666 0
M  V30 2372 H 271.013 1.05839 1.02159 0
M  V30 2373 H 272.971 0.697961 4.1132 0
M  V30 2374 H 271.601 -0.022315 3.22792 0
M  V30 2375 H 270.653 2.3833 2.96484 0
M  V30 2376 H 271.965 2.95108 4.02135 0
M  V30 2377 H 271.119 1.50151 5.87826 0
M  V30 2378 H 269.858 0.830327 4.8058 0
M  V30 2379 H 268.863 3.1184 4.52809 0
M  V30 2380 H 270.088 3.79002 5.63502 0
M  V30 2381 H 268.034 1.66163 6.34607 0
M  V30 2382 H 267.951 3.3365 6.7839 0
M  V30 2383 H 269.219 2.34143 7.43503 0
M  V30 2384 N 273.449 -1.08991 1.13837 0
M  V30 2385 C 274.674 -1.85551 0.926585 0
M  V30 2386 C 275.099 -1.80782 -0.519566 0
M  V30 2387 O 274.457 -1.18855 -1.36906 0
M  V30 2388 C 274.505 -3.31266 1.42462 0
M  V30 2389 O 273.609 -4.07822 0.612789 0
M  V30 2390 H 272.95 -0.575192 0.331738 0
M  V30 2391 H 275.48 -1.37604 1.51414 0
M  V30 2392 H 275.49 -3.82112 1.43019 0
M  V30 2393 H 274.165 -3.34052 2.47754 0
M  V30 2394 H 272.742 -3.66731 0.675463 0
M  V30 2395 N 274.927 -0.932562 -1.27047 0
M  V30 2396 C 275.857 -0.452902 -2.29066 0
M  V30 2397 C 276.838 0.489338 -1.62909 0
M  V30 2398 O 278.023 0.393046 -1.90181 0
M  V30 2399 C 275.153 0.290698 -3.46081 0
M  V30 2400 C 274.107 -0.564168 -4.24265 0
M  V30 2401 C 273.433 0.308886 -5.33807 0
M  V30 2402 C 274.733 -1.83112 -4.89149 0
M  V30 2403 H 276.427 -1.30552 -2.69437 0
M  V30 2404 H 273.973 -0.629201 -1.29526 0
M  V30 2405 H 275.926 0.637233 -4.16554 0
M  V30 2406 H 274.65 1.17738 -3.0464 0
M  V30 2407 H 273.309 -0.893477 -3.55545 0
M  V30 2408 H 272.957 1.19467 -4.88607 0
M  V30 2409 H 272.657 -0.259633 -5.87026 0
M  V30 2410 H 274.181 0.650884 -6.07121 0
M  V30 2411 H 275.595 -1.55236 -5.51883 0
M  V30 2412 H 273.992 -2.34353 -5.52448 0
M  V30 2413 H 275.062 -2.54772 -4.12576 0
M  V30 2414 N 276.405 1.4127 -0.698611 0
M  V30 2415 C 277.353 2.32588 -0.023855 0
M  V30 2416 C 278.347 1.51128 0.765292 0
M  V30 2417 O 279.553 1.67043 0.670571 0
M  V30 2418 H 275.928 0.751918 0.0110871 0
M  V30 2419 H 277.899 2.87167 -0.811031 0
M  V30 2420 C 276.648 3.35947 0.896369 0
M  V30 2421 H 275.971 3.98684 0.298548 0
M  V30 2422 H 277.411 4.02376 1.33676 0
M  V30 2423 C 275.87 2.70076 2.01396 0
M  V30 2424 O 276.4 2.55093 3.10307 0
M  V30 2425 N 274.606 2.28724 1.79259 0
M  V30 2426 H 274.153 2.4111 0.906841 0
M  V30 2427 H 274.111 1.84986 2.54219 0
M  V30 2428 N 277.883 0.443576 1.51229 0
M  V30 2429 C 278.831 -0.37904 2.29491 0
M  V30 2430 C 279.825 -1.0153 1.35603 0
M  V30 2431 O 281.031 -0.94955 1.52917 0
M  V30 2432 H 277.406 -0.141053 0.738653 0
M  V30 2433 H 279.377 0.301799 2.9687 0
M  V30 2434 C 278.126 -1.46426 3.15364 0
M  V30 2435 H 277.449 -0.984037 3.87501 0
M  V30 2436 H 278.889 -2.01297 3.7317 0
M  V30 2437 C 277.348 -2.45099 2.31146 0
M  V30 2438 O 277.878 -3.49773 1.9754 0
M  V30 2439 N 276.084 -2.16139 1.94249 0
M  V30 2440 H 275.631 -1.31044 2.21777 0
M  V30 2441 H 275.589 -2.82398 1.38198 0
M  V30 2442 N 279.361 -1.56624 0.175154 0
M  V30 2443 C 280.293 -2.15333 -0.785128 0
M  V30 2444 C 281.306 -1.1099 -1.19101 0
M  V30 2445 O 282.495 -1.38162 -1.13019 0
M  V30 2446 C 279.595 -2.68427 -2.06882 0
M  V30 2447 C 278.768 -3.97466 -1.8259 0
M  V30 2448 C 277.827 -4.35585 -2.95215 0
M  V30 2449 O 276.853 -5.03389 -2.65684 0
M  V30 2450 N 278.055 -3.97457 -4.23094 0
M  V30 2451 H 280.82 -2.98359 -0.283187 0
M  V30 2452 H 278.381 -1.61898 -0.00749817 0
M  V30 2453 H 280.373 -2.90924 -2.81328 0
M  V30 2454 H 278.943 -1.89968 -2.48256 0
M  V30 2455 H 278.163 -3.83307 -0.920287 0
M  V30 2456 H 279.451 -4.81736 -1.63733 0
M  V30 2457 H 278.849 -3.42878 -4.49945 0
M  V30 2458 H 277.406 -4.24947 -4.9423 0
M  V30 2459 N 280.839 0.0985539 -1.57292 0
M  V30 2460 C 282.086 0.802678 -1.85912 0
M  V30 2461 C 282.414 1.78901 -0.763186 0
M  V30 2462 O 281.669 1.94178 0.243559 0
M  V30 2463 C 281.968 1.56927 -3.21105 0
M  V30 2464 C 281.634 0.725376 -4.45027 0
M  V30 2465 C 280.296 0.492726 -4.78671 0
M  V30 2466 C 282.648 0.138493 -5.21016 0
M  V30 2467 C 279.976 -0.336727 -5.85733 0
M  V30 2468 C 282.328 -0.678264 -6.28953 0
M  V30 2469 C 280.992 -0.921039 -6.61115 0
M  V30 2470 H 280.262 0.293721 -0.680301 0
M  V30 2471 H 282.909 0.0642841 -1.91392 0
M  V30 2472 H 281.214 2.37914 -3.11294 0
M  V30 2473 H 282.911 2.11841 -3.40477 0
M  V30 2474 H 279.501 0.916815 -4.18679 0
M  V30 2475 H 283.685 0.305404 -4.95359 0
M  V30 2476 H 278.941 -0.533836 -6.09065 0
M  V30 2477 H 283.115 -1.1399 -6.87007 0
M  V30 2478 H 280.742 -1.56556 -7.43905 0
M  V30 2479 N 282.317 1.53212 0.369288 0
M  V30 2480 C 283.28 1.7872 1.43498 0
M  V30 2481 C 284.28 0.657554 1.46741 0
M  V30 2482 O 285.47 0.925736 1.47566 0
M  V30 2483 C 282.602 1.90591 2.82645 0
M  V30 2484 H 283.795 2.73894 1.22156 0
M  V30 2485 H 281.348 1.44233 0.602203 0
M  V30 2486 H 282.083 0.974709 3.09306 0
M  V30 2487 H 281.868 2.72751 2.8169 0
M  V30 2488 H 283.358 2.11931 3.59826 0
M  V30 2489 N 283.795 -0.628877 1.44509 0
M  V30 2490 C 285.02 -1.42048 1.5112 0
M  V30 2491 C 285.445 -1.87594 0.137818 0
M  V30 2492 O 284.803 -1.58873 -0.873437 0
M  V30 2493 C 284.851 -2.61541 2.48251 0
M  V30 2494 O 283.955 -3.61453 1.98559 0
M  V30 2495 H 283.296 -0.424942 0.510216 0
M  V30 2496 H 285.826 -0.767374 1.89664 0
M  V30 2497 H 285.836 -3.09057 2.66361 0
M  V30 2498 H 284.511 -2.27736 3.48007 0
M  V30 2499 H 283.088 -3.20731 1.90227 0
M  V30 2500 N 285.273 -1.31445 -0.869486 0
M  V30 2501 C 286.52 -1.21158 -1.62256 0
M  V30 2502 C 286.848 0.230155 -1.93133 0
M  V30 2503 O 286.103 1.17906 -1.56194 0
M  V30 2504 C 286.402 -2.00145 -2.96102 0
M  V30 2505 C 286.068 -3.4964 -2.84715 0
M  V30 2506 C 284.73 -3.90403 -2.81317 0
M  V30 2507 C 287.082 -4.44769 -2.71716 0
M  V30 2508 C 284.41 -5.24561 -2.62778 0
M  V30 2509 C 286.762 -5.79054 -2.54714 0
M  V30 2510 C 285.426 -6.19037 -2.49699 0
M  V30 2511 H 284.696 -0.443348 -0.593737 0
M  V30 2512 H 287.343 -1.62715 -1.00976 0
M  V30 2513 H 285.648 -1.5127 -3.6142 0
M  V30 2514 H 287.345 -1.89566 -3.53363 0
M  V30 2515 H 283.935 -3.17256 -2.88178 0
M  V30 2516 H 288.119 -4.14208 -2.73397 0
M  V30 2517 H 283.375 -5.54613 -2.57321 0
M  V30 2518 H 287.549 -6.52393 -2.43632 0
M  V30 2519 H 285.176 -7.22935 -2.35093 0
M  V30 2520 N 286.751 1.08385 -1.14413 0
M  V30 2521 C 288 1.80153 -0.907076 0
M  V30 2522 C 288.313 1.87176 0.567851 0
M  V30 2523 O 289.519 2.55359 0.922172 0
M  V30 2524 C 287.975 3.23687 -1.57336 0
M  V30 2525 C 287.583 3.24897 -3.08457 0
M  V30 2526 C 289.327 4.00136 -1.41744 0
M  V30 2527 C 287.234 4.6302 -3.67921 0
M  V30 2528 H 286.164 0.675139 -0.335714 0
M  V30 2529 H 288.815 1.21733 -1.37307 0
M  V30 2530 H 287.197 3.82234 -1.03505 0
M  V30 2531 H 288.371 2.76055 -3.68958 0
M  V30 2532 H 286.686 2.61943 -3.2369 0
M  V30 2533 H 289.283 5.02201 -1.83572 0
M  V30 2534 H 289.626 4.14709 -0.363576 0
M  V30 2535 H 290.159 3.48058 -1.92614 0
M  V30 2536 H 286.898 4.5365 -4.73161 0
M  V30 2537 H 286.418 5.12143 -3.12201 0
M  V30 2538 H 288.097 5.31994 -3.68227 0
M  V30 2539 N 288.23 0.939286 1.26551 0
M  V30 2540 C 289.507 0.5038 1.89001 0
M  V30 2541 C 289.887 -1.01854 1.84903 0
M  V30 2542 O 289.235 -1.87773 1.30206 0
M  V30 2543 C 289.445 1.063 3.32417 0
M  V30 2544 C 290.793 1.13051 4.09273 0
M  V30 2545 O 291.817 1.01345 3.41479 0
M  V30 2546 O 290.676 1.31233 5.30509 0
M  V30 2547 H 287.77 0.163897 0.810597 0
M  V30 2548 H 290.316 1.03173 1.34735 0
M  V30 2549 H 289.088 2.10665 3.29752 0
M  V30 2550 H 288.711 0.517408 3.94219 0
M  V30 2551 N 289.708 -1.40897 0.706093 0
M  V30 2552 C 290.655 -2.30751 0.0474474 0
M  V30 2553 C 291.625 -1.47678 -0.76029 0
M  V30 2554 O 292.81 -1.76441 -0.726177 0
M  V30 2555 C 289.95 -3.33815 -0.875309 0
M  V30 2556 C 289.063 -4.31961 -0.0580623 0
M  V30 2557 C 288.198 -5.22093 -0.979425 0
M  V30 2558 C 287.237 -6.11902 -0.155706 0
M  V30 2559 N 286.374 -6.94482 -1.03144 0
M  V30 2560 H 291.214 -2.86513 0.819413 0
M  V30 2561 H 288.751 -1.41102 0.415783 0
M  V30 2562 H 290.709 -3.92129 -1.42446 0
M  V30 2563 H 289.339 -2.79579 -1.61356 0
M  V30 2564 H 288.391 -3.75507 0.608147 0
M  V30 2565 H 289.703 -4.95415 0.580082 0
M  V30 2566 H 288.857 -5.85292 -1.59744 0
M  V30 2567 H 287.596 -4.5889 -1.65141 0
M  V30 2568 H 286.601 -5.47742 0.475309 0
M  V30 2569 H 287.826 -6.77162 0.512635 0
M  V30 2570 H 285.772 -6.33877 -1.68924 0
M  V30 2571 H 285.689 -7.54665 -0.449108 0
M  V30 2572 H 286.957 -7.6214 -1.63593 0
M  V30 2573 N 291.186 -0.45159 -1.50991 0
M  V30 2574 C 292.432 0.110237 -2.025 0
M  V30 2575 C 292.765 1.41109 -1.33424 0
M  V30 2576 O 292.04 1.89135 -0.453659 0
M  V30 2577 C 292.323 0.314271 -3.58726 0
M  V30 2578 C 292.176 -1.00623 -4.38401 0
M  V30 2579 C 293.495 1.07767 -4.26702 0
M  V30 2580 H 290.614 0.0385897 -0.735989 0
M  V30 2581 H 293.256 -0.593374 -1.80497 0
M  V30 2582 H 291.406 0.913601 -3.77605 0
M  V30 2583 H 293.078 -1.64064 -4.31139 0
M  V30 2584 H 291.321 -1.6075 -4.02917 0
M  V30 2585 H 291.992 -0.817341 -5.45915 0
M  V30 2586 H 294.468 0.56986 -4.12179 0
M  V30 2587 H 293.344 1.18921 -5.35863 0
M  V30 2588 H 293.605 2.10939 -3.88532 0
M  V30 2589 N 292.664 1.56529 -0.183458 0
M  V30 2590 C 294.08 1.58664 0.172554 0
M  V30 2591 C 294.28 1.19925 1.61926 0
M  V30 2592 O 293.336 0.916534 2.35278 0
M  V30 2593 C 294.649 3.00463 -0.119262 0
M  V30 2594 C 296.197 3.12945 -0.0584396 0
M  V30 2595 C 296.672 4.56857 -0.323408 0
M  V30 2596 N 298.163 4.62403 -0.271612 0
M  V30 2597 C 298.898 5.71626 -0.450639 0
M  V30 2598 N 298.394 6.89362 -0.689384 0
M  V30 2599 N 300.187 5.60775 -0.385701 0
M  V30 2600 H 292.338 1.79994 -1.12765 0
M  V30 2601 H 294.601 0.834808 -0.449222 0
M  V30 2602 H 294.307 3.33326 -1.12192 0
M  V30 2603 H 294.181 3.72659 0.583544 0
M  V30 2604 H 296.568 2.79902 0.934805 0
M  V30 2605 H 296.649 2.4316 -0.794144 0
M  V30 2606 H 296.293 4.9061 -1.31392 0
M  V30 2607 H 296.223 5.24816 0.43305 0
M  V30 2608 H 298.714 3.77785 -0.0932256 0
M  V30 2609 H 299.027 7.68489 -0.815113 0
M  V30 2610 H 297.372 6.91196 -0.726142 0
M  V30 2611 H 300.563 4.67674 -0.199687 0
M  V30 2612 H 300.736 6.4584 -0.528646 0
M  V30 2613 N 294.142 -0.090211 1.57342 0
M  V30 2614 C 295.389 -0.792807 1.86335 0
M  V30 2615 C 295.717 -1.78494 0.772662 0
M  V30 2616 O 294.972 -1.94305 -0.233258 0
M  V30 2617 C 295.271 -1.55222 3.21933 0
M  V30 2618 C 294.937 -0.701765 4.45406 0
M  V30 2619 C 293.599 -0.467334 4.78925 0
M  V30 2620 C 295.951 -0.11086 5.21082 0
M  V30 2621 C 293.279 0.367785 5.85546 0
M  V30 2622 C 295.631 0.711609 6.28585 0
M  V30 2623 C 294.295 0.956086 6.60617 0
M  V30 2624 H 293.565 -0.290109 0.681849 0
M  V30 2625 H 296.212 -0.0541332 1.91423 0
M  V30 2626 H 294.517 -2.3626 3.12551 0
M  V30 2627 H 296.214 -2.10032 3.41595 0
M  V30 2628 H 292.804 -0.894598 4.1916 0
M  V30 2629 H 296.988 -0.279129 4.95514 0
M  V30 2630 H 292.244 0.566128 6.08773 0
M  V30 2631 H 296.418 1.17632 6.86393 0
M  V30 2632 H 294.045 1.60499 7.43064 0
M  V30 2633 N 295.62 -1.53406 -0.361157 0
M  V30 2634 C 296.55 -1.83136 -1.44857 0
M  V30 2635 C 297.531 -0.685174 -1.5569 0
M  V30 2636 O 298.716 -0.93544 -1.70186 0
M  V30 2637 C 295.846 -2.02522 -2.82138 0
M  V30 2638 C 294.8 -3.18302 -2.86126 0
M  V30 2639 C 294.126 -3.22989 -4.26125 0
M  V30 2640 C 295.426 -4.56796 -2.53248 0
M  V30 2641 H 297.12 -2.74201 -1.20226 0
M  V30 2642 H 294.666 -1.31938 -0.576922 0
M  V30 2643 H 296.619 -2.21904 -3.58241 0
M  V30 2644 H 295.343 -1.08172 -3.08166 0
M  V30 2645 H 294.002 -2.98747 -2.12475 0
M  V30 2646 H 293.65 -2.26267 -4.49235 0
M  V30 2647 H 293.35 -4.00781 -4.29708 0
M  V30 2648 H 294.874 -3.44559 -5.04094 0
M  V30 2649 H 296.288 -4.7631 -3.19064 0
M  V30 2650 H 294.685 -5.36862 -2.68141 0
M  V30 2651 H 295.755 -4.61606 -1.48484 0
M  V30 2652 N 297.098 0.621204 -1.44841 0
M  V30 2653 C 298.008 1.7612 -1.5498 0
M  V30 2654 C 299.024 1.68477 -0.434927 0
M  V30 2655 O 300.2 1.89076 -0.693693 0
M  V30 2656 C 297.265 3.1254 -1.50065 0
M  V30 2657 C 296.326 3.31741 -2.72482 0
M  V30 2658 C 295.559 4.61653 -2.67792 0
M  V30 2659 O 295.782 5.431 -1.74352 0
M  V30 2660 O 294.716 4.83271 -3.58794 0
M  V30 2661 H 298.542 1.70518 -2.51311 0
M  V30 2662 H 296.127 0.783643 -1.27198 0
M  V30 2663 H 298.009 3.93844 -1.49882 0
M  V30 2664 H 296.684 3.18663 -0.568806 0
M  V30 2665 H 295.591 2.50077 -2.7823 0
M  V30 2666 H 296.924 3.30486 -3.64746 0
M  V30 2667 N 298.576 1.31904 0.862503 0
M  V30 2668 C 299.508 1.16005 1.97675 0
M  V30 2669 C 300.521 0.0971234 1.6251 0
M  V30 2670 O 301.71 0.345337 1.75128 0
M  V30 2671 C 298.81 0.751791 3.30456 0
M  V30 2672 C 297.983 1.90133 3.93914 0
M  V30 2673 C 297.042 1.4779 5.05019 0
M  V30 2674 O 296.068 2.18872 5.25437 0
M  V30 2675 N 297.27 0.369491 5.79323 0
M  V30 2676 H 300.035 2.11982 2.11857 0
M  V30 2677 H 297.596 1.24337 1.03691 0
M  V30 2678 H 299.588 0.451084 4.02178 0
M  V30 2679 H 298.158 -0.116593 3.12382 0
M  V30 2680 H 297.378 2.36896 3.15078 0
M  V30 2681 H 298.666 2.67111 4.33047 0
M  V30 2682 H 298.064 -0.222299 5.65263 0
M  V30 2683 H 296.621 0.128354 6.51674 0
M  V30 2684 N 300.054 -1.07777 1.14986 0
M  V30 2685 C 300.986 -2.14769 0.800436 0
M  V30 2686 C 301.999 -1.61739 -0.185595 0
M  V30 2687 O 303.188 -1.78462 0.0370358 0
M  V30 2688 C 300.288 -3.38481 0.168533 0
M  V30 2689 C 299.461 -4.20876 1.1909 0
M  V30 2690 C 298.52 -5.22976 0.581575 0
M  V30 2691 O 297.546 -5.55388 1.24633 0
M  V30 2692 N 298.748 -5.76976 -0.638706 0
M  V30 2693 H 301.513 -2.45348 1.72118 0
M  V30 2694 H 299.074 -1.23645 1.04515 0
M  V30 2695 H 301.066 -4.03916 -0.251764 0
M  V30 2696 H 299.636 -3.05651 -0.655467 0
M  V30 2697 H 298.856 -3.51322 1.78791 0
M  V30 2698 H 300.144 -4.7274 1.88133 0
M  V30 2699 H 299.542 -5.52886 -1.19723 0
M  V30 2700 H 298.099 -6.44061 -1.00142 0
M  V30 2701 N 301.532 -0.945985 -1.26051 0
M  V30 2702 C 302.48 -0.450259 -2.282 0
M  V30 2703 C 303.474 0.47497 -1.62605 0
M  V30 2704 O 304.68 0.352653 -1.76512 0
M  V30 2705 H 301.055 -0.127081 -0.741184 0
M  V30 2706 H 303.026 -1.32422 -2.67408 0
M  V30 2707 C 301.775 0.26467 -3.46691 0
M  V30 2708 H 301.098 -0.438123 -3.97392 0
M  V30 2709 H 302.538 0.575678 -4.20074 0
M  V30 2710 C 300.997 1.48416 -3.02447 0
M  V30 2711 O 301.527 2.58227 -3.07704 0
M  V30 2712 N 299.733 1.34243 -2.57735 0
M  V30 2713 H 299.28 0.448994 -2.53657 0
M  V30 2714 H 299.238 2.15957 -2.28495 0
M  V30 2715 N 303.011 1.40521 -0.713556 0
M  V30 2716 C 303.943 2.29191 -0.0203126 0
M  V30 2717 C 304.956 1.45723 0.725864 0
M  V30 2718 O 306.145 1.69033 0.573581 0
M  V30 2719 C 303.245 3.2395 0.995486 0
M  V30 2720 C 302.418 4.36262 0.315256 0
M  V30 2721 C 301.477 5.11474 1.23616 0
M  V30 2722 O 300.503 5.64606 0.721719 0
M  V30 2723 N 301.705 5.20638 2.56743 0
M  V30 2724 H 304.47 2.89327 -0.781652 0
M  V30 2725 H 302.031 1.51869 -0.561022 0
M  V30 2726 H 304.023 3.71137 1.61368 0
M  V30 2727 H 302.593 2.64995 1.6582 0
M  V30 2728 H 301.813 3.91228 -0.483106 0
M  V30 2729 H 303.101 5.08558 -0.157004 0
M  V30 2730 H 302.499 4.7895 3.01037 0
M  V30 2731 H 301.056 5.71339 3.13712 0
M  V30 2732 N 304.489 0.459591 1.5075 0
M  V30 2733 C 305.735 -0.0994966 2.02556 0
M  V30 2734 C 306.068 -1.40399 1.3417 0
M  V30 2735 O 305.343 -1.88892 0.463683 0
M  V30 2736 C 305.626 -0.295242 3.58888 0
M  V30 2737 C 305.479 1.02947 4.37861 0
M  V30 2738 C 306.798 -1.05502 4.27267 0
M  V30 2739 H 303.917 -0.034686 0.736183 0
M  V30 2740 H 306.559 0.602938 1.8018 0
M  V30 2741 H 304.709 -0.893563 3.78084 0
M  V30 2742 H 306.381 1.66348 4.30263 0
M  V30 2743 H 304.624 1.62885 4.02058 0
M  V30 2744 H 305.295 0.846281 5.45474 0
M  V30 2745 H 307.771 -0.547993 4.12476 0
M  V30 2746 H 306.647 -1.16077 5.36486 0
M  V30 2747 H 306.908 -2.08875 3.89645 0
M  V30 2748 N 305.967 -1.56429 0.191757 0
M  V30 2749 C 306.897 -2.21937 -0.725696 0
M  V30 2750 C 307.878 -1.1814 -1.2238 0
M  V30 2751 O 309.063 -1.46636 -1.27325 0
M  V30 2752 C 306.193 -2.87611 -1.94672 0
M  V30 2753 C 305.147 -3.97623 -1.58366 0
M  V30 2754 C 304.473 -4.50446 -2.88102 0
M  V30 2755 C 305.773 -5.16197 -0.796133 0
M  V30 2756 H 307.467 -2.98861 -0.179606 0
M  V30 2757 H 305.013 -1.43749 -0.0849464 0
M  V30 2758 H 306.966 -3.3212 -2.59373 0
M  V30 2759 H 305.69 -2.08087 -2.51728 0
M  V30 2760 H 304.349 -3.53801 -0.960247 0
M  V30 2761 H 303.997 -3.67688 -3.43241 0
M  V30 2762 H 303.697 -5.24675 -2.64556 0
M  V30 2763 H 305.221 -4.97654 -3.53798 0
M  V30 2764 H 306.635 -5.57271 -1.34618 0
M  V30 2765 H 305.032 -5.96471 -0.658928 0
M  V30 2766 H 306.102 -4.84473 0.203478 0
M  V30 2767 N 307.445 0.0818655 -1.57387 0
M  V30 2768 C 308.377 1.12484 -1.997 0
M  V30 2769 C 309.39 1.35564 -0.90146 0
M  V30 2770 O 310.579 1.33982 -1.17945 0
M  V30 2771 C 307.679 2.47778 -2.31213 0
M  V30 2772 C 306.852 2.44793 -3.62485 0
M  V30 2773 C 305.911 3.62117 -3.81782 0
M  V30 2774 O 304.937 3.44005 -4.53486 0
M  V30 2775 N 306.139 4.82094 -3.23367 0
M  V30 2776 H 308.904 0.764585 -2.89783 0
M  V30 2777 H 306.465 0.270664 -1.59621 0
M  V30 2778 H 308.457 3.24891 -2.41304 0
M  V30 2779 H 307.027 2.75843 -1.4707 0
M  V30 2780 H 306.247 1.53134 -3.6324 0
M  V30 2781 H 307.535 2.39889 -4.48699 0
M  V30 2782 H 306.933 4.99713 -2.65148 0
M  V30 2783 H 305.49 5.56753 -3.38923 0
M  V30 2784 N 308.923 1.53595 0.353017 0
M  V30 2785 C 310.151 1.74311 1.1146 0
M  V30 2786 C 310.566 0.477854 1.82653 0
M  V30 2787 O 309.923 -0.549977 1.74016 0
M  V30 2788 C 309.974 2.91694 2.13534 0
M  V30 2789 O 309.695 4.13325 1.45238 0
M  V30 2790 C 311.196 3.24384 3.02142 0
M  V30 2791 H 308.416 0.582669 0.332773 0
M  V30 2792 H 310.96 2.00386 0.408107 0
M  V30 2793 H 309.115 2.67977 2.79763 0
M  V30 2794 H 309.529 4.79148 2.13349 0
M  V30 2795 H 311.003 4.09893 3.69718 0
M  V30 2796 H 311.48 2.40282 3.67643 0
M  V30 2797 H 312.086 3.50073 2.41514 0
M  V30 2798 N 310.401 -0.613514 1.45168 0
M  V30 2799 C 311.348 -1.72456 1.53387 0
M  V30 2800 C 312.318 -1.6169 0.380191 0
M  V30 2801 O 313.503 -1.81356 0.592836 0
M  V30 2802 C 310.643 -3.10753 1.50088 0
M  V30 2803 C 309.756 -3.32368 2.75963 0
M  V30 2804 C 308.891 -4.60737 2.64376 0
M  V30 2805 C 307.93 -4.7559 3.85332 0
M  V30 2806 N 307.067 -5.95253 3.72315 0
M  V30 2807 H 311.907 -1.64768 2.48305 0
M  V30 2808 H 309.444 -0.803503 1.23216 0
M  V30 2809 H 311.402 -3.90758 1.46164 0
M  V30 2810 H 310.032 -3.17413 0.587243 0
M  V30 2811 H 309.084 -2.4618 2.89999 0
M  V30 2812 H 310.396 -3.39218 3.65695 0
M  V30 2813 H 309.55 -5.48928 2.58385 0
M  V30 2814 H 308.289 -4.56275 1.72233 0
M  V30 2815 H 307.294 -3.85824 3.91688 0
M  V30 2816 H 308.519 -4.81854 4.78533 0
M  V30 2817 H 306.465 -5.91847 2.82937 0
M  V30 2818 H 306.382 -6.03236 4.55677 0
M  V30 2819 H 307.65 -6.85958 3.70246 0
M  V30 2820 N 311.879 -1.3236 -0.855495 0
M  V30 2821 C 313.125 -1.24064 -1.61182 0
M  V30 2822 C 313.48 0.195914 -1.914 0
M  V30 2823 O 312.773 1.13345 -1.54478 0
M  V30 2824 C 312.967 -2.03275 -2.93963 0
M  V30 2825 C 312.796 -3.54486 -2.76712 0
M  V30 2826 C 311.566 -4.23824 -2.75139 0
M  V30 2827 C 313.764 -4.49154 -2.50531 0
M  V30 2828 N 311.746 -5.61095 -2.4909 0
M  V30 2829 C 313.117 -5.74195 -2.3388 0
M  V30 2830 C 315.172 -4.3842 -2.35992 0
M  V30 2831 C 313.875 -6.89716 -2.04168 0
M  V30 2832 C 315.901 -5.53739 -2.0767 0
M  V30 2833 C 315.263 -6.77779 -1.9182 0
M  V30 2834 H 311.362 -0.509139 -0.59355 0
M  V30 2835 H 313.946 -1.66715 -1.00569 0
M  V30 2836 H 312.117 -1.6297 -3.52555 0
M  V30 2837 H 313.849 -1.86881 -3.58967 0
M  V30 2838 H 310.604 -3.75934 -2.88047 0
M  V30 2839 H 311.028 -6.33411 -2.38996 0
M  V30 2840 H 315.67 -3.43172 -2.46967 0
M  V30 2841 H 313.388 -7.84977 -1.9193 0
M  V30 2842 H 316.974 -5.4736 -1.97201 0
M  V30 2843 H 315.854 -7.65504 -1.70217 0
M  V30 2844 N 313.357 1.07166 -1.15556 0
M  V30 2845 C 314.267 2.17947 -0.868116 0
M  V30 2846 C 315.283 1.73297 0.156297 0
M  V30 2847 O 316.459 2.01392 -0.0182327 0
M  V30 2848 C 313.524 3.44789 -0.36355 0
M  V30 2849 C 312.585 4.03996 -1.45209 0
M  V30 2850 C 311.818 5.24783 -0.971508 0
M  V30 2851 O 312.041 5.70109 0.182194 0
M  V30 2852 O 310.975 5.75715 -1.75603 0
M  V30 2853 H 314.801 2.4503 -1.79427 0
M  V30 2854 H 312.386 1.16539 -0.934824 0
M  V30 2855 H 314.268 4.21307 -0.0887113 0
M  V30 2856 H 312.943 3.19253 0.534708 0
M  V30 2857 H 311.85 3.29009 -1.78056 0
M  V30 2858 H 313.183 4.33808 -2.32533 0
M  V30 2859 N 314.835 0.952656 1.25548 0
M  V30 2860 C 315.765 0.489287 2.28316 0
M  V30 2861 C 316.746 -0.463359 1.63667 0
M  V30 2862 O 317.931 -0.36274 1.90782 0
M  V30 2863 C 315.061 -0.235603 3.465 0
M  V30 2864 C 314.015 0.631593 4.23314 0
M  V30 2865 C 313.341 -0.223923 5.34231 0
M  V30 2866 C 314.641 1.90871 4.86174 0
M  V30 2867 H 316.335 1.34822 2.67326 0
M  V30 2868 H 313.881 0.649728 1.28509 0
M  V30 2869 H 315.834 -0.570882 4.17515 0
M  V30 2870 H 314.558 -1.12877 3.06474 0
M  V30 2871 H 313.217 0.949929 3.54079 0
M  V30 2872 H 312.865 -1.11678 4.90446 0
M  V30 2873 H 312.565 0.35299 5.86539 0
M  V30 2874 H 314.089 -0.554214 6.0808 0
M  V30 2875 H 315.503 1.63997 5.49343 0
M  V30 2876 H 313.9 2.43112 5.4865 0
M  V30 2877 H 314.97 2.61304 4.08471 0
M  V30 2878 N 316.313 -1.40141 0.720998 0
M  V30 2879 C 317.243 -2.33339 0.0867621 0
M  V30 2880 C 318.224 -1.53178 -0.739622 0
M  V30 2881 O 319.409 -1.81625 -0.687449 0
M  V30 2882 C 316.539 -3.37194 -0.831728 0
M  V30 2883 C 315.493 -4.27857 -0.110558 0
M  V30 2884 C 314.819 -5.22294 -1.14513 0
M  V30 2885 C 316.119 -5.11872 1.0385 0
M  V30 2886 H 317.813 -2.86626 0.865219 0
M  V30 2887 H 315.359 -1.37814 0.417516 0
M  V30 2888 H 317.312 -4.01335 -1.28485 0
M  V30 2889 H 316.036 -2.82314 -1.64214 0
M  V30 2890 H 314.695 -3.65176 0.322797 0
M  V30 2891 H 314.343 -4.63717 -1.94874 0
M  V30 2892 H 314.043 -5.83797 -0.667446 0
M  V30 2893 H 315.567 -5.89312 -1.59824 0
M  V30 2894 H 316.981 -5.69436 0.664482 0
M  V30 2895 H 315.378 -5.82445 1.4449 0
M  V30 2896 H 316.448 -4.4753 1.86668 0
M  V30 2897 N 317.792 -0.46758 -1.50504 0
M  V30 2898 C 318.724 0.364655 -2.26281 0
M  V30 2899 C 319.737 0.960151 -1.31472 0
M  V30 2900 O 320.926 0.849153 -1.57008 0
M  V30 2901 C 318.026 1.52509 -3.02645 0
M  V30 2902 C 317.199 1.04302 -4.24782 0
M  V30 2903 C 316.258 2.07709 -4.8347 0
M  V30 2904 O 315.284 1.65913 -5.44483 0
M  V30 2905 N 316.486 3.40485 -4.70159 0
M  V30 2906 H 319.251 -0.28495 -2.98342 0
M  V30 2907 H 316.812 -0.298163 -1.59131 0
M  V30 2908 H 318.804 2.21371 -3.38787 0
M  V30 2909 H 317.374 2.07945 -2.33404 0
M  V30 2910 H 316.594 0.180393 -3.93787 0
M  V30 2911 H 317.882 0.698798 -5.03978 0
M  V30 2912 H 317.28 3.77155 -4.21629 0
M  V30 2913 H 315.837 4.05156 -5.1058 0
M  V30 2914 N 319.27 1.56325 -0.20005 0
M  V30 2915 C 320.202 2.16555 0.750771 0
M  V30 2916 C 321.215 1.12871 1.1732 0
M  V30 2917 O 322.404 1.39943 1.10807 0
M  V30 2918 C 319.504 2.71684 2.02586 0
M  V30 2919 C 318.677 4.00321 1.76244 0
M  V30 2920 C 317.736 4.40227 2.88248 0
M  V30 2921 O 316.762 5.07552 2.57642 0
M  V30 2922 N 317.964 4.04138 4.16717 0
M  V30 2923 H 320.729 2.98772 0.235685 0
M  V30 2924 H 318.29 1.6189 -0.0182594 0
M  V30 2925 H 320.282 2.95363 2.76664 0
M  V30 2926 H 318.852 1.93893 2.45202 0
M  V30 2927 H 318.072 3.84723 0.85919 0
M  V30 2928 H 319.36 4.84279 1.56048 0
M  V30 2929 H 318.758 3.49993 4.44434 0
M  V30 2930 H 317.315 4.32756 4.87407 0
M  V30 2931 N 320.748 -0.0735177 1.57428 0
M  V30 2932 C 321.994 -0.774145 1.87443 0
M  V30 2933 C 322.327 -1.77311 0.792103 0
M  V30 2934 O 321.602 -1.93492 -0.197793 0
M  V30 2935 C 321.885 -1.48367 3.28115 0
M  V30 2936 C 321.738 -0.501227 4.46999 0
M  V30 2937 C 323.057 -2.429 3.66998 0
M  V30 2938 H 320.176 -0.279971 0.681752 0
M  V30 2939 H 322.818 -0.0373616 1.89963 0
M  V30 2940 H 320.968 -2.11171 3.26097 0
M  V30 2941 H 322.64 0.121468 4.6114 0
M  V30 2942 H 320.883 0.183593 4.33411 0
M  V30 2943 H 321.554 -1.03526 5.42205 0
M  V30 2944 H 324.03 -1.90175 3.70098 0
M  V30 2945 H 322.906 -2.89549 4.66318 0
M  V30 2946 H 323.167 -3.27628 2.96837 0
M  V30 2947 N 322.226 -1.5378 -0.344866 0
M  V30 2948 C 323.503 -1.61589 -1.10219 0
M  V30 2949 C 323.883 -0.436316 -2.06542 0
M  V30 2950 O 323.231 0.571543 -2.21237 0
M  V30 2951 C 323.441 -2.97602 -1.82301 0
M  V30 2952 C 324.789 -3.5291 -2.36093 0
M  V30 2953 O 325.813 -2.99768 -1.924 0
M  V30 2954 O 324.672 -4.45859 -3.16026 0
M  V30 2955 H 321.766 -0.653522 -0.506792 0
M  V30 2956 H 324.312 -1.66126 -0.346465 0
M  V30 2957 H 323.084 -3.74893 -1.12121 0
M  V30 2958 H 322.707 -2.9665 -2.64735 0
M  V30 2959 N 323.704 0.605807 -1.45491 0
M  V30 2960 C 324.932 1.39136 -1.5313 0
M  V30 2961 C 325.347 1.88082 -0.164507 0
M  V30 2962 O 324.704 1.62316 0.834247 0
M  V30 2963 C 324.755 2.59463 -2.51716 0
M  V30 2964 O 324.476 2.12551 -3.83084 0
M  V30 2965 C 325.977 3.52301 -2.6907 0
M  V30 2966 H 323.197 0.425849 -0.51855 0
M  V30 2967 H 325.741 0.73865 -1.90694 0
M  V30 2968 H 323.896 3.20772 -2.17219 0
M  V30 2969 H 324.31 2.90744 -4.36541 0
M  V30 2970 H 325.784 4.33271 -3.42024 0
M  V30 2971 H 326.261 4.02757 -1.75167 0
M  V30 2972 H 326.867 2.96845 -3.04571 0
M  V30 2973 N 325.182 1.32811 0.848464 0
M  V30 2974 C 326.407 1.26882 1.6406 0
M  V30 2975 C 326.832 -0.15913 1.87426 0
M  V30 2976 O 326.19 -1.11258 1.43148 0
M  V30 2977 C 326.238 2.03997 2.97351 0
M  V30 2978 O 325.342 1.39201 3.88197 0
M  V30 2979 H 324.683 0.436982 0.499943 0
M  V30 2980 H 327.213 1.75224 1.0563 0
M  V30 2981 H 327.223 2.14403 3.47124 0
M  V30 2982 H 325.898 3.0783 2.79666 0
M  V30 2983 H 324.475 1.37381 3.46671 0
M  V30 2984 N 326.66 -1.06551 1.16123 0
M  V30 2985 C 327.888 -1.83005 0.965237 0
M  V30 2986 C 328.303 -1.82423 -0.486542 0
M  V30 2987 O 327.66 -1.24152 -1.33763 0
M  V30 2988 C 327.711 -3.29733 1.48183 0
M  V30 2989 O 327.432 -3.30416 2.87674 0
M  V30 2990 C 328.933 -4.22926 1.32848 0
M  V30 2991 H 326.153 -0.577118 0.342309 0
M  V30 2992 H 328.697 -1.3445 1.54089 0
M  V30 2993 H 326.852 -3.75609 0.948517 0
M  V30 2994 H 327.266 -4.22149 3.11272 0
M  V30 2995 H 328.74 -5.23916 1.73827 0
M  V30 2996 H 329.217 -4.38346 0.273692 0
M  V30 2997 H 329.823 -3.82894 1.85127 0
M  V30 2998 N 328.138 -0.959301 -1.25041 0
M  V30 2999 C 329.554 -0.664474 -1.4511 0
M  V30 3000 C 329.754 0.776481 -1.85938 0
M  V30 3001 O 328.81 1.55128 -1.99227 0
M  V30 3002 C 330.123 -1.64139 -2.5195 0
M  V30 3003 C 331.671 -1.65309 -2.65786 0
M  V30 3004 C 332.146 -2.61777 -3.75815 0
M  V30 3005 N 333.637 -2.60169 -3.83231 0
M  V30 3006 C 334.372 -3.31489 -4.6787 0
M  V30 3007 N 333.868 -4.12298 -5.56761 0
M  V30 3008 N 335.661 -3.20354 -4.61876 0
M  V30 3009 H 327.812 -1.89043 -0.968332 0
M  V30 3010 H 330.075 -0.813408 -0.4869 0
M  V30 3011 H 329.781 -2.67086 -2.28819 0
M  V30 3012 H 329.655 -1.40756 -3.49954 0
M  V30 3013 H 332.042 -0.630778 -2.8828 0
M  V30 3014 H 332.123 -1.92753 -1.68167 0
M  V30 3015 H 331.767 -3.64137 -3.54071 0
M  V30 3016 H 331.697 -2.31616 -4.72929 0
M  V30 3017 H 334.188 -2.01507 -3.19692 0
M  V30 3018 H 334.501 -4.63625 -6.18281 0
M  V30 3019 H 332.846 -4.16395 -5.56454 0
M  V30 3020 H 336.037 -2.56692 -3.91442 0
M  V30 3021 H 336.21 -3.76201 -5.27614 0
M  V30 3022 N 329.616 1.39756 -0.72842 0
M  V30 3023 C 330.844 2.04948 -0.283528 0
M  V30 3024 C 331.259 1.54908 1.0793 0
M  V30 3025 O 330.616 0.711135 1.68075 0
M  V30 3026 C 330.667 3.60498 -0.268957 0
M  V30 3027 O 330.388 4.08695 -1.57798 0
M  V30 3028 C 331.889 4.4288 0.192912 0
M  V30 3029 H 329.109 0.659243 -0.125056 0
M  V30 3030 H 331.653 1.78927 -0.990226 0
M  V30 3031 H 329.808 3.85444 0.388801 0
M  V30 3032 H 330.222 5.02977 -1.48709 0
M  V30 3033 H 331.696 5.51791 0.151952 0
M  V30 3034 H 332.173 4.21418 1.23708 0
M  V30 3035 H 332.779 4.23069 -0.435039 0
M  V30 3036 N 331.094 0.475555 1.50254 0
M  V30 3037 C 332.044 -0.335025 2.25525 0
M  V30 3038 C 333.028 -0.957625 1.29299 0
M  V30 3039 O 334.22 -0.869436 1.54175 0
M  V30 3040 C 331.349 -1.41385 3.12834 0
M  V30 3041 C 330.435 -0.798762 4.1651 0
M  V30 3042 N 330.826 0.0835815 5.05731 0
M  V30 3043 C 329.124 -1.06221 4.33166 0
M  V30 3044 C 329.825 0.433113 5.80085 0
M  V30 3045 N 328.801 -0.1928 5.43258 0
M  V30 3046 H 332.603 0.344612 2.91873 0
M  V30 3047 H 330.117 0.289986 1.5979 0
M  V30 3048 H 332.114 -2.00777 3.65368 0
M  V30 3049 H 330.774 -2.09543 2.48036 0
M  V30 3050 H 331.785 0.452715 5.15918 0
M  V30 3051 H 328.462 -1.73844 3.79585 0
M  V30 3052 H 329.852 1.15346 6.61925 0
M  V30 3053 N 332.573 -1.56217 0.208337 0
M  V30 3054 C 333.521 -2.21053 -0.723769 0
M  V30 3055 C 334.515 -1.18578 -1.20978 0
M  V30 3056 O 335.721 -1.36691 -1.17114 0
M  V30 3057 H 332.096 -0.708595 -0.251788 0
M  V30 3058 H 334.067 -2.98006 -0.153365 0
M  V30 3059 C 332.816 -2.89417 -1.927 0
M  V30 3060 H 332.139 -3.68019 -1.56212 0
M  V30 3061 H 333.579 -3.38201 -2.55727 0
M  V30 3062 C 332.038 -1.91166 -2.77411 0
M  V30 3063 O 332.568 -1.42026 -3.75754 0
M  V30 3064 N 330.774 -1.59105 -2.43175 0
M  V30 3065 H 330.321 -1.99259 -1.63259 0
M  V30 3066 H 330.279 -0.936255 -3.00136 0
M  V30 3067 N 334.051 0.0651679 -1.57465 0
M  V30 3068 C 334.981 1.07693 -2.07182 0
M  V30 3069 C 335.962 1.39962 -0.966673 0
M  V30 3070 O 337.147 1.49475 -1.2398 0
M  V30 3071 C 334.277 2.3885 -2.52127 0
M  V30 3072 C 333.231 2.20917 -3.66579 0
M  V30 3073 C 332.557 3.57515 -3.97601 0
M  V30 3074 C 333.857 1.62493 -4.9638 0
M  V30 3075 H 335.551 0.663199 -2.91962 0
M  V30 3076 H 333.097 0.317569 -1.40455 0
M  V30 3077 H 335.05 3.09928 -2.85522 0
M  V30 3078 H 333.774 2.82215 -1.64384 0
M  V30 3079 H 332.433 1.52279 -3.33477 0
M  V30 3080 H 332.081 3.98463 -3.06979 0
M  V30 3081 H 331.781 3.46353 -4.74672 0
M  V30 3082 H 333.305 4.30013 -4.33499 0
M  V30 3083 H 334.719 2.23445 -5.27963 0
M  V30 3084 H 333.116 1.62009 -5.77818 0
M  V30 3085 H 334.186 0.587041 -4.81333 0
M  V30 3086 N 335.529 1.53961 0.336706 0
M  V30 3087 C 336.439 1.85432 1.43708 0
M  V30 3088 C 337.455 0.745053 1.57242 0
M  V30 3089 O 338.631 1.03804 1.72588 0
M  V30 3090 C 335.696 2.06349 2.78605 0
M  V30 3091 C 334.757 3.30191 2.74358 0
M  V30 3092 C 333.99 3.50101 4.02822 0
M  V30 3093 O 334.213 2.7371 5.00439 0
M  V30 3094 O 333.147 4.43547 4.06878 0
M  V30 3095 H 336.973 2.78975 1.20028 0
M  V30 3096 H 334.558 1.39701 0.52952 0
M  V30 3097 H 336.44 2.21513 3.58483 0
M  V30 3098 H 335.115 1.15995 3.02203 0
M  V30 3099 H 334.022 3.20425 1.93078 0
M  V30 3100 H 335.355 4.2056 2.55715 0
M  V30 3101 N 337.007 -0.598083 1.45811 0
M  V30 3102 C 338.418 -1.18011 1.44673 0
M  V30 3103 C 338.769 -1.95378 0.179364 0
M  V30 3104 O 337.894 -2.04124 -0.718509 0
M  V30 3105 C 338.489 -2.14677 2.62105 0
M  V30 3106 C 337.048 -2.68236 2.64057 0
M  V30 3107 C 336.195 -1.43816 2.37091 0
M  V30 3108 H 339.146 -0.38686 1.53913 0
M  V30 3109 H 339.167 -2.97878 2.36746 0
M  V30 3110 H 338.679 -1.5834 3.5433 0
M  V30 3111 H 336.78 -3.28486 1.75864 0
M  V30 3112 H 336.893 -3.12021 3.63566 0
M  V30 3113 H 335.257 -1.731 1.86838 0
M  V30 3114 H 336.04 -0.893333 3.31473 0
M  V30 3115 N 338.485 -1.33259 -0.841409 0
M  V30 3116 C 339.715 -1.2742 -1.62628 0
M  V30 3117 C 340.123 0.157604 -1.88542 0
M  V30 3118 O 339.466 1.10938 -1.46419 0
M  V30 3119 C 339.528 -1.97797 -3.00194 0
M  V30 3120 C 339.192 -3.47109 -2.97261 0
M  V30 3121 C 340.189 -4.42358 -2.73159 0
M  V30 3122 C 337.874 -3.89247 -3.17478 0
M  V30 3123 C 339.868 -5.77718 -2.69296 0
M  V30 3124 C 337.555 -5.24713 -3.13241 0
M  V30 3125 C 338.553 -6.1876 -2.89181 0
M  V30 3126 O 338.241 -7.51745 -2.84843 0
M  V30 3127 H 337.973 -0.440436 -0.512827 0
M  V30 3128 H 340.527 -1.76153 -1.05638 0
M  V30 3129 H 338.757 -1.43652 -3.59028 0
M  V30 3130 H 340.446 -1.8549 -3.61038 0
M  V30 3131 H 341.212 -4.11127 -2.57294 0
M  V30 3132 H 337.091 -3.16456 -3.35226 0
M  V30 3133 H 340.635 -6.51097 -2.50436 0
M  V30 3134 H 336.532 -5.55569 -3.28654 0
M  V30 3135 H 337.3 -7.61262 -3.00702 0
M  V30 3136 N 339.963 1.05934 -1.16686 0
M  V30 3137 C 341.21 1.788 -0.950622 0
M  V30 3138 C 341.538 1.87384 0.521305 0
M  V30 3139 O 340.793 1.36438 1.40297 0
M  V30 3140 C 341.092 3.23105 -1.52767 0
M  V30 3141 C 340.758 3.34594 -3.02254 0
M  V30 3142 C 339.42 3.37437 -3.43059 0
M  V30 3143 C 341.772 3.36219 -3.98254 0
M  V30 3144 C 339.1 3.39525 -4.78477 0
M  V30 3145 C 341.452 3.39845 -5.33562 0
M  V30 3146 C 340.116 3.40971 -5.73842 0
M  V30 3147 H 339.386 0.654275 -0.347857 0
M  V30 3148 H 342.033 1.24555 -1.45459 0
M  V30 3149 H 340.338 3.80227 -0.94524 0
M  V30 3150 H 342.035 3.7809 -1.336 0
M  V30 3151 H 338.625 3.3309 -2.6972 0
M  V30 3152 H 342.809 3.33231 -3.67792 0
M  V30 3153 H 338.065 3.38703 -5.09009 0
M  V30 3154 H 342.239 3.4005 -6.07733 0
M  V30 3155 H 339.866 3.42342 -6.78753 0
M  V30 3156 N 341.441 0.965919 1.2453 0
M  V30 3157 C 342.351 0.502154 2.29163 0
M  V30 3158 C 343.367 -0.436017 1.68448 0
M  V30 3159 O 344.543 -0.309497 1.99008 0
M  V30 3160 C 341.608 -0.201956 3.46111 0
M  V30 3161 C 340.669 0.775821 4.22232 0
M  V30 3162 C 339.902 0.105217 5.33596 0
M  V30 3163 O 340.125 -1.10683 5.59558 0
M  V30 3164 O 339.059 0.796475 5.96607 0
M  V30 3165 H 342.885 1.37194 2.70946 0
M  V30 3166 H 340.47 0.732875 1.30189 0
M  V30 3167 H 342.352 -0.597564 4.17142 0
M  V30 3168 H 341.027 -1.04673 3.06309 0
M  V30 3169 H 339.934 1.22185 3.53584 0
M  V30 3170 H 341.267 1.58896 4.65846 0
M  V30 3171 N 342.919 -1.39368 0.735821 0
M  V30 3172 C 344.144 -2.05319 0.293052 0
M  V30 3173 C 344.569 -1.55115 -1.064 0
M  V30 3174 O 343.927 -0.695261 -1.67439 0
M  V30 3175 C 343.975 -3.59305 0.305323 0
M  V30 3176 O 343.079 -4.06299 -0.706761 0
M  V30 3177 H 342.42 -0.650529 0.13307 0
M  V30 3178 H 344.95 -1.78386 1.00197 0
M  V30 3179 H 344.96 -4.07724 0.149997 0
M  V30 3180 H 343.635 -3.95207 1.29553 0
M  V30 3181 H 342.212 -3.69292 -0.517504 0
M  V30 3182 N 344.397 -0.483516 -1.5 0
M  V30 3183 C 345.644 0.0671597 -2.02389 0
M  V30 3184 C 345.972 1.38597 -1.36459 0
M  V30 3185 O 345.227 1.89634 -0.483458 0
M  V30 3186 C 345.526 0.286226 -3.56252 0
M  V30 3187 C 345.192 -0.952416 -4.40726 0
M  V30 3188 C 343.854 -1.29199 -4.63531 0
M  V30 3189 C 346.206 -1.77655 -4.89988 0
M  V30 3190 C 343.534 -2.45553 -5.32842 0
M  V30 3191 C 345.886 -2.93147 -5.60578 0
M  V30 3192 C 344.55 -3.27505 -5.81633 0
M  V30 3193 H 343.82 0.0245755 -0.740592 0
M  V30 3194 H 346.467 -0.640124 -1.80485 0
M  V30 3195 H 344.772 1.07587 -3.76739 0
M  V30 3196 H 346.469 0.726473 -3.94365 0
M  V30 3197 H 343.059 -0.677881 -4.23205 0
M  V30 3198 H 347.243 -1.52737 -4.72213 0
M  V30 3199 H 342.499 -2.72431 -5.47349 0
M  V30 3200 H 346.673 -3.57344 -5.97727 0
M  V30 3201 H 344.3 -4.1777 -6.35116 0
M  V30 3202 N 345.875 1.56104 -0.216619 0
M  V30 3203 C 347.124 1.97348 0.416744 0
M  V30 3204 C 347.437 1.10715 1.6125 0
M  V30 3205 O 348.643 1.41836 2.31506 0
M  V30 3206 C 347.099 3.51059 0.792835 0
M  V30 3207 C 346.707 4.46387 -0.379828 0
M  V30 3208 C 348.451 4.01026 1.39208 0
M  V30 3209 C 346.358 5.91397 0.0184223 0
M  V30 3210 H 345.288 0.736942 0.159475 0
M  V30 3211 H 347.939 1.80827 -0.31205 0
M  V30 3212 H 346.321 3.63162 1.57891 0
M  V30 3213 H 347.495 4.46029 -1.15737 0
M  V30 3214 H 345.81 4.06734 -0.891979 0
M  V30 3215 H 348.407 5.0686 1.70286 0
M  V30 3216 H 348.75 3.46587 2.30614 0
M  V30 3217 H 349.283 3.92125 0.669537 0
M  V30 3218 H 346.022 6.49807 -0.862002 0
M  V30 3219 H 345.542 5.94961 0.760384 0
M  V30 3220 H 347.221 6.45455 0.446818 0
M  V30 3221 N 347.353 -0.0568162 1.57498 0
M  V30 3222 C 348.301 -1.08452 2.05769 0
M  V30 3223 C 349.295 -1.39164 0.965903 0
M  V30 3224 O 350.501 -1.38395 1.15095 0
M  V30 3225 H 346.876 -0.367148 0.656282 0
M  V30 3226 H 348.847 -0.651368 2.91204 0
M  V30 3227 C 347.596 -2.38543 2.52968 0
M  V30 3228 H 346.919 -2.15765 3.36579 0
M  V30 3229 H 348.359 -3.08863 2.90481 0
M  V30 3230 C 346.818 -3.05562 1.41893 0
M  V30 3231 O 347.348 -3.94262 0.769442 0
M  V30 3232 N 345.554 -2.6643 1.16032 0
M  V30 3233 H 345.101 -1.94387 1.6903 0
M  V30 3234 H 345.059 -3.11593 0.419219 0
M  V30 3235 N 348.832 -1.54138 -0.328536 0
M  V30 3236 C 349.78 -1.83894 -1.42428 0
M  V30 3237 C 350.774 -0.710478 -1.53781 0
M  V30 3238 O 351.98 -0.894062 -1.56226 0
M  V30 3239 H 348.355 -0.582837 -0.475189 0
M  V30 3240 H 350.326 -2.75537 -1.14552 0
M  V30 3241 C 349.075 -2.07866 -2.78724 0
M  V30 3242 H 348.398 -2.94158 -2.7076 0
M  V30 3243 H 349.838 -2.32644 -3.54476 0
M  V30 3244 C 348.297 -0.868689 -3.25508 0
M  V30 3245 O 348.827 -0.0754908 -4.01629 0
M  V30 3246 N 347.033 -0.681711 -2.82491 0
M  V30 3247 H 346.58 -1.32838 -2.20708 0
M  V30 3248 H 346.538 0.126374 -3.14146 0
M  V30 3249 N 350.31 0.590341 -1.46126 0
M  V30 3250 C 351.24 1.71032 -1.58966 0
M  V30 3251 C 352.221 1.64302 -0.440335 0
M  V30 3252 O 353.406 1.82436 -0.665634 0
M  V30 3253 C 350.536 3.09665 -1.57241 0
M  V30 3254 C 349.49 3.31221 -2.71066 0
M  V30 3255 C 348.816 4.70303 -2.54399 0
M  V30 3256 C 350.116 3.19796 -4.1295 0
M  V30 3257 H 351.81 1.60543 -2.52718 0
M  V30 3258 H 349.356 0.770933 -1.21625 0
M  V30 3259 H 351.309 3.87831 -1.64819 0
M  V30 3260 H 350.033 3.21036 -0.600289 0
M  V30 3261 H 348.692 2.55452 -2.62944 0
M  V30 3262 H 348.34 4.78429 -1.55288 0
M  V30 3263 H 348.04 4.85679 -3.30741 0
M  V30 3264 H 349.564 5.50647 -2.63857 0
M  V30 3265 H 350.978 3.87815 -4.22223 0
M  V30 3266 H 349.375 3.46696 -4.89818 0
M  V30 3267 H 350.445 2.16983 -4.33643 0
M  V30 3268 N 351.788 1.33704 0.83433 0
M  V30 3269 C 353.204 1.13137 1.12571 0
M  V30 3270 C 353.404 -0.0747261 2.01361 0
M  V30 3271 O 352.46 -0.753647 2.4099 0
M  V30 3272 C 353.773 2.42105 1.78342 0
M  V30 3273 C 355.321 2.48054 1.90888 0
M  V30 3274 C 355.796 3.76995 2.60075 0
M  V30 3275 N 357.287 3.78092 2.67584 0
M  V30 3276 C 358.022 4.74574 3.21818 0
M  V30 3277 N 357.518 5.81434 3.76705 0
M  V30 3278 N 359.311 4.62044 3.20112 0
M  V30 3279 H 351.462 2.11 0.243489 0
M  V30 3280 H 353.725 0.932532 0.17055 0
M  V30 3281 H 353.431 3.30391 1.20561 0
M  V30 3282 H 353.305 2.54594 2.7832 0
M  V30 3283 H 355.692 1.60215 2.47821 0
M  V30 3284 H 355.773 2.39502 0.898459 0
M  V30 3285 H 355.417 4.65219 2.03799 0
M  V30 3286 H 355.347 3.82825 3.61597 0
M  V30 3287 H 357.838 3.00865 2.28667 0
M  V30 3288 H 358.151 6.51084 4.16305 0
M  V30 3289 H 356.496 5.85163 3.7498 0
M  V30 3290 H 359.687 3.77716 2.76493 0
M  V30 3291 H 359.86 5.37406 3.62076 0
M  V30 3292 N 353.266 -1.05314 1.17247 0
M  V30 3293 C 354.682 -1.30452 0.919473 0
M  V30 3294 C 354.882 -1.9703 -0.42209 0
M  V30 3295 O 353.938 -2.24311 -1.15935 0
M  V30 3296 C 355.251 -2.17551 2.07586 0
M  V30 3297 C 356.799 -2.30937 2.11275 0
M  V30 3298 C 357.274 -3.21396 3.26296 0
M  V30 3299 N 358.765 -3.28981 3.26076 0
M  V30 3300 C 359.5 -3.99095 4.11716 0
M  V30 3301 N 358.996 -4.71648 5.07465 0
M  V30 3302 N 360.789 -3.95247 3.9967 0
M  V30 3303 H 352.94 -0.604988 2.03602 0
M  V30 3304 H 355.203 -0.329368 0.888944 0
M  V30 3305 H 354.909 -1.75921 3.0454 0
M  V30 3306 H 354.783 -3.18182 2.02584 0
M  V30 3307 H 357.17 -2.71809 1.14907 0
M  V30 3308 H 357.251 -1.2994 2.20339 0
M  V30 3309 H 356.895 -2.81238 4.22927 0
M  V30 3310 H 356.825 -4.22395 3.14467 0
M  V30 3311 H 359.316 -2.77286 2.5675 0
M  V30 3312 H 359.629 -5.22705 5.6921 0
M  V30 3313 H 357.974 -4.70594 5.11435 0
M  V30 3314 H 361.165 -3.37691 3.24164 0
M  V30 3315 H 361.338 -4.4962 4.66632 0
M  V30 3316 N 354.744 -0.972509 -1.24016 0
M  V30 3317 C 356.16 -0.679827 -1.44397 0
M  V30 3318 C 356.36 0.756716 -1.86751 0
M  V30 3319 O 355.416 1.53007 -2.00861 0
M  V30 3320 C 356.729 -1.66803 -2.50195 0
M  V30 3321 C 358.277 -1.68119 -2.64017 0
M  V30 3322 C 358.752 -2.65748 -3.73017 0
M  V30 3323 N 360.243 -2.64219 -3.8045 0
M  V30 3324 C 360.978 -3.36433 -4.64328 0
M  V30 3325 N 360.474 -4.1818 -5.52356 0
M  V30 3326 N 362.267 -3.25235 -4.58453 0
M  V30 3327 H 354.418 -1.90059 -0.948228 0
M  V30 3328 H 356.681 -0.818527 -0.478245 0
M  V30 3329 H 356.387 -2.69498 -2.25973 0
M  V30 3330 H 356.261 -1.4446 -3.48441 0
M  V30 3331 H 358.648 -0.661319 -2.87594 0
M  V30 3332 H 358.729 -1.94525 -1.66113 0
M  V30 3333 H 358.373 -3.67872 -3.50189 0
M  V30 3334 H 358.303 -2.36619 -4.70446 0
M  V30 3335 H 360.794 -2.04887 -3.17537 0
M  V30 3336 H 361.107 -4.70157 -6.13329 0
M  V30 3337 H 359.452 -4.22273 -5.52006 0
M  V30 3338 H 362.643 -2.60829 -3.88698 0
M  V30 3339 H 362.816 -3.81776 -5.23594 0
M  V30 3340 N 356.222 1.38976 -0.743202 0
M  V30 3341 C 357.468 2.0064 -0.295189 0
M  V30 3342 C 357.801 1.5885 1.11716 0
M  V30 3343 O 357.076 0.821181 1.76315 0
M  V30 3344 C 357.359 3.578 -0.406318 0
M  V30 3345 C 357.212 4.09586 -1.85903 0
M  V30 3346 C 358.531 4.39616 0.206439 0
M  V30 3347 H 355.65 0.728935 -0.108733 0
M  V30 3348 H 358.292 1.65067 -0.940897 0
M  V30 3349 H 356.442 3.88235 0.143419 0
M  V30 3350 H 358.114 3.89837 -2.46627 0
M  V30 3351 H 356.357 3.6284 -2.3776 0
M  V30 3352 H 357.028 5.18708 -1.888 0
M  V30 3353 H 359.504 4.15273 -0.262283 0
M  V30 3354 H 358.38 5.48812 0.0983819 0
M  V30 3355 H 358.641 4.22754 1.2935 0
M  V30 3356 N 357.7 0.491464 1.49741 0
M  V30 3357 C 358.977 -0.118984 1.95238 0
M  V30 3358 C 359.357 -1.55044 1.43264 0
M  V30 3359 O 358.705 -2.19287 0.642287 0
M  V30 3360 C 358.915 -0.0414187 3.48975 0
M  V30 3361 C 360.263 -0.220133 4.24029 0
M  V30 3362 O 361.287 -0.117055 3.56008 0
M  V30 3363 O 360.146 -0.430567 5.44801 0
M  V30 3364 H 357.24 -0.100536 0.820866 0
M  V30 3365 H 359.786 0.553322 1.60426 0
M  V30 3366 H 358.558 0.957214 3.79412 0
M  V30 3367 H 358.181 -0.754292 3.9038 0
M  V30 3368 N 359.178 -1.55987 0.224894 0
M  V30 3369 C 360.11 -2.17722 -0.716224 0
M  V30 3370 C 361.123 -1.14723 -1.15509 0
M  V30 3371 O 362.312 -1.41688 -1.08567 0
M  V30 3372 C 359.412 -2.74873 -1.98238 0
M  V30 3373 C 358.585 -4.03074 -1.69853 0
M  V30 3374 C 357.644 -4.44757 -2.81208 0
M  V30 3375 O 356.67 -5.11587 -2.49534 0
M  V30 3376 N 357.872 -4.10716 -4.10235 0
M  V30 3377 H 360.637 -2.99109 -0.188123 0
M  V30 3378 H 358.198 -1.6184 0.0440123 0
M  V30 3379 H 360.19 -2.99727 -2.7193 0
M  V30 3380 H 358.76 -1.9777 -2.42086 0
M  V30 3381 H 357.98 -3.86041 -0.797875 0
M  V30 3382 H 359.268 -4.86701 -1.48324 0
M  V30 3383 H 358.666 -3.57019 -4.38809 0
M  V30 3384 H 357.223 -4.40455 -4.80461 0
M  V30 3385 N 360.656 0.0484629 -1.57525 0
M  V30 3386 C 361.586 1.0549 -2.08313 0
M  V30 3387 C 362.567 1.38929 -0.981463 0
M  V30 3388 O 363.752 1.48151 -1.25558 0
M  V30 3389 C 360.882 2.36162 -2.54646 0
M  V30 3390 C 359.836 2.17016 -3.68901 0
M  V30 3391 C 359.162 3.53278 -4.01371 0
M  V30 3392 C 360.462 1.57219 -4.98076 0
M  V30 3393 H 362.156 0.632195 -2.92649 0
M  V30 3394 H 359.702 0.302654 -1.40784 0
M  V30 3395 H 361.655 3.06882 -2.88793 0
M  V30 3396 H 360.379 2.80456 -1.67368 0
M  V30 3397 H 359.038 1.48733 -3.35073 0
M  V30 3398 H 358.686 3.95185 -3.11188 0
M  V30 3399 H 358.386 3.41299 -4.78318 0
M  V30 3400 H 359.91 4.25391 -4.38035 0
M  V30 3401 H 361.324 2.17832 -5.30304 0
M  V30 3402 H 359.721 1.55871 -5.79503 0
M  V30 3403 H 360.791 0.535956 -4.81929 0
M  V30 3404 N 362.134 1.5431 0.320358 0
M  V30 3405 C 363.081 1.83918 1.39438 0
M  V30 3406 C 364.051 0.686525 1.51248 0
M  V30 3407 O 365.236 0.933269 1.66417 0
M  V30 3408 C 362.376 2.075 2.75749 0
M  V30 3409 C 361.489 3.35177 2.72544 0
M  V30 3410 C 360.624 3.48704 4.00723 0
M  V30 3411 C 359.663 4.70244 3.91838 0
M  V30 3412 N 358.8 4.80679 5.11754 0
M  V30 3413 H 363.64 2.75544 1.13489 0
M  V30 3414 H 361.177 1.36459 0.549309 0
M  V30 3415 H 363.135 2.19166 3.54996 0
M  V30 3416 H 361.765 1.19163 3 0
M  V30 3417 H 360.817 3.32233 1.85271 0
M  V30 3418 H 362.129 4.24534 2.61863 0
M  V30 3419 H 361.283 3.59928 4.88402 0
M  V30 3420 H 360.022 2.57445 4.14214 0
M  V30 3421 H 359.027 4.59072 3.02544 0
M  V30 3422 H 360.252 5.6289 3.7991 0
M  V30 3423 H 358.198 3.92337 5.25745 0
M  V30 3424 H 358.115 5.64007 5.0342 0
M  V30 3425 H 359.383 4.96239 6.01138 0
M  V30 3426 N 363.613 -0.582584 1.46437 0
M  V30 3427 C 364.838 -1.37168 1.55563 0
M  V30 3428 C 365.263 -1.87061 0.19743 0
M  V30 3429 O 364.621 -1.61572 -0.822451 0
M  V30 3430 C 364.669 -2.53511 2.56446 0
M  V30 3431 O 363.773 -3.54953 2.09958 0
M  V30 3432 H 363.114 -0.408494 0.523477 0
M  V30 3433 H 365.644 -0.706646 1.9201 0
M  V30 3434 H 365.654 -3.00426 2.76058 0
M  V30 3435 H 364.329 -2.16549 3.55076 0
M  V30 3436 H 362.906 -3.14516 2.00334 0
M  V30 3437 N 365.091 -1.34144 -0.827227 0
M  V30 3438 C 366.368 -1.16844 -1.56865 0
M  V30 3439 C 366.748 0.260654 -2.09485 0
M  V30 3440 O 366.096 1.26138 -1.9053 0
M  V30 3441 C 366.306 -2.21939 -2.6934 0
M  V30 3442 C 367.654 -2.56695 -3.3822 0
M  V30 3443 O 368.678 -2.20695 -2.79593 0
M  V30 3444 O 367.537 -3.18518 -4.44082 0
M  V30 3445 H 364.631 -0.452669 -0.692112 0
M  V30 3446 H 367.177 -1.45763 -0.868973 0
M  V30 3447 H 365.949 -3.17882 -2.28182 0
M  V30 3448 H 365.572 -1.94172 -3.46962 0
M  V30 3449 N 366.569 1.04691 -1.17803 0
M  V30 3450 C 367.501 2.12571 -0.857097 0
M  V30 3451 C 368.514 1.62174 0.142647 0
M  V30 3452 O 369.703 1.78301 -0.0843387 0
M  V30 3453 C 366.803 3.37915 -0.258216 0
M  V30 3454 C 365.976 4.1757 -1.30207 0
M  V30 3455 C 365.035 5.2125 -0.720029 0
M  V30 3456 O 364.061 5.51888 -1.39314 0
M  V30 3457 N 365.263 5.78466 0.485507 0
M  V30 3458 H 368.028 2.40698 -1.78562 0
M  V30 3459 H 365.589 1.20831 -1.07757 0
M  V30 3460 H 367.581 4.04442 0.144584 0
M  V30 3461 H 366.151 3.07281 0.574199 0
M  V30 3462 H 365.371 3.46458 -1.88043 0
M  V30 3463 H 366.659 4.67586 -2.00601 0
M  V30 3464 H 366.057 5.55866 1.05022 0
M  V30 3465 H 364.614 6.4649 0.830307 0
M  V30 3466 N 368.047 0.979072 1.23499 0
M  V30 3467 C 369.272 0.664845 1.96455 0
M  V30 3468 C 369.697 -0.761287 1.72006 0
M  V30 3469 O 369.055 -1.51837 0.990713 0
M  V30 3470 C 369.103 0.959479 3.47601 0
M  V30 3471 O 368.207 0.0508168 4.12369 0
M  V30 3472 H 367.548 0.250185 0.615064 0
M  V30 3473 H 370.078 1.31231 1.5697 0
M  V30 3474 H 370.088 0.895642 3.98048 0
M  V30 3475 H 368.763 1.99876 3.64723 0
M  V30 3476 H 367.34 0.16895 3.72517 0
M  V30 3477 N 369.525 -1.3858 0.750561 0
M  V30 3478 C 370.941 -1.53759 0.427824 0
M  V30 3479 C 371.141 -1.71401 -1.05943 0
M  V30 3480 O 370.197 -1.72331 -1.84549 0
M  V30 3481 C 371.51 -2.74642 1.22443 0
M  V30 3482 C 373.058 -2.88489 1.2142 0
M  V30 3483 C 373.533 -4.12329 1.9937 0
M  V30 3484 N 375.024 -4.194 1.96616 0
M  V30 3485 C 375.759 -5.14209 2.53727 0
M  V30 3486 N 375.255 -6.14709 3.19539 0
M  V30 3487 N 377.048 -5.06537 2.43673 0
M  V30 3488 H 369.199 -1.25377 1.71447 0
M  V30 3489 H 371.462 -0.608844 0.726645 0
M  V30 3490 H 371.168 -2.68 2.27747 0
M  V30 3491 H 371.042 -3.67745 0.839273 0
M  V30 3492 H 373.429 -2.94614 0.169232 0
M  V30 3493 H 373.51 -1.96406 1.63885 0
M  V30 3494 H 373.154 -4.06966 3.03877 0
M  V30 3495 H 373.084 -5.03486 1.54302 0
M  V30 3496 H 375.575 -3.47421 1.48684 0
M  V30 3497 H 375.888 -6.8354 3.60545 0
M  V30 3498 H 374.233 -6.1505 3.23633 0
M  V30 3499 H 377.424 -4.26962 1.91889 0
M  V30 3500 H 377.597 -5.80245 2.88479 0
M  V30 3501 N 371.003 -0.499398 -1.49478 0
M  V30 3502 C 371.933 0.269244 -2.31943 0
M  V30 3503 C 372.914 0.964054 -1.40143 0
M  V30 3504 O 374.099 0.955767 -1.69052 0
M  V30 3505 C 371.229 1.33504 -3.20615 0
M  V30 3506 C 370.183 0.760202 -4.21195 0
M  V30 3507 C 369.509 1.9264 -4.98792 0
M  V30 3508 C 370.809 -0.247661 -5.21712 0
M  V30 3509 H 372.503 -0.419082 -2.96452 0
M  V30 3510 H 370.049 -0.202988 -1.42562 0
M  V30 3511 H 372.002 1.88048 -3.77115 0
M  V30 3512 H 370.726 2.05253 -2.54045 0
M  V30 3513 H 369.385 0.23653 -3.65836 0
M  V30 3514 H 369.033 2.63154 -4.28671 0
M  V30 3515 H 368.733 1.54785 -5.66847 0
M  V30 3516 H 370.257 2.4762 -5.58137 0
M  V30 3517 H 371.671 0.209579 -5.72917 0
M  V30 3518 H 370.068 -0.541962 -5.97648 0
M  V30 3519 H 371.138 -1.16409 -4.7072 0
M  V30 3520 N 372.481 1.55866 -0.233164 0
M  V30 3521 C 373.758 1.90471 0.444988 0
M  V30 3522 C 374.138 1.15209 1.7689 0
M  V30 3523 O 373.486 0.265119 2.26957 0
M  V30 3524 C 373.696 3.4333 0.626559 0
M  V30 3525 C 375.044 4.14319 0.92871 0
M  V30 3526 O 376.068 3.48993 0.712926 0
M  V30 3527 O 374.927 5.29846 1.33887 0
M  V30 3528 H 372.021 0.792347 0.236885 0
M  V30 3529 H 374.567 1.67437 -0.276211 0
M  V30 3530 H 373.339 3.90095 -0.306822 0
M  V30 3531 H 372.962 3.72181 1.39881 0
M  V30 3532 N 373.959 -0.0401083 1.57549 0
M  V30 3533 C 375.184 -0.748931 1.93406 0
M  V30 3534 C 375.609 -1.68686 0.832274 0
M  V30 3535 O 374.967 -1.80047 -0.212818 0
M  V30 3536 C 375.015 -1.4916 3.28304 0
M  V30 3537 O 374.119 -2.6042 3.19774 0
M  V30 3538 H 373.46 -0.202212 0.63246 0
M  V30 3539 H 375.99 0.00112086 2.046 0
M  V30 3540 H 376 -1.86395 3.62934 0
M  V30 3541 H 374.675 -0.80364 4.08062 0
M  V30 3542 H 373.252 -2.25808 2.96758 0
M  V30 3543 N 375.437 -1.54477 -0.31217 0
M  V30 3544 C 376.347 -1.87695 -1.4074 0
M  V30 3545 C 377.363 -0.769975 -1.56036 0
M  V30 3546 O 378.539 -1.06537 -1.70915 0
M  V30 3547 C 375.604 -2.10755 -2.75287 0
M  V30 3548 C 374.665 -3.34514 -2.69071 0
M  V30 3549 C 373.898 -3.56465 -3.97201 0
M  V30 3550 O 374.121 -2.81637 -4.96021 0
M  V30 3551 O 373.055 -4.49964 -3.9977 0
M  V30 3552 H 376.881 -2.80849 -1.15574 0
M  V30 3553 H 374.466 -1.40526 -0.507228 0
M  V30 3554 H 376.348 -2.27188 -3.54913 0
M  V30 3555 H 375.023 -1.20788 -3.0032 0
M  V30 3556 H 373.93 -3.23456 -1.87955 0
M  V30 3557 H 375.263 -4.24575 -2.48992 0
M  V30 3558 N 376.915 0.57481 -1.46744 0
M  V30 3559 C 377.845 1.69337 -1.60771 0
M  V30 3560 C 378.826 1.63825 -0.457736 0
M  V30 3561 O 380.011 1.8172 -0.684947 0
M  V30 3562 C 377.141 3.0798 -1.60517 0
M  V30 3563 C 376.095 3.28327 -2.74564 0
M  V30 3564 C 375.421 4.67578 -2.59373 0
M  V30 3565 C 376.721 3.15398 -4.16319 0
M  V30 3566 H 378.415 1.57853 -2.54407 0
M  V30 3567 H 375.961 0.75799 -1.22436 0
M  V30 3568 H 377.914 3.86061 -1.68923 0
M  V30 3569 H 376.638 3.20381 -0.634305 0
M  V30 3570 H 375.297 2.52649 -2.65639 0
M  V30 3571 H 374.945 4.76755 -1.60353 0
M  V30 3572 H 374.645 4.82144 -3.35873 0
M  V30 3573 H 376.169 5.47817 -2.69682 0
M  V30 3574 H 377.583 3.83315 -4.26313 0
M  V30 3575 H 375.98 3.41482 -4.93468 0
M  V30 3576 H 377.05 2.12372 -4.3592 0
M  V30 3577 N 378.394 1.34581 0.820102 0
M  V30 3578 C 379.341 1.2639 1.93117 0
M  V30 3579 C 380.311 0.138554 1.65521 0
M  V30 3580 O 381.496 0.320004 1.88097 0
M  V30 3581 C 378.636 1.02812 3.29429 0
M  V30 3582 C 377.749 2.24146 3.693 0
M  V30 3583 C 376.884 1.93829 4.94574 0
M  V30 3584 C 375.923 3.1129 5.27034 0
M  V30 3585 N 375.06 2.80838 6.43486 0
M  V30 3586 H 379.9 2.21408 1.99455 0
M  V30 3587 H 377.437 1.10077 0.975784 0
M  V30 3588 H 379.395 0.871788 4.0799 0
M  V30 3589 H 378.025 0.114612 3.22596 0
M  V30 3590 H 377.077 2.50691 2.86109 0
M  V30 3591 H 378.389 3.11899 3.89257 0
M  V30 3592 H 377.543 1.74948 5.80929 0
M  V30 3593 H 376.282 1.03341 4.76626 0
M  V30 3594 H 375.287 3.30764 4.39175 0
M  V30 3595 H 376.512 4.02561 5.4692 0
M  V30 3596 H 374.458 1.92929 6.26988 0
M  V30 3597 H 374.375 3.62123 6.63629 0
M  V30 3598 H 375.643 2.65467 7.32903 0
M  V30 3599 N 379.872 -1.04064 1.18357 0
M  V30 3600 C 380.82 -2.14187 0.907007 0
M  V30 3601 C 381.814 -1.68879 -0.132725 0
M  V30 3602 O 383.02 -1.79993 0.0154248 0
M  V30 3603 H 379.395 -0.699585 0.275835 0
M  V30 3604 H 381.366 -2.34711 1.84264 0
M  V30 3605 C 380.115 -3.44785 0.449254 0
M  V30 3606 H 379.438 -3.80058 1.24081 0
M  V30 3607 H 380.878 -4.22974 0.294737 0
M  V30 3608 C 379.337 -3.26391 -0.834909 0
M  V30 3609 O 379.867 -3.53973 -1.89911 0
M  V30 3610 N 378.073 -2.79726 -0.787523 0
M  V30 3611 H 377.62 -2.5748 0.0787347 0
M  V30 3612 H 377.578 -2.67798 -1.64716 0
M  V30 3613 N 381.35 -0.985608 -1.22978 0
M  V30 3614 C 382.283 -0.47487 -2.23204 0
M  V30 3615 C 383.261 0.460865 -1.55932 0
M  V30 3616 O 384.445 0.388105 -1.84461 0
M  V30 3617 C 381.572 0.312427 -3.37256 0
M  V30 3618 C 380.618 -0.568219 -4.22698 0
M  V30 3619 S 381.451 -2.01919 -4.95973 0
M  V30 3620 C 382.607 -1.24118 -6.1347 0
M  V30 3621 H 382.84 -1.32419 -2.66181 0
M  V30 3622 H 380.373 -0.792005 -1.32539 0
M  V30 3623 H 382.331 0.760645 -4.03391 0
M  V30 3624 H 380.992 1.13693 -2.92801 0
M  V30 3625 H 380.185 0.0371657 -5.03986 0
M  V30 3626 H 379.787 -0.952897 -3.61657 0
M  V30 3627 H 382.079 -0.505121 -6.75614 0
M  V30 3628 H 383.022 -2.02907 -6.78406 0
M  V30 3629 H 383.43 -0.757669 -5.59392 0
M  V30 3630 N 382.828 1.3818 -0.7579 0
M  V30 3631 C 383.76 2.2901 -0.0932177 0
M  V30 3632 C 384.773 1.47958 0.679136 0
M  V30 3633 O 385.962 1.70773 0.519514 0
M  V30 3634 C 383.062 3.26953 0.89192 0
M  V30 3635 C 382.235 4.37045 0.176303 0
M  V30 3636 C 381.294 5.15148 1.07281 0
M  V30 3637 O 380.32 5.66616 0.541728 0
M  V30 3638 N 381.522 5.28542 2.40049 0
M  V30 3639 H 384.287 2.86694 -0.873303 0
M  V30 3640 H 381.848 1.50007 -0.609054 0
M  V30 3641 H 383.84 3.76083 1.49479 0
M  V30 3642 H 382.41 2.70136 1.57306 0
M  V30 3643 H 381.63 3.89493 -0.607328 0
M  V30 3644 H 382.918 5.07801 -0.318718 0
M  V30 3645 H 382.316 4.88285 2.85647 0
M  V30 3646 H 380.873 5.8103 2.95376 0
M  V30 3647 N 384.306 0.507319 1.49211 0
M  V30 3648 C 385.583 -0.0982702 1.95353 0
M  V30 3649 C 385.963 -1.53516 1.449 0
M  V30 3650 O 385.311 -2.18594 0.66551 0
M  V30 3651 C 385.521 -0.00440283 3.49 0
M  V30 3652 C 386.869 -0.175147 4.24239 0
M  V30 3653 O 387.893 -0.0792891 3.56112 0
M  V30 3654 O 386.752 -0.37276 5.45227 0
M  V30 3655 H 383.846 -0.0918236 0.821887 0
M  V30 3656 H 386.392 0.570307 1.5983 0
M  V30 3657 H 385.164 0.997402 3.78375 0
M  V30 3658 H 384.787 -0.712845 3.91158 0
M  V30 3659 N 385.784 -1.5574 0.241426 0
M  V30 3660 C 386.717 -2.17168 -0.700935 0
M  V30 3661 C 387.695 -1.12206 -1.1768 0
M  V30 3662 O 388.879 -1.40565 -1.25593 0
M  V30 3663 C 386.006 -2.76796 -1.95196 0
M  V30 3664 C 385.052 -3.94764 -1.61442 0
M  V30 3665 S 385.885 -5.30613 -0.72182 0
M  V30 3666 C 387.041 -5.93691 -1.98197 0
M  V30 3667 H 387.274 -2.96761 -0.178882 0
M  V30 3668 H 384.807 -1.54378 0.0259299 0
M  V30 3669 H 386.765 -3.11787 -2.67019 0
M  V30 3670 H 385.426 -1.9716 -2.44514 0
M  V30 3671 H 384.619 -4.35057 -2.54443 0
M  V30 3672 H 384.221 -3.61022 -0.976672 0
M  V30 3673 H 386.513 -6.10874 -2.92983 0
M  V30 3674 H 387.456 -6.89258 -1.62262 0
M  V30 3675 H 387.864 -5.22709 -2.13156 0
M  V30 3676 N 387.262 0.0317525 -1.57568 0
M  V30 3677 C 388.508 0.724175 -1.8943 0
M  V30 3678 C 388.841 1.75149 -0.838836 0
M  V30 3679 O 388.116 1.93948 0.146422 0
M  V30 3680 C 388.399 1.39615 -3.31933 0
M  V30 3681 C 388.252 0.382537 -4.4817 0
M  V30 3682 C 389.571 2.33084 -3.73309 0
M  V30 3683 H 386.69 0.261797 -0.688935 0
M  V30 3684 H 389.332 -0.013017 -1.89996 0
M  V30 3685 H 387.482 2.02451 -3.31581 0
M  V30 3686 H 389.154 -0.243689 -4.60656 0
M  V30 3687 H 387.397 -0.29844 -4.32772 0
M  V30 3688 H 388.068 0.891145 -5.44759 0
M  V30 3689 H 390.544 1.80295 -3.7501 0
M  V30 3690 H 389.42 2.77084 -4.73831 0
M  V30 3691 H 389.681 3.19643 -3.05419 0
M  V30 3692 N 388.74 1.54641 0.303973 0
M  V30 3693 C 389.65 1.88439 1.39743 0
M  V30 3694 C 390.666 0.778239 1.55626 0
M  V30 3695 O 391.842 1.07442 1.70347 0
M  V30 3696 C 388.907 2.12212 2.74166 0
M  V30 3697 C 387.968 3.35936 2.67293 0
M  V30 3698 C 387.201 3.58566 3.95305 0
M  V30 3699 O 387.424 2.84263 4.9452 0
M  V30 3700 O 386.358 4.52078 3.97378 0
M  V30 3701 H 390.184 2.81458 1.14083 0
M  V30 3702 H 387.769 1.40793 0.499768 0
M  V30 3703 H 389.651 2.29067 3.53704 0
M  V30 3704 H 388.326 1.22379 2.99675 0
M  V30 3705 H 387.233 3.24448 1.86237 0
M  V30 3706 H 388.566 4.2589 2.46736 0
M  V30 3707 N 390.218 -0.567019 1.47046 0
M  V30 3708 C 391.495 -1.3276 1.43646 0
M  V30 3709 C 391.875 -2.1071 0.128186 0
M  V30 3710 O 391.223 -2.10441 -0.890326 0
M  V30 3711 C 391.433 -2.2404 2.67595 0
M  V30 3712 C 392.781 -2.85372 3.14401 0
M  V30 3713 O 393.805 -2.34346 2.68254 0
M  V30 3714 O 392.664 -3.78091 3.946 0
M  V30 3715 H 389.758 -0.597293 0.571988 0
M  V30 3716 H 392.304 -0.586735 1.59234 0
M  V30 3717 H 391.076 -1.65975 3.54356 0
M  V30 3718 H 390.699 -3.05439 2.54544 0
M  V30 3719 N 391.696 -1.35014 -0.812953 0
M  V30 3720 C 392.926 -1.30841 -1.59888 0
M  V30 3721 C 393.334 0.117576 -1.88834 0
M  V30 3722 O 392.677 1.07807 -1.48739 0
M  V30 3723 C 392.739 -2.0412 -2.95931 0
M  V30 3724 C 392.403 -3.53336 -2.89832 0
M  V30 3725 C 393.4 -4.48052 -2.63714 0
M  V30 3726 C 391.085 -3.95894 -3.0915 0
M  V30 3727 C 393.079 -5.833 -2.56982 0
M  V30 3728 C 390.766 -5.31239 -3.0204 0
M  V30 3729 C 391.764 -6.24754 -2.75991 0
M  V30 3730 O 391.452 -7.57617 -2.68833 0
M  V30 3731 H 391.184 -0.451215 -0.50337 0
M  V30 3732 H 393.738 -1.78354 -1.01877 0
M  V30 3733 H 391.968 -1.51235 -3.559 0
M  V30 3734 H 393.657 -1.93107 -3.57022 0
M  V30 3735 H 394.423 -4.16492 -2.48515 0
M  V30 3736 H 390.302 -3.23495 -3.28438 0
M  V30 3737 H 393.846 -6.56263 -2.36569 0
M  V30 3738 H 389.743 -5.62415 -3.16796 0
M  V30 3739 H 390.511 -7.67469 -2.84487 0
M  V30 3740 N 393.175 1.03435 -1.18907 0
M  V30 3741 C 394.591 1.28973 -0.940111 0
M  V30 3742 C 394.791 1.97676 0.390691 0
M  V30 3743 O 393.847 2.26127 1.12352 0
M  V30 3744 C 395.16 2.14221 -2.11021 0
M  V30 3745 C 396.708 2.27547 -2.14922 0
M  V30 3746 C 397.183 3.16164 -3.31367 0
M  V30 3747 N 398.674 3.23752 -3.31269 0
M  V30 3748 C 399.409 3.92495 -4.18014 0
M  V30 3749 N 398.905 4.63515 -5.14904 0
M  V30 3750 N 400.698 3.88838 -4.05908 0
M  V30 3751 H 392.849 0.57252 -2.04538 0
M  V30 3752 H 395.112 0.315184 -0.894071 0
M  V30 3753 H 394.818 1.71054 -3.073 0
M  V30 3754 H 394.692 3.14919 -2.0762 0
M  V30 3755 H 397.079 2.69947 -1.19217 0
M  V30 3756 H 397.16 1.26418 -2.22378 0
M  V30 3757 H 396.804 2.74474 -4.27348 0
M  V30 3758 H 396.734 4.17339 -3.21148 0
M  V30 3759 H 399.225 2.73167 -2.61129 0
M  V30 3760 H 399.538 5.13583 -5.77453 0
M  V30 3761 H 397.883 4.62398 -5.18857 0
M  V30 3762 H 401.074 3.32491 -3.29495 0
M  V30 3763 H 401.247 4.4214 -4.73726 0
M  V30 3764 N 394.653 0.992116 1.22453 0
M  V30 3765 C 395.601 0.534644 2.26372 0
M  V30 3766 C 396.595 -0.414293 1.64256 0
M  V30 3767 O 397.801 -0.286899 1.77699 0
M  V30 3768 H 394.176 0.154502 0.735957 0
M  V30 3769 H 396.147 1.42256 2.62309 0
M  V30 3770 C 394.896 -0.135815 3.47435 0
M  V30 3771 H 394.219 0.585311 3.95492 0
M  V30 3772 H 395.659 -0.419374 4.21921 0
M  V30 3773 C 394.118 -1.37089 3.07747 0
M  V30 3774 O 394.648 -2.46629 3.17076 0
M  V30 3775 N 392.854 -1.24585 2.62539 0
M  V30 3776 H 392.401 -0.354542 2.55149 0
M  V30 3777 H 392.359 -2.07327 2.36353 0
M  V30 3778 N 396.131 -1.37776 0.765217 0
M  V30 3779 C 397.078 -2.30342 0.145274 0
M  V30 3780 C 398.048 -1.5077 -0.696971 0
M  V30 3781 O 399.233 -1.79362 -0.650689 0
M  V30 3782 C 396.373 -3.37227 -0.732939 0
M  V30 3783 C 395.486 -4.31819 0.125199 0
M  V30 3784 C 394.621 -5.25777 -0.757107 0
M  V30 3785 C 393.66 -6.12012 0.103963 0
M  V30 3786 N 392.797 -6.98232 -0.735953 0
M  V30 3787 H 397.637 -2.8278 0.940195 0
M  V30 3788 H 395.174 -1.39211 0.475255 0
M  V30 3789 H 397.132 -3.97818 -1.25686 0
M  V30 3790 H 395.762 -2.86171 -1.49353 0
M  V30 3791 H 394.814 -3.7259 0.766865 0
M  V30 3792 H 396.126 -4.92509 0.789683 0
M  V30 3793 H 395.28 -5.91541 -1.34776 0
M  V30 3794 H 394.019 -4.65481 -1.45529 0
M  V30 3795 H 393.024 -5.45233 0.707197 0
M  V30 3796 H 394.249 -6.74379 0.799381 0
M  V30 3797 H 392.195 -6.40472 -1.41887 0
M  V30 3798 H 392.112 -7.55891 -0.128624 0
M  V30 3799 H 393.38 -7.68393 -1.31121 0
M  V30 3800 N 397.609 -0.515225 -1.4894 0
M  V30 3801 C 398.839 0.0205735 -2.0659 0
M  V30 3802 C 399.247 1.30064 -1.37405 0
M  V30 3803 O 398.59 1.78087 -0.450632 0
M  V30 3804 C 398.652 0.330124 -3.57981 0
M  V30 3805 C 398.316 -0.854295 -4.48944 0
M  V30 3806 C 399.313 -1.7487 -4.89609 0
M  V30 3807 C 396.998 -1.05712 -4.9105 0
M  V30 3808 C 398.992 -2.82996 -5.71132 0
M  V30 3809 C 396.679 -2.14154 -5.72347 0
M  V30 3810 C 397.677 -3.0263 -6.12294 0
M  V30 3811 O 397.365 -4.09198 -6.91962 0
M  V30 3812 H 397.097 -0.0236833 -0.675585 0
M  V30 3813 H 399.651 -0.715956 -1.92518 0
M  V30 3814 H 397.881 1.12044 -3.70112 0
M  V30 3815 H 399.57 0.806233 -3.97812 0
M  V30 3816 H 400.336 -1.60388 -4.57712 0
M  V30 3817 H 396.215 -0.377788 -4.59449 0
M  V30 3818 H 399.759 -3.52083 -6.02232 0
M  V30 3819 H 395.656 -2.28626 -6.03656 0
M  V30 3820 H 396.424 -4.06726 -7.10293 0
M  V30 3821 N 399.087 1.5561 -0.249682 0
M  V30 3822 C 399.997 2.25143 0.659375 0
M  V30 3823 C 401.013 1.2685 1.19101 0
M  V30 3824 O 402.189 1.59732 1.22669 0
M  V30 3825 C 399.254 2.93945 1.8384 0
M  V30 3826 C 398.315 4.07655 1.34596 0
M  V30 3827 C 397.548 4.73167 2.46878 0
M  V30 3828 O 397.771 4.37768 3.65671 0
M  V30 3829 O 396.705 5.61623 2.16478 0
M  V30 3830 H 400.531 3.03545 0.0968698 0
M  V30 3831 H 398.116 1.49389 -0.018074 0
M  V30 3832 H 399.998 3.37271 2.52638 0
M  V30 3833 H 398.673 2.18481 2.38847 0
M  V30 3834 H 397.58 3.68839 0.625174 0
M  V30 3835 H 398.913 4.84946 0.841941 0
M  V30 3836 N 400.565 -0.0233959 1.57583 0
M  V30 3837 C 401.842 -0.748794 1.807 0
M  V30 3838 C 402.222 -1.9327 0.849106 0
M  V30 3839 O 401.57 -2.28247 -0.107468 0
M  V30 3840 C 401.78 -1.17651 3.28571 0
M  V30 3841 C 403.128 -1.59008 3.93702 0
M  V30 3842 O 404.152 -1.27094 3.32755 0
M  V30 3843 O 403.011 -2.18264 5.01022 0
M  V30 3844 H 400.105 -0.362578 0.743281 0
M  V30 3845 H 402.651 0.000261958 1.697 0
M  V30 3846 H 401.423 -0.331603 3.89892 0
M  V30 3847 H 401.046 -1.98541 3.44481 0
M  V30 3848 N 402.043 -1.548 -0.295768 0
M  V30 3849 C 402.953 -1.89177 -1.38742 0
M  V30 3850 C 403.969 -0.786481 -1.55211 0
M  V30 3851 O 405.145 -1.08344 -1.69775 0
M  V30 3852 C 402.21 -2.13663 -2.73036 0
M  V30 3853 C 401.271 -3.37349 -2.65508 0
M  V30 3854 C 400.504 -3.60658 -3.93398 0
M  V30 3855 O 400.727 -2.86882 -4.93006 0
M  V30 3856 O 399.661 -4.54179 -3.94975 0
M  V30 3857 H 403.487 -2.82059 -1.12589 0
M  V30 3858 H 401.072 -1.41056 -0.492295 0
M  V30 3859 H 402.954 -2.3094 -3.52484 0
M  V30 3860 H 401.629 -1.23967 -2.99022 0
M  V30 3861 H 400.536 -3.25431 -1.84514 0
M  V30 3862 H 401.869 -4.27192 -2.44474 0
M  V30 3863 N 403.521 0.559213 -1.47345 0
M  V30 3864 C 404.77 1.31281 -1.53128 0
M  V30 3865 C 405.083 1.94602 -0.197344 0
M  V30 3866 O 406.289 2.71173 -0.133154 0
M  V30 3867 C 404.745 2.38051 -2.69925 0
M  V30 3868 C 404.353 1.8093 -4.0984 0
M  V30 3869 C 406.097 3.14604 -2.84999 0
M  V30 3870 C 404.004 2.85468 -5.1794 0
M  V30 3871 H 402.934 0.493614 -0.569966 0
M  V30 3872 H 405.585 0.594155 -1.73615 0
M  V30 3873 H 403.967 3.12822 -2.42814 0
M  V30 3874 H 405.141 1.12544 -4.46845 0
M  V30 3875 H 403.456 1.16967 -3.99634 0
M  V30 3876 H 406.053 3.92666 -3.62929 0
M  V30 3877 H 406.396 3.68665 -1.93369 0
M  V30 3878 H 406.929 2.46945 -3.1187 0
M  V30 3879 H 403.668 2.36264 -6.1144 0
M  V30 3880 H 403.188 3.52269 -4.85455 0
M  V30 3881 H 404.867 3.48996 -5.44803 0
M  V30 3882 N 404.999 1.35443 0.805782 0
M  V30 3883 C 405.947 1.28465 1.93906 0
M  V30 3884 C 406.941 0.17943 1.68447 0
M  V30 3885 O 408.147 0.345459 1.76654 0
M  V30 3886 H 404.522 0.399528 0.637088 0
M  V30 3887 H 406.493 2.24206 1.96912 0
M  V30 3888 C 405.242 1.07432 3.30687 0
M  V30 3889 H 404.565 1.91716 3.50835 0
M  V30 3890 H 406.005 1.06591 4.10383 0
M  V30 3891 C 404.464 -0.22179 3.36169 0
M  V30 3892 O 404.994 -1.21731 3.82811 0
M  V30 3893 N 403.2 -0.260841 2.89427 0
M  V30 3894 H 402.747 0.549884 2.51663 0
M  V30 3895 H 402.705 -1.12777 2.93477 0
M  V30 3896 N 406.477 -1.02803 1.19454 0
M  V30 3897 C 407.424 -2.11099 0.933046 0
M  V30 3898 C 408.394 -1.65571 -0.132447 0
M  V30 3899 O 409.579 -1.90797 0.00987576 0
M  V30 3900 C 406.719 -3.41763 0.478747 0
M  V30 3901 C 405.832 -4.00833 1.6111 0
M  V30 3902 C 404.967 -5.19511 1.10825 0
M  V30 3903 C 404.006 -5.70639 2.21445 0
M  V30 3904 N 403.143 -6.80589 1.72461 0
M  V30 3905 H 407.983 -2.32804 1.86028 0
M  V30 3906 H 405.52 -1.14179 0.927441 0
M  V30 3907 H 407.478 -4.16736 0.196745 0
M  V30 3908 H 406.108 -3.20166 -0.411493 0
M  V30 3909 H 405.16 -3.23066 2.00829 0
M  V30 3910 H 406.472 -4.34794 2.4445 0
M  V30 3911 H 405.626 -6.01645 0.781533 0
M  V30 3912 H 404.365 -4.87086 0.244606 0
M  V30 3913 H 403.37 -4.87116 2.54947 0
M  V30 3914 H 404.595 -6.05102 3.08267 0
M  V30 3915 H 402.541 -6.50016 0.884056 0
M  V30 3916 H 402.458 -7.13681 2.49389 0
M  V30 3917 H 403.726 -7.66317 1.42755 0
M  V30 3918 N 407.956 -0.998596 -1.21925 0
M  V30 3919 C 409.372 -0.710303 -1.42923 0
M  V30 3920 C 409.572 0.716933 -1.88314 0
M  V30 3921 O 408.628 1.48712 -2.04062 0
M  V30 3922 C 409.941 -1.72072 -2.466 0
M  V30 3923 C 411.489 -1.73681 -2.60392 0
M  V30 3924 C 411.964 -2.73601 -3.67296 0
M  V30 3925 N 413.455 -2.7223 -3.7476 0
M  V30 3926 C 414.19 -3.46206 -4.57087 0
M  V30 3927 N 413.686 -4.29802 -5.43362 0
M  V30 3928 N 415.479 -3.34886 -4.51451 0
M  V30 3929 H 407.63 -1.92028 -0.9077 0
M  V30 3930 H 409.893 -0.828487 -0.460775 0
M  V30 3931 H 409.599 -2.74231 -2.20206 0
M  V30 3932 H 409.473 -1.51818 -3.45299 0
M  V30 3933 H 411.86 -0.722173 -2.86127 0
M  V30 3934 H 411.941 -1.98005 -1.61949 0
M  V30 3935 H 411.585 -3.75217 -3.42307 0
M  V30 3936 H 411.515 -2.46545 -4.65321 0
M  V30 3937 H 414.006 -2.11576 -3.1312 0
M  V30 3938 H 414.319 -4.83061 -6.03218 0
M  V30 3939 H 412.664 -4.33887 -5.42925 0
M  V30 3940 H 415.855 -2.69015 -3.83078 0
M  V30 3941 H 416.028 -3.92796 -5.15379 0
M  V30 3942 N 409.434 1.37368 -0.772513 0
M  V30 3943 C 410.662 2.03942 -0.348588 0
M  V30 3944 C 411.077 1.58264 1.02947 0
M  V30 3945 O 410.434 0.764246 1.65727 0
M  V30 3946 C 410.485 3.5946 -0.38351 0
M  V30 3947 O 410.206 4.03468 -1.70721 0
M  V30 3948 C 411.707 4.4327 0.0519152 0
M  V30 3949 H 408.927 0.654931 -0.145966 0
M  V30 3950 H 411.471 1.75686 -1.04665 0
M  V30 3951 H 409.626 3.86486 0.265978 0
M  V30 3952 H 410.04 4.97991 -1.64636 0
M  V30 3953 H 411.514 5.51995 -0.0236733 0
M  V30 3954 H 411.991 4.2514 1.10238 0
M  V30 3955 H 412.597 4.21471 -0.569415 0
M  V30 3956 N 410.912 0.523116 1.48665 0
M  V30 3957 C 411.86 -0.256859 2.31177 0
M  V30 3958 C 412.854 -0.94199 1.40794 0
M  V30 3959 O 414.06 -0.867157 1.57735 0
M  V30 3960 H 410.435 -0.1017 0.745091 0
M  V30 3961 H 412.406 0.458739 2.94853 0
M  V30 3962 C 411.155 -1.29503 3.22683 0
M  V30 3963 H 410.478 -0.777248 3.92172 0
M  V30 3964 H 411.918 -1.81233 3.83315 0
M  V30 3965 C 410.377 -2.32501 2.43813 0
M  V30 3966 O 410.907 -3.3881 2.15803 0
M  V30 3967 N 409.113 -2.05538 2.05432 0
M  V30 3968 H 408.66 -1.19104 2.28412 0
M  V30 3969 H 408.618 -2.74676 1.52973 0
M  V30 3970 N 412.39 -1.55475 0.257931 0
M  V30 3971 C 413.353 -2.20551 -0.623706 0
M  V30 3972 C 414.353 -1.17809 -1.09443 0
M  V30 3973 O 415.543 -1.42823 -0.997362 0
M  V30 3974 C 412.675 -2.85784 -1.8585 0
M  V30 3975 H 413.868 -2.99848 -0.0557743 0
M  V30 3976 H 411.421 -1.56298 0.0084422 0
M  V30 3977 H 412.156 -2.10453 -2.46739 0
M  V30 3978 H 411.941 -3.61057 -1.52907 0
M  V30 3979 H 413.431 -3.35553 -2.48584 0
M  V30 3980 N 413.868 0.0150385 -1.57593 0
M  V30 3981 C 414.778 1.02791 -2.10882 0
M  V30 3982 C 415.794 1.38702 -1.0506 0
M  V30 3983 O 416.97 1.47739 -1.36877 0
M  V30 3984 C 414.035 2.30568 -2.58919 0
M  V30 3985 C 413.096 2.01108 -3.79281 0
M  V30 3986 C 412.329 3.22794 -4.25018 0
M  V30 3987 O 412.552 4.33959 -3.70183 0
M  V30 3988 O 411.486 3.07672 -5.17322 0
M  V30 3989 H 415.312 0.604973 -2.97613 0
M  V30 3990 H 412.897 0.23292 -1.47573 0
M  V30 3991 H 414.779 3.05662 -2.90084 0
M  V30 3992 H 413.454 2.72129 -1.75293 0
M  V30 3993 H 412.361 1.23537 -3.53114 0
M  V30 3994 H 413.694 1.64394 -4.63935 0
M  V30 3995 N 415.346 1.54954 0.287554 0
M  V30 3996 C 416.294 1.87606 1.37502 0
M  V30 3997 C 417.288 0.751001 1.51843 0
M  V30 3998 O 418.494 0.935169 1.53801 0
M  V30 3999 H 414.869 0.595231 0.459569 0
M  V30 4000 H 416.84 2.78477 1.07206 0
M  V30 4001 C 415.589 2.15183 2.73115 0
M  V30 4002 H 414.912 3.01234 2.62866 0
M  V30 4003 H 416.352 2.4196 3.48183 0
M  V30 4004 C 414.811 0.954686 3.2309 0
M  V30 4005 O 415.341 0.181949 4.01288 0
M  V30 4006 N 413.547 0.756368 2.80584 0
M  V30 4007 H 413.094 1.38643 2.17108 0
M  V30 4008 H 413.052 -0.0430391 3.14371 0
M  V30 4009 N 416.824 -0.551391 1.4764 0
M  V30 4010 C 417.734 -1.68525 1.63207 0
M  V30 4011 C 418.75 -1.6621 0.514815 0
M  V30 4012 O 419.926 -1.85551 0.783113 0
M  V30 4013 C 416.991 -3.05025 1.64805 0
M  V30 4014 C 416.052 -3.18362 2.88 0
M  V30 4015 C 415.285 -4.4835 2.89513 0
M  V30 4016 O 415.508 -5.34163 2.00065 0
M  V30 4017 O 414.442 -4.65602 3.81443 0
M  V30 4018 H 418.268 -1.58333 2.59161 0
M  V30 4019 H 415.853 -0.722063 1.30792 0
M  V30 4020 H 417.735 -3.86245 1.68502 0
M  V30 4021 H 416.41 -3.15587 0.720197 0
M  V30 4022 H 415.317 -2.36518 2.89845 0
M  V30 4023 H 416.65 -3.12707 3.80099 0
M  V30 4024 N 418.302 -1.35869 -0.798587 0
M  V30 4025 C 419.549 -1.29588 -1.55606 0
M  V30 4026 C 419.877 0.127456 -1.94082 0
M  V30 4027 O 419.132 1.09461 -1.62225 0
M  V30 4028 C 419.431 -2.1556 -2.85077 0
M  V30 4029 C 419.097 -3.6424 -2.65781 0
M  V30 4030 C 417.759 -4.04766 -2.60227 0
M  V30 4031 C 420.111 -4.58547 -2.47758 0
M  V30 4032 C 417.439 -5.37753 -2.34603 0
M  V30 4033 C 419.791 -5.91742 -2.23662 0
M  V30 4034 C 418.455 -6.31402 -2.16534 0
M  V30 4035 H 417.725 -0.474197 -0.569402 0
M  V30 4036 H 420.372 -1.67839 -0.922086 0
M  V30 4037 H 418.677 -1.70216 -3.52893 0
M  V30 4038 H 420.374 -2.08031 -3.42818 0
M  V30 4039 H 416.964 -3.32086 -2.70956 0
M  V30 4040 H 421.148 -4.28117 -2.51056 0
M  V30 4041 H 416.404 -5.67474 -2.2756 0
M  V30 4042 H 420.578 -6.6439 -2.08708 0
M  V30 4043 H 418.205 -7.34381 -1.96441 0
M  V30 4044 N 419.78 1.02168 -1.19998 0
M  V30 4045 C 421.026 1.75945 -1.00852 0
M  V30 4046 C 421.359 1.88702 0.458828 0
M  V30 4047 O 420.634 1.40911 1.34069 0
M  V30 4048 C 420.917 3.18154 -1.68671 0
M  V30 4049 C 420.77 3.13224 -3.22817 0
M  V30 4050 C 422.089 4.16711 -1.41561 0
M  V30 4051 H 419.208 0.638673 -0.367785 0
M  V30 4052 H 421.85 1.19222 -1.4794 0
M  V30 4053 H 420 3.66586 -1.28636 0
M  V30 4054 H 421.672 2.72635 -3.72112 0
M  V30 4055 H 419.915 2.50751 -3.53986 0
M  V30 4056 H 420.586 4.13728 -3.65422 0
M  V30 4057 H 423.062 3.76913 -1.76284 0
M  V30 4058 H 421.938 5.14391 -1.91553 0
M  V30 4059 H 422.199 4.40774 -0.342193 0
M  V30 4060 N 421.258 1.00505 1.21394 0
M  V30 4061 C 422.486 0.706609 1.9446 0
M  V30 4062 C 422.901 -0.73081 1.74082 0
M  V30 4063 O 422.258 -1.49446 1.04747 0
M  V30 4064 C 422.309 1.01824 3.46863 0
M  V30 4065 O 422.03 2.39919 3.66566 0
M  V30 4066 C 423.531 0.739216 4.37093 0
M  V30 4067 H 420.751 0.260394 0.618414 0
M  V30 4068 H 423.295 1.34311 1.54211 0
M  V30 4069 H 421.45 0.427343 3.85036 0
M  V30 4070 H 421.864 2.50784 4.6066 0
M  V30 4071 H 423.338 1.00744 5.42729 0
M  V30 4072 H 423.815 -0.326746 4.37983 0
M  V30 4073 H 424.421 1.31173 4.04566 0
M  V30 4074 N 422.737 -1.36956 0.779787 0
M  V30 4075 C 423.986 -1.98738 0.344405 0
M  V30 4076 C 424.299 -1.62596 -1.08728 0
M  V30 4077 O 425.505 -2.1754 -1.62445 0
M  V30 4078 C 423.961 -3.5544 0.564829 0
M  V30 4079 C 423.569 -4.00514 2.0073 0
M  V30 4080 C 425.313 -4.24059 0.193471 0
M  V30 4081 C 423.22 -5.49957 2.17489 0
M  V30 4082 H 422.15 -0.743561 0.12503 0
M  V30 4083 H 424.801 -1.56381 0.960057 0
M  V30 4084 H 423.183 -3.95817 -0.120397 0
M  V30 4085 H 424.357 -3.71362 2.72814 0
M  V30 4086 H 422.672 -3.44703 2.336 0
M  V30 4087 H 425.269 -5.33874 0.297097 0
M  V30 4088 H 425.612 -4.07378 -0.857263 0
M  V30 4089 H 426.145 -3.89012 0.831556 0
M  V30 4090 H 422.884 -5.71574 3.2091 0
M  V30 4091 H 422.404 -5.80767 1.49899 0
M  V30 4092 H 424.083 -6.16043 1.97738 0
M  V30 4093 N 424.215 -0.530993 -1.48385 0
M  V30 4094 C 425.162 0.231223 -2.29639 0
M  V30 4095 C 426.132 0.932864 -1.37429 0
M  V30 4096 O 427.317 0.933692 -1.66394 0
M  V30 4097 C 424.457 1.27155 -3.2082 0
M  V30 4098 C 423.57 0.578655 -4.28107 0
M  V30 4099 C 422.705 1.602 -5.06467 0
M  V30 4100 C 421.744 0.892625 -6.05556 0
M  V30 4101 N 420.881 1.86157 -6.76971 0
M  V30 4102 H 425.721 -0.467848 -2.94305 0
M  V30 4103 H 423.258 -0.242556 -1.45086 0
M  V30 4104 H 425.216 1.88703 -3.72085 0
M  V30 4105 H 423.846 1.939 -2.58075 0
M  V30 4106 H 422.898 -0.150782 -3.80101 0
M  V30 4107 H 424.21 0.0217065 -4.98795 0
M  V30 4108 H 423.364 2.29173 -5.61751 0
M  V30 4109 H 422.103 2.19285 -4.35621 0
M  V30 4110 H 421.108 0.188829 -5.49476 0
M  V30 4111 H 422.333 0.307878 -6.78402 0
M  V30 4112 H 420.279 2.44147 -6.08875 0
M  V30 4113 H 420.196 1.35608 -7.43738 0
M  V30 4114 H 421.464 2.54325 -7.36844 0
M  V30 4115 N 425.693 1.55336 -0.266172 0
M  V30 4116 C 426.64 2.22172 0.625165 0
M  V30 4117 C 427.61 1.19211 1.15663 0
M  V30 4118 O 428.795 1.47723 1.20758 0
M  V30 4119 C 425.935 2.93972 1.8076 0
M  V30 4120 C 425.048 4.11632 1.31084 0
M  V30 4121 C 424.183 4.71099 2.45436 0
M  V30 4122 C 423.222 5.8097 1.92718 0
M  V30 4123 N 422.359 6.34538 3.00509 0
M  V30 4124 H 427.199 2.9796 0.0485582 0
M  V30 4125 H 424.736 1.47095 0.0122024 0
M  V30 4126 H 426.694 3.33811 2.50251 0
M  V30 4127 H 425.324 2.20623 2.35638 0
M  V30 4128 H 424.376 3.76975 0.509326 0
M  V30 4129 H 425.688 4.90893 0.884633 0
M  V30 4130 H 424.842 5.13612 3.22936 0
M  V30 4131 H 423.581 3.91096 2.91368 0
M  V30 4132 H 422.586 5.37916 1.13695 0
M  V30 4133 H 423.811 6.62836 1.47733 0
M  V30 4134 H 421.757 5.57433 3.45839 0
M  V30 4135 H 421.674 7.09046 2.62279 0
M  V30 4136 H 422.942 6.81709 3.78011 0
M  V30 4137 N 427.171 -0.0066808 1.57599 0
M  V30 4138 C 428.448 -0.729586 1.81484 0
M  V30 4139 C 428.828 -1.92359 0.869558 0
M  V30 4140 O 428.176 -2.28348 -0.0832533 0
M  V30 4141 C 428.386 -1.1416 3.29801 0
M  V30 4142 C 429.734 -1.54823 3.95367 0
M  V30 4143 O 430.758 -1.23558 3.34084 0
M  V30 4144 O 429.617 -2.12937 5.03309 0
M  V30 4145 H 426.711 -0.354674 0.747085 0
M  V30 4146 H 429.257 0.0182609 1.6969 0
M  V30 4147 H 428.029 -0.290231 3.90222 0
M  V30 4148 H 427.652 -1.94876 3.46568 0
M  V30 4149 N 428.649 -1.55105 -0.279332 0
M  V30 4150 C 429.895 -1.75672 -1.01327 0
M  V30 4151 C 430.228 -0.552739 -1.86168 0
M  V30 4152 O 429.503 0.449827 -1.89227 0
M  V30 4153 C 429.786 -3.05825 -1.90114 0
M  V30 4154 C 429.639 -4.36565 -1.08309 0
M  V30 4155 C 430.958 -3.31975 -2.8893 0
M  V30 4156 H 428.077 -0.639149 -0.366957 0
M  V30 4157 H 430.719 -1.87833 -0.286154 0
M  V30 4158 H 428.869 -2.95588 -2.52111 0
M  V30 4159 H 430.541 -4.58751 -0.484314 0
M  V30 4160 H 428.784 -4.32076 -0.386362 0
M  V30 4161 H 429.455 -5.23946 -1.73737 0
M  V30 4162 H 431.931 -3.41963 -2.37067 0
M  V30 4163 H 430.807 -4.2432 -3.48201 0
M  V30 4164 H 431.068 -2.51309 -3.63725 0
M  V30 4165 N 430.127 0.543554 -1.4793 0
M  V30 4166 C 431.404 1.30458 -1.4574 0
M  V30 4167 C 431.784 2.1048 -0.161692 0
M  V30 4168 O 431.132 2.11831 0.856734 0
M  V30 4169 C 431.342 2.19754 -2.71126 0
M  V30 4170 C 432.69 2.80334 -3.18901 0
M  V30 4171 O 433.714 2.30049 -2.71948 0
M  V30 4172 O 432.573 3.71766 -4.00565 0
M  V30 4173 H 429.667 0.588117 -0.581418 0
M  V30 4174 H 432.213 0.561328 -1.60147 0
M  V30 4175 H 430.985 1.60316 -3.56952 0
M  V30 4176 H 430.608 3.01351 -2.59371 0
M  V30 4177 N 431.605 1.3629 0.791371 0
M  V30 4178 C 432.853 1.30154 1.5461 0
M  V30 4179 C 433.174 -0.119409 1.94634 0
M  V30 4180 O 432.444 -1.05924 1.64794 0
M  V30 4181 H 431.024 0.478784 0.573389 0
M  V30 4182 H 433.686 1.70565 0.94306 0
M  V30 4183 H 432.782 1.92762 2.45457 0
M  V30 4184 N 433.083 -1.0153 1.20538 0
M  V30 4185 C 434.046 -2.0826 0.957098 0
M  V30 4186 C 435.046 -1.60657 -0.0678655 0
M  V30 4187 O 436.236 -1.73385 0.168332 0
M  V30 4188 C 433.368 -3.38033 0.441188 0
M  V30 4189 H 434.561 -2.31719 1.90384 0
M  V30 4190 H 432.114 -1.1835 1.02093 0
M  V30 4191 H 432.849 -3.20249 -0.510961 0
M  V30 4192 H 432.634 -3.73911 1.18038 0
M  V30 4193 H 434.124 -4.16613 0.287009 0
M  V30 4194 N 434.561 -1.01147 -1.20859 0
M  V30 4195 C 435.791 -0.715872 -1.93801 0
M  V30 4196 C 436.199 0.726592 -1.74692 0
M  V30 4197 O 435.542 1.50397 -1.05482 0
M  V30 4198 C 435.604 -0.965269 -3.46299 0
M  V30 4199 C 435.268 -2.39584 -3.89164 0
M  V30 4200 C 436.265 -3.3764 -3.95342 0
M  V30 4201 C 433.95 -2.73522 -4.21297 0
M  V30 4202 C 435.944 -4.67698 -4.33056 0
M  V30 4203 C 433.631 -4.03794 -4.58687 0
M  V30 4204 C 434.629 -5.00693 -4.64538 0
M  V30 4205 O 434.317 -6.28635 -5.01072 0
M  V30 4206 H 434.049 -0.262524 -0.622942 0
M  V30 4207 H 436.603 -1.35413 -1.54443 0
M  V30 4208 H 434.833 -0.269847 -3.85757 0
M  V30 4209 H 436.522 -0.662051 -4.00464 0
M  V30 4210 H 437.288 -3.12757 -3.70686 0
M  V30 4211 H 433.167 -1.9879 -4.15937 0
M  V30 4212 H 436.711 -5.4333 -4.37537 0
M  V30 4213 H 432.608 -4.28459 -4.82797 0
M  V30 4214 H 433.376 -6.32847 -5.19083 0
M  V30 4215 N 436.039 1.36541 -0.78704 0
M  V30 4216 C 436.972 2.27831 -0.129765 0
M  V30 4217 C 437.95 1.47105 0.692732 0
M  V30 4218 O 439.134 1.7641 0.664222 0
M  V30 4219 C 436.261 3.28577 0.821883 0
M  V30 4220 C 435.307 4.26422 0.0814771 0
M  V30 4221 S 436.14 5.20919 -1.24112 0
M  V30 4222 C 437.296 6.25212 -0.293409 0
M  V30 4223 H 437.529 2.83229 -0.903811 0
M  V30 4224 H 435.062 1.43046 -0.581144 0
M  V30 4225 H 437.02 3.87123 1.3655 0
M  V30 4226 H 435.681 2.72096 1.56916 0
M  V30 4227 H 434.874 4.97554 0.803485 0
M  V30 4228 H 434.476 3.71944 -0.391589 0
M  V30 4229 H 436.768 6.75435 0.528622 0
M  V30 4230 H 437.711 7.01378 -0.973344 0
M  V30 4231 H 438.119 5.64407 0.102196 0
M  V30 4232 N 437.518 0.538854 1.48102 0
M  V30 4233 C 438.746 0.0123136 2.06896 0
M  V30 4234 C 439.161 -1.27312 1.39417 0
M  V30 4235 O 438.518 -1.75949 0.484582 0
M  V30 4236 C 438.569 -0.206118 3.60912 0
M  V30 4237 O 438.29 1.0284 4.25859 0
M  V30 4238 C 439.791 -0.772033 4.36526 0
M  V30 4239 H 437.011 0.0375239 0.66995 0
M  V30 4240 H 439.555 0.747032 1.90367 0
M  V30 4241 H 437.71 -0.89091 3.77017 0
M  V30 4242 H 438.124 0.814654 5.18135 0
M  V30 4243 H 439.598 -0.874251 5.45033 0
M  V30 4244 H 440.075 -1.77904 4.01555 0
M  V30 4245 H 440.681 -0.123526 4.25121 0
M  V30 4246 N 438.996 -1.55193 0.274407 0
M  V30 4247 C 439.943 -2.225 -0.613374 0
M  V30 4248 C 440.913 -1.19823 -1.15029 0
M  V30 4249 O 442.098 -1.48362 -1.19973 0
M  V30 4250 C 439.238 -2.94927 -1.79199 0
M  V30 4251 C 438.351 -4.12322 -1.28899 0
M  V30 4252 C 437.486 -4.72394 -2.42934 0
M  V30 4253 C 436.525 -5.81984 -1.89634 0
M  V30 4254 N 435.662 -6.36123 -2.9714 0
M  V30 4255 H 440.502 -2.97982 -0.032756 0
M  V30 4256 H 438.039 -1.47099 -0.00440146 0
M  V30 4257 H 439.997 -3.35134 -2.48478 0
M  V30 4258 H 438.627 -2.2187 -2.34465 0
M  V30 4259 H 437.679 -3.7724 -0.489327 0
M  V30 4260 H 438.991 -4.91355 -0.858587 0
M  V30 4261 H 438.145 -5.15317 -3.20208 0
M  V30 4262 H 436.884 -3.92636 -2.8929 0
M  V30 4263 H 435.889 -5.38511 -1.1084 0
M  V30 4264 H 437.114 -6.6361 -1.44215 0
M  V30 4265 H 435.06 -5.59259 -3.42878 0
M  V30 4266 H 434.977 -7.10427 -2.58515 0
M  V30 4267 H 436.245 -6.83704 -3.74391 0
M  V30 4268 N 440.474 -0.00167713 -1.576 0
M  V30 4269 C 441.72 0.683832 -1.90923 0
M  V30 4270 C 442.053 1.7333 -0.875799 0
M  V30 4271 O 441.328 1.94215 0.10525 0
M  V30 4272 C 441.611 1.32543 -3.3482 0
M  V30 4273 C 441.464 0.287387 -4.48881 0
M  V30 4274 C 442.783 2.25114 -3.78169 0
M  V30 4275 H 439.902 0.247125 -0.694333 0
M  V30 4276 H 442.544 -0.0533149 -1.89925 0
M  V30 4277 H 440.694 1.95372 -3.35801 0
M  V30 4278 H 442.366 -0.341346 -4.60035 0
M  V30 4279 H 440.609 -0.39017 -4.32042 0
M  V30 4280 H 441.28 0.775393 -5.46527 0
M  V30 4281 H 443.756 1.723 -3.7875 0
M  V30 4282 H 442.632 2.66971 -4.79602 0
M  V30 4283 H 442.893 3.13092 -3.12131 0
M  V30 4284 N 441.952 1.55251 0.271103 0
M  V30 4285 C 443.229 1.66664 1.02384 0
M  V30 4286 C 443.609 0.534363 2.04225 0
M  V30 4287 O 442.957 -0.465337 2.23712 0
M  V30 4288 C 443.167 3.05961 1.67895 0
M  V30 4289 C 444.515 3.63772 2.18986 0
M  V30 4290 O 445.539 3.08606 1.77878 0
M  V30 4291 O 444.398 4.60429 2.94393 0
M  V30 4292 H 441.492 0.676957 0.475035 0
M  V30 4293 H 444.038 1.67589 0.26681 0
M  V30 4294 H 442.81 3.79815 0.941071 0
M  V30 4295 H 442.433 3.08943 2.5028 0
M  V30 4296 N 443.43 -0.535701 1.48216 0
M  V30 4297 C 444.36 -1.65014 1.65204 0
M  V30 4298 C 445.341 -1.62554 0.501011 0
M  V30 4299 O 446.526 -1.7984 0.732886 0
M  V30 4300 C 443.656 -3.03616 1.68626 0
M  V30 4301 C 442.61 -3.20932 2.83172 0
M  V30 4302 C 441.936 -4.60537 2.71679 0
M  V30 4303 C 443.236 -3.04249 4.24535 0
M  V30 4304 H 444.93 -1.51053 2.58502 0
M  V30 4305 H 442.476 -0.725262 1.24402 0
M  V30 4306 H 444.429 -3.81446 1.79099 0
M  V30 4307 H 443.153 -3.18587 0.719026 0
M  V30 4308 H 441.812 -2.45517 2.72244 0
M  V30 4309 H 441.46 -4.72336 1.72937 0
M  V30 4310 H 441.16 -4.73069 3.48538 0
M  V30 4311 H 442.684 -5.40475 2.84112 0
M  V30 4312 H 444.098 -3.71877 4.36326 0
M  V30 4313 H 442.495 -3.28278 5.02348 0
M  V30 4314 H 443.565 -2.00739 4.41397 0
M  V30 4315 N 444.908 -1.36708 -0.784132 0
M  V30 4316 C 445.84 -1.27333 -1.90575 0
M  V30 4317 C 446.853 -0.191706 -1.61667 0
M  V30 4318 O 448.042 -0.446854 -1.72816 0
M  V30 4319 C 445.142 -0.943177 -3.25511 0
M  V30 4320 C 444.315 -2.12776 -3.82158 0
M  V30 4321 C 443.374 -1.76983 -4.95544 0
M  V30 4322 O 442.4 -2.49134 -5.11782 0
M  V30 4323 N 443.602 -0.706624 -5.76183 0
M  V30 4324 H 446.367 -2.23974 -1.99138 0
M  V30 4325 H 443.928 -1.30171 -0.962656 0
M  V30 4326 H 445.92 -0.684799 -3.98864 0
M  V30 4327 H 444.49 -0.0657333 -3.12531 0
M  V30 4328 H 443.71 -2.54863 -3.0073 0
M  V30 4329 H 444.998 -2.91904 -4.16737 0
M  V30 4330 H 444.396 -0.107643 -5.65598 0
M  V30 4331 H 442.953 -0.50808 -6.49817 0
M  V30 4332 N 446.386 1.0089 -1.21074 0
M  V30 4333 C 447.349 2.0775 -0.968129 0
M  V30 4334 C 448.349 1.6069 0.0593445 0
M  V30 4335 O 449.539 1.73293 -0.177525 0
M  V30 4336 C 446.671 3.37794 -0.459108 0
M  V30 4337 H 447.864 2.30707 -1.9161 0
M  V30 4338 H 445.417 1.17807 -1.02719 0
M  V30 4339 H 446.152 3.20516 0.49397 0
M  V30 4340 H 445.937 3.7328 -1.20019 0
M  V30 4341 H 447.427 4.16454 -0.309099 0
M  V30 4342 N 447.864 1.01787 1.20321 0
M  V30 4343 C 448.811 0.589197 2.23153 0
M  V30 4344 C 449.781 -0.391367 1.61423 0
M  V30 4345 O 450.966 -0.290518 1.88575 0
M  V30 4346 C 448.106 -0.0650747 3.45039 0
M  V30 4347 C 447.219 0.960207 4.21194 0
M  V30 4348 C 446.354 0.276854 5.30478 0
M  V30 4349 C 445.393 1.2888 5.98378 0
M  V30 4350 N 444.53 0.632031 6.99249 0
M  V30 4351 H 449.37 1.47071 2.59179 0
M  V30 4352 H 446.907 0.736192 1.27352 0
M  V30 4353 H 448.865 -0.461552 4.14639 0
M  V30 4354 H 447.495 -0.910233 3.09701 0
M  V30 4355 H 446.547 1.47484 3.50646 0
M  V30 4356 H 447.859 1.72977 4.67847 0
M  V30 4357 H 447.013 -0.175056 6.06447 0
M  V30 4358 H 445.752 -0.525004 4.84866 0
M  V30 4359 H 444.757 1.75109 5.21169 0
M  V30 4360 H 445.982 2.09196 6.46076 0
M  V30 4361 H 443.928 -0.149935 6.55829 0
M  V30 4362 H 443.845 1.33964 7.44036 0
M  V30 4363 H 445.113 0.203755 7.79234 0
M  V30 4364 N 449.342 -1.36122 0.79427 0
M  V30 4365 C 450.272 -2.32551 0.210328 0
M  V30 4366 C 451.253 -1.56884 -0.657386 0
M  V30 4367 O 452.438 -1.85014 -0.590207 0
M  V30 4368 C 449.568 -3.41128 -0.651819 0
M  V30 4369 C 448.522 -4.27842 0.116395 0
M  V30 4370 C 447.848 -5.2763 -0.86666 0
M  V30 4371 C 449.148 -5.05647 1.30837 0
M  V30 4372 H 450.842 -2.81636 1.01594 0
M  V30 4373 H 448.388 -1.35407 0.489981 0
M  V30 4374 H 450.341 -4.07581 -1.07031 0
M  V30 4375 H 449.065 -2.90622 -1.49019 0
M  V30 4376 H 447.724 -3.62952 0.515915 0
M  V30 4377 H 447.372 -4.73395 -1.70019 0
M  V30 4378 H 447.072 -5.86514 -0.35705 0
M  V30 4379 H 448.596 -5.96955 -1.28361 0
M  V30 4380 H 450.01 -5.65113 0.965393 0
M  V30 4381 H 448.407 -5.73967 1.75161 0
M  V30 4382 H 449.477 -4.37006 2.10128 0
M  V30 4383 N 450.82 -0.546701 -1.47814 0
M  V30 4384 C 452.097 0.0464413 -1.95545 0
M  V30 4385 C 452.477 1.4962 -1.48919 0
M  V30 4386 O 451.825 2.16752 -0.723232 0
M  V30 4387 C 452.035 -0.0881298 -3.48889 0
M  V30 4388 C 453.383 0.0626059 -4.24554 0
M  V30 4389 O 454.407 -0.0151555 -3.56197 0
M  V30 4390 O 453.266 0.228071 -5.46024 0
M  V30 4391 H 450.36 0.0700004 -0.824032 0
M  V30 4392 H 452.906 -0.612482 -1.58262 0
M  V30 4393 H 451.678 -1.09737 -3.75597 0
M  V30 4394 H 451.301 0.608886 -3.9291 0
M  V30 4395 N 452.299 1.55045 -0.282633 0
M  V30 4396 C 453.247 2.24254 0.617478 0
M  V30 4397 C 454.241 1.24215 1.15183 0
M  V30 4398 O 455.447 1.42123 1.10459 0
M  V30 4399 H 451.822 0.719801 0.217693 0
M  V30 4400 H 453.793 2.98398 0.0110076 0
M  V30 4401 C 452.542 2.98281 1.78672 0
M  V30 4402 H 451.865 3.75053 1.38475 0
M  V30 4403 H 453.305 3.50017 2.393 0
M  V30 4404 C 451.764 2.04184 2.67975 0
M  V30 4405 O 452.294 1.59792 3.6855 0
M  V30 4406 N 450.5 1.70526 2.35307 0
M  V30 4407 H 450.047 2.06821 1.53567 0
M  V30 4408 H 450.005 1.07839 2.95327 0
M  V30 4409 N 453.777 0.010035 1.57597 0
M  V30 4410 C 454.707 -0.976857 2.12084 0
M  V30 4411 C 455.688 -1.35191 1.03235 0
M  V30 4412 O 456.873 -1.43389 1.3097 0
M  V30 4413 C 454.003 -2.26548 2.63236 0
M  V30 4414 C 452.957 -2.03175 3.76701 0
M  V30 4415 C 452.283 -3.38138 4.14206 0
M  V30 4416 C 453.583 -1.38625 5.03568 0
M  V30 4417 H 455.277 -0.523145 2.94794 0
M  V30 4418 H 452.823 -0.250195 1.4181 0
M  V30 4419 H 454.776 -2.95952 2.99984 0
M  V30 4420 H 453.5 -2.74051 1.77661 0
M  V30 4421 H 452.159 -1.36195 3.40362 0
M  V30 4422 H 451.807 -3.83363 3.25641 0
M  V30 4423 H 451.507 -3.23312 4.90656 0
M  V30 4424 H 453.031 -4.08841 4.53521 0
M  V30 4425 H 454.445 -1.98 5.38023 0
M  V30 4426 H 452.842 -1.34256 5.84889 0
M  V30 4427 H 453.912 -0.356722 4.83586 0
M  V30 4428 N 455.255 -1.55392 -0.262866 0
M  V30 4429 C 456.187 -1.85392 -1.34768 0
M  V30 4430 C 457.2 -0.739069 -1.45057 0
M  V30 4431 O 458.389 -1.01703 -1.46693 0
M  V30 4432 C 455.489 -2.01088 -2.72795 0
M  V30 4433 C 454.662 -3.31828 -2.84972 0
M  V30 4434 C 453.721 -3.37464 -4.03738 0
M  V30 4435 O 452.747 -4.10778 -3.94018 0
M  V30 4436 N 453.949 -2.65599 -5.16176 0
M  V30 4437 H 456.714 -2.79029 -1.09375 0
M  V30 4438 H 454.275 -1.55434 -0.452981 0
M  V30 4439 H 456.267 -2.02217 -3.50557 0
M  V30 4440 H 454.837 -1.1427 -2.90966 0
M  V30 4441 H 454.057 -3.43152 -1.94012 0
M  V30 4442 H 455.345 -4.18032 -2.90045 0
M  V30 4443 H 454.743 -2.05736 -5.26962 0
M  V30 4444 H 453.3 -2.72439 -5.92132 0
M  V30 4445 N 456.733 0.527833 -1.48498 0
M  V30 4446 C 457.665 1.6482 -1.5927 0
M  V30 4447 C 458.678 1.55659 -0.476869 0
M  V30 4448 O 459.867 1.62081 -0.747806 0
M  V30 4449 C 456.967 3.0348 -1.50842 0
M  V30 4450 C 456.14 3.381 -2.77502 0
M  V30 4451 C 455.199 4.5605 -2.62497 0
M  V30 4452 O 454.225 4.59165 -3.36387 0
M  V30 4453 N 455.427 5.54353 -1.72257 0
M  V30 4454 H 458.192 1.56015 -2.55889 0
M  V30 4455 H 455.753 0.715152 -1.45249 0
M  V30 4456 H 457.745 3.80264 -1.38496 0
M  V30 4457 H 456.315 3.06352 -0.621887 0
M  V30 4458 H 455.535 2.50473 -3.04396 0
M  V30 4459 H 456.823 3.58017 -3.61527 0
M  V30 4460 H 456.221 5.54617 -1.11431 0
M  V30 4461 H 454.778 6.30347 -1.65849 0
M  V30 4462 N 458.211 1.37122 0.776871 0
M  V30 4463 C 459.121 1.34651 1.9211 0
M  V30 4464 C 460.137 0.246824 1.7224 0
M  V30 4465 O 461.313 0.48134 1.95563 0
M  V30 4466 C 458.378 1.14748 3.2716 0
M  V30 4467 C 457.439 2.34308 3.5972 0
M  V30 4468 C 456.672 2.15345 4.88326 0
M  V30 4469 O 456.895 1.13507 5.58992 0
M  V30 4470 O 455.829 3.03414 5.1983 0
M  V30 4471 H 459.655 2.31013 1.97146 0
M  V30 4472 H 457.24 1.17799 0.918901 0
M  V30 4473 H 459.122 1.05616 4.0795 0
M  V30 4474 H 457.797 0.214562 3.22988 0
M  V30 4475 H 456.704 2.49011 2.79185 0
M  V30 4476 H 458.037 3.26149 3.68629 0
M  V30 4477 N 459.689 -1.00246 1.21608 0
M  V30 4478 C 460.938 -1.73476 1.02902 0
M  V30 4479 C 461.251 -1.90643 -0.437561 0
M  V30 4480 O 462.457 -2.61105 -0.74407 0
M  V30 4481 C 460.913 -3.12079 1.79261 0
M  V30 4482 C 460.521 -3.02877 3.30106 0
M  V30 4483 C 462.265 -3.89421 1.68972 0
M  V30 4484 C 460.172 -4.36575 3.98944 0
M  V30 4485 H 459.102 -0.650408 0.381425 0
M  V30 4486 H 461.753 -1.11985 1.45367 0
M  V30 4487 H 460.135 -3.74196 1.2959 0
M  V30 4488 H 461.309 -2.49983 3.87098 0
M  V30 4489 H 459.624 -2.39022 3.40965 0
M  V30 4490 H 462.221 -4.88362 2.17731 0
M  V30 4491 H 462.564 -4.1122 0.648397 0
M  V30 4492 H 463.097 -3.33963 2.16133 0
M  V30 4493 H 459.836 -4.19978 5.03288 0
M  V30 4494 H 459.356 -4.8942 3.4674 0
M  V30 4495 H 461.035 -5.05364 4.04 0
M  V30 4496 N 461.167 -1.02423 -1.1978 0
M  V30 4497 C 462.444 -0.632802 -1.85081 0
M  V30 4498 C 462.824 0.888745 -1.9148 0
M  V30 4499 O 462.172 1.78357 -1.42832 0
M  V30 4500 C 462.382 -1.28947 -3.24305 0
M  V30 4501 C 463.73 -1.40976 -4.00513 0
M  V30 4502 O 464.754 -1.24628 -3.33686 0
M  V30 4503 O 463.613 -1.67467 -5.20209 0
M  V30 4504 H 460.707 -0.219348 -0.79738 0
M  V30 4505 H 463.253 -1.12209 -1.27307 0
M  V30 4506 H 462.025 -2.3288 -3.14456 0
M  V30 4507 H 461.648 -0.787748 -3.89718 0
M  V30 4508 N 462.645 1.35699 -0.801477 0
M  V30 4509 C 463.892 1.98913 -0.379459 0
M  V30 4510 C 464.22 1.63592 1.05204 0
M  V30 4511 O 463.475 0.888563 1.74365 0
M  V30 4512 C 463.774 3.53828 -0.504041 0
M  V30 4513 C 463.44 4.09002 -1.8981 0
M  V30 4514 C 462.102 4.23783 -2.27951 0
M  V30 4515 C 464.454 4.38939 -2.81038 0
M  V30 4516 C 461.782 4.65816 -3.56696 0
M  V30 4517 C 464.134 4.82409 -4.09224 0
M  V30 4518 C 462.798 4.95395 -4.4737 0
M  V30 4519 H 462.068 0.727874 -0.138854 0
M  V30 4520 H 464.715 1.61994 -1.02128 0
M  V30 4521 H 463.02 3.91175 0.221242 0
M  V30 4522 H 464.717 4.00687 -0.158361 0
M  V30 4523 H 461.307 3.97946 -1.59176 0
M  V30 4524 H 465.491 4.27077 -2.52821 0
M  V30 4525 H 460.747 4.74059 -3.86106 0
M  V30 4526 H 464.921 5.04535 -4.80018 0
M  V30 4527 H 462.548 5.27724 -5.47185 0
M  V30 4528 N 464.123 0.554532 1.47522 0
M  V30 4529 C 465.053 -0.182974 2.32782 0
M  V30 4530 C 466.034 -0.911377 1.43624 0
M  V30 4531 O 467.219 -0.892366 1.72483 0
M  V30 4532 C 464.349 -1.21513 3.25349 0
M  V30 4533 C 463.303 -0.603355 4.23726 0
M  V30 4534 C 462.629 -1.73995 5.05598 0
M  V30 4535 C 463.929 0.441121 5.20434 0
M  V30 4536 H 465.623 0.52882 2.94693 0
M  V30 4537 H 463.169 0.255759 1.41711 0
M  V30 4538 H 465.122 -1.73922 3.83835 0
M  V30 4539 H 463.846 -1.95683 2.61487 0
M  V30 4540 H 462.505 -0.10059 3.66462 0
M  V30 4541 H 462.153 -2.47063 4.38143 0
M  V30 4542 H 461.853 -1.3364 5.72201 0
M  V30 4543 H 463.377 -2.26735 5.66942 0
M  V30 4544 H 464.791 0.00319931 5.733 0
M  V30 4545 H 463.188 0.763402 5.95224 0
M  V30 4546 H 464.258 1.33799 4.66075 0
M  V30 4547 N 465.601 -1.54893 0.290851 0
M  V30 4548 C 466.829 -2.04343 -0.324288 0
M  V30 4549 C 467.244 -1.16859 -1.48289 0
M  V30 4550 O 466.601 -0.192018 -1.81487 0
M  V30 4551 C 466.652 -3.52756 -0.79026 0
M  V30 4552 O 466.373 -4.36913 0.322213 0
M  V30 4553 C 467.874 -4.18161 -1.4716 0
M  V30 4554 H 465.094 -0.667135 -0.0719173 0
M  V30 4555 H 467.638 -1.99981 0.427529 0
M  V30 4556 H 465.793 -3.57511 -1.49213 0
M  V30 4557 H 466.207 -5.24486 -0.0387372 0
M  V30 4558 H 467.681 -5.23562 -1.7489 0
M  V30 4559 H 468.158 -3.67282 -2.40834 0
M  V30 4560 H 468.764 -4.17454 -0.813178 0
M  V30 4561 N 467.08 -0.0183926 -1.57589 0
M  V30 4562 C 468.043 0.951986 -2.08494 0
M  V30 4563 C 469.043 1.26092 -0.997874 0
M  V30 4564 O 470.233 1.20304 -1.25987 0
M  V30 4565 C 467.365 2.27165 -2.54182 0
M  V30 4566 H 468.558 0.511307 -2.95509 0
M  V30 4567 H 466.111 0.229444 -1.54607 0
M  V30 4568 H 466.846 2.75884 -1.70465 0
M  V30 4569 H 466.631 2.06057 -3.33591 0
M  V30 4570 H 468.121 2.9674 -2.93828 0
M  V30 4571 N 468.558 1.5553 0.254621 0
M  V30 4572 C 469.488 1.9268 1.31897 0
M  V30 4573 C 470.469 0.790797 1.506 0
M  V30 4574 O 471.654 1.05045 1.63337 0
M  V30 4575 C 468.784 2.21477 2.67517 0
M  V30 4576 C 467.738 3.37256 2.63519 0
M  V30 4577 C 467.064 3.51576 4.02862 0
M  V30 4578 C 468.364 4.73157 2.21179 0
M  V30 4579 H 470.058 2.81832 1.01051 0
M  V30 4580 H 467.604 1.35599 0.484662 0
M  V30 4581 H 469.557 2.46055 3.42104 0
M  V30 4582 H 468.281 1.29144 2.99982 0
M  V30 4583 H 466.94 3.12675 1.9139 0
M  V30 4584 H 466.588 2.56676 4.32581 0
M  V30 4585 H 466.288 4.2943 4.01078 0
M  V30 4586 H 467.812 3.78467 4.79161 0
M  V30 4587 H 469.226 4.97158 2.85494 0
M  V30 4588 H 467.623 5.54058 2.30521 0
M  V30 4589 H 468.693 4.70739 1.16332 0
M  V30 4590 N 470.036 -0.519951 1.48776 0
M  V30 4591 C 471.266 -1.29783 1.60748 0
M  V30 4592 C 471.674 -1.87253 0.27072 0
M  V30 4593 O 471.017 -1.67628 -0.751438 0
M  V30 4594 C 471.079 -2.47984 2.60277 0
M  V30 4595 C 470.743 -2.11526 4.051 0
M  V30 4596 C 471.74 -1.66608 4.92481 0
M  V30 4597 C 469.425 -2.21742 4.50706 0
M  V30 4598 C 471.419 -1.32384 6.23501 0
M  V30 4599 C 469.106 -1.87129 5.81744 0
M  V30 4600 C 470.104 -1.42523 6.67964 0
M  V30 4601 O 469.792 -1.0837 7.96562 0
M  V30 4602 H 469.524 -0.400562 0.544542 0
M  V30 4603 H 472.078 -0.632879 1.95407 0
M  V30 4604 H 470.308 -3.17493 2.2076 0
M  V30 4605 H 471.997 -3.10036 2.61978 0
M  V30 4606 H 472.763 -1.58178 4.58481 0
M  V30 4607 H 468.642 -2.55415 3.83776 0
M  V30 4608 H 472.186 -0.974949 6.90754 0
M  V30 4609 H 468.083 -1.95204 6.15277 0
M  V30 4610 H 468.851 -1.21681 8.09405 0
M  V30 4611 N 471.514 -1.37532 -0.769588 0
M  V30 4612 C 472.446 -1.29347 -1.89214 0
M  V30 4613 C 473.459 -0.208842 -1.61455 0
M  V30 4614 O 474.648 -0.465158 -1.72333 0
M  V30 4615 C 471.748 -0.977649 -3.24492 0
M  V30 4616 C 470.921 -2.16817 -3.7988 0
M  V30 4617 C 469.98 -1.82229 -4.93639 0
M  V30 4618 O 469.006 -2.54548 -5.09111 0
M  V30 4619 N 470.208 -0.767696 -5.75401 0
M  V30 4620 H 472.973 -2.26073 -1.96751 0
M  V30 4621 H 470.534 -1.31185 -0.948795 0
M  V30 4622 H 472.526 -0.727065 -3.98115 0
M  V30 4623 H 471.096 -0.0988777 -3.12444 0
M  V30 4624 H 470.316 -2.58038 -2.9801 0
M  V30 4625 H 471.604 -2.96308 -4.13617 0
M  V30 4626 H 471.002 -0.167626 -5.65452 0
M  V30 4627 H 469.559 -0.576973 -6.49241 0
M  V30 4628 N 472.992 0.995999 -1.22138 0
M  V30 4629 C 473.955 2.06711 -0.990109 0
M  V30 4630 C 474.955 1.60744 0.0422978 0
M  V30 4631 O 476.145 1.73095 -0.195895 0
M  V30 4632 C 473.277 3.37288 -0.49491 0
M  V30 4633 H 474.47 2.28661 -1.94047 0
M  V30 4634 H 472.023 1.16711 -1.03963 0
M  V30 4635 H 472.758 3.21022 0.459948 0
M  V30 4636 H 472.543 3.71986 -1.23971 0
M  V30 4637 H 474.033 4.16103 -0.353253 0
M  V30 4638 N 474.47 1.03057 1.19235 0
M  V30 4639 C 475.38 0.622922 2.26179 0
M  V30 4640 C 476.396 -0.346113 1.70523 0
M  V30 4641 O 477.572 -0.203572 2.00369 0
M  V30 4642 C 474.637 -0.0182063 3.46695 0
M  V30 4643 C 473.698 0.998546 4.17526 0
M  V30 4644 C 472.931 0.387917 5.32288 0
M  V30 4645 O 473.154 -0.808668 5.64639 0
M  V30 4646 O 472.088 1.1116 5.91546 0
M  V30 4647 H 475.914 1.51363 2.63292 0
M  V30 4648 H 473.499 0.800856 1.26122 0
M  V30 4649 H 475.381 -0.375606 4.19723 0
M  V30 4650 H 474.056 -0.882895 3.11427 0
M  V30 4651 H 472.963 1.40756 3.4661 0
M  V30 4652 H 474.296 1.83366 4.56769 0
M  V30 4653 N 475.948 -1.35272 0.808662 0
M  V30 4654 C 476.878 -2.32315 0.234981 0
M  V30 4655 C 477.859 -1.57572 -0.64071 0
M  V30 4656 O 479.044 -1.8563 -0.570551 0
M  V30 4657 C 476.174 -3.41801 -0.615601 0
M  V30 4658 C 475.128 -4.27694 0.161767 0
M  V30 4659 C 474.454 -5.28519 -0.810649 0
M  V30 4660 C 475.754 -5.04231 1.36193 0
M  V30 4661 H 477.448 -2.80543 1.04575 0
M  V30 4662 H 474.994 -1.3488 0.504315 0
M  V30 4663 H 476.947 -4.08693 -1.02702 0
M  V30 4664 H 475.671 -2.92186 -1.45928 0
M  V30 4665 H 474.33 -3.62384 0.554382 0
M  V30 4666 H 473.978 -4.75171 -1.64988 0
M  V30 4667 H 473.678 -5.8686 -0.294822 0
M  V30 4668 H 475.202 -5.98283 -1.22023 0
M  V30 4669 H 476.616 -5.64058 1.02528 0
M  V30 4670 H 475.013 -5.72077 1.81239 0
M  V30 4671 H 476.083 -4.34753 2.14751 0
M  V30 4672 N 477.426 -0.562348 -1.47226 0
M  V30 4673 C 478.651 -0.0432632 -2.07355 0
M  V30 4674 C 479.076 1.24332 -1.41149 0
M  V30 4675 O 478.434 1.74603 -0.488226 0
M  V30 4676 C 478.482 0.130288 -3.60365 0
M  V30 4677 O 477.586 1.19166 -3.94808 0
M  V30 4678 H 476.927 -0.0536334 -0.66183 0
M  V30 4679 H 479.457 -0.779495 -1.89169 0
M  V30 4680 H 479.467 0.342881 -4.06557 0
M  V30 4681 H 478.142 -0.809389 -4.07948 0
M  V30 4682 H 476.719 0.959153 -3.60354 0
M  V30 4683 N 478.904 1.54736 -0.299062 0
M  V30 4684 C 479.836 2.20891 0.61153 0
M  V30 4685 C 480.849 1.20104 1.09904 0
M  V30 4686 O 482.038 1.46707 1.01683 0
M  V30 4687 C 479.138 2.84018 1.84897 0
M  V30 4688 C 478.311 4.10719 1.50428 0
M  V30 4689 C 477.37 4.57667 2.59667 0
M  V30 4690 O 476.396 5.2291 2.24842 0
M  V30 4691 N 477.598 4.29821 3.90172 0
M  V30 4692 H 480.363 2.99666 0.0452001 0
M  V30 4693 H 477.924 1.61446 -0.121178 0
M  V30 4694 H 479.916 3.1236 2.5732 0
M  V30 4695 H 478.486 2.09095 2.32375 0
M  V30 4696 H 477.706 3.89408 0.612781 0
M  V30 4697 H 478.994 4.93223 1.24934 0
M  V30 4698 H 478.392 3.77549 4.21276 0
M  V30 4699 H 476.949 4.62877 4.58899 0
M  V30 4700 N 480.382 0.0267497 1.57577 0
M  V30 4701 C 481.315 -0.99059 2.05579 0
M  V30 4702 C 482.293 -1.31884 0.951065 0
M  V30 4703 O 483.477 -1.43592 1.22121 0
M  V30 4704 C 480.604 -2.31125 2.47586 0
M  V30 4705 C 479.65 -2.13777 3.69055 0
M  V30 4706 S 480.483 -1.4388 5.15809 0
M  V30 4707 C 481.639 -2.77321 5.6111 0
M  V30 4708 H 481.872 -0.581976 2.91548 0
M  V30 4709 H 479.405 -0.184876 1.53289 0
M  V30 4710 H 481.363 -3.07049 2.72454 0
M  V30 4711 H 480.024 -2.6912 1.61967 0
M  V30 4712 H 479.217 -3.11405 3.96287 0
M  V30 4713 H 478.819 -1.45996 3.44327 0
M  V30 4714 H 481.111 -3.73565 5.65204 0
M  V30 4715 H 482.054 -2.54756 6.60685 0
M  V30 4716 H 482.462 -2.82459 4.88751 0
M  V30 4717 N 481.861 -1.55662 -0.24637 0
M  V30 4718 C 482.793 -1.86811 -1.32794 0
M  V30 4719 C 483.806 -0.754413 -1.44265 0
M  V30 4720 O 484.995 -1.03253 -1.45606 0
M  V30 4721 C 482.095 -2.0397 -2.70646 0
M  V30 4722 C 481.268 -3.34832 -2.81436 0
M  V30 4723 C 480.327 -3.41727 -4.00136 0
M  V30 4724 O 479.353 -4.14934 -3.89639 0
M  V30 4725 N 480.555 -2.71058 -5.1333 0
M  V30 4726 H 483.32 -2.80174 -1.06409 0
M  V30 4727 H 480.881 -1.55906 -0.43647 0
M  V30 4728 H 482.873 -2.05924 -3.48393 0
M  V30 4729 H 481.443 -1.1735 -2.89738 0
M  V30 4730 H 480.663 -3.4519 -1.90361 0
M  V30 4731 H 481.951 -4.21085 -2.85595 0
M  V30 4732 H 481.349 -2.11314 -5.2475 0
M  V30 4733 H 479.906 -2.78704 -5.89209 0
M  V30 4734 N 483.339 0.512053 -1.4905 0
M  V30 4735 C 484.567 1.29116 -1.61669 0
M  V30 4736 C 484.982 1.86655 -0.283787 0
M  V30 4737 O 484.339 1.67293 0.729331 0
M  V30 4738 C 484.39 2.4293 -2.67707 0
M  V30 4739 O 484.111 1.87758 -3.95826 0
M  V30 4740 C 485.612 3.34476 -2.90931 0
M  V30 4741 H 482.832 0.392009 -0.544583 0
M  V30 4742 H 485.376 0.615881 -1.95006 0
M  V30 4743 H 483.531 3.06308 -2.37179 0
M  V30 4744 H 483.945 2.62393 -4.54148 0
M  V30 4745 H 485.419 4.10642 -3.68886 0
M  V30 4746 H 485.896 3.90801 -2.00427 0
M  V30 4747 H 486.502 2.76874 -3.22832 0
M  V30 4748 N 484.817 1.37938 0.762283 0
M  V30 4749 C 485.749 1.30349 1.88525 0
M  V30 4750 C 486.762 0.217402 1.61342 0
M  V30 4751 O 487.951 0.474291 1.72084 0
M  V30 4752 C 485.051 0.994844 3.23969 0
M  V30 4753 C 484.224 2.18829 3.78725 0
M  V30 4754 C 483.283 1.84844 4.92665 0
M  V30 4755 O 482.309 2.57244 5.07754 0
M  V30 4756 N 483.511 0.798201 5.74986 0
M  V30 4757 H 486.276 2.27114 1.95549 0
M  V30 4758 H 483.837 1.31686 0.941825 0
M  V30 4759 H 485.829 0.748168 3.97724 0
M  V30 4760 H 484.399 0.115446 3.12387 0
M  V30 4761 H 483.619 2.59615 2.96637 0
M  V30 4762 H 484.907 2.98497 4.1204 0
M  V30 4763 H 484.305 0.197611 5.65355 0
M  V30 4764 H 482.862 0.611396 6.48926 0
M  V30 4765 N 486.295 -0.989507 1.22664 0
M  V30 4766 C 487.544 -1.72375 1.04737 0
M  V30 4767 C 487.857 -1.91096 -0.417316 0
M  V30 4768 O 489.063 -2.6188 -0.716334 0
M  V30 4769 C 487.519 -3.10161 1.82561 0
M  V30 4770 C 487.127 -2.99358 3.333 0
M  V30 4771 C 488.871 -3.87607 1.73093 0
M  V30 4772 C 486.778 -4.32319 4.03552 0
M  V30 4773 H 485.708 -0.646326 0.388302 0
M  V30 4774 H 488.359 -1.10437 1.46546 0
M  V30 4775 H 486.741 -3.728 1.33552 0
M  V30 4776 H 487.915 -2.45863 3.89728 0
M  V30 4777 H 486.23 -2.35392 3.43481 0
M  V30 4778 H 488.827 -4.86025 2.22899 0
M  V30 4779 H 489.17 -4.10509 0.691976 0
M  V30 4780 H 489.703 -3.31652 2.19663 0
M  V30 4781 H 486.442 -4.14616 5.07714 0
M  V30 4782 H 485.962 -4.85714 3.51911 0
M  V30 4783 H 487.641 -5.01051 4.09337 0
M  V30 4784 N 487.773 -1.03688 -1.18687 0
M  V30 4785 C 488.998 -0.757819 -1.93059 0
M  V30 4786 C 489.423 0.678353 -1.75442 0
M  V30 4787 O 488.781 1.46938 -1.06203 0
M  V30 4788 C 488.829 -1.12423 -3.42627 0
M  V30 4789 O 487.933 -0.247505 -4.11657 0
M  V30 4790 H 487.274 -0.279245 -0.602427 0
M  V30 4791 H 489.804 -1.3857 -1.5053 0
M  V30 4792 H 489.814 -1.08454 -3.93322 0
M  V30 4793 H 488.489 -2.17049 -3.54771 0
M  V30 4794 H 487.066 -0.34649 -3.71287 0
M  V30 4795 N 489.251 1.34841 -0.815825 0
M  V30 4796 C 490.161 2.33425 -0.234462 0
M  V30 4797 C 491.177 1.62295 0.627413 0
M  V30 4798 O 492.353 1.94109 0.536987 0
M  V30 4799 C 489.418 3.41471 0.599849 0
M  V30 4800 C 488.479 4.28362 -0.283596 0
M  V30 4801 C 487.712 5.31248 0.51099 0
M  V30 4802 O 487.935 5.43056 1.7449 0
M  V30 4803 O 486.869 6.01812 -0.10297 0
M  V30 4804 H 490.695 2.84962 -1.05024 0
M  V30 4805 H 488.28 1.37774 -0.577809 0
M  V30 4806 H 490.162 4.07464 1.07475 0
M  V30 4807 H 488.837 2.9219 1.39308 0
M  V30 4808 H 487.744 3.65318 -0.805836 0
M  V30 4809 H 489.077 4.81066 -1.041 0
M  V30 4810 N 490.729 0.570148 1.46925 0
M  V30 4811 C 491.957 0.0561966 2.06824 0
M  V30 4812 C 492.372 -1.24326 1.42086 0
M  V30 4813 O 491.729 -1.74882 0.521794 0
M  V30 4814 C 491.78 -0.129517 3.61268 0
M  V30 4815 O 491.501 1.1185 4.23581 0
M  V30 4816 C 493.002 -0.679266 4.38065 0
M  V30 4817 H 490.222 0.0517261 0.669003 0
M  V30 4818 H 492.766 0.787243 1.8874 0
M  V30 4819 H 490.921 -0.810739 3.78822 0
M  V30 4820 H 491.335 0.924375 5.1629 0
M  V30 4821 H 492.809 -0.758445 5.46765 0
M  V30 4822 H 493.286 -1.69346 4.05239 0
M  V30 4823 H 493.892 -0.0333237 4.25287 0
M  V30 4824 N 492.207 -1.54576 0.307264 0
M  V30 4825 C 493.155 -2.25208 -0.581723 0
M  V30 4826 C 494.149 -1.26031 -1.13192 0
M  V30 4827 O 495.355 -1.43862 -1.08184 0
M  V30 4828 H 491.73 -0.723173 -0.206214 0
M  V30 4829 H 493.701 -2.98378 0.0364663 0
M  V30 4830 C 492.45 -3.01086 -1.73904 0
M  V30 4831 H 491.773 -3.77208 -1.32491 0
M  V30 4832 H 493.213 -3.5378 -2.33701 0
M  V30 4833 C 491.672 -2.08422 -2.64692 0
M  V30 4834 O 492.202 -1.65636 -3.65961 0
M  V30 4835 N 490.408 -1.74247 -2.32564 0
M  V30 4836 H 489.955 -2.09238 -1.50257 0
M  V30 4837 H 489.913 -1.12524 -2.93574 0
M  V30 4838 N 493.685 -0.035106 -1.57561 0
M  V30 4839 C 494.931 0.64318 -1.92331 0
M  V30 4840 C 495.264 1.71434 -0.912368 0
M  V30 4841 O 494.539 1.94395 0.0640303 0
M  V30 4842 C 494.822 1.25411 -3.37556 0
M  V30 4843 C 494.675 0.192109 -4.4939 0
M  V30 4844 C 495.994 2.17041 -3.82859 0
M  V30 4845 H 493.113 0.232341 -0.699419 0
M  V30 4846 H 495.755 -0.0935889 -1.89769 0
M  V30 4847 H 493.905 1.88205 -3.39869 0
M  V30 4848 H 495.577 -0.438849 -4.59208 0
M  V30 4849 H 493.82 -0.481725 -4.31117 0
M  V30 4850 H 494.491 0.659292 -5.48049 0
M  V30 4851 H 496.967 1.64228 -3.8232 0
M  V30 4852 H 495.843 2.56738 -4.85157 0
M  V30 4853 H 496.104 3.06401 -3.18702 0
M  V30 4854 N 495.163 1.55791 0.238111 0
M  V30 4855 C 496.412 1.77234 0.962868 0
M  V30 4856 C 496.725 0.600661 1.86149 0
M  V30 4857 O 497.931 0.698315 2.62366 0
M  V30 4858 C 496.387 3.13808 1.76218 0
M  V30 4859 C 495.995 4.3865 0.910518 0
M  V30 4860 C 497.739 3.44585 2.47914 0
M  V30 4861 C 495.646 5.66252 1.70623 0
M  V30 4862 H 494.576 0.660731 0.36325 0
M  V30 4863 H 497.227 1.8221 0.217242 0
M  V30 4864 H 495.609 3.02963 2.55009 0
M  V30 4865 H 496.783 4.60507 0.164316 0
M  V30 4866 H 495.098 4.15271 0.30647 0
M  V30 4867 H 497.695 4.3714 3.07917 0
M  V30 4868 H 498.038 2.66314 3.19973 0
M  V30 4869 H 498.571 3.56685 1.76127 0
M  V30 4870 H 495.31 6.47369 1.02923 0
M  V30 4871 H 494.83 5.48483 2.42748 0
M  V30 4872 H 496.509 6.05829 2.27114 0
M  V30 4873 N 496.642 -0.504142 1.49319 0
M  V30 4874 C 497.572 -1.61473 1.68667 0
M  V30 4875 C 498.553 -1.61455 0.535378 0
M  V30 4876 O 499.738 -1.78245 0.770868 0
M  V30 4877 C 496.868 -2.99971 1.75028 0
M  V30 4878 C 495.822 -3.14854 2.89916 0
M  V30 4879 C 495.148 -4.54671 2.81387 0
M  V30 4880 C 496.448 -2.95176 4.30893 0
M  V30 4881 H 498.142 -1.45535 2.61648 0
M  V30 4882 H 495.688 -0.698711 1.25913 0
M  V30 4883 H 497.641 -3.77562 1.8715 0
M  V30 4884 H 496.365 -3.1699 0.786441 0
M  V30 4885 H 495.024 -2.39687 2.77391 0
M  V30 4886 H 494.672 -4.68562 1.82917 0
M  V30 4887 H 494.372 -4.6557 3.58494 0
M  V30 4888 H 495.896 -5.34327 2.95512 0
M  V30 4889 H 497.31 -3.62538 4.44116 0
M  V30 4890 H 495.707 -3.17549 5.09198 0
M  V30 4891 H 496.777 -1.91332 4.45556 0
M  V30 4892 N 498.12 -1.38341 -0.754957 0
M  V30 4893 C 499.345 -1.37882 -1.5493 0
M  V30 4894 C 499.77 0.0296385 -1.88077 0
M  V30 4895 O 499.128 1.01133 -1.50472 0
M  V30 4896 C 499.176 -2.23996 -2.82592 0
M  V30 4897 O 498.28 -1.65612 -3.77686 0
M  V30 4898 H 497.621 -0.470384 -0.468652 0
M  V30 4899 H 500.151 -1.82084 -0.933082 0
M  V30 4900 H 500.161 -2.37806 -3.3153 0
M  V30 4901 H 498.836 -3.26365 -2.57796 0
M  V30 4902 H 497.413 -1.60936 -3.36384 0
M  V30 4903 N 499.598 0.982988 -1.23187 0
M  V30 4904 C 500.531 2.07302 -0.953993 0
M  V30 4905 C 501.509 1.62249 0.106753 0
M  V30 4906 O 502.693 1.88481 -0.0269525 0
M  V30 4907 C 499.82 3.35873 -0.436716 0
M  V30 4908 C 498.866 3.99862 -1.48367 0
M  V30 4909 S 499.699 4.39443 -3.06023 0
M  V30 4910 C 500.855 5.7117 -2.55959 0
M  V30 4911 H 501.088 2.30554 -1.87702 0
M  V30 4912 H 498.621 1.11883 -1.06403 0
M  V30 4913 H 500.579 4.10244 -0.144872 0
M  V30 4914 H 499.24 3.10634 0.465351 0
M  V30 4915 H 498.433 4.92471 -1.07182 0
M  V30 4916 H 498.035 3.31857 -1.72473 0
M  V30 4917 H 500.327 6.47977 -1.97818 0
M  V30 4918 H 501.27 6.17194 -3.47098 0
M  V30 4919 H 501.678 5.29046 -1.96902 0
M  V30 4920 N 501.076 1.04316 1.18135 0
M  V30 4921 C 502.353 0.662166 1.84051 0
M  V30 4922 C 502.733 -0.858169 1.9287 0
M  V30 4923 O 502.081 -1.76062 1.45652 0
M  V30 4924 C 502.291 1.3409 3.22212 0
M  V30 4925 C 503.639 1.4733 3.9822 0
M  V30 4926 O 504.663 1.29921 3.31661 0
M  V30 4927 O 503.522 1.75722 5.17479 0
M  V30 4928 H 500.616 0.232005 0.79379 0
M  V30 4929 H 503.162 1.1422 1.25506 0
M  V30 4930 H 501.934 2.37853 3.10711 0
M  V30 4931 H 501.557 0.849649 3.88416 0
M  V30 4932 N 502.554 -1.34406 0.822964 0
M  V30 4933 C 503.502 -2.31428 0.233165 0
M  V30 4934 C 504.496 -1.57404 -0.626118 0
M  V30 4935 O 505.702 -1.72402 -0.517453 0
M  V30 4936 H 502.077 -0.749863 0.0566557 0
M  V30 4937 H 504.048 -2.78699 1.06628 0
M  V30 4938 C 502.797 -3.42653 -0.590264 0
M  V30 4939 H 502.12 -3.99753 0.0616129 0
M  V30 4940 H 503.56 -4.12778 -0.969054 0
M  V30 4941 C 502.019 -2.87112 -1.76262 0
M  V30 4942 O 502.549 -2.81995 -2.8608 0
M  V30 4943 N 500.755 -2.43934 -1.57938 0
M  V30 4944 H 500.302 -2.48296 -0.686078 0
M  V30 4945 H 500.26 -2.07123 -2.36532 0
M  V30 4946 N 504.032 -0.577932 -1.46621 0
M  V30 4947 C 504.98 0.170882 -2.31971 0
M  V30 4948 C 505.974 0.889086 -1.44193 0
M  V30 4949 O 507.18 0.808017 -1.60845 0
M  V30 4950 H 503.555 0.0739763 -0.748353 0
M  V30 4951 H 505.526 -0.567856 -2.92947 0
M  V30 4952 C 504.275 1.17438 -3.27267 0
M  V30 4953 H 503.598 0.63116 -3.94787 0
M  V30 4954 H 505.038 1.66882 -3.89778 0
M  V30 4955 C 503.497 2.23292 -2.52274 0
M  V30 4956 O 504.027 3.30567 -2.28229 0
M  V30 4957 N 502.233 1.97772 -2.12919 0
M  V30 4958 H 501.78 1.10545 -2.32675 0
M  V30 4959 H 501.738 2.68809 -1.63062 0
M  V30 4960 N 505.51 1.54411 -0.315457 0
M  V30 4961 C 506.926 1.59556 0.037464 0
M  V30 4962 C 507.126 1.33217 1.5118 0
M  V30 4963 O 506.182 1.11264 2.26664 0
M  V30 4964 C 507.495 2.98372 -0.373477 0
M  V30 4965 C 509.043 3.11324 -0.323452 0
M  V30 4966 C 509.518 4.52472 -0.709433 0
M  V30 4967 N 511.009 4.58437 -0.662524 0
M  V30 4968 C 511.744 5.65751 -0.933474 0
M  V30 4969 N 511.24 6.81039 -1.27114 0
M  V30 4970 N 513.033 5.55489 -0.859573 0
M  V30 4971 H 505.184 1.6979 -1.27614 0
M  V30 4972 H 507.447 0.793732 -0.518356 0
M  V30 4973 H 507.153 3.22618 -1.40037 0
M  V30 4974 H 507.027 3.76264 0.265615 0
M  V30 4975 H 509.414 2.86818 0.694223 0
M  V30 4976 H 509.495 2.35555 -0.997367 0
M  V30 4977 H 509.139 4.7771 -1.72498 0
M  V30 4978 H 509.069 5.26598 -0.0132923 0
M  V30 4979 H 511.56 3.75636 -0.413065 0
M  V30 4980 H 511.873 7.58816 -1.46348 0
M  V30 4981 H 510.218 6.82555 -1.30932 0
M  V30 4982 H 513.409 4.64299 -0.595324 0
M  V30 4983 H 513.582 6.39036 -1.0741 0
M  V30 4984 N 506.988 0.0434614 1.5754 0
M  V30 4985 C 508.213 -0.645358 1.97104 0
M  V30 4986 C 508.638 -1.64037 0.920521 0
M  V30 4987 O 507.996 -1.80922 -0.11708 0
M  V30 4988 C 508.044 -1.31547 3.35749 0
M  V30 4989 O 507.148 -2.43103 3.33129 0
M  V30 4990 H 506.489 -0.168403 0.64229 0
M  V30 4991 H 509.019 0.109573 2.04306 0
M  V30 4992 H 509.029 -1.66895 3.72304 0
M  V30 4993 H 507.704 -0.586205 4.11748 0
M  V30 4994 H 506.281 -2.0976 3.0831 0
M  V30 4995 N 508.466 -1.55915 -0.229846 0
M  V30 4996 C 509.396 -1.94754 -1.28815 0
M  V30 4997 C 510.377 -0.814657 -1.49323 0
M  V30 4998 O 511.562 -1.07631 -1.61645 0
M  V30 4999 C 508.692 -2.25705 -2.63959 0
M  V30 5000 C 507.646 -3.41406 -2.5812 0
M  V30 5001 C 506.972 -3.57941 -3.97218 0
M  V30 5002 C 508.272 -4.76616 -2.13623 0
M  V30 5003 H 509.966 -2.83404 -0.965547 0
M  V30 5004 H 507.512 -1.36353 -0.463028 0
M  V30 5005 H 509.465 -2.51467 -3.38146 0
M  V30 5006 H 508.189 -1.339 -2.9789 0
M  V30 5007 H 506.848 -3.1568 -1.86391 0
M  V30 5008 H 506.496 -2.63526 -4.28443 0
M  V30 5009 H 506.196 -4.35757 -3.94195 0
M  V30 5010 H 507.72 -3.86042 -4.73079 0
M  V30 5011 H 509.134 -5.01637 -2.77549 0
M  V30 5012 H 507.531 -5.57655 -2.21677 0
M  V30 5013 H 508.601 -4.7253 -1.08829 0
M  V30 5014 N 509.944 0.496216 -1.49584 0
M  V30 5015 C 511.221 1.25755 -1.49816 0
M  V30 5016 C 511.601 2.09859 -0.228572 0
M  V30 5017 O 510.949 2.14449 0.788908 0
M  V30 5018 C 511.159 2.11017 -2.7798 0
M  V30 5019 C 512.507 2.70047 -3.27658 0
M  V30 5020 O 513.531 2.21281 -2.79129 0
M  V30 5021 O 512.39 3.58834 -4.1219 0
M  V30 5022 H 509.484 0.569322 -0.599834 0
M  V30 5023 H 512.03 0.510094 -1.61852 0
M  V30 5024 H 510.802 1.48879 -3.61871 0
M  V30 5025 H 510.425 2.92947 -2.68827 0
M  V30 5026 N 511.423 1.38739 0.74761 0
M  V30 5027 C 512.353 1.39173 1.87492 0
M  V30 5028 C 513.334 0.256794 1.6815 0
M  V30 5029 O 514.519 0.460762 1.88655 0
M  V30 5030 C 511.649 1.22197 3.25093 0
M  V30 5031 C 510.603 2.32957 3.59047 0
M  V30 5032 C 509.929 2.01082 4.95449 0
M  V30 5033 C 511.229 3.75237 3.6331 0
M  V30 5034 H 512.923 2.3351 1.87386 0
M  V30 5035 H 510.469 1.12399 0.900134 0
M  V30 5036 H 512.422 1.21124 4.03617 0
M  V30 5037 H 511.146 0.243241 3.25693 0
M  V30 5038 H 509.805 2.33226 2.82845 0
M  V30 5039 H 509.453 1.01678 4.92616 0
M  V30 5040 H 509.153 2.75267 5.19136 0
M  V30 5041 H 510.677 2.01638 5.76346 0
M  V30 5042 H 512.091 3.76966 4.31937 0
M  V30 5043 H 510.488 4.48677 3.98509 0
M  V30 5044 H 511.558 4.07122 2.634 0
M  V30 5045 N 512.901 -0.976442 1.23707 0
M  V30 5046 C 514.178 -1.69296 0.979699 0
M  V30 5047 C 514.558 -2.0508 -0.500555 0
M  V30 5048 O 513.906 -1.74708 -1.47273 0
M  V30 5049 C 514.116 -2.93143 1.89389 0
M  V30 5050 C 515.464 -3.65572 2.15968 0
M  V30 5051 O 516.488 -3.03184 1.86971 0
M  V30 5052 O 515.347 -4.77859 2.65167 0
M  V30 5053 H 512.441 -0.739708 0.369812 0
M  V30 5054 H 514.987 -1.03131 1.34767 0
M  V30 5055 H 513.759 -2.63327 2.89439 0
M  V30 5056 H 513.382 -3.67044 1.52854 0
M  V30 5057 N 514.379 -1.04941 -1.1758 0
M  V30 5058 C 515.604 -0.778253 -1.92245 0
M  V30 5059 C 516.029 0.659707 -1.76152 0
M  V30 5060 O 515.387 1.45803 -1.07755 0
M  V30 5061 C 515.435 -1.16051 -3.41416 0
M  V30 5062 O 514.539 -0.291153 -4.11371 0
M  V30 5063 H 513.88 -0.285619 -0.599431 0
M  V30 5064 H 516.41 -1.40159 -1.49052 0
M  V30 5065 H 516.42 -1.12619 -3.92149 0
M  V30 5066 H 515.095 -2.208 -3.52449 0
M  V30 5067 H 513.672 -0.385851 -3.70898 0
M  V30 5068 N 515.857 1.33968 -0.830081 0
M  V30 5069 C 517.106 1.97323 -0.417928 0
M  V30 5070 C 517.419 1.6652 1.02618 0
M  V30 5071 O 518.625 2.2342 1.54259 0
M  V30 5072 C 517.081 3.53099 -0.696359 0
M  V30 5073 C 516.689 3.92788 -2.15457 0
M  V30 5074 C 518.433 4.23049 -0.350724 0
M  V30 5075 C 516.34 5.41506 -2.37751 0
M  V30 5076 H 515.27 0.738409 -0.152541 0
M  V30 5077 H 517.921 1.52711 -1.01744 0
M  V30 5078 H 516.303 3.95991 -0.0265904 0
M  V30 5079 H 517.477 3.6098 -2.86408 0
M  V30 5080 H 515.792 3.35795 -2.46232 0
M  V30 5081 H 518.389 5.32403 -0.495036 0
M  V30 5082 H 518.732 4.10279 0.705476 0
M  V30 5083 H 519.265 3.85657 -0.975362 0
M  V30 5084 H 516.004 5.5927 -3.41903 0
M  V30 5085 H 515.524 5.74804 -1.7135 0
M  V30 5086 H 517.203 6.0828 -2.20465 0
M  V30 5087 N 517.335 0.585699 1.46312 0
M  V30 5088 C 518.584 0.0701192 2.01578 0
M  V30 5089 C 518.897 -1.29889 1.46247 0
M  V30 5090 O 520.103 -1.90598 1.93351 0
M  V30 5091 C 518.559 0.0747499 3.59822 0
M  V30 5092 C 518.167 1.44226 4.24149 0
M  V30 5093 C 519.911 -0.38673 4.22735 0
M  V30 5094 C 517.818 1.40446 5.74481 0
M  V30 5095 H 516.748 0.0224441 0.753666 0
M  V30 5096 H 519.399 0.737789 1.68015 0
M  V30 5097 H 517.781 -0.659144 3.90476 0
M  V30 5098 H 518.955 2.19612 4.05101 0
M  V30 5099 H 517.27 1.84401 3.73343 0
M  V30 5100 H 519.867 -0.433853 5.32937 0
M  V30 5101 H 520.21 -1.40489 3.91878 0
M  V30 5102 H 520.743 0.293195 3.96718 0
M  V30 5103 H 517.482 2.39952 6.10003 0
M  V30 5104 H 517.002 0.692845 5.95785 0
M  V30 5105 H 518.681 1.11865 6.37256 0
M  V30 5106 N 518.813 -1.54241 0.323641 0
M  V30 5107 C 519.776 -2.22997 -0.529602 0
M  V30 5108 C 520.776 -1.22345 -1.04347 0
M  V30 5109 O 521.966 -1.46924 -0.935889 0
M  V30 5110 C 519.098 -2.93409 -1.73562 0
M  V30 5111 H 520.291 -2.99815 0.0714518 0
M  V30 5112 H 517.844 -1.56121 0.0747258 0
M  V30 5113 H 518.579 -2.20729 -2.37591 0
M  V30 5114 H 518.364 -3.67217 -1.37456 0
M  V30 5115 H 519.854 -3.45794 -2.34128 0
M  V30 5116 N 520.291 -0.0518155 -1.57515 0
M  V30 5117 C 521.201 0.937539 -2.15052 0
M  V30 5118 C 522.217 1.34121 -1.10849 0
M  V30 5119 O 523.393 1.418 -1.4302 0
M  V30 5120 C 520.458 2.19379 -2.68466 0
M  V30 5121 C 519.519 1.84841 -3.87469 0
M  V30 5122 C 518.752 3.04477 -4.38326 0
M  V30 5123 O 518.975 4.17868 -3.88256 0
M  V30 5124 O 517.909 2.85453 -5.29906 0
M  V30 5125 H 521.735 0.478201 -2.99912 0
M  V30 5126 H 519.32 0.17012 -1.48428 0
M  V30 5127 H 521.202 2.93084 -3.02787 0
M  V30 5128 H 519.877 2.64449 -1.86677 0
M  V30 5129 H 518.784 1.08449 -3.58036 0
M  V30 5130 H 520.117 1.44569 -4.7049 0
M  V30 5131 N 521.769 1.56035 0.221574 0
M  V30 5132 C 523.015 1.79312 0.947372 0
M  V30 5133 C 523.348 0.621453 1.83988 0
M  V30 5134 O 522.623 -0.379287 1.90766 0
M  V30 5135 C 522.906 3.1267 1.78633 0
M  V30 5136 C 522.759 4.40284 0.920312 0
M  V30 5137 C 524.078 3.4247 2.7641 0
M  V30 5138 H 521.197 0.652328 0.342982 0
M  V30 5139 H 523.839 1.88765 0.216244 0
M  V30 5140 H 521.989 3.04741 2.40967 0
M  V30 5141 H 523.661 4.60232 0.313718 0
M  V30 5142 H 521.904 4.33212 0.225734 0
M  V30 5143 H 522.575 5.30033 1.54171 0
M  V30 5144 H 525.051 3.50526 2.24211 0
M  V30 5145 H 523.927 4.3695 3.32213 0
M  V30 5146 H 524.188 2.64635 3.54148 0
M  V30 5147 N 523.247 -0.488276 1.49845 0
M  V30 5148 C 524.194 -1.58836 1.67451 0
M  V30 5149 C 525.164 -1.57886 0.515857 0
M  V30 5150 O 526.349 -1.75679 0.744403 0
M  V30 5151 C 523.489 -2.96915 1.75885 0
M  V30 5152 C 522.602 -3.07784 3.03138 0
M  V30 5153 C 521.737 -4.36673 3.02473 0
M  V30 5154 C 520.776 -4.41222 4.24252 0
M  V30 5155 N 519.913 -5.61557 4.21424 0
M  V30 5156 H 524.753 -1.43131 2.61376 0
M  V30 5157 H 522.29 -0.696186 1.29583 0
M  V30 5158 H 524.248 -3.76965 1.78755 0
M  V30 5159 H 522.878 -3.11295 0.85414 0
M  V30 5160 H 521.93 -2.20717 3.09819 0
M  V30 5161 H 523.242 -3.07005 3.93128 0
M  V30 5162 H 522.396 -5.25055 3.03977 0
M  V30 5163 H 521.135 -4.40037 2.10283 0
M  V30 5164 H 520.14 -3.5124 4.22978 0
M  V30 5165 H 521.365 -4.39564 5.17649 0
M  V30 5166 H 519.311 -5.65738 3.32078 0
M  V30 5167 H 519.228 -5.62447 5.05163 0
M  V30 5168 H 520.496 -6.52111 4.2705 0
M  V30 5169 N 524.725 -1.39134 -0.740242 0
M  V30 5170 C 525.688 -1.37217 -1.83587 0
M  V30 5171 C 526.688 -0.270221 -1.58513 0
M  V30 5172 O 527.878 -0.527843 -1.6601 0
M  V30 5173 C 525.01 -1.13959 -3.21288 0
M  V30 5174 H 526.203 -2.34705 -1.86691 0
M  V30 5175 H 523.756 -1.24622 -0.94335 0
M  V30 5176 H 524.491 -0.17131 -3.23847 0
M  V30 5177 H 524.276 -1.93754 -3.40884 0
M  V30 5178 H 525.766 -1.15346 -4.01354 0
M  V30 5179 N 526.204 0.969867 -1.24223 0
M  V30 5180 C 527.136 2.0669 -0.99055 0
M  V30 5181 C 528.149 1.62753 0.0392222 0
M  V30 5182 O 529.338 1.77403 -0.197561 0
M  V30 5183 C 526.438 3.35589 -0.472594 0
M  V30 5184 C 525.611 4.08444 -1.56499 0
M  V30 5185 C 524.67 5.15616 -1.05007 0
M  V30 5186 O 523.696 5.41911 -1.7413 0
M  V30 5187 N 524.898 5.80383 0.116641 0
M  V30 5188 H 527.663 2.28855 -1.93508 0
M  V30 5189 H 525.224 1.13733 -1.15223 0
M  V30 5190 H 527.216 4.04542 -0.112919 0
M  V30 5191 H 525.786 3.10311 0.377617 0
M  V30 5192 H 525.006 3.33798 -2.09696 0
M  V30 5193 H 526.294 4.53882 -2.29932 0
M  V30 5194 H 525.692 5.6142 0.694589 0
M  V30 5195 H 524.249 6.50462 0.417483 0
M  V30 5196 N 527.682 1.05563 1.17022 0
M  V30 5197 C 528.912 0.787307 1.91011 0
M  V30 5198 C 529.32 -0.661256 1.77268 0
M  V30 5199 O 528.663 -1.46379 1.10991 0
M  V30 5200 C 528.725 1.09313 3.42478 0
M  V30 5201 C 528.389 2.53863 3.80004 0
M  V30 5202 C 529.386 3.52081 3.82538 0
M  V30 5203 C 527.071 2.88969 4.10855 0
M  V30 5204 C 529.065 4.83449 4.15399 0
M  V30 5205 C 526.752 4.2054 4.43384 0
M  V30 5206 C 527.75 5.17589 4.45635 0
M  V30 5207 O 527.438 6.46799 4.77395 0
M  V30 5208 H 527.17 0.285463 0.61277 0
M  V30 5209 H 529.724 1.41051 1.49311 0
M  V30 5210 H 527.954 0.412833 3.8449 0
M  V30 5211 H 529.643 0.810224 3.97731 0
M  V30 5212 H 530.409 3.26299 3.58823 0
M  V30 5213 H 526.288 2.1409 4.08272 0
M  V30 5214 H 529.832 5.59194 4.1707 0
M  V30 5215 H 525.729 4.46083 4.66563 0
M  V30 5216 H 526.497 6.51677 4.95237 0
M  V30 5217 N 529.16 -1.33526 0.837174 0
M  V30 5218 C 530.07 -2.33023 0.271568 0
M  V30 5219 C 531.086 -1.63272 -0.601514 0
M  V30 5220 O 532.262 -1.94939 -0.506038 0
M  V30 5221 C 529.327 -3.42382 -0.545448 0
M  V30 5222 C 528.388 -4.27857 0.351709 0
M  V30 5223 C 527.621 -5.31994 -0.426409 0
M  V30 5224 O 527.844 -5.45763 -1.65828 0
M  V30 5225 O 526.778 -6.01572 0.1987 0
M  V30 5226 H 530.604 -2.83256 1.09545 0
M  V30 5227 H 528.189 -1.36837 0.599655 0
M  V30 5228 H 530.071 -4.09122 -1.00979 0
M  V30 5229 H 528.746 -2.94369 -1.34641 0
M  V30 5230 H 527.653 -3.6399 0.863853 0
M  V30 5231 H 528.986 -4.79349 1.1174 0
M  V30 5232 N 530.638 -0.59345 -1.46 0
M  V30 5233 C 531.915 -0.0157933 -1.95594 0
M  V30 5234 C 532.295 1.44807 -1.53604 0
M  V30 5235 O 531.643 2.14342 -0.791824 0
M  V30 5236 C 531.853 -0.199081 -3.48432 0
M  V30 5237 C 533.201 -0.0724943 -4.24538 0
M  V30 5238 O 534.225 -0.128469 -3.55968 0
M  V30 5239 O 533.084 0.0542426 -5.46473 0
M  V30 5240 H 530.178 0.043749 -0.825842 0
M  V30 5241 H 532.724 -0.662522 -1.56233 0
M  V30 5242 H 531.496 -1.21631 -3.71916 0
M  V30 5243 H 531.119 0.483576 -3.94648 0
M  V30 5244 N 532.116 1.54067 -0.331816 0
M  V30 5245 C 533.365 1.99895 0.269209 0
M  V30 5246 C 533.678 1.22371 1.52593 0
M  V30 5247 O 534.884 1.58618 2.20347 0
M  V30 5248 C 533.34 3.55972 0.530244 0
M  V30 5249 C 532.948 4.4234 -0.709901 0
M  V30 5250 C 534.692 4.10247 1.09077 0
M  V30 5251 C 532.599 5.89905 -0.420312 0
M  V30 5252 H 531.529 0.746741 0.104371 0
M  V30 5253 H 534.18 1.78014 -0.445324 0
M  V30 5254 H 532.562 3.73873 1.30518 0
M  V30 5255 H 533.736 4.36215 -1.48504 0
M  V30 5256 H 532.051 3.98997 -1.19123 0
M  V30 5257 H 534.648 5.18095 1.32219 0
M  V30 5258 H 534.991 3.62739 2.0427 0
M  V30 5259 H 535.524 3.96011 0.376824 0
M  V30 5260 H 532.263 6.41623 -1.34164 0
M  V30 5261 H 531.783 5.98962 0.316962 0
M  V30 5262 H 533.462 6.46991 -0.0331956 0
M  V30 5263 N 533.594 0.0601682 1.57485 0
M  V30 5264 C 534.557 -0.896373 2.10945 0
M  V30 5265 C 535.557 -1.23402 1.03095 0
M  V30 5266 O 536.747 -1.16921 1.29132 0
M  V30 5267 C 533.879 -2.20346 2.60116 0
M  V30 5268 H 535.072 -0.432778 2.96761 0
M  V30 5269 H 532.625 -0.188372 1.55161 0
M  V30 5270 H 533.36 -2.71268 1.7772 0
M  V30 5271 H 533.145 -1.9714 3.38937 0
M  V30 5272 H 534.635 -2.88846 3.01592 0
M  V30 5273 N 535.072 -1.5615 -0.213296 0
M  V30 5274 C 536.004 -1.89586 -1.28802 0
M  V30 5275 C 537.017 -0.784844 -1.42633 0
M  V30 5276 O 538.206 -1.06319 -1.43383 0
M  V30 5277 C 535.306 -2.09665 -2.66259 0
M  V30 5278 C 534.479 -3.40726 -2.7427 0
M  V30 5279 C 533.538 -3.50137 -3.92798 0
M  V30 5280 O 532.564 -4.23105 -3.8075 0
M  V30 5281 N 533.766 -2.81886 -5.07465 0
M  V30 5282 H 536.531 -2.82368 -1.00442 0
M  V30 5283 H 534.092 -1.56796 -0.403302 0
M  V30 5284 H 536.084 -2.13268 -3.43946 0
M  V30 5285 H 534.654 -1.23469 -2.87183 0
M  V30 5286 H 533.874 -3.4915 -1.82997 0
M  V30 5287 H 535.162 -4.27048 -2.76599 0
M  V30 5288 H 534.56 -2.22397 -5.2015 0
M  V30 5289 H 533.117 -2.91139 -5.83165 0
M  V30 5290 N 536.55 0.480323 -1.50102 0
M  V30 5291 C 537.497 1.57946 -1.6829 0
M  V30 5292 C 538.467 1.57611 -0.524223 0
M  V30 5293 O 539.652 1.75282 -0.753709 0
M  V30 5294 C 536.792 2.95978 -1.77457 0
M  V30 5295 C 535.905 3.06173 -3.04766 0
M  V30 5296 C 535.04 4.35063 -3.04784 0
M  V30 5297 C 534.079 4.38966 -4.26586 0
M  V30 5298 N 533.216 5.59314 -4.24396 0
M  V30 5299 H 538.056 1.41743 -2.62131 0
M  V30 5300 H 535.593 0.689304 -1.2995 0
M  V30 5301 H 537.551 3.76011 -1.80752 0
M  V30 5302 H 536.181 3.10837 -0.870637 0
M  V30 5303 H 535.233 2.19071 -3.10986 0
M  V30 5304 H 536.545 3.04916 -3.9475 0
M  V30 5305 H 535.699 5.23436 -3.06757 0
M  V30 5306 H 534.438 4.38915 -2.12614 0
M  V30 5307 H 533.443 3.48992 -4.24835 0
M  V30 5308 H 534.668 4.36813 -5.19972 0
M  V30 5309 H 532.614 5.63969 -3.35074 0
M  V30 5310 H 532.531 5.5976 -5.08138 0
M  V30 5311 H 533.799 6.49837 -4.30502 0
M  V30 5312 N 538.028 1.39524 0.732853 0
M  V30 5313 C 539.253 1.40329 1.52717 0
M  V30 5314 C 539.678 0.000286574 1.881 0
M  V30 5315 O 539.036 -0.987262 1.52062 0
M  V30 5316 C 539.084 2.28464 2.78992 0
M  V30 5317 O 538.188 1.716 3.75003 0
M  V30 5318 H 537.529 0.47778 0.461109 0
M  V30 5319 H 540.059 1.83546 0.903996 0
M  V30 5320 H 540.069 2.43051 3.27705 0
M  V30 5321 H 538.744 3.30425 2.52572 0
M  V30 5322 H 537.321 1.66267 3.33781 0
M  V30 5323 N 539.506 -0.963266 1.24736 0
M  V30 5324 C 540.453 -2.05857 1.04363 0
M  V30 5325 C 541.423 -1.6604 -0.0444951 0
M  V30 5326 O 542.608 -1.90477 0.110999 0
M  V30 5327 C 539.748 -3.38745 0.659235 0
M  V30 5328 C 538.861 -3.9173 1.82131 0
M  V30 5329 C 537.996 -5.12906 1.38208 0
M  V30 5330 C 537.035 -5.58098 2.51382 0
M  V30 5331 N 536.172 -6.7049 2.08295 0
M  V30 5332 H 541.012 -2.22616 1.98107 0
M  V30 5333 H 538.549 -1.09103 0.986661 0
M  V30 5334 H 540.507 -4.15107 0.417371 0
M  V30 5335 H 539.137 -3.21898 -0.241201 0
M  V30 5336 H 538.189 -3.11966 2.17672 0
M  V30 5337 H 539.501 -4.21225 2.67153 0
M  V30 5338 H 538.655 -5.96657 1.09935 0
M  V30 5339 H 537.394 -4.85105 0.502456 0
M  V30 5340 H 536.399 -4.72917 2.80409 0
M  V30 5341 H 537.624 -5.87911 3.39909 0
M  V30 5342 H 535.57 -6.44416 1.22737 0
M  V30 5343 H 535.487 -6.99458 2.86869 0
M  V30 5344 H 536.755 -7.57672 1.83175 0
M  V30 5345 N 540.985 -1.06182 -1.16461 0
M  V30 5346 C 541.948 -0.675723 -2.19013 0
M  V30 5347 C 542.948 0.277963 -1.58379 0
M  V30 5348 O 544.138 0.0604962 -1.74095 0
M  V30 5349 C 541.27 0.00591459 -3.40899 0
M  V30 5350 H 542.463 -1.58353 -2.54685 0
M  V30 5351 H 540.016 -0.856908 -1.30716 0
M  V30 5352 H 540.751 0.92652 -3.10783 0
M  V30 5353 H 540.536 -0.67984 -3.86161 0
M  V30 5354 H 542.026 0.26181 -4.16778 0
M  V30 5355 N 542.463 1.3308 -0.844243 0
M  V30 5356 C 543.373 2.32876 -0.283922 0
M  V30 5357 C 544.389 1.63589 0.592846 0
M  V30 5358 O 545.565 1.95205 0.495693 0
M  V30 5359 C 542.63 3.42667 0.527283 0
M  V30 5360 C 541.691 4.27664 -0.374394 0
M  V30 5361 C 540.924 5.32212 0.39819 0
M  V30 5362 O 541.147 5.46635 1.62932 0
M  V30 5363 O 540.081 6.01458 -0.2306 0
M  V30 5364 H 543.907 2.82671 -1.11045 0
M  V30 5365 H 541.492 1.36518 -0.606903 0
M  V30 5366 H 543.374 4.09652 0.988078 0
M  V30 5367 H 542.049 2.95079 1.33078 0
M  V30 5368 H 540.956 3.63526 -0.883144 0
M  V30 5369 H 542.289 4.78749 -1.1428 0
M  V30 5370 N 543.941 0.601185 1.45683 0
M  V30 5371 C 544.904 -0.111398 2.28929 0
M  V30 5372 C 545.904 -0.801246 1.39416 0
M  V30 5373 O 547.094 -0.650383 1.61603 0
M  V30 5374 C 544.226 -1.16773 3.20276 0
M  V30 5375 H 545.419 0.620412 2.93413 0
M  V30 5376 H 542.972 0.359946 1.52099 0
M  V30 5377 H 543.707 -1.93051 2.60579 0
M  V30 5378 H 543.492 -0.677358 3.86205 0
M  V30 5379 H 544.982 -1.66698 3.82886 0
M  V30 5380 N 545.419 -1.53889 0.339982 0
M  V30 5381 C 546.329 -2.28604 -0.526988 0
M  V30 5382 C 547.345 -1.33578 -1.11503 0
M  V30 5383 O 548.521 -1.66612 -1.13148 0
M  V30 5384 C 545.586 -3.04164 -1.66389 0
M  V30 5385 C 544.647 -4.14809 -1.10599 0
M  V30 5386 C 543.88 -4.86756 -2.18871 0
M  V30 5387 O 544.103 -4.58343 -3.39526 0
M  V30 5388 O 543.037 -5.73289 -1.83366 0
M  V30 5389 H 546.863 -3.03594 0.0802707 0
M  V30 5390 H 544.448 -1.4903 0.105141 0
M  V30 5391 H 546.33 -3.51427 -2.32544 0
M  V30 5392 H 545.005 -2.32035 -2.25703 0
M  V30 5393 H 543.912 -3.71857 -0.409067 0
M  V30 5394 H 545.245 -4.89029 -0.557771 0
M  V30 5395 N 546.897 -0.0685191 -1.57451 0
M  V30 5396 C 548.122 0.613919 -1.98106 0
M  V30 5397 C 548.547 1.62551 -0.946501 0
M  V30 5398 O 547.905 1.81085 0.0882824 0
M  V30 5399 C 547.953 1.26189 -3.378 0
M  V30 5400 O 547.057 2.37773 -3.36954 0
M  V30 5401 H 546.398 0.158163 -0.644888 0
M  V30 5402 H 548.928 -0.142063 -2.04106 0
M  V30 5403 H 548.938 1.60951 -3.74912 0
M  V30 5404 H 547.613 0.520625 -4.12629 0
M  V30 5405 H 546.19 2.04829 -3.11608 0
M  V30 5406 N 548.375 1.56261 0.205012 0
M  V30 5407 C 549.305 1.96779 1.257 0
M  V30 5408 C 550.286 0.838309 1.48008 0
M  V30 5409 O 551.471 1.10189 1.59913 0
M  V30 5410 C 548.601 2.29876 2.60335 0
M  V30 5411 C 547.555 3.45469 2.52656 0
M  V30 5412 C 546.881 3.64215 3.91473 0
M  V30 5413 C 548.181 4.79954 2.06014 0
M  V30 5414 H 549.875 2.84904 0.920338 0
M  V30 5415 H 547.421 1.37072 0.441277 0
M  V30 5416 H 549.374 2.56814 3.34102 0
M  V30 5417 H 548.098 1.38622 2.95722 0
M  V30 5418 H 546.757 3.18605 1.81345 0
M  V30 5419 H 546.405 2.70309 4.24196 0
M  V30 5420 H 546.105 4.41973 3.87213 0
M  V30 5421 H 547.629 3.93519 4.66878 0
M  V30 5422 H 549.043 5.05989 2.69533 0
M  V30 5423 H 547.44 5.61111 2.12777 0
M  V30 5424 H 548.51 4.74201 1.01297 0
M  V30 5425 N 549.853 -0.472356 1.50355 0
M  V30 5426 C 551.083 -1.24603 1.64796 0
M  V30 5427 C 551.491 -1.86297 0.330156 0
M  V30 5428 O 550.834 -1.69934 -0.697728 0
M  V30 5429 C 550.896 -2.39578 2.68035 0
M  V30 5430 C 550.56 -1.98531 4.11624 0
M  V30 5431 C 551.557 -1.50856 4.97532 0
M  V30 5432 C 549.242 -2.0729 4.57532 0
M  V30 5433 C 551.236 -1.12481 6.27397 0
M  V30 5434 C 548.923 -1.68527 5.87403 0
M  V30 5435 C 549.921 -1.212 6.7216 0
M  V30 5436 O 549.609 -0.829728 7.99607 0
M  V30 5437 H 549.341 -0.383035 0.55701 0
M  V30 5438 H 551.895 -0.570392 1.97321 0
M  V30 5439 H 550.125 -3.10309 2.30749 0
M  V30 5440 H 551.814 -3.01544 2.71709 0
M  V30 5441 H 552.58 -1.43511 4.63281 0
M  V30 5442 H 548.459 -2.43076 3.91708 0
M  V30 5443 H 552.003 -0.754698 6.93506 0
M  V30 5444 H 547.9 -1.7553 6.21176 0
M  V30 5445 H 548.668 -0.958689 8.12866 0
M  V30 5446 N 551.331 -1.39911 -0.725443 0
M  V30 5447 C 552.263 -1.35301 -1.85003 0
M  V30 5448 C 553.276 -0.260102 -1.60709 0
M  V30 5449 O 554.465 -0.519749 -1.70766 0
M  V30 5450 C 551.565 -1.08039 -3.21218 0
M  V30 5451 C 550.738 -2.28793 -3.7279 0
M  V30 5452 C 549.797 -1.97841 -4.87591 0
M  V30 5453 O 548.823 -2.70616 -5.00755 0
M  V30 5454 N 550.025 -0.950367 -5.72668 0
M  V30 5455 H 552.79 -2.32218 -1.89459 0
M  V30 5456 H 550.351 -1.34137 -0.90658 0
M  V30 5457 H 552.343 -0.853354 -3.95601 0
M  V30 5458 H 550.913 -0.198229 -3.11971 0
M  V30 5459 H 550.133 -2.67388 -2.8965 0
M  V30 5460 H 551.421 -3.09317 -4.03981 0
M  V30 5461 H 550.819 -0.347436 -5.64632 0
M  V30 5462 H 549.376 -0.783232 -6.47077 0
M  V30 5463 N 552.809 0.956637 -1.25245 0
M  V30 5464 C 554.034 1.74104 -1.12706 0
M  V30 5465 C 554.459 1.85436 0.315429 0
M  V30 5466 O 553.817 1.33334 1.22848 0
M  V30 5467 C 553.865 3.1338 -1.78396 0
M  V30 5468 O 552.969 3.98485 -1.06224 0
M  V30 5469 H 552.31 0.53476 -0.393609 0
M  V30 5470 H 554.84 1.19924 -1.65769 0
M  V30 5471 H 554.85 3.6385 -1.846 0
M  V30 5472 H 553.525 3.04448 -2.83345 0
M  V30 5473 H 552.102 3.56952 -1.07886 0
M  V30 5474 N 554.287 1.06798 1.15896 0
M  V30 5475 C 555.234 0.683314 2.20453 0
M  V30 5476 C 556.204 -0.32255 1.62938 0
M  V30 5477 O 557.389 -0.210276 1.89638 0
M  V30 5478 C 554.529 0.0813266 3.45004 0
M  V30 5479 C 553.642 1.13799 4.16742 0
M  V30 5480 C 552.777 0.501598 5.28826 0
M  V30 5481 C 551.816 1.54144 5.92373 0
M  V30 5482 N 550.953 0.928038 6.9594 0
M  V30 5483 H 555.793 1.57932 2.52708 0
M  V30 5484 H 553.33 0.789544 1.24115 0
M  V30 5485 H 555.288 -0.285274 4.16224 0
M  V30 5486 H 553.918 -0.77806 3.13283 0
M  V30 5487 H 552.97 1.62223 3.44075 0
M  V30 5488 H 554.282 1.92664 4.60089 0
M  V30 5489 H 553.436 0.0823162 6.06644 0
M  V30 5490 H 552.175 -0.318883 4.86656 0
M  V30 5491 H 551.18 1.97056 5.13273 0
M  V30 5492 H 552.405 2.3641 6.36621 0
M  V30 5493 H 550.351 0.12836 6.55874 0
M  V30 5494 H 550.268 1.65401 7.37685 0
M  V30 5495 H 551.536 0.534071 7.77668 0
M  V30 5496 N 555.766 -1.3263 0.851289 0
M  V30 5497 C 556.996 -2.01271 0.466222 0
M  V30 5498 C 557.404 -1.64156 -0.940714 0
M  V30 5499 O 556.747 -0.857109 -1.62479 0
M  V30 5500 C 556.809 -3.55695 0.521672 0
M  V30 5501 C 556.473 -4.16227 1.88691 0
M  V30 5502 C 557.47 -4.34699 2.85189 0
M  V30 5503 C 555.155 -4.52377 2.18313 0
M  V30 5504 C 557.149 -4.88484 4.09465 0
M  V30 5505 C 554.836 -5.05868 3.42843 0
M  V30 5506 C 555.834 -5.23869 4.38235 0
M  V30 5507 O 555.522 -5.76218 5.6056 0
M  V30 5508 H 555.254 -0.651034 0.18202 0
M  V30 5509 H 557.808 -1.7026 1.14894 0
M  V30 5510 H 556.038 -3.86086 -0.217888 0
M  V30 5511 H 557.727 -4.05613 0.152682 0
M  V30 5512 H 558.493 -4.07107 2.63607 0
M  V30 5513 H 554.372 -4.37652 1.44851 0
M  V30 5514 H 557.916 -5.02451 4.83931 0
M  V30 5515 H 553.813 -5.32891 3.64277 0
M  V30 5516 H 554.581 -5.94616 5.62471 0
M  V30 5517 N 557.244 -0.608902 -1.45362 0
M  V30 5518 C 558.154 0.110969 -2.34337 0
M  V30 5519 C 559.17 0.859007 -1.51318 0
M  V30 5520 O 560.346 0.816296 -1.84116 0
M  V30 5521 C 557.411 1.09494 -3.28956 0
M  V30 5522 C 556.472 0.348718 -4.27881 0
M  V30 5523 C 555.705 1.28582 -5.17979 0
M  V30 5524 O 555.928 2.52369 -5.11533 0
M  V30 5525 O 554.862 0.782172 -5.96796 0
M  V30 5526 H 558.688 -0.620258 -2.97299 0
M  V30 5527 H 556.273 -0.36916 -1.44767 0
M  V30 5528 H 558.155 1.66163 -3.87257 0
M  V30 5529 H 556.83 1.80717 -2.68557 0
M  V30 5530 H 555.737 -0.260465 -3.73192 0
M  V30 5531 H 557.07 -0.323049 -4.91139 0
M  V30 5532 N 558.722 1.53707 -0.348139 0
M  V30 5533 C 559.632 2.28881 0.514857 0
M  V30 5534 C 560.648 1.34168 1.10793 0
M  V30 5535 O 561.824 1.6721 1.12262 0
M  V30 5536 C 558.889 3.05042 1.64774 0
M  V30 5537 C 557.95 4.15389 1.08398 0
M  V30 5538 C 557.183 4.87909 2.16287 0
M  V30 5539 O 557.406 4.60137 3.3709 0
M  V30 5540 O 556.34 5.74254 1.80323 0
M  V30 5541 H 560.166 3.03547 -0.0963699 0
M  V30 5542 H 557.751 1.48972 -0.113043 0
M  V30 5543 H 559.633 3.52656 2.30677 0
M  V30 5544 H 558.308 2.33228 2.24469 0
M  V30 5545 H 557.215 3.72068 0.389341 0
M  V30 5546 H 558.548 4.89318 0.531829 0
M  V30 5547 N 560.2 0.0768682 1.57412 0
M  V30 5548 C 561.13 -0.886026 2.16037 0
M  V30 5549 C 562.111 -1.30691 1.08876 0
M  V30 5550 O 563.296 -1.37705 1.36934 0
M  V30 5551 C 560.426 -2.1518 2.72608 0
M  V30 5552 C 559.38 -1.87015 3.8498 0
M  V30 5553 C 558.706 -3.20266 4.28175 0
M  V30 5554 C 560.006 -1.17143 5.08994 0
M  V30 5555 H 561.7 -0.397642 2.96748 0
M  V30 5556 H 559.246 -0.189823 1.42743 0
M  V30 5557 H 561.199 -2.82962 3.12266 0
M  V30 5558 H 559.923 -2.66269 1.89125 0
M  V30 5559 H 558.582 -1.21636 3.45833 0
M  V30 5560 H 558.23 -3.69207 3.41607 0
M  V30 5561 H 557.93 -3.0221 5.03927 0
M  V30 5562 H 559.454 -3.89237 4.70454 0
M  V30 5563 H 560.868 -1.75003 5.45937 0
M  V30 5564 H 559.265 -1.09328 5.90057 0
M  V30 5565 H 560.335 -0.151295 4.84664 0
M  V30 5566 N 561.678 -1.56367 -0.196722 0
M  V30 5567 C 562.61 -1.90941 -1.26784 0
M  V30 5568 C 563.623 -0.799928 -1.41792 0
M  V30 5569 O 564.812 -1.07833 -1.42247 0
M  V30 5570 C 561.912 -2.12477 -2.6402 0
M  V30 5571 C 561.085 -3.43616 -2.70641 0
M  V30 5572 C 560.144 -3.54284 -3.89062 0
M  V30 5573 O 559.17 -4.2712 -3.76241 0
M  V30 5574 N 560.372 -2.87252 -5.04447 0
M  V30 5575 H 563.137 -2.83417 -0.974417 0
M  V30 5576 H 560.698 -1.57215 -0.386649 0
M  V30 5577 H 562.69 -2.16904 -3.41665 0
M  V30 5578 H 561.26 -1.26508 -2.85857 0
M  V30 5579 H 560.48 -3.51072 -1.79283 0
M  V30 5580 H 561.768 -4.29958 -2.72054 0
M  V30 5581 H 561.166 -2.27901 -5.17762 0
M  V30 5582 H 559.723 -2.97308 -5.80044 0
M  V30 5583 N 563.156 0.464375 -1.50603 0
M  V30 5584 C 564.405 1.21277 -1.61167 0
M  V30 5585 C 564.718 1.92953 -0.320704 0
M  V30 5586 O 565.924 2.69778 -0.30534 0
M  V30 5587 C 564.38 2.20403 -2.84518 0
M  V30 5588 C 563.988 1.54499 -4.20516 0
M  V30 5589 C 565.732 2.95843 -3.0443 0
M  V30 5590 C 563.639 2.51951 -5.35047 0
M  V30 5591 H 562.569 0.456367 -0.600204 0
M  V30 5592 H 565.22 0.48254 -1.77042 0
M  V30 5593 H 563.602 2.96746 -2.62217 0
M  V30 5594 H 564.776 0.83899 -4.53098 0
M  V30 5595 H 563.091 0.913152 -4.06264 0
M  V30 5596 H 565.688 3.6879 -3.87167 0
M  V30 5597 H 566.031 3.55622 -2.16423 0
M  V30 5598 H 566.564 2.26611 -3.26944 0
M  V30 5599 H 563.303 1.96901 -6.25228 0
M  V30 5600 H 562.823 3.20683 -5.06875 0
M  V30 5601 H 564.502 3.13643 -5.65895 0
M  V30 5602 N 564.634 1.40294 0.718013 0
M  V30 5603 C 565.862 1.4175 1.50714 0
M  V30 5604 C 566.277 0.0165366 1.88793 0
M  V30 5605 O 565.634 -0.958942 1.55276 0
M  V30 5606 C 565.685 2.30598 2.784 0
M  V30 5607 O 565.406 3.6524 2.41932 0
M  V30 5608 C 566.907 2.4062 3.72313 0
M  V30 5609 H 564.127 0.483565 0.465194 0
M  V30 5610 H 566.671 1.84316 0.885889 0
M  V30 5611 H 564.826 1.91401 3.36815 0
M  V30 5612 H 565.24 4.12402 3.24076 0
M  V30 5613 H 566.714 3.07001 4.58753 0
M  V30 5614 H 567.191 1.4305 4.15251 0
M  V30 5615 H 567.797 2.80359 3.19811 0
M  V30 5616 N 566.112 -0.949982 1.2575 0
M  V30 5617 C 567.075 -2.02894 1.06615 0
M  V30 5618 C 568.075 -1.60791 0.0173905 0
M  V30 5619 O 569.265 -1.72249 0.260003 0
M  V30 5620 C 566.397 -3.35219 0.619751 0
M  V30 5621 H 567.59 -2.21302 2.02399 0
M  V30 5622 H 565.143 -1.12772 1.08223 0
M  V30 5623 H 565.878 -3.22508 -0.340486 0
M  V30 5624 H 565.663 -3.67129 1.37692 0
M  V30 5625 H 567.153 -4.14505 0.507443 0
M  V30 5626 N 567.59 -1.07411 -1.15328 0
M  V30 5627 C 568.838 -0.796073 -1.85761 0
M  V30 5628 C 569.159 0.679864 -1.82764 0
M  V30 5629 O 568.429 1.49242 -1.269 0
M  V30 5630 H 567.009 -0.291495 -0.687779 0
M  V30 5631 H 569.671 -1.35799 -1.39802 0
M  V30 5632 H 568.767 -1.13114 -2.90881 0
M  V30 5633 N 569.068 1.32177 -0.85831 0
M  V30 5634 C 570.484 1.49873 -0.548656 0
M  V30 5635 C 570.684 1.79278 0.919874 0
M  V30 5636 O 569.74 1.86451 1.70271 0
M  V30 5637 C 571.053 2.64043 -1.4388 0
M  V30 5638 C 572.601 2.77928 -1.43961 0
M  V30 5639 C 573.076 3.95182 -2.31506 0
M  V30 5640 N 574.567 4.0245 -2.29321 0
M  V30 5641 C 575.302 4.9242 -2.93786 0
M  V30 5642 N 574.798 5.87373 -3.67376 0
M  V30 5643 N 576.591 4.85572 -2.83155 0
M  V30 5644 H 568.742 1.11357 -1.80868 0
M  V30 5645 H 571.005 0.549175 -0.772729 0
M  V30 5646 H 570.711 2.49055 -2.48324 0
M  V30 5647 H 570.585 3.59912 -1.12885 0
M  V30 5648 H 572.972 2.92338 -0.402813 0
M  V30 5649 H 573.053 1.82762 -1.78974 0
M  V30 5650 H 572.697 3.81531 -3.35256 0
M  V30 5651 H 572.627 4.89633 -1.93823 0
M  V30 5652 H 575.118 3.34507 -1.75822 0
M  V30 5653 H 575.431 6.52728 -4.13722 0
M  V30 5654 H 573.776 5.87388 -3.71484 0
M  V30 5655 H 576.967 4.10363 -2.25211 0
M  V30 5656 H 577.14 5.55486 -3.33676 0
M  V30 5657 N 570.547 0.616602 1.45037 0
M  V30 5658 C 571.497 -0.118543 2.27692 0
M  V30 5659 C 572.481 -0.830025 1.37838 0
M  V30 5660 O 573.673 -0.718528 1.6176 0
M  V30 5661 C 570.802 -1.10924 3.24886 0
M  V30 5662 C 569.888 -0.398134 4.22227 0
M  V30 5663 N 570.279 0.565233 5.02632 0
M  V30 5664 C 568.577 -0.644506 4.41319 0
M  V30 5665 C 569.278 0.984043 5.73316 0
M  V30 5666 N 568.254 0.325879 5.42622 0
M  V30 5667 H 572.056 0.621239 2.87259 0
M  V30 5668 H 569.57 0.440968 1.56299 0
M  V30 5669 H 571.567 -1.65038 3.82842 0
M  V30 5670 H 570.227 -1.84948 2.66879 0
M  V30 5671 H 571.238 0.942395 5.09254 0
M  V30 5672 H 567.915 -1.36873 3.94426 0
M  V30 5673 H 569.305 1.77911 6.47918 0
M  V30 5674 N 572.025 -1.5352 0.356285 0
M  V30 5675 C 573.273 -2.00719 -0.235837 0
M  V30 5676 C 573.594 -1.24551 -1.5004 0
M  V30 5677 O 572.864 -0.356185 -1.92635 0
M  V30 5678 H 571.444 -0.741542 -0.0901366 0
M  V30 5679 H 574.106 -1.88887 0.480378 0
M  V30 5680 H 573.202 -3.08551 -0.469357 0
M  V30 5681 N 573.503 -0.0852151 -1.57369 0
M  V30 5682 C 574.78 0.622534 -1.85429 0
M  V30 5683 C 575.16 1.86962 -0.980229 0
M  V30 5684 O 574.508 2.28445 -0.0500219 0
M  V30 5685 C 574.718 0.947374 -3.35896 0
M  V30 5686 C 576.066 1.31509 -4.03721 0
M  V30 5687 O 577.09 1.03869 -3.40719 0
M  V30 5688 O 575.949 1.83231 -5.14868 0
M  V30 5689 H 573.043 0.310513 -0.766492 0
M  V30 5690 H 575.589 -0.117164 -1.69295 0
M  V30 5691 H 574.361 0.0622264 -3.91251 0
M  V30 5692 H 573.984 1.74338 -3.5734 0
M  V30 5693 N 574.981 1.5647 0.188427 0
M  V30 5694 C 576.206 1.85486 0.927891 0
M  V30 5695 C 576.631 0.669575 1.75779 0
M  V30 5696 O 575.989 -0.381573 1.77239 0
M  V30 5697 C 576.037 3.12784 1.7944 0
M  V30 5698 O 575.141 2.93805 2.894 0
M  V30 5699 H 574.482 0.610585 0.260925 0
M  V30 5700 H 577.012 2.037 0.191729 0
M  V30 5701 H 577.022 3.43749 2.19774 0
M  V30 5702 H 575.697 3.98671 1.18468 0
M  V30 5703 H 574.274 2.74153 2.52774 0
M  V30 5704 N 576.459 -0.456382 1.50847 0
M  V30 5705 C 577.705 -1.20914 1.62811 0
M  V30 5706 C 578.038 -1.91301 0.334304 0
M  V30 5707 O 577.313 -1.82775 -0.665098 0
M  V30 5708 C 577.596 -2.24122 2.81853 0
M  V30 5709 C 577.449 -1.57944 4.21158 0
M  V30 5710 C 578.768 -3.25295 2.96431 0
M  V30 5711 H 575.887 -0.438233 0.592554 0
M  V30 5712 H 578.529 -0.50091 1.83278 0
M  V30 5713 H 576.679 -2.84524 2.64534 0
M  V30 5714 H 578.351 -1.01025 4.50102 0
M  V30 5715 H 576.594 -0.882185 4.24735 0
M  V30 5716 H 577.265 -2.33014 5.00408 0
M  V30 5717 H 579.741 -2.7493 3.12335 0
M  V30 5718 H 578.617 -3.94822 3.81322 0
M  V30 5719 H 578.878 -3.90286 2.07676 0
M  V30 5720 N 577.937 -1.40673 -0.710563 0
M  V30 5721 C 579.353 -1.22813 -1.01928 0
M  V30 5722 C 579.553 -0.10687 -2.01216 0
M  V30 5723 O 578.609 0.533614 -2.46797 0
M  V30 5724 C 579.922 -2.57178 -1.5582 0
M  V30 5725 C 581.47 -2.64233 -1.67779 0
M  V30 5726 C 581.945 -3.98879 -2.25076 0
M  V30 5727 N 583.436 -4.00647 -2.32456 0
M  V30 5728 C 584.171 -5.01621 -2.77784 0
M  V30 5729 N 583.667 -6.12989 -3.22826 0
M  V30 5730 N 585.46 -4.88988 -2.77213 0
M  V30 5731 H 577.611 -2.12335 -0.05253 0
M  V30 5732 H 579.874 -0.9441 -0.085898 0
M  V30 5733 H 579.58 -3.39903 -0.903249 0
M  V30 5734 H 579.454 -2.78618 -2.54267 0
M  V30 5735 H 581.841 -1.81876 -2.3239 0
M  V30 5736 H 581.922 -2.46619 -0.679178 0
M  V30 5737 H 581.566 -4.81678 -1.61086 0
M  V30 5738 H 581.496 -4.13826 -3.25661 0
M  V30 5739 H 583.987 -3.20231 -2.0065 0
M  V30 5740 H 584.3 -6.85921 -3.55995 0
M  V30 5741 H 582.645 -6.16547 -3.20773 0
M  V30 5742 H 585.836 -4.01075 -2.41363 0
M  V30 5743 H 586.009 -5.67822 -3.12221 0
M  V30 5744 N 579.415 0.9433 -1.26252 0
M  V30 5745 C 580.363 2.06302 -1.07434 0
M  V30 5746 C 581.357 1.694 -0.00189471 0
M  V30 5747 O 582.563 1.79302 -0.158408 0
M  V30 5748 H 578.938 0.675453 -0.330556 0
M  V30 5749 H 580.909 2.19326 -2.02333 0
M  V30 5750 C 579.658 3.40125 -0.721817 0
M  V30 5751 H 578.981 3.68996 -1.5389 0
M  V30 5752 H 580.421 4.19295 -0.629922 0
M  V30 5753 C 578.88 3.31993 0.572902 0
M  V30 5754 O 579.41 3.67945 1.61182 0
M  V30 5755 N 577.616 2.85099 0.562748 0
M  V30 5756 H 577.163 2.5604 -0.283092 0
M  V30 5757 H 577.121 2.80041 1.42915 0
M  V30 5758 N 580.893 1.08022 1.14757 0
M  V30 5759 C 582.118 0.82895 1.90114 0
M  V30 5760 C 582.543 -0.612772 1.77839 0
M  V30 5761 O 581.901 -1.42895 1.11583 0
M  V30 5762 C 581.949 1.25062 3.38219 0
M  V30 5763 O 581.053 0.400119 4.10454 0
M  V30 5764 H 580.394 0.301412 0.591648 0
M  V30 5765 H 582.924 1.44062 1.45284 0
M  V30 5766 H 582.934 1.22977 3.89025 0
M  V30 5767 H 581.609 2.30067 3.46471 0
M  V30 5768 H 580.186 0.484052 3.69745 0
M  V30 5769 N 582.371 -1.3172 0.865308 0
M  V30 5770 C 583.318 -2.2863 0.315736 0
M  V30 5771 C 584.288 -1.55524 -0.583213 0
M  V30 5772 O 585.473 -1.83694 -0.51585 0
M  V30 5773 C 582.613 -3.41735 -0.480773 0
M  V30 5774 C 581.726 -4.297 0.445167 0
M  V30 5775 C 580.861 -5.29944 -0.365012 0
M  V30 5776 C 579.9 -6.09554 0.557651 0
M  V30 5777 N 579.037 -7.01768 -0.215994 0
M  V30 5778 H 583.877 -2.75026 1.14736 0
M  V30 5779 H 581.414 -1.35302 0.577209 0
M  V30 5780 H 583.372 -4.06045 -0.958306 0
M  V30 5781 H 582.002 -2.96461 -1.27714 0
M  V30 5782 H 581.054 -3.65875 1.04113 0
M  V30 5783 H 582.366 -4.85295 1.15284 0
M  V30 5784 H 581.52 -5.99908 -0.905255 0
M  V30 5785 H 580.259 -4.74994 -1.106 0
M  V30 5786 H 579.264 -5.38485 1.10969 0
M  V30 5787 H 580.489 -6.66591 1.29742 0
M  V30 5788 H 578.435 -6.49232 -0.939878 0
M  V30 5789 H 578.352 -7.54762 0.432431 0
M  V30 5790 H 579.62 -7.76002 -0.737618 0
M  V30 5791 N 583.85 -0.624285 -1.44708 0
M  V30 5792 C 585.099 -0.123539 -2.01321 0
M  V30 5793 C 585.412 1.25966 -1.49639 0
M  V30 5794 O 586.618 1.85405 -1.98336 0
M  V30 5795 C 585.074 -0.170124 -3.59498 0
M  V30 5796 C 584.682 -1.55421 -4.20176 0
M  V30 5797 C 586.426 0.274513 -4.23611 0
M  V30 5798 C 584.332 -1.55628 -5.70556 0
M  V30 5799 H 583.263 -0.0424183 -0.752806 0
M  V30 5800 H 585.913 -0.782076 -1.65999 0
M  V30 5801 H 584.296 0.555385 -3.92086 0
M  V30 5802 H 585.47 -2.30276 -3.99136 0
M  V30 5803 H 583.784 -1.94235 -3.68323 0
M  V30 5804 H 586.382 0.292402 -5.339 0
M  V30 5805 H 586.725 1.3005 -3.95465 0
M  V30 5806 H 587.258 -0.398275 -3.95801 0
M  V30 5807 H 583.997 -2.56041 -6.03426 0
M  V30 5808 H 583.517 -0.850563 -5.93739 0
M  V30 5809 H 585.196 -1.28721 -6.34066 0
M  V30 5810 N 585.328 1.53329 -0.364422 0
M  V30 5811 C 586.238 2.29414 0.490552 0
M  V30 5812 C 587.254 1.35335 1.09363 0
M  V30 5813 O 588.43 1.68391 1.10483 0
M  V30 5814 C 585.495 3.06772 1.61529 0
M  V30 5815 C 584.556 4.16516 1.03986 0
M  V30 5816 C 583.789 4.90176 2.111 0
M  V30 5817 O 584.012 4.63687 3.32191 0
M  V30 5818 O 582.946 5.76134 1.74222 0
M  V30 5819 H 586.772 3.03428 -0.12856 0
M  V30 5820 H 584.357 1.48843 -0.128837 0
M  V30 5821 H 586.239 3.55082 2.26924 0
M  V30 5822 H 584.914 2.35596 2.21983 0
M  V30 5823 H 583.821 3.7246 0.349856 0
M  V30 5824 H 585.154 4.89855 0.4799 0
M  V30 5825 N 586.806 0.0935595 1.57322 0
M  V30 5826 C 588.055 -0.570191 1.93473 0
M  V30 5827 C 588.368 -1.69434 0.977318 0
M  V30 5828 O 589.574 -2.41914 1.23248 0
M  V30 5829 C 588.03 -1.06564 3.43762 0
M  V30 5830 C 587.638 0.0286723 4.47991 0
M  V30 5831 C 589.382 -1.70221 3.88877 0
M  V30 5832 C 587.289 -0.482046 5.89432 0
M  V30 5833 H 586.219 -0.216764 0.72217 0
M  V30 5834 H 588.87 0.169313 1.82717 0
M  V30 5835 H 587.252 -1.85878 3.49664 0
M  V30 5836 H 588.426 0.804106 4.5373 0
M  V30 5837 H 586.741 0.570336 4.12476 0
M  V30 5838 H 589.338 -2.09502 4.91948 0
M  V30 5839 H 589.681 -2.57078 3.27439 0
M  V30 5840 H 590.214 -0.974919 3.85668 0
M  V30 5841 H 586.953 0.349871 6.54566 0
M  V30 5842 H 586.473 -1.22452 5.87167 0
M  V30 5843 H 588.152 -0.951508 6.39965 0
M  V30 5844 N 588.284 -1.56567 -0.180126 0
M  V30 5845 C 589.509 -1.85975 -0.918041 0
M  V30 5846 C 589.934 -0.678888 -1.75422 0
M  V30 5847 O 589.292 0.372168 -1.77439 0
M  V30 5848 C 589.34 -3.13731 -1.77779 0
M  V30 5849 O 588.444 -2.95335 -2.87838 0
M  V30 5850 H 587.785 -0.61196 -0.257683 0
M  V30 5851 H 590.315 -2.03798 -0.180923 0
M  V30 5852 H 590.325 -3.4491 -2.17948 0
M  V30 5853 H 589 -3.99293 -1.16352 0
M  V30 5854 H 587.577 -2.7549 -2.51316 0
M  V30 5855 N 589.762 0.448376 -1.51087 0
M  V30 5856 C 590.672 1.56882 -1.74428 0
M  V30 5857 C 591.688 1.62268 -0.62809 0
M  V30 5858 O 592.864 1.79716 -0.909075 0
M  V30 5859 C 589.929 2.92947 -1.85426 0
M  V30 5860 C 588.99 2.97766 -3.09247 0
M  V30 5861 C 588.223 4.27341 -3.19711 0
M  V30 5862 O 588.446 5.19112 -2.36387 0
M  V30 5863 O 587.38 4.38219 -4.12611 0
M  V30 5864 H 591.206 1.40104 -2.69452 0
M  V30 5865 H 588.791 0.630247 -1.35456 0
M  V30 5866 H 590.673 3.73719 -1.94709 0
M  V30 5867 H 589.348 3.09876 -0.935887 0
M  V30 5868 H 588.255 2.15989 -3.0545 0
M  V30 5869 H 589.588 2.8578 -4.00738 0
M  V30 5870 N 591.24 1.41047 0.703093 0
M  V30 5871 C 592.17 1.45067 1.82969 0
M  V30 5872 C 593.151 0.31016 1.67248 0
M  V30 5873 O 594.336 0.520548 1.87093 0
M  V30 5874 C 591.466 1.32478 3.2104 0
M  V30 5875 C 590.42 2.44262 3.51454 0
M  V30 5876 C 589.746 2.16742 4.88801 0
M  V30 5877 C 591.046 3.86606 3.51189 0
M  V30 5878 H 592.74 2.39353 1.79863 0
M  V30 5879 H 590.286 1.15206 0.863919 0
M  V30 5880 H 592.239 1.33904 3.99559 0
M  V30 5881 H 590.963 0.346735 3.24754 0
M  V30 5882 H 589.622 2.42107 2.75282 0
M  V30 5883 H 589.27 1.17299 4.89132 0
M  V30 5884 H 588.97 2.91643 5.10116 0
M  V30 5885 H 590.494 2.19872 5.69639 0
M  V30 5886 H 591.908 3.90517 4.19725 0
M  V30 5887 H 590.305 4.61128 3.84033 0
M  V30 5888 H 591.375 4.15296 2.50315 0
M  V30 5889 N 592.718 -0.936591 1.26751 0
M  V30 5890 C 593.666 -2.0573 1.08527 0
M  V30 5891 C 594.66 -1.69397 0.0108784 0
M  V30 5892 O 595.866 -1.79215 0.167915 0
M  V30 5893 H 592.241 -0.673691 0.334133 0
M  V30 5894 H 594.212 -2.1825 2.03493 0
M  V30 5895 C 592.961 -3.39738 0.739845 0
M  V30 5896 H 592.284 -3.68174 1.55845 0
M  V30 5897 H 593.724 -4.18955 0.652149 0
M  V30 5898 C 592.183 -3.32292 -0.555288 0
M  V30 5899 O 592.713 -3.68794 -1.59229 0
M  V30 5900 N 590.919 -2.85394 -0.54762 0
M  V30 5901 H 590.466 -2.55886 0.296667 0
M  V30 5902 H 590.424 -2.80795 -1.41427 0
M  V30 5903 N 594.196 -1.08629 -1.14182 0
M  V30 5904 C 595.612 -0.814363 -1.3726 0
M  V30 5905 C 595.812 0.575271 -1.93114 0
M  V30 5906 O 594.868 1.33165 -2.1453 0
M  V30 5907 C 596.181 -1.8989 -2.33157 0
M  V30 5908 C 597.729 -1.92518 -2.46791 0
M  V30 5909 C 598.204 -3.00092 -3.45989 0
M  V30 5910 N 599.695 -2.99279 -3.53534 0
M  V30 5911 C 600.43 -3.79158 -4.30147 0
M  V30 5912 N 599.926 -4.68923 -5.09983 0
M  V30 5913 N 601.719 -3.67451 -4.25366 0
M  V30 5914 H 593.87 -1.98232 -0.762758 0
M  V30 5915 H 596.133 -0.860383 -0.398051 0
M  V30 5916 H 595.839 -2.89809 -1.99257 0
M  V30 5917 H 595.713 -1.77013 -3.33086 0
M  V30 5918 H 598.1 -0.932425 -2.79982 0
M  V30 5919 H 598.181 -2.09473 -1.46816 0
M  V30 5920 H 597.825 -3.99575 -3.13532 0
M  V30 5921 H 597.755 -2.80382 -4.45751 0
M  V30 5922 H 600.246 -2.3422 -2.96563 0
M  V30 5923 H 600.559 -5.26475 -5.65724 0
M  V30 5924 H 598.904 -4.72964 -5.09244 0
M  V30 5925 H 602.095 -2.9669 -3.62067 0
M  V30 5926 H 602.268 -4.29944 -4.84822 0
M  V30 5927 N 595.674 1.31259 -0.872281 0
M  V30 5928 C 596.92 1.96913 -0.485083 0
M  V30 5929 C 597.253 1.68774 0.960667 0
M  V30 5930 O 596.528 0.985495 1.67685 0
M  V30 5931 C 596.811 3.52299 -0.745502 0
M  V30 5932 C 596.664 3.90002 -2.24095 0
M  V30 5933 C 597.983 4.39582 -0.213516 0
M  V30 5934 H 595.102 0.715252 -0.177716 0
M  V30 5935 H 597.744 1.55347 -1.09395 0
M  V30 5936 H 595.894 3.87835 -0.227276 0
M  V30 5937 H 597.566 3.64555 -2.82661 0
M  V30 5938 H 595.809 3.38526 -2.71261 0
M  V30 5939 H 596.48 4.98352 -2.37381 0
M  V30 5940 H 598.956 4.10882 -0.656902 0
M  V30 5941 H 597.832 5.47251 -0.42516 0
M  V30 5942 H 598.093 4.33158 0.884666 0
M  V30 5943 N 597.152 0.631951 1.44375 0
M  V30 5944 C 598.401 0.134214 2.01253 0
M  V30 5945 C 598.714 -1.25171 1.50305 0
M  V30 5946 O 599.92 -1.8435 1.99317 0
M  V30 5947 C 598.376 0.189187 3.59402 0
M  V30 5948 C 597.984 1.57647 4.19346 0
M  V30 5949 C 599.728 -0.252044 4.23751 0
M  V30 5950 C 597.635 1.58651 5.69722 0
M  V30 5951 H 596.565 0.0464101 0.75257 0
M  V30 5952 H 599.216 0.790868 1.65582 0
M  V30 5953 H 597.598 -0.534584 3.92375 0
M  V30 5954 H 598.772 2.32389 3.97909 0
M  V30 5955 H 597.087 1.96186 3.67288 0
M  V30 5956 H 599.684 -0.264084 5.34047 0
M  V30 5957 H 600.027 -1.27951 3.96149 0
M  V30 5958 H 600.56 0.41926 3.95584 0
M  V30 5959 H 597.299 2.59237 6.0206 0
M  V30 5960 H 596.819 0.882039 5.93279 0
M  V30 5961 H 598.498 1.32082 6.33375 0
M  V30 5962 N 598.631 -1.53133 0.372548 0
M  V30 5963 C 599.563 -2.23557 -0.505444 0
M  V30 5964 C 600.576 -1.25211 -1.04049 0
M  V30 5965 O 601.765 -1.51391 -0.945675 0
M  V30 5966 C 598.865 -2.92516 -1.71136 0
M  V30 5967 C 598.038 -4.17428 -1.30661 0
M  V30 5968 C 597.097 -4.69535 -2.37536 0
M  V30 5969 O 596.123 -5.33042 -1.99637 0
M  V30 5970 N 597.325 -4.47947 -3.6922 0
M  V30 5971 H 600.09 -2.9954 0.0978259 0
M  V30 5972 H 597.651 -1.60684 0.198068 0
M  V30 5973 H 599.643 -3.24281 -2.42124 0
M  V30 5974 H 598.213 -2.19944 -2.22134 0
M  V30 5975 H 597.433 -3.91888 -0.426292 0
M  V30 5976 H 598.721 -4.98622 -1.01259 0
M  V30 5977 H 598.119 -3.97219 -4.02783 0
M  V30 5978 H 596.676 -4.84245 -4.36292 0
M  V30 5979 N 600.109 -0.101901 -1.5727 0
M  V30 5980 C 601.525 0.254739 -1.57554 0
M  V30 5981 C 601.725 1.67937 -1.11352 0
M  V30 5982 O 600.781 2.39722 -0.793081 0
M  V30 5983 C 602.094 0.036975 -3.00677 0
M  V30 5984 C 603.642 0.104199 -3.12827 0
M  V30 5985 C 604.117 -0.0856565 -4.5792 0
M  V30 5986 N 605.608 -0.0310498 -4.6319 0
M  V30 5987 C 606.343 -0.153099 -5.73196 0
M  V30 5988 N 605.839 -0.330364 -6.92012 0
M  V30 5989 N 607.632 -0.0938854 -5.62022 0
M  V30 5990 H 599.783 -1.03263 -1.85609 0
M  V30 5991 H 602.046 -0.405251 -0.857016 0
M  V30 5992 H 601.752 -0.947254 -3.38703 0
M  V30 5993 H 601.626 0.776335 -3.69124 0
M  V30 5994 H 604.013 1.07894 -2.74669 0
M  V30 5995 H 604.094 -0.666762 -2.46957 0
M  V30 5996 H 603.738 -1.05729 -4.96773 0
M  V30 5997 H 603.668 0.705082 -5.21858 0
M  V30 5998 H 606.159 0.103141 -3.77759 0
M  V30 5999 H 606.472 -0.41482 -7.71686 0
M  V30 6000 H 604.817 -0.366119 -6.94035 0
M  V30 6001 H 608.008 0.0435168 -4.6808 0
M  V30 6002 H 608.181 -0.19245 -6.47714 0
M  V30 6003 N 601.587 1.56661 0.17182 0
M  V30 6004 C 602.517 1.99401 1.21498 0
M  V30 6005 C 603.498 0.869516 1.46197 0
M  V30 6006 O 604.683 1.13556 1.57539 0
M  V30 6007 C 601.813 2.35346 2.55401 0
M  V30 6008 C 600.767 3.5075 2.45272 0
M  V30 6009 C 600.093 3.72437 3.8366 0
M  V30 6010 C 601.393 4.84216 1.95787 0
M  V30 6011 H 603.087 2.86792 0.859699 0
M  V30 6012 H 600.633 1.37977 0.412103 0
M  V30 6013 H 602.586 2.63843 3.2858 0
M  V30 6014 H 601.31 1.44864 2.92715 0
M  V30 6015 H 599.969 3.2238 1.74547 0
M  V30 6016 H 599.617 2.79246 4.18367 0
M  V30 6017 H 599.317 4.50087 3.77751 0
M  V30 6018 H 600.841 4.03334 4.58426 0
M  V30 6019 H 602.255 5.11592 2.5874 0
M  V30 6020 H 600.652 5.65498 2.00827 0
M  V30 6021 H 601.722 4.76243 0.912159 0
M  V30 6022 N 603.065 -0.440357 1.51323 0
M  V30 6023 C 604.481 -0.7766 1.39431 0
M  V30 6024 C 604.681 -1.95838 0.474296 0
M  V30 6025 O 603.737 -2.52398 -0.0716692 0
M  V30 6026 C 605.05 -1.05981 2.81405 0
M  V30 6027 C 606.598 -1.16442 2.90534 0
M  V30 6028 C 607.073 -1.48058 4.33408 0
M  V30 6029 N 608.564 -1.54988 4.36501 0
M  V30 6030 C 609.299 -1.81017 5.44078 0
M  V30 6031 N 608.795 -2.04858 6.61819 0
M  V30 6032 N 610.588 -1.82774 5.31554 0
M  V30 6033 H 602.739 0.338006 2.09693 0
M  V30 6034 H 605.002 0.0888072 0.943831 0
M  V30 6035 H 604.708 -0.264173 3.50706 0
M  V30 6036 H 604.582 -1.98822 3.20546 0
M  V30 6037 H 606.969 -1.95068 2.21432 0
M  V30 6038 H 607.05 -0.215088 2.54894 0
M  V30 6039 H 606.694 -0.699605 5.03059 0
M  V30 6040 H 606.624 -2.44192 4.66559 0
M  V30 6041 H 609.115 -1.38479 3.51613 0
M  V30 6042 H 609.428 -2.2408 7.396 0
M  V30 6043 H 607.773 -2.02187 6.6494 0
M  V30 6044 H 610.964 -1.63665 4.38556 0
M  V30 6045 H 611.137 -2.02722 6.15474 0
M  V30 6046 N 604.543 -1.41418 -0.695603 0
M  V30 6047 C 605.768 -1.44329 -1.48942 0
M  V30 6048 C 606.193 -0.0501579 -1.88033 0
M  V30 6049 O 605.551 0.946598 -1.54626 0
M  V30 6050 C 605.599 -2.3578 -2.72837 0
M  V30 6051 O 604.703 -1.81482 -3.70322 0
M  V30 6052 H 604.044 -0.489838 -0.44828 0
M  V30 6053 H 606.574 -1.85878 -0.855014 0
M  V30 6054 H 606.584 -2.51654 -3.21145 0
M  V30 6055 H 605.259 -3.37005 -2.43722 0
M  V30 6056 H 603.836 -1.75058 -3.29255 0
M  V30 6057 N 606.021 0.929856 -1.27246 0
M  V30 6058 C 606.931 2.0636 -1.11592 0
M  V30 6059 C 607.947 1.73938 -0.046496 0
M  V30 6060 O 609.123 1.9981 -0.252544 0
M  V30 6061 C 606.188 3.38213 -0.762437 0
M  V30 6062 C 605.249 3.84346 -1.9125 0
M  V30 6063 C 604.482 5.09906 -1.57579 0
M  V30 6064 O 604.705 5.68354 -0.482694 0
M  V30 6065 O 603.639 5.51359 -2.41426 0
M  V30 6066 H 607.465 2.22478 -2.0673 0
M  V30 6067 H 605.05 1.04865 -1.06413 0
M  V30 6068 H 606.932 4.1741 -0.57854 0
M  V30 6069 H 605.607 3.23307 0.159439 0
M  V30 6070 H 604.514 3.06045 -2.15144 0
M  V30 6071 H 605.847 4.0379 -2.81451 0
M  V30 6072 N 607.499 1.09233 1.13605 0
M  V30 6073 C 608.748 0.82205 1.84188 0
M  V30 6074 C 609.061 -0.654548 1.84323 0
M  V30 6075 O 610.267 -1.04029 2.50779 0
M  V30 6076 C 608.723 1.42066 3.30674 0
M  V30 6077 C 608.331 2.92965 3.38933 0
M  V30 6078 C 610.075 1.22924 4.06313 0
M  V30 6079 C 607.982 3.45922 4.79679 0
M  V30 6080 H 606.912 0.303854 0.690064 0
M  V30 6081 H 609.563 1.31479 1.28006 0
M  V30 6082 H 607.945 0.855613 3.86646 0
M  V30 6083 H 609.119 3.55679 2.92966 0
M  V30 6084 H 607.434 3.11118 2.76757 0
M  V30 6085 H 610.031 1.59945 5.10217 0
M  V30 6086 H 610.374 0.169726 4.15954 0
M  V30 6087 H 610.907 1.76168 3.56665 0
M  V30 6088 H 607.646 4.51484 4.75229 0
M  V30 6089 H 607.166 2.87971 5.26149 0
M  V30 6090 H 608.845 3.43009 5.48592 0
M  V30 6091 N 608.977 -1.30795 0.87923 0
M  V30 6092 C 610.254 -1.91145 0.415086 0
M  V30 6093 C 610.634 -1.7995 -1.10368 0
M  V30 6094 O 609.982 -1.21305 -1.93642 0
M  V30 6095 C 610.192 -3.37014 0.906778 0
M  V30 6096 C 611.54 -4.14101 0.938358 0
M  V30 6097 O 612.564 -3.45834 0.853053 0
M  V30 6098 O 611.423 -5.36054 1.06342 0
M  V30 6099 H 608.517 -0.81736 0.125905 0
M  V30 6100 H 611.063 -1.39401 0.967753 0
M  V30 6101 H 609.835 -3.3922 1.95053 0
M  V30 6102 H 609.458 -3.96204 0.332948 0
M  V30 6103 N 610.455 -0.639598 -1.44038 0
M  V30 6104 C 611.403 0.0723409 -2.32487 0
M  V30 6105 C 612.397 0.827129 -1.47834 0
M  V30 6106 O 613.603 0.73907 -1.64127 0
M  V30 6107 H 609.978 0.0421696 -0.750817 0
M  V30 6108 H 611.949 -0.691593 -2.90275 0
M  V30 6109 C 610.698 1.03452 -3.31953 0
M  V30 6110 H 610.021 0.46315 -3.97108 0
M  V30 6111 H 611.461 1.502 -3.96505 0
M  V30 6112 C 609.92 2.12392 -2.61518 0
M  V30 6113 O 610.45 3.2059 -2.42044 0
M  V30 6114 N 608.656 1.88563 -2.21116 0
M  V30 6115 H 608.203 1.00577 -2.37154 0
M  V30 6116 H 608.161 2.61651 -1.74316 0
M  V30 6117 N 611.933 1.52934 -0.380664 0
M  V30 6118 C 613.179 2.01765 0.20458 0
M  V30 6119 C 613.512 1.26696 1.47179 0
M  V30 6120 O 612.787 0.364936 1.91046 0
M  V30 6121 C 613.07 3.56869 0.481269 0
M  V30 6122 C 612.923 4.42617 -0.800629 0
M  V30 6123 C 614.242 4.2121 1.27554 0
M  V30 6124 H 611.361 0.733388 0.0728803 0
M  V30 6125 H 614.003 1.83068 -0.50853 0
M  V30 6126 H 612.153 3.72932 1.08875 0
M  V30 6127 H 613.825 4.38323 -1.43773 0
M  V30 6128 H 612.068 4.09977 -1.4178 0
M  V30 6129 H 612.739 5.49134 -0.561791 0
M  V30 6130 H 615.215 4.09072 0.761514 0
M  V30 6131 H 614.091 5.29732 1.43788 0
M  V30 6132 H 614.352 3.78269 2.28833 0
M  V30 6133 N 613.412 0.11024 1.57214 0
M  V30 6134 C 614.359 -0.843195 2.14846 0
M  V30 6135 C 615.329 -1.26954 1.07107 0
M  V30 6136 O 616.514 -1.34861 1.34971 0
M  V30 6137 C 613.654 -2.09123 2.74521 0
M  V30 6138 C 612.767 -1.71404 3.96541 0
M  V30 6139 C 611.902 -2.91107 4.44331 0
M  V30 6140 C 610.941 -2.49586 5.58903 0
M  V30 6141 N 610.078 -3.62175 6.01477 0
M  V30 6142 H 614.918 -0.344886 2.95998 0
M  V30 6143 H 612.455 -0.15855 1.46243 0
M  V30 6144 H 614.413 -2.82234 3.07246 0
M  V30 6145 H 613.043 -2.56427 1.96074 0
M  V30 6146 H 612.095 -0.88201 3.70033 0
M  V30 6147 H 613.407 -1.36884 4.7965 0
M  V30 6148 H 612.561 -3.72454 4.78919 0
M  V30 6149 H 611.3 -3.28848 3.60153 0
M  V30 6150 H 610.305 -1.6667 5.23929 0
M  V30 6151 H 611.53 -2.12973 6.4484 0
M  V30 6152 H 609.476 -3.99605 5.20242 0
M  V30 6153 H 609.393 -3.3155 6.79419 0
M  V30 6154 H 610.661 -4.43987 6.407 0
M  V30 6155 N 614.89 -1.56749 -0.16351 0
M  V30 6156 C 615.837 -1.97011 -1.2023 0
M  V30 6157 C 616.807 -0.835186 -1.43575 0
M  V30 6158 O 617.992 -1.09594 -1.56185 0
M  V30 6159 C 615.132 -2.34186 -2.53478 0
M  V30 6160 C 614.245 -3.60893 -2.37446 0
M  V30 6161 C 613.38 -3.87245 -3.63614 0
M  V30 6162 C 612.419 -5.07274 -3.42548 0
M  V30 6163 N 611.556 -5.29719 -4.60806 0
M  V30 6164 H 616.396 -2.85562 -0.851958 0
M  V30 6165 H 613.933 -1.41292 -0.409257 0
M  V30 6166 H 615.891 -2.53764 -3.31149 0
M  V30 6167 H 614.521 -1.48736 -2.86492 0
M  V30 6168 H 613.573 -3.49185 -1.50911 0
M  V30 6169 H 614.885 -4.48722 -2.1783 0
M  V30 6170 H 614.039 -4.07232 -4.49719 0
M  V30 6171 H 612.778 -2.97806 -3.86216 0
M  V30 6172 H 611.783 -4.87177 -2.5483 0
M  V30 6173 H 613.008 -5.98251 -3.2136 0
M  V30 6174 H 610.954 -4.43233 -4.83612 0
M  V30 6175 H 610.871 -6.11786 -4.44132 0
M  V30 6176 H 612.139 -5.54192 -5.48171 0
M  V30 6177 N 616.368 0.432326 -1.51554 0
M  V30 6178 C 617.3 1.54357 -1.6943 0
M  V30 6179 C 618.313 1.52311 -0.574897 0
M  V30 6180 O 619.502 1.56997 -0.849369 0
M  V30 6181 C 616.602 2.93273 -1.69836 0
M  V30 6182 C 615.775 3.19768 -2.98442 0
M  V30 6183 C 614.834 4.38433 -2.90969 0
M  V30 6184 O 613.86 4.36842 -3.64908 0
M  V30 6185 N 615.062 5.42276 -2.07163 0
M  V30 6186 H 617.827 1.39426 -2.65293 0
M  V30 6187 H 615.388 0.621331 -1.49503 0
M  V30 6188 H 617.38 3.70687 -1.62399 0
M  V30 6189 H 615.95 3.01777 -0.815456 0
M  V30 6190 H 615.17 2.30607 -3.19709 0
M  V30 6191 H 616.458 3.343 -3.83563 0
M  V30 6192 H 615.856 5.46407 -1.46477 0
M  V30 6193 H 614.413 6.18524 -2.05601 0
M  V30 6194 N 617.846 1.41785 0.688094 0
M  V30 6195 C 619.095 1.4084 1.44385 0
M  V30 6196 C 619.408 0.0234166 1.95586 0
M  V30 6197 O 620.614 -0.108647 2.71283 0
M  V30 6198 C 619.07 2.47675 2.61123 0
M  V30 6199 C 618.678 3.92116 2.16677 0
M  V30 6200 C 620.422 2.55877 3.38714 0
M  V30 6201 C 618.329 4.90487 3.30419 0
M  V30 6202 H 617.259 0.523787 0.542368 0
M  V30 6203 H 619.91 1.6764 0.74627 0
M  V30 6204 H 618.292 2.14018 3.33185 0
M  V30 6205 H 619.466 4.35059 1.51856 0
M  V30 6206 H 617.781 3.87642 1.5206 0
M  V30 6207 H 620.378 3.26553 4.234 0
M  V30 6208 H 620.721 1.59801 3.84408 0
M  V30 6209 H 621.254 2.88662 2.73714 0
M  V30 6210 H 617.993 5.87994 2.89729 0
M  V30 6211 H 617.513 4.52187 3.94065 0
M  V30 6212 H 619.192 5.11591 3.96085 0
M  V30 6213 N 619.324 -0.923095 1.27737 0
M  V30 6214 C 620.549 -1.71054 1.17283 0
M  V30 6215 C 620.974 -1.86208 -0.266153 0
M  V30 6216 O 620.332 -1.36545 -1.1927 0
M  V30 6217 C 620.38 -3.0854 1.86642 0
M  V30 6218 O 619.484 -3.95528 1.16752 0
M  V30 6219 H 618.825 -0.524136 0.407649 0
M  V30 6220 H 621.355 -1.15487 1.6889 0
M  V30 6221 H 621.365 -3.58828 1.94182 0
M  V30 6222 H 620.04 -2.96828 2.91317 0
M  V30 6223 H 618.617 -3.53967 1.17312 0
M  V30 6224 N 620.802 -1.09834 -1.13024 0
M  V30 6225 C 621.75 -0.736283 -2.20639 0
M  V30 6226 C 622.744 0.264725 -1.67319 0
M  V30 6227 O 623.95 0.125745 -1.7956 0
M  V30 6228 H 620.325 -0.220136 -0.719058 0
M  V30 6229 H 622.296 -1.65295 -2.48436 0
M  V30 6230 C 621.045 -0.177544 -3.47246 0
M  V30 6231 H 620.368 -0.939009 -3.88616 0
M  V30 6232 H 621.808 0.0378007 -4.23983 0
M  V30 6233 C 620.267 1.08824 -3.1884 0
M  V30 6234 O 620.797 2.1708 -3.37993 0
M  V30 6235 N 619.003 1.00442 -2.7269 0
M  V30 6236 H 618.55 0.123383 -2.57304 0
M  V30 6237 H 618.508 1.85206 -2.5406 0
M  V30 6238 N 622.28 1.30327 -0.886154 0
M  V30 6239 C 623.21 2.30549 -0.370028 0
M  V30 6240 C 624.191 1.61039 0.547751 0
M  V30 6241 O 625.376 1.8864 0.461353 0
M  V30 6242 C 622.506 3.44808 0.415275 0
M  V30 6243 C 621.46 4.26024 -0.41085 0
M  V30 6244 C 620.786 5.32347 0.501128 0
M  V30 6245 C 622.086 4.95433 -1.65359 0
M  V30 6246 H 623.78 2.73969 -1.20754 0
M  V30 6247 H 621.326 1.3171 -0.582097 0
M  V30 6248 H 623.279 4.13986 0.78699 0
M  V30 6249 H 622.003 3.00197 1.28644 0
M  V30 6250 H 620.662 3.58535 -0.764719 0
M  V30 6251 H 620.31 4.83982 1.37004 0
M  V30 6252 H 620.01 5.87581 -0.0478356 0
M  V30 6253 H 621.534 6.0438 0.869333 0
M  V30 6254 H 622.948 5.5712 -1.35239 0
M  V30 6255 H 621.345 5.60537 -2.14284 0
M  V30 6256 H 622.415 4.21493 -2.39733 0
M  V30 6257 N 623.758 0.647228 1.43697 0
M  V30 6258 C 624.69 -0.0866232 2.29036 0
M  V30 6259 C 625.703 -0.793051 1.42178 0
M  V30 6260 O 626.892 -0.651807 1.66174 0
M  V30 6261 C 623.992 -1.14552 3.18953 0
M  V30 6262 C 623.165 -0.518422 4.34317 0
M  V30 6263 C 622.224 -1.4734 5.05151 0
M  V30 6264 O 621.25 -0.984312 5.60625 0
M  V30 6265 N 622.452 -2.8075 5.08094 0
M  V30 6266 H 625.217 0.645834 2.92659 0
M  V30 6267 H 622.778 0.489567 1.54321 0
M  V30 6268 H 624.77 -1.78505 3.63205 0
M  V30 6269 H 623.34 -1.78001 2.56971 0
M  V30 6270 H 622.56 0.300079 3.93056 0
M  V30 6271 H 623.848 -0.080401 5.08736 0
M  V30 6272 H 623.246 -3.23052 4.64386 0
M  V30 6273 H 621.803 -3.40022 5.56083 0
M  V30 6274 N 625.236 -1.5273 0.388769 0
M  V30 6275 C 626.168 -2.24081 -0.481704 0
M  V30 6276 C 627.181 -1.26307 -1.02715 0
M  V30 6277 O 628.37 -1.52386 -0.929565 0
M  V30 6278 C 625.47 -2.94315 -1.68024 0
M  V30 6279 C 624.643 -4.18791 -1.26226 0
M  V30 6280 C 623.702 -4.72028 -2.32542 0
M  V30 6281 O 622.728 -5.35129 -1.93972 0
M  V30 6282 N 623.93 -4.51838 -3.64448 0
M  V30 6283 H 626.695 -2.9942 0.129591 0
M  V30 6284 H 624.256 -1.60465 0.2151 0
M  V30 6285 H 626.248 -3.26831 -2.38671 0
M  V30 6286 H 624.818 -2.22287 -2.19789 0
M  V30 6287 H 624.038 -3.92318 -0.384703 0
M  V30 6288 H 625.326 -4.99668 -0.959647 0
M  V30 6289 H 624.724 -4.01468 -3.98547 0
M  V30 6290 H 623.281 -4.88845 -4.31131 0
M  V30 6291 N 626.714 -0.118576 -1.57153 0
M  V30 6292 C 627.939 0.550582 -1.99958 0
M  V30 6293 C 628.364 1.59458 -0.997736 0
M  V30 6294 O 627.722 1.81274 0.0306269 0
M  V30 6295 C 627.77 1.15379 -3.41643 0
M  V30 6296 O 626.874 2.26932 -3.44348 0
M  V30 6297 H 626.215 0.137567 -0.649593 0
M  V30 6298 H 628.745 -0.206926 -2.03551 0
M  V30 6299 H 628.755 1.48942 -3.79843 0
M  V30 6300 H 627.43 0.389087 -4.14076 0
M  V30 6301 H 626.007 1.94812 -3.17967 0
M  V30 6302 N 628.193 1.56834 0.155195 0
M  V30 6303 C 629.442 1.82088 0.867567 0
M  V30 6304 C 629.755 0.69849 1.82703 0
M  V30 6305 O 630.961 0.836407 2.58295 0
M  V30 6306 C 629.417 3.22707 1.59336 0
M  V30 6307 C 629.025 4.42859 0.676719 0
M  V30 6308 C 630.769 3.57242 2.293 0
M  V30 6309 C 628.676 5.74501 1.40367 0
M  V30 6310 H 627.606 0.679057 0.327715 0
M  V30 6311 H 630.257 1.83105 0.120351 0
M  V30 6312 H 628.639 3.16054 2.38591 0
M  V30 6313 H 629.813 4.60731 -0.0800196 0
M  V30 6314 H 628.128 4.16311 0.0859129 0
M  V30 6315 H 630.725 4.52847 2.84312 0
M  V30 6316 H 631.068 2.82901 3.05406 0
M  V30 6317 H 631.601 3.6552 1.56972 0
M  V30 6318 H 628.34 6.51915 0.684623 0
M  V30 6319 H 627.86 5.60579 2.13332 0
M  V30 6320 H 629.539 6.17016 1.94681 0
M  V30 6321 N 629.671 -0.424282 1.51781 0
M  V30 6322 C 630.896 -1.19928 1.6921 0
M  V30 6323 C 631.321 -1.8392 0.394355 0
M  V30 6324 O 630.679 -1.69371 -0.646778 0
M  V30 6325 C 630.727 -2.24937 2.81843 0
M  V30 6326 O 629.831 -3.3073 2.46356 0
M  V30 6327 H 629.172 -0.35078 0.563781 0
M  V30 6328 H 631.702 -0.499401 1.98412 0
M  V30 6329 H 631.712 -2.69512 3.06312 0
M  V30 6330 H 630.387 -1.77742 3.76006 0
M  V30 6331 H 628.964 -2.9154 2.32505 0
M  V30 6332 N 631.149 -1.42148 -0.680565 0
M  V30 6333 C 632.426 -1.32795 -1.43614 0
M  V30 6334 C 632.806 0.037415 -2.11067 0
M  V30 6335 O 632.154 1.05258 -2.02813 0
M  V30 6336 C 632.364 -2.49206 -2.44331 0
M  V30 6337 C 633.712 -2.91059 -3.09144 0
M  V30 6338 O 634.736 -2.49054 -2.54657 0
M  V30 6339 O 633.595 -3.63741 -4.07866 0
M  V30 6340 H 630.689 -0.523397 -0.640301 0
M  V30 6341 H 633.235 -1.54144 -0.709775 0
M  V30 6342 H 632.007 -3.40252 -1.93247 0
M  V30 6343 H 631.63 -2.29813 -3.24456 0
M  V30 6344 N 632.627 0.916307 -1.28225 0
M  V30 6345 C 633.59 1.99996 -1.11957 0
M  V30 6346 C 634.59 1.60688 -0.0600152 0
M  V30 6347 O 635.78 1.71499 -0.30558 0
M  V30 6348 C 632.912 3.33458 -0.708411 0
M  V30 6349 H 634.105 2.15858 -2.08196 0
M  V30 6350 H 631.658 1.09863 -1.11175 0
M  V30 6351 H 632.393 3.23297 0.254859 0
M  V30 6352 H 632.178 3.63349 -1.47377 0
M  V30 6353 H 633.668 4.13014 -0.617164 0
M  V30 6354 N 634.105 1.10431 1.1244 0
M  V30 6355 C 635.015 0.765502 2.21759 0
M  V30 6356 C 636.031 -0.236966 1.72379 0
M  V30 6357 O 637.207 -0.0757329 2.01258 0
M  V30 6358 C 634.272 0.202316 3.46109 0
M  V30 6359 C 633.333 1.26205 4.1033 0
M  V30 6360 C 632.566 0.725648 5.28744 0
M  V30 6361 O 632.789 -0.447942 5.68638 0
M  V30 6362 O 631.723 1.48555 5.83279 0
M  V30 6363 H 635.549 1.67801 2.53133 0
M  V30 6364 H 633.134 0.879443 1.20773 0
M  V30 6365 H 635.016 -0.107918 4.21262 0
M  V30 6366 H 633.691 -0.683052 3.16411 0
M  V30 6367 H 632.598 1.62514 3.36957 0
M  V30 6368 H 633.931 2.12044 4.44183 0
M  V30 6369 N 635.583 -1.29855 0.893053 0
M  V30 6370 C 636.515 -2.26911 0.32311 0
M  V30 6371 C 637.528 -1.54039 -0.526858 0
M  V30 6372 O 638.717 -1.75132 -0.345095 0
M  V30 6373 C 635.817 -3.34266 -0.558509 0
M  V30 6374 C 634.99 -4.36601 0.264222 0
M  V30 6375 C 634.049 -5.23326 -0.549171 0
M  V30 6376 O 633.075 -5.69192 0.0309883 0
M  V30 6377 N 634.277 -5.50008 -1.85664 0
M  V30 6378 H 637.042 -2.76455 1.15726 0
M  V30 6379 H 634.603 -1.4312 0.756859 0
M  V30 6380 H 636.595 -3.89211 -1.1089 0
M  V30 6381 H 635.165 -2.8459 -1.29334 0
M  V30 6382 H 634.385 -3.81409 0.996046 0
M  V30 6383 H 635.673 -5.02019 0.827906 0
M  V30 6384 H 635.071 -5.14542 -2.35081 0
M  V30 6385 H 633.628 -6.07796 -2.35431 0
M  V30 6386 N 637.061 -0.65484 -1.43351 0
M  V30 6387 C 638.477 -0.32255 -1.56307 0
M  V30 6388 C 638.677 1.17324 -1.63821 0
M  V30 6389 O 637.733 1.95813 -1.59417 0
M  V30 6390 C 639.046 -1.03533 -2.82314 0
M  V30 6391 C 640.594 -1.01574 -2.9606 0
M  V30 6392 C 641.069 -1.70945 -4.24902 0
M  V30 6393 N 642.56 -1.67716 -4.3177 0
M  V30 6394 C 643.295 -2.18265 -5.30234 0
M  V30 6395 N 642.791 -2.7711 -6.34966 0
M  V30 6396 N 644.584 -2.08756 -5.21898 0
M  V30 6397 H 636.735 -1.62549 -1.36717 0
M  V30 6398 H 638.998 -0.683676 -0.656727 0
M  V30 6399 H 638.704 -2.09045 -2.8283 0
M  V30 6400 H 638.578 -0.587913 -3.7259 0
M  V30 6401 H 640.965 0.0309834 -2.95084 0
M  V30 6402 H 641.046 -1.50186 -2.07069 0
M  V30 6403 H 640.69 -2.75574 -4.26639 0
M  V30 6404 H 640.62 -1.19797 -5.12793 0
M  V30 6405 H 643.111 -1.24777 -3.56706 0
M  V30 6406 H 643.424 -3.13353 -7.06421 0
M  V30 6407 H 641.769 -2.81171 -6.35585 0
M  V30 6408 H 644.96 -1.62488 -4.38994 0
M  V30 6409 H 645.133 -2.48459 -5.98475 0
M  V30 6410 N 638.539 1.52521 -0.396863 0
M  V30 6411 C 639.787 2.01274 0.182536 0
M  V30 6412 C 640.108 1.28485 1.46685 0
M  V30 6413 O 639.378 0.407134 1.91623 0
M  V30 6414 H 637.958 0.743671 0.0704442 0
M  V30 6415 H 640.62 1.87547 -0.530289 0
M  V30 6416 H 639.716 3.09687 0.387385 0
M  V30 6417 N 640.017 0.126909 1.57088 0
M  V30 6418 C 640.927 -0.833867 2.1928 0
M  V30 6419 C 641.943 -1.2868 1.17122 0
M  V30 6420 O 643.119 -1.34815 1.49622 0
M  V30 6421 C 640.184 -2.0632 2.78627 0
M  V30 6422 C 639.245 -1.66143 3.95847 0
M  V30 6423 C 638.478 -2.83217 4.52354 0
M  V30 6424 O 638.701 -3.98868 4.0775 0
M  V30 6425 O 637.635 -2.59846 5.42922 0
M  V30 6426 H 641.461 -0.334564 3.01852 0
M  V30 6427 H 639.046 -0.0991091 1.49071 0
M  V30 6428 H 640.928 -2.78304 3.16425 0
M  V30 6429 H 639.603 -2.55242 1.99082 0
M  V30 6430 H 638.51 -0.912435 3.62802 0
M  V30 6431 H 639.843 -1.21957 4.76852 0
M  V30 6432 N 641.495 -1.56914 -0.146875 0
M  V30 6433 C 642.443 -1.99224 -1.20053 0
M  V30 6434 C 643.437 -0.884661 -1.44465 0
M  V30 6435 O 644.643 -1.06984 -1.44756 0
M  V30 6436 H 641.018 -0.634191 -0.404112 0
M  V30 6437 H 642.989 -2.86998 -0.816987 0
M  V30 6438 C 641.738 -2.38899 -2.52632 0
M  V30 6439 H 641.061 -3.23677 -2.34677 0
M  V30 6440 H 642.501 -2.72326 -3.24984 0
M  V30 6441 C 640.96 -1.2417 -3.13183 0
M  V30 6442 O 641.49 -0.542503 -3.9802 0
M  V30 6443 N 639.696 -1.00592 -2.72635 0
M  V30 6444 H 639.243 -1.57627 -2.03744 0
M  V30 6445 H 639.201 -0.240174 -3.13481 0
M  V30 6446 N 642.974 0.416227 -1.52004 0
M  V30 6447 C 643.937 1.48926 -1.74223 0
M  V30 6448 C 644.937 1.48693 -0.612119 0
M  V30 6449 O 646.127 1.50343 -0.879921 0
M  V30 6450 C 643.259 2.88372 -1.81809 0
M  V30 6451 H 644.452 1.3052 -2.70008 0
M  V30 6452 H 642.005 0.646271 -1.42313 0
M  V30 6453 H 642.74 3.12157 -0.879135 0
M  V30 6454 H 642.525 2.89944 -2.6396 0
M  V30 6455 H 644.015 3.66173 -2.00766 0
M  V30 6456 N 644.452 1.42507 0.673017 0
M  V30 6457 C 645.382 1.48916 1.79851 0
M  V30 6458 C 646.363 0.345566 1.66553 0
M  V30 6459 O 647.548 0.560116 1.85947 0
M  V30 6460 C 644.678 1.39258 3.18158 0
M  V30 6461 C 643.632 2.51662 3.46194 0
M  V30 6462 C 642.958 2.27062 4.84094 0
M  V30 6463 C 644.258 3.93968 3.42909 0
M  V30 6464 H 645.952 2.43114 1.74745 0
M  V30 6465 H 643.498 1.17013 0.839288 0
M  V30 6466 H 645.451 1.42349 3.96629 0
M  V30 6467 H 644.175 0.415542 3.23946 0
M  V30 6468 H 642.834 2.47891 2.70084 0
M  V30 6469 H 642.482 1.27648 4.86534 0
M  V30 6470 H 642.182 3.02398 5.03815 0
M  V30 6471 H 643.706 2.31905 5.64847 0
M  V30 6472 H 645.12 3.99332 4.11347 0
M  V30 6473 H 643.517 4.6917 3.74165 0
M  V30 6474 H 644.587 4.20512 2.41449 0
M  V30 6475 N 645.93 -0.909495 1.28709 0
M  V30 6476 C 646.877 -2.01245 1.13 0
M  V30 6477 C 647.847 -1.6608 0.0259684 0
M  V30 6478 O 649.032 -1.89835 0.191687 0
M  V30 6479 C 646.172 -3.35644 0.802315 0
M  V30 6480 C 645.285 -3.83653 1.98582 0
M  V30 6481 C 644.42 -5.06582 1.59837 0
M  V30 6482 C 643.459 -5.46934 2.74827 0
M  V30 6483 N 642.596 -6.61053 2.36546 0
M  V30 6484 H 647.436 -2.14013 2.0737 0
M  V30 6485 H 644.973 -1.0482 1.03205 0
M  V30 6486 H 646.931 -4.12963 0.593057 0
M  V30 6487 H 645.561 -3.22631 -0.104457 0
M  V30 6488 H 644.613 -3.02454 2.30708 0
M  V30 6489 H 645.925 -4.09515 2.84779 0
M  V30 6490 H 645.079 -5.91457 1.35143 0
M  V30 6491 H 643.818 -4.82537 0.707753 0
M  V30 6492 H 642.823 -4.60599 3.00215 0
M  V30 6493 H 644.048 -5.72965 3.64538 0
M  V30 6494 H 641.994 -6.3863 1.49959 0
M  V30 6495 H 641.911 -6.86662 3.16277 0
M  V30 6496 H 643.179 -7.49221 2.15146 0
M  V30 6497 N 647.408 -1.11026 -1.11852 0
M  V30 6498 C 648.685 -0.768347 -1.79877 0
M  V30 6499 C 649.065 0.744261 -1.97545 0
M  V30 6500 O 648.413 1.67271 -1.55669 0
M  V30 6501 C 648.623 -1.52648 -3.13846 0
M  V30 6502 C 649.971 -1.70297 -3.88953 0
M  V30 6503 O 650.995 -1.49037 -3.23522 0
M  V30 6504 O 649.854 -2.05593 -5.06353 0
M  V30 6505 H 646.948 -0.277891 -0.778913 0
M  V30 6506 H 649.494 -1.21343 -1.18633 0
M  V30 6507 H 648.266 -2.55564 -2.96315 0
M  V30 6508 H 647.889 -1.07466 -3.82801 0
M  V30 6509 N 648.886 1.2938 -0.899927 0
M  V30 6510 C 649.849 2.25983 -0.382677 0
M  V30 6511 C 650.849 1.53366 0.483259 0
M  V30 6512 O 652.039 1.71798 0.28828 0
M  V30 6513 C 649.171 3.37878 0.452915 0
M  V30 6514 H 650.364 2.73252 -1.23586 0
M  V30 6515 H 647.917 1.40825 -0.678088 0
M  V30 6516 H 648.652 2.95949 1.32608 0
M  V30 6517 H 648.437 3.91742 -0.167562 0
M  V30 6518 H 649.927 4.09746 0.806107 0
M  V30 6519 N 650.364 0.662433 1.43002 0
M  V30 6520 C 651.311 -0.0235324 2.30788 0
M  V30 6521 C 652.281 -0.805342 1.4527 0
M  V30 6522 O 653.466 -0.78009 1.74124 0
M  V30 6523 C 650.606 -0.977545 3.30965 0
M  V30 6524 C 649.719 -0.190865 4.31578 0
M  V30 6525 C 648.854 -1.13951 5.18834 0
M  V30 6526 C 647.893 -0.343796 6.11134 0
M  V30 6527 N 647.03 -1.2445 6.90982 0
M  V30 6528 H 651.87 0.730921 2.88897 0
M  V30 6529 H 649.407 0.372197 1.42313 0
M  V30 6530 H 651.365 -1.54437 3.87563 0
M  V30 6531 H 649.995 -1.69877 2.74484 0
M  V30 6532 H 649.047 0.492388 3.772 0
M  V30 6533 H 650.359 0.427464 4.96965 0
M  V30 6534 H 649.513 -1.77666 5.80103 0
M  V30 6535 H 648.252 -1.79174 4.53595 0
M  V30 6536 H 647.257 0.30665 5.48944 0
M  V30 6537 H 648.482 0.304161 6.78419 0
M  V30 6538 H 646.428 -1.88336 6.28383 0
M  V30 6539 H 646.345 -0.680959 7.52927 0
M  V30 6540 H 647.613 -1.86952 7.56749 0
M  V30 6541 N 651.842 -1.52309 0.404946 0
M  V30 6542 C 652.79 -2.28452 -0.437321 0
M  V30 6543 C 653.784 -1.32975 -1.04948 0
M  V30 6544 O 654.99 -1.50451 -0.988159 0
M  V30 6545 H 651.365 -0.734824 -0.159805 0
M  V30 6546 H 653.336 -2.97542 0.22615 0
M  V30 6547 C 652.085 -3.11536 -1.54404 0
M  V30 6548 H 651.408 -3.84871 -1.08233 0
M  V30 6549 H 652.848 -3.67926 -2.10729 0
M  V30 6550 C 651.307 -2.24833 -2.50902 0
M  V30 6551 O 651.837 -1.88574 -3.54687 0
M  V30 6552 N 650.043 -1.88685 -2.21012 0
M  V30 6553 H 649.59 -2.18371 -1.36646 0
M  V30 6554 H 649.548 -1.30966 -2.85824 0
M  V30 6555 N 653.32 -0.135238 -1.57019 0
M  V30 6556 C 654.267 0.808908 -2.1616 0
M  V30 6557 C 655.237 1.25234 -1.09113 0
M  V30 6558 O 656.422 1.32697 -1.37099 0
M  V30 6559 C 653.562 2.04729 -2.77813 0
M  V30 6560 C 652.675 1.65074 -3.99218 0
M  V30 6561 C 651.81 2.84002 -4.48906 0
M  V30 6562 C 650.849 2.40663 -5.62803 0
M  V30 6563 N 649.986 3.5256 -6.07162 0
M  V30 6564 H 654.826 0.297751 -2.96509 0
M  V30 6565 H 652.363 0.135264 -1.46477 0
M  V30 6566 H 654.321 2.7731 -3.11697 0
M  V30 6567 H 652.951 2.53275 -2.00128 0
M  V30 6568 H 652.003 0.823029 -3.7139 0
M  V30 6569 H 653.315 1.29236 -4.81767 0
M  V30 6570 H 652.469 3.64788 -4.84783 0
M  V30 6571 H 651.208 3.23076 -3.65339 0
M  V30 6572 H 650.213 1.58314 -5.26514 0
M  V30 6573 H 651.438 2.02687 -6.48147 0
M  V30 6574 H 649.384 3.91278 -5.26534 0
M  V30 6575 H 649.301 3.20699 -6.84608 0
M  V30 6576 H 650.569 4.33738 -6.47682 0
M  V30 6577 N 654.798 1.5699 0.138552 0
M  V30 6578 C 655.728 2.01933 1.17241 0
M  V30 6579 C 656.709 0.90033 1.44319 0
M  V30 6580 O 657.894 1.16872 1.55095 0
M  V30 6581 C 655.024 2.40711 2.50351 0
M  V30 6582 C 653.978 3.55874 2.37776 0
M  V30 6583 C 653.304 3.80491 3.75674 0
M  V30 6584 C 654.604 4.8826 1.85472 0
M  V30 6585 H 656.298 2.88551 0.798672 0
M  V30 6586 H 653.844 1.3882 0.382743 0
M  V30 6587 H 655.797 2.70754 3.22909 0
M  V30 6588 H 654.521 1.5104 2.89576 0
M  V30 6589 H 653.18 3.2601 1.67669 0
M  V30 6590 H 652.828 2.88057 4.12349 0
M  V30 6591 H 652.528 4.57998 3.68119 0
M  V30 6592 H 654.052 4.12967 4.49767 0
M  V30 6593 H 655.466 5.16965 2.4783 0
M  V30 6594 H 653.863 5.69631 1.88787 0
M  V30 6595 H 654.933 4.78071 0.810935 0
M  V30 6596 N 656.276 -0.40816 1.52223 0
M  V30 6597 C 657.224 -1.51788 1.76248 0
M  V30 6598 C 658.218 -1.57264 0.629638 0
M  V30 6599 O 659.424 -1.60659 0.811704 0
M  V30 6600 H 655.799 -0.504823 0.557367 0
M  V30 6601 H 657.77 -1.2871 2.69214 0
M  V30 6602 C 656.519 -2.89145 1.93107 0
M  V30 6603 H 655.842 -2.85674 2.79697 0
M  V30 6604 H 657.282 -3.66082 2.13916 0
M  V30 6605 C 655.741 -3.29581 0.698431 0
M  V30 6606 O 656.271 -4.01479 -0.133238 0
M  V30 6607 N 654.477 -2.85651 0.53405 0
M  V30 6608 H 654.024 -2.2731 1.21194 0
M  V30 6609 H 653.982 -3.13065 -0.289387 0
M  V30 6610 N 657.755 -1.42862 -0.66545 0
M  V30 6611 C 659.032 -1.3431 -1.42197 0
M  V30 6612 C 659.412 0.0150265 -2.11095 0
M  V30 6613 O 658.76 1.03101 -2.03918 0
M  V30 6614 C 658.97 -2.51783 -2.41674 0
M  V30 6615 C 660.318 -2.94321 -3.0604 0
M  V30 6616 O 661.342 -2.51741 -2.52001 0
M  V30 6617 O 660.201 -3.68047 -4.03985 0
M  V30 6618 H 657.295 -0.530159 -0.634713 0
M  V30 6619 H 659.841 -1.54888 -0.693386 0
M  V30 6620 H 658.613 -3.42282 -1.89627 0
M  V30 6621 H 658.236 -2.33241 -3.22001 0
M  V30 6622 N 659.233 0.902656 -1.29189 0
M  V30 6623 C 660.163 2.02294 -1.16616 0
M  V30 6624 C 661.144 1.6999 -0.0611175 0
M  V30 6625 O 662.329 1.9271 -0.240072 0
M  V30 6626 C 659.459 3.37018 -0.83882 0
M  V30 6627 C 658.413 3.83522 -1.89986 0
M  V30 6628 C 657.739 5.15337 -1.42589 0
M  V30 6629 C 659.039 4.04169 -3.30824 0
M  V30 6630 H 660.733 2.13071 -2.10336 0
M  V30 6631 H 658.279 1.02378 -1.01266 0
M  V30 6632 H 660.232 4.14895 -0.737584 0
M  V30 6633 H 658.956 3.26325 0.134071 0
M  V30 6634 H 657.615 3.07859 -1.99043 0
M  V30 6635 H 657.263 5.01056 -0.441759 0
M  V30 6636 H 656.963 5.47423 -2.13547 0
M  V30 6637 H 658.487 5.95758 -1.3381 0
M  V30 6638 H 659.901 4.72537 -3.24626 0
M  V30 6639 H 658.298 4.47604 -3.99713 0
M  V30 6640 H 659.368 3.08604 -3.74021 0
M  V30 6641 N 660.711 1.11618 1.11262 0
M  V30 6642 C 661.621 0.78898 2.20935 0
M  V30 6643 C 662.637 -0.21867 1.7262 0
M  V30 6644 O 663.813 -0.0543826 2.01327 0
M  V30 6645 C 660.878 0.239014 3.45875 0
M  V30 6646 C 659.939 1.3055 4.08968 0
M  V30 6647 C 659.172 0.781687 5.27944 0
M  V30 6648 O 659.395 -0.387605 5.69082 0
M  V30 6649 O 658.329 1.54734 5.81671 0
M  V30 6650 H 662.155 1.70477 2.51339 0
M  V30 6651 H 659.74 0.892203 1.19834 0
M  V30 6652 H 661.622 -0.0632312 4.21353 0
M  V30 6653 H 660.297 -0.649454 3.17118 0
M  V30 6654 H 659.204 1.66079 3.35214 0
M  V30 6655 H 660.537 2.16743 4.41909 0
M  V30 6656 N 662.189 -1.289 0.906776 0
M  V30 6657 C 663.466 -1.90221 0.455537 0
M  V30 6658 C 663.846 -1.82251 -1.06527 0
M  V30 6659 O 663.194 -1.25385 -1.91026 0
M  V30 6660 C 663.404 -3.35015 0.97806 0
M  V30 6661 C 664.752 -4.12018 1.02598 0
M  V30 6662 O 665.776 -3.43947 0.926218 0
M  V30 6663 O 664.635 -5.33677 1.17689 0
M  V30 6664 H 661.729 -0.814505 0.143214 0
M  V30 6665 H 664.275 -1.37317 0.997104 0
M  V30 6666 H 663.047 -3.35006 2.02204 0
M  V30 6667 H 662.67 -3.95408 0.416914 0
M  V30 6668 N 663.667 -0.670007 -1.42649 0
M  V30 6669 C 664.63 0.00204659 -2.292 0
M  V30 6670 C 665.63 0.733817 -1.4308 0
M  V30 6671 O 666.82 0.57254 -1.64522 0
M  V30 6672 C 663.952 1.01359 -3.25483 0
M  V30 6673 H 665.145 -0.759696 -2.90118 0
M  V30 6674 H 662.698 -0.432105 -1.50208 0
M  V30 6675 H 663.433 1.80399 -2.69493 0
M  V30 6676 H 663.218 0.492323 -3.88997 0
M  V30 6677 H 664.708 1.4824 -3.90403 0
M  V30 6678 N 665.145 1.52092 -0.413018 0
M  V30 6679 C 666.075 2.30021 0.401567 0
M  V30 6680 C 667.056 1.34395 1.04269 0
M  V30 6681 O 668.241 1.63304 1.05097 0
M  V30 6682 C 665.371 3.12447 1.51638 0
M  V30 6683 C 664.325 4.16153 1.00005 0
M  V30 6684 C 663.651 4.86948 2.20875 0
M  V30 6685 C 664.951 5.22275 0.0513757 0
M  V30 6686 H 666.645 2.98365 -0.248704 0
M  V30 6687 H 664.191 1.4349 -0.121052 0
M  V30 6688 H 666.144 3.65733 2.09326 0
M  V30 6689 H 664.868 2.41879 2.19458 0
M  V30 6690 H 663.527 3.63882 0.445549 0
M  V30 6691 H 663.175 4.12905 2.8726 0
M  V30 6692 H 662.875 5.57057 1.86978 0
M  V30 6693 H 664.399 5.43048 2.79162 0
M  V30 6694 H 665.813 5.70778 0.537176 0
M  V30 6695 H 664.21 5.9977 -0.198977 0
M  V30 6696 H 665.28 4.76611 -0.892736 0
M  V30 6697 N 666.623 0.143563 1.56945 0
M  V30 6698 C 667.555 -0.828353 2.13708 0
M  V30 6699 C 668.568 -1.21313 1.08568 0
M  V30 6700 O 669.757 -1.1578 1.35857 0
M  V30 6701 C 666.857 -2.12248 2.64204 0
M  V30 6702 C 666.03 -1.90561 3.93707 0
M  V30 6703 C 665.089 -3.03931 4.29549 0
M  V30 6704 O 664.115 -2.75772 4.97934 0
M  V30 6705 N 665.317 -4.31016 3.88852 0
M  V30 6706 H 668.082 -0.343242 2.97728 0
M  V30 6707 H 665.643 -0.0401152 1.6185 0
M  V30 6708 H 667.635 -2.87132 2.85197 0
M  V30 6709 H 666.205 -2.52033 1.84928 0
M  V30 6710 H 665.425 -0.997327 3.81375 0
M  V30 6711 H 666.713 -1.73405 4.78339 0
M  V30 6712 H 666.111 -4.56762 3.33743 0
M  V30 6713 H 664.668 -5.02691 4.14903 0
M  V30 6714 N 668.101 -1.57061 -0.130224 0
M  V30 6715 C 669.033 -1.96147 -1.18571 0
M  V30 6716 C 670.046 -0.859347 -1.38272 0
M  V30 6717 O 671.235 -1.13769 -1.37545 0
M  V30 6718 C 668.335 -2.23484 -2.54771 0
M  V30 6719 C 667.508 -3.54786 -2.55824 0
M  V30 6720 C 666.567 -3.70467 -3.73686 0
M  V30 6721 O 665.593 -4.42693 -3.57787 0
M  V30 6722 N 666.795 -3.08389 -4.91809 0
M  V30 6723 H 669.56 -2.87295 -0.853333 0
M  V30 6724 H 667.121 -1.58714 -0.319621 0
M  V30 6725 H 669.113 -2.312 -3.32158 0
M  V30 6726 H 667.683 -1.38518 -2.80235 0
M  V30 6727 H 666.903 -3.5836 -1.64232 0
M  V30 6728 H 668.191 -4.4111 -2.53573 0
M  V30 6729 H 667.589 -2.49656 -5.0763 0
M  V30 6730 H 666.146 -3.21642 -5.66912 0
M  V30 6731 N 669.579 0.400081 -1.52437 0
M  V30 6732 C 670.542 1.4707 -1.75793 0
M  V30 6733 C 671.542 1.48036 -0.627856 0
M  V30 6734 O 672.732 1.49401 -0.895817 0
M  V30 6735 C 669.864 2.86427 -1.84858 0
M  V30 6736 H 671.057 1.27649 -2.71377 0
M  V30 6737 H 668.61 0.631141 -1.42991 0
M  V30 6738 H 669.345 3.11207 -0.912194 0
M  V30 6739 H 669.13 2.87128 -2.6702 0
M  V30 6740 H 670.62 3.64023 -2.04638 0
M  V30 6741 N 671.057 1.43213 0.657864 0
M  V30 6742 C 672.004 1.48011 1.77092 0
M  V30 6743 C 672.974 0.330291 1.62783 0
M  V30 6744 O 674.159 0.536787 1.83094 0
M  V30 6745 C 671.299 1.40461 3.15222 0
M  V30 6746 C 670.412 2.65612 3.40697 0
M  V30 6747 C 669.547 2.50083 4.68649 0
M  V30 6748 C 668.586 3.70525 4.87214 0
M  V30 6749 N 667.723 3.53835 6.0642 0
M  V30 6750 H 672.563 2.43121 1.72326 0
M  V30 6751 H 670.1 1.20687 0.841013 0
M  V30 6752 H 672.058 1.34079 3.95068 0
M  V30 6753 H 670.688 0.489359 3.19069 0
M  V30 6754 H 669.74 2.82292 2.54982 0
M  V30 6755 H 671.052 3.5509 3.50303 0
M  V30 6756 H 670.206 2.41383 5.56614 0
M  V30 6757 H 668.945 1.58121 4.61356 0
M  V30 6758 H 667.95 3.79639 3.97686 0
M  V30 6759 H 669.175 4.63489 4.96341 0
M  V30 6760 H 667.121 2.64604 6.00267 0
M  V30 6761 H 667.038 4.36912 6.16963 0
M  V30 6762 H 668.306 3.48978 6.97019 0
M  V30 6763 N 672.536 -0.895792 1.29666 0
M  V30 6764 C 673.446 -2.03329 1.17024 0
M  V30 6765 C 674.462 -1.73753 0.0925962 0
M  V30 6766 O 675.638 -1.99071 0.305431 0
M  V30 6767 C 672.703 -3.36072 0.851841 0
M  V30 6768 C 671.764 -3.7914 2.01373 0
M  V30 6769 C 670.997 -5.05549 1.71043 0
M  V30 6770 O 671.22 -5.66874 0.633213 0
M  V30 6771 O 670.154 -5.44764 2.5596 0
M  V30 6772 H 673.98 -2.16918 2.12556 0
M  V30 6773 H 671.565 -1.02007 1.09156 0
M  V30 6774 H 673.447 -4.15729 0.689006 0
M  V30 6775 H 672.122 -3.23616 -0.0736634 0
M  V30 6776 H 671.029 -3.00233 2.23183 0
M  V30 6777 H 672.362 -3.96186 2.92058 0
M  V30 6778 N 674.014 -1.12206 -1.10668 0
M  V30 6779 C 675.291 -0.787382 -1.79052 0
M  V30 6780 C 675.671 0.723267 -1.98323 0
M  V30 6781 O 675.019 1.6561 -1.57434 0
M  V30 6782 C 675.229 -1.55968 -3.1221 0
M  V30 6783 C 676.577 -1.74413 -3.87125 0
M  V30 6784 O 677.601 -1.5246 -3.21923 0
M  V30 6785 O 676.46 -2.10952 -5.04144 0
M  V30 6786 H 673.554 -0.286137 -0.775922 0
M  V30 6787 H 676.1 -1.22595 -1.1734 0
M  V30 6788 H 674.872 -2.58692 -2.93588 0
M  V30 6789 H 674.495 -1.1152 -3.8164 0
M  V30 6790 N 675.492 1.28418 -0.913599 0
M  V30 6791 C 676.422 2.29713 -0.418847 0
M  V30 6792 C 677.403 1.62165 0.513469 0
M  V30 6793 O 678.588 1.89576 0.421235 0
M  V30 6794 C 675.718 3.45612 0.342042 0
M  V30 6795 C 674.672 4.25056 -0.501123 0
M  V30 6796 C 673.998 5.3329 0.388097 0
M  V30 6797 C 675.298 4.91814 -1.75831 0
M  V30 6798 H 676.992 2.71346 -1.26538 0
M  V30 6799 H 674.538 1.30446 -0.609903 0
M  V30 6800 H 676.491 4.15562 0.699 0
M  V30 6801 H 675.215 3.02858 1.22248 0
M  V30 6802 H 673.874 3.56833 -0.840598 0
M  V30 6803 H 673.522 4.8678 1.26707 0
M  V30 6804 H 673.222 5.87347 -0.172459 0
M  V30 6805 H 674.746 6.06088 0.74094 0
M  V30 6806 H 676.16 5.54126 -1.47026 0
M  V30 6807 H 674.557 5.55866 -2.26126 0
M  V30 6808 H 675.627 4.16313 -2.4862 0
M  V30 6809 N 676.97 0.677563 1.42291 0
M  V30 6810 C 677.933 0.0101085 2.29198 0
M  V30 6811 C 678.933 -0.726219 1.43467 0
M  V30 6812 O 680.123 -0.563807 1.64824 0
M  V30 6813 C 677.255 -0.996316 3.26016 0
M  V30 6814 H 678.448 0.775071 2.89711 0
M  V30 6815 H 676.001 0.440065 1.49977 0
M  V30 6816 H 676.736 -1.78967 2.70446 0
M  V30 6817 H 676.521 -0.471687 3.89253 0
M  V30 6818 H 678.011 -1.46167 3.91184 0
M  V30 6819 N 678.448 -1.51871 0.421078 0
M  V30 6820 C 679.864 -1.59435 0.0725398 0
M  V30 6821 C 680.064 -1.43315 -1.41644 0
M  V30 6822 O 679.12 -1.26614 -2.18461 0
M  V30 6823 C 680.433 -2.9509 0.578132 0
M  V30 6824 C 681.981 -3.08356 0.537149 0
M  V30 6825 C 682.456 -4.4651 1.01945 0
M  V30 6826 N 683.947 -4.52784 0.976758 0
M  V30 6827 C 684.682 -5.57976 1.32099 0
M  V30 6828 N 684.178 -6.70664 1.73727 0
M  V30 6829 N 685.971 -5.48248 1.2402 0
M  V30 6830 H 678.122 -1.60595 1.39007 0
M  V30 6831 H 680.385 -0.756138 0.571803 0
M  V30 6832 H 680.091 -3.12205 1.61929 0
M  V30 6833 H 679.965 -3.772 -0.00578374 0
M  V30 6834 H 682.352 -2.90919 -0.494991 0
M  V30 6835 H 682.433 -2.28125 1.15727 0
M  V30 6836 H 682.077 -4.64692 2.04997 0
M  V30 6837 H 682.007 -5.25256 0.376023 0
M  V30 6838 H 684.498 -3.71898 0.670851 0
M  V30 6839 H 684.811 -7.46932 1.98274 0
M  V30 6840 H 683.156 -6.71914 1.77641 0
M  V30 6841 H 686.347 -4.59095 0.913756 0
M  V30 6842 H 686.52 -6.30119 1.51176 0
M  V30 6843 N 679.926 -0.151884 -1.56866 0
M  V30 6844 C 680.856 0.781943 -2.20018 0
M  V30 6845 C 681.837 1.25347 -1.14987 0
M  V30 6846 O 683.022 1.31015 -1.43348 0
M  V30 6847 C 680.152 2.01928 -2.82564 0
M  V30 6848 C 679.106 1.68434 -3.93464 0
M  V30 6849 C 678.432 2.99472 -4.42968 0
M  V30 6850 C 679.732 0.927244 -5.14003 0
M  V30 6851 H 681.426 0.255607 -2.98307 0
M  V30 6852 H 678.972 0.121502 -1.43486 0
M  V30 6853 H 680.925 2.67741 -3.25411 0
M  V30 6854 H 679.649 2.56943 -2.01614 0
M  V30 6855 H 678.308 1.04998 -3.51242 0
M  V30 6856 H 677.956 3.52488 -3.58834 0
M  V30 6857 H 677.656 2.77823 -5.17772 0
M  V30 6858 H 679.18 3.66348 -4.88489 0
M  V30 6859 H 680.594 1.48756 -5.53665 0
M  V30 6860 H 678.991 0.810513 -5.94601 0
M  V30 6861 H 680.061 -0.0801163 -4.84834 0
M  V30 6862 N 681.404 1.57128 0.121893 0
M  V30 6863 C 682.334 2.03165 1.15092 0
M  V30 6864 C 683.315 0.915587 1.43356 0
M  V30 6865 O 684.5 1.1851 1.53847 0
M  V30 6866 C 681.63 2.43352 2.47784 0
M  V30 6867 C 680.584 3.58376 2.33989 0
M  V30 6868 C 679.91 3.84454 3.71617 0
M  V30 6869 C 681.21 4.90199 1.80283 0
M  V30 6870 H 682.904 2.89382 0.768023 0
M  V30 6871 H 680.45 1.39218 0.367998 0
M  V30 6872 H 682.403 2.74163 3.20019 0
M  V30 6873 H 681.127 1.54103 2.87958 0
M  V30 6874 H 679.786 3.2777 1.64202 0
M  V30 6875 H 679.434 2.92414 4.09271 0
M  V30 6876 H 679.134 4.61877 3.6324 0
M  V30 6877 H 680.658 4.17714 4.45362 0
M  V30 6878 H 682.072 5.19565 2.42333 0
M  V30 6879 H 680.469 5.71601 1.82735 0
M  V30 6880 H 681.539 4.78904 0.760184 0
M  V30 6881 N 682.882 -0.391992 1.52647 0
M  V30 6882 C 684.298 -0.731848 1.41831 0
M  V30 6883 C 684.498 -1.9423 0.536361 0
M  V30 6884 O 683.554 -2.52499 0.00866571 0
M  V30 6885 C 684.867 -0.969743 2.84634 0
M  V30 6886 C 686.415 -1.0714 2.94092 0
M  V30 6887 C 686.89 -1.34195 4.37899 0
M  V30 6888 N 688.381 -1.41023 4.41211 0
M  V30 6889 C 689.116 -1.63616 5.49561 0
M  V30 6890 N 688.612 -1.83699 6.68002 0
M  V30 6891 N 690.405 -1.65771 5.371 0
M  V30 6892 H 682.556 0.404547 2.08512 0
M  V30 6893 H 684.819 0.11879 0.940528 0
M  V30 6894 H 684.525 -0.152465 3.51369 0
M  V30 6895 H 684.399 -1.88523 3.26709 0
M  V30 6896 H 686.786 -1.87925 2.27526 0
M  V30 6897 H 686.867 -0.133887 2.55449 0
M  V30 6898 H 686.511 -0.539207 5.0503 0
M  V30 6899 H 686.441 -2.29226 4.74092 0
M  V30 6900 H 688.932 -1.27223 3.55841 0
M  V30 6901 H 689.245 -2.00437 7.46354 0
M  V30 6902 H 687.59 -1.8093 6.71036 0
M  V30 6903 H 690.781 -1.4963 4.43541 0
M  V30 6904 H 690.954 -1.83038 6.21612 0
M  V30 6905 N 684.36 -1.4356 -0.65026 0
M  V30 6906 C 685.637 -1.35811 -1.40765 0
M  V30 6907 C 686.017 -0.00736379 -2.11099 0
M  V30 6908 O 685.365 1.00932 -2.05 0
M  V30 6909 C 685.575 -2.54332 -2.3899 0
M  V30 6910 C 686.923 -2.97551 -3.02901 0
M  V30 6911 O 687.947 -2.544 -2.49317 0
M  V30 6912 O 686.806 -3.72311 -4.00059 0
M  V30 6913 H 683.9 -0.536861 -0.629054 0
M  V30 6914 H 686.446 -1.55615 -0.676919 0
M  V30 6915 H 685.218 -3.44274 -1.85986 0
M  V30 6916 H 684.841 -2.36643 -3.19509 0
M  V30 6917 N 685.838 0.888903 -1.30139 0
M  V30 6918 C 687.068 1.67115 -1.21474 0
M  V30 6919 C 687.476 1.87852 0.225472 0
M  V30 6920 O 686.819 1.42324 1.16145 0
M  V30 6921 C 686.881 3.0713 -1.86846 0
M  V30 6922 C 686.545 3.09582 -3.36167 0
M  V30 6923 C 687.542 2.88929 -4.32222 0
M  V30 6924 C 685.227 3.31304 -3.77549 0
M  V30 6925 C 687.221 2.89949 -5.67634 0
M  V30 6926 C 684.908 3.31954 -5.13079 0
M  V30 6927 C 685.906 3.113 -6.07932 0
M  V30 6928 O 685.594 3.11758 -7.40987 0
M  V30 6929 H 685.326 0.528372 -0.421662 0
M  V30 6930 H 687.88 1.11919 -1.7223 0
M  V30 6931 H 686.11 3.63973 -1.30615 0
M  V30 6932 H 687.799 3.6749 -1.72354 0
M  V30 6933 H 688.565 2.71948 -4.01584 0
M  V30 6934 H 684.444 3.46417 -3.04165 0
M  V30 6935 H 687.988 2.73746 -6.41645 0
M  V30 6936 H 683.885 3.48469 -5.43359 0
M  V30 6937 H 684.653 3.27951 -7.49927 0
M  V30 6938 N 687.317 1.12792 1.10072 0
M  V30 6939 C 688.249 0.757003 2.16338 0
M  V30 6940 C 689.262 -0.218144 1.61332 0
M  V30 6941 O 690.451 0.0010727 1.785 0
M  V30 6942 C 687.551 0.100303 3.38752 0
M  V30 6943 C 686.724 1.10586 4.2319 0
M  V30 6944 C 685.783 0.47609 5.24042 0
M  V30 6945 O 684.809 1.13418 5.57786 0
M  V30 6946 N 686.011 -0.754823 5.75572 0
M  V30 6947 H 688.776 1.6714 2.48766 0
M  V30 6948 H 686.337 1.02003 1.25726 0
M  V30 6949 H 688.329 -0.333092 4.03327 0
M  V30 6950 H 686.899 -0.716915 3.04268 0
M  V30 6951 H 686.119 1.71677 3.54853 0
M  V30 6952 H 687.407 1.78571 4.76435 0
M  V30 6953 H 686.805 -1.30838 5.50362 0
M  V30 6954 H 685.362 -1.13098 6.41913 0
M  V30 6955 N 688.795 -1.27931 0.920396 0
M  V30 6956 C 689.705 -2.30824 0.419212 0
M  V30 6957 C 690.721 -1.66767 -0.496461 0
M  V30 6958 O 691.897 -1.97763 -0.38104 0
M  V30 6959 C 688.962 -3.45158 -0.326601 0
M  V30 6960 C 688.023 -4.24754 0.623098 0
M  V30 6961 C 687.256 -5.33629 -0.0872172 0
M  V30 6962 O 687.479 -5.55204 -1.30784 0
M  V30 6963 O 686.413 -5.99091 0.580875 0
M  V30 6964 H 690.239 -2.75716 1.27337 0
M  V30 6965 H 687.824 -1.32747 0.685465 0
M  V30 6966 H 689.706 -4.14716 -0.747559 0
M  V30 6967 H 688.381 -3.02336 -1.15648 0
M  V30 6968 H 687.288 -3.57759 1.09359 0
M  V30 6969 H 688.621 -4.71272 1.41998 0
M  V30 6970 N 690.273 -0.685099 -1.4193 0
M  V30 6971 C 691.203 -0.0273506 -2.33484 0
M  V30 6972 C 692.184 0.778366 -1.51246 0
M  V30 6973 O 693.369 0.733449 -1.79817 0
M  V30 6974 C 690.499 0.917272 -3.34968 0
M  V30 6975 C 689.453 0.21941 -4.27437 0
M  V30 6976 C 688.779 1.27768 -5.1921 0
M  V30 6977 C 690.079 -0.907894 -5.14349 0
M  V30 6978 H 691.773 -0.791994 -2.88735 0
M  V30 6979 H 689.319 -0.382308 -1.38832 0
M  V30 6980 H 691.272 1.38657 -3.97935 0
M  V30 6981 H 689.996 1.71346 -2.78043 0
M  V30 6982 H 688.655 -0.229757 -3.65879 0
M  V30 6983 H 688.303 2.06612 -4.58607 0
M  V30 6984 H 688.003 0.815803 -5.81909 0
M  V30 6985 H 689.527 1.7477 -5.85054 0
M  V30 6986 H 690.941 -0.519348 -5.70943 0
M  V30 6987 H 689.338 -1.2962 -5.85934 0
M  V30 6988 H 690.408 -1.75218 -4.52136 0
M  V30 6989 N 691.751 1.51645 -0.429126 0
M  V30 6990 C 692.684 2.24083 0.431492 0
M  V30 6991 C 693.662 1.25691 1.03153 0
M  V30 6992 O 694.846 1.54802 1.07557 0
M  V30 6993 C 691.973 2.9849 1.60067 0
M  V30 6994 C 691.019 4.11474 1.12211 0
M  V30 6995 S 691.852 5.35453 0.0708449 0
M  V30 6996 C 693.008 6.13395 1.24488 0
M  V30 6997 H 693.241 2.96733 -0.183525 0
M  V30 6998 H 690.774 1.52916 -0.213574 0
M  V30 6999 H 692.732 3.4196 2.27099 0
M  V30 7000 H 691.393 2.25445 2.18708 0
M  V30 7001 H 690.586 4.62784 1.99618 0
M  V30 7002 H 690.188 3.70223 0.530149 0
M  V30 7003 H 692.48 6.41984 2.16479 0
M  V30 7004 H 693.423 7.0388 0.771921 0
M  V30 7005 H 693.831 5.44761 1.47973 0
M  V30 7006 N 693.229 0.160201 1.56784 0
M  V30 7007 C 694.177 -0.791402 2.18723 0
M  V30 7008 C 695.171 -1.24567 1.14801 0
M  V30 7009 O 696.377 -1.21262 1.33025 0
M  V30 7010 H 692.752 -0.273458 0.700517 0
M  V30 7011 H 694.723 -0.244931 2.97393 0
M  V30 7012 C 693.472 -2.01509 2.83354 0
M  V30 7013 H 692.795 -1.67454 3.63041 0
M  V30 7014 H 694.235 -2.66006 3.30177 0
M  V30 7015 C 692.694 -2.83159 1.82545 0
M  V30 7016 O 693.224 -3.79944 1.30405 0
M  V30 7017 N 691.43 -2.47953 1.51552 0
M  V30 7018 H 690.977 -1.69309 1.94144 0
M  V30 7019 H 690.935 -3.02873 0.843519 0
M  V30 7020 N 694.707 -1.5719 -0.113559 0
M  V30 7021 C 695.935 -1.89328 -0.834422 0
M  V30 7022 C 696.35 -0.752018 -1.73177 0
M  V30 7023 O 695.707 0.276912 -1.80387 0
M  V30 7024 C 695.758 -3.20962 -1.66329 0
M  V30 7025 O 695.479 -4.30695 -0.802069 0
M  V30 7026 C 696.98 -3.6684 -2.48884 0
M  V30 7027 H 694.2 -0.626769 -0.239587 0
M  V30 7028 H 696.744 -2.04273 -0.0963195 0
M  V30 7029 H 694.899 -3.0767 -2.35409 0
M  V30 7030 H 695.313 -5.06175 -1.37431 0
M  V30 7031 H 696.787 -4.61692 -3.02563 0
M  V30 7032 H 697.264 -2.93765 -3.26495 0
M  V30 7033 H 697.87 -3.82938 -1.85036 0
M  V30 7034 N 696.185 0.383891 -1.52853 0
M  V30 7035 C 697.132 1.46924 -1.77995 0
M  V30 7036 C 698.102 1.53958 -0.623396 0
M  V30 7037 O 699.287 1.70134 -0.863657 0
M  V30 7038 C 696.427 2.84093 -1.95921 0
M  V30 7039 C 695.54 2.86171 -3.23621 0
M  V30 7040 C 694.675 4.14799 -3.31836 0
M  V30 7041 C 693.714 4.10948 -4.53639 0
M  V30 7042 N 692.851 5.31192 -4.59107 0
M  V30 7043 H 697.691 1.24786 -2.70615 0
M  V30 7044 H 695.228 0.605265 -1.34071 0
M  V30 7045 H 697.186 3.63755 -2.04299 0
M  V30 7046 H 695.816 3.04671 -1.06656 0
M  V30 7047 H 694.868 1.9885 -3.24288 0
M  V30 7048 H 696.18 2.79194 -4.13343 0
M  V30 7049 H 695.334 5.02867 -3.39425 0
M  V30 7050 H 694.073 4.24505 -2.40097 0
M  V30 7051 H 693.078 3.21268 -4.46169 0
M  V30 7052 H 694.303 4.0286 -5.467 0
M  V30 7053 H 692.249 5.41518 -3.70262 0
M  V30 7054 H 692.166 5.26311 -5.42708 0
M  V30 7055 H 693.434 6.21143 -4.70958 0
M  V30 7056 N 697.663 1.43903 0.642637 0
M  V30 7057 C 698.593 1.52697 1.76652 0
M  V30 7058 C 699.574 0.380816 1.65782 0
M  V30 7059 O 700.759 0.599432 1.84717 0
M  V30 7060 C 697.889 1.45975 3.15133 0
M  V30 7061 C 696.843 2.58949 3.40778 0
M  V30 7062 C 696.169 2.37279 4.79169 0
M  V30 7063 C 697.469 4.01153 3.34475 0
M  V30 7064 H 699.163 2.46766 1.69549 0
M  V30 7065 H 696.709 1.18767 0.814279 0
M  V30 7066 H 698.662 1.5073 3.93521 0
M  V30 7067 H 697.386 0.484162 3.22991 0
M  V30 7068 H 696.045 2.53564 2.64765 0
M  V30 7069 H 695.693 1.37939 4.83717 0
M  V30 7070 H 695.393 3.13016 4.97287 0
M  V30 7071 H 696.917 2.43834 5.59801 0
M  V30 7072 H 698.331 4.07968 4.02784 0
M  V30 7073 H 696.728 4.77001 3.64129 0
M  V30 7074 H 697.798 4.25539 2.32475 0
M  V30 7075 N 699.141 -0.881989 1.30609 0
M  V30 7076 C 700.104 -1.96957 1.1722 0
M  V30 7077 C 701.104 -1.60472 0.102598 0
M  V30 7078 O 702.294 -1.70628 0.350943 0
M  V30 7079 C 699.426 -3.31463 0.796572 0
M  V30 7080 H 700.619 -2.10262 2.13846 0
M  V30 7081 H 698.172 -1.06877 1.14048 0
M  V30 7082 H 698.907 -3.23859 -0.169053 0
M  V30 7083 H 698.692 -3.59314 1.56959 0
M  V30 7084 H 700.182 -4.11233 0.72645 0
M  V30 7085 N 700.619 -1.13374 -1.09472 0
M  V30 7086 C 701.549 -0.833268 -2.18126 0
M  V30 7087 C 702.53 0.207169 -1.68834 0
M  V30 7088 O 703.715 0.0662012 -1.94087 0
M  V30 7089 C 700.845 -0.297979 -3.46019 0
M  V30 7090 C 699.799 -1.27261 -4.08642 0
M  V30 7091 C 699.125 -0.597104 -5.31356 0
M  V30 7092 C 700.425 -2.63095 -4.51197 0
M  V30 7093 H 702.119 -1.74182 -2.43518 0
M  V30 7094 H 699.665 -0.838921 -1.17039 0
M  V30 7095 H 701.618 -0.0754444 -4.21332 0
M  V30 7096 H 700.342 0.645959 -3.20148 0
M  V30 7097 H 699.001 -1.48113 -3.35348 0
M  V30 7098 H 698.649 0.352293 -5.01765 0
M  V30 7099 H 698.349 -1.24734 -5.74208 0
M  V30 7100 H 699.873 -0.38384 -6.09392 0
M  V30 7101 H 701.287 -2.46214 -5.17737 0
M  V30 7102 H 699.684 -3.2429 -5.04932 0
M  V30 7103 H 700.754 -3.20793 -3.6362 0
M  V30 7104 N 702.098 1.27442 -0.927168 0
M  V30 7105 C 703.375 1.89473 -0.485742 0
M  V30 7106 C 703.755 1.83922 1.03614 0
M  V30 7107 O 703.103 1.28409 1.89007 0
M  V30 7108 C 703.313 3.33417 -1.03123 0
M  V30 7109 C 704.661 4.10333 -1.0914 0
M  V30 7110 O 705.685 3.4243 -0.98082 0
M  V30 7111 O 704.544 5.31737 -1.26165 0
M  V30 7112 H 701.638 0.812124 -0.156154 0
M  V30 7113 H 704.184 1.35713 -1.01882 0
M  V30 7114 H 702.956 3.31747 -2.07508 0
M  V30 7115 H 702.579 3.94695 -0.479767 0
M  V30 7116 N 703.576 0.692616 1.41565 0
M  V30 7117 C 704.506 0.0397325 2.33466 0
M  V30 7118 C 705.487 -0.770334 1.51657 0
M  V30 7119 O 706.672 -0.723903 1.80203 0
M  V30 7120 C 703.802 -0.899495 3.3545 0
M  V30 7121 C 702.756 -0.196738 4.27548 0
M  V30 7122 C 702.082 -1.25012 5.19881 0
M  V30 7123 C 703.382 0.935158 5.1386 0
M  V30 7124 H 705.076 0.807296 2.88311 0
M  V30 7125 H 702.622 0.389665 1.38628 0
M  V30 7126 H 704.575 -1.36545 3.98665 0
M  V30 7127 H 703.299 -1.69869 2.78948 0
M  V30 7128 H 701.958 0.249158 3.65752 0
M  V30 7129 H 701.606 -2.04177 4.59696 0
M  V30 7130 H 701.306 -0.784931 5.82334 0
M  V30 7131 H 702.83 -1.71665 5.85972 0
M  V30 7132 H 704.244 0.549619 5.70659 0
M  V30 7133 H 702.641 1.32726 5.85238 0
M  V30 7134 H 703.711 1.77613 4.512 0
M  V30 7135 N 705.054 -1.51416 0.437162 0
M  V30 7136 C 705.964 -2.31493 -0.380537 0
M  V30 7137 C 706.98 -1.40399 -1.02782 0
M  V30 7138 O 708.156 -1.73471 -1.02323 0
M  V30 7139 C 705.221 -3.1413 -1.46709 0
M  V30 7140 C 704.282 -4.21003 -0.839953 0
M  V30 7141 C 703.515 -4.9969 -1.87473 0
M  V30 7142 O 703.738 -4.79008 -3.09689 0
M  V30 7143 O 702.672 -5.8379 -1.46536 0
M  V30 7144 H 706.498 -3.02469 0.273183 0
M  V30 7145 H 704.083 -1.48059 0.199706 0
M  V30 7146 H 705.965 -3.65505 -2.09724 0
M  V30 7147 H 704.64 -2.45919 -2.10489 0
M  V30 7148 H 703.547 -3.73706 -0.171752 0
M  V30 7149 H 704.88 -4.91587 -0.245638 0
M  V30 7150 N 706.532 -0.168513 -1.56696 0
M  V30 7151 C 707.781 0.477233 -1.95973 0
M  V30 7152 C 708.094 1.64578 -1.05704 0
M  V30 7153 O 709.3 2.35758 -1.3465 0
M  V30 7154 C 707.756 0.900413 -3.48455 0
M  V30 7155 C 707.364 -0.242382 -4.47344 0
M  V30 7156 C 709.108 1.51474 -3.96555 0
M  V30 7157 C 707.015 0.200272 -5.91061 0
M  V30 7158 H 705.945 0.182061 -0.73169 0
M  V30 7159 H 708.596 -0.256297 -1.81701 0
M  V30 7160 H 706.978 1.68984 -3.58135 0
M  V30 7161 H 708.152 -1.01967 -4.49377 0
M  V30 7162 H 706.467 -0.766484 -4.09285 0
M  V30 7163 H 709.064 1.85792 -5.01384 0
M  V30 7164 H 709.407 2.41163 -3.39332 0
M  V30 7165 H 709.94 0.789802 -3.89881 0
M  V30 7166 H 706.679 -0.661775 -6.52151 0
M  V30 7167 H 706.199 0.942979 -5.92341 0
M  V30 7168 H 707.878 0.645088 -6.43776 0
M  V30 7169 N 708.01 1.57248 0.105221 0
M  V30 7170 C 708.973 2.00388 1.11252 0
M  V30 7171 C 709.973 0.89594 1.33527 0
M  V30 7172 O 711.163 1.16166 1.29811 0
M  V30 7173 C 708.295 2.35589 2.46395 0
M  V30 7174 H 709.488 2.90591 0.741424 0
M  V30 7175 H 707.041 1.52332 0.349956 0
M  V30 7176 H 707.776 1.4831 2.884 0
M  V30 7177 H 707.561 3.16408 2.31578 0
M  V30 7178 H 709.051 2.69658 3.18864 0
M  V30 7179 N 709.488 -0.375779 1.53054 0
M  V30 7180 C 710.716 -1.14036 1.72637 0
M  V30 7181 C 711.131 -1.83342 0.450687 0
M  V30 7182 O 710.488 -1.7318 -0.575749 0
M  V30 7183 C 710.539 -2.17841 2.88492 0
M  V30 7184 O 710.26 -1.51358 4.11123 0
M  V30 7185 C 711.761 -3.06924 3.19863 0
M  V30 7186 H 708.981 -0.341386 0.577665 0
M  V30 7187 H 711.525 -0.437809 1.99759 0
M  V30 7188 H 709.68 -2.8371 2.63794 0
M  V30 7189 H 710.094 -2.20439 4.75928 0
M  V30 7190 H 711.568 -3.75763 4.04359 0
M  V30 7191 H 712.045 -3.71169 2.34798 0
M  V30 7192 H 712.651 -2.46684 3.46449 0
M  V30 7193 N 710.966 -1.44241 -0.634997 0
M  V30 7194 C 712.196 -1.50078 -1.41987 0
M  V30 7195 C 712.604 -0.123072 -1.88799 0
M  V30 7196 O 711.947 0.880552 -1.6122 0
M  V30 7197 C 712.009 -2.40033 -2.67628 0
M  V30 7198 C 711.673 -3.87268 -2.42637 0
M  V30 7199 C 712.67 -4.77902 -2.04708 0
M  V30 7200 C 710.355 -4.31933 -2.56396 0
M  V30 7201 C 712.349 -6.11202 -1.80862 0
M  V30 7202 C 710.036 -5.65281 -2.32164 0
M  V30 7203 C 711.034 -6.54734 -1.94455 0
M  V30 7204 O 710.722 -7.85613 -1.7049 0
M  V30 7205 H 710.454 -0.51146 -0.442023 0
M  V30 7206 H 713.008 -1.89843 -0.784138 0
M  V30 7207 H 711.238 -1.95188 -3.33824 0
M  V30 7208 H 712.927 -2.36863 -3.29622 0
M  V30 7209 H 713.693 -4.44668 -1.93638 0
M  V30 7210 H 709.572 -3.62569 -2.84719 0
M  V30 7211 H 713.116 -6.80983 -1.51353 0
M  V30 7212 H 709.013 -5.98078 -2.42843 0
M  V30 7213 H 709.781 -7.97373 -1.84767 0
M  V30 7214 N 712.444 0.87505 -1.31075 0
M  V30 7215 C 713.86 1.15997 -1.09622 0
M  V30 7216 C 714.06 2.01036 0.136611 0
M  V30 7217 O 713.116 2.38559 0.827397 0
M  V30 7218 C 714.429 1.85702 -2.36506 0
M  V30 7219 C 715.977 1.98425 -2.42067 0
M  V30 7220 C 716.452 2.71544 -3.68819 0
M  V30 7221 N 717.943 2.79084 -3.69684 0
M  V30 7222 C 718.678 3.36259 -4.64454 0
M  V30 7223 N 718.174 3.94406 -5.69575 0
M  V30 7224 N 719.967 3.34169 -4.51982 0
M  V30 7225 H 712.118 0.308258 -2.10151 0
M  V30 7226 H 714.381 0.199145 -0.926847 0
M  V30 7227 H 714.087 1.30663 -3.26527 0
M  V30 7228 H 713.961 2.86017 -2.45915 0
M  V30 7229 H 716.348 2.5263 -1.52518 0
M  V30 7230 H 716.429 0.971682 -2.36626 0
M  V30 7231 H 716.073 2.18008 -4.58732 0
M  V30 7232 H 716.003 3.73198 -3.71525 0
M  V30 7233 H 718.494 2.3781 -2.93691 0
M  V30 7234 H 718.807 4.36129 -6.37974 0
M  V30 7235 H 717.152 3.92797 -5.73355 0
M  V30 7236 H 720.343 2.87977 -3.69035 0
M  V30 7237 H 720.516 3.78431 -5.26017 0
M  V30 7238 N 713.922 1.13953 1.08869 0
M  V30 7239 C 715.15 0.92817 1.84912 0
M  V30 7240 C 715.565 -0.523197 1.81406 0
M  V30 7241 O 714.922 -1.36237 1.21432 0
M  V30 7242 C 714.973 1.41509 3.32652 0
M  V30 7243 O 714.694 2.80959 3.36145 0
M  V30 7244 C 716.195 1.243 4.25517 0
M  V30 7245 H 713.415 0.330612 0.583898 0
M  V30 7246 H 715.959 1.51349 1.37527 0
M  V30 7247 H 714.114 0.872648 3.77444 0
M  V30 7248 H 714.528 3.02704 4.28335 0
M  V30 7249 H 716.002 1.63237 5.27312 0
M  V30 7250 H 716.479 0.18532 4.38809 0
M  V30 7251 H 717.085 1.77375 3.86546 0
M  V30 7252 N 715.4 -1.26948 0.933913 0
M  V30 7253 C 716.33 -2.29017 0.45534 0
M  V30 7254 C 717.311 -1.62961 -0.487605 0
M  V30 7255 O 718.496 -1.90223 -0.391022 0
M  V30 7256 C 715.626 -3.46112 -0.287015 0
M  V30 7257 C 714.58 -4.24205 0.568682 0
M  V30 7258 C 713.906 -5.3384 -0.303206 0
M  V30 7259 C 715.206 -4.88954 1.83633 0
M  V30 7260 H 716.9 -2.69298 1.30839 0
M  V30 7261 H 714.446 -1.29459 0.630579 0
M  V30 7262 H 716.399 -4.16622 -0.6328 0
M  V30 7263 H 715.123 -3.04765 -1.17414 0
M  V30 7264 H 713.782 -3.5545 0.897261 0
M  V30 7265 H 713.43 -4.88734 -1.18947 0
M  V30 7266 H 713.13 -5.86998 0.265879 0
M  V30 7267 H 714.654 -6.0719 -0.644423 0
M  V30 7268 H 716.068 -5.51717 1.55823 0
M  V30 7269 H 714.465 -5.52198 2.34941 0
M  V30 7270 H 715.535 -4.12305 2.55211 0
M  V30 7271 N 716.879 -0.700114 -1.41195 0
M  V30 7272 C 717.809 -0.0521132 -2.33442 0
M  V30 7273 C 718.79 0.76228 -1.52063 0
M  V30 7274 O 719.975 0.714336 -1.80585 0
M  V30 7275 C 717.105 0.881693 -3.35922 0
M  V30 7276 C 716.059 0.174062 -4.27646 0
M  V30 7277 C 715.385 1.22254 -5.20536 0
M  V30 7278 C 716.685 -0.962396 -5.13357 0
M  V30 7279 H 718.379 -0.822574 -2.87879 0
M  V30 7280 H 715.925 -0.397011 -1.38419 0
M  V30 7281 H 717.878 1.34429 -3.99383 0
M  V30 7282 H 716.602 1.68387 -2.79845 0
M  V30 7283 H 715.261 -0.268551 -3.65615 0
M  V30 7284 H 714.909 2.01736 -4.60773 0
M  V30 7285 H 714.609 0.754038 -5.82742 0
M  V30 7286 H 716.133 1.68555 -5.86874 0
M  V30 7287 H 717.547 -0.579875 -5.7036 0
M  V30 7288 H 715.944 -1.35828 -5.84526 0
M  V30 7289 H 717.014 -1.80003 -4.50252 0
M  V30 7290 N 718.357 1.51182 -0.445186 0
M  V30 7291 C 719.267 2.31692 0.368255 0
M  V30 7292 C 720.283 1.40942 1.02036 0
M  V30 7293 O 721.459 1.74011 1.01401 0
M  V30 7294 C 718.524 3.14903 1.45041 0
M  V30 7295 C 717.585 4.21442 0.817615 0
M  V30 7296 C 716.818 5.00677 1.8482 0
M  V30 7297 O 717.041 4.80644 3.07145 0
M  V30 7298 O 715.975 5.84559 1.43438 0
M  V30 7299 H 719.801 3.0232 -0.289219 0
M  V30 7300 H 717.386 1.47951 -0.207555 0
M  V30 7301 H 719.268 3.66612 2.07783 0
M  V30 7302 H 717.943 2.47031 2.09182 0
M  V30 7303 H 716.85 3.73791 0.151931 0
M  V30 7304 H 718.183 4.9171 0.219564 0
M  V30 7305 N 719.835 0.176821 1.56605 0
M  V30 7306 C 721.083 -0.465793 1.96659 0
M  V30 7307 C 721.404 -1.63406 1.06412 0
M  V30 7308 O 720.674 -1.95457 0.131603 0
M  V30 7309 H 719.254 -0.175072 0.726195 0
M  V30 7310 H 721.916 0.25929 1.93168 0
M  V30 7311 H 721.012 -0.822138 3.01077 0
M  V30 7312 N 721.313 -1.57302 -0.09688 0
M  V30 7313 C 722.223 -2.05258 -1.13606 0
M  V30 7314 C 723.239 -0.977137 -1.43972 0
M  V30 7315 O 724.415 -1.29018 -1.54649 0
M  V30 7316 C 721.48 -2.46593 -2.43706 0
M  V30 7317 C 720.541 -3.68322 -2.20538 0
M  V30 7318 C 719.774 -4.07676 -3.44435 0
M  V30 7319 O 719.997 -3.47141 -4.52603 0
M  V30 7320 O 718.931 -5.00641 -3.34129 0
M  V30 7321 H 722.757 -2.94069 -0.758752 0
M  V30 7322 H 720.342 -1.46164 -0.309263 0
M  V30 7323 H 722.224 -2.73814 -3.20318 0
M  V30 7324 H 720.899 -1.6092 -2.80867 0
M  V30 7325 H 719.806 -3.4622 -1.41713 0
M  V30 7326 H 721.139 -4.54769 -1.88271 0
M  V30 7327 N 722.791 0.367657 -1.53252 0
M  V30 7328 C 723.701 1.47415 -1.82499 0
M  V30 7329 C 724.717 1.58711 -0.713222 0
M  V30 7330 O 725.893 1.74644 -1.00306 0
M  V30 7331 C 722.958 2.82706 -2.00694 0
M  V30 7332 C 722.019 2.80955 -3.24596 0
M  V30 7333 C 721.252 4.09793 -3.41914 0
M  V30 7334 O 721.475 5.05852 -2.63572 0
M  V30 7335 O 720.409 4.15731 -4.3526 0
M  V30 7336 H 724.235 1.25624 -2.765 0
M  V30 7337 H 721.82 0.557559 -1.38606 0
M  V30 7338 H 723.702 3.62873 -2.14246 0
M  V30 7339 H 722.377 3.04479 -1.09883 0
M  V30 7340 H 721.284 1.99494 -3.16469 0
M  V30 7341 H 722.617 2.64136 -4.15323 0
M  V30 7342 N 724.269 1.44576 0.627338 0
M  V30 7343 C 725.494 1.51271 1.41887 0
M  V30 7344 C 725.919 0.139814 1.8758 0
M  V30 7345 O 725.277 -0.871746 1.58966 0
M  V30 7346 C 725.325 2.48529 2.61277 0
M  V30 7347 O 724.429 1.98944 3.61241 0
M  V30 7348 H 723.77 0.510668 0.424399 0
M  V30 7349 H 726.3 1.89746 0.765356 0
M  V30 7350 H 726.31 2.66689 3.08773 0
M  V30 7351 H 724.985 3.48249 2.27366 0
M  V30 7352 H 723.562 1.90568 3.20528 0
M  V30 7353 N 725.747 -0.868086 1.31537 0
M  V30 7354 C 727.163 -1.15414 1.10235 0
M  V30 7355 C 727.363 -2.01106 -0.125947 0
M  V30 7356 O 726.419 -2.38994 -0.814734 0
M  V30 7357 C 727.732 -1.84445 2.37488 0
M  V30 7358 C 729.28 -1.97139 2.43116 0
M  V30 7359 C 729.755 -2.69585 3.70254 0
M  V30 7360 N 731.246 -2.77119 3.71159 0
M  V30 7361 C 731.981 -3.33791 4.6623 0
M  V30 7362 N 731.477 -3.9138 5.71659 0
M  V30 7363 N 733.27 -3.31767 4.53747 0
M  V30 7364 H 725.421 -0.297109 2.10312 0
M  V30 7365 H 727.684 -0.194227 0.92789 0
M  V30 7366 H 727.39 -1.2893 3.27215 0
M  V30 7367 H 727.264 -2.84709 2.47428 0
M  V30 7368 H 729.651 -2.51818 1.53856 0
M  V30 7369 H 729.732 -0.95912 2.37138 0
M  V30 7370 H 729.376 -2.15572 4.59881 0
M  V30 7371 H 729.306 -3.71223 3.73499 0
M  V30 7372 H 731.797 -2.3625 2.94948 0
M  V30 7373 H 732.11 -4.3274 6.40278 0
M  V30 7374 H 730.455 -3.8975 5.7543 0
M  V30 7375 H 733.646 -2.86016 3.70557 0
M  V30 7376 H 733.819 -3.75636 5.28017 0
M  V30 7377 N 727.225 -1.14528 -1.08264 0
M  V30 7378 C 728.158 -0.777154 -2.14559 0
M  V30 7379 C 729.136 0.242165 -1.60787 0
M  V30 7380 O 730.32 0.130882 -1.88045 0
M  V30 7381 C 727.447 -0.154092 -3.38349 0
M  V30 7382 C 726.493 -1.14382 -4.10876 0
M  V30 7383 S 727.326 -2.68173 -4.63512 0
M  V30 7384 C 728.482 -2.0726 -5.90588 0
M  V30 7385 H 728.715 -1.67748 -2.45454 0
M  V30 7386 H 726.248 -0.966661 -1.20395 0
M  V30 7387 H 728.206 0.19897 -4.10018 0
M  V30 7388 H 726.867 0.723688 -3.05649 0
M  V30 7389 H 726.06 -0.655908 -4.99714 0
M  V30 7390 H 725.662 -1.44095 -3.45127 0
M  V30 7391 H 727.954 -1.42895 -6.62259 0
M  V30 7392 H 728.897 -2.94227 -6.44078 0
M  V30 7393 H 729.305 -1.51935 -5.43669 0
M  V30 7394 N 728.703 1.26451 -0.940633 0
M  V30 7395 C 729.928 1.98407 -0.60412 0
M  V30 7396 C 730.353 1.69584 0.81382 0
M  V30 7397 O 729.711 0.943553 1.54812 0
M  V30 7398 C 729.759 3.50387 -0.852136 0
M  V30 7399 O 728.863 4.1233 0.076013 0
M  V30 7400 H 728.204 0.622466 -0.231153 0
M  V30 7401 H 730.734 1.60932 -1.26342 0
M  V30 7402 H 730.744 4.00614 -0.772816 0
M  V30 7403 H 729.419 3.70696 -1.88566 0
M  V30 7404 H 727.996 3.7286 -0.0543187 0
M  V30 7405 N 730.181 0.707592 1.40822 0
M  V30 7406 C 731.429 0.243189 2.00632 0
M  V30 7407 C 731.75 -1.16512 1.56365 0
M  V30 7408 O 731.02 -1.78841 0.799553 0
M  V30 7409 H 729.6 0.0869203 0.741926 0
M  V30 7410 H 732.262 0.911438 1.72275 0
M  V30 7411 H 731.358 0.270014 3.1093 0
M  V30 7412 N 731.66 -1.50943 0.453197 0
M  V30 7413 C 732.57 -2.31884 -0.355963 0
M  V30 7414 C 733.586 -1.41481 -1.01287 0
M  V30 7415 O 734.762 -1.74546 -1.00477 0
M  V30 7416 C 731.827 -3.15668 -1.43369 0
M  V30 7417 C 730.888 -4.2187 -0.795253 0
M  V30 7418 C 730.121 -5.0165 -1.82162 0
M  V30 7419 O 730.344 -4.82266 -3.04592 0
M  V30 7420 O 729.278 -5.85311 -1.40336 0
M  V30 7421 H 733.104 -3.02162 0.305248 0
M  V30 7422 H 730.689 -1.47839 0.215398 0
M  V30 7423 H 732.571 -3.67709 -2.05836 0
M  V30 7424 H 731.246 -2.48137 -2.07869 0
M  V30 7425 H 730.153 -3.73867 -0.132106 0
M  V30 7426 H 731.486 -4.9182 -0.193484 0
M  V30 7427 N 733.138 -0.185124 -1.56509 0
M  V30 7428 C 734.378 0.458547 -1.9919 0
M  V30 7429 C 734.742 1.59484 -1.06906 0
M  V30 7430 O 735.943 2.30201 -1.38783 0
M  V30 7431 C 734.214 0.916263 -3.45455 0
M  V30 7432 S 735.773 1.55918 -4.10165 0
M  V30 7433 H 732.591 0.147008 -0.695636 0
M  V30 7434 H 735.193 -0.285841 -1.93399 0
M  V30 7435 H 733.897 0.0790543 -4.10324 0
M  V30 7436 H 733.428 1.69436 -3.55042 0
M  V30 7437 H 735.443 2.84771 -4.0635 0
M  V30 7438 N 734.616 1.57351 0.0885366 0
M  V30 7439 C 735.579 2.01557 1.09121 0
M  V30 7440 C 736.579 0.910052 1.3257 0
M  V30 7441 O 737.769 1.17537 1.28572 0
M  V30 7442 C 734.901 2.38189 2.43883 0
M  V30 7443 H 736.094 2.91361 0.710562 0
M  V30 7444 H 733.647 1.52694 0.333779 0
M  V30 7445 H 734.382 1.5136 2.86811 0
M  V30 7446 H 734.167 3.18846 2.28209 0
M  V30 7447 H 735.657 2.73025 3.15986 0
M  V30 7448 N 736.094 -0.359525 1.53444 0
M  V30 7449 C 737.505 -0.936009 1.61542 0
M  V30 7450 C 737.856 -1.90069 0.486633 0
M  V30 7451 O 736.981 -2.12929 -0.386047 0
M  V30 7452 C 737.576 -1.70441 2.92806 0
M  V30 7453 C 736.135 -2.23015 3.03218 0
M  V30 7454 C 735.282 -1.04438 2.56881 0
M  V30 7455 H 738.233 -0.138134 1.58098 0
M  V30 7456 H 738.254 -2.56609 2.80948 0
M  V30 7457 H 737.766 -1.00205 3.74941 0
M  V30 7458 H 735.867 -2.96475 2.25684 0
M  V30 7459 H 735.98 -2.50481 4.08407 0
M  V30 7460 H 734.344 -1.41314 2.11902 0
M  V30 7461 H 735.127 -0.356905 3.4144 0
M  V30 7462 N 737.572 -1.44907 -0.619662 0
M  V30 7463 C 738.52 -1.52971 -1.75222 0
M  V30 7464 C 739.514 -0.400531 -1.64597 0
M  V30 7465 O 740.72 -0.575952 -1.70537 0
M  V30 7466 H 737.095 -0.480241 -0.578682 0
M  V30 7467 H 739.066 -2.48269 -1.65545 0
M  V30 7468 C 737.815 -1.50204 -3.13583 0
M  V30 7469 H 737.138 -2.36412 -3.22412 0
M  V30 7470 H 738.578 -1.59905 -3.92691 0
M  V30 7471 C 737.037 -0.22455 -3.36151 0
M  V30 7472 O 737.567 0.700574 -3.95544 0
M  V30 7473 N 735.773 -0.124052 -2.90335 0
M  V30 7474 H 735.32 -0.87774 -2.42185 0
M  V30 7475 H 735.278 0.729914 -3.0581 0
M  V30 7476 N 739.05 0.861098 -1.31996 0
M  V30 7477 C 740.296 1.61721 -1.22369 0
M  V30 7478 C 740.629 1.93 0.215587 0
M  V30 7479 O 739.904 1.56789 1.15098 0
M  V30 7480 C 740.187 2.9417 -2.07691 0
M  V30 7481 C 740.04 2.69714 -3.59965 0
M  V30 7482 C 741.359 3.95372 -1.93312 0
M  V30 7483 H 738.478 0.586822 -0.44588 0
M  V30 7484 H 741.12 0.994788 -1.61876 0
M  V30 7485 H 739.27 3.47292 -1.74128 0
M  V30 7486 H 740.942 2.23196 -4.03709 0
M  V30 7487 H 739.185 2.03789 -3.82952 0
M  V30 7488 H 739.856 3.63996 -4.14983 0
M  V30 7489 H 742.332 3.51487 -2.22701 0
M  V30 7490 H 741.208 4.85916 -2.55298 0
M  V30 7491 H 741.469 4.32865 -0.898922 0
M  V30 7492 N 740.528 1.15101 1.07655 0
M  V30 7493 C 741.753 0.948177 1.84457 0
M  V30 7494 C 742.178 -0.498432 1.81376 0
M  V30 7495 O 741.536 -1.35509 1.20445 0
M  V30 7496 C 741.584 1.46318 3.29581 0
M  V30 7497 O 740.688 0.660342 4.07079 0
M  V30 7498 H 740.029 0.338428 0.571281 0
M  V30 7499 H 742.559 1.5301 1.35828 0
M  V30 7500 H 742.569 1.47468 3.80417 0
M  V30 7501 H 741.244 2.51635 3.31138 0
M  V30 7502 H 739.821 0.718216 3.65918 0
M  V30 7503 N 742.006 -1.2595 0.947325 0
M  V30 7504 C 743.252 -1.9375 0.599064 0
M  V30 7505 C 743.585 -1.74088 -0.860632 0
M  V30 7506 O 742.86 -1.08158 -1.61654 0
M  V30 7507 C 743.143 -3.47353 0.949634 0
M  V30 7508 C 742.996 -3.76273 2.46452 0
M  V30 7509 C 744.315 -4.37589 0.469442 0
M  V30 7510 H 741.434 -0.703674 0.219115 0
M  V30 7511 H 744.076 -1.48705 1.18266 0
M  V30 7512 H 742.226 -3.8585 0.453008 0
M  V30 7513 H 743.898 -3.47455 3.03435 0
M  V30 7514 H 742.141 -3.22135 2.90537 0
M  V30 7515 H 742.812 -4.83664 2.66032 0
M  V30 7516 H 745.288 -4.06353 0.89534 0
M  V30 7517 H 744.164 -5.43841 0.7435 0
M  V30 7518 H 744.425 -4.37579 -0.630618 0
M  V30 7519 N 743.484 -0.715051 -1.40445 0
M  V30 7520 C 744.709 -0.26254 -2.05732 0
M  V30 7521 C 745.134 1.08691 -1.53519 0
M  V30 7522 O 744.492 1.68453 -0.670328 0
M  V30 7523 C 744.54 -0.25195 -3.59719 0
M  V30 7524 O 743.644 0.766998 -4.05205 0
M  V30 7525 H 742.985 -0.123398 -0.652433 0
M  V30 7526 H 745.515 -0.975382 -1.79854 0
M  V30 7527 H 745.525 -0.0894537 -4.07902 0
M  V30 7528 H 744.2 -1.23672 -3.97087 0
M  V30 7529 H 742.777 0.572269 -3.68483 0
M  V30 7530 N 744.962 1.50701 -0.461195 0
M  V30 7531 C 746.208 2.02566 0.0973411 0
M  V30 7532 C 746.541 1.3432 1.40257 0
M  V30 7533 O 745.816 0.465692 1.88843 0
M  V30 7534 C 746.099 3.58919 0.291423 0
M  V30 7535 C 745.952 4.37751 -1.03413 0
M  V30 7536 C 747.271 4.27379 1.05048 0
M  V30 7537 H 744.39 0.73622 0.0339026 0
M  V30 7538 H 747.032 1.80115 -0.604855 0
M  V30 7539 H 745.182 3.78179 0.889539 0
M  V30 7540 H 746.854 4.30085 -1.66806 0
M  V30 7541 H 745.097 4.01885 -1.63313 0
M  V30 7542 H 745.768 5.45384 -0.852085 0
M  V30 7543 H 748.244 4.12534 0.543603 0
M  V30 7544 H 747.12 5.36609 1.15506 0
M  V30 7545 H 747.381 3.89868 2.0846 0
M  V30 7546 N 746.441 0.193421 1.56409 0
M  V30 7547 C 747.666 -0.454552 2.02358 0
M  V30 7548 C 748.091 -1.54516 1.07268 0
M  V30 7549 O 747.449 -1.81214 0.0558962 0
M  V30 7550 C 747.497 -0.989469 3.46759 0
M  V30 7551 O 746.601 -2.10244 3.54783 0
M  V30 7552 H 745.942 -0.106417 0.655417 0
M  V30 7553 H 748.472 0.303807 2.02332 0
M  V30 7554 H 748.482 -1.30649 3.86516 0
M  V30 7555 H 747.157 -0.191083 4.15461 0
M  V30 7556 H 745.734 -1.79419 3.26899 0
M  V30 7557 N 747.919 -1.57396 -0.0801906 0
M  V30 7558 C 749.147 -1.91055 -0.794075 0
M  V30 7559 C 749.562 -0.788583 -1.71542 0
M  V30 7560 O 748.919 0.238587 -1.80934 0
M  V30 7561 C 748.97 -3.24418 -1.59484 0
M  V30 7562 O 748.691 -4.323 -0.710532 0
M  V30 7563 C 750.192 -3.72037 -2.41046 0
M  V30 7564 H 747.412 -0.63171 -0.226238 0
M  V30 7565 H 749.956 -2.04431 -0.0529685 0
M  V30 7566 H 748.111 -3.12595 -2.2883 0
M  V30 7567 H 748.525 -5.08976 -1.26663 0
M  V30 7568 H 749.999 -4.68006 -2.92702 0
M  V30 7569 H 750.476 -3.00624 -3.2019 0
M  V30 7570 H 751.082 -3.86777 -1.76871 0
M  V30 7571 N 749.397 0.351382 -1.53633 0
M  V30 7572 C 750.622 1.11718 -1.74739 0
M  V30 7573 C 751.047 1.81829 -0.481657 0
M  V30 7574 O 750.405 1.72264 0.565233 0
M  V30 7575 C 750.453 2.11234 -2.92254 0
M  V30 7576 O 749.557 3.186 -2.61855 0
M  V30 7577 H 748.898 0.323482 -0.579875 0
M  V30 7578 H 751.428 0.404167 -2.00568 0
M  V30 7579 H 751.438 2.54591 -3.18822 0
M  V30 7580 H 750.113 1.59599 -3.84058 0
M  V30 7581 H 748.69 2.80115 -2.4615 0
M  V30 7582 N 750.875 1.45233 0.611969 0
M  V30 7583 C 751.825 1.49997 1.71711 0
M  V30 7584 C 752.809 0.363689 1.56736 0
M  V30 7585 O 754.001 0.610261 1.66147 0
M  V30 7586 C 751.13 1.46537 3.10454 0
M  V30 7587 C 750.216 2.65351 3.30831 0
M  V30 7588 N 750.607 3.90485 3.21489 0
M  V30 7589 C 748.905 2.60955 3.61688 0
M  V30 7590 C 749.606 4.69758 3.43078 0
M  V30 7591 N 748.582 4.01141 3.66861 0
M  V30 7592 H 752.384 2.44574 1.62975 0
M  V30 7593 H 749.898 1.40464 0.815082 0
M  V30 7594 H 751.895 1.48035 3.89732 0
M  V30 7595 H 750.555 0.530139 3.20343 0
M  V30 7596 H 751.566 4.22171 2.99987 0
M  V30 7597 H 748.243 1.76319 3.78441 0
M  V30 7598 H 749.633 5.7877 3.41285 0
M  V30 7599 N 752.353 -0.854086 1.3245 0
M  V30 7600 C 753.581 -1.64074 1.26045 0
M  V30 7601 C 753.996 -1.8802 -0.171456 0
M  V30 7602 O 753.353 -1.4496 -1.10873 0
M  V30 7603 C 753.404 -2.9997 2.01743 0
M  V30 7604 O 753.125 -2.77084 3.39346 0
M  V30 7605 C 754.626 -3.94414 2.02368 0
M  V30 7606 H 751.846 -0.511015 0.434862 0
M  V30 7607 H 754.39 -1.06494 1.74583 0
M  V30 7608 H 752.545 -3.54193 1.56926 0
M  V30 7609 H 752.959 -3.63514 3.78098 0
M  V30 7610 H 754.433 -4.87032 2.59815 0
M  V30 7611 H 754.91 -4.27427 1.01009 0
M  V30 7612 H 755.516 -3.46127 2.47135 0
M  V30 7613 N 753.831 -1.1567 -1.07043 0
M  V30 7614 C 755.059 -0.957471 -1.83412 0
M  V30 7615 C 755.474 0.494271 -1.82215 0
M  V30 7616 O 754.831 1.34288 -1.23584 0
M  V30 7617 C 754.882 -1.46784 -3.30359 0
M  V30 7618 O 754.603 -2.86271 -3.31633 0
M  V30 7619 C 756.104 -1.31054 -4.23485 0
M  V30 7620 H 753.324 -0.33986 -0.578564 0
M  V30 7621 H 755.868 -1.53518 -1.35102 0
M  V30 7622 H 754.023 -0.932586 -3.76007 0
M  V30 7623 H 754.437 -3.0948 -4.23465 0
M  V30 7624 H 755.911 -1.71605 -5.24648 0
M  V30 7625 H 756.388 -0.255107 -4.38458 0
M  V30 7626 H 756.994 -1.83503 -3.83676 0
M  V30 7627 N 755.309 1.25446 -0.953992 0
M  V30 7628 C 756.558 1.92441 -0.604101 0
M  V30 7629 C 756.871 1.75543 0.862796 0
M  V30 7630 O 758.077 2.37106 1.32262 0
M  V30 7631 C 756.533 3.44854 -1.02974 0
M  V30 7632 C 756.141 3.70464 -2.51914 0
M  V30 7633 C 757.885 4.1778 -0.752352 0
M  V30 7634 C 755.792 5.1638 -2.88281 0
M  V30 7635 H 754.722 0.720508 -0.222227 0
M  V30 7636 H 757.373 1.42318 -1.15836 0
M  V30 7637 H 755.755 3.93935 -0.403904 0
M  V30 7638 H 756.929 3.32038 -3.19511 0
M  V30 7639 H 755.244 3.10797 -2.77117 0
M  V30 7640 H 757.841 5.25261 -1.00024 0
M  V30 7641 H 758.184 4.15135 0.311212 0
M  V30 7642 H 758.717 3.74605 -1.33851 0
M  V30 7643 H 755.456 5.24135 -3.93653 0
M  V30 7644 H 754.976 5.55855 -2.25357 0
M  V30 7645 H 756.655 5.84497 -2.77439 0
M  V30 7646 N 756.787 0.722489 1.40064 0
M  V30 7647 C 758.012 0.273446 2.05589 0
M  V30 7648 C 758.437 -1.07875 1.54093 0
M  V30 7649 O 757.795 -1.68095 0.679252 0
M  V30 7650 C 757.843 0.271023 3.5958 0
M  V30 7651 O 756.947 -0.745499 4.05606 0
M  V30 7652 H 756.288 0.126856 0.65177 0
M  V30 7653 H 758.818 0.984906 1.79334 0
M  V30 7654 H 758.828 0.111084 4.07849 0
M  V30 7655 H 757.503 1.25776 3.96425 0
M  V30 7656 H 756.08 -0.552719 3.68781 0
M  V30 7657 N 758.265 -1.50454 0.469181 0
M  V30 7658 C 759.513 -2.01916 -0.0862982 0
M  V30 7659 C 759.834 -1.35337 -1.40388 0
M  V30 7660 O 759.104 -0.498096 -1.89462 0
M  V30 7661 H 757.684 -0.746185 -0.0348825 0
M  V30 7662 H 760.346 -1.84804 0.619167 0
M  V30 7663 H 759.442 -3.11182 -0.239189 0
M  V30 7664 N 759.743 -0.201713 -1.56304 0
M  V30 7665 C 760.991 0.434447 -1.97375 0
M  V30 7666 C 761.312 1.61692 -1.08998 0
M  V30 7667 O 760.582 1.95223 -0.162682 0
M  V30 7668 H 759.162 0.163497 -0.728888 0
M  V30 7669 H 761.824 -0.289988 -1.92731 0
M  V30 7670 H 760.92 0.774136 -3.02347 0
M  V30 7671 N 761.222 1.57436 0.0718424 0
M  V30 7672 C 762.47 1.86878 0.769484 0
M  V30 7673 C 762.791 0.7937 1.78116 0
M  V30 7674 O 762.061 -0.177642 1.95093 0
M  V30 7675 H 760.641 0.689593 0.287177 0
M  V30 7676 H 763.303 1.94841 0.0479427 0
M  V30 7677 H 762.399 2.84387 1.28572 0
M  V30 7678 N 762.7 -0.34323 1.53817 0
M  V30 7679 C 763.925 -1.1079 1.75329 0
M  V30 7680 C 764.35 -1.81571 0.491293 0
M  V30 7681 O 763.708 -1.72561 -0.556089 0
M  V30 7682 C 763.756 -2.09681 2.9337 0
M  V30 7683 O 762.86 -3.17207 2.63541 0
M  V30 7684 H 762.201 -0.320402 0.581583 0
M  V30 7685 H 764.731 -0.393525 2.0078 0
M  V30 7686 H 764.741 -2.52897 3.20168 0
M  V30 7687 H 763.416 -1.5756 3.84899 0
M  V30 7688 H 761.993 -2.78806 2.47632 0
M  V30 7689 N 764.178 -1.45556 -0.604258 0
M  V30 7690 C 765.594 -1.30035 -0.925368 0
M  V30 7691 C 765.794 -0.255833 -1.99869 0
M  V30 7692 O 764.85 0.349076 -2.50075 0
M  V30 7693 C 766.163 -2.68028 -1.36314 0
M  V30 7694 C 767.711 -2.75951 -1.47717 0
M  V30 7695 C 768.186 -4.14476 -1.94868 0
M  V30 7696 N 769.677 -4.16787 -2.02097 0
M  V30 7697 C 770.412 -5.20845 -2.39809 0
M  V30 7698 N 769.908 -6.35246 -2.76467 0
M  V30 7699 N 771.701 -5.08204 -2.40177 0
M  V30 7700 H 763.852 -2.1214 0.10512 0
M  V30 7701 H 766.115 -0.947871 -0.0156303 0
M  V30 7702 H 765.821 -3.45667 -0.648628 0
M  V30 7703 H 765.695 -2.96711 -2.329 0
M  V30 7704 H 768.082 -1.98613 -2.18258 0
M  V30 7705 H 768.163 -2.50977 -0.494371 0
M  V30 7706 H 767.807 -4.923 -1.24912 0
M  V30 7707 H 767.737 -4.36843 -2.94068 0
M  V30 7708 H 770.228 -3.34233 -1.76343 0
M  V30 7709 H 770.541 -7.10438 -3.04134 0
M  V30 7710 H 768.886 -6.38642 -2.74155 0
M  V30 7711 H 772.077 -4.17874 -2.10947 0
M  V30 7712 H 772.25 -5.89417 -2.69242 0
M  V30 7713 N 765.656 0.84705 -1.32902 0
M  V30 7714 C 766.904 1.5986 -1.2365 0
M  V30 7715 C 767.225 1.93974 0.199789 0
M  V30 7716 O 766.495 1.60273 1.12648 0
M  V30 7717 H 765.075 0.592696 -0.454665 0
M  V30 7718 H 767.737 1.01278 -1.66519 0
M  V30 7719 H 766.833 2.53218 -1.82448 0
M  V30 7720 N 767.134 1.16236 1.06428 0
M  V30 7721 C 768.382 0.941171 1.78847 0
M  V30 7722 C 768.703 -0.53248 1.87589 0
M  V30 7723 O 767.973 -1.38686 1.38358 0
M  V30 7724 H 766.553 0.345228 0.66244 0
M  V30 7725 H 769.215 1.46479 1.28569 0
M  V30 7726 H 768.311 1.35871 2.80972 0
M  V30 7727 N 768.612 -1.24939 0.960631 0
M  V30 7728 C 769.86 -1.92437 0.617441 0
M  V30 7729 C 770.181 -1.75543 -0.849101 0
M  V30 7730 O 769.451 -1.12269 -1.60538 0
M  V30 7731 H 768.031 -0.712192 0.225371 0
M  V30 7732 H 770.693 -1.5198 1.22017 0
M  V30 7733 H 769.789 -3.00247 0.851933 0
M  V30 7734 N 770.09 -0.729906 -1.39679 0
M  V30 7735 C 771.338 -0.275077 -2.00219 0
M  V30 7736 C 771.659 1.1401 -1.58199 0
M  V30 7737 O 770.929 1.77546 -0.827904 0
M  V30 7738 H 769.509 -0.0987127 -0.740449 0
M  V30 7739 H 772.171 -0.93873 -1.70804 0
M  V30 7740 H 771.267 -0.319446 -3.10461 0
M  V30 7741 N 771.568 1.50203 -0.477153 0
M  V30 7742 C 772.816 2.01959 0.0755889 0
M  V30 7743 C 773.137 1.3608 1.39668 0
M  V30 7744 O 772.407 0.508136 1.89195 0
M  V30 7745 H 770.987 0.74636 0.0309248 0
M  V30 7746 H 773.649 1.84473 -0.628959 0
M  V30 7747 H 772.745 3.11305 0.222683 0
M  V30 7748 N 773.046 0.209999 1.56195 0
M  V30 7749 C 774.294 -0.423974 1.97603 0
M  V30 7750 C 774.615 -1.61112 1.09854 0
M  V30 7751 O 773.885 -1.95134 0.173032 0
M  V30 7752 H 772.465 -0.159629 0.729745 0
M  V30 7753 H 775.127 0.300205 1.92574 0
M  V30 7754 H 774.223 -0.75809 3.02753 0
M  V30 7755 N 774.524 -1.57472 -0.0634922 0
M  V30 7756 C 775.754 -1.91608 -0.772645 0
M  V30 7757 C 776.162 -0.805019 -1.71219 0
M  V30 7758 O 775.505 0.229941 -1.82255 0
M  V30 7759 C 775.567 -3.21281 -1.61304 0
M  V30 7760 C 775.231 -4.49177 -0.841973 0
M  V30 7761 C 776.228 -5.19661 -0.157494 0
M  V30 7762 C 773.913 -4.9578 -0.80669 0
M  V30 7763 C 775.907 -6.35006 0.551948 0
M  V30 7764 C 773.594 -6.11028 -0.0934812 0
M  V30 7765 C 774.592 -6.80493 0.58463 0
M  V30 7766 O 774.28 -7.93542 1.28633 0
M  V30 7767 H 774.012 -0.637685 -0.224352 0
M  V30 7768 H 776.566 -2.05369 -0.0355279 0
M  V30 7769 H 774.796 -3.03752 -2.39315 0
M  V30 7770 H 776.485 -3.41003 -2.20162 0
M  V30 7771 H 777.251 -4.84681 -0.176006 0
M  V30 7772 H 773.13 -4.41579 -1.32397 0
M  V30 7773 H 776.674 -6.89161 1.0818 0
M  V30 7774 H 772.571 -6.45459 -0.0729258 0
M  V30 7775 H 773.339 -8.09708 1.19646 0
M  V30 7776 N 776.003 0.335068 -1.53997 0
M  V30 7777 C 777.251 1.07223 -1.71312 0
M  V30 7778 C 777.572 1.88911 -0.483486 0
M  V30 7779 O 776.842 1.89344 0.50257 0
M  V30 7780 H 775.422 0.398846 -0.63161 0
M  V30 7781 H 778.084 0.374288 -1.91272 0
M  V30 7782 H 777.18 1.7448 -2.58772 0
M  V30 7783 N 777.481 1.45874 0.596531 0
M  V30 7784 C 778.706 1.54247 1.38646 0
M  V30 7785 C 779.131 0.179571 1.87241 0
M  V30 7786 O 778.489 -0.837831 1.6078 0
M  V30 7787 C 778.537 2.54015 2.55946 0
M  V30 7788 O 777.641 2.06561 3.5694 0
M  V30 7789 H 776.982 0.519555 0.413471 0
M  V30 7790 H 779.512 1.91327 0.724936 0
M  V30 7791 H 779.522 2.73179 3.03047 0
M  V30 7792 H 778.197 3.52994 2.19928 0
M  V30 7793 H 776.774 1.97324 3.16414 0
M  V30 7794 N 778.959 -0.83999 1.33349 0
M  V30 7795 C 780.207 -1.59202 1.24496 0
M  V30 7796 C 780.528 -1.94077 -0.189499 0
M  V30 7797 O 779.798 -1.60868 -1.11796 0
M  V30 7798 H 778.378 -0.590276 0.457802 0
M  V30 7799 H 781.04 -1.00394 1.67054 0
M  V30 7800 H 780.136 -2.52247 1.83788 0
M  V30 7801 N 780.437 -1.16799 -1.0581 0
M  V30 7802 C 781.685 -0.950642 -1.78346 0
M  V30 7803 C 782.006 0.522524 -1.87869 0
M  V30 7804 O 781.276 1.3795 -1.39092 0
M  V30 7805 H 779.856 -0.348736 -0.6606 0
M  V30 7806 H 782.518 -1.47158 -1.27791 0
M  V30 7807 H 781.614 -1.37359 -2.80248 0
M  V30 7808 N 781.915 1.24427 -0.967243 0
M  V30 7809 C 783.14 1.9708 -0.646069 0
M  V30 7810 C 783.565 1.71272 0.777665 0
M  V30 7811 O 782.923 0.976179 1.52776 0
M  V30 7812 C 782.971 3.48501 -0.926266 0
M  V30 7813 O 782.075 4.12398 -0.0114653 0
M  V30 7814 H 781.416 0.617423 -0.244304 0
M  V30 7815 H 783.946 1.58215 -1.29727 0
M  V30 7816 H 783.956 3.98885 -0.857619 0
M  V30 7817 H 782.631 3.66613 -1.96386 0
M  V30 7818 H 781.208 3.72661 -0.133396 0
M  V30 7819 N 783.393 0.737304 1.3929 0
M  V30 7820 C 784.618 0.295237 2.05288 0
M  V30 7821 C 785.043 -1.06235 1.55228 0
M  V30 7822 O 784.401 -1.67365 0.697043 0
M  V30 7823 C 784.449 0.309146 3.59272 0
M  V30 7824 O 783.553 -0.702437 4.06374 0
M  V30 7825 H 782.894 0.133762 0.650387 0
M  V30 7826 H 785.424 1.00387 1.78279 0
M  V30 7827 H 785.434 0.154336 4.07708 0
M  V30 7828 H 784.109 1.29974 3.95069 0
M  V30 7829 H 782.686 -0.513574 3.69346 0
M  V30 7830 N 784.871 -1.49948 0.485112 0
M  V30 7831 C 786.101 -2.06506 -0.0621921 0
M  V30 7832 C 786.509 -1.34756 -1.32806 0
M  V30 7833 O 785.852 -0.41466 -1.78959 0
M  V30 7834 C 785.914 -3.57243 -0.402182 0
M  V30 7835 C 785.578 -4.50574 0.763671 0
M  V30 7836 C 786.575 -4.93032 1.6497 0
M  V30 7837 C 784.26 -4.9308 0.957973 0
M  V30 7838 C 786.254 -5.76718 2.71432 0
M  V30 7839 C 783.941 -5.76546 2.0258 0
M  V30 7840 C 784.939 -6.18267 2.90232 0
M  V30 7841 O 784.627 -7.00066 3.95174 0
M  V30 7842 H 784.359 -0.675925 0.0100672 0
M  V30 7843 H 786.913 -1.93922 0.677023 0
M  V30 7844 H 785.143 -3.6778 -1.19478 0
M  V30 7845 H 786.832 -3.96107 -0.886219 0
M  V30 7846 H 787.598 -4.60851 1.51134 0
M  V30 7847 H 783.477 -4.60117 0.285144 0
M  V30 7848 H 787.021 -6.09203 3.39878 0
M  V30 7849 H 782.918 -6.0814 2.16417 0
M  V30 7850 H 783.686 -7.18343 3.92333 0
M  V30 7851 N 786.349 -0.21828 -1.56081 0
M  V30 7852 C 787.597 0.413488 -1.97825 0
M  V30 7853 C 787.918 1.60527 -1.10707 0
M  V30 7854 O 787.188 1.9504 -0.183378 0
M  V30 7855 H 785.768 0.155757 -0.730581 0
M  V30 7856 H 788.43 -0.310413 -1.92412 0
M  V30 7857 H 787.526 0.742024 -3.03151 0
M  V30 7858 N 787.827 1.57504 0.0551401 0
M  V30 7859 C 789.052 1.92682 0.767352 0
M  V30 7860 C 789.477 0.81614 1.69472 0
M  V30 7861 O 788.835 -0.229989 1.79835 0
M  V30 7862 C 788.883 3.26866 1.52286 0
M  V30 7863 O 787.987 3.17274 2.63459 0
M  V30 7864 H 787.328 0.630502 0.208238 0
M  V30 7865 H 789.858 2.04592 0.0184026 0
M  V30 7866 H 789.868 3.61138 1.8985 0
M  V30 7867 H 788.543 4.07276 0.842541 0
M  V30 7868 H 787.12 2.94589 2.2863 0
M  V30 7869 N 789.305 -0.326896 1.54172 0
M  V30 7870 C 790.553 -1.06313 1.71878 0
M  V30 7871 C 790.874 -1.88652 0.493498 0
M  V30 7872 O 790.144 -1.89608 -0.492522 0
M  V30 7873 H 788.724 -0.39549 0.633716 0
M  V30 7874 H 791.386 -0.364139 1.91468 0
M  V30 7875 H 790.482 -1.73105 2.59694 0
M  V30 7876 N 790.784 -1.46188 -0.588786 0
M  V30 7877 C 792.032 -1.50885 -1.34455 0
M  V30 7878 C 792.353 -0.159555 -1.94346 0
M  V30 7879 O 791.623 0.813239 -1.78222 0
M  V30 7880 H 790.203 -0.555707 -0.499198 0
M  V30 7881 H 792.865 -1.82277 -0.690014 0
M  V30 7882 H 791.961 -2.25816 -2.15438 0
M  V30 7883 N 792.262 0.832906 -1.33792 0
M  V30 7884 C 793.51 1.58539 -1.25338 0
M  V30 7885 C 793.831 1.94175 0.179204 0
M  V30 7886 O 793.101 1.61458 1.10941 0
M  V30 7887 H 791.681 0.58784 -0.460926 0
M  V30 7888 H 794.343 0.995064 -1.67584 0
M  V30 7889 H 793.439 2.51268 -1.85123 0
M  V30 7890 N 793.74 1.17359 1.05189 0
M  V30 7891 C 794.965 0.98709 1.82404 0
M  V30 7892 C 795.39 -0.459848 1.82392 0
M  V30 7893 O 794.748 -1.32924 1.23292 0
M  V30 7894 C 794.796 1.53276 3.26403 0
M  V30 7895 O 793.9 0.746541 4.05587 0
M  V30 7896 H 793.241 0.35047 0.563974 0
M  V30 7897 H 795.771 1.55856 1.32552 0
M  V30 7898 H 795.781 1.55504 3.77203 0
M  V30 7899 H 794.456 2.58603 3.25726 0
M  V30 7900 H 793.033 0.795671 3.64312 0
M  V30 7901 N 795.218 -1.23913 0.973828 0
M  V30 7902 C 796.448 -1.95911 0.655938 0
M  V30 7903 C 796.856 -1.72375 -0.779967 0
M  V30 7904 O 796.199 -1.00807 -1.5357 0
M  V30 7905 C 796.261 -3.49103 0.858324 0
M  V30 7906 C 795.925 -3.96347 2.27504 0
M  V30 7907 C 796.922 -4.05537 3.25324 0
M  V30 7908 C 794.607 -4.29509 2.60437 0
M  V30 7909 C 796.601 -4.47233 4.5416 0
M  V30 7910 C 794.288 -4.70887 3.89498 0
M  V30 7911 C 795.286 -4.79714 4.86172 0
M  V30 7912 O 794.974 -5.20166 6.1293 0
M  V30 7913 H 794.706 -0.630721 0.243244 0
M  V30 7914 H 797.26 -1.58534 1.30599 0
M  V30 7915 H 795.49 -3.86405 0.151097 0
M  V30 7916 H 797.179 -4.02311 0.538592 0
M  V30 7917 H 797.945 -3.80128 3.0121 0
M  V30 7918 H 793.824 -4.21853 1.85906 0
M  V30 7919 H 797.368 -4.54038 5.29618 0
M  V30 7920 H 793.265 -4.95744 4.1341 0
M  V30 7921 H 794.033 -5.38298 6.16586 0
M  V30 7922 N 796.696 -0.74468 -1.38897 0
M  V30 7923 C 797.944 -0.296298 -1.99916 0
M  V30 7924 C 798.265 1.12325 -1.59399 0
M  V30 7925 O 797.535 1.76658 -0.846689 0
M  V30 7926 H 796.115 -0.106561 -0.73936 0
M  V30 7927 H 798.777 -0.956793 -1.69798 0
M  V30 7928 H 797.873 -0.352356 -3.10105 0
M  V30 7929 N 798.174 1.49689 -0.493057 0
M  V30 7930 C 799.399 2.07331 0.0535114 0
M  V30 7931 C 799.824 1.35196 1.30781 0
M  V30 7932 O 799.182 0.406246 1.7669 0
M  V30 7933 C 799.23 3.59364 0.29825 0
M  V30 7934 O 798.334 3.88819 1.37454 0
M  V30 7935 H 797.675 0.663612 -0.0227018 0
M  V30 7936 H 800.205 1.926 -0.690402 0
M  V30 7937 H 800.215 4.04515 0.532159 0
M  V30 7938 H 798.89 4.1128 -0.618207 0
M  V30 7939 H 797.467 3.55487 1.12621 0
M  V30 7940 N 799.652 0.226554 1.55963 0
M  V30 7941 C 800.9 -0.402991 1.98041 0
M  V30 7942 C 801.221 -1.59938 1.11557 0
M  V30 7943 O 800.491 -1.9494 0.193719 0
M  V30 7944 H 799.071 -0.15188 0.731397 0
M  V30 7945 H 801.733 0.320613 1.92245 0
M  V30 7946 H 800.829 -0.725937 3.0354 0
M  V30 7947 N 801.13 -1.57531 -0.0467866 0
M  V30 7948 C 802.378 -1.88078 -0.739656 0
M  V30 7949 C 802.699 -0.821936 -1.76831 0
M  V30 7950 O 801.969 0.146582 -1.95351 0
M  V30 7951 H 800.549 -0.694075 -0.276169 0
M  V30 7952 H 803.211 -1.94893 -0.0169391 0
M  V30 7953 H 802.307 -2.86396 -1.24031 0
M  V30 7954 N 802.608 0.318715 -1.54344 0
M  V30 7955 C 803.856 1.054 -1.72439 0
M  V30 7956 C 804.177 1.88388 -0.503495 0
M  V30 7957 O 803.447 1.89866 0.48246 0
M  V30 7958 H 802.027 0.392124 -0.635805 0
M  V30 7959 H 804.689 0.35398 -1.91659 0
M  V30 7960 H 803.785 1.71726 -2.60608 0
M  V30 7961 N 804.086 1.46499 0.581025 0
M  V30 7962 C 805.334 1.51596 1.33653 0
M  V30 7963 C 805.655 0.169859 1.94259 0
M  V30 7964 O 804.925 -0.803776 1.78651 0
M  V30 7965 H 803.505 0.558346 0.496244 0
M  V30 7966 H 806.167 1.8264 0.680338 0
M  V30 7967 H 805.263 2.26956 2.14237 0
M  V30 7968 N 805.565 -0.825799 1.34232 0
M  V30 7969 C 806.813 -1.57873 1.26177 0
M  V30 7970 C 807.134 -1.94267 -0.168904 0
M  V30 7971 O 806.404 -1.62045 -1.10084 0
M  V30 7972 H 804.984 -0.585388 0.464037 0
M  V30 7973 H 807.646 -0.986163 1.6811 0
M  V30 7974 H 806.742 -2.50283 1.86453 0
M  V30 7975 N 807.043 -1.17915 -1.04565 0
M  V30 7976 C 808.291 -0.969505 -1.77327 0
M  V30 7977 C 808.612 0.502569 -1.88412 0
M  V30 7978 O 807.882 1.36467 -1.40547 0
M  V30 7979 H 806.462 -0.355723 -0.656864 0
M  V30 7980 H 809.124 -1.48506 -1.26223 0
M  V30 7981 H 808.22 -1.40324 -2.78775 0
M  V30 7982 N 808.521 1.23394 -0.980386 0
M  V30 7983 C 809.769 1.91431 -0.647978 0
M  V30 7984 C 810.09 1.76871 0.821066 0
M  V30 7985 O 809.36 1.14808 1.58732 0
M  V30 7986 H 807.94 0.708516 -0.236673 0
M  V30 7987 H 810.602 1.50019 -1.2442 0
M  V30 7988 H 809.698 2.98854 -0.899592 0
M  V30 7989 N 809.999 0.752036 1.385 0
M  V30 7990 C 811.415 0.42946 1.53713 0
M  V30 7991 C 811.615 -1.0576 1.71514 0
M  V30 7992 O 810.671 -1.84366 1.72527 0
M  V30 7993 C 811.984 1.22735 2.74511 0
M  V30 7994 C 813.532 1.21727 2.8836 0
M  V30 7995 C 814.007 1.99809 4.12117 0
M  V30 7996 N 815.498 1.97062 4.19191 0
M  V30 7997 C 816.233 2.54274 5.13938 0
M  V30 7998 N 815.729 3.20193 6.14368 0
M  V30 7999 N 817.522 2.44212 5.06277 0
M  V30 8000 H 809.673 1.71581 1.25195 0
M  V30 8001 H 811.936 0.727293 0.60807 0
M  V30 8002 H 811.642 2.28032 2.67758 0
M  V30 8003 H 811.516 0.843186 3.67655 0
M  V30 8004 H 813.903 0.172367 2.94596 0
M  V30 8005 H 813.984 1.64094 1.96232 0
M  V30 8006 H 813.628 3.0431 4.06642 0
M  V30 8007 H 813.558 1.54837 5.03322 0
M  V30 8008 H 816.049 1.49054 3.47263 0
M  V30 8009 H 816.362 3.61272 6.83156 0
M  V30 8010 H 814.707 3.24287 6.14705 0
M  V30 8011 H 817.898 1.92343 4.26757 0
M  V30 8012 H 818.071 2.89096 5.79937 0
M  V30 8013 N 811.477 -1.49425 0.500989 0
M  V30 8014 C 812.725 -2.02053 -0.0434495 0
M  V30 8015 C 813.046 -1.38285 -1.37486 0
M  V30 8016 O 812.316 -0.538171 -1.88363 0
M  V30 8017 H 810.896 -0.746757 -0.0190469 0
M  V30 8018 H 813.558 -1.83449 0.658227 0
M  V30 8019 H 812.654 -3.11619 -0.173129 0
M  V30 8020 N 812.955 -0.234822 -1.55841 0
M  V30 8021 C 814.18 0.400741 -2.03492 0
M  V30 8022 C 814.605 1.51618 -1.11327 0
M  V30 8023 O 813.963 1.81002 -0.103922 0
M  V30 8024 C 814.011 0.897184 -3.49261 0
M  V30 8025 O 813.115 2.00764 -3.60233 0
M  V30 8026 H 812.456 0.0890023 -0.658008 0
M  V30 8027 H 814.986 -0.357345 -2.01455 0
M  V30 8028 H 814.996 1.20356 -3.89844 0
M  V30 8029 H 813.671 0.0808639 -4.15821 0
M  V30 8030 H 812.248 1.70689 -3.31541 0
M  V30 8031 N 814.433 1.57553 0.0384317 0
M  V30 8032 C 815.663 1.92813 0.742064 0
M  V30 8033 C 816.071 0.832157 1.69917 0
M  V30 8034 O 815.414 -0.200917 1.82598 0
M  V30 8035 C 815.476 3.23806 1.56172 0
M  V30 8036 C 815.14 4.50459 0.770407 0
M  V30 8037 C 816.137 5.19846 0.0748006 0
M  V30 8038 C 813.822 4.97001 0.727714 0
M  V30 8039 C 815.816 6.34047 -0.652902 0
M  V30 8040 C 813.503 6.111 -0.00373992 0
M  V30 8041 C 814.501 6.79477 -0.692816 0
M  V30 8042 O 814.189 7.91395 -1.41241 0
M  V30 8043 H 813.921 0.641174 0.214179 0
M  V30 8044 H 816.475 2.054 0.00285095 0
M  V30 8045 H 814.705 3.0752 2.34453 0
M  V30 8046 H 816.394 3.44463 2.14709 0
M  V30 8047 H 817.16 4.84899 0.098875 0
M  V30 8048 H 813.039 4.43629 1.25355 0
M  V30 8049 H 816.583 6.87353 -1.1913 0
M  V30 8050 H 812.48 6.45493 -0.0297703 0
M  V30 8051 H 813.248 8.07702 -1.32512 0
M  V30 8052 N 815.911 -0.310526 1.54511 0
M  V30 8053 C 817.159 -1.04484 1.72996 0
M  V30 8054 C 817.48 -1.88118 0.513479 0
M  V30 8055 O 816.75 -1.90119 -0.472384 0
M  V30 8056 H 815.33 -0.388747 0.637875 0
M  V30 8057 H 817.992 -0.343811 1.91844 0
M  V30 8058 H 817.088 -1.70341 2.61515 0
M  V30 8059 N 817.389 -1.46805 -0.573248 0
M  V30 8060 C 818.614 -1.56433 -1.36175 0
M  V30 8061 C 819.039 -0.209336 -1.86932 0
M  V30 8062 O 818.397 0.812146 -1.62092 0
M  V30 8063 C 818.445 -2.58055 -2.51873 0
M  V30 8064 O 817.549 -2.12214 -3.53609 0
M  V30 8065 H 816.89 -0.526068 -0.405153 0
M  V30 8066 H 819.42 -1.92456 -0.694405 0
M  V30 8067 H 819.43 -2.77966 -2.98662 0
M  V30 8068 H 818.105 -3.56448 -2.14284 0
M  V30 8069 H 816.682 -2.02333 -3.13234 0
M  V30 8070 N 818.867 0.818669 -1.34668 0
M  V30 8071 C 820.115 1.57201 -1.27013 0
M  V30 8072 C 820.436 1.94354 0.158599 0
M  V30 8073 O 819.706 1.62626 1.09223 0
M  V30 8074 H 818.286 0.582919 -0.467135 0
M  V30 8075 H 820.948 0.977234 -1.6863 0
M  V30 8076 H 820.044 2.49291 -1.87778 0
M  V30 8077 N 820.346 1.18468 1.03938 0
M  V30 8078 C 821.594 0.978895 1.76811 0
M  V30 8079 C 821.915 -0.49257 1.88676 0
M  V30 8080 O 821.185 -1.3572 1.41269 0
M  V30 8081 H 819.765 0.359201 0.654968 0
M  V30 8082 H 822.427 1.49173 1.25433 0
M  V30 8083 H 821.523 1.418 2.78027 0
M  V30 8084 N 821.824 -1.22873 0.986916 0
M  V30 8085 C 823.049 -1.96028 0.677341 0
M  V30 8086 C 823.474 -1.72487 -0.750319 0
M  V30 8087 O 822.832 -1.00036 -1.51203 0
M  V30 8088 C 822.88 -3.46983 0.981593 0
M  V30 8089 O 821.984 -4.12328 0.0770729 0
M  V30 8090 H 821.325 -0.613458 0.254096 0
M  V30 8091 H 823.855 -1.56132 1.32227 0
M  V30 8092 H 823.865 -3.9747 0.920969 0
M  V30 8093 H 822.54 -3.63442 2.02194 0
M  V30 8094 H 821.117 -3.72402 0.192666 0
M  V30 8095 N 823.302 -0.75937 -1.38099 0
M  V30 8096 C 824.527 -0.327859 -2.04792 0
M  V30 8097 C 824.952 1.03752 -1.56899 0
M  V30 8098 O 824.31 1.66235 -0.723581 0
M  V30 8099 C 824.358 -0.366264 -3.58735 0
M  V30 8100 O 823.462 0.637697 -4.0744 0
M  V30 8101 H 822.803 -0.144092 -0.648177 0
M  V30 8102 H 825.333 -1.03211 -1.7666 0
M  V30 8103 H 825.343 -0.219179 -4.07411 0
M  V30 8104 H 824.018 -1.36243 -3.92951 0
M  V30 8105 H 822.595 0.454749 -3.70117 0
M  V30 8106 N 824.78 1.49157 -0.508906 0
M  V30 8107 C 826.01 2.06579 0.0293308 0
M  V30 8108 C 826.418 1.36852 1.30645 0
M  V30 8109 O 825.761 0.443079 1.78276 0
M  V30 8110 C 825.823 3.57838 0.345296 0
M  V30 8111 C 825.487 4.49302 -0.835256 0
M  V30 8112 C 826.484 4.90345 -1.72793 0
M  V30 8113 C 824.169 4.91494 -1.0363 0
M  V30 8114 C 826.163 5.72327 -2.80573 0
M  V30 8115 C 823.85 5.7325 -2.11726 0
M  V30 8116 C 824.848 6.13572 -3.00032 0
M  V30 8117 O 824.536 6.93691 -4.06261 0
M  V30 8118 H 824.268 0.675679 -0.0208193 0
M  V30 8119 H 826.822 1.9282 -0.707789 0
M  V30 8120 H 825.052 3.69634 1.13612 0
M  V30 8121 H 826.741 3.97467 0.823089 0
M  V30 8122 H 827.507 4.58388 -1.58446 0
M  V30 8123 H 823.386 4.59605 -0.358308 0
M  V30 8124 H 826.93 6.03719 -3.49527 0
M  V30 8125 H 822.827 6.0462 -2.26065 0
M  V30 8126 H 823.595 7.12011 -4.03711 0
M  V30 8127 N 826.258 0.243083 1.55714 0
M  V30 8128 C 827.506 -0.381964 1.98458 0
M  V30 8129 C 827.827 -1.58745 1.13247 0
M  V30 8130 O 827.097 -1.94723 0.214384 0
M  V30 8131 H 825.677 -0.144114 0.732967 0
M  V30 8132 H 828.339 0.340985 1.91894 0
M  V30 8133 H 827.435 -0.693702 3.04293 0
M  V30 8134 N 827.736 -1.57571 -0.0300757 0
M  V30 8135 C 828.961 -1.93879 -0.736601 0
M  V30 8136 C 829.386 -0.842998 -1.68152 0
M  V30 8137 O 828.744 0.20135 -1.80178 0
M  V30 8138 C 828.792 -3.29247 -1.47066 0
M  V30 8139 O 827.896 -3.21426 -2.58378 0
M  V30 8140 H 827.237 -0.633735 -0.198181 0
M  V30 8141 H 829.767 -2.04595 0.0141485 0
M  V30 8142 H 829.777 -3.64113 -1.84081 0
M  V30 8143 H 828.452 -4.08565 -0.77764 0
M  V30 8144 H 827.029 -2.98189 -2.23914 0
M  V30 8145 N 829.214 0.302327 -1.54673 0
M  V30 8146 C 830.462 1.03565 -1.73547 0
M  V30 8147 C 830.783 1.87843 -0.523448 0
M  V30 8148 O 830.053 1.90367 0.462295 0
M  V30 8149 H 828.633 0.385358 -0.639928 0
M  V30 8150 H 831.295 0.333632 -1.92023 0
M  V30 8151 H 830.391 1.68952 -2.62415 0
M  V30 8152 N 830.692 1.47107 0.565454 0
M  V30 8153 C 831.94 1.53005 1.32038 0
M  V30 8154 C 832.261 0.190453 1.94068 0
M  V30 8155 O 831.531 -0.784783 1.79494 0
M  V30 8156 H 830.111 0.563578 0.490294 0
M  V30 8157 H 832.773 1.83351 0.660928 0
M  V30 8158 H 831.869 2.29215 2.11818 0
M  V30 8159 N 832.17 -0.811516 1.35101 0
M  V30 8160 C 833.418 -1.56525 1.27845 0
M  V30 8161 C 833.739 -1.94435 -0.14829 0
M  V30 8162 O 833.009 -1.63203 -1.08359 0
M  V30 8163 H 831.589 -0.580433 0.47022 0
M  V30 8164 H 834.251 -0.968277 1.69146 0
M  V30 8165 H 833.347 -2.48291 1.89097 0
M  V30 8166 N 833.648 -1.19017 -1.03309 0
M  V30 8167 C 834.873 -1.01598 -1.80811 0
M  V30 8168 C 835.298 0.430773 -1.83101 0
M  V30 8169 O 834.656 1.30946 -1.25391 0
M  V30 8170 C 834.704 -1.5845 -3.23923 0
M  V30 8171 O 833.808 -0.810972 -4.04348 0
M  V30 8172 H 833.149 -0.359398 -0.558327 0
M  V30 8173 H 835.679 -1.57945 -1.30055 0
M  V30 8174 H 835.689 -1.61486 -3.74682 0
M  V30 8175 H 834.364 -2.63752 -3.21571 0
M  V30 8176 H 832.941 -0.85353 -3.63 0
M  V30 8177 N 835.127 1.22348 -0.993418 0
M  V30 8178 C 836.357 1.94842 -0.687023 0
M  V30 8179 C 836.765 1.73594 0.752445 0
M  V30 8180 O 836.108 1.03238 1.51946 0
M  V30 8181 C 836.17 3.47694 -0.913754 0
M  V30 8182 C 835.834 3.92678 -2.33781 0
M  V30 8183 C 836.831 4.0031 -3.31734 0
M  V30 8184 C 834.516 4.25311 -2.67237 0
M  V30 8185 C 836.51 4.39951 -4.61218 0
M  V30 8186 C 834.197 4.64631 -3.9694 0
M  V30 8187 C 835.195 4.71919 -4.93742 0
M  V30 8188 O 834.883 5.10349 -6.21127 0
M  V30 8189 H 834.615 0.626771 -0.253247 0
M  V30 8190 H 837.169 1.56436 -1.33105 0
M  V30 8191 H 835.399 3.86115 -0.212552 0
M  V30 8192 H 837.088 4.01403 -0.602528 0
M  V30 8193 H 837.854 3.75288 -3.07219 0
M  V30 8194 H 833.733 4.18842 -1.92594 0
M  V30 8195 H 837.277 4.45555 -5.36774 0
M  V30 8196 H 833.174 4.89104 -4.21245 0
M  V30 8197 H 833.942 5.2842 -6.25072 0
M  V30 8198 N 836.605 0.766683 1.37694 0
M  V30 8199 C 837.853 0.328065 1.9942 0
M  V30 8200 C 838.174 -1.09775 1.61166 0
M  V30 8201 O 837.444 -1.75288 0.874686 0
M  V30 8202 H 836.024 0.11831 0.737572 0
M  V30 8203 H 838.686 0.983686 1.68255 0
M  V30 8204 H 837.782 0.401647 3.09505 0
M  V30 8205 N 838.083 -1.48885 0.516809 0
M  V30 8206 C 839.308 -2.0739 -0.0205201 0
M  V30 8207 C 839.733 -1.37259 -1.28614 0
M  V30 8208 O 839.091 -0.434304 -1.76021 0
M  V30 8209 C 839.139 -3.59793 -0.24104 0
M  V30 8210 O 838.243 -3.90957 -1.31251 0
M  V30 8211 H 837.584 -0.663167 0.0332564 0
M  V30 8212 H 840.114 -1.91477 0.720956 0
M  V30 8213 H 840.124 -4.0531 -0.467737 0
M  V30 8214 H 838.799 -4.10244 0.68356 0
M  V30 8215 H 837.376 -3.57234 -1.06951 0
M  V30 8216 N 839.561 -0.251338 -1.55583 0
M  V30 8217 C 840.809 0.371434 -1.98657 0
M  V30 8218 C 841.13 1.58143 -1.14087 0
M  V30 8219 O 840.4 1.94607 -0.224708 0
M  V30 8220 H 838.98 0.140225 -0.733721 0
M  V30 8221 H 841.642 -0.351157 -1.9171 0
M  V30 8222 H 840.738 0.677554 -3.04657 0
M  V30 8223 N 841.039 1.57585 0.0217189 0
M  V30 8224 C 842.287 1.89231 0.709641 0
M  V30 8225 C 842.608 0.849964 1.75501 0
M  V30 8226 O 841.878 -0.115485 1.95559 0
M  V30 8227 H 840.458 0.69838 0.265092 0
M  V30 8228 H 843.12 1.94895 -0.0140688 0
M  V30 8229 H 842.216 2.88333 1.19459 0
M  V30 8230 N 842.517 -0.29412 1.54831 0
M  V30 8231 C 843.765 -1.02643 1.74094 0
M  V30 8232 C 844.086 -1.87563 0.533402 0
M  V30 8233 O 843.356 -1.9061 -0.452192 0
M  V30 8234 H 841.936 -0.381959 0.641963 0
M  V30 8235 H 844.598 -0.323444 1.92197 0
M  V30 8236 H 843.694 -1.67558 2.63307 0
M  V30 8237 N 843.995 -1.47404 -0.557645 0
M  V30 8238 C 845.243 -1.53703 -1.31224 0
M  V30 8239 C 845.564 -0.200742 -1.93964 0
M  V30 8240 O 844.834 0.775253 -1.79907 0
M  V30 8241 H 843.414 -0.566171 -0.487299 0
M  V30 8242 H 846.076 -1.83699 -0.651195 0
M  V30 8243 H 845.172 -2.30335 -2.10599 0
M  V30 8244 N 845.473 0.80434 -1.35529 0
M  V30 8245 C 846.721 1.55845 -1.28673 0
M  V30 8246 C 847.042 1.94511 0.137976 0
M  V30 8247 O 846.312 1.63775 1.07492 0
M  V30 8248 H 844.892 0.577931 -0.473291 0
M  V30 8249 H 847.554 0.959293 -1.69657 0
M  V30 8250 H 846.65 2.47285 -1.90411 0
M  V30 8251 N 846.951 1.19563 1.02676 0
M  V30 8252 C 848.199 0.997593 1.75763 0
M  V30 8253 C 848.52 -0.47253 1.89188 0
M  V30 8254 O 847.79 -1.34214 1.42701 0
M  V30 8255 H 846.37 0.366128 0.651122 0
M  V30 8256 H 849.032 1.50495 1.23844 0
M  V30 8257 H 848.128 1.44741 2.76508 0
M  V30 8258 N 848.429 -1.21819 0.999893 0
M  V30 8259 C 849.379 -2.21823 0.527104 0
M  V30 8260 C 850.363 -1.55628 -0.408515 0
M  V30 8261 O 851.555 -1.75444 -0.234196 0
M  V30 8262 C 848.684 -3.42972 -0.149986 0
M  V30 8263 C 847.77 -4.16364 0.806349 0
M  V30 8264 N 848.161 -4.66403 1.95708 0
M  V30 8265 C 846.459 -4.41618 0.623672 0
M  V30 8266 C 847.16 -5.22443 2.5579 0
M  V30 8267 N 846.136 -5.11514 1.83995 0
M  V30 8268 H 849.938 -2.58161 1.40464 0
M  V30 8269 H 847.452 -1.37569 0.863054 0
M  V30 8270 H 849.449 -4.13816 -0.50613 0
M  V30 8271 H 848.109 -3.08145 -1.02357 0
M  V30 8272 H 849.12 -4.62142 2.33763 0
M  V30 8273 H 845.797 -4.17005 -0.203257 0
M  V30 8274 H 847.187 -5.7165 3.5308 0
M  V30 8275 N 849.908 -0.773975 -1.37286 0
M  V30 8276 C 851.156 -0.338636 -1.99243 0
M  V30 8277 C 851.477 1.08919 -1.61746 0
M  V30 8278 O 850.747 1.74822 -0.88397 0
M  V30 8279 H 849.327 -0.12222 -0.736934 0
M  V30 8280 H 851.989 -0.992595 -1.67731 0
M  V30 8281 H 851.085 -0.418055 -3.09287 0
M  V30 8282 N 851.386 1.48609 -0.524698 0
M  V30 8283 C 852.611 2.07398 0.00952139 0
M  V30 8284 C 853.036 1.37939 1.27884 0
M  V30 8285 O 852.394 0.443633 1.75788 0
M  V30 8286 C 852.442 3.59916 0.221956 0
M  V30 8287 O 851.546 3.91647 1.29175 0
M  V30 8288 H 850.887 0.662981 -0.0367729 0
M  V30 8289 H 853.417 1.91092 -0.7311 0
M  V30 8290 H 853.427 4.05552 0.446236 0
M  V30 8291 H 852.102 4.09876 -0.705306 0
M  V30 8292 H 850.679 3.57796 1.05055 0
M  V30 8293 N 852.864 0.259585 1.55447 0
M  V30 8294 C 854.094 -0.364863 2.03353 0
M  V30 8295 C 854.502 -1.5116 1.13786 0
M  V30 8296 O 853.845 -1.83109 0.147283 0
M  V30 8297 C 853.907 -0.922587 3.4746 0
M  V30 8298 C 853.571 0.0935207 4.56904 0
M  V30 8299 C 854.568 0.907571 5.11917 0
M  V30 8300 C 852.253 0.223276 5.01804 0
M  V30 8301 C 854.247 1.83771 6.10333 0
M  V30 8302 C 851.934 1.15691 6.00049 0
M  V30 8303 C 852.932 1.96264 6.54194 0
M  V30 8304 O 852.62 2.88052 7.50521 0
M  V30 8305 H 852.352 -0.0893313 0.670072 0
M  V30 8306 H 854.906 0.384821 2.01763 0
M  V30 8307 H 853.136 -1.72206 3.4624 0
M  V30 8308 H 854.825 -1.45846 3.78792 0
M  V30 8309 H 855.591 0.817979 4.78052 0
M  V30 8310 H 851.47 -0.393834 4.59315 0
M  V30 8311 H 855.014 2.46703 6.52521 0
M  V30 8312 H 850.911 1.24738 6.33333 0
M  V30 8313 H 851.679 2.82557 7.68182 0
M  V30 8314 N 854.342 -1.57594 -0.0133615 0
M  V30 8315 C 855.59 -1.89605 -0.699596 0
M  V30 8316 C 855.911 -0.85926 -1.75048 0
M  V30 8317 O 855.181 0.105112 -1.95618 0
M  V30 8318 H 853.761 -0.699776 -0.261385 0
M  V30 8319 H 856.423 -1.94885 0.0244044 0
M  V30 8320 H 855.519 -2.88962 -1.17928 0
M  V30 8321 N 855.82 0.285905 -1.54985 0
M  V30 8322 C 857.045 1.04207 -1.7932 0
M  V30 8323 C 857.47 1.79622 -0.558343 0
M  V30 8324 O 856.828 1.74506 0.491661 0
M  V30 8325 C 856.876 1.98648 -3.0095 0
M  V30 8326 O 855.98 3.07207 -2.75132 0
M  V30 8327 H 855.321 0.298596 -0.593074 0
M  V30 8328 H 857.851 0.318736 -2.02102 0
M  V30 8329 H 857.861 2.4084 -3.29333 0
M  V30 8330 H 856.536 1.43167 -3.90482 0
M  V30 8331 H 855.113 2.69423 -2.57809 0
M  V30 8332 N 857.298 1.47698 0.54982 0
M  V30 8333 C 858.546 1.54397 1.30407 0
M  V30 8334 C 858.867 0.211026 1.93855 0
M  V30 8335 O 858.137 -0.765701 1.80316 0
M  V30 8336 H 856.717 0.568747 0.484289 0
M  V30 8337 H 859.379 1.84042 0.641444 0
M  V30 8338 H 858.475 2.31449 2.09375 0
M  V30 8339 N 858.776 -0.797141 1.35954 0
M  V30 8340 C 860.001 -1.59097 1.33053 0
M  V30 8341 C 860.426 -1.87897 -0.0874592 0
M  V30 8342 O 859.784 -1.47291 -1.05712 0
M  V30 8343 C 859.832 -2.89346 2.152 0
M  V30 8344 O 858.936 -3.826 1.5392 0
M  V30 8345 H 858.277 -0.482895 0.45575 0
M  V30 8346 H 860.807 -0.988633 1.79129 0
M  V30 8347 H 860.817 -3.38686 2.27499 0
M  V30 8348 H 859.492 -2.6771 3.18283 0
M  V30 8349 H 858.069 -3.41174 1.50516 0
M  V30 8350 N 860.254 -1.20106 -1.0204 0
M  V30 8351 C 861.479 -1.0351 -1.79723 0
M  V30 8352 C 861.904 0.411328 -1.83548 0
M  V30 8353 O 861.262 1.29608 -1.26773 0
M  V30 8354 C 861.31 -1.61876 -3.22224 0
M  V30 8355 O 860.414 -0.853813 -4.03465 0
M  V30 8356 H 859.755 -0.365299 -0.554484 0
M  V30 8357 H 862.285 -1.59316 -1.28373 0
M  V30 8358 H 862.295 -1.65451 -3.72948 0
M  V30 8359 H 860.97 -2.67148 -3.18755 0
M  V30 8360 H 859.547 -0.891983 -3.62075 0
M  V30 8361 N 861.732 1.21287 -1.00634 0
M  V30 8362 C 862.957 1.94925 -0.708441 0
M  V30 8363 C 863.382 1.73659 0.722783 0
M  V30 8364 O 862.74 1.02429 1.49593 0
M  V30 8365 C 862.788 3.45377 -1.03667 0
M  V30 8366 O 861.892 4.12153 -0.142661 0
M  V30 8367 H 861.233 0.609338 -0.263824 0
M  V30 8368 H 863.763 1.54008 -1.34695 0
M  V30 8369 H 863.773 3.95954 -0.984086 0
M  V30 8370 H 862.448 3.6018 -2.0795 0
M  V30 8371 H 861.025 3.72048 -0.251888 0
M  V30 8372 N 863.21 0.781244 1.36873 0
M  V30 8373 C 864.458 0.349198 1.9906 0
M  V30 8374 C 864.779 -1.0806 1.62321 0
M  V30 8375 O 864.049 -1.74351 0.893229 0
M  V30 8376 H 862.629 0.126126 0.736275 0
M  V30 8377 H 865.291 1.00148 1.67202 0
M  V30 8378 H 864.387 0.434451 3.09061 0
M  V30 8379 N 864.689 -1.48329 0.532571 0
M  V30 8380 C 865.937 -2.021 -0.000581206 0
M  V30 8381 C 866.258 -1.4117 -1.34522 0
M  V30 8382 O 865.528 -0.578005 -1.87179 0
M  V30 8383 H 864.108 -0.746993 -0.00320281 0
M  V30 8384 H 866.77 -1.82011 0.696991 0
M  V30 8385 H 865.866 -3.11917 -0.106991 0
M  V30 8386 N 866.167 -0.267825 -1.55308 0
M  V30 8387 C 867.397 0.354073 -2.03543 0
M  V30 8388 C 867.805 1.50554 -1.14586 0
M  V30 8389 O 867.148 1.83028 -0.156991 0
M  V30 8390 C 867.21 0.904148 -3.47945 0
M  V30 8391 C 866.874 -0.11775 -4.56848 0
M  V30 8392 C 867.871 -0.934707 -5.11429 0
M  V30 8393 C 865.556 -0.249885 -5.01678 0
M  V30 8394 C 867.55 -1.87005 -6.0935 0
M  V30 8395 C 865.237 -1.18872 -5.99427 0
M  V30 8396 C 866.235 -1.99731 -6.53144 0
M  V30 8397 O 865.923 -2.92028 -7.48983 0
M  V30 8398 H 865.655 0.0857765 -0.670536 0
M  V30 8399 H 868.209 -0.395515 -2.01556 0
M  V30 8400 H 866.439 1.70368 -3.47148 0
M  V30 8401 H 868.128 1.43835 -3.79561 0
M  V30 8402 H 868.894 -0.84332 -4.77612 0
M  V30 8403 H 864.773 0.369469 -4.59517 0
M  V30 8404 H 868.317 -2.5016 -6.51203 0
M  V30 8405 H 864.214 -1.28095 -6.32663 0
M  V30 8406 H 864.982 -2.86627 -7.66673 0
M  V30 8407 N 867.645 1.57599 0.00500368 0
M  V30 8408 C 869.061 1.55463 0.361015 0
M  V30 8409 C 869.261 0.997051 1.75103 0
M  V30 8410 O 868.317 0.628661 2.44549 0
M  V30 8411 C 869.63 2.99734 0.240828 0
M  V30 8412 C 871.178 3.11399 0.316138 0
M  V30 8413 C 871.653 4.57446 0.22513 0
M  V30 8414 N 873.144 4.62334 0.283186 0
M  V30 8415 C 873.879 5.72914 0.23603 0
M  V30 8416 N 873.375 6.92659 0.139762 0
M  V30 8417 N 875.168 5.61364 0.287529 0
M  V30 8418 H 867.319 1.92185 -0.904359 0
M  V30 8419 H 869.582 0.882529 -0.34619 0
M  V30 8420 H 869.288 3.44348 -0.715343 0
M  V30 8421 H 869.162 3.63009 1.02491 0
M  V30 8422 H 871.549 2.66718 1.26275 0
M  V30 8423 H 871.63 2.50911 -0.497725 0
M  V30 8424 H 871.274 5.02801 -0.717917 0
M  V30 8425 H 871.204 5.15874 1.05742 0
M  V30 8426 H 873.695 3.7619 0.359123 0
M  V30 8427 H 874.008 7.72722 0.10954 0
M  V30 8428 H 872.353 6.9492 0.105462 0
M  V30 8429 H 875.544 4.66707 0.360897 0
M  V30 8430 H 875.717 6.47528 0.247313 0
M  V30 8431 N 869.123 -0.277682 1.55134 0
M  V30 8432 C 870.371 -1.00791 1.75173 0
M  V30 8433 C 870.692 -1.86987 0.553266 0
M  V30 8434 O 869.962 -1.91079 -0.43195 0
M  V30 8435 H 868.542 -0.375129 0.645978 0
M  V30 8436 H 871.204 -0.303041 1.9253 0
M  V30 8437 H 870.3 -1.64756 2.6507 0
M  V30 8438 N 870.601 -1.47988 -0.541979 0
M  V30 8439 C 871.849 -1.55086 -1.29587 0
M  V30 8440 C 872.17 -0.221304 -1.9374 0
M  V30 8441 O 871.44 0.756128 -1.80719 0
M  V30 8442 H 870.02 -0.571307 -0.481266 0
M  V30 8443 H 872.682 -1.8438 -0.631675 0
M  V30 8444 H 871.778 -2.32556 -2.08144 0
M  V30 8445 N 872.079 0.78992 -1.36375 0
M  V30 8446 C 873.304 1.58389 -1.33895 0
M  V30 8447 C 873.729 1.8794 0.0774934 0
M  V30 8448 O 873.087 1.4785 1.0493 0
M  V30 8449 C 873.135 2.88201 -2.16732 0
M  V30 8450 O 872.239 3.81778 -1.55946 0
M  V30 8451 H 871.58 0.480471 -0.458305 0
M  V30 8452 H 874.11 0.979119 -1.79651 0
M  V30 8453 H 874.12 3.37475 -2.29292 0
M  V30 8454 H 872.795 2.66019 -3.19698 0
M  V30 8455 H 871.372 3.40371 -1.52323 0
M  V30 8456 N 873.557 1.20646 1.01402 0
M  V30 8457 C 874.805 1.01618 1.74695 0
M  V30 8458 C 875.126 -0.452438 1.89679 0
M  V30 8459 O 874.396 -1.32693 1.44116 0
M  V30 8460 H 872.976 0.373013 0.647202 0
M  V30 8461 H 875.638 1.518 1.22241 0
M  V30 8462 H 874.734 1.47666 2.74957 0
M  V30 8463 N 875.035 -1.20752 1.01276 0
M  V30 8464 C 876.283 -1.89645 0.698505 0
M  V30 8465 C 876.604 -1.78986 -0.773883 0
M  V30 8466 O 875.874 -1.18977 -1.55632 0
M  V30 8467 H 874.454 -0.701992 0.255375 0
M  V30 8468 H 877.116 -1.46668 1.28353 0
M  V30 8469 H 876.212 -2.96364 0.978512 0
M  V30 8470 N 876.513 -0.788492 -1.36457 0
M  V30 8471 C 877.761 -0.359749 -1.98872 0
M  V30 8472 C 878.082 1.07197 -1.62892 0
M  V30 8473 O 877.352 1.73875 -0.902463 0
M  V30 8474 H 875.932 -0.130029 -0.735596 0
M  V30 8475 H 878.594 -1.01033 -1.66668 0
M  V30 8476 H 877.69 -0.450835 -3.08827 0
M  V30 8477 N 877.991 1.48044 -0.54043 0
M  V30 8478 C 879.239 2.02097 -0.0101367 0
M  V30 8479 C 879.56 1.41881 1.33771 0
M  V30 8480 O 878.83 0.587923 1.8687 0
M  V30 8481 H 877.41 0.747 -0.000758716 0
M  V30 8482 H 880.072 1.81639 -0.706634 0
M  V30 8483 H 879.168 3.11969 0.0904474 0
M  V30 8484 N 879.47 0.276058 1.55163 0
M  V30 8485 C 880.718 -0.339782 1.99223 0
M  V30 8486 C 881.039 -1.56307 1.16589 0
M  V30 8487 O 880.309 -1.94225 0.25564 0
M  V30 8488 H 878.889 -0.128534 0.735859 0
M  V30 8489 H 881.551 0.381612 1.91128 0
M  V30 8490 H 880.647 -0.629 3.05696 0
M  V30 8491 N 880.948 -1.576 0.00335426 0
M  V30 8492 C 882.196 -1.90336 -0.679446 0
M  V30 8493 C 882.517 -0.877777 -1.74127 0
M  V30 8494 O 881.787 0.0843585 -1.95718 0
M  V30 8495 H 880.367 -0.702509 -0.253948 0
M  V30 8496 H 883.029 -1.94848 0.0450731 0
M  V30 8497 H 882.125 -2.90197 -1.14857 0
M  V30 8498 N 882.426 0.269451 -1.5528 0
M  V30 8499 C 883.651 1.02299 -1.80415 0
M  V30 8500 C 884.076 1.7902 -0.577363 0
M  V30 8501 O 883.434 1.75018 0.473125 0
M  V30 8502 C 883.482 1.95445 -3.0304 0
M  V30 8503 O 882.586 3.04271 -2.78375 0
M  V30 8504 H 881.927 0.292289 -0.596207 0
M  V30 8505 H 884.457 0.297282 -2.02429 0
M  V30 8506 H 884.467 2.37333 -3.31869 0
M  V30 8507 H 883.142 1.39017 -3.91978 0
M  V30 8508 H 881.719 2.66673 -2.60653 0
M  V30 8509 N 883.904 1.48273 0.534124 0
M  V30 8510 C 885.129 1.59988 1.31979 0
M  V30 8511 C 885.554 0.258824 1.86311 0
M  V30 8512 O 884.912 -0.768885 1.64188 0
M  V30 8513 C 884.96 2.64642 2.44943 0
M  V30 8514 O 884.064 2.21515 3.47858 0
M  V30 8515 H 883.405 0.536625 0.391063 0
M  V30 8516 H 885.935 1.94229 0.643135 0
M  V30 8517 H 885.945 2.85786 2.91187 0
M  V30 8518 H 884.62 3.62004 2.04758 0
M  V30 8519 H 883.197 2.10567 3.0776 0
M  V30 8520 N 885.382 -0.782676 1.36792 0
M  V30 8521 C 886.63 -1.53778 1.31136 0
M  V30 8522 C 886.951 -1.94706 -0.107014 0
M  V30 8523 O 886.221 -1.65465 -1.04872 0
M  V30 8524 H 884.801 -0.570328 0.482426 0
M  V30 8525 H 887.463 -0.932181 1.71162 0
M  V30 8526 H 886.559 -2.44224 1.94321 0
M  V30 8527 N 886.86 -1.21182 -1.00761 0
M  V30 8528 C 888.108 -1.02543 -1.74153 0
M  V30 8529 C 888.429 0.442372 -1.89916 0
M  V30 8530 O 887.699 1.31927 -1.44818 0
M  V30 8531 H 886.279 -0.37644 -0.645214 0
M  V30 8532 H 888.941 -1.52446 -1.21434 0
M  V30 8533 H 888.037 -1.49122 -2.7417 0
M  V30 8534 N 888.338 1.20213 -1.01915 0
M  V30 8535 C 889.754 1.41696 -0.734459 0
M  V30 8536 C 889.954 1.89504 0.684867 0
M  V30 8537 O 889.01 2.06556 1.45227 0
M  V30 8538 C 890.323 2.43644 -1.76233 0
M  V30 8539 C 891.871 2.57406 -1.78076 0
M  V30 8540 C 892.346 3.626 -2.79796 0
M  V30 8541 N 893.837 3.70086 -2.78551 0
M  V30 8542 C 894.572 4.51145 -3.53915 0
M  V30 8543 N 894.068 5.35988 -4.38963 0
M  V30 8544 N 895.861 4.45702 -3.425 0
M  V30 8545 H 888.012 0.874976 -1.93541 0
M  V30 8546 H 890.275 0.446647 -0.836188 0
M  V30 8547 H 889.981 2.15519 -2.77929 0
M  V30 8548 H 889.855 3.42672 -1.57657 0
M  V30 8549 H 892.242 2.8486 -0.770634 0
M  V30 8550 H 892.323 1.58565 -2.00725 0
M  V30 8551 H 891.967 3.35889 -3.80973 0
M  V30 8552 H 891.897 4.61069 -2.54407 0
M  V30 8553 H 894.388 3.09484 -2.1686 0
M  V30 8554 H 894.701 5.94932 -4.9323 0
M  V30 8555 H 893.046 5.35482 -4.4304 0
M  V30 8556 H 896.237 3.78456 -2.75478 0
M  V30 8557 H 896.41 5.08637 -4.01487 0
M  V30 8558 N 889.816 0.795718 1.36037 0
M  V30 8559 C 891.064 0.370291 1.98679 0
M  V30 8560 C 891.385 -1.06332 1.63458 0
M  V30 8561 O 890.655 -1.73394 0.911671 0
M  V30 8562 H 889.235 0.133928 0.734896 0
M  V30 8563 H 891.897 1.01915 1.6613 0
M  V30 8564 H 890.993 0.467207 3.08583 0
M  V30 8565 N 891.294 -1.47756 0.548274 0
M  V30 8566 C 892.519 -2.07387 0.023475 0
M  V30 8567 C 892.944 -1.39956 -1.25674 0
M  V30 8568 O 892.302 -0.471543 -1.7506 0
M  V30 8569 C 892.35 -3.60224 -0.164669 0
M  V30 8570 O 891.454 -3.93653 -1.22928 0
M  V30 8571 H 890.795 -0.662312 0.0473156 0
M  V30 8572 H 893.325 -1.89905 0.761409 0
M  V30 8573 H 893.335 -4.06211 -0.38166 0
M  V30 8574 H 892.01 -4.08702 0.770425 0
M  V30 8575 H 890.587 -3.59422 -0.993495 0
M  V30 8576 N 892.772 -0.284283 -1.55015 0
M  V30 8577 C 894.02 0.329212 -1.99401 0
M  V30 8578 C 894.341 1.55687 -1.17416 0
M  V30 8579 O 893.611 1.94087 -0.265937 0
M  V30 8580 H 892.191 0.12463 -0.73653 0
M  V30 8581 H 894.853 -0.391743 -1.90922 0
M  V30 8582 H 893.949 0.61278 -3.06025 0
M  V30 8583 N 894.251 1.57596 -0.0117121 0
M  V30 8584 C 895.499 1.90694 0.669342 0
M  V30 8585 C 895.82 0.886999 1.73659 0
M  V30 8586 O 895.09 -0.0739779 1.9576 0
M  V30 8587 H 893.67 0.703846 0.250219 0
M  V30 8588 H 896.332 1.94821 -0.0554057 0
M  V30 8589 H 895.428 2.90802 1.13316 0
M  V30 8590 N 895.729 -0.261212 1.5542 0
M  V30 8591 C 896.977 -0.989272 1.76232 0
M  V30 8592 C 897.298 -1.86389 0.573067 0
M  V30 8593 O 896.568 -1.91526 -0.41166 0
M  V30 8594 H 895.148 -0.368256 0.64992 0
M  V30 8595 H 897.81 -0.282603 1.9284 0
M  V30 8596 H 896.906 -1.61935 2.66802 0
M  V30 8597 N 897.207 -1.48554 -0.526253 0
M  V30 8598 C 898.432 -1.60686 -1.31129 0
M  V30 8599 C 898.857 -0.268701 -1.86171 0
M  V30 8600 O 898.215 0.760167 -1.64594 0
M  V30 8601 C 898.263 -2.65938 -2.43536 0
M  V30 8602 O 897.367 -2.23356 -3.46678 0
M  V30 8603 H 896.708 -0.538691 -0.388211 0
M  V30 8604 H 899.238 -1.94567 -0.632826 0
M  V30 8605 H 899.248 -2.87327 -2.89668 0
M  V30 8606 H 897.923 -3.63085 -2.02835 0
M  V30 8607 H 896.5 -2.12196 -3.06639 0
M  V30 8608 N 898.685 0.775411 -1.37205 0
M  V30 8609 C 899.91 1.5696 -1.35567 0
M  V30 8610 C 900.335 1.88012 0.0575554 0
M  V30 8611 O 899.693 1.48954 1.03355 0
M  V30 8612 C 899.741 2.85886 -2.19776 0
M  V30 8613 O 898.845 3.80103 -1.59987 0
M  V30 8614 H 898.186 0.475583 -0.463375 0
M  V30 8615 H 900.716 0.96001 -1.80679 0
M  V30 8616 H 900.726 3.35024 -2.32859 0
M  V30 8617 H 899.401 2.62613 -3.22502 0
M  V30 8618 H 897.978 3.38736 -1.55924 0
M  V30 8619 N 900.163 1.21714 1.00117 0
M  V30 8620 C 901.411 1.03465 1.73607 0
M  V30 8621 C 901.732 -0.432295 1.90148 0
M  V30 8622 O 901.002 -1.31157 1.45515 0
M  V30 8623 H 899.582 0.379857 0.643209 0
M  V30 8624 H 902.244 1.53088 1.20624 0
M  V30 8625 H 901.34 1.50574 2.73375 0
M  V30 8626 N 901.641 -1.19671 1.02551 0
M  V30 8627 C 902.889 -1.88894 0.71858 0
M  V30 8628 C 903.21 -1.79797 -0.754856 0
M  V30 8629 O 902.48 -1.20621 -1.54362 0
M  V30 8630 H 901.06 -0.699244 0.262806 0
M  V30 8631 H 903.722 -1.45298 1.29902 0
M  V30 8632 H 902.818 -2.95309 1.00989 0
M  V30 8633 N 903.119 -0.802921 -1.35613 0
M  V30 8634 C 904.344 -0.392846 -2.03645 0
M  V30 8635 C 904.769 0.987075 -1.6012 0
M  V30 8636 O 904.127 1.63849 -0.776101 0
M  V30 8637 C 904.175 -0.480208 -3.57388 0
M  V30 8638 O 903.279 0.507751 -4.09262 0
M  V30 8639 H 902.62 -0.16464 -0.643265 0
M  V30 8640 H 905.15 -1.08779 -1.73287 0
M  V30 8641 H 905.16 -0.348683 -4.06507 0
M  V30 8642 H 903.835 -1.48675 -3.88418 0
M  V30 8643 H 902.412 0.336769 -3.71376 0
M  V30 8644 N 904.597 1.47463 -0.556102 0
M  V30 8645 C 905.846 2.01678 -0.029492 0
M  V30 8646 C 906.159 1.436 1.32809 0
M  V30 8647 O 907.365 1.89472 1.94455 0
M  V30 8648 C 905.821 3.599 -0.00223937 0
M  V30 8649 C 905.429 4.26969 -1.35651 0
M  V30 8650 C 907.173 4.2187 0.471822 0
M  V30 8651 C 905.08 5.77194 -1.28843 0
M  V30 8652 H 904.01 0.753965 -0.00725504 0
M  V30 8653 H 906.661 1.69467 -0.703789 0
M  V30 8654 H 905.043 3.89068 0.737682 0
M  V30 8655 H 906.217 4.09444 -2.11406 0
M  V30 8656 H 904.532 3.76983 -1.76842 0
M  V30 8657 H 907.129 5.31955 0.541139 0
M  V30 8658 H 907.472 3.88968 1.48356 0
M  V30 8659 H 908.005 3.97228 -0.213207 0
M  V30 8660 H 904.744 6.14713 -2.27613 0
M  V30 8661 H 904.264 5.9706 -0.572668 0
M  V30 8662 H 905.943 6.3938 -0.990031 0
M  V30 8663 N 906.075 0.2925 1.54862 0
M  V30 8664 C 907.323 -0.318633 1.99572 0
M  V30 8665 C 907.644 -1.55062 1.1824 0
M  V30 8666 O 906.914 -1.93943 0.276226 0
M  V30 8667 H 905.494 -0.120722 0.737181 0
M  V30 8668 H 908.156 0.401862 1.90712 0
M  V30 8669 H 907.252 -0.596542 3.06346 0
M  V30 8670 N 907.553 -1.57587 0.0200696 0
M  V30 8671 C 908.801 -1.91046 -0.65922 0
M  V30 8672 C 909.122 -0.896197 -1.73186 0
M  V30 8673 O 908.392 0.0635952 -1.95797 0
M  V30 8674 H 906.972 -0.705163 -0.246483 0
M  V30 8675 H 909.634 -1.94789 0.0657368 0
M  V30 8676 H 908.73 -2.91399 -1.11773 0
M  V30 8677 N 909.032 0.252966 -1.55557 0
M  V30 8678 C 910.448 0.60118 -1.47844 0
M  V30 8679 C 910.648 1.88612 -0.709055 0
M  V30 8680 O 909.704 2.51395 -0.235964 0
M  V30 8681 C 911.017 0.709539 -2.92209 0
M  V30 8682 C 912.565 0.802269 -3.02544 0
M  V30 8683 C 913.04 0.94224 -4.48203 0
M  V30 8684 N 914.531 1.00726 -4.52116 0
M  V30 8685 C 915.266 1.13472 -5.6206 0
M  V30 8686 N 914.762 1.22811 -6.81828 0
M  V30 8687 N 916.555 1.1674 -5.49844 0
M  V30 8688 H 908.706 -0.590635 -2.04023 0
M  V30 8689 H 910.969 -0.202986 -0.926013 0
M  V30 8690 H 910.675 -0.164505 -3.51315 0
M  V30 8691 H 910.549 1.58343 -3.42356 0
M  V30 8692 H 912.936 1.66677 -2.43522 0
M  V30 8693 H 913.017 -0.0966469 -2.55617 0
M  V30 8694 H 912.661 0.0823209 -5.07833 0
M  V30 8695 H 912.591 1.85611 -4.92805 0
M  V30 8696 H 915.082 0.946684 -3.6585 0
M  V30 8697 H 915.395 1.32426 -7.61369 0
M  V30 8698 H 913.74 1.19779 -6.84601 0
M  V30 8699 H 916.931 1.09089 -4.55211 0
M  V30 8700 H 917.104 1.26329 -6.35567 0
M  V30 8701 N 910.51 1.48831 0.518367 0
M  V30 8702 C 911.758 1.57128 1.27103 0
M  V30 8703 C 912.079 0.252098 1.93364 0
M  V30 8704 O 911.349 -0.727281 1.819 0
M  V30 8705 H 909.929 0.578891 0.472116 0
M  V30 8706 H 912.591 1.85361 0.602262 0
M  V30 8707 H 911.687 2.35838 2.04418 0
M  V30 8708 N 911.988 -0.768124 1.37614 0
M  V30 8709 C 913.213 -1.56239 1.36397 0
M  V30 8710 C 913.638 -1.8804 -0.0475839 0
M  V30 8711 O 912.996 -1.495 -1.02564 0
M  V30 8712 C 913.044 -2.84716 2.21289 0
M  V30 8713 O 912.148 -3.79249 1.62001 0
M  V30 8714 H 911.489 -0.473119 0.465891 0
M  V30 8715 H 914.019 -0.950415 1.81186 0
M  V30 8716 H 914.029 -3.33784 2.34632 0
M  V30 8717 H 912.704 -2.60899 3.2389 0
M  V30 8718 H 911.281 -3.37904 1.57719 0
M  V30 8719 N 913.466 -1.22244 -0.994698 0
M  V30 8720 C 914.691 -1.07299 -1.77487 0
M  V30 8721 C 915.116 0.372302 -1.84379 0
M  V30 8722 O 914.474 1.2689 -1.29494 0
M  V30 8723 C 914.522 -1.68675 -3.18718 0
M  V30 8724 O 913.626 -0.939202 -4.01563 0
M  V30 8725 H 912.967 -0.376979 -0.546611 0
M  V30 8726 H 915.497 -1.62003 -1.24965 0
M  V30 8727 H 915.507 -1.73324 -3.69354 0
M  V30 8728 H 914.182 -2.73849 -3.13017 0
M  V30 8729 H 912.759 -0.968583 -3.60101 0
M  V30 8730 N 914.944 1.19125 -1.03184 0
M  V30 8731 C 916.169 1.93379 -0.749628 0
M  V30 8732 C 916.594 1.75153 0.685785 0
M  V30 8733 O 915.952 1.05579 1.47386 0
M  V30 8734 C 916 3.43101 -1.1097 0
M  V30 8735 O 915.104 4.11758 -0.230053 0
M  V30 8736 H 914.445 0.603605 -0.276689 0
M  V30 8737 H 916.975 1.51116 -1.37931 0
M  V30 8738 H 916.985 3.93778 -1.06785 0
M  V30 8739 H 915.66 3.55688 -2.15544 0
M  V30 8740 H 914.237 3.7143 -0.330748 0
M  V30 8741 N 916.422 0.810101 1.35185 0
M  V30 8742 C 917.67 0.391343 1.98275 0
M  V30 8743 C 917.991 -1.04592 1.64577 0
M  V30 8744 O 917.261 -1.72417 0.93001 0
M  V30 8745 H 915.841 0.141715 0.733434 0
M  V30 8746 H 918.503 1.03672 1.6504 0
M  V30 8747 H 917.599 0.49991 3.0807 0
M  V30 8748 N 917.9 -1.47166 0.563914 0
M  V30 8749 C 919.148 -2.02056 0.0422873 0
M  V30 8750 C 919.469 -1.43992 -1.31497 0
M  V30 8751 O 918.739 -0.617578 -1.85911 0
M  V30 8752 H 917.319 -0.746893 0.0126427 0
M  V30 8753 H 919.981 -1.80492 0.735441 0
M  V30 8754 H 919.077 -3.12073 -0.0408044 0
M  V30 8755 N 919.378 -0.300708 -1.54705 0
M  V30 8756 C 920.624 0.309111 -2.0043 0
M  V30 8757 C 920.957 1.53562 -1.1888 0
M  V30 8758 O 920.232 1.92683 -0.265205 0
M  V30 8759 C 920.515 0.665995 -3.53888 0
M  V30 8760 C 920.368 -0.56963 -4.46178 0
M  V30 8761 C 921.687 1.49262 -4.14016 0
M  V30 8762 H 918.806 0.110878 -0.728612 0
M  V30 8763 H 921.448 -0.412748 -1.85463 0
M  V30 8764 H 919.598 1.281 -3.66773 0
M  V30 8765 H 921.27 -1.20811 -4.45199 0
M  V30 8766 H 919.513 -1.20292 -4.16788 0
M  V30 8767 H 920.184 -0.275785 -5.51311 0
M  V30 8768 H 922.66 0.972979 -4.04564 0
M  V30 8769 H 921.536 1.71111 -5.21548 0
M  V30 8770 H 921.797 2.48174 -3.65872 0
M  V30 8771 N 920.856 1.57574 -0.0284266 0
M  V30 8772 C 921.803 2.10176 0.953658 0
M  V30 8773 C 922.773 1.00367 1.32347 0
M  V30 8774 O 923.958 1.27783 1.4169 0
M  V30 8775 C 921.098 2.63287 2.231 0
M  V30 8776 C 920.211 3.87102 1.91771 0
M  V30 8777 C 919.346 4.28609 3.13795 0
M  V30 8778 C 918.385 5.45184 2.78282 0
M  V30 8779 N 917.522 5.81851 3.92929 0
M  V30 8780 H 922.362 2.93806 0.498176 0
M  V30 8781 H 919.899 1.45222 0.234302 0
M  V30 8782 H 921.857 2.9217 2.97813 0
M  V30 8783 H 920.487 1.82489 2.66266 0
M  V30 8784 H 919.539 3.64952 1.07303 0
M  V30 8785 H 920.851 4.71892 1.61615 0
M  V30 8786 H 920.005 4.58925 3.96829 0
M  V30 8787 H 918.744 3.42585 3.47112 0
M  V30 8788 H 917.749 5.14563 1.93661 0
M  V30 8789 H 918.974 6.32907 2.46182 0
M  V30 8790 H 916.92 4.98782 4.2609 0
M  V30 8791 H 916.837 6.6128 3.66395 0
M  V30 8792 H 918.105 6.16772 4.76669 0
M  V30 8793 N 922.334 -0.244713 1.55689 0
M  V30 8794 C 923.559 -0.994157 1.8202 0
M  V30 8795 C 923.984 -1.78079 0.60577 0
M  V30 8796 O 923.342 -1.75748 -0.445221 0
M  V30 8797 C 923.39 -1.90599 3.06111 0
M  V30 8798 O 922.494 -2.99804 2.8318 0
M  V30 8799 H 921.835 -0.282767 0.600782 0
M  V30 8800 H 924.365 -0.26504 2.02876 0
M  V30 8801 H 924.375 -2.32023 3.35603 0
M  V30 8802 H 923.05 -1.32763 3.9414 0
M  V30 8803 H 921.627 -2.62493 2.64862 0
M  V30 8804 N 923.813 -1.49104 -0.510467 0
M  V30 8805 C 925.038 -1.62068 -1.29417 0
M  V30 8806 C 925.463 -0.288432 -1.85875 0
M  V30 8807 O 924.821 0.742667 -1.65391 0
M  V30 8808 C 924.869 -2.68506 -2.40701 0
M  V30 8809 O 923.973 -2.27021 -3.4429 0
M  V30 8810 H 923.314 -0.542778 -0.382476 0
M  V30 8811 H 925.844 -1.95228 -0.612154 0
M  V30 8812 H 925.854 -2.90383 -2.86604 0
M  V30 8813 H 924.529 -3.65216 -1.98973 0
M  V30 8814 H 923.106 -2.15436 -3.04371 0
M  V30 8815 N 925.291 0.760815 -1.38019 0
M  V30 8816 C 926.539 1.51673 -1.33566 0
M  V30 8817 C 926.86 1.94852 0.076024 0
M  V30 8818 O 926.13 1.67112 1.02227 0
M  V30 8819 H 924.71 0.562581 -0.491438 0
M  V30 8820 H 927.372 0.904832 -1.72623 0
M  V30 8821 H 926.468 2.41102 -1.98182 0
M  V30 8822 N 926.769 1.22769 0.988202 0
M  V30 8823 C 928.017 1.05301 1.725 0
M  V30 8824 C 928.338 -0.412103 1.90596 0
M  V30 8825 O 927.608 -1.29606 1.46898 0
M  V30 8826 H 926.188 0.386658 0.639144 0
M  V30 8827 H 928.85 1.54359 1.18993 0
M  V30 8828 H 927.946 1.53465 2.71763 0
M  V30 8829 N 928.247 -1.18576 1.03814 0
M  V30 8830 C 929.472 -1.92978 0.759873 0
M  V30 8831 C 929.897 -1.75514 -0.676486 0
M  V30 8832 O 929.255 -1.06359 -1.46824 0
M  V30 8833 C 929.303 -3.42507 1.12788 0
M  V30 8834 O 928.407 -4.1163 0.251886 0
M  V30 8835 H 927.748 -0.602129 0.279886 0
M  V30 8836 H 930.278 -1.50383 1.3873 0
M  V30 8837 H 930.288 -3.93206 1.08872 0
M  V30 8838 H 928.963 -3.5454 2.17427 0
M  V30 8839 H 927.54 -3.7125 0.350441 0
M  V30 8840 N 929.725 -0.817259 -1.34754 0
M  V30 8841 C 930.95 -0.414423 -2.03217 0
M  V30 8842 C 931.375 0.970037 -1.61158 0
M  V30 8843 O 930.733 1.63016 -0.793436 0
M  V30 8844 C 930.781 -0.518087 -3.56859 0
M  V30 8845 O 929.885 0.464314 -4.09778 0
M  V30 8846 H 929.226 -0.171454 -0.641482 0
M  V30 8847 H 931.756 -1.10611 -1.72123 0
M  V30 8848 H 931.766 -0.391779 -4.06115 0
M  V30 8849 H 930.441 -1.52786 -3.86819 0
M  V30 8850 H 929.018 0.297361 -3.71712 0
M  V30 8851 N 931.203 1.46865 -0.571711 0
M  V30 8852 C 932.428 2.07323 -0.0564655 0
M  V30 8853 C 932.853 1.41938 1.23431 0
M  V30 8854 O 932.211 0.499334 1.74288 0
M  V30 8855 C 932.259 3.6044 0.107339 0
M  V30 8856 O 931.363 3.95558 1.1665 0
M  V30 8857 H 930.704 0.661475 -0.0578465 0
M  V30 8858 H 933.234 1.88669 -0.791524 0
M  V30 8859 H 933.244 4.06767 0.316987 0
M  V30 8860 H 931.919 4.07425 -0.835348 0
M  V30 8861 H 930.496 3.60957 0.936189 0
M  V30 8862 N 932.681 0.308908 1.54543 0
M  V30 8863 C 933.927 -0.298478 2.00592 0
M  V30 8864 C 934.26 -1.52929 1.19692 0
M  V30 8865 O 933.535 -1.9254 0.27542 0
M  V30 8866 C 933.818 -0.647218 3.54236 0
M  V30 8867 C 933.671 0.593284 4.4587 0
M  V30 8868 C 934.99 -1.47064 4.14801 0
M  V30 8869 H 932.109 -0.107012 0.72919 0
M  V30 8870 H 934.751 0.422578 1.85241 0
M  V30 8871 H 932.901 -1.26153 3.67447 0
M  V30 8872 H 934.573 1.2317 4.44552 0
M  V30 8873 H 932.816 1.22501 4.16144 0
M  V30 8874 H 933.487 0.305018 5.51157 0
M  V30 8875 H 935.963 -0.951511 4.05075 0
M  V30 8876 H 934.839 -1.68343 5.22448 0
M  V30 8877 H 935.1 -2.4623 3.67183 0
M  V30 8878 N 934.159 -1.57557 0.0367827 0
M  V30 8879 C 935.106 -2.10679 -0.942499 0
M  V30 8880 C 936.076 -1.01068 -1.31812 0
M  V30 8881 O 937.261 -1.28533 -1.41011 0
M  V30 8882 C 934.401 -2.64467 -2.21701 0
M  V30 8883 C 933.514 -3.88114 -1.89715 0
M  V30 8884 C 932.649 -4.30268 -3.11518 0
M  V30 8885 C 931.688 -5.46652 -2.75387 0
M  V30 8886 N 930.825 -5.83927 -3.89838 0
M  V30 8887 H 935.665 -2.94066 -0.482588 0
M  V30 8888 H 933.202 -1.45344 -0.226597 0
M  V30 8889 H 935.16 -2.93745 -2.96259 0
M  V30 8890 H 933.79 -1.83898 -2.65295 0
M  V30 8891 H 932.842 -3.65516 -1.05366 0
M  V30 8892 H 934.154 -4.72743 -1.5911 0
M  V30 8893 H 933.308 -4.61023 -3.94389 0
M  V30 8894 H 932.047 -3.44421 -3.4529 0
M  V30 8895 H 931.052 -5.15583 -1.90929 0
M  V30 8896 H 932.277 -6.34204 -2.42822 0
M  V30 8897 H 930.223 -5.01035 -4.23438 0
M  V30 8898 H 930.14 -6.63214 -3.62883 0
M  V30 8899 H 931.408 -6.19291 -4.73391 0
M  V30 8900 N 935.637 0.236453 -1.55816 0
M  V30 8901 C 936.884 0.963012 -1.78136 0
M  V30 8902 C 937.212 1.84918 -0.602952 0
M  V30 8903 O 936.467 1.91285 0.413325 0
M  V30 8904 C 936.766 1.84549 -3.06066 0
M  V30 8905 C 936.432 1.11381 -4.36927 0
M  V30 8906 C 935.094 0.911635 -4.72486 0
M  V30 8907 C 937.446 0.596 -5.17781 0
M  V30 8908 C 934.774 0.179515 -5.86425 0
M  V30 8909 C 937.126 -0.122702 -6.32481 0
M  V30 8910 C 935.79 -0.336263 -6.66652 0
M  V30 8911 H 935.06 0.352391 -0.651845 0
M  V30 8912 H 937.707 0.232295 -1.90086 0
M  V30 8913 H 936.012 2.6436 -2.89173 0
M  V30 8914 H 937.709 2.40953 -3.20535 0
M  V30 8915 H 934.299 1.28134 -4.08998 0
M  V30 8916 H 938.483 0.73971 -4.90757 0
M  V30 8917 H 933.739 0.00368224 -6.114 0
M  V30 8918 H 937.913 -0.531516 -6.94369 0
M  V30 8919 H 935.54 -0.905507 -7.54788 0
M  V30 8920 N 937.115 1.49373 0.502552 0
M  V30 8921 C 938.361 1.59016 1.25864 0
M  V30 8922 C 938.694 0.27532 1.92238 0
M  V30 8923 O 937.969 -0.720988 1.80643 0
M  V30 8924 C 938.252 2.74828 2.32683 0
M  V30 8925 C 938.105 4.16102 1.7082 0
M  V30 8926 C 939.424 2.86288 3.34256 0
M  V30 8927 H 936.543 0.578798 0.456248 0
M  V30 8928 H 939.185 1.81651 0.557032 0
M  V30 8929 H 937.335 2.5566 2.92524 0
M  V30 8930 H 939.007 4.46782 1.14818 0
M  V30 8931 H 937.25 4.21822 1.01238 0
M  V30 8932 H 937.921 4.93006 2.48292 0
M  V30 8933 H 940.397 3.03733 2.84404 0
M  V30 8934 H 939.273 3.69001 4.06362 0
M  V30 8935 H 939.534 1.95576 3.96488 0
M  V30 8936 N 938.594 -0.753485 1.38421 0
M  V30 8937 C 939.819 -1.54783 1.38047 0
M  V30 8938 C 940.244 -1.8808 -0.0276371 0
M  V30 8939 O 939.602 -1.5058 -1.00973 0
M  V30 8940 C 939.65 -2.82353 2.24297 0
M  V30 8941 O 938.754 -3.77509 1.66014 0
M  V30 8942 H 938.095 -0.468151 0.470883 0
M  V30 8943 H 940.625 -0.931144 1.82184 0
M  V30 8944 H 940.635 -3.31277 2.38159 0
M  V30 8945 H 939.31 -2.57449 3.26639 0
M  V30 8946 H 937.887 -3.36212 1.61294 0
M  V30 8947 N 940.072 -1.23292 -0.981677 0
M  V30 8948 C 941.3 -1.09088 -1.75805 0
M  V30 8949 C 941.715 0.357746 -1.8538 0
M  V30 8950 O 941.072 1.24751 -1.33205 0
M  V30 8951 C 941.123 -1.70885 -3.1856 0
M  V30 8952 O 940.844 -3.10082 -3.09484 0
M  V30 8953 C 942.345 -1.62106 -4.12597 0
M  V30 8954 H 939.565 -0.38184 -0.55176 0
M  V30 8955 H 942.109 -1.63116 -1.23342 0
M  V30 8956 H 940.264 -1.20893 -3.68054 0
M  V30 8957 H 940.678 -3.40039 -3.99342 0
M  V30 8958 H 942.152 -2.10049 -5.10474 0
M  V30 8959 H 942.629 -0.579642 -4.35358 0
M  V30 8960 H 943.235 -2.11457 -3.69007 0
M  V30 8961 N 941.55 1.18024 -1.04442 0
M  V30 8962 C 942.778 1.92032 -0.770161 0
M  V30 8963 C 943.193 1.76391 0.673181 0
M  V30 8964 O 942.55 1.09604 1.45922 0
M  V30 8965 C 942.601 3.43328 -1.13173 0
M  V30 8966 O 942.322 3.5848 -2.51841 0
M  V30 8967 C 943.823 4.34427 -0.882523 0
M  V30 8968 H 941.043 0.609518 -0.280586 0
M  V30 8969 H 943.587 1.49711 -1.39308 0
M  V30 8970 H 941.742 3.83423 -0.553704 0
M  V30 8971 H 942.156 4.52166 -2.65794 0
M  V30 8972 H 943.63 5.39123 -1.18533 0
M  V30 8973 H 944.107 4.3882 0.18257 0
M  V30 8974 H 944.713 4.00035 -1.44403 0
M  V30 8975 N 943.028 0.824394 1.34319 0
M  V30 8976 C 944.258 0.425576 2.02169 0
M  V30 8977 C 944.666 -0.973596 1.62227 0
M  V30 8978 O 944.009 -1.64173 0.824199 0
M  V30 8979 C 944.071 0.449902 3.56674 0
M  V30 8980 C 943.735 1.80266 4.19944 0
M  V30 8981 C 944.732 2.76373 4.40357 0
M  V30 8982 C 942.417 2.09155 4.56683 0
M  V30 8983 C 944.411 3.9954 4.96635 0
M  V30 8984 C 942.098 3.32581 5.12672 0
M  V30 8985 C 943.096 4.27591 5.32592 0
M  V30 8986 O 942.784 5.48837 5.87395 0
M  V30 8987 H 942.516 0.168866 0.654569 0
M  V30 8988 H 945.07 1.11441 1.7254 0
M  V30 8989 H 943.3 -0.295631 3.85568 0
M  V30 8990 H 944.989 0.0709302 4.05838 0
M  V30 8991 H 945.755 2.55351 4.12336 0
M  V30 8992 H 941.634 1.36004 4.40481 0
M  V30 8993 H 945.178 4.73709 5.12099 0
M  V30 8994 H 941.075 3.53466 5.40122 0
M  V30 8995 H 941.843 5.50377 6.05828 0
M  V30 8996 N 944.506 -1.46559 0.579492 0
M  V30 8997 C 945.731 -2.0729 0.0674595 0
M  V30 8998 C 946.156 -1.4259 -1.22677 0
M  V30 8999 O 945.514 -0.50857 -1.74021 0
M  V30 9000 C 945.562 -3.60492 -0.0882227 0
M  V30 9001 O 944.666 -3.96172 -1.14551 0
M  V30 9002 H 944.007 -0.661159 0.0613536 0
M  V30 9003 H 946.537 -1.88247 0.801519 0
M  V30 9004 H 946.547 -4.06929 -0.295411 0
M  V30 9005 H 945.222 -4.06976 0.856943 0
M  V30 9006 H 943.799 -3.61448 -0.917033 0
M  V30 9007 N 945.984 -0.3171 -1.54377 0
M  V30 9008 C 947.232 0.286842 -2.00054 0
M  V30 9009 C 947.553 1.53161 -1.20692 0
M  V30 9010 O 946.823 1.93479 -0.307045 0
M  V30 9011 H 945.403 0.108979 -0.739008 0
M  V30 9012 H 948.065 -0.432152 -1.90049 0
M  V30 9013 H 947.161 0.547729 -3.07256 0
M  V30 9014 N 947.462 1.57535 -0.0451378 0
M  V30 9015 C 948.708 1.92736 0.630921 0
M  V30 9016 C 949.041 0.923265 1.70849 0
M  V30 9017 O 948.316 -0.0516512 1.94431 0
M  V30 9018 C 948.599 3.38348 1.23259 0
M  V30 9019 C 948.452 4.49503 0.16349 0
M  V30 9020 C 949.771 3.84233 2.14599 0
M  V30 9021 H 946.89 0.700884 0.227883 0
M  V30 9022 H 949.532 1.89706 -0.10567 0
M  V30 9023 H 947.682 3.41061 1.86037 0
M  V30 9024 H 949.354 4.58919 -0.46808 0
M  V30 9025 H 947.597 4.30802 -0.509166 0
M  V30 9026 H 948.268 5.48457 0.624382 0
M  V30 9027 H 950.744 3.83358 1.6179 0
M  V30 9028 H 949.62 4.86781 2.53644 0
M  V30 9029 H 949.881 3.20646 3.04366 0
M  V30 9030 N 948.94 -0.228186 1.55939 0
M  V30 9031 C 950.168 -0.970618 1.8272 0
M  V30 9032 C 950.583 -1.78212 0.623385 0
M  V30 9033 O 949.94 -1.77879 -0.408063 0
M  V30 9034 C 949.991 -1.89352 3.07942 0
M  V30 9035 O 949.712 -1.11483 4.23678 0
M  V30 9036 C 951.213 -2.75039 3.47661 0
M  V30 9037 H 948.433 -0.284772 0.607574 0
M  V30 9038 H 950.977 -0.245419 2.03022 0
M  V30 9039 H 949.132 -2.57275 2.89635 0
M  V30 9040 H 949.546 -1.74073 4.94772 0
M  V30 9041 H 951.02 -3.35511 4.38334 0
M  V30 9042 H 951.497 -3.471 2.69106 0
M  V30 9043 H 952.103 -2.1254 3.68384 0
M  V30 9044 N 950.418 -1.49637 -0.494624 0
M  V30 9045 C 951.834 -1.36541 -0.826361 0
M  V30 9046 C 952.034 -0.403386 -1.97421 0
M  V30 9047 O 951.09 0.162614 -2.51976 0
M  V30 9048 C 952.403 -2.77401 -1.16057 0
M  V30 9049 C 953.951 -2.86148 -1.26841 0
M  V30 9050 C 954.426 -4.27789 -1.63587 0
M  V30 9051 N 955.917 -4.3063 -1.70624 0
M  V30 9052 C 956.652 -5.37198 -2.00514 0
M  V30 9053 N 956.148 -6.54004 -2.28584 0
M  V30 9054 N 957.941 -5.2462 -2.01818 0
M  V30 9055 H 950.092 -2.10776 0.26219 0
M  V30 9056 H 952.355 -0.946419 0.0547235 0
M  V30 9057 H 952.061 -3.49526 -0.390434 0
M  V30 9058 H 951.935 -3.1317 -2.10249 0
M  V30 9059 H 954.322 -2.14256 -2.02925 0
M  V30 9060 H 954.403 -2.53953 -0.30684 0
M  V30 9061 H 954.047 -5.00209 -0.880507 0
M  V30 9062 H 953.977 -4.57453 -2.60854 0
M  V30 9063 H 956.468 -3.46393 -1.51065 0
M  V30 9064 H 956.781 -7.31041 -2.50598 0
M  V30 9065 H 955.126 -6.57219 -2.26027 0
M  V30 9066 H 958.317 -4.32371 -1.79369 0
M  V30 9067 H 958.49 -6.07765 -2.24778 0
M  V30 9068 O 951.935 0.63997 -1.48279 0
M  V30 9069 H 952.626 1.29381 -1.44153 0
M  V30 END ATOM
M  V30 BEGIN BOND
M  V30 END BOND
M  V30 END CTAB
M  END
$$$$
